# Generated by pormake.
# Topology ilc, (8)-cn, num edge types: 1
# Building blocks:
#     Node 0, Type 0, BuildingBlock: LIZSOE_clean_sbu_0, # of connection points: 8
#     Node 1, Type 0, BuildingBlock: LIZSOE_clean_sbu_0, # of connection points: 8
#     Node 2, Type 0, BuildingBlock: LIZSOE_clean_sbu_0, # of connection points: 8
#     Edge 3, Type (0, 0), BuildingBlock: FUNLAD_clean_linker_0, # of connection points: 2
#     Edge 4, Type (0, 0), BuildingBlock: FUNLAD_clean_linker_0, # of connection points: 2
#     Edge 5, Type (0, 0), BuildingBlock: FUNLAD_clean_linker_0, # of connection points: 2
#     Edge 6, Type (0, 0), BuildingBlock: FUNLAD_clean_linker_0, # of connection points: 2
#     Edge 7, Type (0, 0), BuildingBlock: FUNLAD_clean_linker_0, # of connection points: 2
#     Edge 8, Type (0, 0), BuildingBlock: FUNLAD_clean_linker_0, # of connection points: 2
#     Edge 9, Type (0, 0), BuildingBlock: FUNLAD_clean_linker_0, # of connection points: 2
#     Edge 10, Type (0, 0), BuildingBlock: FUNLAD_clean_linker_0, # of connection points: 2
#     Edge 11, Type (0, 0), BuildingBlock: FUNLAD_clean_linker_0, # of connection points: 2
#     Edge 12, Type (0, 0), BuildingBlock: FUNLAD_clean_linker_0, # of connection points: 2
#     Edge 13, Type (0, 0), BuildingBlock: FUNLAD_clean_linker_0, # of connection points: 2
#     Edge 14, Type (0, 0), BuildingBlock: FUNLAD_clean_linker_0, # of connection points: 2
# Relax obj value: 0.335
# Max RMSD: 0.168
# Mean RMSD: 0.168
data_MOF--net-ilc--node1-LIZSOE_clean_sbu_0--edge1-FUNLAD_clean_linker_0
_symmetry_space_group_name_H-M    P1
_symmetry_Int_Tables_number       1
_symmetry_cell_setting            triclinic
loop_
_symmetry_equiv_pos_as_xyz
'x, y, z'
_cell_length_a     24.096898
_cell_length_b     23.673389
_cell_length_c     17.843704
_cell_angle_alpha  89.093603
_cell_angle_beta   90.810429
_cell_angle_gamma 120.61438
loop_
_atom_site_label
_atom_site_type_symbol
_atom_site_fract_x
_atom_site_fract_y
_atom_site_fract_z
_atom_type_partial_charge
Co0 Co 0.12368 0.08257 0.9287 0.0
N1 N 0.13173 0.10033 0.82439 0.0
C2 C 0.14713 0.16043 0.79803 0.0
N3 N 0.18628 0.12138 0.71644 0.0
C4 C 0.15402 0.07656 0.77137 0.0
C5 C 0.18041 0.17334 0.73246 0.0
Co6 Co 0.96805 0.97501 0.23866 0.0
N7 N 0.96625 0.96478 0.34574 0.0
N8 N 0.03662 0.98269 0.43959 0.0
C9 C 1.01664 1.02628 0.44442 0.0
C10 C 0.9725 1.01425 0.38838 0.0
C11 C 0.99989 0.94219 0.38412 0.0
Co12 Co 0.0462 1.02578 1.08073 0.0
C13 C 0.92382 0.93753 0.19219 0.0
H14 H 0.95657 0.0478 0.37162 0.0
O15 O 0.1296 0.07361 1.02417 0.0
O16 O 0.08399 0.97662 0.13091 0.0
O17 O 1.00366 0.95128 1.00664 0.0
O18 O 1.01227 0.07825 1.02351 0.0
O19 O 0.09277 0.14033 0.94321 0.0
O20 O 0.04687 0.97397 0.24276 0.0
O21 O 0.96193 0.98109 0.1403 0.0
O22 O 1.01415 0.06696 0.24892 0.0
O23 O 0.03719 1.01454 0.90696 0.0
O24 O 0.14327 1.01833 0.92684 0.0
O25 O 0.08818 0.10014 0.15829 0.0
O26 O 0.93148 0.89027 0.2186 0.0
C27 C 1.00061 0.95893 0.93628 0.0
C28 C 0.9778 0.87062 0.38768 0.0
H29 H 0.95607 0.84609 0.33403 0.0
H30 H 1.01779 0.86311 0.40566 0.0
H31 H 0.93984 0.84717 0.43101 0.0
C32 C 0.08451 0.96719 0.20063 0.0
C33 C 0.04014 0.12613 0.97554 0.0
H34 H 0.14275 0.19684 0.82881 0.0
H35 H 0.17794 1.00291 0.8012 0.0
H36 H 0.13777 0.99057 0.71194 0.0
H37 H 0.09334 0.97371 0.79799 0.0
C38 C 0.13984 1.00695 0.7704 0.0
C39 C 0.16371 0.06976 0.96806 0.0
C40 C 0.06616 0.11098 0.21871 0.0
H41 H 0.20438 0.22018 0.70326 0.0
H42 H 0.04117 0.07116 0.47642 0.0
Co43 Co 0.78136 0.38071 0.25271 0.0
N44 N 0.77066 0.36386 0.14894 0.0
C45 C 0.7928 0.41482 0.10071 0.0
N46 N 0.70908 0.33188 1.04466 0.0
C47 C 0.72301 0.31304 0.11072 0.0
C48 C 0.7556 0.39535 1.03716 0.0
Co49 Co 0.70728 0.3844 0.56133 0.0
N50 N 0.76073 0.42494 0.64692 0.0
N51 N 0.75343 0.47189 0.75245 0.0
C52 C 0.80136 0.51814 0.71038 0.0
C53 C 0.80811 0.48848 0.64797 0.0
C54 C 0.73466 0.41537 0.716 0.0
Co55 Co 0.72648 0.37383 0.4166 0.0
C56 C 0.61185 0.33333 0.5475 0.0
H57 H 0.83953 0.51368 0.60153 0.0
O58 O 0.8016 0.40189 0.34641 0.0
O59 O 0.77417 0.34396 0.48939 0.0
O60 O 0.67848 0.28075 0.37834 0.0
O61 O 0.68351 0.40575 0.33857 0.0
O62 O 0.75295 0.4403 0.24178 0.0
O63 O 0.70734 0.30822 0.58364 0.0
O64 O 0.6459 0.34113 0.48598 0.0
O65 O 0.7065 0.46033 0.53886 0.0
O66 O 0.69209 0.31228 0.26149 0.0
O67 O 0.80249 0.32039 0.27559 0.0
O68 O 0.77537 0.47029 0.4548 0.0
O69 O 0.63957 0.35884 0.60956 0.0
C70 C 0.66137 0.26863 0.31027 0.0
C71 C 0.68675 0.34943 0.74842 0.0
H72 H 0.63839 0.34412 0.75215 0.0
H73 H 0.68365 0.30851 0.71596 0.0
H74 H 0.70248 0.34671 0.80622 0.0
C75 C 0.75234 0.30848 0.54879 0.0
C76 C 0.70533 0.43773 0.27564 0.0
H77 H 0.82626 0.46521 0.11541 0.0
H78 H 0.73528 0.23227 0.08893 0.0
H79 H 0.65442 0.20988 0.1075 0.0
H80 H 0.71433 0.23494 0.18361 0.0
C81 C 0.70494 0.2434 0.12494 0.0
C82 C 0.82706 0.38165 0.29444 0.0
C83 C 0.75173 0.49707 0.49582 0.0
H84 H 0.75497 0.42874 0.99586 0.0
H85 H 0.82402 0.57051 0.71887 0.0
Co86 Co 0.3694 0.70475 0.61717 0.0
N87 N 0.29168 0.67115 0.56188 0.0
C88 C 0.236 0.6306 0.59772 0.0
N89 N 0.20685 0.65419 0.49014 0.0
C90 C 0.27238 0.68354 0.49496 0.0
C91 C 0.18468 0.62017 0.55451 0.0
Co92 Co 0.32922 0.67323 0.93256 0.0
N93 N 0.34349 0.67745 1.03646 0.0
N94 N 0.30055 0.68832 0.14258 0.0
C95 C 0.36095 0.73993 0.13569 0.0
C96 C 0.38767 0.73249 1.07171 0.0
C97 C 0.29391 0.64881 0.08508 0.0
Co98 Co 0.37211 0.69793 0.75576 0.0
C99 C 0.26764 0.60385 0.86623 0.0
H100 H 0.43168 0.77054 1.04656 0.0
O101 O 0.4439 0.7368 0.6693 0.0
O102 O 0.42972 0.66815 0.80443 0.0
O103 O 0.31969 0.60411 0.7116 0.0
O104 O 0.31231 0.72995 0.71136 0.0
O105 O 0.37616 0.78668 0.62295 0.0
O106 O 0.40266 0.66845 0.92185 0.0
O107 O 0.30666 0.66298 0.83898 0.0
O108 O 0.37735 0.76425 0.92403 0.0
O109 O 0.36636 0.62571 0.60414 0.0
O110 O 0.42049 0.7344 0.54396 0.0
O111 O 0.42222 0.78752 0.80911 0.0
O112 O 0.28477 0.58667 0.92773 0.0
C113 C 0.33239 0.58377 0.65195 0.0
C114 C 0.23588 0.58183 1.07418 0.0
H115 H 0.20172 0.58548 1.03595 0.0
H116 H 0.25004 0.54783 1.05132 0.0
H117 H 0.21104 0.55978 0.12754 0.0
C118 C 0.43822 0.66358 0.87449 0.0
C119 C 0.33151 0.7777 0.66468 0.0
H120 H 0.23228 0.61367 0.65487 0.0
H121 H 0.34324 0.7749 0.4457 0.0
H122 H 0.29352 0.71215 0.37795 0.0
H123 H 0.35539 0.70734 0.42873 0.0
C124 C 0.31843 0.72172 0.43303 0.0
C125 C 0.46192 0.74987 0.59791 0.0
C126 C 0.41513 0.80501 0.87523 0.0
H127 H 0.13486 0.59392 0.57221 0.0
H128 H 0.38028 0.78489 0.16723 0.0
C129 C 0.26641 0.09158 0.67792 0.0
C130 C 0.23032 0.12208 0.66226 0.0
C131 C 0.30768 0.09102 0.6245 0.0
C132 C 0.31554 0.12326 0.55593 0.0
C133 C 0.28436 0.15895 0.54255 0.0
C134 C 0.24128 0.15749 0.59485 0.0
C135 C 0.34381 0.10732 0.4931 0.0
C136 C 0.30625 0.0704 0.43641 0.0
C137 C 0.23567 0.04415 0.43543 0.0
C138 C 0.20986 0.06984 0.38395 0.0
C139 C 0.14486 0.05066 0.38717 0.0
C140 C 0.10429 1.00497 0.4415 0.0
H141 H 0.21483 0.97911 0.53127 0.0
C142 C 0.12975 0.97862 0.49272 0.0
C143 C 0.19535 0.9987 0.49025 0.0
H144 H 0.09902 0.94288 0.53429 0.0
H145 H 0.26358 0.06854 0.73141 0.0
H146 H 0.33157 0.0634 0.63562 0.0
H147 H 0.28983 0.18391 0.48935 0.0
H148 H 0.2152 0.18252 0.58172 0.0
H149 H 0.3949 0.12386 0.49373 0.0
H150 H 0.32869 0.06221 0.38889 0.0
H151 H 0.24026 0.10563 0.34216 0.0
H152 H 0.12572 0.07096 0.34669 0.0
C153 C 0.70418 0.47834 0.86906 0.0
C154 C 0.70667 0.48109 0.79086 0.0
C155 C 0.64624 0.46017 0.90558 0.0
C156 C 0.58984 0.44278 0.86354 0.0
C157 C 0.59504 0.45472 0.78612 0.0
C158 C 0.65315 0.47406 0.75005 0.0
C159 C 0.52443 0.4083 0.89742 0.0
C160 C 0.50251 0.35654 0.94511 0.0
C161 C 0.54232 0.32945 0.9732 0.0
C162 C 0.57301 0.30843 0.92374 0.0
C163 C 0.6241 0.30091 0.94938 0.0
C164 C 0.64427 0.31375 1.02426 0.0
H165 H 0.53307 0.34887 0.08891 0.0
C166 C 0.60757 0.32595 1.0752 0.0
C167 C 0.55667 0.33341 1.04985 0.0
H168 H 0.62275 0.33679 0.13319 0.0
H169 H 0.74569 0.48567 0.90091 0.0
H170 H 0.64459 0.45538 0.96602 0.0
H171 H 0.55287 0.44372 0.75269 0.0
H172 H 0.65436 0.47627 0.68937 0.0
H173 H 0.49035 0.42271 0.87839 0.0
H174 H 0.45433 0.33616 0.96771 0.0
H175 H 0.56113 0.30337 0.86452 0.0
H176 H 0.65104 0.29 0.91024 0.0
C177 C 0.238 0.74397 0.13497 0.0
C178 C 0.24722 0.69444 0.16669 0.0
C179 C 0.18019 0.74309 0.1452 0.0
C180 C 0.1304 0.69218 0.18636 0.0
C181 C 0.13895 0.64162 0.21604 0.0
C182 C 0.19773 0.64429 0.209 0.0
C183 C 0.0716 0.69476 0.20335 0.0
C184 C 0.04918 0.68799 0.27369 0.0
C185 C 0.08552 0.68361 0.33865 0.0
C186 C 0.14974 0.73336 0.34994 0.0
C187 C 0.1894 0.72429 0.39991 0.0
C188 C 0.16661 0.66395 0.43718 0.0
H189 H 1.01164 0.58547 0.37051 0.0
C190 C 0.10133 0.61475 0.42746 0.0
C191 C 0.06076 0.62499 0.37966 0.0
H192 H 0.08187 0.56773 0.45576 0.0
H193 H 0.27489 0.78219 0.10019 0.0
H194 H 0.17454 0.78229 0.1215 0.0
H195 H 0.10037 0.60037 0.24567 0.0
H196 H 0.20368 0.60574 0.234 0.0
H197 H 0.04646 0.7034 0.15772 0.0
H198 H 1.00384 0.68611 0.28301 0.0
H199 H 0.17022 0.77801 0.31682 0.0
H200 H 0.23774 0.76482 0.40899 0.0
C201 C 0.32498 0.86654 0.59672 0.0
C202 C 0.29246 0.80633 0.6363 0.0
C203 C 0.29256 0.88469 0.54489 0.0
C204 C 0.22634 0.84312 0.5311 0.0
C205 C 0.19238 0.7866 0.57679 0.0
C206 C 0.22508 0.76831 0.62895 0.0
C207 C 0.19194 0.85632 0.46858 0.0
C208 C 0.22113 0.89055 0.40495 0.0
C209 C 0.18671 0.90279 0.34151 0.0
C210 C 0.22153 0.95616 0.29179 0.0
C211 C 0.18927 0.9755 0.24039 0.0
C212 C 0.12183 0.93927 0.23501 0.0
H213 H 0.0914 0.8187 0.36237 0.0
C214 C 0.08845 0.88016 0.27551 0.0
C215 C 0.11993 0.86287 0.32956 0.0
H216 H 0.03702 0.84883 0.26784 0.0
H217 H 0.37689 0.89751 0.60162 0.0
H218 H 0.32012 0.93028 0.51403 0.0
H219 H 0.14099 0.7542 0.56872 0.0
H220 H 0.19841 0.72188 0.65854 0.0
H221 H 0.14026 0.83467 0.47449 0.0
H222 H 0.27279 0.91191 0.39912 0.0
H223 H 0.27347 0.98573 0.29615 0.0
H224 H 0.21657 1.02076 0.20875 0.0
C225 C 0.23132 0.47298 0.63402 0.0
C226 C 0.29831 0.51421 0.6266 0.0
C227 C 0.19768 0.41604 0.59007 0.0
C228 C 0.23002 0.39913 0.53746 0.0
C229 C 0.2977 0.43792 0.53478 0.0
C230 C 0.33106 0.49457 0.57832 0.0
C231 C 0.19159 0.34192 0.48583 0.0
C232 C 0.21378 0.33231 0.42025 0.0
C233 C 0.17471 0.27721 0.36632 0.0
C234 C 0.20645 0.26241 0.31072 0.0
C235 C 0.17175 0.21085 0.25975 0.0
C236 C 0.10413 0.17282 0.26273 0.0
H237 H 0.07976 0.25105 0.4066 0.0
C238 C 0.07242 0.1894 0.3164 0.0
C239 C 0.1069 0.24056 0.36718 0.0
H240 H 1.02032 0.16191 0.32011 0.0
H241 H 0.20439 0.48704 0.6696 0.0
H242 H 0.14568 0.38682 0.59465 0.0
H243 H 0.3254 0.42595 0.49796 0.0
H244 H 0.38274 0.52526 0.5712 0.0
H245 H 0.14223 0.30777 0.50206 0.0
H246 H 0.26314 0.36649 0.40407 0.0
H247 H 0.2586 0.29001 0.30765 0.0
H248 H 0.198 0.19926 0.22004 0.0
C249 C 0.54529 0.74343 0.52562 0.0
C250 C 0.52982 0.78011 0.57327 0.0
C251 C 0.59864 0.7743 0.47791 0.0
C252 C 0.63793 0.8432 0.47577 0.0
C253 C 0.6253 0.8796 0.52755 0.0
C254 C 0.57136 0.84851 0.57516 0.0
C255 C 0.69195 0.87783 0.42037 0.0
C256 C 0.69137 0.85317 0.35196 0.0
C257 C 0.74636 0.88212 0.29746 0.0
C258 C 0.74969 0.84027 0.24493 0.0
C259 C 0.80458 0.86161 0.20067 0.0
C260 C 0.85746 0.92597 0.20639 0.0
H261 H 0.79457 0.98316 0.33495 0.0
C262 C 0.85063 0.97028 0.25161 0.0
C263 C 0.79619 0.94849 0.29759 0.0
H264 H 0.89005 1.02028 0.25718 0.0
H265 H 0.51338 0.69077 0.52164 0.0
H266 H 0.60785 0.74395 0.44143 0.0
H267 H 0.6551 0.93262 0.52826 0.0
H268 H 0.55958 0.87834 0.60932 0.0
H269 H 0.73274 0.92486 0.43665 0.0
H270 H 0.6495 0.80669 0.33615 0.0
H271 H 0.71169 0.78926 0.24195 0.0
H272 H 0.80817 0.8259 0.16704 0.0
C273 C 0.85202 0.3107 0.59808 0.0
C274 C 0.78486 0.2769 0.58689 0.0
C275 C 0.88012 0.28616 0.64887 0.0
C276 C 0.84148 0.22695 0.6887 0.0
C277 C 0.77495 0.19169 0.67375 0.0
C278 C 0.74693 0.21672 0.62445 0.0
C279 C 0.86806 0.1997 0.74568 0.0
C280 C 0.92095 0.23689 0.78824 0.0
C281 C 0.94765 0.20965 0.84532 0.0
C282 C 1.01312 0.2476 0.8652 0.0
C283 C 0.04195 0.22215 0.91274 0.0
C284 C 1.00587 0.15834 0.94307 0.0
H285 H 0.85931 0.11721 0.86816 0.0
C286 C 0.93927 0.12202 0.92805 0.0
C287 C 0.91042 0.14728 0.87956 0.0
H288 H 0.91023 0.07251 0.94992 0.0
H289 H 0.88231 0.35769 0.57077 0.0
H290 H 0.93184 0.3139 0.65723 0.0
H291 H 0.74399 0.14569 0.70267 0.0
H292 H 0.69497 0.18991 0.6175 0.0
H293 H 0.84122 0.14689 0.75421 0.0
H294 H 0.94743 0.28973 0.77953 0.0
H295 H 0.04296 0.29615 0.84108 0.0
H296 H 0.09342 0.2514 0.92303 0.0
C297 C 0.7523 0.59046 0.55955 0.0
C298 C 0.7859 0.56859 0.51554 0.0
C299 C 0.78501 0.64703 0.60298 0.0
C300 C 0.85255 0.68498 0.60253 0.0
C301 C 0.88604 0.66795 0.55184 0.0
C302 C 0.85313 0.6101 0.50894 0.0
C303 C 0.88803 0.74204 0.65459 0.0
C304 C 0.86869 0.74114 0.72606 0.0
C305 C 0.90172 0.79736 0.77969 0.0
C306 C 0.8989 0.78505 0.8576 0.0
C307 C 0.92899 0.83688 0.90921 0.0
C308 C 0.96148 0.90261 0.88429 0.0
H309 H 0.93423 0.87474 0.69587 0.0
C310 C 0.96132 0.91461 0.80641 0.0
C311 C 0.93272 0.863 0.75498 0.0
H312 H 0.98489 0.96437 0.78453 0.0
H313 H 0.7004 0.56082 0.56521 0.0
H314 H 0.75724 0.65996 0.63864 0.0
H315 H 0.93812 0.69725 0.54878 0.0
H316 H 0.8808 0.59516 0.47599 0.0
H317 H 0.93252 0.78417 0.6348 0.0
H318 H 0.82782 0.69612 0.74755 0.0
H319 H 0.8744 0.73498 0.87863 0.0
H320 H 0.92781 0.82539 0.96836 0.0
C321 C 0.50853 0.32093 0.58454 0.0
C322 C 0.54123 0.29037 0.5565 0.0
C323 C 0.46297 0.29187 0.64249 0.0
C324 C 0.44779 0.23051 0.67326 0.0
C325 C 0.47399 0.19639 0.63803 0.0
C326 C 0.51961 0.22562 0.58034 0.0
C327 C 0.40618 0.20003 0.74178 0.0
C328 C 0.38378 0.22911 0.78813 0.0
C329 C 0.33794 0.19435 0.85258 0.0
C330 C 0.30249 0.22113 0.88269 0.0
C331 C 0.25145 0.18487 0.93332 0.0
C332 C 0.2338 0.1203 0.95424 0.0
H333 H 0.35386 0.11209 0.86502 0.0
C334 C 0.27503 0.09757 0.93229 0.0
C335 C 0.32613 0.13377 0.88246 0.0
H336 H 0.26363 0.04834 0.94762 0.0
H337 H 0.5247 0.37139 0.56895 0.0
H338 H 0.44273 0.31945 0.66531 0.0
H339 H 0.46237 0.14829 0.65853 0.0
H340 H 0.54435 0.20087 0.56191 0.0
H341 H 0.39319 0.1498 0.75375 0.0
H342 H 0.39632 0.27933 0.77658 0.0
H343 H 0.31112 0.26841 0.86287 0.0
H344 H 0.2213 0.20446 0.94866 0.0
C345 C 0.69653 0.49869 0.16415 0.0
C346 C 0.67107 0.46613 0.2332 0.0
C347 C 0.66425 0.52215 0.11979 0.0
C348 C 0.60514 0.51402 0.14273 0.0
C349 C 0.57989 0.48253 0.2122 0.0
C350 C 0.61221 0.45847 0.25678 0.0
C351 C 0.57125 0.54177 0.09815 0.0
C352 C 0.58027 0.55677 1.02389 0.0
C353 C 0.54947 0.58935 0.98259 0.0
C354 C 0.53487 0.57819 0.90544 0.0
C355 C 0.50225 0.60554 0.86737 0.0
C356 C 0.48484 0.64555 0.90572 0.0
H357 H 0.54913 0.64559 1.07721 0.0
C358 C 0.50429 0.66068 0.9812 0.0
C359 C 0.53589 0.63298 1.01904 0.0
H360 H 0.49285 0.69236 1.01231 0.0
H361 H 0.74189 0.50622 0.14356 0.0
H362 H 0.68679 0.54788 1.06829 0.0
H363 H 0.53475 0.47623 0.23194 0.0
H364 H 0.5909 0.43353 0.30915 0.0
H365 H 0.53684 0.54958 0.12812 0.0
H366 H 0.60959 0.54346 0.99155 0.0
H367 H 0.54656 0.54636 0.87522 0.0
H368 H 0.48797 0.59281 0.80941 0.0
C369 C 0.50315 0.88704 0.95672 0.0
C370 C 0.45451 0.87336 0.90314 0.0
C371 C 0.52433 0.93965 1.00668 0.0
C372 C 0.49743 0.98039 1.00446 0.0
C373 C 0.45212 0.96947 0.94725 0.0
C374 C 0.43022 0.91613 0.89805 0.0
C375 C 0.5155 1.03462 1.06005 0.0
C376 C 0.53717 1.03504 0.13103 0.0
C377 C 0.55783 0.08999 0.18647 0.0
C378 C 0.5975 0.09444 0.24778 0.0
C379 C 0.62538 0.14944 0.29503 0.0
C380 C 0.61444 0.20167 0.28205 0.0
H381 H 0.5093 0.1371 0.13465 0.0
C382 C 0.56997 0.19447 0.22545 0.0
C383 C 0.54143 0.13914 0.17881 0.0
H384 H 0.5606 0.23392 0.21393 0.0
H385 H 0.52168 0.85406 0.96349 0.0
H386 H 0.56076 0.94722 1.04794 0.0
H387 H 0.4309 1.00023 0.94312 0.0
H388 H 0.39114 0.90575 0.85942 0.0
H389 H 0.50923 0.07487 1.04143 0.0
H390 H 0.54246 0.99405 0.1492 0.0
H391 H 0.61022 0.05703 0.25659 0.0
H392 H 0.66006 0.15373 0.33722 0.0
C393 C 0.17636 0.62065 0.89745 0.0
C394 C 0.19708 0.57901 0.86933 0.0
C395 C 0.12049 0.59522 0.94195 0.0
C396 C 0.0839 0.52742 0.95858 0.0
C397 C 0.09939 0.48554 0.92067 0.0
C398 C 0.1552 0.5109 0.87695 0.0
C399 C 1.0338 0.49812 1.01937 0.0
C400 C 1.0278 0.5312 1.07737 0.0
C401 C 0.98381 0.49711 0.14293 0.0
C402 C 0.95481 0.52691 0.18152 0.0
C403 C 0.90958 0.49306 0.23901 0.0
C404 C 0.89182 0.42818 0.25868 0.0
H405 H 0.9947 0.41165 0.14343 0.0
C406 C 0.92605 0.40146 0.22523 0.0
C407 C 0.97112 0.43519 0.16851 0.0
H408 H 0.91488 0.35211 0.23938 0.0
H409 H 0.20768 0.67344 0.89373 0.0
H410 H 0.10934 0.62927 0.96775 0.0
H411 H 0.07156 0.43299 0.93042 0.0
H412 H 0.16971 0.47741 0.85686 0.0
H413 H 1.00338 0.44499 1.01939 0.0
H414 H 0.05588 0.58437 1.07776 0.0
H415 H 0.96388 0.57477 0.16392 0.0
H416 H 0.8843 0.51536 0.26278 0.0
loop_
_geom_bond_atom_site_label_1
_geom_bond_atom_site_label_2
_geom_bond_distance
_geom_bond_site_symmetry_2
_ccdc_geom_bond_type
Co0 N1 2.034 1_455 S
Co0 O15 2.262 . S
Co0 O19 1.958 1_455 S
Co0 O23 1.950 1_445 S
Co0 O24 2.057 . S
N1 Co0 2.034 1_655 S
N1 C2 1.366 . S
N1 C4 1.332 1_645 S
C2 N1 1.366 . S
C2 C5 1.377 . S
C2 H34 0.931 . S
N3 C4 1.346 1_655 S
N3 C5 1.337 1_565 S
C4 N1 1.332 1_465 S
C4 N3 1.346 1_455 S
C4 C38 1.361 . S
C5 C2 1.377 . S
C5 N3 1.337 1_545 S
C5 H41 0.930 . S
Co6 N7 2.034 1_655 S
Co6 O20 1.950 1_645 S
Co6 O21 2.262 1_545 S
Co6 O22 1.958 1_655 S
Co6 O26 2.057 1_545 S
N7 Co6 2.034 1_455 S
N7 C10 1.366 . S
N7 C11 1.332 1_445 S
N8 C9 1.337 1_565 S
N8 C11 1.346 1_455 S
C9 N8 1.337 1_545 S
C9 C10 1.377 . S
C9 H42 0.930 . S
C10 N7 1.366 . S
C10 C9 1.377 . S
C10 H14 0.931 . S
C11 N7 1.332 1_665 S
C11 N8 1.346 1_655 S
C11 C28 1.361 . S
Co12 O15 2.097 1_554 S
Co12 O16 2.065 1_545 S
Co12 O17 2.065 1_444 S
Co12 O18 2.042 1_454 S
Co12 O21 2.097 1_445 S
Co12 O25 2.042 . S
C13 O21 1.253 . S
C13 O26 1.263 . S
H14 C10 0.931 . S
O15 Co0 2.262 . S
O15 Co12 2.097 1_556 S
O15 C39 1.253 . S
O16 Co12 2.065 1_565 S
O16 C32 1.221 . S
O17 Co12 2.065 1_666 S
O17 C27 1.221 . S
O18 Co12 2.042 1_656 S
O18 C33 1.237 . S
O19 Co0 1.958 1_655 S
O19 C33 1.278 . S
O20 Co6 1.950 1_465 S
O20 C32 1.277 . S
O21 Co6 2.262 1_565 S
O21 Co12 2.097 1_665 S
O21 C13 1.253 . S
O22 Co6 1.958 1_455 S
O22 C40 1.278 . S
O23 Co0 1.950 1_665 S
O23 C27 1.277 . S
O24 Co0 2.057 . S
O24 C39 1.263 . S
O25 Co12 2.042 . S
O25 C40 1.237 . S
O26 Co6 2.057 1_565 S
O26 C13 1.263 . S
C27 O17 1.221 . S
C27 O23 1.277 . S
C28 C11 1.361 . S
C28 H29 0.960 . S
C28 H30 0.961 . S
C28 H31 0.961 . S
H29 C28 0.960 . S
H30 C28 0.961 . S
H31 C28 0.961 . S
C32 O16 1.221 . S
C32 O20 1.277 . S
C33 O18 1.237 . S
C33 O19 1.278 . S
H34 C2 0.931 . S
H35 C38 0.961 . S
H36 C38 0.961 . S
H37 C38 0.960 . S
C38 C4 1.361 . S
C38 H35 0.961 . S
C38 H36 0.961 . S
C38 H37 0.960 . S
C39 O15 1.253 . S
C39 O24 1.263 . S
C40 O22 1.278 . S
C40 O25 1.237 . S
H41 C5 0.930 . S
H42 C9 0.930 . S
Co43 N44 2.034 . S
Co43 O58 2.262 . S
Co43 O62 1.958 . S
Co43 O66 1.950 . S
Co43 O67 2.057 . S
N44 Co43 2.034 . S
N44 C45 1.366 . S
N44 C47 1.332 . S
C45 N44 1.366 . S
C45 C48 1.377 1_554 S
C45 H77 0.931 . S
N46 C47 1.346 1_556 S
N46 C48 1.337 . S
C47 N44 1.332 . S
C47 N46 1.346 1_554 S
C47 C81 1.361 . S
C48 C45 1.377 1_556 S
C48 N46 1.337 . S
C48 H84 0.930 . S
Co49 N50 2.034 . S
Co49 O63 1.950 . S
Co49 O64 2.262 . S
Co49 O65 1.958 . S
Co49 O69 2.057 . S
N50 Co49 2.034 . S
N50 C53 1.366 . S
N50 C54 1.332 . S
N51 C52 1.337 . S
N51 C54 1.346 . S
C52 N51 1.337 . S
C52 C53 1.377 . S
C52 H85 0.930 . S
C53 N50 1.366 . S
C53 C52 1.377 . S
C53 H57 0.931 . S
C54 N50 1.332 . S
C54 N51 1.346 . S
C54 C71 1.361 . S
Co55 O58 2.097 . S
Co55 O59 2.065 . S
Co55 O60 2.065 . S
Co55 O61 2.042 . S
Co55 O64 2.097 . S
Co55 O68 2.042 . S
C56 O64 1.253 . S
C56 O69 1.263 . S
H57 C53 0.931 . S
O58 Co43 2.262 . S
O58 Co55 2.097 . S
O58 C82 1.253 . S
O59 Co55 2.065 . S
O59 C75 1.221 . S
O60 Co55 2.065 . S
O60 C70 1.221 . S
O61 Co55 2.042 . S
O61 C76 1.237 . S
O62 Co43 1.958 . S
O62 C76 1.278 . S
O63 Co49 1.950 . S
O63 C75 1.277 . S
O64 Co49 2.262 . S
O64 Co55 2.097 . S
O64 C56 1.253 . S
O65 Co49 1.958 . S
O65 C83 1.278 . S
O66 Co43 1.950 . S
O66 C70 1.277 . S
O67 Co43 2.057 . S
O67 C82 1.263 . S
O68 Co55 2.042 . S
O68 C83 1.237 . S
O69 Co49 2.057 . S
O69 C56 1.263 . S
C70 O60 1.221 . S
C70 O66 1.277 . S
C71 C54 1.361 . S
C71 H72 0.960 . S
C71 H73 0.961 . S
C71 H74 0.961 . S
H72 C71 0.960 . S
H73 C71 0.961 . S
H74 C71 0.961 . S
C75 O59 1.221 . S
C75 O63 1.277 . S
C76 O61 1.237 . S
C76 O62 1.278 . S
H77 C45 0.931 . S
H78 C81 0.961 . S
H79 C81 0.961 . S
H80 C81 0.960 . S
C81 C47 1.361 . S
C81 H78 0.961 . S
C81 H79 0.961 . S
C81 H80 0.960 . S
C82 O58 1.253 . S
C82 O67 1.263 . S
C83 O65 1.278 . S
C83 O68 1.237 . S
H84 C48 0.930 . S
H85 C52 0.930 . S
Co86 N87 2.034 . S
Co86 O101 2.262 . S
Co86 O105 1.958 . S
Co86 O109 1.950 . S
Co86 O110 2.057 . S
N87 Co86 2.034 . S
N87 C88 1.366 . S
N87 C90 1.332 . S
C88 N87 1.366 . S
C88 C91 1.377 . S
C88 H120 0.931 . S
N89 C90 1.346 . S
N89 C91 1.337 . S
C90 N87 1.332 . S
C90 N89 1.346 . S
C90 C124 1.361 . S
C91 C88 1.377 . S
C91 N89 1.337 . S
C91 H127 0.930 . S
Co92 N93 2.034 . S
Co92 O106 1.950 . S
Co92 O107 2.262 . S
Co92 O108 1.958 . S
Co92 O112 2.057 . S
N93 Co92 2.034 . S
N93 C96 1.366 . S
N93 C97 1.332 . S
N94 C95 1.337 . S
N94 C97 1.346 1_554 S
C95 N94 1.337 . S
C95 C96 1.377 1_554 S
C95 H128 0.930 . S
C96 N93 1.366 . S
C96 C95 1.377 1_556 S
C96 H100 0.931 . S
C97 N93 1.332 . S
C97 N94 1.346 1_556 S
C97 C114 1.361 . S
Co98 O101 2.097 . S
Co98 O102 2.065 . S
Co98 O103 2.065 . S
Co98 O104 2.042 . S
Co98 O107 2.097 . S
Co98 O111 2.042 . S
C99 O107 1.253 . S
C99 O112 1.263 . S
H100 C96 0.931 . S
O101 Co86 2.262 . S
O101 Co98 2.097 . S
O101 C125 1.253 . S
O102 Co98 2.065 . S
O102 C118 1.221 . S
O103 Co98 2.065 . S
O103 C113 1.221 . S
O104 Co98 2.042 . S
O104 C119 1.237 . S
O105 Co86 1.958 . S
O105 C119 1.278 . S
O106 Co92 1.950 . S
O106 C118 1.277 . S
O107 Co92 2.262 . S
O107 Co98 2.097 . S
O107 C99 1.253 . S
O108 Co92 1.958 . S
O108 C126 1.278 . S
O109 Co86 1.950 . S
O109 C113 1.277 . S
O110 Co86 2.057 . S
O110 C125 1.263 . S
O111 Co98 2.042 . S
O111 C126 1.237 . S
O112 Co92 2.057 . S
O112 C99 1.263 . S
C113 O103 1.221 . S
C113 O109 1.277 . S
C114 C97 1.361 . S
C114 H115 0.960 . S
C114 H116 0.961 . S
C114 H117 0.961 . S
H115 C114 0.960 . S
H116 C114 0.961 . S
H117 C114 0.961 . S
C118 O102 1.221 . S
C118 O106 1.277 . S
C119 O104 1.237 . S
C119 O105 1.278 . S
H120 C88 0.931 . S
H121 C124 0.961 . S
H122 C124 0.961 . S
H123 C124 0.960 . S
C124 C90 1.361 . S
C124 H121 0.961 . S
C124 H122 0.961 . S
C124 H123 0.960 . S
C125 O101 1.253 . S
C125 O110 1.263 . S
C126 O108 1.278 . S
C126 O111 1.237 . S
H127 C91 0.930 . S
H128 C95 0.930 . S
C129 C130 1.386 1_665 S
C129 C131 1.383 . S
C129 H145 0.951 . S
C130 C129 1.386 1_445 S
C130 C134 1.383 . S
C131 C129 1.383 . S
C131 C132 1.402 1_665 S
C131 H146 0.951 . S
C132 C131 1.402 1_445 S
C132 C133 1.375 . S
C132 C135 1.481 . S
C133 C132 1.375 . S
C133 C134 1.367 . S
C133 H147 0.951 . S
C134 C130 1.383 . S
C134 C133 1.367 . S
C134 H148 0.950 . S
C135 C132 1.481 . S
C135 C136 1.297 1_455 S
C135 H149 0.950 . S
C136 C135 1.297 1_655 S
C136 C137 1.479 . S
C136 H150 0.950 1_545 S
C137 C136 1.479 . S
C137 C138 1.375 1_545 S
C137 C143 1.404 1_655 S
C138 C137 1.375 1_565 S
C138 C139 1.369 . S
C138 H151 0.950 . S
C139 C138 1.369 . S
C139 C140 1.392 . S
C139 H152 0.951 . S
C140 C139 1.392 . S
C140 C142 1.384 1_665 S
H141 C143 0.949 . S
C142 C140 1.384 1_445 S
C142 C143 1.385 . S
C142 H144 0.950 . S
C143 C137 1.404 1_455 S
C143 H141 0.949 . S
C143 C142 1.385 . S
H144 C142 0.950 . S
H145 C129 0.951 . S
H146 C131 0.951 . S
H147 C133 0.951 . S
H148 C134 0.950 . S
H149 C135 0.950 . S
H150 C136 0.950 1_565 S
H151 C138 0.950 . S
H152 C139 0.951 . S
C153 C154 1.386 . S
C153 C155 1.383 . S
C153 H169 0.951 . S
C154 C153 1.386 . S
C154 C158 1.383 . S
C155 C153 1.383 . S
C155 C156 1.402 . S
C155 H170 0.951 . S
C156 C155 1.402 . S
C156 C157 1.375 . S
C156 C159 1.481 . S
C157 C156 1.375 . S
C157 C158 1.367 . S
C157 H171 0.951 . S
C158 C154 1.383 . S
C158 C157 1.367 . S
C158 H172 0.950 . S
C159 C156 1.481 . S
C159 C160 1.297 . S
C159 H173 0.950 . S
C160 C159 1.297 . S
C160 C161 1.479 . S
C160 H174 0.950 . S
C161 C160 1.479 . S
C161 C162 1.375 . S
C161 C167 1.404 . S
C162 C161 1.375 . S
C162 C163 1.369 1_556 S
C162 H175 0.950 . S
C163 C162 1.369 1_554 S
C163 C164 1.392 . S
C163 H176 0.951 . S
C164 C163 1.392 . S
C164 C166 1.384 . S
H165 C167 0.949 . S
C166 C164 1.384 . S
C166 C167 1.385 1_554 S
C166 H168 0.950 . S
C167 C161 1.404 . S
C167 H165 0.949 . S
C167 C166 1.385 1_556 S
H168 C166 0.950 . S
H169 C153 0.951 . S
H170 C155 0.951 . S
H171 C157 0.951 . S
H172 C158 0.950 . S
H173 C159 0.950 . S
H174 C160 0.950 . S
H175 C162 0.950 . S
H176 C163 0.951 . S
C177 C178 1.386 . S
C177 C179 1.383 1_556 S
C177 H193 0.951 . S
C178 C177 1.386 . S
C178 C182 1.383 . S
C179 C177 1.383 1_554 S
C179 C180 1.402 . S
C179 H194 0.951 . S
C180 C179 1.402 . S
C180 C181 1.375 . S
C180 C183 1.481 . S
C181 C180 1.375 . S
C181 C182 1.367 1_554 S
C181 H195 0.951 . S
C182 C178 1.383 . S
C182 C181 1.367 1_556 S
C182 H196 0.950 . S
C183 C180 1.481 . S
C183 C184 1.297 . S
C183 H197 0.950 . S
C184 C183 1.297 . S
C184 C185 1.479 . S
C184 H198 0.950 . S
C185 C184 1.479 . S
C185 C186 1.375 . S
C185 C191 1.404 . S
C186 C185 1.375 . S
C186 C187 1.369 . S
C186 H199 0.950 . S
C187 C186 1.369 . S
C187 C188 1.392 . S
C187 H200 0.951 . S
C188 C187 1.392 . S
C188 C190 1.384 . S
H189 C191 0.949 . S
C190 C188 1.384 . S
C190 C191 1.385 . S
C190 H192 0.950 . S
C191 C185 1.404 . S
C191 H189 0.949 . S
C191 C190 1.385 . S
H192 C190 0.950 . S
H193 C177 0.951 . S
H194 C179 0.951 . S
H195 C181 0.951 . S
H196 C182 0.950 . S
H197 C183 0.950 . S
H198 C184 0.950 . S
H199 C186 0.950 . S
H200 C187 0.951 . S
C201 C202 1.386 . S
C201 C203 1.383 . S
C201 H217 0.951 . S
C202 C201 1.386 . S
C202 C206 1.383 . S
C203 C201 1.383 . S
C203 C204 1.402 . S
C203 H218 0.951 . S
C204 C203 1.402 . S
C204 C205 1.375 . S
C204 C207 1.481 . S
C205 C204 1.375 . S
C205 C206 1.367 . S
C205 H219 0.951 . S
C206 C202 1.383 . S
C206 C205 1.367 . S
C206 H220 0.950 . S
C207 C204 1.481 . S
C207 C208 1.297 . S
C207 H221 0.950 . S
C208 C207 1.297 . S
C208 C209 1.479 . S
C208 H222 0.950 . S
C209 C208 1.479 . S
C209 C210 1.375 . S
C209 C215 1.404 . S
C210 C209 1.375 . S
C210 C211 1.369 . S
C210 H223 0.950 . S
C211 C210 1.369 . S
C211 C212 1.392 . S
C211 H224 0.951 . S
C212 C211 1.392 . S
C212 C214 1.384 . S
H213 C215 0.949 . S
C214 C212 1.384 . S
C214 C215 1.385 . S
C214 H216 0.950 . S
C215 C209 1.404 . S
C215 H213 0.949 . S
C215 C214 1.385 . S
H216 C214 0.950 . S
H217 C201 0.951 . S
H218 C203 0.951 . S
H219 C205 0.951 . S
H220 C206 0.950 . S
H221 C207 0.950 . S
H222 C208 0.950 . S
H223 C210 0.950 . S
H224 C211 0.951 . S
C225 C226 1.386 . S
C225 C227 1.383 . S
C225 H241 0.951 . S
C226 C225 1.386 . S
C226 C230 1.383 . S
C227 C225 1.383 . S
C227 C228 1.402 . S
C227 H242 0.951 . S
C228 C227 1.402 . S
C228 C229 1.375 . S
C228 C231 1.481 . S
C229 C228 1.375 . S
C229 C230 1.367 . S
C229 H243 0.951 . S
C230 C226 1.383 . S
C230 C229 1.367 . S
C230 H244 0.950 . S
C231 C228 1.481 . S
C231 C232 1.297 . S
C231 H245 0.950 . S
C232 C231 1.297 . S
C232 C233 1.479 . S
C232 H246 0.950 . S
C233 C232 1.479 . S
C233 C234 1.375 . S
C233 C239 1.404 . S
C234 C233 1.375 . S
C234 C235 1.369 . S
C234 H247 0.950 . S
C235 C234 1.369 . S
C235 C236 1.392 . S
C235 H248 0.951 . S
C236 C235 1.392 . S
C236 C238 1.384 . S
H237 C239 0.949 . S
C238 C236 1.384 . S
C238 C239 1.385 . S
C238 H240 0.950 . S
C239 C233 1.404 . S
C239 H237 0.949 . S
C239 C238 1.385 . S
H240 C238 0.950 . S
H241 C225 0.951 . S
H242 C227 0.951 . S
H243 C229 0.951 . S
H244 C230 0.950 . S
H245 C231 0.950 . S
H246 C232 0.950 . S
H247 C234 0.950 . S
H248 C235 0.951 . S
C249 C250 1.386 . S
C249 C251 1.383 . S
C249 H265 0.951 . S
C250 C249 1.386 . S
C250 C254 1.383 . S
C251 C249 1.383 . S
C251 C252 1.402 . S
C251 H266 0.951 . S
C252 C251 1.402 . S
C252 C253 1.375 . S
C252 C255 1.481 . S
C253 C252 1.375 . S
C253 C254 1.367 . S
C253 H267 0.951 . S
C254 C250 1.383 . S
C254 C253 1.367 . S
C254 H268 0.950 . S
C255 C252 1.481 . S
C255 C256 1.297 . S
C255 H269 0.950 . S
C256 C255 1.297 . S
C256 C257 1.479 . S
C256 H270 0.950 . S
C257 C256 1.479 . S
C257 C258 1.375 . S
C257 C263 1.404 . S
C258 C257 1.375 . S
C258 C259 1.369 . S
C258 H271 0.950 . S
C259 C258 1.369 . S
C259 C260 1.392 . S
C259 H272 0.951 . S
C260 C259 1.392 . S
C260 C262 1.384 . S
H261 C263 0.949 . S
C262 C260 1.384 . S
C262 C263 1.385 . S
C262 H264 0.950 . S
C263 C257 1.404 . S
C263 H261 0.949 . S
C263 C262 1.385 . S
H264 C262 0.950 . S
H265 C249 0.951 . S
H266 C251 0.951 . S
H267 C253 0.951 . S
H268 C254 0.950 . S
H269 C255 0.950 . S
H270 C256 0.950 . S
H271 C258 0.950 . S
H272 C259 0.951 . S
C273 C274 1.386 . S
C273 C275 1.383 . S
C273 H289 0.951 . S
C274 C273 1.386 . S
C274 C278 1.383 . S
C275 C273 1.383 . S
C275 C276 1.402 . S
C275 H290 0.951 . S
C276 C275 1.402 . S
C276 C277 1.375 . S
C276 C279 1.481 . S
C277 C276 1.375 . S
C277 C278 1.367 . S
C277 H291 0.951 . S
C278 C274 1.383 . S
C278 C277 1.367 . S
C278 H292 0.950 . S
C279 C276 1.481 . S
C279 C280 1.297 . S
C279 H293 0.950 . S
C280 C279 1.297 . S
C280 C281 1.479 . S
C280 H294 0.950 . S
C281 C280 1.479 . S
C281 C282 1.375 . S
C281 C287 1.404 . S
C282 C281 1.375 . S
C282 C283 1.369 . S
C282 H295 0.950 . S
C283 C282 1.369 . S
C283 C284 1.392 . S
C283 H296 0.951 . S
C284 C283 1.392 . S
C284 C286 1.384 . S
H285 C287 0.949 . S
C286 C284 1.384 . S
C286 C287 1.385 . S
C286 H288 0.950 . S
C287 C281 1.404 . S
C287 H285 0.949 . S
C287 C286 1.385 . S
H288 C286 0.950 . S
H289 C273 0.951 . S
H290 C275 0.951 . S
H291 C277 0.951 . S
H292 C278 0.950 . S
H293 C279 0.950 . S
H294 C280 0.950 . S
H295 C282 0.950 . S
H296 C283 0.951 . S
C297 C298 1.386 . S
C297 C299 1.383 . S
C297 H313 0.951 . S
C298 C297 1.386 . S
C298 C302 1.383 . S
C299 C297 1.383 . S
C299 C300 1.402 . S
C299 H314 0.951 . S
C300 C299 1.402 . S
C300 C301 1.375 . S
C300 C303 1.481 . S
C301 C300 1.375 . S
C301 C302 1.367 . S
C301 H315 0.951 . S
C302 C298 1.383 . S
C302 C301 1.367 . S
C302 H316 0.950 . S
C303 C300 1.481 . S
C303 C304 1.297 . S
C303 H317 0.950 . S
C304 C303 1.297 . S
C304 C305 1.479 . S
C304 H318 0.950 . S
C305 C304 1.479 . S
C305 C306 1.375 . S
C305 C311 1.404 . S
C306 C305 1.375 . S
C306 C307 1.369 . S
C306 H319 0.950 . S
C307 C306 1.369 . S
C307 C308 1.392 . S
C307 H320 0.951 . S
C308 C307 1.392 . S
C308 C310 1.384 . S
H309 C311 0.949 . S
C310 C308 1.384 . S
C310 C311 1.385 . S
C310 H312 0.950 . S
C311 C305 1.404 . S
C311 H309 0.949 . S
C311 C310 1.385 . S
H312 C310 0.950 . S
H313 C297 0.951 . S
H314 C299 0.951 . S
H315 C301 0.951 . S
H316 C302 0.950 . S
H317 C303 0.950 . S
H318 C304 0.950 . S
H319 C306 0.950 . S
H320 C307 0.951 . S
C321 C322 1.386 . S
C321 C323 1.383 . S
C321 H337 0.951 . S
C322 C321 1.386 . S
C322 C326 1.383 . S
C323 C321 1.383 . S
C323 C324 1.402 . S
C323 H338 0.951 . S
C324 C323 1.402 . S
C324 C325 1.375 . S
C324 C327 1.481 . S
C325 C324 1.375 . S
C325 C326 1.367 . S
C325 H339 0.951 . S
C326 C322 1.383 . S
C326 C325 1.367 . S
C326 H340 0.950 . S
C327 C324 1.481 . S
C327 C328 1.297 . S
C327 H341 0.950 . S
C328 C327 1.297 . S
C328 C329 1.479 . S
C328 H342 0.950 . S
C329 C328 1.479 . S
C329 C330 1.375 . S
C329 C335 1.404 . S
C330 C329 1.375 . S
C330 C331 1.369 . S
C330 H343 0.950 . S
C331 C330 1.369 . S
C331 C332 1.392 . S
C331 H344 0.951 . S
C332 C331 1.392 . S
C332 C334 1.384 . S
H333 C335 0.949 . S
C334 C332 1.384 . S
C334 C335 1.385 . S
C334 H336 0.950 . S
C335 C329 1.404 . S
C335 H333 0.949 . S
C335 C334 1.385 . S
H336 C334 0.950 . S
H337 C321 0.951 . S
H338 C323 0.951 . S
H339 C325 0.951 . S
H340 C326 0.950 . S
H341 C327 0.950 . S
H342 C328 0.950 . S
H343 C330 0.950 . S
H344 C331 0.951 . S
C345 C346 1.386 . S
C345 C347 1.383 . S
C345 H361 0.951 . S
C346 C345 1.386 . S
C346 C350 1.383 . S
C347 C345 1.383 . S
C347 C348 1.402 . S
C347 H362 0.951 . S
C348 C347 1.402 . S
C348 C349 1.375 . S
C348 C351 1.481 . S
C349 C348 1.375 . S
C349 C350 1.367 . S
C349 H363 0.951 . S
C350 C346 1.383 . S
C350 C349 1.367 . S
C350 H364 0.950 . S
C351 C348 1.481 . S
C351 C352 1.297 . S
C351 H365 0.950 . S
C352 C351 1.297 . S
C352 C353 1.479 1_554 S
C352 H366 0.950 . S
C353 C352 1.479 1_556 S
C353 C354 1.375 . S
C353 C359 1.404 . S
C354 C353 1.375 . S
C354 C355 1.369 . S
C354 H367 0.950 . S
C355 C354 1.369 . S
C355 C356 1.392 . S
C355 H368 0.951 . S
C356 C355 1.392 . S
C356 C358 1.384 . S
H357 C359 0.949 . S
C358 C356 1.384 . S
C358 C359 1.385 . S
C358 H360 0.950 . S
C359 C353 1.404 . S
C359 H357 0.949 . S
C359 C358 1.385 . S
H360 C358 0.950 . S
H361 C345 0.951 . S
H362 C347 0.951 . S
H363 C349 0.951 . S
H364 C350 0.950 . S
H365 C351 0.950 . S
H366 C352 0.950 . S
H367 C354 0.950 . S
H368 C355 0.951 . S
C369 C370 1.386 . S
C369 C371 1.383 . S
C369 H385 0.951 . S
C370 C369 1.386 . S
C370 C374 1.383 . S
C371 C369 1.383 . S
C371 C372 1.402 . S
C371 H386 0.951 . S
C372 C371 1.402 . S
C372 C373 1.375 . S
C372 C375 1.481 1_565 S
C373 C372 1.375 . S
C373 C374 1.367 . S
C373 H387 0.951 1_565 S
C374 C370 1.383 . S
C374 C373 1.367 . S
C374 H388 0.950 . S
C375 C372 1.481 1_545 S
C375 C376 1.297 1_556 S
C375 H389 0.950 . S
C376 C375 1.297 1_554 S
C376 C377 1.479 . S
C376 H390 0.950 1_545 S
C377 C376 1.479 . S
C377 C378 1.375 . S
C377 C383 1.404 . S
C378 C377 1.375 . S
C378 C379 1.369 . S
C378 H391 0.950 . S
C379 C378 1.369 . S
C379 C380 1.392 . S
C379 H392 0.951 . S
C380 C379 1.392 . S
C380 C382 1.384 . S
H381 C383 0.949 . S
C382 C380 1.384 . S
C382 C383 1.385 . S
C382 H384 0.950 . S
C383 C377 1.404 . S
C383 H381 0.949 . S
C383 C382 1.385 . S
H384 C382 0.950 . S
H385 C369 0.951 . S
H386 C371 0.951 . S
H387 C373 0.951 1_545 S
H388 C374 0.950 . S
H389 C375 0.950 . S
H390 C376 0.950 1_565 S
H391 C378 0.950 . S
H392 C379 0.951 . S
C393 C394 1.386 . S
C393 C395 1.383 . S
C393 H409 0.951 . S
C394 C393 1.386 . S
C394 C398 1.383 . S
C395 C393 1.383 . S
C395 C396 1.402 . S
C395 H410 0.951 . S
C396 C395 1.402 . S
C396 C397 1.375 . S
C396 C399 1.481 . S
C397 C396 1.375 . S
C397 C398 1.367 . S
C397 H411 0.951 . S
C398 C394 1.383 . S
C398 C397 1.367 . S
C398 H412 0.950 . S
C399 C396 1.481 . S
C399 C400 1.297 1_455 S
C399 H413 0.956 . S
C400 C399 1.297 1_655 S
C400 C401 1.479 1_556 S
C400 H414 0.950 . S
C401 C400 1.479 1_554 S
C401 C402 1.375 . S
C401 C407 1.404 . S
C402 C401 1.375 . S
C402 C403 1.369 . S
C402 H415 0.950 . S
C403 C402 1.369 . S
C403 C404 1.392 . S
C403 H416 0.951 . S
C404 C403 1.392 . S
C404 C406 1.384 . S
H405 C407 0.949 . S
C406 C404 1.384 . S
C406 C407 1.385 . S
C406 H408 0.950 . S
C407 C401 1.404 . S
C407 H405 0.949 . S
C407 C406 1.385 . S
H408 C406 0.950 . S
H409 C393 0.951 . S
H410 C395 0.951 . S
H411 C397 0.951 . S
H412 C398 0.950 . S
H413 C399 0.956 . S
H414 C400 0.950 . S
H415 C402 0.950 . S
H416 C403 0.951 . S
C130 N3 2.072 1_445 S
C140 N8 2.063 1_655 S
C154 N51 2.081 . S
C164 N46 2.044 1_554 S
C178 N94 2.080 1_556 S
C188 N89 2.047 . S
C202 C119 2.250 . S
C212 C32 2.278 . S
C226 C113 2.306 . S
C236 C40 2.266 . S
C250 C125 2.197 . S
C260 C13 2.255 . S
C274 C75 2.288 . S
C284 C33 2.306 . S
C298 C83 2.262 . S
C308 C27 2.320 . S
C322 C56 2.227 . S
C332 C39 2.136 . S
C346 C76 2.287 . S
C356 C118 2.224 . S
C370 C126 2.305 . S
C380 C70 2.253 . S
C394 C99 2.222 . S
C404 C82 2.138 . S
