# Generated by pormake.
# Topology uoh, (4)-cn, num edge types: 1
# Building blocks:
#     Node 0, Type 0, BuildingBlock: CEKHIL_clean_sbu_0, # of connection points: 4
#     Node 1, Type 0, BuildingBlock: CEKHIL_clean_sbu_0, # of connection points: 4
#     Node 2, Type 0, BuildingBlock: CEKHIL_clean_sbu_0, # of connection points: 4
#     Node 3, Type 0, BuildingBlock: CEKHIL_clean_sbu_0, # of connection points: 4
#     Node 4, Type 0, BuildingBlock: CEKHIL_clean_sbu_0, # of connection points: 4
#     Node 5, Type 0, BuildingBlock: CEKHIL_clean_sbu_0, # of connection points: 4
#     Node 6, Type 0, BuildingBlock: CEKHIL_clean_sbu_0, # of connection points: 4
#     Node 7, Type 0, BuildingBlock: CEKHIL_clean_sbu_0, # of connection points: 4
#     Node 8, Type 0, BuildingBlock: CEKHIL_clean_sbu_0, # of connection points: 4
#     Node 9, Type 0, BuildingBlock: CEKHIL_clean_sbu_0, # of connection points: 4
#     Node 10, Type 0, BuildingBlock: CEKHIL_clean_sbu_0, # of connection points: 4
#     Node 11, Type 0, BuildingBlock: CEKHIL_clean_sbu_0, # of connection points: 4
#     Node 12, Type 0, BuildingBlock: CEKHIL_clean_sbu_0, # of connection points: 4
#     Node 13, Type 0, BuildingBlock: CEKHIL_clean_sbu_0, # of connection points: 4
#     Node 14, Type 0, BuildingBlock: CEKHIL_clean_sbu_0, # of connection points: 4
#     Node 15, Type 0, BuildingBlock: CEKHIL_clean_sbu_0, # of connection points: 4
#     Node 16, Type 0, BuildingBlock: CEKHIL_clean_sbu_0, # of connection points: 4
#     Node 17, Type 0, BuildingBlock: CEKHIL_clean_sbu_0, # of connection points: 4
#     Node 18, Type 0, BuildingBlock: CEKHIL_clean_sbu_0, # of connection points: 4
#     Node 19, Type 0, BuildingBlock: CEKHIL_clean_sbu_0, # of connection points: 4
#     Node 20, Type 0, BuildingBlock: CEKHIL_clean_sbu_0, # of connection points: 4
#     Node 21, Type 0, BuildingBlock: CEKHIL_clean_sbu_0, # of connection points: 4
#     Node 22, Type 0, BuildingBlock: CEKHIL_clean_sbu_0, # of connection points: 4
#     Node 23, Type 0, BuildingBlock: CEKHIL_clean_sbu_0, # of connection points: 4
#     Node 24, Type 0, BuildingBlock: CEKHIL_clean_sbu_0, # of connection points: 4
#     Node 25, Type 0, BuildingBlock: CEKHIL_clean_sbu_0, # of connection points: 4
#     Node 26, Type 0, BuildingBlock: CEKHIL_clean_sbu_0, # of connection points: 4
#     Node 27, Type 0, BuildingBlock: CEKHIL_clean_sbu_0, # of connection points: 4
#     Node 28, Type 0, BuildingBlock: CEKHIL_clean_sbu_0, # of connection points: 4
#     Node 29, Type 0, BuildingBlock: CEKHIL_clean_sbu_0, # of connection points: 4
#     Node 30, Type 0, BuildingBlock: CEKHIL_clean_sbu_0, # of connection points: 4
#     Node 31, Type 0, BuildingBlock: CEKHIL_clean_sbu_0, # of connection points: 4
#     Node 32, Type 0, BuildingBlock: CEKHIL_clean_sbu_0, # of connection points: 4
#     Node 33, Type 0, BuildingBlock: CEKHIL_clean_sbu_0, # of connection points: 4
#     Node 34, Type 0, BuildingBlock: CEKHIL_clean_sbu_0, # of connection points: 4
#     Node 35, Type 0, BuildingBlock: CEKHIL_clean_sbu_0, # of connection points: 4
#     Edge 36, Type (0, 0), BuildingBlock: OJICUG_clean_linker_0, # of connection points: 2
#     Edge 37, Type (0, 0), BuildingBlock: OJICUG_clean_linker_0, # of connection points: 2
#     Edge 38, Type (0, 0), BuildingBlock: OJICUG_clean_linker_0, # of connection points: 2
#     Edge 39, Type (0, 0), BuildingBlock: OJICUG_clean_linker_0, # of connection points: 2
#     Edge 40, Type (0, 0), BuildingBlock: OJICUG_clean_linker_0, # of connection points: 2
#     Edge 41, Type (0, 0), BuildingBlock: OJICUG_clean_linker_0, # of connection points: 2
#     Edge 42, Type (0, 0), BuildingBlock: OJICUG_clean_linker_0, # of connection points: 2
#     Edge 43, Type (0, 0), BuildingBlock: OJICUG_clean_linker_0, # of connection points: 2
#     Edge 44, Type (0, 0), BuildingBlock: OJICUG_clean_linker_0, # of connection points: 2
#     Edge 45, Type (0, 0), BuildingBlock: OJICUG_clean_linker_0, # of connection points: 2
#     Edge 46, Type (0, 0), BuildingBlock: OJICUG_clean_linker_0, # of connection points: 2
#     Edge 47, Type (0, 0), BuildingBlock: OJICUG_clean_linker_0, # of connection points: 2
#     Edge 48, Type (0, 0), BuildingBlock: OJICUG_clean_linker_0, # of connection points: 2
#     Edge 49, Type (0, 0), BuildingBlock: OJICUG_clean_linker_0, # of connection points: 2
#     Edge 50, Type (0, 0), BuildingBlock: OJICUG_clean_linker_0, # of connection points: 2
#     Edge 51, Type (0, 0), BuildingBlock: OJICUG_clean_linker_0, # of connection points: 2
#     Edge 52, Type (0, 0), BuildingBlock: OJICUG_clean_linker_0, # of connection points: 2
#     Edge 53, Type (0, 0), BuildingBlock: OJICUG_clean_linker_0, # of connection points: 2
#     Edge 54, Type (0, 0), BuildingBlock: OJICUG_clean_linker_0, # of connection points: 2
#     Edge 55, Type (0, 0), BuildingBlock: OJICUG_clean_linker_0, # of connection points: 2
#     Edge 56, Type (0, 0), BuildingBlock: OJICUG_clean_linker_0, # of connection points: 2
#     Edge 57, Type (0, 0), BuildingBlock: OJICUG_clean_linker_0, # of connection points: 2
#     Edge 58, Type (0, 0), BuildingBlock: OJICUG_clean_linker_0, # of connection points: 2
#     Edge 59, Type (0, 0), BuildingBlock: OJICUG_clean_linker_0, # of connection points: 2
#     Edge 60, Type (0, 0), BuildingBlock: OJICUG_clean_linker_0, # of connection points: 2
#     Edge 61, Type (0, 0), BuildingBlock: OJICUG_clean_linker_0, # of connection points: 2
#     Edge 62, Type (0, 0), BuildingBlock: OJICUG_clean_linker_0, # of connection points: 2
#     Edge 63, Type (0, 0), BuildingBlock: OJICUG_clean_linker_0, # of connection points: 2
#     Edge 64, Type (0, 0), BuildingBlock: OJICUG_clean_linker_0, # of connection points: 2
#     Edge 65, Type (0, 0), BuildingBlock: OJICUG_clean_linker_0, # of connection points: 2
#     Edge 66, Type (0, 0), BuildingBlock: OJICUG_clean_linker_0, # of connection points: 2
#     Edge 67, Type (0, 0), BuildingBlock: OJICUG_clean_linker_0, # of connection points: 2
#     Edge 68, Type (0, 0), BuildingBlock: OJICUG_clean_linker_0, # of connection points: 2
#     Edge 69, Type (0, 0), BuildingBlock: OJICUG_clean_linker_0, # of connection points: 2
#     Edge 70, Type (0, 0), BuildingBlock: OJICUG_clean_linker_0, # of connection points: 2
#     Edge 71, Type (0, 0), BuildingBlock: OJICUG_clean_linker_0, # of connection points: 2
#     Edge 72, Type (0, 0), BuildingBlock: OJICUG_clean_linker_0, # of connection points: 2
#     Edge 73, Type (0, 0), BuildingBlock: OJICUG_clean_linker_0, # of connection points: 2
#     Edge 74, Type (0, 0), BuildingBlock: OJICUG_clean_linker_0, # of connection points: 2
#     Edge 75, Type (0, 0), BuildingBlock: OJICUG_clean_linker_0, # of connection points: 2
#     Edge 76, Type (0, 0), BuildingBlock: OJICUG_clean_linker_0, # of connection points: 2
#     Edge 77, Type (0, 0), BuildingBlock: OJICUG_clean_linker_0, # of connection points: 2
#     Edge 78, Type (0, 0), BuildingBlock: OJICUG_clean_linker_0, # of connection points: 2
#     Edge 79, Type (0, 0), BuildingBlock: OJICUG_clean_linker_0, # of connection points: 2
#     Edge 80, Type (0, 0), BuildingBlock: OJICUG_clean_linker_0, # of connection points: 2
#     Edge 81, Type (0, 0), BuildingBlock: OJICUG_clean_linker_0, # of connection points: 2
#     Edge 82, Type (0, 0), BuildingBlock: OJICUG_clean_linker_0, # of connection points: 2
#     Edge 83, Type (0, 0), BuildingBlock: OJICUG_clean_linker_0, # of connection points: 2
#     Edge 84, Type (0, 0), BuildingBlock: OJICUG_clean_linker_0, # of connection points: 2
#     Edge 85, Type (0, 0), BuildingBlock: OJICUG_clean_linker_0, # of connection points: 2
#     Edge 86, Type (0, 0), BuildingBlock: OJICUG_clean_linker_0, # of connection points: 2
#     Edge 87, Type (0, 0), BuildingBlock: OJICUG_clean_linker_0, # of connection points: 2
#     Edge 88, Type (0, 0), BuildingBlock: OJICUG_clean_linker_0, # of connection points: 2
#     Edge 89, Type (0, 0), BuildingBlock: OJICUG_clean_linker_0, # of connection points: 2
#     Edge 90, Type (0, 0), BuildingBlock: OJICUG_clean_linker_0, # of connection points: 2
#     Edge 91, Type (0, 0), BuildingBlock: OJICUG_clean_linker_0, # of connection points: 2
#     Edge 92, Type (0, 0), BuildingBlock: OJICUG_clean_linker_0, # of connection points: 2
#     Edge 93, Type (0, 0), BuildingBlock: OJICUG_clean_linker_0, # of connection points: 2
#     Edge 94, Type (0, 0), BuildingBlock: OJICUG_clean_linker_0, # of connection points: 2
#     Edge 95, Type (0, 0), BuildingBlock: OJICUG_clean_linker_0, # of connection points: 2
#     Edge 96, Type (0, 0), BuildingBlock: OJICUG_clean_linker_0, # of connection points: 2
#     Edge 97, Type (0, 0), BuildingBlock: OJICUG_clean_linker_0, # of connection points: 2
#     Edge 98, Type (0, 0), BuildingBlock: OJICUG_clean_linker_0, # of connection points: 2
#     Edge 99, Type (0, 0), BuildingBlock: OJICUG_clean_linker_0, # of connection points: 2
#     Edge 100, Type (0, 0), BuildingBlock: OJICUG_clean_linker_0, # of connection points: 2
#     Edge 101, Type (0, 0), BuildingBlock: OJICUG_clean_linker_0, # of connection points: 2
#     Edge 102, Type (0, 0), BuildingBlock: OJICUG_clean_linker_0, # of connection points: 2
#     Edge 103, Type (0, 0), BuildingBlock: OJICUG_clean_linker_0, # of connection points: 2
#     Edge 104, Type (0, 0), BuildingBlock: OJICUG_clean_linker_0, # of connection points: 2
#     Edge 105, Type (0, 0), BuildingBlock: OJICUG_clean_linker_0, # of connection points: 2
#     Edge 106, Type (0, 0), BuildingBlock: OJICUG_clean_linker_0, # of connection points: 2
#     Edge 107, Type (0, 0), BuildingBlock: OJICUG_clean_linker_0, # of connection points: 2
# Relax obj value: 0.088
# Max RMSD: 0.137
# Mean RMSD: 0.137
data_MOF--net-uoh--node1-CEKHIL_clean_sbu_0--edge1-OJICUG_clean_linker_0
_symmetry_space_group_name_H-M    P1
_symmetry_Int_Tables_number       1
_symmetry_cell_setting            triclinic
loop_
_symmetry_equiv_pos_as_xyz
'x, y, z'
_cell_length_a     64.861125
_cell_length_b     64.74005
_cell_length_c     19.777059
_cell_angle_alpha  89.971248
_cell_angle_beta   90.019261
_cell_angle_gamma 120.08431
loop_
_atom_site_label
_atom_site_type_symbol
_atom_site_fract_x
_atom_site_fract_y
_atom_site_fract_z
_atom_type_partial_charge
Co0 Co 0.23983 0.15251 0.17117 0.0
O1 O 0.21058 0.15277 0.1822 0.0
O2 O 0.24577 0.18148 0.21762 0.0
C3 C 0.2341 0.14212 0.06092 0.0
O4 O 0.27384 0.15821 0.16712 0.0
Co5 Co 0.23832 0.10514 0.13547 0.0
O6 O 0.27328 0.12548 0.1263 0.0
C7 C 0.23052 0.11444 0.27689 0.0
C8 C 0.22299 0.17336 0.21122 0.0
C9 C 0.28452 0.14693 0.14763 0.0
O10 O 0.23455 0.13532 0.26 0.0
O11 O 0.2297 0.09921 0.23401 0.0
O12 O 0.24278 0.16418 0.07919 0.0
O13 O 0.22723 0.12674 0.10967 0.0
Co14 Co 0.85245 0.08965 0.17131 0.0
O15 O 0.85252 0.06022 0.18139 0.0
O16 O 0.82368 0.06622 0.21768 0.0
C17 C 0.86272 0.09462 0.06098 0.0
O18 O 0.84638 0.11779 0.16809 0.0
Co19 Co 0.8994 0.136 0.13559 0.0
O20 O 0.87869 0.15017 0.12628 0.0
C21 C 0.89037 0.11871 0.27695 0.0
C22 C 0.83193 0.05169 0.21035 0.0
C23 C 0.85735 0.13976 0.14819 0.0
O24 O 0.86966 0.10157 0.26009 0.0
O25 O 0.90541 0.13336 0.23408 0.0
O26 O 0.84074 0.08102 0.07938 0.0
O27 O 0.87812 0.10321 0.10962 0.0
Co28 Co 0.91416 0.7656 0.16556 0.0
O29 O 0.94357 0.79513 0.17595 0.0
O30 O 0.93745 0.76015 0.21205 0.0
C31 C 0.90931 0.77107 0.05523 0.0
O32 O 0.88609 0.73133 0.16209 0.0
Co33 Co 0.86793 0.76619 0.1296 0.0
O34 O 0.85371 0.73122 0.12066 0.0
C35 C 0.88491 0.77407 0.27124 0.0
C36 C 0.95201 0.78297 0.20492 0.0
C37 C 0.86414 0.72029 0.14247 0.0
O38 O 0.90217 0.77076 0.25434 0.0
O39 O 0.87027 0.77442 0.22835 0.0
O40 O 0.92286 0.76264 0.07363 0.0
O41 O 0.9007 0.77782 0.10387 0.0
Co42 Co 0.15221 0.23995 0.32558 0.0
O43 O 0.15275 0.21068 0.31895 0.0
O44 O 0.18095 0.24536 0.27906 0.0
C45 C 0.1424 0.2358 0.43626 0.0
O46 O 0.15762 0.27394 0.32508 0.0
Co47 Co 0.10486 0.23843 0.36024 0.0
O48 O 0.12487 0.27361 0.36418 0.0
C49 C 0.11357 0.22868 0.22026 0.0
C50 C 0.17314 0.22273 0.28887 0.0
C51 C 0.14622 0.28473 0.34232 0.0
O52 O 0.13457 0.23317 0.23708 0.0
O53 O 0.09849 0.22823 0.26293 0.0
O54 O 0.16436 0.24447 0.41738 0.0
O55 O 0.1268 0.22804 0.38808 0.0
Co56 Co 0.76473 0.91393 0.32397 0.0
O57 O 0.79422 0.94344 0.31454 0.0
O58 O 0.75941 0.93734 0.27748 0.0
C59 C 0.76977 0.90883 0.43442 0.0
O60 O 0.73054 0.88572 0.32642 0.0
Co61 Co 0.76535 0.86761 0.35966 0.0
O62 O 0.73042 0.85329 0.368 0.0
C63 C 0.77398 0.88511 0.2185 0.0
C64 C 0.78216 0.95193 0.28533 0.0
C65 C 0.71952 0.86371 0.34593 0.0
O66 O 0.7703 0.90218 0.23529 0.0
O67 O 0.7743 0.87043 0.26139 0.0
O68 O 0.76139 0.9224 0.41583 0.0
O69 O 0.77675 0.90035 0.38594 0.0
Co70 Co 0.08897 0.85304 0.32366 0.0
O71 O 0.05968 0.85319 0.31212 0.0
O72 O 0.06568 0.82414 0.27743 0.0
C73 C 0.09366 0.86362 0.43371 0.0
O74 O 0.11698 0.84687 0.32846 0.0
Co75 Co 0.1352 0.90015 0.35929 0.0
O76 O 0.1493 0.8794 0.36966 0.0
C77 C 0.11834 0.89071 0.2176 0.0
C78 C 0.05123 0.8325 0.28357 0.0
C79 C 0.1389 0.85793 0.34846 0.0
O80 O 0.10117 0.87002 0.23468 0.0
O81 O 0.13286 0.90589 0.2604 0.0
O82 O 0.08003 0.84156 0.41569 0.0
O83 O 0.1024 0.87891 0.3848 0.0
Co84 Co 0.76488 0.85232 0.82448 0.0
O85 O 0.79425 0.85235 0.81283 0.0
O86 O 0.75911 0.8234 0.77804 0.0
C87 C 0.7708 0.86281 0.93462 0.0
O88 O 0.73075 0.84629 0.82932 0.0
Co89 Co 0.76599 0.89949 0.86031 0.0
O90 O 0.73112 0.87885 0.87076 0.0
C91 C 0.77334 0.89009 0.71857 0.0
C92 C 0.78193 0.83171 0.78407 0.0
C93 C 0.71996 0.8574 0.84944 0.0
O94 O 0.76974 0.86937 0.73559 0.0
O95 O 0.77406 0.90528 0.76142 0.0
O96 O 0.76228 0.84076 0.91645 0.0
O97 O 0.77743 0.87814 0.88578 0.0
Co98 Co 0.15107 0.91445 0.82322 0.0
O99 O 0.15105 0.94392 0.81386 0.0
O100 O 0.17984 0.93795 0.77694 0.0
C101 C 0.14086 0.90928 0.93358 0.0
O102 O 0.15707 0.88626 0.82575 0.0
Co103 Co 0.104 0.86815 0.8584 0.0
O104 O 0.12451 0.8537 0.86582 0.0
C105 C 0.11298 0.88584 0.71751 0.0
C106 C 0.17162 0.95249 0.78477 0.0
C107 C 0.14593 0.86416 0.84449 0.0
O108 O 0.13381 0.90275 0.73441 0.0
O109 O 0.09788 0.87123 0.76031 0.0
O110 O 0.16284 0.92289 0.91516 0.0
O111 O 0.12544 0.90084 0.88499 0.0
Co112 Co 0.08954 0.23782 0.82691 0.0
O113 O 0.06026 0.20824 0.81491 0.0
O114 O 0.06622 0.24343 0.78135 0.0
C115 C 0.09418 0.23152 0.93671 0.0
O116 O 0.11736 0.27218 0.83216 0.0
Co117 Co 0.13606 0.23771 0.86255 0.0
O118 O 0.15 0.2726 0.87258 0.0
C119 C 0.11955 0.23092 0.72039 0.0
C120 C 0.05174 0.22054 0.78721 0.0
C121 C 0.13933 0.28338 0.85158 0.0
O122 O 0.10187 0.23354 0.73761 0.0
O123 O 0.13425 0.23061 0.7631 0.0
O124 O 0.08052 0.23991 0.91915 0.0
O125 O 0.1031 0.22535 0.88749 0.0
Co126 Co 0.8523 0.76509 0.66578 0.0
O127 O 0.85218 0.79453 0.67501 0.0
O128 O 0.82357 0.75961 0.71241 0.0
C129 C 0.86241 0.77016 0.55529 0.0
O130 O 0.84637 0.73092 0.66362 0.0
Co131 Co 0.89927 0.76599 0.63001 0.0
O132 O 0.87873 0.73094 0.62249 0.0
C133 C 0.89037 0.77444 0.77125 0.0
C134 C 0.83167 0.78238 0.70444 0.0
C135 C 0.85741 0.71995 0.64457 0.0
O136 O 0.86966 0.77079 0.75443 0.0
O137 O 0.90535 0.77479 0.72839 0.0
O138 O 0.84043 0.76163 0.57388 0.0
O139 O 0.87787 0.77723 0.60377 0.0
Co140 Co 0.23871 0.09023 0.6712 0.0
O141 O 0.20919 0.06082 0.68171 0.0
O142 O 0.24411 0.06684 0.71749 0.0
C143 C 0.23328 0.09514 0.56091 0.0
O144 O 0.27295 0.11828 0.66744 0.0
Co145 Co 0.23823 0.13662 0.63546 0.0
O146 O 0.27311 0.15077 0.62624 0.0
C147 C 0.23021 0.11949 0.77697 0.0
C148 C 0.22132 0.0523 0.71041 0.0
C149 C 0.284 0.14027 0.64774 0.0
O150 O 0.23364 0.10227 0.76006 0.0
O151 O 0.22981 0.13413 0.73409 0.0
O152 O 0.24159 0.08148 0.57928 0.0
O153 O 0.22657 0.10379 0.60958 0.0
Co154 Co 0.91446 0.15121 0.67123 0.0
O155 O 0.9437 0.1509 0.68173 0.0
O156 O 0.93794 0.17997 0.71773 0.0
C157 C 0.90956 0.14092 0.56092 0.0
O158 O 0.88649 0.15749 0.66753 0.0
Co159 Co 0.86815 0.10421 0.63546 0.0
O160 O 0.85414 0.12507 0.62602 0.0
C161 C 0.88518 0.11335 0.77698 0.0
C162 C 0.95231 0.17153 0.71074 0.0
C163 C 0.86456 0.14649 0.64767 0.0
O164 O 0.90238 0.13404 0.76002 0.0
O165 O 0.87057 0.09827 0.73414 0.0
O166 O 0.92325 0.16292 0.57931 0.0
O167 O 0.90089 0.12551 0.60958 0.0
Co168 Co 0.90578 0.4852 0.50124 0.0
O169 O 0.87636 0.48529 0.50978 0.0
O170 O 0.91107 0.51391 0.54804 0.0
C171 C 0.90112 0.47527 0.39059 0.0
O172 O 0.93989 0.49107 0.49985 0.0
Co173 Co 0.90473 0.43804 0.46566 0.0
O174 O 0.93976 0.45852 0.45931 0.0
C175 C 0.89584 0.4468 0.60653 0.0
C176 C 0.88836 0.50576 0.53964 0.0
C177 C 0.95077 0.47989 0.48131 0.0
O178 O 0.89978 0.46766 0.58975 0.0
O179 O 0.89545 0.43177 0.56368 0.0
O180 O 0.90957 0.49725 0.40941 0.0
O181 O 0.89383 0.4597 0.4389 0.0
Co182 Co 0.51928 0.42323 0.50301 0.0
O183 O 0.51963 0.39395 0.51386 0.0
O184 O 0.49056 0.39972 0.54936 0.0
C185 C 0.52966 0.42809 0.39275 0.0
O186 O 0.51285 0.45112 0.49901 0.0
Co187 Co 0.56596 0.46982 0.46694 0.0
O188 O 0.54494 0.4836 0.45673 0.0
C189 C 0.55687 0.45294 0.60876 0.0
C190 C 0.49898 0.38532 0.54254 0.0
C191 C 0.5236 0.47304 0.47869 0.0
O192 O 0.53636 0.43545 0.59186 0.0
O193 O 0.57181 0.46767 0.56585 0.0
O194 O 0.5077 0.41434 0.41106 0.0
O195 O 0.545 0.4369 0.44147 0.0
Co196 Co 0.58147 0.09866 0.49982 0.0
O197 O 0.61102 0.12808 0.50983 0.0
O198 O 0.60469 0.09306 0.54626 0.0
C199 C 0.57654 0.10404 0.38946 0.0
O200 O 0.55321 0.06447 0.49673 0.0
Co201 Co 0.5354 0.09964 0.46412 0.0
O202 O 0.52094 0.06463 0.45548 0.0
C203 C 0.55263 0.10773 0.60552 0.0
C204 C 0.61936 0.11586 0.5389 0.0
C205 C 0.53123 0.05357 0.47727 0.0
O206 O 0.56968 0.10407 0.58864 0.0
O207 O 0.53808 0.10824 0.56264 0.0
O208 O 0.59 0.0955 0.40782 0.0
O209 O 0.56809 0.11095 0.43813 0.0
Co210 Co 0.81787 0.57223 0.65809 0.0
O211 O 0.81782 0.54275 0.64693 0.0
O212 O 0.84672 0.57791 0.61188 0.0
C213 C 0.80733 0.56646 0.76831 0.0
O214 O 0.82404 0.60647 0.66232 0.0
Co215 Co 0.77097 0.57153 0.6939 0.0
O216 O 0.79172 0.60647 0.70373 0.0
C217 C 0.78023 0.56391 0.55216 0.0
C218 C 0.83846 0.55506 0.61829 0.0
C219 C 0.81311 0.61746 0.68215 0.0
O220 O 0.80084 0.56731 0.56909 0.0
O221 O 0.76518 0.5634 0.59506 0.0
O222 O 0.82935 0.57491 0.75023 0.0
O223 O 0.79207 0.55983 0.7194 0.0
Co224 Co 0.43193 0.24766 0.6573 0.0
O225 O 0.46147 0.27708 0.64698 0.0
O226 O 0.42659 0.27107 0.61093 0.0
C227 C 0.43727 0.24269 0.76764 0.0
O228 O 0.39768 0.21962 0.66083 0.0
Co229 Co 0.43236 0.20124 0.69308 0.0
O230 O 0.39747 0.18711 0.70208 0.0
C231 C 0.44056 0.21845 0.55164 0.0
C232 C 0.44938 0.2856 0.61813 0.0
C233 C 0.38661 0.19763 0.68049 0.0
O234 O 0.43708 0.23565 0.56847 0.0
O235 O 0.44093 0.20381 0.59456 0.0
O236 O 0.42898 0.25636 0.74924 0.0
O237 O 0.44401 0.23407 0.71899 0.0
Co238 Co 0.7563 0.18564 0.65829 0.0
O239 O 0.7269 0.18563 0.64766 0.0
O240 O 0.73305 0.15682 0.61156 0.0
C241 C 0.76109 0.19587 0.76869 0.0
O242 O 0.78446 0.17967 0.66196 0.0
Co243 Co 0.8024 0.23277 0.6943 0.0
O244 O 0.81675 0.21219 0.7033 0.0
C245 C 0.78536 0.22371 0.55279 0.0
C246 C 0.71852 0.16506 0.6184 0.0
C247 C 0.80641 0.19078 0.68164 0.0
O248 O 0.76829 0.20292 0.5696 0.0
O249 O 0.79989 0.23881 0.59573 0.0
O250 O 0.74756 0.17385 0.75018 0.0
O251 O 0.76967 0.21131 0.7201 0.0
Co252 Co 0.43191 0.1857 0.1574 0.0
O253 O 0.46134 0.1858 0.14657 0.0
O254 O 0.42635 0.15687 0.11085 0.0
C255 C 0.43745 0.19604 0.26772 0.0
O256 O 0.39774 0.17963 0.16137 0.0
Co257 Co 0.43295 0.23286 0.19325 0.0
O258 O 0.39806 0.21215 0.2029 0.0
C259 C 0.44064 0.22362 0.05165 0.0
C260 C 0.44915 0.16519 0.11753 0.0
C261 C 0.38694 0.19073 0.1813 0.0
O262 O 0.43701 0.20288 0.06858 0.0
O263 O 0.44126 0.23875 0.09454 0.0
O264 O 0.42902 0.17401 0.24937 0.0
O265 O 0.44423 0.21143 0.21901 0.0
Co266 Co 0.81769 0.2478 0.15833 0.0
O267 O 0.81752 0.27718 0.14771 0.0
O268 O 0.8464 0.27119 0.11166 0.0
C269 C 0.80746 0.24296 0.26871 0.0
O270 O 0.82388 0.21974 0.16209 0.0
Co271 Co 0.77083 0.20142 0.19447 0.0
O272 O 0.79164 0.1874 0.2044 0.0
C273 C 0.77986 0.21836 0.05277 0.0
C274 C 0.8381 0.28569 0.11864 0.0
C275 C 0.81297 0.19782 0.18239 0.0
O276 O 0.80048 0.23568 0.06962 0.0
O277 O 0.76487 0.2037 0.09571 0.0
O278 O 0.82942 0.25662 0.25019 0.0
O279 O 0.79205 0.23427 0.22014 0.0
Co280 Co 0.75595 0.57255 0.15773 0.0
O281 O 0.72638 0.5431 0.1482 0.0
O282 O 0.73267 0.57807 0.11141 0.0
C283 C 0.76105 0.56739 0.26818 0.0
O284 O 0.78418 0.60674 0.16028 0.0
Co285 Co 0.80212 0.57176 0.19336 0.0
O286 O 0.81655 0.60678 0.20144 0.0
C287 C 0.78472 0.56333 0.05208 0.0
C288 C 0.71799 0.5553 0.11916 0.0
C289 C 0.80617 0.61774 0.17953 0.0
O290 O 0.76766 0.56699 0.06889 0.0
O291 O 0.79932 0.56293 0.09501 0.0
O292 O 0.74755 0.57586 0.24976 0.0
O293 O 0.76944 0.56039 0.21956 0.0
Co294 Co 0.51969 0.09871 -0.00032 0.0
O295 O 0.51972 0.12819 0.00987 0.0
O296 O 0.49089 0.09317 0.04595 0.0
C297 C 0.53008 0.10415 0.88939 0.0
O298 O 0.51355 0.06447 0.9964 0.0
Co299 Co 0.5666 0.0994 0.96417 0.0
O300 O 0.54596 0.06438 0.95617 0.0
C301 C 0.55751 0.10753 0.10553 0.0
C302 C 0.4991 0.11598 0.03874 0.0
C303 C 0.52454 0.05344 0.97751 0.0
O304 O 0.53683 0.10396 0.08859 0.0
O305 O 0.57255 0.10798 0.06269 0.0
O306 O 0.50808 0.09569 0.90762 0.0
O307 O 0.54542 0.11095 0.93815 0.0
Co308 Co 0.90501 0.42301 0.00048 0.0
O309 O 0.87547 0.39366 0.01199 0.0
O310 O 0.91049 0.39966 0.04669 0.0
C311 C 0.8991 0.42769 0.89036 0.0
O312 O 0.93928 0.45099 0.9958 0.0
Co313 Co 0.90466 0.46946 0.96448 0.0
O314 O 0.93951 0.48353 0.95481 0.0
C315 C 0.89732 0.45276 0.10644 0.0
C316 C 0.88765 0.38516 0.04043 0.0
C317 C 0.95037 0.47298 0.97614 0.0
O318 O 0.90035 0.43529 0.08946 0.0
O319 O 0.89695 0.46741 0.06356 0.0
O320 O 0.90746 0.41404 0.90844 0.0
O321 O 0.89269 0.43652 0.93925 0.0
Co322 Co 0.58065 0.48559 0.00334 0.0
O323 O 0.61009 0.48561 0.01311 0.0
O324 O 0.60402 0.51438 0.05004 0.0
C325 C 0.57567 0.47547 0.89284 0.0
O326 O 0.55241 0.49147 0.00053 0.0
Co327 Co 0.5346 0.43836 0.96752 0.0
O328 O 0.52021 0.4589 0.95898 0.0
C329 C 0.55187 0.44737 0.1088 0.0
C330 C 0.61855 0.50615 0.04254 0.0
C331 C 0.53045 0.48028 0.98091 0.0
O332 O 0.56885 0.4682 0.09199 0.0
O333 O 0.53732 0.43227 0.0659 0.0
O334 O 0.58919 0.49748 0.91148 0.0
O335 O 0.56723 0.45998 0.94133 0.0
Co336 Co 0.57257 0.81866 0.83722 0.0
O337 O 0.54313 0.81865 0.84657 0.0
O338 O 0.57793 0.84741 0.88392 0.0
C339 C 0.56762 0.80861 0.72667 0.0
O340 O 0.60671 0.8246 0.83486 0.0
Co341 Co 0.57148 0.77148 0.80152 0.0
O342 O 0.60644 0.79207 0.79351 0.0
C343 C 0.56299 0.78039 0.94265 0.0
C344 C 0.55518 0.83917 0.87611 0.0
C345 C 0.61753 0.81344 0.81547 0.0
O346 O 0.56688 0.80123 0.92585 0.0
O347 O 0.56249 0.76532 0.89976 0.0
O348 O 0.57606 0.8306 0.74536 0.0
O349 O 0.56049 0.79309 0.7751 0.0
Co350 Co 0.18589 0.75638 0.83662 0.0
O351 O 0.18602 0.72701 0.84821 0.0
O352 O 0.15706 0.73307 0.88298 0.0
C353 C 0.19637 0.76106 0.72646 0.0
O354 O 0.1797 0.78442 0.83173 0.0
Co355 Co 0.23287 0.8027 0.80071 0.0
O356 O 0.21219 0.81687 0.79086 0.0
C357 C 0.22351 0.78595 0.94255 0.0
C358 C 0.16537 0.71855 0.87678 0.0
C359 C 0.19074 0.8064 0.81193 0.0
O360 O 0.20289 0.76865 0.92556 0.0
O361 O 0.23861 0.80051 0.89966 0.0
O362 O 0.17438 0.74739 0.74464 0.0
O363 O 0.21167 0.76982 0.77528 0.0
Co364 Co 0.24684 0.43121 0.83076 0.0
O365 O 0.27642 0.46071 0.83951 0.0
O366 O 0.27015 0.42588 0.87756 0.0
C367 C 0.24158 0.43595 0.72007 0.0
O368 O 0.21865 0.39699 0.8294 0.0
Co369 Co 0.20057 0.43173 0.79486 0.0
O370 O 0.186 0.39663 0.78942 0.0
C371 C 0.21818 0.44078 0.93589 0.0
C372 C 0.2848 0.44863 0.8693 0.0
C373 C 0.19653 0.38584 0.8114 0.0
O374 O 0.23525 0.43711 0.91929 0.0
O375 O 0.20349 0.44096 0.8929 0.0
O376 O 0.2551 0.42753 0.73884 0.0
O377 O 0.23323 0.4431 0.76843 0.0
Co378 Co 0.48427 0.90555 0.99141 0.0
O379 O 0.48426 0.87607 0.98115 0.0
O380 O 0.51313 0.91113 0.94545 0.0
C381 C 0.47376 0.90003 0.1016 0.0
O382 O 0.49041 0.93979 0.99482 0.0
Co383 Co 0.43732 0.90485 0.02666 0.0
O384 O 0.45797 0.93986 0.03485 0.0
C385 C 0.44654 0.89678 0.88533 0.0
C386 C 0.50493 0.88832 0.95257 0.0
C387 C 0.4794 0.95081 0.01367 0.0
O388 O 0.46722 0.90037 0.90235 0.0
O389 O 0.43146 0.89627 0.92813 0.0
O390 O 0.49577 0.90849 0.08356 0.0
O391 O 0.45847 0.89328 0.05272 0.0
Co392 Co 0.09801 0.581 0.99316 0.0
O393 O 0.12752 0.61053 0.98408 0.0
O394 O 0.09278 0.60444 0.94648 0.0
C395 C 0.10285 0.5758 0.10376 0.0
O396 O 0.06381 0.5528 0.99511 0.0
Co397 Co 0.0986 0.53466 0.02897 0.0
O398 O 0.06361 0.52019 0.03555 0.0
C399 C 0.10733 0.55217 0.88784 0.0
C400 C 0.11551 0.61903 0.95455 0.0
C401 C 0.05275 0.53068 0.01367 0.0
O402 O 0.1037 0.56928 0.90456 0.0
O403 O 0.1076 0.53748 0.93077 0.0
O404 O 0.09451 0.5894 0.08502 0.0
O405 O 0.10991 0.56738 0.05537 0.0
Co406 Co 0.42153 0.5186 0.99079 0.0
O407 O 0.39213 0.51857 0.9796 0.0
O408 O 0.39837 0.48977 0.94398 0.0
C409 C 0.42621 0.52889 0.10116 0.0
O410 O 0.44972 0.51267 0.99504 0.0
Co411 Co 0.46756 0.56581 0.02695 0.0
O412 O 0.48186 0.54523 0.03685 0.0
C413 C 0.45075 0.55659 0.88522 0.0
C414 C 0.38381 0.498 0.95038 0.0
C415 C 0.47162 0.52382 0.01517 0.0
O416 O 0.43364 0.53584 0.90208 0.0
O417 O 0.46523 0.57173 0.92817 0.0
O418 O 0.41267 0.50687 0.0827 0.0
O419 O 0.43482 0.54431 0.05251 0.0
Co420 Co 0.09821 0.51923 0.49378 0.0
O421 O 0.12765 0.51936 0.48223 0.0
O422 O 0.09258 0.49038 0.44722 0.0
C423 C 0.10406 0.5297 0.60399 0.0
O424 O 0.06401 0.51304 0.49844 0.0
Co425 Co 0.09903 0.56625 0.52978 0.0
O426 O 0.06415 0.5455 0.5397 0.0
C427 C 0.10641 0.55695 0.38794 0.0
C428 C 0.1154 0.49872 0.45334 0.0
C429 C 0.05311 0.52405 0.51832 0.0
O430 O 0.10303 0.5363 0.40491 0.0
O431 O 0.10698 0.57206 0.43083 0.0
O432 O 0.09562 0.50766 0.58578 0.0
O433 O 0.11063 0.54503 0.55516 0.0
Co434 Co 0.48334 0.58058 0.49074 0.0
O435 O 0.48323 0.61001 0.48073 0.0
O436 O 0.51207 0.60404 0.44431 0.0
C437 C 0.47312 0.57557 0.60115 0.0
O438 O 0.48954 0.55253 0.49382 0.0
Co439 Co 0.43657 0.53411 0.52671 0.0
O440 O 0.4574 0.52007 0.53596 0.0
C441 C 0.44547 0.55128 0.38517 0.0
C442 C 0.50383 0.61856 0.45177 0.0
C443 C 0.47871 0.53057 0.5138 0.0
O444 O 0.4661 0.5686 0.40197 0.0
O445 O 0.43054 0.53656 0.42811 0.0
O446 O 0.49508 0.58923 0.58266 0.0
O447 O 0.45771 0.56694 0.55257 0.0
Co448 Co 0.42249 0.90592 0.49126 0.0
O449 O 0.39294 0.87648 0.48141 0.0
O450 O 0.3992 0.9115 0.44516 0.0
C451 C 0.42751 0.90051 0.60153 0.0
O452 O 0.45074 0.94011 0.49426 0.0
Co453 Co 0.4686 0.90496 0.52661 0.0
O454 O 0.48304 0.93996 0.53531 0.0
C455 C 0.45119 0.89675 0.38536 0.0
C456 C 0.38454 0.8887 0.45261 0.0
C457 C 0.47272 0.95102 0.51364 0.0
O458 O 0.43421 0.90051 0.40229 0.0
O459 O 0.46573 0.8962 0.42819 0.0
O460 O 0.41403 0.90905 0.58338 0.0
O461 O 0.43593 0.89362 0.55273 0.0
Co462 Co 0.18548 0.43234 0.32992 0.0
O463 O 0.18559 0.46182 0.34174 0.0
O464 O 0.15667 0.42664 0.37648 0.0
C465 C 0.19596 0.43828 0.2197 0.0
O466 O 0.17928 0.39809 0.32484 0.0
Co467 Co 0.23245 0.43323 0.2938 0.0
O468 O 0.21174 0.3983 0.28371 0.0
C469 C 0.22302 0.44021 0.43588 0.0
C470 C 0.16496 0.4495 0.37046 0.0
C471 C 0.1903 0.38721 0.30489 0.0
O472 O 0.20248 0.43702 0.41886 0.0
O473 O 0.2381 0.4408 0.39297 0.0
O474 O 0.17396 0.42985 0.23793 0.0
O475 O 0.21125 0.44484 0.26853 0.0
Co476 Co 0.57154 0.75621 0.33674 0.0
O477 O 0.5419 0.72695 0.34805 0.0
O478 O 0.5768 0.73272 0.383 0.0
C479 C 0.56581 0.76097 0.22655 0.0
O480 O 0.60589 0.78407 0.33215 0.0
Co481 Co 0.57144 0.80278 0.30062 0.0
O482 O 0.6062 0.81649 0.2897 0.0
C483 C 0.56394 0.78605 0.44258 0.0
C484 C 0.55396 0.71832 0.37652 0.0
C485 C 0.61702 0.80596 0.31152 0.0
O486 O 0.5669 0.76854 0.42566 0.0
O487 O 0.56367 0.80075 0.39966 0.0
O488 O 0.57402 0.74721 0.24475 0.0
O489 O 0.5594 0.76984 0.27536 0.0
Co490 Co 0.2472 0.8188 0.33705 0.0
O491 O 0.27664 0.81883 0.34676 0.0
O492 O 0.27057 0.84761 0.3836 0.0
C493 C 0.24216 0.80862 0.22659 0.0
O494 O 0.21901 0.82474 0.33429 0.0
Co495 Co 0.20106 0.77163 0.30143 0.0
O496 O 0.18667 0.79219 0.29325 0.0
C497 C 0.2185 0.78058 0.44256 0.0
C498 C 0.2851 0.83939 0.37608 0.0
C499 C 0.19702 0.81359 0.31498 0.0
O500 O 0.23543 0.80145 0.42576 0.0
O501 O 0.20393 0.76549 0.39966 0.0
O502 O 0.2557 0.83064 0.24512 0.0
O503 O 0.23372 0.79316 0.27515 0.0
C504 C 0.23194 0.14615 0.87095 0.0
C505 C 0.22888 0.12404 0.84993 0.0
H506 H 0.23626 0.16916 0.95372 0.0
C507 C 0.22653 0.10735 0.89948 0.0
H508 H 0.23393 0.15951 0.83444 0.0
C509 C 0.22772 0.11291 0.96839 0.0
C510 C 0.23163 0.13536 0.98884 0.0
H511 H 0.22416 0.09015 0.88506 0.0
H512 H 0.22616 0.09989 0.00548 0.0
C513 C 0.23347 0.15179 0.93947 0.0
C514 C 0.85864 0.08834 0.87107 0.0
C515 C 0.88065 0.1075 0.84996 0.0
H516 H 0.83575 0.06955 0.95397 0.0
C517 C 0.89728 0.12199 0.89941 0.0
H518 H 0.84534 0.07686 0.83464 0.0
C519 C 0.89176 0.11764 0.96833 0.0
C520 C 0.86941 0.09896 0.98888 0.0
H521 H 0.9144 0.13692 0.88491 0.0
H522 H 0.90472 0.12921 0.00535 0.0
C523 C 0.85304 0.08424 0.93962 0.0
C524 C 0.9196 0.77167 0.93382 0.0
C525 C 0.90499 0.77343 0.98311 0.0
H526 H 0.92683 0.77116 0.82884 0.0
C527 C 0.88641 0.77721 0.96256 0.0
H528 H 0.93421 0.769 0.94816 0.0
C529 C 0.882 0.7783 0.89363 0.0
C530 C 0.89635 0.77599 0.84417 0.0
H531 H 0.87493 0.77871 -0.00041 0.0
H532 H 0.86714 0.78054 0.87913 0.0
C533 C 0.91545 0.7731 0.86528 0.0
C534 C 0.15296 0.23742 0.55785 0.0
C535 C 0.1359 0.23375 0.50849 0.0
H536 H 0.16108 0.23895 0.66289 0.0
C537 C 0.11289 0.228 0.52903 0.0
H538 H 0.17081 0.24175 0.5436 0.0
C539 C 0.10728 0.22652 0.59796 0.0
C540 C 0.12448 0.2304 0.64741 0.0
H541 H 0.09938 0.22502 0.49197 0.0
H542 H 0.08955 0.22253 0.61247 0.0
C543 C 0.14729 0.23561 0.62638 0.0
C544 C 0.77567 0.88579 0.52724 0.0
C545 C 0.77199 0.90444 0.50658 0.0
H546 H 0.77901 0.86653 0.61076 0.0
C547 C 0.77025 0.91911 0.55579 0.0
H548 H 0.77714 0.87425 0.49027 0.0
C549 C 0.7717 0.91501 0.62437 0.0
C550 C 0.77459 0.89588 0.64557 0.0
H551 H 0.76763 0.93378 0.54136 0.0
H552 H 0.76983 0.92646 0.66076 0.0
C553 C 0.77678 0.88142 0.59619 0.0
C554 C 0.1218 0.89794 0.59506 0.0
C555 C 0.10693 0.88158 0.64458 0.0
H556 H 0.12918 0.90517 0.48907 0.0
C557 C 0.08715 0.85998 0.62351 0.0
H558 H 0.13719 0.91475 0.60949 0.0
C559 C 0.08288 0.85443 0.55499 0.0
C560 C 0.09803 0.87044 0.5057 0.0
H561 H 0.07532 0.84692 0.65996 0.0
H562 H 0.06773 0.83741 0.54068 0.0
C563 C 0.11727 0.89247 0.52615 0.0
C564 C 0.77766 0.89732 0.09607 0.0
C565 C 0.77565 0.88075 0.14558 0.0
H566 H 0.77788 0.90473 0.99007 0.0
C567 C 0.7732 0.85889 0.12453 0.0
H568 H 0.77958 0.91433 0.1105 0.0
C569 C 0.77185 0.85333 0.05599 0.0
C570 C 0.77326 0.86958 0.00667 0.0
H571 H 0.77152 0.84565 0.161 0.0
H572 H 0.76949 0.83612 0.0417 0.0
C573 C 0.77665 0.89184 0.02715 0.0
C574 C 0.10634 0.88189 0.09516 0.0
C575 C 0.12292 0.89646 0.14459 0.0
H576 H 0.09893 0.87459 0.98923 0.0
C577 C 0.14491 0.91565 0.12346 0.0
H578 H 0.08924 0.86694 0.10968 0.0
C579 C 0.15052 0.91971 0.05491 0.0
C580 C 0.13419 0.90493 0.00568 0.0
H581 H 0.15817 0.92719 0.15988 0.0
H582 H 0.16779 0.93444 0.04054 0.0
C583 C 0.11187 0.88621 0.02624 0.0
C584 C 0.11805 0.22665 0.02894 0.0
C585 C 0.09843 0.22873 0.00855 0.0
H586 H 0.13832 0.22496 0.11225 0.0
C587 C 0.08284 0.22867 0.0578 0.0
H588 H 0.13029 0.22656 0.99187 0.0
C589 C 0.08712 0.22735 0.12629 0.0
C590 C 0.10735 0.22644 0.14737 0.0
H591 H 0.06737 0.22992 0.04348 0.0
H592 H 0.07496 0.22794 0.16273 0.0
C593 C 0.12259 0.22569 0.09784 0.0
C594 C 0.85812 0.77188 0.36527 0.0
C595 C 0.88031 0.7753 0.34419 0.0
H596 H 0.83508 0.76728 0.44812 0.0
C597 C 0.89708 0.7779 0.39367 0.0
H598 H 0.8447 0.76967 0.32879 0.0
C599 C 0.89154 0.77667 0.46259 0.0
C600 C 0.86903 0.77246 0.48313 0.0
H601 H 0.91434 0.78053 0.3792 0.0
H602 H 0.90465 0.77847 0.49963 0.0
C603 C 0.8525 0.77031 0.43381 0.0
C604 C 0.23247 0.08473 0.43957 0.0
C605 C 0.23107 0.09959 0.48881 0.0
H606 H 0.23286 0.0774 0.33459 0.0
C607 C 0.22788 0.11856 0.4682 0.0
H608 H 0.23469 0.06981 0.45396 0.0
C609 C 0.227 0.12308 0.39925 0.0
C610 C 0.22892 0.10847 0.34984 0.0
H611 H 0.22669 0.13024 0.50521 0.0
H612 H 0.22519 0.13823 0.38471 0.0
C613 C 0.23123 0.089 0.371 0.0
C614 C 0.88632 0.11196 0.46829 0.0
C615 C 0.90514 0.13425 0.48882 0.0
H616 H 0.8668 0.08944 0.3849 0.0
C617 C 0.91988 0.15059 0.43952 0.0
H618 H 0.87472 0.09901 0.50534 0.0
C619 C 0.91566 0.14505 0.37098 0.0
C620 C 0.89634 0.12313 0.34989 0.0
H621 H 0.93469 0.16784 0.45385 0.0
H622 H 0.92717 0.15835 0.33453 0.0
C623 C 0.88184 0.1065 0.39937 0.0
C624 C 0.90046 0.47999 0.20045 0.0
C625 C 0.89635 0.4575 0.1794 0.0
H626 H 0.90551 0.50322 0.28328 0.0
C627 C 0.89315 0.44048 0.22888 0.0
H628 H 0.9032 0.49362 0.16395 0.0
C629 C 0.89433 0.44601 0.29781 0.0
C630 C 0.8991 0.46875 0.31836 0.0
H631 H 0.88998 0.42299 0.2144 0.0
H632 H 0.89198 0.43267 0.33487 0.0
C633 C 0.90198 0.48559 0.269 0.0
C634 C 0.52568 0.42188 0.20281 0.0
C635 C 0.5475 0.44135 0.18173 0.0
H636 H 0.50298 0.40272 0.28568 0.0
C637 C 0.56402 0.45597 0.23122 0.0
H638 H 0.51247 0.41028 0.16636 0.0
C639 C 0.55856 0.45147 0.30015 0.0
C640 C 0.53637 0.43251 0.32066 0.0
H641 H 0.58099 0.47112 0.21677 0.0
H642 H 0.57142 0.46316 0.3372 0.0
C643 C 0.52014 0.41763 0.27136 0.0
C644 C 0.58681 0.10476 0.26801 0.0
C645 C 0.57214 0.10637 0.31738 0.0
H646 H 0.59409 0.10442 0.16299 0.0
C647 C 0.55343 0.10995 0.29694 0.0
H648 H 0.60153 0.10223 0.28226 0.0
C649 C 0.54899 0.11105 0.22804 0.0
C650 C 0.56343 0.10894 0.17848 0.0
H651 H 0.54189 0.11132 0.33405 0.0
H652 H 0.53403 0.11316 0.21364 0.0
C653 C 0.58264 0.10621 0.19949 0.0
C654 C 0.81663 0.56543 0.88988 0.0
C655 C 0.80051 0.5641 0.84033 0.0
H656 H 0.82412 0.56567 0.99497 0.0
C657 C 0.77833 0.56086 0.86056 0.0
H658 H 0.83378 0.56769 0.8758 0.0
C659 C 0.77277 0.55987 0.92943 0.0
C660 C 0.78917 0.56174 0.97916 0.0
H661 H 0.76554 0.55971 0.82332 0.0
H662 H 0.75581 0.55804 0.94365 0.0
C663 C 0.81098 0.56409 0.95835 0.0
C664 C 0.44308 0.21951 0.86026 0.0
C665 C 0.43951 0.23825 0.83976 0.0
H666 H 0.44627 0.20009 0.94363 0.0
C667 C 0.43783 0.25292 0.88909 0.0
H668 H 0.44449 0.20797 0.8232 0.0
C669 C 0.43922 0.24872 0.95763 0.0
C670 C 0.44199 0.22951 0.97869 0.0
H671 H 0.43528 0.26765 0.8748 0.0
H672 H 0.43739 0.26017 0.99411 0.0
C673 C 0.44413 0.21505 0.92918 0.0
C674 C 0.75103 0.18594 0.89019 0.0
C675 C 0.76543 0.20252 0.84086 0.0
H676 H 0.74393 0.17807 0.99522 0.0
C677 C 0.78379 0.22507 0.8614 0.0
H678 H 0.7366 0.16847 0.87589 0.0
C679 C 0.78815 0.23059 0.93033 0.0
C680 C 0.77399 0.21377 0.97982 0.0
H681 H 0.7951 0.23822 0.82436 0.0
H682 H 0.80283 0.24789 0.9448 0.0
C683 C 0.75514 0.19154 0.95874 0.0
C684 C 0.44428 0.23059 0.42911 0.0
C685 C 0.44203 0.21395 0.47871 0.0
H686 H 0.44477 0.23806 0.32307 0.0
C687 C 0.43926 0.19195 0.45776 0.0
H688 H 0.44642 0.2477 0.44346 0.0
C689 C 0.43794 0.18637 0.38924 0.0
C690 C 0.43969 0.20274 0.33981 0.0
H691 H 0.43736 0.17864 0.49429 0.0
H692 H 0.43538 0.16907 0.37503 0.0
C693 C 0.4433 0.22509 0.36021 0.0
C694 C 0.81178 0.2489 0.45873 0.0
C695 C 0.7898 0.22969 0.47986 0.0
H696 H 0.83456 0.26785 0.37579 0.0
C697 C 0.77311 0.2153 0.43041 0.0
H698 H 0.82513 0.2603 0.49516 0.0
C699 C 0.77853 0.2198 0.36147 0.0
C700 C 0.80085 0.23852 0.34087 0.0
H701 H 0.756 0.20035 0.44492 0.0
H702 H 0.76551 0.2083 0.32446 0.0
C703 C 0.81728 0.25314 0.39015 0.0
C704 C 0.75532 0.5657 0.45828 0.0
C705 C 0.77436 0.56267 0.47919 0.0
H706 H 0.73649 0.56984 0.37561 0.0
C707 C 0.78864 0.56034 0.42956 0.0
H708 H 0.74401 0.56769 0.49485 0.0
C709 C 0.78415 0.56142 0.36066 0.0
C710 C 0.76557 0.56521 0.3403 0.0
H711 H 0.80346 0.55801 0.44388 0.0
H712 H 0.79554 0.55983 0.3235 0.0
C713 C 0.7511 0.56712 0.38977 0.0
C714 C 0.52627 0.10658 0.69943 0.0
C715 C 0.54815 0.10918 0.67846 0.0
H716 H 0.50342 0.10269 0.78216 0.0
C717 C 0.56464 0.11113 0.72805 0.0
H718 H 0.51308 0.10492 0.66291 0.0
C719 C 0.55909 0.11001 0.79694 0.0
C720 C 0.53684 0.10654 0.81733 0.0
H721 H 0.58166 0.11313 0.71369 0.0
H722 H 0.57194 0.11124 0.83407 0.0
C723 C 0.52063 0.10511 0.76794 0.0
C724 C 0.89242 0.45548 0.72894 0.0
C725 C 0.89405 0.44071 0.67944 0.0
H726 H 0.89258 0.46286 0.83491 0.0
C727 C 0.89612 0.42109 0.70053 0.0
H728 H 0.89081 0.47075 0.7145 0.0
C729 C 0.89752 0.41689 0.76906 0.0
C730 C 0.89654 0.43196 0.81835 0.0
H731 H 0.89748 0.40935 0.66409 0.0
H732 H 0.8996 0.40188 0.78339 0.0
C733 C 0.89348 0.45102 0.79786 0.0
C734 C 0.54879 0.44065 0.7312 0.0
C735 C 0.56269 0.45762 0.6817 0.0
H736 H 0.54207 0.43291 0.83719 0.0
C737 C 0.58123 0.48003 0.70274 0.0
H738 H 0.53435 0.42322 0.71674 0.0
C739 C 0.58533 0.48563 0.77129 0.0
C740 C 0.57124 0.46888 0.82065 0.0
H741 H 0.59221 0.49362 0.66625 0.0
H742 H 0.59955 0.50322 0.78556 0.0
C743 C 0.55315 0.44619 0.80013 0.0
C744 C 0.56836 0.81884 0.60506 0.0
C745 C 0.56556 0.80205 0.65447 0.0
H746 H 0.56957 0.82684 0.5 0.0
C747 C 0.56089 0.77933 0.63398 0.0
H748 H 0.5718 0.83645 0.61929 0.0
C749 C 0.55974 0.7738 0.56506 0.0
C750 C 0.5629 0.79078 0.51553 0.0
H751 H 0.55859 0.76603 0.67107 0.0
H752 H 0.55667 0.75634 0.55064 0.0
C753 C 0.56688 0.81324 0.53652 0.0
C754 C 0.23068 0.78913 0.56499 0.0
C755 C 0.21418 0.7745 0.51547 0.0
H756 H 0.23809 0.79626 0.671 0.0
C757 C 0.19244 0.75492 0.53652 0.0
H758 H 0.2476 0.80435 0.55056 0.0
C759 C 0.18692 0.7506 0.60506 0.0
C760 C 0.20311 0.7655 0.6544 0.0
H761 H 0.17925 0.7433 0.50005 0.0
H762 H 0.1698 0.73562 0.61935 0.0
C763 C 0.22525 0.78455 0.63392 0.0
C764 C 0.21469 0.44387 0.55845 0.0
C765 C 0.2287 0.44109 0.50888 0.0
H766 H 0.20784 0.44458 0.66445 0.0
C767 C 0.24726 0.4373 0.52987 0.0
H768 H 0.20022 0.44677 0.54405 0.0
C769 C 0.2513 0.43566 0.59842 0.0
C770 C 0.23713 0.4381 0.64784 0.0
H771 H 0.25832 0.43491 0.49332 0.0
H772 H 0.26555 0.43239 0.61264 0.0
C773 C 0.21899 0.44257 0.62735 0.0
C774 C 0.48296 0.89872 0.22305 0.0
C775 C 0.46693 0.89766 0.17359 0.0
H776 H 0.49037 0.89869 0.32808 0.0
C777 C 0.44484 0.89463 0.19387 0.0
H778 H 0.50003 0.90079 0.20889 0.0
C779 C 0.43929 0.8936 0.26275 0.0
C780 C 0.45561 0.8952 0.31241 0.0
H781 H 0.43214 0.8937 0.15668 0.0
H782 H 0.42241 0.89196 0.27704 0.0
C783 C 0.47731 0.89733 0.29152 0.0
C784 C 0.10284 0.58577 0.22526 0.0
C785 C 0.10496 0.57135 0.17596 0.0
H786 H 0.10215 0.59291 0.33028 0.0
C787 C 0.10898 0.5529 0.19657 0.0
H788 H 0.09994 0.60027 0.21091 0.0
C789 C 0.1101 0.54851 0.26551 0.0
C790 C 0.10758 0.56275 0.31496 0.0
H791 H 0.11074 0.54155 0.15956 0.0
H792 H 0.11262 0.53379 0.28002 0.0
C793 C 0.1043 0.58165 0.29383 0.0
C794 C 0.41628 0.519 0.22272 0.0
C795 C 0.43065 0.53556 0.17331 0.0
H796 H 0.40933 0.51111 0.32777 0.0
C797 C 0.44911 0.55806 0.19377 0.0
H798 H 0.40177 0.50156 0.20849 0.0
C799 C 0.45361 0.56356 0.26269 0.0
C800 C 0.43948 0.54675 0.31225 0.0
H801 H 0.46041 0.57119 0.15667 0.0
H802 H 0.46836 0.58082 0.27709 0.0
C803 C 0.42053 0.52457 0.29126 0.0
C804 C 0.10634 0.52582 0.79398 0.0
C805 C 0.10897 0.54776 0.81494 0.0
H806 H 0.10247 0.50294 0.71126 0.0
C807 C 0.11108 0.56434 0.76534 0.0
H808 H 0.10456 0.51255 0.83051 0.0
C809 C 0.11003 0.55881 0.69644 0.0
C810 C 0.10649 0.53649 0.67605 0.0
H811 H 0.11312 0.58141 0.77969 0.0
H812 H 0.11136 0.57173 0.65931 0.0
C813 C 0.10495 0.5202 0.72547 0.0
C814 C 0.47732 0.58162 0.79117 0.0
C815 C 0.45529 0.56248 0.81226 0.0
H816 H 0.5002 0.60047 0.70829 0.0
C817 C 0.43863 0.54807 0.76278 0.0
H818 H 0.49064 0.59304 0.82764 0.0
C819 C 0.44413 0.55249 0.69385 0.0
C820 C 0.46648 0.57116 0.6733 0.0
H821 H 0.4215 0.53316 0.77725 0.0
H822 H 0.43112 0.54098 0.65681 0.0
C823 C 0.48289 0.58579 0.72261 0.0
C824 C 0.42124 0.89783 0.79144 0.0
C825 C 0.44064 0.89541 0.81236 0.0
H826 H 0.40218 0.90161 0.70879 0.0
C827 C 0.45528 0.89367 0.76273 0.0
H828 H 0.40961 0.89931 0.82799 0.0
C829 C 0.45083 0.89482 0.69385 0.0
C830 C 0.43192 0.89811 0.67354 0.0
H831 H 0.47039 0.89181 0.77704 0.0
H832 H 0.46252 0.89375 0.65669 0.0
C833 C 0.41705 0.89933 0.72297 0.0
C834 C 0.18633 0.43869 0.09812 0.0
C835 C 0.20269 0.44054 0.14761 0.0
H836 H 0.17855 0.43786 0.99305 0.0
C837 C 0.22501 0.44416 0.12726 0.0
H838 H 0.16906 0.43611 0.11227 0.0
C839 C 0.23047 0.44501 0.05836 0.0
C840 C 0.21382 0.4426 0.00872 0.0
H841 H 0.23798 0.44572 0.16444 0.0
H842 H 0.24754 0.44713 0.04405 0.0
C843 C 0.19188 0.43988 0.02961 0.0
C844 C 0.56344 0.75476 0.03662 0.0
C845 C 0.56126 0.77432 0.01557 0.0
H846 H 0.56684 0.73549 0.11945 0.0
C847 C 0.55947 0.78898 0.06509 0.0
H848 H 0.56495 0.74311 0.00015 0.0
C849 C 0.56039 0.78444 0.13401 0.0
C850 C 0.56349 0.7654 0.15449 0.0
H851 H 0.55777 0.80421 0.05066 0.0
H852 H 0.55933 0.79618 0.17108 0.0
C853 C 0.5647 0.75047 0.10515 0.0
C854 C 0.2521 0.81857 0.10507 0.0
C855 C 0.23776 0.80198 0.15444 0.0
H856 H 0.25921 0.82639 3e-05 0.0
C857 C 0.21945 0.77939 0.13396 0.0
H858 H 0.26649 0.83607 0.11932 0.0
C859 C 0.21511 0.77382 0.06504 0.0
C860 C 0.22926 0.79064 0.01552 0.0
H861 H 0.20817 0.76624 0.17104 0.0
H862 H 0.2005 0.75649 0.05061 0.0
C863 C 0.24803 0.81293 0.03654 0.0
C864 C 0.21099 0.22373 0.25277 0.0
C865 C 0.18657 0.21078 0.26865 0.0
H866 H 0.24206 0.22197 0.22352 0.0
C867 C 0.17477 0.18573 0.26764 0.0
H868 H 0.22057 0.24306 0.25362 0.0
C869 C 0.18688 0.17382 0.2501 0.0
C870 C 0.21123 0.18661 0.23417 0.0
H871 H 0.156 0.17519 0.27987 0.0
H872 H 0.17711 0.15448 0.24906 0.0
C873 C 0.22331 0.2117 0.23626 0.0
C874 C 0.78156 0.98952 0.25545 0.0
C875 C 0.79417 0.97728 0.26441 0.0
H876 H 0.78373 0.02309 0.23286 0.0
C877 C 0.81904 0.98982 0.25675 0.0
H878 H 0.7624 0.98031 0.26165 0.0
C879 C 0.83109 0.01398 0.24 0.0
C880 C 0.81866 0.02638 0.2315 0.0
H881 H 0.82928 0.98092 0.2634 0.0
H882 H 0.85026 0.02299 0.23395 0.0
C883 C 0.79376 0.01399 0.23972 0.0
C884 C 0.98994 0.81992 0.23282 0.0
C885 C 0.97725 0.79496 0.22642 0.0
H886 H 0.0231 0.85114 0.25558 0.0
C887 C 0.98923 0.78219 0.23753 0.0
H888 H 0.98127 0.8303 0.22447 0.0
C889 C 0.01356 0.79431 0.25427 0.0
C890 C 0.02608 0.81929 0.26132 0.0
H891 H 0.9799 0.76294 0.23239 0.0
H892 H 0.02244 0.78415 0.26289 0.0
C893 C 0.01397 0.83189 0.25054 0.0
C894 C 0.79373 0.78144 0.73879 0.0
C895 C 0.81836 0.79432 0.72577 0.0
H896 H 0.76254 0.78325 0.76605 0.0
C897 C 0.83047 0.81933 0.73039 0.0
H898 H 0.78392 0.76215 0.7351 0.0
C899 C 0.8184 0.83124 0.74839 0.0
C900 C 0.79381 0.81853 0.76123 0.0
H901 H 0.84942 0.82981 0.72051 0.0
H902 H 0.8284 0.85054 0.7521 0.0
C903 C 0.78147 0.7935 0.7558 0.0
C904 C 0.22193 0.01467 0.73944 0.0
C905 C 0.20933 0.02697 0.7314 0.0
H906 H 0.21976 0.98105 0.76109 0.0
C907 C 0.1845 0.01448 0.73988 0.0
H908 H 0.24107 0.02384 0.73259 0.0
C909 C 0.17247 0.99031 0.75644 0.0
C910 C 0.18488 0.97784 0.76395 0.0
H911 H 0.17428 0.02342 0.73395 0.0
H912 H 0.15333 0.98133 0.76309 0.0
C913 C 0.20974 0.99019 0.755 0.0
C914 C 0.99006 0.20951 0.74091 0.0
C915 C 0.97753 0.18459 0.7324 0.0
H916 H 0.02377 0.24071 0.76343 0.0
C917 C 0.98969 0.17193 0.7411 0.0
H918 H 0.98116 0.21973 0.73392 0.0
C919 C 0.01377 0.18378 0.75822 0.0
C920 C 0.02647 0.20868 0.76611 0.0
H921 H 0.98055 0.15272 0.73489 0.0
H922 H 0.02248 0.17336 0.76498 0.0
C923 C 0.01445 0.22152 0.75707 0.0
C924 C 0.8393 0.51846 0.58529 0.0
C925 C 0.85176 0.54321 0.59618 0.0
H926 H 0.84109 0.48743 0.55902 0.0
C927 C 0.87671 0.55583 0.58922 0.0
H928 H 0.82008 0.50822 0.59027 0.0
C929 C 0.88892 0.54372 0.57244 0.0
C930 C 0.87629 0.51893 0.56114 0.0
H931 H 0.88677 0.5749 0.59792 0.0
H932 H 0.90813 0.55375 0.56739 0.0
C933 C 0.85137 0.50652 0.56747 0.0
C934 C 0.44874 0.32314 0.58807 0.0
C935 C 0.46138 0.31093 0.59704 0.0
H936 H 0.45083 0.35666 0.5653 0.0
C937 C 0.48624 0.3235 0.58923 0.0
H938 H 0.42958 0.31392 0.59438 0.0
C939 C 0.49825 0.34765 0.57232 0.0
C940 C 0.48578 0.36001 0.56381 0.0
H941 H 0.49651 0.31463 0.59589 0.0
H942 H 0.51742 0.35668 0.56615 0.0
C943 C 0.4609 0.3476 0.57216 0.0
C944 C 0.65742 0.15272 0.56653 0.0
C945 C 0.6446 0.12775 0.56044 0.0
H946 H 0.69064 0.18387 0.58932 0.0
C947 C 0.65646 0.11489 0.57205 0.0
H948 H 0.64885 0.16318 0.55779 0.0
C949 C 0.68079 0.12693 0.58902 0.0
C950 C 0.6934 0.15192 0.59584 0.0
H951 H 0.64705 0.09563 0.56718 0.0
H952 H 0.68957 0.1167 0.59806 0.0
C953 C 0.68142 0.16461 0.58451 0.0
C954 C 0.44873 0.12709 0.08785 0.0
C955 C 0.46115 0.15206 0.09519 0.0
H956 H 0.45112 0.0958 0.06574 0.0
C957 C 0.48588 0.16473 0.08459 0.0
H958 H 0.42968 0.11687 0.09631 0.0
C959 C 0.49799 0.15283 0.0668 0.0
C960 C 0.48578 0.12788 0.06016 0.0
H961 H 0.49596 0.18397 0.08983 0.0
H962 H 0.51705 0.16327 0.05862 0.0
C963 C 0.46101 0.11504 0.07106 0.0
C964 C 0.88828 0.34762 0.07061 0.0
C965 C 0.87569 0.35991 0.06222 0.0
H966 H 0.88615 0.3141 0.09355 0.0
C967 C 0.85088 0.34748 0.07137 0.0
H968 H 0.90739 0.35673 0.06327 0.0
C969 C 0.83888 0.3234 0.08898 0.0
C970 C 0.85129 0.31095 0.09688 0.0
H971 H 0.84066 0.35642 0.0652 0.0
H972 H 0.81976 0.31448 0.09613 0.0
C973 C 0.87612 0.32323 0.08722 0.0
C974 C 0.68075 0.55628 0.08792 0.0
C975 C 0.69269 0.54342 0.09823 0.0
H976 H 0.64752 0.55448 0.06373 0.0
C977 C 0.67989 0.51847 0.09161 0.0
H978 H 0.69015 0.57552 0.09328 0.0
C979 C 0.65582 0.5066 0.0744 0.0
C980 C 0.64375 0.51928 0.0644 0.0
H981 H 0.68852 0.50803 0.09935 0.0
H982 H 0.64662 0.48735 0.06912 0.0
C983 C 0.65636 0.54425 0.07174 0.0
C984 C 0.5061 0.85154 0.92394 0.0
C985 C 0.51833 0.87645 0.93152 0.0
H986 H 0.50819 0.82044 0.90078 0.0
C987 C 0.54318 0.88927 0.92214 0.0
H988 H 0.48698 0.84113 0.93095 0.0
C989 C 0.55552 0.87723 0.90598 0.0
C990 C 0.54309 0.8523 0.89775 0.0
H991 H 0.55307 0.90848 0.92825 0.0
H992 H 0.57464 0.88743 0.89875 0.0
C993 C 0.51828 0.83966 0.90677 0.0
C994 C 0.11497 0.65652 0.92292 0.0
C995 C 0.12759 0.64435 0.93327 0.0
H996 H 0.11712 0.68995 0.89845 0.0
C997 C 0.15248 0.65692 0.9263 0.0
H998 H 0.09578 0.64729 0.92853 0.0
C999 C 0.16454 0.68101 0.90878 0.0
C1000 C 0.1521 0.69332 0.8988 0.0
H1001 H 0.16274 0.64809 0.93402 0.0
H1002 H 0.18374 0.69004 0.90325 0.0
C1003 C 0.12718 0.68092 0.90642 0.0
C1004 C 0.32278 0.48558 0.89712 0.0
C1005 C 0.31003 0.46061 0.89097 0.0
H1006 H 0.35592 0.51676 0.92053 0.0
C1007 C 0.32191 0.44779 0.90295 0.0
H1008 H 0.31419 0.496 0.88812 0.0
C1009 C 0.34619 0.45986 0.92038 0.0
C1010 C 0.35874 0.48485 0.92735 0.0
H1011 H 0.31255 0.42854 0.89805 0.0
H1012 H 0.35498 0.44966 0.92969 0.0
C1013 C 0.34674 0.49751 0.91562 0.0
C1014 C 0.15209 0.49819 0.42021 0.0
C1015 C 0.12734 0.48559 0.43039 0.0
H1016 H 0.18318 0.49667 0.39347 0.0
C1017 C 0.1148 0.46067 0.42165 0.0
H1018 H 0.16228 0.51739 0.42653 0.0
C1019 C 0.12696 0.44861 0.40375 0.0
C1020 C 0.15175 0.46139 0.39315 0.0
H1021 H 0.09572 0.4505 0.42973 0.0
H1022 H 0.11698 0.42942 0.39728 0.0
C1023 C 0.16409 0.48629 0.40133 0.0
C1024 C 0.542 0.65611 0.42154 0.0
C1025 C 0.51716 0.64391 0.43087 0.0
H1026 H 0.57342 0.68961 0.39855 0.0
C1027 C 0.50489 0.65652 0.42356 0.0
H1028 H 0.55193 0.64687 0.42746 0.0
C1029 C 0.51703 0.68067 0.40675 0.0
C1030 C 0.54185 0.69301 0.39784 0.0
H1031 H 0.48576 0.64766 0.43052 0.0
H1032 H 0.5069 0.68973 0.40095 0.0
C1033 C 0.5543 0.68057 0.40573 0.0
C1034 C 0.34649 0.85185 0.42501 0.0
C1035 C 0.35925 0.8768 0.43161 0.0
H1036 H 0.31324 0.82068 0.40262 0.0
C1037 C 0.34727 0.88962 0.42126 0.0
H1038 H 0.35515 0.84143 0.43278 0.0
C1039 C 0.32288 0.87755 0.40508 0.0
C1040 C 0.31031 0.85257 0.39781 0.0
H1041 H 0.35664 0.90886 0.42657 0.0
H1042 H 0.314 0.88774 0.39705 0.0
C1043 C 0.32242 0.83993 0.40783 0.0
C1044 C 0.32409 0.18102 0.18487 0.0
C1045 C 0.31083 0.15847 0.15459 0.0
H1046 H 0.35822 0.20865 0.218 0.0
C1047 C 0.32279 0.14635 0.13442 0.0
H1048 H 0.31551 0.19081 0.20154 0.0
C1049 C 0.34735 0.15652 0.14426 0.0
C1050 C 0.36062 0.17909 0.1745 0.0
H1051 H 0.31319 0.12888 0.11117 0.0
H1052 H 0.35594 0.14675 0.12759 0.0
C1053 C 0.34863 0.19118 0.19474 0.0
C1054 C 0.81323 0.15941 0.19799 0.0
C1055 C 0.82476 0.18329 0.17548 0.0
H1056 H 0.81418 0.12692 0.20653 0.0
C1057 C 0.84688 0.1925 0.14286 0.0
H1058 H 0.79612 0.15161 0.22319 0.0
C1059 C 0.85716 0.17822 0.1329 0.0
C1060 C 0.84561 0.15433 0.15534 0.0
H1061 H 0.8562 0.2107 0.12434 0.0
H1062 H 0.87426 0.18601 0.10769 0.0
C1063 C 0.8235 0.14512 0.18802 0.0
C1064 C 0.81126 0.65704 0.14071 0.0
C1065 C 0.82076 0.64408 0.1716 0.0
H1066 H 0.81747 0.69097 0.10636 0.0
C1067 C 0.84487 0.65639 0.19153 0.0
H1068 H 0.79287 0.64819 0.12421 0.0
C1069 C 0.8591 0.68097 0.18088 0.0
C1070 C 0.8496 0.69393 0.15005 0.0
H1071 H 0.85289 0.64703 0.21525 0.0
H1072 H 0.8775 0.68982 0.19742 0.0
C1073 C 0.82549 0.68162 0.13005 0.0
C1074 C 0.19118 0.34892 0.29675 0.0
C1075 C 0.17854 0.36083 0.31161 0.0
H1076 H 0.19117 0.31584 0.29539 0.0
C1077 C 0.15522 0.34744 0.33673 0.0
H1078 H 0.20925 0.3586 0.27761 0.0
C1079 C 0.1449 0.32286 0.34727 0.0
C1080 C 0.15763 0.31099 0.33303 0.0
H1081 H 0.14496 0.35596 0.34888 0.0
H1082 H 0.12686 0.31317 0.36657 0.0
C1083 C 0.18088 0.32434 0.30735 0.0
C1084 C 0.65621 0.81103 0.35055 0.0
C1085 C 0.64337 0.82035 0.31808 0.0
H1086 H 0.69006 0.81739 0.38574 0.0
C1087 C 0.65581 0.84423 0.2956 0.0
H1088 H 0.64727 0.79283 0.36902 0.0
C1089 C 0.68038 0.85844 0.30564 0.0
C1090 C 0.69321 0.84915 0.33834 0.0
H1091 H 0.64655 0.85209 0.27048 0.0
H1092 H 0.68932 0.87665 0.28725 0.0
C1093 C 0.6808 0.82524 0.36056 0.0
C1094 C 0.19184 0.84788 0.35222 0.0
C1095 C 0.18237 0.82525 0.32232 0.0
H1096 H 0.18559 0.87572 0.38484 0.0
C1097 C 0.15823 0.81318 0.30259 0.0
H1098 H 0.21025 0.85763 0.36854 0.0
C1099 C 0.14396 0.82348 0.31233 0.0
C1100 C 0.15345 0.84614 0.34204 0.0
H1101 H 0.15021 0.79564 0.27966 0.0
H1102 H 0.12556 0.81374 0.29594 0.0
C1103 C 0.17757 0.85818 0.36198 0.0
C1104 C 0.68041 0.82319 0.81249 0.0
C1105 C 0.69363 0.84571 0.84296 0.0
H1106 H 0.64632 0.79557 0.77904 0.0
C1107 C 0.68159 0.85771 0.86355 0.0
H1108 H 0.68904 0.81348 0.79555 0.0
C1109 C 0.65703 0.84751 0.85366 0.0
C1110 C 0.64383 0.82503 0.82297 0.0
H1111 H 0.69115 0.87515 0.88704 0.0
H1112 H 0.6484 0.85723 0.87051 0.0
C1113 C 0.65586 0.81299 0.8026 0.0
C1114 C 0.15564 0.81091 0.84378 0.0
C1115 C 0.1789 0.82092 0.8182 0.0
H1116 H 0.12715 0.8166 0.87271 0.0
C1117 C 0.19136 0.84544 0.80203 0.0
H1118 H 0.14553 0.79216 0.85704 0.0
C1119 C 0.18088 0.85957 0.81143 0.0
C1120 C 0.15765 0.84957 0.83721 0.0
H1121 H 0.20938 0.85388 0.78255 0.0
H1122 H 0.191 0.87832 0.79825 0.0
C1123 C 0.14516 0.82503 0.85315 0.0
C1124 C 0.15764 0.34717 0.80407 0.0
C1125 C 0.18206 0.35955 0.82075 0.0
H1126 H 0.12498 0.31369 0.80142 0.0
C1127 C 0.19204 0.34672 0.84959 0.0
H1128 H 0.14922 0.35644 0.78219 0.0
C1129 C 0.17802 0.32217 0.86111 0.0
C1130 C 0.15363 0.30976 0.84403 0.0
H1131 H 0.21069 0.35563 0.86358 0.0
H1132 H 0.18644 0.31289 0.88286 0.0
C1133 C 0.14362 0.32261 0.81557 0.0
C1134 C 0.8575 0.68135 0.63232 0.0
C1135 C 0.84575 0.69363 0.6529 0.0
H1136 H 0.8567 0.64794 0.62598 0.0
C1137 C 0.82349 0.68069 0.68479 0.0
H1138 H 0.87474 0.6907 0.60784 0.0
C1139 C 0.81322 0.65613 0.69564 0.0
C1140 C 0.82493 0.64383 0.67482 0.0
H1141 H 0.81401 0.68953 0.70189 0.0
H1142 H 0.79596 0.64677 0.72005 0.0
C1143 C 0.84723 0.65678 0.64316 0.0
C1144 C 0.32336 0.14485 0.68283 0.0
C1145 C 0.31034 0.1547 0.65447 0.0
H1146 H 0.35737 0.1506 0.71405 0.0
C1147 C 0.32263 0.17899 0.6358 0.0
H1148 H 0.31454 0.1263 0.69819 0.0
C1149 C 0.34725 0.19305 0.64529 0.0
C1150 C 0.36026 0.1832 0.67366 0.0
H1151 H 0.31323 0.18729 0.61408 0.0
H1152 H 0.35608 0.2116 0.62993 0.0
C1153 C 0.34797 0.15891 0.69232 0.0
C1154 C 0.85943 0.18082 0.68484 0.0
C1155 C 0.85 0.15825 0.65458 0.0
H1156 H 0.85312 0.20858 0.71799 0.0
C1157 C 0.8259 0.14627 0.63437 0.0
H1158 H 0.87781 0.19051 0.70149 0.0
C1159 C 0.81163 0.15654 0.64426 0.0
C1160 C 0.82105 0.1791 0.67456 0.0
H1161 H 0.81792 0.12879 0.61109 0.0
H1162 H 0.79325 0.14684 0.62762 0.0
C1163 C 0.84515 0.1911 0.69472 0.0
C1164 C 0.01364 0.48954 0.48201 0.0
C1165 C 0.02678 0.51228 0.5113 0.0
H1166 H 0.97962 0.46169 0.44881 0.0
C1167 C 0.01469 0.52441 0.53006 0.0
H1168 H 0.02231 0.47971 0.46657 0.0
C1169 C 0.99015 0.51415 0.51943 0.0
C1170 C 0.97704 0.49146 0.48981 0.0
H1171 H 0.02418 0.54202 0.55256 0.0
H1172 H 0.98149 0.52399 0.53475 0.0
C1173 C 0.98911 0.47928 0.4714 0.0
C1174 C 0.47927 0.49231 0.52933 0.0
C1175 C 0.49057 0.51613 0.50638 0.0
H1176 H 0.48055 0.46 0.53809 0.0
C1177 C 0.51254 0.52539 0.4729 0.0
H1178 H 0.46228 0.48449 0.55518 0.0
C1179 C 0.52293 0.51121 0.46266 0.0
C1180 C 0.51165 0.48741 0.4857 0.0
H1181 H 0.52167 0.54353 0.45396 0.0
H1182 H 0.53993 0.51904 0.43684 0.0
C1183 C 0.48966 0.47814 0.5191 0.0
C1184 C 0.52586 0.01414 0.51589 0.0
C1185 C 0.51653 0.02722 0.48487 0.0
H1186 H 0.51939 0.9801 0.55021 0.0
C1187 C 0.49245 0.01504 0.46458 0.0
H1188 H 0.54422 0.02288 0.53266 0.0
C1189 C 0.47809 0.99046 0.47507 0.0
C1190 C 0.48741 0.97737 0.50607 0.0
H1191 H 0.48456 0.02449 0.44075 0.0
H1192 H 0.45972 0.98171 0.45829 0.0
C1193 C 0.51149 0.98956 0.52637 0.0
C1194 C 0.4896 0.01398 0.01219 0.0
C1195 C 0.51266 0.02708 0.98513 0.0
H1196 H 0.46118 0.9799 0.04315 0.0
C1197 C 0.5249 0.01488 0.96871 0.0
H1198 H 0.47968 0.02273 0.02579 0.0
C1199 C 0.51436 0.99027 0.97909 0.0
C1200 C 0.49129 0.97717 0.00613 0.0
H1201 H 0.54277 0.02435 0.94812 0.0
H1202 H 0.52428 0.98152 0.96548 0.0
C1203 C 0.47905 0.98937 0.02256 0.0
C1204 C 0.98897 0.51181 0.96566 0.0
C1205 C 0.9767 0.48743 0.98338 0.0
H1206 H 0.02232 0.54459 0.96192 0.0
C1207 C 0.98968 0.47756 0.01185 0.0
H1208 H 0.97961 0.52013 0.94387 0.0
C1209 C 0.01422 0.49171 0.02262 0.0
C1210 C 0.02647 0.51611 0.00518 0.0
H1211 H 0.98087 0.45894 0.02648 0.0
H1212 H 0.02358 0.48339 0.0445 0.0
C1213 C 0.01352 0.52596 0.97645 0.0
C1214 C 0.49165 0.47977 0.96727 0.0
C1215 C 0.51567 0.49179 0.98825 0.0
H1216 H 0.45891 0.48015 0.95986 0.0
C1217 C 0.52482 0.51416 0.01954 0.0
H1218 H 0.48388 0.46244 0.94321 0.0
C1219 C 0.51036 0.52424 0.02951 0.0
C1220 C 0.48636 0.51224 0.00841 0.0
H1221 H 0.54312 0.52386 0.03687 0.0
H1222 H 0.51813 0.54158 0.05354 0.0
C1223 C 0.4772 0.48985 0.97724 0.0
loop_
_geom_bond_atom_site_label_1
_geom_bond_atom_site_label_2
_geom_bond_distance
_geom_bond_site_symmetry_2
_ccdc_geom_bond_type
Co0 O1 2.216 . S
Co0 O2 2.091 . S
Co0 O4 2.004 . S
Co0 O10 2.021 . S
Co0 O12 2.137 . S
Co0 O13 2.244 . S
O1 Co0 2.216 . S
O1 C8 1.247 . S
O2 Co0 2.091 . S
O2 C8 1.261 . S
C3 O12 1.247 . S
C3 O13 1.272 . S
O4 Co0 2.004 . S
O4 C9 1.259 . S
Co5 O6 2.061 . S
Co5 O11 2.052 . S
Co5 O13 2.135 . S
O6 Co5 2.061 . S
O6 C9 1.235 . S
C7 O10 1.238 . S
C7 O11 1.241 . S
C8 O1 1.247 . S
C8 O2 1.261 . S
C9 O4 1.259 . S
C9 O6 1.235 . S
O10 Co0 2.021 . S
O10 C7 1.238 . S
O11 Co5 2.052 . S
O11 C7 1.241 . S
O12 Co0 2.137 . S
O12 C3 1.247 . S
O13 Co0 2.244 . S
O13 C3 1.272 . S
O13 Co5 2.135 . S
Co14 O15 2.216 . S
Co14 O16 2.091 . S
Co14 O18 2.004 . S
Co14 O24 2.021 . S
Co14 O26 2.137 . S
Co14 O27 2.244 . S
O15 Co14 2.216 . S
O15 C22 1.247 . S
O16 Co14 2.091 . S
O16 C22 1.261 . S
C17 O26 1.247 . S
C17 O27 1.272 . S
O18 Co14 2.004 . S
O18 C23 1.259 . S
Co19 O20 2.061 . S
Co19 O25 2.052 . S
Co19 O27 2.135 . S
O20 Co19 2.061 . S
O20 C23 1.235 . S
C21 O24 1.238 . S
C21 O25 1.241 . S
C22 O15 1.247 . S
C22 O16 1.261 . S
C23 O18 1.259 . S
C23 O20 1.235 . S
O24 Co14 2.021 . S
O24 C21 1.238 . S
O25 Co19 2.052 . S
O25 C21 1.241 . S
O26 Co14 2.137 . S
O26 C17 1.247 . S
O27 Co14 2.244 . S
O27 C17 1.272 . S
O27 Co19 2.135 . S
Co28 O29 2.216 . S
Co28 O30 2.091 . S
Co28 O32 2.004 . S
Co28 O38 2.021 . S
Co28 O40 2.137 . S
Co28 O41 2.244 . S
O29 Co28 2.216 . S
O29 C36 1.247 . S
O30 Co28 2.091 . S
O30 C36 1.261 . S
C31 O40 1.247 . S
C31 O41 1.272 . S
O32 Co28 2.004 . S
O32 C37 1.259 . S
Co33 O34 2.061 . S
Co33 O39 2.052 . S
Co33 O41 2.135 . S
O34 Co33 2.061 . S
O34 C37 1.235 . S
C35 O38 1.238 . S
C35 O39 1.241 . S
C36 O29 1.247 . S
C36 O30 1.261 . S
C37 O32 1.259 . S
C37 O34 1.235 . S
O38 Co28 2.021 . S
O38 C35 1.238 . S
O39 Co33 2.052 . S
O39 C35 1.241 . S
O40 Co28 2.137 . S
O40 C31 1.247 . S
O41 Co28 2.244 . S
O41 C31 1.272 . S
O41 Co33 2.135 . S
Co42 O43 2.216 . S
Co42 O44 2.091 . S
Co42 O46 2.004 . S
Co42 O52 2.021 . S
Co42 O54 2.137 . S
Co42 O55 2.244 . S
O43 Co42 2.216 . S
O43 C50 1.247 . S
O44 Co42 2.091 . S
O44 C50 1.261 . S
C45 O54 1.247 . S
C45 O55 1.272 . S
O46 Co42 2.004 . S
O46 C51 1.259 . S
Co47 O48 2.061 . S
Co47 O53 2.052 . S
Co47 O55 2.135 . S
O48 Co47 2.061 . S
O48 C51 1.235 . S
C49 O52 1.238 . S
C49 O53 1.241 . S
C50 O43 1.247 . S
C50 O44 1.261 . S
C51 O46 1.259 . S
C51 O48 1.235 . S
O52 Co42 2.021 . S
O52 C49 1.238 . S
O53 Co47 2.052 . S
O53 C49 1.241 . S
O54 Co42 2.137 . S
O54 C45 1.247 . S
O55 Co42 2.244 . S
O55 C45 1.272 . S
O55 Co47 2.135 . S
Co56 O57 2.216 . S
Co56 O58 2.091 . S
Co56 O60 2.004 . S
Co56 O66 2.021 . S
Co56 O68 2.137 . S
Co56 O69 2.244 . S
O57 Co56 2.216 . S
O57 C64 1.247 . S
O58 Co56 2.091 . S
O58 C64 1.261 . S
C59 O68 1.247 . S
C59 O69 1.272 . S
O60 Co56 2.004 . S
O60 C65 1.259 . S
Co61 O62 2.061 . S
Co61 O67 2.052 . S
Co61 O69 2.135 . S
O62 Co61 2.061 . S
O62 C65 1.235 . S
C63 O66 1.238 . S
C63 O67 1.241 . S
C64 O57 1.247 . S
C64 O58 1.261 . S
C65 O60 1.259 . S
C65 O62 1.235 . S
O66 Co56 2.021 . S
O66 C63 1.238 . S
O67 Co61 2.052 . S
O67 C63 1.241 . S
O68 Co56 2.137 . S
O68 C59 1.247 . S
O69 Co56 2.244 . S
O69 C59 1.272 . S
O69 Co61 2.135 . S
Co70 O71 2.216 . S
Co70 O72 2.091 . S
Co70 O74 2.004 . S
Co70 O80 2.021 . S
Co70 O82 2.137 . S
Co70 O83 2.244 . S
O71 Co70 2.216 . S
O71 C78 1.247 . S
O72 Co70 2.091 . S
O72 C78 1.261 . S
C73 O82 1.247 . S
C73 O83 1.272 . S
O74 Co70 2.004 . S
O74 C79 1.259 . S
Co75 O76 2.061 . S
Co75 O81 2.052 . S
Co75 O83 2.135 . S
O76 Co75 2.061 . S
O76 C79 1.235 . S
C77 O80 1.238 . S
C77 O81 1.241 . S
C78 O71 1.247 . S
C78 O72 1.261 . S
C79 O74 1.259 . S
C79 O76 1.235 . S
O80 Co70 2.021 . S
O80 C77 1.238 . S
O81 Co75 2.052 . S
O81 C77 1.241 . S
O82 Co70 2.137 . S
O82 C73 1.247 . S
O83 Co70 2.244 . S
O83 C73 1.272 . S
O83 Co75 2.135 . S
Co84 O85 2.216 . S
Co84 O86 2.091 . S
Co84 O88 2.004 . S
Co84 O94 2.021 . S
Co84 O96 2.137 . S
Co84 O97 2.244 . S
O85 Co84 2.216 . S
O85 C92 1.247 . S
O86 Co84 2.091 . S
O86 C92 1.261 . S
C87 O96 1.247 . S
C87 O97 1.272 . S
O88 Co84 2.004 . S
O88 C93 1.259 . S
Co89 O90 2.061 . S
Co89 O95 2.052 . S
Co89 O97 2.135 . S
O90 Co89 2.061 . S
O90 C93 1.235 . S
C91 O94 1.238 . S
C91 O95 1.241 . S
C92 O85 1.247 . S
C92 O86 1.261 . S
C93 O88 1.259 . S
C93 O90 1.235 . S
O94 Co84 2.021 . S
O94 C91 1.238 . S
O95 Co89 2.052 . S
O95 C91 1.241 . S
O96 Co84 2.137 . S
O96 C87 1.247 . S
O97 Co84 2.244 . S
O97 C87 1.272 . S
O97 Co89 2.135 . S
Co98 O99 2.216 . S
Co98 O100 2.091 . S
Co98 O102 2.004 . S
Co98 O108 2.021 . S
Co98 O110 2.137 . S
Co98 O111 2.244 . S
O99 Co98 2.216 . S
O99 C106 1.247 . S
O100 Co98 2.091 . S
O100 C106 1.261 . S
C101 O110 1.247 . S
C101 O111 1.272 . S
O102 Co98 2.004 . S
O102 C107 1.259 . S
Co103 O104 2.061 . S
Co103 O109 2.052 . S
Co103 O111 2.135 . S
O104 Co103 2.061 . S
O104 C107 1.235 . S
C105 O108 1.238 . S
C105 O109 1.241 . S
C106 O99 1.247 . S
C106 O100 1.261 . S
C107 O102 1.259 . S
C107 O104 1.235 . S
O108 Co98 2.021 . S
O108 C105 1.238 . S
O109 Co103 2.052 . S
O109 C105 1.241 . S
O110 Co98 2.137 . S
O110 C101 1.247 . S
O111 Co98 2.244 . S
O111 C101 1.272 . S
O111 Co103 2.135 . S
Co112 O113 2.216 . S
Co112 O114 2.091 . S
Co112 O116 2.004 . S
Co112 O122 2.021 . S
Co112 O124 2.137 . S
Co112 O125 2.244 . S
O113 Co112 2.216 . S
O113 C120 1.247 . S
O114 Co112 2.091 . S
O114 C120 1.261 . S
C115 O124 1.247 . S
C115 O125 1.272 . S
O116 Co112 2.004 . S
O116 C121 1.259 . S
Co117 O118 2.061 . S
Co117 O123 2.052 . S
Co117 O125 2.135 . S
O118 Co117 2.061 . S
O118 C121 1.235 . S
C119 O122 1.238 . S
C119 O123 1.241 . S
C120 O113 1.247 . S
C120 O114 1.261 . S
C121 O116 1.259 . S
C121 O118 1.235 . S
O122 Co112 2.021 . S
O122 C119 1.238 . S
O123 Co117 2.052 . S
O123 C119 1.241 . S
O124 Co112 2.137 . S
O124 C115 1.247 . S
O125 Co112 2.244 . S
O125 C115 1.272 . S
O125 Co117 2.135 . S
Co126 O127 2.216 . S
Co126 O128 2.091 . S
Co126 O130 2.004 . S
Co126 O136 2.021 . S
Co126 O138 2.137 . S
Co126 O139 2.244 . S
O127 Co126 2.216 . S
O127 C134 1.247 . S
O128 Co126 2.091 . S
O128 C134 1.261 . S
C129 O138 1.247 . S
C129 O139 1.272 . S
O130 Co126 2.004 . S
O130 C135 1.259 . S
Co131 O132 2.061 . S
Co131 O137 2.052 . S
Co131 O139 2.135 . S
O132 Co131 2.061 . S
O132 C135 1.235 . S
C133 O136 1.238 . S
C133 O137 1.241 . S
C134 O127 1.247 . S
C134 O128 1.261 . S
C135 O130 1.259 . S
C135 O132 1.235 . S
O136 Co126 2.021 . S
O136 C133 1.238 . S
O137 Co131 2.052 . S
O137 C133 1.241 . S
O138 Co126 2.137 . S
O138 C129 1.247 . S
O139 Co126 2.244 . S
O139 C129 1.272 . S
O139 Co131 2.135 . S
Co140 O141 2.216 . S
Co140 O142 2.091 . S
Co140 O144 2.004 . S
Co140 O150 2.021 . S
Co140 O152 2.137 . S
Co140 O153 2.244 . S
O141 Co140 2.216 . S
O141 C148 1.247 . S
O142 Co140 2.091 . S
O142 C148 1.261 . S
C143 O152 1.247 . S
C143 O153 1.272 . S
O144 Co140 2.004 . S
O144 C149 1.259 . S
Co145 O146 2.061 . S
Co145 O151 2.052 . S
Co145 O153 2.135 . S
O146 Co145 2.061 . S
O146 C149 1.235 . S
C147 O150 1.238 . S
C147 O151 1.241 . S
C148 O141 1.247 . S
C148 O142 1.261 . S
C149 O144 1.259 . S
C149 O146 1.235 . S
O150 Co140 2.021 . S
O150 C147 1.238 . S
O151 Co145 2.052 . S
O151 C147 1.241 . S
O152 Co140 2.137 . S
O152 C143 1.247 . S
O153 Co140 2.244 . S
O153 C143 1.272 . S
O153 Co145 2.135 . S
Co154 O155 2.216 . S
Co154 O156 2.091 . S
Co154 O158 2.004 . S
Co154 O164 2.021 . S
Co154 O166 2.137 . S
Co154 O167 2.244 . S
O155 Co154 2.216 . S
O155 C162 1.247 . S
O156 Co154 2.091 . S
O156 C162 1.261 . S
C157 O166 1.247 . S
C157 O167 1.272 . S
O158 Co154 2.004 . S
O158 C163 1.259 . S
Co159 O160 2.061 . S
Co159 O165 2.052 . S
Co159 O167 2.135 . S
O160 Co159 2.061 . S
O160 C163 1.235 . S
C161 O164 1.238 . S
C161 O165 1.241 . S
C162 O155 1.247 . S
C162 O156 1.261 . S
C163 O158 1.259 . S
C163 O160 1.235 . S
O164 Co154 2.021 . S
O164 C161 1.238 . S
O165 Co159 2.052 . S
O165 C161 1.241 . S
O166 Co154 2.137 . S
O166 C157 1.247 . S
O167 Co154 2.244 . S
O167 C157 1.272 . S
O167 Co159 2.135 . S
Co168 O169 2.216 . S
Co168 O170 2.091 . S
Co168 O172 2.004 . S
Co168 O178 2.021 . S
Co168 O180 2.137 . S
Co168 O181 2.244 . S
O169 Co168 2.216 . S
O169 C176 1.247 . S
O170 Co168 2.091 . S
O170 C176 1.261 . S
C171 O180 1.247 . S
C171 O181 1.272 . S
O172 Co168 2.004 . S
O172 C177 1.259 . S
Co173 O174 2.061 . S
Co173 O179 2.052 . S
Co173 O181 2.135 . S
O174 Co173 2.061 . S
O174 C177 1.235 . S
C175 O178 1.238 . S
C175 O179 1.241 . S
C176 O169 1.247 . S
C176 O170 1.261 . S
C177 O172 1.259 . S
C177 O174 1.235 . S
O178 Co168 2.021 . S
O178 C175 1.238 . S
O179 Co173 2.052 . S
O179 C175 1.241 . S
O180 Co168 2.137 . S
O180 C171 1.247 . S
O181 Co168 2.244 . S
O181 C171 1.272 . S
O181 Co173 2.135 . S
Co182 O183 2.216 . S
Co182 O184 2.091 . S
Co182 O186 2.004 . S
Co182 O192 2.021 . S
Co182 O194 2.137 . S
Co182 O195 2.244 . S
O183 Co182 2.216 . S
O183 C190 1.247 . S
O184 Co182 2.091 . S
O184 C190 1.261 . S
C185 O194 1.247 . S
C185 O195 1.272 . S
O186 Co182 2.004 . S
O186 C191 1.259 . S
Co187 O188 2.061 . S
Co187 O193 2.052 . S
Co187 O195 2.135 . S
O188 Co187 2.061 . S
O188 C191 1.235 . S
C189 O192 1.238 . S
C189 O193 1.241 . S
C190 O183 1.247 . S
C190 O184 1.261 . S
C191 O186 1.259 . S
C191 O188 1.235 . S
O192 Co182 2.021 . S
O192 C189 1.238 . S
O193 Co187 2.052 . S
O193 C189 1.241 . S
O194 Co182 2.137 . S
O194 C185 1.247 . S
O195 Co182 2.244 . S
O195 C185 1.272 . S
O195 Co187 2.135 . S
Co196 O197 2.216 . S
Co196 O198 2.091 . S
Co196 O200 2.004 . S
Co196 O206 2.021 . S
Co196 O208 2.137 . S
Co196 O209 2.244 . S
O197 Co196 2.216 . S
O197 C204 1.247 . S
O198 Co196 2.091 . S
O198 C204 1.261 . S
C199 O208 1.247 . S
C199 O209 1.272 . S
O200 Co196 2.004 . S
O200 C205 1.259 . S
Co201 O202 2.061 . S
Co201 O207 2.052 . S
Co201 O209 2.135 . S
O202 Co201 2.061 . S
O202 C205 1.235 . S
C203 O206 1.238 . S
C203 O207 1.241 . S
C204 O197 1.247 . S
C204 O198 1.261 . S
C205 O200 1.259 . S
C205 O202 1.235 . S
O206 Co196 2.021 . S
O206 C203 1.238 . S
O207 Co201 2.052 . S
O207 C203 1.241 . S
O208 Co196 2.137 . S
O208 C199 1.247 . S
O209 Co196 2.244 . S
O209 C199 1.272 . S
O209 Co201 2.135 . S
Co210 O211 2.216 . S
Co210 O212 2.091 . S
Co210 O214 2.004 . S
Co210 O220 2.021 . S
Co210 O222 2.137 . S
Co210 O223 2.244 . S
O211 Co210 2.216 . S
O211 C218 1.247 . S
O212 Co210 2.091 . S
O212 C218 1.261 . S
C213 O222 1.247 . S
C213 O223 1.272 . S
O214 Co210 2.004 . S
O214 C219 1.259 . S
Co215 O216 2.061 . S
Co215 O221 2.052 . S
Co215 O223 2.135 . S
O216 Co215 2.061 . S
O216 C219 1.235 . S
C217 O220 1.238 . S
C217 O221 1.241 . S
C218 O211 1.247 . S
C218 O212 1.261 . S
C219 O214 1.259 . S
C219 O216 1.235 . S
O220 Co210 2.021 . S
O220 C217 1.238 . S
O221 Co215 2.052 . S
O221 C217 1.241 . S
O222 Co210 2.137 . S
O222 C213 1.247 . S
O223 Co210 2.244 . S
O223 C213 1.272 . S
O223 Co215 2.135 . S
Co224 O225 2.216 . S
Co224 O226 2.091 . S
Co224 O228 2.004 . S
Co224 O234 2.021 . S
Co224 O236 2.137 . S
Co224 O237 2.244 . S
O225 Co224 2.216 . S
O225 C232 1.247 . S
O226 Co224 2.091 . S
O226 C232 1.261 . S
C227 O236 1.247 . S
C227 O237 1.272 . S
O228 Co224 2.004 . S
O228 C233 1.259 . S
Co229 O230 2.061 . S
Co229 O235 2.052 . S
Co229 O237 2.135 . S
O230 Co229 2.061 . S
O230 C233 1.235 . S
C231 O234 1.238 . S
C231 O235 1.241 . S
C232 O225 1.247 . S
C232 O226 1.261 . S
C233 O228 1.259 . S
C233 O230 1.235 . S
O234 Co224 2.021 . S
O234 C231 1.238 . S
O235 Co229 2.052 . S
O235 C231 1.241 . S
O236 Co224 2.137 . S
O236 C227 1.247 . S
O237 Co224 2.244 . S
O237 C227 1.272 . S
O237 Co229 2.135 . S
Co238 O239 2.216 . S
Co238 O240 2.091 . S
Co238 O242 2.004 . S
Co238 O248 2.021 . S
Co238 O250 2.137 . S
Co238 O251 2.244 . S
O239 Co238 2.216 . S
O239 C246 1.247 . S
O240 Co238 2.091 . S
O240 C246 1.261 . S
C241 O250 1.247 . S
C241 O251 1.272 . S
O242 Co238 2.004 . S
O242 C247 1.259 . S
Co243 O244 2.061 . S
Co243 O249 2.052 . S
Co243 O251 2.135 . S
O244 Co243 2.061 . S
O244 C247 1.235 . S
C245 O248 1.238 . S
C245 O249 1.241 . S
C246 O239 1.247 . S
C246 O240 1.261 . S
C247 O242 1.259 . S
C247 O244 1.235 . S
O248 Co238 2.021 . S
O248 C245 1.238 . S
O249 Co243 2.052 . S
O249 C245 1.241 . S
O250 Co238 2.137 . S
O250 C241 1.247 . S
O251 Co238 2.244 . S
O251 C241 1.272 . S
O251 Co243 2.135 . S
Co252 O253 2.216 . S
Co252 O254 2.091 . S
Co252 O256 2.004 . S
Co252 O262 2.021 . S
Co252 O264 2.137 . S
Co252 O265 2.244 . S
O253 Co252 2.216 . S
O253 C260 1.247 . S
O254 Co252 2.091 . S
O254 C260 1.261 . S
C255 O264 1.247 . S
C255 O265 1.272 . S
O256 Co252 2.004 . S
O256 C261 1.259 . S
Co257 O258 2.061 . S
Co257 O263 2.052 . S
Co257 O265 2.135 . S
O258 Co257 2.061 . S
O258 C261 1.235 . S
C259 O262 1.238 . S
C259 O263 1.241 . S
C260 O253 1.247 . S
C260 O254 1.261 . S
C261 O256 1.259 . S
C261 O258 1.235 . S
O262 Co252 2.021 . S
O262 C259 1.238 . S
O263 Co257 2.052 . S
O263 C259 1.241 . S
O264 Co252 2.137 . S
O264 C255 1.247 . S
O265 Co252 2.244 . S
O265 C255 1.272 . S
O265 Co257 2.135 . S
Co266 O267 2.216 . S
Co266 O268 2.091 . S
Co266 O270 2.004 . S
Co266 O276 2.021 . S
Co266 O278 2.137 . S
Co266 O279 2.244 . S
O267 Co266 2.216 . S
O267 C274 1.247 . S
O268 Co266 2.091 . S
O268 C274 1.261 . S
C269 O278 1.247 . S
C269 O279 1.272 . S
O270 Co266 2.004 . S
O270 C275 1.259 . S
Co271 O272 2.061 . S
Co271 O277 2.052 . S
Co271 O279 2.135 . S
O272 Co271 2.061 . S
O272 C275 1.235 . S
C273 O276 1.238 . S
C273 O277 1.241 . S
C274 O267 1.247 . S
C274 O268 1.261 . S
C275 O270 1.259 . S
C275 O272 1.235 . S
O276 Co266 2.021 . S
O276 C273 1.238 . S
O277 Co271 2.052 . S
O277 C273 1.241 . S
O278 Co266 2.137 . S
O278 C269 1.247 . S
O279 Co266 2.244 . S
O279 C269 1.272 . S
O279 Co271 2.135 . S
Co280 O281 2.216 . S
Co280 O282 2.091 . S
Co280 O284 2.004 . S
Co280 O290 2.021 . S
Co280 O292 2.137 . S
Co280 O293 2.244 . S
O281 Co280 2.216 . S
O281 C288 1.247 . S
O282 Co280 2.091 . S
O282 C288 1.261 . S
C283 O292 1.247 . S
C283 O293 1.272 . S
O284 Co280 2.004 . S
O284 C289 1.259 . S
Co285 O286 2.061 . S
Co285 O291 2.052 . S
Co285 O293 2.135 . S
O286 Co285 2.061 . S
O286 C289 1.235 . S
C287 O290 1.238 . S
C287 O291 1.241 . S
C288 O281 1.247 . S
C288 O282 1.261 . S
C289 O284 1.259 . S
C289 O286 1.235 . S
O290 Co280 2.021 . S
O290 C287 1.238 . S
O291 Co285 2.052 . S
O291 C287 1.241 . S
O292 Co280 2.137 . S
O292 C283 1.247 . S
O293 Co280 2.244 . S
O293 C283 1.272 . S
O293 Co285 2.135 . S
Co294 O295 2.216 . S
Co294 O296 2.091 . S
Co294 O298 2.004 . S
Co294 O304 2.021 . S
Co294 O306 2.137 1_554 S
Co294 O307 2.244 1_554 S
O295 Co294 2.216 . S
O295 C302 1.247 . S
O296 Co294 2.091 . S
O296 C302 1.261 . S
C297 O306 1.247 . S
C297 O307 1.272 . S
O298 Co294 2.004 . S
O298 C303 1.259 . S
Co299 O300 2.061 . S
Co299 O305 2.052 . S
Co299 O307 2.135 1_554 S
O300 Co299 2.061 . S
O300 C303 1.235 . S
C301 O304 1.238 . S
C301 O305 1.241 . S
C302 O295 1.247 . S
C302 O296 1.261 . S
C303 O298 1.259 . S
C303 O300 1.235 . S
O304 Co294 2.021 . S
O304 C301 1.238 . S
O305 Co299 2.052 . S
O305 C301 1.241 . S
O306 Co294 2.137 1_556 S
O306 C297 1.247 . S
O307 Co294 2.244 1_556 S
O307 C297 1.272 . S
O307 Co299 2.135 1_556 S
Co308 O309 2.216 . S
Co308 O310 2.091 . S
Co308 O312 2.004 . S
Co308 O318 2.021 . S
Co308 O320 2.137 1_554 S
Co308 O321 2.244 1_554 S
O309 Co308 2.216 . S
O309 C316 1.247 . S
O310 Co308 2.091 . S
O310 C316 1.261 . S
C311 O320 1.247 . S
C311 O321 1.272 . S
O312 Co308 2.004 . S
O312 C317 1.259 . S
Co313 O314 2.061 . S
Co313 O319 2.052 . S
Co313 O321 2.135 1_554 S
O314 Co313 2.061 . S
O314 C317 1.235 . S
C315 O318 1.238 . S
C315 O319 1.241 . S
C316 O309 1.247 . S
C316 O310 1.261 . S
C317 O312 1.259 . S
C317 O314 1.235 . S
O318 Co308 2.021 . S
O318 C315 1.238 . S
O319 Co313 2.052 . S
O319 C315 1.241 . S
O320 Co308 2.137 1_556 S
O320 C311 1.247 . S
O321 Co308 2.244 1_556 S
O321 C311 1.272 . S
O321 Co313 2.135 1_556 S
Co322 O323 2.216 . S
Co322 O324 2.091 . S
Co322 O326 2.004 . S
Co322 O332 2.021 . S
Co322 O334 2.137 1_554 S
Co322 O335 2.244 1_554 S
O323 Co322 2.216 . S
O323 C330 1.247 . S
O324 Co322 2.091 . S
O324 C330 1.261 . S
C325 O334 1.247 . S
C325 O335 1.272 . S
O326 Co322 2.004 . S
O326 C331 1.259 . S
Co327 O328 2.061 . S
Co327 O333 2.052 . S
Co327 O335 2.135 1_554 S
O328 Co327 2.061 . S
O328 C331 1.235 . S
C329 O332 1.238 . S
C329 O333 1.241 . S
C330 O323 1.247 . S
C330 O324 1.261 . S
C331 O326 1.259 . S
C331 O328 1.235 . S
O332 Co322 2.021 . S
O332 C329 1.238 . S
O333 Co327 2.052 . S
O333 C329 1.241 . S
O334 Co322 2.137 1_556 S
O334 C325 1.247 . S
O335 Co322 2.244 1_556 S
O335 C325 1.272 . S
O335 Co327 2.135 1_556 S
Co336 O337 2.216 . S
Co336 O338 2.091 . S
Co336 O340 2.004 . S
Co336 O346 2.021 . S
Co336 O348 2.137 . S
Co336 O349 2.244 . S
O337 Co336 2.216 . S
O337 C344 1.247 . S
O338 Co336 2.091 . S
O338 C344 1.261 . S
C339 O348 1.247 . S
C339 O349 1.272 . S
O340 Co336 2.004 . S
O340 C345 1.259 . S
Co341 O342 2.061 . S
Co341 O347 2.052 . S
Co341 O349 2.135 . S
O342 Co341 2.061 . S
O342 C345 1.235 . S
C343 O346 1.238 . S
C343 O347 1.241 . S
C344 O337 1.247 . S
C344 O338 1.261 . S
C345 O340 1.259 . S
C345 O342 1.235 . S
O346 Co336 2.021 . S
O346 C343 1.238 . S
O347 Co341 2.052 . S
O347 C343 1.241 . S
O348 Co336 2.137 . S
O348 C339 1.247 . S
O349 Co336 2.244 . S
O349 C339 1.272 . S
O349 Co341 2.135 . S
Co350 O351 2.216 . S
Co350 O352 2.091 . S
Co350 O354 2.004 . S
Co350 O360 2.021 . S
Co350 O362 2.137 . S
Co350 O363 2.244 . S
O351 Co350 2.216 . S
O351 C358 1.247 . S
O352 Co350 2.091 . S
O352 C358 1.261 . S
C353 O362 1.247 . S
C353 O363 1.272 . S
O354 Co350 2.004 . S
O354 C359 1.259 . S
Co355 O356 2.061 . S
Co355 O361 2.052 . S
Co355 O363 2.135 . S
O356 Co355 2.061 . S
O356 C359 1.235 . S
C357 O360 1.238 . S
C357 O361 1.241 . S
C358 O351 1.247 . S
C358 O352 1.261 . S
C359 O354 1.259 . S
C359 O356 1.235 . S
O360 Co350 2.021 . S
O360 C357 1.238 . S
O361 Co355 2.052 . S
O361 C357 1.241 . S
O362 Co350 2.137 . S
O362 C353 1.247 . S
O363 Co350 2.244 . S
O363 C353 1.272 . S
O363 Co355 2.135 . S
Co364 O365 2.216 . S
Co364 O366 2.091 . S
Co364 O368 2.004 . S
Co364 O374 2.021 . S
Co364 O376 2.137 . S
Co364 O377 2.244 . S
O365 Co364 2.216 . S
O365 C372 1.247 . S
O366 Co364 2.091 . S
O366 C372 1.261 . S
C367 O376 1.247 . S
C367 O377 1.272 . S
O368 Co364 2.004 . S
O368 C373 1.259 . S
Co369 O370 2.061 . S
Co369 O375 2.052 . S
Co369 O377 2.135 . S
O370 Co369 2.061 . S
O370 C373 1.235 . S
C371 O374 1.238 . S
C371 O375 1.241 . S
C372 O365 1.247 . S
C372 O366 1.261 . S
C373 O368 1.259 . S
C373 O370 1.235 . S
O374 Co364 2.021 . S
O374 C371 1.238 . S
O375 Co369 2.052 . S
O375 C371 1.241 . S
O376 Co364 2.137 . S
O376 C367 1.247 . S
O377 Co364 2.244 . S
O377 C367 1.272 . S
O377 Co369 2.135 . S
Co378 O379 2.216 . S
Co378 O380 2.091 . S
Co378 O382 2.004 . S
Co378 O388 2.021 . S
Co378 O390 2.137 1_556 S
Co378 O391 2.244 1_556 S
O379 Co378 2.216 . S
O379 C386 1.247 . S
O380 Co378 2.091 . S
O380 C386 1.261 . S
C381 O390 1.247 . S
C381 O391 1.272 . S
O382 Co378 2.004 . S
O382 C387 1.259 . S
Co383 O384 2.061 . S
Co383 O389 2.052 . S
Co383 O391 2.135 1_556 S
O384 Co383 2.061 . S
O384 C387 1.235 . S
C385 O388 1.238 . S
C385 O389 1.241 . S
C386 O379 1.247 . S
C386 O380 1.261 . S
C387 O382 1.259 . S
C387 O384 1.235 . S
O388 Co378 2.021 . S
O388 C385 1.238 . S
O389 Co383 2.052 . S
O389 C385 1.241 . S
O390 Co378 2.137 1_554 S
O390 C381 1.247 . S
O391 Co378 2.244 1_554 S
O391 C381 1.272 . S
O391 Co383 2.135 1_554 S
Co392 O393 2.216 . S
Co392 O394 2.091 . S
Co392 O396 2.004 . S
Co392 O402 2.021 . S
Co392 O404 2.137 1_556 S
Co392 O405 2.244 1_556 S
O393 Co392 2.216 . S
O393 C400 1.247 . S
O394 Co392 2.091 . S
O394 C400 1.261 . S
C395 O404 1.247 . S
C395 O405 1.272 . S
O396 Co392 2.004 . S
O396 C401 1.259 . S
Co397 O398 2.061 . S
Co397 O403 2.052 . S
Co397 O405 2.135 1_556 S
O398 Co397 2.061 . S
O398 C401 1.235 . S
C399 O402 1.238 . S
C399 O403 1.241 . S
C400 O393 1.247 . S
C400 O394 1.261 . S
C401 O396 1.259 . S
C401 O398 1.235 . S
O402 Co392 2.021 . S
O402 C399 1.238 . S
O403 Co397 2.052 . S
O403 C399 1.241 . S
O404 Co392 2.137 1_554 S
O404 C395 1.247 . S
O405 Co392 2.244 1_554 S
O405 C395 1.272 . S
O405 Co397 2.135 1_554 S
Co406 O407 2.216 . S
Co406 O408 2.091 . S
Co406 O410 2.004 . S
Co406 O416 2.021 . S
Co406 O418 2.137 1_556 S
Co406 O419 2.244 1_556 S
O407 Co406 2.216 . S
O407 C414 1.247 . S
O408 Co406 2.091 . S
O408 C414 1.261 . S
C409 O418 1.247 . S
C409 O419 1.272 . S
O410 Co406 2.004 . S
O410 C415 1.259 . S
Co411 O412 2.061 . S
Co411 O417 2.052 . S
Co411 O419 2.135 1_556 S
O412 Co411 2.061 . S
O412 C415 1.235 . S
C413 O416 1.238 . S
C413 O417 1.241 . S
C414 O407 1.247 . S
C414 O408 1.261 . S
C415 O410 1.259 . S
C415 O412 1.235 . S
O416 Co406 2.021 . S
O416 C413 1.238 . S
O417 Co411 2.052 . S
O417 C413 1.241 . S
O418 Co406 2.137 1_554 S
O418 C409 1.247 . S
O419 Co406 2.244 1_554 S
O419 C409 1.272 . S
O419 Co411 2.135 1_554 S
Co420 O421 2.216 . S
Co420 O422 2.091 . S
Co420 O424 2.004 . S
Co420 O430 2.021 . S
Co420 O432 2.137 . S
Co420 O433 2.244 . S
O421 Co420 2.216 . S
O421 C428 1.247 . S
O422 Co420 2.091 . S
O422 C428 1.261 . S
C423 O432 1.247 . S
C423 O433 1.272 . S
O424 Co420 2.004 . S
O424 C429 1.259 . S
Co425 O426 2.061 . S
Co425 O431 2.052 . S
Co425 O433 2.135 . S
O426 Co425 2.061 . S
O426 C429 1.235 . S
C427 O430 1.238 . S
C427 O431 1.241 . S
C428 O421 1.247 . S
C428 O422 1.261 . S
C429 O424 1.259 . S
C429 O426 1.235 . S
O430 Co420 2.021 . S
O430 C427 1.238 . S
O431 Co425 2.052 . S
O431 C427 1.241 . S
O432 Co420 2.137 . S
O432 C423 1.247 . S
O433 Co420 2.244 . S
O433 C423 1.272 . S
O433 Co425 2.135 . S
Co434 O435 2.216 . S
Co434 O436 2.091 . S
Co434 O438 2.004 . S
Co434 O444 2.021 . S
Co434 O446 2.137 . S
Co434 O447 2.244 . S
O435 Co434 2.216 . S
O435 C442 1.247 . S
O436 Co434 2.091 . S
O436 C442 1.261 . S
C437 O446 1.247 . S
C437 O447 1.272 . S
O438 Co434 2.004 . S
O438 C443 1.259 . S
Co439 O440 2.061 . S
Co439 O445 2.052 . S
Co439 O447 2.135 . S
O440 Co439 2.061 . S
O440 C443 1.235 . S
C441 O444 1.238 . S
C441 O445 1.241 . S
C442 O435 1.247 . S
C442 O436 1.261 . S
C443 O438 1.259 . S
C443 O440 1.235 . S
O444 Co434 2.021 . S
O444 C441 1.238 . S
O445 Co439 2.052 . S
O445 C441 1.241 . S
O446 Co434 2.137 . S
O446 C437 1.247 . S
O447 Co434 2.244 . S
O447 C437 1.272 . S
O447 Co439 2.135 . S
Co448 O449 2.216 . S
Co448 O450 2.091 . S
Co448 O452 2.004 . S
Co448 O458 2.021 . S
Co448 O460 2.137 . S
Co448 O461 2.244 . S
O449 Co448 2.216 . S
O449 C456 1.247 . S
O450 Co448 2.091 . S
O450 C456 1.261 . S
C451 O460 1.247 . S
C451 O461 1.272 . S
O452 Co448 2.004 . S
O452 C457 1.259 . S
Co453 O454 2.061 . S
Co453 O459 2.052 . S
Co453 O461 2.135 . S
O454 Co453 2.061 . S
O454 C457 1.235 . S
C455 O458 1.238 . S
C455 O459 1.241 . S
C456 O449 1.247 . S
C456 O450 1.261 . S
C457 O452 1.259 . S
C457 O454 1.235 . S
O458 Co448 2.021 . S
O458 C455 1.238 . S
O459 Co453 2.052 . S
O459 C455 1.241 . S
O460 Co448 2.137 . S
O460 C451 1.247 . S
O461 Co448 2.244 . S
O461 C451 1.272 . S
O461 Co453 2.135 . S
Co462 O463 2.216 . S
Co462 O464 2.091 . S
Co462 O466 2.004 . S
Co462 O472 2.021 . S
Co462 O474 2.137 . S
Co462 O475 2.244 . S
O463 Co462 2.216 . S
O463 C470 1.247 . S
O464 Co462 2.091 . S
O464 C470 1.261 . S
C465 O474 1.247 . S
C465 O475 1.272 . S
O466 Co462 2.004 . S
O466 C471 1.259 . S
Co467 O468 2.061 . S
Co467 O473 2.052 . S
Co467 O475 2.135 . S
O468 Co467 2.061 . S
O468 C471 1.235 . S
C469 O472 1.238 . S
C469 O473 1.241 . S
C470 O463 1.247 . S
C470 O464 1.261 . S
C471 O466 1.259 . S
C471 O468 1.235 . S
O472 Co462 2.021 . S
O472 C469 1.238 . S
O473 Co467 2.052 . S
O473 C469 1.241 . S
O474 Co462 2.137 . S
O474 C465 1.247 . S
O475 Co462 2.244 . S
O475 C465 1.272 . S
O475 Co467 2.135 . S
Co476 O477 2.216 . S
Co476 O478 2.091 . S
Co476 O480 2.004 . S
Co476 O486 2.021 . S
Co476 O488 2.137 . S
Co476 O489 2.244 . S
O477 Co476 2.216 . S
O477 C484 1.247 . S
O478 Co476 2.091 . S
O478 C484 1.261 . S
C479 O488 1.247 . S
C479 O489 1.272 . S
O480 Co476 2.004 . S
O480 C485 1.259 . S
Co481 O482 2.061 . S
Co481 O487 2.052 . S
Co481 O489 2.135 . S
O482 Co481 2.061 . S
O482 C485 1.235 . S
C483 O486 1.238 . S
C483 O487 1.241 . S
C484 O477 1.247 . S
C484 O478 1.261 . S
C485 O480 1.259 . S
C485 O482 1.235 . S
O486 Co476 2.021 . S
O486 C483 1.238 . S
O487 Co481 2.052 . S
O487 C483 1.241 . S
O488 Co476 2.137 . S
O488 C479 1.247 . S
O489 Co476 2.244 . S
O489 C479 1.272 . S
O489 Co481 2.135 . S
Co490 O491 2.216 . S
Co490 O492 2.091 . S
Co490 O494 2.004 . S
Co490 O500 2.021 . S
Co490 O502 2.137 . S
Co490 O503 2.244 . S
O491 Co490 2.216 . S
O491 C498 1.247 . S
O492 Co490 2.091 . S
O492 C498 1.261 . S
C493 O502 1.247 . S
C493 O503 1.272 . S
O494 Co490 2.004 . S
O494 C499 1.259 . S
Co495 O496 2.061 . S
Co495 O501 2.052 . S
Co495 O503 2.135 . S
O496 Co495 2.061 . S
O496 C499 1.235 . S
C497 O500 1.238 . S
C497 O501 1.241 . S
C498 O491 1.247 . S
C498 O492 1.261 . S
C499 O494 1.259 . S
C499 O496 1.235 . S
O500 Co490 2.021 . S
O500 C497 1.238 . S
O501 Co495 2.052 . S
O501 C497 1.241 . S
O502 Co490 2.137 . S
O502 C493 1.247 . S
O503 Co490 2.244 . S
O503 C493 1.272 . S
O503 Co495 2.135 . S
C504 C505 1.387 . S
C504 H508 0.950 . S
C504 C513 1.390 . S
C505 C504 1.387 . S
C505 C507 1.387 . S
H506 C513 0.950 1_554 S
C507 C505 1.387 . S
C507 C509 1.390 . S
C507 H511 0.950 . S
H508 C504 0.950 . S
C509 C507 1.390 . S
C509 C510 1.387 1_556 S
C509 H512 0.950 1_556 S
C510 C509 1.387 1_554 S
C510 C513 1.387 1_554 S
H511 C507 0.950 . S
H512 C509 0.950 1_554 S
C513 C504 1.390 . S
C513 H506 0.950 1_556 S
C513 C510 1.387 1_556 S
C514 C515 1.387 . S
C514 H518 0.950 . S
C514 C523 1.390 . S
C515 C514 1.387 . S
C515 C517 1.387 . S
H516 C523 0.950 1_554 S
C517 C515 1.387 . S
C517 C519 1.390 . S
C517 H521 0.950 . S
H518 C514 0.950 . S
C519 C517 1.390 . S
C519 C520 1.387 1_556 S
C519 H522 0.950 1_556 S
C520 C519 1.387 1_554 S
C520 C523 1.387 1_554 S
H521 C517 0.950 . S
H522 C519 0.950 1_554 S
C523 C514 1.390 . S
C523 H516 0.950 1_556 S
C523 C520 1.387 1_556 S
C524 C525 1.387 1_556 S
C524 H528 0.950 1_556 S
C524 C533 1.390 . S
C525 C524 1.387 1_554 S
C525 C527 1.387 1_554 S
H526 C533 0.950 . S
C527 C525 1.387 1_556 S
C527 C529 1.390 . S
C527 H531 0.950 1_556 S
H528 C524 0.950 1_554 S
C529 C527 1.390 . S
C529 C530 1.387 . S
C529 H532 0.950 . S
C530 C529 1.387 . S
C530 C533 1.387 . S
H531 C527 0.950 1_554 S
H532 C529 0.950 . S
C533 C524 1.390 . S
C533 H526 0.950 . S
C533 C530 1.387 . S
C534 C535 1.387 . S
C534 H538 0.950 . S
C534 C543 1.390 . S
C535 C534 1.387 . S
C535 C537 1.387 . S
H536 C543 0.950 . S
C537 C535 1.387 . S
C537 C539 1.390 . S
C537 H541 0.950 . S
H538 C534 0.950 . S
C539 C537 1.390 . S
C539 C540 1.387 . S
C539 H542 0.950 . S
C540 C539 1.387 . S
C540 C543 1.387 . S
H541 C537 0.950 . S
H542 C539 0.950 . S
C543 C534 1.390 . S
C543 H536 0.950 . S
C543 C540 1.387 . S
C544 C545 1.387 . S
C544 H548 0.950 . S
C544 C553 1.390 . S
C545 C544 1.387 . S
C545 C547 1.387 . S
H546 C553 0.950 . S
C547 C545 1.387 . S
C547 C549 1.390 . S
C547 H551 0.950 . S
H548 C544 0.950 . S
C549 C547 1.390 . S
C549 C550 1.387 . S
C549 H552 0.950 . S
C550 C549 1.387 . S
C550 C553 1.387 . S
H551 C547 0.950 . S
H552 C549 0.950 . S
C553 C544 1.390 . S
C553 H546 0.950 . S
C553 C550 1.387 . S
C554 C555 1.387 . S
C554 H558 0.950 . S
C554 C563 1.390 . S
C555 C554 1.387 . S
C555 C557 1.387 . S
H556 C563 0.950 . S
C557 C555 1.387 . S
C557 C559 1.390 . S
C557 H561 0.950 . S
H558 C554 0.950 . S
C559 C557 1.390 . S
C559 C560 1.387 . S
C559 H562 0.950 . S
C560 C559 1.387 . S
C560 C563 1.387 . S
H561 C557 0.950 . S
H562 C559 0.950 . S
C563 C554 1.390 . S
C563 H556 0.950 . S
C563 C560 1.387 . S
C564 C565 1.387 . S
C564 H568 0.950 . S
C564 C573 1.390 . S
C565 C564 1.387 . S
C565 C567 1.387 . S
H566 C573 0.950 1_556 S
C567 C565 1.387 . S
C567 C569 1.390 . S
C567 H571 0.950 . S
H568 C564 0.950 . S
C569 C567 1.390 . S
C569 C570 1.387 1_554 S
C569 H572 0.950 1_554 S
C570 C569 1.387 1_556 S
C570 C573 1.387 1_556 S
H571 C567 0.950 . S
H572 C569 0.950 1_556 S
C573 C564 1.390 . S
C573 H566 0.950 1_554 S
C573 C570 1.387 1_554 S
C574 C575 1.387 . S
C574 H578 0.950 . S
C574 C583 1.390 . S
C575 C574 1.387 . S
C575 C577 1.387 . S
H576 C583 0.950 1_556 S
C577 C575 1.387 . S
C577 C579 1.390 . S
C577 H581 0.950 . S
H578 C574 0.950 . S
C579 C577 1.390 . S
C579 C580 1.387 1_554 S
C579 H582 0.950 1_554 S
C580 C579 1.387 1_556 S
C580 C583 1.387 1_556 S
H581 C577 0.950 . S
H582 C579 0.950 1_556 S
C583 C574 1.390 . S
C583 H576 0.950 1_554 S
C583 C580 1.387 1_554 S
C584 C585 1.387 1_554 S
C584 H588 0.950 1_554 S
C584 C593 1.390 . S
C585 C584 1.387 1_556 S
C585 C587 1.387 1_556 S
H586 C593 0.950 . S
C587 C585 1.387 1_554 S
C587 C589 1.390 . S
C587 H591 0.950 1_554 S
H588 C584 0.950 1_556 S
C589 C587 1.390 . S
C589 C590 1.387 . S
C589 H592 0.950 . S
C590 C589 1.387 . S
C590 C593 1.387 . S
H591 C587 0.950 1_556 S
H592 C589 0.950 . S
C593 C584 1.390 . S
C593 H586 0.950 . S
C593 C590 1.387 . S
C594 C595 1.387 . S
C594 H598 0.950 . S
C594 C603 1.390 . S
C595 C594 1.387 . S
C595 C597 1.387 . S
H596 C603 0.950 . S
C597 C595 1.387 . S
C597 C599 1.390 . S
C597 H601 0.950 . S
H598 C594 0.950 . S
C599 C597 1.390 . S
C599 C600 1.387 . S
C599 H602 0.950 . S
C600 C599 1.387 . S
C600 C603 1.387 . S
H601 C597 0.950 . S
H602 C599 0.950 . S
C603 C594 1.390 . S
C603 H596 0.950 . S
C603 C600 1.387 . S
C604 C605 1.387 . S
C604 H608 0.950 . S
C604 C613 1.390 . S
C605 C604 1.387 . S
C605 C607 1.387 . S
H606 C613 0.950 . S
C607 C605 1.387 . S
C607 C609 1.390 . S
C607 H611 0.950 . S
H608 C604 0.950 . S
C609 C607 1.390 . S
C609 C610 1.387 . S
C609 H612 0.950 . S
C610 C609 1.387 . S
C610 C613 1.387 . S
H611 C607 0.950 . S
H612 C609 0.950 . S
C613 C604 1.390 . S
C613 H606 0.950 . S
C613 C610 1.387 . S
C614 C615 1.387 . S
C614 H618 0.950 . S
C614 C623 1.390 . S
C615 C614 1.387 . S
C615 C617 1.387 . S
H616 C623 0.950 . S
C617 C615 1.387 . S
C617 C619 1.390 . S
C617 H621 0.950 . S
H618 C614 0.950 . S
C619 C617 1.390 . S
C619 C620 1.387 . S
C619 H622 0.950 . S
C620 C619 1.387 . S
C620 C623 1.387 . S
H621 C617 0.950 . S
H622 C619 0.950 . S
C623 C614 1.390 . S
C623 H616 0.950 . S
C623 C620 1.387 . S
C624 C625 1.387 . S
C624 H628 0.950 . S
C624 C633 1.390 . S
C625 C624 1.387 . S
C625 C627 1.387 . S
H626 C633 0.950 . S
C627 C625 1.387 . S
C627 C629 1.390 . S
C627 H631 0.950 . S
H628 C624 0.950 . S
C629 C627 1.390 . S
C629 C630 1.387 . S
C629 H632 0.950 . S
C630 C629 1.387 . S
C630 C633 1.387 . S
H631 C627 0.950 . S
H632 C629 0.950 . S
C633 C624 1.390 . S
C633 H626 0.950 . S
C633 C630 1.387 . S
C634 C635 1.387 . S
C634 H638 0.950 . S
C634 C643 1.390 . S
C635 C634 1.387 . S
C635 C637 1.387 . S
H636 C643 0.950 . S
C637 C635 1.387 . S
C637 C639 1.390 . S
C637 H641 0.950 . S
H638 C634 0.950 . S
C639 C637 1.390 . S
C639 C640 1.387 . S
C639 H642 0.950 . S
C640 C639 1.387 . S
C640 C643 1.387 . S
H641 C637 0.950 . S
H642 C639 0.950 . S
C643 C634 1.390 . S
C643 H636 0.950 . S
C643 C640 1.387 . S
C644 C645 1.387 . S
C644 H648 0.950 . S
C644 C653 1.390 . S
C645 C644 1.387 . S
C645 C647 1.387 . S
H646 C653 0.950 . S
C647 C645 1.387 . S
C647 C649 1.390 . S
C647 H651 0.950 . S
H648 C644 0.950 . S
C649 C647 1.390 . S
C649 C650 1.387 . S
C649 H652 0.950 . S
C650 C649 1.387 . S
C650 C653 1.387 . S
H651 C647 0.950 . S
H652 C649 0.950 . S
C653 C644 1.390 . S
C653 H646 0.950 . S
C653 C650 1.387 . S
C654 C655 1.387 . S
C654 H658 0.950 . S
C654 C663 1.390 . S
C655 C654 1.387 . S
C655 C657 1.387 . S
H656 C663 0.950 . S
C657 C655 1.387 . S
C657 C659 1.390 . S
C657 H661 0.950 . S
H658 C654 0.950 . S
C659 C657 1.390 . S
C659 C660 1.387 . S
C659 H662 0.950 . S
C660 C659 1.387 . S
C660 C663 1.387 . S
H661 C657 0.950 . S
H662 C659 0.950 . S
C663 C654 1.390 . S
C663 H656 0.950 . S
C663 C660 1.387 . S
C664 C665 1.387 . S
C664 H668 0.950 . S
C664 C673 1.390 . S
C665 C664 1.387 . S
C665 C667 1.387 . S
H666 C673 0.950 . S
C667 C665 1.387 . S
C667 C669 1.390 . S
C667 H671 0.950 . S
H668 C664 0.950 . S
C669 C667 1.390 . S
C669 C670 1.387 . S
C669 H672 0.950 . S
C670 C669 1.387 . S
C670 C673 1.387 . S
H671 C667 0.950 . S
H672 C669 0.950 . S
C673 C664 1.390 . S
C673 H666 0.950 . S
C673 C670 1.387 . S
C674 C675 1.387 . S
C674 H678 0.950 . S
C674 C683 1.390 . S
C675 C674 1.387 . S
C675 C677 1.387 . S
H676 C683 0.950 . S
C677 C675 1.387 . S
C677 C679 1.390 . S
C677 H681 0.950 . S
H678 C674 0.950 . S
C679 C677 1.390 . S
C679 C680 1.387 . S
C679 H682 0.950 . S
C680 C679 1.387 . S
C680 C683 1.387 . S
H681 C677 0.950 . S
H682 C679 0.950 . S
C683 C674 1.390 . S
C683 H676 0.950 . S
C683 C680 1.387 . S
C684 C685 1.387 . S
C684 H688 0.950 . S
C684 C693 1.390 . S
C685 C684 1.387 . S
C685 C687 1.387 . S
H686 C693 0.950 . S
C687 C685 1.387 . S
C687 C689 1.390 . S
C687 H691 0.950 . S
H688 C684 0.950 . S
C689 C687 1.390 . S
C689 C690 1.387 . S
C689 H692 0.950 . S
C690 C689 1.387 . S
C690 C693 1.387 . S
H691 C687 0.950 . S
H692 C689 0.950 . S
C693 C684 1.390 . S
C693 H686 0.950 . S
C693 C690 1.387 . S
C694 C695 1.387 . S
C694 H698 0.950 . S
C694 C703 1.390 . S
C695 C694 1.387 . S
C695 C697 1.387 . S
H696 C703 0.950 . S
C697 C695 1.387 . S
C697 C699 1.390 . S
C697 H701 0.950 . S
H698 C694 0.950 . S
C699 C697 1.390 . S
C699 C700 1.387 . S
C699 H702 0.950 . S
C700 C699 1.387 . S
C700 C703 1.387 . S
H701 C697 0.950 . S
H702 C699 0.950 . S
C703 C694 1.390 . S
C703 H696 0.950 . S
C703 C700 1.387 . S
C704 C705 1.387 . S
C704 H708 0.950 . S
C704 C713 1.390 . S
C705 C704 1.387 . S
C705 C707 1.387 . S
H706 C713 0.950 . S
C707 C705 1.387 . S
C707 C709 1.390 . S
C707 H711 0.950 . S
H708 C704 0.950 . S
C709 C707 1.390 . S
C709 C710 1.387 . S
C709 H712 0.950 . S
C710 C709 1.387 . S
C710 C713 1.387 . S
H711 C707 0.950 . S
H712 C709 0.950 . S
C713 C704 1.390 . S
C713 H706 0.950 . S
C713 C710 1.387 . S
C714 C715 1.387 . S
C714 H718 0.950 . S
C714 C723 1.390 . S
C715 C714 1.387 . S
C715 C717 1.387 . S
H716 C723 0.950 . S
C717 C715 1.387 . S
C717 C719 1.390 . S
C717 H721 0.950 . S
H718 C714 0.950 . S
C719 C717 1.390 . S
C719 C720 1.387 . S
C719 H722 0.950 . S
C720 C719 1.387 . S
C720 C723 1.387 . S
H721 C717 0.950 . S
H722 C719 0.950 . S
C723 C714 1.390 . S
C723 H716 0.950 . S
C723 C720 1.387 . S
C724 C725 1.387 . S
C724 H728 0.950 . S
C724 C733 1.390 . S
C725 C724 1.387 . S
C725 C727 1.387 . S
H726 C733 0.950 . S
C727 C725 1.387 . S
C727 C729 1.390 . S
C727 H731 0.950 . S
H728 C724 0.950 . S
C729 C727 1.390 . S
C729 C730 1.387 . S
C729 H732 0.950 . S
C730 C729 1.387 . S
C730 C733 1.387 . S
H731 C727 0.950 . S
H732 C729 0.950 . S
C733 C724 1.390 . S
C733 H726 0.950 . S
C733 C730 1.387 . S
C734 C735 1.387 . S
C734 H738 0.950 . S
C734 C743 1.390 . S
C735 C734 1.387 . S
C735 C737 1.387 . S
H736 C743 0.950 . S
C737 C735 1.387 . S
C737 C739 1.390 . S
C737 H741 0.950 . S
H738 C734 0.950 . S
C739 C737 1.390 . S
C739 C740 1.387 . S
C739 H742 0.950 . S
C740 C739 1.387 . S
C740 C743 1.387 . S
H741 C737 0.950 . S
H742 C739 0.950 . S
C743 C734 1.390 . S
C743 H736 0.950 . S
C743 C740 1.387 . S
C744 C745 1.387 . S
C744 H748 0.950 . S
C744 C753 1.390 . S
C745 C744 1.387 . S
C745 C747 1.387 . S
H746 C753 0.950 . S
C747 C745 1.387 . S
C747 C749 1.390 . S
C747 H751 0.950 . S
H748 C744 0.950 . S
C749 C747 1.390 . S
C749 C750 1.387 . S
C749 H752 0.950 . S
C750 C749 1.387 . S
C750 C753 1.387 . S
H751 C747 0.950 . S
H752 C749 0.950 . S
C753 C744 1.390 . S
C753 H746 0.950 . S
C753 C750 1.387 . S
C754 C755 1.387 . S
C754 H758 0.950 . S
C754 C763 1.390 . S
C755 C754 1.387 . S
C755 C757 1.387 . S
H756 C763 0.950 . S
C757 C755 1.387 . S
C757 C759 1.390 . S
C757 H761 0.950 . S
H758 C754 0.950 . S
C759 C757 1.390 . S
C759 C760 1.387 . S
C759 H762 0.950 . S
C760 C759 1.387 . S
C760 C763 1.387 . S
H761 C757 0.950 . S
H762 C759 0.950 . S
C763 C754 1.390 . S
C763 H756 0.950 . S
C763 C760 1.387 . S
C764 C765 1.387 . S
C764 H768 0.950 . S
C764 C773 1.390 . S
C765 C764 1.387 . S
C765 C767 1.387 . S
H766 C773 0.950 . S
C767 C765 1.387 . S
C767 C769 1.390 . S
C767 H771 0.950 . S
H768 C764 0.950 . S
C769 C767 1.390 . S
C769 C770 1.387 . S
C769 H772 0.950 . S
C770 C769 1.387 . S
C770 C773 1.387 . S
H771 C767 0.950 . S
H772 C769 0.950 . S
C773 C764 1.390 . S
C773 H766 0.950 . S
C773 C770 1.387 . S
C774 C775 1.387 . S
C774 H778 0.950 . S
C774 C783 1.390 . S
C775 C774 1.387 . S
C775 C777 1.387 . S
H776 C783 0.950 . S
C777 C775 1.387 . S
C777 C779 1.390 . S
C777 H781 0.950 . S
H778 C774 0.950 . S
C779 C777 1.390 . S
C779 C780 1.387 . S
C779 H782 0.950 . S
C780 C779 1.387 . S
C780 C783 1.387 . S
H781 C777 0.950 . S
H782 C779 0.950 . S
C783 C774 1.390 . S
C783 H776 0.950 . S
C783 C780 1.387 . S
C784 C785 1.387 . S
C784 H788 0.950 . S
C784 C793 1.390 . S
C785 C784 1.387 . S
C785 C787 1.387 . S
H786 C793 0.950 . S
C787 C785 1.387 . S
C787 C789 1.390 . S
C787 H791 0.950 . S
H788 C784 0.950 . S
C789 C787 1.390 . S
C789 C790 1.387 . S
C789 H792 0.950 . S
C790 C789 1.387 . S
C790 C793 1.387 . S
H791 C787 0.950 . S
H792 C789 0.950 . S
C793 C784 1.390 . S
C793 H786 0.950 . S
C793 C790 1.387 . S
C794 C795 1.387 . S
C794 H798 0.950 . S
C794 C803 1.390 . S
C795 C794 1.387 . S
C795 C797 1.387 . S
H796 C803 0.950 . S
C797 C795 1.387 . S
C797 C799 1.390 . S
C797 H801 0.950 . S
H798 C794 0.950 . S
C799 C797 1.390 . S
C799 C800 1.387 . S
C799 H802 0.950 . S
C800 C799 1.387 . S
C800 C803 1.387 . S
H801 C797 0.950 . S
H802 C799 0.950 . S
C803 C794 1.390 . S
C803 H796 0.950 . S
C803 C800 1.387 . S
C804 C805 1.387 . S
C804 H808 0.950 . S
C804 C813 1.390 . S
C805 C804 1.387 . S
C805 C807 1.387 . S
H806 C813 0.950 . S
C807 C805 1.387 . S
C807 C809 1.390 . S
C807 H811 0.950 . S
H808 C804 0.950 . S
C809 C807 1.390 . S
C809 C810 1.387 . S
C809 H812 0.950 . S
C810 C809 1.387 . S
C810 C813 1.387 . S
H811 C807 0.950 . S
H812 C809 0.950 . S
C813 C804 1.390 . S
C813 H806 0.950 . S
C813 C810 1.387 . S
C814 C815 1.387 . S
C814 H818 0.950 . S
C814 C823 1.390 . S
C815 C814 1.387 . S
C815 C817 1.387 . S
H816 C823 0.950 . S
C817 C815 1.387 . S
C817 C819 1.390 . S
C817 H821 0.950 . S
H818 C814 0.950 . S
C819 C817 1.390 . S
C819 C820 1.387 . S
C819 H822 0.950 . S
C820 C819 1.387 . S
C820 C823 1.387 . S
H821 C817 0.950 . S
H822 C819 0.950 . S
C823 C814 1.390 . S
C823 H816 0.950 . S
C823 C820 1.387 . S
C824 C825 1.387 . S
C824 H828 0.950 . S
C824 C833 1.390 . S
C825 C824 1.387 . S
C825 C827 1.387 . S
H826 C833 0.950 . S
C827 C825 1.387 . S
C827 C829 1.390 . S
C827 H831 0.950 . S
H828 C824 0.950 . S
C829 C827 1.390 . S
C829 C830 1.387 . S
C829 H832 0.950 . S
C830 C829 1.387 . S
C830 C833 1.387 . S
H831 C827 0.950 . S
H832 C829 0.950 . S
C833 C824 1.390 . S
C833 H826 0.950 . S
C833 C830 1.387 . S
C834 C835 1.387 . S
C834 H838 0.950 . S
C834 C843 1.390 . S
C835 C834 1.387 . S
C835 C837 1.387 . S
H836 C843 0.950 . S
C837 C835 1.387 . S
C837 C839 1.390 . S
C837 H841 0.950 . S
H838 C834 0.950 . S
C839 C837 1.390 . S
C839 C840 1.387 . S
C839 H842 0.950 . S
C840 C839 1.387 . S
C840 C843 1.387 . S
H841 C837 0.950 . S
H842 C839 0.950 . S
C843 C834 1.390 . S
C843 H836 0.950 . S
C843 C840 1.387 . S
C844 C845 1.387 . S
C844 H848 0.950 . S
C844 C853 1.390 . S
C845 C844 1.387 . S
C845 C847 1.387 . S
H846 C853 0.950 . S
C847 C845 1.387 . S
C847 C849 1.390 . S
C847 H851 0.950 . S
H848 C844 0.950 . S
C849 C847 1.390 . S
C849 C850 1.387 . S
C849 H852 0.950 . S
C850 C849 1.387 . S
C850 C853 1.387 . S
H851 C847 0.950 . S
H852 C849 0.950 . S
C853 C844 1.390 . S
C853 H846 0.950 . S
C853 C850 1.387 . S
C854 C855 1.387 . S
C854 H858 0.950 . S
C854 C863 1.390 . S
C855 C854 1.387 . S
C855 C857 1.387 . S
H856 C863 0.950 . S
C857 C855 1.387 . S
C857 C859 1.390 . S
C857 H861 0.950 . S
H858 C854 0.950 . S
C859 C857 1.390 . S
C859 C860 1.387 . S
C859 H862 0.950 . S
C860 C859 1.387 . S
C860 C863 1.387 . S
H861 C857 0.950 . S
H862 C859 0.950 . S
C863 C854 1.390 . S
C863 H856 0.950 . S
C863 C860 1.387 . S
C864 C865 1.387 . S
C864 H868 0.950 . S
C864 C873 1.390 . S
C865 C864 1.387 . S
C865 C867 1.387 . S
H866 C873 0.950 . S
C867 C865 1.387 . S
C867 C869 1.390 . S
C867 H871 0.950 . S
H868 C864 0.950 . S
C869 C867 1.390 . S
C869 C870 1.387 . S
C869 H872 0.950 . S
C870 C869 1.387 . S
C870 C873 1.387 . S
H871 C867 0.950 . S
H872 C869 0.950 . S
C873 C864 1.390 . S
C873 H866 0.950 . S
C873 C870 1.387 . S
C874 C875 1.387 . S
C874 H878 0.950 . S
C874 C883 1.390 1_565 S
C875 C874 1.387 . S
C875 C877 1.387 . S
H876 C883 0.950 . S
C877 C875 1.387 . S
C877 C879 1.390 1_565 S
C877 H881 0.950 . S
H878 C874 0.950 . S
C879 C877 1.390 1_545 S
C879 C880 1.387 . S
C879 H882 0.950 . S
C880 C879 1.387 . S
C880 C883 1.387 . S
H881 C877 0.950 . S
H882 C879 0.950 . S
C883 C874 1.390 1_545 S
C883 H876 0.950 . S
C883 C880 1.387 . S
C884 C885 1.387 . S
C884 H888 0.950 . S
C884 C893 1.390 1_655 S
C885 C884 1.387 . S
C885 C887 1.387 . S
H886 C893 0.950 . S
C887 C885 1.387 . S
C887 C889 1.390 1_655 S
C887 H891 0.950 . S
H888 C884 0.950 . S
C889 C887 1.390 1_455 S
C889 C890 1.387 . S
C889 H892 0.950 . S
C890 C889 1.387 . S
C890 C893 1.387 . S
H891 C887 0.950 . S
H892 C889 0.950 . S
C893 C884 1.390 1_455 S
C893 H886 0.950 . S
C893 C890 1.387 . S
C894 C895 1.387 . S
C894 H898 0.950 . S
C894 C903 1.390 . S
C895 C894 1.387 . S
C895 C897 1.387 . S
H896 C903 0.950 . S
C897 C895 1.387 . S
C897 C899 1.390 . S
C897 H901 0.950 . S
H898 C894 0.950 . S
C899 C897 1.390 . S
C899 C900 1.387 . S
C899 H902 0.950 . S
C900 C899 1.387 . S
C900 C903 1.387 . S
H901 C897 0.950 . S
H902 C899 0.950 . S
C903 C894 1.390 . S
C903 H896 0.950 . S
C903 C900 1.387 . S
C904 C905 1.387 . S
C904 H908 0.950 . S
C904 C913 1.390 1_545 S
C905 C904 1.387 . S
C905 C907 1.387 . S
H906 C913 0.950 . S
C907 C905 1.387 . S
C907 C909 1.390 1_545 S
C907 H911 0.950 . S
H908 C904 0.950 . S
C909 C907 1.390 1_565 S
C909 C910 1.387 . S
C909 H912 0.950 . S
C910 C909 1.387 . S
C910 C913 1.387 . S
H911 C907 0.950 . S
H912 C909 0.950 . S
C913 C904 1.390 1_565 S
C913 H906 0.950 . S
C913 C910 1.387 . S
C914 C915 1.387 . S
C914 H918 0.950 . S
C914 C923 1.390 1_655 S
C915 C914 1.387 . S
C915 C917 1.387 . S
H916 C923 0.950 . S
C917 C915 1.387 . S
C917 C919 1.390 1_655 S
C917 H921 0.950 . S
H918 C914 0.950 . S
C919 C917 1.390 1_455 S
C919 C920 1.387 . S
C919 H922 0.950 . S
C920 C919 1.387 . S
C920 C923 1.387 . S
H921 C917 0.950 . S
H922 C919 0.950 . S
C923 C914 1.390 1_455 S
C923 H916 0.950 . S
C923 C920 1.387 . S
C924 C925 1.387 . S
C924 H928 0.950 . S
C924 C933 1.390 . S
C925 C924 1.387 . S
C925 C927 1.387 . S
H926 C933 0.950 . S
C927 C925 1.387 . S
C927 C929 1.390 . S
C927 H931 0.950 . S
H928 C924 0.950 . S
C929 C927 1.390 . S
C929 C930 1.387 . S
C929 H932 0.950 . S
C930 C929 1.387 . S
C930 C933 1.387 . S
H931 C927 0.950 . S
H932 C929 0.950 . S
C933 C924 1.390 . S
C933 H926 0.950 . S
C933 C930 1.387 . S
C934 C935 1.387 . S
C934 H938 0.950 . S
C934 C943 1.390 . S
C935 C934 1.387 . S
C935 C937 1.387 . S
H936 C943 0.950 . S
C937 C935 1.387 . S
C937 C939 1.390 . S
C937 H941 0.950 . S
H938 C934 0.950 . S
C939 C937 1.390 . S
C939 C940 1.387 . S
C939 H942 0.950 . S
C940 C939 1.387 . S
C940 C943 1.387 . S
H941 C937 0.950 . S
H942 C939 0.950 . S
C943 C934 1.390 . S
C943 H936 0.950 . S
C943 C940 1.387 . S
C944 C945 1.387 . S
C944 H948 0.950 . S
C944 C953 1.390 . S
C945 C944 1.387 . S
C945 C947 1.387 . S
H946 C953 0.950 . S
C947 C945 1.387 . S
C947 C949 1.390 . S
C947 H951 0.950 . S
H948 C944 0.950 . S
C949 C947 1.390 . S
C949 C950 1.387 . S
C949 H952 0.950 . S
C950 C949 1.387 . S
C950 C953 1.387 . S
H951 C947 0.950 . S
H952 C949 0.950 . S
C953 C944 1.390 . S
C953 H946 0.950 . S
C953 C950 1.387 . S
C954 C955 1.387 . S
C954 H958 0.950 . S
C954 C963 1.390 . S
C955 C954 1.387 . S
C955 C957 1.387 . S
H956 C963 0.950 . S
C957 C955 1.387 . S
C957 C959 1.390 . S
C957 H961 0.950 . S
H958 C954 0.950 . S
C959 C957 1.390 . S
C959 C960 1.387 . S
C959 H962 0.950 1_554 S
C960 C959 1.387 . S
C960 C963 1.387 . S
H961 C957 0.950 . S
H962 C959 0.950 1_556 S
C963 C954 1.390 . S
C963 H956 0.950 . S
C963 C960 1.387 . S
C964 C965 1.387 . S
C964 H968 0.950 . S
C964 C973 1.390 . S
C965 C964 1.387 . S
C965 C967 1.387 . S
H966 C973 0.950 . S
C967 C965 1.387 . S
C967 C969 1.390 . S
C967 H971 0.950 . S
H968 C964 0.950 . S
C969 C967 1.390 . S
C969 C970 1.387 . S
C969 H972 0.950 . S
C970 C969 1.387 . S
C970 C973 1.387 . S
H971 C967 0.950 . S
H972 C969 0.950 . S
C973 C964 1.390 . S
C973 H966 0.950 . S
C973 C970 1.387 . S
C974 C975 1.387 . S
C974 H978 0.950 . S
C974 C983 1.390 . S
C975 C974 1.387 . S
C975 C977 1.387 . S
H976 C983 0.950 1_556 S
C977 C975 1.387 . S
C977 C979 1.390 . S
C977 H981 0.950 . S
H978 C974 0.950 . S
C979 C977 1.390 . S
C979 C980 1.387 . S
C979 H982 0.950 . S
C980 C979 1.387 . S
C980 C983 1.387 . S
H981 C977 0.950 . S
H982 C979 0.950 . S
C983 C974 1.390 . S
C983 H976 0.950 1_554 S
C983 C980 1.387 . S
C984 C985 1.387 . S
C984 H988 0.950 1_556 S
C984 C993 1.390 . S
C985 C984 1.387 . S
C985 C987 1.387 . S
H986 C993 0.950 . S
C987 C985 1.387 . S
C987 C989 1.390 . S
C987 H991 0.950 . S
H988 C984 0.950 1_554 S
C989 C987 1.390 . S
C989 C990 1.387 . S
C989 H992 0.950 . S
C990 C989 1.387 . S
C990 C993 1.387 . S
H991 C987 0.950 . S
H992 C989 0.950 . S
C993 C984 1.390 . S
C993 H986 0.950 . S
C993 C990 1.387 . S
C994 C995 1.387 . S
C994 H998 0.950 . S
C994 C1003 1.390 . S
C995 C994 1.387 . S
C995 C997 1.387 . S
H996 C1003 0.950 . S
C997 C995 1.387 . S
C997 C999 1.390 . S
C997 H1001 0.950 . S
H998 C994 0.950 . S
C999 C997 1.390 . S
C999 C1000 1.387 . S
C999 H1002 0.950 . S
C1000 C999 1.387 . S
C1000 C1003 1.387 . S
H1001 C997 0.950 . S
H1002 C999 0.950 . S
C1003 C994 1.390 . S
C1003 H996 0.950 . S
C1003 C1000 1.387 . S
C1004 C1005 1.387 . S
C1004 H1008 0.950 . S
C1004 C1013 1.390 . S
C1005 C1004 1.387 . S
C1005 C1007 1.387 . S
H1006 C1013 0.950 . S
C1007 C1005 1.387 . S
C1007 C1009 1.390 . S
C1007 H1011 0.950 . S
H1008 C1004 0.950 . S
C1009 C1007 1.390 . S
C1009 C1010 1.387 . S
C1009 H1012 0.950 1_556 S
C1010 C1009 1.387 . S
C1010 C1013 1.387 . S
H1011 C1007 0.950 . S
H1012 C1009 0.950 1_554 S
C1013 C1004 1.390 . S
C1013 H1006 0.950 . S
C1013 C1010 1.387 . S
C1014 C1015 1.387 . S
C1014 H1018 0.950 . S
C1014 C1023 1.390 . S
C1015 C1014 1.387 . S
C1015 C1017 1.387 . S
H1016 C1023 0.950 . S
C1017 C1015 1.387 . S
C1017 C1019 1.390 . S
C1017 H1021 0.950 . S
H1018 C1014 0.950 . S
C1019 C1017 1.390 . S
C1019 C1020 1.387 . S
C1019 H1022 0.950 . S
C1020 C1019 1.387 . S
C1020 C1023 1.387 . S
H1021 C1017 0.950 . S
H1022 C1019 0.950 . S
C1023 C1014 1.390 . S
C1023 H1016 0.950 . S
C1023 C1020 1.387 . S
C1024 C1025 1.387 . S
C1024 H1028 0.950 . S
C1024 C1033 1.390 . S
C1025 C1024 1.387 . S
C1025 C1027 1.387 . S
H1026 C1033 0.950 . S
C1027 C1025 1.387 . S
C1027 C1029 1.390 . S
C1027 H1031 0.950 . S
H1028 C1024 0.950 . S
C1029 C1027 1.390 . S
C1029 C1030 1.387 . S
C1029 H1032 0.950 . S
C1030 C1029 1.387 . S
C1030 C1033 1.387 . S
H1031 C1027 0.950 . S
H1032 C1029 0.950 . S
C1033 C1024 1.390 . S
C1033 H1026 0.950 . S
C1033 C1030 1.387 . S
C1034 C1035 1.387 . S
C1034 H1038 0.950 . S
C1034 C1043 1.390 . S
C1035 C1034 1.387 . S
C1035 C1037 1.387 . S
H1036 C1043 0.950 . S
C1037 C1035 1.387 . S
C1037 C1039 1.390 . S
C1037 H1041 0.950 . S
H1038 C1034 0.950 . S
C1039 C1037 1.390 . S
C1039 C1040 1.387 . S
C1039 H1042 0.950 . S
C1040 C1039 1.387 . S
C1040 C1043 1.387 . S
H1041 C1037 0.950 . S
H1042 C1039 0.950 . S
C1043 C1034 1.390 . S
C1043 H1036 0.950 . S
C1043 C1040 1.387 . S
C1044 C1045 1.387 . S
C1044 H1048 0.950 . S
C1044 C1053 1.390 . S
C1045 C1044 1.387 . S
C1045 C1047 1.387 . S
H1046 C1053 0.950 . S
C1047 C1045 1.387 . S
C1047 C1049 1.390 . S
C1047 H1051 0.950 . S
H1048 C1044 0.950 . S
C1049 C1047 1.390 . S
C1049 C1050 1.387 . S
C1049 H1052 0.950 . S
C1050 C1049 1.387 . S
C1050 C1053 1.387 . S
H1051 C1047 0.950 . S
H1052 C1049 0.950 . S
C1053 C1044 1.390 . S
C1053 H1046 0.950 . S
C1053 C1050 1.387 . S
C1054 C1055 1.387 . S
C1054 H1058 0.950 . S
C1054 C1063 1.390 . S
C1055 C1054 1.387 . S
C1055 C1057 1.387 . S
H1056 C1063 0.950 . S
C1057 C1055 1.387 . S
C1057 C1059 1.390 . S
C1057 H1061 0.950 . S
H1058 C1054 0.950 . S
C1059 C1057 1.390 . S
C1059 C1060 1.387 . S
C1059 H1062 0.950 . S
C1060 C1059 1.387 . S
C1060 C1063 1.387 . S
H1061 C1057 0.950 . S
H1062 C1059 0.950 . S
C1063 C1054 1.390 . S
C1063 H1056 0.950 . S
C1063 C1060 1.387 . S
C1064 C1065 1.387 . S
C1064 H1068 0.950 . S
C1064 C1073 1.390 . S
C1065 C1064 1.387 . S
C1065 C1067 1.387 . S
H1066 C1073 0.950 . S
C1067 C1065 1.387 . S
C1067 C1069 1.390 . S
C1067 H1071 0.950 . S
H1068 C1064 0.950 . S
C1069 C1067 1.390 . S
C1069 C1070 1.387 . S
C1069 H1072 0.950 . S
C1070 C1069 1.387 . S
C1070 C1073 1.387 . S
H1071 C1067 0.950 . S
H1072 C1069 0.950 . S
C1073 C1064 1.390 . S
C1073 H1066 0.950 . S
C1073 C1070 1.387 . S
C1074 C1075 1.387 . S
C1074 H1078 0.950 . S
C1074 C1083 1.390 . S
C1075 C1074 1.387 . S
C1075 C1077 1.387 . S
H1076 C1083 0.950 . S
C1077 C1075 1.387 . S
C1077 C1079 1.390 . S
C1077 H1081 0.950 . S
H1078 C1074 0.950 . S
C1079 C1077 1.390 . S
C1079 C1080 1.387 . S
C1079 H1082 0.950 . S
C1080 C1079 1.387 . S
C1080 C1083 1.387 . S
H1081 C1077 0.950 . S
H1082 C1079 0.950 . S
C1083 C1074 1.390 . S
C1083 H1076 0.950 . S
C1083 C1080 1.387 . S
C1084 C1085 1.387 . S
C1084 H1088 0.950 . S
C1084 C1093 1.390 . S
C1085 C1084 1.387 . S
C1085 C1087 1.387 . S
H1086 C1093 0.950 . S
C1087 C1085 1.387 . S
C1087 C1089 1.390 . S
C1087 H1091 0.950 . S
H1088 C1084 0.950 . S
C1089 C1087 1.390 . S
C1089 C1090 1.387 . S
C1089 H1092 0.950 . S
C1090 C1089 1.387 . S
C1090 C1093 1.387 . S
H1091 C1087 0.950 . S
H1092 C1089 0.950 . S
C1093 C1084 1.390 . S
C1093 H1086 0.950 . S
C1093 C1090 1.387 . S
C1094 C1095 1.387 . S
C1094 H1098 0.950 . S
C1094 C1103 1.390 . S
C1095 C1094 1.387 . S
C1095 C1097 1.387 . S
H1096 C1103 0.950 . S
C1097 C1095 1.387 . S
C1097 C1099 1.390 . S
C1097 H1101 0.950 . S
H1098 C1094 0.950 . S
C1099 C1097 1.390 . S
C1099 C1100 1.387 . S
C1099 H1102 0.950 . S
C1100 C1099 1.387 . S
C1100 C1103 1.387 . S
H1101 C1097 0.950 . S
H1102 C1099 0.950 . S
C1103 C1094 1.390 . S
C1103 H1096 0.950 . S
C1103 C1100 1.387 . S
C1104 C1105 1.387 . S
C1104 H1108 0.950 . S
C1104 C1113 1.390 . S
C1105 C1104 1.387 . S
C1105 C1107 1.387 . S
H1106 C1113 0.950 . S
C1107 C1105 1.387 . S
C1107 C1109 1.390 . S
C1107 H1111 0.950 . S
H1108 C1104 0.950 . S
C1109 C1107 1.390 . S
C1109 C1110 1.387 . S
C1109 H1112 0.950 . S
C1110 C1109 1.387 . S
C1110 C1113 1.387 . S
H1111 C1107 0.950 . S
H1112 C1109 0.950 . S
C1113 C1104 1.390 . S
C1113 H1106 0.950 . S
C1113 C1110 1.387 . S
C1114 C1115 1.387 . S
C1114 H1118 0.950 . S
C1114 C1123 1.390 . S
C1115 C1114 1.387 . S
C1115 C1117 1.387 . S
H1116 C1123 0.950 . S
C1117 C1115 1.387 . S
C1117 C1119 1.390 . S
C1117 H1121 0.950 . S
H1118 C1114 0.950 . S
C1119 C1117 1.390 . S
C1119 C1120 1.387 . S
C1119 H1122 0.950 . S
C1120 C1119 1.387 . S
C1120 C1123 1.387 . S
H1121 C1117 0.950 . S
H1122 C1119 0.950 . S
C1123 C1114 1.390 . S
C1123 H1116 0.950 . S
C1123 C1120 1.387 . S
C1124 C1125 1.387 . S
C1124 H1128 0.950 . S
C1124 C1133 1.390 . S
C1125 C1124 1.387 . S
C1125 C1127 1.387 . S
H1126 C1133 0.950 . S
C1127 C1125 1.387 . S
C1127 C1129 1.390 . S
C1127 H1131 0.950 . S
H1128 C1124 0.950 . S
C1129 C1127 1.390 . S
C1129 C1130 1.387 . S
C1129 H1132 0.950 . S
C1130 C1129 1.387 . S
C1130 C1133 1.387 . S
H1131 C1127 0.950 . S
H1132 C1129 0.950 . S
C1133 C1124 1.390 . S
C1133 H1126 0.950 . S
C1133 C1130 1.387 . S
C1134 C1135 1.387 . S
C1134 H1138 0.950 . S
C1134 C1143 1.390 . S
C1135 C1134 1.387 . S
C1135 C1137 1.387 . S
H1136 C1143 0.950 . S
C1137 C1135 1.387 . S
C1137 C1139 1.390 . S
C1137 H1141 0.950 . S
H1138 C1134 0.950 . S
C1139 C1137 1.390 . S
C1139 C1140 1.387 . S
C1139 H1142 0.950 . S
C1140 C1139 1.387 . S
C1140 C1143 1.387 . S
H1141 C1137 0.950 . S
H1142 C1139 0.950 . S
C1143 C1134 1.390 . S
C1143 H1136 0.950 . S
C1143 C1140 1.387 . S
C1144 C1145 1.387 . S
C1144 H1148 0.950 . S
C1144 C1153 1.390 . S
C1145 C1144 1.387 . S
C1145 C1147 1.387 . S
H1146 C1153 0.950 . S
C1147 C1145 1.387 . S
C1147 C1149 1.390 . S
C1147 H1151 0.950 . S
H1148 C1144 0.950 . S
C1149 C1147 1.390 . S
C1149 C1150 1.387 . S
C1149 H1152 0.950 . S
C1150 C1149 1.387 . S
C1150 C1153 1.387 . S
H1151 C1147 0.950 . S
H1152 C1149 0.950 . S
C1153 C1144 1.390 . S
C1153 H1146 0.950 . S
C1153 C1150 1.387 . S
C1154 C1155 1.387 . S
C1154 H1158 0.950 . S
C1154 C1163 1.390 . S
C1155 C1154 1.387 . S
C1155 C1157 1.387 . S
H1156 C1163 0.950 . S
C1157 C1155 1.387 . S
C1157 C1159 1.390 . S
C1157 H1161 0.950 . S
H1158 C1154 0.950 . S
C1159 C1157 1.390 . S
C1159 C1160 1.387 . S
C1159 H1162 0.950 . S
C1160 C1159 1.387 . S
C1160 C1163 1.387 . S
H1161 C1157 0.950 . S
H1162 C1159 0.950 . S
C1163 C1154 1.390 . S
C1163 H1156 0.950 . S
C1163 C1160 1.387 . S
C1164 C1165 1.387 . S
C1164 H1168 0.950 . S
C1164 C1173 1.390 1_455 S
C1165 C1164 1.387 . S
C1165 C1167 1.387 . S
H1166 C1173 0.950 . S
C1167 C1165 1.387 . S
C1167 C1169 1.390 1_455 S
C1167 H1171 0.950 . S
H1168 C1164 0.950 . S
C1169 C1167 1.390 1_655 S
C1169 C1170 1.387 . S
C1169 H1172 0.950 . S
C1170 C1169 1.387 . S
C1170 C1173 1.387 . S
H1171 C1167 0.950 . S
H1172 C1169 0.950 . S
C1173 C1164 1.390 1_655 S
C1173 H1166 0.950 . S
C1173 C1170 1.387 . S
C1174 C1175 1.387 . S
C1174 H1178 0.950 . S
C1174 C1183 1.390 . S
C1175 C1174 1.387 . S
C1175 C1177 1.387 . S
H1176 C1183 0.950 . S
C1177 C1175 1.387 . S
C1177 C1179 1.390 . S
C1177 H1181 0.950 . S
H1178 C1174 0.950 . S
C1179 C1177 1.390 . S
C1179 C1180 1.387 . S
C1179 H1182 0.950 . S
C1180 C1179 1.387 . S
C1180 C1183 1.387 . S
H1181 C1177 0.950 . S
H1182 C1179 0.950 . S
C1183 C1174 1.390 . S
C1183 H1176 0.950 . S
C1183 C1180 1.387 . S
C1184 C1185 1.387 . S
C1184 H1188 0.950 . S
C1184 C1193 1.390 1_545 S
C1185 C1184 1.387 . S
C1185 C1187 1.387 . S
H1186 C1193 0.950 . S
C1187 C1185 1.387 . S
C1187 C1189 1.390 1_545 S
C1187 H1191 0.950 . S
H1188 C1184 0.950 . S
C1189 C1187 1.390 1_565 S
C1189 C1190 1.387 . S
C1189 H1192 0.950 . S
C1190 C1189 1.387 . S
C1190 C1193 1.387 . S
H1191 C1187 0.950 . S
H1192 C1189 0.950 . S
C1193 C1184 1.390 1_565 S
C1193 H1186 0.950 . S
C1193 C1190 1.387 . S
C1194 C1195 1.387 1_556 S
C1194 H1198 0.950 . S
C1194 C1203 1.390 1_545 S
C1195 C1194 1.387 1_554 S
C1195 C1197 1.387 . S
H1196 C1203 0.950 . S
C1197 C1195 1.387 . S
C1197 C1199 1.390 1_545 S
C1197 H1201 0.950 . S
H1198 C1194 0.950 . S
C1199 C1197 1.390 1_565 S
C1199 C1200 1.387 1_554 S
C1199 H1202 0.950 . S
C1200 C1199 1.387 1_556 S
C1200 C1203 1.387 . S
H1201 C1197 0.950 . S
H1202 C1199 0.950 . S
C1203 C1194 1.390 1_565 S
C1203 H1196 0.950 . S
C1203 C1200 1.387 . S
C1204 C1205 1.387 . S
C1204 H1208 0.950 . S
C1204 C1213 1.390 1_655 S
C1205 C1204 1.387 . S
C1205 C1207 1.387 1_554 S
H1206 C1213 0.950 . S
C1207 C1205 1.387 1_556 S
C1207 C1209 1.390 1_655 S
C1207 H1211 0.950 . S
H1208 C1204 0.950 . S
C1209 C1207 1.390 1_455 S
C1209 C1210 1.387 . S
C1209 H1212 0.950 . S
C1210 C1209 1.387 . S
C1210 C1213 1.387 1_556 S
H1211 C1207 0.950 . S
H1212 C1209 0.950 . S
C1213 C1204 1.390 1_455 S
C1213 H1206 0.950 . S
C1213 C1210 1.387 1_554 S
C1214 C1215 1.387 1_556 S
C1214 H1218 0.950 . S
C1214 C1223 1.390 . S
C1215 C1214 1.387 1_554 S
C1215 C1217 1.387 . S
H1216 C1223 0.950 . S
C1217 C1215 1.387 . S
C1217 C1219 1.390 . S
C1217 H1221 0.950 . S
H1218 C1214 0.950 . S
C1219 C1217 1.390 . S
C1219 C1220 1.387 1_554 S
C1219 H1222 0.950 . S
C1220 C1219 1.387 1_556 S
C1220 C1223 1.387 . S
H1221 C1217 0.950 . S
H1222 C1219 0.950 . S
C1223 C1214 1.390 . S
C1223 H1216 0.950 . S
C1223 C1220 1.387 . S
C505 C147 1.359 . S
C510 C3 1.303 . S
C515 C161 1.359 . S
C520 C17 1.304 . S
C525 C31 1.302 . S
C530 C133 1.359 . S
C535 C45 1.301 . S
C540 C119 1.359 . S
C545 C59 1.300 . S
C550 C91 1.360 . S
C555 C105 1.360 . S
C560 C73 1.300 . S
C565 C63 1.359 . S
C570 C87 1.303 . S
C575 C77 1.359 . S
C580 C101 1.304 . S
C585 C115 1.304 . S
C590 C49 1.360 . S
C595 C35 1.360 . S
C600 C129 1.300 . S
C605 C143 1.300 . S
C610 C7 1.360 . S
C615 C157 1.303 . S
C620 C21 1.359 . S
C625 C315 1.359 . S
C630 C171 1.302 . S
C635 C329 1.359 . S
C640 C185 1.304 . S
C645 C199 1.303 . S
C650 C301 1.359 . S
C655 C213 1.304 . S
C660 C287 1.359 1_556 S
C665 C227 1.300 . S
C670 C259 1.360 1_556 S
C675 C241 1.302 . S
C680 C273 1.359 1_556 S
C685 C231 1.359 . S
C690 C255 1.303 . S
C695 C245 1.360 . S
C700 C269 1.301 . S
C705 C217 1.360 . S
C710 C283 1.300 . S
C715 C203 1.360 . S
C720 C297 1.300 . S
C725 C175 1.359 . S
C730 C311 1.304 . S
C735 C189 1.359 . S
C740 C325 1.302 . S
C745 C339 1.301 . S
C750 C483 1.359 . S
C755 C497 1.360 . S
C760 C353 1.300 . S
C765 C469 1.360 . S
C770 C367 1.302 . S
C775 C381 1.304 . S
C780 C455 1.360 . S
C785 C395 1.303 . S
C790 C427 1.359 . S
C795 C409 1.302 . S
C800 C441 1.359 . S
C805 C399 1.360 . S
C810 C423 1.301 . S
C815 C413 1.360 . S
C820 C437 1.300 . S
C825 C385 1.360 . S
C830 C451 1.300 . S
C835 C465 1.302 . S
C840 C371 1.360 1_554 S
C845 C343 1.360 1_554 S
C850 C479 1.300 . S
C855 C493 1.301 . S
C860 C357 1.360 1_554 S
C865 C50 1.525 . S
C870 C8 1.524 . S
C875 C64 1.524 . S
C880 C22 1.524 . S
C885 C36 1.524 . S
C890 C78 1.525 . S
C895 C134 1.524 . S
C900 C92 1.525 . S
C905 C148 1.525 . S
C910 C106 1.525 . S
C915 C162 1.525 . S
C920 C120 1.524 . S
C925 C218 1.525 . S
C930 C176 1.524 . S
C935 C232 1.524 . S
C940 C190 1.524 . S
C945 C204 1.524 . S
C950 C246 1.525 . S
C955 C260 1.525 . S
C960 C302 1.524 . S
C965 C316 1.525 . S
C970 C274 1.525 . S
C975 C288 1.524 . S
C980 C330 1.525 . S
C985 C386 1.524 . S
C990 C344 1.525 . S
C995 C400 1.524 . S
C1000 C358 1.524 . S
C1005 C372 1.524 . S
C1010 C414 1.525 . S
C1015 C428 1.524 . S
C1020 C470 1.525 . S
C1025 C442 1.525 . S
C1030 C484 1.525 . S
C1035 C456 1.525 . S
C1040 C498 1.524 . S
C1045 C9 1.493 . S
C1050 C261 1.493 . S
C1055 C275 1.494 . S
C1060 C23 1.494 . S
C1065 C289 1.492 . S
C1070 C37 1.492 . S
C1075 C471 1.492 . S
C1080 C51 1.492 . S
C1085 C485 1.492 . S
C1090 C65 1.492 . S
C1095 C499 1.493 . S
C1100 C79 1.493 . S
C1105 C93 1.492 . S
C1110 C345 1.492 . S
C1115 C359 1.492 . S
C1120 C107 1.492 . S
C1125 C373 1.494 . S
C1130 C121 1.494 . S
C1135 C135 1.494 . S
C1140 C219 1.494 . S
C1145 C149 1.494 . S
C1150 C233 1.494 . S
C1155 C163 1.493 . S
C1160 C247 1.493 . S
C1165 C429 1.493 . S
C1170 C177 1.493 . S
C1175 C443 1.494 . S
C1180 C191 1.494 . S
C1185 C205 1.493 . S
C1190 C457 1.493 . S
C1195 C303 1.494 . S
C1200 C387 1.494 . S
C1205 C317 1.491 . S
C1210 C401 1.491 . S
C1215 C331 1.493 . S
C1220 C415 1.493 . S
