# Generated by pormake.
# Topology snp, (6)-cn, num edge types: 1
# Building blocks:
#     Node 0, Type 0, BuildingBlock: KUMBOL_clean_sbu_0, # of connection points: 6
#     Node 1, Type 0, BuildingBlock: KUMBOL_clean_sbu_0, # of connection points: 6
#     Node 2, Type 0, BuildingBlock: KUMBOL_clean_sbu_0, # of connection points: 6
#     Node 3, Type 0, BuildingBlock: KUMBOL_clean_sbu_0, # of connection points: 6
#     Edge 4, Type (0, 0), BuildingBlock: UVAHIK_clean_linker_0, # of connection points: 2
#     Edge 5, Type (0, 0), BuildingBlock: UVAHIK_clean_linker_0, # of connection points: 2
#     Edge 6, Type (0, 0), BuildingBlock: UVAHIK_clean_linker_0, # of connection points: 2
#     Edge 7, Type (0, 0), BuildingBlock: UVAHIK_clean_linker_0, # of connection points: 2
#     Edge 8, Type (0, 0), BuildingBlock: UVAHIK_clean_linker_0, # of connection points: 2
#     Edge 9, Type (0, 0), BuildingBlock: UVAHIK_clean_linker_0, # of connection points: 2
#     Edge 10, Type (0, 0), BuildingBlock: UVAHIK_clean_linker_0, # of connection points: 2
#     Edge 11, Type (0, 0), BuildingBlock: UVAHIK_clean_linker_0, # of connection points: 2
#     Edge 12, Type (0, 0), BuildingBlock: UVAHIK_clean_linker_0, # of connection points: 2
#     Edge 13, Type (0, 0), BuildingBlock: UVAHIK_clean_linker_0, # of connection points: 2
#     Edge 14, Type (0, 0), BuildingBlock: UVAHIK_clean_linker_0, # of connection points: 2
#     Edge 15, Type (0, 0), BuildingBlock: UVAHIK_clean_linker_0, # of connection points: 2
# Relax obj value: 0.224
# Max RMSD: 0.243
# Mean RMSD: 0.223
data_MOF--net-snp--node1-KUMBOL_clean_sbu_0--edge1-UVAHIK_clean_linker_0
_symmetry_space_group_name_H-M    P1
_symmetry_Int_Tables_number       1
_symmetry_cell_setting            triclinic
loop_
_symmetry_equiv_pos_as_xyz
'x, y, z'
_cell_length_a     31.63977
_cell_length_b     33.082551
_cell_length_c     41.102257
_cell_angle_alpha  115.53103
_cell_angle_beta   100.45181
_cell_angle_gamma 93.080096
loop_
_atom_site_label
_atom_site_type_symbol
_atom_site_fract_x
_atom_site_fract_y
_atom_site_fract_z
_atom_type_partial_charge
Gd0 Gd 0.365 0.03827 0.23909 0.0
Gd1 Gd 0.35995 0.14155 0.22495 0.0
C2 C 0.39527 0.27525 0.33176 0.0
C3 C 0.32531 0.3014 0.33524 0.0
C4 C 0.33169 0.23123 0.2831 0.0
C5 C 0.376 0.23688 0.29792 0.0
C6 C 0.30643 0.26451 0.30098 0.0
C7 C 0.36956 0.30664 0.35067 0.0
C8 C 0.44002 0.28154 0.34557 0.0
C9 C 0.46482 0.25087 0.32537 0.0
N10 N 0.40036 0.20578 0.27914 0.0
C11 C 0.44466 0.21346 0.29208 0.0
H12 H 0.46578 0.19158 0.27765 0.0
C13 C 0.27265 0.19342 0.23142 0.0
N14 N 0.31374 0.19492 0.25019 0.0
C15 C 0.24662 0.22564 0.24794 0.0
C16 C 0.26324 0.26074 0.28329 0.0
H17 H 0.25914 0.16619 0.20408 0.0
H18 H 0.38384 0.33579 0.37685 0.0
H19 H 0.28802 0.97172 0.16377 0.0
H20 H 0.45587 0.31045 0.37142 0.0
H21 H 0.4997 0.25602 0.33546 0.0
H22 H 0.30619 0.32673 0.3496 0.0
H23 H 0.46205 0.04583 0.29296 0.0
H24 H 0.34086 0.85657 0.09616 0.0
H25 H 0.2795 0.90035 0.10681 0.0
H26 H 0.48332 0.87543 0.16979 0.0
H27 H 0.2137 0.2232 0.23343 0.0
H28 H 0.24297 0.28569 0.29609 0.0
H29 H 0.41701 0.84758 0.11989 0.0
H30 H 0.52425 1.00382 0.28961 0.0
N31 N 0.35408 0.96979 0.18452 0.0
C32 C 0.34487 0.88812 0.12112 0.0
C33 C 0.31015 0.91267 0.12706 0.0
C34 C 0.38394 0.90397 0.14798 0.0
C35 C 0.38748 0.94535 0.1799 0.0
C36 C 0.31516 0.95327 0.15936 0.0
N37 N 0.42641 1.00056 0.23846 0.0
C38 C 0.42467 0.96092 0.20791 0.0
C39 C 0.49655 0.99153 0.26633 0.0
C40 C 0.49595 0.95177 0.23448 0.0
C41 C 0.46114 0.01534 0.26808 0.0
C42 C 0.45955 0.93571 0.20489 0.0
H43 H 0.52342 0.93339 0.23325 0.0
O44 O 0.3584 0.03959 0.29138 0.0
O45 O 0.36294 0.11198 0.26358 0.0
O46 O 0.42885 0.12665 0.23154 0.0
O47 O 0.4255 0.05102 0.22113 0.0
O48 O 0.40444 0.09095 0.29532 0.0
O49 O 0.3205 0.98653 0.24035 0.0
O50 O 0.32263 0.14435 0.17605 0.0
O51 O 0.34249 0.06566 0.19852 0.0
O52 O 0.29537 0.04382 0.21968 0.0
O53 O 0.29572 0.12004 0.23472 0.0
O54 O 0.37482 0.09205 0.1716 0.0
O55 O 0.38606 0.18566 0.20459 0.0
C56 C 0.38898 0.12572 0.29435 0.0
C57 C 0.45675 0.89513 0.17273 0.0
C58 C 0.41902 0.8793 0.1443 0.0
C59 C 0.33098 1.00241 0.27615 0.0
C60 C 0.33981 0.96962 0.29109 0.0
C61 C 0.37229 0.94242 0.28131 0.0
C62 C 0.31673 0.96665 0.31648 0.0
C63 C 0.32665 0.93722 0.33254 0.0
C64 C 0.38212 0.91312 0.29696 0.0
C65 C 0.35969 0.91064 0.32249 0.0
C66 C 0.44572 0.08857 0.22344 0.0
C67 C 0.35555 0.05528 0.16901 0.0
C68 C 0.35176 0.17514 0.17767 0.0
C69 C 0.33588 0.21286 0.17128 0.0
C70 C 0.33067 0.25288 0.20087 0.0
C71 C 0.32734 0.20949 0.13524 0.0
C72 C 0.31275 0.24551 0.12875 0.0
C73 C 0.31543 0.28821 0.19453 0.0
C74 C 0.30637 0.28459 0.15878 0.0
C75 C 0.2756 0.07996 0.22764 0.0
H76 H 0.39019 0.94394 0.26174 0.0
H77 H 0.29173 0.9878 0.32424 0.0
H78 H 0.40729 0.89228 0.2893 0.0
H79 H 0.36778 0.88737 0.33401 0.0
H80 H 0.33882 0.25718 0.22893 0.0
H81 H 0.33218 0.17901 0.11238 0.0
H82 H 0.31127 0.31885 0.21753 0.0
H83 H 0.29561 0.31301 0.15481 0.0
Gd84 Gd 0.20475 0.30335 0.65473 0.0
Gd85 Gd 0.11253 0.25936 0.57469 0.0
C86 C 0.00578 0.16362 0.57842 0.0
C87 C 0.01475 0.09052 0.53162 0.0
C88 C 0.06163 0.15881 0.54424 0.0
C89 C 0.04088 0.18438 0.57141 0.0
C90 C 0.04722 0.11192 0.52271 0.0
C91 C 0.99419 0.11634 0.5596 0.0
C92 C 0.98175 0.19118 0.60246 0.0
C93 C 0.99133 0.23815 0.61706 0.0
N94 N 0.05171 0.23008 0.58789 0.0
C95 C 0.02611 0.25712 0.60893 0.0
H96 H 0.03284 0.29347 0.62032 0.0
C97 C 0.1054 0.15882 0.50345 0.0
N98 N 0.09227 0.1807 0.53591 0.0
C99 C 0.09237 0.1123 0.48135 0.0
C100 C 0.06379 0.08854 0.49143 0.0
H101 H 0.12741 0.17717 0.49548 0.0
H102 H 0.96781 0.09974 0.56507 0.0
H103 H 0.29136 0.28041 0.616 0.0
H104 H 0.95462 0.17659 0.60863 0.0
H105 H 0.97202 0.25981 0.63469 0.0
H106 H 0.00385 0.05439 0.51586 0.0
H107 H 0.16405 0.37769 0.72284 0.0
H108 H 0.37084 0.40619 0.64885 0.0
H109 H 0.35564 0.32276 0.6129 0.0
H110 H 0.30411 0.51453 0.73752 0.0
H111 H 0.10426 0.09485 0.45652 0.0
H112 H 0.05336 0.05258 0.47407 0.0
H113 H 0.35139 0.47748 0.69537 0.0
H114 H 0.17934 0.45969 0.76628 0.0
N115 N 0.26819 0.33941 0.6509 0.0
C116 C 0.34208 0.38782 0.64982 0.0
C117 C 0.33364 0.34073 0.62952 0.0
C118 C 0.31424 0.41047 0.67229 0.0
C119 C 0.2771 0.38502 0.67242 0.0
C120 C 0.29683 0.31684 0.63103 0.0
N121 N 0.21531 0.38063 0.6965 0.0
C122 C 0.25042 0.4061 0.69633 0.0
C123 C 0.19936 0.44507 0.7466 0.0
C124 C 0.23383 0.4723 0.74545 0.0
C125 C 0.19088 0.39884 0.72219 0.0
C126 C 0.26018 0.45285 0.72046 0.0
H127 H 0.24033 0.50812 0.76444 0.0
O128 O 0.2068 0.30632 0.70881 0.0
O129 O 0.13198 0.28015 0.6355 0.0
O130 O 0.10287 0.32448 0.62021 0.0
O131 O 0.1731 0.36026 0.64824 0.0
O132 O 0.16803 0.24878 0.66181 0.0
O133 O 0.26098 0.28594 0.68197 0.0
O134 O 0.09993 0.25447 0.51906 0.0
O135 O 0.18394 0.28295 0.59489 0.0
O136 O 0.22272 0.24067 0.61203 0.0
O137 O 0.15591 0.20428 0.56999 0.0
O138 O 0.15306 0.30318 0.55816 0.0
O139 O 0.05759 0.28637 0.5555 0.0
C140 C 0.12943 0.25131 0.64781 0.0
C141 C 0.29627 0.47849 0.71938 0.0
C142 C 0.32316 0.45738 0.69532 0.0
C143 C 0.2457 0.29479 0.71157 0.0
C144 C 0.27619 0.31983 0.74789 0.0
C145 C 0.30826 0.35505 0.7544 0.0
C146 C 0.27317 0.30786 0.77647 0.0
C147 C 0.30214 0.33069 0.81148 0.0
C148 C 0.33702 0.37791 0.78894 0.0
C149 C 0.33416 0.36586 0.81723 0.0
C150 C 0.13176 0.3614 0.63636 0.0
C151 C 0.19035 0.30567 0.57791 0.0
C152 C 0.06362 0.271 0.52189 0.0
C153 C 0.02541 0.24466 0.49135 0.0
C154 C 0.99429 0.21679 0.49588 0.0
C155 C 0.01978 0.2471 0.45738 0.0
C156 C 0.98283 0.22249 0.42853 0.0
C157 C 0.95816 0.19195 0.46733 0.0
C158 C 0.95233 0.19481 0.43398 0.0
C159 C 0.19727 0.20454 0.58459 0.0
H160 H 0.31129 0.36468 0.7328 0.0
H161 H 0.24793 0.28101 0.77143 0.0
H162 H 0.36186 0.40493 0.79375 0.0
H163 H 0.3575 0.38372 0.84347 0.0
H164 H 0.99769 0.2143 0.52155 0.0
H165 H 0.0436 0.26863 0.45371 0.0
H166 H 0.93446 0.17046 0.4711 0.0
H167 H 0.92403 0.17492 0.41222 0.0
Gd168 Gd 0.82655 0.00629 0.99776 0.0
Gd169 Gd 0.81996 0.10724 0.98012 0.0
C170 C 0.79329 0.24154 0.06599 0.0
C171 C 0.7202 0.24579 0.03789 0.0
C172 C 0.75614 0.18161 1.00614 0.0
C173 C 0.7922 0.19966 0.03522 0.0
C174 C 0.71986 0.20467 1.00689 0.0
C175 C 0.75685 0.26419 0.06741 0.0
C176 C 0.83133 0.25984 0.09401 0.0
C177 C 0.86743 0.23713 0.09026 0.0
N178 N 0.82689 0.17706 0.03277 0.0
C179 C 0.86481 0.19595 0.05898 0.0
H180 H 0.89304 0.17903 0.05609 0.0
C181 C 0.72313 0.12406 0.94625 0.0
N182 N 0.75683 0.14157 0.97681 0.0
C183 C 0.6864 0.14568 0.94571 0.0
C184 C 0.68456 0.18596 0.97629 0.0
H185 H 0.72406 0.09303 0.92241 0.0
H186 H 0.75697 0.29627 0.09091 0.0
H187 H 0.72677 0.94897 0.93748 0.0
H188 H 0.83347 0.29187 0.11816 0.0
H189 H 0.89732 0.25139 0.11137 0.0
H190 H 0.69254 0.2639 0.03909 0.0
H191 H 0.92749 0.98946 0.02941 0.0
H192 H 0.7515 0.83303 0.84842 0.0
H193 H 0.70081 0.88313 0.87834 0.0
H194 H 0.90194 0.82767 0.88563 0.0
H195 H 0.65952 0.13127 0.92169 0.0
H196 H 0.65607 0.20262 0.97577 0.0
H197 H 0.82639 0.8132 0.85106 0.0
H198 H 0.97891 0.93637 1.00672 0.0
N199 N 0.794 0.93989 0.94229 0.0
C200 C 0.76373 0.86262 0.87477 0.0
C201 C 0.73506 0.89083 0.89156 0.0
C202 C 0.80756 0.87205 0.89269 0.0
C203 C 0.82203 0.91119 0.92699 0.0
C204 C 0.75054 0.92901 0.92554 0.0
N205 N 0.87841 0.95711 0.97927 0.0
C206 C 0.86523 0.92004 0.94595 0.0
C207 C 0.94725 0.9316 0.98916 0.0
C208 C 0.93571 0.89582 0.9536 0.0
C209 C 0.91783 0.96151 1.00191 0.0
C210 C 0.89405 0.88905 0.93182 0.0
H211 H 0.95861 0.87268 0.94373 0.0
O212 O 0.85727 1.00353 0.04855 0.0
O213 O 0.84134 0.08228 0.02253 0.0
O214 O 0.88994 0.10514 1.00208 0.0
O215 O 0.89269 0.03098 0.99327 0.0
O216 O 0.80925 0.05622 0.04974 0.0
O217 O 0.79499 0.96207 0.01545 0.0
O218 O 0.82623 0.10581 0.92776 0.0
O219 O 0.82472 0.03436 0.95823 0.0
O220 O 0.75696 0.01703 0.98437 0.0
O221 O 0.75917 0.09322 0.99715 0.0
O222 O 0.78478 0.05203 0.92336 0.0
O223 O 0.86629 0.15732 0.9787 0.0
C224 C 0.8273 0.09304 0.0516 0.0
C225 C 0.88002 0.85132 0.89712 0.0
C226 C 0.83696 0.84299 0.87751 0.0
C227 C 0.82683 0.97213 0.04423 0.0
C228 C 0.84112 0.93376 0.0505 0.0
C229 C 0.84766 0.8944 0.02101 0.0
C230 C 0.8466 0.93565 0.08599 0.0
C231 C 0.85842 0.89831 0.09186 0.0
C232 C 0.86087 0.85812 0.02688 0.0
C233 C 0.86629 0.85998 0.06195 0.0
C234 C 0.91128 0.07061 0.99796 0.0
C235 C 0.80133 0.01865 0.92615 0.0
C236 C 0.85551 0.14158 0.94289 0.0
C237 C 0.84954 0.17478 0.92805 0.0
C238 C 0.8187 0.20412 0.93771 0.0
C239 C 0.87431 0.17643 0.90326 0.0
C240 C 0.86841 0.20735 0.88807 0.0
C241 C 0.8125 0.23464 0.92278 0.0
C242 C 0.83696 0.23624 0.89815 0.0
C243 C 0.73935 0.05475 0.99351 0.0
H244 H 0.84206 0.89135 0.99332 0.0
H245 H 0.84024 0.96545 0.10858 0.0
H246 H 0.86633 0.82812 1.004 0.0
H247 H 0.87635 0.83113 0.0656 0.0
H248 H 0.79933 0.20329 0.95664 0.0
H249 H 0.89841 0.15394 0.89616 0.0
H250 H 0.78842 0.25702 0.93017 0.0
H251 H 0.83072 0.25978 0.88659 0.0
Gd252 Gd 0.09072 0.83638 0.62794 0.0
Gd253 Gd 0.99284 0.80928 0.55363 0.0
C254 C 0.86453 0.74628 0.5607 0.0
C255 C 0.85755 0.66811 0.5143 0.0
C256 C 0.91904 0.72294 0.52469 0.0
C257 C 0.90392 0.75605 0.55225 0.0
C258 C 0.89558 0.67879 0.50474 0.0
C259 C 0.84204 0.70183 0.54228 0.0
C260 C 0.84812 0.78182 0.58631 0.0
C261 C 0.86978 0.82599 0.60126 0.0
N262 N 0.9261 0.79866 0.56886 0.0
C263 C 0.90847 0.83391 0.59157 0.0
H264 H 0.92458 0.86826 0.6029 0.0
C265 C 0.96879 0.70472 0.4858 0.0
N266 N 0.95576 0.73467 0.51616 0.0
C267 C 0.9468 0.66039 0.46529 0.0
C268 C 0.9104 0.64715 0.47513 0.0
H269 H 0.99687 0.71452 0.47792 0.0
H270 H 0.81196 0.69353 0.54865 0.0
H271 H 0.1027 0.75458 0.65414 0.0
H272 H 0.81802 0.77577 0.59366 0.0
H273 H 0.85669 0.85397 0.6202 0.0
H274 H 0.83927 0.63426 0.49957 0.0
H275 H 0.14444 0.91523 0.61357 0.0
H276 H 0.21954 0.70122 0.62909 0.0
H277 H 0.15402 0.70068 0.654 0.0
H278 H 0.28254 0.79946 0.5867 0.0
H279 H 0.95793 0.6365 0.44189 0.0
H280 H 0.89332 0.61285 0.45911 0.0
H281 H 0.26701 0.73781 0.60321 0.0
H282 H 0.21186 0.92707 0.59474 0.0
N283 N 0.13818 0.7841 0.6285 0.0
C284 C 0.19711 0.72483 0.62905 0.0
C285 C 0.16024 0.72452 0.64325 0.0
C286 C 0.2054 0.75675 0.61625 0.0
C287 C 0.17516 0.78669 0.61683 0.0
C288 C 0.13129 0.75505 0.64331 0.0
N289 N 0.15545 0.85141 0.61172 0.0
C290 C 0.18388 0.82131 0.60777 0.0
C291 C 0.20425 0.89705 0.59814 0.0
C292 C 0.23265 0.86502 0.59191 0.0
C293 C 0.16595 0.89007 0.60872 0.0
C294 C 0.22316 0.82708 0.59758 0.0
H295 H 0.2624 0.87064 0.58393 0.0
O296 O 0.12397 0.90077 0.67297 0.0
O297 O 0.01881 0.83189 0.61356 0.0
O298 O -0.00063 0.88248 0.59657 0.0
O299 O 0.07321 0.89901 0.62321 0.0
O300 O 0.04289 0.80224 0.64634 0.0
O301 O 0.09869 0.84905 0.68568 0.0
O302 O 0.99105 0.81457 0.50228 0.0
O303 O 0.0641 0.83551 0.57365 0.0
O304 O 0.08246 0.7633 0.58526 0.0
O305 O 0.00776 0.74635 0.55942 0.0
O306 O 0.04337 0.78667 0.51984 0.0
O307 O 0.94862 0.84871 0.53732 0.0
C308 C 0.00798 0.81172 0.63137 0.0
C309 C 0.25238 0.79586 0.59484 0.0
C310 C 0.24355 0.76078 0.60425 0.0
C311 C 0.12322 0.88782 0.69862 0.0
C312 C 0.16538 0.89424 0.7243 0.0
C313 C 0.20432 0.8956 0.71269 0.0
C314 C 0.16714 0.89847 0.76031 0.0
C315 C 0.20757 0.9041 0.78444 0.0
C316 C 0.24414 0.90164 0.73638 0.0
C317 C 0.24588 0.90608 0.77189 0.0
C318 C 0.03552 0.91174 0.61462 0.0
C319 C 0.07676 0.81326 0.5443 0.0
C320 C 0.9592 0.8381 0.50584 0.0
C321 C 0.92305 0.82282 0.47307 0.0
C322 C 0.88785 0.79108 0.46744 0.0
C323 C 0.92336 0.84038 0.44737 0.0
C324 C 0.88827 0.82684 0.41646 0.0
C325 C 0.85322 0.77733 0.43682 0.0
C326 C 0.85328 0.79509 0.41157 0.0
C327 C 0.04606 0.73432 0.5673 0.0
H328 H 0.20414 0.89228 0.68531 0.0
H329 H 0.13717 0.89675 0.7692 0.0
H330 H 0.27393 0.90308 0.72721 0.0
H331 H 0.27754 0.91166 0.78974 0.0
H332 H 0.88704 0.77713 0.48682 0.0
H333 H 0.95048 0.86505 0.45178 0.0
H334 H 0.82618 0.7528 0.43264 0.0
H335 H 0.82612 0.78348 0.38786 0.0
C336 C 0.98267 0.04374 0.99962 0.0
C337 C 0.95872 0.07992 1.00948 0.0
C338 C 0.02266 0.04787 0.02232 0.0
C339 C 0.05966 0.1045 0.1206 0.0
H340 H 0.15881 0.04114 0.10253 0.0
C341 C 0.20579 0.11034 0.22865 0.0
C342 C 0.22806 0.07291 0.21706 0.0
C343 C 0.16664 0.10937 0.20629 0.0
C344 C 0.13071 0.05822 0.10775 0.0
H345 H 0.96151 0.15168 0.04489 0.0
H346 H 0.03168 0.15907 0.08423 0.0
H347 H 0.11381 0.05129 0.0526 0.0
H348 H 0.22217 1.00151 0.17915 0.0
H349 H 0.15332 0.99943 0.14076 0.0
H350 H 0.07647 0.11117 0.17573 0.0
C351 C 0.01885 0.12702 0.0601 0.0
C352 C 0.10555 0.06464 0.07939 0.0
C353 C 0.97881 0.12278 0.03744 0.0
C354 C 0.20643 0.03148 0.1879 0.0
C355 C 0.16714 0.03031 0.16575 0.0
C356 C 0.08487 0.0981 0.14899 0.0
C357 C 0.03895 0.08853 0.05455 0.0
C358 C 0.0697 0.08759 0.08553 0.0
C359 C 0.14939 0.07043 0.1729 0.0
C360 C 0.12025 0.07445 0.14262 0.0
H361 H 0.96843 0.01098 0.97689 0.0
H362 H 0.03796 0.01782 0.01701 0.0
H363 H 0.03139 0.12129 0.12575 0.0
H364 H 0.221 0.14187 0.25244 0.0
H365 H 0.15294 0.14053 0.2129 0.0
C366 C 0.07387 0.98826 0.63753 0.0
C367 C 0.03854 0.95522 0.61321 0.0
C368 C 0.09856 0.01089 0.62399 0.0
C369 C 0.11037 0.02092 0.5393 0.0
H370 H 0.23022 0.01361 0.57591 0.0
C371 C 0.206 0.13474 0.53057 0.0
C372 C 0.21644 0.16306 0.56878 0.0
C373 C 0.2095 0.08879 0.51756 0.0
C374 C 0.19687 0.01504 0.56482 0.0
H375 H 0.99297 0.93065 0.56024 0.0
H376 H 0.03591 0.96933 0.53633 0.0
H377 H 0.17303 0.99125 0.59975 0.0
H378 H 0.25063 0.16997 0.62194 0.0
H379 H 0.25458 0.09024 0.59981 0.0
H380 H 0.13356 0.04546 0.5051 0.0
C381 C 0.04629 0.97653 0.56511 0.0
C382 C 0.16421 1.00341 0.57921 0.0
C383 C 0.02127 0.95453 0.579 0.0
C384 C 0.23985 0.14786 0.59252 0.0
C385 C 0.24259 0.10185 0.57943 0.0
C386 C 0.14303 0.03267 0.52505 0.0
C387 C 0.08744 1.00085 0.58635 0.0
C388 C 0.12104 0.00929 0.56839 0.0
C389 C 0.21922 0.07138 0.54338 0.0
C390 C 0.18719 0.03477 0.54069 0.0
H391 H 0.0868 0.9906 0.66468 0.0
H392 H 0.12888 0.03195 0.64173 0.0
H393 H 0.07724 0.02388 0.52915 0.0
H394 H 0.19164 0.14706 0.5113 0.0
H395 H 0.19549 0.06627 0.48865 0.0
C396 C 0.67924 0.01673 1.00708 0.0
C397 C 0.69966 0.05613 1.00794 0.0
C398 C 0.64982 0.01966 0.02923 0.0
C399 C 0.6302 0.1002 0.11749 0.0
H400 H 0.52751 0.01366 0.09189 0.0
C401 C 0.50706 0.12419 0.20932 0.0
C402 C 0.48538 0.08554 0.20872 0.0
C403 C 0.53687 0.11998 0.1873 0.0
C404 C 0.55657 0.03762 0.09961 0.0
H405 H 0.70166 0.12902 0.02996 0.0
H406 H 0.64981 0.13387 0.06804 0.0
H407 H 0.56643 0.00806 0.04437 0.0
H408 H 0.48127 0.0125 0.18697 0.0
H409 H 0.53387 0.00537 0.14912 0.0
H410 H 0.6204 0.12977 0.17271 0.0
C411 C 0.65749 0.10089 0.05092 0.0
C412 C 0.5786 0.03461 0.07232 0.0
C413 C 0.68685 0.09798 0.02872 0.0
C414 C 0.49714 0.04302 0.18813 0.0
C415 C 0.52694 0.03881 0.16603 0.0
C416 C 0.60822 0.10318 0.14478 0.0
C417 C 0.64018 0.06201 0.0526 0.0
C418 C 0.61551 0.06602 0.08095 0.0
C419 C 0.54571 0.07705 0.16425 0.0
C420 C 0.57108 0.07202 0.13611 0.0
H421 H 0.68808 0.98386 0.99124 0.0
H422 H 0.63694 0.98907 0.02987 0.0
H423 H 0.65918 0.12425 0.12518 0.0
H424 H 0.49903 0.15753 0.22488 0.0
H425 H 0.55074 0.15011 0.18652 0.0
C426 C 0.1508 0.43674 0.63877 0.0
C427 C 0.1189 0.40282 0.63499 0.0
C428 C 0.13893 0.47079 0.62915 0.0
C429 C 0.05106 0.53125 0.61337 0.0
H430 H 0.10984 0.54125 0.5415 0.0
C431 C 0.01101 0.65999 0.55867 0.0
C432 C 0.04781 0.68699 0.5602 0.0
C433 C 0.01513 0.61936 0.5608 0.0
C434 C 0.09329 0.53907 0.56168 0.0
H435 H 0.04952 0.38002 0.62126 0.0
H436 H 0.02885 0.44042 0.60528 0.0
H437 H 0.12772 0.48652 0.56497 0.0
H438 H 0.11642 0.69026 0.56032 0.0
H439 H 0.12412 0.62065 0.56555 0.0
H440 H 0.01795 0.58501 0.61148 0.0
C441 C 0.06294 0.44009 0.61512 0.0
C442 C 0.10359 0.50784 0.57513 0.0
C443 C 0.0748 0.40564 0.62429 0.0
C444 C 0.08776 0.67058 0.56006 0.0
C445 C 0.09201 0.63032 0.56262 0.0
C446 C 0.04116 0.56298 0.60032 0.0
C447 C 0.09502 0.47185 0.61616 0.0
C448 C 0.08302 0.50417 0.60145 0.0
C449 C 0.05611 0.60524 0.56462 0.0
C450 C 0.06262 0.56769 0.57471 0.0
H451 H 0.18506 0.43552 0.64692 0.0
H452 H 0.16415 0.49547 0.63069 0.0
H453 H 0.03481 0.5289 0.63366 0.0
H454 H 0.97963 0.67158 0.55832 0.0
H455 H 0.98662 0.60012 0.56123 0.0
C456 C 0.24585 0.26575 0.54585 0.0
C457 C 0.229 0.30618 0.56267 0.0
C458 C 0.27776 0.26315 0.52611 0.0
C459 C 0.35477 0.26806 0.49395 0.0
H460 H 0.31411 0.29382 0.41105 0.0
C461 C 0.41686 0.18433 0.36006 0.0
C462 C 0.38272 0.1633 0.32847 0.0
C463 C 0.40934 0.21678 0.39342 0.0
C464 C 0.32628 0.28692 0.43425 0.0
H465 H 0.23096 0.37537 0.57067 0.0
H466 H 0.28659 0.37057 0.53467 0.0
H467 H 0.28194 0.32463 0.46495 0.0
H468 H 0.31377 0.15836 0.30725 0.0
H469 H 0.30066 0.21456 0.36477 0.0
H470 H 0.39647 0.22727 0.46213 0.0
C471 C 0.27607 0.34137 0.53828 0.0
C472 C 0.3082 0.30502 0.46531 0.0
C473 C 0.24444 0.34416 0.55887 0.0
C474 C 0.34104 0.17508 0.33077 0.0
C475 C 0.33357 0.20751 0.36384 0.0
C476 C 0.37283 0.24997 0.46294 0.0
C477 C 0.29267 0.30053 0.52137 0.0
C478 C 0.32063 0.29372 0.49458 0.0
C479 C 0.36742 0.22832 0.39577 0.0
C480 C 0.35711 0.25721 0.43192 0.0
H481 H 0.23293 0.2352 0.54614 0.0
H482 H 0.28862 0.23075 0.51242 0.0
H483 H 0.36532 0.25924 0.51633 0.0
H484 H 0.44913 0.17519 0.35904 0.0
H485 H 0.43608 0.2321 0.41756 0.0
C486 C 0.07797 0.28076 0.6893 0.0
C487 C 0.09453 0.24387 0.66498 0.0
C488 C 0.05039 0.27455 0.71041 0.0
C489 C 0.02173 0.19526 0.74807 0.0
H490 H 0.92912 0.26695 0.77339 0.0
C491 C 0.90506 0.17018 0.83466 0.0
C492 C 0.89449 0.20965 0.86173 0.0
C493 C 0.92804 0.17258 0.8092 0.0
C494 C 0.9551 0.2469 0.76684 0.0
H495 H 0.09603 0.1719 0.64396 0.0
H496 H 0.04677 0.16052 0.67978 0.0
H497 H 0.96971 0.2737 0.73044 0.0
H498 H 0.90158 0.28284 0.88373 0.0
H499 H 0.94104 0.28686 0.83936 0.0
H500 H 0.007 0.16847 0.7845 0.0
C501 C 0.05516 0.19437 0.68293 0.0
C502 C 0.97845 0.25079 0.74217 0.0
C503 C 0.08296 0.20069 0.66205 0.0
C504 C 0.90816 0.25157 0.86287 0.0
C505 C 0.93087 0.25392 0.83735 0.0
C506 C 0.99821 0.1912 0.77259 0.0
C507 C 0.03906 0.23134 0.70795 0.0
C508 C 0.01243 0.22537 0.73267 0.0
C509 C 0.94093 0.21448 0.81 0.0
C510 C 0.96486 0.21731 0.78263 0.0
H511 H 0.08754 0.31463 0.69289 0.0
H512 H 0.0394 0.30401 0.72975 0.0
H513 H 0.04807 0.17564 0.74203 0.0
H514 H 0.8947 0.13723 0.83253 0.0
H515 H 0.93489 0.14145 0.78835 0.0
C516 C 0.92424 0.84721 0.37442 0.0
C517 C 0.88768 0.84506 0.38894 0.0
C518 C 0.92181 0.85976 0.34565 0.0
C519 C 0.83987 0.86227 0.2699 0.0
H520 H 0.93645 0.92698 0.25721 0.0
C521 C 0.84397 0.85838 0.12947 0.0
C522 C 0.86085 0.89783 0.12832 0.0
C523 C 0.84716 0.85653 0.16312 0.0
C524 C 0.90899 0.9093 0.26053 0.0
H525 H 0.82091 0.85752 0.38643 0.0
H526 H 0.81684 0.88006 0.33697 0.0
H527 H 0.94296 0.9175 0.31368 0.0
H528 H 0.89403 0.9666 0.16204 0.0
H529 H 0.89919 0.96357 0.22122 0.0
H530 H 0.80573 0.85429 0.21711 0.0
C531 C 0.84704 0.87071 0.34684 0.0
C532 C 0.9129 0.90339 0.29273 0.0
C533 C 0.84939 0.85791 0.37533 0.0
C534 C 0.88052 0.93576 0.16194 0.0
C535 C 0.88386 0.93385 0.1958 0.0
C536 C 0.83598 0.86817 0.23786 0.0
C537 C 0.88283 0.87073 0.33091 0.0
C538 C 0.87848 0.87941 0.2977 0.0
C539 C 0.86719 0.89413 0.19678 0.0
C540 C 0.87065 0.89117 0.23242 0.0
H541 H 0.95415 0.83731 0.38418 0.0
H542 H 0.94997 0.85902 0.33396 0.0
H543 H 0.8128 0.84313 0.27235 0.0
H544 H 0.82805 0.82871 0.10423 0.0
H545 H 0.83444 0.82517 0.16263 0.0
C546 C 0.18459 0.93403 0.84577 0.0
C547 C 0.21101 0.9085 0.82276 0.0
C548 C 0.19177 0.94209 0.883 0.0
C549 C 0.25522 0.90716 0.95161 0.0
H550 H 0.24329 0.02692 0.02322 0.0
C551 C 0.35202 0.99725 0.10464 0.0
C552 C 0.33022 0.02284 0.13182 0.0
C553 C 0.33044 0.97558 0.06719 0.0
C554 C 0.24623 0.99306 1.00358 0.0
H555 H 0.26377 0.86878 0.82065 0.0
H556 H 0.27754 0.88441 0.88502 0.0
H557 H 0.21841 1.00449 0.95738 0.0
H558 H 0.26873 0.04562 0.14141 0.0
H559 H 0.23105 0.00822 0.07587 0.0
H560 H 0.28548 0.89711 0.99822 0.0
C561 C 0.2508 0.89794 0.87468 0.0
C562 C 0.23176 0.98002 0.96563 0.0
C563 C 0.24333 0.88953 0.83758 0.0
C564 C 0.28597 0.02512 0.12105 0.0
C565 C 0.26459 1.0042 0.08352 0.0
C566 C 0.27036 0.92055 0.98954 0.0
C567 C 0.22569 0.92499 0.89831 0.0
C568 C 0.23674 0.93712 0.93892 0.0
C569 C 0.28693 0.9802 0.05606 0.0
C570 C 0.26663 0.9639 0.01598 0.0
H571 H 0.15938 0.94922 0.83547 0.0
H572 H 0.17102 0.96231 0.89986 0.0
H573 H 0.25866 0.8734 0.93225 0.0
H574 H 0.38636 0.99585 0.11225 0.0
H575 H 0.34866 0.95766 0.04673 0.0
C576 C 0.85681 0.97474 0.89706 0.0
C577 C 0.81375 0.98347 0.89391 0.0
C578 C 0.87125 0.94692 0.86604 0.0
C579 C 0.84109 0.86888 0.76576 0.0
H580 H 0.95232 0.92793 0.76937 0.0
C581 C 0.95146 0.79333 0.6601 0.0
C582 C 0.9739 0.82456 0.65224 0.0
C583 C 0.92485 0.80804 0.68557 0.0
C584 C 0.92104 0.91114 0.76763 0.0
H585 H 0.7519 0.97007 0.85574 0.0
H586 H 0.77793 0.9226 0.80044 0.0
H587 H 0.91936 0.95988 0.82181 0.0
H588 H 0.98644 0.89524 0.66446 0.0
H589 H 0.93895 0.92052 0.7073 0.0
H590 H 0.843 0.82052 0.71063 0.0
C591 C 0.7999 0.93589 0.82741 0.0
C592 C 0.90242 0.92909 0.79802 0.0
C593 C 0.78511 0.96323 0.8589 0.0
C594 C 0.96865 0.8703 0.66935 0.0
C595 C 0.94182 0.88482 0.69421 0.0
C596 C 0.85992 0.85073 0.73499 0.0
C597 C 0.84361 0.92881 0.83066 0.0
C598 C 0.8624 0.90818 0.79765 0.0
C599 C 0.92096 0.85426 0.70373 0.0
C600 C 0.89998 0.87204 0.73563 0.0
H601 H 0.88006 0.99066 0.92335 0.0
H602 H 0.90489 0.94144 0.86959 0.0
H603 H 0.81021 0.85207 0.76476 0.0
H604 H 0.95586 0.75802 0.64767 0.0
H605 H 0.90944 0.78382 0.69261 0.0
C606 C 0.32556 0.93346 0.39219 0.0
C607 C 0.30276 0.93348 0.35948 0.0
C608 C 0.30333 0.92606 0.41611 0.0
C609 C 0.19309 0.91952 0.43671 0.0
H610 H 0.24334 0.84796 0.48339 0.0
C611 C 0.10705 0.87506 0.53227 0.0
C612 C 0.10947 0.83242 0.53138 0.0
C613 C 0.13267 0.8906 0.51443 0.0
C614 C 0.22845 0.86755 0.47031 0.0
H615 H 0.23864 0.92663 0.32664 0.0
H616 H 0.19966 0.91247 0.36768 0.0
H617 H 0.28237 0.86878 0.44591 0.0
H618 H 0.13959 0.77199 0.5105 0.0
H619 H 0.18506 0.79911 0.47967 0.0
H620 H 0.13808 0.91615 0.45929 0.0
C621 C 0.23481 0.91918 0.37548 0.0
C622 C 0.25133 0.88027 0.4492 0.0
C623 C 0.25713 0.92718 0.35178 0.0
C624 C 0.13812 0.80557 0.51242 0.0
C625 C 0.16418 0.82131 0.49483 0.0
C626 C 0.16995 0.90629 0.45741 0.0
C627 C 0.25758 0.91784 0.40778 0.0
C628 C 0.23389 0.90617 0.4318 0.0
C629 C 0.16149 0.86396 0.49518 0.0
C630 C 0.18708 0.87973 0.47432 0.0
H631 H 0.36077 0.9389 0.3992 0.0
H632 H 0.32218 0.92655 0.44108 0.0
H633 H 0.17875 0.94011 0.42441 0.0
H634 H 0.08423 0.89571 0.54579 0.0
H635 H 0.12923 0.92324 0.5152 0.0
C636 C 0.30689 0.35157 0.87885 0.0
C637 C 0.29927 0.31803 0.84192 0.0
C638 C 0.30543 0.33993 0.9076 0.0
C639 C 0.31129 0.24357 0.93143 0.0
H640 H 0.26683 0.32321 1.01474 0.0
C641 C 0.33786 0.23151 0.07055 0.0
C642 C 0.30594 0.24394 0.09136 0.0
C643 C 0.33404 0.23598 0.03776 0.0
C644 C 0.27885 0.30011 0.99155 0.0
H645 H 0.28399 0.24559 0.80657 0.0
H646 H 0.2802 0.22538 0.85659 0.0
H647 H 0.26468 0.33976 0.96246 0.0
H648 H 0.24361 0.26789 0.0928 0.0
H649 H 0.23625 0.2745 0.0353 0.0
H650 H 0.3246 0.2034 0.96034 0.0
C651 C 0.28801 0.26078 0.86337 0.0
C652 C 0.27823 0.31007 0.96168 0.0
C653 C 0.28963 0.27244 0.83456 0.0
C654 C 0.26908 0.2587 0.07767 0.0
C655 C 0.26504 0.26276 0.04478 0.0
C656 C 0.31173 0.23346 0.96131 0.0
C657 C 0.296 0.29437 0.90034 0.0
C658 C 0.29487 0.28226 0.93134 0.0
C659 C 0.29799 0.25263 0.02482 0.0
C660 C 0.2958 0.2618 0.99196 0.0
H661 H 0.31385 0.38707 0.88565 0.0
H662 H 0.31235 0.36679 0.93566 0.0
H663 H 0.32472 0.22151 0.90876 0.0
H664 H 0.36682 0.2204 0.08054 0.0
H665 H 0.3603 0.2282 0.02346 0.0
C666 C 0.89603 0.13138 0.09968 0.0
C667 C 0.85068 0.12751 0.08874 0.0
C668 C 0.91713 0.15372 0.13723 0.0
C669 C 0.90071 0.22506 0.23248 0.0
H670 H 0.98199 0.1558 0.26058 0.0
C671 C 0.93362 0.22942 0.37655 0.0
C672 C 0.97522 0.22499 0.39259 0.0
C673 C 0.92446 0.22661 0.34099 0.0
C674 C 0.96004 0.17616 0.25335 0.0
H675 H 0.79199 0.14473 0.10811 0.0
H676 H 0.82845 0.1838 0.17358 0.0
H677 H 0.9554 0.13609 0.19544 0.0
H678 H 0.04034 0.21578 0.38423 0.0
H679 H 0.0244 0.21096 0.32187 0.0
H680 H 0.90426 0.26409 0.29046 0.0
C681 C 0.84812 0.17057 0.15337 0.0
C682 C 0.94475 0.16488 0.21584 0.0
C683 C 0.8271 0.14824 0.11584 0.0
C684 C 0.00801 0.21947 0.3727 0.0
C685 C -0.00126 0.2163 0.33685 0.0
C686 C 0.91594 0.23628 0.26999 0.0
C687 C 0.89323 0.17217 0.16471 0.0
C688 C 0.91405 0.18847 0.2048 0.0
C689 C 0.95661 0.21911 0.3203 0.0
C690 C 0.945 0.21127 0.28089 0.0
H691 H 0.91482 0.11453 0.07946 0.0
H692 H 0.95193 0.15473 0.14479 0.0
H693 H 0.87774 0.24455 0.22515 0.0
H694 H 0.90773 0.23411 0.39126 0.0
H695 H 0.89157 0.22848 0.32916 0.0
loop_
_geom_bond_atom_site_label_1
_geom_bond_atom_site_label_2
_geom_bond_distance
_geom_bond_site_symmetry_2
_ccdc_geom_bond_type
Gd0 N31 2.661 . S
Gd0 N37 2.601 . S
Gd0 O44 2.545 . S
Gd0 O45 2.606 1_565 S
Gd0 O47 2.429 . S
Gd0 O48 2.545 1_565 S
Gd0 O49 2.412 . S
Gd0 O51 2.362 . S
Gd0 O52 2.324 . S
Gd0 C59 2.828 . S
Gd1 N10 2.661 . S
Gd1 N14 2.601 . S
Gd1 O45 2.362 . S
Gd1 O46 2.324 . S
Gd1 O50 2.545 . S
Gd1 O51 2.606 1_545 S
Gd1 O53 2.429 . S
Gd1 O54 2.545 . S
Gd1 O55 2.412 . S
Gd1 C68 2.828 . S
C2 C5 1.417 . S
C2 C7 1.431 . S
C2 C8 1.412 . S
C3 C6 1.437 . S
C3 C7 1.317 . S
C3 H22 0.929 . S
C4 C5 1.426 . S
C4 C6 1.413 . S
C4 N14 1.359 . S
C5 C2 1.417 . S
C5 C4 1.426 . S
C5 N10 1.350 . S
C6 C3 1.437 . S
C6 C4 1.413 . S
C6 C16 1.391 . S
C7 C2 1.431 . S
C7 C3 1.317 . S
C7 H18 0.930 . S
C8 C2 1.412 . S
C8 C9 1.355 . S
C8 H20 0.930 . S
C9 C8 1.355 . S
C9 C11 1.402 . S
C9 H21 0.930 . S
N10 Gd1 2.661 . S
N10 C5 1.350 . S
N10 C11 1.307 . S
C11 C9 1.402 . S
C11 N10 1.307 . S
C11 H12 0.930 . S
H12 C11 0.930 . S
C13 N14 1.334 . S
C13 C15 1.394 . S
C13 H17 0.930 . S
N14 Gd1 2.601 . S
N14 C4 1.359 . S
N14 C13 1.334 . S
C15 C13 1.394 . S
C15 C16 1.359 . S
C15 H27 0.930 . S
C16 C6 1.391 . S
C16 C15 1.359 . S
C16 H28 0.929 . S
H17 C13 0.930 . S
H18 C7 0.930 . S
H19 C36 0.930 . S
H20 C8 0.930 . S
H21 C9 0.930 . S
H22 C3 0.929 . S
H23 C41 0.930 . S
H24 C32 0.930 . S
H25 C33 0.930 . S
H26 C57 0.929 . S
H27 C15 0.930 . S
H28 C16 0.929 . S
H29 C58 0.914 1_556 S
H30 C39 0.930 . S
N31 Gd0 2.661 . S
N31 C35 1.350 . S
N31 C36 1.307 . S
C32 H24 0.930 . S
C32 C33 1.355 . S
C32 C34 1.412 . S
C33 H25 0.930 . S
C33 C32 1.355 . S
C33 C36 1.402 . S
C34 C32 1.412 . S
C34 C35 1.417 . S
C34 C58 1.431 . S
C35 N31 1.350 . S
C35 C34 1.417 . S
C35 C38 1.426 . S
C36 H19 0.930 . S
C36 N31 1.307 . S
C36 C33 1.402 . S
N37 Gd0 2.601 . S
N37 C38 1.359 . S
N37 C41 1.334 . S
C38 C35 1.426 . S
C38 N37 1.359 . S
C38 C42 1.413 . S
C39 H30 0.930 . S
C39 C40 1.359 . S
C39 C41 1.394 . S
C40 C39 1.359 . S
C40 C42 1.391 . S
C40 H43 0.929 . S
C41 H23 0.930 . S
C41 N37 1.334 . S
C41 C39 1.394 . S
C42 C38 1.413 . S
C42 C40 1.391 . S
C42 C57 1.437 . S
H43 C40 0.929 . S
O44 Gd0 2.545 . S
O44 C59 1.258 . S
O45 Gd0 2.606 1_545 S
O45 Gd1 2.362 . S
O45 C56 1.284 . S
O46 Gd1 2.324 . S
O46 C66 1.254 . S
O47 Gd0 2.429 . S
O47 C66 1.268 1_565 S
O48 Gd0 2.545 1_545 S
O48 C56 1.250 . S
O49 Gd0 2.412 . S
O49 C59 1.252 . S
O50 Gd1 2.545 . S
O50 C68 1.258 . S
O51 Gd0 2.362 . S
O51 Gd1 2.606 1_565 S
O51 C67 1.284 . S
O52 Gd0 2.324 . S
O52 C75 1.254 1_565 S
O53 Gd1 2.429 . S
O53 C75 1.268 . S
O54 Gd1 2.545 . S
O54 C67 1.250 1_545 S
O55 Gd1 2.412 . S
O55 C68 1.252 . S
C56 O45 1.284 . S
C56 O48 1.250 . S
C57 H26 0.929 . S
C57 C42 1.437 . S
C57 C58 1.317 . S
C58 H29 0.914 1_554 S
C58 C34 1.431 . S
C58 C57 1.317 . S
C59 Gd0 2.828 . S
C59 O44 1.258 . S
C59 O49 1.252 . S
C59 C60 1.497 . S
C60 C59 1.497 . S
C60 C61 1.395 . S
C60 C62 1.380 . S
C61 C60 1.395 . S
C61 C64 1.398 . S
C61 H76 0.930 . S
C62 C60 1.380 . S
C62 C63 1.391 . S
C62 H77 0.930 . S
C63 C62 1.391 . S
C63 C65 1.387 . S
C64 C61 1.398 . S
C64 C65 1.380 . S
C64 H78 0.930 . S
C65 C63 1.387 . S
C65 C64 1.380 . S
C65 H79 0.930 . S
C66 O46 1.254 . S
C66 O47 1.268 1_545 S
C67 O51 1.284 . S
C67 O54 1.250 1_565 S
C68 Gd1 2.828 . S
C68 O50 1.258 . S
C68 O55 1.252 . S
C68 C69 1.497 . S
C69 C68 1.497 . S
C69 C70 1.395 . S
C69 C71 1.380 . S
C70 C69 1.395 . S
C70 C73 1.398 . S
C70 H80 0.930 . S
C71 C69 1.380 . S
C71 C72 1.391 . S
C71 H81 0.930 . S
C72 C71 1.391 . S
C72 C74 1.387 . S
C73 C70 1.398 . S
C73 C74 1.380 . S
C73 H82 0.930 . S
C74 C72 1.387 . S
C74 C73 1.380 . S
C74 H83 0.930 . S
C75 O52 1.254 1_545 S
C75 O53 1.268 . S
H76 C61 0.930 . S
H77 C62 0.930 . S
H78 C64 0.930 . S
H79 C65 0.930 . S
H80 C70 0.930 . S
H81 C71 0.930 . S
H82 C73 0.930 . S
H83 C74 0.930 . S
Gd84 N115 2.661 . S
Gd84 N121 2.601 . S
Gd84 O128 2.545 . S
Gd84 O129 2.606 . S
Gd84 O131 2.429 . S
Gd84 O132 2.545 . S
Gd84 O133 2.412 . S
Gd84 O135 2.362 . S
Gd84 O136 2.324 . S
Gd84 C143 2.828 . S
Gd85 N94 2.661 . S
Gd85 N98 2.601 . S
Gd85 O129 2.362 . S
Gd85 O130 2.324 . S
Gd85 O134 2.545 . S
Gd85 O135 2.606 . S
Gd85 O137 2.429 . S
Gd85 O138 2.545 . S
Gd85 O139 2.412 . S
Gd85 C152 2.828 . S
C86 C89 1.417 1_655 S
C86 C91 1.431 . S
C86 C92 1.412 . S
C87 C90 1.437 . S
C87 C91 1.317 . S
C87 H106 0.929 . S
C88 C89 1.426 . S
C88 C90 1.413 1_455 S
C88 N98 1.359 . S
C89 C86 1.417 1_455 S
C89 C88 1.426 . S
C89 N94 1.350 . S
C90 C87 1.437 . S
C90 C88 1.413 1_655 S
C90 C100 1.391 . S
C91 C86 1.431 . S
C91 C87 1.317 . S
C91 H102 0.930 . S
C92 C86 1.412 . S
C92 C93 1.355 1_655 S
C92 H104 0.930 . S
C93 C92 1.355 1_455 S
C93 C95 1.402 . S
C93 H105 0.930 . S
N94 Gd85 2.661 . S
N94 C89 1.350 . S
N94 C95 1.307 . S
C95 C93 1.402 . S
C95 N94 1.307 . S
C95 H96 0.930 . S
H96 C95 0.930 . S
C97 N98 1.334 . S
C97 C99 1.394 . S
C97 H101 0.930 . S
N98 Gd85 2.601 . S
N98 C88 1.359 . S
N98 C97 1.334 . S
C99 C97 1.394 . S
C99 C100 1.359 1_455 S
C99 H111 0.930 . S
C100 C90 1.391 . S
C100 C99 1.359 1_655 S
C100 H112 0.929 . S
H101 C97 0.930 . S
H102 C91 0.930 . S
H103 C120 0.930 . S
H104 C92 0.930 . S
H105 C93 0.930 . S
H106 C87 0.929 . S
H107 C125 0.930 . S
H108 C116 0.930 . S
H109 C117 0.930 . S
H110 C141 0.929 . S
H111 C99 0.930 . S
H112 C100 0.929 . S
H113 C142 0.930 . S
H114 C123 0.930 . S
N115 Gd84 2.661 . S
N115 C119 1.350 . S
N115 C120 1.307 . S
C116 H108 0.930 . S
C116 C117 1.355 . S
C116 C118 1.412 . S
C117 H109 0.930 . S
C117 C116 1.355 . S
C117 C120 1.402 . S
C118 C116 1.412 . S
C118 C119 1.417 . S
C118 C142 1.431 . S
C119 N115 1.350 . S
C119 C118 1.417 . S
C119 C122 1.426 . S
C120 H103 0.930 . S
C120 N115 1.307 . S
C120 C117 1.402 . S
N121 Gd84 2.601 . S
N121 C122 1.359 . S
N121 C125 1.334 . S
C122 C119 1.426 . S
C122 N121 1.359 . S
C122 C126 1.413 . S
C123 H114 0.930 . S
C123 C124 1.359 . S
C123 C125 1.394 . S
C124 C123 1.359 . S
C124 C126 1.391 . S
C124 H127 0.929 . S
C125 H107 0.930 . S
C125 N121 1.334 . S
C125 C123 1.394 . S
C126 C122 1.413 . S
C126 C124 1.391 . S
C126 C141 1.437 . S
H127 C124 0.929 . S
O128 Gd84 2.545 . S
O128 C143 1.258 . S
O129 Gd84 2.606 . S
O129 Gd85 2.362 . S
O129 C140 1.284 . S
O130 Gd85 2.324 . S
O130 C150 1.254 . S
O131 Gd84 2.429 . S
O131 C150 1.268 . S
O132 Gd84 2.545 . S
O132 C140 1.250 . S
O133 Gd84 2.412 . S
O133 C143 1.252 . S
O134 Gd85 2.545 . S
O134 C152 1.258 . S
O135 Gd84 2.362 . S
O135 Gd85 2.606 . S
O135 C151 1.284 . S
O136 Gd84 2.324 . S
O136 C159 1.254 . S
O137 Gd85 2.429 . S
O137 C159 1.268 . S
O138 Gd85 2.545 . S
O138 C151 1.250 . S
O139 Gd85 2.412 . S
O139 C152 1.252 . S
C140 O129 1.284 . S
C140 O132 1.250 . S
C141 H110 0.929 . S
C141 C126 1.437 . S
C141 C142 1.317 . S
C142 H113 0.930 . S
C142 C118 1.431 . S
C142 C141 1.317 . S
C143 Gd84 2.828 . S
C143 O128 1.258 . S
C143 O133 1.252 . S
C143 C144 1.497 . S
C144 C143 1.497 . S
C144 C145 1.395 . S
C144 C146 1.380 . S
C145 C144 1.395 . S
C145 C148 1.398 . S
C145 H160 0.930 . S
C146 C144 1.380 . S
C146 C147 1.391 . S
C146 H161 0.930 . S
C147 C146 1.391 . S
C147 C149 1.387 . S
C148 C145 1.398 . S
C148 C149 1.380 . S
C148 H162 0.930 . S
C149 C147 1.387 . S
C149 C148 1.380 . S
C149 H163 0.930 . S
C150 O130 1.254 . S
C150 O131 1.268 . S
C151 O135 1.284 . S
C151 O138 1.250 . S
C152 Gd85 2.828 . S
C152 O134 1.258 . S
C152 O139 1.252 . S
C152 C153 1.497 . S
C153 C152 1.497 . S
C153 C154 1.395 . S
C153 C155 1.380 . S
C154 C153 1.395 . S
C154 C157 1.398 1_455 S
C154 H164 0.930 . S
C155 C153 1.380 . S
C155 C156 1.391 . S
C155 H165 0.930 . S
C156 C155 1.391 . S
C156 C158 1.387 . S
C157 C154 1.398 1_655 S
C157 C158 1.380 1_655 S
C157 H166 0.930 . S
C158 C156 1.387 . S
C158 C157 1.380 1_455 S
C158 H167 0.930 1_455 S
C159 O136 1.254 . S
C159 O137 1.268 . S
H160 C145 0.930 . S
H161 C146 0.930 . S
H162 C148 0.930 . S
H163 C149 0.930 . S
H164 C154 0.930 . S
H165 C155 0.930 . S
H166 C157 0.930 . S
H167 C158 0.930 1_655 S
Gd168 N199 2.661 1_544 S
Gd168 N205 2.601 1_545 S
Gd168 O212 2.545 . S
Gd168 O213 2.606 . S
Gd168 O215 2.429 . S
Gd168 O216 2.545 . S
Gd168 O217 2.412 . S
Gd168 O219 2.362 . S
Gd168 O220 2.324 . S
Gd168 C227 2.828 1_545 S
Gd169 N178 2.661 . S
Gd169 N182 2.601 . S
Gd169 O213 2.362 . S
Gd169 O214 2.324 . S
Gd169 O218 2.522 1_554 S
Gd169 O219 2.606 . S
Gd169 O221 2.429 . S
Gd169 O222 2.545 1_554 S
Gd169 O223 2.412 . S
Gd169 C236 2.828 1_554 S
C170 C173 1.417 . S
C170 C175 1.431 . S
C170 C176 1.412 . S
C171 C174 1.437 . S
C171 C175 1.317 . S
C171 H190 0.929 . S
C172 C173 1.426 . S
C172 C174 1.413 . S
C172 N182 1.359 . S
C173 C170 1.417 . S
C173 C172 1.426 . S
C173 N178 1.350 . S
C174 C171 1.437 . S
C174 C172 1.413 . S
C174 C184 1.391 . S
C175 C170 1.431 . S
C175 C171 1.317 . S
C175 H186 0.930 . S
C176 C170 1.412 . S
C176 C177 1.355 . S
C176 H188 0.930 . S
C177 C176 1.355 . S
C177 C179 1.402 . S
C177 H189 0.930 1_655 S
N178 Gd169 2.661 . S
N178 C173 1.350 . S
N178 C179 1.307 . S
C179 C177 1.402 . S
C179 N178 1.307 . S
C179 H180 0.930 . S
H180 C179 0.930 . S
C181 N182 1.334 . S
C181 C183 1.394 . S
C181 H185 0.930 . S
N182 Gd169 2.601 . S
N182 C172 1.359 . S
N182 C181 1.334 . S
C183 C181 1.394 . S
C183 C184 1.359 . S
C183 H195 0.930 . S
C184 C174 1.391 . S
C184 C183 1.359 . S
C184 H196 0.929 . S
H185 C181 0.930 . S
H186 C175 0.930 . S
H187 C204 0.930 1_545 S
H188 C176 0.930 . S
H189 C177 0.930 1_455 S
H190 C171 0.929 . S
H191 C209 0.930 . S
H192 C200 0.930 . S
H193 C201 0.930 . S
H194 C225 0.929 . S
H195 C183 0.930 . S
H196 C184 0.929 . S
H197 C226 0.930 . S
H198 C207 0.931 . S
N199 Gd168 2.661 1_566 S
N199 C203 1.350 . S
N199 C204 1.307 . S
C200 H192 0.930 . S
C200 C201 1.355 . S
C200 C202 1.412 . S
C201 H193 0.930 . S
C201 C200 1.355 . S
C201 C204 1.402 . S
C202 C200 1.412 . S
C202 C203 1.417 . S
C202 C226 1.431 . S
C203 N199 1.350 . S
C203 C202 1.417 . S
C203 C206 1.426 . S
C204 H187 0.930 1_565 S
C204 N199 1.307 . S
C204 C201 1.402 . S
N205 Gd168 2.601 1_565 S
N205 C206 1.359 1_554 S
N205 C209 1.334 . S
C206 C203 1.426 . S
C206 N205 1.359 1_556 S
C206 C210 1.413 . S
C207 H198 0.931 . S
C207 C208 1.359 1_554 S
C207 C209 1.394 . S
C208 C207 1.359 1_556 S
C208 C210 1.391 . S
C208 H211 0.929 . S
C209 H191 0.930 . S
C209 N205 1.334 . S
C209 C207 1.394 . S
C210 C206 1.413 . S
C210 C208 1.391 . S
C210 C225 1.437 . S
H211 C208 0.929 . S
O212 Gd168 2.545 . S
O212 C227 1.258 1_545 S
O213 Gd168 2.606 . S
O213 Gd169 2.362 . S
O213 C224 1.284 . S
O214 Gd169 2.324 . S
O214 C234 1.254 . S
O215 Gd168 2.429 . S
O215 C234 1.268 . S
O216 Gd168 2.545 . S
O216 C224 1.250 . S
O217 Gd168 2.412 . S
O217 C227 1.252 1_545 S
O218 Gd169 2.522 1_556 S
O218 C236 1.269 . S
O219 Gd168 2.362 . S
O219 Gd169 2.606 . S
O219 C235 1.284 1_554 S
O220 Gd168 2.324 . S
O220 C243 1.254 . S
O221 Gd169 2.429 . S
O221 C243 1.268 . S
O222 Gd169 2.545 1_556 S
O222 C235 1.250 . S
O223 Gd169 2.412 . S
O223 C236 1.252 1_554 S
C224 O213 1.284 . S
C224 O216 1.250 . S
C225 H194 0.929 . S
C225 C210 1.437 . S
C225 C226 1.317 . S
C226 H197 0.930 . S
C226 C202 1.431 . S
C226 C225 1.317 . S
C227 Gd168 2.828 1_565 S
C227 O212 1.258 1_565 S
C227 O217 1.252 1_565 S
C227 C228 1.497 . S
C228 C227 1.497 . S
C228 C229 1.395 . S
C228 C230 1.380 . S
C229 C228 1.395 . S
C229 C232 1.398 . S
C229 H244 0.930 . S
C230 C228 1.380 . S
C230 C231 1.391 . S
C230 H245 0.930 . S
C231 C230 1.391 . S
C231 C233 1.387 . S
C232 C229 1.398 . S
C232 C233 1.380 . S
C232 H246 0.930 . S
C233 C231 1.387 . S
C233 C232 1.380 . S
C233 H247 0.930 . S
C234 O214 1.254 . S
C234 O215 1.268 . S
C235 O219 1.284 1_556 S
C235 O222 1.250 . S
C236 Gd169 2.828 1_556 S
C236 O218 1.269 . S
C236 O223 1.252 1_556 S
C236 C237 1.497 . S
C237 C236 1.497 . S
C237 C238 1.395 . S
C237 C239 1.380 . S
C238 C237 1.395 . S
C238 C241 1.398 . S
C238 H248 0.930 . S
C239 C237 1.380 . S
C239 C240 1.391 . S
C239 H249 0.930 . S
C240 C239 1.391 . S
C240 C242 1.387 . S
C241 C238 1.398 . S
C241 C242 1.380 . S
C241 H250 0.930 . S
C242 C240 1.387 . S
C242 C241 1.380 . S
C242 H251 0.930 . S
C243 O220 1.254 . S
C243 O221 1.268 . S
H244 C229 0.930 . S
H245 C230 0.930 . S
H246 C232 0.930 . S
H247 C233 0.930 . S
H248 C238 0.930 . S
H249 C239 0.930 . S
H250 C241 0.930 . S
H251 C242 0.930 . S
Gd252 N283 2.661 . S
Gd252 N289 2.601 . S
Gd252 O296 2.545 . S
Gd252 O297 2.606 1_455 S
Gd252 O299 2.429 . S
Gd252 O300 2.545 . S
Gd252 O301 2.412 . S
Gd252 O303 2.362 . S
Gd252 O304 2.324 . S
Gd252 C311 2.828 . S
Gd253 N262 2.661 . S
Gd253 N266 2.601 . S
Gd253 O297 2.362 . S
Gd253 O298 2.324 . S
Gd253 O302 2.545 . S
Gd253 O303 2.606 1_655 S
Gd253 O305 2.429 . S
Gd253 O306 2.545 1_655 S
Gd253 O307 2.412 . S
Gd253 C320 2.828 . S
C254 C257 1.417 . S
C254 C259 1.431 . S
C254 C260 1.412 . S
C255 C258 1.437 . S
C255 C259 1.317 . S
C255 H274 0.929 . S
C256 C257 1.426 . S
C256 C258 1.413 . S
C256 N266 1.359 . S
C257 C254 1.417 . S
C257 C256 1.426 . S
C257 N262 1.350 . S
C258 C255 1.437 . S
C258 C256 1.413 . S
C258 C268 1.391 . S
C259 C254 1.431 . S
C259 C255 1.317 . S
C259 H270 0.930 . S
C260 C254 1.412 . S
C260 C261 1.355 . S
C260 H272 0.930 . S
C261 C260 1.355 . S
C261 C263 1.402 . S
C261 H273 0.930 . S
N262 Gd253 2.661 . S
N262 C257 1.350 . S
N262 C263 1.307 . S
C263 C261 1.402 . S
C263 N262 1.307 . S
C263 H264 0.930 . S
H264 C263 0.930 . S
C265 N266 1.334 . S
C265 C267 1.394 . S
C265 H269 0.930 . S
N266 Gd253 2.601 . S
N266 C256 1.359 . S
N266 C265 1.334 . S
C267 C265 1.394 . S
C267 C268 1.359 . S
C267 H279 0.930 . S
C268 C258 1.391 . S
C268 C267 1.359 . S
C268 H280 0.929 . S
H269 C265 0.930 . S
H270 C259 0.930 . S
H271 C288 0.930 . S
H272 C260 0.930 . S
H273 C261 0.930 . S
H274 C255 0.929 . S
H275 C293 0.930 . S
H276 C284 0.930 . S
H277 C285 0.930 . S
H278 C309 0.929 . S
H279 C267 0.930 . S
H280 C268 0.929 . S
H281 C310 0.930 . S
H282 C291 0.930 . S
N283 Gd252 2.661 . S
N283 C287 1.350 . S
N283 C288 1.307 . S
C284 H276 0.930 . S
C284 C285 1.355 . S
C284 C286 1.412 . S
C285 H277 0.930 . S
C285 C284 1.355 . S
C285 C288 1.402 . S
C286 C284 1.412 . S
C286 C287 1.417 . S
C286 C310 1.431 . S
C287 N283 1.350 . S
C287 C286 1.417 . S
C287 C290 1.426 . S
C288 H271 0.930 . S
C288 N283 1.307 . S
C288 C285 1.402 . S
N289 Gd252 2.601 . S
N289 C290 1.359 . S
N289 C293 1.334 . S
C290 C287 1.426 . S
C290 N289 1.359 . S
C290 C294 1.413 . S
C291 H282 0.930 . S
C291 C292 1.359 . S
C291 C293 1.394 . S
C292 C291 1.359 . S
C292 C294 1.391 . S
C292 H295 0.929 . S
C293 H275 0.930 . S
C293 N289 1.334 . S
C293 C291 1.394 . S
C294 C290 1.413 . S
C294 C292 1.391 . S
C294 C309 1.437 . S
H295 C292 0.929 . S
O296 Gd252 2.545 . S
O296 C311 1.258 . S
O297 Gd252 2.606 1_655 S
O297 Gd253 2.362 . S
O297 C308 1.284 . S
O298 Gd253 2.324 . S
O298 C318 1.254 1_655 S
O299 Gd252 2.429 . S
O299 C318 1.268 . S
O300 Gd252 2.545 . S
O300 C308 1.250 1_455 S
O301 Gd252 2.412 . S
O301 C311 1.252 . S
O302 Gd253 2.545 . S
O302 C320 1.258 . S
O303 Gd252 2.362 . S
O303 Gd253 2.606 1_455 S
O303 C319 1.284 . S
O304 Gd252 2.324 . S
O304 C327 1.254 . S
O305 Gd253 2.429 . S
O305 C327 1.268 1_655 S
O306 Gd253 2.545 1_455 S
O306 C319 1.250 . S
O307 Gd253 2.412 . S
O307 C320 1.252 . S
C308 O297 1.284 . S
C308 O300 1.250 1_655 S
C309 H278 0.929 . S
C309 C294 1.437 . S
C309 C310 1.317 . S
C310 H281 0.930 . S
C310 C286 1.431 . S
C310 C309 1.317 . S
C311 Gd252 2.828 . S
C311 O296 1.258 . S
C311 O301 1.252 . S
C311 C312 1.497 . S
C312 C311 1.497 . S
C312 C313 1.395 . S
C312 C314 1.380 . S
C313 C312 1.395 . S
C313 C316 1.398 . S
C313 H328 0.930 . S
C314 C312 1.380 . S
C314 C315 1.391 . S
C314 H329 0.930 . S
C315 C314 1.391 . S
C315 C317 1.387 . S
C316 C313 1.398 . S
C316 C317 1.380 . S
C316 H330 0.930 . S
C317 C315 1.387 . S
C317 C316 1.380 . S
C317 H331 0.930 . S
C318 O298 1.254 1_455 S
C318 O299 1.268 . S
C319 O303 1.284 . S
C319 O306 1.250 . S
C320 Gd253 2.828 . S
C320 O302 1.258 . S
C320 O307 1.252 . S
C320 C321 1.497 . S
C321 C320 1.497 . S
C321 C322 1.395 . S
C321 C323 1.380 . S
C322 C321 1.395 . S
C322 C325 1.398 . S
C322 H332 0.930 . S
C323 C321 1.380 . S
C323 C324 1.391 . S
C323 H333 0.930 . S
C324 C323 1.391 . S
C324 C326 1.387 . S
C325 C322 1.398 . S
C325 C326 1.380 . S
C325 H334 0.930 . S
C326 C324 1.387 . S
C326 C325 1.380 . S
C326 H335 0.930 . S
C327 O304 1.254 . S
C327 O305 1.268 1_455 S
H328 C313 0.930 . S
H329 C314 0.930 . S
H330 C316 0.930 . S
H331 C317 0.930 . S
H332 C322 0.930 . S
H333 C323 0.930 . S
H334 C325 0.930 . S
H335 C326 0.930 . S
C336 C337 1.349 . S
C336 C338 1.327 1_655 S
C336 H361 0.950 1_554 S
C337 C336 1.349 . S
C337 C353 1.349 . S
C338 C336 1.327 1_455 S
C338 C357 1.429 . S
C338 H362 0.950 . S
C339 C356 1.574 . S
C339 C358 1.368 . S
C339 H363 0.949 . S
H340 C344 0.949 . S
C341 C342 1.349 . S
C341 C343 1.327 . S
C341 H364 0.950 . S
C342 C341 1.349 . S
C342 C354 1.343 . S
C343 C341 1.327 . S
C343 C359 1.429 . S
C343 H365 0.950 . S
C344 H340 0.949 . S
C344 C352 1.574 . S
C344 C360 1.368 . S
H345 C353 0.950 . S
H346 C351 0.950 . S
H347 C352 0.949 . S
H348 C354 0.942 1_565 S
H349 C355 0.950 . S
H350 C356 0.949 . S
C351 H346 0.950 . S
C351 C353 1.327 . S
C351 C357 1.429 1_655 S
C352 C344 1.574 . S
C352 H347 0.949 . S
C352 C358 1.368 . S
C353 C337 1.349 . S
C353 H345 0.950 . S
C353 C351 1.327 . S
C354 C342 1.343 . S
C354 H348 0.942 1_545 S
C354 C355 1.342 . S
C355 H349 0.950 . S
C355 C354 1.342 . S
C355 C359 1.429 . S
C356 C339 1.574 . S
C356 H350 0.949 . S
C356 C360 1.368 . S
C357 C338 1.429 . S
C357 C351 1.429 1_455 S
C357 C358 1.523 . S
C358 C339 1.368 . S
C358 C352 1.368 . S
C358 C357 1.523 . S
C359 C343 1.429 . S
C359 C355 1.429 . S
C359 C360 1.523 . S
C360 C344 1.368 . S
C360 C356 1.368 . S
C360 C359 1.523 . S
H361 C336 0.950 1_556 S
H362 C338 0.950 . S
H363 C339 0.949 . S
H364 C341 0.950 . S
H365 C343 0.950 . S
C366 C367 1.349 . S
C366 C368 1.327 . S
C366 H391 0.950 . S
C367 C366 1.349 . S
C367 C383 1.349 . S
C368 C366 1.327 . S
C368 C387 1.429 . S
C368 H392 0.950 . S
C369 C386 1.574 . S
C369 C388 1.368 . S
C369 H393 0.949 . S
H370 C374 0.949 . S
C371 C372 1.349 . S
C371 C373 1.327 . S
C371 H394 0.950 . S
C372 C371 1.349 . S
C372 C384 1.349 . S
C373 C371 1.327 . S
C373 C389 1.429 . S
C373 H395 0.950 . S
C374 H370 0.949 . S
C374 C382 1.574 . S
C374 C390 1.368 . S
H375 C383 0.950 1_655 S
H376 C381 0.950 . S
H377 C382 0.949 . S
H378 C384 0.950 . S
H379 C385 0.950 . S
H380 C386 0.949 . S
C381 H376 0.950 . S
C381 C383 1.327 . S
C381 C387 1.429 . S
C382 C374 1.574 . S
C382 H377 0.949 . S
C382 C388 1.368 . S
C383 C367 1.349 . S
C383 H375 0.950 1_455 S
C383 C381 1.327 . S
C384 C372 1.349 . S
C384 H378 0.950 . S
C384 C385 1.327 . S
C385 H379 0.950 . S
C385 C384 1.327 . S
C385 C389 1.429 . S
C386 C369 1.574 . S
C386 H380 0.949 . S
C386 C390 1.368 . S
C387 C368 1.429 . S
C387 C381 1.429 . S
C387 C388 1.523 1_565 S
C388 C369 1.368 . S
C388 C382 1.368 . S
C388 C387 1.523 1_545 S
C389 C373 1.429 . S
C389 C385 1.429 . S
C389 C390 1.523 . S
C390 C374 1.368 . S
C390 C386 1.368 . S
C390 C389 1.523 . S
H391 C366 0.950 . S
H392 C368 0.950 . S
H393 C369 0.949 . S
H394 C371 0.950 . S
H395 C373 0.950 . S
C396 C397 1.349 . S
C396 C398 1.327 . S
C396 H421 0.950 . S
C397 C396 1.349 . S
C397 C413 1.349 . S
C398 C396 1.327 . S
C398 C417 1.429 . S
C398 H422 0.950 . S
C399 C416 1.574 . S
C399 C418 1.368 . S
C399 H423 0.949 . S
H400 C404 0.949 1_565 S
C401 C402 1.349 . S
C401 C403 1.327 . S
C401 H424 0.950 . S
C402 C401 1.349 . S
C402 C414 1.349 1_545 S
C403 C401 1.327 . S
C403 C419 1.429 . S
C403 H425 0.950 . S
C404 H400 0.949 1_545 S
C404 C412 1.574 . S
C404 C420 1.368 . S
H405 C413 0.950 . S
H406 C411 0.950 . S
H407 C412 0.949 . S
H408 C414 0.950 . S
H409 C415 0.950 . S
H410 C416 0.949 . S
C411 H406 0.950 . S
C411 C413 1.327 . S
C411 C417 1.429 . S
C412 C404 1.574 . S
C412 H407 0.949 . S
C412 C418 1.368 . S
C413 C397 1.349 . S
C413 H405 0.950 . S
C413 C411 1.327 . S
C414 C402 1.349 1_565 S
C414 H408 0.950 . S
C414 C415 1.327 . S
C415 H409 0.950 . S
C415 C414 1.327 . S
C415 C419 1.429 1_565 S
C416 C399 1.574 . S
C416 H410 0.949 . S
C416 C420 1.368 . S
C417 C398 1.429 . S
C417 C411 1.429 . S
C417 C418 1.523 . S
C418 C399 1.368 . S
C418 C412 1.368 . S
C418 C417 1.523 . S
C419 C403 1.429 . S
C419 C415 1.429 1_545 S
C419 C420 1.523 . S
C420 C404 1.368 . S
C420 C416 1.368 . S
C420 C419 1.523 . S
H421 C396 0.950 . S
H422 C398 0.950 . S
H423 C399 0.949 . S
H424 C401 0.950 . S
H425 C403 0.950 . S
C426 C427 1.349 . S
C426 C428 1.327 . S
C426 H451 0.950 . S
C427 C426 1.349 . S
C427 C443 1.349 . S
C428 C426 1.327 . S
C428 C447 1.429 . S
C428 H452 0.950 . S
C429 C446 1.574 . S
C429 C448 1.368 . S
C429 H453 0.949 . S
H430 C434 0.949 . S
C431 C432 1.349 . S
C431 C433 1.327 . S
C431 H454 0.950 . S
C432 C431 1.349 . S
C432 C444 1.349 . S
C433 C431 1.327 . S
C433 C449 1.429 . S
C433 H455 0.950 . S
C434 H430 0.949 . S
C434 C442 1.574 . S
C434 C450 1.368 . S
H435 C443 0.950 . S
H436 C441 0.950 . S
H437 C442 0.949 . S
H438 C444 0.950 1_655 S
H439 C445 0.950 . S
H440 C446 0.949 . S
C441 H436 0.950 . S
C441 C443 1.327 . S
C441 C447 1.429 . S
C442 C434 1.574 . S
C442 H437 0.949 . S
C442 C448 1.368 . S
C443 C427 1.349 . S
C443 H435 0.950 . S
C443 C441 1.327 . S
C444 C432 1.349 . S
C444 H438 0.950 1_455 S
C444 C445 1.327 . S
C445 H439 0.950 . S
C445 C444 1.327 . S
C445 C449 1.429 . S
C446 C429 1.574 . S
C446 H440 0.949 . S
C446 C450 1.368 . S
C447 C428 1.429 . S
C447 C441 1.429 . S
C447 C448 1.523 . S
C448 C429 1.368 . S
C448 C442 1.368 . S
C448 C447 1.523 . S
C449 C433 1.429 . S
C449 C445 1.429 . S
C449 C450 1.523 . S
C450 C434 1.368 . S
C450 C446 1.368 . S
C450 C449 1.523 . S
H451 C426 0.950 . S
H452 C428 0.950 . S
H453 C429 0.949 . S
H454 C431 0.950 . S
H455 C433 0.950 . S
C456 C457 1.349 . S
C456 C458 1.327 . S
C456 H481 0.950 . S
C457 C456 1.349 . S
C457 C473 1.349 . S
C458 C456 1.327 . S
C458 C477 1.429 . S
C458 H482 0.950 . S
C459 C476 1.574 . S
C459 C478 1.368 . S
C459 H483 0.949 . S
H460 C464 0.949 . S
C461 C462 1.349 . S
C461 C463 1.327 . S
C461 H484 0.950 . S
C462 C461 1.349 . S
C462 C474 1.349 . S
C463 C461 1.327 . S
C463 C479 1.429 . S
C463 H485 0.950 . S
C464 H460 0.949 . S
C464 C472 1.574 . S
C464 C480 1.368 . S
H465 C473 0.950 . S
H466 C471 0.950 . S
H467 C472 0.949 . S
H468 C474 0.950 . S
H469 C475 0.950 . S
H470 C476 0.949 . S
C471 H466 0.950 . S
C471 C473 1.327 . S
C471 C477 1.429 . S
C472 C464 1.574 . S
C472 H467 0.949 . S
C472 C478 1.368 . S
C473 C457 1.349 . S
C473 H465 0.950 . S
C473 C471 1.327 . S
C474 C462 1.349 . S
C474 H468 0.950 . S
C474 C475 1.327 . S
C475 H469 0.950 . S
C475 C474 1.327 . S
C475 C479 1.429 . S
C476 C459 1.574 . S
C476 H470 0.949 . S
C476 C480 1.368 . S
C477 C458 1.429 . S
C477 C471 1.429 . S
C477 C478 1.523 . S
C478 C459 1.368 . S
C478 C472 1.368 . S
C478 C477 1.523 . S
C479 C463 1.429 . S
C479 C475 1.429 . S
C479 C480 1.523 . S
C480 C464 1.368 . S
C480 C476 1.368 . S
C480 C479 1.523 . S
H481 C456 0.950 . S
H482 C458 0.950 . S
H483 C459 0.949 . S
H484 C461 0.950 . S
H485 C463 0.950 . S
C486 C487 1.349 . S
C486 C488 1.327 . S
C486 H511 0.950 . S
C487 C486 1.349 . S
C487 C503 1.349 . S
C488 C486 1.327 . S
C488 C507 1.429 . S
C488 H512 0.950 . S
C489 C506 1.574 . S
C489 C508 1.368 . S
C489 H513 0.949 . S
H490 C494 0.953 . S
C491 C492 1.349 . S
C491 C493 1.327 1_655 S
C491 H514 0.950 . S
C492 C491 1.349 . S
C492 C504 1.349 . S
C493 C491 1.327 1_455 S
C493 C509 1.429 1_455 S
C493 H515 0.950 . S
C494 H490 0.953 . S
C494 C502 1.571 1_655 S
C494 C510 1.367 1_655 S
H495 C503 0.950 . S
H496 C501 0.950 . S
H497 C502 0.949 . S
H498 C504 0.950 . S
H499 C505 0.950 . S
H500 C506 0.949 . S
C501 H496 0.950 . S
C501 C503 1.327 . S
C501 C507 1.429 . S
C502 C494 1.571 1_455 S
C502 H497 0.949 . S
C502 C508 1.368 . S
C503 C487 1.349 . S
C503 H495 0.950 . S
C503 C501 1.327 . S
C504 C492 1.349 . S
C504 H498 0.950 . S
C504 C505 1.327 . S
C505 H499 0.950 . S
C505 C504 1.327 . S
C505 C509 1.429 . S
C506 C489 1.574 . S
C506 H500 0.949 . S
C506 C510 1.368 . S
C507 C488 1.429 . S
C507 C501 1.429 . S
C507 C508 1.523 . S
C508 C489 1.368 . S
C508 C502 1.368 . S
C508 C507 1.523 . S
C509 C493 1.429 1_655 S
C509 C505 1.429 . S
C509 C510 1.523 1_655 S
C510 C494 1.367 1_455 S
C510 C506 1.368 . S
C510 C509 1.523 1_455 S
H511 C486 0.950 . S
H512 C488 0.950 . S
H513 C489 0.949 . S
H514 C491 0.950 . S
H515 C493 0.950 . S
C516 C517 1.349 . S
C516 C518 1.327 . S
C516 H541 0.950 . S
C517 C516 1.349 . S
C517 C533 1.349 . S
C518 C516 1.327 . S
C518 C537 1.429 . S
C518 H542 0.950 . S
C519 C536 1.574 . S
C519 C538 1.368 . S
C519 H543 0.949 . S
H520 C524 0.949 . S
C521 C522 1.349 . S
C521 C523 1.327 . S
C521 H544 0.950 . S
C522 C521 1.349 . S
C522 C534 1.349 . S
C523 C521 1.327 . S
C523 C539 1.429 . S
C523 H545 0.950 . S
C524 H520 0.949 . S
C524 C532 1.574 . S
C524 C540 1.368 . S
H525 C533 0.950 . S
H526 C531 0.950 . S
H527 C532 0.949 . S
H528 C534 0.950 1_545 S
H529 C535 0.950 . S
H530 C536 0.949 . S
C531 H526 0.950 . S
C531 C533 1.327 . S
C531 C537 1.429 . S
C532 C524 1.574 . S
C532 H527 0.949 . S
C532 C538 1.368 . S
C533 C517 1.349 . S
C533 H525 0.950 . S
C533 C531 1.327 . S
C534 C522 1.349 . S
C534 H528 0.950 1_565 S
C534 C535 1.327 . S
C535 H529 0.950 . S
C535 C534 1.327 . S
C535 C539 1.429 . S
C536 C519 1.574 . S
C536 H530 0.949 . S
C536 C540 1.368 . S
C537 C518 1.429 . S
C537 C531 1.429 . S
C537 C538 1.523 . S
C538 C519 1.368 . S
C538 C532 1.368 . S
C538 C537 1.523 . S
C539 C523 1.429 . S
C539 C535 1.429 . S
C539 C540 1.523 . S
C540 C524 1.368 . S
C540 C536 1.368 . S
C540 C539 1.523 . S
H541 C516 0.950 . S
H542 C518 0.950 . S
H543 C519 0.949 . S
H544 C521 0.950 . S
H545 C523 0.950 . S
C546 C547 1.349 . S
C546 C548 1.327 . S
C546 H571 0.950 . S
C547 C546 1.349 . S
C547 C563 1.349 . S
C548 C546 1.327 . S
C548 C567 1.429 . S
C548 H572 0.950 . S
C549 C566 1.574 . S
C549 C568 1.368 . S
C549 H573 0.949 . S
H550 C554 0.949 . S
C551 C552 1.349 . S
C551 C553 1.327 1_554 S
C551 H574 0.950 . S
C552 C551 1.349 . S
C552 C564 1.349 . S
C553 C551 1.327 1_556 S
C553 C569 1.429 . S
C553 H575 0.950 . S
C554 H550 0.949 . S
C554 C562 1.574 . S
C554 C570 1.368 . S
H555 C563 0.950 . S
H556 C561 0.950 . S
H557 C562 0.949 . S
H558 C564 0.950 1_545 S
H559 C565 0.950 1_556 S
H560 C566 0.949 . S
C561 H556 0.950 . S
C561 C563 1.327 . S
C561 C567 1.429 . S
C562 C554 1.574 . S
C562 H557 0.949 . S
C562 C568 1.368 . S
C563 C547 1.349 . S
C563 H555 0.950 . S
C563 C561 1.327 . S
C564 C552 1.349 . S
C564 H558 0.950 1_565 S
C564 C565 1.327 . S
C565 H559 0.950 1_554 S
C565 C564 1.327 . S
C565 C569 1.429 1_554 S
C566 C549 1.574 . S
C566 H560 0.949 . S
C566 C570 1.368 . S
C567 C548 1.429 . S
C567 C561 1.429 . S
C567 C568 1.523 . S
C568 C549 1.368 . S
C568 C562 1.368 . S
C568 C567 1.523 . S
C569 C553 1.429 . S
C569 C565 1.429 1_556 S
C569 C570 1.523 . S
C570 C554 1.368 . S
C570 C566 1.368 . S
C570 C569 1.523 . S
H571 C546 0.950 . S
H572 C548 0.950 . S
H573 C549 0.949 . S
H574 C551 0.950 . S
H575 C553 0.950 . S
C576 C577 1.349 . S
C576 C578 1.327 . S
C576 H601 0.950 . S
C577 C576 1.349 . S
C577 C593 1.349 1_545 S
C578 C576 1.327 . S
C578 C597 1.429 1_545 S
C578 H602 0.950 . S
C579 C596 1.574 . S
C579 C598 1.368 . S
C579 H603 0.949 . S
H580 C584 0.949 . S
C581 C582 1.349 . S
C581 C583 1.327 . S
C581 H604 0.950 . S
C582 C581 1.349 . S
C582 C594 1.349 . S
C583 C581 1.327 . S
C583 C599 1.429 . S
C583 H605 0.950 . S
C584 H580 0.949 . S
C584 C592 1.574 . S
C584 C600 1.368 . S
H585 C593 0.950 . S
H586 C591 0.950 . S
H587 C592 0.949 1_545 S
H588 C594 0.950 . S
H589 C595 0.950 . S
H590 C596 0.949 . S
C591 H586 0.950 . S
C591 C593 1.327 . S
C591 C597 1.429 . S
C592 C584 1.574 . S
C592 H587 0.949 1_565 S
C592 C598 1.368 . S
C593 C577 1.349 1_565 S
C593 H585 0.950 . S
C593 C591 1.327 . S
C594 C582 1.349 . S
C594 H588 0.950 . S
C594 C595 1.327 . S
C595 H589 0.950 . S
C595 C594 1.327 . S
C595 C599 1.429 . S
C596 C579 1.574 . S
C596 H590 0.949 . S
C596 C600 1.368 . S
C597 C578 1.429 1_565 S
C597 C591 1.429 . S
C597 C598 1.523 . S
C598 C579 1.368 . S
C598 C592 1.368 . S
C598 C597 1.523 . S
C599 C583 1.429 . S
C599 C595 1.429 . S
C599 C600 1.523 . S
C600 C584 1.368 . S
C600 C596 1.368 . S
C600 C599 1.523 . S
H601 C576 0.950 . S
H602 C578 0.950 . S
H603 C579 0.949 . S
H604 C581 0.950 . S
H605 C583 0.950 . S
C606 C607 1.349 . S
C606 C608 1.327 . S
C606 H631 0.950 . S
C607 C606 1.349 . S
C607 C623 1.349 . S
C608 C606 1.327 . S
C608 C627 1.429 . S
C608 H632 0.950 . S
C609 C626 1.574 . S
C609 C628 1.368 . S
C609 H633 0.949 . S
H610 C614 0.949 . S
C611 C612 1.349 . S
C611 C613 1.327 . S
C611 H634 0.950 . S
C612 C611 1.349 . S
C612 C624 1.349 . S
C613 C611 1.327 . S
C613 C629 1.429 . S
C613 H635 0.950 . S
C614 H610 0.949 . S
C614 C622 1.574 . S
C614 C630 1.368 . S
H615 C623 0.950 . S
H616 C621 0.950 . S
H617 C622 0.949 . S
H618 C624 0.950 . S
H619 C625 0.950 . S
H620 C626 0.949 . S
C621 H616 0.950 . S
C621 C623 1.327 . S
C621 C627 1.429 . S
C622 C614 1.574 . S
C622 H617 0.949 . S
C622 C628 1.368 . S
C623 C607 1.349 . S
C623 H615 0.950 . S
C623 C621 1.327 . S
C624 C612 1.349 . S
C624 H618 0.950 . S
C624 C625 1.327 . S
C625 H619 0.950 . S
C625 C624 1.327 . S
C625 C629 1.429 . S
C626 C609 1.574 . S
C626 H620 0.949 . S
C626 C630 1.368 . S
C627 C608 1.429 . S
C627 C621 1.429 . S
C627 C628 1.523 . S
C628 C609 1.368 . S
C628 C622 1.368 . S
C628 C627 1.523 . S
C629 C613 1.429 . S
C629 C625 1.429 . S
C629 C630 1.523 . S
C630 C614 1.368 . S
C630 C626 1.368 . S
C630 C629 1.523 . S
H631 C606 0.950 . S
H632 C608 0.950 . S
H633 C609 0.949 . S
H634 C611 0.950 . S
H635 C613 0.950 . S
C636 C637 1.349 . S
C636 C638 1.327 . S
C636 H661 0.950 . S
C637 C636 1.349 . S
C637 C653 1.349 . S
C638 C636 1.327 . S
C638 C657 1.429 . S
C638 H662 0.950 . S
C639 C656 1.574 . S
C639 C658 1.368 . S
C639 H663 0.949 . S
H640 C644 0.949 . S
C641 C642 1.349 1_556 S
C641 C643 1.327 . S
C641 H664 0.950 . S
C642 C641 1.349 1_554 S
C642 C654 1.349 . S
C643 C641 1.327 . S
C643 C659 1.429 . S
C643 H665 0.950 . S
C644 H640 0.949 . S
C644 C652 1.574 . S
C644 C660 1.368 . S
H645 C653 0.950 . S
H646 C651 0.950 . S
H647 C652 0.949 . S
H648 C654 0.950 . S
H649 C655 0.950 . S
H650 C656 0.949 . S
C651 H646 0.950 . S
C651 C653 1.327 . S
C651 C657 1.429 . S
C652 C644 1.574 . S
C652 H647 0.949 . S
C652 C658 1.368 . S
C653 C637 1.349 . S
C653 H645 0.950 . S
C653 C651 1.327 . S
C654 C642 1.349 . S
C654 H648 0.950 . S
C654 C655 1.327 1_554 S
C655 H649 0.950 . S
C655 C654 1.327 1_556 S
C655 C659 1.429 . S
C656 C639 1.574 . S
C656 H650 0.949 . S
C656 C660 1.368 . S
C657 C638 1.429 . S
C657 C651 1.429 . S
C657 C658 1.523 . S
C658 C639 1.368 . S
C658 C652 1.368 . S
C658 C657 1.523 . S
C659 C643 1.429 . S
C659 C655 1.429 . S
C659 C660 1.523 . S
C660 C644 1.368 . S
C660 C656 1.368 . S
C660 C659 1.523 . S
H661 C636 0.950 . S
H662 C638 0.950 . S
H663 C639 0.949 . S
H664 C641 0.950 . S
H665 C643 0.950 . S
C666 C667 1.349 . S
C666 C668 1.327 . S
C666 H691 0.950 . S
C667 C666 1.349 . S
C667 C683 1.349 . S
C668 C666 1.327 . S
C668 C687 1.429 . S
C668 H692 0.950 . S
C669 C686 1.574 . S
C669 C688 1.368 . S
C669 H693 0.949 . S
H670 C674 0.951 . S
C671 C672 1.349 . S
C671 C673 1.327 1_455 S
C671 H694 0.946 1_455 S
C672 C671 1.349 . S
C672 C684 1.349 . S
C673 C671 1.327 1_655 S
C673 C689 1.429 1_655 S
C673 H695 0.950 . S
C674 H670 0.951 . S
C674 C682 1.573 1_455 S
C674 C690 1.367 1_455 S
H675 C683 0.950 . S
H676 C681 0.950 . S
H677 C682 0.949 . S
H678 C684 0.950 . S
H679 C685 0.950 . S
H680 C686 0.949 . S
C681 H676 0.950 . S
C681 C683 1.327 . S
C681 C687 1.429 . S
C682 C674 1.573 1_655 S
C682 H677 0.949 . S
C682 C688 1.368 . S
C683 C667 1.349 . S
C683 H675 0.950 . S
C683 C681 1.327 . S
C684 C672 1.349 . S
C684 H678 0.950 . S
C684 C685 1.327 . S
C685 H679 0.950 . S
C685 C684 1.327 . S
C685 C689 1.429 . S
C686 C669 1.574 . S
C686 H680 0.949 . S
C686 C690 1.368 . S
C687 C668 1.429 . S
C687 C681 1.429 . S
C687 C688 1.523 . S
C688 C669 1.368 . S
C688 C682 1.368 . S
C688 C687 1.523 . S
C689 C673 1.429 1_455 S
C689 C685 1.429 . S
C689 C690 1.523 1_455 S
C690 C674 1.367 1_655 S
C690 C686 1.368 . S
C690 C689 1.523 1_655 S
H691 C666 0.950 . S
H692 C668 0.950 . S
H693 C669 0.949 . S
H694 C671 0.946 1_655 S
H695 C673 0.950 . S
C337 C234 0.959 . S
C342 C75 0.959 . S
C367 C318 0.469 . S
C372 C159 0.469 . S
C397 C243 1.149 . S
C402 C66 1.149 . S
C427 C150 1.220 . S
C432 C327 1.220 . S
C457 C151 1.930 . S
C462 C56 2.068 . S
C487 C140 2.238 . S
C492 C240 2.249 . S
C517 C324 1.058 . S
C522 C231 0.906 . S
C547 C315 0.740 . S
C552 C67 0.721 . S
C577 C235 2.068 . S
C582 C308 1.930 . S
C607 C63 2.249 . S
C612 C319 2.238 . S
C637 C147 1.058 . S
C642 C72 0.906 . S
C667 C224 0.721 . S
C672 C156 0.740 . S
