# Generated by pormake.
# Topology vba, (4)-cn, num edge types: 1
# Building blocks:
#     Node 0, Type 0, BuildingBlock: KOZSID_clean_sbu_0, # of connection points: 4
#     Node 1, Type 0, BuildingBlock: KOZSID_clean_sbu_0, # of connection points: 4
#     Node 2, Type 0, BuildingBlock: KOZSID_clean_sbu_0, # of connection points: 4
#     Node 3, Type 0, BuildingBlock: KOZSID_clean_sbu_0, # of connection points: 4
#     Node 4, Type 0, BuildingBlock: KOZSID_clean_sbu_0, # of connection points: 4
#     Node 5, Type 0, BuildingBlock: KOZSID_clean_sbu_0, # of connection points: 4
#     Node 6, Type 0, BuildingBlock: KOZSID_clean_sbu_0, # of connection points: 4
#     Node 7, Type 0, BuildingBlock: KOZSID_clean_sbu_0, # of connection points: 4
#     Node 8, Type 0, BuildingBlock: KOZSID_clean_sbu_0, # of connection points: 4
#     Node 9, Type 0, BuildingBlock: KOZSID_clean_sbu_0, # of connection points: 4
#     Node 10, Type 0, BuildingBlock: KOZSID_clean_sbu_0, # of connection points: 4
#     Node 11, Type 0, BuildingBlock: KOZSID_clean_sbu_0, # of connection points: 4
#     Node 12, Type 0, BuildingBlock: KOZSID_clean_sbu_0, # of connection points: 4
#     Node 13, Type 0, BuildingBlock: KOZSID_clean_sbu_0, # of connection points: 4
#     Node 14, Type 0, BuildingBlock: KOZSID_clean_sbu_0, # of connection points: 4
#     Node 15, Type 0, BuildingBlock: KOZSID_clean_sbu_0, # of connection points: 4
#     Node 16, Type 0, BuildingBlock: KOZSID_clean_sbu_0, # of connection points: 4
#     Node 17, Type 0, BuildingBlock: KOZSID_clean_sbu_0, # of connection points: 4
#     Node 18, Type 0, BuildingBlock: KOZSID_clean_sbu_0, # of connection points: 4
#     Node 19, Type 0, BuildingBlock: KOZSID_clean_sbu_0, # of connection points: 4
#     Node 20, Type 0, BuildingBlock: KOZSID_clean_sbu_0, # of connection points: 4
#     Node 21, Type 0, BuildingBlock: KOZSID_clean_sbu_0, # of connection points: 4
#     Node 22, Type 0, BuildingBlock: KOZSID_clean_sbu_0, # of connection points: 4
#     Node 23, Type 0, BuildingBlock: KOZSID_clean_sbu_0, # of connection points: 4
#     Node 24, Type 0, BuildingBlock: KOZSID_clean_sbu_0, # of connection points: 4
#     Node 25, Type 0, BuildingBlock: KOZSID_clean_sbu_0, # of connection points: 4
#     Node 26, Type 0, BuildingBlock: KOZSID_clean_sbu_0, # of connection points: 4
#     Node 27, Type 0, BuildingBlock: KOZSID_clean_sbu_0, # of connection points: 4
#     Node 28, Type 0, BuildingBlock: KOZSID_clean_sbu_0, # of connection points: 4
#     Node 29, Type 0, BuildingBlock: KOZSID_clean_sbu_0, # of connection points: 4
#     Node 30, Type 0, BuildingBlock: KOZSID_clean_sbu_0, # of connection points: 4
#     Node 31, Type 0, BuildingBlock: KOZSID_clean_sbu_0, # of connection points: 4
#     Edge 32, Type (0, 0), BuildingBlock: UVAHIK_clean_linker_0, # of connection points: 2
#     Edge 33, Type (0, 0), BuildingBlock: UVAHIK_clean_linker_0, # of connection points: 2
#     Edge 34, Type (0, 0), BuildingBlock: UVAHIK_clean_linker_0, # of connection points: 2
#     Edge 35, Type (0, 0), BuildingBlock: UVAHIK_clean_linker_0, # of connection points: 2
#     Edge 36, Type (0, 0), BuildingBlock: UVAHIK_clean_linker_0, # of connection points: 2
#     Edge 37, Type (0, 0), BuildingBlock: UVAHIK_clean_linker_0, # of connection points: 2
#     Edge 38, Type (0, 0), BuildingBlock: UVAHIK_clean_linker_0, # of connection points: 2
#     Edge 39, Type (0, 0), BuildingBlock: UVAHIK_clean_linker_0, # of connection points: 2
#     Edge 40, Type (0, 0), BuildingBlock: UVAHIK_clean_linker_0, # of connection points: 2
#     Edge 41, Type (0, 0), BuildingBlock: UVAHIK_clean_linker_0, # of connection points: 2
#     Edge 42, Type (0, 0), BuildingBlock: UVAHIK_clean_linker_0, # of connection points: 2
#     Edge 43, Type (0, 0), BuildingBlock: UVAHIK_clean_linker_0, # of connection points: 2
#     Edge 44, Type (0, 0), BuildingBlock: UVAHIK_clean_linker_0, # of connection points: 2
#     Edge 45, Type (0, 0), BuildingBlock: UVAHIK_clean_linker_0, # of connection points: 2
#     Edge 46, Type (0, 0), BuildingBlock: UVAHIK_clean_linker_0, # of connection points: 2
#     Edge 47, Type (0, 0), BuildingBlock: UVAHIK_clean_linker_0, # of connection points: 2
#     Edge 48, Type (0, 0), BuildingBlock: UVAHIK_clean_linker_0, # of connection points: 2
#     Edge 49, Type (0, 0), BuildingBlock: UVAHIK_clean_linker_0, # of connection points: 2
#     Edge 50, Type (0, 0), BuildingBlock: UVAHIK_clean_linker_0, # of connection points: 2
#     Edge 51, Type (0, 0), BuildingBlock: UVAHIK_clean_linker_0, # of connection points: 2
#     Edge 52, Type (0, 0), BuildingBlock: UVAHIK_clean_linker_0, # of connection points: 2
#     Edge 53, Type (0, 0), BuildingBlock: UVAHIK_clean_linker_0, # of connection points: 2
#     Edge 54, Type (0, 0), BuildingBlock: UVAHIK_clean_linker_0, # of connection points: 2
#     Edge 55, Type (0, 0), BuildingBlock: UVAHIK_clean_linker_0, # of connection points: 2
#     Edge 56, Type (0, 0), BuildingBlock: UVAHIK_clean_linker_0, # of connection points: 2
#     Edge 57, Type (0, 0), BuildingBlock: UVAHIK_clean_linker_0, # of connection points: 2
#     Edge 58, Type (0, 0), BuildingBlock: UVAHIK_clean_linker_0, # of connection points: 2
#     Edge 59, Type (0, 0), BuildingBlock: UVAHIK_clean_linker_0, # of connection points: 2
#     Edge 60, Type (0, 0), BuildingBlock: UVAHIK_clean_linker_0, # of connection points: 2
#     Edge 61, Type (0, 0), BuildingBlock: UVAHIK_clean_linker_0, # of connection points: 2
#     Edge 62, Type (0, 0), BuildingBlock: UVAHIK_clean_linker_0, # of connection points: 2
#     Edge 63, Type (0, 0), BuildingBlock: UVAHIK_clean_linker_0, # of connection points: 2
#     Edge 64, Type (0, 0), BuildingBlock: UVAHIK_clean_linker_0, # of connection points: 2
#     Edge 65, Type (0, 0), BuildingBlock: UVAHIK_clean_linker_0, # of connection points: 2
#     Edge 66, Type (0, 0), BuildingBlock: UVAHIK_clean_linker_0, # of connection points: 2
#     Edge 67, Type (0, 0), BuildingBlock: UVAHIK_clean_linker_0, # of connection points: 2
#     Edge 68, Type (0, 0), BuildingBlock: UVAHIK_clean_linker_0, # of connection points: 2
#     Edge 69, Type (0, 0), BuildingBlock: UVAHIK_clean_linker_0, # of connection points: 2
#     Edge 70, Type (0, 0), BuildingBlock: UVAHIK_clean_linker_0, # of connection points: 2
#     Edge 71, Type (0, 0), BuildingBlock: UVAHIK_clean_linker_0, # of connection points: 2
#     Edge 72, Type (0, 0), BuildingBlock: UVAHIK_clean_linker_0, # of connection points: 2
#     Edge 73, Type (0, 0), BuildingBlock: UVAHIK_clean_linker_0, # of connection points: 2
#     Edge 74, Type (0, 0), BuildingBlock: UVAHIK_clean_linker_0, # of connection points: 2
#     Edge 75, Type (0, 0), BuildingBlock: UVAHIK_clean_linker_0, # of connection points: 2
#     Edge 76, Type (0, 0), BuildingBlock: UVAHIK_clean_linker_0, # of connection points: 2
#     Edge 77, Type (0, 0), BuildingBlock: UVAHIK_clean_linker_0, # of connection points: 2
#     Edge 78, Type (0, 0), BuildingBlock: UVAHIK_clean_linker_0, # of connection points: 2
#     Edge 79, Type (0, 0), BuildingBlock: UVAHIK_clean_linker_0, # of connection points: 2
#     Edge 80, Type (0, 0), BuildingBlock: UVAHIK_clean_linker_0, # of connection points: 2
#     Edge 81, Type (0, 0), BuildingBlock: UVAHIK_clean_linker_0, # of connection points: 2
#     Edge 82, Type (0, 0), BuildingBlock: UVAHIK_clean_linker_0, # of connection points: 2
#     Edge 83, Type (0, 0), BuildingBlock: UVAHIK_clean_linker_0, # of connection points: 2
#     Edge 84, Type (0, 0), BuildingBlock: UVAHIK_clean_linker_0, # of connection points: 2
#     Edge 85, Type (0, 0), BuildingBlock: UVAHIK_clean_linker_0, # of connection points: 2
#     Edge 86, Type (0, 0), BuildingBlock: UVAHIK_clean_linker_0, # of connection points: 2
#     Edge 87, Type (0, 0), BuildingBlock: UVAHIK_clean_linker_0, # of connection points: 2
#     Edge 88, Type (0, 0), BuildingBlock: UVAHIK_clean_linker_0, # of connection points: 2
#     Edge 89, Type (0, 0), BuildingBlock: UVAHIK_clean_linker_0, # of connection points: 2
#     Edge 90, Type (0, 0), BuildingBlock: UVAHIK_clean_linker_0, # of connection points: 2
#     Edge 91, Type (0, 0), BuildingBlock: UVAHIK_clean_linker_0, # of connection points: 2
#     Edge 92, Type (0, 0), BuildingBlock: UVAHIK_clean_linker_0, # of connection points: 2
#     Edge 93, Type (0, 0), BuildingBlock: UVAHIK_clean_linker_0, # of connection points: 2
#     Edge 94, Type (0, 0), BuildingBlock: UVAHIK_clean_linker_0, # of connection points: 2
#     Edge 95, Type (0, 0), BuildingBlock: UVAHIK_clean_linker_0, # of connection points: 2
# Relax obj value: 0.009
# Max RMSD: 0.111
# Mean RMSD: 0.111
data_MOF--net-vba--node1-KOZSID_clean_sbu_0--edge1-UVAHIK_clean_linker_0
_symmetry_space_group_name_H-M    P1
_symmetry_Int_Tables_number       1
_symmetry_cell_setting            triclinic
loop_
_symmetry_equiv_pos_as_xyz
'x, y, z'
_cell_length_a     37.258352
_cell_length_b     156.03381
_cell_length_c     75.010649
_cell_angle_alpha  90.023914
_cell_angle_beta   90.010498
_cell_angle_gamma 90.025358
loop_
_atom_site_label
_atom_site_type_symbol
_atom_site_fract_x
_atom_site_fract_y
_atom_site_fract_z
_atom_type_partial_charge
C0 C 0.23608 0.05766 0.03431 0.0
C1 C 0.20668 0.0522 0.03552 0.0
C2 C 0.20348 0.04823 0.01931 0.0
C3 C 0.23071 0.05151 0.00906 0.0
N4 N 0.25082 0.0573 0.01784 0.0
Co5 Co 0.29153 0.06394 0.00787 0.0
N6 N 0.27559 0.0617 0.98308 0.0
C7 C 0.25205 0.05562 0.97794 0.0
C8 C 0.24552 0.05568 0.95995 0.0
C9 C 0.26665 0.06211 0.95332 0.0
C10 C 0.28529 0.06558 0.96768 0.0
N11 N 0.33261 0.0705 0.99797 0.0
C12 C 0.33843 0.07343 0.98119 0.0
C13 C 0.37174 0.07738 0.97995 0.0
C14 C 0.38736 0.0768 0.99647 0.0
C15 C 0.36287 0.07253 0.00687 0.0
N16 N 0.30692 0.06618 0.03272 0.0
C17 C 0.33988 0.06861 0.03799 0.0
C18 C 0.34207 0.06981 0.05612 0.0
C19 C 0.30835 0.06801 0.06257 0.0
C20 C 0.28746 0.06583 0.04795 0.0
N21 N 0.32115 0.0535 0.00728 0.0
C22 C 0.3698 0.03971 0.00735 0.0
C23 C 0.34681 0.04114 0.02189 0.0
C24 C 0.32279 0.04808 0.02162 0.0
C25 C 0.3667 0.04512 0.99255 0.0
C26 C 0.3422 0.05188 0.99272 0.0
N27 N 0.26263 0.07444 0.00838 0.0
C28 C 0.25877 0.08961 0.01395 0.0
C29 C 0.22316 0.08975 0.00802 0.0
C30 C 0.20744 0.08201 0.00258 0.0
C31 C 0.22772 0.07444 0.00272 0.0
C32 C 0.27783 0.08191 0.01418 0.0
H33 H 0.21528 0.06861 0.99809 0.0
H34 H 0.30507 0.08204 0.01896 0.0
H35 H 0.30617 0.04919 0.03318 0.0
H36 H 0.34109 0.05593 0.98113 0.0
C37 C 0.23299 0.05085 0.99053 0.0
C38 C 0.25006 0.06292 0.04899 0.0
C39 C 0.31522 0.07166 0.96577 0.0
C40 C 0.36529 0.07127 0.02536 0.0
H41 H 0.18889 0.05128 0.04674 0.0
H42 H 0.18236 0.0439 0.01516 0.0
H43 H 0.22696 0.05168 0.95259 0.0
H44 H 0.26878 0.06389 0.93941 0.0
H45 H 0.38382 0.08021 0.96822 0.0
H46 H 0.41321 0.07931 1.00047 0.0
H47 H 0.36489 0.0721 0.06367 0.0
H48 H 0.30007 0.06827 0.07639 0.0
H49 H 0.3482 0.0371 0.03361 0.0
H50 H 0.38331 0.04416 0.98086 0.0
H51 H 0.27179 0.09542 0.01852 0.0
H52 H 0.17998 0.08185 0.99786 0.0
C53 C 0.02034 0.20388 0.03795 0.0
C54 C 0.05108 0.20892 0.03876 0.0
C55 C 0.05758 0.21174 0.02188 0.0
C56 C 0.03079 0.20825 0.01171 0.0
N57 N 0.00723 0.20346 0.0211 0.0
Co58 Co 0.96494 0.19705 0.0113 0.0
N59 N 0.97959 0.19956 0.98614 0.0
C60 C 0.00932 0.20382 0.98085 0.0
C61 C 0.01385 0.20407 0.96275 0.0
C62 C 0.98521 0.1997 0.95602 0.0
C63 C 0.96451 0.19714 0.97049 0.0
N64 N 0.92157 0.19103 0.00153 0.0
C65 C 0.91046 0.18995 0.98442 0.0
C66 C 0.87734 0.1859 0.98364 0.0
C67 C 0.86719 0.18435 0.00083 0.0
C68 C 0.89444 0.18759 0.01112 0.0
N69 N 0.95193 0.19402 0.03649 0.0
C70 C 0.92297 0.18948 0.04187 0.0
C71 C 0.92264 0.18777 0.0598 0.0
C72 C 0.95374 0.19125 0.06621 0.0
C73 C 0.97124 0.1949 0.05176 0.0
N74 N 0.93577 0.20784 0.01229 0.0
C75 C 0.88908 0.22221 0.01041 0.0
C76 C 0.88189 0.21531 0.02176 0.0
C77 C 0.90532 0.20832 0.02255 0.0
C78 C 0.92099 0.22192 1.00057 0.0
C79 C 0.94386 0.21479 0.00181 0.0
N80 N 0.99337 0.18628 0.01022 0.0
C81 C 0.99634 0.17085 0.01301 0.0
C82 C 0.03329 0.17084 0.00966 0.0
C83 C 0.04975 0.17877 0.00636 0.0
C84 C 0.02943 0.18634 0.00658 0.0
C85 C 0.97722 0.17854 0.01339 0.0
H86 H 0.04343 0.19219 0.0039 0.0
H87 H 0.9493 0.17806 0.01633 0.0
H88 H 0.89759 0.20331 0.03135 0.0
H89 H 0.9677 0.21503 0.99396 0.0
C90 C 0.03116 0.20799 0.99317 0.0
C91 C 0.00624 0.19908 0.05317 0.0
C92 C 0.93 0.1928 0.96861 0.0
C93 C 0.89677 0.18688 0.02966 0.0
H94 H 0.06819 0.21014 0.05011 0.0
H95 H 0.08054 0.2154 0.01737 0.0
H96 H 0.03513 0.20716 0.95532 0.0
H97 H 0.9799 0.19864 0.942 0.0
H98 H 0.86208 0.18423 0.97186 0.0
H99 H 0.84303 0.18115 0.0053 0.0
H100 H 0.90252 0.18429 0.06726 0.0
H101 H 0.96274 0.19105 0.07992 0.0
H102 H 0.8576 0.21516 0.02968 0.0
H103 H 0.92841 0.22718 0.9919 0.0
H104 H 0.98183 0.16493 0.01522 0.0
H105 H 0.07831 0.1792 0.00386 0.0
C106 C 0.23567 0.20484 0.21709 0.0
C107 C 0.20623 0.21028 0.21597 0.0
C108 C 0.20275 0.21411 0.23232 0.0
C109 C 0.22989 0.21077 0.24254 0.0
N110 N 0.25022 0.20508 0.23361 0.0
Co111 Co 0.29085 0.19839 0.24347 0.0
N112 N 0.27448 0.20036 0.26829 0.0
C113 C 0.25067 0.20634 0.27359 0.0
C114 C 0.24395 0.20612 0.29155 0.0
C115 C 0.26527 0.19969 0.29802 0.0
C116 C 0.28418 0.19639 0.28359 0.0
N117 N 0.3319 0.19177 0.25324 0.0
C118 C 0.33768 0.18874 0.26993 0.0
C119 C 0.37104 0.18481 0.27109 0.0
C120 C 0.38675 0.18553 0.25463 0.0
C121 C 0.36227 0.18985 0.24433 0.0
N122 N 0.30661 0.1964 0.21859 0.0
C123 C 0.33964 0.19405 0.21331 0.0
C124 C 0.34199 0.19298 0.19515 0.0
C125 C 0.3083 0.19478 0.18868 0.0
C126 C 0.28726 0.19682 0.20332 0.0
N127 N 0.32032 0.20885 0.24463 0.0
C128 C 0.36894 0.22266 0.24546 0.0
C129 C 0.34653 0.22132 0.23065 0.0
C130 C 0.32246 0.21437 0.23049 0.0
C131 C 0.36519 0.21716 0.26008 0.0
C132 C 0.34081 0.21038 0.25944 0.0
N133 N 0.2621 0.18787 0.24239 0.0
C134 C 0.25834 0.17277 0.23595 0.0
C135 C 0.22247 0.1725 0.24162 0.0
C136 C 0.20688 0.1802 0.24755 0.0
C137 C 0.22715 0.18777 0.24792 0.0
C138 C 0.27742 0.18047 0.23629 0.0
H139 H 0.21455 0.19355 0.25273 0.0
H140 H 0.30482 0.1804 0.23174 0.0
H141 H 0.30626 0.21334 0.21875 0.0
H142 H 0.33935 0.20624 0.27087 0.0
C143 C 0.23178 0.21123 0.26111 0.0
C144 C 0.24978 0.19967 0.20232 0.0
C145 C 0.31456 0.19044 0.28542 0.0
C146 C 0.3649 0.19128 0.2259 0.0
H147 H 0.18855 0.21128 0.20474 0.0
H148 H 0.18148 0.21837 0.23656 0.0
H149 H 0.22525 0.21003 0.29901 0.0
H150 H 0.26747 0.19783 0.31187 0.0
H151 H 0.38314 0.18192 0.28275 0.0
H152 H 0.41269 0.18308 0.2506 0.0
H153 H 0.3649 0.19076 0.18758 0.0
H154 H 0.3001 0.1946 0.17484 0.0
H155 H 0.3484 0.22542 0.21905 0.0
H156 H 0.38126 0.21804 0.27198 0.0
H157 H 0.2721 0.16704 0.23157 0.0
H158 H 0.17913 0.18043 0.2518 0.0
C159 C 0.02183 0.05814 0.21381 0.0
C160 C 0.05251 0.05308 0.213 0.0
C161 C 0.05897 0.05024 0.22986 0.0
C162 C 0.0322 0.05373 0.24004 0.0
N163 N 0.0087 0.05854 0.23067 0.0
Co164 Co 0.9665 0.06497 0.24048 0.0
N165 N 0.98098 0.06238 0.26564 0.0
C166 C 0.0106 0.05807 0.27093 0.0
C167 C 0.01495 0.05775 0.28904 0.0
C168 C 0.98633 0.06212 0.29577 0.0
C169 C 0.96583 0.06476 0.2813 0.0
N170 N 0.92327 0.07103 0.25027 0.0
C171 C 0.91213 0.07209 0.26737 0.0
C172 C 0.87916 0.0762 0.26816 0.0
C173 C 0.86915 0.07782 0.25097 0.0
C174 C 0.89632 0.07456 0.24069 0.0
N175 N 0.9536 0.06806 0.21531 0.0
C176 C 0.92475 0.07264 0.20994 0.0
C177 C 0.92444 0.07435 0.19201 0.0
C178 C 0.95541 0.07083 0.18559 0.0
C179 C 0.97285 0.06716 0.20004 0.0
N180 N 0.9371 0.05422 0.23937 0.0
C181 C 0.89021 0.03988 0.24117 0.0
C182 C 0.8828 0.04686 0.23008 0.0
C183 C 0.90634 0.05384 0.22933 0.0
C184 C 0.92243 0.04007 0.25077 0.0
C185 C 0.94539 0.04719 0.24958 0.0
N186 N 0.9952 0.0757 0.24172 0.0
C187 C 0.99842 0.09116 0.23952 0.0
C188 C 0.03511 0.09107 0.24325 0.0
C189 C 0.05163 0.08314 0.24612 0.0
C190 C 0.03123 0.07559 0.24548 0.0
C191 C 0.97923 0.08348 0.23866 0.0
H192 H 0.04509 0.06971 0.24807 0.0
H193 H 0.95146 0.084 0.2354 0.0
H194 H 0.89845 0.05891 0.22073 0.0
H195 H 0.96945 0.04688 0.25725 0.0
C196 C 0.03249 0.05394 0.25859 0.0
C197 C 0.00778 0.06295 0.19861 0.0
C198 C 0.93149 0.06916 0.28317 0.0
C199 C 0.89867 0.07529 0.22215 0.0
H200 H 0.06962 0.05187 0.20165 0.0
H201 H 0.08188 0.04656 0.23437 0.0
H202 H 0.03611 0.05461 0.29646 0.0
H203 H 0.98091 0.06313 0.30979 0.0
H204 H 0.86389 0.07786 0.27993 0.0
H205 H 0.8451 0.08107 0.24651 0.0
H206 H 0.9044 0.07786 0.18456 0.0
H207 H 0.96439 0.07102 0.17188 0.0
H208 H 0.85827 0.04709 0.22235 0.0
H209 H 0.93002 0.03475 0.25923 0.0
H210 H 0.98459 0.09714 0.23696 0.0
H211 H 0.08002 0.08278 0.24913 0.0
C212 C 0.71669 0.94537 0.95033 0.0
C213 C 0.69887 0.94181 0.93587 0.0
C214 C 0.66837 0.93811 0.94241 0.0
C215 C 0.66929 0.93962 0.96041 0.0
N216 N 0.6981 0.94424 0.96573 0.0
Co217 Co 0.71187 0.94714 0.9909 0.0
N218 N 0.66936 0.94081 0.00081 0.0
C219 C 0.64266 0.93708 0.99135 0.0
C220 C 0.61614 0.9336 0.00174 0.0
C221 C 0.6263 0.93528 0.01888 0.0
C222 C 0.65871 0.93964 0.01795 0.0
N223 N 0.72686 0.94968 0.01602 0.0
C224 C 0.71198 0.94725 0.03171 0.0
C225 C 0.73251 0.94994 0.04614 0.0
C226 C 0.76087 0.95438 0.03935 0.0
C227 C 0.75633 0.95406 0.02126 0.0
N228 N 0.75358 0.95374 0.981 0.0
C229 C 0.77759 0.95844 0.99035 0.0
C230 C 0.80399 0.96201 0.98008 0.0
C231 C 0.7968 0.95935 0.96316 0.0
C232 C 0.76609 0.9543 0.96405 0.0
N233 N 0.68192 0.95778 0.99039 0.0
C234 C 0.63468 0.97194 0.99353 0.0
C235 C 0.66901 0.97215 0.0011 0.0
C236 C 0.69199 0.96506 0.99939 0.0
C237 C 0.62528 0.96471 0.98361 0.0
C238 C 0.64913 0.95783 0.98207 0.0
N239 N 0.7412 0.93649 0.99155 0.0
C240 C 0.79794 0.92917 0.9957 0.0
C241 C 0.78221 0.92122 0.99178 0.0
C242 C 0.74548 0.92112 0.98794 0.0
C243 C 0.72584 0.92873 0.98774 0.0
C244 C 0.77709 0.93665 0.9956 0.0
H245 H 0.69815 0.92815 0.98444 0.0
H246 H 0.79055 0.94251 0.99874 0.0
H247 H 0.71747 0.96556 0.00578 0.0
H248 H 0.63998 0.95259 0.97429 0.0
C249 C 0.64423 0.93657 0.97275 0.0
C250 C 0.75151 0.94962 0.94881 0.0
C251 C 0.67794 0.94272 0.03366 0.0
C252 C 0.77823 0.95817 0.0089 0.0
H253 H 0.70739 0.94178 0.92208 0.0
H254 H 0.64835 0.93457 0.93498 0.0
H255 H 0.59232 0.93023 0.99738 0.0
H256 H 0.61145 0.93351 0.03072 0.0
H257 H 0.72731 0.9489 0.06017 0.0
H258 H 0.78204 0.95754 0.04674 0.0
H259 H 0.82704 0.96566 0.98451 0.0
H260 H 0.81345 0.96068 0.9517 0.0
H261 H 0.67772 0.97764 0.0088 0.0
H262 H 0.59943 0.96433 0.97703 0.0
H263 H 0.82633 0.92967 0.99859 0.0
H264 H 0.73153 0.91517 0.98523 0.0
C265 C 0.04 0.81667 0.95054 0.0
C266 C 0.05771 0.82029 0.93612 0.0
C267 C 0.08815 0.82401 0.94269 0.0
C268 C 0.0873 0.82245 0.96067 0.0
N269 N 0.05858 0.81779 0.96595 0.0
Co270 Co 0.04503 0.81477 0.99109 0.0
N271 N 0.08739 0.82114 0.00105 0.0
C272 C 0.11393 0.82495 0.99163 0.0
C273 C 0.14033 0.82846 0.00207 0.0
C274 C 0.13025 0.82673 0.01918 0.0
C275 C 0.098 0.82229 0.01821 0.0
N276 N 0.03028 0.8121 0.01617 0.0
C277 C 0.0451 0.81451 0.03189 0.0
C278 C 0.02475 0.81173 0.0463 0.0
C279 C 0.99656 0.80724 0.03946 0.0
C280 C 1.00101 0.80763 0.02136 0.0
N281 N 1.00341 0.80816 0.98111 0.0
C282 C 0.97956 0.80339 0.9904 0.0
C283 C 0.95315 0.79983 0.98009 0.0
C284 C 0.96018 0.80257 0.96322 0.0
C285 C 0.99081 0.80764 0.96417 0.0
N286 N 0.07525 0.80418 0.99033 0.0
C287 C 0.12283 0.79007 0.99321 0.0
C288 C 0.08847 0.78977 0.00072 0.0
C289 C 0.06532 0.79683 0.99913 0.0
C290 C 0.1321 0.79736 0.98346 0.0
C291 C 0.10809 0.80421 0.98205 0.0
N292 N 0.01543 0.82537 0.99201 0.0
C293 C 0.95878 0.8326 0.99703 0.0
C294 C 0.97451 0.84058 0.9936 0.0
C295 C 0.01088 0.84078 0.98919 0.0
C296 C 0.03055 0.83318 0.98833 0.0
C297 C 0.97966 0.82513 0.99632 0.0
H298 H 0.058 0.8338 0.9846 0.0
H299 H 0.96639 0.81924 0.99933 0.0
H300 H 0.03982 0.79626 0.00547 0.0
H301 H 0.11715 0.80951 0.97441 0.0
C302 C 0.11231 0.8255 0.97304 0.0
C303 C 0.00527 0.81238 0.94897 0.0
C304 C 0.07887 0.81916 0.03389 0.0
C305 C 0.97909 0.80355 0.00895 0.0
H306 H 0.04917 0.82035 0.92233 0.0
H307 H 0.10808 0.82759 0.9353 0.0
H308 H 0.16401 0.8319 0.99774 0.0
H309 H 0.14504 0.82851 0.03104 0.0
H310 H 0.02992 0.81275 0.06034 0.0
H311 H 0.97552 0.80402 0.0468 0.0
H312 H 0.93022 0.79613 0.98449 0.0
H313 H 0.94349 0.80127 0.95175 0.0
H314 H 0.07984 0.78423 0.00829 0.0
H315 H 0.15796 0.79781 0.97693 0.0
H316 H 0.93064 0.83215 1.00054 0.0
H317 H 0.02409 0.84679 0.98614 0.0
C318 C 0.72112 0.8162 0.80113 0.0
C319 C 0.70408 0.81984 0.81572 0.0
C320 C 0.67297 0.82339 0.80953 0.0
C321 C 0.67284 0.82173 0.79158 0.0
N322 N 0.70152 0.81715 0.78599 0.0
Co323 Co 0.71388 0.81414 0.76071 0.0
N324 N 0.67067 0.82031 0.75124 0.0
C325 C 0.64392 0.82381 0.761 0.0
C326 C 0.61677 0.8272 0.75088 0.0
C327 C 0.6266 0.8257 0.73362 0.0
C328 C 0.65945 0.82152 0.7342 0.0
N329 N 0.72785 0.81161 0.73545 0.0
C330 C 0.71268 0.81414 0.71991 0.0
C331 C 0.73282 0.81152 0.7053 0.0
C332 C 0.76124 0.80701 0.71182 0.0
C333 C 0.75714 0.80724 0.72995 0.0
N334 N 0.75609 0.80761 0.7702 0.0
C335 C 0.7792 0.80276 0.76066 0.0
C336 C 0.80605 0.7992 0.77067 0.0
C337 C 0.80007 0.80202 0.78759 0.0
C338 C 0.76956 0.80715 0.78698 0.0
N339 N 0.68423 0.80342 0.76178 0.0
C340 C 0.6372 0.78911 0.76016 0.0
C341 C 0.66904 0.78932 0.75027 0.0
C342 C 0.69206 0.79642 0.75137 0.0
C343 C 0.63021 0.79605 0.77142 0.0
C344 C 0.6538 0.80302 0.77206 0.0
N345 N 0.74282 0.82482 0.75953 0.0
C346 C 0.7992 0.83219 0.75461 0.0
C347 C 0.78308 0.84013 0.75792 0.0
C348 C 0.74659 0.84025 0.76215 0.0
C349 C 0.72723 0.8326 0.76301 0.0
C350 C 0.77865 0.82466 0.75533 0.0
H351 H 0.69963 0.83313 0.7666 0.0
H352 H 0.79219 0.81878 0.75243 0.0
H353 H 0.71582 0.79612 0.74348 0.0
H354 H 0.64622 0.80807 0.7808 0.0
C355 C 0.64656 0.82444 0.77954 0.0
C356 C 0.75603 0.81197 0.80228 0.0
C357 C 0.67863 0.8187 0.71827 0.0
C358 C 0.7791 0.80301 0.74211 0.0
H359 H 0.71342 0.82 0.82938 0.0
H360 H 0.65317 0.8269 0.81715 0.0
H361 H 0.5929 0.83047 0.75549 0.0
H362 H 0.61133 0.82749 0.72192 0.0
H363 H 0.72732 0.81264 0.69132 0.0
H364 H 0.78215 0.80386 0.70425 0.0
H365 H 0.82871 0.79548 0.76601 0.0
H366 H 0.81737 0.80075 0.79884 0.0
H367 H 0.67628 0.78402 0.74166 0.0
H368 H 0.60597 0.79626 0.77937 0.0
H369 H 0.8274 0.8318 0.75121 0.0
H370 H 0.73306 0.84623 0.76508 0.0
C371 C 0.03621 0.94527 0.80118 0.0
C372 C 0.05347 0.94168 0.81576 0.0
C373 C 0.08454 0.93814 0.80952 0.0
C374 C 0.08444 0.93975 0.79155 0.0
N375 N 0.05564 0.9443 0.786 0.0
Co376 Co 0.04291 0.94722 0.76072 0.0
N377 N 0.08631 0.94113 0.7512 0.0
C378 C 0.11324 0.93769 0.76093 0.0
C379 C 0.14054 0.93439 0.75078 0.0
C380 C 0.13065 0.93589 0.73353 0.0
C381 C 0.09762 0.93998 0.73415 0.0
N382 N 0.02858 0.94964 0.73547 0.0
C383 C 0.04384 0.94715 0.71992 0.0
C384 C 0.02337 0.94965 0.70533 0.0
C385 C 0.99468 0.95405 0.71187 0.0
C386 C 0.99895 0.95388 0.72999 0.0
N387 N 1.00057 0.95369 0.77024 0.0
C388 C 0.97714 0.95844 0.76069 0.0
C389 C 0.95033 0.962 0.77072 0.0
C390 C 0.95671 0.95928 0.78768 0.0
C391 C 0.98737 0.95422 0.78706 0.0
N392 N 0.07215 0.95799 0.7616 0.0
C393 C 0.11862 0.9724 0.75982 0.0
C394 C 0.08676 0.97209 0.74994 0.0
C395 C 0.064 0.96494 0.75113 0.0
C396 C 0.12593 0.9655 0.77112 0.0
C397 C 0.10261 0.95848 0.77185 0.0
N398 N 0.01435 0.93646 0.75975 0.0
C399 C 0.95797 0.92897 0.75571 0.0
C400 C 0.97424 0.92105 0.75932 0.0
C401 C 0.0111 0.92105 0.76291 0.0
C402 C 0.03031 0.92873 0.7632 0.0
C403 C 0.97838 0.93652 0.75589 0.0
H404 H 0.05816 0.92825 0.76631 0.0
H405 H 0.96453 0.94236 0.75298 0.0
H406 H 0.04018 0.96516 0.74325 0.0
H407 H 0.11042 0.95347 0.78061 0.0
C408 C 0.1107 0.93706 0.77947 0.0
C409 C 1.00129 0.94949 0.8024 0.0
C410 C 0.07833 0.94279 0.71825 0.0
C411 C 0.97697 0.9581 0.74215 0.0
H412 H 0.04431 0.94156 0.82945 0.0
H413 H 0.10451 0.93467 0.81711 0.0
H414 H 0.16459 0.93118 0.75538 0.0
H415 H 0.14601 0.93416 0.72183 0.0
H416 H 0.02886 0.94853 0.69135 0.0
H417 H 0.97352 0.95712 0.70431 0.0
H418 H 0.92747 0.96566 0.76608 0.0
H419 H 0.93955 0.96059 0.79897 0.0
H420 H 0.07931 0.97735 0.74129 0.0
H421 H 0.15022 0.96535 0.77905 0.0
H422 H 0.92948 0.92939 0.75301 0.0
H423 H 0.02543 0.91514 0.76538 0.0
C424 C 0.23631 0.55778 0.53793 0.0
C425 C 0.20559 0.55274 0.53888 0.0
C426 C 0.19911 0.54978 0.5221 0.0
C427 C 0.2259 0.55319 0.51182 0.0
N428 N 0.24942 0.55807 0.52106 0.0
Co429 Co 0.29163 0.56444 0.51107 0.0
N430 N 0.277 0.56172 0.48597 0.0
C431 C 0.2474 0.55736 0.48082 0.0
C432 C 0.24281 0.55699 0.46273 0.0
C433 C 0.27123 0.56139 0.45586 0.0
C434 C 0.29188 0.56409 0.47025 0.0
N435 N 0.33483 0.57044 0.5011 0.0
C436 C 0.34572 0.57148 0.48396 0.0
C437 C 0.37871 0.57559 0.48304 0.0
C438 C 0.38898 0.57722 0.50018 0.0
C439 C 0.36193 0.57398 0.51058 0.0
N440 N 0.30468 0.56765 0.53616 0.0
C441 C 0.33366 0.57222 0.54141 0.0
C442 C 0.33409 0.57402 0.5593 0.0
C443 C 0.30306 0.57057 0.56582 0.0
C444 C 0.28547 0.56685 0.55147 0.0
N445 N 0.32095 0.55369 0.51235 0.0
C446 C 0.36788 0.53938 0.51069 0.0
C447 C 0.37519 0.54636 0.52178 0.0
C448 C 0.35163 0.55333 0.52246 0.0
C449 C 0.33571 0.53953 0.50105 0.0
C450 C 0.31273 0.54663 0.50219 0.0
N451 N 0.26305 0.57515 0.50965 0.0
C452 C 0.25988 0.5906 0.51176 0.0
C453 C 0.22329 0.59051 0.50775 0.0
C454 C 0.20681 0.58258 0.50481 0.0
C455 C 0.22712 0.57503 0.50566 0.0
C456 C 0.279 0.58293 0.51276 0.0
H457 H 0.21331 0.56915 0.50304 0.0
H458 H 0.3067 0.58344 0.51617 0.0
H459 H 0.35945 0.55841 0.53106 0.0
H460 H 0.28871 0.54629 0.49449 0.0
C461 C 0.22559 0.55329 0.49327 0.0
C462 C 0.25048 0.56267 0.55301 0.0
C463 C 0.32608 0.56856 0.46823 0.0
C464 C 0.35974 0.57478 0.52911 0.0
H465 H 0.18849 0.5516 0.55028 0.0
H466 H 0.17618 0.54608 0.5177 0.0
H467 H 0.22157 0.55383 0.4554 0.0
H468 H 0.27636 0.56239 0.44182 0.0
H469 H 0.39379 0.57724 0.4712 0.0
H470 H 0.41308 0.58049 0.50454 0.0
H471 H 0.35424 0.57755 0.56667 0.0
H472 H 0.29415 0.57084 0.57954 0.0
H473 H 0.39968 0.54661 0.52955 0.0
H474 H 0.32821 0.53419 0.4926 0.0
H475 H 0.27368 0.59659 0.5144 0.0
H476 H 0.17852 0.58221 0.50158 0.0
C477 C 0.0195 0.70443 0.53677 0.0
C478 C 0.05021 0.70948 0.53759 0.0
C479 C 0.05682 0.71227 0.5207 0.0
C480 C 0.0301 0.70876 0.51051 0.0
N481 N 0.00651 0.70397 0.5199 0.0
Co482 Co 0.9643 0.69753 0.5101 0.0
N483 N 0.97888 0.70008 0.48493 0.0
C484 C 0.00851 0.70439 0.47963 0.0
C485 C 0.01291 0.70467 0.46153 0.0
C486 C 0.98432 0.70029 0.4548 0.0
C487 C 0.96378 0.69767 0.46928 0.0
N488 N 0.92107 0.69146 0.50031 0.0
C489 C 0.91001 0.69036 0.48321 0.0
C490 C 0.87702 0.68625 0.48241 0.0
C491 C 0.86691 0.68467 0.49959 0.0
C492 C 0.89405 0.68795 0.50989 0.0
N493 N 0.95126 0.69449 0.53528 0.0
C494 C 0.92238 0.68991 0.54065 0.0
C495 C 0.92193 0.68826 0.5586 0.0
C496 C 0.95283 0.69181 0.56503 0.0
C497 C 0.97037 0.69545 0.55058 0.0
N498 N 0.935 0.70828 0.51112 0.0
C499 C 0.88846 0.72266 0.50945 0.0
C500 C 0.88097 0.71569 0.52053 0.0
C501 C 0.90433 0.70868 0.52121 0.0
C502 C 0.92054 0.72244 0.49975 0.0
C503 C 0.94334 0.7153 0.50088 0.0
N504 N 0.99291 0.6868 0.509 0.0
C505 C 0.99628 0.6714 0.5121 0.0
C506 C 0.03312 0.67143 0.50851 0.0
C507 C 0.04934 0.67935 0.50491 0.0
C508 C 0.02887 0.68689 0.50513 0.0
C509 C 0.977 0.67906 0.51241 0.0
H510 H 0.04267 0.69275 0.50226 0.0
H511 H 0.94916 0.67855 0.5155 0.0
H512 H 0.89636 0.70362 0.5298 0.0
H513 H 0.96733 0.71558 0.49315 0.0
C514 C 0.03041 0.70852 0.49197 0.0
C515 C 0.00525 0.69968 0.55202 0.0
C516 C 0.92945 0.69325 0.4674 0.0
C517 C 0.89632 0.68725 0.52843 0.0
H518 H 0.0672 0.71073 0.54897 0.0
H519 H 0.07975 0.71594 0.5162 0.0
H520 H 0.0341 0.7078 0.4541 0.0
H521 H 0.97894 0.69926 0.44078 0.0
H522 H 0.8618 0.68456 0.47063 0.0
H523 H 0.84284 0.68143 0.50405 0.0
H524 H 0.90182 0.68477 0.56606 0.0
H525 H 0.96168 0.69167 0.57877 0.0
H526 H 0.85651 0.71548 0.52832 0.0
H527 H 0.92812 0.72776 0.49127 0.0
H528 H 0.98203 0.66546 0.51456 0.0
H529 H 0.07781 0.67979 0.50219 0.0
C530 C 0.23843 0.70367 0.71602 0.0
C531 C 0.20773 0.70873 0.71597 0.0
C532 C 0.20207 0.71126 0.73313 0.0
C533 C 0.22932 0.70759 0.7427 0.0
N534 N 0.25235 0.70295 0.73267 0.0
Co535 Co 0.29504 0.69636 0.74145 0.0
N536 N 0.28185 0.69851 0.76697 0.0
C537 C 0.2525 0.70271 0.77295 0.0
C538 C 0.24895 0.70266 0.79111 0.0
C539 C 0.27781 0.69815 0.79715 0.0
C540 C 0.29767 0.69581 0.78223 0.0
N541 N 0.33876 0.69015 0.75022 0.0
C542 C 0.35073 0.68877 0.76708 0.0
C543 C 0.38381 0.68468 0.76712 0.0
C544 C 0.39296 0.68339 0.7497 0.0
C545 C 0.36524 0.68681 0.74003 0.0
N546 N 0.30667 0.69372 0.7159 0.0
C547 C 0.33521 0.68924 0.70983 0.0
C548 C 0.33466 0.68786 0.69178 0.0
C549 C 0.30342 0.6915 0.68602 0.0
C550 C 0.28671 0.69491 0.70095 0.0
N551 N 0.32431 0.70713 0.74079 0.0
C552 C 0.37068 0.72156 0.7427 0.0
C553 C 0.37779 0.71473 0.73118 0.0
C554 C 0.35452 0.7077 0.73039 0.0
C555 C 0.33908 0.72117 0.75277 0.0
C556 C 0.31638 0.71401 0.75153 0.0
N557 N 0.26642 0.68561 0.74218 0.0
C558 C 0.2629 0.67023 0.73846 0.0
C559 C 0.22616 0.67021 0.74237 0.0
C560 C 0.2101 0.67811 0.74638 0.0
C561 C 0.23058 0.68566 0.74634 0.0
C562 C 0.28217 0.67791 0.73828 0.0
H563 H 0.21688 0.69147 0.7496 0.0
H564 H 0.30989 0.67744 0.73489 0.0
H565 H 0.36214 0.70275 0.72143 0.0
H566 H 0.29279 0.71416 0.75957 0.0
C567 C 0.22997 0.70704 0.76122 0.0
C568 C 0.25175 0.69914 0.70028 0.0
C569 C 0.33206 0.69135 0.78335 0.0
C570 C 0.36191 0.68639 0.7215 0.0
H571 H 0.19011 0.71016 0.70492 0.0
H572 H 0.17941 0.71485 0.73819 0.0
H573 H 0.2281 0.70563 0.79903 0.0
H574 H 0.28377 0.69684 0.811 0.0
H575 H 0.39971 0.68281 0.77855 0.0
H576 H 0.41679 0.68023 0.74469 0.0
H577 H 0.35433 0.68449 0.68381 0.0
H578 H 0.2938 0.69157 0.6724 0.0
H579 H 0.40187 0.71465 0.7231 0.0
H580 H 0.33177 0.72638 0.76161 0.0
H581 H 0.27713 0.66433 0.73568 0.0
H582 H 0.18171 0.67853 0.74932 0.0
C583 C 0.02145 0.55704 0.71702 0.0
C584 C 0.05069 0.55155 0.71579 0.0
C585 C 0.05409 0.54765 0.73207 0.0
C586 C 0.0271 0.55102 0.74237 0.0
N587 N 0.00696 0.55678 0.73354 0.0
Co588 Co 0.96657 0.56351 0.74353 0.0
N589 N 0.98297 0.56142 0.7683 0.0
C590 C 0.0066 0.55538 0.77349 0.0
C591 C 0.01353 0.55557 0.79143 0.0
C592 C 0.99254 0.56203 0.798 0.0
C593 C 0.97359 0.5654 0.78364 0.0
N594 N 0.92574 0.57015 0.75344 0.0
C595 C 0.92016 0.57315 0.77018 0.0
C596 C 0.8869 0.57712 0.77145 0.0
C597 C 0.87106 0.57647 0.755 0.0
C598 C 0.89536 0.57214 0.7446 0.0
N599 N 0.95078 0.5656 0.71869 0.0
C600 C 0.9178 0.56803 0.71348 0.0
C601 C 0.91543 0.56916 0.69534 0.0
C602 C 0.94907 0.56733 0.68882 0.0
C603 C 0.97008 0.5652 0.70341 0.0
N604 N 0.93682 0.55309 0.74456 0.0
C605 C 0.88801 0.53933 0.7453 0.0
C606 C 0.91031 0.54068 0.73046 0.0
C607 C 0.93447 0.54761 0.73034 0.0
C608 C 0.89195 0.54479 0.75998 0.0
C609 C 0.91642 0.55155 0.75938 0.0
N610 N 0.99559 0.57398 0.74262 0.0
C611 C 0.99945 0.58914 0.73691 0.0
C612 C 0.03512 0.58928 0.74274 0.0
C613 C 0.0509 0.58156 0.74815 0.0
C614 C 0.03059 0.57399 0.74814 0.0
C615 C 0.98035 0.58144 0.73679 0.0
H616 H 0.04307 0.56817 0.75277 0.0
H617 H 0.95304 0.58156 0.73211 0.0
H618 H 0.95061 0.54866 0.71859 0.0
H619 H 0.91803 0.55565 0.77087 0.0
C620 C 0.02526 0.55049 0.76093 0.0
C621 C 0.00746 0.56229 0.70234 0.0
C622 C 0.9435 0.57143 0.78557 0.0
C623 C 0.89264 0.57078 0.72615 0.0
H624 H 0.0683 0.55055 0.70453 0.0
H625 H 0.07521 0.54333 0.73623 0.0
H626 H 0.03219 0.55161 0.79881 0.0
H627 H 0.99066 0.5639 0.81187 0.0
H628 H 0.87499 0.58001 0.78317 0.0
H629 H 0.84516 0.57897 0.75104 0.0
H630 H 0.89257 0.57145 0.68783 0.0
H631 H 0.95723 0.56755 0.67498 0.0
H632 H 0.90827 0.53661 0.71881 0.0
H633 H 0.87596 0.54389 0.77189 0.0
H634 H 0.98639 0.59495 0.73237 0.0
H635 H 0.07843 0.5814 0.75279 0.0
C636 C 0.72016 0.4455 0.45077 0.0
C637 C 0.70322 0.44195 0.43604 0.0
C638 C 0.67208 0.43835 0.44206 0.0
C639 C 0.67179 0.4399 0.46005 0.0
N640 N 0.70041 0.44445 0.46583 0.0
Co641 Co 0.71243 0.44735 0.49122 0.0
N642 N 0.66908 0.44112 0.50041 0.0
C643 C 0.6425 0.43765 0.49048 0.0
C644 C 0.61516 0.43422 0.50041 0.0
C645 C 0.62469 0.43565 0.51773 0.0
C646 C 0.6576 0.43982 0.51738 0.0
N647 N 0.72596 0.44977 0.5166 0.0
C648 C 0.71058 0.44716 0.53204 0.0
C649 C 0.73055 0.44971 0.54677 0.0
C650 C 0.75905 0.45426 0.54043 0.0
C651 C 0.75518 0.45413 0.52228 0.0
N652 N 0.75482 0.45392 0.482 0.0
C653 C 0.77786 0.45871 0.49173 0.0
C654 C 0.80494 0.46229 0.48189 0.0
C655 C 0.79916 0.45954 0.46489 0.0
C656 C 0.76856 0.45445 0.46528 0.0
N657 N 0.68283 0.45806 0.49025 0.0
C658 C 0.63595 0.47238 0.49201 0.0
C659 C 0.66795 0.47217 0.50178 0.0
C660 C 0.6909 0.46506 0.50061 0.0
C661 C 0.62873 0.46544 0.4808 0.0
C662 C 0.65226 0.45846 0.48007 0.0
N663 N 0.74134 0.43667 0.49232 0.0
C664 C 0.79764 0.42931 0.49735 0.0
C665 C 0.78163 0.42138 0.49379 0.0
C666 C 0.74523 0.42126 0.48938 0.0
C667 C 0.72584 0.42891 0.48858 0.0
C668 C 0.77708 0.43682 0.4967 0.0
H669 H 0.69832 0.42838 0.48484 0.0
H670 H 0.79055 0.44269 0.4998 0.0
H671 H 0.71476 0.46536 0.50841 0.0
H672 H 0.64454 0.45342 0.47136 0.0
C673 C 0.6454 0.43711 0.47194 0.0
C674 C 0.75513 0.44972 0.44981 0.0
C675 C 0.67658 0.44255 0.53347 0.0
C676 C 0.77743 0.45838 0.51027 0.0
H677 H 0.71266 0.44188 0.42239 0.0
H678 H 0.65233 0.43489 0.4343 0.0
H679 H 0.59134 0.43098 0.49563 0.0
H680 H 0.60915 0.43382 0.5293 0.0
H681 H 0.72494 0.4485 0.56069 0.0
H682 H 0.7799 0.45737 0.54814 0.0
H683 H 0.82759 0.46597 0.48671 0.0
H684 H 0.81664 0.46085 0.45372 0.0
H685 H 0.67538 0.47748 0.51034 0.0
H686 H 0.60435 0.46522 0.47294 0.0
H687 H 0.82578 0.4297 0.50091 0.0
H688 H 0.73179 0.41529 0.48625 0.0
C689 C 0.03543 0.31678 0.44987 0.0
C690 C 0.05294 0.32044 0.43542 0.0
C691 C 0.08415 0.32386 0.44182 0.0
C692 C 0.08389 0.32211 0.45973 0.0
N693 N 0.05487 0.31759 0.4651 0.0
Co694 Co 0.04191 0.31452 0.49028 0.0
N695 N 0.08525 0.32054 0.50006 0.0
C696 C 0.11242 0.32397 0.49048 0.0
C697 C 0.13961 0.32723 0.50077 0.0
C698 C 0.12935 0.32572 0.51797 0.0
C699 C 0.09623 0.32166 0.51717 0.0
N700 N 0.02732 0.31197 0.51544 0.0
C701 C 0.04231 0.31441 0.5311 0.0
C702 C 0.02174 0.31179 0.54556 0.0
C703 C 0.99323 0.30738 0.53882 0.0
C704 C 0.99772 0.30765 0.52072 0.0
N705 N 0.9996 0.30813 0.48046 0.0
C706 C 0.97615 0.30329 0.48981 0.0
C707 C 0.94925 0.29986 0.47964 0.0
C708 C 0.95556 0.30276 0.4628 0.0
C709 C 0.9863 0.3078 0.46363 0.0
N710 N 0.0711 0.30374 0.48921 0.0
C711 C 0.11787 0.2894 0.49104 0.0
C712 C 0.08601 0.28966 0.50091 0.0
C713 C 0.0631 0.29678 0.49969 0.0
C714 C 0.12495 0.29628 0.47966 0.0
C715 C 0.10147 0.30327 0.4789 0.0
N716 N 0.01348 0.32527 0.49143 0.0
C717 C 0.95713 0.33275 0.4955 0.0
C718 C 0.97347 0.34067 0.49202 0.0
C719 C 0.01035 0.34068 0.48849 0.0
C720 C 0.02953 0.33301 0.48812 0.0
C721 C 0.9775 0.32519 0.49526 0.0
H722 H 0.05741 0.33349 0.48506 0.0
H723 H 0.96363 0.31934 0.49806 0.0
H724 H 0.03931 0.29653 0.50757 0.0
H725 H 0.10912 0.30826 0.47006 0.0
C726 C 0.11013 0.32468 0.47194 0.0
C727 C 1.00027 0.31267 0.44848 0.0
C728 C 0.07658 0.31886 0.53299 0.0
C729 C 0.9759 0.3035 0.50837 0.0
H730 H 0.04385 0.32069 0.42173 0.0
H731 H 0.10429 0.32734 0.43436 0.0
H732 H 0.16377 0.33043 0.49632 0.0
H733 H 0.14453 0.32742 0.52975 0.0
H734 H 0.02703 0.31285 0.55958 0.0
H735 H 0.97204 0.30425 0.54624 0.0
H736 H 0.92631 0.29619 0.48414 0.0
H737 H 0.93831 0.3016 0.45147 0.0
H738 H 0.07867 0.2844 0.50959 0.0
H739 H 0.1492 0.29645 0.47171 0.0
H740 H 0.92863 0.33232 0.49815 0.0
H741 H 0.02472 0.34661 0.48613 0.0
C742 C 0.71852 0.31597 0.29846 0.0
C743 C 0.69734 0.31819 0.31293 0.0
C744 C 0.66372 0.31993 0.30629 0.0
C745 C 0.66627 0.31865 0.28819 0.0
N746 N 0.69934 0.31623 0.28312 0.0
Co747 Co 0.71535 0.31396 0.25836 0.0
N748 N 0.67427 0.32041 0.24816 0.0
C749 C 0.64378 0.3224 0.25688 0.0
C750 C 0.61928 0.32655 0.24629 0.0
C751 C 0.63514 0.32709 0.22983 0.0
C752 C 0.66859 0.32323 0.23129 0.0
N753 N 0.73208 0.31174 0.23369 0.0
C754 C 0.72264 0.31558 0.2182 0.0
C755 C 0.74197 0.31218 0.204 0.0
C756 C 0.76322 0.30582 0.2108 0.0
C757 C 0.75609 0.30574 0.22873 0.0
N758 N 0.75591 0.30739 0.26864 0.0
C759 C 0.77634 0.30161 0.26003 0.0
C760 C 0.80328 0.29835 0.27048 0.0
C761 C 0.79955 0.30233 0.28666 0.0
C762 C 0.77017 0.30777 0.2852 0.0
N763 N 0.68605 0.30346 0.25762 0.0
C764 C 0.6393 0.28928 0.25683 0.0
C765 C 0.6437 0.29454 0.24187 0.0
C766 C 0.66688 0.30155 0.24256 0.0
C767 C 0.65944 0.29119 0.27216 0.0
C768 C 0.68293 0.29824 0.27221 0.0
N769 N 0.74395 0.32451 0.25899 0.0
C770 C 0.79918 0.33214 0.25357 0.0
C771 C 0.78314 0.33988 0.25876 0.0
C772 C 0.74733 0.33971 0.26438 0.0
C773 C 0.7284 0.33199 0.26455 0.0
C774 C 0.77905 0.32454 0.25364 0.0
H775 H 0.70099 0.33209 0.26908 0.0
H776 H 0.79179 0.31872 0.24922 0.0
H777 H 0.66858 0.30554 0.2309 0.0
H778 H 0.69815 0.29956 0.28415 0.0
C779 C 0.64105 0.32122 0.27539 0.0
C780 C 0.75591 0.31308 0.29972 0.0
C781 C 0.69213 0.32146 0.216 0.0
C782 C 0.77477 0.30097 0.24147 0.0
H783 H 0.70537 0.31851 0.32678 0.0
H784 H 0.64073 0.32223 0.31368 0.0
H785 H 0.59326 0.32902 0.25013 0.0
H786 H 0.62312 0.32983 0.21799 0.0
H787 H 0.74012 0.31393 0.19007 0.0
H788 H 0.78216 0.30187 0.20359 0.0
H789 H 0.82457 0.29403 0.2665 0.0
H790 H 0.81702 0.30142 0.29801 0.0
H791 H 0.62848 0.29339 0.2298 0.0
H792 H 0.65719 0.28725 0.28399 0.0
H793 H 0.82681 0.33199 0.24909 0.0
H794 H 0.73405 0.34552 0.26876 0.0
C795 C 0.0371 0.44503 0.3006 0.0
C796 C 0.05442 0.4414 0.31512 0.0
C797 C 0.08527 0.43779 0.30878 0.0
C798 C 0.085 0.4394 0.29081 0.0
N799 N 0.0563 0.44401 0.28535 0.0
Co800 Co 0.04344 0.44697 0.2601 0.0
N801 N 0.08665 0.44085 0.25046 0.0
C802 C 0.11353 0.43734 0.26013 0.0
C803 C 0.14074 0.43404 0.24993 0.0
C804 C 0.13084 0.4356 0.23271 0.0
C805 C 0.09789 0.43974 0.23339 0.0
N806 N 0.02899 0.44943 0.23488 0.0
C807 C 0.04421 0.44699 0.21929 0.0
C808 C 0.02373 0.44955 0.20474 0.0
C809 C 0.99505 0.45393 0.21137 0.0
C810 C 0.99936 0.4537 0.22948 0.0
N811 N 1.0013 0.45348 0.26975 0.0
C812 C 0.97781 0.45825 0.26025 0.0
C813 C 0.95116 0.46183 0.27035 0.0
C814 C 0.9577 0.45912 0.2873 0.0
C815 C 0.98831 0.45404 0.28661 0.0
N816 N 0.07291 0.45771 0.26098 0.0
C817 C 0.11959 0.47208 0.25922 0.0
C818 C 0.08752 0.47185 0.24949 0.0
C819 C 0.06466 0.46471 0.25067 0.0
C820 C 0.12702 0.46512 0.27034 0.0
C821 C 0.1036 0.45812 0.27107 0.0
N822 N 0.01464 0.43624 0.25915 0.0
C823 C 0.95792 0.42882 0.2556 0.0
C824 C 0.97412 0.42087 0.25902 0.0
C825 C 0.01113 0.42083 0.26221 0.0
C826 C 0.03053 0.42848 0.26238 0.0
C827 C 0.97853 0.43635 0.2556 0.0
H828 H 0.05847 0.42795 0.26524 0.0
H829 H 0.96471 0.44221 0.25283 0.0
H830 H 0.04068 0.46497 0.24291 0.0
H831 H 0.1115 0.45306 0.27969 0.0
C832 C 0.11107 0.43668 0.27867 0.0
C833 C 1.00236 0.44933 0.30194 0.0
C834 C 0.07865 0.44262 0.21752 0.0
C835 C 0.97748 0.4579 0.24171 0.0
H836 H 0.04546 0.4413 0.32885 0.0
H837 H 0.10521 0.43428 0.31631 0.0
H838 H 0.16474 0.43079 0.25447 0.0
H839 H 0.14617 0.4339 0.22098 0.0
H840 H 0.02923 0.44849 0.19075 0.0
H841 H 0.97391 0.45703 0.20386 0.0
H842 H 0.9283 0.4655 0.26575 0.0
H843 H 0.9407 0.46045 0.29864 0.0
H844 H 0.07996 0.47715 0.24098 0.0
H845 H 0.15147 0.46492 0.27814 0.0
H846 H 0.92935 0.42929 0.25319 0.0
H847 H 0.02546 0.41489 0.26448 0.0
C848 C 0.73794 0.05756 0.53696 0.0
C849 C 0.70732 0.05249 0.53783 0.0
C850 C 0.7006 0.0497 0.52094 0.0
C851 C 0.72717 0.05323 0.51072 0.0
N852 N 0.75078 0.05804 0.52006 0.0
Co853 Co 0.79282 0.06452 0.51019 0.0
N854 N 0.77814 0.06192 0.48505 0.0
C855 C 0.7485 0.0576 0.47981 0.0
C856 C 0.74396 0.0573 0.46171 0.0
C857 C 0.77248 0.06169 0.45493 0.0
C858 C 0.79313 0.06432 0.46937 0.0
N859 N 0.83589 0.07062 0.50033 0.0
C860 C 0.84688 0.07169 0.4832 0.0
C861 C 0.87978 0.07584 0.48235 0.0
C862 C 0.8899 0.07747 0.49952 0.0
C863 C 0.86286 0.07418 0.50985 0.0
N864 N 0.80596 0.06759 0.53535 0.0
C865 C 0.83476 0.07221 0.54066 0.0
C866 C 0.8353 0.07388 0.55861 0.0
C867 C 0.80455 0.07028 0.5651 0.0
C868 C 0.78699 0.06661 0.55068 0.0
N869 N 0.8223 0.0538 0.5112 0.0
C870 C 0.86898 0.03944 0.50951 0.0
C871 C 0.87659 0.04646 0.52047 0.0
C872 C 0.85316 0.05345 0.52116 0.0
C873 C 0.83674 0.03961 0.49993 0.0
C874 C 0.81387 0.04674 0.50107 0.0
N875 N 0.764 0.07522 0.5091 0.0
C876 C 0.76037 0.09063 0.51206 0.0
C877 C 0.72348 0.09055 0.50857 0.0
C878 C 0.70738 0.0826 0.50511 0.0
C879 C 0.72799 0.07508 0.50534 0.0
C880 C 0.77979 0.08299 0.5124 0.0
H881 H 0.71425 0.06921 0.50256 0.0
H882 H 0.80766 0.08353 0.51541 0.0
H883 H 0.8612 0.05855 0.52965 0.0
H884 H 0.78976 0.04642 0.49344 0.0
C885 C 0.72672 0.05346 0.49217 0.0
C886 C 0.75224 0.06232 0.55219 0.0
C887 C 0.82744 0.06874 0.46744 0.0
C888 C 0.86067 0.0749 0.5284 0.0
H889 H 0.69045 0.05122 0.54924 0.0
H890 H 0.67769 0.046 0.51648 0.0
H891 H 0.72274 0.05416 0.45432 0.0
H892 H 0.77772 0.06271 0.4409 0.0
H893 H 0.89492 0.07752 0.47055 0.0
H894 H 0.91393 0.08075 0.50393 0.0
H895 H 0.85538 0.0774 0.56604 0.0
H896 H 0.7958 0.07042 0.57886 0.0
H897 H 0.90118 0.04671 0.52816 0.0
H898 H 0.82906 0.03426 0.49156 0.0
H899 H 0.77455 0.09658 0.51441 0.0
H900 H 0.67887 0.08212 0.50249 0.0
C901 C 0.51796 0.20427 0.53613 0.0
C902 C 0.54864 0.20934 0.53637 0.0
C903 C 0.55424 0.21203 0.51932 0.0
C904 C 0.527 0.20843 0.50961 0.0
N905 N 0.50401 0.20369 0.51946 0.0
Co906 Co 0.46143 0.19713 0.51043 0.0
N907 N 0.47468 0.19947 0.48499 0.0
C908 C 0.50393 0.20377 0.47918 0.0
C909 C 0.5077 0.2038 0.46103 0.0
C910 C 0.47909 0.19925 0.45483 0.0
C911 C 0.45912 0.1968 0.46963 0.0
N912 N 0.41787 0.19091 0.50142 0.0
C913 C 0.40611 0.18959 0.4845 0.0
C914 C 0.37314 0.18544 0.48429 0.0
C915 C 0.36384 0.18406 0.50165 0.0
C916 C 0.39137 0.18748 0.51147 0.0
N917 N 0.44971 0.19431 0.53588 0.0
C918 C 0.42111 0.18979 0.54179 0.0
C919 C 0.42158 0.1883 0.5598 0.0
C920 C 0.45281 0.1919 0.5657 0.0
C921 C 0.46962 0.1954 0.55088 0.0
N922 N 0.43198 0.20787 0.51138 0.0
C923 C 0.38523 0.22221 0.50961 0.0
C924 C 0.37814 0.21532 0.52096 0.0
C925 C 0.40161 0.20833 0.52169 0.0
C926 C 0.41705 0.22194 0.4997 0.0
C927 C 0.43994 0.21482 0.50088 0.0
N928 N 0.49019 0.18642 0.50935 0.0
C929 C 0.49387 0.17101 0.51229 0.0
C930 C 0.53021 0.17109 0.50777 0.0
C931 C 0.54632 0.179 0.50416 0.0
C932 C 0.52588 0.18654 0.50487 0.0
C933 C 0.47462 0.17867 0.51314 0.0
H934 H 0.53942 0.19239 0.50173 0.0
H935 H 0.44713 0.17818 0.51697 0.0
H936 H 0.39398 0.20332 0.5305 0.0
H937 H 0.46367 0.21507 0.49297 0.0
C938 C 0.52636 0.20804 0.49107 0.0
C939 C 0.50462 0.19962 0.55171 0.0
C940 C 0.42492 0.19226 0.46833 0.0
C941 C 0.39453 0.18699 0.53 0.0
H942 H 0.56627 0.21068 0.54747 0.0
H943 H 0.57689 0.21567 0.51439 0.0
H944 H 0.52858 0.20684 0.45323 0.0
H945 H 0.47343 0.19797 0.44093 0.0
H946 H 0.35742 0.1836 0.47278 0.0
H947 H 0.34004 0.18085 0.50654 0.0
H948 H 0.40187 0.18488 0.56765 0.0
H949 H 0.46238 0.19188 0.57933 0.0
H950 H 0.35391 0.21515 0.52892 0.0
H951 H 0.42438 0.22721 0.49102 0.0
H952 H 0.48038 0.16505 0.51545 0.0
H953 H 0.57441 0.17936 0.50052 0.0
C954 C 0.73829 0.20462 0.71482 0.0
C955 C 0.70801 0.2098 0.71401 0.0
C956 C 0.70187 0.21271 0.73086 0.0
C957 C 0.72842 0.20913 0.74103 0.0
N958 N 0.75144 0.20418 0.73167 0.0
Co959 Co 0.79325 0.19761 0.74147 0.0
N960 N 0.77897 0.20026 0.76663 0.0
C961 C 0.74972 0.20471 0.77192 0.0
C962 C 0.74531 0.20502 0.79003 0.0
C963 C 0.77347 0.20049 0.79676 0.0
C964 C 0.7938 0.19777 0.78229 0.0
N965 N 0.83613 0.19142 0.75124 0.0
C966 C 0.8471 0.19028 0.76834 0.0
C967 C 0.87991 0.18608 0.76912 0.0
C968 C 0.88997 0.1845 0.75193 0.0
C969 C 0.863 0.18786 0.74165 0.0
N970 N 0.80583 0.19443 0.7163 0.0
C971 C 0.83444 0.18977 0.71092 0.0
C972 C 0.83459 0.18804 0.693 0.0
C973 C 0.80375 0.19163 0.6866 0.0
C974 C 0.78657 0.19538 0.70105 0.0
N975 N 0.8233 0.20825 0.7403 0.0
C976 C 0.87159 0.22231 0.74215 0.0
C977 C 0.8777 0.21544 0.73061 0.0
C978 C 0.8535 0.20859 0.72985 0.0
C979 C 0.83972 0.22224 0.75204 0.0
C980 C 0.81609 0.21524 0.75085 0.0
N981 N 0.76396 0.18699 0.74275 0.0
C982 C 0.75982 0.17155 0.7405 0.0
C983 C 0.7232 0.17176 0.74439 0.0
C984 C 0.70719 0.17975 0.74736 0.0
C985 C 0.728 0.18723 0.74664 0.0
C986 C 0.77944 0.17916 0.73961 0.0
H987 H 0.71455 0.19315 0.74929 0.0
H988 H 0.80715 0.17856 0.73627 0.0
H989 H 0.86036 0.20361 0.72081 0.0
H990 H 0.79251 0.2156 0.75886 0.0
C991 C 0.7282 0.20894 0.75958 0.0
C992 C 0.75196 0.19973 0.69963 0.0
C993 C 0.82774 0.19318 0.78416 0.0
C994 C 0.86055 0.18713 0.72312 0.0
H995 H 0.69096 0.21108 0.70266 0.0
H996 H 0.6793 0.2165 0.73536 0.0
H997 H 0.72438 0.20824 0.79745 0.0
H998 H 0.77871 0.19942 0.81078 0.0
H999 H 0.89501 0.18434 0.7809 0.0
H1000 H 0.91387 0.1812 0.74746 0.0
H1001 H 0.85446 0.18447 0.68554 0.0
H1002 H 0.79473 0.19146 0.67289 0.0
H1003 H 0.90126 0.21528 0.72217 0.0
H1004 H 0.83341 0.22742 0.76111 0.0
H1005 H 0.77327 0.16553 0.73785 0.0
H1006 H 0.67888 0.1802 0.7505 0.0
C1007 C 0.51781 0.05781 0.71578 0.0
C1008 C 0.54852 0.05275 0.71583 0.0
C1009 C 0.55386 0.0502 0.73299 0.0
C1010 C 0.52644 0.05384 0.74247 0.0
N1011 N 0.50358 0.0585 0.73237 0.0
Co1012 Co 0.46079 0.06509 0.741 0.0
N1013 N 0.47358 0.06294 0.76657 0.0
C1014 C 0.50274 0.05869 0.77265 0.0
C1015 C 0.50603 0.05874 0.79083 0.0
C1016 C 0.47719 0.06329 0.79676 0.0
C1017 C 0.45761 0.06566 0.78178 0.0
N1018 N 0.41703 0.07134 0.74961 0.0
C1019 C 0.40491 0.07276 0.76644 0.0
C1020 C 0.37192 0.07689 0.76637 0.0
C1021 C 0.36297 0.07816 0.74892 0.0
C1022 C 0.39072 0.0747 0.73934 0.0
N1023 N 0.44951 0.06773 0.71541 0.0
C1024 C 0.42101 0.07219 0.70923 0.0
C1025 C 0.42182 0.07356 0.69118 0.0
C1026 C 0.45318 0.06994 0.68554 0.0
C1027 C 0.46971 0.06655 0.70054 0.0
N1028 N 0.43143 0.05433 0.74023 0.0
C1029 C 0.3849 0.03993 0.74206 0.0
C1030 C 0.37788 0.04678 0.73056 0.0
C1031 C 0.40123 0.05379 0.72981 0.0
C1032 C 0.41652 0.04029 0.75212 0.0
C1033 C 0.4393 0.04744 0.75092 0.0
N1034 N 0.48947 0.07582 0.74186 0.0
C1035 C 0.4933 0.09119 0.73799 0.0
C1036 C 0.52979 0.0912 0.74242 0.0
C1037 C 0.5456 0.08331 0.74672 0.0
C1038 C 0.52509 0.07577 0.74646 0.0
C1039 C 0.47397 0.08352 0.73766 0.0
H1040 H 0.53858 0.06996 0.74992 0.0
H1041 H 0.44643 0.08399 0.73393 0.0
H1042 H 0.39366 0.05875 0.72088 0.0
H1043 H 0.46289 0.04726 0.75895 0.0
C1044 C 0.52545 0.05436 0.76099 0.0
C1045 C 0.50476 0.06235 0.70001 0.0
C1046 C 0.42335 0.07018 0.78277 0.0
C1047 C 0.39421 0.07507 0.72081 0.0
H1048 H 0.56636 0.05134 0.70486 0.0
H1049 H 0.57644 0.0466 0.73813 0.0
H1050 H 0.52671 0.05574 0.79882 0.0
H1051 H 0.47107 0.06461 0.81059 0.0
H1052 H 0.35595 0.07879 0.77775 0.0
H1053 H 0.33925 0.08133 0.74383 0.0
H1054 H 0.40227 0.07693 0.68314 0.0
H1055 H 0.46302 0.06988 0.67197 0.0
H1056 H 0.35379 0.04688 0.72248 0.0
H1057 H 0.42378 0.03507 0.76093 0.0
H1058 H 0.47931 0.09709 0.73494 0.0
H1059 H 0.57381 0.0829 0.75005 0.0
C1060 C 0.22077 0.94541 0.4509 0.0
C1061 C 0.20362 0.94173 0.43636 0.0
C1062 C 0.17272 0.93812 0.44266 0.0
C1063 C 0.17279 0.93979 0.46061 0.0
N1064 N 0.20142 0.94442 0.4661 0.0
Co1065 Co 0.214 0.94748 0.49134 0.0
N1066 N 0.17094 0.94129 0.50094 0.0
C1067 C 0.14423 0.93771 0.49127 0.0
C1068 C 0.11719 0.93432 0.50147 0.0
C1069 C 0.12705 0.9359 0.51869 0.0
C1070 C 0.15981 0.94013 0.51801 0.0
N1071 N 0.22812 0.95008 0.51656 0.0
C1072 C 0.21302 0.9476 0.53214 0.0
C1073 C 0.23324 0.95026 0.5467 0.0
C1074 C 0.26164 0.95475 0.54009 0.0
C1075 C 0.25745 0.95448 0.52197 0.0
N1076 N 0.25607 0.95403 0.48171 0.0
C1077 C 0.27931 0.95889 0.49118 0.0
C1078 C 0.30602 0.96246 0.4811 0.0
C1079 C 0.29979 0.95964 0.46419 0.0
C1080 C 0.2693 0.95451 0.46489 0.0
N1081 N 0.18425 0.95816 0.49023 0.0
C1082 C 0.13721 0.97246 0.49181 0.0
C1083 C 0.16937 0.97233 0.50145 0.0
C1084 C 0.1924 0.96523 0.50038 0.0
C1085 C 0.12988 0.96544 0.48082 0.0
C1086 C 0.15348 0.95847 0.48019 0.0
N1087 N 0.24308 0.93683 0.49256 0.0
C1088 C 0.29957 0.92952 0.49743 0.0
C1089 C 0.28353 0.92156 0.49419 0.0
C1090 C 0.24702 0.9214 0.49002 0.0
C1091 C 0.22756 0.92903 0.48914 0.0
C1092 C 0.27893 0.93703 0.4967 0.0
H1093 H 0.19996 0.92847 0.48559 0.0
H1094 H 0.29243 0.94292 0.49955 0.0
H1095 H 0.21641 0.96559 0.50807 0.0
H1096 H 0.14566 0.95336 0.47167 0.0
C1097 C 0.14672 0.93704 0.47273 0.0
C1098 C 0.25553 0.9497 0.44962 0.0
C1099 C 0.17899 0.94304 0.53388 0.0
C1100 C 0.27937 0.95866 0.50973 0.0
H1101 H 0.21275 0.94159 0.42267 0.0
H1102 H 0.15289 0.93458 0.43511 0.0
H1103 H 0.09335 0.931 0.49693 0.0
H1104 H 0.11186 0.93414 0.53043 0.0
H1105 H 0.22781 0.94918 0.56069 0.0
H1106 H 0.2826 0.95793 0.5476 0.0
H1107 H 0.32872 0.96619 0.48568 0.0
H1108 H 0.31692 0.96093 0.45288 0.0
H1109 H 0.17685 0.97769 0.50985 0.0
H1110 H 0.10536 0.96515 0.47308 0.0
H1111 H 0.3278 0.92995 0.50079 0.0
H1112 H 0.23355 0.91541 0.48713 0.0
C1113 C 0.53831 0.81685 0.45067 0.0
C1114 C 0.55569 0.82051 0.43619 0.0
C1115 C 0.58661 0.82407 0.44259 0.0
C1116 C 0.58632 0.8224 0.46053 0.0
N1117 N 0.55753 0.8178 0.46593 0.0
Co1118 Co 0.54453 0.81479 0.49112 0.0
N1119 N 0.58771 0.82089 0.50087 0.0
C1120 C 0.6147 0.8244 0.49127 0.0
C1121 C 0.6418 0.82771 0.50155 0.0
C1122 C 0.6317 0.82615 0.51875 0.0
C1123 C 0.59875 0.82202 0.51796 0.0
N1124 N 0.52994 0.81226 0.51629 0.0
C1125 C 0.54493 0.81474 0.53192 0.0
C1126 C 0.52431 0.81216 0.54641 0.0
C1127 C 0.49581 0.80774 0.53972 0.0
C1128 C 0.50033 0.80796 0.52161 0.0
N1129 N 0.50242 0.80829 0.48137 0.0
C1130 C 0.47896 0.80348 0.49078 0.0
C1131 C 0.45234 0.79992 0.48061 0.0
C1132 C 0.45889 0.8027 0.46371 0.0
C1133 C 0.48945 0.8078 0.46451 0.0
N1134 N 0.57395 0.80405 0.49017 0.0
C1135 C 0.62056 0.78969 0.49184 0.0
C1136 C 0.58856 0.78991 0.50161 0.0
C1137 C 0.56573 0.79705 0.50048 0.0
C1138 C 0.62795 0.79664 0.48071 0.0
C1139 C 0.60456 0.80364 0.48003 0.0
N1140 N 0.51579 0.82549 0.49215 0.0
C1141 C 0.45922 0.83291 0.4961 0.0
C1142 C 0.4754 0.84085 0.4926 0.0
C1143 C 0.51229 0.8409 0.48911 0.0
C1144 C 0.53165 0.83325 0.48882 0.0
C1145 C 0.47978 0.82538 0.49591 0.0
H1146 H 0.55952 0.83378 0.4858 0.0
H1147 H 0.46601 0.81951 0.49872 0.0
H1148 H 0.54182 0.79677 0.50827 0.0
H1149 H 0.61244 0.8087 0.4714 0.0
C1150 C 0.61239 0.82508 0.47273 0.0
C1151 C 0.50349 0.81259 0.44928 0.0
C1152 C 0.57928 0.81915 0.53377 0.0
C1153 C 0.47856 0.80376 0.50932 0.0
H1154 H 0.5467 0.82066 0.42247 0.0
H1155 H 0.60661 0.82759 0.4351 0.0
H1156 H 0.66584 0.83096 0.49708 0.0
H1157 H 0.64685 0.82786 0.53053 0.0
H1158 H 0.52957 0.81325 0.56042 0.0
H1159 H 0.47461 0.80462 0.54716 0.0
H1160 H 0.42949 0.79622 0.48513 0.0
H1161 H 0.4419 0.80141 0.45235 0.0
H1162 H 0.58106 0.78461 0.51013 0.0
H1163 H 0.65235 0.79685 0.47287 0.0
H1164 H 0.43072 0.83245 0.49871 0.0
H1165 H 0.52653 0.84684 0.48674 0.0
C1166 C 0.21862 0.81698 0.30161 0.0
C1167 C 0.20116 0.8206 0.31612 0.0
C1168 C 0.17031 0.82419 0.30973 0.0
C1169 C 0.17072 0.82257 0.29176 0.0
N1170 N 0.19951 0.81799 0.28634 0.0
Co1171 Co 0.21262 0.81503 0.26112 0.0
N1172 N 0.16955 0.82118 0.25141 0.0
C1173 C 0.14259 0.82469 0.26101 0.0
C1174 C 0.11553 0.82802 0.25074 0.0
C1175 C 0.12563 0.82646 0.23354 0.0
C1176 C 0.15853 0.82231 0.23431 0.0
N1177 N 0.22731 0.81256 0.23594 0.0
C1178 C 0.21233 0.81504 0.22033 0.0
C1179 C 0.23298 0.8125 0.20583 0.0
C1180 C 0.26148 0.80807 0.2125 0.0
C1181 C 0.25693 0.80827 0.23061 0.0
N1182 N 0.25465 0.80851 0.27085 0.0
C1183 C 0.27817 0.80372 0.26141 0.0
C1184 C 0.30474 0.80015 0.27157 0.0
C1185 C 0.29812 0.80289 0.28849 0.0
C1186 C 0.26756 0.80798 0.28772 0.0
N1187 N 0.18308 0.8043 0.26189 0.0
C1188 C 0.13631 0.78994 0.25991 0.0
C1189 C 0.1685 0.79018 0.25029 0.0
C1190 C 0.1914 0.7973 0.25157 0.0
C1191 C 0.1288 0.7969 0.27105 0.0
C1192 C 0.15227 0.80389 0.27189 0.0
N1193 N 0.24149 0.82575 0.26026 0.0
C1194 C 0.29812 0.83316 0.25635 0.0
C1195 C 0.28203 0.84111 0.2599 0.0
C1196 C 0.24514 0.84116 0.26341 0.0
C1197 C 0.22571 0.8335 0.26367 0.0
C1198 C 0.2775 0.82563 0.2565 0.0
H1199 H 0.19785 0.83403 0.26671 0.0
H1200 H 0.29124 0.81977 0.25365 0.0
H1201 H 0.21546 0.79703 0.2439 0.0
H1202 H 0.14429 0.80894 0.28051 0.0
C1203 C 0.14479 0.82532 0.27956 0.0
C1204 C 0.25345 0.81273 0.30299 0.0
C1205 C 0.17794 0.81943 0.2185 0.0
C1206 C 0.27865 0.80405 0.24287 0.0
H1207 H 0.21006 0.82071 0.32985 0.0
H1208 H 0.15029 0.82769 0.31723 0.0
H1209 H 0.0915 0.83126 0.25522 0.0
H1210 H 0.11047 0.82818 0.22177 0.0
H1211 H 0.22772 0.8136 0.19182 0.0
H1212 H 0.28269 0.80497 0.20504 0.0
H1213 H 0.32762 0.79647 0.26703 0.0
H1214 H 0.31506 0.80158 0.29986 0.0
H1215 H 0.17613 0.78487 0.24177 0.0
H1216 H 0.10426 0.7971 0.27877 0.0
H1217 H 0.32662 0.83269 0.25372 0.0
H1218 H 0.23094 0.8471 0.26584 0.0
C1219 C 0.53945 0.9456 0.30149 0.0
C1220 C 0.55688 0.94194 0.31595 0.0
C1221 C 0.58771 0.93835 0.30952 0.0
C1222 C 0.58731 0.94002 0.29157 0.0
N1223 N 0.55856 0.94463 0.2862 0.0
Co1224 Co 0.5455 0.94768 0.26103 0.0
N1225 N 0.58835 0.94148 0.25123 0.0
C1226 C 0.61525 0.9379 0.26077 0.0
C1227 C 0.6421 0.93452 0.25045 0.0
C1228 C 0.63192 0.9361 0.23327 0.0
C1229 C 0.59918 0.94031 0.23411 0.0
N1230 N 0.53088 0.95025 0.23589 0.0
C1231 C 0.54565 0.94775 0.22023 0.0
C1232 C 0.52508 0.95038 0.20577 0.0
C1233 C 0.49684 0.95488 0.21252 0.0
C1234 C 0.50145 0.95464 0.23061 0.0
N1235 N 0.50364 0.95423 0.27085 0.0
C1236 C 0.48027 0.95909 0.26149 0.0
C1237 C 0.45373 0.96265 0.2717 0.0
C1238 C 0.46022 0.95982 0.28857 0.0
C1239 C 0.49068 0.95469 0.28772 0.0
N1240 N 0.57535 0.95837 0.26196 0.0
C1241 C 0.62251 0.97266 0.26008 0.0
C1242 C 0.59019 0.97251 0.25055 0.0
C1243 C 0.56712 0.96541 0.25178 0.0
C1244 C 0.62993 0.96566 0.2711 0.0
C1245 C 0.60627 0.9587 0.27188 0.0
N1246 N 0.51635 0.93701 0.25997 0.0
C1247 C 0.45973 0.92969 0.25534 0.0
C1248 C 0.47578 0.92173 0.25853 0.0
C1249 C 0.51236 0.92158 0.26255 0.0
C1250 C 0.53188 0.92922 0.26333 0.0
C1251 C 0.48043 0.9372 0.25598 0.0
H1252 H 0.55955 0.92865 0.26677 0.0
H1253 H 0.4669 0.9431 0.25319 0.0
H1254 H 0.54299 0.96576 0.24417 0.0
H1255 H 0.61419 0.95361 0.28042 0.0
C1256 C 0.61313 0.93726 0.27933 0.0
C1257 C 0.50465 0.94986 0.30291 0.0
C1258 C 0.57972 0.94322 0.21834 0.0
C1259 C 0.47983 0.95885 0.24295 0.0
H1260 H 0.54798 0.9418 0.32968 0.0
H1261 H 0.60767 0.93482 0.31697 0.0
H1262 H 0.66604 0.93122 0.25488 0.0
H1263 H 0.64691 0.93434 0.22147 0.0
H1264 H 0.53017 0.94928 0.19176 0.0
H1265 H 0.47572 0.95804 0.20511 0.0
H1266 H 0.43096 0.96638 0.26722 0.0
H1267 H 0.44327 0.9611 0.29995 0.0
H1268 H 0.58261 0.97785 0.24214 0.0
H1269 H 0.65455 0.96539 0.27876 0.0
H1270 H 0.43147 0.93012 0.25208 0.0
H1271 H 0.52587 0.91559 0.26539 0.0
C1272 C 0.73938 0.55814 0.03581 0.0
C1273 C 0.70869 0.55307 0.03591 0.0
C1274 C 0.70313 0.55047 0.01879 0.0
C1275 C 0.73041 0.5541 0.00919 0.0
N1276 N 0.75338 0.55879 0.01917 0.0
Co1277 Co 0.796 0.5654 0.01031 0.0
N1278 N 0.78294 0.56313 0.98481 0.0
C1279 C 0.75372 0.55886 0.97887 0.0
C1280 C 0.75026 0.55883 0.9607 0.0
C1281 C 0.77906 0.56335 0.95462 0.0
C1282 C 0.79878 0.56579 0.96952 0.0
N1283 N 0.8396 0.57165 0.00148 0.0
C1284 C 0.85155 0.573 0.98461 0.0
C1285 C 0.88448 0.57717 0.98453 0.0
C1286 C 0.89355 0.57854 0.00193 0.0
C1287 C 0.86594 0.57509 0.01163 0.0
N1288 N 0.80755 0.56814 0.03582 0.0
C1289 C 0.83604 0.57266 0.04186 0.0
C1290 C 0.83547 0.57408 0.05989 0.0
C1291 C 0.80428 0.57043 0.06569 0.0
C1292 C 0.78759 0.56697 0.05078 0.0
N1293 N 0.82551 0.55466 0.01114 0.0
C1294 C 0.87223 0.54029 0.00925 0.0
C1295 C 0.87948 0.54721 0.02055 0.0
C1296 C 0.85604 0.55421 0.02134 0.0
C1297 C 0.84028 0.54057 0.99943 0.0
C1298 C 0.81743 0.54771 1.00066 0.0
N1299 N 0.76715 0.57612 0.00935 0.0
C1300 C 0.76346 0.59154 0.01231 0.0
C1301 C 0.72702 0.59145 0.00799 0.0
C1302 C 0.71086 0.58353 0.00447 0.0
C1303 C 0.73137 0.576 0.00503 0.0
C1304 C 0.78275 0.58387 0.01309 0.0
H1305 H 0.71779 0.57015 0.00191 0.0
H1306 H 0.81028 0.58438 0.01682 0.0
H1307 H 0.86377 0.55922 0.03011 0.0
H1308 H 0.7936 0.54747 0.9928 0.0
C1309 C 0.73115 0.55457 0.99066 0.0
C1310 C 0.75262 0.56273 0.05149 0.0
C1311 C 0.83301 0.57032 0.96837 0.0
C1312 C 0.86262 0.57554 0.03016 0.0
H1313 H 0.69102 0.55169 0.04696 0.0
H1314 H 0.6805 0.54684 0.01377 0.0
H1315 H 0.72951 0.55579 0.95281 0.0
H1316 H 0.78506 0.5646 0.94075 0.0
H1317 H 0.90034 0.57902 0.97308 0.0
H1318 H 0.91728 0.58175 0.00691 0.0
H1319 H 0.85508 0.5775 0.06783 0.0
H1320 H 0.79465 0.57039 0.0793 0.0
H1321 H 0.90381 0.54738 0.02845 0.0
H1322 H 0.8328 0.5353 0.99079 0.0
H1323 H 0.77698 0.59751 0.01537 0.0
H1324 H 0.68269 0.58317 0.00099 0.0
C1325 C 0.52203 0.70456 0.03406 0.0
C1326 C 0.55137 0.71004 0.035 0.0
C1327 C 0.5542 0.71393 0.01868 0.0
C1328 C 0.52681 0.71056 0.00864 0.0
N1329 N 0.50695 0.70481 0.01765 0.0
Co1330 Co 0.46616 0.69808 0.00803 0.0
N1331 N 0.4816 0.70017 0.98312 0.0
C1332 C 0.50498 0.70623 0.97772 0.0
C1333 C 0.51113 0.70607 0.9597 0.0
C1334 C 0.4899 0.6996 0.95332 0.0
C1335 C 0.47161 0.69621 0.96786 0.0
N1336 N 0.42496 0.69142 0.99848 0.0
C1337 C 0.4188 0.68841 0.9818 0.0
C1338 C 0.38551 0.68444 0.98081 0.0
C1339 C 0.37024 0.6851 0.9974 0.0
C1340 C 0.39491 0.68943 0.00758 0.0
N1341 N 0.45127 0.69598 0.03301 0.0
C1342 C 0.41848 0.69355 0.0385 0.0
C1343 C 0.4167 0.69245 0.05666 0.0
C1344 C 0.45053 0.6943 0.0629 0.0
C1345 C 0.47106 0.69642 0.04813 0.0
N1346 N 0.4364 0.70849 0.00732 0.0
C1347 C 0.38778 0.72229 0.00723 0.0
C1348 C 0.41099 0.72095 0.02171 0.0
C1349 C 0.435 0.714 0.02152 0.0
C1350 C 0.39061 0.71679 0.99256 0.0
C1351 C 0.41508 0.71002 0.9928 0.0
N1352 N 0.49522 0.6876 0.0087 0.0
C1353 C 0.4997 0.6725 0.01499 0.0
C1354 C 0.5355 0.67233 0.00918 0.0
C1355 C 0.55064 0.68007 0.0032 0.0
C1356 C 0.53005 0.6876 0.00296 0.0
C1357 C 0.48032 0.68016 0.0148 0.0
H1358 H 0.54231 0.69341 0.99812 0.0
H1359 H 0.45302 0.68002 0.0195 0.0
H1360 H 0.45181 0.71296 0.03304 0.0
H1361 H 0.416 0.7059 0.98132 0.0
C1362 C 0.5242 0.7111 0.99011 0.0
C1363 C 0.50845 0.69935 0.0489 0.0
C1364 C 0.44163 0.69012 0.96622 0.0
C1365 C 0.39285 0.6908 0.02606 0.0
H1366 H 0.56938 0.71105 0.0461 0.0
H1367 H 0.57517 0.71825 0.01432 0.0
H1368 H 0.52946 0.71005 0.95215 0.0
H1369 H 0.48745 0.69776 0.93946 0.0
H1370 H 0.3732 0.68154 0.9692 0.0
H1371 H 0.34449 0.68259 0.00158 0.0
H1372 H 0.39407 0.69017 0.06437 0.0
H1373 H 0.45913 0.69412 0.07668 0.0
H1374 H 0.40981 0.72505 0.03334 0.0
H1375 H 0.37382 0.71767 0.98091 0.0
H1376 H 0.48625 0.66674 0.01941 0.0
H1377 H 0.57829 0.68038 0.99883 0.0
C1378 C 0.73772 0.70429 0.2132 0.0
C1379 C 0.707 0.70932 0.21225 0.0
C1380 C 0.70032 0.7122 0.22907 0.0
C1381 C 0.727 0.70876 0.23936 0.0
N1382 N 0.75065 0.70393 0.2301 0.0
Co1383 Co 0.79279 0.69754 0.24009 0.0
N1384 N 0.77788 0.70015 0.26518 0.0
C1385 C 0.74819 0.70447 0.27034 0.0
C1386 C 0.74348 0.70477 0.28843 0.0
C1387 C 0.77193 0.70039 0.29529 0.0
C1388 C 0.79271 0.69776 0.2809 0.0
N1389 N 0.83593 0.69152 0.25006 0.0
C1390 C 0.84674 0.69046 0.26721 0.0
C1391 C 0.87976 0.68637 0.26814 0.0
C1392 C 0.89014 0.68478 0.25099 0.0
C1393 C 0.86312 0.68803 0.24059 0.0
N1394 N 0.80611 0.69444 0.21497 0.0
C1395 C 0.83514 0.6899 0.20972 0.0
C1396 C 0.83573 0.68816 0.1918 0.0
C1397 C 0.80475 0.69163 0.18526 0.0
C1398 C 0.78703 0.6953 0.19964 0.0
N1399 N 0.82209 0.70832 0.23907 0.0
C1400 C 0.86883 0.72268 0.24093 0.0
C1401 C 0.87626 0.71573 0.22978 0.0
C1402 C 0.85281 0.70873 0.229 0.0
C1403 C 0.83666 0.72246 0.25057 0.0
C1404 C 0.81378 0.71533 0.24934 0.0
N1405 N 0.76421 0.6868 0.2412 0.0
C1406 C 0.76096 0.67138 0.2383 0.0
C1407 C 0.7241 0.67139 0.24188 0.0
C1408 C 0.70782 0.67932 0.24533 0.0
C1409 C 0.72823 0.68688 0.24502 0.0
C1410 C 0.78019 0.67905 0.2379 0.0
H1411 H 0.71437 0.69274 0.24778 0.0
H1412 H 0.80806 0.67856 0.23484 0.0
H1413 H 0.86074 0.70368 0.22036 0.0
H1414 H 0.78975 0.71562 0.25704 0.0
C1415 C 0.72649 0.70858 0.25791 0.0
C1416 C 0.75203 0.69946 0.19808 0.0
C1417 C 0.82703 0.69335 0.28293 0.0
C1418 C 0.8611 0.6873 0.22204 0.0
H1419 H 0.69003 0.7105 0.20083 0.0
H1420 H 0.67733 0.71588 0.23347 0.0
H1421 H 0.72217 0.7079 0.29576 0.0
H1422 H 0.77703 0.69937 0.30933 0.0
H1423 H 0.89481 0.68471 0.27999 0.0
H1424 H 0.91431 0.68155 0.24664 0.0
H1425 H 0.85595 0.68467 0.18443 0.0
H1426 H 0.79596 0.69141 0.17152 0.0
H1427 H 0.90075 0.71552 0.22202 0.0
H1428 H 0.82907 0.72777 0.25907 0.0
H1429 H 0.77529 0.66545 0.23594 0.0
H1430 H 0.67933 0.67975 0.24801 0.0
C1431 C 0.5191 0.55751 0.21471 0.0
C1432 C 0.5497 0.55242 0.214 0.0
C1433 C 0.55601 0.54962 0.23091 0.0
C1434 C 0.52924 0.55315 0.241 0.0
N1435 N 0.50588 0.55797 0.23154 0.0
Co1436 Co 0.4637 0.56446 0.24121 0.0
N1437 N 0.47787 0.56188 0.26642 0.0
C1438 C 0.50731 0.55753 0.27181 0.0
C1439 C 0.51149 0.55723 0.28993 0.0
C1440 C 0.48295 0.56166 0.29657 0.0
C1441 C 0.46266 0.56431 0.28203 0.0
N1442 N 0.42053 0.57059 0.25086 0.0
C1443 C 0.4093 0.57171 0.26793 0.0
C1444 C 0.37645 0.57588 0.26863 0.0
C1445 C 0.36661 0.57748 0.25141 0.0
C1446 C 0.39376 0.57415 0.2412 0.0
N1447 N 0.45107 0.56752 0.21599 0.0
C1448 C 0.42236 0.57213 0.21052 0.0
C1449 C 0.4222 0.57379 0.19258 0.0
C1450 C 0.45312 0.57021 0.18624 0.0
C1451 C 0.47038 0.56655 0.20076 0.0
N1452 N 0.4341 0.55374 0.24009 0.0
C1453 C 0.38713 0.53941 0.24169 0.0
C1454 C 0.37981 0.54642 0.23066 0.0
C1455 C 0.40337 0.5534 0.23001 0.0
C1456 C 0.41927 0.53958 0.25136 0.0
C1457 C 0.44227 0.54669 0.25026 0.0
N1458 N 0.4926 0.57516 0.24245 0.0
C1459 C 0.49624 0.5906 0.23996 0.0
C1460 C 0.53279 0.59049 0.24404 0.0
C1461 C 0.54901 0.58255 0.24722 0.0
C1462 C 0.52849 0.57501 0.24652 0.0
C1463 C 0.47691 0.58294 0.23911 0.0
H1464 H 0.54213 0.56914 0.24932 0.0
H1465 H 0.44926 0.58348 0.23562 0.0
H1466 H 0.39554 0.55849 0.22147 0.0
H1467 H 0.46628 0.54636 0.25797 0.0
C1468 C 0.52929 0.55338 0.25955 0.0
C1469 C 0.50519 0.56228 0.19942 0.0
C1470 C 0.42845 0.56878 0.2838 0.0
C1471 C 0.39626 0.57483 0.22266 0.0
H1472 H 0.56683 0.55115 0.20268 0.0
H1473 H 0.57879 0.54592 0.23548 0.0
H1474 H 0.53251 0.55408 0.29742 0.0
H1475 H 0.47745 0.5627 0.31057 0.0
H1476 H 0.36116 0.5776 0.28036 0.0
H1477 H 0.34271 0.58076 0.24688 0.0
H1478 H 0.40229 0.57731 0.18505 0.0
H1479 H 0.46218 0.57035 0.17254 0.0
H1480 H 0.35532 0.54667 0.2229 0.0
H1481 H 0.42677 0.53424 0.25979 0.0
H1482 H 0.48262 0.59658 0.23713 0.0
H1483 H 0.57727 0.58216 0.25052 0.0
C1484 C 0.22072 0.44512 0.94984 0.0
C1485 C 0.20321 0.4414 0.93545 0.0
C1486 C 0.17212 0.43796 0.94192 0.0
C1487 C 0.17243 0.43975 0.95981 0.0
N1488 N 0.20138 0.44432 0.96511 0.0
Co1489 Co 0.21442 0.44746 0.99024 0.0
N1490 N 0.17139 0.44137 1.00015 0.0
C1491 C 0.14429 0.43786 0.99064 0.0
C1492 C 0.11734 0.43455 0.00101 0.0
C1493 C 0.12768 0.43612 0.01818 0.0
C1494 C 0.16061 0.44026 0.01729 0.0
N1495 N 0.22911 0.45011 0.01535 0.0
C1496 C 0.21439 0.44765 0.03105 0.0
C1497 C 0.23505 0.45032 0.04546 0.0
C1498 C 0.26329 0.4548 0.03863 0.0
C1499 C 0.25859 0.4545 0.02054 0.0
N1500 N 0.25645 0.45391 0.9803 0.0
C1501 C 0.27978 0.45883 0.98957 0.0
C1502 C 0.30652 0.46228 0.97933 0.0
C1503 C 0.30021 0.45931 0.96253 0.0
C1504 C 0.26965 0.45422 0.96345 0.0
N1505 N 0.18483 0.45819 0.98915 0.0
C1506 C 0.13765 0.47249 0.99094 0.0
C1507 C 0.16965 0.47229 0.00072 0.0
C1508 C 0.19273 0.4652 0.99952 0.0
C1509 C 0.13062 0.46555 0.97968 0.0
C1510 C 0.15427 0.45859 0.97893 0.0
N1511 N 0.24326 0.43677 0.99147 0.0
C1512 C 0.29972 0.4294 0.9961 0.0
C1513 C 0.28346 0.42145 0.99303 0.0
C1514 C 0.24683 0.42133 0.98909 0.0
C1515 C 0.22748 0.42898 0.98825 0.0
C1516 C 0.2792 0.43693 0.99541 0.0
H1517 H 0.19978 0.42845 0.98488 0.0
H1518 H 0.29288 0.44283 0.99812 0.0
H1519 H 0.21662 0.46552 0.00734 0.0
H1520 H 0.14666 0.45355 0.97019 0.0
C1521 C 0.14641 0.43714 0.9721 0.0
C1522 C 0.25577 0.44928 0.94838 0.0
C1523 C 0.18028 0.44314 0.03304 0.0
C1524 C 0.28017 0.45867 0.00812 0.0
H1525 H 0.21224 0.44113 0.92175 0.0
H1526 H 0.15203 0.43442 0.93451 0.0
H1527 H 0.09325 0.43129 0.99662 0.0
H1528 H 0.11269 0.43441 0.03 0.0
H1529 H 0.23 0.44926 0.05949 0.0
H1530 H 0.28445 0.45797 0.04598 0.0
H1531 H 0.32934 0.46601 0.98376 0.0
H1532 H 0.31737 0.46047 0.95117 0.0
H1533 H 0.17699 0.47759 0.00931 0.0
H1534 H 0.10628 0.46532 0.97179 0.0
H1535 H 0.32801 0.42981 0.9993 0.0
H1536 H 0.23316 0.41534 0.98635 0.0
C1537 C 0.53835 0.31647 0.9503 0.0
C1538 C 0.55528 0.31997 0.93551 0.0
C1539 C 0.58653 0.32354 0.94147 0.0
C1540 C 0.58686 0.32204 0.95948 0.0
N1541 N 0.55819 0.31753 0.96533 0.0
Co1542 Co 0.54613 0.31476 0.99076 0.0
N1543 N 0.58956 0.32098 0.99986 0.0
C1544 C 0.61625 0.32437 0.98988 0.0
C1545 C 0.64368 0.3278 0.99975 0.0
C1546 C 0.63412 0.32646 0.0171 0.0
C1547 C 0.6011 0.32233 0.01681 0.0
N1548 N 0.53249 0.31248 0.01617 0.0
C1549 C 0.54791 0.31515 0.03157 0.0
C1550 C 0.52786 0.31269 0.04633 0.0
C1551 C 0.49929 0.30814 0.04006 0.0
C1552 C 0.50319 0.30818 0.02192 0.0
N1553 N 0.50369 0.30818 0.98164 0.0
C1554 C 0.48064 0.30343 0.99144 0.0
C1555 C 0.45353 0.29983 0.98166 0.0
C1556 C 0.45929 0.30251 0.96461 0.0
C1557 C 0.48991 0.3076 0.96493 0.0
N1558 N 0.57562 0.30401 0.99001 0.0
C1559 C 0.62236 0.28965 0.99193 0.0
C1560 C 0.59061 0.28997 0.00189 0.0
C1561 C 0.56773 0.2971 1.00064 0.0
C1562 C 0.6294 0.29651 0.98048 0.0
C1563 C 0.60595 0.30351 0.97968 0.0
N1564 N 0.51733 0.32547 0.9916 0.0
C1565 C 0.46088 0.3329 0.99588 0.0
C1566 C 0.4768 0.34082 0.99192 0.0
C1567 C 0.51354 0.34086 0.98801 0.0
C1568 C 0.53296 0.33321 0.98778 0.0
C1569 C 0.4815 0.32538 0.99576 0.0
H1570 H 0.56069 0.33371 0.98441 0.0
H1571 H 0.46791 0.31953 0.99895 0.0
H1572 H 0.54405 0.29689 0.0086 0.0
H1573 H 0.61355 0.30848 0.97078 0.0
C1574 C 0.61333 0.32485 0.97133 0.0
C1575 C 0.50328 0.31229 0.94942 0.0
C1576 C 0.58208 0.31969 0.03294 0.0
C1577 C 0.481 0.30387 0.00997 0.0
H1578 H 0.54578 0.32001 0.92188 0.0
H1579 H 0.60629 0.32697 0.93366 0.0
H1580 H 0.66758 0.33099 0.99492 0.0
H1581 H 0.64971 0.32831 0.02864 0.0
H1582 H 0.53351 0.31395 0.06024 0.0
H1583 H 0.47839 0.30508 0.04782 0.0
H1584 H 0.43084 0.29618 0.98653 0.0
H1585 H 0.44176 0.30117 0.95348 0.0
H1586 H 0.5833 0.28474 0.01065 0.0
H1587 H 0.65358 0.29665 0.97247 0.0
H1588 H 0.4325 0.33244 0.99882 0.0
H1589 H 0.52763 0.34678 0.98526 0.0
C1590 C 0.22021 0.31723 0.80059 0.0
C1591 C 0.20287 0.32093 0.81503 0.0
C1592 C 0.17204 0.32452 0.80859 0.0
C1593 C 0.17235 0.32282 0.79066 0.0
N1594 N 0.20105 0.31818 0.78531 0.0
Co1595 Co 0.21399 0.31512 0.76013 0.0
N1596 N 0.1709 0.32123 0.75033 0.0
C1597 C 0.14385 0.32471 0.75991 0.0
C1598 C 0.1167 0.32797 0.74962 0.0
C1599 C 0.12682 0.32641 0.73243 0.0
C1600 C 0.15983 0.32231 0.73322 0.0
N1601 N 0.22864 0.31259 0.73497 0.0
C1602 C 0.21371 0.31504 0.71932 0.0
C1603 C 0.23437 0.31246 0.70485 0.0
C1604 C 0.26282 0.30804 0.71159 0.0
C1605 C 0.25824 0.30828 0.72969 0.0
N1606 N 0.25591 0.30859 0.76993 0.0
C1607 C 0.27922 0.30373 0.76055 0.0
C1608 C 0.3057 0.30013 0.77073 0.0
C1609 C 0.29921 0.30293 0.78763 0.0
C1610 C 0.2688 0.30808 0.78682 0.0
N1611 N 0.18433 0.30441 0.76106 0.0
C1612 C 0.13645 0.29028 0.75893 0.0
C1613 C 0.1683 0.29046 0.74903 0.0
C1614 C 0.19174 0.29749 0.75036 0.0
C1615 C 0.13019 0.29709 0.77063 0.0
C1616 C 0.15418 0.30397 0.77153 0.0
N1617 N 0.24291 0.32581 0.75913 0.0
C1618 C 0.29976 0.33318 0.75577 0.0
C1619 C 0.28357 0.34115 0.75904 0.0
C1620 C 0.2465 0.34123 0.76203 0.0
C1621 C 0.22701 0.33359 0.76218 0.0
C1622 C 0.27907 0.32566 0.75575 0.0
H1623 H 0.19901 0.33414 0.76489 0.0
H1624 H 0.29286 0.31978 0.75311 0.0
H1625 H 0.21533 0.29722 0.74231 0.0
H1626 H 0.14719 0.3089 0.78067 0.0
C1627 C 0.14622 0.32543 0.77845 0.0
C1628 C 0.25484 0.31289 0.80205 0.0
C1629 C 0.17929 0.31942 0.71742 0.0
C1630 C 0.27974 0.30403 0.74201 0.0
H1631 H 0.21177 0.32108 0.82877 0.0
H1632 H 0.15204 0.32805 0.81605 0.0
H1633 H 0.09262 0.33121 0.75408 0.0
H1634 H 0.11162 0.32808 0.72064 0.0
H1635 H 0.22912 0.31352 0.69084 0.0
H1636 H 0.28398 0.30489 0.70417 0.0
H1637 H 0.32846 0.2964 0.76623 0.0
H1638 H 0.31612 0.30162 0.79901 0.0
H1639 H 0.17473 0.28533 0.73984 0.0
H1640 H 0.10663 0.29717 0.77909 0.0
H1641 H 0.32838 0.33269 0.75352 0.0
H1642 H 0.2322 0.34718 0.76417 0.0
C1643 C 0.53845 0.44612 0.79881 0.0
C1644 C 0.55956 0.44393 0.81333 0.0
C1645 C 0.59323 0.4422 0.80675 0.0
C1646 C 0.59078 0.44345 0.78865 0.0
N1647 N 0.55773 0.44585 0.78351 0.0
Co1648 Co 0.54184 0.44807 0.75871 0.0
N1649 N 0.58302 0.44163 0.7486 0.0
C1650 C 0.61348 0.43966 0.75739 0.0
C1651 C 0.63809 0.43551 0.74686 0.0
C1652 C 0.62236 0.43495 0.73037 0.0
C1653 C 0.58886 0.4388 0.73176 0.0
N1654 N 0.5252 0.45025 0.734 0.0
C1655 C 0.53478 0.44639 0.71855 0.0
C1656 C 0.51548 0.44975 0.7043 0.0
C1657 C 0.4941 0.4561 0.71104 0.0
C1658 C 0.50114 0.45622 0.72898 0.0
N1659 N 0.50116 0.45464 0.7689 0.0
C1660 C 0.48072 0.4604 0.76023 0.0
C1661 C 0.45369 0.46366 0.77063 0.0
C1662 C 0.45737 0.45971 0.78683 0.0
C1663 C 0.4868 0.45428 0.78545 0.0
N1664 N 0.57104 0.45859 0.75795 0.0
C1665 C 0.61764 0.47278 0.75713 0.0
C1666 C 0.61334 0.4675 0.7422 0.0
C1667 C 0.59022 0.46048 0.7429 0.0
C1668 C 0.59749 0.47089 0.77246 0.0
C1669 C 0.57406 0.46382 0.77253 0.0
N1670 N 0.51333 0.43752 0.75936 0.0
C1671 C 0.45821 0.42985 0.75387 0.0
C1672 C 0.4743 0.42213 0.75912 0.0
C1673 C 0.51007 0.42232 0.7648 0.0
C1674 C 0.52892 0.43005 0.76497 0.0
C1675 C 0.47826 0.43746 0.75395 0.0
H1676 H 0.5563 0.42997 0.76955 0.0
H1677 H 0.4655 0.44327 0.74948 0.0
H1678 H 0.5886 0.45647 0.73126 0.0
H1679 H 0.55882 0.46252 0.78446 0.0
C1680 C 0.61609 0.44087 0.7759 0.0
C1681 C 0.50103 0.449 0.80001 0.0
C1682 C 0.56544 0.44054 0.71641 0.0
C1683 C 0.48236 0.461 0.74167 0.0
H1684 H 0.55145 0.44362 0.82717 0.0
H1685 H 0.6162 0.43992 0.81419 0.0
H1686 H 0.66411 0.43307 0.75075 0.0
H1687 H 0.63449 0.43221 0.71856 0.0
H1688 H 0.51745 0.44798 0.69038 0.0
H1689 H 0.47515 0.46003 0.70378 0.0
H1690 H 0.43237 0.46795 0.76659 0.0
H1691 H 0.43981 0.46062 0.79814 0.0
H1692 H 0.62857 0.46864 0.73013 0.0
H1693 H 0.59969 0.47485 0.78427 0.0
H1694 H 0.43062 0.42998 0.74933 0.0
H1695 H 0.52338 0.41653 0.76923 0.0
C1696 C 0.22289 0.05647 0.07647 0.0
C1697 C 0.22942 0.06371 0.0659 0.0
C1698 C 0.19996 0.05697 0.09118 0.0
C1699 C 0.12786 0.07082 0.11071 0.0
H1700 H 0.13786 0.05505 0.15033 0.0
C1701 C 0.04478 0.0716 0.17715 0.0
C1702 C 0.0295 0.0637 0.18198 0.0
C1703 C 0.0684 0.07212 0.16264 0.0
C1704 C 0.13469 0.05947 0.1393 0.0
H1705 H 0.21967 0.07729 0.06306 0.0
H1706 H 0.18101 0.07834 0.08937 0.0
H1707 H 0.18332 0.05529 0.12704 0.0
H1708 H 0.02503 0.0503 0.17498 0.0
H1709 H 0.06728 0.05113 0.14995 0.0
H1710 H 0.07967 0.07516 0.12362 0.0
C1711 C 0.19207 0.07215 0.08589 0.0
C1712 C 0.16065 0.05959 0.12584 0.0
C1713 C 0.21457 0.0716 0.07094 0.0
C1714 C 0.03691 0.05642 0.17161 0.0
C1715 C 0.06107 0.0569 0.15737 0.0
C1716 C 0.10228 0.07081 0.12442 0.0
C1717 C 0.18373 0.06479 0.09602 0.0
C1718 C 0.15738 0.06516 0.11113 0.0
C1719 C 0.07748 0.06472 0.15292 0.0
C1720 C 0.10517 0.06504 0.13869 0.0
H1721 H 0.23447 0.05033 0.07292 0.0
H1722 H 0.19411 0.05111 0.09834 0.0
H1723 H 0.12383 0.07511 0.09956 0.0
H1724 H 0.03929 0.07729 0.18494 0.0
H1725 H 0.08066 0.07822 0.15945 0.0
C1726 C 0.21455 0.19089 0.18041 0.0
C1727 C 0.22903 0.19883 0.18545 0.0
C1728 C 0.19196 0.19027 0.1655 0.0
C1729 C 0.15958 0.20274 0.12562 0.0
H1730 H 0.07927 0.18697 0.12803 0.0
C1731 C 0.03532 0.20565 0.08015 0.0
C1732 C 0.02796 0.19836 0.06981 0.0
C1733 C 0.05964 0.20521 0.09433 0.0
C1734 C 0.10169 0.19137 0.12718 0.0
H1735 H 0.23334 0.21222 0.17844 0.0
H1736 H 0.19283 0.21132 0.15307 0.0
H1737 H 0.1237 0.18712 0.15198 0.0
H1738 H 0.03797 0.18477 0.06687 0.0
H1739 H 0.07963 0.18392 0.09227 0.0
H1740 H 0.13634 0.20723 0.1012 0.0
C1741 C 0.19904 0.20548 0.16022 0.0
C1742 C 0.12742 0.19143 0.14082 0.0
C1743 C 0.22204 0.20605 0.1749 0.0
C1744 C 0.04341 0.19048 0.07464 0.0
C1745 C 0.06721 0.19 0.0891 0.0
C1746 C 0.13348 0.2028 0.11222 0.0
C1747 C 0.18316 0.19761 0.15539 0.0
C1748 C 0.1567 0.19717 0.14034 0.0
C1749 C 0.07628 0.19742 0.09876 0.0
C1750 C 0.10417 0.19715 0.11291 0.0
H1751 H 0.22 0.18522 0.18827 0.0
H1752 H 0.18118 0.18405 0.16204 0.0
H1753 H 0.18205 0.2071 0.12438 0.0
H1754 H 0.02333 0.21176 0.07678 0.0
H1755 H 0.06583 0.211 0.10171 0.0
C1756 C 0.97177 0.9561 0.82918 0.0
C1757 C 0.97926 0.94879 0.81891 0.0
C1758 C 0.94702 0.95569 0.84316 0.0
C1759 C 0.9037 0.94191 0.87564 0.0
H1760 H 0.82309 0.95751 0.87182 0.0
C1761 C 0.78822 0.94104 0.92718 0.0
C1762 C 0.77294 0.9489 0.9321 0.0
C1763 C 0.81158 0.94054 0.91258 0.0
C1764 C 0.84561 0.95319 0.87335 0.0
H1765 H 0.96907 0.93522 0.81589 0.0
H1766 H 0.92664 0.93441 0.84096 0.0
H1767 H 0.86993 0.9577 0.8492 0.0
H1768 H 0.76834 0.96231 0.92526 0.0
H1769 H 0.81025 0.96162 0.90041 0.0
H1770 H 0.88063 0.93764 0.90016 0.0
C1771 C 0.9393 0.94048 0.83789 0.0
C1772 C 0.87236 0.95329 0.86028 0.0
C1773 C 0.96353 0.94094 0.82363 0.0
C1774 C 0.78008 0.95618 0.92175 0.0
C1775 C 0.80394 0.95574 0.90739 0.0
C1776 C 0.87733 0.94193 0.88896 0.0
C1777 C 0.93009 0.94791 0.84746 0.0
C1778 C 0.90171 0.94767 0.86132 0.0
C1779 C 0.82053 0.94793 0.90271 0.0
C1780 C 0.84789 0.94761 0.88807 0.0
H1781 H 0.98396 0.9622 0.82588 0.0
H1782 H 0.94069 0.96148 0.85049 0.0
H1783 H 0.92617 0.93754 0.87676 0.0
H1784 H 0.78278 0.93532 0.93492 0.0
H1785 H 0.82289 0.93436 0.90919 0.0
C1786 C 0.78588 0.80547 0.82908 0.0
C1787 C 0.7783 0.81273 0.8187 0.0
C1788 C 0.81064 0.80594 0.84305 0.0
C1789 C 0.85354 0.81984 0.87542 0.0
H1790 H 0.93457 0.80435 0.87183 0.0
C1791 C 0.96849 0.82089 0.92727 0.0
C1792 C 0.98393 0.81306 0.93222 0.0
C1793 C 0.94525 0.82135 0.91261 0.0
C1794 C 0.91193 0.80863 0.8733 0.0
H1795 H 0.78837 0.8263 0.81549 0.0
H1796 H 0.83082 0.82723 0.84054 0.0
H1797 H 0.88791 0.80406 0.84911 0.0
H1798 H 0.98893 0.79966 0.9254 0.0
H1799 H 0.94723 0.80028 0.90044 0.0
H1800 H 0.87629 0.82416 0.89998 0.0
C1801 C 0.81823 0.82113 0.83755 0.0
C1802 C 0.88529 0.80849 0.86016 0.0
C1803 C 0.79399 0.82061 0.82329 0.0
C1804 C 0.97706 0.80576 0.92185 0.0
C1805 C 0.95333 0.80617 0.90744 0.0
C1806 C 0.8798 0.81986 0.8888 0.0
C1807 C 0.82748 0.81375 0.84723 0.0
C1808 C 0.85579 0.81406 0.86113 0.0
C1809 C 0.93659 0.81395 0.90271 0.0
C1810 C 0.90937 0.81423 0.888 0.0
H1811 H 0.77368 0.79935 0.82589 0.0
H1812 H 0.81701 0.80019 0.85047 0.0
H1813 H 0.83095 0.82417 0.87649 0.0
H1814 H 0.97372 0.82662 0.93502 0.0
H1815 H 0.93383 0.82751 0.9092 0.0
C1816 C 0.21389 0.57125 0.57475 0.0
C1817 C 0.22912 0.56339 0.56977 0.0
C1818 C 0.19098 0.57176 0.58954 0.0
C1819 C 0.15894 0.55915 0.62927 0.0
H1820 H 0.07832 0.57483 0.62704 0.0
C1821 C 0.03522 0.55597 0.67484 0.0
C1822 C 0.02833 0.56318 0.68552 0.0
C1823 C 0.0591 0.55652 0.66051 0.0
C1824 C 0.10082 0.57045 0.62784 0.0
H1825 H 0.23393 0.54999 0.57665 0.0
H1826 H 0.19282 0.5507 0.60181 0.0
H1827 H 0.12261 0.57475 0.60303 0.0
H1828 H 0.03837 0.57673 0.68885 0.0
H1829 H 0.07936 0.57779 0.66318 0.0
H1830 H 0.13591 0.55461 0.65371 0.0
C1831 C 0.19885 0.55657 0.59475 0.0
C1832 C 0.12648 0.57043 0.61416 0.0
C1833 C 0.22224 0.55612 0.5802 0.0
C1834 C 0.04356 0.57109 0.68083 0.0
C1835 C 0.06695 0.57168 0.66622 0.0
C1836 C 0.13291 0.55905 0.6427 0.0
C1837 C 0.18246 0.56439 0.59957 0.0
C1838 C 0.15589 0.56474 0.61459 0.0
C1839 C 0.07574 0.56434 0.65627 0.0
C1840 C 0.10352 0.56466 0.64209 0.0
H1841 H 0.21911 0.57696 0.56696 0.0
H1842 H 0.17979 0.57794 0.593 0.0
H1843 H 0.1815 0.55482 0.63049 0.0
H1844 H 0.02325 0.54984 0.67807 0.0
H1845 H 0.06503 0.55079 0.65289 0.0
C1846 C 0.03371 0.70634 0.57905 0.0
C1847 C 0.0267 0.69903 0.56875 0.0
C1848 C 0.0572 0.70593 0.59357 0.0
C1849 C 0.12975 0.69213 0.61282 0.0
H1850 H 0.12058 0.70787 0.65256 0.0
C1851 C 0.21402 0.69082 0.67859 0.0
C1852 C 0.22921 0.69865 0.68388 0.0
C1853 C 0.19006 0.69048 0.6642 0.0
C1854 C 0.12354 0.70347 0.64149 0.0
H1855 H 0.03653 0.68544 0.56614 0.0
H1856 H 0.07603 0.68455 0.59211 0.0
H1857 H 0.0749 0.70774 0.62934 0.0
H1858 H 0.23306 0.71217 0.67782 0.0
H1859 H 0.19026 0.71166 0.65298 0.0
H1860 H 0.17793 0.6877 0.62557 0.0
C1861 C 0.06488 0.69072 0.58858 0.0
C1862 C 0.09744 0.7034 0.62808 0.0
C1863 C 0.04187 0.69118 0.57383 0.0
C1864 C 0.22124 0.70608 0.67411 0.0
C1865 C 0.19676 0.70579 0.65998 0.0
C1866 C 0.15547 0.69208 0.62646 0.0
C1867 C 0.07357 0.69813 0.59846 0.0
C1868 C 0.10034 0.69782 0.61338 0.0
C1869 C 0.18055 0.698 0.65504 0.0
C1870 C 0.15286 0.69783 0.64079 0.0
H1871 H 0.02205 0.71246 0.57541 0.0
H1872 H 0.06334 0.71182 0.60055 0.0
H1873 H 0.13352 0.68784 0.60165 0.0
H1874 H 0.21994 0.685 0.68591 0.0
H1875 H 0.17797 0.6844 0.66064 0.0
C1876 C 0.96494 0.44091 0.32358 0.0
C1877 C 0.98066 0.44873 0.31859 0.0
C1878 C 0.9412 0.44053 0.33806 0.0
C1879 C 0.8756 0.45356 0.3611 0.0
H1880 H 0.88442 0.43774 0.40067 0.0
C1881 C 0.7849 0.45643 0.4232 0.0
C1882 C 0.77735 0.4491 0.43333 0.0
C1883 C 0.80873 0.45602 0.40882 0.0
C1884 C 0.88098 0.44209 0.38957 0.0
H1885 H 0.98577 0.46216 0.32528 0.0
H1886 H 0.94337 0.46158 0.35028 0.0
H1887 H 0.92906 0.43757 0.37685 0.0
H1888 H 0.78663 0.43548 0.43578 0.0
H1889 H 0.82675 0.43459 0.41005 0.0
H1890 H 0.82704 0.45791 0.37318 0.0
C1891 C 0.94932 0.45575 0.343 0.0
C1892 C 0.90683 0.44203 0.376 0.0
C1893 C 0.97358 0.45608 0.32879 0.0
C1894 C 0.79241 0.44124 0.42823 0.0
C1895 C 0.81576 0.44077 0.41361 0.0
C1896 C 0.84936 0.45351 0.37444 0.0
C1897 C 0.93245 0.448 0.34759 0.0
C1898 C 0.90464 0.44784 0.36177 0.0
C1899 C 0.82491 0.44819 0.40389 0.0
C1900 C 0.85185 0.44787 0.38905 0.0
H1901 H 0.97015 0.43515 0.31592 0.0
H1902 H 0.92857 0.43448 0.34135 0.0
H1903 H 0.87298 0.45802 0.35011 0.0
H1904 H 0.77329 0.46255 0.42682 0.0
H1905 H 0.81522 0.46192 0.40196 0.0
C1906 C 0.78259 0.30677 0.32746 0.0
C1907 C 0.77644 0.31396 0.31665 0.0
C1908 C 0.80651 0.30724 0.34179 0.0
C1909 C 0.84981 0.321 0.37424 0.0
H1910 H 0.92939 0.30506 0.37131 0.0
C1911 C 0.96367 0.32137 0.42696 0.0
C1912 C 0.97855 0.31346 0.43185 0.0
C1913 C 0.94055 0.32197 0.41226 0.0
C1914 C 0.90714 0.30947 0.37262 0.0
H1915 H 0.7879 0.32743 0.31305 0.0
H1916 H 0.82895 0.32837 0.33873 0.0
H1917 H 0.88345 0.30501 0.34825 0.0
H1918 H 0.98254 0.30006 0.42488 0.0
H1919 H 0.94101 0.30091 0.3999 0.0
H1920 H 0.87222 0.32521 0.39899 0.0
C1921 C 0.81589 0.32233 0.3358 0.0
C1922 C 0.88092 0.30947 0.35927 0.0
C1923 C 0.79245 0.3218 0.3212 0.0
C1924 C 0.9711 0.30622 0.42142 0.0
C1925 C 0.94748 0.30676 0.40697 0.0
C1926 C 0.87565 0.32088 0.38785 0.0
C1927 C 0.82396 0.31498 0.34588 0.0
C1928 C 0.85192 0.3152 0.35999 0.0
C1929 C 0.93144 0.31463 0.40224 0.0
C1930 C 0.90467 0.31507 0.38731 0.0
H1931 H 0.7701 0.30068 0.3243 0.0
H1932 H 0.81193 0.30151 0.34949 0.0
H1933 H 0.82762 0.32546 0.37511 0.0
H1934 H 0.96937 0.32706 0.43475 0.0
H1935 H 0.92966 0.32818 0.40888 0.0
C1936 C 0.72413 0.05562 0.57925 0.0
C1937 C 0.7309 0.06294 0.56896 0.0
C1938 C 0.70062 0.05599 0.59376 0.0
C1939 C 0.62754 0.06965 0.61296 0.0
H1940 H 0.6369 0.05389 0.65263 0.0
C1941 C 0.54265 0.07076 0.67854 0.0
C1942 C 0.52761 0.06289 0.68373 0.0
C1943 C 0.56677 0.07115 0.66423 0.0
C1944 C 0.6339 0.0583 0.64158 0.0
H1945 H 0.72064 0.07651 0.56638 0.0
H1946 H 0.68111 0.07734 0.59234 0.0
H1947 H 0.68274 0.05413 0.6295 0.0
H1948 H 0.52419 0.04937 0.67756 0.0
H1949 H 0.5673 0.04999 0.65286 0.0
H1950 H 0.57914 0.07399 0.62564 0.0
C1951 C 0.69247 0.07119 0.58881 0.0
C1952 C 0.66009 0.05842 0.62822 0.0
C1953 C 0.71549 0.07076 0.57406 0.0
C1954 C 0.53591 0.05548 0.67393 0.0
C1955 C 0.56056 0.05584 0.65989 0.0
C1956 C 0.60173 0.06965 0.62655 0.0
C1957 C 0.68398 0.06376 0.59866 0.0
C1958 C 0.65712 0.06401 0.61354 0.0
C1959 C 0.5766 0.06365 0.65504 0.0
C1960 C 0.60441 0.06389 0.64086 0.0
H1961 H 0.73596 0.04952 0.5756 0.0
H1962 H 0.69465 0.05008 0.60073 0.0
H1963 H 0.62371 0.07395 0.60181 0.0
H1964 H 0.53646 0.07655 0.68588 0.0
H1965 H 0.57873 0.07725 0.66075 0.0
C1966 C 0.54197 0.19123 0.57343 0.0
C1967 C 0.52696 0.19908 0.56817 0.0
C1968 C 0.56541 0.19084 0.58802 0.0
C1969 C 0.59936 0.20378 0.62686 0.0
H1970 H 0.67863 0.1877 0.62488 0.0
C1971 C 0.72347 0.20639 0.67262 0.0
C1972 C 0.73022 0.19908 0.68299 0.0
C1973 C 0.69929 0.20603 0.65837 0.0
C1974 C 0.65652 0.1922 0.62561 0.0
H1975 H 0.52313 0.21257 0.57437 0.0
H1976 H 0.56524 0.21205 0.59917 0.0
H1977 H 0.63404 0.1878 0.60103 0.0
H1978 H 0.71925 0.18554 0.68595 0.0
H1979 H 0.6778 0.18481 0.66047 0.0
H1980 H 0.62305 0.20839 0.6511 0.0
C1981 C 0.55862 0.20611 0.59246 0.0
C1982 C 0.63069 0.19223 0.61202 0.0
C1983 C 0.53468 0.20646 0.57811 0.0
C1984 C 0.71427 0.19127 0.67815 0.0
C1985 C 0.69061 0.19086 0.66364 0.0
C1986 C 0.62558 0.20387 0.64021 0.0
C1987 C 0.57472 0.19831 0.59756 0.0
C1988 C 0.6017 0.19804 0.61239 0.0
C1989 C 0.68218 0.19829 0.65392 0.0
C1990 C 0.65445 0.1981 0.6397 0.0
H1991 H 0.53607 0.18544 0.56602 0.0
H1992 H 0.57634 0.18466 0.59171 0.0
H1993 H 0.57715 0.20822 0.62801 0.0
H1994 H 0.73588 0.21246 0.67599 0.0
H1995 H 0.69359 0.21182 0.65094 0.0
C1996 C 0.29331 0.94115 0.42838 0.0
C1997 C 0.27751 0.949 0.43309 0.0
C1998 C 0.31736 0.9407 0.41404 0.0
C1999 C 0.38398 0.95347 0.39149 0.0
H2000 H 0.37505 0.93792 0.35146 0.0
C2001 C 0.47599 0.95641 0.32996 0.0
C2002 C 0.48297 0.94915 0.31953 0.0
C2003 C 0.4521 0.95597 0.3443 0.0
C2004 C 0.37853 0.94219 0.3627 0.0
H2005 H 0.27247 0.96239 0.42603 0.0
H2006 H 0.31548 0.96167 0.4013 0.0
H2007 H 0.32974 0.9378 0.37497 0.0
H2008 H 0.47278 0.93559 0.31654 0.0
H2009 H 0.43261 0.93462 0.34224 0.0
H2010 H 0.43322 0.95768 0.37989 0.0
C2011 C 0.30933 0.95589 0.40869 0.0
C2012 C 0.35229 0.94216 0.37609 0.0
C2013 C 0.28475 0.9563 0.42275 0.0
C2014 C 0.46745 0.94129 0.32434 0.0
C2015 C 0.44406 0.94079 0.33893 0.0
C2016 C 0.4106 0.95339 0.37836 0.0
C2017 C 0.32631 0.94812 0.40439 0.0
C2018 C 0.35453 0.94789 0.39046 0.0
C2019 C 0.43533 0.94817 0.3489 0.0
C2020 C 0.40807 0.94784 0.36358 0.0
H2021 H 0.28795 0.93545 0.43616 0.0
H2022 H 0.33007 0.93464 0.41096 0.0
H2023 H 0.38659 0.95787 0.40261 0.0
H2024 H 0.48793 0.96253 0.32654 0.0
H2025 H 0.44594 0.96183 0.35135 0.0
C2026 C 0.46581 0.82119 0.42811 0.0
C2027 C 0.48162 0.81333 0.43273 0.0
C2028 C 0.44168 0.82167 0.41381 0.0
C2029 C 0.37487 0.80893 0.39129 0.0
H2030 H 0.38324 0.82459 0.35145 0.0
C2031 C 0.28225 0.80612 0.32993 0.0
C2032 C 0.27513 0.81342 0.31962 0.0
C2033 C 0.30624 0.80654 0.34424 0.0
C2034 C 0.37991 0.82029 0.36264 0.0
H2035 H 0.48659 0.79996 0.42554 0.0
H2036 H 0.44345 0.80072 0.40087 0.0
H2037 H 0.42883 0.82466 0.37483 0.0
H2038 H 0.28518 0.82699 0.31681 0.0
H2039 H 0.32552 0.8279 0.34246 0.0
H2040 H 0.32551 0.80474 0.37976 0.0
C2041 C 0.44966 0.80649 0.4083 0.0
C2042 C 0.40631 0.8203 0.37595 0.0
C2043 C 0.47433 0.80606 0.42232 0.0
C2044 C 0.29061 0.82127 0.32452 0.0
C2045 C 0.3141 0.82174 0.33907 0.0
C2046 C 0.34809 0.80904 0.37823 0.0
C2047 C 0.43264 0.81427 0.40411 0.0
C2048 C 0.40428 0.81452 0.39025 0.0
C2049 C 0.32299 0.81433 0.34891 0.0
C2050 C 0.35041 0.81463 0.36353 0.0
H2051 H 0.4712 0.82688 0.43595 0.0
H2052 H 0.42893 0.82774 0.41081 0.0
H2053 H 0.37241 0.8045 0.40236 0.0
H2054 H 0.27035 0.80001 0.32643 0.0
H2055 H 0.3125 0.80065 0.3512 0.0
C2056 C 0.72245 0.5558 0.07776 0.0
C2057 C 0.73019 0.56321 0.06793 0.0
C2058 C 0.69851 0.5561 0.09211 0.0
C2059 C 0.62643 0.56991 0.11188 0.0
H2060 H 0.63428 0.55367 0.15078 0.0
C2061 C 0.54262 0.57077 0.1779 0.0
C2062 C 0.52697 0.56293 0.1828 0.0
C2063 C 0.56631 0.57119 0.1634 0.0
C2064 C 0.63168 0.55822 0.13994 0.0
H2065 H 0.72106 0.57686 0.066 0.0
H2066 H 0.68076 0.57755 0.09168 0.0
H2067 H 0.68009 0.5539 0.12765 0.0
H2068 H 0.52194 0.54952 0.17595 0.0
H2069 H 0.56422 0.55019 0.15091 0.0
H2070 H 0.5785 0.57439 0.12481 0.0
C2071 C 0.6917 0.57139 0.08789 0.0
C2072 C 0.65786 0.55833 0.12657 0.0
C2073 C 0.71515 0.57104 0.07331 0.0
C2074 C 0.53409 0.5556 0.17252 0.0
C2075 C 0.55829 0.55599 0.15828 0.0
C2076 C 0.60063 0.5699 0.12548 0.0
C2077 C 0.6824 0.56388 0.09732 0.0
C2078 C 0.65545 0.5641 0.11217 0.0
C2079 C 0.57507 0.56376 0.15375 0.0
C2080 C 0.60277 0.56398 0.13952 0.0
H2081 H 0.73402 0.5497 0.07392 0.0
H2082 H 0.6919 0.55014 0.09873 0.0
H2083 H 0.62303 0.57436 0.10094 0.0
H2084 H 0.53738 0.5765 0.18563 0.0
H2085 H 0.57886 0.57726 0.16017 0.0
C2086 C 0.71559 0.69085 0.17633 0.0
C2087 C 0.73069 0.69873 0.18132 0.0
C2088 C 0.69269 0.69031 0.16153 0.0
C2089 C 0.66047 0.70288 0.1218 0.0
H2090 H 0.58001 0.68713 0.12412 0.0
C2091 C 0.53682 0.70584 0.07608 0.0
C2092 C 0.52968 0.69857 0.06563 0.0
C2093 C 0.56082 0.70537 0.09038 0.0
C2094 C 0.60247 0.69152 0.12329 0.0
H2095 H 0.73529 0.71213 0.17446 0.0
H2096 H 0.69419 0.71138 0.14928 0.0
H2097 H 0.6243 0.68728 0.14813 0.0
H2098 H 0.53942 0.68499 0.06267 0.0
H2099 H 0.58066 0.68407 0.08826 0.0
H2100 H 0.63741 0.70736 0.09733 0.0
C2101 C 0.70032 0.70551 0.15635 0.0
C2102 C 0.62812 0.69159 0.13698 0.0
C2103 C 0.7237 0.70599 0.1709 0.0
C2104 C 0.54482 0.69068 0.0705 0.0
C2105 C 0.56835 0.69016 0.08507 0.0
C2106 C 0.63445 0.70293 0.10836 0.0
C2107 C 0.68405 0.69768 0.15152 0.0
C2108 C 0.65747 0.6973 0.13651 0.0
C2109 C 0.57734 0.69756 0.09481 0.0
C2110 C 0.60512 0.69729 0.10901 0.0
H2111 H 0.72091 0.68514 0.18411 0.0
H2112 H 0.6816 0.68412 0.15807 0.0
H2113 H 0.68298 0.70722 0.12057 0.0
H2114 H 0.52489 0.71196 0.07273 0.0
H2115 H 0.5669 0.71114 0.09784 0.0
C2116 C 0.47395 0.4553 0.82767 0.0
C2117 C 0.48037 0.44811 0.81689 0.0
C2118 C 0.44992 0.45481 0.84195 0.0
C2119 C 0.40677 0.44105 0.87439 0.0
H2120 H 0.32668 0.45683 0.87118 0.0
C2121 C 0.29264 0.44058 0.92695 0.0
C2122 C 0.27745 0.44848 0.93174 0.0
C2123 C 0.31584 0.43999 0.91228 0.0
C2124 C 0.34907 0.45246 0.87256 0.0
H2125 H 0.46928 0.43461 0.81333 0.0
H2126 H 0.42805 0.43365 0.83892 0.0
H2127 H 0.37279 0.45691 0.84821 0.0
H2128 H 0.27295 0.46185 0.9246 0.0
H2129 H 0.3146 0.46101 0.89968 0.0
H2130 H 0.38432 0.43685 0.89912 0.0
C2131 C 0.44097 0.4397 0.836 0.0
C2132 C 0.37539 0.45248 0.85927 0.0
C2133 C 0.46452 0.44024 0.82144 0.0
C2134 C 0.28464 0.4557 0.92122 0.0
C2135 C 0.30833 0.45517 0.9068 0.0
C2136 C 0.38082 0.44114 0.88794 0.0
C2137 C 0.43264 0.44705 0.84604 0.0
C2138 C 0.40457 0.44681 0.86008 0.0
C2139 C 0.32471 0.44732 0.90218 0.0
C2140 C 0.35161 0.4469 0.88731 0.0
H2141 H 0.48631 0.4614 0.82452 0.0
H2142 H 0.4443 0.46054 0.84962 0.0
H2143 H 0.4291 0.43663 0.87534 0.0
H2144 H 0.28717 0.4349 0.9348 0.0
H2145 H 0.32698 0.43379 0.90898 0.0
C2146 C 0.29251 0.32129 0.82363 0.0
C2147 C 0.27645 0.3135 0.81874 0.0
C2148 C 0.3163 0.32165 0.83809 0.0
C2149 C 0.38155 0.30855 0.86109 0.0
H2150 H 0.37371 0.32443 0.90062 0.0
C2151 C 0.47304 0.3056 0.92289 0.0
C2152 C 0.48089 0.31293 0.93299 0.0
C2153 C 0.44902 0.30604 0.90859 0.0
C2154 C 0.37688 0.32006 0.88953 0.0
H2155 H 0.27073 0.3001 0.82559 0.0
H2156 H 0.31322 0.30065 0.85056 0.0
H2157 H 0.32879 0.32465 0.87692 0.0
H2158 H 0.47198 0.32656 0.93545 0.0
H2159 H 0.43154 0.3275 0.90984 0.0
H2160 H 0.43013 0.30413 0.87304 0.0
C2161 C 0.3075 0.30647 0.84322 0.0
C2162 C 0.35086 0.32015 0.87602 0.0
C2163 C 0.28318 0.30616 0.82902 0.0
C2164 C 0.46596 0.32081 0.92792 0.0
C2165 C 0.44243 0.3213 0.91338 0.0
C2166 C 0.40796 0.30856 0.87435 0.0
C2167 C 0.32475 0.31419 0.8477 0.0
C2168 C 0.35271 0.31432 0.86182 0.0
C2169 C 0.43296 0.31388 0.9037 0.0
C2170 C 0.40583 0.31423 0.88894 0.0
H2171 H 0.28756 0.32703 0.81589 0.0
H2172 H 0.32922 0.32768 0.8413 0.0
H2173 H 0.3839 0.30407 0.85011 0.0
H2174 H 0.48455 0.29947 0.92649 0.0
H2175 H 0.44229 0.30014 0.90177 0.0
C2176 C 0.38935 0.02445 0.01315 0.0
C2177 C 0.3976 0.03282 0.00757 0.0
C2178 C 0.41531 0.01794 0.01237 0.0
C2179 C 0.50359 0.01272 0.99097 0.0
H2180 H 0.50513 0.99435 0.02573 0.0
C2181 C 0.61891 0.98769 0.99446 0.0
C2182 C 0.60843 0.97906 0.99615 0.0
C2183 C 0.59373 0.99431 0.99639 0.0
C2184 C 0.50494 0.99941 0.01586 0.0
H2185 H 0.44013 0.04099 0.99759 0.0
H2186 H 0.48546 0.02979 0.99672 0.0
H2187 H 0.4605 1.00572 0.02833 0.0
H2188 H 0.56339 0.97068 0.00175 0.0
H2189 H 0.51965 0.98221 0.00521 0.0
H2190 H 0.54844 0.00644 0.97871 0.0
C2191 C 0.45869 0.02811 0.0011 0.0
C2192 C 0.47919 1.00593 0.01729 0.0
C2193 C 0.43267 0.03457 0.00168 0.0
C2194 C 0.57232 0.97725 1.00017 0.0
C2195 C 0.54728 0.98386 0.00232 0.0
C2196 C 0.52955 0.00625 0.98967 0.0
C2197 C 0.45037 0.01965 0.0062 0.0
C2198 C 0.47802 0.01269 0.00483 0.0
C2199 C 0.55757 0.99248 1.00032 0.0
C2200 C 0.53049 0.99949 0.00205 0.0
H2201 H 0.36251 0.02288 0.01764 0.0
H2202 H 0.40756 0.01152 0.01622 0.0
H2203 H 0.50327 0.01766 0.98086 0.0
H2204 H 0.64646 0.98931 0.9913 0.0
H2205 H 0.60261 1.00088 0.99491 0.0
C2206 C 0.65555 0.27864 0.0104 0.0
C2207 C 0.64838 0.28237 0.99368 0.0
C2208 C 0.68126 0.27213 0.01217 0.0
C2209 C 0.76091 0.26274 0.98937 0.0
H2210 H 0.74519 0.24376 0.02176 0.0
C2211 C 0.85595 0.23321 0.9919 0.0
C2212 C 0.86301 0.22947 0.00862 0.0
C2213 C 0.83016 0.2397 0.99009 0.0
C2214 C 0.7503 0.24906 0.01281 0.0
H2215 H 0.66217 0.28187 0.9656 0.0
H2216 H 0.70677 0.27055 0.96868 0.0
H2217 H 0.69931 0.25478 0.01857 0.0
H2218 H 0.84898 0.22995 0.03667 0.0
H2219 H 0.8043 0.24124 0.03354 0.0
H2220 H 0.81191 0.25702 0.98362 0.0
C2221 C 0.69302 0.27278 0.98052 0.0
C2222 C 0.72387 0.2554 0.01096 0.0
C2223 C 0.66732 0.27929 0.97875 0.0
C2224 C 0.84391 0.23254 0.02352 0.0
C2225 C 0.81816 0.23903 0.02171 0.0
C2226 C 0.78734 0.2564 0.99122 0.0
C2227 C 0.7006 0.26914 0.99728 0.0
C2228 C 0.72876 0.26234 0.99922 0.0
C2229 C 0.81067 0.24267 0.00495 0.0
C2230 C 0.78246 0.24946 0.00298 0.0
H2231 H 0.64198 0.28092 0.02226 0.0
H2232 H 0.68661 0.26958 0.02533 0.0
H2233 H 0.76601 0.26804 0.98042 0.0
H2234 H 0.86964 0.23095 0.98007 0.0
H2235 H 0.82489 0.24225 0.97692 0.0
C2236 C 0.38942 0.23788 0.23978 0.0
C2237 C 0.39692 0.22952 0.2457 0.0
C2238 C 0.41562 0.24434 0.24085 0.0
C2239 C 0.51391 0.24768 0.24419 0.0
H2240 H 0.48866 0.27017 0.26223 0.0
C2241 C 0.6113 0.27664 0.24128 0.0
C2242 C 0.61321 0.28202 0.25632 0.0
C2243 C 0.58534 0.27017 0.24016 0.0
C2244 C 0.49619 0.26391 0.25726 0.0
H2245 H 0.43834 0.22135 0.25683 0.0
H2246 H 0.48378 0.23255 0.25864 0.0
H2247 H 0.44234 0.25913 0.25943 0.0
H2248 H 0.58928 0.28475 0.28201 0.0
H2249 H 0.54381 0.27344 0.28006 0.0
H2250 H 0.56772 0.25243 0.24206 0.0
C2251 C 0.45767 0.23416 0.25323 0.0
C2252 C 0.46956 0.25761 0.25546 0.0
C2253 C 0.43147 0.22774 0.25234 0.0
C2254 C 0.58874 0.28068 0.27032 0.0
C2255 C 0.56244 0.27426 0.26911 0.0
C2256 C 0.54043 0.254 0.24581 0.0
C2257 C 0.45009 0.24256 0.24762 0.0
C2258 C 0.4781 0.24939 0.24898 0.0
C2259 C 0.56031 0.26894 0.25396 0.0
C2260 C 0.53198 0.26219 0.25242 0.0
H2261 H 0.36307 0.23948 0.23467 0.0
H2262 H 0.40897 0.25073 0.23626 0.0
H2263 H 0.52143 0.24145 0.23902 0.0
H2264 H 0.62987 0.27746 0.23031 0.0
H2265 H 0.58437 0.26624 0.22826 0.0
C2266 C 0.6552 0.98376 0.24164 0.0
C2267 C 0.64871 0.9799 0.25829 0.0
C2268 C 0.68106 0.99024 0.23981 0.0
C2269 C 0.76202 0.99933 0.26206 0.0
H2270 H 0.74545 0.01858 0.23048 0.0
C2271 C 0.85751 0.02879 0.25962 0.0
C2272 C 0.86406 0.03263 0.24296 0.0
C2273 C 0.83167 0.0223 0.26146 0.0
C2274 C 0.75078 0.0132 0.2392 0.0
H2275 H 0.66386 0.98013 0.28621 0.0
H2276 H 0.70867 0.9914 0.28305 0.0
H2277 H 0.6994 0.00759 0.23379 0.0
H2278 H 0.84903 0.03236 0.21502 0.0
H2279 H 0.80423 0.02109 0.2182 0.0
H2280 H 0.8134 1.00494 0.26748 0.0
C2281 C 0.6943 0.9893 0.27128 0.0
C2282 C 0.72427 0.00688 0.24111 0.0
C2283 C 0.66847 0.98282 0.27311 0.0
C2284 C 0.84438 0.02969 0.22813 0.0
C2285 C 0.81856 0.02321 0.22997 0.0
C2286 C 0.78853 1.00565 0.26016 0.0
C2287 C 0.7012 0.99307 0.25458 0.0
C2288 C 0.72946 0.99984 0.25257 0.0
C2289 C 0.8116 0.01945 0.24668 0.0
C2290 C 0.78334 0.01268 0.24869 0.0
H2291 H 0.64098 0.98161 0.22986 0.0
H2292 H 0.68586 0.99289 0.22668 0.0
H2293 H 0.76736 0.99395 0.27078 0.0
H2294 H 0.87167 0.03095 0.2714 0.0
H2295 H 0.82682 0.01966 0.27459 0.0
C2296 C 0.36843 0.73759 0.01279 0.0
C2297 C 0.36005 0.7292 0.00737 0.0
C2298 C 0.34252 0.74411 0.01196 0.0
C2299 C 0.25416 0.7493 0.99063 0.0
H2300 H 0.25287 0.76777 0.02519 0.0
C2301 C 0.13883 0.77433 0.99401 0.0
C2302 C 0.14921 0.78296 0.99572 0.0
C2303 C 0.16409 0.76772 0.99592 0.0
C2304 C 0.253 0.76268 0.01536 0.0
H2305 H 0.31734 0.72101 0.99761 0.0
H2306 H 0.27212 0.73224 0.99663 0.0
H2307 H 0.29749 0.7564 0.02784 0.0
H2308 H 0.19419 0.79136 0.00133 0.0
H2309 H 0.23806 0.77986 0.00473 0.0
H2310 H 0.20927 0.75555 0.97834 0.0
C2311 C 0.29895 0.73392 0.00093 0.0
C2312 C 0.27874 0.75616 0.01683 0.0
C2313 C 0.3249 0.72744 0.00158 0.0
C2314 C 0.18533 0.78479 0.99972 0.0
C2315 C 0.21044 0.7782 0.00184 0.0
C2316 C 0.22822 0.75577 0.98928 0.0
C2317 C 0.3074 0.74239 0.00588 0.0
C2318 C 0.2798 0.74937 0.00446 0.0
C2319 C 0.20024 0.76957 0.99985 0.0
C2320 C 0.22736 0.76257 0.00159 0.0
H2321 H 0.39532 0.73916 0.0172 0.0
H2322 H 0.35036 0.75055 0.01568 0.0
H2323 H 0.2544 0.74432 0.98057 0.0
H2324 H 0.1113 0.77269 0.99086 0.0
H2325 H 0.15525 0.76114 0.99443 0.0
C2326 C 0.6037 0.77809 0.74186 0.0
C2327 C 0.61102 0.78185 0.75853 0.0
C2328 C 0.57788 0.77159 0.74019 0.0
C2329 C 0.49843 0.76224 0.76325 0.0
H2330 H 0.51378 0.74324 0.73086 0.0
C2331 C 0.40393 0.73259 0.76112 0.0
C2332 C 0.39652 0.72888 0.7444 0.0
C2333 C 0.42959 0.73912 0.76284 0.0
C2334 C 0.5088 0.74855 0.73982 0.0
H2335 H 0.59739 0.78145 0.78663 0.0
H2336 H 0.55267 0.77014 0.78374 0.0
H2337 H 0.5597 0.75427 0.7339 0.0
H2338 H 0.40974 0.72946 0.71626 0.0
H2339 H 0.45425 0.74081 0.71924 0.0
H2340 H 0.44754 0.75651 0.76919 0.0
C2341 C 0.56635 0.77233 0.77185 0.0
C2342 C 0.53523 0.7549 0.74157 0.0
C2343 C 0.59213 0.77883 0.77352 0.0
C2344 C 0.4151 0.73202 0.72941 0.0
C2345 C 0.44074 0.73854 0.73113 0.0
C2346 C 0.47201 0.75589 0.76151 0.0
C2347 C 0.55863 0.76865 0.75514 0.0
C2348 C 0.53046 0.76184 0.75331 0.0
C2349 C 0.44861 0.74215 0.74788 0.0
C2350 C 0.47677 0.74895 0.74975 0.0
H2351 H 0.61724 0.78033 0.72996 0.0
H2352 H 0.57242 0.76902 0.72705 0.0
H2353 H 0.49343 0.76755 0.77221 0.0
H2354 H 0.39062 0.73027 0.77302 0.0
H2355 H 0.43515 0.74165 0.776 0.0
C2356 C 0.16337 0.98278 0.77308 0.0
C2357 C 0.14455 0.97969 0.75812 0.0
C2358 C 0.18906 0.98929 0.77136 0.0
C2359 C 0.22016 0.00665 0.74096 0.0
H2360 H 0.30792 1.00505 0.76855 0.0
C2361 C 0.34034 0.02951 0.72876 0.0
C2362 C 0.35897 0.03264 0.74375 0.0
C2363 C 0.31465 0.02299 0.73048 0.0
C2364 C 0.28343 1.00567 0.76088 0.0
H2365 H 0.13828 0.98114 0.72954 0.0
H2366 H 0.18296 0.99248 0.72653 0.0
H2367 H 0.26201 0.99402 0.77162 0.0
H2368 H 0.36488 0.03125 0.77237 0.0
H2369 H 0.32028 0.0199 0.77535 0.0
H2370 H 0.2416 0.01829 0.73021 0.0
C2371 C 0.17752 0.98993 0.73968 0.0
C2372 C 0.257 0.99932 0.76265 0.0
C2373 C 0.15178 0.98342 0.74141 0.0
C2374 C 0.35155 0.02894 0.76048 0.0
C2375 C 0.32585 0.02242 0.76219 0.0
C2376 C 0.2466 0.01299 0.73918 0.0
C2377 C 0.19676 0.99292 0.75461 0.0
C2378 C 0.22494 0.99972 0.75273 0.0
C2379 C 0.3068 0.0194 0.74723 0.0
C2380 C 0.27864 0.0126 0.74911 0.0
H2381 H 0.15815 0.98019 0.78622 0.0
H2382 H 0.20273 0.99152 0.78323 0.0
H2383 H 0.19567 0.00726 0.73329 0.0
H2384 H 0.34571 0.03207 0.71561 0.0
H2385 H 0.30112 0.02073 0.7186 0.0
C2386 C 0.60293 0.48341 0.51045 0.0
C2387 C 0.60982 0.47963 0.49376 0.0
C2388 C 0.57709 0.48989 0.51224 0.0
C2389 C 0.49665 0.499 0.48978 0.0
H2390 H 0.51267 0.51821 0.52159 0.0
C2391 C 0.4009 0.52836 0.49223 0.0
C2392 C 0.39409 0.53215 0.50892 0.0
C2393 C 0.42684 0.52191 0.4904 0.0
C2394 C 0.5075 0.51284 0.5128 0.0
H2395 H 0.59546 0.47998 0.46574 0.0
H2396 H 0.55062 0.49125 0.46885 0.0
H2397 H 0.55886 0.50726 0.51832 0.0
H2398 H 0.40874 0.53185 0.5369 0.0
H2399 H 0.4537 0.52061 0.53374 0.0
H2400 H 0.44528 0.50457 0.48427 0.0
C2401 C 0.56469 0.48909 0.48066 0.0
C2402 C 0.53409 0.50654 0.51091 0.0
C2403 C 0.59051 0.48262 0.47887 0.0
C2404 C 0.4136 0.5292 0.52378 0.0
C2405 C 0.4395 0.52275 0.52195 0.0
C2406 C 0.47006 0.50529 0.49167 0.0
C2407 C 0.55737 0.49278 0.4974 0.0
C2408 C 0.52907 0.49953 0.49937 0.0
C2409 C 0.44672 0.51905 0.50522 0.0
C2410 C 0.47507 0.51231 0.50322 0.0
H2411 H 0.6168 0.48121 0.52228 0.0
H2412 H 0.57194 0.49248 0.52539 0.0
H2413 H 0.49148 0.49363 0.48099 0.0
H2414 H 0.38688 0.53054 0.48042 0.0
H2415 H 0.43191 0.51931 0.47725 0.0
C2416 C 0.65364 0.77863 0.51015 0.0
C2417 C 0.64655 0.78242 0.49349 0.0
C2418 C 0.67952 0.77216 0.51185 0.0
C2419 C 0.75971 0.76309 0.4891 0.0
H2420 H 0.74429 0.74387 0.52091 0.0
C2421 C 0.85547 0.73372 0.49112 0.0
C2422 C 0.86249 0.72993 0.50779 0.0
C2423 C 0.82957 0.74019 0.48941 0.0
C2424 C 0.74929 0.74924 0.51212 0.0
H2425 H 0.66053 0.78207 0.46543 0.0
H2426 H 0.7054 0.7708 0.46838 0.0
H2427 H 0.69797 0.7548 0.51783 0.0
H2428 H 0.8484 0.73027 0.53584 0.0
H2429 H 0.80352 0.74153 0.53286 0.0
H2430 H 0.81103 0.75754 0.48339 0.0
C2431 C 0.69149 0.77296 0.48023 0.0
C2432 C 0.72264 0.75553 0.51035 0.0
C2433 C 0.66564 0.77943 0.47853 0.0
C2434 C 0.84334 0.73291 0.52273 0.0
C2435 C 0.81748 0.73938 0.52102 0.0
C2436 C 0.78637 0.75681 0.49088 0.0
C2437 C 0.69905 0.76928 0.49694 0.0
C2438 C 0.72743 0.76254 0.49881 0.0
C2439 C 0.80997 0.74306 0.50431 0.0
C2440 C 0.78157 0.74979 0.50242 0.0
H2441 H 0.63992 0.78084 0.52202 0.0
H2442 H 0.68486 0.76956 0.52498 0.0
H2443 H 0.76471 0.76846 0.48032 0.0
H2444 H 0.86925 0.73152 0.47927 0.0
H2445 H 0.82428 0.74278 0.47628 0.0
C2446 C 0.8255 0.53427 0.75223 0.0
C2447 C 0.85997 0.53248 0.74552 0.0
C2448 C 0.79927 0.52787 0.75316 0.0
C2449 C 0.78733 0.50443 0.75541 0.0
H2450 H 0.68905 0.50963 0.74224 0.0
C2451 C 0.66822 0.4814 0.77056 0.0
C2452 C 0.64365 0.48006 0.75659 0.0
C2453 C 0.6945 0.48782 0.76929 0.0
C2454 C 0.71637 0.50805 0.74592 0.0
H2455 H 0.89368 0.52252 0.73439 0.0
H2456 H 0.84773 0.51128 0.73604 0.0
H2457 H 0.73536 0.52059 0.73908 0.0
H2458 H 0.62681 0.48459 0.7306 0.0
H2459 H 0.67229 0.49581 0.72846 0.0
H2460 H 0.76823 0.49187 0.76223 0.0
C2461 C 0.84116 0.51767 0.74066 0.0
C2462 C 0.7429 0.51436 0.74423 0.0
C2463 C 0.86738 0.52412 0.73956 0.0
C2464 C 0.64545 0.48542 0.74155 0.0
C2465 C 0.6714 0.49189 0.74037 0.0
C2466 C 0.76068 0.49814 0.75727 0.0
C2467 C 0.80676 0.51947 0.74751 0.0
C2468 C 0.77875 0.51264 0.74894 0.0
C2469 C 0.69653 0.49312 0.75413 0.0
C2470 C 0.72486 0.49986 0.75252 0.0
H2471 H 0.81871 0.54066 0.75676 0.0
H2472 H 0.77322 0.52948 0.75863 0.0
H2473 H 0.81458 0.50291 0.75931 0.0
H2474 H 0.66775 0.47734 0.78226 0.0
H2475 H 0.71321 0.48865 0.78021 0.0
C2476 C 0.16304 0.27908 0.47793 0.0
C2477 C 0.144 0.28215 0.49283 0.0
C2478 C 0.18888 0.27261 0.47975 0.0
C2479 C 0.21992 0.25531 0.51026 0.0
H2480 H 0.30805 0.25702 0.48302 0.0
C2481 C 0.3402 0.23254 0.5228 0.0
C2482 C 0.35916 0.22947 0.50787 0.0
C2483 C 0.31444 0.23903 0.52103 0.0
C2484 C 0.28346 0.25638 0.49059 0.0
H2485 H 0.13754 0.28073 0.52141 0.0
H2486 H 0.18243 0.26946 0.52458 0.0
H2487 H 0.26199 0.268 0.47978 0.0
H2488 H 0.36557 0.23092 0.47929 0.0
H2489 H 0.32081 0.24222 0.47621 0.0
H2490 H 0.24138 0.24368 0.52106 0.0
C2491 C 0.17705 0.27199 0.5114 0.0
C2492 C 0.25695 0.26269 0.48872 0.0
C2493 C 0.15119 0.27846 0.50958 0.0
C2494 C 0.35197 0.23319 0.49115 0.0
C2495 C 0.32619 0.23968 0.48937 0.0
C2496 C 0.24643 0.249 0.51213 0.0
C2497 C 0.19648 0.26901 0.49653 0.0
C2498 C 0.22476 0.26225 0.49852 0.0
C2499 C 0.30684 0.24266 0.50427 0.0
C2500 C 0.27861 0.24943 0.50232 0.0
H2501 H 0.15787 0.28165 0.46477 0.0
H2502 H 0.20271 0.27039 0.46793 0.0
H2503 H 0.19532 0.25466 0.51783 0.0
H2504 H 0.34538 0.22996 0.53595 0.0
H2505 H 0.30066 0.24125 0.53287 0.0
C2506 C 0.16492 0.48233 0.27247 0.0
C2507 C 0.14559 0.47937 0.25755 0.0
C2508 C 0.1907 0.48883 0.27076 0.0
C2509 C 0.22128 0.50639 0.24074 0.0
H2510 H 0.3099 0.50444 0.26753 0.0
C2511 C 0.34153 0.52924 0.22841 0.0
C2512 C 0.36098 0.53215 0.24333 0.0
C2513 C 0.31569 0.52275 0.2301 0.0
C2514 C 0.28517 0.50516 0.26009 0.0
H2515 H 0.13852 0.48104 0.22907 0.0
H2516 H 0.1833 0.49236 0.2261 0.0
H2517 H 0.26381 0.49345 0.27058 0.0
H2518 H 0.36816 0.53043 0.27179 0.0
H2519 H 0.32326 0.51914 0.27473 0.0
H2520 H 0.24263 0.5181 0.23025 0.0
C2521 C 0.17821 0.48972 0.23921 0.0
C2522 C 0.25864 0.49884 0.26185 0.0
C2523 C 0.15241 0.48322 0.24092 0.0
C2524 C 0.35418 0.52829 0.25995 0.0
C2525 C 0.32831 0.5218 0.26164 0.0
C2526 C 0.24781 0.51272 0.23898 0.0
C2527 C 0.19797 0.49258 0.25408 0.0
C2528 C 0.22626 0.49936 0.25221 0.0
C2529 C 0.30847 0.51898 0.24676 0.0
C2530 C 0.28018 0.5122 0.24862 0.0
H2531 H 0.16004 0.47966 0.28556 0.0
H2532 H 0.20477 0.49096 0.2826 0.0
H2533 H 0.19655 0.5071 0.23329 0.0
H2534 H 0.34638 0.53194 0.21534 0.0
H2535 H 0.30156 0.52065 0.21826 0.0
C2536 C 0.1042 0.98355 0.51007 0.0
C2537 C 0.11102 0.97969 0.49344 0.0
C2538 C 0.07826 0.99001 0.51177 0.0
C2539 C 0.99757 0.99896 0.48921 0.0
H2540 H 0.01353 0.01831 0.52063 0.0
C2541 C 0.90172 0.02832 0.4912 0.0
C2542 C 0.895 0.03218 0.50784 0.0
C2543 C 0.92761 0.02185 0.48947 0.0
C2544 C 0.00838 0.0129 0.51195 0.0
H2545 H 0.09645 0.97989 0.46545 0.0
H2546 H 0.05147 0.99113 0.46839 0.0
H2547 H 0.05982 0.00738 0.51752 0.0
H2548 H 0.90965 0.03196 0.53582 0.0
H2549 H 0.95453 0.0207 0.53282 0.0
H2550 H 0.94612 1.00448 0.48364 0.0
C2551 C 0.06565 0.98904 0.48022 0.0
C2552 C 0.03502 0.00662 0.51016 0.0
C2553 C 0.09156 0.98259 0.47852 0.0
C2554 C 0.91447 0.02926 0.52274 0.0
C2555 C 0.94033 0.0228 0.521 0.0
C2556 C 0.97092 1.00524 0.491 0.0
C2557 C 0.0584 0.99281 0.49689 0.0
C2558 C 0.03002 0.99955 0.49876 0.0
C2559 C 0.94752 0.01904 0.50432 0.0
C2560 C 0.97591 0.01231 0.50241 0.0
H2561 H 0.11819 0.98142 0.52191 0.0
H2562 H 0.07316 0.99267 0.52486 0.0
H2563 H 0.99242 0.99354 0.48054 0.0
H2564 H 0.88769 0.03047 0.47938 0.0
H2565 H 0.93264 0.0192 0.47636 0.0
C2566 C 0.88796 0.23796 0.74625 0.0
C2567 C 0.89864 0.22937 0.74401 0.0
C2568 C 0.91356 0.24452 0.74787 0.0
C2569 C 0.00998 0.24836 0.75861 0.0
H2570 H 0.9936 0.27019 0.73536 0.0
C2571 C 0.12035 0.27464 0.75459 0.0
C2572 C 0.10954 0.28321 0.75693 0.0
C2573 C 0.09485 0.26806 0.75291 0.0
C2574 C 0.99849 0.26417 0.74212 0.0
H2575 H 0.94503 0.22101 0.74214 0.0
H2576 H 0.98934 0.2324 0.74454 0.0
H2577 H 0.94874 0.25887 0.73294 0.0
H2578 H 0.06303 0.29153 0.75889 0.0
H2579 H 0.01888 0.28011 0.75635 0.0
H2580 H 0.05974 0.25366 0.76779 0.0
C2581 C 0.96118 0.23408 0.7452 0.0
C2582 C 0.97266 0.25766 0.74074 0.0
C2583 C 0.93565 0.22754 0.74357 0.0
C2584 C 0.0725 0.28501 0.75738 0.0
C2585 C 0.04707 0.27845 0.75568 0.0
C2586 C 0.03581 0.25487 0.75999 0.0
C2587 C 0.95056 0.24268 0.74735 0.0
C2588 C 0.978 0.24966 0.74896 0.0
C2589 C 0.05781 0.26987 0.75345 0.0
C2590 C 0.03045 0.26287 0.75178 0.0
H2591 H 0.85978 0.23964 0.74653 0.0
H2592 H 0.90428 0.25103 0.74971 0.0
H2593 H 0.01487 0.24234 0.76538 0.0
H2594 H 0.14856 0.27298 0.7543 0.0
H2595 H 0.10421 0.26156 0.75101 0.0
C2596 C 0.1036 0.77886 0.24141 0.0
C2597 C 0.11027 0.78267 0.2581 0.0
C2598 C 0.07778 0.77237 0.23956 0.0
C2599 C 0.99714 0.76321 0.26192 0.0
H2600 H 0.01332 0.74404 0.23008 0.0
C2601 C 0.90161 0.73376 0.25941 0.0
C2602 C 0.89491 0.72995 0.24272 0.0
C2603 C 0.92746 0.74025 0.26125 0.0
C2604 C 0.0081 0.7494 0.23887 0.0
H2605 H 0.09554 0.78234 0.28607 0.0
H2606 H 0.0508 0.77105 0.28287 0.0
H2607 H 0.05941 0.75502 0.23338 0.0
H2608 H 0.90962 0.73028 0.21475 0.0
H2609 H 0.95441 0.74155 0.21793 0.0
H2610 H 0.94582 0.75759 0.26742 0.0
C2611 C 0.06499 0.7732 0.2711 0.0
C2612 C 0.03463 0.75571 0.24078 0.0
C2613 C 0.09078 0.77969 0.27294 0.0
C2614 C 0.9144 0.73293 0.22787 0.0
C2615 C 0.94022 0.73941 0.22971 0.0
C2616 C 0.9706 0.7569 0.26002 0.0
C2617 C 0.05787 0.76949 0.25436 0.0
C2618 C 0.02958 0.76272 0.25234 0.0
C2619 C 0.94736 0.74312 0.24645 0.0
C2620 C 0.97566 0.74989 0.24846 0.0
H2621 H 0.11763 0.78105 0.22962 0.0
H2622 H 0.07281 0.76976 0.22642 0.0
H2623 H 0.99191 0.76857 0.27072 0.0
H2624 H 0.8876 0.73157 0.2712 0.0
H2625 H 0.93245 0.74286 0.27439 0.0
C2626 C 0.09207 0.48272 0.97781 0.0
C2627 C 0.11143 0.47973 0.99269 0.0
C2628 C 0.0664 0.48924 0.97959 0.0
C2629 C 0.0366 0.50682 0.00982 0.0
H2630 H 0.948 0.50522 0.98291 0.0
C2631 C 0.91747 0.52998 0.02239 0.0
C2632 C 0.8982 0.53299 0.0075 0.0
C2633 C 0.94301 0.52343 0.02062 0.0
C2634 C 0.97273 0.50584 0.99038 0.0
H2635 H 0.11848 0.48134 0.0212 0.0
H2636 H 0.0739 0.49268 0.02429 0.0
H2637 H 0.9935 0.4941 0.97974 0.0
H2638 H 0.89109 0.53138 0.979 0.0
H2639 H 0.93543 0.51999 0.97593 0.0
H2640 H 0.01583 0.51856 0.02047 0.0
C2641 C 0.07892 0.49006 0.01115 0.0
C2642 C 0.99893 0.49944 0.98856 0.0
C2643 C 0.10461 0.48354 0.00937 0.0
C2644 C 0.90491 0.52916 0.99083 0.0
C2645 C 0.93046 0.52261 0.98906 0.0
C2646 C 0.0104 0.51322 0.01165 0.0
C2647 C 0.05926 0.49298 0.9963 0.0
C2648 C 0.03129 0.49983 0.99824 0.0
C2649 C 0.9501 0.51969 0.00391 0.0
C2650 C 0.97804 0.51283 0.00197 0.0
H2651 H 0.09692 0.48007 0.96469 0.0
H2652 H 0.05238 0.4914 0.96778 0.0
H2653 H 0.06133 0.50744 0.0173 0.0
H2654 H 0.91268 0.53264 0.03551 0.0
H2655 H 0.95699 0.52126 0.03243 0.0
C2656 C 0.32442 0.08082 0.93854 0.0
C2657 C 0.32966 0.07304 0.94753 0.0
C2658 C 0.33386 0.08157 0.9205 0.0
C2659 C 0.33777 0.06873 0.88071 0.0
H2660 H 0.40529 0.08501 0.86077 0.0
C2661 C 0.3958 0.06423 0.81049 0.0
C2662 C 0.40613 0.0714 0.80048 0.0
C2663 C 0.38364 0.06519 0.82797 0.0
C2664 C 0.38575 0.08053 0.866 0.0
H2665 H 0.35017 0.06011 0.94534 0.0
H2666 H 0.36587 0.06134 0.91376 0.0
H2667 H 0.39081 0.08557 0.89257 0.0
H2668 H 0.41069 0.08521 0.80045 0.0
H2669 H 0.38783 0.08699 0.83087 0.0
H2670 H 0.3318 0.06375 0.85437 0.0
C2671 C 0.3546 0.06685 0.92055 0.0
C2672 C 0.3777 0.08084 0.88424 0.0
C2673 C 0.34582 0.06616 0.93856 0.0
C2674 C 0.40275 0.0796 0.80798 0.0
C2675 C 0.39009 0.08058 0.82545 0.0
C2676 C 0.34525 0.06851 0.86248 0.0
C2677 C 0.34806 0.0745 0.91126 0.0
C2678 C 0.35428 0.07481 0.89179 0.0
C2679 C 0.38093 0.07337 0.83581 0.0
C2680 C 0.37005 0.07426 0.8549 0.0
H2681 H 0.31196 0.08619 0.94528 0.0
H2682 H 0.32864 0.08753 0.91357 0.0
H2683 H 0.31919 0.06408 0.88621 0.0
H2684 H 0.3984 0.05784 0.80495 0.0
H2685 H 0.37759 0.05945 0.83551 0.0
C2686 C 0.90445 0.19941 0.94108 0.0
C2687 C 0.91396 0.19199 0.95053 0.0
C2688 C 0.89511 0.19891 0.92309 0.0
C2689 C 0.86345 0.18483 0.88737 0.0
H2690 H 0.91559 0.20047 0.85664 0.0
C2691 C 0.84516 0.18427 0.81066 0.0
C2692 C 0.84376 0.19228 0.80222 0.0
C2693 C 0.85613 0.18364 0.82848 0.0
C2694 C 0.90042 0.19612 0.865 0.0
H2695 H 0.91957 0.17822 0.94907 0.0
H2696 H 0.90216 0.17728 0.91749 0.0
H2697 H 0.92672 0.2006 0.88861 0.0
H2698 H 0.85335 0.20586 0.80533 0.0
H2699 H 0.87158 0.20487 0.83645 0.0
H2700 H 0.8362 0.18054 0.86388 0.0
C2701 C 0.90224 0.18348 0.924 0.0
C2702 C 0.90691 0.19619 0.88333 0.0
C2703 C 0.91207 0.184 0.942 0.0
C2704 C 0.8545 0.19961 0.81161 0.0
C2705 C 0.8651 0.19901 0.82942 0.0
C2706 C 0.85655 0.18484 0.86901 0.0
C2707 C 0.89468 0.19096 0.91425 0.0
C2708 C 0.88824 0.19061 0.89474 0.0
C2709 C 0.86563 0.19104 0.83821 0.0
C2710 C 0.87468 0.19056 0.85758 0.0
H2711 H 0.90576 0.20563 0.94746 0.0
H2712 H 0.88892 0.20476 0.91596 0.0
H2713 H 0.84864 0.18048 0.89589 0.0
H2714 H 0.83685 0.17854 0.80361 0.0
H2715 H 0.85678 0.17738 0.83468 0.0
C2716 C 0.40545 0.18277 0.44299 0.0
C2717 C 0.40842 0.191 0.45045 0.0
C2718 C 0.3945 0.18176 0.42524 0.0
C2719 C 0.40057 0.19267 0.38306 0.0
H2720 H 0.32036 0.17897 0.36655 0.0
C2721 C 0.34585 0.19626 0.31213 0.0
C2722 C 0.32979 0.18926 0.30357 0.0
C2723 C 0.3571 0.19562 0.3298 0.0
C2724 C 0.34333 0.18269 0.37085 0.0
H2725 H 0.40095 0.20456 0.44573 0.0
H2726 H 0.38269 0.20282 0.41456 0.0
H2727 H 0.33498 0.17937 0.39837 0.0
H2728 H 0.31414 0.17599 0.30624 0.0
H2729 H 0.33517 0.17468 0.33716 0.0
H2730 H 0.40988 0.19586 0.3558 0.0
C2731 C 0.38867 0.19717 0.42241 0.0
C2732 C 0.35147 0.18295 0.38909 0.0
C2733 C 0.39893 0.19816 0.44018 0.0
C2734 C 0.32641 0.18147 0.31269 0.0
C2735 C 0.33813 0.18077 0.33041 0.0
C2736 C 0.39293 0.19229 0.36486 0.0
C2737 C 0.38702 0.18898 0.41467 0.0
C2738 C 0.37965 0.1881 0.39536 0.0
C2739 C 0.35319 0.18789 0.33929 0.0
C2740 C 0.36363 0.18747 0.3585 0.0
H2741 H 0.41282 0.17717 0.4507 0.0
H2742 H 0.39344 0.17539 0.41953 0.0
H2743 H 0.42287 0.19658 0.38755 0.0
H2744 H 0.34858 0.20234 0.30528 0.0
H2745 H 0.3678 0.20131 0.33615 0.0
C2746 C 0.85314 0.06222 0.43984 0.0
C2747 C 0.8433 0.0696 0.44933 0.0
C2748 C 0.86259 0.06277 0.42186 0.0
C2749 C 0.89403 0.07703 0.3864 0.0
H2750 H 0.84349 0.06125 0.35529 0.0
C2751 C 0.91313 0.0779 0.30978 0.0
C2752 C 0.91525 0.06993 0.30121 0.0
C2753 C 0.90193 0.07842 0.32758 0.0
C2754 C 0.85821 0.06564 0.36376 0.0
H2755 H 0.83715 0.08336 0.44797 0.0
H2756 H 0.85471 0.08439 0.41643 0.0
H2757 H 0.83188 0.06101 0.38722 0.0
H2758 H 0.90677 0.0563 0.30409 0.0
H2759 H 0.88815 0.0571 0.33517 0.0
H2760 H 0.92129 0.08149 0.36307 0.0
C2761 C 0.85482 0.07818 0.42288 0.0
C2762 C 0.85145 0.06551 0.38207 0.0
C2763 C 0.84489 0.07761 0.44086 0.0
C2764 C 0.90505 0.06252 0.31046 0.0
C2765 C 0.89423 0.06301 0.32825 0.0
C2766 C 0.90119 0.07709 0.36807 0.0
C2767 C 0.86279 0.07073 0.41309 0.0
C2768 C 0.86953 0.07113 0.39361 0.0
C2769 C 0.89294 0.07095 0.33716 0.0
C2770 C 0.88363 0.07133 0.35651 0.0
H2771 H 0.85207 0.05598 0.44617 0.0
H2772 H 0.8691 0.05694 0.4147 0.0
H2773 H 0.9084 0.08142 0.39502 0.0
H2774 H 0.92104 0.08369 0.30284 0.0
H2775 H 0.90071 0.08466 0.33386 0.0
C2776 C 0.65142 0.94923 0.06104 0.0
C2777 C 0.66205 0.94187 0.05174 0.0
C2778 C 0.6411 0.94869 0.07889 0.0
C2779 C 0.65063 0.93467 0.11861 0.0
H2780 H 0.58102 0.9505 0.13838 0.0
C2781 C 0.59639 0.93423 0.19185 0.0
C2782 C 0.59542 0.94226 0.20024 0.0
C2783 C 0.60581 0.93359 0.17382 0.0
C2784 C 0.60066 0.94607 0.13304 0.0
H2785 H 0.66911 0.92814 0.05332 0.0
H2786 H 0.64959 0.92708 0.08445 0.0
H2787 H 0.5912 0.95022 0.10633 0.0
H2788 H 0.60489 0.95585 0.19693 0.0
H2789 H 0.62095 0.95477 0.16535 0.0
H2790 H 0.65928 0.93043 0.14551 0.0
C2791 C 0.65011 0.93332 0.07815 0.0
C2792 C 0.60661 0.94592 0.11467 0.0
C2793 C 0.66083 0.93389 0.0603 0.0
C2794 C 0.6055 0.94959 0.19064 0.0
C2795 C 0.61439 0.94898 0.17262 0.0
C2796 C 0.64424 0.93473 0.13701 0.0
C2797 C 0.64075 0.94074 0.08779 0.0
C2798 C 0.63216 0.94033 0.10721 0.0
C2799 C 0.61385 0.941 0.16393 0.0
C2800 C 0.61967 0.94055 0.14441 0.0
H2801 H 0.65247 0.95545 0.05466 0.0
H2802 H 0.63473 0.95457 0.08585 0.0
H2803 H 0.67086 0.93035 0.11343 0.0
H2804 H 0.58846 0.92852 0.19905 0.0
H2805 H 0.60517 0.92737 0.16741 0.0
C2806 C 0.09537 0.82808 0.06051 0.0
C2807 C 0.09461 0.82009 0.05199 0.0
C2808 C 0.10603 0.82871 0.07837 0.0
C2809 C 0.15027 0.81632 0.11495 0.0
H2810 H 0.0969 0.83173 0.1457 0.0
C2811 C 0.15225 0.81288 0.19096 0.0
C2812 C 0.16193 0.82028 0.20045 0.0
C2813 C 0.14313 0.81341 0.17295 0.0
C2814 C 0.11213 0.82744 0.13722 0.0
H2815 H 0.10495 0.80654 0.05499 0.0
H2816 H 0.12258 0.80752 0.08619 0.0
H2817 H 0.08517 0.83168 0.11363 0.0
H2818 H 0.16799 0.83405 0.19907 0.0
H2819 H 0.15089 0.83503 0.16746 0.0
H2820 H 0.17622 0.81188 0.13867 0.0
C2821 C 0.11589 0.81337 0.07919 0.0
C2822 C 0.10565 0.82744 0.11883 0.0
C2823 C 0.10563 0.81277 0.06134 0.0
C2824 C 0.16035 0.82828 0.19197 0.0
C2825 C 0.1507 0.82883 0.17395 0.0
C2826 C 0.15631 0.81624 0.13331 0.0
C2827 C 0.11579 0.82134 0.08805 0.0
C2828 C 0.12438 0.82181 0.10746 0.0
C2829 C 0.14306 0.82136 0.16417 0.0
C2830 C 0.13707 0.82173 0.14465 0.0
H2831 H 0.0868 0.83379 0.05349 0.0
H2832 H 0.1062 0.83497 0.08462 0.0
H2833 H 0.16588 0.81205 0.10664 0.0
H2834 H 0.15334 0.80665 0.19731 0.0
H2835 H 0.13689 0.80757 0.16576 0.0
C2836 C 0.66111 0.82771 0.69196 0.0
C2837 C 0.66236 0.81968 0.7003 0.0
C2838 C 0.65022 0.8284 0.67415 0.0
C2839 C 0.60637 0.81603 0.63736 0.0
H2840 H 0.65932 0.83161 0.60682 0.0
C2841 C 0.60502 0.81265 0.56134 0.0
C2842 C 0.59521 0.82003 0.55184 0.0
C2843 C 0.61397 0.81319 0.57937 0.0
C2844 C 0.64419 0.82728 0.61523 0.0
H2845 H 0.65256 0.80612 0.69704 0.0
H2846 H 0.63448 0.8072 0.66592 0.0
H2847 H 0.67088 0.83154 0.6389 0.0
H2848 H 0.58877 0.83379 0.55323 0.0
H2849 H 0.60558 0.8348 0.58488 0.0
H2850 H 0.5807 0.81157 0.61356 0.0
C2851 C 0.641 0.81304 0.67303 0.0
C2852 C 0.65058 0.82726 0.63364 0.0
C2853 C 0.6515 0.81238 0.69084 0.0
C2854 C 0.59651 0.82803 0.56034 0.0
C2855 C 0.60599 0.8286 0.57839 0.0
C2856 C 0.60041 0.81596 0.61898 0.0
C2857 C 0.6407 0.82103 0.66433 0.0
C2858 C 0.63203 0.82156 0.64493 0.0
C2859 C 0.61374 0.82114 0.58818 0.0
C2860 C 0.61953 0.82151 0.60772 0.0
H2861 H 0.66954 0.83341 0.69908 0.0
H2862 H 0.64975 0.83467 0.66801 0.0
H2863 H 0.5909 0.8117 0.64561 0.0
H2864 H 0.60413 0.80642 0.55497 0.0
H2865 H 0.62031 0.80736 0.58655 0.0
C2866 C 0.15201 0.94942 0.56128 0.0
C2867 C 0.16282 0.9421 0.55188 0.0
C2868 C 0.14153 0.94881 0.5791 0.0
C2869 C 0.15091 0.93466 0.61863 0.0
H2870 H 0.08089 0.95036 0.63848 0.0
C2871 C 0.09615 0.93391 0.69177 0.0
C2872 C 0.09458 0.94192 0.70025 0.0
C2873 C 0.10587 0.93335 0.67376 0.0
C2874 C 0.10065 0.94597 0.63312 0.0
H2875 H 0.16996 0.92837 0.55324 0.0
H2876 H 0.15019 0.92718 0.58432 0.0
H2877 H 0.09135 0.9502 0.60646 0.0
H2878 H 0.10331 0.95554 0.69711 0.0
H2879 H 0.11995 0.95459 0.66559 0.0
H2880 H 0.15941 0.93034 0.64549 0.0
C2881 C 0.15069 0.93345 0.57813 0.0
C2882 C 0.10675 0.94588 0.61476 0.0
C2883 C 0.16156 0.93409 0.5603 0.0
C2884 C 0.1044 0.9493 0.69077 0.0
C2885 C 0.11362 0.94876 0.67277 0.0
C2886 C 0.14437 0.93466 0.63702 0.0
C2887 C 0.14119 0.94083 0.58787 0.0
C2888 C 0.13245 0.94034 0.60727 0.0
C2889 C 0.11363 0.94081 0.66398 0.0
C2890 C 0.11965 0.94043 0.64446 0.0
H2891 H 0.15308 0.95567 0.55501 0.0
H2892 H 0.13503 0.95466 0.58614 0.0
H2893 H 0.17123 0.93038 0.61343 0.0
H2894 H 0.0884 0.92815 0.69887 0.0
H2895 H 0.10564 0.92714 0.66728 0.0
C2896 C 0.34314 0.57745 0.44163 0.0
C2897 C 0.34173 0.56944 0.45008 0.0
C2898 C 0.35283 0.57804 0.42362 0.0
C2899 C 0.34878 0.56541 0.3828 0.0
H2900 H 0.4188 0.58128 0.36356 0.0
C2901 C 0.40163 0.56225 0.31111 0.0
C2902 C 0.41213 0.56963 0.30181 0.0
C2903 C 0.39087 0.56279 0.3289 0.0
C2904 C 0.39864 0.57692 0.36863 0.0
H2905 H 0.35067 0.55583 0.44686 0.0
H2906 H 0.36723 0.55682 0.41535 0.0
H2907 H 0.40629 0.58125 0.39556 0.0
H2908 H 0.41849 0.58337 0.30335 0.0
H2909 H 0.39826 0.58444 0.33438 0.0
H2910 H 0.34035 0.56116 0.35606 0.0
C2911 C 0.36076 0.56264 0.42254 0.0
C2912 C 0.39169 0.57687 0.38699 0.0
C2913 C 0.35158 0.56207 0.44054 0.0
C2914 C 0.41034 0.57762 0.31032 0.0
C2915 C 0.3992 0.57818 0.32813 0.0
C2916 C 0.3553 0.56553 0.36447 0.0
C2917 C 0.36074 0.5706 0.41379 0.0
C2918 C 0.36716 0.57101 0.39428 0.0
C2919 C 0.38995 0.57075 0.33777 0.0
C2920 C 0.3808 0.57117 0.35713 0.0
H2921 H 0.33541 0.5832 0.44877 0.0
H2922 H 0.35257 0.58425 0.41718 0.0
H2923 H 0.32917 0.56094 0.38802 0.0
H2924 H 0.4031 0.55602 0.30478 0.0
H2925 H 0.38459 0.55691 0.33586 0.0
C2926 C 0.85243 0.6999 0.31057 0.0
C2927 C 0.84273 0.69251 0.30107 0.0
C2928 C 0.86168 0.69937 0.32857 0.0
C2929 C 0.89282 0.68517 0.36417 0.0
H2930 H 0.84178 0.70094 0.39506 0.0
C2931 C 0.91132 0.68444 0.44085 0.0
C2932 C 0.91331 0.69243 0.44935 0.0
C2933 C 0.90024 0.68388 0.42303 0.0
C2934 C 0.85664 0.69655 0.38666 0.0
H2935 H 0.83664 0.67874 0.30246 0.0
H2936 H 0.85386 0.67775 0.33405 0.0
H2937 H 0.83048 0.70113 0.36311 0.0
H2938 H 0.9047 0.70605 0.44634 0.0
H2939 H 0.88626 0.70517 0.41523 0.0
H2940 H 0.91992 0.68076 0.38761 0.0
C2941 C 0.85401 0.68395 0.32758 0.0
C2942 C 0.85006 0.69666 0.36833 0.0
C2943 C 0.84428 0.68451 0.30957 0.0
C2944 C 0.90308 0.69982 0.44002 0.0
C2945 C 0.89236 0.69928 0.42222 0.0
C2946 C 0.89981 0.68514 0.38253 0.0
C2947 C 0.86182 0.69142 0.33737 0.0
C2948 C 0.86833 0.69103 0.35687 0.0
C2949 C 0.89122 0.69132 0.41337 0.0
C2950 C 0.88207 0.6909 0.39401 0.0
H2951 H 0.8514 0.70613 0.30422 0.0
H2952 H 0.86808 0.70521 0.33573 0.0
H2953 H 0.90734 0.68078 0.35562 0.0
H2954 H 0.91926 0.67867 0.44785 0.0
H2955 H 0.89913 0.67763 0.41679 0.0
C2956 C 0.40999 0.69554 0.93925 0.0
C2957 C 0.4267 0.6887 0.94809 0.0
C2958 C 0.40088 0.69484 0.92128 0.0
C2959 C 0.37807 0.68084 0.8849 0.0
H2960 H 0.42287 0.69809 0.85505 0.0
C2961 C 0.35286 0.68201 0.80863 0.0
C2962 C 0.34914 0.69019 0.80112 0.0
C2963 C 0.36548 0.68106 0.82612 0.0
C2964 C 0.40972 0.69328 0.86315 0.0
H2965 H 0.44512 0.67561 0.94565 0.0
H2966 H 0.42786 0.67425 0.91401 0.0
H2967 H 0.43569 0.69777 0.88686 0.0
H2968 H 0.35617 0.70377 0.80559 0.0
H2969 H 0.37688 0.70223 0.83619 0.0
H2970 H 0.35057 0.6766 0.86144 0.0
C2971 C 0.42242 0.68019 0.92101 0.0
C2972 C 0.41732 0.69307 0.88136 0.0
C2973 C 0.43218 0.68094 0.93901 0.0
C2974 C 0.35904 0.69739 0.81114 0.0
C2975 C 0.37115 0.69648 0.82864 0.0
C2976 C 0.36988 0.68113 0.86666 0.0
C2977 C 0.40767 0.68723 0.9119 0.0
C2978 C 0.40122 0.68693 0.89243 0.0
C2979 C 0.37425 0.68831 0.83649 0.0
C2980 C 0.38519 0.68746 0.85557 0.0
H2981 H 0.40549 0.70157 0.94608 0.0
H2982 H 0.38921 0.70032 0.91457 0.0
H2983 H 0.36528 0.67606 0.89322 0.0
H2984 H 0.34525 0.67637 0.80109 0.0
H2985 H 0.36805 0.67466 0.83154 0.0
C2986 C 0.91339 0.56583 0.81283 0.0
C2987 C 0.92901 0.57278 0.80381 0.0
C2988 C 0.9043 0.56654 0.83079 0.0
C2989 C 0.87962 0.58063 0.8668 0.0
H2990 H 0.92509 0.56367 0.8971 0.0
C2991 C 0.85349 0.57964 0.94299 0.0
C2992 C 0.85009 0.57147 0.9506 0.0
C2993 C 0.86627 0.58057 0.92553 0.0
C2994 C 0.91176 0.5684 0.88887 0.0
H2995 H 0.9454 0.58603 0.80594 0.0
H2996 H 0.9282 0.58738 0.83759 0.0
H2997 H 0.93842 0.56393 0.86534 0.0
H2998 H 0.8578 0.5579 0.94633 0.0
H2999 H 0.87882 0.55941 0.91578 0.0
H3000 H 0.85148 0.58485 0.89008 0.0
C3001 C 0.92366 0.58137 0.83073 0.0
C3002 C 0.91964 0.56857 0.87068 0.0
C3003 C 0.9334 0.58061 0.81272 0.0
C3004 C 0.86042 0.56427 0.94071 0.0
C3005 C 0.87271 0.56517 0.92323 0.0
C3006 C 0.87117 0.58037 0.885 0.0
C3007 C 0.90998 0.57425 0.84 0.0
C3008 C 0.9033 0.5746 0.85945 0.0
C3009 C 0.87552 0.57332 0.91529 0.0
C3010 C 0.88672 0.57415 0.89625 0.0
H3011 H 0.90963 0.55975 0.80611 0.0
H3012 H 0.89341 0.561 0.83762 0.0
H3013 H 0.86662 0.58533 0.85835 0.0
H3014 H 0.84554 0.58528 0.95044 0.0
H3015 H 0.86859 0.58696 0.92003 0.0
C3016 C 0.65706 0.4332 0.55898 0.0
C3017 C 0.66007 0.44137 0.55136 0.0
C3018 C 0.64458 0.43225 0.57649 0.0
C3019 C 0.59878 0.4443 0.6132 0.0
H3020 H 0.6442 0.42738 0.64363 0.0
C3021 C 0.59478 0.44653 0.68929 0.0
C3022 C 0.58013 0.43942 0.69814 0.0
C3023 C 0.60426 0.44598 0.67135 0.0
C3024 C 0.63113 0.43208 0.63521 0.0
H3025 H 0.65202 0.45493 0.55568 0.0
H3026 H 0.63151 0.45338 0.58632 0.0
H3027 H 0.65966 0.42798 0.61195 0.0
H3028 H 0.56591 0.42604 0.69574 0.0
H3029 H 0.58374 0.42496 0.66414 0.0
H3030 H 0.57162 0.44863 0.63669 0.0
C3031 C 0.63772 0.44764 0.57884 0.0
C3032 C 0.63977 0.43241 0.61703 0.0
C3033 C 0.64971 0.44856 0.56131 0.0
C3034 C 0.5771 0.43159 0.68908 0.0
C3035 C 0.58722 0.43099 0.67111 0.0
C3036 C 0.59069 0.44406 0.63136 0.0
C3037 C 0.63522 0.43947 0.58677 0.0
C3038 C 0.62407 0.43862 0.60582 0.0
C3039 C 0.59995 0.43826 0.66199 0.0
C3040 C 0.6071 0.43802 0.64257 0.0
H3041 H 0.66502 0.42757 0.5515 0.0
H3042 H 0.6425 0.42585 0.58199 0.0
H3043 H 0.58535 0.44902 0.60498 0.0
H3044 H 0.59754 0.45262 0.69612 0.0
H3045 H 0.61443 0.45164 0.66467 0.0
C3046 C 0.1028 0.3124 0.56051 0.0
C3047 C 0.09258 0.31975 0.55106 0.0
C3048 C 0.11344 0.31299 0.57832 0.0
C3049 C 0.10587 0.32728 0.6178 0.0
H3050 H 0.17521 0.31136 0.63748 0.0
C3051 C 0.16155 0.32818 0.69074 0.0
C3052 C 0.16324 0.3202 0.69934 0.0
C3053 C 0.15167 0.32867 0.67274 0.0
C3054 C 0.15563 0.31582 0.63218 0.0
H3055 H 0.0866 0.33351 0.55234 0.0
H3056 H 0.10658 0.33467 0.5834 0.0
H3057 H 0.16394 0.31144 0.60552 0.0
H3058 H 0.15466 0.30657 0.69641 0.0
H3059 H 0.13771 0.30738 0.66492 0.0
H3060 H 0.09831 0.33174 0.64464 0.0
C3061 C 0.10551 0.32839 0.57726 0.0
C3062 C 0.14906 0.31585 0.61385 0.0
C3063 C 0.09451 0.32777 0.55944 0.0
C3064 C 0.15349 0.31278 0.68997 0.0
C3065 C 0.1441 0.31325 0.67198 0.0
C3066 C 0.11284 0.32732 0.63615 0.0
C3067 C 0.11451 0.32099 0.58704 0.0
C3068 C 0.12363 0.32148 0.60641 0.0
C3069 C 0.14386 0.32117 0.66307 0.0
C3070 C 0.13734 0.32148 0.64355 0.0
H3071 H 0.10125 0.30614 0.55428 0.0
H3072 H 0.11954 0.30713 0.58539 0.0
H3073 H 0.08576 0.33163 0.61264 0.0
H3074 H 0.16923 0.33397 0.69775 0.0
H3075 H 0.15175 0.33485 0.66618 0.0
C3076 C 0.60199 0.32903 0.05842 0.0
C3077 C 0.59872 0.32085 0.05081 0.0
C3078 C 0.61449 0.32996 0.07593 0.0
C3079 C 0.65978 0.31784 0.11268 0.0
H3080 H 0.61453 0.33481 0.14309 0.0
C3081 C 0.66292 0.31554 0.18877 0.0
C3082 C 0.67768 0.32262 0.1977 0.0
C3083 C 0.65367 0.31613 0.17081 0.0
C3084 C 0.62756 0.3301 0.13468 0.0
H3085 H 0.60635 0.30728 0.05512 0.0
H3086 H 0.62691 0.30881 0.08576 0.0
H3087 H 0.59932 0.33425 0.11137 0.0
H3088 H 0.69233 0.33598 0.19542 0.0
H3089 H 0.67488 0.33712 0.16377 0.0
H3090 H 0.68664 0.31346 0.13622 0.0
C3091 C 0.62088 0.31456 0.07828 0.0
C3092 C 0.61906 0.32979 0.11648 0.0
C3093 C 0.60887 0.31365 0.06075 0.0
C3094 C 0.68105 0.33046 0.1887 0.0
C3095 C 0.67115 0.33109 0.17069 0.0
C3096 C 0.66773 0.31806 0.13086 0.0
C3097 C 0.62361 0.32272 0.08621 0.0
C3098 C 0.63468 0.32356 0.10527 0.0
C3099 C 0.65832 0.32385 0.1615 0.0
C3100 C 0.65137 0.32411 0.14207 0.0
H3101 H 0.59419 0.33466 0.05093 0.0
H3102 H 0.61674 0.33635 0.08144 0.0
H3103 H 0.67315 0.31311 0.10448 0.0
H3104 H 0.65991 0.30946 0.19556 0.0
H3105 H 0.6434 0.31049 0.16407 0.0
C3106 C 0.10517 0.44923 0.19023 0.0
C3107 C 0.09501 0.44182 0.19952 0.0
C3108 C 0.11588 0.44872 0.17242 0.0
C3109 C 0.1084 0.43461 0.13268 0.0
H3110 H 0.17721 0.45073 0.11322 0.0
C3111 C 0.16344 0.4342 0.05961 0.0
C3112 C 0.16463 0.44222 0.05117 0.0
C3113 C 0.15384 0.43359 0.07763 0.0
C3114 C 0.15778 0.44622 0.11846 0.0
H3115 H 0.08923 0.42806 0.19796 0.0
H3116 H 0.10937 0.42706 0.16691 0.0
H3117 H 0.16623 0.45047 0.1452 0.0
H3118 H 0.15541 0.45582 0.05444 0.0
H3119 H 0.13898 0.45479 0.08597 0.0
H3120 H 0.10071 0.43028 0.10576 0.0
C3121 C 0.1082 0.43331 0.17318 0.0
C3122 C 0.15138 0.44608 0.1368 0.0
C3123 C 0.09712 0.43384 0.19099 0.0
C3124 C 0.15466 0.44957 0.06074 0.0
C3125 C 0.14555 0.44899 0.07875 0.0
C3126 C 0.11522 0.43468 0.11431 0.0
C3127 C 0.11709 0.44077 0.16354 0.0
C3128 C 0.12612 0.44038 0.14416 0.0
C3129 C 0.1458 0.44102 0.08748 0.0
C3130 C 0.13951 0.44059 0.107 0.0
H3131 H 0.10343 0.45545 0.19657 0.0
H3132 H 0.12188 0.45463 0.16547 0.0
H3133 H 0.08842 0.4302 0.13777 0.0
H3134 H 0.17128 0.42847 0.05244 0.0
H3135 H 0.15428 0.42738 0.08405 0.0
C3136 C 0.08363 0.16141 0.99815 0.0
C3137 C 0.05409 0.16261 0.00961 0.0
C3138 C 0.10229 0.1536 0.99786 0.0
C3139 C 0.09127 0.13068 0.00686 0.0
H3140 H 0.195 0.1301 0.01031 0.0
C3141 C 0.16847 0.09864 0.01481 0.0
C3142 C 0.20297 0.09798 0.0074 0.0
C3143 C 0.1503 0.10651 0.01489 0.0
C3144 C 0.16607 0.1301 0.009 0.0
H3145 H 0.02222 0.15647 0.03026 0.0
H3146 H 0.05384 0.14284 0.02917 0.0
H3147 H 0.16386 0.14383 0.01044 0.0
H3148 H 0.24498 0.10495 0.99373 0.0
H3149 H 0.21298 0.11854 0.99316 0.0
H3150 H 0.09319 0.11701 0.00487 0.0
C3151 C 0.06234 0.14795 0.02035 0.0
C3152 C 0.14824 0.13801 0.00917 0.0
C3153 C 0.04409 0.15578 0.02088 0.0
C3154 C 0.21859 0.1053 0.99974 0.0
C3155 C 0.20024 0.11312 0.99954 0.0
C3156 C 0.1091 0.12278 0.00638 0.0
C3157 C 0.09158 0.14676 0.00882 0.0
C3158 C 0.11064 0.13838 0.00822 0.0
C3159 C 0.16594 0.11389 0.00728 0.0
C3160 C 0.14681 0.12235 0.00754 0.0
H3161 H 0.09198 0.16642 0.98908 0.0
H3162 H 0.12461 0.15285 0.98874 0.0
H3163 H 0.06226 0.13077 0.0059 0.0
H3164 H 0.15591 0.09312 0.02096 0.0
H3165 H 0.12428 0.10682 0.02127 0.0
C3166 C 0.20893 0.15788 0.22864 0.0
C3167 C 0.20195 0.16423 0.24157 0.0
C3168 C 0.19116 0.14998 0.22909 0.0
C3169 C 0.10932 0.13934 0.24437 0.0
H3170 H 0.16531 0.11844 0.24182 0.0
C3171 C 0.04247 0.10624 0.2538 0.0
C3172 C 0.0557 0.09924 0.24402 0.0
C3173 C 0.06081 0.11407 0.25396 0.0
C3174 C 0.14907 0.12419 0.24226 0.0
H3175 H 0.17004 0.16709 0.26507 0.0
H3176 H 0.13809 0.15344 0.26534 0.0
H3177 H 0.19548 0.1323 0.24065 0.0
H3178 H 0.09851 0.09496 0.22669 0.0
H3179 H 0.12997 0.10868 0.22636 0.0
H3180 H 0.06281 0.13134 0.24534 0.0
C3181 C 0.15765 0.15462 0.25494 0.0
C3182 C 0.16649 0.13214 0.24168 0.0
C3183 C 0.17588 0.16248 0.25469 0.0
C3184 C 0.08788 0.10022 0.2345 0.0
C3185 C 0.10597 0.1081 0.2344 0.0
C3186 C 0.09182 0.1314 0.24465 0.0
C3187 C 0.16539 0.14825 0.24226 0.0
C3188 C 0.14682 0.1398 0.2428 0.0
C3189 C 0.09262 0.11517 0.24406 0.0
C3190 C 0.11141 0.12368 0.24368 0.0
H3191 H 0.22804 0.15901 0.21803 0.0
H3192 H 0.19728 0.14524 0.21898 0.0
H3193 H 0.09342 0.14514 0.24505 0.0
H3194 H 0.01793 0.10564 0.26145 0.0
H3195 H 0.05 0.11923 0.26195 0.0
C3196 C 0.92019 0.84938 0.98576 0.0
C3197 C 0.95346 0.84867 0.99446 0.0
C3198 C 0.90162 0.85719 0.98566 0.0
C3199 C 0.89162 0.8776 0.00967 0.0
H3200 H 0.85767 0.88644 0.96444 0.0
C3201 C 0.83198 0.91178 0.00374 0.0
C3202 C 0.80349 0.91308 0.99171 0.0
C3203 C 0.85089 0.90402 0.004 0.0
C3204 C 0.86637 0.88403 0.97726 0.0
H3205 H 0.99276 0.85548 0.01038 0.0
H3206 H 0.96003 0.86906 0.01049 0.0
H3207 H 0.88752 0.87256 0.96553 0.0
H3208 H 0.77366 0.90717 0.97006 0.0
H3209 H 0.80499 0.8936 0.97118 0.0
H3210 H 0.86974 0.88891 0.02156 0.0
C3211 C 0.94846 0.86361 0.00362 0.0
C3212 C 0.88363 0.87607 0.97785 0.0
C3213 C 0.96728 0.85585 0.00347 0.0
C3214 C 0.79486 0.9064 0.9798 0.0
C3215 C 0.81338 0.89862 0.98023 0.0
C3216 C 0.87387 0.88551 0.00915 0.0
C3217 C 0.91563 0.8644 0.99454 0.0
C3218 C 0.89653 0.87277 0.99404 0.0
C3219 C 0.84165 0.89728 0.99235 0.0
C3220 C 0.86101 0.88886 0.99292 0.0
H3221 H 0.909 0.84397 0.97862 0.0
H3222 H 0.87625 0.8576 0.97866 0.0
H3223 H 0.90102 0.87519 0.02238 0.0
H3224 H 0.83935 0.9167 0.01324 0.0
H3225 H 0.87284 0.90333 0.01334 0.0
C3226 C 0.83722 0.84903 0.76576 0.0
C3227 C 0.80389 0.84827 0.75712 0.0
C3228 C 0.85569 0.85686 0.76583 0.0
C3229 C 0.86498 0.8773 0.74179 0.0
H3230 H 0.9006 0.88607 0.78678 0.0
C3231 C 0.92447 0.91153 0.74757 0.0
C3232 C 0.95334 0.91284 0.75937 0.0
C3233 C 0.90574 0.90373 0.74736 0.0
C3234 C 0.89142 0.88369 0.77402 0.0
H3235 H 0.76434 0.85506 0.74132 0.0
H3236 H 0.79683 0.86868 0.74121 0.0
H3237 H 0.87067 0.8722 0.78584 0.0
H3238 H 0.98413 0.9069 0.78064 0.0
H3239 H 0.95304 0.89329 0.77961 0.0
H3240 H 0.88642 0.88863 0.7298 0.0
C3241 C 0.80856 0.86324 0.74803 0.0
C3242 C 0.87411 0.87572 0.77352 0.0
C3243 C 0.78986 0.85546 0.7482 0.0
C3244 C 0.9626 0.90614 0.77107 0.0
C3245 C 0.94422 0.89832 0.77071 0.0
C3246 C 0.88275 0.88521 0.74222 0.0
C3247 C 0.8415 0.86406 0.75701 0.0
C3248 C 0.8606 0.87245 0.75742 0.0
C3249 C 0.91552 0.89698 0.75883 0.0
C3250 C 0.89621 0.88855 0.75836 0.0
H3251 H 0.8486 0.84363 0.77284 0.0
H3252 H 0.88115 0.85728 0.77275 0.0
H3253 H 0.85514 0.87491 0.72914 0.0
H3254 H 0.91661 0.91647 0.73822 0.0
H3255 H 0.88345 0.90304 0.73821 0.0
C3256 C 0.04501 0.65655 0.52033 0.0
C3257 C 0.05406 0.66324 0.50852 0.0
C3258 C 0.06331 0.64874 0.51986 0.0
C3259 C 0.14819 0.63866 0.50691 0.0
H3260 H 0.09276 0.61762 0.50616 0.0
C3261 C 0.21676 0.60576 0.49756 0.0
C3262 C 0.20274 0.59868 0.50681 0.0
C3263 C 0.19833 0.61356 0.49724 0.0
C3264 C 0.10878 0.62341 0.50664 0.0
H3265 H 0.09023 0.66685 0.4871 0.0
H3266 H 0.12287 0.65328 0.48674 0.0
H3267 H 0.06197 0.63139 0.50706 0.0
H3268 H 0.15841 0.59424 0.52302 0.0
H3269 H 0.12664 0.60791 0.52295 0.0
H3270 H 0.19502 0.63075 0.50702 0.0
C3271 C 0.10134 0.65413 0.49628 0.0
C3272 C 0.09104 0.63131 0.50707 0.0
C3273 C 0.08269 0.66193 0.49656 0.0
C3274 C 0.16968 0.59956 0.51561 0.0
C3275 C 0.15144 0.60741 0.5155 0.0
C3276 C 0.16597 0.63075 0.50672 0.0
C3277 C 0.09157 0.64741 0.50779 0.0
C3278 C 0.11054 0.63903 0.50719 0.0
C3279 C 0.16557 0.61455 0.50638 0.0
C3280 C 0.14654 0.623 0.50654 0.0
H3281 H 0.02383 0.65735 0.53007 0.0
H3282 H 0.05557 0.64374 0.52912 0.0
H3283 H 0.16394 0.64449 0.50721 0.0
H3284 H 0.24198 0.60524 0.49045 0.0
H3285 H 0.20977 0.61881 0.48971 0.0
C3286 C 0.17621 0.66071 0.75405 0.0
C3287 C 0.20516 0.66201 0.74225 0.0
C3288 C 0.15736 0.65293 0.75417 0.0
C3289 C 0.16739 0.63012 0.74411 0.0
H3290 H 0.06357 0.62965 0.74135 0.0
C3291 C 0.08959 0.5982 0.73574 0.0
C3292 C 0.05529 0.59751 0.74335 0.0
C3293 C 0.10781 0.60606 0.73574 0.0
C3294 C 0.09253 0.62963 0.74247 0.0
H3295 H 0.23572 0.65608 0.72085 0.0
H3296 H 0.20383 0.64248 0.72167 0.0
H3297 H 0.09496 0.64336 0.7415 0.0
H3298 H 0.01366 0.60441 0.75745 0.0
H3299 H 0.0458 0.61799 0.75818 0.0
H3300 H 0.16529 0.61645 0.74566 0.0
C3301 C 0.19594 0.64749 0.73086 0.0
C3302 C 0.11049 0.63751 0.74245 0.0
C3303 C 0.21436 0.65531 0.7305 0.0
C3304 C 0.0399 0.60479 0.75128 0.0
C3305 C 0.05832 0.6126 0.75156 0.0
C3306 C 0.14945 0.62224 0.74445 0.0
C3307 C 0.16731 0.64621 0.74271 0.0
C3308 C 0.14812 0.63784 0.74315 0.0
C3309 C 0.09245 0.6134 0.74364 0.0
C3310 C 0.1117 0.62185 0.74353 0.0
H3311 H 0.1685 0.66562 0.76349 0.0
H3312 H 0.13551 0.65209 0.76353 0.0
H3313 H 0.19643 0.63019 0.74486 0.0
H3314 H 0.10194 0.59271 0.72938 0.0
H3315 H 0.13366 0.6064 0.7292 0.0
C3316 C 0.83591 0.41256 0.48596 0.0
C3317 C 0.80248 0.41326 0.49452 0.0
C3318 C 0.85449 0.40476 0.48586 0.0
C3319 C 0.864 0.38431 0.50975 0.0
H3320 H 0.89971 0.37561 0.46472 0.0
C3321 C 0.92369 0.35015 0.50381 0.0
C3322 C 0.95259 0.34887 0.49202 0.0
C3323 C 0.90492 0.35793 0.50405 0.0
C3324 C 0.8905 0.37798 0.47749 0.0
H3325 H 0.76285 0.4064 0.51013 0.0
H3326 H 0.79556 0.39282 0.51019 0.0
H3327 H 0.86957 0.38946 0.46571 0.0
H3328 H 0.98345 0.35485 0.47084 0.0
H3329 H 0.9523 0.36846 0.47193 0.0
H3330 H 0.88562 0.373 0.52169 0.0
C3331 C 0.80726 0.39828 0.50345 0.0
C3332 C 0.87308 0.38592 0.47801 0.0
C3333 C 0.78844 0.40604 0.50332 0.0
C3334 C 0.96189 0.3556 0.48038 0.0
C3335 C 0.94348 0.3634 0.48078 0.0
C3336 C 0.88189 0.37642 0.50929 0.0
C3337 C 0.84031 0.39752 0.49457 0.0
C3338 C 0.85954 0.38917 0.49413 0.0
C3339 C 0.91472 0.36471 0.49263 0.0
C3340 C 0.89536 0.37312 0.49314 0.0
H3341 H 0.84727 0.418 0.47897 0.0
H3342 H 0.88003 0.40438 0.479 0.0
H3343 H 0.85414 0.38669 0.5224 0.0
H3344 H 0.91582 0.34519 0.51311 0.0
H3345 H 0.88259 0.3586 0.51317 0.0
C3346 C 0.83771 0.3488 0.26575 0.0
C3347 C 0.80327 0.34812 0.25822 0.0
C3348 C 0.85588 0.35667 0.26583 0.0
C3349 C 0.86199 0.37737 0.2428 0.0
H3350 H 0.90245 0.38573 0.28712 0.0
C3351 C 0.92321 0.41146 0.24802 0.0
C3352 C 0.953 0.41269 0.2593 0.0
C3353 C 0.90423 0.4037 0.24805 0.0
C3354 C 0.89193 0.38347 0.27452 0.0
H3355 H 0.76132 0.35509 0.24445 0.0
H3356 H 0.79334 0.36879 0.24428 0.0
H3357 H 0.87243 0.37186 0.28642 0.0
H3358 H 0.98513 0.40661 0.2799 0.0
H3359 H 0.95374 0.39305 0.27916 0.0
H3360 H 0.8823 0.38878 0.23068 0.0
C3361 C 0.80613 0.36326 0.25026 0.0
C3362 C 0.87454 0.37551 0.27418 0.0
C3363 C 0.78772 0.35543 0.25046 0.0
C3364 C 0.96292 0.40592 0.27071 0.0
C3365 C 0.94434 0.39813 0.27053 0.0
C3366 C 0.87991 0.38527 0.24305 0.0
C3367 C 0.84028 0.36398 0.25808 0.0
C3368 C 0.8593 0.37238 0.25833 0.0
C3369 C 0.91469 0.39687 0.2592 0.0
C3370 C 0.89514 0.38846 0.25893 0.0
H3371 H 0.85027 0.34328 0.27191 0.0
H3372 H 0.88226 0.35702 0.27185 0.0
H3373 H 0.85077 0.37509 0.23035 0.0
H3374 H 0.91478 0.41644 0.2389 0.0
H3375 H 0.88122 0.40309 0.23933 0.0
C3376 C 0.71154 0.10548 0.52016 0.0
C3377 C 0.70236 0.09872 0.50855 0.0
C3378 C 0.69296 0.11326 0.51969 0.0
C3379 C 0.60724 0.12308 0.50736 0.0
H3380 H 0.66165 0.14425 0.50556 0.0
C3381 C 0.53666 0.15576 0.49812 0.0
C3382 C 0.55091 0.16295 0.50692 0.0
C3383 C 0.55539 0.14799 0.4978 0.0
C3384 C 0.64592 0.13843 0.50635 0.0
H3385 H 0.66569 0.09496 0.48743 0.0
H3386 H 0.63256 0.10846 0.4871 0.0
H3387 H 0.69311 0.13056 0.50645 0.0
H3388 H 0.59596 0.16761 0.52235 0.0
H3389 H 0.62824 0.15401 0.52233 0.0
H3390 H 0.56007 0.13087 0.50783 0.0
C3391 C 0.65442 0.10769 0.49648 0.0
C3392 C 0.66404 0.13057 0.50676 0.0
C3393 C 0.67336 0.09993 0.49676 0.0
C3394 C 0.58448 0.16221 0.5153 0.0
C3395 C 0.60303 0.1544 0.51521 0.0
C3396 C 0.58909 0.13094 0.50721 0.0
C3397 C 0.66428 0.11447 0.50782 0.0
C3398 C 0.64491 0.12281 0.50725 0.0
C3399 C 0.5887 0.14715 0.50651 0.0
C3400 C 0.60814 0.13875 0.50666 0.0
H3401 H 0.733 0.10477 0.52977 0.0
H3402 H 0.70079 0.11832 0.5288 0.0
H3403 H 0.59178 0.11721 0.50795 0.0
H3404 H 0.51104 0.15616 0.49134 0.0
H3405 H 0.54375 0.14266 0.49059 0.0
C3406 C 0.54274 0.10602 0.73045 0.0
C3407 C 0.55081 0.09939 0.74257 0.0
C3408 C 0.56122 0.11382 0.73101 0.0
C3409 C 0.64565 0.12381 0.74492 0.0
H3410 H 0.59115 0.14497 0.74464 0.0
C3411 C 0.71547 0.15655 0.7546 0.0
C3412 C 0.70214 0.16366 0.74521 0.0
C3413 C 0.69662 0.1488 0.75479 0.0
C3414 C 0.60693 0.13915 0.74444 0.0
H3415 H 0.58538 0.09589 0.76472 0.0
H3416 H 0.61839 0.10941 0.76523 0.0
H3417 H 0.5598 0.13127 0.74352 0.0
H3418 H 0.65862 0.16821 0.72862 0.0
H3419 H 0.62616 0.15463 0.72842 0.0
H3420 H 0.69282 0.1316 0.74527 0.0
C3421 C 0.59748 0.10853 0.75536 0.0
C3422 C 0.58886 0.13128 0.74389 0.0
C3423 C 0.57862 0.10075 0.75499 0.0
C3424 C 0.66934 0.16287 0.73613 0.0
C3425 C 0.6507 0.15506 0.73609 0.0
C3426 C 0.66377 0.13167 0.74521 0.0
C3427 C 0.58871 0.11517 0.7435 0.0
C3428 C 0.60801 0.12353 0.74416 0.0
C3429 C 0.66414 0.14789 0.74535 0.0
C3430 C 0.6447 0.13948 0.74503 0.0
H3431 H 0.52224 0.10518 0.72037 0.0
H3432 H 0.55426 0.11877 0.72151 0.0
H3433 H 0.66114 0.11794 0.74492 0.0
H3434 H 0.74047 0.15701 0.76191 0.0
H3435 H 0.70753 0.14353 0.76244 0.0
C3436 C 0.33769 0.91271 0.48628 0.0
C3437 C 0.30443 0.91345 0.49499 0.0
C3438 C 0.35622 0.9049 0.48619 0.0
C3439 C 0.36587 0.88448 0.51025 0.0
H3440 H 0.40107 0.87571 0.46517 0.0
C3441 C 0.42546 0.85029 0.50434 0.0
C3442 C 0.45435 0.84902 0.49254 0.0
C3443 C 0.40664 0.85807 0.50456 0.0
C3444 C 0.392 0.8781 0.47795 0.0
H3445 H 0.2651 0.90665 0.5109 0.0
H3446 H 0.2977 0.89305 0.51098 0.0
H3447 H 0.37104 0.88957 0.46617 0.0
H3448 H 0.48508 0.855 0.47129 0.0
H3449 H 0.4538 0.86858 0.47234 0.0
H3450 H 0.3875 0.87316 0.52219 0.0
C3451 C 0.30932 0.8985 0.50411 0.0
C3452 C 0.37464 0.88605 0.47848 0.0
C3453 C 0.29055 0.90626 0.50397 0.0
C3454 C 0.46354 0.85574 0.48085 0.0
C3455 C 0.44505 0.86353 0.48123 0.0
C3456 C 0.38368 0.87658 0.50978 0.0
C3457 C 0.34217 0.89769 0.49506 0.0
C3458 C 0.36131 0.88932 0.49462 0.0
C3459 C 0.41634 0.86484 0.49311 0.0
C3460 C 0.39698 0.87325 0.49361 0.0
H3461 H 0.34894 0.91812 0.47915 0.0
H3462 H 0.38161 0.90449 0.47922 0.0
H3463 H 0.35616 0.88687 0.52292 0.0
H3464 H 0.41768 0.84534 0.51367 0.0
H3465 H 0.38435 0.85874 0.51371 0.0
C3466 C 0.42146 0.9129 0.26646 0.0
C3467 C 0.45479 0.91361 0.25779 0.0
C3468 C 0.40277 0.9051 0.26653 0.0
C3469 C 0.39297 0.88465 0.24249 0.0
H3470 H 0.35644 0.87602 0.2874 0.0
C3471 C 0.33221 0.85053 0.24823 0.0
C3472 C 0.30317 0.84929 0.25996 0.0
C3473 C 0.35119 0.8583 0.24804 0.0
C3474 C 0.36588 0.87836 0.27465 0.0
H3475 H 0.49409 0.90675 0.24198 0.0
H3476 H 0.46124 0.89318 0.24191 0.0
H3477 H 0.3869 0.88982 0.28649 0.0
H3478 H 0.27232 0.85532 0.2811 0.0
H3479 H 0.30386 0.86887 0.2801 0.0
H3480 H 0.37128 0.87334 0.23048 0.0
C3481 C 0.44967 0.89864 0.24873 0.0
C3482 C 0.38349 0.88629 0.27418 0.0
C3483 C 0.46859 0.90639 0.24888 0.0
C3484 C 0.29398 0.85603 0.27159 0.0
C3485 C 0.31262 0.86381 0.27124 0.0
C3486 C 0.3749 0.87677 0.2429 0.0
C3487 C 0.41672 0.89787 0.25771 0.0
C3488 C 0.39733 0.88952 0.25811 0.0
C3489 C 0.34151 0.86509 0.25945 0.0
C3490 C 0.36111 0.87348 0.259 0.0
H3491 H 0.41024 0.91833 0.27353 0.0
H3492 H 0.37731 0.90473 0.27346 0.0
H3493 H 0.40303 0.887 0.22985 0.0
H3494 H 0.34002 0.84556 0.23893 0.0
H3495 H 0.3736 0.85893 0.23896 0.0
C3496 C 0.54978 0.65775 0.02212 0.0
C3497 C 0.55643 0.66412 0.0092 0.0
C3498 C 0.568 0.6499 0.02167 0.0
C3499 C 0.65057 0.63955 0.00673 0.0
H3500 H 0.5957 0.61846 0.00869 0.0
C3501 C 0.71974 0.60667 0.9978 0.0
C3502 C 0.70629 0.59959 0.00724 0.0
C3503 C 0.70105 0.61445 0.99756 0.0
C3504 C 0.61164 0.62426 0.00843 0.0
H3505 H 0.58827 0.66708 0.98572 0.0
H3506 H 0.62103 0.65354 0.9855 0.0
H3507 H 0.56472 0.63221 0.00975 0.0
H3508 H 0.6628 0.59512 0.02394 0.0
H3509 H 0.63077 0.60876 0.02418 0.0
H3510 H 0.69757 0.63172 0.00611 0.0
C3511 C 0.60134 0.65465 0.99587 0.0
C3512 C 0.59375 0.63215 0.00893 0.0
C3513 C 0.58264 0.66245 0.99609 0.0
C3514 C 0.67361 0.60045 0.01639 0.0
C3515 C 0.65519 0.60828 0.01643 0.0
C3516 C 0.66854 0.63167 0.00656 0.0
C3517 C 0.59392 0.64826 0.00853 0.0
C3518 C 0.613 0.63988 0.00803 0.0
C3519 C 0.66867 0.61543 0.00706 0.0
C3520 C 0.64938 0.62388 0.00733 0.0
H3521 H 0.53061 0.6588 0.03273 0.0
H3522 H 0.56211 0.64515 0.03177 0.0
H3523 H 0.66614 0.64541 0.00622 0.0
H3524 H 0.74468 0.60617 0.99045 0.0
H3525 H 0.71203 0.61968 0.9898 0.0
C3526 C 0.71242 0.65642 0.23041 0.0
C3527 C 0.70322 0.66318 0.24201 0.0
C3528 C 0.69409 0.6486 0.23099 0.0
C3529 C 0.60887 0.63861 0.24394 0.0
H3530 H 0.66397 0.61754 0.24511 0.0
C3531 C 0.53958 0.6058 0.25385 0.0
C3532 C 0.55355 0.59864 0.24484 0.0
C3533 C 0.55817 0.6136 0.25401 0.0
C3534 C 0.64804 0.62333 0.24451 0.0
H3535 H 0.66675 0.66689 0.26323 0.0
H3536 H 0.63409 0.65332 0.26379 0.0
H3537 H 0.69498 0.63129 0.24397 0.0
H3538 H 0.598 0.59406 0.22889 0.0
H3539 H 0.63004 0.6077 0.22868 0.0
H3540 H 0.56193 0.63073 0.24393 0.0
C3541 C 0.65575 0.65412 0.25431 0.0
C3542 C 0.6659 0.63122 0.24394 0.0
C3543 C 0.67443 0.66192 0.25391 0.0
C3544 C 0.58674 0.59944 0.23612 0.0
C3545 C 0.60515 0.60727 0.23606 0.0
C3546 C 0.59097 0.63071 0.24426 0.0
C3547 C 0.66564 0.64734 0.24298 0.0
C3548 C 0.64654 0.63895 0.24368 0.0
C3549 C 0.59106 0.6145 0.24494 0.0
C3550 C 0.61026 0.62294 0.24459 0.0
H3551 H 0.73373 0.65716 0.22072 0.0
H3552 H 0.70195 0.64355 0.22188 0.0
H3553 H 0.5932 0.64445 0.24352 0.0
H3554 H 0.51427 0.60536 0.26089 0.0
H3555 H 0.54674 0.6189 0.26137 0.0
C3556 C 0.33747 0.41256 0.98498 0.0
C3557 C 0.3043 0.41331 0.99376 0.0
C3558 C 0.35603 0.40474 0.98491 0.0
C3559 C 0.36614 0.3844 0.0092 0.0
H3560 H 0.40144 0.37555 0.96421 0.0
C3561 C 0.42698 0.35029 0.00377 0.0
C3562 C 0.45563 0.34899 0.99184 0.0
C3563 C 0.40794 0.35804 0.00392 0.0
C3564 C 0.39235 0.37796 0.97697 0.0
H3565 H 0.26512 0.40653 0.0098 0.0
H3566 H 0.29778 0.39294 0.00991 0.0
H3567 H 0.37105 0.38936 0.96505 0.0
H3568 H 0.48572 0.35491 0.9703 0.0
H3569 H 0.45415 0.36846 0.97124 0.0
H3570 H 0.38816 0.37315 0.02128 0.0
C3571 C 0.30931 0.39837 0.00297 0.0
C3572 C 0.37477 0.38588 0.97741 0.0
C3573 C 0.29051 0.40613 0.00281 0.0
C3574 C 0.46439 0.35567 0.97997 0.0
C3575 C 0.44572 0.36344 0.98029 0.0
C3576 C 0.38419 0.37652 0.00882 0.0
C3577 C 0.34211 0.39755 0.99388 0.0
C3578 C 0.36139 0.38919 0.99351 0.0
C3579 C 0.4172 0.36478 0.99228 0.0
C3580 C 0.39756 0.37316 0.99269 0.0
H3581 H 0.34867 0.41795 0.9778 0.0
H3582 H 0.38138 0.40433 0.97789 0.0
H3583 H 0.35641 0.38681 0.02184 0.0
H3584 H 0.4195 0.34538 0.01326 0.0
H3585 H 0.38582 0.35872 0.01317 0.0
C3586 C 0.41979 0.41319 0.76603 0.0
C3587 C 0.45426 0.41388 0.75856 0.0
C3588 C 0.4017 0.40531 0.76609 0.0
C3589 C 0.39589 0.3846 0.74307 0.0
H3590 H 0.35524 0.37625 0.78732 0.0
C3591 C 0.3347 0.35052 0.74821 0.0
C3592 C 0.30477 0.34932 0.75939 0.0
C3593 C 0.35372 0.35827 0.74828 0.0
C3594 C 0.36583 0.37851 0.77474 0.0
H3595 H 0.49637 0.40692 0.74487 0.0
H3596 H 0.46447 0.39321 0.74466 0.0
H3597 H 0.38521 0.39012 0.78667 0.0
H3598 H 0.2724 0.35542 0.77987 0.0
H3599 H 0.30389 0.36897 0.77921 0.0
H3600 H 0.37569 0.37318 0.73091 0.0
C3601 C 0.4516 0.39874 0.75061 0.0
C3602 C 0.38318 0.38647 0.77442 0.0
C3603 C 0.46993 0.40657 0.75083 0.0
C3604 C 0.29474 0.35609 0.77075 0.0
C3605 C 0.31337 0.36388 0.77063 0.0
C3606 C 0.37801 0.3767 0.74329 0.0
C3607 C 0.41742 0.398 0.75837 0.0
C3608 C 0.39847 0.3896 0.7586 0.0
C3609 C 0.34315 0.36511 0.75938 0.0
C3610 C 0.36271 0.37352 0.75915 0.0
H3611 H 0.40715 0.4187 0.77216 0.0
H3612 H 0.37528 0.40494 0.77207 0.0
H3613 H 0.40716 0.38688 0.73063 0.0
H3614 H 0.34321 0.34552 0.73913 0.0
H3615 H 0.37683 0.35887 0.73963 0.0
loop_
_geom_bond_atom_site_label_1
_geom_bond_atom_site_label_2
_geom_bond_distance
_geom_bond_site_symmetry_2
_ccdc_geom_bond_type
C0 C1 1.443 . S
C0 N4 1.376 . S
C0 C38 1.389 . S
C1 C0 1.443 . S
C1 C2 1.340 . S
C1 H41 0.951 . S
C2 C1 1.340 . S
C2 C3 1.439 . S
C2 H42 0.950 . S
C3 C2 1.439 . S
C3 N4 1.374 . S
C3 C37 1.395 1_554 S
N4 C0 1.376 . S
N4 C3 1.374 . S
N4 Co5 2.008 . S
Co5 N4 2.008 . S
Co5 N6 1.995 1_554 S
Co5 N11 2.008 1_554 S
Co5 N16 1.995 . S
Co5 N21 2.282 . S
Co5 N27 2.282 . S
N6 Co5 1.995 1_556 S
N6 C7 1.376 . S
N6 C10 1.383 . S
C7 N6 1.376 . S
C7 C8 1.446 . S
C7 C37 1.391 . S
C8 C7 1.446 . S
C8 C9 1.339 . S
C8 H43 0.949 . S
C9 C8 1.339 . S
C9 C10 1.439 . S
C9 H44 0.950 . S
C10 N6 1.383 . S
C10 C9 1.439 . S
C10 C39 1.392 . S
N11 Co5 2.008 1_556 S
N11 C12 1.376 . S
N11 C15 1.374 1_556 S
C12 N11 1.376 . S
C12 C13 1.443 . S
C12 C39 1.389 . S
C13 C12 1.443 . S
C13 C14 1.340 . S
C13 H45 0.951 . S
C14 C13 1.340 . S
C14 C15 1.439 1_556 S
C14 H46 0.950 . S
C15 N11 1.374 1_554 S
C15 C14 1.439 1_554 S
C15 C40 1.395 . S
N16 Co5 1.995 . S
N16 C17 1.376 . S
N16 C20 1.383 . S
C17 N16 1.376 . S
C17 C18 1.446 . S
C17 C40 1.391 . S
C18 C17 1.446 . S
C18 C19 1.339 . S
C18 H47 0.949 . S
C19 C18 1.339 . S
C19 C20 1.439 . S
C19 H48 0.950 . S
C20 N16 1.383 . S
C20 C19 1.439 . S
C20 C38 1.392 . S
N21 Co5 2.282 . S
N21 C24 1.332 . S
N21 C26 1.332 1_554 S
C22 C23 1.386 . S
C22 C25 1.388 1_554 S
C23 C22 1.386 . S
C23 C24 1.382 . S
C23 H49 0.950 . S
C24 N21 1.332 . S
C24 C23 1.382 . S
C24 H35 0.952 . S
C25 C22 1.388 1_556 S
C25 C26 1.382 . S
C25 H50 0.950 . S
C26 N21 1.332 1_556 S
C26 C25 1.382 . S
C26 H36 0.948 . S
N27 Co5 2.282 . S
N27 C31 1.332 1_554 S
N27 C32 1.332 . S
C28 C29 1.388 . S
C28 C32 1.382 . S
C28 H51 0.950 . S
C29 C28 1.388 . S
C29 C30 1.386 1_554 S
C30 C29 1.386 1_556 S
C30 C31 1.382 . S
C30 H52 0.950 . S
C31 N27 1.332 1_556 S
C31 C30 1.382 . S
C31 H33 0.952 . S
C32 N27 1.332 . S
C32 C28 1.382 . S
C32 H34 0.948 . S
H33 C31 0.952 . S
H34 C32 0.948 . S
H35 C24 0.952 . S
H36 C26 0.948 . S
C37 C3 1.395 1_556 S
C37 C7 1.391 . S
C38 C0 1.389 . S
C38 C20 1.392 . S
C39 C10 1.392 . S
C39 C12 1.389 . S
C40 C15 1.395 . S
C40 C17 1.391 . S
H41 C1 0.951 . S
H42 C2 0.950 . S
H43 C8 0.949 . S
H44 C9 0.950 . S
H45 C13 0.951 . S
H46 C14 0.950 . S
H47 C18 0.949 . S
H48 C19 0.950 . S
H49 C23 0.950 . S
H50 C25 0.950 . S
H51 C28 0.950 . S
H52 C30 0.950 . S
C53 C54 1.443 . S
C53 N57 1.376 . S
C53 C91 1.389 . S
C54 C53 1.443 . S
C54 C55 1.340 . S
C54 H94 0.951 . S
C55 C54 1.340 . S
C55 C56 1.439 . S
C55 H95 0.950 . S
C56 C55 1.439 . S
C56 N57 1.374 . S
C56 C90 1.395 1_554 S
N57 C53 1.376 . S
N57 C56 1.374 . S
N57 Co58 2.008 1_455 S
Co58 N57 2.008 1_655 S
Co58 N59 1.995 1_554 S
Co58 N64 2.008 1_554 S
Co58 N69 1.995 . S
Co58 N74 2.282 . S
Co58 N80 2.282 1_655 S
N59 Co58 1.995 1_556 S
N59 C60 1.376 1_655 S
N59 C63 1.383 . S
C60 N59 1.376 1_455 S
C60 C61 1.446 . S
C60 C90 1.391 . S
C61 C60 1.446 . S
C61 C62 1.339 1_455 S
C61 H96 0.949 . S
C62 C61 1.339 1_655 S
C62 C63 1.439 . S
C62 H97 0.950 . S
C63 N59 1.383 . S
C63 C62 1.439 . S
C63 C92 1.392 . S
N64 Co58 2.008 1_556 S
N64 C65 1.376 . S
N64 C68 1.374 1_556 S
C65 N64 1.376 . S
C65 C66 1.443 . S
C65 C92 1.389 . S
C66 C65 1.443 . S
C66 C67 1.340 . S
C66 H98 0.951 . S
C67 C66 1.340 . S
C67 C68 1.439 1_556 S
C67 H99 0.950 . S
C68 N64 1.374 1_554 S
C68 C67 1.439 1_554 S
C68 C93 1.395 . S
N69 Co58 1.995 . S
N69 C70 1.376 . S
N69 C73 1.383 . S
C70 N69 1.376 . S
C70 C71 1.446 . S
C70 C93 1.391 . S
C71 C70 1.446 . S
C71 C72 1.339 . S
C71 H100 0.949 . S
C72 C71 1.339 . S
C72 C73 1.439 . S
C72 H101 0.950 . S
C73 N69 1.383 . S
C73 C72 1.439 . S
C73 C91 1.392 1_655 S
N74 Co58 2.282 . S
N74 C77 1.332 . S
N74 C79 1.332 1_554 S
C75 C76 1.386 . S
C75 C78 1.388 1_554 S
C76 C75 1.386 . S
C76 C77 1.382 . S
C76 H102 0.950 . S
C77 N74 1.332 . S
C77 C76 1.382 . S
C77 H88 0.952 . S
C78 C75 1.388 1_556 S
C78 C79 1.382 . S
C78 H103 0.950 . S
C79 N74 1.332 1_556 S
C79 C78 1.382 . S
C79 H89 0.948 . S
N80 Co58 2.282 1_455 S
N80 C84 1.332 1_554 S
N80 C85 1.332 . S
C81 C82 1.388 . S
C81 C85 1.382 . S
C81 H104 0.950 . S
C82 C81 1.388 . S
C82 C83 1.386 1_554 S
C83 C82 1.386 1_556 S
C83 C84 1.382 . S
C83 H105 0.950 . S
C84 N80 1.332 1_556 S
C84 C83 1.382 . S
C84 H86 0.952 . S
C85 N80 1.332 . S
C85 C81 1.382 . S
C85 H87 0.948 1_455 S
H86 C84 0.952 . S
H87 C85 0.948 1_655 S
H88 C77 0.952 . S
H89 C79 0.948 . S
C90 C56 1.395 1_556 S
C90 C60 1.391 . S
C91 C53 1.389 . S
C91 C73 1.392 1_455 S
C92 C63 1.392 . S
C92 C65 1.389 . S
C93 C68 1.395 . S
C93 C70 1.391 . S
H94 C54 0.951 . S
H95 C55 0.950 . S
H96 C61 0.949 . S
H97 C62 0.950 . S
H98 C66 0.951 . S
H99 C67 0.950 . S
H100 C71 0.949 . S
H101 C72 0.950 . S
H102 C76 0.950 . S
H103 C78 0.950 . S
H104 C81 0.950 . S
H105 C83 0.950 . S
C106 C107 1.443 . S
C106 N110 1.376 . S
C106 C144 1.389 . S
C107 C106 1.443 . S
C107 C108 1.340 . S
C107 H147 0.951 . S
C108 C107 1.340 . S
C108 C109 1.439 . S
C108 H148 0.950 . S
C109 C108 1.439 . S
C109 N110 1.374 . S
C109 C143 1.395 . S
N110 C106 1.376 . S
N110 C109 1.374 . S
N110 Co111 2.008 . S
Co111 N110 2.008 . S
Co111 N112 1.995 . S
Co111 N117 2.008 . S
Co111 N122 1.995 . S
Co111 N127 2.282 . S
Co111 N133 2.282 . S
N112 Co111 1.995 . S
N112 C113 1.376 . S
N112 C116 1.383 . S
C113 N112 1.376 . S
C113 C114 1.446 . S
C113 C143 1.391 . S
C114 C113 1.446 . S
C114 C115 1.339 . S
C114 H149 0.949 . S
C115 C114 1.339 . S
C115 C116 1.439 . S
C115 H150 0.950 . S
C116 N112 1.383 . S
C116 C115 1.439 . S
C116 C145 1.392 . S
N117 Co111 2.008 . S
N117 C118 1.376 . S
N117 C121 1.374 . S
C118 N117 1.376 . S
C118 C119 1.443 . S
C118 C145 1.389 . S
C119 C118 1.443 . S
C119 C120 1.340 . S
C119 H151 0.951 . S
C120 C119 1.340 . S
C120 C121 1.439 . S
C120 H152 0.950 . S
C121 N117 1.374 . S
C121 C120 1.439 . S
C121 C146 1.395 . S
N122 Co111 1.995 . S
N122 C123 1.376 . S
N122 C126 1.383 . S
C123 N122 1.376 . S
C123 C124 1.446 . S
C123 C146 1.391 . S
C124 C123 1.446 . S
C124 C125 1.339 . S
C124 H153 0.949 . S
C125 C124 1.339 . S
C125 C126 1.439 . S
C125 H154 0.950 . S
C126 N122 1.383 . S
C126 C125 1.439 . S
C126 C144 1.392 . S
N127 Co111 2.282 . S
N127 C130 1.332 . S
N127 C132 1.332 . S
C128 C129 1.386 . S
C128 C131 1.388 . S
C129 C128 1.386 . S
C129 C130 1.382 . S
C129 H155 0.950 . S
C130 N127 1.332 . S
C130 C129 1.382 . S
C130 H141 0.952 . S
C131 C128 1.388 . S
C131 C132 1.382 . S
C131 H156 0.950 . S
C132 N127 1.332 . S
C132 C131 1.382 . S
C132 H142 0.948 . S
N133 Co111 2.282 . S
N133 C137 1.332 . S
N133 C138 1.332 . S
C134 C135 1.388 . S
C134 C138 1.382 . S
C134 H157 0.950 . S
C135 C134 1.388 . S
C135 C136 1.386 . S
C136 C135 1.386 . S
C136 C137 1.382 . S
C136 H158 0.950 . S
C137 N133 1.332 . S
C137 C136 1.382 . S
C137 H139 0.952 . S
C138 N133 1.332 . S
C138 C134 1.382 . S
C138 H140 0.948 . S
H139 C137 0.952 . S
H140 C138 0.948 . S
H141 C130 0.952 . S
H142 C132 0.948 . S
C143 C109 1.395 . S
C143 C113 1.391 . S
C144 C106 1.389 . S
C144 C126 1.392 . S
C145 C116 1.392 . S
C145 C118 1.389 . S
C146 C121 1.395 . S
C146 C123 1.391 . S
H147 C107 0.951 . S
H148 C108 0.950 . S
H149 C114 0.949 . S
H150 C115 0.950 . S
H151 C119 0.951 . S
H152 C120 0.950 . S
H153 C124 0.949 . S
H154 C125 0.950 . S
H155 C129 0.950 . S
H156 C131 0.950 . S
H157 C134 0.950 . S
H158 C136 0.950 . S
C159 C160 1.443 . S
C159 N163 1.376 . S
C159 C197 1.389 . S
C160 C159 1.443 . S
C160 C161 1.340 . S
C160 H200 0.951 . S
C161 C160 1.340 . S
C161 C162 1.439 . S
C161 H201 0.950 . S
C162 C161 1.439 . S
C162 N163 1.374 . S
C162 C196 1.395 . S
N163 C159 1.376 . S
N163 C162 1.374 . S
N163 Co164 2.008 1_455 S
Co164 N163 2.008 1_655 S
Co164 N165 1.995 . S
Co164 N170 2.008 . S
Co164 N175 1.995 . S
Co164 N180 2.282 . S
Co164 N186 2.282 1_655 S
N165 Co164 1.995 . S
N165 C166 1.376 1_655 S
N165 C169 1.383 . S
C166 N165 1.376 1_455 S
C166 C167 1.446 . S
C166 C196 1.391 . S
C167 C166 1.446 . S
C167 C168 1.339 1_455 S
C167 H202 0.949 . S
C168 C167 1.339 1_655 S
C168 C169 1.439 . S
C168 H203 0.950 . S
C169 N165 1.383 . S
C169 C168 1.439 . S
C169 C198 1.392 . S
N170 Co164 2.008 . S
N170 C171 1.376 . S
N170 C174 1.374 . S
C171 N170 1.376 . S
C171 C172 1.443 . S
C171 C198 1.389 . S
C172 C171 1.443 . S
C172 C173 1.340 . S
C172 H204 0.951 . S
C173 C172 1.340 . S
C173 C174 1.439 . S
C173 H205 0.950 . S
C174 N170 1.374 . S
C174 C173 1.439 . S
C174 C199 1.395 . S
N175 Co164 1.995 . S
N175 C176 1.376 . S
N175 C179 1.383 . S
C176 N175 1.376 . S
C176 C177 1.446 . S
C176 C199 1.391 . S
C177 C176 1.446 . S
C177 C178 1.339 . S
C177 H206 0.949 . S
C178 C177 1.339 . S
C178 C179 1.439 . S
C178 H207 0.950 . S
C179 N175 1.383 . S
C179 C178 1.439 . S
C179 C197 1.392 1_655 S
N180 Co164 2.282 . S
N180 C183 1.332 . S
N180 C185 1.332 . S
C181 C182 1.386 . S
C181 C184 1.388 . S
C182 C181 1.386 . S
C182 C183 1.382 . S
C182 H208 0.950 . S
C183 N180 1.332 . S
C183 C182 1.382 . S
C183 H194 0.952 . S
C184 C181 1.388 . S
C184 C185 1.382 . S
C184 H209 0.950 . S
C185 N180 1.332 . S
C185 C184 1.382 . S
C185 H195 0.948 . S
N186 Co164 2.282 1_455 S
N186 C190 1.332 . S
N186 C191 1.332 . S
C187 C188 1.388 . S
C187 C191 1.382 . S
C187 H210 0.950 . S
C188 C187 1.388 . S
C188 C189 1.386 . S
C189 C188 1.386 . S
C189 C190 1.382 . S
C189 H211 0.950 . S
C190 N186 1.332 . S
C190 C189 1.382 . S
C190 H192 0.952 . S
C191 N186 1.332 . S
C191 C187 1.382 . S
C191 H193 0.948 1_455 S
H192 C190 0.952 . S
H193 C191 0.948 1_655 S
H194 C183 0.952 . S
H195 C185 0.948 . S
C196 C162 1.395 . S
C196 C166 1.391 . S
C197 C159 1.389 . S
C197 C179 1.392 1_455 S
C198 C169 1.392 . S
C198 C171 1.389 . S
C199 C174 1.395 . S
C199 C176 1.391 . S
H200 C160 0.951 . S
H201 C161 0.950 . S
H202 C167 0.949 . S
H203 C168 0.950 . S
H204 C172 0.951 . S
H205 C173 0.950 . S
H206 C177 0.949 . S
H207 C178 0.950 . S
H208 C182 0.950 . S
H209 C184 0.950 . S
H210 C187 0.950 . S
H211 C189 0.950 . S
C212 C213 1.443 . S
C212 N216 1.376 . S
C212 C250 1.389 . S
C213 C212 1.443 . S
C213 C214 1.340 . S
C213 H253 0.951 . S
C214 C213 1.340 . S
C214 C215 1.439 . S
C214 H254 0.950 . S
C215 C214 1.439 . S
C215 N216 1.374 . S
C215 C249 1.395 . S
N216 C212 1.376 . S
N216 C215 1.374 . S
N216 Co217 2.008 . S
Co217 N216 2.008 . S
Co217 N218 1.995 1_556 S
Co217 N223 2.008 1_556 S
Co217 N228 1.995 . S
Co217 N233 2.282 . S
Co217 N239 2.288 . S
N218 Co217 1.995 1_554 S
N218 C219 1.376 1_554 S
N218 C222 1.383 . S
C219 N218 1.376 1_556 S
C219 C220 1.446 1_556 S
C219 C249 1.391 . S
C220 C219 1.446 1_554 S
C220 C221 1.339 . S
C220 H255 0.949 . S
C221 C220 1.339 . S
C221 C222 1.439 . S
C221 H256 0.950 . S
C222 N218 1.383 . S
C222 C221 1.439 . S
C222 C251 1.392 . S
N223 Co217 2.008 1_554 S
N223 C224 1.376 . S
N223 C227 1.374 . S
C224 N223 1.376 . S
C224 C225 1.443 . S
C224 C251 1.389 . S
C225 C224 1.443 . S
C225 C226 1.340 . S
C225 H257 0.951 . S
C226 C225 1.340 . S
C226 C227 1.439 . S
C226 H258 0.950 . S
C227 N223 1.374 . S
C227 C226 1.439 . S
C227 C252 1.395 . S
N228 Co217 1.995 . S
N228 C229 1.376 . S
N228 C232 1.383 . S
C229 N228 1.376 . S
C229 C230 1.446 . S
C229 C252 1.391 1_556 S
C230 C229 1.446 . S
C230 C231 1.339 . S
C230 H259 0.949 . S
C231 C230 1.339 . S
C231 C232 1.439 . S
C231 H260 0.950 . S
C232 N228 1.383 . S
C232 C231 1.439 . S
C232 C250 1.392 . S
N233 Co217 2.282 . S
N233 C236 1.332 . S
N233 C238 1.332 . S
C234 C235 1.386 . S
C234 C237 1.388 . S
C235 C234 1.386 . S
C235 C236 1.382 . S
C235 H261 0.947 1_556 S
C236 N233 1.332 . S
C236 C235 1.382 . S
C236 H247 0.952 . S
C237 C234 1.388 . S
C237 C238 1.382 . S
C237 H262 0.950 . S
C238 N233 1.332 . S
C238 C237 1.382 . S
C238 H248 0.948 . S
N239 Co217 2.288 . S
N239 C243 1.342 . S
N239 C244 1.331 . S
C240 C241 1.388 . S
C240 C244 1.382 . S
C240 H263 0.950 . S
C241 C240 1.388 . S
C241 C242 1.386 . S
C242 C241 1.386 . S
C242 C243 1.382 . S
C242 H264 0.950 . S
C243 N239 1.342 . S
C243 C242 1.382 . S
C243 H245 0.952 . S
C244 N239 1.331 . S
C244 C240 1.382 . S
C244 H246 0.948 1_556 S
H245 C243 0.952 . S
H246 C244 0.948 1_554 S
H247 C236 0.952 . S
H248 C238 0.948 . S
C249 C215 1.395 . S
C249 C219 1.391 . S
C250 C212 1.389 . S
C250 C232 1.392 . S
C251 C222 1.392 . S
C251 C224 1.389 . S
C252 C227 1.395 . S
C252 C229 1.391 1_554 S
H253 C213 0.951 . S
H254 C214 0.950 . S
H255 C220 0.949 . S
H256 C221 0.950 . S
H257 C225 0.951 . S
H258 C226 0.950 . S
H259 C230 0.949 . S
H260 C231 0.950 . S
H261 C235 0.947 1_554 S
H262 C237 0.950 . S
H263 C240 0.950 . S
H264 C242 0.950 . S
C265 C266 1.443 . S
C265 N269 1.376 . S
C265 C303 1.389 1_455 S
C266 C265 1.443 . S
C266 C267 1.340 . S
C266 H306 0.951 . S
C267 C266 1.340 . S
C267 C268 1.439 . S
C267 H307 0.950 . S
C268 C267 1.439 . S
C268 N269 1.374 . S
C268 C302 1.395 . S
N269 C265 1.376 . S
N269 C268 1.374 . S
N269 Co270 2.008 . S
Co270 N269 2.008 . S
Co270 N271 1.995 1_556 S
Co270 N276 2.008 1_556 S
Co270 N281 1.995 1_455 S
Co270 N286 2.282 . S
Co270 N292 2.288 1_455 S
N271 Co270 1.995 1_554 S
N271 C272 1.376 1_554 S
N271 C275 1.383 . S
C272 N271 1.376 1_556 S
C272 C273 1.446 1_556 S
C272 C302 1.391 . S
C273 C272 1.446 1_554 S
C273 C274 1.339 . S
C273 H308 0.949 . S
C274 C273 1.339 . S
C274 C275 1.439 . S
C274 H309 0.950 . S
C275 N271 1.383 . S
C275 C274 1.439 . S
C275 C304 1.392 . S
N276 Co270 2.008 1_554 S
N276 C277 1.376 . S
N276 C280 1.374 1_455 S
C277 N276 1.376 . S
C277 C278 1.443 . S
C277 C304 1.389 . S
C278 C277 1.443 . S
C278 C279 1.340 1_455 S
C278 H310 0.951 . S
C279 C278 1.340 1_655 S
C279 C280 1.439 . S
C279 H311 0.950 . S
C280 N276 1.374 1_655 S
C280 C279 1.439 . S
C280 C305 1.395 . S
N281 Co270 1.995 1_655 S
N281 C282 1.376 . S
N281 C285 1.383 . S
C282 N281 1.376 . S
C282 C283 1.446 . S
C282 C305 1.391 1_556 S
C283 C282 1.446 . S
C283 C284 1.339 . S
C283 H312 0.949 . S
C284 C283 1.339 . S
C284 C285 1.439 . S
C284 H313 0.950 . S
C285 N281 1.383 . S
C285 C284 1.439 . S
C285 C303 1.392 . S
N286 Co270 2.282 . S
N286 C289 1.332 . S
N286 C291 1.332 . S
C287 C288 1.386 . S
C287 C290 1.388 . S
C288 C287 1.386 . S
C288 C289 1.382 . S
C288 H314 0.947 1_556 S
C289 N286 1.332 . S
C289 C288 1.382 . S
C289 H300 0.952 . S
C290 C287 1.388 . S
C290 C291 1.382 . S
C290 H315 0.950 . S
C291 N286 1.332 . S
C291 C290 1.382 . S
C291 H301 0.948 . S
N292 Co270 2.288 1_655 S
N292 C296 1.352 . S
N292 C297 1.331 . S
C293 C294 1.388 . S
C293 C297 1.382 . S
C293 H316 0.950 . S
C294 C293 1.388 . S
C294 C295 1.386 . S
C295 C294 1.386 . S
C295 C296 1.397 . S
C295 H317 0.950 . S
C296 N292 1.352 . S
C296 C295 1.397 . S
C296 H298 0.924 1_655 S
C297 N292 1.331 . S
C297 C293 1.382 . S
C297 H299 0.948 1_556 S
H298 C296 0.924 1_455 S
H299 C297 0.948 1_554 S
H300 C289 0.952 . S
H301 C291 0.948 . S
C302 C268 1.395 . S
C302 C272 1.391 . S
C303 C265 1.389 1_655 S
C303 C285 1.392 . S
C304 C275 1.392 . S
C304 C277 1.389 . S
C305 C280 1.395 . S
C305 C282 1.391 1_554 S
H306 C266 0.951 . S
H307 C267 0.950 . S
H308 C273 0.949 . S
H309 C274 0.950 . S
H310 C278 0.951 . S
H311 C279 0.950 . S
H312 C283 0.949 . S
H313 C284 0.950 . S
H314 C288 0.947 1_554 S
H315 C290 0.950 . S
H316 C293 0.950 . S
H317 C295 0.950 . S
C318 C319 1.443 . S
C318 N322 1.376 . S
C318 C356 1.389 . S
C319 C318 1.443 . S
C319 C320 1.340 . S
C319 H359 0.951 . S
C320 C319 1.340 . S
C320 C321 1.439 . S
C320 H360 0.950 . S
C321 C320 1.439 . S
C321 N322 1.374 . S
C321 C355 1.395 . S
N322 C318 1.376 . S
N322 C321 1.374 . S
N322 Co323 2.008 . S
Co323 N322 2.008 . S
Co323 N324 1.995 . S
Co323 N329 2.008 . S
Co323 N334 1.995 . S
Co323 N339 2.282 . S
Co323 N345 2.282 . S
N324 Co323 1.995 . S
N324 C325 1.376 . S
N324 C328 1.383 . S
C325 N324 1.376 . S
C325 C326 1.446 . S
C325 C355 1.391 . S
C326 C325 1.446 . S
C326 C327 1.339 . S
C326 H361 0.949 . S
C327 C326 1.339 . S
C327 C328 1.439 . S
C327 H362 0.950 . S
C328 N324 1.383 . S
C328 C327 1.439 . S
C328 C357 1.392 . S
N329 Co323 2.008 . S
N329 C330 1.376 . S
N329 C333 1.374 . S
C330 N329 1.376 . S
C330 C331 1.443 . S
C330 C357 1.389 . S
C331 C330 1.443 . S
C331 C332 1.340 . S
C331 H363 0.951 . S
C332 C331 1.340 . S
C332 C333 1.439 . S
C332 H364 0.950 . S
C333 N329 1.374 . S
C333 C332 1.439 . S
C333 C358 1.395 . S
N334 Co323 1.995 . S
N334 C335 1.376 . S
N334 C338 1.383 . S
C335 N334 1.376 . S
C335 C336 1.446 . S
C335 C358 1.391 . S
C336 C335 1.446 . S
C336 C337 1.339 . S
C336 H365 0.949 . S
C337 C336 1.339 . S
C337 C338 1.439 . S
C337 H366 0.950 . S
C338 N334 1.383 . S
C338 C337 1.439 . S
C338 C356 1.392 . S
N339 Co323 2.282 . S
N339 C342 1.332 . S
N339 C344 1.332 . S
C340 C341 1.386 . S
C340 C343 1.388 . S
C341 C340 1.386 . S
C341 C342 1.382 . S
C341 H367 0.950 . S
C342 N339 1.332 . S
C342 C341 1.382 . S
C342 H353 0.952 . S
C343 C340 1.388 . S
C343 C344 1.382 . S
C343 H368 0.950 . S
C344 N339 1.332 . S
C344 C343 1.382 . S
C344 H354 0.948 . S
N345 Co323 2.282 . S
N345 C349 1.332 . S
N345 C350 1.332 . S
C346 C347 1.388 . S
C346 C350 1.382 . S
C346 H369 0.950 . S
C347 C346 1.388 . S
C347 C348 1.386 . S
C348 C347 1.386 . S
C348 C349 1.382 . S
C348 H370 0.950 . S
C349 N345 1.332 . S
C349 C348 1.382 . S
C349 H351 0.952 . S
C350 N345 1.332 . S
C350 C346 1.382 . S
C350 H352 0.948 . S
H351 C349 0.952 . S
H352 C350 0.948 . S
H353 C342 0.952 . S
H354 C344 0.948 . S
C355 C321 1.395 . S
C355 C325 1.391 . S
C356 C318 1.389 . S
C356 C338 1.392 . S
C357 C328 1.392 . S
C357 C330 1.389 . S
C358 C333 1.395 . S
C358 C335 1.391 . S
H359 C319 0.951 . S
H360 C320 0.950 . S
H361 C326 0.949 . S
H362 C327 0.950 . S
H363 C331 0.951 . S
H364 C332 0.950 . S
H365 C336 0.949 . S
H366 C337 0.950 . S
H367 C341 0.950 . S
H368 C343 0.950 . S
H369 C346 0.950 . S
H370 C348 0.950 . S
C371 C372 1.443 . S
C371 N375 1.376 . S
C371 C409 1.389 1_455 S
C372 C371 1.443 . S
C372 C373 1.340 . S
C372 H412 0.951 . S
C373 C372 1.340 . S
C373 C374 1.439 . S
C373 H413 0.950 . S
C374 C373 1.439 . S
C374 N375 1.374 . S
C374 C408 1.395 . S
N375 C371 1.376 . S
N375 C374 1.374 . S
N375 Co376 2.008 . S
Co376 N375 2.008 . S
Co376 N377 1.995 . S
Co376 N382 2.008 . S
Co376 N387 1.995 1_455 S
Co376 N392 2.282 . S
Co376 N398 2.282 1_455 S
N377 Co376 1.995 . S
N377 C378 1.376 . S
N377 C381 1.383 . S
C378 N377 1.376 . S
C378 C379 1.446 . S
C378 C408 1.391 . S
C379 C378 1.446 . S
C379 C380 1.339 . S
C379 H414 0.949 . S
C380 C379 1.339 . S
C380 C381 1.439 . S
C380 H415 0.950 . S
C381 N377 1.383 . S
C381 C380 1.439 . S
C381 C410 1.392 . S
N382 Co376 2.008 . S
N382 C383 1.376 . S
N382 C386 1.374 1_455 S
C383 N382 1.376 . S
C383 C384 1.443 . S
C383 C410 1.389 . S
C384 C383 1.443 . S
C384 C385 1.340 1_455 S
C384 H416 0.951 . S
C385 C384 1.340 1_655 S
C385 C386 1.439 . S
C385 H417 0.950 . S
C386 N382 1.374 1_655 S
C386 C385 1.439 . S
C386 C411 1.395 . S
N387 Co376 1.995 1_655 S
N387 C388 1.376 . S
N387 C391 1.383 . S
C388 N387 1.376 . S
C388 C389 1.446 . S
C388 C411 1.391 . S
C389 C388 1.446 . S
C389 C390 1.339 . S
C389 H418 0.949 . S
C390 C389 1.339 . S
C390 C391 1.439 . S
C390 H419 0.950 . S
C391 N387 1.383 . S
C391 C390 1.439 . S
C391 C409 1.392 . S
N392 Co376 2.282 . S
N392 C395 1.332 . S
N392 C397 1.332 . S
C393 C394 1.386 . S
C393 C396 1.388 . S
C394 C393 1.386 . S
C394 C395 1.382 . S
C394 H420 0.950 . S
C395 N392 1.332 . S
C395 C394 1.382 . S
C395 H406 0.952 . S
C396 C393 1.388 . S
C396 C397 1.382 . S
C396 H421 0.950 . S
C397 N392 1.332 . S
C397 C396 1.382 . S
C397 H407 0.948 . S
N398 Co376 2.282 1_655 S
N398 C402 1.342 . S
N398 C403 1.332 . S
C399 C400 1.388 . S
C399 C403 1.382 . S
C399 H422 0.950 . S
C400 C399 1.388 . S
C400 C401 1.386 . S
C401 C400 1.386 . S
C401 C402 1.396 . S
C401 H423 0.950 . S
C402 N398 1.342 . S
C402 C401 1.396 . S
C402 H404 0.926 1_655 S
C403 N398 1.332 . S
C403 C399 1.382 . S
C403 H405 0.948 . S
H404 C402 0.926 1_455 S
H405 C403 0.948 . S
H406 C395 0.952 . S
H407 C397 0.948 . S
C408 C374 1.395 . S
C408 C378 1.391 . S
C409 C371 1.389 1_655 S
C409 C391 1.392 . S
C410 C381 1.392 . S
C410 C383 1.389 . S
C411 C386 1.395 . S
C411 C388 1.391 . S
H412 C372 0.951 . S
H413 C373 0.950 . S
H414 C379 0.949 . S
H415 C380 0.950 . S
H416 C384 0.951 . S
H417 C385 0.950 . S
H418 C389 0.949 . S
H419 C390 0.950 . S
H420 C394 0.950 . S
H421 C396 0.950 . S
H422 C399 0.950 . S
H423 C401 0.950 . S
C424 C425 1.443 . S
C424 N428 1.376 . S
C424 C462 1.389 . S
C425 C424 1.443 . S
C425 C426 1.340 . S
C425 H465 0.951 . S
C426 C425 1.340 . S
C426 C427 1.439 . S
C426 H466 0.950 . S
C427 C426 1.439 . S
C427 N428 1.374 . S
C427 C461 1.395 . S
N428 C424 1.376 . S
N428 C427 1.374 . S
N428 Co429 2.008 . S
Co429 N428 2.008 . S
Co429 N430 1.995 . S
Co429 N435 2.008 . S
Co429 N440 1.995 . S
Co429 N445 2.282 . S
Co429 N451 2.282 . S
N430 Co429 1.995 . S
N430 C431 1.376 . S
N430 C434 1.383 . S
C431 N430 1.376 . S
C431 C432 1.446 . S
C431 C461 1.391 . S
C432 C431 1.446 . S
C432 C433 1.339 . S
C432 H467 0.949 . S
C433 C432 1.339 . S
C433 C434 1.439 . S
C433 H468 0.950 . S
C434 N430 1.383 . S
C434 C433 1.439 . S
C434 C463 1.392 . S
N435 Co429 2.008 . S
N435 C436 1.376 . S
N435 C439 1.374 . S
C436 N435 1.376 . S
C436 C437 1.443 . S
C436 C463 1.389 . S
C437 C436 1.443 . S
C437 C438 1.340 . S
C437 H469 0.951 . S
C438 C437 1.340 . S
C438 C439 1.439 . S
C438 H470 0.950 . S
C439 N435 1.374 . S
C439 C438 1.439 . S
C439 C464 1.395 . S
N440 Co429 1.995 . S
N440 C441 1.376 . S
N440 C444 1.383 . S
C441 N440 1.376 . S
C441 C442 1.446 . S
C441 C464 1.391 . S
C442 C441 1.446 . S
C442 C443 1.339 . S
C442 H471 0.949 . S
C443 C442 1.339 . S
C443 C444 1.439 . S
C443 H472 0.950 . S
C444 N440 1.383 . S
C444 C443 1.439 . S
C444 C462 1.392 . S
N445 Co429 2.282 . S
N445 C448 1.332 . S
N445 C450 1.332 . S
C446 C447 1.386 . S
C446 C449 1.388 . S
C447 C446 1.386 . S
C447 C448 1.382 . S
C447 H473 0.950 . S
C448 N445 1.332 . S
C448 C447 1.382 . S
C448 H459 0.952 . S
C449 C446 1.388 . S
C449 C450 1.382 . S
C449 H474 0.950 . S
C450 N445 1.332 . S
C450 C449 1.382 . S
C450 H460 0.948 . S
N451 Co429 2.282 . S
N451 C455 1.332 . S
N451 C456 1.332 . S
C452 C453 1.388 . S
C452 C456 1.382 . S
C452 H475 0.950 . S
C453 C452 1.388 . S
C453 C454 1.386 . S
C454 C453 1.386 . S
C454 C455 1.382 . S
C454 H476 0.950 . S
C455 N451 1.332 . S
C455 C454 1.382 . S
C455 H457 0.952 . S
C456 N451 1.332 . S
C456 C452 1.382 . S
C456 H458 0.948 . S
H457 C455 0.952 . S
H458 C456 0.948 . S
H459 C448 0.952 . S
H460 C450 0.948 . S
C461 C427 1.395 . S
C461 C431 1.391 . S
C462 C424 1.389 . S
C462 C444 1.392 . S
C463 C434 1.392 . S
C463 C436 1.389 . S
C464 C439 1.395 . S
C464 C441 1.391 . S
H465 C425 0.951 . S
H466 C426 0.950 . S
H467 C432 0.949 . S
H468 C433 0.950 . S
H469 C437 0.951 . S
H470 C438 0.950 . S
H471 C442 0.949 . S
H472 C443 0.950 . S
H473 C447 0.950 . S
H474 C449 0.950 . S
H475 C452 0.950 . S
H476 C454 0.950 . S
C477 C478 1.443 . S
C477 N481 1.376 . S
C477 C515 1.389 . S
C478 C477 1.443 . S
C478 C479 1.340 . S
C478 H518 0.951 . S
C479 C478 1.340 . S
C479 C480 1.439 . S
C479 H519 0.950 . S
C480 C479 1.439 . S
C480 N481 1.374 . S
C480 C514 1.395 . S
N481 C477 1.376 . S
N481 C480 1.374 . S
N481 Co482 2.008 1_455 S
Co482 N481 2.008 1_655 S
Co482 N483 1.995 . S
Co482 N488 2.008 . S
Co482 N493 1.995 . S
Co482 N498 2.282 . S
Co482 N504 2.282 1_655 S
N483 Co482 1.995 . S
N483 C484 1.376 1_655 S
N483 C487 1.383 . S
C484 N483 1.376 1_455 S
C484 C485 1.446 . S
C484 C514 1.391 . S
C485 C484 1.446 . S
C485 C486 1.339 1_455 S
C485 H520 0.949 . S
C486 C485 1.339 1_655 S
C486 C487 1.439 . S
C486 H521 0.950 . S
C487 N483 1.383 . S
C487 C486 1.439 . S
C487 C516 1.392 . S
N488 Co482 2.008 . S
N488 C489 1.376 . S
N488 C492 1.374 . S
C489 N488 1.376 . S
C489 C490 1.443 . S
C489 C516 1.389 . S
C490 C489 1.443 . S
C490 C491 1.340 . S
C490 H522 0.951 . S
C491 C490 1.340 . S
C491 C492 1.439 . S
C491 H523 0.950 . S
C492 N488 1.374 . S
C492 C491 1.439 . S
C492 C517 1.395 . S
N493 Co482 1.995 . S
N493 C494 1.376 . S
N493 C497 1.383 . S
C494 N493 1.376 . S
C494 C495 1.446 . S
C494 C517 1.391 . S
C495 C494 1.446 . S
C495 C496 1.339 . S
C495 H524 0.949 . S
C496 C495 1.339 . S
C496 C497 1.439 . S
C496 H525 0.950 . S
C497 N493 1.383 . S
C497 C496 1.439 . S
C497 C515 1.392 1_655 S
N498 Co482 2.282 . S
N498 C501 1.332 . S
N498 C503 1.332 . S
C499 C500 1.386 . S
C499 C502 1.388 . S
C500 C499 1.386 . S
C500 C501 1.382 . S
C500 H526 0.950 . S
C501 N498 1.332 . S
C501 C500 1.382 . S
C501 H512 0.952 . S
C502 C499 1.388 . S
C502 C503 1.382 . S
C502 H527 0.950 . S
C503 N498 1.332 . S
C503 C502 1.382 . S
C503 H513 0.948 . S
N504 Co482 2.282 1_455 S
N504 C508 1.332 . S
N504 C509 1.332 . S
C505 C506 1.388 . S
C505 C509 1.382 . S
C505 H528 0.950 . S
C506 C505 1.388 . S
C506 C507 1.386 . S
C507 C506 1.386 . S
C507 C508 1.382 . S
C507 H529 0.950 . S
C508 N504 1.332 . S
C508 C507 1.382 . S
C508 H510 0.952 . S
C509 N504 1.332 . S
C509 C505 1.382 . S
C509 H511 0.948 1_455 S
H510 C508 0.952 . S
H511 C509 0.948 1_655 S
H512 C501 0.952 . S
H513 C503 0.948 . S
C514 C480 1.395 . S
C514 C484 1.391 . S
C515 C477 1.389 . S
C515 C497 1.392 1_455 S
C516 C487 1.392 . S
C516 C489 1.389 . S
C517 C492 1.395 . S
C517 C494 1.391 . S
H518 C478 0.951 . S
H519 C479 0.950 . S
H520 C485 0.949 . S
H521 C486 0.950 . S
H522 C490 0.951 . S
H523 C491 0.950 . S
H524 C495 0.949 . S
H525 C496 0.950 . S
H526 C500 0.950 . S
H527 C502 0.950 . S
H528 C505 0.950 . S
H529 C507 0.950 . S
C530 C531 1.443 . S
C530 N534 1.376 . S
C530 C568 1.389 . S
C531 C530 1.443 . S
C531 C532 1.340 . S
C531 H571 0.951 . S
C532 C531 1.340 . S
C532 C533 1.439 . S
C532 H572 0.950 . S
C533 C532 1.439 . S
C533 N534 1.374 . S
C533 C567 1.395 . S
N534 C530 1.376 . S
N534 C533 1.374 . S
N534 Co535 2.008 . S
Co535 N534 2.008 . S
Co535 N536 1.995 . S
Co535 N541 2.008 . S
Co535 N546 1.995 . S
Co535 N551 2.282 . S
Co535 N557 2.282 . S
N536 Co535 1.995 . S
N536 C537 1.376 . S
N536 C540 1.383 . S
C537 N536 1.376 . S
C537 C538 1.446 . S
C537 C567 1.391 . S
C538 C537 1.446 . S
C538 C539 1.339 . S
C538 H573 0.949 . S
C539 C538 1.339 . S
C539 C540 1.439 . S
C539 H574 0.950 . S
C540 N536 1.383 . S
C540 C539 1.439 . S
C540 C569 1.392 . S
N541 Co535 2.008 . S
N541 C542 1.376 . S
N541 C545 1.374 . S
C542 N541 1.376 . S
C542 C543 1.443 . S
C542 C569 1.389 . S
C543 C542 1.443 . S
C543 C544 1.340 . S
C543 H575 0.951 . S
C544 C543 1.340 . S
C544 C545 1.439 . S
C544 H576 0.950 . S
C545 N541 1.374 . S
C545 C544 1.439 . S
C545 C570 1.395 . S
N546 Co535 1.995 . S
N546 C547 1.376 . S
N546 C550 1.383 . S
C547 N546 1.376 . S
C547 C548 1.446 . S
C547 C570 1.391 . S
C548 C547 1.446 . S
C548 C549 1.339 . S
C548 H577 0.949 . S
C549 C548 1.339 . S
C549 C550 1.439 . S
C549 H578 0.950 . S
C550 N546 1.383 . S
C550 C549 1.439 . S
C550 C568 1.392 . S
N551 Co535 2.282 . S
N551 C554 1.332 . S
N551 C556 1.332 . S
C552 C553 1.386 . S
C552 C555 1.388 . S
C553 C552 1.386 . S
C553 C554 1.382 . S
C553 H579 0.950 . S
C554 N551 1.332 . S
C554 C553 1.382 . S
C554 H565 0.952 . S
C555 C552 1.388 . S
C555 C556 1.382 . S
C555 H580 0.950 . S
C556 N551 1.332 . S
C556 C555 1.382 . S
C556 H566 0.948 . S
N557 Co535 2.282 . S
N557 C561 1.332 . S
N557 C562 1.332 . S
C558 C559 1.388 . S
C558 C562 1.382 . S
C558 H581 0.950 . S
C559 C558 1.388 . S
C559 C560 1.386 . S
C560 C559 1.386 . S
C560 C561 1.382 . S
C560 H582 0.950 . S
C561 N557 1.332 . S
C561 C560 1.382 . S
C561 H563 0.952 . S
C562 N557 1.332 . S
C562 C558 1.382 . S
C562 H564 0.948 . S
H563 C561 0.952 . S
H564 C562 0.948 . S
H565 C554 0.952 . S
H566 C556 0.948 . S
C567 C533 1.395 . S
C567 C537 1.391 . S
C568 C530 1.389 . S
C568 C550 1.392 . S
C569 C540 1.392 . S
C569 C542 1.389 . S
C570 C545 1.395 . S
C570 C547 1.391 . S
H571 C531 0.951 . S
H572 C532 0.950 . S
H573 C538 0.949 . S
H574 C539 0.950 . S
H575 C543 0.951 . S
H576 C544 0.950 . S
H577 C548 0.949 . S
H578 C549 0.950 . S
H579 C553 0.950 . S
H580 C555 0.950 . S
H581 C558 0.950 . S
H582 C560 0.950 . S
C583 C584 1.443 . S
C583 N587 1.376 . S
C583 C621 1.389 . S
C584 C583 1.443 . S
C584 C585 1.340 . S
C584 H624 0.951 . S
C585 C584 1.340 . S
C585 C586 1.439 . S
C585 H625 0.950 . S
C586 C585 1.439 . S
C586 N587 1.374 . S
C586 C620 1.395 . S
N587 C583 1.376 . S
N587 C586 1.374 . S
N587 Co588 2.008 1_455 S
Co588 N587 2.008 1_655 S
Co588 N589 1.995 . S
Co588 N594 2.008 . S
Co588 N599 1.995 . S
Co588 N604 2.282 . S
Co588 N610 2.282 1_655 S
N589 Co588 1.995 . S
N589 C590 1.376 1_655 S
N589 C593 1.383 . S
C590 N589 1.376 1_455 S
C590 C591 1.446 . S
C590 C620 1.391 . S
C591 C590 1.446 . S
C591 C592 1.339 1_455 S
C591 H626 0.949 . S
C592 C591 1.339 1_655 S
C592 C593 1.439 . S
C592 H627 0.950 . S
C593 N589 1.383 . S
C593 C592 1.439 . S
C593 C622 1.392 . S
N594 Co588 2.008 . S
N594 C595 1.376 . S
N594 C598 1.374 . S
C595 N594 1.376 . S
C595 C596 1.443 . S
C595 C622 1.389 . S
C596 C595 1.443 . S
C596 C597 1.340 . S
C596 H628 0.951 . S
C597 C596 1.340 . S
C597 C598 1.439 . S
C597 H629 0.950 . S
C598 N594 1.374 . S
C598 C597 1.439 . S
C598 C623 1.395 . S
N599 Co588 1.995 . S
N599 C600 1.376 . S
N599 C603 1.383 . S
C600 N599 1.376 . S
C600 C601 1.446 . S
C600 C623 1.391 . S
C601 C600 1.446 . S
C601 C602 1.339 . S
C601 H630 0.949 . S
C602 C601 1.339 . S
C602 C603 1.439 . S
C602 H631 0.950 . S
C603 N599 1.383 . S
C603 C602 1.439 . S
C603 C621 1.392 1_655 S
N604 Co588 2.282 . S
N604 C607 1.332 . S
N604 C609 1.332 . S
C605 C606 1.386 . S
C605 C608 1.388 . S
C606 C605 1.386 . S
C606 C607 1.382 . S
C606 H632 0.950 . S
C607 N604 1.332 . S
C607 C606 1.382 . S
C607 H618 0.952 . S
C608 C605 1.388 . S
C608 C609 1.382 . S
C608 H633 0.950 . S
C609 N604 1.332 . S
C609 C608 1.382 . S
C609 H619 0.948 . S
N610 Co588 2.282 1_455 S
N610 C614 1.332 . S
N610 C615 1.332 . S
C611 C612 1.388 . S
C611 C615 1.382 . S
C611 H634 0.950 . S
C612 C611 1.388 . S
C612 C613 1.386 . S
C613 C612 1.386 . S
C613 C614 1.382 . S
C613 H635 0.950 . S
C614 N610 1.332 . S
C614 C613 1.382 . S
C614 H616 0.952 . S
C615 N610 1.332 . S
C615 C611 1.382 . S
C615 H617 0.948 1_455 S
H616 C614 0.952 . S
H617 C615 0.948 1_655 S
H618 C607 0.952 . S
H619 C609 0.948 . S
C620 C586 1.395 . S
C620 C590 1.391 . S
C621 C583 1.389 . S
C621 C603 1.392 1_455 S
C622 C593 1.392 . S
C622 C595 1.389 . S
C623 C598 1.395 . S
C623 C600 1.391 . S
H624 C584 0.951 . S
H625 C585 0.950 . S
H626 C591 0.949 . S
H627 C592 0.950 . S
H628 C596 0.951 . S
H629 C597 0.950 . S
H630 C601 0.949 . S
H631 C602 0.950 . S
H632 C606 0.950 . S
H633 C608 0.950 . S
H634 C611 0.950 . S
H635 C613 0.950 . S
C636 C637 1.443 . S
C636 N640 1.376 . S
C636 C674 1.389 . S
C637 C636 1.443 . S
C637 C638 1.340 . S
C637 H677 0.951 . S
C638 C637 1.340 . S
C638 C639 1.439 . S
C638 H678 0.950 . S
C639 C638 1.439 . S
C639 N640 1.374 . S
C639 C673 1.395 . S
N640 C636 1.376 . S
N640 C639 1.374 . S
N640 Co641 2.008 . S
Co641 N640 2.008 . S
Co641 N642 1.995 . S
Co641 N647 2.008 . S
Co641 N652 1.995 . S
Co641 N657 2.282 . S
Co641 N663 2.282 . S
N642 Co641 1.995 . S
N642 C643 1.376 . S
N642 C646 1.383 . S
C643 N642 1.376 . S
C643 C644 1.446 . S
C643 C673 1.391 . S
C644 C643 1.446 . S
C644 C645 1.339 . S
C644 H679 0.949 . S
C645 C644 1.339 . S
C645 C646 1.439 . S
C645 H680 0.950 . S
C646 N642 1.383 . S
C646 C645 1.439 . S
C646 C675 1.392 . S
N647 Co641 2.008 . S
N647 C648 1.376 . S
N647 C651 1.374 . S
C648 N647 1.376 . S
C648 C649 1.443 . S
C648 C675 1.389 . S
C649 C648 1.443 . S
C649 C650 1.340 . S
C649 H681 0.951 . S
C650 C649 1.340 . S
C650 C651 1.439 . S
C650 H682 0.950 . S
C651 N647 1.374 . S
C651 C650 1.439 . S
C651 C676 1.395 . S
N652 Co641 1.995 . S
N652 C653 1.376 . S
N652 C656 1.383 . S
C653 N652 1.376 . S
C653 C654 1.446 . S
C653 C676 1.391 . S
C654 C653 1.446 . S
C654 C655 1.339 . S
C654 H683 0.949 . S
C655 C654 1.339 . S
C655 C656 1.439 . S
C655 H684 0.950 . S
C656 N652 1.383 . S
C656 C655 1.439 . S
C656 C674 1.392 . S
N657 Co641 2.282 . S
N657 C660 1.332 . S
N657 C662 1.332 . S
C658 C659 1.386 . S
C658 C661 1.388 . S
C659 C658 1.386 . S
C659 C660 1.382 . S
C659 H685 0.950 . S
C660 N657 1.332 . S
C660 C659 1.382 . S
C660 H671 0.952 . S
C661 C658 1.388 . S
C661 C662 1.382 . S
C661 H686 0.950 . S
C662 N657 1.332 . S
C662 C661 1.382 . S
C662 H672 0.948 . S
N663 Co641 2.282 . S
N663 C667 1.332 . S
N663 C668 1.332 . S
C664 C665 1.388 . S
C664 C668 1.382 . S
C664 H687 0.950 . S
C665 C664 1.388 . S
C665 C666 1.386 . S
C666 C665 1.386 . S
C666 C667 1.382 . S
C666 H688 0.950 . S
C667 N663 1.332 . S
C667 C666 1.382 . S
C667 H669 0.952 . S
C668 N663 1.332 . S
C668 C664 1.382 . S
C668 H670 0.948 . S
H669 C667 0.952 . S
H670 C668 0.948 . S
H671 C660 0.952 . S
H672 C662 0.948 . S
C673 C639 1.395 . S
C673 C643 1.391 . S
C674 C636 1.389 . S
C674 C656 1.392 . S
C675 C646 1.392 . S
C675 C648 1.389 . S
C676 C651 1.395 . S
C676 C653 1.391 . S
H677 C637 0.951 . S
H678 C638 0.950 . S
H679 C644 0.949 . S
H680 C645 0.950 . S
H681 C649 0.951 . S
H682 C650 0.950 . S
H683 C654 0.949 . S
H684 C655 0.950 . S
H685 C659 0.950 . S
H686 C661 0.950 . S
H687 C664 0.950 . S
H688 C666 0.950 . S
C689 C690 1.443 . S
C689 N693 1.376 . S
C689 C727 1.389 1_455 S
C690 C689 1.443 . S
C690 C691 1.340 . S
C690 H730 0.951 . S
C691 C690 1.340 . S
C691 C692 1.439 . S
C691 H731 0.950 . S
C692 C691 1.439 . S
C692 N693 1.374 . S
C692 C726 1.395 . S
N693 C689 1.376 . S
N693 C692 1.374 . S
N693 Co694 2.008 . S
Co694 N693 2.008 . S
Co694 N695 1.995 . S
Co694 N700 2.008 . S
Co694 N705 1.995 1_455 S
Co694 N710 2.282 . S
Co694 N716 2.282 1_455 S
N695 Co694 1.995 . S
N695 C696 1.376 . S
N695 C699 1.383 . S
C696 N695 1.376 . S
C696 C697 1.446 . S
C696 C726 1.391 . S
C697 C696 1.446 . S
C697 C698 1.339 . S
C697 H732 0.949 . S
C698 C697 1.339 . S
C698 C699 1.439 . S
C698 H733 0.950 . S
C699 N695 1.383 . S
C699 C698 1.439 . S
C699 C728 1.392 . S
N700 Co694 2.008 . S
N700 C701 1.376 . S
N700 C704 1.374 1_455 S
C701 N700 1.376 . S
C701 C702 1.443 . S
C701 C728 1.389 . S
C702 C701 1.443 . S
C702 C703 1.340 1_455 S
C702 H734 0.951 . S
C703 C702 1.340 1_655 S
C703 C704 1.439 . S
C703 H735 0.950 . S
C704 N700 1.374 1_655 S
C704 C703 1.439 . S
C704 C729 1.395 . S
N705 Co694 1.995 1_655 S
N705 C706 1.376 . S
N705 C709 1.383 . S
C706 N705 1.376 . S
C706 C707 1.446 . S
C706 C729 1.391 . S
C707 C706 1.446 . S
C707 C708 1.339 . S
C707 H736 0.949 . S
C708 C707 1.339 . S
C708 C709 1.439 . S
C708 H737 0.950 . S
C709 N705 1.383 . S
C709 C708 1.439 . S
C709 C727 1.392 . S
N710 Co694 2.282 . S
N710 C713 1.332 . S
N710 C715 1.332 . S
C711 C712 1.386 . S
C711 C714 1.388 . S
C712 C711 1.386 . S
C712 C713 1.382 . S
C712 H738 0.950 . S
C713 N710 1.332 . S
C713 C712 1.382 . S
C713 H724 0.952 . S
C714 C711 1.388 . S
C714 C715 1.382 . S
C714 H739 0.950 . S
C715 N710 1.332 . S
C715 C714 1.382 . S
C715 H725 0.948 . S
N716 Co694 2.282 1_655 S
N716 C720 1.341 . S
N716 C721 1.332 . S
C717 C718 1.388 . S
C717 C721 1.382 . S
C717 H740 0.950 . S
C718 C717 1.388 . S
C718 C719 1.386 . S
C719 C718 1.386 . S
C719 C720 1.395 . S
C719 H741 0.950 . S
C720 N716 1.341 . S
C720 C719 1.395 . S
C720 H722 0.928 1_655 S
C721 N716 1.332 . S
C721 C717 1.382 . S
C721 H723 0.948 . S
H722 C720 0.928 1_455 S
H723 C721 0.948 . S
H724 C713 0.952 . S
H725 C715 0.948 . S
C726 C692 1.395 . S
C726 C696 1.391 . S
C727 C689 1.389 1_655 S
C727 C709 1.392 . S
C728 C699 1.392 . S
C728 C701 1.389 . S
C729 C704 1.395 . S
C729 C706 1.391 . S
H730 C690 0.951 . S
H731 C691 0.950 . S
H732 C697 0.949 . S
H733 C698 0.950 . S
H734 C702 0.951 . S
H735 C703 0.950 . S
H736 C707 0.949 . S
H737 C708 0.950 . S
H738 C712 0.950 . S
H739 C714 0.950 . S
H740 C717 0.950 . S
H741 C719 0.950 . S
C742 C743 1.443 . S
C742 N746 1.376 . S
C742 C780 1.389 . S
C743 C742 1.443 . S
C743 C744 1.340 . S
C743 H783 0.951 . S
C744 C743 1.340 . S
C744 C745 1.439 . S
C744 H784 0.950 . S
C745 C744 1.439 . S
C745 N746 1.374 . S
C745 C779 1.395 . S
N746 C742 1.376 . S
N746 C745 1.374 . S
N746 Co747 2.008 . S
Co747 N746 2.008 . S
Co747 N748 1.995 . S
Co747 N753 2.008 . S
Co747 N758 1.995 . S
Co747 N763 2.282 . S
Co747 N769 2.282 . S
N748 Co747 1.995 . S
N748 C749 1.376 . S
N748 C752 1.383 . S
C749 N748 1.376 . S
C749 C750 1.446 . S
C749 C779 1.391 . S
C750 C749 1.446 . S
C750 C751 1.339 . S
C750 H785 0.949 . S
C751 C750 1.339 . S
C751 C752 1.439 . S
C751 H786 0.950 . S
C752 N748 1.383 . S
C752 C751 1.439 . S
C752 C781 1.392 . S
N753 Co747 2.008 . S
N753 C754 1.376 . S
N753 C757 1.374 . S
C754 N753 1.376 . S
C754 C755 1.443 . S
C754 C781 1.389 . S
C755 C754 1.443 . S
C755 C756 1.340 . S
C755 H787 0.951 . S
C756 C755 1.340 . S
C756 C757 1.439 . S
C756 H788 0.950 . S
C757 N753 1.374 . S
C757 C756 1.439 . S
C757 C782 1.395 . S
N758 Co747 1.995 . S
N758 C759 1.376 . S
N758 C762 1.383 . S
C759 N758 1.376 . S
C759 C760 1.446 . S
C759 C782 1.391 . S
C760 C759 1.446 . S
C760 C761 1.339 . S
C760 H789 0.949 . S
C761 C760 1.339 . S
C761 C762 1.439 . S
C761 H790 0.950 . S
C762 N758 1.383 . S
C762 C761 1.439 . S
C762 C780 1.392 . S
N763 Co747 2.282 . S
N763 C766 1.332 . S
N763 C768 1.332 . S
C764 C765 1.386 . S
C764 C767 1.388 . S
C765 C764 1.386 . S
C765 C766 1.382 . S
C765 H791 0.950 . S
C766 N763 1.332 . S
C766 C765 1.382 . S
C766 H777 0.952 . S
C767 C764 1.388 . S
C767 C768 1.382 . S
C767 H792 0.950 . S
C768 N763 1.332 . S
C768 C767 1.382 . S
C768 H778 0.948 . S
N769 Co747 2.282 . S
N769 C773 1.332 . S
N769 C774 1.332 . S
C770 C771 1.388 . S
C770 C774 1.382 . S
C770 H793 0.950 . S
C771 C770 1.388 . S
C771 C772 1.386 . S
C772 C771 1.386 . S
C772 C773 1.382 . S
C772 H794 0.950 . S
C773 N769 1.332 . S
C773 C772 1.382 . S
C773 H775 0.952 . S
C774 N769 1.332 . S
C774 C770 1.382 . S
C774 H776 0.948 . S
H775 C773 0.952 . S
H776 C774 0.948 . S
H777 C766 0.952 . S
H778 C768 0.948 . S
C779 C745 1.395 . S
C779 C749 1.391 . S
C780 C742 1.389 . S
C780 C762 1.392 . S
C781 C752 1.392 . S
C781 C754 1.389 . S
C782 C757 1.395 . S
C782 C759 1.391 . S
H783 C743 0.951 . S
H784 C744 0.950 . S
H785 C750 0.949 . S
H786 C751 0.950 . S
H787 C755 0.951 . S
H788 C756 0.950 . S
H789 C760 0.949 . S
H790 C761 0.950 . S
H791 C765 0.950 . S
H792 C767 0.950 . S
H793 C770 0.950 . S
H794 C772 0.950 . S
C795 C796 1.443 . S
C795 N799 1.376 . S
C795 C833 1.389 1_455 S
C796 C795 1.443 . S
C796 C797 1.340 . S
C796 H836 0.951 . S
C797 C796 1.340 . S
C797 C798 1.439 . S
C797 H837 0.950 . S
C798 C797 1.439 . S
C798 N799 1.374 . S
C798 C832 1.395 . S
N799 C795 1.376 . S
N799 C798 1.374 . S
N799 Co800 2.008 . S
Co800 N799 2.008 . S
Co800 N801 1.995 . S
Co800 N806 2.008 . S
Co800 N811 1.995 1_455 S
Co800 N816 2.282 . S
Co800 N822 2.282 1_455 S
N801 Co800 1.995 . S
N801 C802 1.376 . S
N801 C805 1.383 . S
C802 N801 1.376 . S
C802 C803 1.446 . S
C802 C832 1.391 . S
C803 C802 1.446 . S
C803 C804 1.339 . S
C803 H838 0.949 . S
C804 C803 1.339 . S
C804 C805 1.439 . S
C804 H839 0.950 . S
C805 N801 1.383 . S
C805 C804 1.439 . S
C805 C834 1.392 . S
N806 Co800 2.008 . S
N806 C807 1.376 . S
N806 C810 1.374 1_455 S
C807 N806 1.376 . S
C807 C808 1.443 . S
C807 C834 1.389 . S
C808 C807 1.443 . S
C808 C809 1.340 1_455 S
C808 H840 0.951 . S
C809 C808 1.340 1_655 S
C809 C810 1.439 . S
C809 H841 0.950 . S
C810 N806 1.374 1_655 S
C810 C809 1.439 . S
C810 C835 1.395 . S
N811 Co800 1.995 1_655 S
N811 C812 1.376 . S
N811 C815 1.383 . S
C812 N811 1.376 . S
C812 C813 1.446 . S
C812 C835 1.391 . S
C813 C812 1.446 . S
C813 C814 1.339 . S
C813 H842 0.949 . S
C814 C813 1.339 . S
C814 C815 1.439 . S
C814 H843 0.950 . S
C815 N811 1.383 . S
C815 C814 1.439 . S
C815 C833 1.392 . S
N816 Co800 2.282 . S
N816 C819 1.332 . S
N816 C821 1.332 . S
C817 C818 1.386 . S
C817 C820 1.388 . S
C818 C817 1.386 . S
C818 C819 1.382 . S
C818 H844 0.950 . S
C819 N816 1.332 . S
C819 C818 1.382 . S
C819 H830 0.952 . S
C820 C817 1.388 . S
C820 C821 1.382 . S
C820 H845 0.950 . S
C821 N816 1.332 . S
C821 C820 1.382 . S
C821 H831 0.948 . S
N822 Co800 2.282 1_655 S
N822 C826 1.341 . S
N822 C827 1.332 . S
C823 C824 1.388 . S
C823 C827 1.382 . S
C823 H846 0.950 . S
C824 C823 1.388 . S
C824 C825 1.386 . S
C825 C824 1.386 . S
C825 C826 1.395 . S
C825 H847 0.950 . S
C826 N822 1.341 . S
C826 C825 1.395 . S
C826 H828 0.928 1_655 S
C827 N822 1.332 . S
C827 C823 1.382 . S
C827 H829 0.948 . S
H828 C826 0.928 1_455 S
H829 C827 0.948 . S
H830 C819 0.952 . S
H831 C821 0.948 . S
C832 C798 1.395 . S
C832 C802 1.391 . S
C833 C795 1.389 1_655 S
C833 C815 1.392 . S
C834 C805 1.392 . S
C834 C807 1.389 . S
C835 C810 1.395 . S
C835 C812 1.391 . S
H836 C796 0.951 . S
H837 C797 0.950 . S
H838 C803 0.949 . S
H839 C804 0.950 . S
H840 C808 0.951 . S
H841 C809 0.950 . S
H842 C813 0.949 . S
H843 C814 0.950 . S
H844 C818 0.950 . S
H845 C820 0.950 . S
H846 C823 0.950 . S
H847 C825 0.950 . S
C848 C849 1.443 . S
C848 N852 1.376 . S
C848 C886 1.389 . S
C849 C848 1.443 . S
C849 C850 1.340 . S
C849 H889 0.951 . S
C850 C849 1.340 . S
C850 C851 1.439 . S
C850 H890 0.950 . S
C851 C850 1.439 . S
C851 N852 1.374 . S
C851 C885 1.395 . S
N852 C848 1.376 . S
N852 C851 1.374 . S
N852 Co853 2.008 . S
Co853 N852 2.008 . S
Co853 N854 1.995 . S
Co853 N859 2.008 . S
Co853 N864 1.995 . S
Co853 N869 2.282 . S
Co853 N875 2.282 . S
N854 Co853 1.995 . S
N854 C855 1.376 . S
N854 C858 1.383 . S
C855 N854 1.376 . S
C855 C856 1.446 . S
C855 C885 1.391 . S
C856 C855 1.446 . S
C856 C857 1.339 . S
C856 H891 0.949 . S
C857 C856 1.339 . S
C857 C858 1.439 . S
C857 H892 0.950 . S
C858 N854 1.383 . S
C858 C857 1.439 . S
C858 C887 1.392 . S
N859 Co853 2.008 . S
N859 C860 1.376 . S
N859 C863 1.374 . S
C860 N859 1.376 . S
C860 C861 1.443 . S
C860 C887 1.389 . S
C861 C860 1.443 . S
C861 C862 1.340 . S
C861 H893 0.951 . S
C862 C861 1.340 . S
C862 C863 1.439 . S
C862 H894 0.950 . S
C863 N859 1.374 . S
C863 C862 1.439 . S
C863 C888 1.395 . S
N864 Co853 1.995 . S
N864 C865 1.376 . S
N864 C868 1.383 . S
C865 N864 1.376 . S
C865 C866 1.446 . S
C865 C888 1.391 . S
C866 C865 1.446 . S
C866 C867 1.339 . S
C866 H895 0.949 . S
C867 C866 1.339 . S
C867 C868 1.439 . S
C867 H896 0.950 . S
C868 N864 1.383 . S
C868 C867 1.439 . S
C868 C886 1.392 . S
N869 Co853 2.282 . S
N869 C872 1.332 . S
N869 C874 1.332 . S
C870 C871 1.386 . S
C870 C873 1.388 . S
C871 C870 1.386 . S
C871 C872 1.382 . S
C871 H897 0.950 . S
C872 N869 1.332 . S
C872 C871 1.382 . S
C872 H883 0.952 . S
C873 C870 1.388 . S
C873 C874 1.382 . S
C873 H898 0.950 . S
C874 N869 1.332 . S
C874 C873 1.382 . S
C874 H884 0.948 . S
N875 Co853 2.282 . S
N875 C879 1.332 . S
N875 C880 1.332 . S
C876 C877 1.388 . S
C876 C880 1.382 . S
C876 H899 0.950 . S
C877 C876 1.388 . S
C877 C878 1.386 . S
C878 C877 1.386 . S
C878 C879 1.382 . S
C878 H900 0.950 . S
C879 N875 1.332 . S
C879 C878 1.382 . S
C879 H881 0.952 . S
C880 N875 1.332 . S
C880 C876 1.382 . S
C880 H882 0.948 . S
H881 C879 0.952 . S
H882 C880 0.948 . S
H883 C872 0.952 . S
H884 C874 0.948 . S
C885 C851 1.395 . S
C885 C855 1.391 . S
C886 C848 1.389 . S
C886 C868 1.392 . S
C887 C858 1.392 . S
C887 C860 1.389 . S
C888 C863 1.395 . S
C888 C865 1.391 . S
H889 C849 0.951 . S
H890 C850 0.950 . S
H891 C856 0.949 . S
H892 C857 0.950 . S
H893 C861 0.951 . S
H894 C862 0.950 . S
H895 C866 0.949 . S
H896 C867 0.950 . S
H897 C871 0.950 . S
H898 C873 0.950 . S
H899 C876 0.950 . S
H900 C878 0.950 . S
C901 C902 1.443 . S
C901 N905 1.376 . S
C901 C939 1.389 . S
C902 C901 1.443 . S
C902 C903 1.340 . S
C902 H942 0.951 . S
C903 C902 1.340 . S
C903 C904 1.439 . S
C903 H943 0.950 . S
C904 C903 1.439 . S
C904 N905 1.374 . S
C904 C938 1.395 . S
N905 C901 1.376 . S
N905 C904 1.374 . S
N905 Co906 2.008 . S
Co906 N905 2.008 . S
Co906 N907 1.995 . S
Co906 N912 2.008 . S
Co906 N917 1.995 . S
Co906 N922 2.282 . S
Co906 N928 2.282 . S
N907 Co906 1.995 . S
N907 C908 1.376 . S
N907 C911 1.383 . S
C908 N907 1.376 . S
C908 C909 1.446 . S
C908 C938 1.391 . S
C909 C908 1.446 . S
C909 C910 1.339 . S
C909 H944 0.949 . S
C910 C909 1.339 . S
C910 C911 1.439 . S
C910 H945 0.950 . S
C911 N907 1.383 . S
C911 C910 1.439 . S
C911 C940 1.392 . S
N912 Co906 2.008 . S
N912 C913 1.376 . S
N912 C916 1.374 . S
C913 N912 1.376 . S
C913 C914 1.443 . S
C913 C940 1.389 . S
C914 C913 1.443 . S
C914 C915 1.340 . S
C914 H946 0.951 . S
C915 C914 1.340 . S
C915 C916 1.439 . S
C915 H947 0.950 . S
C916 N912 1.374 . S
C916 C915 1.439 . S
C916 C941 1.395 . S
N917 Co906 1.995 . S
N917 C918 1.376 . S
N917 C921 1.383 . S
C918 N917 1.376 . S
C918 C919 1.446 . S
C918 C941 1.391 . S
C919 C918 1.446 . S
C919 C920 1.339 . S
C919 H948 0.949 . S
C920 C919 1.339 . S
C920 C921 1.439 . S
C920 H949 0.950 . S
C921 N917 1.383 . S
C921 C920 1.439 . S
C921 C939 1.392 . S
N922 Co906 2.282 . S
N922 C925 1.332 . S
N922 C927 1.332 . S
C923 C924 1.386 . S
C923 C926 1.388 . S
C924 C923 1.386 . S
C924 C925 1.382 . S
C924 H950 0.950 . S
C925 N922 1.332 . S
C925 C924 1.382 . S
C925 H936 0.952 . S
C926 C923 1.388 . S
C926 C927 1.382 . S
C926 H951 0.950 . S
C927 N922 1.332 . S
C927 C926 1.382 . S
C927 H937 0.948 . S
N928 Co906 2.282 . S
N928 C932 1.332 . S
N928 C933 1.332 . S
C929 C930 1.388 . S
C929 C933 1.382 . S
C929 H952 0.950 . S
C930 C929 1.388 . S
C930 C931 1.386 . S
C931 C930 1.386 . S
C931 C932 1.382 . S
C931 H953 0.950 . S
C932 N928 1.332 . S
C932 C931 1.382 . S
C932 H934 0.952 . S
C933 N928 1.332 . S
C933 C929 1.382 . S
C933 H935 0.948 . S
H934 C932 0.952 . S
H935 C933 0.948 . S
H936 C925 0.952 . S
H937 C927 0.948 . S
C938 C904 1.395 . S
C938 C908 1.391 . S
C939 C901 1.389 . S
C939 C921 1.392 . S
C940 C911 1.392 . S
C940 C913 1.389 . S
C941 C916 1.395 . S
C941 C918 1.391 . S
H942 C902 0.951 . S
H943 C903 0.950 . S
H944 C909 0.949 . S
H945 C910 0.950 . S
H946 C914 0.951 . S
H947 C915 0.950 . S
H948 C919 0.949 . S
H949 C920 0.950 . S
H950 C924 0.950 . S
H951 C926 0.950 . S
H952 C929 0.950 . S
H953 C931 0.950 . S
C954 C955 1.443 . S
C954 N958 1.376 . S
C954 C992 1.389 . S
C955 C954 1.443 . S
C955 C956 1.340 . S
C955 H995 0.951 . S
C956 C955 1.340 . S
C956 C957 1.439 . S
C956 H996 0.950 . S
C957 C956 1.439 . S
C957 N958 1.374 . S
C957 C991 1.395 . S
N958 C954 1.376 . S
N958 C957 1.374 . S
N958 Co959 2.008 . S
Co959 N958 2.008 . S
Co959 N960 1.995 . S
Co959 N965 2.008 . S
Co959 N970 1.995 . S
Co959 N975 2.282 . S
Co959 N981 2.282 . S
N960 Co959 1.995 . S
N960 C961 1.376 . S
N960 C964 1.383 . S
C961 N960 1.376 . S
C961 C962 1.446 . S
C961 C991 1.391 . S
C962 C961 1.446 . S
C962 C963 1.339 . S
C962 H997 0.949 . S
C963 C962 1.339 . S
C963 C964 1.439 . S
C963 H998 0.950 . S
C964 N960 1.383 . S
C964 C963 1.439 . S
C964 C993 1.392 . S
N965 Co959 2.008 . S
N965 C966 1.376 . S
N965 C969 1.374 . S
C966 N965 1.376 . S
C966 C967 1.443 . S
C966 C993 1.389 . S
C967 C966 1.443 . S
C967 C968 1.340 . S
C967 H999 0.951 . S
C968 C967 1.340 . S
C968 C969 1.439 . S
C968 H1000 0.950 . S
C969 N965 1.374 . S
C969 C968 1.439 . S
C969 C994 1.395 . S
N970 Co959 1.995 . S
N970 C971 1.376 . S
N970 C974 1.383 . S
C971 N970 1.376 . S
C971 C972 1.446 . S
C971 C994 1.391 . S
C972 C971 1.446 . S
C972 C973 1.339 . S
C972 H1001 0.949 . S
C973 C972 1.339 . S
C973 C974 1.439 . S
C973 H1002 0.950 . S
C974 N970 1.383 . S
C974 C973 1.439 . S
C974 C992 1.392 . S
N975 Co959 2.282 . S
N975 C978 1.332 . S
N975 C980 1.332 . S
C976 C977 1.386 . S
C976 C979 1.388 . S
C977 C976 1.386 . S
C977 C978 1.382 . S
C977 H1003 0.950 . S
C978 N975 1.332 . S
C978 C977 1.382 . S
C978 H989 0.952 . S
C979 C976 1.388 . S
C979 C980 1.382 . S
C979 H1004 0.950 . S
C980 N975 1.332 . S
C980 C979 1.382 . S
C980 H990 0.948 . S
N981 Co959 2.282 . S
N981 C985 1.332 . S
N981 C986 1.332 . S
C982 C983 1.388 . S
C982 C986 1.382 . S
C982 H1005 0.950 . S
C983 C982 1.388 . S
C983 C984 1.386 . S
C984 C983 1.386 . S
C984 C985 1.382 . S
C984 H1006 0.950 . S
C985 N981 1.332 . S
C985 C984 1.382 . S
C985 H987 0.952 . S
C986 N981 1.332 . S
C986 C982 1.382 . S
C986 H988 0.948 . S
H987 C985 0.952 . S
H988 C986 0.948 . S
H989 C978 0.952 . S
H990 C980 0.948 . S
C991 C957 1.395 . S
C991 C961 1.391 . S
C992 C954 1.389 . S
C992 C974 1.392 . S
C993 C964 1.392 . S
C993 C966 1.389 . S
C994 C969 1.395 . S
C994 C971 1.391 . S
H995 C955 0.951 . S
H996 C956 0.950 . S
H997 C962 0.949 . S
H998 C963 0.950 . S
H999 C967 0.951 . S
H1000 C968 0.950 . S
H1001 C972 0.949 . S
H1002 C973 0.950 . S
H1003 C977 0.950 . S
H1004 C979 0.950 . S
H1005 C982 0.950 . S
H1006 C984 0.950 . S
C1007 C1008 1.443 . S
C1007 N1011 1.376 . S
C1007 C1045 1.389 . S
C1008 C1007 1.443 . S
C1008 C1009 1.340 . S
C1008 H1048 0.951 . S
C1009 C1008 1.340 . S
C1009 C1010 1.439 . S
C1009 H1049 0.950 . S
C1010 C1009 1.439 . S
C1010 N1011 1.374 . S
C1010 C1044 1.395 . S
N1011 C1007 1.376 . S
N1011 C1010 1.374 . S
N1011 Co1012 2.008 . S
Co1012 N1011 2.008 . S
Co1012 N1013 1.995 . S
Co1012 N1018 2.008 . S
Co1012 N1023 1.995 . S
Co1012 N1028 2.282 . S
Co1012 N1034 2.282 . S
N1013 Co1012 1.995 . S
N1013 C1014 1.376 . S
N1013 C1017 1.383 . S
C1014 N1013 1.376 . S
C1014 C1015 1.446 . S
C1014 C1044 1.391 . S
C1015 C1014 1.446 . S
C1015 C1016 1.339 . S
C1015 H1050 0.949 . S
C1016 C1015 1.339 . S
C1016 C1017 1.439 . S
C1016 H1051 0.950 . S
C1017 N1013 1.383 . S
C1017 C1016 1.439 . S
C1017 C1046 1.392 . S
N1018 Co1012 2.008 . S
N1018 C1019 1.376 . S
N1018 C1022 1.374 . S
C1019 N1018 1.376 . S
C1019 C1020 1.443 . S
C1019 C1046 1.389 . S
C1020 C1019 1.443 . S
C1020 C1021 1.340 . S
C1020 H1052 0.951 . S
C1021 C1020 1.340 . S
C1021 C1022 1.439 . S
C1021 H1053 0.950 . S
C1022 N1018 1.374 . S
C1022 C1021 1.439 . S
C1022 C1047 1.395 . S
N1023 Co1012 1.995 . S
N1023 C1024 1.376 . S
N1023 C1027 1.383 . S
C1024 N1023 1.376 . S
C1024 C1025 1.446 . S
C1024 C1047 1.391 . S
C1025 C1024 1.446 . S
C1025 C1026 1.339 . S
C1025 H1054 0.949 . S
C1026 C1025 1.339 . S
C1026 C1027 1.439 . S
C1026 H1055 0.950 . S
C1027 N1023 1.383 . S
C1027 C1026 1.439 . S
C1027 C1045 1.392 . S
N1028 Co1012 2.282 . S
N1028 C1031 1.332 . S
N1028 C1033 1.332 . S
C1029 C1030 1.386 . S
C1029 C1032 1.388 . S
C1030 C1029 1.386 . S
C1030 C1031 1.382 . S
C1030 H1056 0.950 . S
C1031 N1028 1.332 . S
C1031 C1030 1.382 . S
C1031 H1042 0.952 . S
C1032 C1029 1.388 . S
C1032 C1033 1.382 . S
C1032 H1057 0.950 . S
C1033 N1028 1.332 . S
C1033 C1032 1.382 . S
C1033 H1043 0.948 . S
N1034 Co1012 2.282 . S
N1034 C1038 1.332 . S
N1034 C1039 1.332 . S
C1035 C1036 1.388 . S
C1035 C1039 1.382 . S
C1035 H1058 0.950 . S
C1036 C1035 1.388 . S
C1036 C1037 1.386 . S
C1037 C1036 1.386 . S
C1037 C1038 1.382 . S
C1037 H1059 0.950 . S
C1038 N1034 1.332 . S
C1038 C1037 1.382 . S
C1038 H1040 0.952 . S
C1039 N1034 1.332 . S
C1039 C1035 1.382 . S
C1039 H1041 0.948 . S
H1040 C1038 0.952 . S
H1041 C1039 0.948 . S
H1042 C1031 0.952 . S
H1043 C1033 0.948 . S
C1044 C1010 1.395 . S
C1044 C1014 1.391 . S
C1045 C1007 1.389 . S
C1045 C1027 1.392 . S
C1046 C1017 1.392 . S
C1046 C1019 1.389 . S
C1047 C1022 1.395 . S
C1047 C1024 1.391 . S
H1048 C1008 0.951 . S
H1049 C1009 0.950 . S
H1050 C1015 0.949 . S
H1051 C1016 0.950 . S
H1052 C1020 0.951 . S
H1053 C1021 0.950 . S
H1054 C1025 0.949 . S
H1055 C1026 0.950 . S
H1056 C1030 0.950 . S
H1057 C1032 0.950 . S
H1058 C1035 0.950 . S
H1059 C1037 0.950 . S
C1060 C1061 1.443 . S
C1060 N1064 1.376 . S
C1060 C1098 1.389 . S
C1061 C1060 1.443 . S
C1061 C1062 1.340 . S
C1061 H1101 0.951 . S
C1062 C1061 1.340 . S
C1062 C1063 1.439 . S
C1062 H1102 0.950 . S
C1063 C1062 1.439 . S
C1063 N1064 1.374 . S
C1063 C1097 1.395 . S
N1064 C1060 1.376 . S
N1064 C1063 1.374 . S
N1064 Co1065 2.008 . S
Co1065 N1064 2.008 . S
Co1065 N1066 1.995 . S
Co1065 N1071 2.008 . S
Co1065 N1076 1.995 . S
Co1065 N1081 2.282 . S
Co1065 N1087 2.282 . S
N1066 Co1065 1.995 . S
N1066 C1067 1.376 . S
N1066 C1070 1.383 . S
C1067 N1066 1.376 . S
C1067 C1068 1.446 . S
C1067 C1097 1.391 . S
C1068 C1067 1.446 . S
C1068 C1069 1.339 . S
C1068 H1103 0.949 . S
C1069 C1068 1.339 . S
C1069 C1070 1.439 . S
C1069 H1104 0.950 . S
C1070 N1066 1.383 . S
C1070 C1069 1.439 . S
C1070 C1099 1.392 . S
N1071 Co1065 2.008 . S
N1071 C1072 1.376 . S
N1071 C1075 1.374 . S
C1072 N1071 1.376 . S
C1072 C1073 1.443 . S
C1072 C1099 1.389 . S
C1073 C1072 1.443 . S
C1073 C1074 1.340 . S
C1073 H1105 0.951 . S
C1074 C1073 1.340 . S
C1074 C1075 1.439 . S
C1074 H1106 0.950 . S
C1075 N1071 1.374 . S
C1075 C1074 1.439 . S
C1075 C1100 1.395 . S
N1076 Co1065 1.995 . S
N1076 C1077 1.376 . S
N1076 C1080 1.383 . S
C1077 N1076 1.376 . S
C1077 C1078 1.446 . S
C1077 C1100 1.391 . S
C1078 C1077 1.446 . S
C1078 C1079 1.339 . S
C1078 H1107 0.949 . S
C1079 C1078 1.339 . S
C1079 C1080 1.439 . S
C1079 H1108 0.950 . S
C1080 N1076 1.383 . S
C1080 C1079 1.439 . S
C1080 C1098 1.392 . S
N1081 Co1065 2.282 . S
N1081 C1084 1.332 . S
N1081 C1086 1.332 . S
C1082 C1083 1.386 . S
C1082 C1085 1.388 . S
C1083 C1082 1.386 . S
C1083 C1084 1.382 . S
C1083 H1109 0.950 . S
C1084 N1081 1.332 . S
C1084 C1083 1.382 . S
C1084 H1095 0.952 . S
C1085 C1082 1.388 . S
C1085 C1086 1.382 . S
C1085 H1110 0.950 . S
C1086 N1081 1.332 . S
C1086 C1085 1.382 . S
C1086 H1096 0.948 . S
N1087 Co1065 2.282 . S
N1087 C1091 1.332 . S
N1087 C1092 1.332 . S
C1088 C1089 1.388 . S
C1088 C1092 1.382 . S
C1088 H1111 0.950 . S
C1089 C1088 1.388 . S
C1089 C1090 1.386 . S
C1090 C1089 1.386 . S
C1090 C1091 1.382 . S
C1090 H1112 0.950 . S
C1091 N1087 1.332 . S
C1091 C1090 1.382 . S
C1091 H1093 0.952 . S
C1092 N1087 1.332 . S
C1092 C1088 1.382 . S
C1092 H1094 0.948 . S
H1093 C1091 0.952 . S
H1094 C1092 0.948 . S
H1095 C1084 0.952 . S
H1096 C1086 0.948 . S
C1097 C1063 1.395 . S
C1097 C1067 1.391 . S
C1098 C1060 1.389 . S
C1098 C1080 1.392 . S
C1099 C1070 1.392 . S
C1099 C1072 1.389 . S
C1100 C1075 1.395 . S
C1100 C1077 1.391 . S
H1101 C1061 0.951 . S
H1102 C1062 0.950 . S
H1103 C1068 0.949 . S
H1104 C1069 0.950 . S
H1105 C1073 0.951 . S
H1106 C1074 0.950 . S
H1107 C1078 0.949 . S
H1108 C1079 0.950 . S
H1109 C1083 0.950 . S
H1110 C1085 0.950 . S
H1111 C1088 0.950 . S
H1112 C1090 0.950 . S
C1113 C1114 1.443 . S
C1113 N1117 1.376 . S
C1113 C1151 1.389 . S
C1114 C1113 1.443 . S
C1114 C1115 1.340 . S
C1114 H1154 0.951 . S
C1115 C1114 1.340 . S
C1115 C1116 1.439 . S
C1115 H1155 0.950 . S
C1116 C1115 1.439 . S
C1116 N1117 1.374 . S
C1116 C1150 1.395 . S
N1117 C1113 1.376 . S
N1117 C1116 1.374 . S
N1117 Co1118 2.008 . S
Co1118 N1117 2.008 . S
Co1118 N1119 1.995 . S
Co1118 N1124 2.008 . S
Co1118 N1129 1.995 . S
Co1118 N1134 2.282 . S
Co1118 N1140 2.282 . S
N1119 Co1118 1.995 . S
N1119 C1120 1.376 . S
N1119 C1123 1.383 . S
C1120 N1119 1.376 . S
C1120 C1121 1.446 . S
C1120 C1150 1.391 . S
C1121 C1120 1.446 . S
C1121 C1122 1.339 . S
C1121 H1156 0.949 . S
C1122 C1121 1.339 . S
C1122 C1123 1.439 . S
C1122 H1157 0.950 . S
C1123 N1119 1.383 . S
C1123 C1122 1.439 . S
C1123 C1152 1.392 . S
N1124 Co1118 2.008 . S
N1124 C1125 1.376 . S
N1124 C1128 1.374 . S
C1125 N1124 1.376 . S
C1125 C1126 1.443 . S
C1125 C1152 1.389 . S
C1126 C1125 1.443 . S
C1126 C1127 1.340 . S
C1126 H1158 0.951 . S
C1127 C1126 1.340 . S
C1127 C1128 1.439 . S
C1127 H1159 0.950 . S
C1128 N1124 1.374 . S
C1128 C1127 1.439 . S
C1128 C1153 1.395 . S
N1129 Co1118 1.995 . S
N1129 C1130 1.376 . S
N1129 C1133 1.383 . S
C1130 N1129 1.376 . S
C1130 C1131 1.446 . S
C1130 C1153 1.391 . S
C1131 C1130 1.446 . S
C1131 C1132 1.339 . S
C1131 H1160 0.949 . S
C1132 C1131 1.339 . S
C1132 C1133 1.439 . S
C1132 H1161 0.950 . S
C1133 N1129 1.383 . S
C1133 C1132 1.439 . S
C1133 C1151 1.392 . S
N1134 Co1118 2.282 . S
N1134 C1137 1.332 . S
N1134 C1139 1.332 . S
C1135 C1136 1.386 . S
C1135 C1138 1.388 . S
C1136 C1135 1.386 . S
C1136 C1137 1.382 . S
C1136 H1162 0.950 . S
C1137 N1134 1.332 . S
C1137 C1136 1.382 . S
C1137 H1148 0.952 . S
C1138 C1135 1.388 . S
C1138 C1139 1.382 . S
C1138 H1163 0.950 . S
C1139 N1134 1.332 . S
C1139 C1138 1.382 . S
C1139 H1149 0.948 . S
N1140 Co1118 2.282 . S
N1140 C1144 1.332 . S
N1140 C1145 1.332 . S
C1141 C1142 1.388 . S
C1141 C1145 1.382 . S
C1141 H1164 0.950 . S
C1142 C1141 1.388 . S
C1142 C1143 1.386 . S
C1143 C1142 1.386 . S
C1143 C1144 1.382 . S
C1143 H1165 0.950 . S
C1144 N1140 1.332 . S
C1144 C1143 1.382 . S
C1144 H1146 0.952 . S
C1145 N1140 1.332 . S
C1145 C1141 1.382 . S
C1145 H1147 0.948 . S
H1146 C1144 0.952 . S
H1147 C1145 0.948 . S
H1148 C1137 0.952 . S
H1149 C1139 0.948 . S
C1150 C1116 1.395 . S
C1150 C1120 1.391 . S
C1151 C1113 1.389 . S
C1151 C1133 1.392 . S
C1152 C1123 1.392 . S
C1152 C1125 1.389 . S
C1153 C1128 1.395 . S
C1153 C1130 1.391 . S
H1154 C1114 0.951 . S
H1155 C1115 0.950 . S
H1156 C1121 0.949 . S
H1157 C1122 0.950 . S
H1158 C1126 0.951 . S
H1159 C1127 0.950 . S
H1160 C1131 0.949 . S
H1161 C1132 0.950 . S
H1162 C1136 0.950 . S
H1163 C1138 0.950 . S
H1164 C1141 0.950 . S
H1165 C1143 0.950 . S
C1166 C1167 1.443 . S
C1166 N1170 1.376 . S
C1166 C1204 1.389 . S
C1167 C1166 1.443 . S
C1167 C1168 1.340 . S
C1167 H1207 0.951 . S
C1168 C1167 1.340 . S
C1168 C1169 1.439 . S
C1168 H1208 0.950 . S
C1169 C1168 1.439 . S
C1169 N1170 1.374 . S
C1169 C1203 1.395 . S
N1170 C1166 1.376 . S
N1170 C1169 1.374 . S
N1170 Co1171 2.008 . S
Co1171 N1170 2.008 . S
Co1171 N1172 1.995 . S
Co1171 N1177 2.008 . S
Co1171 N1182 1.995 . S
Co1171 N1187 2.282 . S
Co1171 N1193 2.282 . S
N1172 Co1171 1.995 . S
N1172 C1173 1.376 . S
N1172 C1176 1.383 . S
C1173 N1172 1.376 . S
C1173 C1174 1.446 . S
C1173 C1203 1.391 . S
C1174 C1173 1.446 . S
C1174 C1175 1.339 . S
C1174 H1209 0.949 . S
C1175 C1174 1.339 . S
C1175 C1176 1.439 . S
C1175 H1210 0.950 . S
C1176 N1172 1.383 . S
C1176 C1175 1.439 . S
C1176 C1205 1.392 . S
N1177 Co1171 2.008 . S
N1177 C1178 1.376 . S
N1177 C1181 1.374 . S
C1178 N1177 1.376 . S
C1178 C1179 1.443 . S
C1178 C1205 1.389 . S
C1179 C1178 1.443 . S
C1179 C1180 1.340 . S
C1179 H1211 0.951 . S
C1180 C1179 1.340 . S
C1180 C1181 1.439 . S
C1180 H1212 0.950 . S
C1181 N1177 1.374 . S
C1181 C1180 1.439 . S
C1181 C1206 1.395 . S
N1182 Co1171 1.995 . S
N1182 C1183 1.376 . S
N1182 C1186 1.383 . S
C1183 N1182 1.376 . S
C1183 C1184 1.446 . S
C1183 C1206 1.391 . S
C1184 C1183 1.446 . S
C1184 C1185 1.339 . S
C1184 H1213 0.949 . S
C1185 C1184 1.339 . S
C1185 C1186 1.439 . S
C1185 H1214 0.950 . S
C1186 N1182 1.383 . S
C1186 C1185 1.439 . S
C1186 C1204 1.392 . S
N1187 Co1171 2.282 . S
N1187 C1190 1.332 . S
N1187 C1192 1.332 . S
C1188 C1189 1.386 . S
C1188 C1191 1.388 . S
C1189 C1188 1.386 . S
C1189 C1190 1.382 . S
C1189 H1215 0.950 . S
C1190 N1187 1.332 . S
C1190 C1189 1.382 . S
C1190 H1201 0.952 . S
C1191 C1188 1.388 . S
C1191 C1192 1.382 . S
C1191 H1216 0.950 . S
C1192 N1187 1.332 . S
C1192 C1191 1.382 . S
C1192 H1202 0.948 . S
N1193 Co1171 2.282 . S
N1193 C1197 1.332 . S
N1193 C1198 1.332 . S
C1194 C1195 1.388 . S
C1194 C1198 1.382 . S
C1194 H1217 0.950 . S
C1195 C1194 1.388 . S
C1195 C1196 1.386 . S
C1196 C1195 1.386 . S
C1196 C1197 1.382 . S
C1196 H1218 0.950 . S
C1197 N1193 1.332 . S
C1197 C1196 1.382 . S
C1197 H1199 0.952 . S
C1198 N1193 1.332 . S
C1198 C1194 1.382 . S
C1198 H1200 0.948 . S
H1199 C1197 0.952 . S
H1200 C1198 0.948 . S
H1201 C1190 0.952 . S
H1202 C1192 0.948 . S
C1203 C1169 1.395 . S
C1203 C1173 1.391 . S
C1204 C1166 1.389 . S
C1204 C1186 1.392 . S
C1205 C1176 1.392 . S
C1205 C1178 1.389 . S
C1206 C1181 1.395 . S
C1206 C1183 1.391 . S
H1207 C1167 0.951 . S
H1208 C1168 0.950 . S
H1209 C1174 0.949 . S
H1210 C1175 0.950 . S
H1211 C1179 0.951 . S
H1212 C1180 0.950 . S
H1213 C1184 0.949 . S
H1214 C1185 0.950 . S
H1215 C1189 0.950 . S
H1216 C1191 0.950 . S
H1217 C1194 0.950 . S
H1218 C1196 0.950 . S
C1219 C1220 1.443 . S
C1219 N1223 1.376 . S
C1219 C1257 1.389 . S
C1220 C1219 1.443 . S
C1220 C1221 1.340 . S
C1220 H1260 0.951 . S
C1221 C1220 1.340 . S
C1221 C1222 1.439 . S
C1221 H1261 0.950 . S
C1222 C1221 1.439 . S
C1222 N1223 1.374 . S
C1222 C1256 1.395 . S
N1223 C1219 1.376 . S
N1223 C1222 1.374 . S
N1223 Co1224 2.008 . S
Co1224 N1223 2.008 . S
Co1224 N1225 1.995 . S
Co1224 N1230 2.008 . S
Co1224 N1235 1.995 . S
Co1224 N1240 2.282 . S
Co1224 N1246 2.282 . S
N1225 Co1224 1.995 . S
N1225 C1226 1.376 . S
N1225 C1229 1.383 . S
C1226 N1225 1.376 . S
C1226 C1227 1.446 . S
C1226 C1256 1.391 . S
C1227 C1226 1.446 . S
C1227 C1228 1.339 . S
C1227 H1262 0.949 . S
C1228 C1227 1.339 . S
C1228 C1229 1.439 . S
C1228 H1263 0.950 . S
C1229 N1225 1.383 . S
C1229 C1228 1.439 . S
C1229 C1258 1.392 . S
N1230 Co1224 2.008 . S
N1230 C1231 1.376 . S
N1230 C1234 1.374 . S
C1231 N1230 1.376 . S
C1231 C1232 1.443 . S
C1231 C1258 1.389 . S
C1232 C1231 1.443 . S
C1232 C1233 1.340 . S
C1232 H1264 0.951 . S
C1233 C1232 1.340 . S
C1233 C1234 1.439 . S
C1233 H1265 0.950 . S
C1234 N1230 1.374 . S
C1234 C1233 1.439 . S
C1234 C1259 1.395 . S
N1235 Co1224 1.995 . S
N1235 C1236 1.376 . S
N1235 C1239 1.383 . S
C1236 N1235 1.376 . S
C1236 C1237 1.446 . S
C1236 C1259 1.391 . S
C1237 C1236 1.446 . S
C1237 C1238 1.339 . S
C1237 H1266 0.949 . S
C1238 C1237 1.339 . S
C1238 C1239 1.439 . S
C1238 H1267 0.950 . S
C1239 N1235 1.383 . S
C1239 C1238 1.439 . S
C1239 C1257 1.392 . S
N1240 Co1224 2.282 . S
N1240 C1243 1.332 . S
N1240 C1245 1.332 . S
C1241 C1242 1.386 . S
C1241 C1244 1.388 . S
C1242 C1241 1.386 . S
C1242 C1243 1.382 . S
C1242 H1268 0.950 . S
C1243 N1240 1.332 . S
C1243 C1242 1.382 . S
C1243 H1254 0.952 . S
C1244 C1241 1.388 . S
C1244 C1245 1.382 . S
C1244 H1269 0.950 . S
C1245 N1240 1.332 . S
C1245 C1244 1.382 . S
C1245 H1255 0.948 . S
N1246 Co1224 2.282 . S
N1246 C1250 1.332 . S
N1246 C1251 1.332 . S
C1247 C1248 1.388 . S
C1247 C1251 1.382 . S
C1247 H1270 0.950 . S
C1248 C1247 1.388 . S
C1248 C1249 1.386 . S
C1249 C1248 1.386 . S
C1249 C1250 1.382 . S
C1249 H1271 0.950 . S
C1250 N1246 1.332 . S
C1250 C1249 1.382 . S
C1250 H1252 0.952 . S
C1251 N1246 1.332 . S
C1251 C1247 1.382 . S
C1251 H1253 0.948 . S
H1252 C1250 0.952 . S
H1253 C1251 0.948 . S
H1254 C1243 0.952 . S
H1255 C1245 0.948 . S
C1256 C1222 1.395 . S
C1256 C1226 1.391 . S
C1257 C1219 1.389 . S
C1257 C1239 1.392 . S
C1258 C1229 1.392 . S
C1258 C1231 1.389 . S
C1259 C1234 1.395 . S
C1259 C1236 1.391 . S
H1260 C1220 0.951 . S
H1261 C1221 0.950 . S
H1262 C1227 0.949 . S
H1263 C1228 0.950 . S
H1264 C1232 0.951 . S
H1265 C1233 0.950 . S
H1266 C1237 0.949 . S
H1267 C1238 0.950 . S
H1268 C1242 0.950 . S
H1269 C1244 0.950 . S
H1270 C1247 0.950 . S
H1271 C1249 0.950 . S
C1272 C1273 1.443 . S
C1272 N1276 1.376 . S
C1272 C1310 1.389 . S
C1273 C1272 1.443 . S
C1273 C1274 1.340 . S
C1273 H1313 0.951 . S
C1274 C1273 1.340 . S
C1274 C1275 1.439 . S
C1274 H1314 0.950 . S
C1275 C1274 1.439 . S
C1275 N1276 1.374 . S
C1275 C1309 1.395 1_554 S
N1276 C1272 1.376 . S
N1276 C1275 1.374 . S
N1276 Co1277 2.008 . S
Co1277 N1276 2.008 . S
Co1277 N1278 1.995 1_554 S
Co1277 N1283 2.008 1_554 S
Co1277 N1288 1.995 . S
Co1277 N1293 2.282 . S
Co1277 N1299 2.282 . S
N1278 Co1277 1.995 1_556 S
N1278 C1279 1.376 . S
N1278 C1282 1.383 . S
C1279 N1278 1.376 . S
C1279 C1280 1.446 . S
C1279 C1309 1.391 . S
C1280 C1279 1.446 . S
C1280 C1281 1.339 . S
C1280 H1315 0.949 . S
C1281 C1280 1.339 . S
C1281 C1282 1.439 . S
C1281 H1316 0.950 . S
C1282 N1278 1.383 . S
C1282 C1281 1.439 . S
C1282 C1311 1.392 . S
N1283 Co1277 2.008 1_556 S
N1283 C1284 1.376 . S
N1283 C1287 1.374 1_556 S
C1284 N1283 1.376 . S
C1284 C1285 1.443 . S
C1284 C1311 1.389 . S
C1285 C1284 1.443 . S
C1285 C1286 1.340 . S
C1285 H1317 0.951 . S
C1286 C1285 1.340 . S
C1286 C1287 1.439 1_556 S
C1286 H1318 0.950 . S
C1287 N1283 1.374 1_554 S
C1287 C1286 1.439 1_554 S
C1287 C1312 1.395 . S
N1288 Co1277 1.995 . S
N1288 C1289 1.376 . S
N1288 C1292 1.383 . S
C1289 N1288 1.376 . S
C1289 C1290 1.446 . S
C1289 C1312 1.391 . S
C1290 C1289 1.446 . S
C1290 C1291 1.339 . S
C1290 H1319 0.949 . S
C1291 C1290 1.339 . S
C1291 C1292 1.439 . S
C1291 H1320 0.950 . S
C1292 N1288 1.383 . S
C1292 C1291 1.439 . S
C1292 C1310 1.392 . S
N1293 Co1277 2.282 . S
N1293 C1296 1.332 . S
N1293 C1298 1.332 1_554 S
C1294 C1295 1.386 . S
C1294 C1297 1.388 1_554 S
C1295 C1294 1.386 . S
C1295 C1296 1.382 . S
C1295 H1321 0.950 . S
C1296 N1293 1.332 . S
C1296 C1295 1.382 . S
C1296 H1307 0.952 . S
C1297 C1294 1.388 1_556 S
C1297 C1298 1.382 . S
C1297 H1322 0.950 . S
C1298 N1293 1.332 1_556 S
C1298 C1297 1.382 . S
C1298 H1308 0.948 . S
N1299 Co1277 2.282 . S
N1299 C1303 1.332 1_554 S
N1299 C1304 1.332 . S
C1300 C1301 1.388 . S
C1300 C1304 1.382 . S
C1300 H1323 0.950 . S
C1301 C1300 1.388 . S
C1301 C1302 1.386 1_554 S
C1302 C1301 1.386 1_556 S
C1302 C1303 1.382 . S
C1302 H1324 0.950 . S
C1303 N1299 1.332 1_556 S
C1303 C1302 1.382 . S
C1303 H1305 0.952 . S
C1304 N1299 1.332 . S
C1304 C1300 1.382 . S
C1304 H1306 0.948 . S
H1305 C1303 0.952 . S
H1306 C1304 0.948 . S
H1307 C1296 0.952 . S
H1308 C1298 0.948 . S
C1309 C1275 1.395 1_556 S
C1309 C1279 1.391 . S
C1310 C1272 1.389 . S
C1310 C1292 1.392 . S
C1311 C1282 1.392 . S
C1311 C1284 1.389 . S
C1312 C1287 1.395 . S
C1312 C1289 1.391 . S
H1313 C1273 0.951 . S
H1314 C1274 0.950 . S
H1315 C1280 0.949 . S
H1316 C1281 0.950 . S
H1317 C1285 0.951 . S
H1318 C1286 0.950 . S
H1319 C1290 0.949 . S
H1320 C1291 0.950 . S
H1321 C1295 0.950 . S
H1322 C1297 0.950 . S
H1323 C1300 0.950 . S
H1324 C1302 0.950 . S
C1325 C1326 1.443 . S
C1325 N1329 1.376 . S
C1325 C1363 1.389 . S
C1326 C1325 1.443 . S
C1326 C1327 1.340 . S
C1326 H1366 0.951 . S
C1327 C1326 1.340 . S
C1327 C1328 1.439 . S
C1327 H1367 0.950 . S
C1328 C1327 1.439 . S
C1328 N1329 1.374 . S
C1328 C1362 1.395 1_554 S
N1329 C1325 1.376 . S
N1329 C1328 1.374 . S
N1329 Co1330 2.008 . S
Co1330 N1329 2.008 . S
Co1330 N1331 1.995 1_554 S
Co1330 N1336 2.008 1_554 S
Co1330 N1341 1.995 . S
Co1330 N1346 2.282 . S
Co1330 N1352 2.282 . S
N1331 Co1330 1.995 1_556 S
N1331 C1332 1.376 . S
N1331 C1335 1.383 . S
C1332 N1331 1.376 . S
C1332 C1333 1.446 . S
C1332 C1362 1.391 . S
C1333 C1332 1.446 . S
C1333 C1334 1.339 . S
C1333 H1368 0.949 . S
C1334 C1333 1.339 . S
C1334 C1335 1.439 . S
C1334 H1369 0.950 . S
C1335 N1331 1.383 . S
C1335 C1334 1.439 . S
C1335 C1364 1.392 . S
N1336 Co1330 2.008 1_556 S
N1336 C1337 1.376 . S
N1336 C1340 1.374 1_556 S
C1337 N1336 1.376 . S
C1337 C1338 1.443 . S
C1337 C1364 1.389 . S
C1338 C1337 1.443 . S
C1338 C1339 1.340 . S
C1338 H1370 0.951 . S
C1339 C1338 1.340 . S
C1339 C1340 1.439 1_556 S
C1339 H1371 0.950 . S
C1340 N1336 1.374 1_554 S
C1340 C1339 1.439 1_554 S
C1340 C1365 1.395 . S
N1341 Co1330 1.995 . S
N1341 C1342 1.376 . S
N1341 C1345 1.383 . S
C1342 N1341 1.376 . S
C1342 C1343 1.446 . S
C1342 C1365 1.391 . S
C1343 C1342 1.446 . S
C1343 C1344 1.339 . S
C1343 H1372 0.949 . S
C1344 C1343 1.339 . S
C1344 C1345 1.439 . S
C1344 H1373 0.950 . S
C1345 N1341 1.383 . S
C1345 C1344 1.439 . S
C1345 C1363 1.392 . S
N1346 Co1330 2.282 . S
N1346 C1349 1.332 . S
N1346 C1351 1.332 1_554 S
C1347 C1348 1.386 . S
C1347 C1350 1.388 1_554 S
C1348 C1347 1.386 . S
C1348 C1349 1.382 . S
C1348 H1374 0.950 . S
C1349 N1346 1.332 . S
C1349 C1348 1.382 . S
C1349 H1360 0.952 . S
C1350 C1347 1.388 1_556 S
C1350 C1351 1.382 . S
C1350 H1375 0.950 . S
C1351 N1346 1.332 1_556 S
C1351 C1350 1.382 . S
C1351 H1361 0.948 . S
N1352 Co1330 2.282 . S
N1352 C1356 1.332 1_554 S
N1352 C1357 1.332 . S
C1353 C1354 1.388 . S
C1353 C1357 1.382 . S
C1353 H1376 0.950 . S
C1354 C1353 1.388 . S
C1354 C1355 1.386 1_554 S
C1355 C1354 1.386 1_556 S
C1355 C1356 1.382 . S
C1355 H1377 0.950 . S
C1356 N1352 1.332 1_556 S
C1356 C1355 1.382 . S
C1356 H1358 0.952 . S
C1357 N1352 1.332 . S
C1357 C1353 1.382 . S
C1357 H1359 0.948 . S
H1358 C1356 0.952 . S
H1359 C1357 0.948 . S
H1360 C1349 0.952 . S
H1361 C1351 0.948 . S
C1362 C1328 1.395 1_556 S
C1362 C1332 1.391 . S
C1363 C1325 1.389 . S
C1363 C1345 1.392 . S
C1364 C1335 1.392 . S
C1364 C1337 1.389 . S
C1365 C1340 1.395 . S
C1365 C1342 1.391 . S
H1366 C1326 0.951 . S
H1367 C1327 0.950 . S
H1368 C1333 0.949 . S
H1369 C1334 0.950 . S
H1370 C1338 0.951 . S
H1371 C1339 0.950 . S
H1372 C1343 0.949 . S
H1373 C1344 0.950 . S
H1374 C1348 0.950 . S
H1375 C1350 0.950 . S
H1376 C1353 0.950 . S
H1377 C1355 0.950 . S
C1378 C1379 1.443 . S
C1378 N1382 1.376 . S
C1378 C1416 1.389 . S
C1379 C1378 1.443 . S
C1379 C1380 1.340 . S
C1379 H1419 0.951 . S
C1380 C1379 1.340 . S
C1380 C1381 1.439 . S
C1380 H1420 0.950 . S
C1381 C1380 1.439 . S
C1381 N1382 1.374 . S
C1381 C1415 1.395 . S
N1382 C1378 1.376 . S
N1382 C1381 1.374 . S
N1382 Co1383 2.008 . S
Co1383 N1382 2.008 . S
Co1383 N1384 1.995 . S
Co1383 N1389 2.008 . S
Co1383 N1394 1.995 . S
Co1383 N1399 2.282 . S
Co1383 N1405 2.282 . S
N1384 Co1383 1.995 . S
N1384 C1385 1.376 . S
N1384 C1388 1.383 . S
C1385 N1384 1.376 . S
C1385 C1386 1.446 . S
C1385 C1415 1.391 . S
C1386 C1385 1.446 . S
C1386 C1387 1.339 . S
C1386 H1421 0.949 . S
C1387 C1386 1.339 . S
C1387 C1388 1.439 . S
C1387 H1422 0.950 . S
C1388 N1384 1.383 . S
C1388 C1387 1.439 . S
C1388 C1417 1.392 . S
N1389 Co1383 2.008 . S
N1389 C1390 1.376 . S
N1389 C1393 1.374 . S
C1390 N1389 1.376 . S
C1390 C1391 1.443 . S
C1390 C1417 1.389 . S
C1391 C1390 1.443 . S
C1391 C1392 1.340 . S
C1391 H1423 0.951 . S
C1392 C1391 1.340 . S
C1392 C1393 1.439 . S
C1392 H1424 0.950 . S
C1393 N1389 1.374 . S
C1393 C1392 1.439 . S
C1393 C1418 1.395 . S
N1394 Co1383 1.995 . S
N1394 C1395 1.376 . S
N1394 C1398 1.383 . S
C1395 N1394 1.376 . S
C1395 C1396 1.446 . S
C1395 C1418 1.391 . S
C1396 C1395 1.446 . S
C1396 C1397 1.339 . S
C1396 H1425 0.949 . S
C1397 C1396 1.339 . S
C1397 C1398 1.439 . S
C1397 H1426 0.950 . S
C1398 N1394 1.383 . S
C1398 C1397 1.439 . S
C1398 C1416 1.392 . S
N1399 Co1383 2.282 . S
N1399 C1402 1.332 . S
N1399 C1404 1.332 . S
C1400 C1401 1.386 . S
C1400 C1403 1.388 . S
C1401 C1400 1.386 . S
C1401 C1402 1.382 . S
C1401 H1427 0.950 . S
C1402 N1399 1.332 . S
C1402 C1401 1.382 . S
C1402 H1413 0.952 . S
C1403 C1400 1.388 . S
C1403 C1404 1.382 . S
C1403 H1428 0.950 . S
C1404 N1399 1.332 . S
C1404 C1403 1.382 . S
C1404 H1414 0.948 . S
N1405 Co1383 2.282 . S
N1405 C1409 1.332 . S
N1405 C1410 1.332 . S
C1406 C1407 1.388 . S
C1406 C1410 1.382 . S
C1406 H1429 0.950 . S
C1407 C1406 1.388 . S
C1407 C1408 1.386 . S
C1408 C1407 1.386 . S
C1408 C1409 1.382 . S
C1408 H1430 0.950 . S
C1409 N1405 1.332 . S
C1409 C1408 1.382 . S
C1409 H1411 0.952 . S
C1410 N1405 1.332 . S
C1410 C1406 1.382 . S
C1410 H1412 0.948 . S
H1411 C1409 0.952 . S
H1412 C1410 0.948 . S
H1413 C1402 0.952 . S
H1414 C1404 0.948 . S
C1415 C1381 1.395 . S
C1415 C1385 1.391 . S
C1416 C1378 1.389 . S
C1416 C1398 1.392 . S
C1417 C1388 1.392 . S
C1417 C1390 1.389 . S
C1418 C1393 1.395 . S
C1418 C1395 1.391 . S
H1419 C1379 0.951 . S
H1420 C1380 0.950 . S
H1421 C1386 0.949 . S
H1422 C1387 0.950 . S
H1423 C1391 0.951 . S
H1424 C1392 0.950 . S
H1425 C1396 0.949 . S
H1426 C1397 0.950 . S
H1427 C1401 0.950 . S
H1428 C1403 0.950 . S
H1429 C1406 0.950 . S
H1430 C1408 0.950 . S
C1431 C1432 1.443 . S
C1431 N1435 1.376 . S
C1431 C1469 1.389 . S
C1432 C1431 1.443 . S
C1432 C1433 1.340 . S
C1432 H1472 0.951 . S
C1433 C1432 1.340 . S
C1433 C1434 1.439 . S
C1433 H1473 0.950 . S
C1434 C1433 1.439 . S
C1434 N1435 1.374 . S
C1434 C1468 1.395 . S
N1435 C1431 1.376 . S
N1435 C1434 1.374 . S
N1435 Co1436 2.008 . S
Co1436 N1435 2.008 . S
Co1436 N1437 1.995 . S
Co1436 N1442 2.008 . S
Co1436 N1447 1.995 . S
Co1436 N1452 2.282 . S
Co1436 N1458 2.282 . S
N1437 Co1436 1.995 . S
N1437 C1438 1.376 . S
N1437 C1441 1.383 . S
C1438 N1437 1.376 . S
C1438 C1439 1.446 . S
C1438 C1468 1.391 . S
C1439 C1438 1.446 . S
C1439 C1440 1.339 . S
C1439 H1474 0.949 . S
C1440 C1439 1.339 . S
C1440 C1441 1.439 . S
C1440 H1475 0.950 . S
C1441 N1437 1.383 . S
C1441 C1440 1.439 . S
C1441 C1470 1.392 . S
N1442 Co1436 2.008 . S
N1442 C1443 1.376 . S
N1442 C1446 1.374 . S
C1443 N1442 1.376 . S
C1443 C1444 1.443 . S
C1443 C1470 1.389 . S
C1444 C1443 1.443 . S
C1444 C1445 1.340 . S
C1444 H1476 0.951 . S
C1445 C1444 1.340 . S
C1445 C1446 1.439 . S
C1445 H1477 0.950 . S
C1446 N1442 1.374 . S
C1446 C1445 1.439 . S
C1446 C1471 1.395 . S
N1447 Co1436 1.995 . S
N1447 C1448 1.376 . S
N1447 C1451 1.383 . S
C1448 N1447 1.376 . S
C1448 C1449 1.446 . S
C1448 C1471 1.391 . S
C1449 C1448 1.446 . S
C1449 C1450 1.339 . S
C1449 H1478 0.949 . S
C1450 C1449 1.339 . S
C1450 C1451 1.439 . S
C1450 H1479 0.950 . S
C1451 N1447 1.383 . S
C1451 C1450 1.439 . S
C1451 C1469 1.392 . S
N1452 Co1436 2.282 . S
N1452 C1455 1.332 . S
N1452 C1457 1.332 . S
C1453 C1454 1.386 . S
C1453 C1456 1.388 . S
C1454 C1453 1.386 . S
C1454 C1455 1.382 . S
C1454 H1480 0.950 . S
C1455 N1452 1.332 . S
C1455 C1454 1.382 . S
C1455 H1466 0.952 . S
C1456 C1453 1.388 . S
C1456 C1457 1.382 . S
C1456 H1481 0.950 . S
C1457 N1452 1.332 . S
C1457 C1456 1.382 . S
C1457 H1467 0.948 . S
N1458 Co1436 2.282 . S
N1458 C1462 1.332 . S
N1458 C1463 1.332 . S
C1459 C1460 1.388 . S
C1459 C1463 1.382 . S
C1459 H1482 0.950 . S
C1460 C1459 1.388 . S
C1460 C1461 1.386 . S
C1461 C1460 1.386 . S
C1461 C1462 1.382 . S
C1461 H1483 0.950 . S
C1462 N1458 1.332 . S
C1462 C1461 1.382 . S
C1462 H1464 0.952 . S
C1463 N1458 1.332 . S
C1463 C1459 1.382 . S
C1463 H1465 0.948 . S
H1464 C1462 0.952 . S
H1465 C1463 0.948 . S
H1466 C1455 0.952 . S
H1467 C1457 0.948 . S
C1468 C1434 1.395 . S
C1468 C1438 1.391 . S
C1469 C1431 1.389 . S
C1469 C1451 1.392 . S
C1470 C1441 1.392 . S
C1470 C1443 1.389 . S
C1471 C1446 1.395 . S
C1471 C1448 1.391 . S
H1472 C1432 0.951 . S
H1473 C1433 0.950 . S
H1474 C1439 0.949 . S
H1475 C1440 0.950 . S
H1476 C1444 0.951 . S
H1477 C1445 0.950 . S
H1478 C1449 0.949 . S
H1479 C1450 0.950 . S
H1480 C1454 0.950 . S
H1481 C1456 0.950 . S
H1482 C1459 0.950 . S
H1483 C1461 0.950 . S
C1484 C1485 1.443 . S
C1484 N1488 1.376 . S
C1484 C1522 1.389 . S
C1485 C1484 1.443 . S
C1485 C1486 1.340 . S
C1485 H1525 0.951 . S
C1486 C1485 1.340 . S
C1486 C1487 1.439 . S
C1486 H1526 0.950 . S
C1487 C1486 1.439 . S
C1487 N1488 1.374 . S
C1487 C1521 1.395 . S
N1488 C1484 1.376 . S
N1488 C1487 1.374 . S
N1488 Co1489 2.008 . S
Co1489 N1488 2.008 . S
Co1489 N1490 1.995 1_556 S
Co1489 N1495 2.008 1_556 S
Co1489 N1500 1.995 . S
Co1489 N1505 2.282 . S
Co1489 N1511 2.288 . S
N1490 Co1489 1.995 1_554 S
N1490 C1491 1.376 1_554 S
N1490 C1494 1.383 . S
C1491 N1490 1.376 1_556 S
C1491 C1492 1.446 1_556 S
C1491 C1521 1.391 . S
C1492 C1491 1.446 1_554 S
C1492 C1493 1.339 . S
C1492 H1527 0.949 . S
C1493 C1492 1.339 . S
C1493 C1494 1.439 . S
C1493 H1528 0.950 . S
C1494 N1490 1.383 . S
C1494 C1493 1.439 . S
C1494 C1523 1.392 . S
N1495 Co1489 2.008 1_554 S
N1495 C1496 1.376 . S
N1495 C1499 1.374 . S
C1496 N1495 1.376 . S
C1496 C1497 1.443 . S
C1496 C1523 1.389 . S
C1497 C1496 1.443 . S
C1497 C1498 1.340 . S
C1497 H1529 0.951 . S
C1498 C1497 1.340 . S
C1498 C1499 1.439 . S
C1498 H1530 0.950 . S
C1499 N1495 1.374 . S
C1499 C1498 1.439 . S
C1499 C1524 1.395 . S
N1500 Co1489 1.995 . S
N1500 C1501 1.376 . S
N1500 C1504 1.383 . S
C1501 N1500 1.376 . S
C1501 C1502 1.446 . S
C1501 C1524 1.391 1_556 S
C1502 C1501 1.446 . S
C1502 C1503 1.339 . S
C1502 H1531 0.949 . S
C1503 C1502 1.339 . S
C1503 C1504 1.439 . S
C1503 H1532 0.950 . S
C1504 N1500 1.383 . S
C1504 C1503 1.439 . S
C1504 C1522 1.392 . S
N1505 Co1489 2.282 . S
N1505 C1508 1.332 . S
N1505 C1510 1.332 . S
C1506 C1507 1.386 . S
C1506 C1509 1.388 . S
C1507 C1506 1.386 . S
C1507 C1508 1.382 . S
C1507 H1533 0.947 1_556 S
C1508 N1505 1.332 . S
C1508 C1507 1.382 . S
C1508 H1519 0.952 . S
C1509 C1506 1.388 . S
C1509 C1510 1.382 . S
C1509 H1534 0.950 . S
C1510 N1505 1.332 . S
C1510 C1509 1.382 . S
C1510 H1520 0.948 . S
N1511 Co1489 2.288 . S
N1511 C1515 1.341 . S
N1511 C1516 1.331 . S
C1512 C1513 1.388 . S
C1512 C1516 1.382 . S
C1512 H1535 0.950 . S
C1513 C1512 1.388 . S
C1513 C1514 1.386 . S
C1514 C1513 1.386 . S
C1514 C1515 1.382 . S
C1514 H1536 0.950 . S
C1515 N1511 1.341 . S
C1515 C1514 1.382 . S
C1515 H1517 0.952 . S
C1516 N1511 1.331 . S
C1516 C1512 1.382 . S
C1516 H1518 0.948 1_556 S
H1517 C1515 0.952 . S
H1518 C1516 0.948 1_554 S
H1519 C1508 0.952 . S
H1520 C1510 0.948 . S
C1521 C1487 1.395 . S
C1521 C1491 1.391 . S
C1522 C1484 1.389 . S
C1522 C1504 1.392 . S
C1523 C1494 1.392 . S
C1523 C1496 1.389 . S
C1524 C1499 1.395 . S
C1524 C1501 1.391 1_554 S
H1525 C1485 0.951 . S
H1526 C1486 0.950 . S
H1527 C1492 0.949 . S
H1528 C1493 0.950 . S
H1529 C1497 0.951 . S
H1530 C1498 0.950 . S
H1531 C1502 0.949 . S
H1532 C1503 0.950 . S
H1533 C1507 0.947 1_554 S
H1534 C1509 0.950 . S
H1535 C1512 0.950 . S
H1536 C1514 0.950 . S
C1537 C1538 1.443 . S
C1537 N1541 1.376 . S
C1537 C1575 1.389 . S
C1538 C1537 1.443 . S
C1538 C1539 1.340 . S
C1538 H1578 0.951 . S
C1539 C1538 1.340 . S
C1539 C1540 1.439 . S
C1539 H1579 0.950 . S
C1540 C1539 1.439 . S
C1540 N1541 1.374 . S
C1540 C1574 1.395 . S
N1541 C1537 1.376 . S
N1541 C1540 1.374 . S
N1541 Co1542 2.008 . S
Co1542 N1541 2.008 . S
Co1542 N1543 1.995 1_556 S
Co1542 N1548 2.008 1_556 S
Co1542 N1553 1.995 . S
Co1542 N1558 2.282 . S
Co1542 N1564 2.288 . S
N1543 Co1542 1.995 1_554 S
N1543 C1544 1.376 1_554 S
N1543 C1547 1.383 . S
C1544 N1543 1.376 1_556 S
C1544 C1545 1.446 1_556 S
C1544 C1574 1.391 . S
C1545 C1544 1.446 1_554 S
C1545 C1546 1.339 . S
C1545 H1580 0.949 . S
C1546 C1545 1.339 . S
C1546 C1547 1.439 . S
C1546 H1581 0.950 . S
C1547 N1543 1.383 . S
C1547 C1546 1.439 . S
C1547 C1576 1.392 . S
N1548 Co1542 2.008 1_554 S
N1548 C1549 1.376 . S
N1548 C1552 1.374 . S
C1549 N1548 1.376 . S
C1549 C1550 1.443 . S
C1549 C1576 1.389 . S
C1550 C1549 1.443 . S
C1550 C1551 1.340 . S
C1550 H1582 0.951 . S
C1551 C1550 1.340 . S
C1551 C1552 1.439 . S
C1551 H1583 0.950 . S
C1552 N1548 1.374 . S
C1552 C1551 1.439 . S
C1552 C1577 1.395 . S
N1553 Co1542 1.995 . S
N1553 C1554 1.376 . S
N1553 C1557 1.383 . S
C1554 N1553 1.376 . S
C1554 C1555 1.446 . S
C1554 C1577 1.391 1_556 S
C1555 C1554 1.446 . S
C1555 C1556 1.339 . S
C1555 H1584 0.949 . S
C1556 C1555 1.339 . S
C1556 C1557 1.439 . S
C1556 H1585 0.950 . S
C1557 N1553 1.383 . S
C1557 C1556 1.439 . S
C1557 C1575 1.392 . S
N1558 Co1542 2.282 . S
N1558 C1561 1.332 . S
N1558 C1563 1.332 . S
C1559 C1560 1.386 . S
C1559 C1562 1.388 . S
C1560 C1559 1.386 . S
C1560 C1561 1.382 . S
C1560 H1586 0.946 1_556 S
C1561 N1558 1.332 . S
C1561 C1560 1.382 . S
C1561 H1572 0.952 . S
C1562 C1559 1.388 . S
C1562 C1563 1.382 . S
C1562 H1587 0.950 . S
C1563 N1558 1.332 . S
C1563 C1562 1.382 . S
C1563 H1573 0.948 . S
N1564 Co1542 2.288 . S
N1564 C1568 1.341 . S
N1564 C1569 1.331 . S
C1565 C1566 1.388 . S
C1565 C1569 1.382 . S
C1565 H1588 0.950 . S
C1566 C1565 1.388 . S
C1566 C1567 1.386 . S
C1567 C1566 1.386 . S
C1567 C1568 1.382 . S
C1567 H1589 0.950 . S
C1568 N1564 1.341 . S
C1568 C1567 1.382 . S
C1568 H1570 0.952 . S
C1569 N1564 1.331 . S
C1569 C1565 1.382 . S
C1569 H1571 0.948 1_556 S
H1570 C1568 0.952 . S
H1571 C1569 0.948 1_554 S
H1572 C1561 0.952 . S
H1573 C1563 0.948 . S
C1574 C1540 1.395 . S
C1574 C1544 1.391 . S
C1575 C1537 1.389 . S
C1575 C1557 1.392 . S
C1576 C1547 1.392 . S
C1576 C1549 1.389 . S
C1577 C1552 1.395 . S
C1577 C1554 1.391 1_554 S
H1578 C1538 0.951 . S
H1579 C1539 0.950 . S
H1580 C1545 0.949 . S
H1581 C1546 0.950 . S
H1582 C1550 0.951 . S
H1583 C1551 0.950 . S
H1584 C1555 0.949 . S
H1585 C1556 0.950 . S
H1586 C1560 0.946 1_554 S
H1587 C1562 0.950 . S
H1588 C1565 0.950 . S
H1589 C1567 0.950 . S
C1590 C1591 1.443 . S
C1590 N1594 1.376 . S
C1590 C1628 1.389 . S
C1591 C1590 1.443 . S
C1591 C1592 1.340 . S
C1591 H1631 0.951 . S
C1592 C1591 1.340 . S
C1592 C1593 1.439 . S
C1592 H1632 0.950 . S
C1593 C1592 1.439 . S
C1593 N1594 1.374 . S
C1593 C1627 1.395 . S
N1594 C1590 1.376 . S
N1594 C1593 1.374 . S
N1594 Co1595 2.008 . S
Co1595 N1594 2.008 . S
Co1595 N1596 1.995 . S
Co1595 N1601 2.008 . S
Co1595 N1606 1.995 . S
Co1595 N1611 2.282 . S
Co1595 N1617 2.282 . S
N1596 Co1595 1.995 . S
N1596 C1597 1.376 . S
N1596 C1600 1.383 . S
C1597 N1596 1.376 . S
C1597 C1598 1.446 . S
C1597 C1627 1.391 . S
C1598 C1597 1.446 . S
C1598 C1599 1.339 . S
C1598 H1633 0.949 . S
C1599 C1598 1.339 . S
C1599 C1600 1.439 . S
C1599 H1634 0.950 . S
C1600 N1596 1.383 . S
C1600 C1599 1.439 . S
C1600 C1629 1.392 . S
N1601 Co1595 2.008 . S
N1601 C1602 1.376 . S
N1601 C1605 1.374 . S
C1602 N1601 1.376 . S
C1602 C1603 1.443 . S
C1602 C1629 1.389 . S
C1603 C1602 1.443 . S
C1603 C1604 1.340 . S
C1603 H1635 0.951 . S
C1604 C1603 1.340 . S
C1604 C1605 1.439 . S
C1604 H1636 0.950 . S
C1605 N1601 1.374 . S
C1605 C1604 1.439 . S
C1605 C1630 1.395 . S
N1606 Co1595 1.995 . S
N1606 C1607 1.376 . S
N1606 C1610 1.383 . S
C1607 N1606 1.376 . S
C1607 C1608 1.446 . S
C1607 C1630 1.391 . S
C1608 C1607 1.446 . S
C1608 C1609 1.339 . S
C1608 H1637 0.949 . S
C1609 C1608 1.339 . S
C1609 C1610 1.439 . S
C1609 H1638 0.950 . S
C1610 N1606 1.383 . S
C1610 C1609 1.439 . S
C1610 C1628 1.392 . S
N1611 Co1595 2.282 . S
N1611 C1614 1.332 . S
N1611 C1616 1.332 . S
C1612 C1613 1.386 . S
C1612 C1615 1.388 . S
C1613 C1612 1.386 . S
C1613 C1614 1.382 . S
C1613 H1639 0.950 . S
C1614 N1611 1.332 . S
C1614 C1613 1.382 . S
C1614 H1625 0.952 . S
C1615 C1612 1.388 . S
C1615 C1616 1.382 . S
C1615 H1640 0.950 . S
C1616 N1611 1.332 . S
C1616 C1615 1.382 . S
C1616 H1626 0.948 . S
N1617 Co1595 2.282 . S
N1617 C1621 1.332 . S
N1617 C1622 1.332 . S
C1618 C1619 1.388 . S
C1618 C1622 1.382 . S
C1618 H1641 0.950 . S
C1619 C1618 1.388 . S
C1619 C1620 1.386 . S
C1620 C1619 1.386 . S
C1620 C1621 1.382 . S
C1620 H1642 0.950 . S
C1621 N1617 1.332 . S
C1621 C1620 1.382 . S
C1621 H1623 0.952 . S
C1622 N1617 1.332 . S
C1622 C1618 1.382 . S
C1622 H1624 0.948 . S
H1623 C1621 0.952 . S
H1624 C1622 0.948 . S
H1625 C1614 0.952 . S
H1626 C1616 0.948 . S
C1627 C1593 1.395 . S
C1627 C1597 1.391 . S
C1628 C1590 1.389 . S
C1628 C1610 1.392 . S
C1629 C1600 1.392 . S
C1629 C1602 1.389 . S
C1630 C1605 1.395 . S
C1630 C1607 1.391 . S
H1631 C1591 0.951 . S
H1632 C1592 0.950 . S
H1633 C1598 0.949 . S
H1634 C1599 0.950 . S
H1635 C1603 0.951 . S
H1636 C1604 0.950 . S
H1637 C1608 0.949 . S
H1638 C1609 0.950 . S
H1639 C1613 0.950 . S
H1640 C1615 0.950 . S
H1641 C1618 0.950 . S
H1642 C1620 0.950 . S
C1643 C1644 1.443 . S
C1643 N1647 1.376 . S
C1643 C1681 1.389 . S
C1644 C1643 1.443 . S
C1644 C1645 1.340 . S
C1644 H1684 0.951 . S
C1645 C1644 1.340 . S
C1645 C1646 1.439 . S
C1645 H1685 0.950 . S
C1646 C1645 1.439 . S
C1646 N1647 1.374 . S
C1646 C1680 1.395 . S
N1647 C1643 1.376 . S
N1647 C1646 1.374 . S
N1647 Co1648 2.008 . S
Co1648 N1647 2.008 . S
Co1648 N1649 1.995 . S
Co1648 N1654 2.008 . S
Co1648 N1659 1.995 . S
Co1648 N1664 2.282 . S
Co1648 N1670 2.282 . S
N1649 Co1648 1.995 . S
N1649 C1650 1.376 . S
N1649 C1653 1.383 . S
C1650 N1649 1.376 . S
C1650 C1651 1.446 . S
C1650 C1680 1.391 . S
C1651 C1650 1.446 . S
C1651 C1652 1.339 . S
C1651 H1686 0.949 . S
C1652 C1651 1.339 . S
C1652 C1653 1.439 . S
C1652 H1687 0.950 . S
C1653 N1649 1.383 . S
C1653 C1652 1.439 . S
C1653 C1682 1.392 . S
N1654 Co1648 2.008 . S
N1654 C1655 1.376 . S
N1654 C1658 1.374 . S
C1655 N1654 1.376 . S
C1655 C1656 1.443 . S
C1655 C1682 1.389 . S
C1656 C1655 1.443 . S
C1656 C1657 1.340 . S
C1656 H1688 0.951 . S
C1657 C1656 1.340 . S
C1657 C1658 1.439 . S
C1657 H1689 0.950 . S
C1658 N1654 1.374 . S
C1658 C1657 1.439 . S
C1658 C1683 1.395 . S
N1659 Co1648 1.995 . S
N1659 C1660 1.376 . S
N1659 C1663 1.383 . S
C1660 N1659 1.376 . S
C1660 C1661 1.446 . S
C1660 C1683 1.391 . S
C1661 C1660 1.446 . S
C1661 C1662 1.339 . S
C1661 H1690 0.949 . S
C1662 C1661 1.339 . S
C1662 C1663 1.439 . S
C1662 H1691 0.950 . S
C1663 N1659 1.383 . S
C1663 C1662 1.439 . S
C1663 C1681 1.392 . S
N1664 Co1648 2.282 . S
N1664 C1667 1.332 . S
N1664 C1669 1.332 . S
C1665 C1666 1.386 . S
C1665 C1668 1.388 . S
C1666 C1665 1.386 . S
C1666 C1667 1.382 . S
C1666 H1692 0.950 . S
C1667 N1664 1.332 . S
C1667 C1666 1.382 . S
C1667 H1678 0.952 . S
C1668 C1665 1.388 . S
C1668 C1669 1.382 . S
C1668 H1693 0.950 . S
C1669 N1664 1.332 . S
C1669 C1668 1.382 . S
C1669 H1679 0.948 . S
N1670 Co1648 2.282 . S
N1670 C1674 1.332 . S
N1670 C1675 1.332 . S
C1671 C1672 1.388 . S
C1671 C1675 1.382 . S
C1671 H1694 0.950 . S
C1672 C1671 1.388 . S
C1672 C1673 1.386 . S
C1673 C1672 1.386 . S
C1673 C1674 1.382 . S
C1673 H1695 0.950 . S
C1674 N1670 1.332 . S
C1674 C1673 1.382 . S
C1674 H1676 0.952 . S
C1675 N1670 1.332 . S
C1675 C1671 1.382 . S
C1675 H1677 0.948 . S
H1676 C1674 0.952 . S
H1677 C1675 0.948 . S
H1678 C1667 0.952 . S
H1679 C1669 0.948 . S
C1680 C1646 1.395 . S
C1680 C1650 1.391 . S
C1681 C1643 1.389 . S
C1681 C1663 1.392 . S
C1682 C1653 1.392 . S
C1682 C1655 1.389 . S
C1683 C1658 1.395 . S
C1683 C1660 1.391 . S
H1684 C1644 0.951 . S
H1685 C1645 0.950 . S
H1686 C1651 0.949 . S
H1687 C1652 0.950 . S
H1688 C1656 0.951 . S
H1689 C1657 0.950 . S
H1690 C1661 0.949 . S
H1691 C1662 0.950 . S
H1692 C1666 0.950 . S
H1693 C1668 0.950 . S
H1694 C1671 0.950 . S
H1695 C1673 0.950 . S
C1696 C1697 1.349 . S
C1696 C1698 1.327 . S
C1696 H1721 0.950 . S
C1697 C1696 1.349 . S
C1697 C1713 1.349 . S
C1698 C1696 1.327 . S
C1698 C1717 1.429 . S
C1698 H1722 0.950 . S
C1699 C1716 1.574 . S
C1699 C1718 1.368 . S
C1699 H1723 0.949 . S
H1700 C1704 0.949 . S
C1701 C1702 1.349 . S
C1701 C1703 1.327 . S
C1701 H1724 0.950 . S
C1702 C1701 1.349 . S
C1702 C1714 1.349 . S
C1703 C1701 1.327 . S
C1703 C1719 1.429 . S
C1703 H1725 0.950 . S
C1704 H1700 0.949 . S
C1704 C1712 1.574 . S
C1704 C1720 1.368 . S
H1705 C1713 0.950 . S
H1706 C1711 0.950 . S
H1707 C1712 0.949 . S
H1708 C1714 0.950 . S
H1709 C1715 0.950 . S
H1710 C1716 0.949 . S
C1711 H1706 0.950 . S
C1711 C1713 1.327 . S
C1711 C1717 1.429 . S
C1712 C1704 1.574 . S
C1712 H1707 0.949 . S
C1712 C1718 1.368 . S
C1713 C1697 1.349 . S
C1713 H1705 0.950 . S
C1713 C1711 1.327 . S
C1714 C1702 1.349 . S
C1714 H1708 0.950 . S
C1714 C1715 1.327 . S
C1715 H1709 0.950 . S
C1715 C1714 1.327 . S
C1715 C1719 1.429 . S
C1716 C1699 1.574 . S
C1716 H1710 0.949 . S
C1716 C1720 1.368 . S
C1717 C1698 1.429 . S
C1717 C1711 1.429 . S
C1717 C1718 1.523 . S
C1718 C1699 1.368 . S
C1718 C1712 1.368 . S
C1718 C1717 1.523 . S
C1719 C1703 1.429 . S
C1719 C1715 1.429 . S
C1719 C1720 1.523 . S
C1720 C1704 1.368 . S
C1720 C1716 1.368 . S
C1720 C1719 1.523 . S
H1721 C1696 0.950 . S
H1722 C1698 0.950 . S
H1723 C1699 0.949 . S
H1724 C1701 0.950 . S
H1725 C1703 0.950 . S
C1726 C1727 1.349 . S
C1726 C1728 1.327 . S
C1726 H1751 0.950 . S
C1727 C1726 1.349 . S
C1727 C1743 1.349 . S
C1728 C1726 1.327 . S
C1728 C1747 1.429 . S
C1728 H1752 0.950 . S
C1729 C1746 1.574 . S
C1729 C1748 1.368 . S
C1729 H1753 0.949 . S
H1730 C1734 0.949 . S
C1731 C1732 1.349 . S
C1731 C1733 1.327 . S
C1731 H1754 0.950 . S
C1732 C1731 1.349 . S
C1732 C1744 1.349 . S
C1733 C1731 1.327 . S
C1733 C1749 1.429 . S
C1733 H1755 0.950 . S
C1734 H1730 0.949 . S
C1734 C1742 1.574 . S
C1734 C1750 1.368 . S
H1735 C1743 0.950 . S
H1736 C1741 0.950 . S
H1737 C1742 0.949 . S
H1738 C1744 0.950 . S
H1739 C1745 0.950 . S
H1740 C1746 0.949 . S
C1741 H1736 0.950 . S
C1741 C1743 1.327 . S
C1741 C1747 1.429 . S
C1742 C1734 1.574 . S
C1742 H1737 0.949 . S
C1742 C1748 1.368 . S
C1743 C1727 1.349 . S
C1743 H1735 0.950 . S
C1743 C1741 1.327 . S
C1744 C1732 1.349 . S
C1744 H1738 0.950 . S
C1744 C1745 1.327 . S
C1745 H1739 0.950 . S
C1745 C1744 1.327 . S
C1745 C1749 1.429 . S
C1746 C1729 1.574 . S
C1746 H1740 0.949 . S
C1746 C1750 1.368 . S
C1747 C1728 1.429 . S
C1747 C1741 1.429 . S
C1747 C1748 1.523 . S
C1748 C1729 1.368 . S
C1748 C1742 1.368 . S
C1748 C1747 1.523 . S
C1749 C1733 1.429 . S
C1749 C1745 1.429 . S
C1749 C1750 1.523 . S
C1750 C1734 1.368 . S
C1750 C1746 1.368 . S
C1750 C1749 1.523 . S
H1751 C1726 0.950 . S
H1752 C1728 0.950 . S
H1753 C1729 0.949 . S
H1754 C1731 0.950 . S
H1755 C1733 0.950 . S
C1756 C1757 1.349 . S
C1756 C1758 1.327 . S
C1756 H1781 0.950 . S
C1757 C1756 1.349 . S
C1757 C1773 1.349 . S
C1758 C1756 1.327 . S
C1758 C1777 1.429 . S
C1758 H1782 0.950 . S
C1759 C1776 1.574 . S
C1759 C1778 1.368 . S
C1759 H1783 0.949 . S
H1760 C1764 0.949 . S
C1761 C1762 1.349 . S
C1761 C1763 1.327 . S
C1761 H1784 0.950 . S
C1762 C1761 1.349 . S
C1762 C1774 1.349 . S
C1763 C1761 1.327 . S
C1763 C1779 1.429 . S
C1763 H1785 0.950 . S
C1764 H1760 0.949 . S
C1764 C1772 1.574 . S
C1764 C1780 1.368 . S
H1765 C1773 0.950 . S
H1766 C1771 0.950 . S
H1767 C1772 0.949 . S
H1768 C1774 0.950 . S
H1769 C1775 0.950 . S
H1770 C1776 0.949 . S
C1771 H1766 0.950 . S
C1771 C1773 1.327 . S
C1771 C1777 1.429 . S
C1772 C1764 1.574 . S
C1772 H1767 0.949 . S
C1772 C1778 1.368 . S
C1773 C1757 1.349 . S
C1773 H1765 0.950 . S
C1773 C1771 1.327 . S
C1774 C1762 1.349 . S
C1774 H1768 0.950 . S
C1774 C1775 1.327 . S
C1775 H1769 0.950 . S
C1775 C1774 1.327 . S
C1775 C1779 1.429 . S
C1776 C1759 1.574 . S
C1776 H1770 0.949 . S
C1776 C1780 1.368 . S
C1777 C1758 1.429 . S
C1777 C1771 1.429 . S
C1777 C1778 1.523 . S
C1778 C1759 1.368 . S
C1778 C1772 1.368 . S
C1778 C1777 1.523 . S
C1779 C1763 1.429 . S
C1779 C1775 1.429 . S
C1779 C1780 1.523 . S
C1780 C1764 1.368 . S
C1780 C1776 1.368 . S
C1780 C1779 1.523 . S
H1781 C1756 0.950 . S
H1782 C1758 0.950 . S
H1783 C1759 0.949 . S
H1784 C1761 0.950 . S
H1785 C1763 0.950 . S
C1786 C1787 1.349 . S
C1786 C1788 1.327 . S
C1786 H1811 0.950 . S
C1787 C1786 1.349 . S
C1787 C1803 1.349 . S
C1788 C1786 1.327 . S
C1788 C1807 1.429 . S
C1788 H1812 0.950 . S
C1789 C1806 1.574 . S
C1789 C1808 1.368 . S
C1789 H1813 0.949 . S
H1790 C1794 0.949 . S
C1791 C1792 1.349 . S
C1791 C1793 1.327 . S
C1791 H1814 0.950 . S
C1792 C1791 1.349 . S
C1792 C1804 1.349 . S
C1793 C1791 1.327 . S
C1793 C1809 1.429 . S
C1793 H1815 0.950 . S
C1794 H1790 0.949 . S
C1794 C1802 1.574 . S
C1794 C1810 1.368 . S
H1795 C1803 0.950 . S
H1796 C1801 0.950 . S
H1797 C1802 0.949 . S
H1798 C1804 0.950 . S
H1799 C1805 0.950 . S
H1800 C1806 0.949 . S
C1801 H1796 0.950 . S
C1801 C1803 1.327 . S
C1801 C1807 1.429 . S
C1802 C1794 1.574 . S
C1802 H1797 0.949 . S
C1802 C1808 1.368 . S
C1803 C1787 1.349 . S
C1803 H1795 0.950 . S
C1803 C1801 1.327 . S
C1804 C1792 1.349 . S
C1804 H1798 0.950 . S
C1804 C1805 1.327 . S
C1805 H1799 0.950 . S
C1805 C1804 1.327 . S
C1805 C1809 1.429 . S
C1806 C1789 1.574 . S
C1806 H1800 0.949 . S
C1806 C1810 1.368 . S
C1807 C1788 1.429 . S
C1807 C1801 1.429 . S
C1807 C1808 1.523 . S
C1808 C1789 1.368 . S
C1808 C1802 1.368 . S
C1808 C1807 1.523 . S
C1809 C1793 1.429 . S
C1809 C1805 1.429 . S
C1809 C1810 1.523 . S
C1810 C1794 1.368 . S
C1810 C1806 1.368 . S
C1810 C1809 1.523 . S
H1811 C1786 0.950 . S
H1812 C1788 0.950 . S
H1813 C1789 0.949 . S
H1814 C1791 0.950 . S
H1815 C1793 0.950 . S
C1816 C1817 1.349 . S
C1816 C1818 1.327 . S
C1816 H1841 0.950 . S
C1817 C1816 1.349 . S
C1817 C1833 1.349 . S
C1818 C1816 1.327 . S
C1818 C1837 1.429 . S
C1818 H1842 0.950 . S
C1819 C1836 1.574 . S
C1819 C1838 1.368 . S
C1819 H1843 0.949 . S
H1820 C1824 0.949 . S
C1821 C1822 1.349 . S
C1821 C1823 1.327 . S
C1821 H1844 0.950 . S
C1822 C1821 1.349 . S
C1822 C1834 1.349 . S
C1823 C1821 1.327 . S
C1823 C1839 1.429 . S
C1823 H1845 0.950 . S
C1824 H1820 0.949 . S
C1824 C1832 1.574 . S
C1824 C1840 1.368 . S
H1825 C1833 0.950 . S
H1826 C1831 0.950 . S
H1827 C1832 0.949 . S
H1828 C1834 0.950 . S
H1829 C1835 0.950 . S
H1830 C1836 0.949 . S
C1831 H1826 0.950 . S
C1831 C1833 1.327 . S
C1831 C1837 1.429 . S
C1832 C1824 1.574 . S
C1832 H1827 0.949 . S
C1832 C1838 1.368 . S
C1833 C1817 1.349 . S
C1833 H1825 0.950 . S
C1833 C1831 1.327 . S
C1834 C1822 1.349 . S
C1834 H1828 0.950 . S
C1834 C1835 1.327 . S
C1835 H1829 0.950 . S
C1835 C1834 1.327 . S
C1835 C1839 1.429 . S
C1836 C1819 1.574 . S
C1836 H1830 0.949 . S
C1836 C1840 1.368 . S
C1837 C1818 1.429 . S
C1837 C1831 1.429 . S
C1837 C1838 1.523 . S
C1838 C1819 1.368 . S
C1838 C1832 1.368 . S
C1838 C1837 1.523 . S
C1839 C1823 1.429 . S
C1839 C1835 1.429 . S
C1839 C1840 1.523 . S
C1840 C1824 1.368 . S
C1840 C1836 1.368 . S
C1840 C1839 1.523 . S
H1841 C1816 0.950 . S
H1842 C1818 0.950 . S
H1843 C1819 0.949 . S
H1844 C1821 0.950 . S
H1845 C1823 0.950 . S
C1846 C1847 1.349 . S
C1846 C1848 1.327 . S
C1846 H1871 0.950 . S
C1847 C1846 1.349 . S
C1847 C1863 1.349 . S
C1848 C1846 1.327 . S
C1848 C1867 1.429 . S
C1848 H1872 0.950 . S
C1849 C1866 1.574 . S
C1849 C1868 1.368 . S
C1849 H1873 0.949 . S
H1850 C1854 0.949 . S
C1851 C1852 1.349 . S
C1851 C1853 1.327 . S
C1851 H1874 0.950 . S
C1852 C1851 1.349 . S
C1852 C1864 1.349 . S
C1853 C1851 1.327 . S
C1853 C1869 1.429 . S
C1853 H1875 0.950 . S
C1854 H1850 0.949 . S
C1854 C1862 1.574 . S
C1854 C1870 1.368 . S
H1855 C1863 0.950 . S
H1856 C1861 0.950 . S
H1857 C1862 0.949 . S
H1858 C1864 0.950 . S
H1859 C1865 0.950 . S
H1860 C1866 0.949 . S
C1861 H1856 0.950 . S
C1861 C1863 1.327 . S
C1861 C1867 1.429 . S
C1862 C1854 1.574 . S
C1862 H1857 0.949 . S
C1862 C1868 1.368 . S
C1863 C1847 1.349 . S
C1863 H1855 0.950 . S
C1863 C1861 1.327 . S
C1864 C1852 1.349 . S
C1864 H1858 0.950 . S
C1864 C1865 1.327 . S
C1865 H1859 0.950 . S
C1865 C1864 1.327 . S
C1865 C1869 1.429 . S
C1866 C1849 1.574 . S
C1866 H1860 0.949 . S
C1866 C1870 1.368 . S
C1867 C1848 1.429 . S
C1867 C1861 1.429 . S
C1867 C1868 1.523 . S
C1868 C1849 1.368 . S
C1868 C1862 1.368 . S
C1868 C1867 1.523 . S
C1869 C1853 1.429 . S
C1869 C1865 1.429 . S
C1869 C1870 1.523 . S
C1870 C1854 1.368 . S
C1870 C1866 1.368 . S
C1870 C1869 1.523 . S
H1871 C1846 0.950 . S
H1872 C1848 0.950 . S
H1873 C1849 0.949 . S
H1874 C1851 0.950 . S
H1875 C1853 0.950 . S
C1876 C1877 1.349 . S
C1876 C1878 1.327 . S
C1876 H1901 0.950 . S
C1877 C1876 1.349 . S
C1877 C1893 1.349 . S
C1878 C1876 1.327 . S
C1878 C1897 1.429 . S
C1878 H1902 0.950 . S
C1879 C1896 1.574 . S
C1879 C1898 1.368 . S
C1879 H1903 0.949 . S
H1880 C1884 0.949 . S
C1881 C1882 1.349 . S
C1881 C1883 1.327 . S
C1881 H1904 0.950 . S
C1882 C1881 1.349 . S
C1882 C1894 1.349 . S
C1883 C1881 1.327 . S
C1883 C1899 1.429 . S
C1883 H1905 0.950 . S
C1884 H1880 0.949 . S
C1884 C1892 1.574 . S
C1884 C1900 1.368 . S
H1885 C1893 0.950 . S
H1886 C1891 0.950 . S
H1887 C1892 0.949 . S
H1888 C1894 0.950 . S
H1889 C1895 0.950 . S
H1890 C1896 0.949 . S
C1891 H1886 0.950 . S
C1891 C1893 1.327 . S
C1891 C1897 1.429 . S
C1892 C1884 1.574 . S
C1892 H1887 0.949 . S
C1892 C1898 1.368 . S
C1893 C1877 1.349 . S
C1893 H1885 0.950 . S
C1893 C1891 1.327 . S
C1894 C1882 1.349 . S
C1894 H1888 0.950 . S
C1894 C1895 1.327 . S
C1895 H1889 0.950 . S
C1895 C1894 1.327 . S
C1895 C1899 1.429 . S
C1896 C1879 1.574 . S
C1896 H1890 0.949 . S
C1896 C1900 1.368 . S
C1897 C1878 1.429 . S
C1897 C1891 1.429 . S
C1897 C1898 1.523 . S
C1898 C1879 1.368 . S
C1898 C1892 1.368 . S
C1898 C1897 1.523 . S
C1899 C1883 1.429 . S
C1899 C1895 1.429 . S
C1899 C1900 1.523 . S
C1900 C1884 1.368 . S
C1900 C1896 1.368 . S
C1900 C1899 1.523 . S
H1901 C1876 0.950 . S
H1902 C1878 0.950 . S
H1903 C1879 0.949 . S
H1904 C1881 0.950 . S
H1905 C1883 0.950 . S
C1906 C1907 1.349 . S
C1906 C1908 1.327 . S
C1906 H1931 0.950 . S
C1907 C1906 1.349 . S
C1907 C1923 1.349 . S
C1908 C1906 1.327 . S
C1908 C1927 1.429 . S
C1908 H1932 0.950 . S
C1909 C1926 1.574 . S
C1909 C1928 1.368 . S
C1909 H1933 0.949 . S
H1910 C1914 0.949 . S
C1911 C1912 1.349 . S
C1911 C1913 1.327 . S
C1911 H1934 0.950 . S
C1912 C1911 1.349 . S
C1912 C1924 1.349 . S
C1913 C1911 1.327 . S
C1913 C1929 1.429 . S
C1913 H1935 0.950 . S
C1914 H1910 0.949 . S
C1914 C1922 1.574 . S
C1914 C1930 1.368 . S
H1915 C1923 0.950 . S
H1916 C1921 0.950 . S
H1917 C1922 0.949 . S
H1918 C1924 0.950 . S
H1919 C1925 0.950 . S
H1920 C1926 0.949 . S
C1921 H1916 0.950 . S
C1921 C1923 1.327 . S
C1921 C1927 1.429 . S
C1922 C1914 1.574 . S
C1922 H1917 0.949 . S
C1922 C1928 1.368 . S
C1923 C1907 1.349 . S
C1923 H1915 0.950 . S
C1923 C1921 1.327 . S
C1924 C1912 1.349 . S
C1924 H1918 0.950 . S
C1924 C1925 1.327 . S
C1925 H1919 0.950 . S
C1925 C1924 1.327 . S
C1925 C1929 1.429 . S
C1926 C1909 1.574 . S
C1926 H1920 0.949 . S
C1926 C1930 1.368 . S
C1927 C1908 1.429 . S
C1927 C1921 1.429 . S
C1927 C1928 1.523 . S
C1928 C1909 1.368 . S
C1928 C1922 1.368 . S
C1928 C1927 1.523 . S
C1929 C1913 1.429 . S
C1929 C1925 1.429 . S
C1929 C1930 1.523 . S
C1930 C1914 1.368 . S
C1930 C1926 1.368 . S
C1930 C1929 1.523 . S
H1931 C1906 0.950 . S
H1932 C1908 0.950 . S
H1933 C1909 0.949 . S
H1934 C1911 0.950 . S
H1935 C1913 0.950 . S
C1936 C1937 1.349 . S
C1936 C1938 1.327 . S
C1936 H1961 0.950 . S
C1937 C1936 1.349 . S
C1937 C1953 1.349 . S
C1938 C1936 1.327 . S
C1938 C1957 1.429 . S
C1938 H1962 0.950 . S
C1939 C1956 1.574 . S
C1939 C1958 1.368 . S
C1939 H1963 0.949 . S
H1940 C1944 0.949 . S
C1941 C1942 1.349 . S
C1941 C1943 1.327 . S
C1941 H1964 0.950 . S
C1942 C1941 1.349 . S
C1942 C1954 1.349 . S
C1943 C1941 1.327 . S
C1943 C1959 1.429 . S
C1943 H1965 0.950 . S
C1944 H1940 0.949 . S
C1944 C1952 1.574 . S
C1944 C1960 1.368 . S
H1945 C1953 0.950 . S
H1946 C1951 0.950 . S
H1947 C1952 0.949 . S
H1948 C1954 0.950 . S
H1949 C1955 0.950 . S
H1950 C1956 0.949 . S
C1951 H1946 0.950 . S
C1951 C1953 1.327 . S
C1951 C1957 1.429 . S
C1952 C1944 1.574 . S
C1952 H1947 0.949 . S
C1952 C1958 1.368 . S
C1953 C1937 1.349 . S
C1953 H1945 0.950 . S
C1953 C1951 1.327 . S
C1954 C1942 1.349 . S
C1954 H1948 0.950 . S
C1954 C1955 1.327 . S
C1955 H1949 0.950 . S
C1955 C1954 1.327 . S
C1955 C1959 1.429 . S
C1956 C1939 1.574 . S
C1956 H1950 0.949 . S
C1956 C1960 1.368 . S
C1957 C1938 1.429 . S
C1957 C1951 1.429 . S
C1957 C1958 1.523 . S
C1958 C1939 1.368 . S
C1958 C1952 1.368 . S
C1958 C1957 1.523 . S
C1959 C1943 1.429 . S
C1959 C1955 1.429 . S
C1959 C1960 1.523 . S
C1960 C1944 1.368 . S
C1960 C1956 1.368 . S
C1960 C1959 1.523 . S
H1961 C1936 0.950 . S
H1962 C1938 0.950 . S
H1963 C1939 0.949 . S
H1964 C1941 0.950 . S
H1965 C1943 0.950 . S
C1966 C1967 1.349 . S
C1966 C1968 1.327 . S
C1966 H1991 0.950 . S
C1967 C1966 1.349 . S
C1967 C1983 1.349 . S
C1968 C1966 1.327 . S
C1968 C1987 1.429 . S
C1968 H1992 0.950 . S
C1969 C1986 1.574 . S
C1969 C1988 1.368 . S
C1969 H1993 0.949 . S
H1970 C1974 0.949 . S
C1971 C1972 1.349 . S
C1971 C1973 1.327 . S
C1971 H1994 0.950 . S
C1972 C1971 1.349 . S
C1972 C1984 1.349 . S
C1973 C1971 1.327 . S
C1973 C1989 1.429 . S
C1973 H1995 0.950 . S
C1974 H1970 0.949 . S
C1974 C1982 1.574 . S
C1974 C1990 1.368 . S
H1975 C1983 0.950 . S
H1976 C1981 0.950 . S
H1977 C1982 0.949 . S
H1978 C1984 0.950 . S
H1979 C1985 0.950 . S
H1980 C1986 0.949 . S
C1981 H1976 0.950 . S
C1981 C1983 1.327 . S
C1981 C1987 1.429 . S
C1982 C1974 1.574 . S
C1982 H1977 0.949 . S
C1982 C1988 1.368 . S
C1983 C1967 1.349 . S
C1983 H1975 0.950 . S
C1983 C1981 1.327 . S
C1984 C1972 1.349 . S
C1984 H1978 0.950 . S
C1984 C1985 1.327 . S
C1985 H1979 0.950 . S
C1985 C1984 1.327 . S
C1985 C1989 1.429 . S
C1986 C1969 1.574 . S
C1986 H1980 0.949 . S
C1986 C1990 1.368 . S
C1987 C1968 1.429 . S
C1987 C1981 1.429 . S
C1987 C1988 1.523 . S
C1988 C1969 1.368 . S
C1988 C1982 1.368 . S
C1988 C1987 1.523 . S
C1989 C1973 1.429 . S
C1989 C1985 1.429 . S
C1989 C1990 1.523 . S
C1990 C1974 1.368 . S
C1990 C1986 1.368 . S
C1990 C1989 1.523 . S
H1991 C1966 0.950 . S
H1992 C1968 0.950 . S
H1993 C1969 0.949 . S
H1994 C1971 0.950 . S
H1995 C1973 0.950 . S
C1996 C1997 1.349 . S
C1996 C1998 1.327 . S
C1996 H2021 0.950 . S
C1997 C1996 1.349 . S
C1997 C2013 1.349 . S
C1998 C1996 1.327 . S
C1998 C2017 1.429 . S
C1998 H2022 0.950 . S
C1999 C2016 1.574 . S
C1999 C2018 1.368 . S
C1999 H2023 0.949 . S
H2000 C2004 0.949 . S
C2001 C2002 1.349 . S
C2001 C2003 1.327 . S
C2001 H2024 0.950 . S
C2002 C2001 1.349 . S
C2002 C2014 1.349 . S
C2003 C2001 1.327 . S
C2003 C2019 1.429 . S
C2003 H2025 0.950 . S
C2004 H2000 0.949 . S
C2004 C2012 1.574 . S
C2004 C2020 1.368 . S
H2005 C2013 0.950 . S
H2006 C2011 0.950 . S
H2007 C2012 0.949 . S
H2008 C2014 0.950 . S
H2009 C2015 0.950 . S
H2010 C2016 0.949 . S
C2011 H2006 0.950 . S
C2011 C2013 1.327 . S
C2011 C2017 1.429 . S
C2012 C2004 1.574 . S
C2012 H2007 0.949 . S
C2012 C2018 1.368 . S
C2013 C1997 1.349 . S
C2013 H2005 0.950 . S
C2013 C2011 1.327 . S
C2014 C2002 1.349 . S
C2014 H2008 0.950 . S
C2014 C2015 1.327 . S
C2015 H2009 0.950 . S
C2015 C2014 1.327 . S
C2015 C2019 1.429 . S
C2016 C1999 1.574 . S
C2016 H2010 0.949 . S
C2016 C2020 1.368 . S
C2017 C1998 1.429 . S
C2017 C2011 1.429 . S
C2017 C2018 1.523 . S
C2018 C1999 1.368 . S
C2018 C2012 1.368 . S
C2018 C2017 1.523 . S
C2019 C2003 1.429 . S
C2019 C2015 1.429 . S
C2019 C2020 1.523 . S
C2020 C2004 1.368 . S
C2020 C2016 1.368 . S
C2020 C2019 1.523 . S
H2021 C1996 0.950 . S
H2022 C1998 0.950 . S
H2023 C1999 0.949 . S
H2024 C2001 0.950 . S
H2025 C2003 0.950 . S
C2026 C2027 1.349 . S
C2026 C2028 1.327 . S
C2026 H2051 0.950 . S
C2027 C2026 1.349 . S
C2027 C2043 1.349 . S
C2028 C2026 1.327 . S
C2028 C2047 1.429 . S
C2028 H2052 0.950 . S
C2029 C2046 1.574 . S
C2029 C2048 1.368 . S
C2029 H2053 0.949 . S
H2030 C2034 0.949 . S
C2031 C2032 1.349 . S
C2031 C2033 1.327 . S
C2031 H2054 0.950 . S
C2032 C2031 1.349 . S
C2032 C2044 1.349 . S
C2033 C2031 1.327 . S
C2033 C2049 1.429 . S
C2033 H2055 0.950 . S
C2034 H2030 0.949 . S
C2034 C2042 1.574 . S
C2034 C2050 1.368 . S
H2035 C2043 0.950 . S
H2036 C2041 0.950 . S
H2037 C2042 0.949 . S
H2038 C2044 0.950 . S
H2039 C2045 0.950 . S
H2040 C2046 0.949 . S
C2041 H2036 0.950 . S
C2041 C2043 1.327 . S
C2041 C2047 1.429 . S
C2042 C2034 1.574 . S
C2042 H2037 0.949 . S
C2042 C2048 1.368 . S
C2043 C2027 1.349 . S
C2043 H2035 0.950 . S
C2043 C2041 1.327 . S
C2044 C2032 1.349 . S
C2044 H2038 0.950 . S
C2044 C2045 1.327 . S
C2045 H2039 0.950 . S
C2045 C2044 1.327 . S
C2045 C2049 1.429 . S
C2046 C2029 1.574 . S
C2046 H2040 0.949 . S
C2046 C2050 1.368 . S
C2047 C2028 1.429 . S
C2047 C2041 1.429 . S
C2047 C2048 1.523 . S
C2048 C2029 1.368 . S
C2048 C2042 1.368 . S
C2048 C2047 1.523 . S
C2049 C2033 1.429 . S
C2049 C2045 1.429 . S
C2049 C2050 1.523 . S
C2050 C2034 1.368 . S
C2050 C2046 1.368 . S
C2050 C2049 1.523 . S
H2051 C2026 0.950 . S
H2052 C2028 0.950 . S
H2053 C2029 0.949 . S
H2054 C2031 0.950 . S
H2055 C2033 0.950 . S
C2056 C2057 1.349 . S
C2056 C2058 1.327 . S
C2056 H2081 0.950 . S
C2057 C2056 1.349 . S
C2057 C2073 1.349 . S
C2058 C2056 1.327 . S
C2058 C2077 1.429 . S
C2058 H2082 0.950 . S
C2059 C2076 1.574 . S
C2059 C2078 1.368 . S
C2059 H2083 0.949 . S
H2060 C2064 0.949 . S
C2061 C2062 1.349 . S
C2061 C2063 1.327 . S
C2061 H2084 0.950 . S
C2062 C2061 1.349 . S
C2062 C2074 1.349 . S
C2063 C2061 1.327 . S
C2063 C2079 1.429 . S
C2063 H2085 0.950 . S
C2064 H2060 0.949 . S
C2064 C2072 1.574 . S
C2064 C2080 1.368 . S
H2065 C2073 0.950 . S
H2066 C2071 0.950 . S
H2067 C2072 0.949 . S
H2068 C2074 0.950 . S
H2069 C2075 0.950 . S
H2070 C2076 0.949 . S
C2071 H2066 0.950 . S
C2071 C2073 1.327 . S
C2071 C2077 1.429 . S
C2072 C2064 1.574 . S
C2072 H2067 0.949 . S
C2072 C2078 1.368 . S
C2073 C2057 1.349 . S
C2073 H2065 0.950 . S
C2073 C2071 1.327 . S
C2074 C2062 1.349 . S
C2074 H2068 0.950 . S
C2074 C2075 1.327 . S
C2075 H2069 0.950 . S
C2075 C2074 1.327 . S
C2075 C2079 1.429 . S
C2076 C2059 1.574 . S
C2076 H2070 0.949 . S
C2076 C2080 1.368 . S
C2077 C2058 1.429 . S
C2077 C2071 1.429 . S
C2077 C2078 1.523 . S
C2078 C2059 1.368 . S
C2078 C2072 1.368 . S
C2078 C2077 1.523 . S
C2079 C2063 1.429 . S
C2079 C2075 1.429 . S
C2079 C2080 1.523 . S
C2080 C2064 1.368 . S
C2080 C2076 1.368 . S
C2080 C2079 1.523 . S
H2081 C2056 0.950 . S
H2082 C2058 0.950 . S
H2083 C2059 0.949 . S
H2084 C2061 0.950 . S
H2085 C2063 0.950 . S
C2086 C2087 1.349 . S
C2086 C2088 1.327 . S
C2086 H2111 0.950 . S
C2087 C2086 1.349 . S
C2087 C2103 1.349 . S
C2088 C2086 1.327 . S
C2088 C2107 1.429 . S
C2088 H2112 0.950 . S
C2089 C2106 1.574 . S
C2089 C2108 1.368 . S
C2089 H2113 0.949 . S
H2090 C2094 0.949 . S
C2091 C2092 1.349 . S
C2091 C2093 1.327 . S
C2091 H2114 0.950 . S
C2092 C2091 1.349 . S
C2092 C2104 1.349 . S
C2093 C2091 1.327 . S
C2093 C2109 1.429 . S
C2093 H2115 0.950 . S
C2094 H2090 0.949 . S
C2094 C2102 1.574 . S
C2094 C2110 1.368 . S
H2095 C2103 0.950 . S
H2096 C2101 0.950 . S
H2097 C2102 0.949 . S
H2098 C2104 0.950 . S
H2099 C2105 0.950 . S
H2100 C2106 0.949 . S
C2101 H2096 0.950 . S
C2101 C2103 1.327 . S
C2101 C2107 1.429 . S
C2102 C2094 1.574 . S
C2102 H2097 0.949 . S
C2102 C2108 1.368 . S
C2103 C2087 1.349 . S
C2103 H2095 0.950 . S
C2103 C2101 1.327 . S
C2104 C2092 1.349 . S
C2104 H2098 0.950 . S
C2104 C2105 1.327 . S
C2105 H2099 0.950 . S
C2105 C2104 1.327 . S
C2105 C2109 1.429 . S
C2106 C2089 1.574 . S
C2106 H2100 0.949 . S
C2106 C2110 1.368 . S
C2107 C2088 1.429 . S
C2107 C2101 1.429 . S
C2107 C2108 1.523 . S
C2108 C2089 1.368 . S
C2108 C2102 1.368 . S
C2108 C2107 1.523 . S
C2109 C2093 1.429 . S
C2109 C2105 1.429 . S
C2109 C2110 1.523 . S
C2110 C2094 1.368 . S
C2110 C2106 1.368 . S
C2110 C2109 1.523 . S
H2111 C2086 0.950 . S
H2112 C2088 0.950 . S
H2113 C2089 0.949 . S
H2114 C2091 0.950 . S
H2115 C2093 0.950 . S
C2116 C2117 1.349 . S
C2116 C2118 1.327 . S
C2116 H2141 0.950 . S
C2117 C2116 1.349 . S
C2117 C2133 1.349 . S
C2118 C2116 1.327 . S
C2118 C2137 1.429 . S
C2118 H2142 0.950 . S
C2119 C2136 1.574 . S
C2119 C2138 1.368 . S
C2119 H2143 0.949 . S
H2120 C2124 0.949 . S
C2121 C2122 1.349 . S
C2121 C2123 1.327 . S
C2121 H2144 0.950 . S
C2122 C2121 1.349 . S
C2122 C2134 1.349 . S
C2123 C2121 1.327 . S
C2123 C2139 1.429 . S
C2123 H2145 0.950 . S
C2124 H2120 0.949 . S
C2124 C2132 1.574 . S
C2124 C2140 1.368 . S
H2125 C2133 0.950 . S
H2126 C2131 0.950 . S
H2127 C2132 0.949 . S
H2128 C2134 0.950 . S
H2129 C2135 0.950 . S
H2130 C2136 0.949 . S
C2131 H2126 0.950 . S
C2131 C2133 1.327 . S
C2131 C2137 1.429 . S
C2132 C2124 1.574 . S
C2132 H2127 0.949 . S
C2132 C2138 1.368 . S
C2133 C2117 1.349 . S
C2133 H2125 0.950 . S
C2133 C2131 1.327 . S
C2134 C2122 1.349 . S
C2134 H2128 0.950 . S
C2134 C2135 1.327 . S
C2135 H2129 0.950 . S
C2135 C2134 1.327 . S
C2135 C2139 1.429 . S
C2136 C2119 1.574 . S
C2136 H2130 0.949 . S
C2136 C2140 1.368 . S
C2137 C2118 1.429 . S
C2137 C2131 1.429 . S
C2137 C2138 1.523 . S
C2138 C2119 1.368 . S
C2138 C2132 1.368 . S
C2138 C2137 1.523 . S
C2139 C2123 1.429 . S
C2139 C2135 1.429 . S
C2139 C2140 1.523 . S
C2140 C2124 1.368 . S
C2140 C2136 1.368 . S
C2140 C2139 1.523 . S
H2141 C2116 0.950 . S
H2142 C2118 0.950 . S
H2143 C2119 0.949 . S
H2144 C2121 0.950 . S
H2145 C2123 0.950 . S
C2146 C2147 1.349 . S
C2146 C2148 1.327 . S
C2146 H2171 0.950 . S
C2147 C2146 1.349 . S
C2147 C2163 1.349 . S
C2148 C2146 1.327 . S
C2148 C2167 1.429 . S
C2148 H2172 0.950 . S
C2149 C2166 1.574 . S
C2149 C2168 1.368 . S
C2149 H2173 0.949 . S
H2150 C2154 0.949 . S
C2151 C2152 1.349 . S
C2151 C2153 1.327 . S
C2151 H2174 0.950 . S
C2152 C2151 1.349 . S
C2152 C2164 1.349 . S
C2153 C2151 1.327 . S
C2153 C2169 1.429 . S
C2153 H2175 0.950 . S
C2154 H2150 0.949 . S
C2154 C2162 1.574 . S
C2154 C2170 1.368 . S
H2155 C2163 0.950 . S
H2156 C2161 0.950 . S
H2157 C2162 0.949 . S
H2158 C2164 0.950 . S
H2159 C2165 0.950 . S
H2160 C2166 0.949 . S
C2161 H2156 0.950 . S
C2161 C2163 1.327 . S
C2161 C2167 1.429 . S
C2162 C2154 1.574 . S
C2162 H2157 0.949 . S
C2162 C2168 1.368 . S
C2163 C2147 1.349 . S
C2163 H2155 0.950 . S
C2163 C2161 1.327 . S
C2164 C2152 1.349 . S
C2164 H2158 0.950 . S
C2164 C2165 1.327 . S
C2165 H2159 0.950 . S
C2165 C2164 1.327 . S
C2165 C2169 1.429 . S
C2166 C2149 1.574 . S
C2166 H2160 0.949 . S
C2166 C2170 1.368 . S
C2167 C2148 1.429 . S
C2167 C2161 1.429 . S
C2167 C2168 1.523 . S
C2168 C2149 1.368 . S
C2168 C2162 1.368 . S
C2168 C2167 1.523 . S
C2169 C2153 1.429 . S
C2169 C2165 1.429 . S
C2169 C2170 1.523 . S
C2170 C2154 1.368 . S
C2170 C2166 1.368 . S
C2170 C2169 1.523 . S
H2171 C2146 0.950 . S
H2172 C2148 0.950 . S
H2173 C2149 0.949 . S
H2174 C2151 0.950 . S
H2175 C2153 0.950 . S
C2176 C2177 1.349 . S
C2176 C2178 1.327 . S
C2176 H2201 0.950 . S
C2177 C2176 1.349 . S
C2177 C2193 1.349 1_554 S
C2178 C2176 1.327 . S
C2178 C2197 1.461 . S
C2178 H2202 0.950 . S
C2179 C2196 1.633 . S
C2179 C2198 1.355 1_556 S
C2179 H2203 0.949 . S
H2180 C2184 0.949 . S
C2181 C2182 1.349 . S
C2181 C2183 1.327 . S
C2181 H2204 0.950 . S
C2182 C2181 1.349 . S
C2182 C2194 1.349 1_556 S
C2183 C2181 1.327 . S
C2183 C2199 1.461 . S
C2183 H2205 0.950 . S
C2184 H2180 0.949 . S
C2184 C2192 1.633 . S
C2184 C2200 1.355 1_554 S
H2185 C2193 0.950 . S
H2186 C2191 0.950 . S
H2187 C2192 0.959 . S
H2188 C2194 0.950 . S
H2189 C2195 0.950 . S
H2190 C2196 0.959 . S
C2191 H2186 0.950 . S
C2191 C2193 1.327 . S
C2191 C2197 1.398 1_556 S
C2192 C2184 1.633 . S
C2192 H2187 0.959 . S
C2192 C2198 1.321 1_565 S
C2193 C2177 1.349 1_556 S
C2193 H2185 0.950 . S
C2193 C2191 1.327 . S
C2194 C2182 1.349 1_554 S
C2194 H2188 0.950 . S
C2194 C2195 1.327 . S
C2195 H2189 0.950 . S
C2195 C2194 1.327 . S
C2195 C2199 1.398 1_554 S
C2196 C2179 1.633 . S
C2196 H2190 0.959 . S
C2196 C2200 1.321 1_545 S
C2197 C2178 1.461 . S
C2197 C2191 1.398 1_554 S
C2197 C2198 1.523 . S
C2198 C2179 1.355 1_554 S
C2198 C2192 1.321 1_545 S
C2198 C2197 1.523 . S
C2199 C2183 1.461 . S
C2199 C2195 1.398 1_556 S
C2199 C2200 1.523 . S
C2200 C2184 1.355 1_556 S
C2200 C2196 1.321 1_565 S
C2200 C2199 1.523 . S
H2201 C2176 0.950 . S
H2202 C2178 0.950 . S
H2203 C2179 0.949 . S
H2204 C2181 0.950 . S
H2205 C2183 0.950 . S
C2206 C2207 1.349 1_554 S
C2206 C2208 1.327 . S
C2206 H2231 0.950 . S
C2207 C2206 1.349 1_556 S
C2207 C2223 1.349 . S
C2208 C2206 1.327 . S
C2208 C2227 1.397 1_554 S
C2208 H2232 0.950 . S
C2209 C2226 1.574 . S
C2209 C2228 1.381 . S
C2209 H2233 0.949 . S
H2210 C2214 0.949 . S
C2211 C2212 1.349 1_556 S
C2211 C2213 1.327 . S
C2211 H2234 0.950 . S
C2212 C2211 1.349 1_554 S
C2212 C2224 1.349 . S
C2213 C2211 1.327 . S
C2213 C2229 1.397 1_556 S
C2213 H2235 0.950 . S
C2214 H2210 0.949 . S
C2214 C2222 1.574 . S
C2214 C2230 1.382 . S
H2215 C2223 0.950 . S
H2216 C2221 0.950 . S
H2217 C2222 0.949 . S
H2218 C2224 0.950 . S
H2219 C2225 0.950 . S
H2220 C2226 0.949 . S
C2221 H2216 0.950 . S
C2221 C2223 1.327 . S
C2221 C2227 1.461 . S
C2222 C2214 1.574 . S
C2222 H2217 0.949 . S
C2222 C2228 1.355 1_554 S
C2223 C2207 1.349 . S
C2223 H2215 0.950 . S
C2223 C2221 1.327 . S
C2224 C2212 1.349 . S
C2224 H2218 0.950 . S
C2224 C2225 1.327 . S
C2225 H2219 0.950 . S
C2225 C2224 1.327 . S
C2225 C2229 1.462 . S
C2226 C2209 1.574 . S
C2226 H2220 0.949 . S
C2226 C2230 1.355 1_556 S
C2227 C2208 1.397 1_556 S
C2227 C2221 1.461 . S
C2227 C2228 1.523 . S
C2228 C2209 1.381 . S
C2228 C2222 1.355 1_556 S
C2228 C2227 1.523 . S
C2229 C2213 1.397 1_554 S
C2229 C2225 1.462 . S
C2229 C2230 1.523 . S
C2230 C2214 1.382 . S
C2230 C2226 1.355 1_554 S
C2230 C2229 1.523 . S
H2231 C2206 0.950 . S
H2232 C2208 0.950 . S
H2233 C2209 0.949 . S
H2234 C2211 0.950 . S
H2235 C2213 0.950 . S
C2236 C2237 1.349 . S
C2236 C2238 1.327 . S
C2236 H2261 0.950 . S
C2237 C2236 1.349 . S
C2237 C2253 1.349 . S
C2238 C2236 1.327 . S
C2238 C2257 1.429 . S
C2238 H2262 0.950 . S
C2239 C2256 1.574 . S
C2239 C2258 1.368 . S
C2239 H2263 0.949 . S
H2240 C2244 0.949 . S
C2241 C2242 1.349 . S
C2241 C2243 1.327 . S
C2241 H2264 0.950 . S
C2242 C2241 1.349 . S
C2242 C2254 1.349 . S
C2243 C2241 1.327 . S
C2243 C2259 1.429 . S
C2243 H2265 0.950 . S
C2244 H2240 0.949 . S
C2244 C2252 1.574 . S
C2244 C2260 1.368 . S
H2245 C2253 0.950 . S
H2246 C2251 0.950 . S
H2247 C2252 0.949 . S
H2248 C2254 0.950 . S
H2249 C2255 0.950 . S
H2250 C2256 0.949 . S
C2251 H2246 0.950 . S
C2251 C2253 1.327 . S
C2251 C2257 1.429 . S
C2252 C2244 1.574 . S
C2252 H2247 0.949 . S
C2252 C2258 1.368 . S
C2253 C2237 1.349 . S
C2253 H2245 0.950 . S
C2253 C2251 1.327 . S
C2254 C2242 1.349 . S
C2254 H2248 0.950 . S
C2254 C2255 1.327 . S
C2255 H2249 0.950 . S
C2255 C2254 1.327 . S
C2255 C2259 1.429 . S
C2256 C2239 1.574 . S
C2256 H2250 0.949 . S
C2256 C2260 1.368 . S
C2257 C2238 1.429 . S
C2257 C2251 1.429 . S
C2257 C2258 1.523 . S
C2258 C2239 1.368 . S
C2258 C2252 1.368 . S
C2258 C2257 1.523 . S
C2259 C2243 1.429 . S
C2259 C2255 1.429 . S
C2259 C2260 1.523 . S
C2260 C2244 1.368 . S
C2260 C2256 1.368 . S
C2260 C2259 1.523 . S
H2261 C2236 0.950 . S
H2262 C2238 0.950 . S
H2263 C2239 0.949 . S
H2264 C2241 0.950 . S
H2265 C2243 0.950 . S
C2266 C2267 1.349 . S
C2266 C2268 1.327 . S
C2266 H2291 0.950 . S
C2267 C2266 1.349 . S
C2267 C2283 1.349 . S
C2268 C2266 1.327 . S
C2268 C2287 1.429 . S
C2268 H2292 0.950 . S
C2269 C2286 1.593 . S
C2269 C2288 1.368 . S
C2269 H2293 0.949 . S
H2270 C2274 0.949 . S
C2271 C2272 1.349 . S
C2271 C2273 1.327 . S
C2271 H2294 0.950 . S
C2272 C2271 1.349 . S
C2272 C2284 1.349 . S
C2273 C2271 1.327 . S
C2273 C2289 1.429 . S
C2273 H2295 0.950 . S
C2274 H2270 0.949 . S
C2274 C2282 1.593 . S
C2274 C2290 1.368 . S
H2275 C2283 0.950 . S
H2276 C2281 0.950 . S
H2277 C2282 0.949 . S
H2278 C2284 0.950 . S
H2279 C2285 0.950 . S
H2280 C2286 0.949 . S
C2281 H2276 0.950 . S
C2281 C2283 1.327 . S
C2281 C2287 1.429 . S
C2282 C2274 1.593 . S
C2282 H2277 0.949 . S
C2282 C2288 1.349 1_545 S
C2283 C2267 1.349 . S
C2283 H2275 0.950 . S
C2283 C2281 1.327 . S
C2284 C2272 1.349 . S
C2284 H2278 0.950 . S
C2284 C2285 1.327 . S
C2285 H2279 0.950 . S
C2285 C2284 1.327 . S
C2285 C2289 1.429 . S
C2286 C2269 1.593 . S
C2286 H2280 0.949 . S
C2286 C2290 1.349 1_565 S
C2287 C2268 1.429 . S
C2287 C2281 1.429 . S
C2287 C2288 1.523 . S
C2288 C2269 1.368 . S
C2288 C2282 1.349 1_565 S
C2288 C2287 1.523 . S
C2289 C2273 1.429 . S
C2289 C2285 1.429 . S
C2289 C2290 1.523 . S
C2290 C2274 1.368 . S
C2290 C2286 1.349 1_545 S
C2290 C2289 1.523 . S
H2291 C2266 0.950 . S
H2292 C2268 0.950 . S
H2293 C2269 0.949 . S
H2294 C2271 0.950 . S
H2295 C2273 0.950 . S
C2296 C2297 1.349 . S
C2296 C2298 1.327 . S
C2296 H2321 0.950 . S
C2297 C2296 1.349 . S
C2297 C2313 1.349 1_554 S
C2298 C2296 1.327 . S
C2298 C2317 1.460 . S
C2298 H2322 0.950 . S
C2299 C2316 1.574 . S
C2299 C2318 1.356 1_556 S
C2299 H2323 0.949 . S
H2300 C2304 0.949 . S
C2301 C2302 1.349 . S
C2301 C2303 1.327 . S
C2301 H2324 0.950 . S
C2302 C2301 1.349 . S
C2302 C2314 1.349 1_556 S
C2303 C2301 1.327 . S
C2303 C2319 1.460 . S
C2303 H2325 0.950 . S
C2304 H2300 0.949 . S
C2304 C2312 1.574 . S
C2304 C2320 1.356 1_554 S
H2305 C2313 0.950 . S
H2306 C2311 0.950 . S
H2307 C2312 0.949 . S
H2308 C2314 0.950 . S
H2309 C2315 0.950 . S
H2310 C2316 0.949 . S
C2311 H2306 0.950 . S
C2311 C2313 1.327 . S
C2311 C2317 1.399 1_556 S
C2312 C2304 1.574 . S
C2312 H2307 0.949 . S
C2312 C2318 1.381 . S
C2313 C2297 1.349 1_556 S
C2313 H2305 0.950 . S
C2313 C2311 1.327 . S
C2314 C2302 1.349 1_554 S
C2314 H2308 0.950 . S
C2314 C2315 1.327 . S
C2315 H2309 0.950 . S
C2315 C2314 1.327 . S
C2315 C2319 1.399 1_554 S
C2316 C2299 1.574 . S
C2316 H2310 0.949 . S
C2316 C2320 1.381 . S
C2317 C2298 1.460 . S
C2317 C2311 1.399 1_554 S
C2317 C2318 1.523 . S
C2318 C2299 1.356 1_554 S
C2318 C2312 1.381 . S
C2318 C2317 1.523 . S
C2319 C2303 1.460 . S
C2319 C2315 1.399 1_556 S
C2319 C2320 1.523 . S
C2320 C2304 1.356 1_556 S
C2320 C2316 1.381 . S
C2320 C2319 1.523 . S
H2321 C2296 0.950 . S
H2322 C2298 0.950 . S
H2323 C2299 0.949 . S
H2324 C2301 0.950 . S
H2325 C2303 0.950 . S
C2326 C2327 1.349 . S
C2326 C2328 1.327 . S
C2326 H2351 0.950 . S
C2327 C2326 1.349 . S
C2327 C2343 1.349 . S
C2328 C2326 1.327 . S
C2328 C2347 1.429 . S
C2328 H2352 0.950 . S
C2329 C2346 1.574 . S
C2329 C2348 1.368 . S
C2329 H2353 0.949 . S
H2330 C2334 0.949 . S
C2331 C2332 1.349 . S
C2331 C2333 1.327 . S
C2331 H2354 0.950 . S
C2332 C2331 1.349 . S
C2332 C2344 1.349 . S
C2333 C2331 1.327 . S
C2333 C2349 1.429 . S
C2333 H2355 0.950 . S
C2334 H2330 0.949 . S
C2334 C2342 1.574 . S
C2334 C2350 1.368 . S
H2335 C2343 0.950 . S
H2336 C2341 0.950 . S
H2337 C2342 0.949 . S
H2338 C2344 0.950 . S
H2339 C2345 0.950 . S
H2340 C2346 0.949 . S
C2341 H2336 0.950 . S
C2341 C2343 1.327 . S
C2341 C2347 1.429 . S
C2342 C2334 1.574 . S
C2342 H2337 0.949 . S
C2342 C2348 1.368 . S
C2343 C2327 1.349 . S
C2343 H2335 0.950 . S
C2343 C2341 1.327 . S
C2344 C2332 1.349 . S
C2344 H2338 0.950 . S
C2344 C2345 1.327 . S
C2345 H2339 0.950 . S
C2345 C2344 1.327 . S
C2345 C2349 1.429 . S
C2346 C2329 1.574 . S
C2346 H2340 0.949 . S
C2346 C2350 1.368 . S
C2347 C2328 1.429 . S
C2347 C2341 1.429 . S
C2347 C2348 1.523 . S
C2348 C2329 1.368 . S
C2348 C2342 1.368 . S
C2348 C2347 1.523 . S
C2349 C2333 1.429 . S
C2349 C2345 1.429 . S
C2349 C2350 1.523 . S
C2350 C2334 1.368 . S
C2350 C2346 1.368 . S
C2350 C2349 1.523 . S
H2351 C2326 0.950 . S
H2352 C2328 0.950 . S
H2353 C2329 0.949 . S
H2354 C2331 0.950 . S
H2355 C2333 0.950 . S
C2356 C2357 1.349 . S
C2356 C2358 1.327 . S
C2356 H2381 0.950 . S
C2357 C2356 1.349 . S
C2357 C2373 1.349 . S
C2358 C2356 1.327 . S
C2358 C2377 1.429 . S
C2358 H2382 0.950 . S
C2359 C2376 1.605 . S
C2359 C2378 1.337 1_545 S
C2359 H2383 0.949 . S
H2360 C2364 0.949 . S
C2361 C2362 1.349 . S
C2361 C2363 1.327 . S
C2361 H2384 0.950 . S
C2362 C2361 1.349 . S
C2362 C2374 1.349 . S
C2363 C2361 1.327 . S
C2363 C2379 1.429 . S
C2363 H2385 0.950 . S
C2364 H2360 0.949 . S
C2364 C2372 1.605 . S
C2364 C2380 1.336 1_565 S
H2365 C2373 0.950 . S
H2366 C2371 0.950 . S
H2367 C2372 0.949 . S
H2368 C2374 0.950 . S
H2369 C2375 0.950 . S
H2370 C2376 0.949 . S
C2371 H2366 0.950 . S
C2371 C2373 1.327 . S
C2371 C2377 1.429 . S
C2372 C2364 1.605 . S
C2372 H2367 0.949 . S
C2372 C2378 1.368 . S
C2373 C2357 1.349 . S
C2373 H2365 0.950 . S
C2373 C2371 1.327 . S
C2374 C2362 1.349 . S
C2374 H2368 0.950 . S
C2374 C2375 1.327 . S
C2375 H2369 0.950 . S
C2375 C2374 1.327 . S
C2375 C2379 1.429 . S
C2376 C2359 1.605 . S
C2376 H2370 0.949 . S
C2376 C2380 1.368 . S
C2377 C2358 1.429 . S
C2377 C2371 1.429 . S
C2377 C2378 1.523 . S
C2378 C2359 1.337 1_565 S
C2378 C2372 1.368 . S
C2378 C2377 1.523 . S
C2379 C2363 1.429 . S
C2379 C2375 1.429 . S
C2379 C2380 1.523 . S
C2380 C2364 1.336 1_545 S
C2380 C2376 1.368 . S
C2380 C2379 1.523 . S
H2381 C2356 0.950 . S
H2382 C2358 0.950 . S
H2383 C2359 0.949 . S
H2384 C2361 0.950 . S
H2385 C2363 0.950 . S
C2386 C2387 1.349 . S
C2386 C2388 1.327 . S
C2386 H2411 0.950 . S
C2387 C2386 1.349 . S
C2387 C2403 1.349 . S
C2388 C2386 1.327 . S
C2388 C2407 1.429 . S
C2388 H2412 0.950 . S
C2389 C2406 1.574 . S
C2389 C2408 1.368 . S
C2389 H2413 0.949 . S
H2390 C2394 0.949 . S
C2391 C2392 1.349 . S
C2391 C2393 1.327 . S
C2391 H2414 0.950 . S
C2392 C2391 1.349 . S
C2392 C2404 1.349 . S
C2393 C2391 1.327 . S
C2393 C2409 1.429 . S
C2393 H2415 0.950 . S
C2394 H2390 0.949 . S
C2394 C2402 1.574 . S
C2394 C2410 1.368 . S
H2395 C2403 0.950 . S
H2396 C2401 0.950 . S
H2397 C2402 0.949 . S
H2398 C2404 0.950 . S
H2399 C2405 0.950 . S
H2400 C2406 0.949 . S
C2401 H2396 0.950 . S
C2401 C2403 1.327 . S
C2401 C2407 1.429 . S
C2402 C2394 1.574 . S
C2402 H2397 0.949 . S
C2402 C2408 1.368 . S
C2403 C2387 1.349 . S
C2403 H2395 0.950 . S
C2403 C2401 1.327 . S
C2404 C2392 1.349 . S
C2404 H2398 0.950 . S
C2404 C2405 1.327 . S
C2405 H2399 0.950 . S
C2405 C2404 1.327 . S
C2405 C2409 1.429 . S
C2406 C2389 1.574 . S
C2406 H2400 0.949 . S
C2406 C2410 1.368 . S
C2407 C2388 1.429 . S
C2407 C2401 1.429 . S
C2407 C2408 1.523 . S
C2408 C2389 1.368 . S
C2408 C2402 1.368 . S
C2408 C2407 1.523 . S
C2409 C2393 1.429 . S
C2409 C2405 1.429 . S
C2409 C2410 1.523 . S
C2410 C2394 1.368 . S
C2410 C2406 1.368 . S
C2410 C2409 1.523 . S
H2411 C2386 0.950 . S
H2412 C2388 0.950 . S
H2413 C2389 0.949 . S
H2414 C2391 0.950 . S
H2415 C2393 0.950 . S
C2416 C2417 1.349 . S
C2416 C2418 1.327 . S
C2416 H2441 0.950 . S
C2417 C2416 1.349 . S
C2417 C2433 1.349 . S
C2418 C2416 1.327 . S
C2418 C2437 1.429 . S
C2418 H2442 0.950 . S
C2419 C2436 1.574 . S
C2419 C2438 1.368 . S
C2419 H2443 0.949 . S
H2420 C2424 0.949 . S
C2421 C2422 1.349 . S
C2421 C2423 1.327 . S
C2421 H2444 0.950 . S
C2422 C2421 1.349 . S
C2422 C2434 1.349 . S
C2423 C2421 1.327 . S
C2423 C2439 1.429 . S
C2423 H2445 0.950 . S
C2424 H2420 0.949 . S
C2424 C2432 1.574 . S
C2424 C2440 1.368 . S
H2425 C2433 0.950 . S
H2426 C2431 0.950 . S
H2427 C2432 0.949 . S
H2428 C2434 0.950 . S
H2429 C2435 0.950 . S
H2430 C2436 0.949 . S
C2431 H2426 0.950 . S
C2431 C2433 1.327 . S
C2431 C2437 1.429 . S
C2432 C2424 1.574 . S
C2432 H2427 0.949 . S
C2432 C2438 1.368 . S
C2433 C2417 1.349 . S
C2433 H2425 0.950 . S
C2433 C2431 1.327 . S
C2434 C2422 1.349 . S
C2434 H2428 0.950 . S
C2434 C2435 1.327 . S
C2435 H2429 0.950 . S
C2435 C2434 1.327 . S
C2435 C2439 1.429 . S
C2436 C2419 1.574 . S
C2436 H2430 0.949 . S
C2436 C2440 1.368 . S
C2437 C2418 1.429 . S
C2437 C2431 1.429 . S
C2437 C2438 1.523 . S
C2438 C2419 1.368 . S
C2438 C2432 1.368 . S
C2438 C2437 1.523 . S
C2439 C2423 1.429 . S
C2439 C2435 1.429 . S
C2439 C2440 1.523 . S
C2440 C2424 1.368 . S
C2440 C2436 1.368 . S
C2440 C2439 1.523 . S
H2441 C2416 0.950 . S
H2442 C2418 0.950 . S
H2443 C2419 0.949 . S
H2444 C2421 0.950 . S
H2445 C2423 0.950 . S
C2446 C2447 1.349 . S
C2446 C2448 1.327 . S
C2446 H2471 0.950 . S
C2447 C2446 1.349 . S
C2447 C2463 1.349 . S
C2448 C2446 1.327 . S
C2448 C2467 1.429 . S
C2448 H2472 0.950 . S
C2449 C2466 1.574 . S
C2449 C2468 1.368 . S
C2449 H2473 0.949 . S
H2450 C2454 0.949 . S
C2451 C2452 1.349 . S
C2451 C2453 1.327 . S
C2451 H2474 0.950 . S
C2452 C2451 1.349 . S
C2452 C2464 1.349 . S
C2453 C2451 1.327 . S
C2453 C2469 1.429 . S
C2453 H2475 0.950 . S
C2454 H2450 0.949 . S
C2454 C2462 1.574 . S
C2454 C2470 1.368 . S
H2455 C2463 0.950 . S
H2456 C2461 0.950 . S
H2457 C2462 0.949 . S
H2458 C2464 0.950 . S
H2459 C2465 0.950 . S
H2460 C2466 0.949 . S
C2461 H2456 0.950 . S
C2461 C2463 1.327 . S
C2461 C2467 1.429 . S
C2462 C2454 1.574 . S
C2462 H2457 0.949 . S
C2462 C2468 1.368 . S
C2463 C2447 1.349 . S
C2463 H2455 0.950 . S
C2463 C2461 1.327 . S
C2464 C2452 1.349 . S
C2464 H2458 0.950 . S
C2464 C2465 1.327 . S
C2465 H2459 0.950 . S
C2465 C2464 1.327 . S
C2465 C2469 1.429 . S
C2466 C2449 1.574 . S
C2466 H2460 0.949 . S
C2466 C2470 1.368 . S
C2467 C2448 1.429 . S
C2467 C2461 1.429 . S
C2467 C2468 1.523 . S
C2468 C2449 1.368 . S
C2468 C2462 1.368 . S
C2468 C2467 1.523 . S
C2469 C2453 1.429 . S
C2469 C2465 1.429 . S
C2469 C2470 1.523 . S
C2470 C2454 1.368 . S
C2470 C2466 1.368 . S
C2470 C2469 1.523 . S
H2471 C2446 0.950 . S
H2472 C2448 0.950 . S
H2473 C2449 0.949 . S
H2474 C2451 0.950 . S
H2475 C2453 0.950 . S
C2476 C2477 1.349 . S
C2476 C2478 1.327 . S
C2476 H2501 0.950 . S
C2477 C2476 1.349 . S
C2477 C2493 1.349 . S
C2478 C2476 1.327 . S
C2478 C2497 1.429 . S
C2478 H2502 0.950 . S
C2479 C2496 1.574 . S
C2479 C2498 1.368 . S
C2479 H2503 0.949 . S
H2480 C2484 0.949 . S
C2481 C2482 1.349 . S
C2481 C2483 1.327 . S
C2481 H2504 0.950 . S
C2482 C2481 1.349 . S
C2482 C2494 1.349 . S
C2483 C2481 1.327 . S
C2483 C2499 1.429 . S
C2483 H2505 0.950 . S
C2484 H2480 0.949 . S
C2484 C2492 1.574 . S
C2484 C2500 1.368 . S
H2485 C2493 0.950 . S
H2486 C2491 0.950 . S
H2487 C2492 0.949 . S
H2488 C2494 0.950 . S
H2489 C2495 0.950 . S
H2490 C2496 0.949 . S
C2491 H2486 0.950 . S
C2491 C2493 1.327 . S
C2491 C2497 1.429 . S
C2492 C2484 1.574 . S
C2492 H2487 0.949 . S
C2492 C2498 1.368 . S
C2493 C2477 1.349 . S
C2493 H2485 0.950 . S
C2493 C2491 1.327 . S
C2494 C2482 1.349 . S
C2494 H2488 0.950 . S
C2494 C2495 1.327 . S
C2495 H2489 0.950 . S
C2495 C2494 1.327 . S
C2495 C2499 1.429 . S
C2496 C2479 1.574 . S
C2496 H2490 0.949 . S
C2496 C2500 1.368 . S
C2497 C2478 1.429 . S
C2497 C2491 1.429 . S
C2497 C2498 1.523 . S
C2498 C2479 1.368 . S
C2498 C2492 1.368 . S
C2498 C2497 1.523 . S
C2499 C2483 1.429 . S
C2499 C2495 1.429 . S
C2499 C2500 1.523 . S
C2500 C2484 1.368 . S
C2500 C2496 1.368 . S
C2500 C2499 1.523 . S
H2501 C2476 0.950 . S
H2502 C2478 0.950 . S
H2503 C2479 0.949 . S
H2504 C2481 0.950 . S
H2505 C2483 0.950 . S
C2506 C2507 1.349 . S
C2506 C2508 1.327 . S
C2506 H2531 0.950 . S
C2507 C2506 1.349 . S
C2507 C2523 1.349 . S
C2508 C2506 1.327 . S
C2508 C2527 1.429 . S
C2508 H2532 0.950 . S
C2509 C2526 1.574 . S
C2509 C2528 1.368 . S
C2509 H2533 0.949 . S
H2510 C2514 0.949 . S
C2511 C2512 1.349 . S
C2511 C2513 1.327 . S
C2511 H2534 0.950 . S
C2512 C2511 1.349 . S
C2512 C2524 1.349 . S
C2513 C2511 1.327 . S
C2513 C2529 1.429 . S
C2513 H2535 0.950 . S
C2514 H2510 0.949 . S
C2514 C2522 1.574 . S
C2514 C2530 1.368 . S
H2515 C2523 0.950 . S
H2516 C2521 0.950 . S
H2517 C2522 0.949 . S
H2518 C2524 0.950 . S
H2519 C2525 0.950 . S
H2520 C2526 0.949 . S
C2521 H2516 0.950 . S
C2521 C2523 1.327 . S
C2521 C2527 1.429 . S
C2522 C2514 1.574 . S
C2522 H2517 0.949 . S
C2522 C2528 1.368 . S
C2523 C2507 1.349 . S
C2523 H2515 0.950 . S
C2523 C2521 1.327 . S
C2524 C2512 1.349 . S
C2524 H2518 0.950 . S
C2524 C2525 1.327 . S
C2525 H2519 0.950 . S
C2525 C2524 1.327 . S
C2525 C2529 1.429 . S
C2526 C2509 1.574 . S
C2526 H2520 0.949 . S
C2526 C2530 1.368 . S
C2527 C2508 1.429 . S
C2527 C2521 1.429 . S
C2527 C2528 1.523 . S
C2528 C2509 1.368 . S
C2528 C2522 1.368 . S
C2528 C2527 1.523 . S
C2529 C2513 1.429 . S
C2529 C2525 1.429 . S
C2529 C2530 1.523 . S
C2530 C2514 1.368 . S
C2530 C2526 1.368 . S
C2530 C2529 1.523 . S
H2531 C2506 0.950 . S
H2532 C2508 0.950 . S
H2533 C2509 0.949 . S
H2534 C2511 0.950 . S
H2535 C2513 0.950 . S
C2536 C2537 1.349 . S
C2536 C2538 1.327 . S
C2536 H2561 0.950 . S
C2537 C2536 1.349 . S
C2537 C2553 1.349 . S
C2538 C2536 1.327 . S
C2538 C2557 1.429 . S
C2538 H2562 0.950 . S
C2539 C2556 1.586 1_455 S
C2539 C2558 1.368 . S
C2539 H2563 0.949 . S
H2540 C2544 0.949 . S
C2541 C2542 1.349 . S
C2541 C2543 1.327 . S
C2541 H2564 0.950 . S
C2542 C2541 1.349 . S
C2542 C2554 1.349 . S
C2543 C2541 1.327 . S
C2543 C2559 1.429 . S
C2543 H2565 0.950 . S
C2544 H2540 0.949 . S
C2544 C2552 1.586 1_655 S
C2544 C2560 1.368 . S
H2545 C2553 0.950 . S
H2546 C2551 0.950 . S
H2547 C2552 0.949 . S
H2548 C2554 0.950 . S
H2549 C2555 0.950 . S
H2550 C2556 0.949 . S
C2551 H2546 0.950 . S
C2551 C2553 1.327 . S
C2551 C2557 1.429 . S
C2552 C2544 1.586 1_455 S
C2552 H2547 0.949 . S
C2552 C2558 1.356 1_545 S
C2553 C2537 1.349 . S
C2553 H2545 0.950 . S
C2553 C2551 1.327 . S
C2554 C2542 1.349 . S
C2554 H2548 0.950 . S
C2554 C2555 1.327 . S
C2555 H2549 0.950 . S
C2555 C2554 1.327 . S
C2555 C2559 1.429 . S
C2556 C2539 1.586 1_655 S
C2556 H2550 0.949 . S
C2556 C2560 1.356 1_565 S
C2557 C2538 1.429 . S
C2557 C2551 1.429 . S
C2557 C2558 1.523 . S
C2558 C2539 1.368 . S
C2558 C2552 1.356 1_565 S
C2558 C2557 1.523 . S
C2559 C2543 1.429 . S
C2559 C2555 1.429 . S
C2559 C2560 1.523 . S
C2560 C2544 1.368 . S
C2560 C2556 1.356 1_545 S
C2560 C2559 1.523 . S
H2561 C2536 0.950 . S
H2562 C2538 0.950 . S
H2563 C2539 0.949 . S
H2564 C2541 0.950 . S
H2565 C2543 0.950 . S
C2566 C2567 1.349 . S
C2566 C2568 1.327 . S
C2566 H2591 0.950 . S
C2567 C2566 1.349 . S
C2567 C2583 1.349 . S
C2568 C2566 1.327 . S
C2568 C2587 1.429 . S
C2568 H2592 0.950 . S
C2569 C2586 1.574 1_655 S
C2569 C2588 1.368 . S
C2569 H2593 0.949 . S
H2570 C2574 0.949 . S
C2571 C2572 1.349 . S
C2571 C2573 1.327 . S
C2571 H2594 0.950 . S
C2572 C2571 1.349 . S
C2572 C2584 1.349 . S
C2573 C2571 1.327 . S
C2573 C2589 1.429 . S
C2573 H2595 0.950 . S
C2574 H2570 0.949 . S
C2574 C2582 1.574 1_455 S
C2574 C2590 1.368 . S
H2575 C2583 0.950 . S
H2576 C2581 0.950 . S
H2577 C2582 0.949 . S
H2578 C2584 0.950 . S
H2579 C2585 0.950 . S
H2580 C2586 0.949 . S
C2581 H2576 0.950 . S
C2581 C2583 1.327 . S
C2581 C2587 1.429 . S
C2582 C2574 1.574 1_655 S
C2582 H2577 0.949 . S
C2582 C2588 1.368 . S
C2583 C2567 1.349 . S
C2583 H2575 0.950 . S
C2583 C2581 1.327 . S
C2584 C2572 1.349 . S
C2584 H2578 0.950 . S
C2584 C2585 1.327 . S
C2585 H2579 0.950 . S
C2585 C2584 1.327 . S
C2585 C2589 1.429 . S
C2586 C2569 1.574 1_455 S
C2586 H2580 0.949 . S
C2586 C2590 1.368 . S
C2587 C2568 1.429 . S
C2587 C2581 1.429 . S
C2587 C2588 1.523 . S
C2588 C2569 1.368 . S
C2588 C2582 1.368 . S
C2588 C2587 1.523 . S
C2589 C2573 1.429 . S
C2589 C2585 1.429 . S
C2589 C2590 1.523 . S
C2590 C2574 1.368 . S
C2590 C2586 1.368 . S
C2590 C2589 1.523 . S
H2591 C2566 0.950 . S
H2592 C2568 0.950 . S
H2593 C2569 0.949 . S
H2594 C2571 0.950 . S
H2595 C2573 0.950 . S
C2596 C2597 1.349 . S
C2596 C2598 1.327 . S
C2596 H2621 0.950 . S
C2597 C2596 1.349 . S
C2597 C2613 1.349 . S
C2598 C2596 1.327 . S
C2598 C2617 1.429 . S
C2598 H2622 0.950 . S
C2599 C2616 1.574 1_455 S
C2599 C2618 1.368 . S
C2599 H2623 0.949 . S
H2600 C2604 0.949 . S
C2601 C2602 1.349 . S
C2601 C2603 1.327 . S
C2601 H2624 0.950 . S
C2602 C2601 1.349 . S
C2602 C2614 1.349 . S
C2603 C2601 1.327 . S
C2603 C2619 1.429 . S
C2603 H2625 0.950 . S
C2604 H2600 0.949 . S
C2604 C2612 1.574 1_655 S
C2604 C2620 1.368 . S
H2605 C2613 0.950 . S
H2606 C2611 0.950 . S
H2607 C2612 0.949 . S
H2608 C2614 0.950 . S
H2609 C2615 0.950 . S
H2610 C2616 0.949 . S
C2611 H2606 0.950 . S
C2611 C2613 1.327 . S
C2611 C2617 1.429 . S
C2612 C2604 1.574 1_455 S
C2612 H2607 0.949 . S
C2612 C2618 1.368 . S
C2613 C2597 1.349 . S
C2613 H2605 0.950 . S
C2613 C2611 1.327 . S
C2614 C2602 1.349 . S
C2614 H2608 0.950 . S
C2614 C2615 1.327 . S
C2615 H2609 0.950 . S
C2615 C2614 1.327 . S
C2615 C2619 1.429 . S
C2616 C2599 1.574 1_655 S
C2616 H2610 0.949 . S
C2616 C2620 1.368 . S
C2617 C2598 1.429 . S
C2617 C2611 1.429 . S
C2617 C2618 1.523 . S
C2618 C2599 1.368 . S
C2618 C2612 1.368 . S
C2618 C2617 1.523 . S
C2619 C2603 1.429 . S
C2619 C2615 1.429 . S
C2619 C2620 1.523 . S
C2620 C2604 1.368 . S
C2620 C2616 1.368 . S
C2620 C2619 1.523 . S
H2621 C2596 0.950 . S
H2622 C2598 0.950 . S
H2623 C2599 0.949 . S
H2624 C2601 0.950 . S
H2625 C2603 0.950 . S
C2626 C2627 1.349 . S
C2626 C2628 1.327 . S
C2626 H2651 0.950 . S
C2627 C2626 1.349 . S
C2627 C2643 1.349 1_556 S
C2628 C2626 1.327 . S
C2628 C2647 1.461 . S
C2628 H2652 0.950 . S
C2629 C2646 1.574 1_455 S
C2629 C2648 1.355 1_554 S
C2629 H2653 0.949 . S
H2630 C2634 0.949 . S
C2631 C2632 1.349 . S
C2631 C2633 1.327 . S
C2631 H2654 0.950 . S
C2632 C2631 1.349 . S
C2632 C2644 1.349 1_554 S
C2633 C2631 1.327 . S
C2633 C2649 1.461 . S
C2633 H2655 0.950 . S
C2634 H2630 0.949 . S
C2634 C2642 1.574 1_655 S
C2634 C2650 1.355 1_556 S
H2635 C2643 0.950 . S
H2636 C2641 0.950 . S
H2637 C2642 0.949 . S
H2638 C2644 0.950 . S
H2639 C2645 0.950 . S
H2640 C2646 0.949 . S
C2641 H2636 0.950 . S
C2641 C2643 1.327 . S
C2641 C2647 1.398 1_554 S
C2642 C2634 1.574 1_455 S
C2642 H2637 0.949 . S
C2642 C2648 1.381 . S
C2643 C2627 1.349 1_554 S
C2643 H2635 0.950 . S
C2643 C2641 1.327 . S
C2644 C2632 1.349 1_556 S
C2644 H2638 0.950 . S
C2644 C2645 1.327 . S
C2645 H2639 0.950 . S
C2645 C2644 1.327 . S
C2645 C2649 1.398 1_556 S
C2646 C2629 1.574 1_655 S
C2646 H2640 0.949 . S
C2646 C2650 1.381 . S
C2647 C2628 1.461 . S
C2647 C2641 1.398 1_556 S
C2647 C2648 1.523 . S
C2648 C2629 1.355 1_556 S
C2648 C2642 1.381 . S
C2648 C2647 1.523 . S
C2649 C2633 1.461 . S
C2649 C2645 1.398 1_554 S
C2649 C2650 1.523 . S
C2650 C2634 1.355 1_554 S
C2650 C2646 1.381 . S
C2650 C2649 1.523 . S
H2651 C2626 0.950 . S
H2652 C2628 0.950 . S
H2653 C2629 0.949 . S
H2654 C2631 0.950 . S
H2655 C2633 0.950 . S
C2656 C2657 1.349 . S
C2656 C2658 1.327 . S
C2656 H2681 0.950 . S
C2657 C2656 1.349 . S
C2657 C2673 1.349 . S
C2658 C2656 1.327 . S
C2658 C2677 1.429 . S
C2658 H2682 0.950 . S
C2659 C2676 1.574 . S
C2659 C2678 1.368 . S
C2659 H2683 0.949 . S
H2660 C2664 0.949 . S
C2661 C2662 1.349 . S
C2661 C2663 1.327 . S
C2661 H2684 0.950 . S
C2662 C2661 1.349 . S
C2662 C2674 1.349 . S
C2663 C2661 1.327 . S
C2663 C2679 1.429 . S
C2663 H2685 0.950 . S
C2664 H2660 0.949 . S
C2664 C2672 1.574 . S
C2664 C2680 1.368 . S
H2665 C2673 0.950 . S
H2666 C2671 0.950 . S
H2667 C2672 0.949 . S
H2668 C2674 0.950 . S
H2669 C2675 0.950 . S
H2670 C2676 0.949 . S
C2671 H2666 0.950 . S
C2671 C2673 1.327 . S
C2671 C2677 1.429 . S
C2672 C2664 1.574 . S
C2672 H2667 0.949 . S
C2672 C2678 1.368 . S
C2673 C2657 1.349 . S
C2673 H2665 0.950 . S
C2673 C2671 1.327 . S
C2674 C2662 1.349 . S
C2674 H2668 0.950 . S
C2674 C2675 1.327 . S
C2675 H2669 0.950 . S
C2675 C2674 1.327 . S
C2675 C2679 1.429 . S
C2676 C2659 1.574 . S
C2676 H2670 0.949 . S
C2676 C2680 1.368 . S
C2677 C2658 1.429 . S
C2677 C2671 1.429 . S
C2677 C2678 1.523 . S
C2678 C2659 1.368 . S
C2678 C2672 1.368 . S
C2678 C2677 1.523 . S
C2679 C2663 1.429 . S
C2679 C2675 1.429 . S
C2679 C2680 1.523 . S
C2680 C2664 1.368 . S
C2680 C2676 1.368 . S
C2680 C2679 1.523 . S
H2681 C2656 0.950 . S
H2682 C2658 0.950 . S
H2683 C2659 0.949 . S
H2684 C2661 0.950 . S
H2685 C2663 0.950 . S
C2686 C2687 1.349 . S
C2686 C2688 1.327 . S
C2686 H2711 0.950 . S
C2687 C2686 1.349 . S
C2687 C2703 1.349 . S
C2688 C2686 1.327 . S
C2688 C2707 1.429 . S
C2688 H2712 0.950 . S
C2689 C2706 1.574 . S
C2689 C2708 1.368 . S
C2689 H2713 0.949 . S
H2690 C2694 0.949 . S
C2691 C2692 1.349 . S
C2691 C2693 1.327 . S
C2691 H2714 0.950 . S
C2692 C2691 1.349 . S
C2692 C2704 1.349 . S
C2693 C2691 1.327 . S
C2693 C2709 1.429 . S
C2693 H2715 0.950 . S
C2694 H2690 0.949 . S
C2694 C2702 1.574 . S
C2694 C2710 1.368 . S
H2695 C2703 0.950 . S
H2696 C2701 0.950 . S
H2697 C2702 0.949 . S
H2698 C2704 0.950 . S
H2699 C2705 0.950 . S
H2700 C2706 0.949 . S
C2701 H2696 0.950 . S
C2701 C2703 1.327 . S
C2701 C2707 1.429 . S
C2702 C2694 1.574 . S
C2702 H2697 0.949 . S
C2702 C2708 1.368 . S
C2703 C2687 1.349 . S
C2703 H2695 0.950 . S
C2703 C2701 1.327 . S
C2704 C2692 1.349 . S
C2704 H2698 0.950 . S
C2704 C2705 1.327 . S
C2705 H2699 0.950 . S
C2705 C2704 1.327 . S
C2705 C2709 1.429 . S
C2706 C2689 1.574 . S
C2706 H2700 0.949 . S
C2706 C2710 1.368 . S
C2707 C2688 1.429 . S
C2707 C2701 1.429 . S
C2707 C2708 1.523 . S
C2708 C2689 1.368 . S
C2708 C2702 1.368 . S
C2708 C2707 1.523 . S
C2709 C2693 1.429 . S
C2709 C2705 1.429 . S
C2709 C2710 1.523 . S
C2710 C2694 1.368 . S
C2710 C2706 1.368 . S
C2710 C2709 1.523 . S
H2711 C2686 0.950 . S
H2712 C2688 0.950 . S
H2713 C2689 0.949 . S
H2714 C2691 0.950 . S
H2715 C2693 0.950 . S
C2716 C2717 1.349 . S
C2716 C2718 1.327 . S
C2716 H2741 0.950 . S
C2717 C2716 1.349 . S
C2717 C2733 1.349 . S
C2718 C2716 1.327 . S
C2718 C2737 1.429 . S
C2718 H2742 0.950 . S
C2719 C2736 1.574 . S
C2719 C2738 1.368 . S
C2719 H2743 0.949 . S
H2720 C2724 0.949 . S
C2721 C2722 1.349 . S
C2721 C2723 1.327 . S
C2721 H2744 0.950 . S
C2722 C2721 1.349 . S
C2722 C2734 1.349 . S
C2723 C2721 1.327 . S
C2723 C2739 1.429 . S
C2723 H2745 0.950 . S
C2724 H2720 0.949 . S
C2724 C2732 1.574 . S
C2724 C2740 1.368 . S
H2725 C2733 0.950 . S
H2726 C2731 0.950 . S
H2727 C2732 0.949 . S
H2728 C2734 0.950 . S
H2729 C2735 0.950 . S
H2730 C2736 0.949 . S
C2731 H2726 0.950 . S
C2731 C2733 1.327 . S
C2731 C2737 1.429 . S
C2732 C2724 1.574 . S
C2732 H2727 0.949 . S
C2732 C2738 1.368 . S
C2733 C2717 1.349 . S
C2733 H2725 0.950 . S
C2733 C2731 1.327 . S
C2734 C2722 1.349 . S
C2734 H2728 0.950 . S
C2734 C2735 1.327 . S
C2735 H2729 0.950 . S
C2735 C2734 1.327 . S
C2735 C2739 1.429 . S
C2736 C2719 1.574 . S
C2736 H2730 0.949 . S
C2736 C2740 1.368 . S
C2737 C2718 1.429 . S
C2737 C2731 1.429 . S
C2737 C2738 1.523 . S
C2738 C2719 1.368 . S
C2738 C2732 1.368 . S
C2738 C2737 1.523 . S
C2739 C2723 1.429 . S
C2739 C2735 1.429 . S
C2739 C2740 1.523 . S
C2740 C2724 1.368 . S
C2740 C2736 1.368 . S
C2740 C2739 1.523 . S
H2741 C2716 0.950 . S
H2742 C2718 0.950 . S
H2743 C2719 0.949 . S
H2744 C2721 0.950 . S
H2745 C2723 0.950 . S
C2746 C2747 1.349 . S
C2746 C2748 1.327 . S
C2746 H2771 0.950 . S
C2747 C2746 1.349 . S
C2747 C2763 1.349 . S
C2748 C2746 1.327 . S
C2748 C2767 1.429 . S
C2748 H2772 0.950 . S
C2749 C2766 1.574 . S
C2749 C2768 1.368 . S
C2749 H2773 0.949 . S
H2750 C2754 0.949 . S
C2751 C2752 1.349 . S
C2751 C2753 1.327 . S
C2751 H2774 0.950 . S
C2752 C2751 1.349 . S
C2752 C2764 1.349 . S
C2753 C2751 1.327 . S
C2753 C2769 1.429 . S
C2753 H2775 0.950 . S
C2754 H2750 0.949 . S
C2754 C2762 1.574 . S
C2754 C2770 1.368 . S
H2755 C2763 0.950 . S
H2756 C2761 0.950 . S
H2757 C2762 0.949 . S
H2758 C2764 0.950 . S
H2759 C2765 0.950 . S
H2760 C2766 0.949 . S
C2761 H2756 0.950 . S
C2761 C2763 1.327 . S
C2761 C2767 1.429 . S
C2762 C2754 1.574 . S
C2762 H2757 0.949 . S
C2762 C2768 1.368 . S
C2763 C2747 1.349 . S
C2763 H2755 0.950 . S
C2763 C2761 1.327 . S
C2764 C2752 1.349 . S
C2764 H2758 0.950 . S
C2764 C2765 1.327 . S
C2765 H2759 0.950 . S
C2765 C2764 1.327 . S
C2765 C2769 1.429 . S
C2766 C2749 1.574 . S
C2766 H2760 0.949 . S
C2766 C2770 1.368 . S
C2767 C2748 1.429 . S
C2767 C2761 1.429 . S
C2767 C2768 1.523 . S
C2768 C2749 1.368 . S
C2768 C2762 1.368 . S
C2768 C2767 1.523 . S
C2769 C2753 1.429 . S
C2769 C2765 1.429 . S
C2769 C2770 1.523 . S
C2770 C2754 1.368 . S
C2770 C2766 1.368 . S
C2770 C2769 1.523 . S
H2771 C2746 0.950 . S
H2772 C2748 0.950 . S
H2773 C2749 0.949 . S
H2774 C2751 0.950 . S
H2775 C2753 0.950 . S
C2776 C2777 1.349 . S
C2776 C2778 1.327 . S
C2776 H2801 0.950 . S
C2777 C2776 1.349 . S
C2777 C2793 1.349 . S
C2778 C2776 1.327 . S
C2778 C2797 1.429 . S
C2778 H2802 0.950 . S
C2779 C2796 1.574 . S
C2779 C2798 1.368 . S
C2779 H2803 0.949 . S
H2780 C2784 0.949 . S
C2781 C2782 1.349 . S
C2781 C2783 1.327 . S
C2781 H2804 0.950 . S
C2782 C2781 1.349 . S
C2782 C2794 1.349 . S
C2783 C2781 1.327 . S
C2783 C2799 1.429 . S
C2783 H2805 0.950 . S
C2784 H2780 0.949 . S
C2784 C2792 1.574 . S
C2784 C2800 1.368 . S
H2785 C2793 0.950 . S
H2786 C2791 0.950 . S
H2787 C2792 0.949 . S
H2788 C2794 0.950 . S
H2789 C2795 0.950 . S
H2790 C2796 0.949 . S
C2791 H2786 0.950 . S
C2791 C2793 1.327 . S
C2791 C2797 1.429 . S
C2792 C2784 1.574 . S
C2792 H2787 0.949 . S
C2792 C2798 1.368 . S
C2793 C2777 1.349 . S
C2793 H2785 0.950 . S
C2793 C2791 1.327 . S
C2794 C2782 1.349 . S
C2794 H2788 0.950 . S
C2794 C2795 1.327 . S
C2795 H2789 0.950 . S
C2795 C2794 1.327 . S
C2795 C2799 1.429 . S
C2796 C2779 1.574 . S
C2796 H2790 0.949 . S
C2796 C2800 1.368 . S
C2797 C2778 1.429 . S
C2797 C2791 1.429 . S
C2797 C2798 1.523 . S
C2798 C2779 1.368 . S
C2798 C2792 1.368 . S
C2798 C2797 1.523 . S
C2799 C2783 1.429 . S
C2799 C2795 1.429 . S
C2799 C2800 1.523 . S
C2800 C2784 1.368 . S
C2800 C2796 1.368 . S
C2800 C2799 1.523 . S
H2801 C2776 0.950 . S
H2802 C2778 0.950 . S
H2803 C2779 0.949 . S
H2804 C2781 0.950 . S
H2805 C2783 0.950 . S
C2806 C2807 1.349 . S
C2806 C2808 1.327 . S
C2806 H2831 0.950 . S
C2807 C2806 1.349 . S
C2807 C2823 1.349 . S
C2808 C2806 1.327 . S
C2808 C2827 1.429 . S
C2808 H2832 0.950 . S
C2809 C2826 1.574 . S
C2809 C2828 1.368 . S
C2809 H2833 0.949 . S
H2810 C2814 0.949 . S
C2811 C2812 1.349 . S
C2811 C2813 1.327 . S
C2811 H2834 0.950 . S
C2812 C2811 1.349 . S
C2812 C2824 1.349 . S
C2813 C2811 1.327 . S
C2813 C2829 1.429 . S
C2813 H2835 0.950 . S
C2814 H2810 0.949 . S
C2814 C2822 1.574 . S
C2814 C2830 1.368 . S
H2815 C2823 0.950 . S
H2816 C2821 0.950 . S
H2817 C2822 0.949 . S
H2818 C2824 0.950 . S
H2819 C2825 0.950 . S
H2820 C2826 0.949 . S
C2821 H2816 0.950 . S
C2821 C2823 1.327 . S
C2821 C2827 1.429 . S
C2822 C2814 1.574 . S
C2822 H2817 0.949 . S
C2822 C2828 1.368 . S
C2823 C2807 1.349 . S
C2823 H2815 0.950 . S
C2823 C2821 1.327 . S
C2824 C2812 1.349 . S
C2824 H2818 0.950 . S
C2824 C2825 1.327 . S
C2825 H2819 0.950 . S
C2825 C2824 1.327 . S
C2825 C2829 1.429 . S
C2826 C2809 1.574 . S
C2826 H2820 0.949 . S
C2826 C2830 1.368 . S
C2827 C2808 1.429 . S
C2827 C2821 1.429 . S
C2827 C2828 1.523 . S
C2828 C2809 1.368 . S
C2828 C2822 1.368 . S
C2828 C2827 1.523 . S
C2829 C2813 1.429 . S
C2829 C2825 1.429 . S
C2829 C2830 1.523 . S
C2830 C2814 1.368 . S
C2830 C2826 1.368 . S
C2830 C2829 1.523 . S
H2831 C2806 0.950 . S
H2832 C2808 0.950 . S
H2833 C2809 0.949 . S
H2834 C2811 0.950 . S
H2835 C2813 0.950 . S
C2836 C2837 1.349 . S
C2836 C2838 1.327 . S
C2836 H2861 0.950 . S
C2837 C2836 1.349 . S
C2837 C2853 1.349 . S
C2838 C2836 1.327 . S
C2838 C2857 1.429 . S
C2838 H2862 0.950 . S
C2839 C2856 1.574 . S
C2839 C2858 1.368 . S
C2839 H2863 0.949 . S
H2840 C2844 0.949 . S
C2841 C2842 1.349 . S
C2841 C2843 1.327 . S
C2841 H2864 0.950 . S
C2842 C2841 1.349 . S
C2842 C2854 1.349 . S
C2843 C2841 1.327 . S
C2843 C2859 1.429 . S
C2843 H2865 0.950 . S
C2844 H2840 0.949 . S
C2844 C2852 1.574 . S
C2844 C2860 1.368 . S
H2845 C2853 0.950 . S
H2846 C2851 0.950 . S
H2847 C2852 0.949 . S
H2848 C2854 0.950 . S
H2849 C2855 0.950 . S
H2850 C2856 0.949 . S
C2851 H2846 0.950 . S
C2851 C2853 1.327 . S
C2851 C2857 1.429 . S
C2852 C2844 1.574 . S
C2852 H2847 0.949 . S
C2852 C2858 1.368 . S
C2853 C2837 1.349 . S
C2853 H2845 0.950 . S
C2853 C2851 1.327 . S
C2854 C2842 1.349 . S
C2854 H2848 0.950 . S
C2854 C2855 1.327 . S
C2855 H2849 0.950 . S
C2855 C2854 1.327 . S
C2855 C2859 1.429 . S
C2856 C2839 1.574 . S
C2856 H2850 0.949 . S
C2856 C2860 1.368 . S
C2857 C2838 1.429 . S
C2857 C2851 1.429 . S
C2857 C2858 1.523 . S
C2858 C2839 1.368 . S
C2858 C2852 1.368 . S
C2858 C2857 1.523 . S
C2859 C2843 1.429 . S
C2859 C2855 1.429 . S
C2859 C2860 1.523 . S
C2860 C2844 1.368 . S
C2860 C2856 1.368 . S
C2860 C2859 1.523 . S
H2861 C2836 0.950 . S
H2862 C2838 0.950 . S
H2863 C2839 0.949 . S
H2864 C2841 0.950 . S
H2865 C2843 0.950 . S
C2866 C2867 1.349 . S
C2866 C2868 1.327 . S
C2866 H2891 0.950 . S
C2867 C2866 1.349 . S
C2867 C2883 1.349 . S
C2868 C2866 1.327 . S
C2868 C2887 1.429 . S
C2868 H2892 0.950 . S
C2869 C2886 1.574 . S
C2869 C2888 1.368 . S
C2869 H2893 0.949 . S
H2870 C2874 0.949 . S
C2871 C2872 1.349 . S
C2871 C2873 1.327 . S
C2871 H2894 0.950 . S
C2872 C2871 1.349 . S
C2872 C2884 1.349 . S
C2873 C2871 1.327 . S
C2873 C2889 1.429 . S
C2873 H2895 0.950 . S
C2874 H2870 0.949 . S
C2874 C2882 1.574 . S
C2874 C2890 1.368 . S
H2875 C2883 0.950 . S
H2876 C2881 0.950 . S
H2877 C2882 0.949 . S
H2878 C2884 0.950 . S
H2879 C2885 0.950 . S
H2880 C2886 0.949 . S
C2881 H2876 0.950 . S
C2881 C2883 1.327 . S
C2881 C2887 1.429 . S
C2882 C2874 1.574 . S
C2882 H2877 0.949 . S
C2882 C2888 1.368 . S
C2883 C2867 1.349 . S
C2883 H2875 0.950 . S
C2883 C2881 1.327 . S
C2884 C2872 1.349 . S
C2884 H2878 0.950 . S
C2884 C2885 1.327 . S
C2885 H2879 0.950 . S
C2885 C2884 1.327 . S
C2885 C2889 1.429 . S
C2886 C2869 1.574 . S
C2886 H2880 0.949 . S
C2886 C2890 1.368 . S
C2887 C2868 1.429 . S
C2887 C2881 1.429 . S
C2887 C2888 1.523 . S
C2888 C2869 1.368 . S
C2888 C2882 1.368 . S
C2888 C2887 1.523 . S
C2889 C2873 1.429 . S
C2889 C2885 1.429 . S
C2889 C2890 1.523 . S
C2890 C2874 1.368 . S
C2890 C2886 1.368 . S
C2890 C2889 1.523 . S
H2891 C2866 0.950 . S
H2892 C2868 0.950 . S
H2893 C2869 0.949 . S
H2894 C2871 0.950 . S
H2895 C2873 0.950 . S
C2896 C2897 1.349 . S
C2896 C2898 1.327 . S
C2896 H2921 0.950 . S
C2897 C2896 1.349 . S
C2897 C2913 1.349 . S
C2898 C2896 1.327 . S
C2898 C2917 1.429 . S
C2898 H2922 0.950 . S
C2899 C2916 1.574 . S
C2899 C2918 1.368 . S
C2899 H2923 0.949 . S
H2900 C2904 0.949 . S
C2901 C2902 1.349 . S
C2901 C2903 1.327 . S
C2901 H2924 0.950 . S
C2902 C2901 1.349 . S
C2902 C2914 1.349 . S
C2903 C2901 1.327 . S
C2903 C2919 1.429 . S
C2903 H2925 0.950 . S
C2904 H2900 0.949 . S
C2904 C2912 1.574 . S
C2904 C2920 1.368 . S
H2905 C2913 0.950 . S
H2906 C2911 0.950 . S
H2907 C2912 0.949 . S
H2908 C2914 0.950 . S
H2909 C2915 0.950 . S
H2910 C2916 0.949 . S
C2911 H2906 0.950 . S
C2911 C2913 1.327 . S
C2911 C2917 1.429 . S
C2912 C2904 1.574 . S
C2912 H2907 0.949 . S
C2912 C2918 1.368 . S
C2913 C2897 1.349 . S
C2913 H2905 0.950 . S
C2913 C2911 1.327 . S
C2914 C2902 1.349 . S
C2914 H2908 0.950 . S
C2914 C2915 1.327 . S
C2915 H2909 0.950 . S
C2915 C2914 1.327 . S
C2915 C2919 1.429 . S
C2916 C2899 1.574 . S
C2916 H2910 0.949 . S
C2916 C2920 1.368 . S
C2917 C2898 1.429 . S
C2917 C2911 1.429 . S
C2917 C2918 1.523 . S
C2918 C2899 1.368 . S
C2918 C2912 1.368 . S
C2918 C2917 1.523 . S
C2919 C2903 1.429 . S
C2919 C2915 1.429 . S
C2919 C2920 1.523 . S
C2920 C2904 1.368 . S
C2920 C2916 1.368 . S
C2920 C2919 1.523 . S
H2921 C2896 0.950 . S
H2922 C2898 0.950 . S
H2923 C2899 0.949 . S
H2924 C2901 0.950 . S
H2925 C2903 0.950 . S
C2926 C2927 1.349 . S
C2926 C2928 1.327 . S
C2926 H2951 0.950 . S
C2927 C2926 1.349 . S
C2927 C2943 1.349 . S
C2928 C2926 1.327 . S
C2928 C2947 1.429 . S
C2928 H2952 0.950 . S
C2929 C2946 1.574 . S
C2929 C2948 1.368 . S
C2929 H2953 0.949 . S
H2930 C2934 0.949 . S
C2931 C2932 1.349 . S
C2931 C2933 1.327 . S
C2931 H2954 0.950 . S
C2932 C2931 1.349 . S
C2932 C2944 1.349 . S
C2933 C2931 1.327 . S
C2933 C2949 1.429 . S
C2933 H2955 0.950 . S
C2934 H2930 0.949 . S
C2934 C2942 1.574 . S
C2934 C2950 1.368 . S
H2935 C2943 0.950 . S
H2936 C2941 0.950 . S
H2937 C2942 0.949 . S
H2938 C2944 0.950 . S
H2939 C2945 0.950 . S
H2940 C2946 0.949 . S
C2941 H2936 0.950 . S
C2941 C2943 1.327 . S
C2941 C2947 1.429 . S
C2942 C2934 1.574 . S
C2942 H2937 0.949 . S
C2942 C2948 1.368 . S
C2943 C2927 1.349 . S
C2943 H2935 0.950 . S
C2943 C2941 1.327 . S
C2944 C2932 1.349 . S
C2944 H2938 0.950 . S
C2944 C2945 1.327 . S
C2945 H2939 0.950 . S
C2945 C2944 1.327 . S
C2945 C2949 1.429 . S
C2946 C2929 1.574 . S
C2946 H2940 0.949 . S
C2946 C2950 1.368 . S
C2947 C2928 1.429 . S
C2947 C2941 1.429 . S
C2947 C2948 1.523 . S
C2948 C2929 1.368 . S
C2948 C2942 1.368 . S
C2948 C2947 1.523 . S
C2949 C2933 1.429 . S
C2949 C2945 1.429 . S
C2949 C2950 1.523 . S
C2950 C2934 1.368 . S
C2950 C2946 1.368 . S
C2950 C2949 1.523 . S
H2951 C2926 0.950 . S
H2952 C2928 0.950 . S
H2953 C2929 0.949 . S
H2954 C2931 0.950 . S
H2955 C2933 0.950 . S
C2956 C2957 1.349 . S
C2956 C2958 1.327 . S
C2956 H2981 0.950 . S
C2957 C2956 1.349 . S
C2957 C2973 1.349 . S
C2958 C2956 1.327 . S
C2958 C2977 1.429 . S
C2958 H2982 0.950 . S
C2959 C2976 1.574 . S
C2959 C2978 1.368 . S
C2959 H2983 0.949 . S
H2960 C2964 0.949 . S
C2961 C2962 1.349 . S
C2961 C2963 1.327 . S
C2961 H2984 0.950 . S
C2962 C2961 1.349 . S
C2962 C2974 1.349 . S
C2963 C2961 1.327 . S
C2963 C2979 1.429 . S
C2963 H2985 0.950 . S
C2964 H2960 0.949 . S
C2964 C2972 1.574 . S
C2964 C2980 1.368 . S
H2965 C2973 0.950 . S
H2966 C2971 0.950 . S
H2967 C2972 0.949 . S
H2968 C2974 0.950 . S
H2969 C2975 0.950 . S
H2970 C2976 0.949 . S
C2971 H2966 0.950 . S
C2971 C2973 1.327 . S
C2971 C2977 1.429 . S
C2972 C2964 1.574 . S
C2972 H2967 0.949 . S
C2972 C2978 1.368 . S
C2973 C2957 1.349 . S
C2973 H2965 0.950 . S
C2973 C2971 1.327 . S
C2974 C2962 1.349 . S
C2974 H2968 0.950 . S
C2974 C2975 1.327 . S
C2975 H2969 0.950 . S
C2975 C2974 1.327 . S
C2975 C2979 1.429 . S
C2976 C2959 1.574 . S
C2976 H2970 0.949 . S
C2976 C2980 1.368 . S
C2977 C2958 1.429 . S
C2977 C2971 1.429 . S
C2977 C2978 1.523 . S
C2978 C2959 1.368 . S
C2978 C2972 1.368 . S
C2978 C2977 1.523 . S
C2979 C2963 1.429 . S
C2979 C2975 1.429 . S
C2979 C2980 1.523 . S
C2980 C2964 1.368 . S
C2980 C2976 1.368 . S
C2980 C2979 1.523 . S
H2981 C2956 0.950 . S
H2982 C2958 0.950 . S
H2983 C2959 0.949 . S
H2984 C2961 0.950 . S
H2985 C2963 0.950 . S
C2986 C2987 1.349 . S
C2986 C2988 1.327 . S
C2986 H3011 0.950 . S
C2987 C2986 1.349 . S
C2987 C3003 1.349 . S
C2988 C2986 1.327 . S
C2988 C3007 1.429 . S
C2988 H3012 0.950 . S
C2989 C3006 1.574 . S
C2989 C3008 1.368 . S
C2989 H3013 0.949 . S
H2990 C2994 0.949 . S
C2991 C2992 1.349 . S
C2991 C2993 1.327 . S
C2991 H3014 0.950 . S
C2992 C2991 1.349 . S
C2992 C3004 1.349 . S
C2993 C2991 1.327 . S
C2993 C3009 1.429 . S
C2993 H3015 0.950 . S
C2994 H2990 0.949 . S
C2994 C3002 1.574 . S
C2994 C3010 1.368 . S
H2995 C3003 0.950 . S
H2996 C3001 0.950 . S
H2997 C3002 0.949 . S
H2998 C3004 0.950 . S
H2999 C3005 0.950 . S
H3000 C3006 0.949 . S
C3001 H2996 0.950 . S
C3001 C3003 1.327 . S
C3001 C3007 1.429 . S
C3002 C2994 1.574 . S
C3002 H2997 0.949 . S
C3002 C3008 1.368 . S
C3003 C2987 1.349 . S
C3003 H2995 0.950 . S
C3003 C3001 1.327 . S
C3004 C2992 1.349 . S
C3004 H2998 0.950 . S
C3004 C3005 1.327 . S
C3005 H2999 0.950 . S
C3005 C3004 1.327 . S
C3005 C3009 1.429 . S
C3006 C2989 1.574 . S
C3006 H3000 0.949 . S
C3006 C3010 1.368 . S
C3007 C2988 1.429 . S
C3007 C3001 1.429 . S
C3007 C3008 1.523 . S
C3008 C2989 1.368 . S
C3008 C3002 1.368 . S
C3008 C3007 1.523 . S
C3009 C2993 1.429 . S
C3009 C3005 1.429 . S
C3009 C3010 1.523 . S
C3010 C2994 1.368 . S
C3010 C3006 1.368 . S
C3010 C3009 1.523 . S
H3011 C2986 0.950 . S
H3012 C2988 0.950 . S
H3013 C2989 0.949 . S
H3014 C2991 0.950 . S
H3015 C2993 0.950 . S
C3016 C3017 1.349 . S
C3016 C3018 1.327 . S
C3016 H3041 0.950 . S
C3017 C3016 1.349 . S
C3017 C3033 1.349 . S
C3018 C3016 1.327 . S
C3018 C3037 1.429 . S
C3018 H3042 0.950 . S
C3019 C3036 1.574 . S
C3019 C3038 1.368 . S
C3019 H3043 0.949 . S
H3020 C3024 0.949 . S
C3021 C3022 1.349 . S
C3021 C3023 1.327 . S
C3021 H3044 0.950 . S
C3022 C3021 1.349 . S
C3022 C3034 1.349 . S
C3023 C3021 1.327 . S
C3023 C3039 1.429 . S
C3023 H3045 0.950 . S
C3024 H3020 0.949 . S
C3024 C3032 1.574 . S
C3024 C3040 1.368 . S
H3025 C3033 0.950 . S
H3026 C3031 0.950 . S
H3027 C3032 0.949 . S
H3028 C3034 0.950 . S
H3029 C3035 0.950 . S
H3030 C3036 0.949 . S
C3031 H3026 0.950 . S
C3031 C3033 1.327 . S
C3031 C3037 1.429 . S
C3032 C3024 1.574 . S
C3032 H3027 0.949 . S
C3032 C3038 1.368 . S
C3033 C3017 1.349 . S
C3033 H3025 0.950 . S
C3033 C3031 1.327 . S
C3034 C3022 1.349 . S
C3034 H3028 0.950 . S
C3034 C3035 1.327 . S
C3035 H3029 0.950 . S
C3035 C3034 1.327 . S
C3035 C3039 1.429 . S
C3036 C3019 1.574 . S
C3036 H3030 0.949 . S
C3036 C3040 1.368 . S
C3037 C3018 1.429 . S
C3037 C3031 1.429 . S
C3037 C3038 1.523 . S
C3038 C3019 1.368 . S
C3038 C3032 1.368 . S
C3038 C3037 1.523 . S
C3039 C3023 1.429 . S
C3039 C3035 1.429 . S
C3039 C3040 1.523 . S
C3040 C3024 1.368 . S
C3040 C3036 1.368 . S
C3040 C3039 1.523 . S
H3041 C3016 0.950 . S
H3042 C3018 0.950 . S
H3043 C3019 0.949 . S
H3044 C3021 0.950 . S
H3045 C3023 0.950 . S
C3046 C3047 1.349 . S
C3046 C3048 1.327 . S
C3046 H3071 0.950 . S
C3047 C3046 1.349 . S
C3047 C3063 1.349 . S
C3048 C3046 1.327 . S
C3048 C3067 1.429 . S
C3048 H3072 0.950 . S
C3049 C3066 1.574 . S
C3049 C3068 1.368 . S
C3049 H3073 0.949 . S
H3050 C3054 0.949 . S
C3051 C3052 1.349 . S
C3051 C3053 1.327 . S
C3051 H3074 0.950 . S
C3052 C3051 1.349 . S
C3052 C3064 1.349 . S
C3053 C3051 1.327 . S
C3053 C3069 1.429 . S
C3053 H3075 0.950 . S
C3054 H3050 0.949 . S
C3054 C3062 1.574 . S
C3054 C3070 1.368 . S
H3055 C3063 0.950 . S
H3056 C3061 0.950 . S
H3057 C3062 0.949 . S
H3058 C3064 0.950 . S
H3059 C3065 0.950 . S
H3060 C3066 0.949 . S
C3061 H3056 0.950 . S
C3061 C3063 1.327 . S
C3061 C3067 1.429 . S
C3062 C3054 1.574 . S
C3062 H3057 0.949 . S
C3062 C3068 1.368 . S
C3063 C3047 1.349 . S
C3063 H3055 0.950 . S
C3063 C3061 1.327 . S
C3064 C3052 1.349 . S
C3064 H3058 0.950 . S
C3064 C3065 1.327 . S
C3065 H3059 0.950 . S
C3065 C3064 1.327 . S
C3065 C3069 1.429 . S
C3066 C3049 1.574 . S
C3066 H3060 0.949 . S
C3066 C3070 1.368 . S
C3067 C3048 1.429 . S
C3067 C3061 1.429 . S
C3067 C3068 1.523 . S
C3068 C3049 1.368 . S
C3068 C3062 1.368 . S
C3068 C3067 1.523 . S
C3069 C3053 1.429 . S
C3069 C3065 1.429 . S
C3069 C3070 1.523 . S
C3070 C3054 1.368 . S
C3070 C3066 1.368 . S
C3070 C3069 1.523 . S
H3071 C3046 0.950 . S
H3072 C3048 0.950 . S
H3073 C3049 0.949 . S
H3074 C3051 0.950 . S
H3075 C3053 0.950 . S
C3076 C3077 1.349 . S
C3076 C3078 1.327 . S
C3076 H3101 0.950 . S
C3077 C3076 1.349 . S
C3077 C3093 1.349 . S
C3078 C3076 1.327 . S
C3078 C3097 1.429 . S
C3078 H3102 0.950 . S
C3079 C3096 1.574 . S
C3079 C3098 1.368 . S
C3079 H3103 0.949 . S
H3080 C3084 0.949 . S
C3081 C3082 1.349 . S
C3081 C3083 1.327 . S
C3081 H3104 0.950 . S
C3082 C3081 1.349 . S
C3082 C3094 1.349 . S
C3083 C3081 1.327 . S
C3083 C3099 1.429 . S
C3083 H3105 0.950 . S
C3084 H3080 0.949 . S
C3084 C3092 1.574 . S
C3084 C3100 1.368 . S
H3085 C3093 0.950 . S
H3086 C3091 0.950 . S
H3087 C3092 0.949 . S
H3088 C3094 0.950 . S
H3089 C3095 0.950 . S
H3090 C3096 0.949 . S
C3091 H3086 0.950 . S
C3091 C3093 1.327 . S
C3091 C3097 1.429 . S
C3092 C3084 1.574 . S
C3092 H3087 0.949 . S
C3092 C3098 1.368 . S
C3093 C3077 1.349 . S
C3093 H3085 0.950 . S
C3093 C3091 1.327 . S
C3094 C3082 1.349 . S
C3094 H3088 0.950 . S
C3094 C3095 1.327 . S
C3095 H3089 0.950 . S
C3095 C3094 1.327 . S
C3095 C3099 1.429 . S
C3096 C3079 1.574 . S
C3096 H3090 0.949 . S
C3096 C3100 1.368 . S
C3097 C3078 1.429 . S
C3097 C3091 1.429 . S
C3097 C3098 1.523 . S
C3098 C3079 1.368 . S
C3098 C3092 1.368 . S
C3098 C3097 1.523 . S
C3099 C3083 1.429 . S
C3099 C3095 1.429 . S
C3099 C3100 1.523 . S
C3100 C3084 1.368 . S
C3100 C3096 1.368 . S
C3100 C3099 1.523 . S
H3101 C3076 0.950 . S
H3102 C3078 0.950 . S
H3103 C3079 0.949 . S
H3104 C3081 0.950 . S
H3105 C3083 0.950 . S
C3106 C3107 1.349 . S
C3106 C3108 1.327 . S
C3106 H3131 0.950 . S
C3107 C3106 1.349 . S
C3107 C3123 1.349 . S
C3108 C3106 1.327 . S
C3108 C3127 1.429 . S
C3108 H3132 0.950 . S
C3109 C3126 1.574 . S
C3109 C3128 1.368 . S
C3109 H3133 0.949 . S
H3110 C3114 0.949 . S
C3111 C3112 1.349 . S
C3111 C3113 1.327 . S
C3111 H3134 0.950 . S
C3112 C3111 1.349 . S
C3112 C3124 1.349 . S
C3113 C3111 1.327 . S
C3113 C3129 1.429 . S
C3113 H3135 0.950 . S
C3114 H3110 0.949 . S
C3114 C3122 1.574 . S
C3114 C3130 1.368 . S
H3115 C3123 0.950 . S
H3116 C3121 0.950 . S
H3117 C3122 0.949 . S
H3118 C3124 0.950 . S
H3119 C3125 0.950 . S
H3120 C3126 0.949 . S
C3121 H3116 0.950 . S
C3121 C3123 1.327 . S
C3121 C3127 1.429 . S
C3122 C3114 1.574 . S
C3122 H3117 0.949 . S
C3122 C3128 1.368 . S
C3123 C3107 1.349 . S
C3123 H3115 0.950 . S
C3123 C3121 1.327 . S
C3124 C3112 1.349 . S
C3124 H3118 0.950 . S
C3124 C3125 1.327 . S
C3125 H3119 0.950 . S
C3125 C3124 1.327 . S
C3125 C3129 1.429 . S
C3126 C3109 1.574 . S
C3126 H3120 0.949 . S
C3126 C3130 1.368 . S
C3127 C3108 1.429 . S
C3127 C3121 1.429 . S
C3127 C3128 1.523 . S
C3128 C3109 1.368 . S
C3128 C3122 1.368 . S
C3128 C3127 1.523 . S
C3129 C3113 1.429 . S
C3129 C3125 1.429 . S
C3129 C3130 1.523 . S
C3130 C3114 1.368 . S
C3130 C3126 1.368 . S
C3130 C3129 1.523 . S
H3131 C3106 0.950 . S
H3132 C3108 0.950 . S
H3133 C3109 0.949 . S
H3134 C3111 0.950 . S
H3135 C3113 0.950 . S
C3136 C3137 1.349 1_556 S
C3136 C3138 1.327 . S
C3136 H3161 0.950 . S
C3137 C3136 1.349 1_554 S
C3137 C3153 1.349 . S
C3138 C3136 1.327 . S
C3138 C3157 1.429 1_556 S
C3138 H3162 0.950 . S
C3139 C3156 1.574 . S
C3139 C3158 1.368 . S
C3139 H3163 0.949 . S
H3140 C3144 0.949 . S
C3141 C3142 1.349 . S
C3141 C3143 1.327 . S
C3141 H3164 0.950 . S
C3142 C3141 1.349 . S
C3142 C3154 1.349 1_554 S
C3143 C3141 1.327 . S
C3143 C3159 1.429 . S
C3143 H3165 0.950 . S
C3144 H3140 0.949 . S
C3144 C3152 1.574 . S
C3144 C3160 1.368 1_556 S
H3145 C3153 0.950 . S
H3146 C3151 0.950 . S
H3147 C3152 0.949 . S
H3148 C3154 0.950 . S
H3149 C3155 0.950 . S
H3150 C3156 0.949 . S
C3151 H3146 0.950 . S
C3151 C3153 1.327 . S
C3151 C3157 1.429 . S
C3152 C3144 1.574 . S
C3152 H3147 0.949 . S
C3152 C3158 1.368 1_556 S
C3153 C3137 1.349 . S
C3153 H3145 0.950 . S
C3153 C3151 1.327 . S
C3154 C3142 1.349 1_556 S
C3154 H3148 0.950 . S
C3154 C3155 1.327 . S
C3155 H3149 0.950 . S
C3155 C3154 1.327 . S
C3155 C3159 1.429 1_556 S
C3156 C3139 1.574 . S
C3156 H3150 0.949 . S
C3156 C3160 1.368 . S
C3157 C3138 1.429 1_554 S
C3157 C3151 1.429 . S
C3157 C3158 1.523 . S
C3158 C3139 1.368 . S
C3158 C3152 1.368 1_554 S
C3158 C3157 1.523 . S
C3159 C3143 1.429 . S
C3159 C3155 1.429 1_554 S
C3159 C3160 1.523 . S
C3160 C3144 1.368 1_554 S
C3160 C3156 1.368 . S
C3160 C3159 1.523 . S
H3161 C3136 0.950 . S
H3162 C3138 0.950 . S
H3163 C3139 0.949 . S
H3164 C3141 0.950 . S
H3165 C3143 0.950 . S
C3166 C3167 1.349 . S
C3166 C3168 1.327 . S
C3166 H3191 0.950 . S
C3167 C3166 1.349 . S
C3167 C3183 1.349 . S
C3168 C3166 1.327 . S
C3168 C3187 1.429 . S
C3168 H3192 0.950 . S
C3169 C3186 1.574 . S
C3169 C3188 1.368 . S
C3169 H3193 0.949 . S
H3170 C3174 0.949 . S
C3171 C3172 1.349 . S
C3171 C3173 1.327 . S
C3171 H3194 0.950 . S
C3172 C3171 1.349 . S
C3172 C3184 1.349 . S
C3173 C3171 1.327 . S
C3173 C3189 1.429 . S
C3173 H3195 0.950 . S
C3174 H3170 0.949 . S
C3174 C3182 1.574 . S
C3174 C3190 1.368 . S
H3175 C3183 0.950 . S
H3176 C3181 0.950 . S
H3177 C3182 0.949 . S
H3178 C3184 0.950 . S
H3179 C3185 0.950 . S
H3180 C3186 0.949 . S
C3181 H3176 0.950 . S
C3181 C3183 1.327 . S
C3181 C3187 1.429 . S
C3182 C3174 1.574 . S
C3182 H3177 0.949 . S
C3182 C3188 1.368 . S
C3183 C3167 1.349 . S
C3183 H3175 0.950 . S
C3183 C3181 1.327 . S
C3184 C3172 1.349 . S
C3184 H3178 0.950 . S
C3184 C3185 1.327 . S
C3185 H3179 0.950 . S
C3185 C3184 1.327 . S
C3185 C3189 1.429 . S
C3186 C3169 1.574 . S
C3186 H3180 0.949 . S
C3186 C3190 1.368 . S
C3187 C3168 1.429 . S
C3187 C3181 1.429 . S
C3187 C3188 1.523 . S
C3188 C3169 1.368 . S
C3188 C3182 1.368 . S
C3188 C3187 1.523 . S
C3189 C3173 1.429 . S
C3189 C3185 1.429 . S
C3189 C3190 1.523 . S
C3190 C3174 1.368 . S
C3190 C3186 1.368 . S
C3190 C3189 1.523 . S
H3191 C3166 0.950 . S
H3192 C3168 0.950 . S
H3193 C3169 0.949 . S
H3194 C3171 0.950 . S
H3195 C3173 0.950 . S
C3196 C3197 1.349 . S
C3196 C3198 1.327 . S
C3196 H3221 0.950 . S
C3197 C3196 1.349 . S
C3197 C3213 1.349 1_556 S
C3198 C3196 1.327 . S
C3198 C3217 1.429 . S
C3198 H3222 0.950 . S
C3199 C3216 1.574 . S
C3199 C3218 1.368 1_554 S
C3199 H3223 0.949 . S
H3200 C3204 0.949 . S
C3201 C3202 1.349 1_554 S
C3201 C3203 1.327 . S
C3201 H3224 0.950 . S
C3202 C3201 1.349 1_556 S
C3202 C3214 1.349 . S
C3203 C3201 1.327 . S
C3203 C3219 1.429 1_554 S
C3203 H3225 0.950 . S
C3204 H3200 0.949 . S
C3204 C3212 1.574 . S
C3204 C3220 1.368 . S
H3205 C3213 0.950 . S
H3206 C3211 0.950 . S
H3207 C3212 0.949 . S
H3208 C3214 0.950 . S
H3209 C3215 0.950 . S
H3210 C3216 0.949 . S
C3211 H3206 0.950 . S
C3211 C3213 1.327 . S
C3211 C3217 1.429 1_554 S
C3212 C3204 1.574 . S
C3212 H3207 0.949 . S
C3212 C3218 1.368 . S
C3213 C3197 1.349 1_554 S
C3213 H3205 0.950 . S
C3213 C3211 1.327 . S
C3214 C3202 1.349 . S
C3214 H3208 0.950 . S
C3214 C3215 1.327 . S
C3215 H3209 0.950 . S
C3215 C3214 1.327 . S
C3215 C3219 1.429 . S
C3216 C3199 1.574 . S
C3216 H3210 0.949 . S
C3216 C3220 1.368 1_554 S
C3217 C3198 1.429 . S
C3217 C3211 1.429 1_556 S
C3217 C3218 1.523 . S
C3218 C3199 1.368 1_556 S
C3218 C3212 1.368 . S
C3218 C3217 1.523 . S
C3219 C3203 1.429 1_556 S
C3219 C3215 1.429 . S
C3219 C3220 1.523 . S
C3220 C3204 1.368 . S
C3220 C3216 1.368 1_556 S
C3220 C3219 1.523 . S
H3221 C3196 0.950 . S
H3222 C3198 0.950 . S
H3223 C3199 0.949 . S
H3224 C3201 0.950 . S
H3225 C3203 0.950 . S
C3226 C3227 1.349 . S
C3226 C3228 1.327 . S
C3226 H3251 0.950 . S
C3227 C3226 1.349 . S
C3227 C3243 1.349 . S
C3228 C3226 1.327 . S
C3228 C3247 1.429 . S
C3228 H3252 0.950 . S
C3229 C3246 1.574 . S
C3229 C3248 1.368 . S
C3229 H3253 0.949 . S
H3230 C3234 0.949 . S
C3231 C3232 1.349 . S
C3231 C3233 1.327 . S
C3231 H3254 0.950 . S
C3232 C3231 1.349 . S
C3232 C3244 1.349 . S
C3233 C3231 1.327 . S
C3233 C3249 1.429 . S
C3233 H3255 0.950 . S
C3234 H3230 0.949 . S
C3234 C3242 1.574 . S
C3234 C3250 1.368 . S
H3235 C3243 0.950 . S
H3236 C3241 0.950 . S
H3237 C3242 0.949 . S
H3238 C3244 0.950 . S
H3239 C3245 0.950 . S
H3240 C3246 0.949 . S
C3241 H3236 0.950 . S
C3241 C3243 1.327 . S
C3241 C3247 1.429 . S
C3242 C3234 1.574 . S
C3242 H3237 0.949 . S
C3242 C3248 1.368 . S
C3243 C3227 1.349 . S
C3243 H3235 0.950 . S
C3243 C3241 1.327 . S
C3244 C3232 1.349 . S
C3244 H3238 0.950 . S
C3244 C3245 1.327 . S
C3245 H3239 0.950 . S
C3245 C3244 1.327 . S
C3245 C3249 1.429 . S
C3246 C3229 1.574 . S
C3246 H3240 0.949 . S
C3246 C3250 1.368 . S
C3247 C3228 1.429 . S
C3247 C3241 1.429 . S
C3247 C3248 1.523 . S
C3248 C3229 1.368 . S
C3248 C3242 1.368 . S
C3248 C3247 1.523 . S
C3249 C3233 1.429 . S
C3249 C3245 1.429 . S
C3249 C3250 1.523 . S
C3250 C3234 1.368 . S
C3250 C3246 1.368 . S
C3250 C3249 1.523 . S
H3251 C3226 0.950 . S
H3252 C3228 0.950 . S
H3253 C3229 0.949 . S
H3254 C3231 0.950 . S
H3255 C3233 0.950 . S
C3256 C3257 1.349 . S
C3256 C3258 1.327 . S
C3256 H3281 0.950 . S
C3257 C3256 1.349 . S
C3257 C3273 1.349 . S
C3258 C3256 1.327 . S
C3258 C3277 1.429 . S
C3258 H3282 0.950 . S
C3259 C3276 1.574 . S
C3259 C3278 1.368 . S
C3259 H3283 0.949 . S
H3260 C3264 0.949 . S
C3261 C3262 1.349 . S
C3261 C3263 1.327 . S
C3261 H3284 0.950 . S
C3262 C3261 1.349 . S
C3262 C3274 1.349 . S
C3263 C3261 1.327 . S
C3263 C3279 1.429 . S
C3263 H3285 0.950 . S
C3264 H3260 0.949 . S
C3264 C3272 1.574 . S
C3264 C3280 1.368 . S
H3265 C3273 0.950 . S
H3266 C3271 0.950 . S
H3267 C3272 0.949 . S
H3268 C3274 0.950 . S
H3269 C3275 0.950 . S
H3270 C3276 0.949 . S
C3271 H3266 0.950 . S
C3271 C3273 1.327 . S
C3271 C3277 1.429 . S
C3272 C3264 1.574 . S
C3272 H3267 0.949 . S
C3272 C3278 1.368 . S
C3273 C3257 1.349 . S
C3273 H3265 0.950 . S
C3273 C3271 1.327 . S
C3274 C3262 1.349 . S
C3274 H3268 0.950 . S
C3274 C3275 1.327 . S
C3275 H3269 0.950 . S
C3275 C3274 1.327 . S
C3275 C3279 1.429 . S
C3276 C3259 1.574 . S
C3276 H3270 0.949 . S
C3276 C3280 1.368 . S
C3277 C3258 1.429 . S
C3277 C3271 1.429 . S
C3277 C3278 1.523 . S
C3278 C3259 1.368 . S
C3278 C3272 1.368 . S
C3278 C3277 1.523 . S
C3279 C3263 1.429 . S
C3279 C3275 1.429 . S
C3279 C3280 1.523 . S
C3280 C3264 1.368 . S
C3280 C3276 1.368 . S
C3280 C3279 1.523 . S
H3281 C3256 0.950 . S
H3282 C3258 0.950 . S
H3283 C3259 0.949 . S
H3284 C3261 0.950 . S
H3285 C3263 0.950 . S
C3286 C3287 1.349 . S
C3286 C3288 1.327 . S
C3286 H3311 0.950 . S
C3287 C3286 1.349 . S
C3287 C3303 1.349 . S
C3288 C3286 1.327 . S
C3288 C3307 1.429 . S
C3288 H3312 0.950 . S
C3289 C3306 1.574 . S
C3289 C3308 1.368 . S
C3289 H3313 0.949 . S
H3290 C3294 0.949 . S
C3291 C3292 1.349 . S
C3291 C3293 1.327 . S
C3291 H3314 0.950 . S
C3292 C3291 1.349 . S
C3292 C3304 1.349 . S
C3293 C3291 1.327 . S
C3293 C3309 1.429 . S
C3293 H3315 0.950 . S
C3294 H3290 0.949 . S
C3294 C3302 1.574 . S
C3294 C3310 1.368 . S
H3295 C3303 0.950 . S
H3296 C3301 0.950 . S
H3297 C3302 0.949 . S
H3298 C3304 0.950 . S
H3299 C3305 0.950 . S
H3300 C3306 0.949 . S
C3301 H3296 0.950 . S
C3301 C3303 1.327 . S
C3301 C3307 1.429 . S
C3302 C3294 1.574 . S
C3302 H3297 0.949 . S
C3302 C3308 1.368 . S
C3303 C3287 1.349 . S
C3303 H3295 0.950 . S
C3303 C3301 1.327 . S
C3304 C3292 1.349 . S
C3304 H3298 0.950 . S
C3304 C3305 1.327 . S
C3305 H3299 0.950 . S
C3305 C3304 1.327 . S
C3305 C3309 1.429 . S
C3306 C3289 1.574 . S
C3306 H3300 0.949 . S
C3306 C3310 1.368 . S
C3307 C3288 1.429 . S
C3307 C3301 1.429 . S
C3307 C3308 1.523 . S
C3308 C3289 1.368 . S
C3308 C3302 1.368 . S
C3308 C3307 1.523 . S
C3309 C3293 1.429 . S
C3309 C3305 1.429 . S
C3309 C3310 1.523 . S
C3310 C3294 1.368 . S
C3310 C3306 1.368 . S
C3310 C3309 1.523 . S
H3311 C3286 0.950 . S
H3312 C3288 0.950 . S
H3313 C3289 0.949 . S
H3314 C3291 0.950 . S
H3315 C3293 0.950 . S
C3316 C3317 1.349 . S
C3316 C3318 1.327 . S
C3316 H3341 0.950 . S
C3317 C3316 1.349 . S
C3317 C3333 1.349 . S
C3318 C3316 1.327 . S
C3318 C3337 1.429 . S
C3318 H3342 0.950 . S
C3319 C3336 1.574 . S
C3319 C3338 1.368 . S
C3319 H3343 0.949 . S
H3320 C3324 0.949 . S
C3321 C3322 1.349 . S
C3321 C3323 1.327 . S
C3321 H3344 0.950 . S
C3322 C3321 1.349 . S
C3322 C3334 1.349 . S
C3323 C3321 1.327 . S
C3323 C3339 1.429 . S
C3323 H3345 0.950 . S
C3324 H3320 0.949 . S
C3324 C3332 1.574 . S
C3324 C3340 1.368 . S
H3325 C3333 0.950 . S
H3326 C3331 0.950 . S
H3327 C3332 0.949 . S
H3328 C3334 0.950 . S
H3329 C3335 0.950 . S
H3330 C3336 0.949 . S
C3331 H3326 0.950 . S
C3331 C3333 1.327 . S
C3331 C3337 1.429 . S
C3332 C3324 1.574 . S
C3332 H3327 0.949 . S
C3332 C3338 1.368 . S
C3333 C3317 1.349 . S
C3333 H3325 0.950 . S
C3333 C3331 1.327 . S
C3334 C3322 1.349 . S
C3334 H3328 0.950 . S
C3334 C3335 1.327 . S
C3335 H3329 0.950 . S
C3335 C3334 1.327 . S
C3335 C3339 1.429 . S
C3336 C3319 1.574 . S
C3336 H3330 0.949 . S
C3336 C3340 1.368 . S
C3337 C3318 1.429 . S
C3337 C3331 1.429 . S
C3337 C3338 1.523 . S
C3338 C3319 1.368 . S
C3338 C3332 1.368 . S
C3338 C3337 1.523 . S
C3339 C3323 1.429 . S
C3339 C3335 1.429 . S
C3339 C3340 1.523 . S
C3340 C3324 1.368 . S
C3340 C3336 1.368 . S
C3340 C3339 1.523 . S
H3341 C3316 0.950 . S
H3342 C3318 0.950 . S
H3343 C3319 0.949 . S
H3344 C3321 0.950 . S
H3345 C3323 0.950 . S
C3346 C3347 1.349 . S
C3346 C3348 1.327 . S
C3346 H3371 0.950 . S
C3347 C3346 1.349 . S
C3347 C3363 1.349 . S
C3348 C3346 1.327 . S
C3348 C3367 1.429 . S
C3348 H3372 0.950 . S
C3349 C3366 1.574 . S
C3349 C3368 1.368 . S
C3349 H3373 0.949 . S
H3350 C3354 0.949 . S
C3351 C3352 1.349 . S
C3351 C3353 1.327 . S
C3351 H3374 0.950 . S
C3352 C3351 1.349 . S
C3352 C3364 1.349 . S
C3353 C3351 1.327 . S
C3353 C3369 1.429 . S
C3353 H3375 0.950 . S
C3354 H3350 0.949 . S
C3354 C3362 1.574 . S
C3354 C3370 1.368 . S
H3355 C3363 0.950 . S
H3356 C3361 0.950 . S
H3357 C3362 0.949 . S
H3358 C3364 0.950 . S
H3359 C3365 0.950 . S
H3360 C3366 0.949 . S
C3361 H3356 0.950 . S
C3361 C3363 1.327 . S
C3361 C3367 1.429 . S
C3362 C3354 1.574 . S
C3362 H3357 0.949 . S
C3362 C3368 1.368 . S
C3363 C3347 1.349 . S
C3363 H3355 0.950 . S
C3363 C3361 1.327 . S
C3364 C3352 1.349 . S
C3364 H3358 0.950 . S
C3364 C3365 1.327 . S
C3365 H3359 0.950 . S
C3365 C3364 1.327 . S
C3365 C3369 1.429 . S
C3366 C3349 1.574 . S
C3366 H3360 0.949 . S
C3366 C3370 1.368 . S
C3367 C3348 1.429 . S
C3367 C3361 1.429 . S
C3367 C3368 1.523 . S
C3368 C3349 1.368 . S
C3368 C3362 1.368 . S
C3368 C3367 1.523 . S
C3369 C3353 1.429 . S
C3369 C3365 1.429 . S
C3369 C3370 1.523 . S
C3370 C3354 1.368 . S
C3370 C3366 1.368 . S
C3370 C3369 1.523 . S
H3371 C3346 0.950 . S
H3372 C3348 0.950 . S
H3373 C3349 0.949 . S
H3374 C3351 0.950 . S
H3375 C3353 0.950 . S
C3376 C3377 1.349 . S
C3376 C3378 1.327 . S
C3376 H3401 0.950 . S
C3377 C3376 1.349 . S
C3377 C3393 1.349 . S
C3378 C3376 1.327 . S
C3378 C3397 1.429 . S
C3378 H3402 0.950 . S
C3379 C3396 1.574 . S
C3379 C3398 1.368 . S
C3379 H3403 0.949 . S
H3380 C3384 0.949 . S
C3381 C3382 1.349 . S
C3381 C3383 1.327 . S
C3381 H3404 0.950 . S
C3382 C3381 1.349 . S
C3382 C3394 1.349 . S
C3383 C3381 1.327 . S
C3383 C3399 1.429 . S
C3383 H3405 0.950 . S
C3384 H3380 0.949 . S
C3384 C3392 1.574 . S
C3384 C3400 1.368 . S
H3385 C3393 0.950 . S
H3386 C3391 0.950 . S
H3387 C3392 0.949 . S
H3388 C3394 0.950 . S
H3389 C3395 0.950 . S
H3390 C3396 0.949 . S
C3391 H3386 0.950 . S
C3391 C3393 1.327 . S
C3391 C3397 1.429 . S
C3392 C3384 1.574 . S
C3392 H3387 0.949 . S
C3392 C3398 1.368 . S
C3393 C3377 1.349 . S
C3393 H3385 0.950 . S
C3393 C3391 1.327 . S
C3394 C3382 1.349 . S
C3394 H3388 0.950 . S
C3394 C3395 1.327 . S
C3395 H3389 0.950 . S
C3395 C3394 1.327 . S
C3395 C3399 1.429 . S
C3396 C3379 1.574 . S
C3396 H3390 0.949 . S
C3396 C3400 1.368 . S
C3397 C3378 1.429 . S
C3397 C3391 1.429 . S
C3397 C3398 1.523 . S
C3398 C3379 1.368 . S
C3398 C3392 1.368 . S
C3398 C3397 1.523 . S
C3399 C3383 1.429 . S
C3399 C3395 1.429 . S
C3399 C3400 1.523 . S
C3400 C3384 1.368 . S
C3400 C3396 1.368 . S
C3400 C3399 1.523 . S
H3401 C3376 0.950 . S
H3402 C3378 0.950 . S
H3403 C3379 0.949 . S
H3404 C3381 0.950 . S
H3405 C3383 0.950 . S
C3406 C3407 1.349 . S
C3406 C3408 1.327 . S
C3406 H3431 0.950 . S
C3407 C3406 1.349 . S
C3407 C3423 1.349 . S
C3408 C3406 1.327 . S
C3408 C3427 1.429 . S
C3408 H3432 0.950 . S
C3409 C3426 1.574 . S
C3409 C3428 1.368 . S
C3409 H3433 0.949 . S
H3410 C3414 0.949 . S
C3411 C3412 1.349 . S
C3411 C3413 1.327 . S
C3411 H3434 0.950 . S
C3412 C3411 1.349 . S
C3412 C3424 1.349 . S
C3413 C3411 1.327 . S
C3413 C3429 1.429 . S
C3413 H3435 0.950 . S
C3414 H3410 0.949 . S
C3414 C3422 1.574 . S
C3414 C3430 1.368 . S
H3415 C3423 0.950 . S
H3416 C3421 0.950 . S
H3417 C3422 0.949 . S
H3418 C3424 0.950 . S
H3419 C3425 0.950 . S
H3420 C3426 0.949 . S
C3421 H3416 0.950 . S
C3421 C3423 1.327 . S
C3421 C3427 1.429 . S
C3422 C3414 1.574 . S
C3422 H3417 0.949 . S
C3422 C3428 1.368 . S
C3423 C3407 1.349 . S
C3423 H3415 0.950 . S
C3423 C3421 1.327 . S
C3424 C3412 1.349 . S
C3424 H3418 0.950 . S
C3424 C3425 1.327 . S
C3425 H3419 0.950 . S
C3425 C3424 1.327 . S
C3425 C3429 1.429 . S
C3426 C3409 1.574 . S
C3426 H3420 0.949 . S
C3426 C3430 1.368 . S
C3427 C3408 1.429 . S
C3427 C3421 1.429 . S
C3427 C3428 1.523 . S
C3428 C3409 1.368 . S
C3428 C3422 1.368 . S
C3428 C3427 1.523 . S
C3429 C3413 1.429 . S
C3429 C3425 1.429 . S
C3429 C3430 1.523 . S
C3430 C3414 1.368 . S
C3430 C3426 1.368 . S
C3430 C3429 1.523 . S
H3431 C3406 0.950 . S
H3432 C3408 0.950 . S
H3433 C3409 0.949 . S
H3434 C3411 0.950 . S
H3435 C3413 0.950 . S
C3436 C3437 1.349 . S
C3436 C3438 1.327 . S
C3436 H3461 0.950 . S
C3437 C3436 1.349 . S
C3437 C3453 1.349 . S
C3438 C3436 1.327 . S
C3438 C3457 1.429 . S
C3438 H3462 0.950 . S
C3439 C3456 1.574 . S
C3439 C3458 1.368 . S
C3439 H3463 0.949 . S
H3440 C3444 0.949 . S
C3441 C3442 1.349 . S
C3441 C3443 1.327 . S
C3441 H3464 0.950 . S
C3442 C3441 1.349 . S
C3442 C3454 1.349 . S
C3443 C3441 1.327 . S
C3443 C3459 1.429 . S
C3443 H3465 0.950 . S
C3444 H3440 0.949 . S
C3444 C3452 1.574 . S
C3444 C3460 1.368 . S
H3445 C3453 0.950 . S
H3446 C3451 0.950 . S
H3447 C3452 0.949 . S
H3448 C3454 0.950 . S
H3449 C3455 0.950 . S
H3450 C3456 0.949 . S
C3451 H3446 0.950 . S
C3451 C3453 1.327 . S
C3451 C3457 1.429 . S
C3452 C3444 1.574 . S
C3452 H3447 0.949 . S
C3452 C3458 1.368 . S
C3453 C3437 1.349 . S
C3453 H3445 0.950 . S
C3453 C3451 1.327 . S
C3454 C3442 1.349 . S
C3454 H3448 0.950 . S
C3454 C3455 1.327 . S
C3455 H3449 0.950 . S
C3455 C3454 1.327 . S
C3455 C3459 1.429 . S
C3456 C3439 1.574 . S
C3456 H3450 0.949 . S
C3456 C3460 1.368 . S
C3457 C3438 1.429 . S
C3457 C3451 1.429 . S
C3457 C3458 1.523 . S
C3458 C3439 1.368 . S
C3458 C3452 1.368 . S
C3458 C3457 1.523 . S
C3459 C3443 1.429 . S
C3459 C3455 1.429 . S
C3459 C3460 1.523 . S
C3460 C3444 1.368 . S
C3460 C3456 1.368 . S
C3460 C3459 1.523 . S
H3461 C3436 0.950 . S
H3462 C3438 0.950 . S
H3463 C3439 0.949 . S
H3464 C3441 0.950 . S
H3465 C3443 0.950 . S
C3466 C3467 1.349 . S
C3466 C3468 1.327 . S
C3466 H3491 0.950 . S
C3467 C3466 1.349 . S
C3467 C3483 1.349 . S
C3468 C3466 1.327 . S
C3468 C3487 1.429 . S
C3468 H3492 0.950 . S
C3469 C3486 1.574 . S
C3469 C3488 1.368 . S
C3469 H3493 0.949 . S
H3470 C3474 0.949 . S
C3471 C3472 1.349 . S
C3471 C3473 1.327 . S
C3471 H3494 0.950 . S
C3472 C3471 1.349 . S
C3472 C3484 1.349 . S
C3473 C3471 1.327 . S
C3473 C3489 1.429 . S
C3473 H3495 0.950 . S
C3474 H3470 0.949 . S
C3474 C3482 1.574 . S
C3474 C3490 1.368 . S
H3475 C3483 0.950 . S
H3476 C3481 0.950 . S
H3477 C3482 0.949 . S
H3478 C3484 0.950 . S
H3479 C3485 0.950 . S
H3480 C3486 0.949 . S
C3481 H3476 0.950 . S
C3481 C3483 1.327 . S
C3481 C3487 1.429 . S
C3482 C3474 1.574 . S
C3482 H3477 0.949 . S
C3482 C3488 1.368 . S
C3483 C3467 1.349 . S
C3483 H3475 0.950 . S
C3483 C3481 1.327 . S
C3484 C3472 1.349 . S
C3484 H3478 0.950 . S
C3484 C3485 1.327 . S
C3485 H3479 0.950 . S
C3485 C3484 1.327 . S
C3485 C3489 1.429 . S
C3486 C3469 1.574 . S
C3486 H3480 0.949 . S
C3486 C3490 1.368 . S
C3487 C3468 1.429 . S
C3487 C3481 1.429 . S
C3487 C3488 1.523 . S
C3488 C3469 1.368 . S
C3488 C3482 1.368 . S
C3488 C3487 1.523 . S
C3489 C3473 1.429 . S
C3489 C3485 1.429 . S
C3489 C3490 1.523 . S
C3490 C3474 1.368 . S
C3490 C3486 1.368 . S
C3490 C3489 1.523 . S
H3491 C3466 0.950 . S
H3492 C3468 0.950 . S
H3493 C3469 0.949 . S
H3494 C3471 0.950 . S
H3495 C3473 0.950 . S
C3496 C3497 1.349 . S
C3496 C3498 1.327 . S
C3496 H3521 0.950 . S
C3497 C3496 1.349 . S
C3497 C3513 1.349 1_554 S
C3498 C3496 1.327 . S
C3498 C3517 1.429 . S
C3498 H3522 0.950 . S
C3499 C3516 1.574 . S
C3499 C3518 1.368 1_556 S
C3499 H3523 0.949 . S
H3500 C3504 0.949 . S
C3501 C3502 1.349 1_556 S
C3501 C3503 1.327 . S
C3501 H3524 0.950 . S
C3502 C3501 1.349 1_554 S
C3502 C3514 1.349 . S
C3503 C3501 1.327 . S
C3503 C3519 1.429 1_556 S
C3503 H3525 0.950 . S
C3504 H3500 0.949 . S
C3504 C3512 1.574 . S
C3504 C3520 1.368 . S
H3505 C3513 0.950 . S
H3506 C3511 0.950 . S
H3507 C3512 0.949 . S
H3508 C3514 0.950 . S
H3509 C3515 0.950 . S
H3510 C3516 0.949 . S
C3511 H3506 0.950 . S
C3511 C3513 1.327 . S
C3511 C3517 1.429 1_556 S
C3512 C3504 1.574 . S
C3512 H3507 0.949 . S
C3512 C3518 1.368 . S
C3513 C3497 1.349 1_556 S
C3513 H3505 0.950 . S
C3513 C3511 1.327 . S
C3514 C3502 1.349 . S
C3514 H3508 0.950 . S
C3514 C3515 1.327 . S
C3515 H3509 0.950 . S
C3515 C3514 1.327 . S
C3515 C3519 1.429 . S
C3516 C3499 1.574 . S
C3516 H3510 0.949 . S
C3516 C3520 1.368 1_556 S
C3517 C3498 1.429 . S
C3517 C3511 1.429 1_554 S
C3517 C3518 1.523 . S
C3518 C3499 1.368 1_554 S
C3518 C3512 1.368 . S
C3518 C3517 1.523 . S
C3519 C3503 1.429 1_554 S
C3519 C3515 1.429 . S
C3519 C3520 1.523 . S
C3520 C3504 1.368 . S
C3520 C3516 1.368 1_554 S
C3520 C3519 1.523 . S
H3521 C3496 0.950 . S
H3522 C3498 0.950 . S
H3523 C3499 0.949 . S
H3524 C3501 0.950 . S
H3525 C3503 0.950 . S
C3526 C3527 1.349 . S
C3526 C3528 1.327 . S
C3526 H3551 0.950 . S
C3527 C3526 1.349 . S
C3527 C3543 1.349 . S
C3528 C3526 1.327 . S
C3528 C3547 1.429 . S
C3528 H3552 0.950 . S
C3529 C3546 1.574 . S
C3529 C3548 1.368 . S
C3529 H3553 0.949 . S
H3530 C3534 0.949 . S
C3531 C3532 1.349 . S
C3531 C3533 1.327 . S
C3531 H3554 0.950 . S
C3532 C3531 1.349 . S
C3532 C3544 1.349 . S
C3533 C3531 1.327 . S
C3533 C3549 1.429 . S
C3533 H3555 0.950 . S
C3534 H3530 0.949 . S
C3534 C3542 1.574 . S
C3534 C3550 1.368 . S
H3535 C3543 0.950 . S
H3536 C3541 0.950 . S
H3537 C3542 0.949 . S
H3538 C3544 0.950 . S
H3539 C3545 0.950 . S
H3540 C3546 0.949 . S
C3541 H3536 0.950 . S
C3541 C3543 1.327 . S
C3541 C3547 1.429 . S
C3542 C3534 1.574 . S
C3542 H3537 0.949 . S
C3542 C3548 1.368 . S
C3543 C3527 1.349 . S
C3543 H3535 0.950 . S
C3543 C3541 1.327 . S
C3544 C3532 1.349 . S
C3544 H3538 0.950 . S
C3544 C3545 1.327 . S
C3545 H3539 0.950 . S
C3545 C3544 1.327 . S
C3545 C3549 1.429 . S
C3546 C3529 1.574 . S
C3546 H3540 0.949 . S
C3546 C3550 1.368 . S
C3547 C3528 1.429 . S
C3547 C3541 1.429 . S
C3547 C3548 1.523 . S
C3548 C3529 1.368 . S
C3548 C3542 1.368 . S
C3548 C3547 1.523 . S
C3549 C3533 1.429 . S
C3549 C3545 1.429 . S
C3549 C3550 1.523 . S
C3550 C3534 1.368 . S
C3550 C3546 1.368 . S
C3550 C3549 1.523 . S
H3551 C3526 0.950 . S
H3552 C3528 0.950 . S
H3553 C3529 0.949 . S
H3554 C3531 0.950 . S
H3555 C3533 0.950 . S
C3556 C3557 1.349 . S
C3556 C3558 1.327 . S
C3556 H3581 0.950 . S
C3557 C3556 1.349 . S
C3557 C3573 1.349 1_556 S
C3558 C3556 1.327 . S
C3558 C3577 1.429 . S
C3558 H3582 0.950 . S
C3559 C3576 1.574 . S
C3559 C3578 1.368 1_554 S
C3559 H3583 0.949 . S
H3560 C3564 0.949 . S
C3561 C3562 1.349 1_554 S
C3561 C3563 1.327 . S
C3561 H3584 0.950 . S
C3562 C3561 1.349 1_556 S
C3562 C3574 1.349 . S
C3563 C3561 1.327 . S
C3563 C3579 1.429 1_554 S
C3563 H3585 0.950 . S
C3564 H3560 0.949 . S
C3564 C3572 1.574 . S
C3564 C3580 1.368 . S
H3565 C3573 0.950 . S
H3566 C3571 0.950 . S
H3567 C3572 0.949 . S
H3568 C3574 0.950 . S
H3569 C3575 0.950 . S
H3570 C3576 0.949 . S
C3571 H3566 0.950 . S
C3571 C3573 1.327 . S
C3571 C3577 1.429 1_554 S
C3572 C3564 1.574 . S
C3572 H3567 0.949 . S
C3572 C3578 1.368 . S
C3573 C3557 1.349 1_554 S
C3573 H3565 0.950 . S
C3573 C3571 1.327 . S
C3574 C3562 1.349 . S
C3574 H3568 0.950 . S
C3574 C3575 1.327 . S
C3575 H3569 0.950 . S
C3575 C3574 1.327 . S
C3575 C3579 1.429 . S
C3576 C3559 1.574 . S
C3576 H3570 0.949 . S
C3576 C3580 1.368 1_554 S
C3577 C3558 1.429 . S
C3577 C3571 1.429 1_556 S
C3577 C3578 1.523 . S
C3578 C3559 1.368 1_556 S
C3578 C3572 1.368 . S
C3578 C3577 1.523 . S
C3579 C3563 1.429 1_556 S
C3579 C3575 1.429 . S
C3579 C3580 1.523 . S
C3580 C3564 1.368 . S
C3580 C3576 1.368 1_556 S
C3580 C3579 1.523 . S
H3581 C3556 0.950 . S
H3582 C3558 0.950 . S
H3583 C3559 0.949 . S
H3584 C3561 0.950 . S
H3585 C3563 0.950 . S
C3586 C3587 1.349 . S
C3586 C3588 1.327 . S
C3586 H3611 0.950 . S
C3587 C3586 1.349 . S
C3587 C3603 1.349 . S
C3588 C3586 1.327 . S
C3588 C3607 1.429 . S
C3588 H3612 0.950 . S
C3589 C3606 1.574 . S
C3589 C3608 1.368 . S
C3589 H3613 0.949 . S
H3590 C3594 0.949 . S
C3591 C3592 1.349 . S
C3591 C3593 1.327 . S
C3591 H3614 0.950 . S
C3592 C3591 1.349 . S
C3592 C3604 1.349 . S
C3593 C3591 1.327 . S
C3593 C3609 1.429 . S
C3593 H3615 0.950 . S
C3594 H3590 0.949 . S
C3594 C3602 1.574 . S
C3594 C3610 1.368 . S
H3595 C3603 0.950 . S
H3596 C3601 0.950 . S
H3597 C3602 0.949 . S
H3598 C3604 0.950 . S
H3599 C3605 0.950 . S
H3600 C3606 0.949 . S
C3601 H3596 0.950 . S
C3601 C3603 1.327 . S
C3601 C3607 1.429 . S
C3602 C3594 1.574 . S
C3602 H3597 0.949 . S
C3602 C3608 1.368 . S
C3603 C3587 1.349 . S
C3603 H3595 0.950 . S
C3603 C3601 1.327 . S
C3604 C3592 1.349 . S
C3604 H3598 0.950 . S
C3604 C3605 1.327 . S
C3605 H3599 0.950 . S
C3605 C3604 1.327 . S
C3605 C3609 1.429 . S
C3606 C3589 1.574 . S
C3606 H3600 0.949 . S
C3606 C3610 1.368 . S
C3607 C3588 1.429 . S
C3607 C3601 1.429 . S
C3607 C3608 1.523 . S
C3608 C3589 1.368 . S
C3608 C3602 1.368 . S
C3608 C3607 1.523 . S
C3609 C3593 1.429 . S
C3609 C3605 1.429 . S
C3609 C3610 1.523 . S
C3610 C3594 1.368 . S
C3610 C3606 1.368 . S
C3610 C3609 1.523 . S
H3611 C3586 0.950 . S
H3612 C3588 0.950 . S
H3613 C3589 0.949 . S
H3614 C3591 0.950 . S
H3615 C3593 0.950 . S
C1697 C38 1.650 . S
C1702 C197 1.650 . S
C1727 C144 1.650 . S
C1732 C91 1.650 . S
C1757 C409 1.652 . S
C1762 C250 1.652 . S
C1787 C356 1.652 . S
C1792 C303 1.652 . S
C1817 C462 1.650 . S
C1822 C621 1.650 . S
C1847 C515 1.650 . S
C1852 C568 1.650 . S
C1877 C833 1.652 . S
C1882 C674 1.652 . S
C1907 C780 1.652 . S
C1912 C727 1.652 . S
C1937 C886 1.650 . S
C1942 C1045 1.650 . S
C1967 C939 1.650 . S
C1972 C992 1.650 . S
C1997 C1098 1.652 . S
C2002 C1257 1.652 . S
C2027 C1151 1.652 . S
C2032 C1204 1.652 . S
C2057 C1310 1.650 . S
C2062 C1469 1.650 . S
C2087 C1416 1.650 . S
C2092 C1363 1.650 . S
C2117 C1681 1.652 . S
C2122 C1522 1.652 . S
C2147 C1628 1.652 . S
C2152 C1575 1.652 . S
C2177 C22 1.734 . S
C2182 C234 1.730 . S
C2207 C1559 1.731 . S
C2212 C75 1.735 . S
C2237 C128 1.734 . S
C2242 C764 1.730 . S
C2267 C1241 1.730 . S
C2272 C181 1.734 . S
C2297 C1347 1.735 . S
C2302 C287 1.731 . S
C2327 C340 1.730 . S
C2332 C552 1.734 . S
C2357 C393 1.730 . S
C2362 C1029 1.734 . S
C2387 C658 1.731 . S
C2392 C446 1.735 . S
C2417 C1135 1.731 . S
C2422 C499 1.735 . S
C2447 C605 1.734 . S
C2452 C1665 1.730 . S
C2477 C711 1.731 . S
C2482 C923 1.735 . S
C2507 C817 1.730 . S
C2512 C1453 1.734 . S
C2537 C1082 1.730 . S
C2542 C870 1.734 . S
C2567 C976 1.734 . S
C2572 C1612 1.730 . S
C2597 C1188 1.730 . S
C2602 C1400 1.734 . S
C2627 C1506 1.731 . S
C2632 C1294 1.735 . S
C2657 C39 1.427 . S
C2662 C1046 1.427 . S
C2687 C92 1.426 . S
C2692 C993 1.426 . S
C2717 C940 1.427 . S
C2722 C145 1.427 . S
C2747 C887 1.427 . S
C2752 C198 1.427 . S
C2777 C251 1.425 . S
C2782 C1258 1.425 . S
C2807 C304 1.425 . S
C2812 C1205 1.425 . S
C2837 C357 1.425 . S
C2842 C1152 1.425 . S
C2867 C1099 1.425 . S
C2872 C410 1.425 . S
C2897 C463 1.427 . S
C2902 C1470 1.427 . S
C2927 C1417 1.427 . S
C2932 C516 1.427 . S
C2957 C1364 1.427 . S
C2962 C569 1.427 . S
C2987 C622 1.426 . S
C2992 C1311 1.426 . S
C3017 C675 1.425 . S
C3022 C1682 1.425 . S
C3047 C728 1.425 . S
C3052 C1629 1.425 . S
C3077 C1576 1.425 . S
C3082 C781 1.425 . S
C3107 C834 1.425 . S
C3112 C1523 1.425 . S
C3137 C82 1.695 . S
C3142 C29 1.695 . S
C3167 C135 1.695 . S
C3172 C188 1.695 . S
C3197 C294 1.699 . S
C3202 C241 1.699 . S
C3227 C347 1.699 . S
C3232 C400 1.699 . S
C3257 C506 1.695 . S
C3262 C453 1.695 . S
C3287 C559 1.695 . S
C3292 C612 1.695 . S
C3317 C665 1.699 . S
C3322 C718 1.699 . S
C3347 C771 1.699 . S
C3352 C824 1.699 . S
C3377 C877 1.695 . S
C3382 C930 1.695 . S
C3407 C1036 1.695 . S
C3412 C983 1.695 . S
C3437 C1089 1.699 . S
C3442 C1142 1.699 . S
C3467 C1248 1.699 . S
C3472 C1195 1.699 . S
C3497 C1354 1.696 . S
C3502 C1301 1.696 . S
C3527 C1407 1.695 . S
C3532 C1460 1.695 . S
C3557 C1513 1.700 . S
C3562 C1566 1.700 . S
C3587 C1672 1.699 . S
C3592 C1619 1.699 . S
