# Generated by pormake.
# Topology nfc, (4)-cn, num edge types: 1
# Building blocks:
#     Node 0, Type 0, BuildingBlock: NAWXER_clean_sbu_0, # of connection points: 4
#     Node 1, Type 0, BuildingBlock: NAWXER_clean_sbu_0, # of connection points: 4
#     Node 2, Type 0, BuildingBlock: NAWXER_clean_sbu_0, # of connection points: 4
#     Node 3, Type 0, BuildingBlock: NAWXER_clean_sbu_0, # of connection points: 4
#     Node 4, Type 0, BuildingBlock: NAWXER_clean_sbu_0, # of connection points: 4
#     Node 5, Type 0, BuildingBlock: NAWXER_clean_sbu_0, # of connection points: 4
#     Node 6, Type 0, BuildingBlock: NAWXER_clean_sbu_0, # of connection points: 4
#     Node 7, Type 0, BuildingBlock: NAWXER_clean_sbu_0, # of connection points: 4
#     Node 8, Type 0, BuildingBlock: NAWXER_clean_sbu_0, # of connection points: 4
#     Node 9, Type 0, BuildingBlock: NAWXER_clean_sbu_0, # of connection points: 4
#     Node 10, Type 0, BuildingBlock: NAWXER_clean_sbu_0, # of connection points: 4
#     Node 11, Type 0, BuildingBlock: NAWXER_clean_sbu_0, # of connection points: 4
#     Node 12, Type 0, BuildingBlock: NAWXER_clean_sbu_0, # of connection points: 4
#     Node 13, Type 0, BuildingBlock: NAWXER_clean_sbu_0, # of connection points: 4
#     Node 14, Type 0, BuildingBlock: NAWXER_clean_sbu_0, # of connection points: 4
#     Node 15, Type 0, BuildingBlock: NAWXER_clean_sbu_0, # of connection points: 4
#     Edge 16, Type (0, 0), BuildingBlock: XIVTED_clean_linker_0, # of connection points: 2
#     Edge 17, Type (0, 0), BuildingBlock: XIVTED_clean_linker_0, # of connection points: 2
#     Edge 18, Type (0, 0), BuildingBlock: XIVTED_clean_linker_0, # of connection points: 2
#     Edge 19, Type (0, 0), BuildingBlock: XIVTED_clean_linker_0, # of connection points: 2
#     Edge 20, Type (0, 0), BuildingBlock: XIVTED_clean_linker_0, # of connection points: 2
#     Edge 21, Type (0, 0), BuildingBlock: XIVTED_clean_linker_0, # of connection points: 2
#     Edge 22, Type (0, 0), BuildingBlock: XIVTED_clean_linker_0, # of connection points: 2
#     Edge 23, Type (0, 0), BuildingBlock: XIVTED_clean_linker_0, # of connection points: 2
#     Edge 24, Type (0, 0), BuildingBlock: XIVTED_clean_linker_0, # of connection points: 2
#     Edge 25, Type (0, 0), BuildingBlock: XIVTED_clean_linker_0, # of connection points: 2
#     Edge 26, Type (0, 0), BuildingBlock: XIVTED_clean_linker_0, # of connection points: 2
#     Edge 27, Type (0, 0), BuildingBlock: XIVTED_clean_linker_0, # of connection points: 2
#     Edge 28, Type (0, 0), BuildingBlock: XIVTED_clean_linker_0, # of connection points: 2
#     Edge 29, Type (0, 0), BuildingBlock: XIVTED_clean_linker_0, # of connection points: 2
#     Edge 30, Type (0, 0), BuildingBlock: XIVTED_clean_linker_0, # of connection points: 2
#     Edge 31, Type (0, 0), BuildingBlock: XIVTED_clean_linker_0, # of connection points: 2
#     Edge 32, Type (0, 0), BuildingBlock: XIVTED_clean_linker_0, # of connection points: 2
#     Edge 33, Type (0, 0), BuildingBlock: XIVTED_clean_linker_0, # of connection points: 2
#     Edge 34, Type (0, 0), BuildingBlock: XIVTED_clean_linker_0, # of connection points: 2
#     Edge 35, Type (0, 0), BuildingBlock: XIVTED_clean_linker_0, # of connection points: 2
#     Edge 36, Type (0, 0), BuildingBlock: XIVTED_clean_linker_0, # of connection points: 2
#     Edge 37, Type (0, 0), BuildingBlock: XIVTED_clean_linker_0, # of connection points: 2
#     Edge 38, Type (0, 0), BuildingBlock: XIVTED_clean_linker_0, # of connection points: 2
#     Edge 39, Type (0, 0), BuildingBlock: XIVTED_clean_linker_0, # of connection points: 2
#     Edge 40, Type (0, 0), BuildingBlock: XIVTED_clean_linker_0, # of connection points: 2
#     Edge 41, Type (0, 0), BuildingBlock: XIVTED_clean_linker_0, # of connection points: 2
#     Edge 42, Type (0, 0), BuildingBlock: XIVTED_clean_linker_0, # of connection points: 2
#     Edge 43, Type (0, 0), BuildingBlock: XIVTED_clean_linker_0, # of connection points: 2
#     Edge 44, Type (0, 0), BuildingBlock: XIVTED_clean_linker_0, # of connection points: 2
#     Edge 45, Type (0, 0), BuildingBlock: XIVTED_clean_linker_0, # of connection points: 2
#     Edge 46, Type (0, 0), BuildingBlock: XIVTED_clean_linker_0, # of connection points: 2
#     Edge 47, Type (0, 0), BuildingBlock: XIVTED_clean_linker_0, # of connection points: 2
# Relax obj value: 0.157
# Max RMSD: 0.167
# Mean RMSD: 0.167
data_MOF--net-nfc--node1-NAWXER_clean_sbu_0--edge1-XIVTED_clean_linker_0
_symmetry_space_group_name_H-M    P1
_symmetry_Int_Tables_number       1
_symmetry_cell_setting            triclinic
loop_
_symmetry_equiv_pos_as_xyz
'x, y, z'
_cell_length_a     37.076473
_cell_length_b     37.143395
_cell_length_c     27.671166
_cell_angle_alpha  89.972587
_cell_angle_beta   90.077399
_cell_angle_gamma 90.487528
loop_
_atom_site_label
_atom_site_type_symbol
_atom_site_fract_x
_atom_site_fract_y
_atom_site_fract_z
_atom_type_partial_charge
C0 C 0.02071 0.0112 0.01232 0.0
C1 C 0.92603 0.92979 0.95197 0.0
O2 O 0.99048 0.01937 -0.00629 0.0
Zn3 Zn 0.97317 0.97083 0.98343 0.0
O4 O 0.02903 0.97786 0.01709 0.0
Zn5 Zn 1.00423 0.92575 0.00143 0.0
O6 O 0.03782 0.90461 0.95794 0.0
O7 O 1.0099 0.95205 0.92806 0.0
O8 O 0.95358 0.91288 0.96794 0.0
O9 O 0.92552 0.9639 0.95482 0.0
O10 O 0.96758 0.9525 0.05715 0.0
O11 O 1.00051 0.90354 0.06329 0.0
C12 C 0.03284 0.92653 0.92344 0.0
C13 C 0.97962 0.92626 0.08248 0.0
C14 C 0.31971 0.7753 0.26156 0.0
C15 C 0.40447 0.68536 0.19872 0.0
O16 O 0.30488 0.74742 0.24265 0.0
Zn17 Zn 0.31911 0.69829 0.20893 0.0
O18 O 0.35396 0.77818 0.26162 0.0
Zn19 Zn 0.36397 0.73205 0.22959 0.0
O20 O 0.34472 0.73982 0.15764 0.0
O21 O 0.29928 0.70198 0.14533 0.0
O22 O 0.41328 0.7157 0.21687 0.0
O23 O 0.37107 0.67672 0.19486 0.0
O24 O 0.29842 0.66378 0.25295 0.0
O25 O 0.34531 0.69394 0.28253 0.0
C26 C 0.3204 0.72648 0.12982 0.0
C27 C 0.32045 0.66995 0.28725 0.0
C28 C 0.54116 0.09694 0.58152 0.0
C29 C 0.48931 0.09136 0.42151 0.0
O30 O 0.51984 0.1187 0.56105 0.0
Zn31 Zn 0.5174 0.09516 0.49985 0.0
O32 O 0.55417 0.07058 0.55739 0.0
Zn33 Zn 0.54978 0.05043 0.48449 0.0
O34 O 0.59742 0.05798 0.45639 0.0
O35 O 0.56805 0.10854 0.46707 0.0
O36 O 0.51279 0.06654 0.42788 0.0
O37 O 0.48377 0.11436 0.4545 0.0
O38 O 0.49382 0.04275 0.51715 0.0
O39 O 0.53378 1.00174 0.49669 0.0
C40 C 0.59614 0.09199 0.45229 0.0
C41 C 0.50309 1.00955 0.51411 0.0
C42 C 0.20217 0.24482 0.75661 0.0
C43 C 0.11714 0.33599 0.69731 0.0
O44 O 0.21691 0.27251 0.73707 0.0
Zn45 Zn 0.20247 0.32194 0.70402 0.0
O46 O 0.16791 0.24239 0.75805 0.0
Zn47 Zn 0.15773 0.28865 0.72642 0.0
O48 O 0.17515 0.28067 0.6538 0.0
O49 O 0.22052 0.31818 0.63953 0.0
O50 O 0.10836 0.3057 0.71564 0.0
O51 O 0.15053 0.34423 0.6922 0.0
O52 O 0.22471 0.35606 0.74735 0.0
O53 O 0.17831 0.32626 0.77871 0.0
C54 C 0.19883 0.29385 0.62497 0.0
C55 C 0.20358 0.34991 0.78259 0.0
C56 C 0.05666 1.00355 0.52647 0.0
C57 C 0.14462 0.92359 0.45108 0.0
O58 O 0.04627 0.97048 0.52634 0.0
Zn59 Zn 0.06713 0.91912 0.50229 0.0
O60 O 0.087 0.012 0.50805 0.0
Zn61 Zn 0.10102 0.964 0.48977 0.0
O62 O 0.06225 0.95173 0.43329 0.0
O63 O 0.03153 0.90357 0.45684 0.0
O64 O 0.14778 0.95716 0.45883 0.0
O65 O 0.11617 0.90699 0.46552 0.0
O66 O 0.07035 0.89203 0.56081 0.0
O67 O 0.10632 0.93962 0.56007 0.0
C68 C 0.03751 0.92796 0.42566 0.0
C69 C 0.09289 0.91232 0.58231 0.0
C70 C 0.35033 0.75858 0.77862 0.0
C71 C 0.32017 0.70874 0.62304 0.0
O72 O 0.32499 0.77647 0.75838 0.0
Zn73 Zn 0.29698 0.7755 0.68994 0.0
O74 O 0.36625 0.73401 0.75521 0.0
Zn75 Zn 0.33748 0.7367 0.69842 0.0
O76 O 0.35585 0.78523 0.66416 0.0
O77 O 0.30917 0.82128 0.66004 0.0
O78 O 0.3454 0.70015 0.65168 0.0
O79 O 0.30053 0.73617 0.63251 0.0
O80 O 0.24819 0.76761 0.7131 0.0
O81 O 0.28498 0.72233 0.72708 0.0
C82 C 0.3423 0.8155 0.65179 0.0
C83 C 0.25367 0.73651 0.73087 0.0
C84 C 0.46458 0.01653 0.02294 0.0
C85 C 0.37455 0.09497 0.94858 0.0
O86 O 0.47401 0.04988 0.02367 0.0
Zn87 Zn 0.45168 0.10098 0.0009 0.0
O88 O 0.43451 1.00749 0.00411 0.0
Zn89 Zn 0.41913 0.05532 0.98689 0.0
O90 O 0.45772 0.06957 0.93118 0.0
O91 O 0.48694 0.1183 0.95609 0.0
O92 O 0.37232 0.06125 0.95569 0.0
O93 O 0.40243 0.11223 0.96373 0.0
O94 O 0.44759 0.12678 0.06046 0.0
O95 O 0.41287 0.07836 0.05767 0.0
C96 C 0.48175 0.09417 0.9243 0.0
C97 C 0.42554 0.10547 0.08107 0.0
C98 C 0.27092 0.28297 0.23126 0.0
C99 C 0.1832 0.20435 0.14921 0.0
O100 O 0.24007 0.29766 0.22494 0.0
Zn101 Zn 0.18834 0.2839 0.19345 0.0
O102 O 0.27633 0.25143 0.21498 0.0
Zn103 Zn 0.2282 0.24406 0.18881 0.0
O104 O 0.22744 0.28237 0.12988 0.0
O105 O 0.18293 0.31978 0.14511 0.0
O106 O 0.21589 0.19798 0.15967 0.0
O107 O 0.17002 0.23516 0.1597 0.0
O108 O 0.15773 0.28821 0.24822 0.0
O109 O 0.1978 0.24488 0.25527 0.0
C110 C 0.20882 0.31011 0.11833 0.0
C111 C 0.17221 0.26362 0.2733 0.0
C112 C 0.82648 0.27048 0.78204 0.0
C113 C 0.90789 0.18321 0.70834 0.0
O114 O 0.81789 0.24119 0.76093 0.0
Zn115 Zn 0.86625 0.2259 0.74641 0.0
O116 O 0.85989 0.27941 0.78611 0.0
Zn117 Zn 0.91197 0.25778 0.76686 0.0
O118 O 0.93133 0.29448 0.72382 0.0
O119 O 0.88289 0.26613 0.69574 0.0
O120 O 0.92458 0.20995 0.72757 0.0
O121 O 0.87375 0.18116 0.71166 0.0
O122 O 0.88608 0.21569 0.81722 0.0
O123 O 0.93391 0.25012 0.82968 0.0
C124 C 0.9076 0.29021 0.69104 0.0
C125 C 0.91157 0.2266 0.84498 0.0
C126 C 0.69368 0.74818 0.27879 0.0
C127 C 0.61156 0.83508 0.20507 0.0
O128 O 0.70214 0.77748 0.25762 0.0
Zn129 Zn 0.65365 0.79267 0.24321 0.0
O130 O 0.66031 0.73918 0.28298 0.0
Zn131 Zn 0.60812 0.7606 0.26392 0.0
O132 O 0.58867 0.72385 0.22113 0.0
O133 O 0.63683 0.75238 0.19264 0.0
O134 O 0.59516 0.80825 0.22448 0.0
O135 O 0.6457 0.83741 0.2083 0.0
O136 O 0.63406 0.80285 0.3141 0.0
O137 O 0.58634 0.76829 0.32665 0.0
C138 C 0.61217 0.72823 0.18816 0.0
C139 C 0.60865 0.79188 0.34188 0.0
C140 C 0.88314 0.28819 0.34897 0.0
C141 C 0.8717 0.2291 0.19385 0.0
O142 O 0.85539 0.29959 0.32596 0.0
Zn143 Zn 0.82947 0.28789 0.25768 0.0
O144 O 0.9019 0.26323 0.33086 0.0
Zn145 Zn 0.87478 0.25679 0.27267 0.0
O146 O 0.88486 0.30697 0.23422 0.0
O147 O 0.83232 0.33367 0.22535 0.0
O148 O 0.89393 0.22289 0.22767 0.0
O149 O 0.8462 0.25177 0.20044 0.0
O150 O 0.78226 0.27144 0.27537 0.0
O151 O 0.8241 0.23276 0.29644 0.0
C152 C 0.86617 0.33344 0.21835 0.0
C153 C 0.79075 0.24184 0.295 0.0
C154 C 0.65582 0.6891 0.71664 0.0
C155 C 0.73081 0.78131 0.79301 0.0
O156 O 0.63698 0.71562 0.73195 0.0
Zn157 Zn 0.6469 0.76611 0.77001 0.0
O158 O 0.68965 0.68907 0.72392 0.0
Zn159 Zn 0.69219 0.73512 0.75551 0.0
O160 O 0.66615 0.72365 0.82386 0.0
O161 O 0.61929 0.75965 0.82755 0.0
O162 O 0.73933 0.75184 0.77317 0.0
O163 O 0.69742 0.79029 0.79443 0.0
O164 O 0.62781 0.79994 0.72487 0.0
O165 O 0.67504 0.77053 0.69746 0.0
C166 C 0.6381 0.73491 0.8462 0.0
C167 C 0.64955 0.79322 0.69075 0.0
C168 C 0.44732 0.40983 0.45008 0.0
C169 C 0.53033 0.49443 0.52734 0.0
O170 O 0.44428 0.44349 0.4564 0.0
Zn171 Zn 0.48882 0.45196 0.49064 0.0
O172 O 0.47458 0.39357 0.46814 0.0
Zn173 Zn 0.52174 0.40846 0.50927 0.0
O174 O 0.51568 0.38427 0.57026 0.0
O175 O 0.48046 0.4314 0.56246 0.0
O176 O 0.54128 0.46178 0.53114 0.0
O177 O 0.50107 0.50087 0.50507 0.0
O178 O 0.52981 0.43822 0.43862 0.0
O179 O 0.55954 0.39163 0.46773 0.0
C180 C 0.49277 0.4056 0.58829 0.0
C181 C 0.5547 0.41463 0.43442 0.0
C182 C 0.03216 0.61343 0.08488 0.0
C183 C 0.96996 0.60413 0.93103 0.0
O184 O 1.00958 0.63498 0.06646 0.0
Zn185 Zn 1.00308 0.61041 0.00583 0.0
O186 O 0.04405 0.58725 0.05946 0.0
Zn187 Zn 0.03532 0.56626 0.98795 0.0
O188 O 0.07996 0.57376 0.95376 0.0
O189 O 0.05043 0.62423 0.96458 0.0
O190 O 0.99451 0.5802 0.93564 0.0
O191 O 0.9655 0.62747 0.96396 0.0
O192 O 0.98277 0.55756 0.02849 0.0
O193 O 0.02235 0.51767 0.00308 0.0
C194 C 0.07742 0.6074 0.94689 0.0
C195 C 0.99323 0.52472 0.0252 0.0
C196 C 0.55982 0.50326 0.03334 0.0
C197 C 0.64481 0.42116 0.95653 0.0
O198 O 0.5495 0.47017 0.03501 0.0
Zn199 Zn 0.5689 0.41821 0.01165 0.0
O200 O 0.58912 0.51142 0.01199 0.0
Zn201 Zn 0.6024 0.4627 -0.00504 0.0
O202 O 0.56291 0.44817 0.9403 0.0
O203 O 0.53233 0.40127 0.9682 0.0
O204 O 0.64799 0.45499 0.96216 0.0
O205 O 0.61697 0.40487 0.9734 0.0
O206 O 0.574 0.39254 0.0712 0.0
O207 O 0.61046 0.4396 0.0658 0.0
C208 C 0.53823 0.424 0.93481 0.0
C209 C 0.59776 0.41293 0.09009 0.0
C210 C 0.96383 0.51949 0.53108 0.0
C211 C 0.8798 0.60208 0.4529 0.0
O212 O 0.97457 0.55246 0.53233 0.0
Zn213 Zn 0.95583 0.6045 0.50805 0.0
O214 O 0.93448 0.51155 0.50959 0.0
Zn215 Zn 0.92181 0.56031 0.49185 0.0
O216 O 0.96142 0.57398 0.4371 0.0
O217 O 0.99257 0.62068 0.46447 0.0
O218 O 0.87629 0.56832 0.4589 0.0
O219 O 0.90784 0.61818 0.46959 0.0
O220 O 0.95112 0.63068 0.56717 0.0
O221 O 0.91411 0.584 0.56238 0.0
C222 C 0.98639 0.59781 0.43137 0.0
C223 C 0.92716 0.6107 0.58632 0.0
H224 H 0.96132 0.982 0.14154 0.0
H225 H 1.0023 0.87151 0.3826 0.0
H226 H 0.98533 0.8685 0.14307 0.0
H227 H 0.02757 0.98431 0.36392 0.0
H228 H 0.9761 0.87044 0.30122 0.0
H229 H 0.96485 0.98263 0.2299 0.0
C230 C 0.96636 0.95702 0.1605 0.0
C231 C 0.97361 0.92524 0.13506 0.0
C232 C 0.98689 0.89549 0.31539 0.0
C233 C 0.97762 0.92587 0.23562 0.0
C234 C 1.00176 0.89617 0.36172 0.0
C235 C 0.0176 0.92793 0.37956 0.0
C236 C 0.9874 0.92692 0.28725 0.0
C237 C 0.01614 0.95914 0.35112 0.0
C238 C 0.96859 0.95749 0.21081 0.0
C239 C 0.98009 0.89366 0.16139 0.0
N240 N 1.00149 0.95781 0.30617 0.0
N241 N 0.9823 0.89483 0.21034 0.0
H242 H 0.25694 0.66021 0.33489 0.0
H243 H 0.36386 0.65752 0.5839 0.0
H244 H 0.37176 0.64617 0.34897 0.0
H245 H 0.26335 0.71273 0.56008 0.0
H246 H 0.35822 0.63019 0.50391 0.0
H247 H 0.25105 0.65489 0.42293 0.0
C248 C 0.28065 0.65442 0.35636 0.0
C249 C 0.31495 0.65416 0.33521 0.0
C250 C 0.33709 0.64774 0.51669 0.0
C251 C 0.30853 0.64847 0.43496 0.0
C252 C 0.34031 0.66346 0.5622 0.0
C253 C 0.31452 0.68822 0.57804 0.0
C254 C 0.30781 0.65673 0.48702 0.0
C255 C 0.2843 0.69447 0.54874 0.0
C256 C 0.27733 0.65173 0.40649 0.0
C257 C 0.34493 0.64697 0.36434 0.0
N258 N 0.28201 0.6792 0.50426 0.0
N259 N 0.34112 0.64496 0.41297 0.0
H260 H 0.51334 0.15258 0.88096 0.0
H261 H 0.56291 0.04333 0.64213 0.0
H262 H 0.49541 0.03838 0.86328 0.0
H263 H 0.53081 0.15478 0.6409 0.0
H264 H 0.55884 0.04337 0.73037 0.0
H265 H 0.53958 0.15493 0.79964 0.0
C266 C 0.51553 0.12792 0.86031 0.0
C267 C 0.50174 0.09531 0.87839 0.0
C268 C 0.55342 0.06797 0.71071 0.0
C269 C 0.53201 0.09779 0.78627 0.0
C270 C 0.55593 0.06807 0.66045 0.0
C271 C 0.5466 0.09896 0.63422 0.0
C272 C 0.54198 0.09908 0.73474 0.0
C273 C 0.5377 0.13025 0.65981 0.0
C274 C 0.53039 0.12933 0.81404 0.0
C275 C 0.50523 0.06415 0.85028 0.0
N276 N 0.53526 0.12943 0.70876 0.0
N277 N 0.51989 0.06617 0.80544 0.0
H278 H 0.26887 0.36287 0.82526 0.0
H279 H 0.2656 0.30118 0.05645 0.0
H280 H 0.15427 0.36986 0.84929 0.0
H281 H 0.16926 0.3638 0.07717 0.0
H282 H 0.27242 0.32746 0.9763 0.0
H283 H 0.27877 0.36748 0.9127 0.0
C284 C 0.24592 0.36664 0.84886 0.0
C285 C 0.21067 0.36515 0.83057 0.0
C286 C 0.25049 0.33648 -0.0011 0.0
C287 C 0.22156 0.36911 0.92981 0.0
C288 C 0.24628 0.32102 0.04449 0.0
C289 C 0.21636 0.32969 0.07303 0.0
C290 C 0.22434 0.3605 0.98166 0.0
C291 C 0.19242 0.35588 0.05602 0.0
C292 C 0.25152 0.36865 0.89873 0.0
C293 C 0.18182 0.37018 0.86236 0.0
N294 N 0.19646 0.36972 0.01096 0.0
N295 N 0.18786 0.37135 0.91063 0.0
H296 H 0.07773 0.85369 0.63903 0.0
H297 H 0.06545 0.86584 0.88909 0.0
H298 H 0.11937 0.96249 0.6452 0.0
H299 H 0.04449 0.97687 0.85339 0.0
H300 H 0.09206 0.85756 0.80881 0.0
H301 H 0.07303 0.85345 0.72707 0.0
C302 C 0.08688 0.87713 0.65901 0.0
C303 C 0.09855 0.9083 0.63478 0.0
C304 C 0.08172 0.8837 0.81875 0.0
C305 C 0.09308 0.9083 0.73523 0.0
C306 C 0.06676 0.88853 0.86453 0.0
C307 C 0.05217 0.92193 0.87742 0.0
C308 C 0.08233 0.91262 0.78609 0.0
C309 C 0.05482 0.95051 0.8445 0.0
C310 C 0.08438 0.87691 0.7093 0.0
C311 C 0.11007 0.93793 0.66239 0.0
N312 N 0.06951 0.94516 0.80025 0.0
N313 N 0.10612 0.93755 0.71113 0.0
H314 H 0.84804 0.34067 0.39981 0.0
H315 H 0.85216 0.32159 0.64461 0.0
H316 H 0.93923 0.26939 0.40802 0.0
H317 H 0.96591 0.30089 0.63235 0.0
H318 H 0.84986 0.33555 0.55891 0.0
H319 H 0.85899 0.35853 0.48353 0.0
C320 C 0.87044 0.32886 0.41914 0.0
C321 C 0.89208 0.30266 0.39734 0.0
C322 C 0.87576 0.32956 0.57491 0.0
C323 C 0.90424 0.32235 0.49347 0.0
C324 C 0.87699 0.32147 0.62398 0.0
C325 C 0.9092 0.30998 0.64518 0.0
C326 C 0.90689 0.32526 0.54666 0.0
C327 C 0.94059 0.3098 0.6171 0.0
C328 C 0.87656 0.33895 0.46705 0.0
C329 C 0.92131 0.28902 0.42373 0.0
N330 N 0.93846 0.31625 0.56877 0.0
N331 N 0.92622 0.29865 0.47063 0.0
H332 H 0.39167 0.0566 0.13978 0.0
H333 H 0.47443 0.03673 0.35896 0.0
H334 H 0.44708 0.15934 0.14273 0.0
H335 H 0.45991 0.15087 0.37922 0.0
H336 H 0.4466 0.04148 0.27927 0.0
H337 H 0.39671 0.05335 0.22766 0.0
C338 C 0.40423 0.07885 0.15891 0.0
C339 C 0.41987 0.10786 0.13377 0.0
C340 C 0.44859 0.06534 0.30162 0.0
C341 C 0.4263 0.10384 0.23394 0.0
C342 C 0.46491 0.06271 0.3468 0.0
C343 C 0.46959 0.09349 0.37543 0.0
C344 C 0.43747 0.09912 0.28464 0.0
C345 C 0.4567 0.12651 0.35813 0.0
C346 C 0.4074 0.07674 0.209 0.0
C347 C 0.43533 0.13612 0.16061 0.0
N348 N 0.44189 0.12863 0.31327 0.0
N349 N 0.43861 0.13318 0.20935 0.0
H350 H 0.6666 0.69577 0.14082 0.0
H351 H 0.5754 0.74432 0.89646 0.0
H352 H 0.55338 0.71958 0.12983 0.0
H353 H 0.67873 0.69202 0.90518 0.0
H354 H 0.56314 0.72655 0.97978 0.0
H355 H 0.66805 0.68317 0.05437 0.0
C356 C 0.64175 0.69709 0.12026 0.0
C357 C 0.60992 0.70897 0.142 0.0
C358 C 0.58823 0.71836 0.96325 0.0
C359 C 0.6116 0.6963 0.04289 0.0
C360 C 0.59537 0.72875 0.91575 0.0
C361 C 0.62851 0.72035 0.89423 0.0
C362 C 0.61467 0.7 0.98971 0.0
C363 C 0.65306 0.69956 0.9206 0.0
C364 C 0.64257 0.69011 0.07086 0.0
C365 C 0.57843 0.71047 0.11412 0.0
N366 N 0.64593 0.69068 0.96727 0.0
N367 N 0.58026 0.70521 0.06554 0.0
H368 H 0.46493 0.45935 0.64368 0.0
H369 H 0.50922 0.3632 0.89443 0.0
H370 H 0.50492 0.3507 0.65262 0.0
H371 H 0.52555 0.47671 0.86827 0.0
H372 H 0.48712 0.3563 0.81127 0.0
H373 H 0.46587 0.46293 0.73186 0.0
C374 C 0.47298 0.43587 0.66415 0.0
C375 C 0.48535 0.4048 0.64074 0.0
C376 C 0.49495 0.38276 0.82419 0.0
C377 C 0.48635 0.40887 0.74146 0.0
C378 C 0.50738 0.38679 0.87155 0.0
C379 C 0.51954 0.42054 0.88795 0.0
C380 C 0.494 0.41283 0.79356 0.0
C381 C 0.51678 0.45017 0.8568 0.0
C382 C 0.4737 0.43809 0.71443 0.0
C383 C 0.49555 0.37529 0.66922 0.0
N384 N 0.5044 0.44561 0.81097 0.0
N385 N 0.49614 0.37815 0.71821 0.0
H386 H 0.96184 0.24121 0.91591 0.0
H387 H 0.8225 0.21625 0.1224 0.0
H388 H 0.86011 0.18671 0.89115 0.0
H389 H 0.93644 0.21221 0.15351 0.0
H390 H 0.83565 0.20527 0.03706 0.0
H391 H 0.95437 0.23092 0.00295 0.0
C392 C 0.93832 0.22655 0.92861 0.0
C393 C 0.91135 0.21526 0.89624 0.0
C394 C 0.85772 0.20601 0.06274 0.0
C395 C 0.90243 0.20402 -0.00466 0.0
C396 C 0.8502 0.21228 0.11135 0.0
C397 C 0.87842 0.21519 0.14486 0.0
C398 C 0.89374 0.20376 0.04744 0.0
C399 C 0.9139 0.20998 0.12874 0.0
C400 C 0.93412 0.22062 0.97821 0.0
C401 C 0.88147 0.19624 0.91473 0.0
N402 N 0.92067 0.20533 0.08089 0.0
N403 N 0.87746 0.19187 0.96309 0.0
H404 H 0.05933 0.5597 0.14106 0.0
H405 H 0.0162 0.65798 0.39037 0.0
H406 H 0.02075 0.66892 0.14844 0.0
H407 H 0.99836 0.54453 0.36552 0.0
H408 H 0.03844 0.66407 0.30724 0.0
H409 H 0.05832 0.55669 0.22927 0.0
C410 C 0.05158 0.58341 0.16118 0.0
C411 C 0.03961 0.61449 0.13733 0.0
C412 C 0.03024 0.6378 0.32044 0.0
C413 C 0.03854 0.61107 0.23809 0.0
C414 C 0.01773 0.63422 0.36779 0.0
C415 C 1.00511 0.60073 0.38454 0.0
C416 C 0.0308 0.60753 0.29019 0.0
C417 C 1.00749 0.57088 0.35377 0.0
C418 C 0.05082 0.58152 0.21148 0.0
C419 C 0.0298 0.64431 0.16539 0.0
N420 N 0.01996 0.57499 0.30795 0.0
N421 N 0.02916 0.64177 0.2144 0.0
H422 H 0.58553 0.81763 0.65476 0.0
H423 H 0.5571 0.77948 0.41159 0.0
H424 H 0.69597 0.79773 0.6143 0.0
H425 H 0.66129 0.82955 0.38905 0.0
H426 H 0.56364 0.79025 0.49853 0.0
H427 H 0.57049 0.82675 0.56942 0.0
C428 C 0.60678 0.81595 0.62806 0.0
C429 C 0.642 0.80643 0.64149 0.0
C430 C 0.58455 0.79978 0.47432 0.0
C431 C 0.62482 0.8163 0.54421 0.0
C432 C 0.58094 0.79342 0.42476 0.0
C433 C 0.60877 0.80337 0.39303 0.0
C434 C 0.61645 0.81569 0.49211 0.0
C435 C 0.63916 0.82128 0.41211 0.0
C436 C 0.59803 0.82071 0.5794 0.0
C437 C 0.66842 0.8046 0.60542 0.0
N438 N 0.64253 0.82613 0.46049 0.0
N439 N 0.65925 0.80931 0.55833 0.0
H440 H 0.62927 0.46301 0.14914 0.0
H441 H 0.58154 0.35475 0.39024 0.0
H442 H 0.58564 0.35486 0.14921 0.0
H443 H 0.57332 0.46997 0.37491 0.0
H444 H 0.60488 0.3513 0.3073 0.0
H445 H 0.6312 0.4615 0.23743 0.0
C446 C 0.62098 0.43859 0.16761 0.0
C447 C 0.60663 0.40922 0.14187 0.0
C448 C 0.59868 0.37735 0.32264 0.0
C449 C 0.60891 0.40744 0.2426 0.0
C450 C 0.58557 0.37937 0.36987 0.0
C451 C 0.57513 0.41266 0.38895 0.0
C452 C 0.60194 0.40892 0.29503 0.0
C453 C 0.58065 0.44375 0.36113 0.0
C454 C 0.62196 0.43786 0.21796 0.0
C455 C 0.59635 0.37829 0.16774 0.0
N456 N 0.59349 0.44111 0.31539 0.0
N457 N 0.5973 0.37833 0.21684 0.0
H458 H 0.30131 0.6838 0.05424 0.0
H459 H 0.33207 0.81415 0.83874 0.0
H460 H 0.3425 0.78979 0.08868 0.0
H461 H 0.37629 0.70695 0.83846 0.0
H462 H 0.32454 0.8098 0.92688 0.0
H463 H 0.31345 0.69552 0.96872 0.0
C464 C 0.3121 0.70982 0.04366 0.0
C465 C 0.32103 0.73588 0.07831 0.0
C466 C 0.33652 0.78767 0.9073 0.0
C467 C 0.33496 0.7492 0.98129 0.0
C468 C 0.34101 0.79014 0.85732 0.0
C469 C 0.35467 0.76078 0.83136 0.0
C470 C 0.34475 0.75531 0.93065 0.0
C471 C 0.3657 0.73022 0.85703 0.0
C472 C 0.31943 0.71626 -0.00486 0.0
C473 C 0.3354 0.76903 0.06282 0.0
N474 N 0.35967 0.72792 0.90521 0.0
N475 N 0.34189 0.7749 0.01512 0.0
H476 H 0.95048 0.54862 0.87235 0.0
H477 H 0.9404 0.66885 0.64481 0.0
H478 H 0.9442 0.66407 0.88575 0.0
H479 H 0.89524 0.56134 0.64597 0.0
H480 H 0.93826 0.66945 0.73316 0.0
H481 H 0.92678 0.55303 0.79017 0.0
C482 C 0.94346 0.57485 0.85817 0.0
C483 C 0.94956 0.60606 0.88547 0.0
C484 C 0.92801 0.64609 0.714 0.0
C485 C 0.92326 0.61142 0.79135 0.0
C486 C 0.92931 0.64569 0.6636 0.0
C487 C 0.91855 0.61477 0.63808 0.0
C488 C 0.91665 0.61506 0.73888 0.0
C489 C 0.90413 0.58563 0.66421 0.0
C490 C 0.92981 0.57736 0.8114 0.0
C491 C 0.93988 0.63939 0.86569 0.0
N492 N 0.90439 0.58615 0.71326 0.0
N493 N 0.92798 0.64132 0.81926 0.0
H494 H 0.14296 0.31558 0.3299 0.0
H495 H 0.1784 0.22957 0.58515 0.0
H496 H 0.18857 0.20904 0.33607 0.0
H497 H 0.21275 0.33748 0.54857 0.0
H498 H 0.16615 0.21798 0.499 0.0
H499 H 0.14863 0.31996 0.41762 0.0
C500 C 0.15309 0.29265 0.34978 0.0
C501 C 0.16576 0.26205 0.3257 0.0
C502 C 0.17663 0.244 0.51014 0.0
C503 C 0.17231 0.26711 0.42552 0.0
C504 C 0.18377 0.25057 0.55888 0.0
C505 C 0.19684 0.28442 0.57358 0.0
C506 C 0.18142 0.27191 0.47669 0.0
C507 C 0.20312 0.31091 0.53851 0.0
C508 C 0.1567 0.2954 0.39965 0.0
C509 C 0.17883 0.23322 0.35336 0.0
N510 N 0.19481 0.30427 0.49163 0.0
N511 N 0.18205 0.23652 0.40208 0.0
H512 H 0.08922 1.00325 0.04801 0.0
H513 H 0.11423 0.21159 0.11533 0.0
H514 H 1.00975 0.08423 0.01646 0.0
H515 H 0.19904 0.13347 0.13039 0.0
H516 H 0.07551 0.16517 0.07979 0.0
H517 H 0.12959 0.05026 0.07893 0.0
C518 C 0.08025 0.03092 0.04743 0.0
C519 C 0.04592 0.03972 0.02962 0.0
C520 C 0.10262 0.15816 0.09069 0.0
C521 C 0.09212 0.09379 0.06528 0.0
C522 C 0.1248 0.18468 0.11109 0.0
C523 C 0.16001 0.17647 0.12605 0.0
C524 C 0.11554 0.12295 0.08536 0.0
C525 C 0.17213 0.14108 0.11942 0.0
C526 C 0.10338 0.05778 0.06508 0.0
C527 C 0.03591 0.07611 0.02978 0.0
N528 N 0.1499 0.11562 0.09979 0.0
N529 N 0.05881 0.10173 0.0475 0.0
H530 H 0.13837 0.85603 0.41436 0.0
H531 H 0.33864 0.83573 0.31557 0.0
H532 H 0.21365 0.94504 0.42477 0.0
H533 H 0.24655 0.77511 0.2636 0.0
H534 H 0.2972 0.87439 0.36174 0.0
H535 H 0.18206 0.82302 0.36708 0.0
C536 C 0.16421 0.86867 0.40689 0.0
C537 C 0.17224 0.90348 0.42357 0.0
C538 C 0.28631 0.85275 0.33978 0.0
C539 C 0.22279 0.86547 0.36887 0.0
C540 C 0.30987 0.83075 0.31342 0.0
C541 C 0.29617 0.80188 0.28591 0.0
C542 C 0.24904 0.84539 0.3389 0.0
C543 C 0.2586 0.79671 0.28451 0.0
C544 C 0.18915 0.8498 0.37954 0.0
C545 C 0.2063 0.91831 0.41245 0.0
N546 N 0.23657 0.81793 0.31087 0.0
N547 N 0.23048 0.89914 0.38587 0.0
H548 H 0.41243 0.80936 0.62227 0.0
H549 H 0.43373 0.01653 0.54677 0.0
H550 H 0.32525 0.88546 0.62919 0.0
H551 H 0.51594 0.93702 0.52219 0.0
H552 H 0.39396 0.96924 0.57812 0.0
H553 H 0.45094 0.85596 0.58677 0.0
C554 C 0.40131 0.83586 0.61626 0.0
C555 C 0.36549 0.84346 0.62889 0.0
C556 C 0.42065 0.9621 0.56572 0.0
C557 C 0.40967 0.89716 0.58825 0.0
C558 C 0.44344 0.98912 0.54783 0.0
C559 C 0.47834 0.98082 0.53183 0.0
C560 C 0.43282 0.92643 0.56799 0.0
C561 C 0.4893 0.94474 0.53407 0.0
C562 C 0.42336 0.86248 0.59588 0.0
C563 C 0.35266 0.87833 0.62006 0.0
N564 N 0.4667 0.91896 0.55198 0.0
N565 N 0.37476 0.9039 0.60049 0.0
H566 H 0.27532 0.24319 0.75417 0.0
H567 H 0.30556 0.07261 0.92353 0.0
H568 H 0.18379 0.18563 0.81334 0.0
H569 H 0.38022 0.1618 0.9093 0.0
H570 H 0.26152 0.10615 0.8744 0.0
H571 H 0.31537 0.2047 0.79969 0.0
C572 C 0.2635 0.22224 0.7765 0.0
C573 C 0.22593 0.21802 0.78024 0.0
C574 C 0.28755 0.11822 0.88234 0.0
C575 C 0.27226 0.17355 0.83304 0.0
C576 C 0.31267 0.09915 0.91022 0.0
C577 C 0.34665 0.11443 0.92062 0.0
C578 C 0.29691 0.15233 0.86409 0.0
C579 C 0.35441 0.14891 0.90249 0.0
C580 C 0.28654 0.20032 0.80273 0.0
C581 C 0.21254 0.18997 0.80954 0.0
N582 N 0.32992 0.16647 0.87497 0.0
N583 N 0.23574 0.16879 0.8351 0.0
H584 H 0.85927 0.95427 0.92297 0.0
H585 H 0.80186 0.76519 0.80602 0.0
H586 H 0.92426 0.85847 0.92847 0.0
H587 H 0.72489 0.84966 0.83129 0.0
H588 H 0.84841 0.80189 0.84442 0.0
H589 H 0.81095 0.91909 0.88383 0.0
C590 C 0.8634 0.9259 0.91604 0.0
C591 C 0.89592 0.90933 0.92913 0.0
C592 C 0.82136 0.81248 0.84166 0.0
C593 C 0.84095 0.86911 0.88406 0.0
C594 C 0.7947 0.79154 0.81951 0.0
C595 C 0.75927 0.80426 0.81542 0.0
C596 C 0.81285 0.84669 0.85972 0.0
C597 C 0.75179 0.8387 0.83376 0.0
C598 C 0.83579 0.90586 0.89378 0.0
C599 C 0.8997 0.87247 0.91925 0.0
N600 N 0.77838 0.85878 0.85503 0.0
N601 N 0.8727 0.85375 0.89721 0.0
H602 H 0.88409 0.11869 0.67032 0.0
H603 H 0.07389 0.07401 0.54645 0.0
H604 H 0.97901 0.18617 0.68313 0.0
H605 H 0.98765 0.99589 0.56047 0.0
H606 H 0.03702 0.11784 0.58945 0.0
H607 H 0.91944 0.07533 0.62369 0.0
C608 C 0.91231 0.12438 0.66342 0.0
C609 C 0.9286 0.15606 0.68088 0.0
C610 C 0.02613 0.09112 0.58303 0.0
C611 C 0.96907 0.10681 0.62721 0.0
C612 C 0.04713 0.06612 0.55827 0.0
C613 C 0.03394 0.03115 0.54994 0.0
C614 C 0.99155 0.08122 0.59934 0.0
C615 C 0.99902 0.02248 0.56624 0.0
C616 C 0.93247 0.09963 0.63682 0.0
C617 C 0.9653 0.16204 0.6707 0.0
N618 N 0.97906 0.04732 0.59015 0.0
N619 N 0.9842 0.13775 0.64449 0.0
H620 H 0.71951 0.25757 0.30708 0.0
H621 H 0.66353 0.06835 0.42512 0.0
H622 H 0.79688 0.17358 0.3334 0.0
H623 H 0.59683 0.16303 0.42713 0.0
H624 H 0.71161 0.10389 0.38626 0.0
H625 H 0.673 0.22056 0.34496 0.0
C626 C 0.72676 0.23126 0.3207 0.0
C627 C 0.76229 0.21876 0.31706 0.0
C628 C 0.68644 0.11681 0.39537 0.0
C629 C 0.70878 0.17598 0.36074 0.0
C630 C 0.65898 0.09655 0.41747 0.0
C631 C 0.62605 0.1127 0.42952 0.0
C632 C 0.68076 0.15335 0.38479 0.0
C633 C 0.62171 0.14937 0.41872 0.0
C634 C 0.70013 0.21014 0.34253 0.0
C635 C 0.7699 0.18437 0.33552 0.0
N636 N 0.64861 0.16831 0.3969 0.0
N637 N 0.74335 0.16413 0.3565 0.0
H638 H 0.54049 0.83109 0.17978 0.0
H639 H 0.53354 0.02544 0.05689 0.0
H640 H 0.63435 0.90002 0.16697 0.0
H641 H 0.44881 0.94571 0.04272 0.0
H642 H 0.57025 0.98134 0.09986 0.0
H643 H 0.50581 0.87439 0.1332 0.0
C644 C 0.55385 0.85543 0.16733 0.0
C645 C 0.59046 0.86194 0.17751 0.0
C646 C 0.54372 0.97345 0.0871 0.0
C647 C 0.55063 0.9118 0.12381 0.0
C648 C 0.52269 0.99861 0.06257 0.0
C649 C 0.48794 0.98931 0.0462 0.0
C650 C 0.52981 0.93879 0.09583 0.0
C651 C 0.47541 0.9541 0.05458 0.0
C652 C 0.53399 0.88009 0.14046 0.0
C653 C 0.60622 0.89389 0.16004 0.0
N654 N 0.49622 0.93024 0.07907 0.0
N655 N 0.58617 0.91772 0.1342 0.0
H656 H 0.50994 0.56467 0.53763 0.0
H657 H 0.68483 0.62472 0.68809 0.0
H658 H 0.59604 0.49162 0.57298 0.0
H659 H 0.58701 0.68676 0.68111 0.0
H660 H 0.65551 0.57759 0.63975 0.0
H661 H 0.54108 0.61202 0.58287 0.0
C662 C 0.53554 0.55863 0.55458 0.0
C663 C 0.55033 0.52404 0.55158 0.0
C664 C 0.64049 0.6015 0.64893 0.0
C665 C 0.58609 0.57823 0.60369 0.0
C666 C 0.65719 0.62841 0.67651 0.0
C667 C 0.63831 0.65971 0.68883 0.0
C668 C 0.6048 0.60608 0.63313 0.0
C669 C 0.60256 0.66304 0.67274 0.0
C670 C 0.55321 0.58566 0.58064 0.0
C671 C 0.58357 0.51785 0.57443 0.0
N672 N 0.58705 0.63665 0.64561 0.0
N673 N 0.60032 0.54467 0.59955 0.0
H674 H 0.71154 0.44353 0.92414 0.0
H675 H 0.75439 0.25576 0.79435 0.0
H676 H 0.63981 0.35137 0.92645 0.0
H677 H 0.83504 0.33818 0.81951 0.0
H678 H 0.70985 0.29338 0.83488 0.0
H679 H 0.75534 0.40792 0.87862 0.0
C680 C 0.705 0.41587 0.91512 0.0
C681 C 0.67203 0.40039 0.92937 0.0
C682 C 0.73729 0.30326 0.83141 0.0
C683 C 0.72178 0.35965 0.87702 0.0
C684 C 0.76269 0.28184 0.80809 0.0
C685 C 0.79856 0.29372 0.80372 0.0
C686 C 0.74773 0.33693 0.85023 0.0
C687 C 0.80775 0.32781 0.8223 0.0
C688 C 0.72999 0.39555 0.88917 0.0
C689 C 0.66496 0.36441 0.91655 0.0
N690 N 0.78252 0.34819 0.84476 0.0
N691 N 0.68955 0.34534 0.89108 0.0
H692 H 0.8376 0.39775 0.18843 0.0
H693 H 0.01264 0.45431 0.0366 0.0
H694 H 0.93495 0.33491 0.18308 0.0
H695 H 0.9277 0.52886 0.07086 0.0
H696 H 0.98106 0.40782 0.0828 0.0
H697 H 0.86724 0.44409 0.13909 0.0
C698 C 0.86521 0.39373 0.17702 0.0
C699 C 0.88386 0.36244 0.19008 0.0
C700 C 0.96927 0.43432 0.08012 0.0
C701 C 0.91771 0.41512 0.13323 0.0
C702 C 0.9872 0.46086 0.0535 0.0
C703 C 0.97287 0.49562 0.04993 0.0
C704 C 0.93661 0.44243 0.10315 0.0
C705 C 0.93981 0.50248 0.07275 0.0
C706 C 0.88209 0.42018 0.14887 0.0
C707 C 0.91957 0.35866 0.17416 0.0
N708 N 0.9228 0.47613 0.09843 0.0
N709 N 0.93525 0.38459 0.14646 0.0
H710 H 0.88508 0.67187 0.4227 0.0
H711 H 0.68543 0.68019 0.31537 0.0
H712 H 0.81285 0.58009 0.42063 0.0
H713 H 0.76565 0.76332 0.29225 0.0
H714 H 0.73087 0.64366 0.35579 0.0
H715 H 0.84075 0.70636 0.3775 0.0
C716 C 0.85983 0.65894 0.41285 0.0
C717 C 0.85265 0.623 0.4257 0.0
C718 C 0.7386 0.66979 0.34164 0.0
C719 C 0.80163 0.66255 0.3737 0.0
C720 C 0.71265 0.69073 0.31858 0.0
C721 C 0.72169 0.72499 0.3005 0.0
C722 C 0.77383 0.68328 0.34715 0.0
C723 C 0.75745 0.7371 0.30559 0.0
C724 C 0.83457 0.67867 0.3868 0.0
C725 C 0.81952 0.6077 0.41157 0.0
N726 N 0.78213 0.71638 0.32873 0.0
N727 N 0.79516 0.62762 0.38652 0.0
H728 H 0.26941 0.35258 0.26243 0.0
H729 H 0.44915 0.339 0.4219 0.0
H730 H 0.33517 0.25727 0.26724 0.0
H731 H 0.38599 0.43553 0.40735 0.0
H732 H 0.40749 0.30798 0.36695 0.0
H733 H 0.31209 0.38293 0.31577 0.0
C734 C 0.29299 0.33803 0.27446 0.0
C735 C 0.29863 0.30222 0.2603 0.0
C736 C 0.40273 0.33592 0.37587 0.0
C737 C 0.34772 0.33697 0.3221 0.0
C738 C 0.4264 0.35363 0.40745 0.0
C739 C 0.42107 0.38997 0.41938 0.0
C740 C 0.37343 0.35463 0.35611 0.0
C741 C 0.39122 0.40754 0.39929 0.0
C742 C 0.31737 0.35544 0.30508 0.0
C743 C 0.32976 0.2849 0.2771 0.0
N744 N 0.3686 0.38972 0.3687 0.0
N745 N 0.35306 0.30238 0.30733 0.0
H746 H 0.49592 0.49371 0.08006 0.0
H747 H 0.47439 0.69838 0.16717 0.0
H748 H 0.57464 0.57592 0.04481 0.0
H749 H 0.39559 0.61357 0.1876 0.0
H750 H 0.51446 0.65454 0.12781 0.0
H751 H 0.46131 0.53798 0.12401 0.0
C752 C 0.50593 0.52117 0.08137 0.0
C753 C 0.53824 0.53103 0.05842 0.0
C754 C 0.48846 0.64566 0.14127 0.0
C755 C 0.49843 0.58238 0.10938 0.0
C756 C 0.46575 0.67056 0.164 0.0
C757 C 0.4315 0.65965 0.18037 0.0
C758 C 0.47677 0.60976 0.1354 0.0
C759 C 0.42155 0.62334 0.17511 0.0
C760 C 0.48611 0.54656 0.10669 0.0
C761 C 0.54977 0.56715 0.06175 0.0
N762 N 0.44393 0.5999 0.15306 0.0
N763 N 0.52986 0.59159 0.08677 0.0
H764 H 0.18785 0.76176 0.76147 0.0
H765 H 0.13919 0.58081 0.90667 0.0
H766 H 0.25544 0.66772 0.76534 0.0
H767 H 0.07591 0.6776 0.91593 0.0
H768 H 0.18073 0.61184 0.85211 0.0
H769 H 0.14454 0.73062 0.81418 0.0
C770 C 0.19344 0.73449 0.77297 0.0
C771 C 0.2254 0.71739 0.75899 0.0
C772 C 0.15782 0.62637 0.86615 0.0
C773 C 0.17615 0.68174 0.81956 0.0
C774 C 0.1341 0.60866 0.89745 0.0
C775 C 0.10402 0.62661 0.91607 0.0
C776 C 0.15142 0.66232 0.85305 0.0
C777 C 0.09882 0.66271 0.90264 0.0
C778 C 0.16881 0.71681 0.80329 0.0
C779 C 0.23127 0.68208 0.77525 0.0
N780 N 0.12221 0.67934 0.87186 0.0
N781 N 0.20698 0.66553 0.80466 0.0
H782 H 0.02715 0.52871 0.57956 0.0
H783 H 0.04722 0.32348 0.66534 0.0
H784 H 0.94846 0.44693 0.54231 0.0
H785 H 0.126 0.40793 0.68843 0.0
H786 H 1.00743 0.36778 0.62621 0.0
H787 H 0.06099 0.48421 0.62439 0.0
C788 C 0.01699 0.50129 0.58061 0.0
C789 C 0.98493 0.49162 0.55681 0.0
C790 C 0.03333 0.37651 0.64026 0.0
C791 C 0.02384 0.44001 0.60878 0.0
C792 C 0.05587 0.35134 0.66288 0.0
C793 C 0.09006 0.36201 0.67983 0.0
C794 C 0.04514 0.41243 0.63508 0.0
C795 C 0.10007 0.39837 0.67545 0.0
C796 C 0.03636 0.47578 0.60645 0.0
C797 C 0.97315 0.45556 0.55989 0.0
N798 N 0.07787 0.42207 0.65345 0.0
N799 N 0.99265 0.43099 0.58538 0.0
loop_
_geom_bond_atom_site_label_1
_geom_bond_atom_site_label_2
_geom_bond_distance
_geom_bond_site_symmetry_2
_ccdc_geom_bond_type
C0 O2 1.247 . S
C0 O4 1.258 . S
C1 O8 1.247 . S
C1 O9 1.258 . S
O2 C0 1.247 . S
O2 Zn3 2.030 1_455 S
Zn3 O2 2.030 1_655 S
Zn3 O7 2.027 1_554 S
Zn3 O9 2.033 1_544 S
Zn3 O10 2.036 . S
O4 C0 1.258 . S
O4 Zn5 2.034 1_544 S
Zn5 O4 2.034 1_566 S
Zn5 O6 2.031 . S
Zn5 O8 2.029 1_455 S
Zn5 O11 2.032 1_556 S
O6 Zn5 2.031 . S
O6 C12 1.247 1_565 S
O7 Zn3 2.027 1_556 S
O7 C12 1.258 1_655 S
O8 C1 1.247 . S
O8 Zn5 2.029 1_655 S
O9 C1 1.258 . S
O9 Zn3 2.033 1_566 S
O10 Zn3 2.036 . S
O10 C13 1.247 1_545 S
O11 Zn5 2.032 1_554 S
O11 C13 1.258 1_455 S
C12 O6 1.247 1_545 S
C12 O7 1.258 1_455 S
C13 O10 1.247 1_565 S
C13 O11 1.258 1_655 S
C14 O16 1.247 . S
C14 O18 1.258 . S
C15 O22 1.247 . S
C15 O23 1.258 . S
O16 C14 1.247 . S
O16 Zn17 2.028 . S
Zn17 O16 2.028 . S
Zn17 O21 2.035 . S
Zn17 O23 2.035 . S
Zn17 O24 2.028 . S
O18 C14 1.258 . S
O18 Zn19 2.035 . S
Zn19 O18 2.035 . S
Zn19 O20 2.028 . S
Zn19 O22 2.028 . S
Zn19 O25 2.035 . S
O20 Zn19 2.028 . S
O20 C26 1.247 . S
O21 Zn17 2.035 . S
O21 C26 1.258 . S
O22 C15 1.247 . S
O22 Zn19 2.028 . S
O23 C15 1.258 . S
O23 Zn17 2.035 . S
O24 Zn17 2.028 . S
O24 C27 1.247 . S
O25 Zn19 2.035 . S
O25 C27 1.258 . S
C26 O20 1.247 . S
C26 O21 1.258 . S
C27 O24 1.247 . S
C27 O25 1.258 . S
C28 O30 1.247 . S
C28 O32 1.258 1_545 S
C29 O36 1.247 . S
C29 O37 1.258 1_565 S
O30 C28 1.247 . S
O30 Zn31 2.028 . S
Zn31 O30 2.028 . S
Zn31 O35 2.035 . S
Zn31 O37 2.035 . S
Zn31 O38 2.028 1_545 S
O32 C28 1.258 1_565 S
O32 Zn33 2.035 . S
Zn33 O32 2.035 . S
Zn33 O34 2.028 1_565 S
Zn33 O36 2.028 . S
Zn33 O39 2.035 . S
O34 Zn33 2.028 1_545 S
O34 C40 1.247 . S
O35 Zn31 2.035 . S
O35 C40 1.258 . S
O36 C29 1.247 . S
O36 Zn33 2.028 . S
O37 C29 1.258 1_545 S
O37 Zn31 2.035 . S
O38 Zn31 2.028 1_565 S
O38 C41 1.247 . S
O39 Zn33 2.035 . S
O39 C41 1.258 . S
C40 O34 1.247 . S
C40 O35 1.258 . S
C41 O38 1.247 . S
C41 O39 1.258 . S
C42 O44 1.247 . S
C42 O46 1.258 . S
C43 O50 1.247 . S
C43 O51 1.258 . S
O44 C42 1.247 . S
O44 Zn45 2.028 . S
Zn45 O44 2.028 . S
Zn45 O49 2.035 . S
Zn45 O51 2.035 . S
Zn45 O52 2.028 . S
O46 C42 1.258 . S
O46 Zn47 2.035 . S
Zn47 O46 2.035 . S
Zn47 O48 2.028 . S
Zn47 O50 2.028 . S
Zn47 O53 2.035 . S
O48 Zn47 2.028 . S
O48 C54 1.247 . S
O49 Zn45 2.035 . S
O49 C54 1.258 . S
O50 C43 1.247 . S
O50 Zn47 2.028 . S
O51 C43 1.258 . S
O51 Zn45 2.035 . S
O52 Zn45 2.028 . S
O52 C55 1.247 . S
O53 Zn47 2.035 . S
O53 C55 1.258 . S
C54 O48 1.247 . S
C54 O49 1.258 . S
C55 O52 1.247 . S
C55 O53 1.258 . S
C56 O58 1.247 . S
C56 O60 1.258 . S
C57 O64 1.247 . S
C57 O65 1.258 . S
O58 C56 1.247 . S
O58 Zn59 2.028 1_545 S
Zn59 O58 2.028 1_565 S
Zn59 O63 2.035 . S
Zn59 O65 2.035 1_655 S
Zn59 O66 2.028 . S
O60 C56 1.258 . S
O60 Zn61 2.035 1_655 S
Zn61 O60 2.035 1_455 S
Zn61 O62 2.028 . S
Zn61 O64 2.028 1_545 S
Zn61 O67 2.035 . S
O62 Zn61 2.028 . S
O62 C68 1.247 1_455 S
O63 Zn59 2.035 . S
O63 C68 1.258 1_565 S
O64 C57 1.247 . S
O64 Zn61 2.028 1_565 S
O65 C57 1.258 . S
O65 Zn59 2.035 1_455 S
O66 Zn59 2.028 . S
O66 C69 1.247 1_655 S
O67 Zn61 2.035 . S
O67 C69 1.258 1_545 S
C68 O62 1.247 1_655 S
C68 O63 1.258 1_545 S
C69 O66 1.247 1_455 S
C69 O67 1.258 1_565 S
C70 O72 1.247 . S
C70 O74 1.258 . S
C71 O78 1.247 . S
C71 O79 1.258 . S
O72 C70 1.247 . S
O72 Zn73 2.028 . S
Zn73 O72 2.028 . S
Zn73 O77 2.035 . S
Zn73 O79 2.035 . S
Zn73 O80 2.028 . S
O74 C70 1.258 . S
O74 Zn75 2.035 . S
Zn75 O74 2.035 . S
Zn75 O76 2.028 . S
Zn75 O78 2.028 . S
Zn75 O81 2.035 . S
O76 Zn75 2.028 . S
O76 C82 1.247 . S
O77 Zn73 2.035 . S
O77 C82 1.258 . S
O78 C71 1.247 . S
O78 Zn75 2.028 . S
O79 C71 1.258 . S
O79 Zn73 2.035 . S
O80 Zn73 2.028 . S
O80 C83 1.247 . S
O81 Zn75 2.035 . S
O81 C83 1.258 . S
C82 O76 1.247 . S
C82 O77 1.258 . S
C83 O80 1.247 . S
C83 O81 1.258 . S
C84 O86 1.247 . S
C84 O88 1.258 . S
C85 O92 1.247 . S
C85 O93 1.258 . S
O86 C84 1.247 . S
O86 Zn87 2.030 1_565 S
Zn87 O86 2.030 1_545 S
Zn87 O91 2.027 1_554 S
Zn87 O93 2.033 1_554 S
Zn87 O94 2.036 . S
O88 C84 1.258 . S
O88 Zn89 2.034 1_554 S
Zn89 O88 2.034 1_556 S
Zn89 O90 2.031 . S
Zn89 O92 2.029 1_565 S
Zn89 O95 2.032 1_556 S
O90 Zn89 2.031 . S
O90 C96 1.247 . S
O91 Zn87 2.027 1_556 S
O91 C96 1.258 1_545 S
O92 C85 1.247 . S
O92 Zn89 2.029 1_545 S
O93 C85 1.258 . S
O93 Zn87 2.033 1_556 S
O94 Zn87 2.036 . S
O94 C97 1.247 . S
O95 Zn89 2.032 1_554 S
O95 C97 1.258 1_565 S
C96 O90 1.247 . S
C96 O91 1.258 1_565 S
C97 O94 1.247 . S
C97 O95 1.258 1_545 S
C98 O100 1.247 . S
C98 O102 1.258 . S
C99 O106 1.247 . S
C99 O107 1.258 . S
O100 C98 1.247 . S
O100 Zn101 2.028 . S
Zn101 O100 2.028 . S
Zn101 O105 2.035 . S
Zn101 O107 2.035 . S
Zn101 O108 2.028 . S
O102 C98 1.258 . S
O102 Zn103 2.035 . S
Zn103 O102 2.035 . S
Zn103 O104 2.028 . S
Zn103 O106 2.028 . S
Zn103 O109 2.035 . S
O104 Zn103 2.028 . S
O104 C110 1.247 . S
O105 Zn101 2.035 . S
O105 C110 1.258 . S
O106 C99 1.247 . S
O106 Zn103 2.028 . S
O107 C99 1.258 . S
O107 Zn101 2.035 . S
O108 Zn101 2.028 . S
O108 C111 1.247 . S
O109 Zn103 2.035 . S
O109 C111 1.258 . S
C110 O104 1.247 . S
C110 O105 1.258 . S
C111 O108 1.247 . S
C111 O109 1.258 . S
C112 O114 1.247 . S
C112 O116 1.258 . S
C113 O120 1.247 . S
C113 O121 1.258 . S
O114 C112 1.247 . S
O114 Zn115 2.028 . S
Zn115 O114 2.028 . S
Zn115 O119 2.035 . S
Zn115 O121 2.035 . S
Zn115 O122 2.028 . S
O116 C112 1.258 . S
O116 Zn117 2.035 . S
Zn117 O116 2.035 . S
Zn117 O118 2.028 . S
Zn117 O120 2.028 . S
Zn117 O123 2.035 . S
O118 Zn117 2.028 . S
O118 C124 1.247 . S
O119 Zn115 2.035 . S
O119 C124 1.258 . S
O120 C113 1.247 . S
O120 Zn117 2.028 . S
O121 C113 1.258 . S
O121 Zn115 2.035 . S
O122 Zn115 2.028 . S
O122 C125 1.247 . S
O123 Zn117 2.035 . S
O123 C125 1.258 . S
C124 O118 1.247 . S
C124 O119 1.258 . S
C125 O122 1.247 . S
C125 O123 1.258 . S
C126 O128 1.247 . S
C126 O130 1.258 . S
C127 O134 1.247 . S
C127 O135 1.258 . S
O128 C126 1.247 . S
O128 Zn129 2.028 . S
Zn129 O128 2.028 . S
Zn129 O133 2.035 . S
Zn129 O135 2.035 . S
Zn129 O136 2.028 . S
O130 C126 1.258 . S
O130 Zn131 2.035 . S
Zn131 O130 2.035 . S
Zn131 O132 2.028 . S
Zn131 O134 2.028 . S
Zn131 O137 2.035 . S
O132 Zn131 2.028 . S
O132 C138 1.247 . S
O133 Zn129 2.035 . S
O133 C138 1.258 . S
O134 C127 1.247 . S
O134 Zn131 2.028 . S
O135 C127 1.258 . S
O135 Zn129 2.035 . S
O136 Zn129 2.028 . S
O136 C139 1.247 . S
O137 Zn131 2.035 . S
O137 C139 1.258 . S
C138 O132 1.247 . S
C138 O133 1.258 . S
C139 O136 1.247 . S
C139 O137 1.258 . S
C140 O142 1.247 . S
C140 O144 1.258 . S
C141 O148 1.247 . S
C141 O149 1.258 . S
O142 C140 1.247 . S
O142 Zn143 2.028 . S
Zn143 O142 2.028 . S
Zn143 O147 2.035 . S
Zn143 O149 2.035 . S
Zn143 O150 2.028 . S
O144 C140 1.258 . S
O144 Zn145 2.035 . S
Zn145 O144 2.035 . S
Zn145 O146 2.028 . S
Zn145 O148 2.028 . S
Zn145 O151 2.035 . S
O146 Zn145 2.028 . S
O146 C152 1.247 . S
O147 Zn143 2.035 . S
O147 C152 1.258 . S
O148 C141 1.247 . S
O148 Zn145 2.028 . S
O149 C141 1.258 . S
O149 Zn143 2.035 . S
O150 Zn143 2.028 . S
O150 C153 1.247 . S
O151 Zn145 2.035 . S
O151 C153 1.258 . S
C152 O146 1.247 . S
C152 O147 1.258 . S
C153 O150 1.247 . S
C153 O151 1.258 . S
C154 O156 1.247 . S
C154 O158 1.258 . S
C155 O162 1.247 . S
C155 O163 1.258 . S
O156 C154 1.247 . S
O156 Zn157 2.028 . S
Zn157 O156 2.028 . S
Zn157 O161 2.035 . S
Zn157 O163 2.035 . S
Zn157 O164 2.028 . S
O158 C154 1.258 . S
O158 Zn159 2.035 . S
Zn159 O158 2.035 . S
Zn159 O160 2.028 . S
Zn159 O162 2.028 . S
Zn159 O165 2.035 . S
O160 Zn159 2.028 . S
O160 C166 1.247 . S
O161 Zn157 2.035 . S
O161 C166 1.258 . S
O162 C155 1.247 . S
O162 Zn159 2.028 . S
O163 C155 1.258 . S
O163 Zn157 2.035 . S
O164 Zn157 2.028 . S
O164 C167 1.247 . S
O165 Zn159 2.035 . S
O165 C167 1.258 . S
C166 O160 1.247 . S
C166 O161 1.258 . S
C167 O164 1.247 . S
C167 O165 1.258 . S
C168 O170 1.247 . S
C168 O172 1.258 . S
C169 O176 1.247 . S
C169 O177 1.258 . S
O170 C168 1.247 . S
O170 Zn171 2.028 . S
Zn171 O170 2.028 . S
Zn171 O175 2.035 . S
Zn171 O177 2.035 . S
Zn171 O178 2.028 . S
O172 C168 1.258 . S
O172 Zn173 2.035 . S
Zn173 O172 2.035 . S
Zn173 O174 2.028 . S
Zn173 O176 2.028 . S
Zn173 O179 2.035 . S
O174 Zn173 2.028 . S
O174 C180 1.247 . S
O175 Zn171 2.035 . S
O175 C180 1.258 . S
O176 C169 1.247 . S
O176 Zn173 2.028 . S
O177 C169 1.258 . S
O177 Zn171 2.035 . S
O178 Zn171 2.028 . S
O178 C181 1.247 . S
O179 Zn173 2.035 . S
O179 C181 1.258 . S
C180 O174 1.247 . S
C180 O175 1.258 . S
C181 O178 1.247 . S
C181 O179 1.258 . S
C182 O184 1.247 1_455 S
C182 O186 1.258 . S
C183 O190 1.247 1_655 S
C183 O191 1.258 . S
O184 C182 1.247 1_655 S
O184 Zn185 2.036 . S
Zn185 O184 2.036 . S
Zn185 O189 2.033 1_654 S
Zn185 O191 2.027 1_554 S
Zn185 O192 2.030 . S
O186 C182 1.258 . S
O186 Zn187 2.032 1_554 S
Zn187 O186 2.032 1_556 S
Zn187 O188 2.029 . S
Zn187 O190 2.031 . S
Zn187 O193 2.034 1_456 S
O188 Zn187 2.029 . S
O188 C194 1.247 . S
O189 Zn185 2.033 1_456 S
O189 C194 1.258 . S
O190 C183 1.247 1_455 S
O190 Zn187 2.031 . S
O191 C183 1.258 . S
O191 Zn185 2.027 1_556 S
O192 Zn185 2.030 . S
O192 C195 1.247 . S
O193 Zn187 2.034 1_654 S
O193 C195 1.258 . S
C194 O188 1.247 . S
C194 O189 1.258 . S
C195 O192 1.247 . S
C195 O193 1.258 . S
C196 O198 1.247 . S
C196 O200 1.258 . S
C197 O204 1.247 . S
C197 O205 1.258 . S
O198 C196 1.247 . S
O198 Zn199 2.030 . S
Zn199 O198 2.030 . S
Zn199 O203 2.027 1_554 S
Zn199 O205 2.033 1_554 S
Zn199 O206 2.036 . S
O200 C196 1.258 . S
O200 Zn201 2.034 1_554 S
Zn201 O200 2.034 1_556 S
Zn201 O202 2.031 . S
Zn201 O204 2.029 . S
Zn201 O207 2.032 1_556 S
O202 Zn201 2.031 . S
O202 C208 1.247 . S
O203 Zn199 2.027 1_556 S
O203 C208 1.258 . S
O204 C197 1.247 . S
O204 Zn201 2.029 . S
O205 C197 1.258 . S
O205 Zn199 2.033 1_556 S
O206 Zn199 2.036 . S
O206 C209 1.247 . S
O207 Zn201 2.032 1_554 S
O207 C209 1.258 . S
C208 O202 1.247 . S
C208 O203 1.258 . S
C209 O206 1.247 . S
C209 O207 1.258 . S
C210 O212 1.247 . S
C210 O214 1.258 . S
C211 O218 1.247 . S
C211 O219 1.258 . S
O212 C210 1.247 . S
O212 Zn213 2.028 . S
Zn213 O212 2.028 . S
Zn213 O217 2.035 . S
Zn213 O219 2.035 1_455 S
Zn213 O220 2.028 . S
O214 C210 1.258 . S
O214 Zn215 2.035 1_455 S
Zn215 O214 2.035 1_655 S
Zn215 O216 2.028 . S
Zn215 O218 2.028 . S
Zn215 O221 2.035 . S
O216 Zn215 2.028 . S
O216 C222 1.247 1_655 S
O217 Zn213 2.035 . S
O217 C222 1.258 . S
O218 C211 1.247 . S
O218 Zn215 2.028 . S
O219 C211 1.258 . S
O219 Zn213 2.035 1_655 S
O220 Zn213 2.028 . S
O220 C223 1.247 1_455 S
O221 Zn215 2.035 . S
O221 C223 1.258 . S
C222 O216 1.247 1_455 S
C222 O217 1.258 . S
C223 O220 1.247 1_655 S
C223 O221 1.258 . S
H224 C230 0.930 . S
H225 C234 0.930 . S
H226 C239 0.929 . S
H227 C237 0.929 . S
H228 C232 0.929 . S
H229 C238 0.929 . S
C230 H224 0.930 . S
C230 C231 1.367 1_545 S
C230 C238 1.378 . S
C231 C230 1.367 1_565 S
C231 C239 1.433 1_655 S
C232 H228 0.929 . S
C232 C234 1.378 . S
C232 C236 1.350 1_465 S
C233 C236 1.463 1_565 S
C233 C238 1.350 1_565 S
C233 N241 1.427 1_655 S
C234 H225 0.930 . S
C234 C232 1.378 . S
C234 C235 1.367 1_465 S
C235 C234 1.367 1_645 S
C235 C237 1.433 . S
C236 C232 1.350 1_645 S
C236 C233 1.463 1_545 S
C236 N240 1.427 . S
C237 H227 0.929 . S
C237 C235 1.433 . S
C237 N240 1.384 . S
C238 H229 0.929 . S
C238 C230 1.378 . S
C238 C233 1.350 1_545 S
C239 H226 0.929 . S
C239 C231 1.433 1_455 S
C239 N241 1.384 . S
N240 C236 1.427 . S
N240 C237 1.384 . S
N241 C233 1.427 1_455 S
N241 C239 1.384 . S
H242 C248 0.930 . S
H243 C252 0.930 . S
H244 C257 0.929 . S
H245 C255 0.929 . S
H246 C250 0.929 . S
H247 C256 0.929 . S
C248 H242 0.930 . S
C248 C249 1.367 . S
C248 C256 1.378 . S
C249 C248 1.367 . S
C249 C257 1.433 . S
C250 H246 0.929 . S
C250 C252 1.378 . S
C250 C254 1.350 . S
C251 C254 1.463 . S
C251 C256 1.350 . S
C251 N259 1.427 . S
C252 H243 0.930 . S
C252 C250 1.378 . S
C252 C253 1.367 . S
C253 C252 1.367 . S
C253 C255 1.433 . S
C254 C250 1.350 . S
C254 C251 1.463 . S
C254 N258 1.427 . S
C255 H245 0.929 . S
C255 C253 1.433 . S
C255 N258 1.384 . S
C256 H247 0.929 . S
C256 C248 1.378 . S
C256 C251 1.350 . S
C257 H244 0.929 . S
C257 C249 1.433 . S
C257 N259 1.384 . S
N258 C254 1.427 . S
N258 C255 1.384 . S
N259 C251 1.427 . S
N259 C257 1.384 . S
H260 C266 0.930 . S
H261 C270 0.930 . S
H262 C275 0.929 . S
H263 C273 0.929 . S
H264 C268 0.929 . S
H265 C274 0.929 . S
C266 H260 0.930 . S
C266 C267 1.367 1_545 S
C266 C274 1.378 . S
C267 C266 1.367 1_565 S
C267 C275 1.433 . S
C268 H264 0.929 . S
C268 C270 1.378 . S
C268 C272 1.350 1_565 S
C269 C272 1.463 1_565 S
C269 C274 1.350 1_565 S
C269 N277 1.427 . S
C270 H261 0.930 . S
C270 C268 1.378 . S
C270 C271 1.367 1_565 S
C271 C270 1.367 1_545 S
C271 C273 1.433 . S
C272 C268 1.350 1_545 S
C272 C269 1.463 1_545 S
C272 N276 1.427 . S
C273 H263 0.929 . S
C273 C271 1.433 . S
C273 N276 1.384 . S
C274 H265 0.929 . S
C274 C266 1.378 . S
C274 C269 1.350 1_545 S
C275 H262 0.929 . S
C275 C267 1.433 . S
C275 N277 1.384 . S
N276 C272 1.427 . S
N276 C273 1.384 . S
N277 C269 1.427 . S
N277 C275 1.384 . S
H278 C284 0.930 . S
H279 C288 0.930 . S
H280 C293 0.929 . S
H281 C291 0.929 . S
H282 C286 0.929 . S
H283 C292 0.929 . S
C284 H278 0.930 . S
C284 C285 1.367 . S
C284 C292 1.378 . S
C285 C284 1.367 . S
C285 C293 1.433 . S
C286 H282 0.929 . S
C286 C288 1.378 . S
C286 C290 1.350 . S
C287 C290 1.463 1_556 S
C287 C292 1.350 . S
C287 N295 1.427 . S
C288 H279 0.930 . S
C288 C286 1.378 . S
C288 C289 1.367 . S
C289 C288 1.367 . S
C289 C291 1.433 . S
C290 C286 1.350 . S
C290 C287 1.463 1_554 S
C290 N294 1.427 . S
C291 H281 0.929 . S
C291 C289 1.433 . S
C291 N294 1.384 . S
C292 H283 0.929 . S
C292 C284 1.378 . S
C292 C287 1.350 . S
C293 H280 0.929 . S
C293 C285 1.433 . S
C293 N295 1.384 . S
N294 C290 1.427 . S
N294 C291 1.384 . S
N295 C287 1.427 . S
N295 C293 1.384 . S
H296 C302 0.930 . S
H297 C306 0.930 . S
H298 C311 0.932 . S
H299 C309 0.931 . S
H300 C304 0.929 . S
H301 C310 0.929 . S
C302 H296 0.930 . S
C302 C303 1.367 1_655 S
C302 C310 1.378 . S
C303 C302 1.367 1_455 S
C303 C311 1.428 1_565 S
C304 H300 0.929 . S
C304 C306 1.378 . S
C304 C308 1.350 . S
C305 C308 1.463 1_565 S
C305 C310 1.350 1_455 S
C305 N313 1.427 1_565 S
C306 H297 0.930 . S
C306 C304 1.378 . S
C306 C307 1.367 . S
C307 C306 1.367 . S
C307 C309 1.430 1_445 S
C308 C304 1.350 . S
C308 C305 1.463 1_545 S
C308 N312 1.427 1_445 S
C309 H299 0.931 . S
C309 C307 1.430 1_665 S
C309 N312 1.385 . S
C310 H301 0.929 . S
C310 C302 1.378 . S
C310 C305 1.350 1_655 S
C311 H298 0.932 . S
C311 C303 1.428 1_545 S
C311 N313 1.386 . S
N312 C308 1.427 1_665 S
N312 C309 1.385 . S
N313 C305 1.427 1_545 S
N313 C311 1.386 . S
H314 C320 0.930 . S
H315 C324 0.930 . S
H316 C329 0.929 . S
H317 C327 0.929 . S
H318 C322 0.929 . S
H319 C328 0.929 . S
C320 H314 0.930 . S
C320 C321 1.367 . S
C320 C328 1.378 . S
C321 C320 1.367 . S
C321 C329 1.433 . S
C322 H318 0.929 . S
C322 C324 1.378 . S
C322 C326 1.350 . S
C323 C326 1.463 . S
C323 C328 1.350 . S
C323 N331 1.427 . S
C324 H315 0.930 . S
C324 C322 1.378 . S
C324 C325 1.367 . S
C325 C324 1.367 . S
C325 C327 1.433 . S
C326 C322 1.350 . S
C326 C323 1.463 . S
C326 N330 1.427 . S
C327 H317 0.929 . S
C327 C325 1.433 . S
C327 N330 1.384 . S
C328 H319 0.929 . S
C328 C320 1.378 . S
C328 C323 1.350 . S
C329 H316 0.929 . S
C329 C321 1.433 . S
C329 N331 1.384 . S
N330 C326 1.427 . S
N330 C327 1.384 . S
N331 C323 1.427 . S
N331 C329 1.384 . S
H332 C338 0.930 . S
H333 C342 0.930 . S
H334 C347 0.929 . S
H335 C345 0.929 . S
H336 C340 0.929 . S
H337 C346 0.929 . S
C338 H332 0.930 . S
C338 C339 1.367 . S
C338 C346 1.378 . S
C339 C338 1.367 . S
C339 C347 1.433 . S
C340 H336 0.929 . S
C340 C342 1.378 . S
C340 C344 1.350 . S
C341 C344 1.463 1_545 S
C341 C346 1.350 . S
C341 N349 1.427 . S
C342 H333 0.930 . S
C342 C340 1.378 . S
C342 C343 1.367 . S
C343 C342 1.367 . S
C343 C345 1.433 . S
C344 C340 1.350 . S
C344 C341 1.463 1_565 S
C344 N348 1.427 . S
C345 H335 0.929 . S
C345 C343 1.433 . S
C345 N348 1.384 . S
C346 H337 0.929 . S
C346 C338 1.378 . S
C346 C341 1.350 . S
C347 H334 0.929 . S
C347 C339 1.433 . S
C347 N349 1.384 . S
N348 C344 1.427 . S
N348 C345 1.384 . S
N349 C341 1.427 . S
N349 C347 1.384 . S
H350 C356 0.930 . S
H351 C360 0.930 . S
H352 C365 0.929 . S
H353 C363 0.929 . S
H354 C358 0.929 . S
H355 C364 0.929 . S
C356 H350 0.930 . S
C356 C357 1.367 . S
C356 C364 1.378 . S
C357 C356 1.367 . S
C357 C365 1.433 . S
C358 H354 0.929 . S
C358 C360 1.378 . S
C358 C362 1.350 . S
C359 C362 1.463 1_554 S
C359 C364 1.350 . S
C359 N367 1.427 . S
C360 H351 0.930 . S
C360 C358 1.378 . S
C360 C361 1.367 . S
C361 C360 1.367 . S
C361 C363 1.433 . S
C362 C358 1.350 . S
C362 C359 1.463 1_556 S
C362 N366 1.427 . S
C363 H353 0.929 . S
C363 C361 1.433 . S
C363 N366 1.384 . S
C364 H355 0.929 . S
C364 C356 1.378 . S
C364 C359 1.350 . S
C365 H352 0.929 . S
C365 C357 1.433 . S
C365 N367 1.384 . S
N366 C362 1.427 . S
N366 C363 1.384 . S
N367 C359 1.427 . S
N367 C365 1.384 . S
H368 C374 0.930 . S
H369 C378 0.930 . S
H370 C383 0.929 . S
H371 C381 0.929 . S
H372 C376 0.929 . S
H373 C382 0.929 . S
C374 H368 0.930 . S
C374 C375 1.367 . S
C374 C382 1.378 . S
C375 C374 1.367 . S
C375 C383 1.433 . S
C376 H372 0.929 . S
C376 C378 1.378 . S
C376 C380 1.350 . S
C377 C380 1.463 . S
C377 C382 1.350 . S
C377 N385 1.427 . S
C378 H369 0.930 . S
C378 C376 1.378 . S
C378 C379 1.367 . S
C379 C378 1.367 . S
C379 C381 1.433 . S
C380 C376 1.350 . S
C380 C377 1.463 . S
C380 N384 1.427 . S
C381 H371 0.929 . S
C381 C379 1.433 . S
C381 N384 1.384 . S
C382 H373 0.929 . S
C382 C374 1.378 . S
C382 C377 1.350 . S
C383 H370 0.929 . S
C383 C375 1.433 . S
C383 N385 1.384 . S
N384 C380 1.427 . S
N384 C381 1.384 . S
N385 C377 1.427 . S
N385 C383 1.384 . S
H386 C392 0.930 . S
H387 C396 0.930 . S
H388 C401 0.929 . S
H389 C399 0.929 . S
H390 C394 0.929 . S
H391 C400 0.929 . S
C392 H386 0.930 . S
C392 C393 1.367 . S
C392 C400 1.378 . S
C393 C392 1.367 . S
C393 C401 1.433 . S
C394 H390 0.929 . S
C394 C396 1.378 . S
C394 C398 1.350 . S
C395 C398 1.463 1_556 S
C395 C400 1.350 . S
C395 N403 1.427 . S
C396 H387 0.930 . S
C396 C394 1.378 . S
C396 C397 1.367 . S
C397 C396 1.367 . S
C397 C399 1.433 . S
C398 C394 1.350 . S
C398 C395 1.463 1_554 S
C398 N402 1.427 . S
C399 H389 0.929 . S
C399 C397 1.433 . S
C399 N402 1.384 . S
C400 H391 0.929 . S
C400 C392 1.378 . S
C400 C395 1.350 . S
C401 H388 0.929 . S
C401 C393 1.433 . S
C401 N403 1.384 . S
N402 C398 1.427 . S
N402 C399 1.384 . S
N403 C395 1.427 . S
N403 C401 1.384 . S
H404 C410 0.930 . S
H405 C414 0.930 . S
H406 C419 0.929 . S
H407 C417 0.929 . S
H408 C412 0.929 . S
H409 C418 0.929 . S
C410 H404 0.930 . S
C410 C411 1.367 . S
C410 C418 1.378 . S
C411 C410 1.367 . S
C411 C419 1.433 1_455 S
C412 H408 0.929 . S
C412 C414 1.378 . S
C412 C416 1.350 1_655 S
C413 C416 1.463 . S
C413 C418 1.350 . S
C413 N421 1.427 1_455 S
C414 H405 0.930 . S
C414 C412 1.378 . S
C414 C415 1.367 1_655 S
C415 C414 1.367 1_455 S
C415 C417 1.433 . S
C416 C412 1.350 1_455 S
C416 C413 1.463 . S
C416 N420 1.427 . S
C417 H407 0.929 . S
C417 C415 1.433 . S
C417 N420 1.384 . S
C418 H409 0.929 . S
C418 C410 1.378 . S
C418 C413 1.350 . S
C419 H406 0.929 . S
C419 C411 1.433 1_655 S
C419 N421 1.384 . S
N420 C416 1.427 . S
N420 C417 1.384 . S
N421 C413 1.427 1_655 S
N421 C419 1.384 . S
H422 C428 0.930 . S
H423 C432 0.930 . S
H424 C437 0.929 . S
H425 C435 0.929 . S
H426 C430 0.929 . S
H427 C436 0.929 . S
C428 H422 0.930 . S
C428 C429 1.367 . S
C428 C436 1.378 . S
C429 C428 1.367 . S
C429 C437 1.433 . S
C430 H426 0.929 . S
C430 C432 1.378 . S
C430 C434 1.350 . S
C431 C434 1.463 . S
C431 C436 1.350 . S
C431 N439 1.427 . S
C432 H423 0.930 . S
C432 C430 1.378 . S
C432 C433 1.367 . S
C433 C432 1.367 . S
C433 C435 1.433 . S
C434 C430 1.350 . S
C434 C431 1.463 . S
C434 N438 1.427 . S
C435 H425 0.929 . S
C435 C433 1.433 . S
C435 N438 1.384 . S
C436 H427 0.929 . S
C436 C428 1.378 . S
C436 C431 1.350 . S
C437 H424 0.929 . S
C437 C429 1.433 . S
C437 N439 1.384 . S
N438 C434 1.427 . S
N438 C435 1.384 . S
N439 C431 1.427 . S
N439 C437 1.384 . S
H440 C446 0.930 . S
H441 C450 0.930 . S
H442 C455 0.929 . S
H443 C453 0.929 . S
H444 C448 0.929 . S
H445 C454 0.929 . S
C446 H440 0.930 . S
C446 C447 1.367 . S
C446 C454 1.378 . S
C447 C446 1.367 . S
C447 C455 1.433 . S
C448 H444 0.929 . S
C448 C450 1.378 . S
C448 C452 1.350 . S
C449 C452 1.463 . S
C449 C454 1.350 . S
C449 N457 1.427 . S
C450 H441 0.930 . S
C450 C448 1.378 . S
C450 C451 1.367 . S
C451 C450 1.367 . S
C451 C453 1.433 . S
C452 C448 1.350 . S
C452 C449 1.463 . S
C452 N456 1.427 . S
C453 H443 0.929 . S
C453 C451 1.433 . S
C453 N456 1.384 . S
C454 H445 0.929 . S
C454 C446 1.378 . S
C454 C449 1.350 . S
C455 H442 0.929 . S
C455 C447 1.433 . S
C455 N457 1.384 . S
N456 C452 1.427 . S
N456 C453 1.384 . S
N457 C449 1.427 . S
N457 C455 1.384 . S
H458 C464 0.930 . S
H459 C468 0.930 . S
H460 C473 0.929 . S
H461 C471 0.929 . S
H462 C466 0.929 . S
H463 C472 0.929 . S
C464 H458 0.930 . S
C464 C465 1.367 . S
C464 C472 1.378 . S
C465 C464 1.367 . S
C465 C473 1.433 . S
C466 H462 0.929 . S
C466 C468 1.378 . S
C466 C470 1.350 . S
C467 C470 1.463 1_554 S
C467 C472 1.350 . S
C467 N475 1.427 . S
C468 H459 0.930 . S
C468 C466 1.378 . S
C468 C469 1.367 . S
C469 C468 1.367 . S
C469 C471 1.433 . S
C470 C466 1.350 . S
C470 C467 1.463 1_556 S
C470 N474 1.427 . S
C471 H461 0.929 . S
C471 C469 1.433 . S
C471 N474 1.384 . S
C472 H463 0.929 . S
C472 C464 1.378 . S
C472 C467 1.350 . S
C473 H460 0.929 . S
C473 C465 1.433 . S
C473 N475 1.384 . S
N474 C470 1.427 . S
N474 C471 1.384 . S
N475 C467 1.427 . S
N475 C473 1.384 . S
H476 C482 0.930 . S
H477 C486 0.930 1_455 S
H478 C491 0.929 1_455 S
H479 C489 0.929 . S
H480 C484 0.929 1_455 S
H481 C490 0.929 . S
C482 H476 0.930 . S
C482 C483 1.367 . S
C482 C490 1.378 . S
C483 C482 1.367 . S
C483 C491 1.433 . S
C484 H480 0.929 1_655 S
C484 C486 1.378 . S
C484 C488 1.350 . S
C485 C488 1.463 . S
C485 C490 1.350 . S
C485 N493 1.427 . S
C486 H477 0.930 1_655 S
C486 C484 1.378 . S
C486 C487 1.367 . S
C487 C486 1.367 . S
C487 C489 1.433 . S
C488 C484 1.350 . S
C488 C485 1.463 . S
C488 N492 1.427 . S
C489 H479 0.929 . S
C489 C487 1.433 . S
C489 N492 1.384 . S
C490 H481 0.929 . S
C490 C482 1.378 . S
C490 C485 1.350 . S
C491 H478 0.929 1_655 S
C491 C483 1.433 . S
C491 N493 1.384 . S
N492 C488 1.427 . S
N492 C489 1.384 . S
N493 C485 1.427 . S
N493 C491 1.384 . S
H494 C500 0.930 . S
H495 C504 0.930 . S
H496 C509 0.929 . S
H497 C507 0.929 . S
H498 C502 0.929 . S
H499 C508 0.929 . S
C500 H494 0.930 . S
C500 C501 1.367 . S
C500 C508 1.378 . S
C501 C500 1.367 . S
C501 C509 1.433 . S
C502 H498 0.929 . S
C502 C504 1.378 . S
C502 C506 1.350 . S
C503 C506 1.463 . S
C503 C508 1.350 . S
C503 N511 1.427 . S
C504 H495 0.930 . S
C504 C502 1.378 . S
C504 C505 1.367 . S
C505 C504 1.367 . S
C505 C507 1.433 . S
C506 C502 1.350 . S
C506 C503 1.463 . S
C506 N510 1.427 . S
C507 H497 0.929 . S
C507 C505 1.433 . S
C507 N510 1.384 . S
C508 H499 0.929 . S
C508 C500 1.378 . S
C508 C503 1.350 . S
C509 H496 0.929 . S
C509 C501 1.433 . S
C509 N511 1.384 . S
N510 C506 1.427 . S
N510 C507 1.384 . S
N511 C503 1.427 . S
N511 C509 1.384 . S
H512 C518 0.930 . S
H513 C522 0.930 . S
H514 C527 0.943 . S
H515 C525 0.929 . S
H516 C520 0.929 . S
H517 C526 0.929 . S
C518 H512 0.930 . S
C518 C519 1.367 . S
C518 C526 1.378 . S
C519 C518 1.367 . S
C519 C527 1.433 . S
C520 H516 0.929 . S
C520 C522 1.378 . S
C520 C524 1.350 . S
C521 C524 1.463 . S
C521 C526 1.350 . S
C521 N529 1.427 . S
C522 H513 0.930 . S
C522 C520 1.378 . S
C522 C523 1.367 . S
C523 C522 1.367 . S
C523 C525 1.433 . S
C524 C520 1.350 . S
C524 C521 1.463 . S
C524 N528 1.427 . S
C525 H515 0.929 . S
C525 C523 1.433 . S
C525 N528 1.384 . S
C526 H517 0.929 . S
C526 C518 1.378 . S
C526 C521 1.350 . S
C527 H514 0.943 . S
C527 C519 1.433 . S
C527 N529 1.384 . S
N528 C524 1.427 . S
N528 C525 1.384 . S
N529 C521 1.427 . S
N529 C527 1.384 . S
H530 C536 0.930 . S
H531 C540 0.930 . S
H532 C545 0.929 . S
H533 C543 0.929 . S
H534 C538 0.929 . S
H535 C544 0.929 . S
C536 H530 0.930 . S
C536 C537 1.367 . S
C536 C544 1.378 . S
C537 C536 1.367 . S
C537 C545 1.433 . S
C538 H534 0.929 . S
C538 C540 1.378 . S
C538 C542 1.350 . S
C539 C542 1.463 . S
C539 C544 1.350 . S
C539 N547 1.427 . S
C540 H531 0.930 . S
C540 C538 1.378 . S
C540 C541 1.367 . S
C541 C540 1.367 . S
C541 C543 1.433 . S
C542 C538 1.350 . S
C542 C539 1.463 . S
C542 N546 1.427 . S
C543 H533 0.929 . S
C543 C541 1.433 . S
C543 N546 1.384 . S
C544 H535 0.929 . S
C544 C536 1.378 . S
C544 C539 1.350 . S
C545 H532 0.929 . S
C545 C537 1.433 . S
C545 N547 1.384 . S
N546 C542 1.427 . S
N546 C543 1.384 . S
N547 C539 1.427 . S
N547 C545 1.384 . S
H548 C554 0.930 . S
H549 C558 0.930 . S
H550 C563 0.929 . S
H551 C561 0.929 . S
H552 C556 0.929 . S
H553 C562 0.929 . S
C554 H548 0.930 . S
C554 C555 1.367 . S
C554 C562 1.378 . S
C555 C554 1.367 . S
C555 C563 1.433 . S
C556 H552 0.929 . S
C556 C558 1.378 . S
C556 C560 1.350 . S
C557 C560 1.463 . S
C557 C562 1.350 . S
C557 N565 1.427 . S
C558 H549 0.930 . S
C558 C556 1.378 . S
C558 C559 1.367 . S
C559 C558 1.367 . S
C559 C561 1.433 . S
C560 C556 1.350 . S
C560 C557 1.463 . S
C560 N564 1.427 . S
C561 H551 0.929 . S
C561 C559 1.433 . S
C561 N564 1.384 . S
C562 H553 0.929 . S
C562 C554 1.378 . S
C562 C557 1.350 . S
C563 H550 0.929 . S
C563 C555 1.433 . S
C563 N565 1.384 . S
N564 C560 1.427 . S
N564 C561 1.384 . S
N565 C557 1.427 . S
N565 C563 1.384 . S
H566 C572 0.930 . S
H567 C576 0.930 . S
H568 C581 0.929 . S
H569 C579 0.929 . S
H570 C574 0.929 . S
H571 C580 0.929 . S
C572 H566 0.930 . S
C572 C573 1.367 . S
C572 C580 1.378 . S
C573 C572 1.367 . S
C573 C581 1.433 . S
C574 H570 0.929 . S
C574 C576 1.378 . S
C574 C578 1.350 . S
C575 C578 1.463 . S
C575 C580 1.350 . S
C575 N583 1.427 . S
C576 H567 0.930 . S
C576 C574 1.378 . S
C576 C577 1.367 . S
C577 C576 1.367 . S
C577 C579 1.433 . S
C578 C574 1.350 . S
C578 C575 1.463 . S
C578 N582 1.427 . S
C579 H569 0.929 . S
C579 C577 1.433 . S
C579 N582 1.384 . S
C580 H571 0.929 . S
C580 C572 1.378 . S
C580 C575 1.350 . S
C581 H568 0.929 . S
C581 C573 1.433 . S
C581 N583 1.384 . S
N582 C578 1.427 . S
N582 C579 1.384 . S
N583 C575 1.427 . S
N583 C581 1.384 . S
H584 C590 0.930 . S
H585 C594 0.930 . S
H586 C599 0.929 . S
H587 C597 0.929 . S
H588 C592 0.929 . S
H589 C598 0.929 . S
C590 H584 0.930 . S
C590 C591 1.367 . S
C590 C598 1.378 . S
C591 C590 1.367 . S
C591 C599 1.433 . S
C592 H588 0.929 . S
C592 C594 1.378 . S
C592 C596 1.350 . S
C593 C596 1.463 . S
C593 C598 1.350 . S
C593 N601 1.427 . S
C594 H585 0.930 . S
C594 C592 1.378 . S
C594 C595 1.367 . S
C595 C594 1.367 . S
C595 C597 1.433 . S
C596 C592 1.350 . S
C596 C593 1.463 . S
C596 N600 1.427 . S
C597 H587 0.929 . S
C597 C595 1.433 . S
C597 N600 1.384 . S
C598 H589 0.929 . S
C598 C590 1.378 . S
C598 C593 1.350 . S
C599 H586 0.929 . S
C599 C591 1.433 . S
C599 N601 1.384 . S
N600 C596 1.427 . S
N600 C597 1.384 . S
N601 C593 1.427 . S
N601 C599 1.384 . S
H602 C608 0.930 . S
H603 C612 0.930 . S
H604 C617 0.929 . S
H605 C615 0.929 . S
H606 C610 0.929 . S
H607 C616 0.929 . S
C608 H602 0.930 . S
C608 C609 1.367 . S
C608 C616 1.378 . S
C609 C608 1.367 . S
C609 C617 1.433 . S
C610 H606 0.929 . S
C610 C612 1.378 . S
C610 C614 1.350 . S
C611 C614 1.463 . S
C611 C616 1.350 . S
C611 N619 1.427 . S
C612 H603 0.930 . S
C612 C610 1.378 . S
C612 C613 1.367 . S
C613 C612 1.367 . S
C613 C615 1.433 . S
C614 C610 1.350 . S
C614 C611 1.463 . S
C614 N618 1.427 . S
C615 H605 0.929 . S
C615 C613 1.433 . S
C615 N618 1.384 . S
C616 H607 0.929 . S
C616 C608 1.378 . S
C616 C611 1.350 . S
C617 H604 0.929 . S
C617 C609 1.433 . S
C617 N619 1.384 . S
N618 C614 1.427 . S
N618 C615 1.384 . S
N619 C611 1.427 . S
N619 C617 1.384 . S
H620 C626 0.930 . S
H621 C630 0.930 . S
H622 C635 0.929 . S
H623 C633 0.929 . S
H624 C628 0.929 . S
H625 C634 0.929 . S
C626 H620 0.930 . S
C626 C627 1.367 . S
C626 C634 1.378 . S
C627 C626 1.367 . S
C627 C635 1.433 . S
C628 H624 0.929 . S
C628 C630 1.378 . S
C628 C632 1.350 . S
C629 C632 1.463 . S
C629 C634 1.350 . S
C629 N637 1.427 . S
C630 H621 0.930 . S
C630 C628 1.378 . S
C630 C631 1.367 . S
C631 C630 1.367 . S
C631 C633 1.433 . S
C632 C628 1.350 . S
C632 C629 1.463 . S
C632 N636 1.427 . S
C633 H623 0.929 . S
C633 C631 1.433 . S
C633 N636 1.384 . S
C634 H625 0.929 . S
C634 C626 1.378 . S
C634 C629 1.350 . S
C635 H622 0.929 . S
C635 C627 1.433 . S
C635 N637 1.384 . S
N636 C632 1.427 . S
N636 C633 1.384 . S
N637 C629 1.427 . S
N637 C635 1.384 . S
H638 C644 0.930 . S
H639 C648 0.930 . S
H640 C653 0.929 . S
H641 C651 0.929 . S
H642 C646 0.929 . S
H643 C652 0.929 . S
C644 H638 0.930 . S
C644 C645 1.367 . S
C644 C652 1.378 . S
C645 C644 1.367 . S
C645 C653 1.433 . S
C646 H642 0.929 . S
C646 C648 1.378 . S
C646 C650 1.350 . S
C647 C650 1.463 . S
C647 C652 1.350 . S
C647 N655 1.427 . S
C648 H639 0.930 . S
C648 C646 1.378 . S
C648 C649 1.367 . S
C649 C648 1.367 . S
C649 C651 1.433 . S
C650 C646 1.350 . S
C650 C647 1.463 . S
C650 N654 1.427 . S
C651 H641 0.929 . S
C651 C649 1.433 . S
C651 N654 1.384 . S
C652 H643 0.929 . S
C652 C644 1.378 . S
C652 C647 1.350 . S
C653 H640 0.929 . S
C653 C645 1.433 . S
C653 N655 1.384 . S
N654 C650 1.427 . S
N654 C651 1.384 . S
N655 C647 1.427 . S
N655 C653 1.384 . S
H656 C662 0.930 . S
H657 C666 0.930 . S
H658 C671 0.929 . S
H659 C669 0.929 . S
H660 C664 0.929 . S
H661 C670 0.929 . S
C662 H656 0.930 . S
C662 C663 1.367 . S
C662 C670 1.378 . S
C663 C662 1.367 . S
C663 C671 1.433 . S
C664 H660 0.929 . S
C664 C666 1.378 . S
C664 C668 1.350 . S
C665 C668 1.463 . S
C665 C670 1.350 . S
C665 N673 1.427 . S
C666 H657 0.930 . S
C666 C664 1.378 . S
C666 C667 1.367 . S
C667 C666 1.367 . S
C667 C669 1.433 . S
C668 C664 1.350 . S
C668 C665 1.463 . S
C668 N672 1.427 . S
C669 H659 0.929 . S
C669 C667 1.433 . S
C669 N672 1.384 . S
C670 H661 0.929 . S
C670 C662 1.378 . S
C670 C665 1.350 . S
C671 H658 0.929 . S
C671 C663 1.433 . S
C671 N673 1.384 . S
N672 C668 1.427 . S
N672 C669 1.384 . S
N673 C665 1.427 . S
N673 C671 1.384 . S
H674 C680 0.930 . S
H675 C684 0.930 . S
H676 C689 0.929 1_554 S
H677 C687 0.929 . S
H678 C682 0.929 . S
H679 C688 0.929 . S
C680 H674 0.930 . S
C680 C681 1.367 . S
C680 C688 1.378 . S
C681 C680 1.367 . S
C681 C689 1.433 . S
C682 H678 0.929 . S
C682 C684 1.378 . S
C682 C686 1.350 . S
C683 C686 1.463 . S
C683 C688 1.350 . S
C683 N691 1.427 . S
C684 H675 0.930 . S
C684 C682 1.378 . S
C684 C685 1.367 . S
C685 C684 1.367 . S
C685 C687 1.433 . S
C686 C682 1.350 . S
C686 C683 1.463 . S
C686 N690 1.427 . S
C687 H677 0.929 . S
C687 C685 1.433 . S
C687 N690 1.384 . S
C688 H679 0.929 . S
C688 C680 1.378 . S
C688 C683 1.350 . S
C689 H676 0.929 1_556 S
C689 C681 1.433 . S
C689 N691 1.384 . S
N690 C686 1.427 . S
N690 C687 1.384 . S
N691 C683 1.427 . S
N691 C689 1.384 . S
H692 C698 0.930 . S
H693 C702 0.930 . S
H694 C707 0.929 . S
H695 C705 0.929 . S
H696 C700 0.929 . S
H697 C706 0.929 . S
C698 H692 0.930 . S
C698 C699 1.367 . S
C698 C706 1.378 . S
C699 C698 1.367 . S
C699 C707 1.433 . S
C700 H696 0.929 . S
C700 C702 1.378 . S
C700 C704 1.350 . S
C701 C704 1.463 . S
C701 C706 1.350 . S
C701 N709 1.427 . S
C702 H693 0.930 . S
C702 C700 1.378 . S
C702 C703 1.367 . S
C703 C702 1.367 . S
C703 C705 1.433 . S
C704 C700 1.350 . S
C704 C701 1.463 . S
C704 N708 1.427 . S
C705 H695 0.929 . S
C705 C703 1.433 . S
C705 N708 1.384 . S
C706 H697 0.929 . S
C706 C698 1.378 . S
C706 C701 1.350 . S
C707 H694 0.929 . S
C707 C699 1.433 . S
C707 N709 1.384 . S
N708 C704 1.427 . S
N708 C705 1.384 . S
N709 C701 1.427 . S
N709 C707 1.384 . S
H710 C716 0.930 . S
H711 C720 0.930 . S
H712 C725 0.929 . S
H713 C723 0.929 . S
H714 C718 0.929 . S
H715 C724 0.929 . S
C716 H710 0.930 . S
C716 C717 1.367 . S
C716 C724 1.378 . S
C717 C716 1.367 . S
C717 C725 1.433 . S
C718 H714 0.929 . S
C718 C720 1.378 . S
C718 C722 1.350 . S
C719 C722 1.463 . S
C719 C724 1.350 . S
C719 N727 1.427 . S
C720 H711 0.930 . S
C720 C718 1.378 . S
C720 C721 1.367 . S
C721 C720 1.367 . S
C721 C723 1.433 . S
C722 C718 1.350 . S
C722 C719 1.463 . S
C722 N726 1.427 . S
C723 H713 0.929 . S
C723 C721 1.433 . S
C723 N726 1.384 . S
C724 H715 0.929 . S
C724 C716 1.378 . S
C724 C719 1.350 . S
C725 H712 0.929 . S
C725 C717 1.433 . S
C725 N727 1.384 . S
N726 C722 1.427 . S
N726 C723 1.384 . S
N727 C719 1.427 . S
N727 C725 1.384 . S
H728 C734 0.930 . S
H729 C738 0.930 . S
H730 C743 0.929 . S
H731 C741 0.929 . S
H732 C736 0.929 . S
H733 C742 0.929 . S
C734 H728 0.930 . S
C734 C735 1.367 . S
C734 C742 1.378 . S
C735 C734 1.367 . S
C735 C743 1.433 . S
C736 H732 0.929 . S
C736 C738 1.378 . S
C736 C740 1.350 . S
C737 C740 1.463 . S
C737 C742 1.350 . S
C737 N745 1.427 . S
C738 H729 0.930 . S
C738 C736 1.378 . S
C738 C739 1.367 . S
C739 C738 1.367 . S
C739 C741 1.433 . S
C740 C736 1.350 . S
C740 C737 1.463 . S
C740 N744 1.427 . S
C741 H731 0.929 . S
C741 C739 1.433 . S
C741 N744 1.384 . S
C742 H733 0.929 . S
C742 C734 1.378 . S
C742 C737 1.350 . S
C743 H730 0.929 . S
C743 C735 1.433 . S
C743 N745 1.384 . S
N744 C740 1.427 . S
N744 C741 1.384 . S
N745 C737 1.427 . S
N745 C743 1.384 . S
H746 C752 0.930 . S
H747 C756 0.930 . S
H748 C761 0.929 1_556 S
H749 C759 0.929 . S
H750 C754 0.929 . S
H751 C760 0.929 . S
C752 H746 0.930 . S
C752 C753 1.367 . S
C752 C760 1.378 . S
C753 C752 1.367 . S
C753 C761 1.433 . S
C754 H750 0.929 . S
C754 C756 1.378 . S
C754 C758 1.350 . S
C755 C758 1.463 . S
C755 C760 1.350 . S
C755 N763 1.427 . S
C756 H747 0.930 . S
C756 C754 1.378 . S
C756 C757 1.367 . S
C757 C756 1.367 . S
C757 C759 1.433 . S
C758 C754 1.350 . S
C758 C755 1.463 . S
C758 N762 1.427 . S
C759 H749 0.929 . S
C759 C757 1.433 . S
C759 N762 1.384 . S
C760 H751 0.929 . S
C760 C752 1.378 . S
C760 C755 1.350 . S
C761 H748 0.929 1_554 S
C761 C753 1.433 . S
C761 N763 1.384 . S
N762 C758 1.427 . S
N762 C759 1.384 . S
N763 C755 1.427 . S
N763 C761 1.384 . S
H764 C770 0.930 . S
H765 C774 0.930 . S
H766 C779 0.929 . S
H767 C777 0.929 . S
H768 C772 0.929 . S
H769 C778 0.929 . S
C770 H764 0.930 . S
C770 C771 1.367 . S
C770 C778 1.378 . S
C771 C770 1.367 . S
C771 C779 1.433 . S
C772 H768 0.929 . S
C772 C774 1.378 . S
C772 C776 1.350 . S
C773 C776 1.463 . S
C773 C778 1.350 . S
C773 N781 1.427 . S
C774 H765 0.930 . S
C774 C772 1.378 . S
C774 C775 1.367 . S
C775 C774 1.367 . S
C775 C777 1.433 . S
C776 C772 1.350 . S
C776 C773 1.463 . S
C776 N780 1.427 . S
C777 H767 0.929 . S
C777 C775 1.433 . S
C777 N780 1.384 . S
C778 H769 0.929 . S
C778 C770 1.378 . S
C778 C773 1.350 . S
C779 H766 0.929 . S
C779 C771 1.433 . S
C779 N781 1.384 . S
N780 C776 1.427 . S
N780 C777 1.384 . S
N781 C773 1.427 . S
N781 C779 1.384 . S
H782 C788 0.930 . S
H783 C792 0.930 . S
H784 C797 0.929 . S
H785 C795 0.929 . S
H786 C790 0.929 . S
H787 C796 0.929 . S
C788 H782 0.930 . S
C788 C789 1.367 . S
C788 C796 1.378 . S
C789 C788 1.367 . S
C789 C797 1.433 . S
C790 H786 0.929 . S
C790 C792 1.378 . S
C790 C794 1.350 . S
C791 C794 1.463 . S
C791 C796 1.350 . S
C791 N799 1.427 . S
C792 H783 0.930 . S
C792 C790 1.378 . S
C792 C793 1.367 . S
C793 C792 1.367 . S
C793 C795 1.433 . S
C794 C790 1.350 . S
C794 C791 1.463 . S
C794 N798 1.427 . S
C795 H785 0.929 . S
C795 C793 1.433 . S
C795 N798 1.384 . S
C796 H787 0.929 . S
C796 C788 1.378 . S
C796 C791 1.350 . S
C797 H784 0.929 . S
C797 C789 1.433 . S
C797 N799 1.384 . S
N798 C794 1.427 . S
N798 C795 1.384 . S
N799 C791 1.427 . S
N799 C797 1.384 . S
C231 C13 0.841 . S
C235 C68 0.837 . S
C249 C27 0.839 . S
C253 C71 0.839 . S
C267 C96 0.839 . S
C271 C28 0.843 . S
C285 C55 0.847 . S
C289 C110 0.845 . S
C303 C69 0.843 . S
C307 C12 0.849 . S
C321 C140 0.842 . S
C325 C124 0.840 . S
C339 C97 0.845 . S
C343 C29 0.840 . S
C357 C138 0.845 . S
C361 C166 0.847 . S
C375 C180 0.842 . S
C379 C208 0.842 . S
C393 C125 0.845 . S
C397 C141 0.843 . S
C411 C182 0.841 . S
C415 C222 0.837 . S
C429 C167 0.848 . S
C433 C139 0.846 . S
C447 C209 0.843 . S
C451 C181 0.838 . S
C465 C26 0.845 . S
C469 C70 0.847 . S
C483 C183 0.848 . S
C487 C223 0.850 . S
C501 C111 0.845 . S
C505 C54 0.847 . S
C519 C0 1.571 . S
C523 C99 1.565 . S
C537 C57 1.575 . S
C541 C14 1.575 . S
C555 C82 1.572 . S
C559 C41 1.574 . S
C573 C42 1.574 . S
C577 C85 1.573 . S
C591 C1 1.573 . S
C595 C155 1.579 . S
C609 C113 1.575 . S
C613 C56 1.575 . S
C627 C153 1.573 . S
C631 C40 1.570 . S
C645 C127 1.572 . S
C649 C84 1.573 . S
C663 C169 1.576 . S
C667 C154 1.576 . S
C681 C197 1.571 . S
C685 C112 1.572 . S
C699 C152 1.575 . S
C703 C195 1.576 . S
C717 C211 1.576 . S
C721 C126 1.579 . S
C735 C98 1.576 . S
C739 C168 1.576 . S
C753 C196 1.571 . S
C757 C15 1.569 . S
C771 C83 1.575 . S
C775 C194 1.574 . S
C789 C210 1.575 . S
C793 C43 1.573 . S
