# Generated by pormake.
# Topology smd, (6)-cn, num edge types: 1
# Building blocks:
#     Node 0, Type 0, BuildingBlock: IZENUY_clean_sbu_0, # of connection points: 6
#     Node 1, Type 0, BuildingBlock: IZENUY_clean_sbu_0, # of connection points: 6
#     Node 2, Type 0, BuildingBlock: IZENUY_clean_sbu_0, # of connection points: 6
#     Node 3, Type 0, BuildingBlock: IZENUY_clean_sbu_0, # of connection points: 6
#     Node 4, Type 0, BuildingBlock: IZENUY_clean_sbu_0, # of connection points: 6
#     Node 5, Type 0, BuildingBlock: IZENUY_clean_sbu_0, # of connection points: 6
#     Node 6, Type 0, BuildingBlock: IZENUY_clean_sbu_0, # of connection points: 6
#     Node 7, Type 0, BuildingBlock: IZENUY_clean_sbu_0, # of connection points: 6
#     Node 8, Type 0, BuildingBlock: IZENUY_clean_sbu_0, # of connection points: 6
#     Node 9, Type 0, BuildingBlock: IZENUY_clean_sbu_0, # of connection points: 6
#     Node 10, Type 0, BuildingBlock: IZENUY_clean_sbu_0, # of connection points: 6
#     Node 11, Type 0, BuildingBlock: IZENUY_clean_sbu_0, # of connection points: 6
#     Node 12, Type 0, BuildingBlock: IZENUY_clean_sbu_0, # of connection points: 6
#     Node 13, Type 0, BuildingBlock: IZENUY_clean_sbu_0, # of connection points: 6
#     Node 14, Type 0, BuildingBlock: IZENUY_clean_sbu_0, # of connection points: 6
#     Node 15, Type 0, BuildingBlock: IZENUY_clean_sbu_0, # of connection points: 6
#     Node 16, Type 0, BuildingBlock: IZENUY_clean_sbu_0, # of connection points: 6
#     Node 17, Type 0, BuildingBlock: IZENUY_clean_sbu_0, # of connection points: 6
#     Edge 18, Type (0, 0), BuildingBlock: OJICUG_clean_linker_0, # of connection points: 2
#     Edge 19, Type (0, 0), BuildingBlock: OJICUG_clean_linker_0, # of connection points: 2
#     Edge 20, Type (0, 0), BuildingBlock: OJICUG_clean_linker_0, # of connection points: 2
#     Edge 21, Type (0, 0), BuildingBlock: OJICUG_clean_linker_0, # of connection points: 2
#     Edge 22, Type (0, 0), BuildingBlock: OJICUG_clean_linker_0, # of connection points: 2
#     Edge 23, Type (0, 0), BuildingBlock: OJICUG_clean_linker_0, # of connection points: 2
#     Edge 24, Type (0, 0), BuildingBlock: OJICUG_clean_linker_0, # of connection points: 2
#     Edge 25, Type (0, 0), BuildingBlock: OJICUG_clean_linker_0, # of connection points: 2
#     Edge 26, Type (0, 0), BuildingBlock: OJICUG_clean_linker_0, # of connection points: 2
#     Edge 27, Type (0, 0), BuildingBlock: OJICUG_clean_linker_0, # of connection points: 2
#     Edge 28, Type (0, 0), BuildingBlock: OJICUG_clean_linker_0, # of connection points: 2
#     Edge 29, Type (0, 0), BuildingBlock: OJICUG_clean_linker_0, # of connection points: 2
#     Edge 30, Type (0, 0), BuildingBlock: OJICUG_clean_linker_0, # of connection points: 2
#     Edge 31, Type (0, 0), BuildingBlock: OJICUG_clean_linker_0, # of connection points: 2
#     Edge 32, Type (0, 0), BuildingBlock: OJICUG_clean_linker_0, # of connection points: 2
#     Edge 33, Type (0, 0), BuildingBlock: OJICUG_clean_linker_0, # of connection points: 2
#     Edge 34, Type (0, 0), BuildingBlock: OJICUG_clean_linker_0, # of connection points: 2
#     Edge 35, Type (0, 0), BuildingBlock: OJICUG_clean_linker_0, # of connection points: 2
#     Edge 36, Type (0, 0), BuildingBlock: OJICUG_clean_linker_0, # of connection points: 2
#     Edge 37, Type (0, 0), BuildingBlock: OJICUG_clean_linker_0, # of connection points: 2
#     Edge 38, Type (0, 0), BuildingBlock: OJICUG_clean_linker_0, # of connection points: 2
#     Edge 39, Type (0, 0), BuildingBlock: OJICUG_clean_linker_0, # of connection points: 2
#     Edge 40, Type (0, 0), BuildingBlock: OJICUG_clean_linker_0, # of connection points: 2
#     Edge 41, Type (0, 0), BuildingBlock: OJICUG_clean_linker_0, # of connection points: 2
#     Edge 42, Type (0, 0), BuildingBlock: OJICUG_clean_linker_0, # of connection points: 2
#     Edge 43, Type (0, 0), BuildingBlock: OJICUG_clean_linker_0, # of connection points: 2
#     Edge 44, Type (0, 0), BuildingBlock: OJICUG_clean_linker_0, # of connection points: 2
#     Edge 45, Type (0, 0), BuildingBlock: OJICUG_clean_linker_0, # of connection points: 2
#     Edge 46, Type (0, 0), BuildingBlock: OJICUG_clean_linker_0, # of connection points: 2
#     Edge 47, Type (0, 0), BuildingBlock: OJICUG_clean_linker_0, # of connection points: 2
#     Edge 48, Type (0, 0), BuildingBlock: OJICUG_clean_linker_0, # of connection points: 2
#     Edge 49, Type (0, 0), BuildingBlock: OJICUG_clean_linker_0, # of connection points: 2
#     Edge 50, Type (0, 0), BuildingBlock: OJICUG_clean_linker_0, # of connection points: 2
#     Edge 51, Type (0, 0), BuildingBlock: OJICUG_clean_linker_0, # of connection points: 2
#     Edge 52, Type (0, 0), BuildingBlock: OJICUG_clean_linker_0, # of connection points: 2
#     Edge 53, Type (0, 0), BuildingBlock: OJICUG_clean_linker_0, # of connection points: 2
#     Edge 54, Type (0, 0), BuildingBlock: OJICUG_clean_linker_0, # of connection points: 2
#     Edge 55, Type (0, 0), BuildingBlock: OJICUG_clean_linker_0, # of connection points: 2
#     Edge 56, Type (0, 0), BuildingBlock: OJICUG_clean_linker_0, # of connection points: 2
#     Edge 57, Type (0, 0), BuildingBlock: OJICUG_clean_linker_0, # of connection points: 2
#     Edge 58, Type (0, 0), BuildingBlock: OJICUG_clean_linker_0, # of connection points: 2
#     Edge 59, Type (0, 0), BuildingBlock: OJICUG_clean_linker_0, # of connection points: 2
#     Edge 60, Type (0, 0), BuildingBlock: OJICUG_clean_linker_0, # of connection points: 2
#     Edge 61, Type (0, 0), BuildingBlock: OJICUG_clean_linker_0, # of connection points: 2
#     Edge 62, Type (0, 0), BuildingBlock: OJICUG_clean_linker_0, # of connection points: 2
#     Edge 63, Type (0, 0), BuildingBlock: OJICUG_clean_linker_0, # of connection points: 2
#     Edge 64, Type (0, 0), BuildingBlock: OJICUG_clean_linker_0, # of connection points: 2
#     Edge 65, Type (0, 0), BuildingBlock: OJICUG_clean_linker_0, # of connection points: 2
#     Edge 66, Type (0, 0), BuildingBlock: OJICUG_clean_linker_0, # of connection points: 2
#     Edge 67, Type (0, 0), BuildingBlock: OJICUG_clean_linker_0, # of connection points: 2
#     Edge 68, Type (0, 0), BuildingBlock: OJICUG_clean_linker_0, # of connection points: 2
#     Edge 69, Type (0, 0), BuildingBlock: OJICUG_clean_linker_0, # of connection points: 2
#     Edge 70, Type (0, 0), BuildingBlock: OJICUG_clean_linker_0, # of connection points: 2
#     Edge 71, Type (0, 0), BuildingBlock: OJICUG_clean_linker_0, # of connection points: 2
# Relax obj value: 0.180
# Max RMSD: 0.220
# Mean RMSD: 0.218
data_MOF--net-smd--node1-IZENUY_clean_sbu_0--edge1-OJICUG_clean_linker_0
_symmetry_space_group_name_H-M    P1
_symmetry_Int_Tables_number       1
_symmetry_cell_setting            triclinic
loop_
_symmetry_equiv_pos_as_xyz
'x, y, z'
_cell_length_a     54.662723
_cell_length_b     54.81886
_cell_length_c     11.168614
_cell_angle_alpha  90.067759
_cell_angle_beta   89.836739
_cell_angle_gamma 120.09931
loop_
_atom_site_label
_atom_site_type_symbol
_atom_site_fract_x
_atom_site_fract_y
_atom_site_fract_z
_atom_type_partial_charge
Fe0 Fe 0.05705 0.2706 0.62109 0.0
Fe1 Fe 0.03453 0.21083 0.5225 0.0
O2 O 0.03425 0.24299 0.52377 0.0
Fe3 Fe 1.01113 0.24782 0.42903 0.0
O4 O 0.99371 0.25329 0.55561 0.0
O5 O 0.03302 0.2851 0.64035 0.0
O6 O 0.04017 0.24891 0.74993 0.0
C7 C 0.03779 0.22521 0.7698 0.0
C8 C 0.06213 0.30166 0.42575 0.0
O9 O 0.0414 0.21139 0.68656 0.0
C10 C 0.02891 0.22122 0.27514 0.0
O11 O 0.08556 0.26155 0.62127 0.0
O12 O 0.0717 0.22852 0.48488 0.0
O13 O 0.03558 0.28632 0.40975 0.0
O14 O 0.07487 0.29387 0.49626 0.0
C15 C 0.97756 0.19029 0.50108 0.0
O16 O 0.0275 0.20474 0.35867 0.0
O17 O 0.02693 0.24269 0.29722 0.0
C18 C 0.09112 0.24736 0.54734 0.0
O19 O 0.99735 0.19065 0.55991 0.0
O20 O 0.98252 0.21034 0.43009 0.0
C21 C 1.0065 0.27393 0.62538 0.0
Fe22 Fe 0.85133 0.84404 0.52278 0.0
Fe23 Fe 0.81402 0.78362 0.42899 0.0
O24 O 0.81898 0.81158 0.52409 0.0
Fe25 Fe 0.79131 0.80674 0.6218 0.0
O26 O 0.81301 0.81161 0.75037 0.0
O27 O 0.85077 0.85035 0.68695 0.0
O28 O 0.87142 0.82705 0.55953 0.0
C29 C 0.87163 0.80756 0.5006 0.0
C30 C 0.8148 0.86402 0.54831 0.0
O31 O 0.85153 0.7925 0.42957 0.0
C32 C 0.76018 0.78076 0.42642 0.0
O33 O 0.85743 0.8431 0.35881 0.0
O34 O 0.81929 0.80455 0.29741 0.0
O35 O 0.80052 0.84429 0.62227 0.0
O36 O 0.83373 0.86351 0.48582 0.0
C37 C 0.78778 0.75293 0.62548 0.0
O38 O 0.77546 0.76955 0.41014 0.0
O39 O 0.76802 0.80126 0.49728 0.0
C40 C 0.84088 0.82802 0.27534 0.0
O41 O 0.80844 0.76078 0.55529 0.0
O42 O 0.77663 0.76822 0.64081 0.0
C43 C 0.83683 0.83293 0.77016 0.0
Fe44 Fe 0.21754 0.02741 0.53071 0.0
Fe45 Fe 0.25485 1.00434 0.62429 0.0
O46 O 0.24988 0.0273 0.52923 0.0
Fe47 Fe 0.27753 0.05007 0.4314 0.0
O48 O 0.25578 0.03317 0.30293 0.0
O49 O 0.21806 0.03422 0.3666 0.0
O50 O 0.19744 0.99029 0.49391 0.0
C51 C 0.19725 0.97062 0.55279 0.0
C52 C 0.25408 0.08391 0.50513 0.0
O53 O 0.21733 0.97571 0.62391 0.0
C54 C 0.30873 0.05529 0.62649 0.0
O55 O 0.21146 0.02042 0.69467 0.0
O56 O 0.24964 0.0201 0.75589 0.0
O57 O 0.26833 0.07842 0.43108 0.0
O58 O 0.23515 0.0645 0.5677 0.0
C59 C 0.28101 0.99975 0.42762 0.0
O60 O 0.29342 0.02882 0.64289 0.0
O61 O 0.30087 0.06793 0.55578 0.0
C62 C 0.22803 0.02195 0.77807 0.0
O63 O 0.26038 0.98699 0.49795 0.0
O64 O 0.29216 0.02618 0.41221 0.0
C65 C 0.23197 0.0307 0.28328 0.0
Fe66 Fe 1.01142 0.78309 0.42964 0.0
Fe67 Fe 0.03471 0.84347 0.52358 0.0
O68 O 0.03451 0.81107 0.52453 0.0
Fe69 Fe 0.05735 0.80632 0.62165 0.0
O70 O 0.07519 0.80089 0.49666 0.0
O71 O 0.03591 0.76908 0.41019 0.0
O72 O 0.02721 0.80403 0.29795 0.0
C73 C 0.02915 0.82747 0.2761 0.0
C74 C 1.00684 0.75242 0.62582 0.0
O75 O 0.02769 0.84251 0.35977 0.0
C76 C 0.03803 0.8324 0.77076 0.0
O77 O 0.98278 0.7919 0.43084 0.0
O78 O 0.99754 0.82641 0.56099 0.0
O79 O 0.03335 0.76778 0.64078 0.0
O80 O 0.99403 0.76022 0.5561 0.0
C81 C 0.09133 0.86364 0.54821 0.0
O82 O 0.04158 0.84981 0.68767 0.0
O83 O 0.04047 0.81112 0.75065 0.0
C84 C 0.97777 0.80698 0.50192 0.0
O85 O 0.07188 0.86302 0.48595 0.0
O86 O 0.08583 0.84391 0.62194 0.0
C87 C 0.06246 0.78032 0.42613 0.0
Fe88 Fe 0.21744 0.21003 0.52994 0.0
Fe89 Fe 0.25474 0.27043 0.62384 0.0
O90 O 0.24978 0.24249 0.52866 0.0
Fe91 Fe 0.27745 0.24734 0.43089 0.0
O92 O 0.25573 0.24248 0.30237 0.0
O93 O 0.218 0.20372 0.36578 0.0
O94 O 0.19735 0.22704 0.49317 0.0
C95 C 0.19715 0.24654 0.55209 0.0
C96 C 0.25398 0.19007 0.50446 0.0
O97 O 0.21722 0.26155 0.6233 0.0
C98 C 0.30859 0.27331 0.62623 0.0
O99 O 0.21132 0.21097 0.69391 0.0
O100 O 0.24948 0.24949 0.75535 0.0
O101 O 0.26823 0.20978 0.43038 0.0
O102 O 0.23504 0.19056 0.56692 0.0
C103 C 0.28097 0.30116 0.42742 0.0
O104 O 0.29331 0.28451 0.64262 0.0
O105 O 0.30074 0.25281 0.55536 0.0
C106 C 0.22788 0.22603 0.7774 0.0
O107 O 0.26031 0.2933 0.49761 0.0
O108 O 0.29212 0.28587 0.41196 0.0
C109 C 0.23192 0.22115 0.28257 0.0
Fe110 Fe 0.79089 1.00374 0.62293 0.0
Fe111 Fe 0.85146 0.02709 0.52812 0.0
O112 O 0.81891 0.02677 0.52742 0.0
Fe113 Fe 0.81404 0.04944 0.42996 0.0
O114 O 0.80858 0.06725 0.55466 0.0
O115 O 0.77678 0.02811 0.6422 0.0
O116 O 0.81191 0.01956 0.75419 0.0
C117 C 0.83544 0.02156 0.77579 0.0
C118 C 0.76007 0.999 0.42699 0.0
O119 O 0.85054 0.02013 0.692 0.0
C120 C 0.84029 0.03026 0.281 0.0
O121 O 0.79981 0.97523 0.62195 0.0
O122 O 0.83443 0.98999 0.4914 0.0
O123 O 0.77542 0.02544 0.41157 0.0
O124 O 0.76793 0.9863 0.49698 0.0
C125 C 0.87142 0.08353 0.50281 0.0
O126 O 0.85778 0.03391 0.36391 0.0
O127 O 0.81889 0.03259 0.30122 0.0
C128 C 0.81493 0.97026 0.5507 0.0
O129 O 0.87097 0.06419 0.56507 0.0
O130 O 0.85167 0.0779 0.42894 0.0
C131 C 0.78803 0.05458 0.62579 0.0
Fe132 Fe 0.67824 0.58121 0.76488 0.0
Fe133 Fe 0.72414 0.60441 0.95699 0.0
O134 O 0.70105 0.57644 0.86204 0.0
Fe135 Fe 0.70084 0.54403 0.86298 0.0
O136 O 0.66367 0.52449 0.90054 0.0
O137 O 0.64975 0.54362 0.76452 0.0
O138 O 0.66039 0.58664 0.88984 0.0
C139 C 0.67312 0.6072 0.96039 0.0
C140 C 0.69755 0.55512 0.61581 0.0
O141 O 0.69967 0.61842 0.9764 0.0
C142 C 0.75779 0.5805 0.88475 0.0
O143 O 0.70224 0.61974 0.74581 0.0
O144 O 0.74155 0.62728 0.83056 0.0
O145 O 0.69399 0.53771 0.69888 0.0
O146 O 0.69512 0.57641 0.63592 0.0
C147 C 0.70639 0.56002 0.11047 0.0
O148 O 0.75278 0.59558 0.95581 0.0
O149 O 0.73802 0.56108 0.82564 0.0
C150 C 0.72876 0.6351 0.76082 0.0
O151 O 0.70834 0.58346 0.08864 0.0
O152 O 0.70785 0.54498 0.02679 0.0
C153 C 0.64423 0.52388 0.83823 0.0
Fe154 Fe 0.48079 0.11718 0.76189 0.0
Fe155 Fe 0.45808 0.14025 0.95486 0.0
O156 O 0.48574 0.14512 0.85706 0.0
Fe157 Fe 0.51807 0.17759 0.85572 0.0
O158 O 0.5382 0.16063 0.89241 0.0
O159 O 0.51832 0.12608 0.76242 0.0
O160 O 0.47524 0.09432 0.88813 0.0
C161 C 0.45457 0.08644 0.95831 0.0
C162 C 0.50762 0.16158 0.60828 0.0
O163 O 0.44342 0.10173 0.97376 0.0
C164 C 0.48149 0.19751 0.88128 0.0
O165 O 0.44222 0.10309 0.74313 0.0
O166 O 0.43478 0.13478 0.83041 0.0
O167 O 0.52418 0.17666 0.69175 0.0
O168 O 0.48603 0.13811 0.63036 0.0
C169 C 0.5036 0.16646 0.10311 0.0
O170 O 0.46727 0.17781 0.95542 0.0
O171 O 0.50044 0.19702 0.81878 0.0
C172 C 0.42693 0.11429 0.75951 0.0
O173 O 0.4798 0.14512 0.08334 0.0
O174 O 0.51751 0.1839 1.0199 0.0
C175 C 0.53842 0.14114 0.83342 0.0
Fe176 Fe 0.92155 0.33802 0.95569 0.0
Fe177 Fe 0.88407 0.36033 0.85757 0.0
O178 O 0.91666 0.3607 0.8583 0.0
Fe179 Fe 0.94468 0.38378 0.7629 0.0
O180 O 0.96762 0.4012 0.88895 0.0
O181 O 0.96015 0.36205 0.97417 0.0
O182 O 0.91666 0.35483 0.08449 0.0
C183 C 0.89524 0.35714 0.1047 0.0
C184 C 0.9476 0.33297 0.75982 0.0
O185 O 0.87775 0.35348 1.02177 0.0
C186 C 0.90014 0.36594 0.60992 0.0
O187 O 0.88392 0.30952 0.95661 0.0
O188 O 0.86462 0.32323 0.82047 0.0
O189 O 0.95883 0.35944 0.74349 0.0
O190 O 0.92705 0.32026 0.83091 0.0
C191 C 0.92057 0.41718 0.83524 0.0
O192 O 0.885 0.36731 0.6937 0.0
O193 O 0.92369 0.36798 0.63154 0.0
C194 C 0.86419 0.30388 0.88262 0.0
O195 O 0.90105 0.39743 0.8944 0.0
O196 O 0.93572 0.41225 0.76402 0.0
C197 C 0.97549 0.38849 0.95885 0.0
Fe198 Fe 0.72407 0.13973 0.95445 0.0
Fe199 Fe 0.70153 0.17696 0.85632 0.0
O200 O 0.70126 0.14452 0.85731 0.0
Fe201 Fe 0.67814 0.11655 0.76242 0.0
O202 O 0.66073 0.09369 0.88889 0.0
O203 O 0.70004 0.1012 0.97355 0.0
O204 O 0.7072 0.14456 0.08342 0.0
C205 C 0.7048 0.16586 0.1035 0.0
C206 C 0.72914 0.11372 0.7589 0.0
O207 O 0.7084 0.18328 1.02041 0.0
C208 C 0.69592 0.16093 0.60884 0.0
O209 O 0.75259 0.17731 0.9548 0.0
O210 O 0.7387 0.19644 0.81867 0.0
O211 O 0.70259 0.10251 0.74295 0.0
O212 O 0.74189 0.13427 0.82947 0.0
C213 C 0.64456 0.14053 0.83466 0.0
O214 O 0.69451 0.17601 0.69251 0.0
O215 O 0.69394 0.13748 0.63071 0.0
C216 C 0.75813 0.19702 0.88092 0.0
O217 O 0.66434 0.15996 0.89369 0.0
O218 O 0.64953 0.12542 0.76367 0.0
C219 C 0.67352 0.08586 0.95857 0.0
Fe220 Fe 0.92155 0.60388 0.9577 0.0
Fe221 Fe 0.88425 0.54346 0.86392 0.0
O222 O 0.9166 0.57592 0.8626 0.0
Fe223 Fe 0.94427 0.58076 0.7649 0.0
O224 O 0.96756 0.58625 0.88941 0.0
O225 O 0.96012 0.61795 0.97653 0.0
O226 O 0.91629 0.58296 0.08928 0.0
C227 C 0.89471 0.55949 0.11136 0.0
C228 C 0.9478 0.63458 0.76124 0.0
O229 O 0.87815 0.5444 0.0279 0.0
C230 C 0.89875 0.55457 0.61654 0.0
O231 O 0.88404 0.595 0.95712 0.0
O232 O 0.86415 0.56045 0.82719 0.0
O233 O 0.95894 0.61928 0.74588 0.0
O234 O 0.92713 0.62673 0.83139 0.0
C235 C 0.92077 0.52347 0.83833 0.0
O236 O 0.88481 0.53715 0.69975 0.0
O237 O 0.92256 0.57589 0.63633 0.0
C238 C 0.86394 0.57994 0.88612 0.0
O239 O 0.90184 0.52398 0.90086 0.0
O240 O 0.93505 0.54321 0.76442 0.0
C241 C 0.9754 0.60675 0.96026 0.0
Fe242 Fe 0.45798 0.33751 0.95446 0.0
Fe243 Fe 0.51797 0.36014 0.85516 0.0
O244 O 0.48564 0.36027 0.85663 0.0
Fe245 Fe 0.48069 0.38324 0.76159 0.0
O246 O 0.47517 0.4006 0.88795 0.0
O247 O 0.44336 0.36141 0.97364 0.0
O248 O 0.47973 0.3544 0.08293 0.0
C249 C 0.50353 0.35685 0.10258 0.0
C250 C 0.4268 0.3323 0.75933 0.0
O251 O 0.51743 0.35331 1.01926 0.0
C252 C 0.50749 0.36563 0.6078 0.0
O253 O 0.46716 0.30915 0.95477 0.0
O254 O 0.50033 0.32305 0.81812 0.0
O255 O 0.44211 0.35877 0.74296 0.0
O256 O 0.43464 0.31966 0.83006 0.0
C257 C 0.53829 0.41694 0.83319 0.0
O258 O 0.52406 0.36714 0.69121 0.0
O259 O 0.48589 0.36749 0.62998 0.0
C260 C 0.4814 0.30365 0.88068 0.0
O261 O 0.53808 0.39725 0.89201 0.0
O262 O 0.51821 0.41186 0.76204 0.0
C263 C 0.45454 0.38784 0.95828 0.0
Fe264 Fe 0.36793 0.87768 0.18919 0.0
Fe265 Fe 0.3445 0.91466 0.0958 0.0
O266 O 0.36765 0.90984 0.19045 0.0
Fe267 Fe 0.39047 0.93747 0.28766 0.0
O268 O 0.37362 0.9158 0.41658 0.0
O269 O 0.37483 0.87827 0.35323 0.0
O270 O 0.33076 0.8575 0.22672 0.0
C271 C 0.31095 0.85712 0.16799 0.0
C272 C 0.42453 0.91423 0.2138 0.0
O273 O 0.31588 0.87717 0.09702 0.0
C274 C 0.3955 0.9685 0.09227 0.0
O275 O 0.36088 0.87158 1.02536 0.0
O276 O 0.36026 0.9095 0.96391 0.0
O277 O 0.41898 0.92842 0.28774 0.0
O278 O 0.4051 0.89537 0.15143 0.0
C279 C 0.33993 0.94079 0.29217 0.0
O280 O 0.36895 0.95316 0.07639 0.0
O281 O 0.40826 0.96072 0.16273 0.0
C282 C 0.36226 0.88804 0.94184 0.0
O283 O 0.32712 0.92014 0.22247 0.0
O284 O 0.36645 0.95197 0.30702 0.0
C285 C 0.37124 0.8921 0.43647 0.0
Fe286 Fe 0.14747 0.45033 0.09545 0.0
Fe287 Fe 0.12475 0.47342 0.28838 0.0
O288 O 0.15242 0.47827 0.19064 0.0
Fe289 Fe 0.18477 0.51072 0.18939 0.0
O290 O 0.20485 0.49371 0.22616 0.0
O291 O 0.18499 0.45921 0.096 0.0
O292 O 0.1419 0.42746 0.22169 0.0
C293 C 0.12124 0.4196 0.29188 0.0
C294 C 0.17433 0.49473 0.94192 0.0
O295 O 0.11009 0.43489 0.30731 0.0
C296 C 0.14826 0.53071 0.21502 0.0
O297 O 0.10891 0.43625 0.07665 0.0
O298 O 0.10146 0.46794 0.16389 0.0
O299 O 0.19088 0.5098 1.02541 0.0
O300 O 0.15273 0.47127 0.96395 0.0
C301 C 0.17027 0.49961 0.43675 0.0
O302 O 0.13397 0.51097 0.2889 0.0
O303 O 0.16719 0.53021 0.15247 0.0
C304 C 0.09362 0.44744 0.09302 0.0
O305 O 0.14646 0.47828 0.41693 0.0
O306 O 0.18421 0.51703 0.35355 0.0
C307 C 0.20505 0.47422 0.16724 0.0
Fe308 Fe 0.61126 0.71713 0.09598 0.0
Fe309 Fe 0.55067 0.69374 0.19074 0.0
O310 O 0.58324 0.69408 0.19145 0.0
Fe311 Fe 0.58812 0.67142 0.2889 0.0
O312 O 0.59359 0.65362 0.16417 0.0
O313 O 0.62539 0.69277 0.07667 0.0
O314 O 0.59025 0.70131 0.96469 0.0
C315 C 0.56671 0.6993 0.94307 0.0
C316 C 0.64208 0.72187 0.29191 0.0
O317 O 0.55159 0.70069 0.02686 0.0
C318 C 0.56186 0.69058 0.43787 0.0
O319 O 0.60233 0.74563 0.09698 0.0
O320 O 0.56768 0.73085 0.22744 0.0
O321 O 0.62673 0.69543 0.3073 0.0
O322 O 0.63421 0.73457 0.22196 0.0
C323 C 0.53074 0.6373 0.21608 0.0
O324 O 0.54436 0.68693 0.35496 0.0
O325 O 0.58326 0.68826 0.41764 0.0
C326 C 0.58718 0.75059 0.16816 0.0
O327 O 0.53118 0.65663 0.15381 0.0
O328 O 0.55049 0.64294 0.28993 0.0
C329 C 0.61415 0.6663 0.09307 0.0
Fe330 Fe 0.34513 0.45016 0.09816 0.0
Fe331 Fe 0.36766 0.50994 0.19668 0.0
O332 O 0.36794 0.47777 0.19542 0.0
Fe333 Fe 0.39108 0.47295 0.29011 0.0
O334 O 0.40846 0.46747 0.16347 0.0
O335 O 0.36914 0.43566 0.07884 0.0
O336 O 0.36199 0.47184 0.96928 0.0
C337 C 0.36438 0.49554 0.94939 0.0
C338 C 0.34007 0.41911 0.29352 0.0
O339 O 0.36077 0.50937 0.03263 0.0
C340 C 0.37331 0.49957 0.44404 0.0
O341 O 0.31662 0.45922 0.09803 0.0
O342 O 0.33049 0.49225 0.23438 0.0
O343 O 0.36662 0.43445 0.30947 0.0
O344 O 0.32732 0.4269 0.22305 0.0
C345 C 0.42464 0.53049 0.21797 0.0
O346 O 0.3747 0.51604 0.36051 0.0
O347 O 0.3753 0.4781 0.42197 0.0
C348 C 0.31107 0.4734 0.17197 0.0
O349 O 0.40483 0.53012 0.1592 0.0
O350 O 0.41969 0.51044 0.28894 0.0
C351 C 0.39566 0.44683 0.09373 0.0
Fe352 Fe 0.55081 0.87688 0.19612 0.0
Fe353 Fe 0.58814 0.93728 0.28998 0.0
O354 O 0.58317 0.90932 0.19486 0.0
Fe355 Fe 0.61084 0.91415 0.09718 0.0
O356 O 0.58914 0.90929 0.96858 0.0
O357 O 0.55137 0.87056 0.03196 0.0
O358 O 0.53075 0.8939 0.15933 0.0
C359 C 0.53055 0.91341 0.21822 0.0
C360 C 0.5873 0.85685 0.1706 0.0
O361 O 0.55063 0.92843 0.28939 0.0
C362 C 0.64197 0.94012 0.29256 0.0
O363 O 0.5447 0.87782 0.3601 0.0
O364 O 0.58286 0.91635 0.42154 0.0
O365 O 0.6016 0.87658 0.09671 0.0
O366 O 0.56837 0.85737 0.23308 0.0
C367 C 0.61441 0.96798 0.09354 0.0
O368 O 0.62669 0.95133 0.30885 0.0
O369 O 0.63412 0.91962 0.22171 0.0
C370 C 0.56125 0.89289 0.44358 0.0
O371 O 0.59374 0.96014 0.16369 0.0
O372 O 0.62553 0.95267 0.07817 0.0
C373 C 0.56532 0.88798 0.94876 0.0
Fe374 Fe 0.12436 0.67045 0.29029 0.0
Fe375 Fe 0.18495 0.69386 0.19549 0.0
O376 O 0.15237 0.6935 0.19479 0.0
Fe377 Fe 0.14747 0.71615 0.09734 0.0
O378 O 0.142 0.73395 0.22205 0.0
O379 O 0.11023 0.6948 0.3096 0.0
O380 O 0.14537 0.68627 0.42156 0.0
C381 C 0.16892 0.6883 0.44317 0.0
C382 C 0.09353 0.66569 0.09439 0.0
O383 O 0.18404 0.68691 0.35937 0.0
C384 C 0.17375 0.697 0.94837 0.0
O385 O 0.13331 0.64196 0.28927 0.0
O386 O 0.16795 0.65675 0.15879 0.0
O387 O 0.10886 0.69213 0.07897 0.0
O388 O 0.1014 0.653 0.16433 0.0
C389 C 0.20486 0.7503 0.17011 0.0
O390 O 0.19125 0.70067 0.03127 0.0
O391 O 0.15234 0.69931 0.9686 0.0
C392 C 0.14845 0.63701 0.21805 0.0
O393 O 0.20443 0.73097 0.23241 0.0
O394 O 0.1851 0.74464 0.09628 0.0
C395 C 0.12145 0.72127 0.29319 0.0
C396 C 0.12104 0.37512 0.34523 0.0
C397 C 0.10625 0.3898 0.33178 0.0
H398 H 0.11866 0.33573 0.38526 0.0
C399 C 0.07669 0.375 0.3457 0.0
H400 H 0.14379 0.38591 0.33408 0.0
C401 C 0.06222 0.3461 0.3715 0.0
C402 C 0.07706 0.33149 0.3861 0.0
H403 H 0.06465 0.38561 0.33392 0.0
H404 H 0.03947 0.33534 0.38268 0.0
C405 C 0.10664 0.34637 0.37351 0.0
C406 C 0.71559 0.73644 0.3715 0.0
C407 C 0.73033 0.76588 0.38654 0.0
H408 H 0.67594 0.69934 0.33341 0.0
C409 C 0.71554 0.78057 0.374 0.0
H410 H 0.72628 0.72445 0.38259 0.0
C411 C 0.68674 0.76621 0.3454 0.0
C412 C 0.67194 0.73675 0.33163 0.0
H413 H 0.72628 0.80323 0.38606 0.0
H414 H 0.67601 0.77815 0.33435 0.0
C415 C 0.68665 0.722 0.34543 0.0
C416 C 0.32549 0.99967 0.37257 0.0
C417 C 0.29594 0.9849 0.38734 0.0
H418 H 0.36266 0.9972 0.3345 0.0
C419 C 0.28115 0.95542 0.3743 0.0
H420 H 0.33754 0.02234 0.38402 0.0
C421 C 0.29551 0.94104 0.34561 0.0
C422 C 0.32507 0.95575 0.33212 0.0
H423 H 0.25841 0.94346 0.3861 0.0
H424 H 0.28348 0.91837 0.33424 0.0
C425 C 0.33992 0.98521 0.34632 0.0
C426 C 0.35347 0.09972 0.6787 0.0
C427 C 0.33862 0.07023 0.66585 0.0
H428 H 0.39307 0.13677 0.71832 0.0
C429 C 0.35332 0.05548 0.68006 0.0
H430 H 0.34276 0.11167 0.66727 0.0
C431 C 0.38229 0.06993 0.70569 0.0
C432 C 0.39706 0.09939 0.71988 0.0
H433 H 0.34259 0.0328 0.6687 0.0
H434 H 0.39296 0.05794 0.71714 0.0
C435 C 0.38229 0.1141 0.7069 0.0
C436 C 0.94773 0.28857 0.70737 0.0
C437 C 0.96251 0.31807 0.71972 0.0
H438 H 0.95007 0.25149 0.66807 0.0
C439 C 0.99204 0.33284 0.7046 0.0
H440 H 0.925 0.27661 0.71951 0.0
C441 C 1.00649 0.31837 0.67866 0.0
C442 C 0.99164 0.28889 0.66511 0.0
H443 H 1.0041 0.35552 0.71556 0.0
H444 H 0.02921 0.33036 0.66655 0.0
C445 C 0.96209 0.27418 0.67895 0.0
C446 C 0.74327 0.7084 0.68038 0.0
C447 C 0.77281 0.72315 0.66567 0.0
H448 H 0.70607 0.66879 0.7184 0.0
C449 C 0.78759 0.70845 0.67875 0.0
H450 H 0.73123 0.71902 0.66891 0.0
C451 C 0.7732 0.67973 0.70743 0.0
C452 C 0.74364 0.66489 0.72086 0.0
H453 H 0.81032 0.71921 0.66701 0.0
H454 H 0.78521 0.66907 0.71884 0.0
C455 C 0.7288 0.67952 0.70662 0.0
C456 C 0.9624 0.70779 0.67931 0.0
C457 C 0.99196 0.72262 0.66583 0.0
H458 H 0.92527 0.66832 0.71978 0.0
C459 C 1.00679 0.70799 0.68004 0.0
H460 H 0.95038 0.71845 0.66794 0.0
C461 C 0.99232 0.67911 0.70629 0.0
C462 C 0.96278 0.66436 0.72104 0.0
H463 H 0.02952 0.71872 0.66821 0.0
H464 H 1.00435 0.66848 0.71773 0.0
C465 C 0.94801 0.67907 0.708 0.0
C466 C 0.35324 0.31767 0.68005 0.0
C467 C 0.33847 0.28821 0.66584 0.0
H468 H 0.39294 0.35479 0.71708 0.0
C469 C 0.35324 0.2735 0.6788 0.0
H470 H 0.34257 0.32966 0.66861 0.0
C471 C 0.38206 0.28788 0.70702 0.0
C472 C 0.39691 0.31737 0.71991 0.0
H473 H 0.34246 0.25083 0.66737 0.0
H474 H 0.39278 0.27593 0.71845 0.0
C475 C 0.38221 0.33212 0.70569 0.0
C476 C 0.72916 0.06928 0.70551 0.0
C477 C 0.74403 0.09876 0.7194 0.0
H478 H 0.7315 0.03211 0.66872 0.0
C479 C 0.7736 0.11343 0.70632 0.0
H480 H 0.70641 0.05732 0.71708 0.0
C481 C 0.78795 0.099 0.67824 0.0
C482 C 0.77313 0.06951 0.66556 0.0
H483 H 0.78564 0.1361 0.71752 0.0
H484 H 0.81069 0.11093 0.66664 0.0
C485 C 0.74358 0.05479 0.67997 0.0
C486 C 0.68661 0.9403 0.34495 0.0
C487 C 0.67182 0.955 0.3324 0.0
H488 H 0.72614 0.94271 0.38459 0.0
C489 C 0.68656 0.98444 0.34739 0.0
H490 H 0.67586 0.91764 0.33293 0.0
C491 C 0.71551 0.99888 0.37343 0.0
C492 C 0.73021 0.98412 0.38726 0.0
H493 H 0.67588 0.99643 0.33629 0.0
H494 H 0.72622 0.02153 0.38543 0.0
C495 C 0.71541 0.95466 0.37353 0.0
C496 C 0.06253 0.7359 0.37285 0.0
C497 C 0.07737 0.76538 0.38671 0.0
H498 H 0.06492 0.69875 0.33611 0.0
C499 C 0.10695 0.78007 0.37367 0.0
H500 H 0.03979 0.72392 0.38439 0.0
C501 C 0.12132 0.76567 0.34563 0.0
C502 C 0.10653 0.73618 0.33296 0.0
H503 H 0.11897 0.80275 0.38486 0.0
H504 H 0.14407 0.77762 0.33405 0.0
C505 C 0.07698 0.72143 0.34734 0.0
C506 C 0.33999 0.37467 0.34778 0.0
C507 C 0.32514 0.38928 0.33318 0.0
H508 H 0.33757 0.33516 0.38536 0.0
C509 C 0.29556 0.37439 0.34579 0.0
H510 H 0.36274 0.38543 0.33659 0.0
C511 C 0.28117 0.34564 0.37408 0.0
C512 C 0.29596 0.33097 0.38751 0.0
H513 H 0.28354 0.38502 0.33405 0.0
H514 H 0.25841 0.33485 0.38523 0.0
C515 C 0.32552 0.34577 0.37357 0.0
C516 C 0.02008 0.38865 1.01224 0.0
C517 C 1.00535 0.40339 0.99853 0.0
H518 H 0.05972 0.39113 0.04923 0.0
C519 C 0.02015 0.43285 1.0123 0.0
H520 H 1.00938 0.366 1.00022 0.0
C521 C 0.04895 0.44723 0.0408 0.0
C522 C 0.06375 0.43254 0.05323 0.0
H523 H 1.0094 0.44478 1.00132 0.0
H524 H 0.05968 0.46988 0.05285 0.0
C525 C 0.04903 0.4031 0.03821 0.0
C526 C 0.62863 0.60748 1.01268 0.0
C527 C 0.65821 0.62215 0.99974 0.0
H528 H 0.59152 0.60995 0.05214 0.0
C529 C 0.67306 0.65163 1.01365 0.0
H530 H 0.6166 0.5848 1.00146 0.0
C531 C 0.65862 0.66611 0.03908 0.0
C532 C 0.62907 0.65138 0.05335 0.0
H533 H 0.69581 0.6636 1.00219 0.0
H534 H 0.67069 0.68879 0.05035 0.0
C535 C 0.61426 0.62189 0.04064 0.0
C536 C 0.45439 0.04196 1.01158 0.0
C537 C 0.43959 0.05664 0.99819 0.0
H538 H 0.45203 1.00258 0.0516 0.0
C539 C 0.41003 0.04184 1.01218 0.0
H540 H 0.47714 0.05276 1.00038 0.0
C541 C 0.39557 0.01293 0.038 0.0
C542 C 0.41042 0.99833 0.05256 0.0
H543 H 0.39798 0.05244 1.00043 0.0
H544 H 0.37282 1.00217 0.04924 0.0
C545 C 0.44 0.01321 0.03988 0.0
C546 C 0.62905 0.04123 1.01182 0.0
C547 C 0.65862 0.05605 0.99842 0.0
H548 H 0.59191 1.00175 0.05212 0.0
C549 C 0.67343 0.0414 1.01259 0.0
H550 H 0.61705 0.05189 1.00048 0.0
C551 C 0.65894 0.01251 0.03872 0.0
C552 C 0.6294 0.99777 0.05341 0.0
H553 H 0.69616 0.05212 1.00082 0.0
H554 H 0.67097 1.00187 0.05015 0.0
C555 C 0.61465 0.01249 0.0404 0.0
C556 C 0.04886 0.62134 0.04104 0.0
C557 C 0.06366 0.6508 0.05474 0.0
H558 H 1.00932 0.5843 1.00054 0.0
C559 C 0.04894 0.66554 0.04096 0.0
H560 H 0.05961 0.6094 0.05207 0.0
C561 C 0.01999 0.65109 1.015 0.0
C562 C 1.00526 0.62164 1.00004 0.0
H563 H 0.05964 0.6882 0.05294 0.0
H564 H 1.0093 0.66307 1.00393 0.0
C565 C 0.02006 0.60696 1.01254 0.0
C566 C 0.39564 0.40241 0.03955 0.0
C567 C 0.41051 0.43187 0.05379 0.0
H568 H 0.39801 0.36527 1.00179 0.0
C569 C 0.44007 0.44657 0.04036 0.0
H570 H 0.37291 0.39043 0.05132 0.0
C571 C 0.45442 0.43218 1.01166 0.0
C572 C 0.43961 0.4027 0.99857 0.0
H573 H 0.45211 0.46924 0.05177 0.0
H574 H 0.47716 0.44413 0.99989 0.0
C575 C 0.41007 0.38794 1.01329 0.0
C576 C 0.12539 0.23477 0.45704 0.0
C577 C 0.11962 0.24989 0.54358 0.0
H578 H 0.15405 0.2221 0.39128 0.0
C579 C 0.14064 0.26578 0.62878 0.0
H580 H 0.10994 0.2225 0.38911 0.0
C581 C 0.1663 0.26557 0.62994 0.0
C582 C 0.17144 0.24942 0.54604 0.0
H583 H 0.13698 0.27773 0.69666 0.0
H584 H 0.1817 0.27735 0.69868 0.0
C585 C 0.15082 0.23452 0.45831 0.0
C586 C 0.82738 0.9362 0.458 0.0
C587 C 0.81222 0.94179 0.54524 0.0
H588 H 0.83978 0.9076 0.38981 0.0
C589 C 0.79605 0.92054 0.62939 0.0
H590 H 0.83984 0.95182 0.39084 0.0
C591 C 0.79603 0.89484 0.62889 0.0
C592 C 0.81216 0.88983 0.54414 0.0
H593 H 0.78408 0.92407 0.6978 0.0
H594 H 0.78404 0.87927 0.69687 0.0
C595 C 0.82733 0.91069 0.45741 0.0
C596 C 0.14086 0.89485 0.62943 0.0
C597 C 0.11979 0.88964 0.54442 0.0
H598 H 0.18193 0.92442 0.69913 0.0
C599 C 0.12549 0.91052 0.45803 0.0
H600 H 0.13726 0.87927 0.69717 0.0
C601 C 0.15089 0.93623 0.45927 0.0
C602 C 0.17155 0.942 0.5468 0.0
H603 H 0.11001 0.90729 0.39025 0.0
H604 H 0.15406 0.95185 0.39237 0.0
C605 C 0.16649 0.92075 0.63054 0.0
C606 C 0.24202 0.14377 0.59756 0.0
C607 C 0.25671 0.1643 0.50907 0.0
H608 H 0.22996 0.10293 0.66635 0.0
C609 C 0.27242 0.159 0.42321 0.0
H610 H 0.22992 0.14709 0.66605 0.0
C611 C 0.27244 0.13332 0.42339 0.0
C612 C 0.25676 0.11239 0.50944 0.0
H613 H 0.28403 0.17433 0.35384 0.0
H614 H 0.28407 0.12956 0.35415 0.0
C615 C 0.24205 0.11829 0.59774 0.0
C616 C 0.91805 0.11806 0.59403 0.0
C617 C 0.89719 0.11213 0.50718 0.0
H618 H 0.95915 0.14705 0.66089 0.0
C619 C 0.90214 0.13318 0.42261 0.0
H620 H 0.91499 0.10259 0.66153 0.0
C621 C 0.92781 0.15904 0.42232 0.0
C622 C 0.94907 0.16437 0.50653 0.0
H623 H 0.88656 0.12941 0.35457 0.0
H624 H 0.93131 0.17447 0.35398 0.0
C625 C 0.94352 0.1437 0.59367 0.0
C626 C 0.94384 0.82001 0.59234 0.0
C627 C 0.94928 0.80442 0.50693 0.0
H628 H 0.9154 0.83296 0.65799 0.0
C629 C 0.92791 0.78802 0.42383 0.0
H630 H 0.95957 0.83268 0.65867 0.0
C631 C 0.90224 0.78819 0.42345 0.0
C632 C 0.8974 0.80476 0.50614 0.0
H633 H 0.93132 0.77573 0.35686 0.0
H634 H 0.88656 0.776 0.35623 0.0
C635 C 0.91837 0.82018 0.59193 0.0
C636 C 0.83333 0.5993 0.96324 0.0
C637 C 0.83816 0.58272 0.88059 0.0
H638 H 0.80424 0.61177 0.02979 0.0
C639 C 0.81719 0.56729 0.79482 0.0
H640 H 0.84901 0.6115 0.03044 0.0
C641 C 0.79171 0.56746 0.79441 0.0
C642 C 0.78627 0.58306 0.87977 0.0
H643 H 0.82016 0.55451 0.72879 0.0
H644 H 0.77598 0.55479 0.7281 0.0
C645 C 0.80765 0.59946 0.96285 0.0
C646 C 0.49336 0.26924 0.78787 0.0
C647 C 0.47869 0.27516 0.87632 0.0
H648 H 0.50546 0.24043 0.71943 0.0
C649 C 0.46305 0.25426 0.9625 0.0
H650 H 0.50541 0.28459 0.71916 0.0
C651 C 0.46308 0.22857 0.96267 0.0
C652 C 0.47875 0.22326 0.87666 0.0
H653 H 0.45146 0.25803 0.03185 0.0
H654 H 0.4515 0.21326 0.03213 0.0
C655 C 0.49339 0.24377 0.78804 0.0
C656 C 0.79257 0.24347 0.78832 0.0
C657 C 0.78665 0.22295 0.87668 0.0
H658 H 0.82135 0.28449 0.7203 0.0
C659 C 0.80754 0.22845 0.96305 0.0
H660 H 0.77724 0.23999 0.71945 0.0
C661 C 0.8332 0.25433 0.96353 0.0
C662 C 0.83849 0.27525 0.87767 0.0
H663 H 0.80376 0.21314 0.03235 0.0
H664 H 0.84849 0.25825 0.03315 0.0
C665 C 0.81801 0.26914 0.78882 0.0
C666 C 0.93953 0.49265 0.75766 0.0
C667 C 0.92337 0.49763 0.84233 0.0
H668 H 0.9515 0.46345 0.68864 0.0
C669 C 0.90813 0.47673 0.92879 0.0
H670 H 0.95158 0.50827 0.68988 0.0
C671 C 0.90806 0.4512 0.92801 0.0
C672 C 0.92327 0.44565 0.84086 0.0
H673 H 0.89565 0.47978 0.99632 0.0
H674 H 0.89555 0.43554 0.99497 0.0
C675 C 0.93949 0.46694 0.75698 0.0
C676 C 0.56908 0.46681 0.7556 0.0
C677 C 0.56399 0.44555 0.83929 0.0
H678 H 0.59833 0.5083 0.68913 0.0
C679 C 0.58463 0.45129 0.92689 0.0
H680 H 0.55365 0.46317 0.68698 0.0
C681 C 0.61004 0.477 0.92824 0.0
C682 C 0.61576 0.49789 0.84191 0.0
H683 H 0.58144 0.43566 0.99375 0.0
H684 H 0.6255 0.48021 0.99607 0.0
C685 C 0.59471 0.49271 0.75684 0.0
C686 C 0.59468 0.12158 0.75673 0.0
C687 C 0.61609 0.13802 0.83966 0.0
H688 H 0.55331 0.10951 0.6893 0.0
C689 C 0.61068 0.15367 0.92487 0.0
H690 H 0.59806 0.10923 0.6899 0.0
C691 C 0.58521 0.15384 0.92449 0.0
C692 C 0.5642 0.13837 0.8389 0.0
H693 H 0.62643 0.16637 0.99105 0.0
H694 H 0.58226 0.16666 0.99042 0.0
C695 C 0.56901 0.12175 0.75637 0.0
C696 C 0.49972 0.93245 0.29613 0.0
C697 C 0.50485 0.9163 0.21221 0.0
H698 H 0.47042 0.94461 0.36295 0.0
C699 C 0.48421 0.90139 0.12454 0.0
H700 H 0.51514 0.94424 0.36482 0.0
C701 C 0.45878 0.90163 0.12335 0.0
C702 C 0.45302 0.91677 0.20993 0.0
H703 H 0.48743 0.88896 0.0575 0.0
H704 H 0.44332 0.88936 0.05547 0.0
C705 C 0.47407 0.93266 0.29505 0.0
C706 C 0.16093 0.60297 0.12527 0.0
C707 C 0.14574 0.60854 0.21247 0.0
H708 H 0.17334 0.57439 0.05694 0.0
C709 C 0.12954 0.58725 0.29642 0.0
H710 H 0.17343 0.61862 0.05826 0.0
C711 C 0.1295 0.56154 0.29575 0.0
C712 C 0.14565 0.55655 0.21103 0.0
H713 H 0.11754 0.59076 0.36479 0.0
H714 H 0.11747 0.54594 0.36358 0.0
C715 C 0.16087 0.57745 0.12451 0.0
C716 C 0.48411 0.60275 0.12497 0.0
C717 C 0.50498 0.60869 0.21175 0.0
H718 H 0.44299 0.57373 0.0582 0.0
C719 C 0.50005 0.58764 0.29629 0.0
H720 H 0.48714 0.61821 0.0575 0.0
C721 C 0.4744 0.56176 0.29662 0.0
C722 C 0.45312 0.55642 0.21247 0.0
H723 H 0.51565 0.59142 0.36427 0.0
H724 H 0.47092 0.54634 0.36493 0.0
C725 C 0.45865 0.57709 0.12536 0.0
C726 C 0.60608 0.80033 0.08965 0.0
C727 C 0.58986 0.77905 0.1736 0.0
H728 H 0.61814 0.84163 1.02234 0.0
C729 C 0.57464 0.78461 0.26064 0.0
H730 H 0.6181 0.79683 1.0214 0.0
C731 C 0.57468 0.81012 0.26125 0.0
C732 C 0.58992 0.83101 0.17473 0.0
H733 H 0.56213 0.76896 0.32765 0.0
H734 H 0.56219 0.81318 0.3287 0.0
C735 C 0.6061 0.82603 0.09017 0.0
C736 C 0.27696 0.81052 0.26069 0.0
C737 C 0.28247 0.83119 0.17355 0.0
H738 H 0.24848 0.76941 0.32863 0.0
C739 C 0.26118 0.82583 0.08943 0.0
H740 H 0.29262 0.8139 0.32783 0.0
C741 C 0.23553 0.79995 0.08982 0.0
C742 C 0.23062 0.7789 0.17439 0.0
H743 H 0.26466 0.84125 1.0211 0.0
H744 H 0.21992 0.79616 1.02185 0.0
C745 C 0.2515 0.78486 0.26114 0.0
C746 C 0.26155 0.45498 0.09056 0.0
C747 C 0.28258 0.47087 0.17576 0.0
H748 H 0.22049 0.4434 1.02066 0.0
C749 C 0.2768 0.48599 0.26232 0.0
H750 H 0.26521 0.44304 1.02268 0.0
C751 C 0.25137 0.48623 0.26106 0.0
C752 C 0.23076 0.47133 0.17331 0.0
H753 H 0.29225 0.49825 0.33025 0.0
H754 H 0.24814 0.49865 0.32809 0.0
C755 C 0.2359 0.45519 0.08941 0.0
C756 C 0.0499 0.21197 0.09078 0.0
C757 C 0.0277 0.21354 0.14731 0.0
H758 H 0.07045 0.21397 0.92283 0.0
C759 C 1.00646 0.2134 0.07639 0.0
H760 H 0.06675 0.21251 0.14361 0.0
C761 C 1.00853 0.21419 0.95186 0.0
C762 C 0.03183 0.21505 0.89486 0.0
H763 H 0.98918 0.2147 0.11771 0.0
H764 H 0.9929 0.21624 0.90014 0.0
C765 C 0.05197 0.21274 0.96476 0.0
C766 C 0.84859 0.8134 0.07603 0.0
C767 C 0.84857 0.83449 0.14745 0.0
H768 H 0.84562 0.79701 0.89948 0.0
C769 C 0.85026 0.85826 0.09142 0.0
H770 H 0.84719 0.79482 0.11695 0.0
C771 C 0.84946 0.85957 0.96544 0.0
C772 C 0.84702 0.83713 0.89508 0.0
H773 H 0.84982 0.87457 0.14464 0.0
H774 H 0.84832 0.87682 0.92394 0.0
C775 C 0.84777 0.81468 0.95155 0.0
C776 C 0.21941 0.04481 0.0884 0.0
C777 C 0.22179 0.02475 0.15835 0.0
H778 H 0.21915 0.05956 0.9095 0.0
C779 C 0.221 1.00155 0.10146 0.0
H780 H 0.22059 0.0632 0.13026 0.0
C781 C 0.22022 0.99952 0.97695 0.0
C782 C 0.2203 0.02068 0.90595 0.0
H783 H 0.2231 0.98599 0.15324 0.0
H784 H 0.22158 0.98233 0.93569 0.0
C785 C 0.21865 0.04277 0.96239 0.0
C786 C 1.00878 0.81409 0.95275 0.0
C787 C 0.03205 0.83658 0.89589 0.0
H788 H 0.98947 0.79417 0.11845 0.0
C789 C 0.05215 0.85905 0.96596 0.0
H790 H 0.99318 0.79639 0.90088 0.0
C791 C 0.05008 0.85773 0.09199 0.0
C792 C 0.02793 0.83391 0.14833 0.0
H793 H 0.07061 0.87634 0.92413 0.0
H794 H 0.06691 0.87407 0.14492 0.0
C795 C 1.00672 0.81279 0.07728 0.0
C796 C 0.21931 0.1945 0.08733 0.0
C797 C 0.22173 0.21694 0.15765 0.0
H798 H 0.21899 0.1795 0.90817 0.0
C799 C 0.22095 0.23936 0.10115 0.0
H800 H 0.22048 0.17727 0.12887 0.0
C801 C 0.22014 0.24063 0.97666 0.0
C802 C 0.22018 0.21955 0.90528 0.0
H803 H 0.22308 0.25703 0.15321 0.0
H804 H 0.22151 0.25921 0.93573 0.0
C805 C 0.21852 0.1958 0.96134 0.0
C806 C 0.82206 1.00111 0.09926 0.0
C807 C 0.84455 0.02435 0.15587 0.0
H808 H 0.80215 0.98186 0.93378 0.0
C809 C 0.86704 0.04449 0.08557 0.0
H810 H 0.80434 0.98549 0.15132 0.0
C811 C 0.86574 0.04246 0.95956 0.0
C812 C 0.84191 0.02032 0.90348 0.0
H813 H 0.88432 0.06292 0.12721 0.0
H814 H 0.88209 0.0593 0.90646 0.0
C815 C 0.82078 0.99909 0.97476 0.0
C816 C 0.72885 0.57469 0.30924 0.0
C817 C 0.70762 0.55358 0.23822 0.0
H818 H 0.74241 0.5911 0.48559 0.0
C819 C 0.68546 0.52977 0.29462 0.0
H820 H 0.7461 0.59329 0.26802 0.0
C821 C 0.6834 0.52846 0.42064 0.0
C822 C 0.70352 0.55093 0.49067 0.0
H823 H 0.66862 0.51344 0.24171 0.0
H824 H 0.66494 0.51119 0.4625 0.0
C825 C 0.7268 0.5734 0.43376 0.0
C826 C 0.51538 0.14698 0.40903 0.0
C827 C 0.51532 0.16806 0.4804 0.0
H828 H 0.51245 0.13059 0.23251 0.0
C829 C 0.51698 0.19181 0.42433 0.0
H830 H 0.514 0.12841 0.44999 0.0
C831 C 0.5162 0.19311 0.29834 0.0
C832 C 0.5138 0.17068 0.22803 0.0
H833 H 0.51651 0.20811 0.47751 0.0
H834 H 0.51504 0.21034 0.25681 0.0
C835 C 0.51458 0.14825 0.28455 0.0
C836 C 0.91347 0.38632 0.28634 0.0
C837 C 0.89099 0.36305 0.22982 0.0
H838 H 0.93338 0.40561 0.45175 0.0
C839 C 0.86851 0.34292 0.30021 0.0
H840 H 0.93117 0.40194 0.23423 0.0
C841 C 0.86983 0.34497 0.42621 0.0
C842 C 0.89365 0.36713 0.48221 0.0
H843 H 0.85124 0.32447 0.25864 0.0
H844 H 0.8535 0.32813 0.47938 0.0
C845 C 0.91476 0.38836 0.41085 0.0
C846 C 0.67554 0.14759 0.28549 0.0
C847 C 0.69883 0.17007 0.22864 0.0
H848 H 0.65621 0.12769 0.45118 0.0
C849 C 0.71897 0.19251 0.29872 0.0
H850 H 0.65992 0.12991 0.23362 0.0
C851 C 0.7169 0.19119 0.42474 0.0
C852 C 0.69471 0.16739 0.48108 0.0
H853 H 0.73744 0.20978 0.25689 0.0
H854 H 0.73374 0.20751 0.47767 0.0
C855 C 0.67348 0.14629 0.41002 0.0
C856 C 0.88531 0.52924 0.29528 0.0
C857 C 0.88702 0.55302 0.23926 0.0
H858 H 0.88724 0.51068 0.46275 0.0
C859 C 0.88701 0.57411 0.31068 0.0
H860 H 0.88575 0.51293 0.24205 0.0
C861 C 0.88781 0.57282 0.43516 0.0
C862 C 0.88855 0.55037 0.49162 0.0
H863 H 0.88841 0.59269 0.26976 0.0
H864 H 0.88997 0.5905 0.48724 0.0
C865 C 0.8861 0.52793 0.42126 0.0
C866 C 0.51608 0.34274 0.29748 0.0
C867 C 0.51372 0.3628 0.22751 0.0
H868 H 0.51635 0.32799 0.47639 0.0
C869 C 0.51452 0.38601 0.28439 0.0
H870 H 0.5149 0.32434 0.25564 0.0
C871 C 0.51531 0.38805 0.4089 0.0
C872 C 0.51522 0.36688 0.47992 0.0
H873 H 0.51243 0.40157 0.2326 0.0
H874 H 0.51396 0.40525 0.45015 0.0
C875 C 0.51685 0.34478 0.42349 0.0
C876 C 0.38538 0.8796 0.63149 0.0
C877 C 0.36526 0.88193 0.56153 0.0
H878 H 0.40012 0.87934 0.81037 0.0
C879 C 0.34194 0.88107 0.61848 0.0
H880 H 0.40386 0.88083 0.5896 0.0
C881 C 0.33985 0.88025 0.743 0.0
C882 C 0.36107 0.88038 0.81398 0.0
H883 H 0.32633 0.88313 0.5667 0.0
H884 H 0.32256 0.88155 0.78426 0.0
C885 C 0.38328 0.87881 0.75751 0.0
C886 C 0.18207 0.48012 0.74266 0.0
C887 C 0.18203 0.50121 0.81404 0.0
H888 H 0.1791 0.46372 0.56614 0.0
C889 C 0.18369 0.52496 0.75797 0.0
H890 H 0.18069 0.46155 0.78361 0.0
C891 C 0.18289 0.52625 0.63199 0.0
C892 C 0.18046 0.50381 0.56167 0.0
H893 H 0.18323 0.54126 0.81116 0.0
H894 H 0.18172 0.54349 0.59046 0.0
C895 C 0.18124 0.48139 0.61818 0.0
C896 C 0.53641 0.67838 0.75931 0.0
C897 C 0.56024 0.70052 0.81538 0.0
H898 H 0.51783 0.65792 0.59169 0.0
C899 C 0.58137 0.72175 0.74409 0.0
H900 H 0.52007 0.66154 0.81243 0.0
C901 C 0.58009 0.71973 0.61958 0.0
C902 C 0.5576 0.69649 0.56299 0.0
H903 H 0.59999 0.73899 0.78506 0.0
H904 H 0.59781 0.73535 0.56752 0.0
C905 C 0.53511 0.67635 0.6333 0.0
C906 C 0.35021 0.50802 0.7544 0.0
C907 C 0.37034 0.5057 0.82433 0.0
H908 H 0.33546 0.50828 0.57554 0.0
C909 C 0.39366 0.50657 0.76736 0.0
H910 H 0.33173 0.50679 0.79632 0.0
C911 C 0.39574 0.50737 0.64283 0.0
C912 C 0.37451 0.50724 0.57188 0.0
H913 H 0.40928 0.50451 0.81911 0.0
H914 H 0.41302 0.50607 0.60155 0.0
C915 C 0.3523 0.50881 0.62838 0.0
C916 C 0.55268 0.86134 0.75349 0.0
C917 C 0.55513 0.88379 0.82384 0.0
H918 H 0.55231 0.84633 0.5743 0.0
C919 C 0.55438 0.90623 0.76737 0.0
H920 H 0.55382 0.84409 0.795 0.0
C921 C 0.55355 0.90751 0.64289 0.0
C922 C 0.55356 0.88641 0.57148 0.0
H923 H 0.55654 0.92391 0.81945 0.0
H924 H 0.55495 0.92609 0.60198 0.0
C925 C 0.55187 0.86264 0.62751 0.0
C926 C 0.19921 0.70923 0.62694 0.0
C927 C 0.17539 0.68708 0.57086 0.0
H928 H 0.21778 0.72969 0.79457 0.0
C929 C 0.15426 0.66584 0.64213 0.0
H930 H 0.21555 0.72607 0.57382 0.0
C931 C 0.15554 0.66786 0.76664 0.0
C932 C 0.17802 0.69111 0.82325 0.0
H933 H 0.13565 0.64859 0.60115 0.0
H934 H 0.13782 0.65223 0.81869 0.0
C935 C 0.20051 0.71125 0.75294 0.0
loop_
_geom_bond_atom_site_label_1
_geom_bond_atom_site_label_2
_geom_bond_distance
_geom_bond_site_symmetry_2
_ccdc_geom_bond_type
Fe0 O2 1.918 . S
Fe0 O5 1.997 . S
Fe0 O6 2.002 . S
Fe0 O11 1.976 . S
Fe0 O14 1.996 . S
Fe1 O2 1.918 . S
Fe1 O9 1.997 . S
Fe1 O12 1.996 . S
Fe1 O16 1.976 . S
Fe1 O19 2.002 1_455 S
O2 Fe0 1.918 . S
O2 Fe1 1.918 . S
O2 Fe3 1.918 1_455 S
Fe3 O2 1.918 1_655 S
Fe3 O4 2.002 . S
Fe3 O13 1.976 1_655 S
Fe3 O17 1.996 1_655 S
Fe3 O20 1.997 . S
O4 Fe3 2.002 . S
O4 C21 1.295 . S
O5 Fe0 1.997 . S
O5 C21 1.235 1_455 S
O6 Fe0 2.002 . S
O6 C7 1.295 . S
C7 O6 1.295 . S
C7 O9 1.235 . S
C8 O13 1.287 . S
C8 O14 1.255 . S
O9 Fe1 1.997 . S
O9 C7 1.235 . S
C10 O16 1.287 . S
C10 O17 1.255 . S
O11 Fe0 1.976 . S
O11 C18 1.287 . S
O12 Fe1 1.996 . S
O12 C18 1.255 . S
O13 Fe3 1.976 1_455 S
O13 C8 1.287 . S
O14 Fe0 1.996 . S
O14 C8 1.255 . S
C15 O19 1.295 . S
C15 O20 1.235 . S
O16 Fe1 1.976 . S
O16 C10 1.287 . S
O17 Fe3 1.996 1_455 S
O17 C10 1.255 . S
C18 O11 1.287 . S
C18 O12 1.255 . S
O19 Fe1 2.002 1_655 S
O19 C15 1.295 . S
O20 Fe3 1.997 . S
O20 C15 1.235 . S
C21 O4 1.295 . S
C21 O5 1.235 1_655 S
Fe22 O24 1.918 . S
Fe22 O27 1.997 . S
Fe22 O28 2.002 . S
Fe22 O33 1.976 . S
Fe22 O36 1.996 . S
Fe23 O24 1.918 . S
Fe23 O31 1.997 . S
Fe23 O34 1.996 . S
Fe23 O38 1.976 . S
Fe23 O41 2.002 . S
O24 Fe22 1.918 . S
O24 Fe23 1.918 . S
O24 Fe25 1.918 . S
Fe25 O24 1.918 . S
Fe25 O26 2.002 . S
Fe25 O35 1.976 . S
Fe25 O39 1.996 . S
Fe25 O42 1.997 . S
O26 Fe25 2.002 . S
O26 C43 1.295 . S
O27 Fe22 1.997 . S
O27 C43 1.235 . S
O28 Fe22 2.002 . S
O28 C29 1.295 . S
C29 O28 1.295 . S
C29 O31 1.235 . S
C30 O35 1.287 . S
C30 O36 1.255 . S
O31 Fe23 1.997 . S
O31 C29 1.235 . S
C32 O38 1.287 . S
C32 O39 1.255 . S
O33 Fe22 1.976 . S
O33 C40 1.287 . S
O34 Fe23 1.996 . S
O34 C40 1.255 . S
O35 Fe25 1.976 . S
O35 C30 1.287 . S
O36 Fe22 1.996 . S
O36 C30 1.255 . S
C37 O41 1.295 . S
C37 O42 1.235 . S
O38 Fe23 1.976 . S
O38 C32 1.287 . S
O39 Fe25 1.996 . S
O39 C32 1.255 . S
C40 O33 1.287 . S
C40 O34 1.255 . S
O41 Fe23 2.002 . S
O41 C37 1.295 . S
O42 Fe25 1.997 . S
O42 C37 1.235 . S
C43 O26 1.295 . S
C43 O27 1.235 . S
Fe44 O46 1.918 . S
Fe44 O49 1.997 . S
Fe44 O50 2.002 1_545 S
Fe44 O55 1.976 . S
Fe44 O58 1.996 . S
Fe45 O46 1.918 1_565 S
Fe45 O53 1.997 . S
Fe45 O56 1.996 1_565 S
Fe45 O60 1.976 1_565 S
Fe45 O63 2.002 . S
O46 Fe44 1.918 . S
O46 Fe45 1.918 1_545 S
O46 Fe47 1.918 . S
Fe47 O46 1.918 . S
Fe47 O48 2.002 . S
Fe47 O57 1.976 . S
Fe47 O61 1.996 . S
Fe47 O64 1.997 . S
O48 Fe47 2.002 . S
O48 C65 1.295 . S
O49 Fe44 1.997 . S
O49 C65 1.235 . S
O50 Fe44 2.002 1_565 S
O50 C51 1.295 . S
C51 O50 1.295 . S
C51 O53 1.235 . S
C52 O57 1.287 . S
C52 O58 1.255 . S
O53 Fe45 1.997 . S
O53 C51 1.235 . S
C54 O60 1.287 . S
C54 O61 1.255 . S
O55 Fe44 1.976 . S
O55 C62 1.287 . S
O56 Fe45 1.996 1_545 S
O56 C62 1.255 . S
O57 Fe47 1.976 . S
O57 C52 1.287 . S
O58 Fe44 1.996 . S
O58 C52 1.255 . S
C59 O63 1.295 . S
C59 O64 1.235 1_565 S
O60 Fe45 1.976 1_545 S
O60 C54 1.287 . S
O61 Fe47 1.996 . S
O61 C54 1.255 . S
C62 O55 1.287 . S
C62 O56 1.255 . S
O63 Fe45 2.002 . S
O63 C59 1.295 . S
O64 Fe47 1.997 . S
O64 C59 1.235 1_545 S
C65 O48 1.295 . S
C65 O49 1.235 . S
Fe66 O68 1.918 1_655 S
Fe66 O71 1.997 1_655 S
Fe66 O72 2.002 1_655 S
Fe66 O77 1.976 . S
Fe66 O80 1.996 . S
Fe67 O68 1.918 . S
Fe67 O75 1.997 . S
Fe67 O78 1.996 1_455 S
Fe67 O82 1.976 . S
Fe67 O85 2.002 . S
O68 Fe66 1.918 1_455 S
O68 Fe67 1.918 . S
O68 Fe69 1.918 . S
Fe69 O68 1.918 . S
Fe69 O70 2.002 . S
Fe69 O79 1.976 . S
Fe69 O83 1.996 . S
Fe69 O86 1.997 . S
O70 Fe69 2.002 . S
O70 C87 1.295 . S
O71 Fe66 1.997 1_455 S
O71 C87 1.235 . S
O72 Fe66 2.002 1_455 S
O72 C73 1.295 . S
C73 O72 1.295 . S
C73 O75 1.235 . S
C74 O79 1.287 1_655 S
C74 O80 1.255 . S
O75 Fe67 1.997 . S
O75 C73 1.235 . S
C76 O82 1.287 . S
C76 O83 1.255 . S
O77 Fe66 1.976 . S
O77 C84 1.287 . S
O78 Fe67 1.996 1_655 S
O78 C84 1.255 . S
O79 Fe69 1.976 . S
O79 C74 1.287 1_455 S
O80 Fe66 1.996 . S
O80 C74 1.255 . S
C81 O85 1.295 . S
C81 O86 1.235 . S
O82 Fe67 1.976 . S
O82 C76 1.287 . S
O83 Fe69 1.996 . S
O83 C76 1.255 . S
C84 O77 1.287 . S
C84 O78 1.255 . S
O85 Fe67 2.002 . S
O85 C81 1.295 . S
O86 Fe69 1.997 . S
O86 C81 1.235 . S
C87 O70 1.295 . S
C87 O71 1.235 . S
Fe88 O90 1.918 . S
Fe88 O93 1.997 . S
Fe88 O94 2.002 . S
Fe88 O99 1.976 . S
Fe88 O102 1.996 . S
Fe89 O90 1.918 . S
Fe89 O97 1.997 . S
Fe89 O100 1.996 . S
Fe89 O104 1.976 . S
Fe89 O107 2.002 . S
O90 Fe88 1.918 . S
O90 Fe89 1.918 . S
O90 Fe91 1.918 . S
Fe91 O90 1.918 . S
Fe91 O92 2.002 . S
Fe91 O101 1.976 . S
Fe91 O105 1.996 . S
Fe91 O108 1.997 . S
O92 Fe91 2.002 . S
O92 C109 1.295 . S
O93 Fe88 1.997 . S
O93 C109 1.235 . S
O94 Fe88 2.002 . S
O94 C95 1.295 . S
C95 O94 1.295 . S
C95 O97 1.235 . S
C96 O101 1.287 . S
C96 O102 1.255 . S
O97 Fe89 1.997 . S
O97 C95 1.235 . S
C98 O104 1.287 . S
C98 O105 1.255 . S
O99 Fe88 1.976 . S
O99 C106 1.287 . S
O100 Fe89 1.996 . S
O100 C106 1.255 . S
O101 Fe91 1.976 . S
O101 C96 1.287 . S
O102 Fe88 1.996 . S
O102 C96 1.255 . S
C103 O107 1.295 . S
C103 O108 1.235 . S
O104 Fe89 1.976 . S
O104 C98 1.287 . S
O105 Fe91 1.996 . S
O105 C98 1.255 . S
C106 O99 1.287 . S
C106 O100 1.255 . S
O107 Fe89 2.002 . S
O107 C103 1.295 . S
O108 Fe91 1.997 . S
O108 C103 1.235 . S
C109 O92 1.295 . S
C109 O93 1.235 . S
Fe110 O112 1.918 1_565 S
Fe110 O115 1.997 1_565 S
Fe110 O116 2.002 1_565 S
Fe110 O121 1.976 . S
Fe110 O124 1.996 . S
Fe111 O112 1.918 . S
Fe111 O119 1.997 . S
Fe111 O122 1.996 1_545 S
Fe111 O126 1.976 . S
Fe111 O129 2.002 . S
O112 Fe110 1.918 1_545 S
O112 Fe111 1.918 . S
O112 Fe113 1.918 . S
Fe113 O112 1.918 . S
Fe113 O114 2.002 . S
Fe113 O123 1.976 . S
Fe113 O127 1.996 . S
Fe113 O130 1.997 . S
O114 Fe113 2.002 . S
O114 C131 1.295 . S
O115 Fe110 1.997 1_545 S
O115 C131 1.235 . S
O116 Fe110 2.002 1_545 S
O116 C117 1.295 . S
C117 O116 1.295 . S
C117 O119 1.235 . S
C118 O123 1.287 1_565 S
C118 O124 1.255 . S
O119 Fe111 1.997 . S
O119 C117 1.235 . S
C120 O126 1.287 . S
C120 O127 1.255 . S
O121 Fe110 1.976 . S
O121 C128 1.287 . S
O122 Fe111 1.996 1_565 S
O122 C128 1.255 . S
O123 Fe113 1.976 . S
O123 C118 1.287 1_545 S
O124 Fe110 1.996 . S
O124 C118 1.255 . S
C125 O129 1.295 . S
C125 O130 1.235 . S
O126 Fe111 1.976 . S
O126 C120 1.287 . S
O127 Fe113 1.996 . S
O127 C120 1.255 . S
C128 O121 1.287 . S
C128 O122 1.255 . S
O129 Fe111 2.002 . S
O129 C125 1.295 . S
O130 Fe113 1.997 . S
O130 C125 1.235 . S
C131 O114 1.295 . S
C131 O115 1.235 . S
Fe132 O134 1.918 . S
Fe132 O137 1.997 . S
Fe132 O138 2.002 . S
Fe132 O143 1.976 . S
Fe132 O146 1.996 . S
Fe133 O134 1.918 . S
Fe133 O141 1.997 . S
Fe133 O144 1.996 . S
Fe133 O148 1.976 . S
Fe133 O151 2.002 1_556 S
O134 Fe132 1.918 . S
O134 Fe133 1.918 . S
O134 Fe135 1.918 . S
Fe135 O134 1.918 . S
Fe135 O136 2.002 . S
Fe135 O145 1.976 . S
Fe135 O149 1.996 . S
Fe135 O152 1.997 . S
O136 Fe135 2.002 . S
O136 C153 1.295 . S
O137 Fe132 1.997 . S
O137 C153 1.235 . S
O138 Fe132 2.002 . S
O138 C139 1.295 . S
C139 O138 1.295 . S
C139 O141 1.235 . S
C140 O145 1.287 . S
C140 O146 1.255 . S
O141 Fe133 1.997 . S
O141 C139 1.235 . S
C142 O148 1.287 . S
C142 O149 1.255 . S
O143 Fe132 1.976 . S
O143 C150 1.287 . S
O144 Fe133 1.996 . S
O144 C150 1.255 . S
O145 Fe135 1.976 . S
O145 C140 1.287 . S
O146 Fe132 1.996 . S
O146 C140 1.255 . S
C147 O151 1.295 . S
C147 O152 1.235 1_554 S
O148 Fe133 1.976 . S
O148 C142 1.287 . S
O149 Fe135 1.996 . S
O149 C142 1.255 . S
C150 O143 1.287 . S
C150 O144 1.255 . S
O151 Fe133 2.002 1_554 S
O151 C147 1.295 . S
O152 Fe135 1.997 . S
O152 C147 1.235 1_556 S
C153 O136 1.295 . S
C153 O137 1.235 . S
Fe154 O156 1.918 . S
Fe154 O159 1.997 . S
Fe154 O160 2.002 . S
Fe154 O165 1.976 . S
Fe154 O168 1.996 . S
Fe155 O156 1.918 . S
Fe155 O163 1.997 . S
Fe155 O166 1.996 . S
Fe155 O170 1.976 . S
Fe155 O173 2.002 1_556 S
O156 Fe154 1.918 . S
O156 Fe155 1.918 . S
O156 Fe157 1.918 . S
Fe157 O156 1.918 . S
Fe157 O158 2.002 . S
Fe157 O167 1.976 . S
Fe157 O171 1.996 . S
Fe157 O174 1.997 . S
O158 Fe157 2.002 . S
O158 C175 1.295 . S
O159 Fe154 1.997 . S
O159 C175 1.235 . S
O160 Fe154 2.002 . S
O160 C161 1.295 . S
C161 O160 1.295 . S
C161 O163 1.235 . S
C162 O167 1.287 . S
C162 O168 1.255 . S
O163 Fe155 1.997 . S
O163 C161 1.235 . S
C164 O170 1.287 . S
C164 O171 1.255 . S
O165 Fe154 1.976 . S
O165 C172 1.287 . S
O166 Fe155 1.996 . S
O166 C172 1.255 . S
O167 Fe157 1.976 . S
O167 C162 1.287 . S
O168 Fe154 1.996 . S
O168 C162 1.255 . S
C169 O173 1.295 . S
C169 O174 1.235 1_554 S
O170 Fe155 1.976 . S
O170 C164 1.287 . S
O171 Fe157 1.996 . S
O171 C164 1.255 . S
C172 O165 1.287 . S
C172 O166 1.255 . S
O173 Fe155 2.002 1_554 S
O173 C169 1.295 . S
O174 Fe157 1.997 . S
O174 C169 1.235 1_556 S
C175 O158 1.295 . S
C175 O159 1.235 . S
Fe176 O178 1.918 . S
Fe176 O181 1.997 . S
Fe176 O182 2.002 1_556 S
Fe176 O187 1.976 . S
Fe176 O190 1.996 . S
Fe177 O178 1.918 . S
Fe177 O185 2.005 . S
Fe177 O188 1.996 . S
Fe177 O192 1.976 . S
Fe177 O195 2.002 . S
O178 Fe176 1.918 . S
O178 Fe177 1.918 . S
O178 Fe179 1.918 . S
Fe179 O178 1.918 . S
Fe179 O180 2.002 . S
Fe179 O189 1.976 . S
Fe179 O193 1.996 . S
Fe179 O196 1.997 . S
O180 Fe179 2.002 . S
O180 C197 1.295 . S
O181 Fe176 1.997 . S
O181 C197 1.235 . S
O182 Fe176 2.002 1_554 S
O182 C183 1.295 . S
C183 O182 1.295 . S
C183 O185 1.229 1_554 S
C184 O189 1.287 . S
C184 O190 1.255 . S
O185 Fe177 2.005 . S
O185 C183 1.229 1_556 S
C186 O192 1.287 . S
C186 O193 1.255 . S
O187 Fe176 1.976 . S
O187 C194 1.287 . S
O188 Fe177 1.996 . S
O188 C194 1.255 . S
O189 Fe179 1.976 . S
O189 C184 1.287 . S
O190 Fe176 1.996 . S
O190 C184 1.255 . S
C191 O195 1.295 . S
C191 O196 1.235 . S
O192 Fe177 1.976 . S
O192 C186 1.287 . S
O193 Fe179 1.996 . S
O193 C186 1.255 . S
C194 O187 1.287 . S
C194 O188 1.255 . S
O195 Fe177 2.002 . S
O195 C191 1.295 . S
O196 Fe179 1.997 . S
O196 C191 1.235 . S
C197 O180 1.295 . S
C197 O181 1.235 . S
Fe198 O200 1.918 . S
Fe198 O203 1.997 . S
Fe198 O204 2.002 1_556 S
Fe198 O209 1.976 . S
Fe198 O212 1.996 . S
Fe199 O200 1.918 . S
Fe199 O207 2.005 . S
Fe199 O210 1.996 . S
Fe199 O214 1.976 . S
Fe199 O217 2.002 . S
O200 Fe198 1.918 . S
O200 Fe199 1.918 . S
O200 Fe201 1.918 . S
Fe201 O200 1.918 . S
Fe201 O202 2.002 . S
Fe201 O211 1.976 . S
Fe201 O215 1.996 . S
Fe201 O218 1.997 . S
O202 Fe201 2.002 . S
O202 C219 1.295 . S
O203 Fe198 1.997 . S
O203 C219 1.235 . S
O204 Fe198 2.002 1_554 S
O204 C205 1.295 . S
C205 O204 1.295 . S
C205 O207 1.229 1_554 S
C206 O211 1.287 . S
C206 O212 1.255 . S
O207 Fe199 2.005 . S
O207 C205 1.229 1_556 S
C208 O214 1.287 . S
C208 O215 1.255 . S
O209 Fe198 1.976 . S
O209 C216 1.287 . S
O210 Fe199 1.996 . S
O210 C216 1.255 . S
O211 Fe201 1.976 . S
O211 C206 1.287 . S
O212 Fe198 1.996 . S
O212 C206 1.255 . S
C213 O217 1.295 . S
C213 O218 1.235 . S
O214 Fe199 1.976 . S
O214 C208 1.287 . S
O215 Fe201 1.996 . S
O215 C208 1.255 . S
C216 O209 1.287 . S
C216 O210 1.255 . S
O217 Fe199 2.002 . S
O217 C213 1.295 . S
O218 Fe201 1.997 . S
O218 C213 1.235 . S
C219 O202 1.295 . S
C219 O203 1.235 . S
Fe220 O222 1.918 . S
Fe220 O225 1.997 . S
Fe220 O226 2.002 1_556 S
Fe220 O231 1.976 . S
Fe220 O234 1.996 . S
Fe221 O222 1.918 . S
Fe221 O229 2.006 . S
Fe221 O232 1.996 . S
Fe221 O236 1.976 . S
Fe221 O239 2.002 . S
O222 Fe220 1.918 . S
O222 Fe221 1.918 . S
O222 Fe223 1.918 . S
Fe223 O222 1.918 . S
Fe223 O224 2.002 . S
Fe223 O233 1.976 . S
Fe223 O237 1.996 . S
Fe223 O240 1.997 . S
O224 Fe223 2.002 . S
O224 C241 1.295 . S
O225 Fe220 1.997 . S
O225 C241 1.235 . S
O226 Fe220 2.002 1_554 S
O226 C227 1.295 . S
C227 O226 1.295 . S
C227 O229 1.228 1_554 S
C228 O233 1.287 . S
C228 O234 1.255 . S
O229 Fe221 2.006 . S
O229 C227 1.228 1_556 S
C230 O236 1.287 . S
C230 O237 1.255 . S
O231 Fe220 1.976 . S
O231 C238 1.287 . S
O232 Fe221 1.996 . S
O232 C238 1.255 . S
O233 Fe223 1.976 . S
O233 C228 1.287 . S
O234 Fe220 1.996 . S
O234 C228 1.255 . S
C235 O239 1.295 . S
C235 O240 1.235 . S
O236 Fe221 1.976 . S
O236 C230 1.287 . S
O237 Fe223 1.996 . S
O237 C230 1.255 . S
C238 O231 1.287 . S
C238 O232 1.255 . S
O239 Fe221 2.002 . S
O239 C235 1.295 . S
O240 Fe223 1.997 . S
O240 C235 1.235 . S
C241 O224 1.295 . S
C241 O225 1.235 . S
Fe242 O244 1.918 . S
Fe242 O247 1.997 . S
Fe242 O248 2.002 1_556 S
Fe242 O253 1.976 . S
Fe242 O256 1.996 . S
Fe243 O244 1.918 . S
Fe243 O251 1.997 . S
Fe243 O254 1.996 . S
Fe243 O258 1.976 . S
Fe243 O261 2.002 . S
O244 Fe242 1.918 . S
O244 Fe243 1.918 . S
O244 Fe245 1.918 . S
Fe245 O244 1.918 . S
Fe245 O246 2.002 . S
Fe245 O255 1.976 . S
Fe245 O259 1.996 . S
Fe245 O262 1.997 . S
O246 Fe245 2.002 . S
O246 C263 1.295 . S
O247 Fe242 1.997 . S
O247 C263 1.235 . S
O248 Fe242 2.002 1_554 S
O248 C249 1.295 . S
C249 O248 1.295 . S
C249 O251 1.235 1_554 S
C250 O255 1.287 . S
C250 O256 1.255 . S
O251 Fe243 1.997 . S
O251 C249 1.235 1_556 S
C252 O258 1.287 . S
C252 O259 1.255 . S
O253 Fe242 1.976 . S
O253 C260 1.287 . S
O254 Fe243 1.996 . S
O254 C260 1.255 . S
O255 Fe245 1.976 . S
O255 C250 1.287 . S
O256 Fe242 1.996 . S
O256 C250 1.255 . S
C257 O261 1.295 . S
C257 O262 1.235 . S
O258 Fe243 1.976 . S
O258 C252 1.287 . S
O259 Fe245 1.996 . S
O259 C252 1.255 . S
C260 O253 1.287 . S
C260 O254 1.255 . S
O261 Fe243 2.002 . S
O261 C257 1.295 . S
O262 Fe245 1.997 . S
O262 C257 1.235 . S
C263 O246 1.295 . S
C263 O247 1.235 . S
Fe264 O266 1.918 . S
Fe264 O269 1.997 . S
Fe264 O270 2.002 . S
Fe264 O275 1.976 1_554 S
Fe264 O278 1.996 . S
Fe265 O266 1.918 . S
Fe265 O273 1.997 . S
Fe265 O276 1.996 1_554 S
Fe265 O280 1.976 . S
Fe265 O283 2.002 . S
O266 Fe264 1.918 . S
O266 Fe265 1.918 . S
O266 Fe267 1.918 . S
Fe267 O266 1.918 . S
Fe267 O268 2.002 . S
Fe267 O277 1.976 . S
Fe267 O281 1.996 . S
Fe267 O284 1.997 . S
O268 Fe267 2.002 . S
O268 C285 1.295 . S
O269 Fe264 1.997 . S
O269 C285 1.235 . S
O270 Fe264 2.002 . S
O270 C271 1.295 . S
C271 O270 1.295 . S
C271 O273 1.235 . S
C272 O277 1.287 . S
C272 O278 1.255 . S
O273 Fe265 1.997 . S
O273 C271 1.235 . S
C274 O280 1.287 . S
C274 O281 1.255 . S
O275 Fe264 1.976 1_556 S
O275 C282 1.287 . S
O276 Fe265 1.996 1_556 S
O276 C282 1.255 . S
O277 Fe267 1.976 . S
O277 C272 1.287 . S
O278 Fe264 1.996 . S
O278 C272 1.255 . S
C279 O283 1.295 . S
C279 O284 1.235 . S
O280 Fe265 1.976 . S
O280 C274 1.287 . S
O281 Fe267 1.996 . S
O281 C274 1.255 . S
C282 O275 1.287 . S
C282 O276 1.255 . S
O283 Fe265 2.002 . S
O283 C279 1.295 . S
O284 Fe267 1.997 . S
O284 C279 1.235 . S
C285 O268 1.295 . S
C285 O269 1.235 . S
Fe286 O288 1.918 . S
Fe286 O291 1.997 . S
Fe286 O292 2.002 . S
Fe286 O297 1.976 . S
Fe286 O300 1.996 1_554 S
Fe287 O288 1.918 . S
Fe287 O295 1.997 . S
Fe287 O298 1.996 . S
Fe287 O302 1.976 . S
Fe287 O305 2.002 . S
O288 Fe286 1.918 . S
O288 Fe287 1.918 . S
O288 Fe289 1.918 . S
Fe289 O288 1.918 . S
Fe289 O290 2.002 . S
Fe289 O299 1.976 1_554 S
Fe289 O303 1.996 . S
Fe289 O306 1.997 . S
O290 Fe289 2.002 . S
O290 C307 1.295 . S
O291 Fe286 1.997 . S
O291 C307 1.235 . S
O292 Fe286 2.002 . S
O292 C293 1.295 . S
C293 O292 1.295 . S
C293 O295 1.235 . S
C294 O299 1.287 . S
C294 O300 1.255 . S
O295 Fe287 1.997 . S
O295 C293 1.235 . S
C296 O302 1.287 . S
C296 O303 1.255 . S
O297 Fe286 1.976 . S
O297 C304 1.287 . S
O298 Fe287 1.996 . S
O298 C304 1.255 . S
O299 Fe289 1.976 1_556 S
O299 C294 1.287 . S
O300 Fe286 1.996 1_556 S
O300 C294 1.255 . S
C301 O305 1.295 . S
C301 O306 1.235 . S
O302 Fe287 1.976 . S
O302 C296 1.287 . S
O303 Fe289 1.996 . S
O303 C296 1.255 . S
C304 O297 1.287 . S
C304 O298 1.255 . S
O305 Fe287 2.002 . S
O305 C301 1.295 . S
O306 Fe289 1.997 . S
O306 C301 1.235 . S
C307 O290 1.295 . S
C307 O291 1.235 . S
Fe308 O310 1.918 . S
Fe308 O313 1.997 . S
Fe308 O314 2.002 1_554 S
Fe308 O319 1.976 . S
Fe308 O322 1.996 . S
Fe309 O310 1.918 . S
Fe309 O317 1.997 . S
Fe309 O320 1.996 . S
Fe309 O324 1.976 . S
Fe309 O327 2.002 . S
O310 Fe308 1.918 . S
O310 Fe309 1.918 . S
O310 Fe311 1.918 . S
Fe311 O310 1.918 . S
Fe311 O312 2.002 . S
Fe311 O321 1.976 . S
Fe311 O325 1.996 . S
Fe311 O328 1.997 . S
O312 Fe311 2.002 . S
O312 C329 1.295 . S
O313 Fe308 1.997 . S
O313 C329 1.235 . S
O314 Fe308 2.002 1_556 S
O314 C315 1.295 . S
C315 O314 1.295 . S
C315 O317 1.235 1_556 S
C316 O321 1.287 . S
C316 O322 1.255 . S
O317 Fe309 1.997 . S
O317 C315 1.235 1_554 S
C318 O324 1.287 . S
C318 O325 1.255 . S
O319 Fe308 1.976 . S
O319 C326 1.287 . S
O320 Fe309 1.996 . S
O320 C326 1.255 . S
O321 Fe311 1.976 . S
O321 C316 1.287 . S
O322 Fe308 1.996 . S
O322 C316 1.255 . S
C323 O327 1.295 . S
C323 O328 1.235 . S
O324 Fe309 1.976 . S
O324 C318 1.287 . S
O325 Fe311 1.996 . S
O325 C318 1.255 . S
C326 O319 1.287 . S
C326 O320 1.255 . S
O327 Fe309 2.002 . S
O327 C323 1.295 . S
O328 Fe311 1.997 . S
O328 C323 1.235 . S
C329 O312 1.295 . S
C329 O313 1.235 . S
Fe330 O332 1.918 . S
Fe330 O335 1.997 . S
Fe330 O336 2.002 1_554 S
Fe330 O341 1.976 . S
Fe330 O344 1.996 . S
Fe331 O332 1.918 . S
Fe331 O339 1.997 . S
Fe331 O342 1.996 . S
Fe331 O346 1.976 . S
Fe331 O349 2.002 . S
O332 Fe330 1.918 . S
O332 Fe331 1.918 . S
O332 Fe333 1.918 . S
Fe333 O332 1.918 . S
Fe333 O334 2.002 . S
Fe333 O343 1.976 . S
Fe333 O347 1.996 . S
Fe333 O350 1.997 . S
O334 Fe333 2.002 . S
O334 C351 1.295 . S
O335 Fe330 1.997 . S
O335 C351 1.235 . S
O336 Fe330 2.002 1_556 S
O336 C337 1.295 . S
C337 O336 1.295 . S
C337 O339 1.235 1_556 S
C338 O343 1.287 . S
C338 O344 1.255 . S
O339 Fe331 1.997 . S
O339 C337 1.235 1_554 S
C340 O346 1.287 . S
C340 O347 1.255 . S
O341 Fe330 1.976 . S
O341 C348 1.287 . S
O342 Fe331 1.996 . S
O342 C348 1.255 . S
O343 Fe333 1.976 . S
O343 C338 1.287 . S
O344 Fe330 1.996 . S
O344 C338 1.255 . S
C345 O349 1.295 . S
C345 O350 1.235 . S
O346 Fe331 1.976 . S
O346 C340 1.287 . S
O347 Fe333 1.996 . S
O347 C340 1.255 . S
C348 O341 1.287 . S
C348 O342 1.255 . S
O349 Fe331 2.002 . S
O349 C345 1.295 . S
O350 Fe333 1.997 . S
O350 C345 1.235 . S
C351 O334 1.295 . S
C351 O335 1.235 . S
Fe352 O354 1.918 . S
Fe352 O357 1.997 . S
Fe352 O358 2.002 . S
Fe352 O363 1.976 . S
Fe352 O366 1.996 . S
Fe353 O354 1.918 . S
Fe353 O361 1.997 . S
Fe353 O364 1.996 . S
Fe353 O368 1.976 . S
Fe353 O371 2.002 . S
O354 Fe352 1.918 . S
O354 Fe353 1.918 . S
O354 Fe355 1.918 . S
Fe355 O354 1.918 . S
Fe355 O356 2.002 1_554 S
Fe355 O365 1.976 . S
Fe355 O369 1.996 . S
Fe355 O372 1.997 . S
O356 Fe355 2.002 1_556 S
O356 C373 1.295 . S
O357 Fe352 1.997 . S
O357 C373 1.235 1_554 S
O358 Fe352 2.002 . S
O358 C359 1.295 . S
C359 O358 1.295 . S
C359 O361 1.235 . S
C360 O365 1.287 . S
C360 O366 1.255 . S
O361 Fe353 1.997 . S
O361 C359 1.235 . S
C362 O368 1.287 . S
C362 O369 1.255 . S
O363 Fe352 1.976 . S
O363 C370 1.287 . S
O364 Fe353 1.996 . S
O364 C370 1.255 . S
O365 Fe355 1.976 . S
O365 C360 1.287 . S
O366 Fe352 1.996 . S
O366 C360 1.255 . S
C367 O371 1.295 . S
C367 O372 1.235 . S
O368 Fe353 1.976 . S
O368 C362 1.287 . S
O369 Fe355 1.996 . S
O369 C362 1.255 . S
C370 O363 1.287 . S
C370 O364 1.255 . S
O371 Fe353 2.002 . S
O371 C367 1.295 . S
O372 Fe355 1.997 . S
O372 C367 1.235 . S
C373 O356 1.295 . S
C373 O357 1.235 1_556 S
Fe374 O376 1.918 . S
Fe374 O379 1.997 . S
Fe374 O380 2.002 . S
Fe374 O385 1.976 . S
Fe374 O388 1.996 . S
Fe375 O376 1.918 . S
Fe375 O383 1.997 . S
Fe375 O386 1.996 . S
Fe375 O390 1.976 1_554 S
Fe375 O393 2.002 . S
O376 Fe374 1.918 . S
O376 Fe375 1.918 . S
O376 Fe377 1.918 . S
Fe377 O376 1.918 . S
Fe377 O378 2.002 . S
Fe377 O387 1.976 . S
Fe377 O391 1.996 1_554 S
Fe377 O394 1.997 . S
O378 Fe377 2.002 . S
O378 C395 1.295 . S
O379 Fe374 1.997 . S
O379 C395 1.235 . S
O380 Fe374 2.002 . S
O380 C381 1.295 . S
C381 O380 1.295 . S
C381 O383 1.235 . S
C382 O387 1.287 . S
C382 O388 1.255 . S
O383 Fe375 1.997 . S
O383 C381 1.235 . S
C384 O390 1.287 . S
C384 O391 1.255 . S
O385 Fe374 1.976 . S
O385 C392 1.287 . S
O386 Fe375 1.996 . S
O386 C392 1.255 . S
O387 Fe377 1.976 . S
O387 C382 1.287 . S
O388 Fe374 1.996 . S
O388 C382 1.255 . S
C389 O393 1.295 . S
C389 O394 1.235 . S
O390 Fe375 1.976 1_556 S
O390 C384 1.287 . S
O391 Fe377 1.996 1_556 S
O391 C384 1.255 . S
C392 O385 1.287 . S
C392 O386 1.255 . S
O393 Fe375 2.002 . S
O393 C389 1.295 . S
O394 Fe377 1.997 . S
O394 C389 1.235 . S
C395 O378 1.295 . S
C395 O379 1.235 . S
C396 C397 1.387 . S
C396 H400 0.950 . S
C396 C405 1.390 . S
C397 C396 1.387 . S
C397 C399 1.387 . S
H398 C405 0.950 . S
C399 C397 1.387 . S
C399 C401 1.390 . S
C399 H403 0.950 . S
H400 C396 0.950 . S
C401 C399 1.390 . S
C401 C402 1.387 . S
C401 H404 0.950 . S
C402 C401 1.387 . S
C402 C405 1.387 . S
H403 C399 0.950 . S
H404 C401 0.950 . S
C405 C396 1.390 . S
C405 H398 0.950 . S
C405 C402 1.387 . S
C406 C407 1.387 . S
C406 H410 0.950 . S
C406 C415 1.390 . S
C407 C406 1.387 . S
C407 C409 1.387 . S
H408 C415 0.950 . S
C409 C407 1.387 . S
C409 C411 1.390 . S
C409 H413 0.950 . S
H410 C406 0.950 . S
C411 C409 1.390 . S
C411 C412 1.387 . S
C411 H414 0.950 . S
C412 C411 1.387 . S
C412 C415 1.387 . S
H413 C409 0.950 . S
H414 C411 0.950 . S
C415 C406 1.390 . S
C415 H408 0.950 . S
C415 C412 1.387 . S
C416 C417 1.387 . S
C416 H420 0.950 . S
C416 C425 1.390 . S
C417 C416 1.387 . S
C417 C419 1.387 . S
H418 C425 0.950 . S
C419 C417 1.387 . S
C419 C421 1.390 . S
C419 H423 0.950 . S
H420 C416 0.950 . S
C421 C419 1.390 . S
C421 C422 1.387 . S
C421 H424 0.950 . S
C422 C421 1.387 . S
C422 C425 1.387 . S
H423 C419 0.950 . S
H424 C421 0.950 . S
C425 C416 1.390 . S
C425 H418 0.950 . S
C425 C422 1.387 . S
C426 C427 1.387 . S
C426 H430 0.950 . S
C426 C435 1.390 . S
C427 C426 1.387 . S
C427 C429 1.387 . S
H428 C435 0.950 . S
C429 C427 1.387 . S
C429 C431 1.390 . S
C429 H433 0.950 . S
H430 C426 0.950 . S
C431 C429 1.390 . S
C431 C432 1.387 . S
C431 H434 0.950 . S
C432 C431 1.387 . S
C432 C435 1.387 . S
H433 C429 0.950 . S
H434 C431 0.950 . S
C435 C426 1.390 . S
C435 H428 0.950 . S
C435 C432 1.387 . S
C436 C437 1.387 . S
C436 H440 0.950 . S
C436 C445 1.390 . S
C437 C436 1.387 . S
C437 C439 1.387 . S
H438 C445 0.950 . S
C439 C437 1.387 . S
C439 C441 1.390 . S
C439 H443 0.950 . S
H440 C436 0.950 . S
C441 C439 1.390 . S
C441 C442 1.387 . S
C441 H444 0.950 . S
C442 C441 1.387 . S
C442 C445 1.387 . S
H443 C439 0.950 . S
H444 C441 0.950 . S
C445 C436 1.390 . S
C445 H438 0.950 . S
C445 C442 1.387 . S
C446 C447 1.387 . S
C446 H450 0.950 . S
C446 C455 1.390 . S
C447 C446 1.387 . S
C447 C449 1.387 . S
H448 C455 0.950 . S
C449 C447 1.387 . S
C449 C451 1.390 . S
C449 H453 0.950 . S
H450 C446 0.950 . S
C451 C449 1.390 . S
C451 C452 1.387 . S
C451 H454 0.950 . S
C452 C451 1.387 . S
C452 C455 1.387 . S
H453 C449 0.950 . S
H454 C451 0.950 . S
C455 C446 1.390 . S
C455 H448 0.950 . S
C455 C452 1.387 . S
C456 C457 1.387 . S
C456 H460 0.950 . S
C456 C465 1.390 . S
C457 C456 1.387 . S
C457 C459 1.387 . S
H458 C465 0.950 . S
C459 C457 1.387 . S
C459 C461 1.390 . S
C459 H463 0.950 1_655 S
H460 C456 0.950 . S
C461 C459 1.390 . S
C461 C462 1.387 . S
C461 H464 0.950 . S
C462 C461 1.387 . S
C462 C465 1.387 . S
H463 C459 0.950 1_455 S
H464 C461 0.950 . S
C465 C456 1.390 . S
C465 H458 0.950 . S
C465 C462 1.387 . S
C466 C467 1.387 . S
C466 H470 0.950 . S
C466 C475 1.390 . S
C467 C466 1.387 . S
C467 C469 1.387 . S
H468 C475 0.950 . S
C469 C467 1.387 . S
C469 C471 1.390 . S
C469 H473 0.950 . S
H470 C466 0.950 . S
C471 C469 1.390 . S
C471 C472 1.387 . S
C471 H474 0.950 . S
C472 C471 1.387 . S
C472 C475 1.387 . S
H473 C469 0.950 . S
H474 C471 0.950 . S
C475 C466 1.390 . S
C475 H468 0.950 . S
C475 C472 1.387 . S
C476 C477 1.387 . S
C476 H480 0.950 . S
C476 C485 1.390 . S
C477 C476 1.387 . S
C477 C479 1.387 . S
H478 C485 0.950 . S
C479 C477 1.387 . S
C479 C481 1.390 . S
C479 H483 0.950 . S
H480 C476 0.950 . S
C481 C479 1.390 . S
C481 C482 1.387 . S
C481 H484 0.950 . S
C482 C481 1.387 . S
C482 C485 1.387 . S
H483 C479 0.950 . S
H484 C481 0.950 . S
C485 C476 1.390 . S
C485 H478 0.950 . S
C485 C482 1.387 . S
C486 C487 1.387 . S
C486 H490 0.950 . S
C486 C495 1.390 . S
C487 C486 1.387 . S
C487 C489 1.387 . S
H488 C495 0.950 . S
C489 C487 1.387 . S
C489 C491 1.390 . S
C489 H493 0.950 . S
H490 C486 0.950 . S
C491 C489 1.390 . S
C491 C492 1.387 . S
C491 H494 0.950 . S
C492 C491 1.387 . S
C492 C495 1.387 . S
H493 C489 0.950 . S
H494 C491 0.950 . S
C495 C486 1.390 . S
C495 H488 0.950 . S
C495 C492 1.387 . S
C496 C497 1.387 . S
C496 H500 0.950 . S
C496 C505 1.390 . S
C497 C496 1.387 . S
C497 C499 1.387 . S
H498 C505 0.950 . S
C499 C497 1.387 . S
C499 C501 1.390 . S
C499 H503 0.950 . S
H500 C496 0.950 . S
C501 C499 1.390 . S
C501 C502 1.387 . S
C501 H504 0.950 . S
C502 C501 1.387 . S
C502 C505 1.387 . S
H503 C499 0.950 . S
H504 C501 0.950 . S
C505 C496 1.390 . S
C505 H498 0.950 . S
C505 C502 1.387 . S
C506 C507 1.387 . S
C506 H510 0.950 . S
C506 C515 1.390 . S
C507 C506 1.387 . S
C507 C509 1.387 . S
H508 C515 0.950 . S
C509 C507 1.387 . S
C509 C511 1.390 . S
C509 H513 0.950 . S
H510 C506 0.950 . S
C511 C509 1.390 . S
C511 C512 1.387 . S
C511 H514 0.950 . S
C512 C511 1.387 . S
C512 C515 1.387 . S
H513 C509 0.950 . S
H514 C511 0.950 . S
C515 C506 1.390 . S
C515 H508 0.950 . S
C515 C512 1.387 . S
C516 C517 1.387 1_455 S
C516 H520 0.950 1_455 S
C516 C525 1.390 . S
C517 C516 1.387 1_655 S
C517 C519 1.387 1_656 S
H518 C525 0.950 . S
C519 C517 1.387 1_454 S
C519 C521 1.390 . S
C519 H523 0.950 1_455 S
H520 C516 0.950 1_655 S
C521 C519 1.390 . S
C521 C522 1.387 . S
C521 H524 0.950 . S
C522 C521 1.387 . S
C522 C525 1.387 1_554 S
H523 C519 0.950 1_655 S
H524 C521 0.950 . S
C525 C516 1.390 . S
C525 H518 0.950 . S
C525 C522 1.387 1_556 S
C526 C527 1.387 . S
C526 H530 0.950 . S
C526 C535 1.390 . S
C527 C526 1.387 . S
C527 C529 1.387 1_556 S
H528 C535 0.950 . S
C529 C527 1.387 1_554 S
C529 C531 1.390 . S
C529 H533 0.950 . S
H530 C526 0.950 . S
C531 C529 1.390 . S
C531 C532 1.387 . S
C531 H534 0.950 . S
C532 C531 1.387 . S
C532 C535 1.387 1_554 S
H533 C529 0.950 . S
H534 C531 0.950 . S
C535 C526 1.390 . S
C535 H528 0.950 . S
C535 C532 1.387 1_556 S
C536 C537 1.387 1_554 S
C536 H540 0.950 . S
C536 C545 1.390 . S
C537 C536 1.387 1_556 S
C537 C539 1.387 . S
H538 C545 0.950 1_565 S
C539 C537 1.387 . S
C539 C541 1.390 . S
C539 H543 0.950 . S
H540 C536 0.950 . S
C541 C539 1.390 . S
C541 C542 1.387 1_546 S
C541 H544 0.950 1_545 S
C542 C541 1.387 1_564 S
C542 C545 1.387 1_565 S
H543 C539 0.950 . S
H544 C541 0.950 1_565 S
C545 C536 1.390 . S
C545 H538 0.950 1_545 S
C545 C542 1.387 1_545 S
C546 C547 1.387 . S
C546 H550 0.950 . S
C546 C555 1.390 1_556 S
C547 C546 1.387 . S
C547 C549 1.387 . S
H548 C555 0.950 1_565 S
C549 C547 1.387 . S
C549 C551 1.390 1_556 S
C549 H553 0.950 . S
H550 C546 0.950 . S
C551 C549 1.390 1_554 S
C551 C552 1.387 1_545 S
C551 H554 0.950 1_545 S
C552 C551 1.387 1_565 S
C552 C555 1.387 1_565 S
H553 C549 0.950 . S
H554 C551 0.950 1_565 S
C555 C546 1.390 1_554 S
C555 H548 0.950 1_545 S
C555 C552 1.387 1_545 S
C556 C557 1.387 . S
C556 H560 0.950 . S
C556 C565 1.390 . S
C557 C556 1.387 . S
C557 C559 1.387 1_554 S
H558 C565 0.950 1_655 S
C559 C557 1.387 1_556 S
C559 C561 1.390 . S
C559 H563 0.950 . S
H560 C556 0.950 . S
C561 C559 1.390 . S
C561 C562 1.387 1_455 S
C561 H564 0.950 1_455 S
C562 C561 1.387 1_655 S
C562 C565 1.387 1_656 S
H563 C559 0.950 . S
H564 C561 0.950 1_655 S
C565 C556 1.390 . S
C565 H558 0.950 1_455 S
C565 C562 1.387 1_454 S
C566 C567 1.387 . S
C566 H570 0.950 . S
C566 C575 1.390 . S
C567 C566 1.387 . S
C567 C569 1.387 1_554 S
H568 C575 0.950 . S
C569 C567 1.387 1_556 S
C569 C571 1.390 . S
C569 H573 0.950 . S
H570 C566 0.950 . S
C571 C569 1.390 . S
C571 C572 1.387 . S
C571 H574 0.950 . S
C572 C571 1.387 . S
C572 C575 1.387 1_556 S
H573 C569 0.950 . S
H574 C571 0.950 . S
C575 C566 1.390 . S
C575 H568 0.950 . S
C575 C572 1.387 1_554 S
C576 C577 1.387 . S
C576 H580 0.950 . S
C576 C585 1.390 . S
C577 C576 1.387 . S
C577 C579 1.387 . S
H578 C585 0.950 . S
C579 C577 1.387 . S
C579 C581 1.390 . S
C579 H583 0.950 . S
H580 C576 0.950 . S
C581 C579 1.390 . S
C581 C582 1.387 . S
C581 H584 0.950 . S
C582 C581 1.387 . S
C582 C585 1.387 . S
H583 C579 0.950 . S
H584 C581 0.950 . S
C585 C576 1.390 . S
C585 H578 0.950 . S
C585 C582 1.387 . S
C586 C587 1.387 . S
C586 H590 0.950 . S
C586 C595 1.390 . S
C587 C586 1.387 . S
C587 C589 1.387 . S
H588 C595 0.950 . S
C589 C587 1.387 . S
C589 C591 1.390 . S
C589 H593 0.950 . S
H590 C586 0.950 . S
C591 C589 1.390 . S
C591 C592 1.387 . S
C591 H594 0.950 . S
C592 C591 1.387 . S
C592 C595 1.387 . S
H593 C589 0.950 . S
H594 C591 0.950 . S
C595 C586 1.390 . S
C595 H588 0.950 . S
C595 C592 1.387 . S
C596 C597 1.387 . S
C596 H600 0.950 . S
C596 C605 1.390 . S
C597 C596 1.387 . S
C597 C599 1.387 . S
H598 C605 0.950 . S
C599 C597 1.387 . S
C599 C601 1.390 . S
C599 H603 0.950 . S
H600 C596 0.950 . S
C601 C599 1.390 . S
C601 C602 1.387 . S
C601 H604 0.950 . S
C602 C601 1.387 . S
C602 C605 1.387 . S
H603 C599 0.950 . S
H604 C601 0.950 . S
C605 C596 1.390 . S
C605 H598 0.950 . S
C605 C602 1.387 . S
C606 C607 1.387 . S
C606 H610 0.950 . S
C606 C615 1.390 . S
C607 C606 1.387 . S
C607 C609 1.387 . S
H608 C615 0.950 . S
C609 C607 1.387 . S
C609 C611 1.390 . S
C609 H613 0.950 . S
H610 C606 0.950 . S
C611 C609 1.390 . S
C611 C612 1.387 . S
C611 H614 0.950 . S
C612 C611 1.387 . S
C612 C615 1.387 . S
H613 C609 0.950 . S
H614 C611 0.950 . S
C615 C606 1.390 . S
C615 H608 0.950 . S
C615 C612 1.387 . S
C616 C617 1.387 . S
C616 H620 0.950 . S
C616 C625 1.390 . S
C617 C616 1.387 . S
C617 C619 1.387 . S
H618 C625 0.950 . S
C619 C617 1.387 . S
C619 C621 1.390 . S
C619 H623 0.950 . S
H620 C616 0.950 . S
C621 C619 1.390 . S
C621 C622 1.387 . S
C621 H624 0.950 . S
C622 C621 1.387 . S
C622 C625 1.387 . S
H623 C619 0.950 . S
H624 C621 0.950 . S
C625 C616 1.390 . S
C625 H618 0.950 . S
C625 C622 1.387 . S
C626 C627 1.387 . S
C626 H630 0.950 . S
C626 C635 1.390 . S
C627 C626 1.387 . S
C627 C629 1.387 . S
H628 C635 0.950 . S
C629 C627 1.387 . S
C629 C631 1.390 . S
C629 H633 0.950 . S
H630 C626 0.950 . S
C631 C629 1.390 . S
C631 C632 1.387 . S
C631 H634 0.950 . S
C632 C631 1.387 . S
C632 C635 1.387 . S
H633 C629 0.950 . S
H634 C631 0.950 . S
C635 C626 1.390 . S
C635 H628 0.950 . S
C635 C632 1.387 . S
C636 C637 1.387 . S
C636 H640 0.950 1_556 S
C636 C645 1.390 . S
C637 C636 1.387 . S
C637 C639 1.387 . S
H638 C645 0.950 1_554 S
C639 C637 1.387 . S
C639 C641 1.390 . S
C639 H643 0.950 . S
H640 C636 0.950 1_554 S
C641 C639 1.390 . S
C641 C642 1.387 . S
C641 H644 0.950 . S
C642 C641 1.387 . S
C642 C645 1.387 . S
H643 C639 0.950 . S
H644 C641 0.950 . S
C645 C636 1.390 . S
C645 H638 0.950 1_556 S
C645 C642 1.387 . S
C646 C647 1.387 . S
C646 H650 0.950 . S
C646 C655 1.390 . S
C647 C646 1.387 . S
C647 C649 1.387 . S
H648 C655 0.950 . S
C649 C647 1.387 . S
C649 C651 1.390 . S
C649 H653 0.950 1_556 S
H650 C646 0.950 . S
C651 C649 1.390 . S
C651 C652 1.387 . S
C651 H654 0.950 1_556 S
C652 C651 1.387 . S
C652 C655 1.387 . S
H653 C649 0.950 1_554 S
H654 C651 0.950 1_554 S
C655 C646 1.390 . S
C655 H648 0.950 . S
C655 C652 1.387 . S
C656 C657 1.387 . S
C656 H660 0.950 . S
C656 C665 1.390 . S
C657 C656 1.387 . S
C657 C659 1.387 . S
H658 C665 0.950 . S
C659 C657 1.387 . S
C659 C661 1.390 . S
C659 H663 0.950 1_556 S
H660 C656 0.950 . S
C661 C659 1.390 . S
C661 C662 1.387 . S
C661 H664 0.950 1_556 S
C662 C661 1.387 . S
C662 C665 1.387 . S
H663 C659 0.950 1_554 S
H664 C661 0.950 1_554 S
C665 C656 1.390 . S
C665 H658 0.950 . S
C665 C662 1.387 . S
C666 C667 1.387 . S
C666 H670 0.950 . S
C666 C675 1.390 . S
C667 C666 1.387 . S
C667 C669 1.387 . S
H668 C675 0.950 . S
C669 C667 1.387 . S
C669 C671 1.390 . S
C669 H673 0.950 . S
H670 C666 0.950 . S
C671 C669 1.390 . S
C671 C672 1.387 . S
C671 H674 0.950 . S
C672 C671 1.387 . S
C672 C675 1.387 . S
H673 C669 0.950 . S
H674 C671 0.950 . S
C675 C666 1.390 . S
C675 H668 0.950 . S
C675 C672 1.387 . S
C676 C677 1.387 . S
C676 H680 0.950 . S
C676 C685 1.390 . S
C677 C676 1.387 . S
C677 C679 1.387 . S
H678 C685 0.950 . S
C679 C677 1.387 . S
C679 C681 1.390 . S
C679 H683 0.950 . S
H680 C676 0.950 . S
C681 C679 1.390 . S
C681 C682 1.387 . S
C681 H684 0.950 . S
C682 C681 1.387 . S
C682 C685 1.387 . S
H683 C679 0.950 . S
H684 C681 0.950 . S
C685 C676 1.390 . S
C685 H678 0.950 . S
C685 C682 1.387 . S
C686 C687 1.387 . S
C686 H690 0.950 . S
C686 C695 1.390 . S
C687 C686 1.387 . S
C687 C689 1.387 . S
H688 C695 0.950 . S
C689 C687 1.387 . S
C689 C691 1.390 . S
C689 H693 0.950 . S
H690 C686 0.950 . S
C691 C689 1.390 . S
C691 C692 1.387 . S
C691 H694 0.950 . S
C692 C691 1.387 . S
C692 C695 1.387 . S
H693 C689 0.950 . S
H694 C691 0.950 . S
C695 C686 1.390 . S
C695 H688 0.950 . S
C695 C692 1.387 . S
C696 C697 1.387 . S
C696 H700 0.950 . S
C696 C705 1.390 . S
C697 C696 1.387 . S
C697 C699 1.387 . S
H698 C705 0.950 . S
C699 C697 1.387 . S
C699 C701 1.390 . S
C699 H703 0.950 . S
H700 C696 0.950 . S
C701 C699 1.390 . S
C701 C702 1.387 . S
C701 H704 0.950 . S
C702 C701 1.387 . S
C702 C705 1.387 . S
H703 C699 0.950 . S
H704 C701 0.950 . S
C705 C696 1.390 . S
C705 H698 0.950 . S
C705 C702 1.387 . S
C706 C707 1.387 . S
C706 H710 0.950 . S
C706 C715 1.390 . S
C707 C706 1.387 . S
C707 C709 1.387 . S
H708 C715 0.950 . S
C709 C707 1.387 . S
C709 C711 1.390 . S
C709 H713 0.950 . S
H710 C706 0.950 . S
C711 C709 1.390 . S
C711 C712 1.387 . S
C711 H714 0.950 . S
C712 C711 1.387 . S
C712 C715 1.387 . S
H713 C709 0.950 . S
H714 C711 0.950 . S
C715 C706 1.390 . S
C715 H708 0.950 . S
C715 C712 1.387 . S
C716 C717 1.387 . S
C716 H720 0.950 . S
C716 C725 1.390 . S
C717 C716 1.387 . S
C717 C719 1.387 . S
H718 C725 0.950 . S
C719 C717 1.387 . S
C719 C721 1.390 . S
C719 H723 0.950 . S
H720 C716 0.950 . S
C721 C719 1.390 . S
C721 C722 1.387 . S
C721 H724 0.950 . S
C722 C721 1.387 . S
C722 C725 1.387 . S
H723 C719 0.950 . S
H724 C721 0.950 . S
C725 C716 1.390 . S
C725 H718 0.950 . S
C725 C722 1.387 . S
C726 C727 1.387 . S
C726 H730 0.950 1_554 S
C726 C735 1.390 . S
C727 C726 1.387 . S
C727 C729 1.387 . S
H728 C735 0.950 1_556 S
C729 C727 1.387 . S
C729 C731 1.390 . S
C729 H733 0.950 . S
H730 C726 0.950 1_556 S
C731 C729 1.390 . S
C731 C732 1.387 . S
C731 H734 0.950 . S
C732 C731 1.387 . S
C732 C735 1.387 . S
H733 C729 0.950 . S
H734 C731 0.950 . S
C735 C726 1.390 . S
C735 H728 0.950 1_554 S
C735 C732 1.387 . S
C736 C737 1.387 . S
C736 H740 0.950 . S
C736 C745 1.390 . S
C737 C736 1.387 . S
C737 C739 1.387 . S
H738 C745 0.950 . S
C739 C737 1.387 . S
C739 C741 1.390 . S
C739 H743 0.950 1_554 S
H740 C736 0.950 . S
C741 C739 1.390 . S
C741 C742 1.387 . S
C741 H744 0.950 1_554 S
C742 C741 1.387 . S
C742 C745 1.387 . S
H743 C739 0.950 1_556 S
H744 C741 0.950 1_556 S
C745 C736 1.390 . S
C745 H738 0.950 . S
C745 C742 1.387 . S
C746 C747 1.387 . S
C746 H750 0.950 1_554 S
C746 C755 1.390 . S
C747 C746 1.387 . S
C747 C749 1.387 . S
H748 C755 0.950 1_556 S
C749 C747 1.387 . S
C749 C751 1.390 . S
C749 H753 0.950 . S
H750 C746 0.950 1_556 S
C751 C749 1.390 . S
C751 C752 1.387 . S
C751 H754 0.950 . S
C752 C751 1.387 . S
C752 C755 1.387 . S
H753 C749 0.950 . S
H754 C751 0.950 . S
C755 C746 1.390 . S
C755 H748 0.950 1_554 S
C755 C752 1.387 . S
C756 C757 1.387 . S
C756 H760 0.950 . S
C756 C765 1.390 1_554 S
C757 C756 1.387 . S
C757 C759 1.387 . S
H758 C765 0.950 . S
C759 C757 1.387 . S
C759 C761 1.390 1_554 S
C759 H763 0.950 . S
H760 C756 0.950 . S
C761 C759 1.390 1_556 S
C761 C762 1.387 . S
C761 H764 0.950 . S
C762 C761 1.387 . S
C762 C765 1.387 . S
H763 C759 0.950 . S
H764 C761 0.950 . S
C765 C756 1.390 1_556 S
C765 H758 0.950 . S
C765 C762 1.387 . S
C766 C767 1.387 . S
C766 H770 0.950 . S
C766 C775 1.390 1_554 S
C767 C766 1.387 . S
C767 C769 1.387 . S
H768 C775 0.950 . S
C769 C767 1.387 . S
C769 C771 1.390 1_554 S
C769 H773 0.950 . S
H770 C766 0.950 . S
C771 C769 1.390 1_556 S
C771 C772 1.387 . S
C771 H774 0.950 . S
C772 C771 1.387 . S
C772 C775 1.387 . S
H773 C769 0.950 . S
H774 C771 0.950 . S
C775 C766 1.390 1_556 S
C775 H768 0.950 . S
C775 C772 1.387 . S
C776 C777 1.387 . S
C776 H780 0.950 . S
C776 C785 1.390 1_554 S
C777 C776 1.387 . S
C777 C779 1.387 . S
H778 C785 0.950 . S
C779 C777 1.387 . S
C779 C781 1.390 1_554 S
C779 H783 0.950 . S
H780 C776 0.950 . S
C781 C779 1.390 1_556 S
C781 C782 1.387 . S
C781 H784 0.950 . S
C782 C781 1.387 . S
C782 C785 1.387 . S
H783 C779 0.950 . S
H784 C781 0.950 . S
C785 C776 1.390 1_556 S
C785 H778 0.950 . S
C785 C782 1.387 . S
C786 C787 1.387 . S
C786 H790 0.950 . S
C786 C795 1.390 1_556 S
C787 C786 1.387 . S
C787 C789 1.387 . S
H788 C795 0.950 . S
C789 C787 1.387 . S
C789 C791 1.390 1_556 S
C789 H793 0.950 . S
H790 C786 0.950 . S
C791 C789 1.390 1_554 S
C791 C792 1.387 . S
C791 H794 0.950 . S
C792 C791 1.387 . S
C792 C795 1.387 . S
H793 C789 0.950 . S
H794 C791 0.950 . S
C795 C786 1.390 1_554 S
C795 H788 0.950 . S
C795 C792 1.387 . S
C796 C797 1.387 . S
C796 H800 0.950 . S
C796 C805 1.390 1_554 S
C797 C796 1.387 . S
C797 C799 1.387 . S
H798 C805 0.950 . S
C799 C797 1.387 . S
C799 C801 1.390 1_554 S
C799 H803 0.950 . S
H800 C796 0.950 . S
C801 C799 1.390 1_556 S
C801 C802 1.387 . S
C801 H804 0.950 . S
C802 C801 1.387 . S
C802 C805 1.387 . S
H803 C799 0.950 . S
H804 C801 0.950 . S
C805 C796 1.390 1_556 S
C805 H798 0.950 . S
C805 C802 1.387 . S
C806 C807 1.387 1_565 S
C806 H810 0.950 . S
C806 C815 1.390 1_554 S
C807 C806 1.387 1_545 S
C807 C809 1.387 . S
H808 C815 0.950 . S
C809 C807 1.387 . S
C809 C811 1.390 1_554 S
C809 H813 0.950 . S
H810 C806 0.950 . S
C811 C809 1.390 1_556 S
C811 C812 1.387 . S
C811 H814 0.950 . S
C812 C811 1.387 . S
C812 C815 1.387 1_545 S
H813 C809 0.950 . S
H814 C811 0.950 . S
C815 C806 1.390 1_556 S
C815 H808 0.950 . S
C815 C812 1.387 1_565 S
C816 C817 1.387 . S
C816 H820 0.950 . S
C816 C825 1.390 . S
C817 C816 1.387 . S
C817 C819 1.387 . S
H818 C825 0.950 . S
C819 C817 1.387 . S
C819 C821 1.390 . S
C819 H823 0.950 . S
H820 C816 0.950 . S
C821 C819 1.390 . S
C821 C822 1.387 . S
C821 H824 0.950 . S
C822 C821 1.387 . S
C822 C825 1.387 . S
H823 C819 0.950 . S
H824 C821 0.950 . S
C825 C816 1.390 . S
C825 H818 0.950 . S
C825 C822 1.387 . S
C826 C827 1.387 . S
C826 H830 0.950 . S
C826 C835 1.390 . S
C827 C826 1.387 . S
C827 C829 1.387 . S
H828 C835 0.950 . S
C829 C827 1.387 . S
C829 C831 1.390 . S
C829 H833 0.950 . S
H830 C826 0.950 . S
C831 C829 1.390 . S
C831 C832 1.387 . S
C831 H834 0.950 . S
C832 C831 1.387 . S
C832 C835 1.387 . S
H833 C829 0.950 . S
H834 C831 0.950 . S
C835 C826 1.390 . S
C835 H828 0.950 . S
C835 C832 1.387 . S
C836 C837 1.387 . S
C836 H840 0.950 . S
C836 C845 1.390 . S
C837 C836 1.387 . S
C837 C839 1.387 . S
H838 C845 0.950 . S
C839 C837 1.387 . S
C839 C841 1.390 . S
C839 H843 0.950 . S
H840 C836 0.950 . S
C841 C839 1.390 . S
C841 C842 1.387 . S
C841 H844 0.950 . S
C842 C841 1.387 . S
C842 C845 1.387 . S
H843 C839 0.950 . S
H844 C841 0.950 . S
C845 C836 1.390 . S
C845 H838 0.950 . S
C845 C842 1.387 . S
C846 C847 1.387 . S
C846 H850 0.950 . S
C846 C855 1.390 . S
C847 C846 1.387 . S
C847 C849 1.387 . S
H848 C855 0.950 . S
C849 C847 1.387 . S
C849 C851 1.390 . S
C849 H853 0.950 . S
H850 C846 0.950 . S
C851 C849 1.390 . S
C851 C852 1.387 . S
C851 H854 0.950 . S
C852 C851 1.387 . S
C852 C855 1.387 . S
H853 C849 0.950 . S
H854 C851 0.950 . S
C855 C846 1.390 . S
C855 H848 0.950 . S
C855 C852 1.387 . S
C856 C857 1.387 . S
C856 H860 0.950 . S
C856 C865 1.390 . S
C857 C856 1.387 . S
C857 C859 1.387 . S
H858 C865 0.950 . S
C859 C857 1.387 . S
C859 C861 1.390 . S
C859 H863 0.950 . S
H860 C856 0.950 . S
C861 C859 1.390 . S
C861 C862 1.387 . S
C861 H864 0.950 . S
C862 C861 1.387 . S
C862 C865 1.387 . S
H863 C859 0.950 . S
H864 C861 0.950 . S
C865 C856 1.390 . S
C865 H858 0.950 . S
C865 C862 1.387 . S
C866 C867 1.387 . S
C866 H870 0.950 . S
C866 C875 1.390 . S
C867 C866 1.387 . S
C867 C869 1.387 . S
H868 C875 0.950 . S
C869 C867 1.387 . S
C869 C871 1.390 . S
C869 H873 0.950 . S
H870 C866 0.950 . S
C871 C869 1.390 . S
C871 C872 1.387 . S
C871 H874 0.950 . S
C872 C871 1.387 . S
C872 C875 1.387 . S
H873 C869 0.950 . S
H874 C871 0.950 . S
C875 C866 1.390 . S
C875 H868 0.950 . S
C875 C872 1.387 . S
C876 C877 1.387 . S
C876 H880 0.950 . S
C876 C885 1.390 . S
C877 C876 1.387 . S
C877 C879 1.387 . S
H878 C885 0.950 . S
C879 C877 1.387 . S
C879 C881 1.390 . S
C879 H883 0.950 . S
H880 C876 0.950 . S
C881 C879 1.390 . S
C881 C882 1.387 . S
C881 H884 0.950 . S
C882 C881 1.387 . S
C882 C885 1.387 . S
H883 C879 0.950 . S
H884 C881 0.950 . S
C885 C876 1.390 . S
C885 H878 0.950 . S
C885 C882 1.387 . S
C886 C887 1.387 . S
C886 H890 0.950 . S
C886 C895 1.390 . S
C887 C886 1.387 . S
C887 C889 1.387 . S
H888 C895 0.950 . S
C889 C887 1.387 . S
C889 C891 1.390 . S
C889 H893 0.950 . S
H890 C886 0.950 . S
C891 C889 1.390 . S
C891 C892 1.387 . S
C891 H894 0.950 . S
C892 C891 1.387 . S
C892 C895 1.387 . S
H893 C889 0.950 . S
H894 C891 0.950 . S
C895 C886 1.390 . S
C895 H888 0.950 . S
C895 C892 1.387 . S
C896 C897 1.387 . S
C896 H900 0.950 . S
C896 C905 1.390 . S
C897 C896 1.387 . S
C897 C899 1.387 . S
H898 C905 0.950 . S
C899 C897 1.387 . S
C899 C901 1.390 . S
C899 H903 0.950 . S
H900 C896 0.950 . S
C901 C899 1.390 . S
C901 C902 1.387 . S
C901 H904 0.950 . S
C902 C901 1.387 . S
C902 C905 1.387 . S
H903 C899 0.950 . S
H904 C901 0.950 . S
C905 C896 1.390 . S
C905 H898 0.950 . S
C905 C902 1.387 . S
C906 C907 1.387 . S
C906 H910 0.950 . S
C906 C915 1.390 . S
C907 C906 1.387 . S
C907 C909 1.387 . S
H908 C915 0.950 . S
C909 C907 1.387 . S
C909 C911 1.390 . S
C909 H913 0.950 . S
H910 C906 0.950 . S
C911 C909 1.390 . S
C911 C912 1.387 . S
C911 H914 0.950 . S
C912 C911 1.387 . S
C912 C915 1.387 . S
H913 C909 0.950 . S
H914 C911 0.950 . S
C915 C906 1.390 . S
C915 H908 0.950 . S
C915 C912 1.387 . S
C916 C917 1.387 . S
C916 H920 0.950 . S
C916 C925 1.390 . S
C917 C916 1.387 . S
C917 C919 1.387 . S
H918 C925 0.950 . S
C919 C917 1.387 . S
C919 C921 1.390 . S
C919 H923 0.950 . S
H920 C916 0.950 . S
C921 C919 1.390 . S
C921 C922 1.387 . S
C921 H924 0.950 . S
C922 C921 1.387 . S
C922 C925 1.387 . S
H923 C919 0.950 . S
H924 C921 0.950 . S
C925 C916 1.390 . S
C925 H918 0.950 . S
C925 C922 1.387 . S
C926 C927 1.387 . S
C926 H930 0.950 . S
C926 C935 1.390 . S
C927 C926 1.387 . S
C927 C929 1.387 . S
H928 C935 0.950 . S
C929 C927 1.387 . S
C929 C931 1.390 . S
C929 H933 0.950 . S
H930 C926 0.950 . S
C931 C929 1.390 . S
C931 C932 1.387 . S
C931 H934 0.950 . S
C932 C931 1.387 . S
C932 C935 1.387 . S
H933 C929 0.950 . S
H934 C931 0.950 . S
C935 C926 1.390 . S
C935 H928 0.950 . S
C935 C932 1.387 . S
C397 C293 1.311 . S
C402 C8 1.329 . S
C407 C32 1.307 . S
C412 C316 1.308 . S
C417 C59 1.336 . S
C422 C279 1.336 . S
C427 C54 1.301 . S
C432 C172 1.301 . S
C437 C184 1.327 . S
C442 C21 1.309 . S
C447 C37 1.323 . S
C452 C150 1.341 . S
C457 C74 1.289 . S
C462 C228 1.289 . S
C467 C98 1.300 . S
C472 C250 1.301 . S
C477 C206 1.328 . S
C482 C131 1.307 . S
C487 C362 1.307 . S
C492 C118 1.307 . S
C497 C87 1.336 . S
C502 C395 1.335 . S
C507 C338 1.330 . S
C512 C103 1.311 . S
C517 C197 1.317 . S
C522 C304 1.334 . S
C527 C139 1.342 . S
C532 C329 1.341 . S
C537 C161 1.302 . S
C542 C274 1.321 . S
C547 C219 1.356 . S
C552 C367 1.355 . S
C557 C382 1.337 . S
C562 C241 1.317 . S
C567 C351 1.343 . S
C572 C263 1.340 . S
C577 C18 1.538 . S
C582 C95 1.533 . S
C587 C128 1.541 . S
C592 C30 1.540 . S
C597 C81 1.529 . S
C602 C51 1.530 . S
C607 C96 1.541 . S
C612 C52 1.540 . S
C617 C125 1.566 . S
C622 C15 1.564 . S
C627 C84 1.556 . S
C632 C29 1.548 . S
C637 C238 1.539 . S
C642 C142 1.537 . S
C647 C260 1.552 . S
C652 C164 1.552 . S
C657 C216 1.524 . S
C662 C194 1.524 . S
C667 C235 1.562 . S
C672 C191 1.563 . S
C677 C257 1.534 . S
C682 C153 1.535 . S
C687 C213 1.546 . S
C692 C175 1.551 . S
C697 C359 1.530 . S
C702 C272 1.537 . S
C707 C392 1.522 . S
C712 C296 1.521 . S
C717 C323 1.546 . S
C722 C345 1.547 . S
C727 C326 1.557 . S
C732 C360 1.556 . S
C737 C271 1.545 . S
C742 C389 1.547 . S
C747 C348 1.554 . S
C752 C307 1.549 . S
C757 C10 1.570 . S
C762 C7 1.577 . S
C767 C40 1.572 . S
C772 C43 1.577 . S
C777 C65 1.577 . S
C782 C62 1.572 . S
C787 C76 1.572 . S
C792 C73 1.576 . S
C797 C109 1.577 . S
C802 C106 1.572 . S
C807 C120 1.572 . S
C812 C117 1.576 . S
C817 C147 1.577 . S
C822 C140 1.570 . S
C827 C162 1.572 . S
C832 C169 1.577 . S
C837 C183 1.576 . S
C842 C186 1.571 . S
C847 C205 1.577 . S
C852 C208 1.570 . S
C857 C227 1.578 . S
C862 C230 1.571 . S
C867 C249 1.576 . S
C872 C252 1.572 . S
C877 C285 1.576 . S
C882 C282 1.571 . S
C887 C294 1.572 . S
C892 C301 1.577 . S
C897 C315 1.576 . S
C902 C318 1.572 . S
C907 C337 1.575 . S
C912 C340 1.571 . S
C917 C373 1.577 . S
C922 C370 1.572 . S
C927 C381 1.578 . S
C932 C384 1.570 . S
