# Generated by pormake.
# Topology sol, (6)-cn, num edge types: 1
# Building blocks:
#     Node 0, Type 0, BuildingBlock: OJICUG_clean_sbu_0, # of connection points: 6
#     Node 1, Type 0, BuildingBlock: OJICUG_clean_sbu_0, # of connection points: 6
#     Node 2, Type 0, BuildingBlock: OJICUG_clean_sbu_0, # of connection points: 6
#     Node 3, Type 0, BuildingBlock: OJICUG_clean_sbu_0, # of connection points: 6
#     Node 4, Type 0, BuildingBlock: OJICUG_clean_sbu_0, # of connection points: 6
#     Node 5, Type 0, BuildingBlock: OJICUG_clean_sbu_0, # of connection points: 6
#     Node 6, Type 0, BuildingBlock: OJICUG_clean_sbu_0, # of connection points: 6
#     Node 7, Type 0, BuildingBlock: OJICUG_clean_sbu_0, # of connection points: 6
#     Edge 8, Type (0, 0), BuildingBlock: MIFKUJ_clean_linker_0, # of connection points: 2
#     Edge 9, Type (0, 0), BuildingBlock: MIFKUJ_clean_linker_0, # of connection points: 2
#     Edge 10, Type (0, 0), BuildingBlock: MIFKUJ_clean_linker_0, # of connection points: 2
#     Edge 11, Type (0, 0), BuildingBlock: MIFKUJ_clean_linker_0, # of connection points: 2
#     Edge 12, Type (0, 0), BuildingBlock: MIFKUJ_clean_linker_0, # of connection points: 2
#     Edge 13, Type (0, 0), BuildingBlock: MIFKUJ_clean_linker_0, # of connection points: 2
#     Edge 14, Type (0, 0), BuildingBlock: MIFKUJ_clean_linker_0, # of connection points: 2
#     Edge 15, Type (0, 0), BuildingBlock: MIFKUJ_clean_linker_0, # of connection points: 2
#     Edge 16, Type (0, 0), BuildingBlock: MIFKUJ_clean_linker_0, # of connection points: 2
#     Edge 17, Type (0, 0), BuildingBlock: MIFKUJ_clean_linker_0, # of connection points: 2
#     Edge 18, Type (0, 0), BuildingBlock: MIFKUJ_clean_linker_0, # of connection points: 2
#     Edge 19, Type (0, 0), BuildingBlock: MIFKUJ_clean_linker_0, # of connection points: 2
#     Edge 20, Type (0, 0), BuildingBlock: MIFKUJ_clean_linker_0, # of connection points: 2
#     Edge 21, Type (0, 0), BuildingBlock: MIFKUJ_clean_linker_0, # of connection points: 2
#     Edge 22, Type (0, 0), BuildingBlock: MIFKUJ_clean_linker_0, # of connection points: 2
#     Edge 23, Type (0, 0), BuildingBlock: MIFKUJ_clean_linker_0, # of connection points: 2
#     Edge 24, Type (0, 0), BuildingBlock: MIFKUJ_clean_linker_0, # of connection points: 2
#     Edge 25, Type (0, 0), BuildingBlock: MIFKUJ_clean_linker_0, # of connection points: 2
#     Edge 26, Type (0, 0), BuildingBlock: MIFKUJ_clean_linker_0, # of connection points: 2
#     Edge 27, Type (0, 0), BuildingBlock: MIFKUJ_clean_linker_0, # of connection points: 2
#     Edge 28, Type (0, 0), BuildingBlock: MIFKUJ_clean_linker_0, # of connection points: 2
#     Edge 29, Type (0, 0), BuildingBlock: MIFKUJ_clean_linker_0, # of connection points: 2
#     Edge 30, Type (0, 0), BuildingBlock: MIFKUJ_clean_linker_0, # of connection points: 2
#     Edge 31, Type (0, 0), BuildingBlock: MIFKUJ_clean_linker_0, # of connection points: 2
# Relax obj value: 0.163
# Max RMSD: 0.156
# Mean RMSD: 0.156
data_MOF--net-sol--node1-OJICUG_clean_sbu_0--edge1-MIFKUJ_clean_linker_0
_symmetry_space_group_name_H-M    P1
_symmetry_Int_Tables_number       1
_symmetry_cell_setting            triclinic
loop_
_symmetry_equiv_pos_as_xyz
'x, y, z'
_cell_length_a     44.241523
_cell_length_b     35.490501
_cell_length_c     38.786206
_cell_angle_alpha  89.929192
_cell_angle_beta   89.961725
_cell_angle_gamma 89.956598
loop_
_atom_site_label
_atom_site_type_symbol
_atom_site_fract_x
_atom_site_fract_y
_atom_site_fract_z
_atom_type_partial_charge
Sc0 Sc 0.20043 0.23873 0.05404 0.0
Sc1 Sc 0.12397 0.2323 0.02817 0.0
Sc2 Sc 0.15033 0.18109 0.1002 0.0
O3 O 0.15825 0.21724 0.0607 0.0
C4 C 0.21389 0.15269 0.07094 0.0
C5 C 0.17879 0.22475 0.97586 0.0
C6 C 0.10737 0.14619 0.04226 0.0
C7 C 0.15915 0.30976 0.03863 0.0
C8 C 0.19758 0.23627 0.13625 0.0
C9 C 0.09304 0.23535 0.10241 0.0
O10 O 0.22103 0.18392 0.05701 0.0
O11 O 0.15068 0.22184 0.98241 0.0
O12 O 0.12295 0.1438 0.06966 0.0
O13 O 0.18315 0.29522 0.05084 0.0
O14 O 0.17594 0.21289 0.13708 0.0
O15 O 0.0941 0.24515 0.07086 0.0
O16 O 0.20899 0.24812 0.10821 0.0
O17 O 0.13698 0.29051 0.02772 0.0
O18 O 0.11146 0.21244 0.11631 0.0
O19 O 0.19836 0.23199 0.99892 0.0
O20 O 0.18923 0.14758 0.08726 0.0
O21 O 0.10597 0.17614 0.02438 0.0
Sc22 Sc 0.34033 0.32862 0.5896 0.0
Sc23 Sc 0.37473 0.26592 0.53103 0.0
Sc24 Sc 0.29812 0.25457 0.55427 0.0
O25 O 0.33773 0.28315 0.55815 0.0
C26 C 0.29851 0.27293 0.63436 0.0
C27 C 0.40084 0.28249 0.60591 0.0
C28 C 0.34474 0.18687 0.54961 0.0
C29 C 0.38516 0.35533 0.53043 0.0
C30 C 0.27565 0.33993 0.55586 0.0
C31 C 0.32184 0.25988 0.47584 0.0
O32 O 0.31532 0.30169 0.6306 0.0
O33 O 0.40152 0.26412 0.57767 0.0
O34 O 0.31942 0.20065 0.55823 0.0
O35 O 0.36622 0.36224 0.55416 0.0
O36 O 0.27139 0.30505 0.55049 0.0
O37 O 0.34953 0.26614 0.48312 0.0
O38 O 0.29992 0.3532 0.5685 0.0
O39 O 0.39044 0.32212 0.51988 0.0
O40 O 0.30166 0.25421 0.49877 0.0
O41 O 0.38089 0.30725 0.61285 0.0
O42 O 0.2909 0.25207 0.60922 0.0
O43 O 0.36616 0.20673 0.53776 0.0
Sc44 Sc 0.65931 0.33209 0.89961 0.0
Sc45 Sc 0.62762 0.27004 0.96089 0.0
Sc46 Sc 0.70436 0.26172 0.93707 0.0
O47 O 0.66375 0.28808 0.93264 0.0
C48 C 0.70476 0.27955 0.85654 0.0
C49 C 0.59997 0.28335 0.8857 0.0
C50 C 0.65958 0.19233 0.94104 0.0
C51 C 0.6145 0.35865 0.95956 0.0
C52 C 0.72283 0.3485 0.93491 0.0
C53 C 0.68086 0.26446 0.01561 0.0
O54 O 0.68555 0.30605 0.85905 0.0
O55 O 0.59961 0.26695 0.91501 0.0
O56 O 0.68451 0.20695 0.93183 0.0
O57 O 0.63192 0.36522 0.93422 0.0
O58 O 0.72827 0.31425 0.94244 0.0
O59 O 0.65318 0.27122 0.00875 0.0
O60 O 0.69872 0.35924 0.91993 0.0
O61 O 0.61111 0.32585 0.97207 0.0
O62 O 0.70069 0.25921 0.99233 0.0
O63 O 0.61981 0.30759 0.8772 0.0
O64 O 0.71337 0.2605 0.88246 0.0
O65 O 0.638 0.21135 0.95375 0.0
Sc66 Sc 0.84537 0.15616 0.39888 0.0
Sc67 Sc 0.87801 0.21636 0.46053 0.0
Sc68 Sc 0.80149 0.22671 0.43775 0.0
O69 O 0.84156 0.19946 0.43257 0.0
C70 C 0.80076 0.21015 0.35687 0.0
C71 C 0.90478 0.205 0.38497 0.0
C72 C 0.84672 0.29481 0.4421 0.0
C73 C 0.88994 0.12734 0.45754 0.0
C74 C 0.78135 0.14094 0.43463 0.0
C75 C 0.82613 0.22292 0.5159 0.0
O76 O 0.82086 0.18467 0.35852 0.0
O77 O 0.9048 0.2219 0.41399 0.0
O78 O 0.82226 0.28074 0.43086 0.0
O79 O 0.87111 0.12106 0.43354 0.0
O80 O 0.77713 0.17471 0.44457 0.0
O81 O 0.85313 0.21301 0.50868 0.0
O82 O 0.80466 0.13049 0.41786 0.0
O83 O 0.89486 0.1602 0.46916 0.0
O84 O 0.80651 0.23053 0.49292 0.0
O85 O 0.8858 0.17946 0.37721 0.0
O86 O 0.79108 0.22723 0.38342 0.0
O87 O 0.86733 0.27524 0.45614 0.0
Sc88 Sc 0.79921 0.76132 0.95834 0.0
Sc89 Sc 0.87692 0.76901 0.97904 0.0
Sc90 Sc 0.8448 0.82728 0.91519 0.0
O91 O 0.8403 0.7859 0.95099 0.0
C92 C 0.80032 0.77 0.87648 0.0
C93 C 0.84343 0.69106 0.96676 0.0
C94 C 0.90468 0.77874 0.90361 0.0
C95 C 0.82402 0.77 0.03556 0.0
C96 C 0.78042 0.84713 0.94682 0.0
C97 C 0.88869 0.8578 0.97392 0.0
O98 O 0.79099 0.75371 0.90374 0.0
O99 O 0.86674 0.71025 0.97379 0.0
O100 O 0.88482 0.80253 0.89438 0.0
O101 O 0.8031 0.76621 0.01333 0.0
O102 O 0.80491 0.85617 0.93186 0.0
O103 O 0.89278 0.82564 0.98759 0.0
O104 O 0.77512 0.81407 0.95784 0.0
O105 O 0.85194 0.77218 0.02739 0.0
O106 O 0.87118 0.86293 0.94839 0.0
O107 O 0.8178 0.70554 0.96028 0.0
O108 O 0.81943 0.79673 0.87707 0.0
O109 O 0.90491 0.76332 0.93329 0.0
Sc110 Sc 0.70607 0.72822 0.45855 0.0
Sc111 Sc 0.62827 0.72203 0.47901 0.0
Sc112 Sc 0.66041 0.66227 0.4162 0.0
O113 O 0.66488 0.70405 0.45139 0.0
C114 C 0.70856 0.71477 0.37748 0.0
C115 C 0.66229 0.79902 0.46134 0.0
C116 C 0.6022 0.71296 0.4025 0.0
C117 C 0.68013 0.72397 0.53588 0.0
C118 C 0.72205 0.64102 0.454 0.0
C119 C 0.61385 0.63424 0.47404 0.0
O120 O 0.7172 0.73162 0.40455 0.0
O121 O 0.63955 0.78067 0.47223 0.0
O122 O 0.62252 0.68988 0.39285 0.0
O123 O 0.70087 0.72845 0.51357 0.0
O124 O 0.69829 0.63213 0.43737 0.0
O125 O 0.61131 0.66609 0.48867 0.0
O126 O 0.72826 0.67457 0.463 0.0
O127 O 0.65246 0.71945 0.52773 0.0
O128 O 0.63097 0.6289 0.44821 0.0
O129 O 0.68748 0.78365 0.45431 0.0
O130 O 0.68842 0.68934 0.37797 0.0
O131 O 0.60073 0.72641 0.43293 0.0
Sc132 Sc 0.34372 0.65954 0.10275 0.0
Sc133 Sc 0.37762 0.72475 0.04641 0.0
Sc134 Sc 0.30126 0.73376 0.06782 0.0
O135 O 0.34082 0.70568 0.07221 0.0
C136 C 0.28016 0.64894 0.06442 0.0
C137 C 0.38913 0.63536 0.04395 0.0
C138 C 0.3274 0.7349 0.99033 0.0
C139 C 0.40343 0.70637 0.1205 0.0
C140 C 0.2992 0.71022 0.14762 0.0
C141 C 0.34612 0.80156 0.06925 0.0
O142 O 0.30215 0.63692 0.0826 0.0
O143 O 0.39552 0.66923 0.03622 0.0
O144 O 0.30781 0.74333 0.01317 0.0
O145 O 0.3853 0.67899 0.12536 0.0
O146 O 0.28941 0.72851 0.12173 0.0
O147 O 0.36622 0.78363 0.05258 0.0
O148 O 0.31994 0.68561 0.14504 0.0
O149 O 0.40256 0.72786 0.09415 0.0
O150 O 0.32225 0.78609 0.08055 0.0
O151 O 0.36835 0.62698 0.06524 0.0
O152 O 0.27725 0.68312 0.05516 0.0
O153 O 0.35376 0.72285 0.99775 0.0
Sc154 Sc 0.20542 0.75574 0.56839 0.0
Sc155 Sc 0.12777 0.76012 0.54732 0.0
Sc156 Sc 0.15967 0.82612 0.60456 0.0
O157 O 0.16426 0.78071 0.57328 0.0
C158 C 0.20709 0.77655 0.64798 0.0
C159 C 0.1621 0.68436 0.56813 0.0
C160 C 0.10255 0.77535 0.62355 0.0
C161 C 0.18009 0.75573 0.49062 0.0
C162 C 0.22149 0.84356 0.56635 0.0
C163 C 0.11229 0.8479 0.54548 0.0
O164 O 0.21454 0.7552 0.62312 0.0
O165 O 0.13929 0.70246 0.55729 0.0
O166 O 0.1223 0.80026 0.6306 0.0
O167 O 0.20096 0.75341 0.51312 0.0
O168 O 0.19694 0.8544 0.58033 0.0
O169 O 0.11 0.81468 0.53369 0.0
O170 O 0.22813 0.80902 0.56189 0.0
O171 O 0.1522 0.75914 0.49858 0.0
O172 O 0.12955 0.85598 0.57052 0.0
O173 O 0.18736 0.69993 0.57426 0.0
O174 O 0.18864 0.80369 0.64433 0.0
O175 O 0.1011 0.7588 0.59438 0.0
H176 H 0.03468 0.21361 0.10762 0.0
H177 H 0.0005 0.22802 0.1554 0.0
H178 H 0.06591 0.30634 0.19644 0.0
H179 H 0.10049 0.29064 0.14918 0.0
H180 H 0.05231 0.25863 0.243 0.0
H181 H 0.99313 0.33499 0.16976 0.0
H182 H 0.96481 0.35454 0.11804 0.0
H183 H 0.90244 0.26335 0.13295 0.0
H184 H 0.93067 0.24275 0.18439 0.0
H185 H 0.94708 0.26204 0.38705 0.0
H186 H 0.97838 0.28486 0.33905 0.0
H187 H 0.94088 0.19913 0.27304 0.0
H188 H 0.90995 0.17614 0.3202 0.0
H189 H 0.94066 0.27048 0.24293 0.0
H190 H 0.00899 0.18751 0.30716 0.0
H191 H 0.03748 0.16845 0.35899 0.0
H192 H 0.08235 0.2757 0.3604 0.0
H193 H 0.0538 0.29554 0.30879 0.0
C194 C 0.04113 0.23492 0.12619 0.0
C195 C 0.06984 0.25138 0.12486 0.0
C196 C 0.02161 0.2433 0.15345 0.0
C197 C 0.03051 0.26853 0.1795 0.0
C198 C 0.05852 0.28689 0.17667 0.0
C199 C 0.07815 0.27813 0.14965 0.0
C200 C 0.01291 0.27073 0.21202 0.0
C201 C 0.02797 0.26239 0.24303 0.0
C202 C 0.98112 0.27525 0.2122 0.0
C203 C 0.96417 0.28722 0.18096 0.0
C204 C 0.97354 0.31887 0.16187 0.0
C205 C 0.95747 0.33017 0.1326 0.0
C206 C 0.93186 0.31018 0.1222 0.0
C207 C 0.92228 0.27881 0.14104 0.0
C208 C 0.9383 0.26734 0.1703 0.0
C209 C 0.94573 0.24786 0.36239 0.0
C210 C 0.92596 0.21724 0.35756 0.0
C211 C 0.96349 0.26105 0.33501 0.0
C212 C 0.96164 0.24386 0.3025 0.0
C213 C 0.94233 0.21306 0.29784 0.0
C214 C 0.92482 0.19978 0.32502 0.0
C215 C 0.98005 0.25686 0.273 0.0
C216 C 0.96511 0.26803 0.24275 0.0
C217 C 0.01191 0.25514 0.27345 0.0
C218 C 0.02897 0.24319 0.30446 0.0
C219 C 0.02472 0.20714 0.31873 0.0
C220 C 0.04092 0.19617 0.34801 0.0
C221 C 0.06162 0.2209 0.36306 0.0
C222 C 0.06624 0.25661 0.34878 0.0
C223 C 0.05006 0.26773 0.31952 0.0
H224 H 0.07416 0.21235 0.38572 0.0
H225 H 0.91942 0.31901 0.09957 0.0
H226 H 0.43496 0.21832 0.61352 0.0
H227 H 0.467 0.20162 0.66291 0.0
H228 H 0.4488 0.31003 0.70868 0.0
H229 H 0.41666 0.3266 0.66016 0.0
H230 H 0.5172 0.23184 0.69045 0.0
H231 H 0.43869 0.30208 0.79404 0.0
H232 H 0.38419 0.31346 0.80201 0.0
H233 H 0.36367 0.22074 0.7351 0.0
H234 H 0.41798 0.20772 0.7278 0.0
H235 H 0.59194 0.31633 0.82303 0.0
H236 H 0.55697 0.29862 0.77789 0.0
H237 H 0.52095 0.21016 0.84218 0.0
H238 H 0.55628 0.22785 0.88833 0.0
H239 H 0.47648 0.25199 0.80836 0.0
H240 H 0.56366 0.1834 0.77792 0.0
H241 H 0.61816 0.17227 0.76933 0.0
H242 H 0.62014 0.25651 0.68983 0.0
H243 H 0.56576 0.26861 0.69828 0.0
C244 C 0.43807 0.23868 0.63399 0.0
C245 C 0.42302 0.27361 0.63316 0.0
C246 C 0.45624 0.22903 0.6622 0.0
C247 C 0.45954 0.25419 0.68983 0.0
C248 C 0.4458 0.28975 0.68811 0.0
C249 C 0.42757 0.29926 0.66023 0.0
C250 C 0.47754 0.2441 0.72062 0.0
C251 C 0.50824 0.23564 0.71625 0.0
C252 C 0.46546 0.24773 0.75432 0.0
C253 C 0.43258 0.25401 0.76025 0.0
C254 C 0.4226 0.28369 0.78145 0.0
C255 C 0.39169 0.29043 0.78585 0.0
C256 C 0.37047 0.26777 0.76915 0.0
C257 C 0.38011 0.23812 0.7482 0.0
C258 C 0.41098 0.23101 0.74397 0.0
C259 C 0.5767 0.29304 0.82786 0.0
C260 C 0.57715 0.27331 0.85935 0.0
C261 C 0.55678 0.28285 0.80184 0.0
C262 C 0.5369 0.25257 0.80644 0.0
C263 C 0.53643 0.23337 0.83809 0.0
C264 C 0.55656 0.24356 0.86439 0.0
C265 C 0.51639 0.24236 0.77788 0.0
C266 C 0.4852 0.24693 0.78263 0.0
C267 C 0.52789 0.23455 0.74457 0.0
C268 C 0.56055 0.22692 0.73878 0.0
C269 C 0.57572 0.19967 0.75868 0.0
C270 C 0.60661 0.19319 0.75384 0.0
C271 C 0.6226 0.21368 0.72905 0.0
C272 C 0.60771 0.24062 0.70899 0.0
C273 C 0.57682 0.24724 0.71374 0.0
H274 H 0.64653 0.20867 0.72539 0.0
H275 H 0.34655 0.27321 0.77239 0.0
H276 H 0.92255 0.82027 0.84867 0.0
H277 H 0.95539 0.80137 0.80162 0.0
H278 H 0.97128 0.69432 0.85124 0.0
H279 H 0.93827 0.71343 0.89931 0.0
H280 H 0.02287 0.72343 0.82278 0.0
H281 H 0.9248 0.69559 0.78412 0.0
H282 H 0.87022 0.70567 0.77512 0.0
H283 H 0.8892 0.80031 0.70959 0.0
H284 H 0.94387 0.79127 0.71864 0.0
H285 H 0.05813 0.72082 0.62244 0.0
H286 H 0.02469 0.70227 0.67007 0.0
H287 H 0.06553 0.78678 0.73484 0.0
H288 H 0.09886 0.80514 0.68816 0.0
H289 H 0.98266 0.74137 0.70438 0.0
H290 H 0.07183 0.75876 0.81522 0.0
H291 H 0.12595 0.74549 0.82431 0.0
H292 H 0.12366 0.66152 0.74478 0.0
H293 H 0.06943 0.67381 0.73554 0.0
C294 C 0.93307 0.79272 0.84981 0.0
C295 C 0.92754 0.76815 0.87755 0.0
C296 C 0.95173 0.78188 0.82275 0.0
C297 C 0.96505 0.74604 0.82247 0.0
C298 C 0.96086 0.72194 0.85083 0.0
C299 C 0.94216 0.73294 0.87828 0.0
C300 C 0.98333 0.73475 0.79219 0.0
C301 C 0.01408 0.72675 0.79686 0.0
C302 C 0.97146 0.73753 0.75835 0.0
C303 C 0.93854 0.74272 0.7521 0.0
C304 C 0.91736 0.71865 0.76788 0.0
C305 C 0.88638 0.72419 0.76279 0.0
C306 C 0.87625 0.7536 0.7418 0.0
C307 C 0.89709 0.77749 0.7258 0.0
C308 C 0.92809 0.77211 0.73085 0.0
C309 C 0.05998 0.7354 0.64685 0.0
C310 C 0.08127 0.76445 0.6514 0.0
C311 C 0.04093 0.72467 0.67404 0.0
C312 C 0.0431 0.74257 0.70621 0.0
C313 C 0.064 0.77185 0.71055 0.0
C314 C 0.0829 0.78257 0.68359 0.0
C315 C 0.0226 0.73281 0.73512 0.0
C316 C 0.99137 0.7368 0.73018 0.0
C317 C 0.03392 0.72539 0.76861 0.0
C318 C 0.06649 0.71732 0.77462 0.0
C319 C 0.08277 0.73722 0.79986 0.0
C320 C 0.11351 0.72994 0.80499 0.0
C321 C 0.12824 0.70273 0.78511 0.0
C322 C 0.11224 0.68266 0.76012 0.0
C323 C 0.0815 0.68981 0.75489 0.0
H324 H 0.15205 0.69718 0.78909 0.0
H325 H 0.85227 0.75787 0.73792 0.0
H326 H 0.60905 0.7142 0.33304 0.0
H327 H 0.57088 0.72761 0.28961 0.0
H328 H 0.50554 0.75057 0.36953 0.0
H329 H 0.54401 0.73712 0.41357 0.0
H330 H 0.48313 0.70287 0.32293 0.0
H331 H 0.52561 0.82175 0.31948 0.0
H332 H 0.56259 0.8734 0.31835 0.0
H333 H 0.59567 0.83528 0.22032 0.0
H334 H 0.55907 0.7829 0.22104 0.0
H335 H 0.41987 0.77538 0.14465 0.0
H336 H 0.44882 0.78857 0.19713 0.0
H337 H 0.46458 0.66936 0.2108 0.0
H338 H 0.43436 0.65615 0.1596 0.0
H339 H 0.50202 0.78065 0.2187 0.0
H340 H 0.4656 0.64316 0.29216 0.0
H341 H 0.4207 0.60226 0.29607 0.0
H342 H 0.36432 0.69335 0.26165 0.0
H343 H 0.40879 0.73501 0.25809 0.0
C344 C 0.58665 0.72244 0.34146 0.0
C345 C 0.57943 0.72436 0.3767 0.0
C346 C 0.56492 0.73045 0.31658 0.0
C347 C 0.53545 0.74039 0.32634 0.0
C348 C 0.52823 0.74313 0.36152 0.0
C349 C 0.55019 0.73554 0.38658 0.0
C350 C 0.51201 0.74439 0.29937 0.0
C351 C 0.48701 0.72016 0.30028 0.0
C352 C 0.51641 0.7681 0.27048 0.0
C353 C 0.53966 0.79823 0.27044 0.0
C354 C 0.54106 0.82401 0.2979 0.0
C355 C 0.56193 0.85349 0.29729 0.0
C356 C 0.58156 0.85759 0.26933 0.0
C357 C 0.58049 0.83201 0.242 0.0
C358 C 0.55963 0.80243 0.24247 0.0
C359 C 0.42987 0.75213 0.15874 0.0
C360 C 0.42482 0.71478 0.1484 0.0
C361 C 0.44626 0.75964 0.18876 0.0
C362 C 0.45814 0.72989 0.2085 0.0
C363 C 0.4547 0.69271 0.19676 0.0
C364 C 0.43775 0.68518 0.16731 0.0
C365 C 0.47423 0.73735 0.24133 0.0
C366 C 0.49779 0.76377 0.24152 0.0
C367 C 0.46762 0.71691 0.27184 0.0
C368 C 0.44063 0.69217 0.27466 0.0
C369 C 0.44361 0.65457 0.28568 0.0
C370 C 0.41822 0.63123 0.28778 0.0
C371 C 0.38969 0.64518 0.27905 0.0
C372 C 0.38645 0.68256 0.26833 0.0
C373 C 0.41175 0.70604 0.26625 0.0
H374 H 0.37008 0.62704 0.28063 0.0
H375 H 0.59742 0.88073 0.26872 0.0
H376 H 0.10242 0.0778 0.07473 0.0
H377 H 0.06528 0.02852 0.06369 0.0
H378 H 0.03032 0.09209 0.97765 0.0
H379 H 0.06714 0.14185 0.98868 0.0
H380 H 0.98567 0.06931 0.02041 0.0
H381 H 0.07134 0.01234 0.96483 0.0
H382 H 0.12381 0.98928 0.96075 0.0
H383 H 0.10733 0.91153 0.04355 0.0
H384 H 0.05485 0.9345 0.04844 0.0
H385 H 0.89265 0.92848 0.94583 0.0
H386 H 0.92927 0.97738 0.95967 0.0
H387 H 0.96453 0.90888 0.04235 0.0
H388 H 0.92833 0.85931 0.02825 0.0
H389 H 0.00905 0.93397 1.00295 0.0
H390 H 0.92341 0.98967 0.05827 0.0
H391 H 0.87101 0.01275 0.06317 0.0
H392 H 0.88731 0.09283 0.98221 0.0
H393 H 0.93972 0.06987 0.97649 0.0
C394 C 0.08715 0.08116 0.05312 0.0
C395 C 0.08775 0.11397 0.03269 0.0
C396 C 0.06594 0.05286 0.04682 0.0
C397 C 0.04505 0.05663 0.01983 0.0
C398 C 0.04618 0.08871 0.9987 0.0
C399 C 0.06738 0.11704 0.00496 0.0
C400 C 0.02105 0.02804 0.01472 0.0
C401 C 0.99076 0.03978 0.01609 0.0
C402 C 0.02773 0.98938 0.01022 0.0
C403 C 0.05925 0.97541 0.00722 0.0
C404 C 0.07897 0.99054 0.98235 0.0
C405 C 0.10871 0.97744 0.97986 0.0
C406 C 0.11892 0.94903 1.00194 0.0
C407 C 0.0994 0.93357 0.02649 0.0
C408 C 0.06965 0.9466 0.02911 0.0
C409 C 0.9078 0.92396 0.96736 0.0
C410 C 0.90758 0.88977 0.9858 0.0
C411 C 0.92873 0.95207 0.9753 0.0
C412 C 0.94962 0.94686 1.00212 0.0
C413 C 0.94869 0.91344 0.02145 0.0
C414 C 0.92786 0.88519 0.01344 0.0
C415 C 0.9736 0.97523 0.00848 0.0
C416 C 0.00391 0.96348 0.00735 0.0
C417 C 0.96694 0.01387 0.01333 0.0
C418 C 0.93543 0.0278 0.01675 0.0
C419 C 0.91576 0.012 0.04132 0.0
C420 C 0.88606 0.02509 0.04428 0.0
C421 C 0.87581 0.05417 0.02296 0.0
C422 C 0.89527 0.07028 0.99869 0.0
C423 C 0.92499 0.05726 0.9956 0.0
H424 H 0.85281 0.06427 0.02529 0.0
H425 H 0.14195 0.93893 0.99997 0.0
H426 H 0.61456 0.56061 0.45268 0.0
H427 H 0.57535 0.51319 0.46188 0.0
H428 H 0.52679 0.59023 0.52759 0.0
H429 H 0.56575 0.63793 0.51852 0.0
H430 H 0.55037 0.47786 0.51884 0.0
H431 H 0.45132 0.58328 0.50661 0.0
H432 H 0.44067 0.64509 0.48003 0.0
H433 H 0.50841 0.62443 0.40298 0.0
H434 H 0.51912 0.56229 0.42877 0.0
H435 H 0.38321 0.42995 0.54882 0.0
H436 H 0.42169 0.47774 0.53763 0.0
H437 H 0.47045 0.39939 0.47344 0.0
H438 H 0.43232 0.35124 0.48464 0.0
H439 H 0.44679 0.51245 0.48098 0.0
H440 H 0.54566 0.40686 0.49313 0.0
H441 H 0.55636 0.34516 0.5199 0.0
H442 H 0.48909 0.3664 0.59735 0.0
H443 H 0.47836 0.42844 0.57139 0.0
C444 C 0.59582 0.56733 0.46957 0.0
C445 C 0.59321 0.60331 0.48456 0.0
C446 C 0.57343 0.54014 0.4748 0.0
C447 C 0.54791 0.54847 0.49487 0.0
C448 C 0.54609 0.58347 0.51155 0.0
C449 C 0.56853 0.61063 0.5065 0.0
C450 C 0.52245 0.52137 0.49682 0.0
C451 C 0.52781 0.48525 0.51019 0.0
C452 C 0.49291 0.53128 0.48602 0.0
C453 C 0.48624 0.56831 0.46989 0.0
C454 C 0.46385 0.59187 0.48392 0.0
C455 C 0.45781 0.62696 0.46899 0.0
C456 C 0.47393 0.63873 0.43991 0.0
C457 C 0.49602 0.61534 0.42559 0.0
C458 C 0.5021 0.5802 0.44037 0.0
C459 C 0.40179 0.423 0.53177 0.0
C460 C 0.40483 0.38646 0.51806 0.0
C461 C 0.42377 0.45044 0.52539 0.0
C462 C 0.44924 0.44184 0.50533 0.0
C463 C 0.45123 0.40637 0.48954 0.0
C464 C 0.42928 0.37892 0.49585 0.0
C465 C 0.47471 0.46893 0.50299 0.0
C466 C 0.46936 0.50505 0.48958 0.0
C467 C 0.50427 0.45905 0.51378 0.0
C468 C 0.51099 0.42211 0.53005 0.0
C469 C 0.53326 0.39842 0.51596 0.0
C470 C 0.53932 0.36339 0.53098 0.0
C471 C 0.52335 0.35182 0.56023 0.0
C472 C 0.50138 0.37534 0.57462 0.0
C473 C 0.49528 0.41043 0.55974 0.0
H474 H 0.52804 0.32466 0.57179 0.0
H475 H 0.46925 0.66593 0.42843 0.0
H476 H 0.39129 0.5615 0.06472 0.0
H477 H 0.4294 0.51446 0.04967 0.0
H478 H 0.47068 0.59286 0.97894 0.0
H479 H 0.43266 0.64019 0.99374 0.0
H480 H 0.46905 0.51939 0.95342 0.0
H481 H 0.49946 0.58426 0.05647 0.0
H482 H 0.49238 0.60823 0.11558 0.0
H483 H 0.4809 0.49518 0.15288 0.0
H484 H 0.48738 0.47056 0.09385 0.0
H485 H 0.61104 0.43152 0.93605 0.0
H486 H 0.57309 0.4788 0.95084 0.0
H487 H 0.53443 0.40314 0.02589 0.0
H488 H 0.57247 0.35573 0.01162 0.0
H489 H 0.53455 0.47529 0.04923 0.0
H490 H 0.50368 0.4101 0.94693 0.0
H491 H 0.50963 0.38545 0.8879 0.0
H492 H 0.52101 0.498 0.84931 0.0
H493 H 0.51559 0.5233 0.90824 0.0
C494 C 0.4081 0.56862 0.04549 0.0
C495 C 0.40901 0.60486 0.0307 0.0
C496 C 0.42999 0.54171 0.03706 0.0
C497 C 0.45317 0.5504 0.01363 0.0
C498 C 0.45309 0.58565 0.99723 0.0
C499 C 0.43132 0.61269 0.00579 0.0
C500 C 0.47842 0.52358 0.00772 0.0
C501 C 0.4836 0.51008 0.97426 0.0
C502 C 0.49705 0.51091 0.03508 0.0
C503 C 0.4936 0.5256 0.07068 0.0
C504 C 0.4952 0.56452 0.07723 0.0
C505 C 0.49132 0.57823 0.11072 0.0
C506 C 0.48612 0.55325 0.13795 0.0
C507 C 0.48488 0.5145 0.13175 0.0
C508 C 0.48867 0.50065 0.09829 0.0
C509 C 0.59482 0.42504 0.95612 0.0
C510 C 0.59471 0.38953 0.97235 0.0
C511 C 0.57299 0.4521 0.9644 0.0
C512 C 0.55053 0.44422 0.98896 0.0
C513 C 0.55143 0.40975 0.00669 0.0
C514 C 0.57324 0.38264 0.99844 0.0
C515 C 0.52524 0.47107 0.99488 0.0
C516 C 0.52003 0.48459 0.02835 0.0
C517 C 0.5065 0.48365 0.96755 0.0
C518 C 0.50954 0.46856 0.93205 0.0
C519 C 0.50768 0.42958 0.92589 0.0
C520 C 0.51092 0.41549 0.89245 0.0
C521 C 0.51577 0.44014 0.86489 0.0
C522 C 0.5173 0.47894 0.8707 0.0
C523 C 0.51413 0.49317 0.90411 0.0
H524 H 0.51827 0.42918 0.83901 0.0
H525 H 0.48311 0.56392 0.16386 0.0
H526 H 0.89142 0.05416 0.43456 0.0
H527 H 0.92851 0.00566 0.44905 0.0
H528 H 0.96996 0.08068 0.52248 0.0
H529 H 0.93326 0.12949 0.50797 0.0
H530 H 0.01141 0.05062 0.48015 0.0
H531 H 0.92897 0.00427 0.54875 0.0
H532 H 0.87682 0.98297 0.55983 0.0
H533 H 0.88809 0.89313 0.48687 0.0
H534 H 0.9402 0.91423 0.47501 0.0
H535 H 0.10829 0.92167 0.56586 0.0
H536 H 0.07033 0.96796 0.54904 0.0
H537 H 0.03156 0.88828 0.47782 0.0
H538 H 0.0692 0.84141 0.49489 0.0
H539 H 0.9886 0.91976 0.51678 0.0
H540 H 0.07137 0.96499 0.44911 0.0
H541 H 0.12353 0.98617 0.4379 0.0
H542 H 0.11165 0.07804 0.50855 0.0
H543 H 0.05953 0.05711 0.52057 0.0
C544 C 0.90808 0.06021 0.45423 0.0
C545 C 0.90935 0.09592 0.46995 0.0
C546 C 0.92929 0.03237 0.4625 0.0
C547 C 0.95207 0.03953 0.48683 0.0
C548 C 0.95271 0.07459 0.50348 0.0
C549 C 0.93155 0.10243 0.49524 0.0
C550 C 0.97621 0.01134 0.49361 0.0
C551 C 0.00644 0.02215 0.48863 0.0
C552 C 0.9697 0.97384 0.5036 0.0
C553 C 0.93839 0.96108 0.51073 0.0
C554 C 0.92024 0.98017 0.53485 0.0
C555 C 0.8907 0.96809 0.54132 0.0
C556 C 0.87912 0.93678 0.52399 0.0
C557 C 0.89708 0.91742 0.50024 0.0
C558 C 0.92663 0.9294 0.49365 0.0
C559 C 0.09201 0.91403 0.54624 0.0
C560 C 0.09186 0.87765 0.53182 0.0
C561 C 0.0703 0.94065 0.53659 0.0
C562 C 0.04812 0.93168 0.51206 0.0
C563 C 0.0484 0.89581 0.49687 0.0
C564 C 0.07009 0.8691 0.50654 0.0
C565 C 0.02382 0.95914 0.5036 0.0
C566 C 0.99357 0.94819 0.50821 0.0
C567 C 0.0303 -0.00348 0.49321 0.0
C568 C 0.06162 0.00927 0.48597 0.0
C569 C 0.07995 0.98954 0.46247 0.0
C570 C 0.1095 0.00153 0.45593 0.0
C571 C 0.12092 0.03338 0.47257 0.0
C572 C 0.10278 0.05336 0.49571 0.0
C573 C 0.07322 0.04146 0.50237 0.0
H574 H 0.1438 0.04261 0.46747 0.0
H575 H 0.85624 0.92747 0.52904 0.0
H576 H 0.32037 0.84577 0.11815 0.0
H577 H 0.3129 0.91369 0.11482 0.0
H578 H 0.36891 0.91869 0.02395 0.0
H579 H 0.37677 0.85035 0.02716 0.0
H580 H 0.36378 0.98966 0.08138 0.0
H581 H 0.31248 0.91446 0.99315 0.0
H582 H 0.28753 0.85597 0.97416 0.0
H583 H 0.22174 0.86751 0.05495 0.0
H584 H 0.24653 0.92603 0.07453 0.0
H585 H 0.26706 0.14919 0.03437 0.0
H586 H 0.30156 0.09536 0.0298 0.0
H587 H 0.24385 0.03108 0.09754 0.0
H588 H 0.20927 0.08405 0.10201 0.0
H589 H 0.25808 0.99353 0.03844 0.0
H590 H 0.30953 0.07173 0.12447 0.0
H591 H 0.33577 0.12959 0.14306 0.0
H592 H 0.40302 0.11327 0.06473 0.0
H593 H 0.37684 0.05585 0.04505 0.0
C594 C 0.33195 0.86144 0.09813 0.0
C595 C 0.34855 0.84278 0.07245 0.0
C596 C 0.32793 0.90025 0.09649 0.0
C597 C 0.34022 0.92086 0.06903 0.0
C598 C 0.35951 0.90309 0.04545 0.0
C599 C 0.36378 0.86408 0.04723 0.0
C600 C 0.32664 0.95761 0.0609 0.0
C601 C 0.34097 0.99091 0.0712 0.0
C602 C 0.29697 0.95885 0.04761 0.0
C603 C 0.28144 0.92438 0.03538 0.0
C604 C 0.29276 0.90439 0.00692 0.0
C605 C 0.27866 0.87125 0.99606 0.0
C606 C 0.25312 0.85791 0.01342 0.0
C607 C 0.24154 0.87784 0.04155 0.0
C608 C 0.25556 0.91105 0.05249 0.0
C609 C 0.26177 0.1236 0.04837 0.0
C610 C 0.23527 0.12083 0.06839 0.0
C611 C 0.28158 0.09301 0.04581 0.0
C612 C 0.2752 0.05942 0.06338 0.0
C613 C 0.24905 0.05681 0.08367 0.0
C614 C 0.22929 0.08715 0.08617 0.0
C615 C 0.29471 0.02594 0.05995 0.0
C616 C 0.28128 0.9929 0.04753 0.0
C617 C 0.32529 0.02538 0.07078 0.0
C618 C 0.34101 0.05974 0.08299 0.0
C619 C 0.32975 0.08066 0.11098 0.0
C620 C 0.34463 0.11333 0.12177 0.0
C621 C 0.37099 0.12509 0.1051 0.0
C622 C 0.38257 0.10418 0.0776 0.0
C623 C 0.36771 0.0716 0.06659 0.0
H624 H 0.38247 0.15037 0.11353 0.0
H625 H 0.24228 0.83218 0.00501 0.0
H626 H 0.11567 0.63885 0.5471 0.0
H627 H 0.11446 0.56999 0.54744 0.0
H628 H 0.20142 0.56782 0.59771 0.0
H629 H 0.20279 0.63634 0.59774 0.0
H630 H 0.15372 0.52748 0.513 0.0
H631 H 0.20966 0.49293 0.64653 0.0
H632 H 0.20518 0.51436 0.70672 0.0
H633 H 0.11505 0.55375 0.68701 0.0
H634 H 0.11874 0.532 0.62683 0.0
H635 H 0.27885 0.41075 0.52973 0.0
H636 H 0.23822 0.45752 0.5279 0.0
H637 H 0.1756 0.37552 0.56836 0.0
H638 H 0.21603 0.32802 0.56896 0.0
H639 H 0.18595 0.44434 0.60906 0.0
H640 H 0.15204 0.40573 0.50093 0.0
H641 H 0.15182 0.38534 0.44022 0.0
H642 H 0.19238 0.49006 0.40974 0.0
H643 H 0.1933 0.51093 0.4703 0.0
C644 C 0.13428 0.62373 0.55885 0.0
C645 C 0.15953 0.64308 0.57204 0.0
C646 C 0.13348 0.5844 0.55904 0.0
C647 C 0.15769 0.56387 0.57284 0.0
C648 C 0.18222 0.58314 0.58749 0.0
C649 C 0.18312 0.62236 0.58716 0.0
C650 C 0.15979 0.5227 0.56793 0.0
C651 C 0.16026 0.50901 0.53402 0.0
C652 C 0.16705 0.49834 0.59557 0.0
C653 C 0.16451 0.5108 0.63205 0.0
C654 C 0.18876 0.50581 0.65507 0.0
C655 C 0.18639 0.51812 0.6892 0.0
C656 C 0.15986 0.53542 0.70068 0.0
C657 C 0.13561 0.54039 0.67807 0.0
C658 C 0.13784 0.52811 0.64393 0.0
C659 C 0.25622 0.40248 0.5373 0.0
C660 C 0.25047 0.36604 0.54964 0.0
C661 C 0.23303 0.42902 0.53602 0.0
C662 C 0.20398 0.41973 0.54781 0.0
C663 C 0.19783 0.38291 0.55879 0.0
C664 C 0.22088 0.35597 0.55915 0.0
C665 C 0.18229 0.45047 0.55399 0.0
C666 C 0.17827 0.4623 0.58817 0.0
C667 C 0.17152 0.47299 0.52664 0.0
C668 C 0.1727 0.45991 0.49029 0.0
C669 C 0.16124 0.42427 0.48137 0.0
C670 C 0.16086 0.41269 0.44693 0.0
C671 C 0.17184 0.43653 0.42112 0.0
C672 C 0.18366 0.47176 0.42975 0.0
C673 C 0.18409 0.48349 0.46414 0.0
H674 H 0.17137 0.42761 0.39446 0.0
H675 H 0.15809 0.54498 0.72709 0.0
H676 H 0.71611 0.42466 0.93293 0.0
H677 H 0.75508 0.47224 0.93994 0.0
H678 H 0.82117 0.38576 0.96071 0.0
H679 H 0.78198 0.33738 0.95404 0.0
H680 H 0.82476 0.45133 0.00439 0.0
H681 H 0.82267 0.42074 0.88455 0.0
H682 H 0.7959 0.40613 0.83059 0.0
H683 H 0.75749 0.51716 0.8291 0.0
H684 H 0.78325 0.53219 0.88365 0.0
H685 H 0.88876 0.64719 0.94084 0.0
H686 H 0.8896 0.5778 0.93815 0.0
H687 H 0.80481 0.574 0.99306 0.0
H688 H 0.8033 0.64274 0.9946 0.0
H689 H 0.83624 0.53942 0.90573 0.0
H690 H 0.81332 0.49896 0.04959 0.0
H691 H 0.83263 0.51675 0.10687 0.0
H692 H 0.91648 0.55217 0.06151 0.0
H693 H 0.89792 0.53404 0.00399 0.0
C694 C 0.73885 0.41558 0.93915 0.0
C695 C 0.74603 0.37719 0.94243 0.0
C696 C 0.76109 0.44282 0.9431 0.0
C697 C 0.79102 0.43229 0.95002 0.0
C698 C 0.79818 0.39422 0.95501 0.0
C699 C 0.77578 0.36675 0.95119 0.0
C700 C 0.81446 0.46173 0.951 0.0
C701 C 0.82793 0.47028 0.98273 0.0
C702 C 0.81908 0.48567 0.92227 0.0
C703 C 0.80506 0.47762 0.88823 0.0
C704 C 0.80859 0.44211 0.87269 0.0
C705 C 0.79353 0.43373 0.84199 0.0
C706 C 0.77518 0.46078 0.82626 0.0
C707 C 0.77188 0.49633 0.84118 0.0
C708 C 0.78672 0.5048 0.87202 0.0
C709 C 0.87059 0.63131 0.95267 0.0
C710 C 0.84575 0.64991 0.96752 0.0
C711 C 0.8712 0.59193 0.9513 0.0
C712 C 0.84752 0.57109 0.96589 0.0
C713 C 0.82352 0.58976 0.98219 0.0
C714 C 0.82248 0.62888 0.9827 0.0
C715 C 0.84447 0.53041 0.95976 0.0
C716 C 0.83459 0.51959 0.92698 0.0
C717 C 0.84271 0.50483 0.98762 0.0
C718 C 0.85418 0.51509 0.02237 0.0
C719 C 0.83599 0.51019 0.05181 0.0
C720 C 0.84678 0.52044 0.08434 0.0
C721 C 0.87575 0.5356 0.08783 0.0
C722 C 0.89402 0.54048 0.05878 0.0
C723 C 0.88335 0.53027 0.02619 0.0
H724 H 0.88404 0.54356 0.11303 0.0
H725 H 0.76338 0.45415 0.8026 0.0
H726 H 0.72593 0.15105 0.46591 0.0
H727 H 0.68517 0.10435 0.47121 0.0
H728 H 0.74201 0.02115 0.42255 0.0
H729 H 0.78245 0.06677 0.41725 0.0
H730 H 0.68345 0.02867 0.39294 0.0
H731 H 0.73411 0.02175 0.50733 0.0
H732 H 0.74706 0.04719 0.56457 0.0
H733 H 0.65301 0.06626 0.58586 0.0
H734 H 0.63957 0.04129 0.52848 0.0
H735 H 0.70047 0.84436 0.42556 0.0
H736 H 0.69844 0.91223 0.41976 0.0
H737 H 0.61601 0.91545 0.47923 0.0
H738 H 0.618 0.8466 0.48559 0.0
H739 H 0.65883 0.96452 0.50306 0.0
H740 H 0.61172 0.94452 0.39553 0.0
H741 H 0.60194 0.91366 0.33979 0.0
H742 H 0.69118 0.9422 0.30516 0.0
H743 H 0.70168 0.97301 0.36074 0.0
C744 C 0.72976 0.1227 0.45657 0.0
C745 C 0.7574 0.11273 0.44088 0.0
C746 C 0.70644 0.09622 0.45955 0.0
C747 C 0.71055 0.05966 0.44677 0.0
C748 C 0.73832 0.0495 0.43206 0.0
C749 C 0.76149 0.07563 0.42922 0.0
C750 C 0.68661 0.03091 0.44824 0.0
C751 C 0.67746 0.01484 0.41695 0.0
C752 C 0.67761 0.01418 0.47964 0.0
C753 C 0.68589 0.03029 0.51349 0.0
C754 C 0.71624 0.03185 0.52405 0.0
C755 C 0.72366 0.04604 0.55657 0.0
C756 C 0.70087 0.05841 0.57883 0.0
C757 C 0.67063 0.05675 0.56856 0.0
C758 C 0.66311 0.04262 0.53605 0.0
C759 C 0.6817 0.85926 0.43722 0.0
C760 C 0.65953 0.84009 0.45628 0.0
C761 C 0.68034 0.89812 0.43347 0.0
C762 C 0.65671 0.91878 0.44846 0.0
C763 C 0.63417 0.89986 0.46709 0.0
C764 C 0.63542 0.86064 0.47073 0.0
C765 C 0.6584 0.96031 0.4476 0.0
C766 C 0.66306 0.97913 0.47894 0.0
C767 C 0.66361 0.97942 0.41615 0.0
C768 C 0.65738 0.96134 0.38234 0.0
C769 C 0.62928 0.94419 0.37606 0.0
C770 C 0.62362 0.92667 0.34447 0.0
C771 C 0.64589 0.92602 0.31893 0.0
C772 C 0.6739 0.94289 0.32491 0.0
C773 C 0.67967 0.96054 0.35642 0.0
H774 H 0.64149 0.91249 0.29449 0.0
H775 H 0.70658 0.0691 0.6041 0.0
H776 H 0.61948 0.14711 0.97551 0.0
H777 H 0.61947 0.07809 0.97743 0.0
H778 H 0.69222 0.07575 0.90333 0.0
H779 H 0.69243 0.1443 0.90123 0.0
H780 H 0.65047 0.01755 0.89371 0.0
H781 H 0.70824 0.07879 0.98768 0.0
H782 H 0.71108 0.11956 0.03909 0.0
H783 H 0.64423 0.05149 0.08981 0.0
H784 H 0.64077 0.0106 0.03845 0.0
H785 H 0.77763 0.91365 0.91228 0.0
H786 H 0.73735 0.96006 0.91335 0.0
H787 H 0.68805 0.89294 0.98711 0.0
H788 H 0.72857 0.84547 0.98606 0.0
H789 H 0.69471 0.97204 0.00373 0.0
H790 H 0.65635 0.89697 0.91399 0.0
H791 H 0.65814 0.85706 0.86207 0.0
H792 H 0.69052 0.95068 0.8024 0.0
H793 H 0.68942 0.99104 0.85403 0.0
C794 C 0.63502 0.13182 0.95907 0.0
C795 C 0.65633 0.15107 0.93862 0.0
C796 C 0.63491 0.09246 0.96019 0.0
C797 C 0.65594 0.07199 0.94068 0.0
C798 C 0.67572 0.09111 0.91848 0.0
C799 C 0.67603 0.1303 0.91756 0.0
C800 C 0.66077 0.03134 0.9464 0.0
C801 C 0.65965 0.0072 0.91786 0.0
C802 C 0.6717 0.01766 0.97833 0.0
C803 C 0.67396 0.04202 0.00918 0.0
C804 C 0.69402 0.07271 0.00974 0.0
C805 C 0.69576 0.0958 0.03885 0.0
C806 C 0.67777 0.08819 0.06765 0.0
C807 C 0.65808 0.0574 0.06744 0.0
C808 C 0.65621 0.03428 0.03835 0.0
C809 C 0.75834 0.90857 0.92885 0.0
C810 C 0.75635 0.87585 0.94914 0.0
C811 C 0.73517 0.93499 0.92914 0.0
C812 C 0.70956 0.92944 0.94979 0.0
C813 C 0.70755 0.8973 0.97069 0.0
C814 C 0.73071 0.8704 0.97011 0.0
C815 C 0.68623 0.9591 0.95037 0.0
C816 C 0.68391 0.98132 0.98008 0.0
C817 C 0.67231 0.97104 0.91942 0.0
C818 C 0.67273 0.9471 0.88799 0.0
C819 C 0.66398 0.90905 0.88984 0.0
C820 C 0.66487 0.88633 0.86044 0.0
C821 C 0.67441 0.90133 0.82895 0.0
C822 C 0.68306 0.93912 0.82679 0.0
C823 C 0.68223 0.96197 0.85612 0.0
H824 H 0.67511 0.88369 0.80622 0.0
H825 H 0.67914 0.1061 0.09017 0.0
H826 H 0.78254 0.64835 0.46696 0.0
H827 H 0.81944 0.59734 0.47422 0.0
H828 H 0.74767 0.51553 0.46689 0.0
H829 H 0.71085 0.56598 0.45939 0.0
H830 H 0.7917 0.49761 0.51725 0.0
H831 H 0.78284 0.53951 0.39618 0.0
H832 H 0.78717 0.58781 0.35062 0.0
H833 H 0.88057 0.60465 0.37643 0.0
H834 H 0.87662 0.55674 0.42246 0.0
H835 H 0.81861 0.34483 0.39963 0.0
H836 H 0.81583 0.41296 0.40713 0.0
H837 H 0.87865 0.40617 0.49192 0.0
H838 H 0.88184 0.33784 0.48439 0.0
H839 H 0.85505 0.4771 0.41319 0.0
H840 H 0.8412 0.4552 0.55644 0.0
H841 H 0.83266 0.40408 0.59864 0.0
H842 H 0.7795 0.34389 0.52428 0.0
H843 H 0.78737 0.39493 0.48193 0.0
C844 C 0.77461 0.61948 0.46752 0.0
C845 C 0.74389 0.61101 0.46219 0.0
C846 C 0.79568 0.59051 0.47172 0.0
C847 C 0.78617 0.55287 0.47106 0.0
C848 C 0.75535 0.54451 0.46768 0.0
C849 C 0.73439 0.57331 0.46305 0.0
C850 C 0.80806 0.52165 0.46974 0.0
C851 C 0.8063 0.49354 0.49507 0.0
C852 C 0.82697 0.51646 0.44072 0.0
C853 C 0.82934 0.545 0.41298 0.0
C854 C 0.80422 0.55375 0.39228 0.0
C855 C 0.80661 0.581 0.36636 0.0
C856 C 0.8341 0.59939 0.36071 0.0
C857 C 0.85927 0.59046 0.3809 0.0
C858 C 0.85697 0.56328 0.4069 0.0
C859 C 0.83246 0.35795 0.41926 0.0
C860 C 0.84995 0.33606 0.44186 0.0
C861 C 0.83112 0.39687 0.42328 0.0
C862 C 0.84689 0.41433 0.45023 0.0
C863 C 0.86641 0.39303 0.47097 0.0
C864 C 0.86807 0.35405 0.46668 0.0
C865 C 0.83799 0.45274 0.46022 0.0
C866 C 0.84199 0.48206 0.43645 0.0
C867 C 0.82081 0.45891 0.49047 0.0
C868 C 0.81521 0.42859 0.51598 0.0
C869 C 0.82762 0.43109 0.5492 0.0
C870 C 0.82289 0.40215 0.57312 0.0
C871 C 0.80565 0.37067 0.5641 0.0
C872 C 0.79293 0.36821 0.53121 0.0
C873 C 0.79751 0.39713 0.50726 0.0
H874 H 0.80209 0.34825 0.58261 0.0
H875 H 0.83591 0.62047 0.34063 0.0
H876 H 0.18489 0.36049 0.08175 0.0
H877 H 0.18412 0.429 0.07657 0.0
H878 H 0.12853 0.4207 0.98555 0.0
H879 H 0.12862 0.35173 0.99103 0.0
H880 H 0.18462 0.46172 0.97858 0.0
H881 H 0.09624 0.4649 0.04545 0.0
H882 H 0.06121 0.44655 0.09196 0.0
H883 H 0.12454 0.48549 0.16777 0.0
H884 H 0.16019 0.50352 0.12182 0.0
H885 H 0.24158 0.652 0.00906 0.0
H886 H 0.20237 0.60575 0.99387 0.0
H887 H 0.22568 0.54019 0.08381 0.0
H888 H 0.26474 0.58544 0.09874 0.0
H889 H 0.16278 0.55013 0.07432 0.0
H890 H 0.2556 0.52319 0.00924 0.0
H891 H 0.29401 0.53374 0.96427 0.0
H892 H 0.22503 0.5321 0.88647 0.0
H893 H 0.18601 0.52313 0.93119 0.0
C894 C 0.17218 0.37326 0.06091 0.0
C895 C 0.15699 0.35099 0.03667 0.0
C896 C 0.17147 0.41232 0.05818 0.0
C897 C 0.15591 0.42969 0.03094 0.0
C898 C 0.14026 0.40764 0.00697 0.0
C899 C 0.14043 0.36842 0.0101 0.0
C900 C 0.15993 0.47044 0.02572 0.0
C901 C 0.1789 0.48173 0.9987 0.0
C902 C 0.15232 0.49613 0.05207 0.0
C903 C 0.1309 0.4857 0.08005 0.0
C904 C 0.10278 0.46943 0.07203 0.0
C905 C 0.0828 0.45907 0.09832 0.0
C906 C 0.09063 0.46489 0.13279 0.0
C907 C 0.11846 0.48109 0.14104 0.0
C908 C 0.13854 0.49149 0.11486 0.0
C909 C 0.23811 0.62777 0.02561 0.0
C910 C 0.25628 0.62205 0.05496 0.0
C911 C 0.21574 0.60158 0.01695 0.0
C912 C 0.21109 0.5699 0.03793 0.0
C913 C 0.22879 0.56474 0.06752 0.0
C914 C 0.25131 0.59037 0.07582 0.0
C915 C 0.18944 0.54008 0.02878 0.0
C916 C 0.16706 0.53101 0.05306 0.0
C917 C 0.19434 0.51611 1.0002 0.0
C918 C 0.21776 0.52359 0.97369 0.0
C919 C 0.2485 0.52606 0.98267 0.0
C920 C 0.27042 0.5316 0.95719 0.0
C921 C 0.26196 0.53386 0.92255 0.0
C922 C 0.23155 0.53057 0.91333 0.0
C923 C 0.2095 0.52558 0.93875 0.0
H924 H 0.27897 0.53796 0.90284 0.0
H925 H 0.07514 0.45682 0.1531 0.0
H926 H 0.2803 0.83351 0.54541 0.0
H927 H 0.31705 0.88262 0.53059 0.0
H928 H 0.24892 0.96768 0.54739 0.0
H929 H 0.21223 0.91928 0.56189 0.0
H930 H 0.28327 0.98271 0.49037 0.0
H931 H 0.29713 0.94033 0.61036 0.0
H932 H 0.3104 0.89255 0.65397 0.0
H933 H 0.39809 0.87932 0.60794 0.0
H934 H 0.38497 0.92637 0.56345 0.0
H935 H 0.31191 0.13738 0.58772 0.0
H936 H 0.3102 0.06921 0.58102 0.0
H937 H 0.38314 0.07423 0.5074 0.0
H938 H 0.38501 0.143 0.51377 0.0
H939 H 0.36446 0.00447 0.57632 0.0
H940 H 0.34929 0.05406 0.45677 0.0
H941 H 0.33305 0.10637 0.41902 0.0
H942 H 0.24649 0.10851 0.46916 0.0
H943 H 0.26242 0.05647 0.50742 0.0
C944 C 0.27308 0.86267 0.54557 0.0
C945 C 0.24341 0.87254 0.55522 0.0
C946 C 0.2941 0.8906 0.53705 0.0
C947 C 0.28567 0.92867 0.53799 0.0
C948 C 0.25581 0.9384 0.54633 0.0
C949 C 0.23492 0.91067 0.55493 0.0
C950 C 0.30793 0.95921 0.53323 0.0
C951 C 0.30169 0.98691 0.50843 0.0
C952 C 0.33217 0.96453 0.55655 0.0
C953 C 0.33992 0.93638 0.58332 0.0
C954 C 0.31913 0.92695 0.60936 0.0
C955 C 0.32664 0.90005 0.63427 0.0
C956 C 0.35508 0.88289 0.63374 0.0
C957 C 0.37604 0.89256 0.60827 0.0
C958 C 0.36856 0.91927 0.58315 0.0
C959 C 0.32807 0.12401 0.57066 0.0
C960 C 0.34819 0.14556 0.55077 0.0
C961 C 0.32724 0.08506 0.5671 0.0
C962 C 0.34641 0.06702 0.54358 0.0
C963 C 0.36823 0.08789 0.52569 0.0
C964 C 0.3692 0.12709 0.52935 0.0
C965 C 0.33921 0.02797 0.53405 0.0
C966 C 0.3477 -0.00104 0.55654 0.0
C967 C 0.31708 0.02128 0.5086 0.0
C968 C 0.30706 0.05157 0.48492 0.0
C969 C 0.32683 0.06578 0.45972 0.0
C970 C 0.31769 0.09537 0.43827 0.0
C971 C 0.28877 0.11079 0.44172 0.0
C972 C 0.26888 0.09654 0.46652 0.0
C973 C 0.27793 0.06697 0.48804 0.0
H974 H 0.28177 0.13376 0.42516 0.0
H975 H 0.36095 0.86217 0.6531 0.0
H976 H 0.23626 0.21116 0.95348 0.0
H977 H 0.25529 0.21405 0.89446 0.0
H978 H 0.16504 0.23512 0.85717 0.0
H979 H 0.14568 0.23225 0.91636 0.0
H980 H 0.24332 0.17555 0.83403 0.0
H981 H 0.17224 0.30454 0.79447 0.0
H982 H 0.14598 0.35829 0.82158 0.0
H983 H 0.20798 0.35475 0.90666 0.0
H984 H 0.23485 0.30139 0.87981 0.0
H985 H 0.26099 0.21495 0.65377 0.0
H986 H 0.24048 0.20215 0.71116 0.0
H987 H 0.28923 0.29741 0.75181 0.0
H988 H 0.3097 0.31063 0.69465 0.0
H989 H 0.23127 0.29773 0.77318 0.0
H990 H 0.31321 0.20843 0.769 0.0
H991 H 0.34317 0.15607 0.74467 0.0
H992 H 0.26587 0.08333 0.75066 0.0
H993 H 0.23542 0.1353 0.77479 0.0
C994 C 0.22034 0.21598 0.93273 0.0
C995 C 0.18945 0.22182 0.9397 0.0
C996 C 0.23127 0.21742 0.89897 0.0
C997 C 0.21165 0.22515 0.87149 0.0
C998 C 0.1806 0.2294 0.87809 0.0
C999 C 0.16956 0.2276 0.9119 0.0
C1000 C 0.22415 0.23128 0.83642 0.0
C1001 C 0.24049 0.20214 0.82057 0.0
C1002 C 0.22097 0.26622 0.81919 0.0
C1003 C 0.2053 0.2987 0.83531 0.0
C1004 C 0.18031 0.31533 0.8189 0.0
C1005 C 0.16532 0.34572 0.83423 0.0
C1006 C 0.17523 0.35983 0.86588 0.0
C1007 C 0.20025 0.34369 0.88221 0.0
C1008 C 0.21534 0.31336 0.86697 0.0
C1009 C 0.26749 0.23312 0.67491 0.0
C1010 C 0.28692 0.26397 0.66942 0.0
C1011 C 0.2558 0.22566 0.70776 0.0
C1012 C 0.26337 0.24877 0.73581 0.0
C1013 C 0.28297 0.2793 0.73051 0.0
C1014 C 0.29471 0.28675 0.69775 0.0
C1015 C 0.25027 0.24187 0.77053 0.0
C1016 C 0.23382 0.27094 0.78637 0.0
C1017 C 0.25375 0.20705 0.78794 0.0
C1018 C 0.27198 0.17585 0.77332 0.0
C1019 C 0.30256 0.18136 0.76483 0.0
C1020 C 0.31963 0.15175 0.75116 0.0
C1021 C 0.30639 0.11648 0.74599 0.0
C1022 C 0.27608 0.11069 0.75461 0.0
C1023 C 0.25892 0.14018 0.76834 0.0
H1024 H 0.31965 0.09361 0.73539 0.0
H1025 H 0.16358 0.38331 0.87772 0.0
H1026 H 0.25571 0.25925 0.14792 0.0
H1027 H 0.28019 0.269 0.20389 0.0
H1028 H 0.19547 0.24809 0.25546 0.0
H1029 H 0.17095 0.2377 0.19974 0.0
H1030 H 0.22953 0.30932 0.28389 0.0
H1031 H 0.2403 0.1792 0.25184 0.0
H1032 H 0.25446 0.12595 0.21439 0.0
H1033 H 0.3469 0.16271 0.21494 0.0
H1034 H 0.33317 0.21658 0.25209 0.0
H1035 H 0.26464 0.25038 0.45087 0.0
H1036 H 0.24798 0.25139 0.39117 0.0
H1037 H 0.33968 0.26935 0.35732 0.0
H1038 H 0.35689 0.26825 0.41748 0.0
H1039 H 0.30702 0.21493 0.31768 0.0
H1040 H 0.29579 0.34244 0.35561 0.0
H1041 H 0.28066 0.39018 0.39839 0.0
H1042 H 0.18808 0.35535 0.38928 0.0
H1043 H 0.20273 0.30713 0.34663 0.0
C1044 C 0.24218 0.2574 0.17114 0.0
C1045 C 0.21143 0.24752 0.16943 0.0
C1046 C 0.25622 0.26281 0.20307 0.0
C1047 C 0.23966 0.259 0.23376 0.0
C1048 C 0.20863 0.25117 0.23205 0.0
C1049 C 0.19469 0.24511 0.20022 0.0
C1050 C 0.25495 0.26065 0.26772 0.0
C1051 C 0.24645 0.2887 0.29127 0.0
C1052 C 0.27735 0.23405 0.27716 0.0
C1053 C 0.28564 0.20217 0.25435 0.0
C1054 C 0.26358 0.1762 0.24363 0.0
C1055 C 0.27154 0.14585 0.22256 0.0
C1056 C 0.30155 0.14098 0.21228 0.0
C1057 C 0.32366 0.16655 0.22293 0.0
C1058 C 0.3158 0.19699 0.244 0.0
C1059 C 0.28144 0.25449 0.4309 0.0
C1060 C 0.31216 0.25953 0.43916 0.0
C1061 C 0.27179 0.2551 0.3967 0.0
C1062 C 0.29253 0.2609 0.36987 0.0
C1063 C 0.32332 0.26496 0.37772 0.0
C1064 C 0.33306 0.26447 0.41211 0.0
C1065 C 0.28151 0.26347 0.33384 0.0
C1066 C 0.29066 0.23611 0.30997 0.0
C1067 C 0.25965 0.29061 0.32412 0.0
C1068 C 0.25038 0.32108 0.34806 0.0
C1069 C 0.2722 0.34501 0.3627 0.0
C1070 C 0.26372 0.37212 0.38694 0.0
C1071 C 0.23345 0.37573 0.39662 0.0
C1072 C 0.21152 0.35254 0.38175 0.0
C1073 C 0.21989 0.32537 0.35745 0.0
H1074 H 0.22709 0.39645 0.41571 0.0
H1075 H 0.30766 0.11725 0.19623 0.0
H1076 H 0.74986 0.25179 0.34303 0.0
H1077 H 0.72761 0.26557 0.28664 0.0
H1078 H 0.79957 0.20417 0.23695 0.0
H1079 H 0.82197 0.19018 0.2931 0.0
H1080 H 0.78729 0.27249 0.20519 0.0
H1081 H 0.73236 0.16388 0.24644 0.0
H1082 H 0.70119 0.12849 0.28807 0.0
H1083 H 0.63121 0.21194 0.28009 0.0
H1084 H 0.66218 0.24812 0.23874 0.0
H1085 H 0.73387 0.23527 0.0394 0.0
H1086 H 0.7517 0.23133 0.09846 0.0
H1087 H 0.66957 0.28402 0.13418 0.0
H1088 H 0.651 0.28728 0.07457 0.0
H1089 H 0.68453 0.22717 0.17531 0.0
H1090 H 0.7373 0.33291 0.12958 0.0
H1091 H 0.76854 0.36873 0.08836 0.0
H1092 H 0.84271 0.29286 0.10539 0.0
H1093 H 0.81173 0.25613 0.14622 0.0
C1094 C 0.76106 0.24132 0.32012 0.0
C1095 C 0.78768 0.21972 0.32267 0.0
C1096 C 0.74821 0.24912 0.28791 0.0
C1097 C 0.7618 0.23565 0.25762 0.0
C1098 C 0.78869 0.2148 0.26001 0.0
C1099 C 0.8014 0.20671 0.29217 0.0
C1100 C 0.74797 0.24289 0.22335 0.0
C1101 C 0.76493 0.26235 0.1985 0.0
C1102 C 0.7184 0.23071 0.21507 0.0
C1103 C 0.69973 0.20893 0.23982 0.0
C1104 C 0.71044 0.17486 0.25379 0.0
C1105 C 0.69279 0.15462 0.27729 0.0
C1106 C 0.66428 0.16802 0.2868 0.0
C1107 C 0.65332 0.20164 0.27275 0.0
C1108 C 0.67091 0.22201 0.24927 0.0
C1109 C 0.7195 0.24625 0.05967 0.0
C1110 C 0.69104 0.26197 0.05207 0.0
C1111 C 0.72987 0.24409 0.09355 0.0
C1112 C 0.71234 0.25817 0.1208 0.0
C1113 C 0.68362 0.27324 0.11354 0.0
C1114 C 0.67304 0.27511 0.07947 0.0
C1115 C 0.72408 0.25624 0.15674 0.0
C1116 C 0.70675 0.2378 0.18198 0.0
C1117 C 0.75333 0.26953 0.16544 0.0
C1118 C 0.77206 0.29156 0.1408 0.0
C1119 C 0.76018 0.32365 0.12433 0.0
C1120 C 0.77786 0.34415 0.10104 0.0
C1121 C 0.80756 0.33303 0.0942 0.0
C1122 C 0.81967 0.30141 0.11067 0.0
C1123 C 0.80206 0.28075 0.13391 0.0
H1124 H 0.82121 0.34896 0.07618 0.0
H1125 H 0.65064 0.15231 0.30499 0.0
H1126 H 0.84977 0.18866 0.57378 0.0
H1127 H 0.83233 0.19593 0.63369 0.0
H1128 H 0.76454 0.27518 0.59998 0.0
H1129 H 0.78143 0.26787 0.54059 0.0
H1130 H 0.79684 0.29918 0.6579 0.0
H1131 H 0.74555 0.18786 0.61602 0.0
H1132 H 0.74433 0.12409 0.59112 0.0
H1133 H 0.79363 0.08117 0.67807 0.0
H1134 H 0.79598 0.14503 0.703 0.0
H1135 H 0.69362 0.31502 0.79491 0.0
H1136 H 0.71764 0.30345 0.73927 0.0
H1137 H 0.77127 0.21469 0.78439 0.0
H1138 H 0.7471 0.22572 0.84018 0.0
H1139 H 0.75109 0.19319 0.72308 0.0
H1140 H 0.80521 0.29925 0.76476 0.0
H1141 H 0.81506 0.36221 0.78881 0.0
H1142 H 0.76634 0.41319 0.70511 0.0
H1143 H 0.75649 0.35035 0.68031 0.0
C1144 C 0.8312 0.20765 0.57924 0.0
C1145 C 0.81681 0.2274 0.5524 0.0
C1146 C 0.82121 0.21169 0.61339 0.0
C1147 C 0.79699 0.23591 0.6212 0.0
C1148 C 0.78318 0.25626 0.59454 0.0
C1149 C 0.79279 0.25186 0.56054 0.0
C1150 C 0.78558 0.24024 0.65698 0.0
C1151 C 0.78658 0.27609 0.67205 0.0
C1152 C 0.77318 0.2098 0.67587 0.0
C1153 C 0.77127 0.17132 0.66117 0.0
C1154 C 0.7564 0.16491 0.62968 0.0
C1155 C 0.75548 0.12872 0.61557 0.0
C1156 C 0.76891 0.09857 0.63299 0.0
C1157 C 0.78328 0.10456 0.66458 0.0
C1158 C 0.78446 0.14077 0.67868 0.0
C1159 C 0.71046 0.29295 0.79311 0.0
C1160 C 0.71846 0.27146 0.82224 0.0
C1161 C 0.72434 0.28652 0.76123 0.0
C1162 C 0.74665 0.25859 0.75769 0.0
C1163 C 0.75422 0.2365 0.78647 0.0
C1164 C 0.74037 0.24292 0.81841 0.0
C1165 C 0.76183 0.25243 0.72385 0.0
C1166 C 0.7615 0.21627 0.7091 0.0
C1167 C 0.77537 0.28243 0.70538 0.0
C1168 C 0.77984 0.32012 0.72092 0.0
C1169 C 0.79628 0.32387 0.75172 0.0
C1170 C 0.80196 0.35955 0.7654 0.0
C1171 C 0.79116 0.39172 0.74863 0.0
C1172 C 0.77464 0.38824 0.71811 0.0
C1173 C 0.7691 0.35261 0.70415 0.0
H1174 H 0.79579 0.41934 0.75912 0.0
H1175 H 0.76815 0.07054 0.62208 0.0
H1176 H 0.85953 0.78235 0.09306 0.0
H1177 H 0.84381 0.77964 0.15369 0.0
H1178 H 0.75267 0.75385 0.12207 0.0
H1179 H 0.76778 0.75755 0.06207 0.0
H1180 H 0.75035 0.80141 0.17216 0.0
H1181 H 0.80422 0.68523 0.15142 0.0
H1182 H 0.84801 0.64626 0.13465 0.0
H1183 H 0.90119 0.69683 0.21477 0.0
H1184 H 0.85778 0.73643 0.23175 0.0
H1185 H 0.68629 0.70231 0.31277 0.0
H1186 H 0.70978 0.71828 0.25757 0.0
H1187 H 0.78647 0.76522 0.31084 0.0
H1188 H 0.76294 0.7498 0.36638 0.0
H1189 H 0.8008 0.71424 0.25404 0.0
H1190 H 0.74189 0.82499 0.27816 0.0
H1191 H 0.6956 0.85938 0.29457 0.0
H1192 H 0.64932 0.8138 0.20675 0.0
H1193 H 0.69518 0.77876 0.19008 0.0
C1194 C 0.83611 0.77634 0.09906 0.0
C1195 C 0.815 0.7701 0.07253 0.0
C1196 C 0.82717 0.77462 0.13376 0.0
C1197 C 0.79707 0.76613 0.14256 0.0
C1198 C 0.77598 0.76057 0.11608 0.0
C1199 C 0.78476 0.76261 0.08161 0.0
C1200 C 0.78715 0.76228 0.17912 0.0
C1201 C 0.76138 0.78221 0.18995 0.0
C1202 C 0.8018 0.73784 0.20275 0.0
C1203 C 0.82789 0.71411 0.19256 0.0
C1204 C 0.82533 0.68825 0.16527 0.0
C1205 C 0.85006 0.66601 0.15577 0.0
C1206 C 0.87739 0.66916 0.17355 0.0
C1207 C 0.88002 0.69448 0.20096 0.0
C1208 C 0.85537 0.71681 0.21055 0.0
C1209 C 0.70815 0.71604 0.31282 0.0
C1210 C 0.72271 0.72483 0.34401 0.0
C1211 C 0.7215 0.72523 0.28124 0.0
C1212 C 0.7498 0.74303 0.28017 0.0
C1213 C 0.76461 0.75151 0.31117 0.0
C1214 C 0.75105 0.74284 0.34284 0.0
C1215 C 0.76372 0.75265 0.24649 0.0
C1216 C 0.79017 0.73385 0.23632 0.0
C1217 C 0.74945 0.77765 0.22323 0.0
C1218 C 0.72193 0.79905 0.23301 0.0
C1219 C 0.72178 0.8221 0.26248 0.0
C1220 C 0.69563 0.84175 0.27181 0.0
C1221 C 0.66953 0.8387 0.25176 0.0
C1222 C 0.66954 0.81612 0.22228 0.0
C1223 C 0.69562 0.7964 0.21285 0.0
H1224 H 0.64933 0.8539 0.25901 0.0
H1225 H 0.89651 0.65192 0.16616 0.0
H1226 H 0.75111 0.72484 0.86347 0.0
H1227 H 0.72733 0.71258 0.80759 0.0
H1228 H 0.79644 0.77817 0.75702 0.0
H1229 H 0.82012 0.79082 0.81247 0.0
H1230 H 0.74208 0.79944 0.73591 0.0
H1231 H 0.79463 0.6825 0.75064 0.0
H1232 H 0.80938 0.62399 0.78055 0.0
H1233 H 0.71719 0.58629 0.77924 0.0
H1234 H 0.70179 0.64489 0.7497 0.0
H1235 H 0.73356 0.74876 0.56217 0.0
H1236 H 0.74903 0.7522 0.62218 0.0
H1237 H 0.66355 0.70537 0.65393 0.0
H1238 H 0.64746 0.70199 0.59325 0.0
H1239 H 0.71928 0.67343 0.68713 0.0
H1240 H 0.66917 0.79162 0.6663 0.0
H1241 H 0.65827 0.84967 0.63359 0.0
H1242 H 0.75072 0.88448 0.64412 0.0
H1243 H 0.7623 0.82634 0.67644 0.0
C1244 C 0.76146 0.73628 0.84042 0.0
C1245 C 0.78741 0.75909 0.84258 0.0
C1246 C 0.74784 0.7292 0.80847 0.0
C1247 C 0.76006 0.74453 0.77809 0.0
C1248 C 0.78646 0.76629 0.78012 0.0
C1249 C 0.80001 0.77344 0.81193 0.0
C1250 C 0.74481 0.73949 0.74425 0.0
C1251 C 0.73728 0.77184 0.72524 0.0
C1252 C 0.73784 0.70353 0.73059 0.0
C1253 C 0.74699 0.66829 0.74835 0.0
C1254 C 0.77744 0.6619 0.75702 0.0
C1255 C 0.78594 0.62869 0.77384 0.0
C1256 C 0.76422 0.6015 0.78189 0.0
C1257 C 0.73397 0.60742 0.77304 0.0
C1258 C 0.72535 0.64062 0.75624 0.0
C1259 C 0.71792 0.73898 0.58172 0.0
C1260 C 0.68915 0.72516 0.57276 0.0
C1261 C 0.72687 0.74105 0.61609 0.0
C1262 C 0.70741 0.72921 0.64245 0.0
C1263 C 0.67888 0.71464 0.63386 0.0
C1264 C 0.66969 0.71292 0.59925 0.0
C1265 C 0.7171 0.73335 0.67883 0.0
C1266 C 0.72364 0.70094 0.69822 0.0
C1267 C 0.7236 0.76926 0.69273 0.0
C1268 C 0.71664 0.80447 0.6736 0.0
C1269 C 0.68723 0.81151 0.66143 0.0
C1270 C 0.68092 0.84446 0.64299 0.0
C1271 C 0.7038 0.87072 0.63673 0.0
C1272 C 0.73302 0.86412 0.64897 0.0
C1273 C 0.73946 0.83119 0.6674 0.0
H1274 H 0.69887 0.8962 0.62244 0.0
H1275 H 0.77087 0.57581 0.79488 0.0
H1276 H 0.20452 0.82298 0.70417 0.0
H1277 H 0.22771 0.81371 0.76057 0.0
H1278 H 0.26361 0.7068 0.72732 0.0
H1279 H 0.24048 0.71583 0.67045 0.0
H1280 H 0.23777 0.70432 0.79382 0.0
H1281 H 0.30951 0.77865 0.73109 0.0
H1282 H 0.32735 0.83172 0.69561 0.0
H1283 H 0.30073 0.90962 0.77465 0.0
H1284 H 0.28212 0.85696 0.81039 0.0
H1285 H 0.3455 0.69297 0.93463 0.0
H1286 H 0.32716 0.69833 0.87493 0.0
H1287 H 0.27163 0.79298 0.90398 0.0
H1288 H 0.2888 0.78683 0.9637 0.0
H1289 H 0.31058 0.79889 0.83832 0.0
H1290 H 0.23364 0.72777 0.89726 0.0
H1291 H 0.21585 0.6764 0.93496 0.0
H1292 H 0.2516 0.59464 0.86429 0.0
H1293 H 0.2702 0.64564 0.82653 0.0
C1294 C 0.21727 0.79739 0.70872 0.0
C1295 C 0.22072 0.77023 0.68257 0.0
C1296 C 0.2306 0.79221 0.74103 0.0
C1297 C 0.24764 0.75974 0.74806 0.0
C1298 C 0.25062 0.73212 0.72239 0.0
C1299 C 0.23748 0.73742 0.68986 0.0
C1300 C 0.2625 0.75509 0.78216 0.0
C1301 C 0.2541 0.72463 0.80325 0.0
C1302 C 0.28331 0.78205 0.79487 0.0
C1303 C 0.29418 0.81385 0.7733 0.0
C1304 C 0.30716 0.80711 0.74077 0.0
C1305 C 0.31748 0.83714 0.72064 0.0
C1306 C 0.3152 0.87406 0.73286 0.0
C1307 C 0.30249 0.88101 0.76521 0.0
C1308 C 0.29205 0.85108 0.78543 0.0
C1309 C 0.32958 0.71508 0.92816 0.0
C1310 C 0.31856 0.7395 0.95377 0.0
C1311 C 0.31909 0.71804 0.89416 0.0
C1312 C 0.29807 0.74605 0.88519 0.0
C1313 C 0.2879 0.77125 0.91044 0.0
C1314 C 0.29768 0.76765 0.94451 0.0
C1315 C 0.28574 0.74836 0.84975 0.0
C1316 C 0.29454 0.7784 0.82857 0.0
C1317 C 0.26516 0.72128 0.83708 0.0
C1318 C 0.2537 0.69049 0.85936 0.0
C1319 C 0.23802 0.69884 0.88997 0.0
C1320 C 0.22774 0.66981 0.91132 0.0
C1321 C 0.2327 0.63229 0.90213 0.0
C1322 C 0.24786 0.62372 0.87148 0.0
C1323 C 0.25829 0.65268 0.85008 0.0
H1324 H 0.22466 0.60997 0.91876 0.0
H1325 H 0.32336 0.89727 0.71733 0.0
H1326 H 0.23696 0.76307 0.46408 0.0
H1327 H 0.25288 0.75852 0.40414 0.0
H1328 H 0.16055 0.74015 0.37298 0.0
H1329 H 0.14419 0.74461 0.43338 0.0
H1330 H 0.20051 0.68992 0.34228 0.0
H1331 H 0.19191 0.82325 0.35712 0.0
H1332 H 0.20044 0.88411 0.38611 0.0
H1333 H 0.29619 0.87216 0.37157 0.0
H1334 H 0.28826 0.81094 0.34292 0.0
H1335 H 0.25885 0.76561 0.16575 0.0
H1336 H 0.23514 0.77587 0.22197 0.0
H1337 H 0.28448 0.68154 0.2638 0.0
H1338 H 0.30836 0.67102 0.2078 0.0
H1339 H 0.25971 0.7915 0.28582 0.0
H1340 H 0.23709 0.6354 0.32029 0.0
H1341 H 0.22703 0.57523 0.29067 0.0
H1342 H 0.1896 0.63509 0.20439 0.0
H1343 H 0.19902 0.69556 0.2337 0.0
C1344 C 0.21988 0.75814 0.4446 0.0
C1345 C 0.18921 0.75419 0.4537 0.0
C1346 C 0.22908 0.75571 0.41023 0.0
C1347 C 0.20792 0.74927 0.38401 0.0
C1348 C 0.17727 0.74521 0.39283 0.0
C1349 C 0.16795 0.74793 0.42733 0.0
C1350 C 0.21818 0.74612 0.34758 0.0
C1351 C 0.21332 0.71219 0.32988 0.0
C1352 C 0.23465 0.77533 0.33121 0.0
C1353 C 0.23949 0.81236 0.34808 0.0
C1354 C 0.2148 0.83348 0.3603 0.0
C1355 C 0.21952 0.86806 0.37665 0.0
C1356 C 0.24884 0.88196 0.38074 0.0
C1357 C 0.27349 0.86135 0.36839 0.0
C1358 C 0.26889 0.82673 0.35206 0.0
C1359 C 0.26473 0.74702 0.18687 0.0
C1360 C 0.28544 0.71732 0.18206 0.0
C1361 C 0.25119 0.75303 0.21905 0.0
C1362 C 0.25777 0.72925 0.24699 0.0
C1363 C 0.27875 0.69995 0.24247 0.0
C1364 C 0.29248 0.69408 0.21041 0.0
C1365 C 0.24267 0.73496 0.28088 0.0
C1366 C 0.24672 0.76933 0.29813 0.0
C1367 C 0.22526 0.70627 0.29671 0.0
C1368 C 0.21903 0.67002 0.27909 0.0
C1369 C 0.22659 0.63571 0.29507 0.0
C1370 C 0.22101 0.60155 0.27832 0.0
C1371 C 0.20776 0.60134 0.24562 0.0
C1372 C 0.19996 0.63529 0.22966 0.0
C1373 C 0.20545 0.66952 0.24632 0.0
H1374 H 0.2035 0.57487 0.23269 0.0
H1375 H 0.25245 0.90873 0.39342 0.0
loop_
_geom_bond_atom_site_label_1
_geom_bond_atom_site_label_2
_geom_bond_distance
_geom_bond_site_symmetry_2
_ccdc_geom_bond_type
Sc0 O3 2.025 . S
Sc0 O10 2.105 . S
Sc0 O13 2.105 . S
Sc0 O16 2.105 . S
Sc0 O19 2.105 . S
Sc1 O3 2.025 . S
Sc1 O11 2.105 . S
Sc1 O15 2.105 . S
Sc1 O17 2.105 . S
Sc1 O21 2.105 . S
Sc2 O3 2.025 . S
Sc2 O12 2.105 . S
Sc2 O14 2.105 . S
Sc2 O18 2.105 . S
Sc2 O20 2.105 . S
O3 Sc0 2.025 . S
O3 Sc1 2.025 . S
O3 Sc2 2.025 . S
C4 O10 1.268 . S
C4 O20 1.268 . S
C5 O11 1.268 . S
C5 O19 1.268 . S
C6 O12 1.268 . S
C6 O21 1.268 . S
C7 O13 1.268 . S
C7 O17 1.268 . S
C8 O14 1.268 . S
C8 O16 1.268 . S
C9 O15 1.268 . S
C9 O18 1.268 . S
O10 Sc0 2.105 . S
O10 C4 1.268 . S
O11 Sc1 2.105 . S
O11 C5 1.268 . S
O12 Sc2 2.105 . S
O12 C6 1.268 . S
O13 Sc0 2.105 . S
O13 C7 1.268 . S
O14 Sc2 2.105 . S
O14 C8 1.268 . S
O15 Sc1 2.105 . S
O15 C9 1.268 . S
O16 Sc0 2.105 . S
O16 C8 1.268 . S
O17 Sc1 2.105 . S
O17 C7 1.268 . S
O18 Sc2 2.105 . S
O18 C9 1.268 . S
O19 Sc0 2.105 . S
O19 C5 1.268 . S
O20 Sc2 2.105 . S
O20 C4 1.268 . S
O21 Sc1 2.105 . S
O21 C6 1.268 . S
Sc22 O25 2.025 . S
Sc22 O32 2.105 . S
Sc22 O35 2.105 . S
Sc22 O38 2.105 . S
Sc22 O41 2.105 . S
Sc23 O25 2.025 . S
Sc23 O33 2.105 . S
Sc23 O37 2.105 . S
Sc23 O39 2.105 . S
Sc23 O43 2.105 . S
Sc24 O25 2.025 . S
Sc24 O34 2.105 . S
Sc24 O36 2.105 . S
Sc24 O40 2.105 . S
Sc24 O42 2.105 . S
O25 Sc22 2.025 . S
O25 Sc23 2.025 . S
O25 Sc24 2.025 . S
C26 O32 1.268 . S
C26 O42 1.268 . S
C27 O33 1.268 . S
C27 O41 1.268 . S
C28 O34 1.268 . S
C28 O43 1.268 . S
C29 O35 1.268 . S
C29 O39 1.268 . S
C30 O36 1.268 . S
C30 O38 1.268 . S
C31 O37 1.268 . S
C31 O40 1.268 . S
O32 Sc22 2.105 . S
O32 C26 1.268 . S
O33 Sc23 2.105 . S
O33 C27 1.268 . S
O34 Sc24 2.105 . S
O34 C28 1.268 . S
O35 Sc22 2.105 . S
O35 C29 1.268 . S
O36 Sc24 2.105 . S
O36 C30 1.268 . S
O37 Sc23 2.105 . S
O37 C31 1.268 . S
O38 Sc22 2.105 . S
O38 C30 1.268 . S
O39 Sc23 2.105 . S
O39 C29 1.268 . S
O40 Sc24 2.105 . S
O40 C31 1.268 . S
O41 Sc22 2.105 . S
O41 C27 1.268 . S
O42 Sc24 2.105 . S
O42 C26 1.268 . S
O43 Sc23 2.105 . S
O43 C28 1.268 . S
Sc44 O47 2.025 . S
Sc44 O54 2.105 . S
Sc44 O57 2.105 . S
Sc44 O60 2.105 . S
Sc44 O63 2.105 . S
Sc45 O47 2.025 . S
Sc45 O55 2.105 . S
Sc45 O59 2.105 . S
Sc45 O61 2.105 . S
Sc45 O65 2.105 . S
Sc46 O47 2.025 . S
Sc46 O56 2.105 . S
Sc46 O58 2.105 . S
Sc46 O62 2.105 . S
Sc46 O64 2.105 . S
O47 Sc44 2.025 . S
O47 Sc45 2.025 . S
O47 Sc46 2.025 . S
C48 O54 1.268 . S
C48 O64 1.268 . S
C49 O55 1.268 . S
C49 O63 1.268 . S
C50 O56 1.268 . S
C50 O65 1.268 . S
C51 O57 1.268 . S
C51 O61 1.268 . S
C52 O58 1.268 . S
C52 O60 1.268 . S
C53 O59 1.268 . S
C53 O62 1.268 . S
O54 Sc44 2.105 . S
O54 C48 1.268 . S
O55 Sc45 2.105 . S
O55 C49 1.268 . S
O56 Sc46 2.105 . S
O56 C50 1.268 . S
O57 Sc44 2.105 . S
O57 C51 1.268 . S
O58 Sc46 2.105 . S
O58 C52 1.268 . S
O59 Sc45 2.105 . S
O59 C53 1.268 . S
O60 Sc44 2.105 . S
O60 C52 1.268 . S
O61 Sc45 2.105 . S
O61 C51 1.268 . S
O62 Sc46 2.105 . S
O62 C53 1.268 . S
O63 Sc44 2.105 . S
O63 C49 1.268 . S
O64 Sc46 2.105 . S
O64 C48 1.268 . S
O65 Sc45 2.105 . S
O65 C50 1.268 . S
Sc66 O69 2.025 . S
Sc66 O76 2.105 . S
Sc66 O79 2.105 . S
Sc66 O82 2.105 . S
Sc66 O85 2.105 . S
Sc67 O69 2.025 . S
Sc67 O77 2.105 . S
Sc67 O81 2.105 . S
Sc67 O83 2.105 . S
Sc67 O87 2.105 . S
Sc68 O69 2.025 . S
Sc68 O78 2.105 . S
Sc68 O80 2.105 . S
Sc68 O84 2.105 . S
Sc68 O86 2.105 . S
O69 Sc66 2.025 . S
O69 Sc67 2.025 . S
O69 Sc68 2.025 . S
C70 O76 1.268 . S
C70 O86 1.268 . S
C71 O77 1.268 . S
C71 O85 1.268 . S
C72 O78 1.268 . S
C72 O87 1.268 . S
C73 O79 1.268 . S
C73 O83 1.268 . S
C74 O80 1.268 . S
C74 O82 1.268 . S
C75 O81 1.268 . S
C75 O84 1.268 . S
O76 Sc66 2.105 . S
O76 C70 1.268 . S
O77 Sc67 2.105 . S
O77 C71 1.268 . S
O78 Sc68 2.105 . S
O78 C72 1.268 . S
O79 Sc66 2.105 . S
O79 C73 1.268 . S
O80 Sc68 2.105 . S
O80 C74 1.268 . S
O81 Sc67 2.105 . S
O81 C75 1.268 . S
O82 Sc66 2.105 . S
O82 C74 1.268 . S
O83 Sc67 2.105 . S
O83 C73 1.268 . S
O84 Sc68 2.105 . S
O84 C75 1.268 . S
O85 Sc66 2.105 . S
O85 C71 1.268 . S
O86 Sc68 2.105 . S
O86 C70 1.268 . S
O87 Sc67 2.105 . S
O87 C72 1.268 . S
Sc88 O91 2.025 . S
Sc88 O98 2.105 . S
Sc88 O101 2.105 . S
Sc88 O104 2.105 . S
Sc88 O107 2.105 . S
Sc89 O91 2.025 . S
Sc89 O99 2.105 . S
Sc89 O103 2.105 . S
Sc89 O105 2.105 . S
Sc89 O109 2.105 . S
Sc90 O91 2.025 . S
Sc90 O100 2.105 . S
Sc90 O102 2.105 . S
Sc90 O106 2.105 . S
Sc90 O108 2.105 . S
O91 Sc88 2.025 . S
O91 Sc89 2.025 . S
O91 Sc90 2.025 . S
C92 O98 1.268 . S
C92 O108 1.268 . S
C93 O99 1.268 . S
C93 O107 1.268 . S
C94 O100 1.268 . S
C94 O109 1.268 . S
C95 O101 1.268 . S
C95 O105 1.268 . S
C96 O102 1.268 . S
C96 O104 1.268 . S
C97 O103 1.268 . S
C97 O106 1.268 . S
O98 Sc88 2.105 . S
O98 C92 1.268 . S
O99 Sc89 2.105 . S
O99 C93 1.268 . S
O100 Sc90 2.105 . S
O100 C94 1.268 . S
O101 Sc88 2.105 . S
O101 C95 1.268 . S
O102 Sc90 2.105 . S
O102 C96 1.268 . S
O103 Sc89 2.105 . S
O103 C97 1.268 . S
O104 Sc88 2.105 . S
O104 C96 1.268 . S
O105 Sc89 2.105 . S
O105 C95 1.268 . S
O106 Sc90 2.105 . S
O106 C97 1.268 . S
O107 Sc88 2.105 . S
O107 C93 1.268 . S
O108 Sc90 2.105 . S
O108 C92 1.268 . S
O109 Sc89 2.105 . S
O109 C94 1.268 . S
Sc110 O113 2.025 . S
Sc110 O120 2.105 . S
Sc110 O123 2.105 . S
Sc110 O126 2.105 . S
Sc110 O129 2.105 . S
Sc111 O113 2.025 . S
Sc111 O121 2.105 . S
Sc111 O125 2.105 . S
Sc111 O127 2.105 . S
Sc111 O131 2.105 . S
Sc112 O113 2.025 . S
Sc112 O122 2.105 . S
Sc112 O124 2.105 . S
Sc112 O128 2.105 . S
Sc112 O130 2.105 . S
O113 Sc110 2.025 . S
O113 Sc111 2.025 . S
O113 Sc112 2.025 . S
C114 O120 1.268 . S
C114 O130 1.268 . S
C115 O121 1.268 . S
C115 O129 1.268 . S
C116 O122 1.268 . S
C116 O131 1.268 . S
C117 O123 1.268 . S
C117 O127 1.268 . S
C118 O124 1.268 . S
C118 O126 1.268 . S
C119 O125 1.268 . S
C119 O128 1.268 . S
O120 Sc110 2.105 . S
O120 C114 1.268 . S
O121 Sc111 2.105 . S
O121 C115 1.268 . S
O122 Sc112 2.105 . S
O122 C116 1.268 . S
O123 Sc110 2.105 . S
O123 C117 1.268 . S
O124 Sc112 2.105 . S
O124 C118 1.268 . S
O125 Sc111 2.105 . S
O125 C119 1.268 . S
O126 Sc110 2.105 . S
O126 C118 1.268 . S
O127 Sc111 2.105 . S
O127 C117 1.268 . S
O128 Sc112 2.105 . S
O128 C119 1.268 . S
O129 Sc110 2.105 . S
O129 C115 1.268 . S
O130 Sc112 2.105 . S
O130 C114 1.268 . S
O131 Sc111 2.105 . S
O131 C116 1.268 . S
Sc132 O135 2.025 . S
Sc132 O142 2.105 . S
Sc132 O145 2.105 . S
Sc132 O148 2.105 . S
Sc132 O151 2.105 . S
Sc133 O135 2.025 . S
Sc133 O143 2.105 . S
Sc133 O147 2.105 . S
Sc133 O149 2.105 . S
Sc133 O153 2.105 . S
Sc134 O135 2.025 . S
Sc134 O144 2.105 . S
Sc134 O146 2.105 . S
Sc134 O150 2.105 . S
Sc134 O152 2.105 . S
O135 Sc132 2.025 . S
O135 Sc133 2.025 . S
O135 Sc134 2.025 . S
C136 O142 1.268 . S
C136 O152 1.268 . S
C137 O143 1.268 . S
C137 O151 1.268 . S
C138 O144 1.268 . S
C138 O153 1.268 . S
C139 O145 1.268 . S
C139 O149 1.268 . S
C140 O146 1.268 . S
C140 O148 1.268 . S
C141 O147 1.268 . S
C141 O150 1.268 . S
O142 Sc132 2.105 . S
O142 C136 1.268 . S
O143 Sc133 2.105 . S
O143 C137 1.268 . S
O144 Sc134 2.105 . S
O144 C138 1.268 . S
O145 Sc132 2.105 . S
O145 C139 1.268 . S
O146 Sc134 2.105 . S
O146 C140 1.268 . S
O147 Sc133 2.105 . S
O147 C141 1.268 . S
O148 Sc132 2.105 . S
O148 C140 1.268 . S
O149 Sc133 2.105 . S
O149 C139 1.268 . S
O150 Sc134 2.105 . S
O150 C141 1.268 . S
O151 Sc132 2.105 . S
O151 C137 1.268 . S
O152 Sc134 2.105 . S
O152 C136 1.268 . S
O153 Sc133 2.105 . S
O153 C138 1.268 . S
Sc154 O157 2.025 . S
Sc154 O164 2.105 . S
Sc154 O167 2.105 . S
Sc154 O170 2.105 . S
Sc154 O173 2.105 . S
Sc155 O157 2.025 . S
Sc155 O165 2.105 . S
Sc155 O169 2.105 . S
Sc155 O171 2.105 . S
Sc155 O175 2.105 . S
Sc156 O157 2.025 . S
Sc156 O166 2.105 . S
Sc156 O168 2.105 . S
Sc156 O172 2.105 . S
Sc156 O174 2.105 . S
O157 Sc154 2.025 . S
O157 Sc155 2.025 . S
O157 Sc156 2.025 . S
C158 O164 1.268 . S
C158 O174 1.268 . S
C159 O165 1.268 . S
C159 O173 1.268 . S
C160 O166 1.268 . S
C160 O175 1.268 . S
C161 O167 1.268 . S
C161 O171 1.268 . S
C162 O168 1.268 . S
C162 O170 1.268 . S
C163 O169 1.268 . S
C163 O172 1.268 . S
O164 Sc154 2.105 . S
O164 C158 1.268 . S
O165 Sc155 2.105 . S
O165 C159 1.268 . S
O166 Sc156 2.105 . S
O166 C160 1.268 . S
O167 Sc154 2.105 . S
O167 C161 1.268 . S
O168 Sc156 2.105 . S
O168 C162 1.268 . S
O169 Sc155 2.105 . S
O169 C163 1.268 . S
O170 Sc154 2.105 . S
O170 C162 1.268 . S
O171 Sc155 2.105 . S
O171 C161 1.268 . S
O172 Sc156 2.105 . S
O172 C163 1.268 . S
O173 Sc154 2.105 . S
O173 C159 1.268 . S
O174 Sc156 2.105 . S
O174 C158 1.268 . S
O175 Sc155 2.105 . S
O175 C160 1.268 . S
H176 C194 0.951 . S
H177 C196 0.951 . S
H178 C198 0.950 . S
H179 C199 0.950 . S
H180 C201 0.950 . S
H181 C204 0.950 . S
H182 C205 0.950 . S
H183 C207 0.950 . S
H184 C208 0.950 . S
H185 C209 0.951 . S
H186 C211 0.951 . S
H187 C213 0.950 . S
H188 C214 0.950 . S
H189 C216 0.950 . S
H190 C219 0.950 . S
H191 C220 0.950 . S
H192 C222 0.950 . S
H193 C223 0.950 . S
C194 H176 0.951 . S
C194 C195 1.366 . S
C194 C196 1.388 . S
C195 C194 1.366 . S
C195 C199 1.385 . S
C196 H177 0.951 . S
C196 C194 1.388 . S
C196 C197 1.366 . S
C197 C196 1.366 . S
C197 C198 1.414 . S
C197 C200 1.499 . S
C198 H178 0.950 . S
C198 C197 1.414 . S
C198 C199 1.374 . S
C199 H179 0.950 . S
C199 C195 1.385 . S
C199 C198 1.374 . S
C200 C197 1.499 . S
C200 C201 1.373 . S
C200 C202 1.389 1_455 S
C201 H180 0.950 . S
C201 C200 1.373 . S
C201 C217 1.377 . S
C202 C200 1.389 1_655 S
C202 C203 1.524 . S
C202 C216 1.377 . S
C203 C202 1.524 . S
C203 C204 1.397 1_655 S
C203 C208 1.363 . S
C204 H181 0.950 . S
C204 C203 1.397 1_455 S
C204 C205 1.334 . S
C205 H182 0.950 . S
C205 C204 1.334 . S
C205 C206 1.287 1_455 S
C206 C205 1.287 1_655 S
C206 C207 1.524 . S
C206 H225 0.913 . S
C207 H183 0.950 . S
C207 C206 1.524 . S
C207 C208 1.415 . S
C208 H184 0.950 . S
C208 C203 1.363 . S
C208 C207 1.415 . S
C209 H185 0.951 . S
C209 C210 1.366 . S
C209 C211 1.388 . S
C210 C209 1.366 . S
C210 C214 1.385 . S
C211 H186 0.951 . S
C211 C209 1.388 . S
C211 C212 1.366 . S
C212 C211 1.366 . S
C212 C213 1.414 . S
C212 C215 1.499 . S
C213 H187 0.950 . S
C213 C212 1.414 . S
C213 C214 1.374 . S
C214 H188 0.950 . S
C214 C210 1.385 . S
C214 C213 1.374 . S
C215 C212 1.499 . S
C215 C216 1.373 . S
C215 C217 1.389 1_655 S
C216 H189 0.950 . S
C216 C202 1.377 . S
C216 C215 1.373 . S
C217 C201 1.377 . S
C217 C215 1.389 1_455 S
C217 C218 1.524 . S
C218 C217 1.524 . S
C218 C219 1.397 1_455 S
C218 C223 1.363 . S
C219 H190 0.950 . S
C219 C218 1.397 1_655 S
C219 C220 1.334 . S
C220 H191 0.950 . S
C220 C219 1.334 . S
C220 C221 1.287 1_655 S
C221 C220 1.287 1_455 S
C221 C222 1.524 . S
C221 H224 0.999 . S
C222 H192 0.950 . S
C222 C221 1.524 . S
C222 C223 1.415 . S
C223 H193 0.950 . S
C223 C218 1.363 . S
C223 C222 1.415 . S
H224 C221 0.999 . S
H225 C206 0.913 . S
H226 C244 0.951 . S
H227 C246 0.951 . S
H228 C248 0.950 . S
H229 C249 0.950 . S
H230 C251 0.950 . S
H231 C254 0.950 . S
H232 C255 0.950 . S
H233 C257 0.950 . S
H234 C258 0.950 . S
H235 C259 0.951 . S
H236 C261 0.951 . S
H237 C263 0.950 . S
H238 C264 0.950 . S
H239 C266 0.950 . S
H240 C269 0.950 . S
H241 C270 0.950 . S
H242 C272 0.950 . S
H243 C273 0.950 . S
C244 H226 0.951 . S
C244 C245 1.366 . S
C244 C246 1.388 . S
C245 C244 1.366 . S
C245 C249 1.385 . S
C246 H227 0.951 . S
C246 C244 1.388 . S
C246 C247 1.366 . S
C247 C246 1.366 . S
C247 C248 1.414 . S
C247 C250 1.499 . S
C248 H228 0.950 . S
C248 C247 1.414 . S
C248 C249 1.374 . S
C249 H229 0.950 . S
C249 C245 1.385 . S
C249 C248 1.374 . S
C250 C247 1.499 . S
C250 C251 1.373 . S
C250 C252 1.389 . S
C251 H230 0.950 . S
C251 C250 1.373 . S
C251 C267 1.377 . S
C252 C250 1.389 . S
C252 C253 1.524 . S
C252 C266 1.377 . S
C253 C252 1.524 . S
C253 C254 1.397 . S
C253 C258 1.363 . S
C254 H231 0.950 . S
C254 C253 1.397 . S
C254 C255 1.334 . S
C255 H232 0.950 . S
C255 C254 1.334 . S
C255 C256 1.287 . S
C256 C255 1.287 . S
C256 C257 1.524 . S
C256 H275 0.913 . S
C257 H233 0.950 . S
C257 C256 1.524 . S
C257 C258 1.415 . S
C258 H234 0.950 . S
C258 C253 1.363 . S
C258 C257 1.415 . S
C259 H235 0.951 . S
C259 C260 1.366 . S
C259 C261 1.388 . S
C260 C259 1.366 . S
C260 C264 1.385 . S
C261 H236 0.951 . S
C261 C259 1.388 . S
C261 C262 1.366 . S
C262 C261 1.366 . S
C262 C263 1.414 . S
C262 C265 1.499 . S
C263 H237 0.950 . S
C263 C262 1.414 . S
C263 C264 1.374 . S
C264 H238 0.950 . S
C264 C260 1.385 . S
C264 C263 1.374 . S
C265 C262 1.499 . S
C265 C266 1.373 . S
C265 C267 1.389 . S
C266 H239 0.950 . S
C266 C252 1.377 . S
C266 C265 1.373 . S
C267 C251 1.377 . S
C267 C265 1.389 . S
C267 C268 1.524 . S
C268 C267 1.524 . S
C268 C269 1.397 . S
C268 C273 1.363 . S
C269 H240 0.950 . S
C269 C268 1.397 . S
C269 C270 1.334 . S
C270 H241 0.950 . S
C270 C269 1.334 . S
C270 C271 1.287 . S
C271 C270 1.287 . S
C271 C272 1.524 . S
C271 H274 0.999 . S
C272 H242 0.950 . S
C272 C271 1.524 . S
C272 C273 1.415 . S
C273 H243 0.950 . S
C273 C268 1.363 . S
C273 C272 1.415 . S
H274 C271 0.999 . S
H275 C256 0.913 . S
H276 C294 0.951 . S
H277 C296 0.951 . S
H278 C298 0.950 . S
H279 C299 0.950 . S
H280 C301 0.950 . S
H281 C304 0.950 . S
H282 C305 0.950 . S
H283 C307 0.950 . S
H284 C308 0.950 . S
H285 C309 0.951 . S
H286 C311 0.951 . S
H287 C313 0.950 . S
H288 C314 0.950 . S
H289 C316 0.950 . S
H290 C319 0.950 . S
H291 C320 0.950 . S
H292 C322 0.950 . S
H293 C323 0.950 . S
C294 H276 0.951 . S
C294 C295 1.366 . S
C294 C296 1.388 . S
C295 C294 1.366 . S
C295 C299 1.385 . S
C296 H277 0.951 . S
C296 C294 1.388 . S
C296 C297 1.366 . S
C297 C296 1.366 . S
C297 C298 1.414 . S
C297 C300 1.499 . S
C298 H278 0.950 . S
C298 C297 1.414 . S
C298 C299 1.374 . S
C299 H279 0.950 . S
C299 C295 1.385 . S
C299 C298 1.374 . S
C300 C297 1.499 . S
C300 C301 1.373 . S
C300 C302 1.389 . S
C301 H280 0.950 . S
C301 C300 1.373 . S
C301 C317 1.377 1_655 S
C302 C300 1.389 . S
C302 C303 1.524 . S
C302 C316 1.377 1_655 S
C303 C302 1.524 . S
C303 C304 1.397 . S
C303 C308 1.363 1_655 S
C304 H281 0.950 . S
C304 C303 1.397 . S
C304 C305 1.334 . S
C305 H282 0.950 . S
C305 C304 1.334 . S
C305 C306 1.287 . S
C306 C305 1.287 . S
C306 C307 1.524 1_655 S
C306 H325 0.913 . S
C307 H283 0.950 . S
C307 C306 1.524 1_455 S
C307 C308 1.415 . S
C308 H284 0.950 . S
C308 C303 1.363 1_455 S
C308 C307 1.415 . S
C309 H285 0.951 . S
C309 C310 1.366 . S
C309 C311 1.388 . S
C310 C309 1.366 . S
C310 C314 1.385 . S
C311 H286 0.951 . S
C311 C309 1.388 . S
C311 C312 1.366 . S
C312 C311 1.366 . S
C312 C313 1.414 . S
C312 C315 1.499 . S
C313 H287 0.950 . S
C313 C312 1.414 . S
C313 C314 1.374 . S
C314 H288 0.950 . S
C314 C310 1.385 . S
C314 C313 1.374 . S
C315 C312 1.499 . S
C315 C316 1.373 . S
C315 C317 1.389 . S
C316 H289 0.950 . S
C316 C302 1.377 1_455 S
C316 C315 1.373 . S
C317 C301 1.377 1_455 S
C317 C315 1.389 . S
C317 C318 1.524 . S
C318 C317 1.524 . S
C318 C319 1.397 . S
C318 C323 1.363 1_455 S
C319 H290 0.950 . S
C319 C318 1.397 . S
C319 C320 1.334 . S
C320 H291 0.950 . S
C320 C319 1.334 . S
C320 C321 1.287 . S
C321 C320 1.287 . S
C321 C322 1.524 1_455 S
C321 H324 0.999 . S
C322 H292 0.950 . S
C322 C321 1.524 1_655 S
C322 C323 1.415 . S
C323 H293 0.950 . S
C323 C318 1.363 1_655 S
C323 C322 1.415 . S
H324 C321 0.999 . S
H325 C306 0.913 . S
H326 C344 0.951 . S
H327 C346 0.951 . S
H328 C348 0.950 . S
H329 C349 0.950 . S
H330 C351 0.950 . S
H331 C354 0.950 . S
H332 C355 0.950 . S
H333 C357 0.950 . S
H334 C358 0.950 . S
H335 C359 0.951 . S
H336 C361 0.951 . S
H337 C363 0.950 . S
H338 C364 0.950 . S
H339 C366 0.950 . S
H340 C369 0.950 . S
H341 C370 0.950 . S
H342 C372 0.950 . S
H343 C373 0.950 . S
C344 H326 0.951 . S
C344 C345 1.366 . S
C344 C346 1.388 . S
C345 C344 1.366 . S
C345 C349 1.385 . S
C346 H327 0.951 . S
C346 C344 1.388 . S
C346 C347 1.366 . S
C347 C346 1.366 . S
C347 C348 1.414 . S
C347 C350 1.499 . S
C348 H328 0.950 . S
C348 C347 1.414 . S
C348 C349 1.374 . S
C349 H329 0.950 . S
C349 C345 1.385 . S
C349 C348 1.374 . S
C350 C347 1.499 . S
C350 C351 1.373 . S
C350 C352 1.389 . S
C351 H330 0.950 . S
C351 C350 1.373 . S
C351 C367 1.377 . S
C352 C350 1.389 . S
C352 C353 1.524 . S
C352 C366 1.377 . S
C353 C352 1.524 . S
C353 C354 1.397 . S
C353 C358 1.363 . S
C354 H331 0.950 . S
C354 C353 1.397 . S
C354 C355 1.334 . S
C355 H332 0.950 . S
C355 C354 1.334 . S
C355 C356 1.287 . S
C356 C355 1.287 . S
C356 C357 1.524 . S
C356 H375 0.913 . S
C357 H333 0.950 . S
C357 C356 1.524 . S
C357 C358 1.415 . S
C358 H334 0.950 . S
C358 C353 1.363 . S
C358 C357 1.415 . S
C359 H335 0.951 . S
C359 C360 1.366 . S
C359 C361 1.388 . S
C360 C359 1.366 . S
C360 C364 1.385 . S
C361 H336 0.951 . S
C361 C359 1.388 . S
C361 C362 1.366 . S
C362 C361 1.366 . S
C362 C363 1.414 . S
C362 C365 1.499 . S
C363 H337 0.950 . S
C363 C362 1.414 . S
C363 C364 1.374 . S
C364 H338 0.950 . S
C364 C360 1.385 . S
C364 C363 1.374 . S
C365 C362 1.499 . S
C365 C366 1.373 . S
C365 C367 1.389 . S
C366 H339 0.950 . S
C366 C352 1.377 . S
C366 C365 1.373 . S
C367 C351 1.377 . S
C367 C365 1.389 . S
C367 C368 1.524 . S
C368 C367 1.524 . S
C368 C369 1.397 . S
C368 C373 1.363 . S
C369 H340 0.950 . S
C369 C368 1.397 . S
C369 C370 1.334 . S
C370 H341 0.950 . S
C370 C369 1.334 . S
C370 C371 1.287 . S
C371 C370 1.287 . S
C371 C372 1.524 . S
C371 H374 0.999 . S
C372 H342 0.950 . S
C372 C371 1.524 . S
C372 C373 1.415 . S
C373 H343 0.950 . S
C373 C368 1.363 . S
C373 C372 1.415 . S
H374 C371 0.999 . S
H375 C356 0.913 . S
H376 C394 0.951 . S
H377 C396 0.951 . S
H378 C398 0.959 . S
H379 C399 0.950 . S
H380 C401 0.950 . S
H381 C404 0.950 . S
H382 C405 0.950 . S
H383 C407 0.950 . S
H384 C408 0.950 1_554 S
H385 C409 0.951 . S
H386 C411 0.951 . S
H387 C413 0.959 . S
H388 C414 0.950 . S
H389 C416 0.950 . S
H390 C419 0.950 . S
H391 C420 0.950 . S
H392 C422 0.950 . S
H393 C423 0.950 1_556 S
C394 H376 0.951 . S
C394 C395 1.366 . S
C394 C396 1.388 . S
C395 C394 1.366 . S
C395 C399 1.385 . S
C396 H377 0.951 . S
C396 C394 1.388 . S
C396 C397 1.366 . S
C397 C396 1.366 . S
C397 C398 1.414 . S
C397 C400 1.499 . S
C398 H378 0.959 . S
C398 C397 1.414 . S
C398 C399 1.374 . S
C399 H379 0.950 . S
C399 C395 1.385 . S
C399 C398 1.374 . S
C400 C397 1.499 . S
C400 C401 1.373 1_455 S
C400 C402 1.389 1_544 S
C401 H380 0.950 . S
C401 C400 1.373 1_655 S
C401 C417 1.377 . S
C402 C400 1.389 1_566 S
C402 C403 1.524 . S
C402 C416 1.377 . S
C403 C402 1.524 . S
C403 C404 1.397 1_565 S
C403 C408 1.363 . S
C404 H381 0.950 . S
C404 C403 1.397 1_545 S
C404 C405 1.334 . S
C405 H382 0.950 . S
C405 C404 1.334 . S
C405 C406 1.287 1_545 S
C406 C405 1.287 1_565 S
C406 C407 1.524 . S
C406 H425 0.913 . S
C407 H383 0.950 . S
C407 C406 1.524 . S
C407 C408 1.415 . S
C408 H384 0.950 1_556 S
C408 C403 1.363 . S
C408 C407 1.415 . S
C409 H385 0.951 . S
C409 C410 1.366 . S
C409 C411 1.388 . S
C410 C409 1.366 . S
C410 C414 1.385 . S
C411 H386 0.951 . S
C411 C409 1.388 . S
C411 C412 1.366 . S
C412 C411 1.366 . S
C412 C413 1.414 . S
C412 C415 1.499 . S
C413 H387 0.959 . S
C413 C412 1.414 . S
C413 C414 1.374 . S
C414 H388 0.950 . S
C414 C410 1.385 . S
C414 C413 1.374 . S
C415 C412 1.499 . S
C415 C416 1.373 1_655 S
C415 C417 1.389 1_566 S
C416 H389 0.950 . S
C416 C402 1.377 . S
C416 C415 1.373 1_455 S
C417 C401 1.377 . S
C417 C415 1.389 1_544 S
C417 C418 1.524 . S
C418 C417 1.524 . S
C418 C419 1.397 1_545 S
C418 C423 1.363 . S
C419 H390 0.950 . S
C419 C418 1.397 1_565 S
C419 C420 1.334 . S
C420 H391 0.950 . S
C420 C419 1.334 . S
C420 C421 1.287 1_565 S
C421 C420 1.287 1_545 S
C421 C422 1.524 . S
C421 H424 0.999 . S
C422 H392 0.950 . S
C422 C421 1.524 . S
C422 C423 1.415 . S
C423 H393 0.950 1_554 S
C423 C418 1.363 . S
C423 C422 1.415 . S
H424 C421 0.999 . S
H425 C406 0.913 . S
H426 C444 0.951 . S
H427 C446 0.951 . S
H428 C448 0.950 . S
H429 C449 0.950 . S
H430 C451 0.950 . S
H431 C454 0.950 . S
H432 C455 0.950 . S
H433 C457 0.950 . S
H434 C458 0.950 . S
H435 C459 0.951 . S
H436 C461 0.951 . S
H437 C463 0.950 . S
H438 C464 0.950 . S
H439 C466 0.950 . S
H440 C469 0.950 . S
H441 C470 0.950 . S
H442 C472 0.950 . S
H443 C473 0.950 . S
C444 H426 0.951 . S
C444 C445 1.366 . S
C444 C446 1.388 . S
C445 C444 1.366 . S
C445 C449 1.385 . S
C446 H427 0.951 . S
C446 C444 1.388 . S
C446 C447 1.366 . S
C447 C446 1.366 . S
C447 C448 1.414 . S
C447 C450 1.499 . S
C448 H428 0.950 . S
C448 C447 1.414 . S
C448 C449 1.374 . S
C449 H429 0.950 . S
C449 C445 1.385 . S
C449 C448 1.374 . S
C450 C447 1.499 . S
C450 C451 1.373 . S
C450 C452 1.389 . S
C451 H430 0.950 . S
C451 C450 1.373 . S
C451 C467 1.377 . S
C452 C450 1.389 . S
C452 C453 1.524 . S
C452 C466 1.377 . S
C453 C452 1.524 . S
C453 C454 1.397 . S
C453 C458 1.363 . S
C454 H431 0.950 . S
C454 C453 1.397 . S
C454 C455 1.334 . S
C455 H432 0.950 . S
C455 C454 1.334 . S
C455 C456 1.287 . S
C456 C455 1.287 . S
C456 C457 1.524 . S
C456 H475 0.913 . S
C457 H433 0.950 . S
C457 C456 1.524 . S
C457 C458 1.415 . S
C458 H434 0.950 . S
C458 C453 1.363 . S
C458 C457 1.415 . S
C459 H435 0.951 . S
C459 C460 1.366 . S
C459 C461 1.388 . S
C460 C459 1.366 . S
C460 C464 1.385 . S
C461 H436 0.951 . S
C461 C459 1.388 . S
C461 C462 1.366 . S
C462 C461 1.366 . S
C462 C463 1.414 . S
C462 C465 1.499 . S
C463 H437 0.950 . S
C463 C462 1.414 . S
C463 C464 1.374 . S
C464 H438 0.950 . S
C464 C460 1.385 . S
C464 C463 1.374 . S
C465 C462 1.499 . S
C465 C466 1.373 . S
C465 C467 1.389 . S
C466 H439 0.950 . S
C466 C452 1.377 . S
C466 C465 1.373 . S
C467 C451 1.377 . S
C467 C465 1.389 . S
C467 C468 1.524 . S
C468 C467 1.524 . S
C468 C469 1.397 . S
C468 C473 1.363 . S
C469 H440 0.950 . S
C469 C468 1.397 . S
C469 C470 1.334 . S
C470 H441 0.950 . S
C470 C469 1.334 . S
C470 C471 1.287 . S
C471 C470 1.287 . S
C471 C472 1.524 . S
C471 H474 0.999 . S
C472 H442 0.950 . S
C472 C471 1.524 . S
C472 C473 1.415 . S
C473 H443 0.950 . S
C473 C468 1.363 . S
C473 C472 1.415 . S
H474 C471 0.999 . S
H475 C456 0.913 . S
H476 C494 0.951 . S
H477 C496 0.951 . S
H478 C498 0.974 . S
H479 C499 0.950 1_556 S
H480 C501 0.950 . S
H481 C504 0.950 . S
H482 C505 0.950 . S
H483 C507 0.950 . S
H484 C508 0.950 . S
H485 C509 0.951 . S
H486 C511 0.951 . S
H487 C513 0.974 . S
H488 C514 0.950 1_554 S
H489 C516 0.950 . S
H490 C519 0.950 . S
H491 C520 0.950 . S
H492 C522 0.950 . S
H493 C523 0.950 . S
C494 H476 0.951 . S
C494 C495 1.366 . S
C494 C496 1.388 . S
C495 C494 1.366 . S
C495 C499 1.385 . S
C496 H477 0.951 . S
C496 C494 1.388 . S
C496 C497 1.366 . S
C497 C496 1.366 . S
C497 C498 1.398 1_554 S
C497 C500 1.499 . S
C498 H478 0.974 . S
C498 C497 1.398 1_556 S
C498 C499 1.366 1_556 S
C499 H479 0.950 1_554 S
C499 C495 1.385 . S
C499 C498 1.366 1_554 S
C500 C497 1.499 . S
C500 C501 1.373 1_554 S
C500 C502 1.389 . S
C501 H480 0.950 . S
C501 C500 1.373 1_556 S
C501 C517 1.377 . S
C502 C500 1.389 . S
C502 C503 1.524 . S
C502 C516 1.377 . S
C503 C502 1.524 . S
C503 C504 1.397 . S
C503 C508 1.363 . S
C504 H481 0.950 . S
C504 C503 1.397 . S
C504 C505 1.334 . S
C505 H482 0.950 . S
C505 C504 1.334 . S
C505 C506 1.287 . S
C506 C505 1.287 . S
C506 C507 1.524 . S
C506 H525 0.913 . S
C507 H483 0.950 . S
C507 C506 1.524 . S
C507 C508 1.415 . S
C508 H484 0.950 . S
C508 C503 1.363 . S
C508 C507 1.415 . S
C509 H485 0.951 . S
C509 C510 1.366 . S
C509 C511 1.388 . S
C510 C509 1.366 . S
C510 C514 1.385 . S
C511 H486 0.951 . S
C511 C509 1.388 . S
C511 C512 1.366 . S
C512 C511 1.366 . S
C512 C513 1.398 1_556 S
C512 C515 1.499 . S
C513 H487 0.974 . S
C513 C512 1.398 1_554 S
C513 C514 1.366 1_554 S
C514 H488 0.950 1_556 S
C514 C510 1.385 . S
C514 C513 1.366 1_556 S
C515 C512 1.499 . S
C515 C516 1.373 1_556 S
C515 C517 1.389 . S
C516 H489 0.950 . S
C516 C502 1.377 . S
C516 C515 1.373 1_554 S
C517 C501 1.377 . S
C517 C515 1.389 . S
C517 C518 1.524 . S
C518 C517 1.524 . S
C518 C519 1.397 . S
C518 C523 1.363 . S
C519 H490 0.950 . S
C519 C518 1.397 . S
C519 C520 1.334 . S
C520 H491 0.950 . S
C520 C519 1.334 . S
C520 C521 1.287 . S
C521 C520 1.287 . S
C521 C522 1.524 . S
C521 H524 0.999 . S
C522 H492 0.950 . S
C522 C521 1.524 . S
C522 C523 1.415 . S
C523 H493 0.950 . S
C523 C518 1.363 . S
C523 C522 1.415 . S
H524 C521 0.999 . S
H525 C506 0.913 . S
H526 C544 0.951 . S
H527 C546 0.951 . S
H528 C548 0.950 . S
H529 C549 0.950 . S
H530 C551 0.950 . S
H531 C554 0.950 . S
H532 C555 0.950 . S
H533 C557 0.950 . S
H534 C558 0.950 . S
H535 C559 0.951 . S
H536 C561 0.951 . S
H537 C563 0.950 . S
H538 C564 0.950 . S
H539 C566 0.950 . S
H540 C569 0.950 . S
H541 C570 0.950 . S
H542 C572 0.950 . S
H543 C573 0.950 . S
C544 H526 0.951 . S
C544 C545 1.366 . S
C544 C546 1.388 . S
C545 C544 1.366 . S
C545 C549 1.385 . S
C546 H527 0.951 . S
C546 C544 1.388 . S
C546 C547 1.366 . S
C547 C546 1.366 . S
C547 C548 1.414 . S
C547 C550 1.499 . S
C548 H528 0.950 . S
C548 C547 1.414 . S
C548 C549 1.374 . S
C549 H529 0.950 . S
C549 C545 1.385 . S
C549 C548 1.374 . S
C550 C547 1.499 . S
C550 C551 1.373 1_655 S
C550 C552 1.389 . S
C551 H530 0.950 . S
C551 C550 1.373 1_455 S
C551 C567 1.377 1_545 S
C552 C550 1.389 . S
C552 C553 1.524 . S
C552 C566 1.377 1_545 S
C553 C552 1.524 . S
C553 C554 1.397 . S
C553 C558 1.363 1_545 S
C554 H531 0.950 . S
C554 C553 1.397 . S
C554 C555 1.334 . S
C555 H532 0.950 . S
C555 C554 1.334 . S
C555 C556 1.287 . S
C556 C555 1.287 . S
C556 C557 1.524 1_545 S
C556 H575 0.913 . S
C557 H533 0.950 . S
C557 C556 1.524 1_565 S
C557 C558 1.415 . S
C558 H534 0.950 . S
C558 C553 1.363 1_565 S
C558 C557 1.415 . S
C559 H535 0.951 . S
C559 C560 1.366 . S
C559 C561 1.388 . S
C560 C559 1.366 . S
C560 C564 1.385 . S
C561 H536 0.951 . S
C561 C559 1.388 . S
C561 C562 1.366 . S
C562 C561 1.366 . S
C562 C563 1.414 . S
C562 C565 1.499 . S
C563 H537 0.950 . S
C563 C562 1.414 . S
C563 C564 1.374 . S
C564 H538 0.950 . S
C564 C560 1.385 . S
C564 C563 1.374 . S
C565 C562 1.499 . S
C565 C566 1.373 1_455 S
C565 C567 1.389 . S
C566 H539 0.950 . S
C566 C552 1.377 1_565 S
C566 C565 1.373 1_655 S
C567 C551 1.377 1_565 S
C567 C565 1.389 . S
C567 C568 1.524 . S
C568 C567 1.524 . S
C568 C569 1.397 . S
C568 C573 1.363 1_565 S
C569 H540 0.950 . S
C569 C568 1.397 . S
C569 C570 1.334 . S
C570 H541 0.950 . S
C570 C569 1.334 . S
C570 C571 1.287 . S
C571 C570 1.287 . S
C571 C572 1.524 1_565 S
C571 H574 0.999 . S
C572 H542 0.950 . S
C572 C571 1.524 1_545 S
C572 C573 1.415 . S
C573 H543 0.950 . S
C573 C568 1.363 1_545 S
C573 C572 1.415 . S
H574 C571 0.999 . S
H575 C556 0.913 . S
H576 C594 0.951 . S
H577 C596 0.951 . S
H578 C598 0.950 . S
H579 C599 0.950 . S
H580 C601 0.950 . S
H581 C604 0.950 . S
H582 C605 0.950 . S
H583 C607 0.950 . S
H584 C608 0.950 . S
H585 C609 0.951 . S
H586 C611 0.951 . S
H587 C613 0.950 . S
H588 C614 0.950 . S
H589 C616 0.950 . S
H590 C619 0.950 . S
H591 C620 0.950 . S
H592 C622 0.950 1_556 S
H593 C623 0.950 . S
C594 H576 0.951 . S
C594 C595 1.366 . S
C594 C596 1.388 . S
C595 C594 1.366 . S
C595 C599 1.385 . S
C596 H577 0.951 . S
C596 C594 1.388 . S
C596 C597 1.366 . S
C597 C596 1.366 . S
C597 C598 1.414 . S
C597 C600 1.499 . S
C598 H578 0.950 . S
C598 C597 1.414 . S
C598 C599 1.374 . S
C599 H579 0.950 . S
C599 C595 1.385 . S
C599 C598 1.374 . S
C600 C597 1.499 . S
C600 C601 1.373 . S
C600 C602 1.389 . S
C601 H580 0.950 . S
C601 C600 1.373 . S
C601 C617 1.351 1_565 S
C602 C600 1.389 . S
C602 C603 1.524 . S
C602 C616 1.377 . S
C603 C602 1.524 . S
C603 C604 1.397 . S
C603 C608 1.363 . S
C604 H581 0.950 . S
C604 C603 1.397 . S
C604 C605 1.334 . S
C605 H582 0.950 . S
C605 C604 1.334 . S
C605 C606 1.287 . S
C606 C605 1.287 . S
C606 C607 1.524 . S
C606 H625 0.913 . S
C607 H583 0.950 . S
C607 C606 1.524 . S
C607 C608 1.415 . S
C608 H584 0.950 . S
C608 C603 1.363 . S
C608 C607 1.415 . S
C609 H585 0.951 . S
C609 C610 1.366 . S
C609 C611 1.388 . S
C610 C609 1.366 . S
C610 C614 1.385 . S
C611 H586 0.951 . S
C611 C609 1.388 . S
C611 C612 1.366 . S
C612 C611 1.366 . S
C612 C613 1.414 . S
C612 C615 1.499 . S
C613 H587 0.950 . S
C613 C612 1.414 . S
C613 C614 1.374 . S
C614 H588 0.950 . S
C614 C610 1.385 . S
C614 C613 1.374 . S
C615 C612 1.499 . S
C615 C616 1.373 1_545 S
C615 C617 1.395 . S
C616 H589 0.950 . S
C616 C602 1.377 . S
C616 C615 1.373 1_565 S
C617 C601 1.351 1_545 S
C617 C615 1.395 . S
C617 C618 1.545 . S
C618 C617 1.545 . S
C618 C619 1.397 . S
C618 C623 1.363 . S
C619 H590 0.950 . S
C619 C618 1.397 . S
C619 C620 1.334 . S
C620 H591 0.950 . S
C620 C619 1.334 . S
C620 C621 1.287 . S
C621 C620 1.287 . S
C621 C622 1.524 . S
C621 H624 0.999 . S
C622 H592 0.950 1_554 S
C622 C621 1.524 . S
C622 C623 1.415 . S
C623 H593 0.950 . S
C623 C618 1.363 . S
C623 C622 1.415 . S
H624 C621 0.999 . S
H625 C606 0.913 . S
H626 C644 0.951 . S
H627 C646 0.951 . S
H628 C648 0.950 . S
H629 C649 0.950 . S
H630 C651 0.950 . S
H631 C654 0.950 . S
H632 C655 0.950 . S
H633 C657 0.950 . S
H634 C658 0.950 . S
H635 C659 0.951 . S
H636 C661 0.951 . S
H637 C663 0.950 . S
H638 C664 0.950 . S
H639 C666 0.950 . S
H640 C669 0.950 . S
H641 C670 0.950 . S
H642 C672 0.950 . S
H643 C673 0.950 . S
C644 H626 0.951 . S
C644 C645 1.366 . S
C644 C646 1.388 . S
C645 C644 1.366 . S
C645 C649 1.385 . S
C646 H627 0.951 . S
C646 C644 1.388 . S
C646 C647 1.366 . S
C647 C646 1.366 . S
C647 C648 1.414 . S
C647 C650 1.499 . S
C648 H628 0.950 . S
C648 C647 1.414 . S
C648 C649 1.374 . S
C649 H629 0.950 . S
C649 C645 1.385 . S
C649 C648 1.374 . S
C650 C647 1.499 . S
C650 C651 1.373 . S
C650 C652 1.389 . S
C651 H630 0.950 . S
C651 C650 1.373 . S
C651 C667 1.377 . S
C652 C650 1.389 . S
C652 C653 1.524 . S
C652 C666 1.377 . S
C653 C652 1.524 . S
C653 C654 1.397 . S
C653 C658 1.363 . S
C654 H631 0.950 . S
C654 C653 1.397 . S
C654 C655 1.334 . S
C655 H632 0.950 . S
C655 C654 1.334 . S
C655 C656 1.287 . S
C656 C655 1.287 . S
C656 C657 1.524 . S
C656 H675 0.913 . S
C657 H633 0.950 . S
C657 C656 1.524 . S
C657 C658 1.415 . S
C658 H634 0.950 . S
C658 C653 1.363 . S
C658 C657 1.415 . S
C659 H635 0.951 . S
C659 C660 1.366 . S
C659 C661 1.388 . S
C660 C659 1.366 . S
C660 C664 1.385 . S
C661 H636 0.951 . S
C661 C659 1.388 . S
C661 C662 1.366 . S
C662 C661 1.366 . S
C662 C663 1.414 . S
C662 C665 1.499 . S
C663 H637 0.950 . S
C663 C662 1.414 . S
C663 C664 1.374 . S
C664 H638 0.950 . S
C664 C660 1.385 . S
C664 C663 1.374 . S
C665 C662 1.499 . S
C665 C666 1.373 . S
C665 C667 1.389 . S
C666 H639 0.950 . S
C666 C652 1.377 . S
C666 C665 1.373 . S
C667 C651 1.377 . S
C667 C665 1.389 . S
C667 C668 1.524 . S
C668 C667 1.524 . S
C668 C669 1.397 . S
C668 C673 1.363 . S
C669 H640 0.950 . S
C669 C668 1.397 . S
C669 C670 1.334 . S
C670 H641 0.950 . S
C670 C669 1.334 . S
C670 C671 1.287 . S
C671 C670 1.287 . S
C671 C672 1.524 . S
C671 H674 0.999 . S
C672 H642 0.950 . S
C672 C671 1.524 . S
C672 C673 1.415 . S
C673 H643 0.950 . S
C673 C668 1.363 . S
C673 C672 1.415 . S
H674 C671 0.999 . S
H675 C656 0.913 . S
H676 C694 0.951 . S
H677 C696 0.951 . S
H678 C698 0.950 . S
H679 C699 0.950 . S
H680 C701 0.950 . S
H681 C704 0.950 . S
H682 C705 0.950 . S
H683 C707 0.950 . S
H684 C708 0.950 . S
H685 C709 0.951 . S
H686 C711 0.951 . S
H687 C713 0.950 . S
H688 C714 0.950 . S
H689 C716 0.950 . S
H690 C719 0.950 . S
H691 C720 0.950 1_554 S
H692 C722 0.950 . S
H693 C723 0.950 . S
C694 H676 0.951 . S
C694 C695 1.366 . S
C694 C696 1.388 . S
C695 C694 1.366 . S
C695 C699 1.385 . S
C696 H677 0.951 . S
C696 C694 1.388 . S
C696 C697 1.366 . S
C697 C696 1.366 . S
C697 C698 1.414 . S
C697 C700 1.499 . S
C698 H678 0.950 . S
C698 C697 1.414 . S
C698 C699 1.374 . S
C699 H679 0.950 . S
C699 C695 1.385 . S
C699 C698 1.374 . S
C700 C697 1.499 . S
C700 C701 1.373 . S
C700 C702 1.389 . S
C701 H680 0.950 . S
C701 C700 1.373 . S
C701 C717 1.377 . S
C702 C700 1.389 . S
C702 C703 1.524 . S
C702 C716 1.377 . S
C703 C702 1.524 . S
C703 C704 1.397 . S
C703 C708 1.363 . S
C704 H681 0.950 . S
C704 C703 1.397 . S
C704 C705 1.334 . S
C705 H682 0.950 . S
C705 C704 1.334 . S
C705 C706 1.287 . S
C706 C705 1.287 . S
C706 C707 1.524 . S
C706 H725 0.913 . S
C707 H683 0.950 . S
C707 C706 1.524 . S
C707 C708 1.415 . S
C708 H684 0.950 . S
C708 C703 1.363 . S
C708 C707 1.415 . S
C709 H685 0.951 . S
C709 C710 1.366 . S
C709 C711 1.388 . S
C710 C709 1.366 . S
C710 C714 1.385 . S
C711 H686 0.951 . S
C711 C709 1.388 . S
C711 C712 1.366 . S
C712 C711 1.366 . S
C712 C713 1.414 . S
C712 C715 1.499 . S
C713 H687 0.950 . S
C713 C712 1.414 . S
C713 C714 1.374 . S
C714 H688 0.950 . S
C714 C710 1.385 . S
C714 C713 1.374 . S
C715 C712 1.499 . S
C715 C716 1.373 . S
C715 C717 1.389 . S
C716 H689 0.950 . S
C716 C702 1.377 . S
C716 C715 1.373 . S
C717 C701 1.377 . S
C717 C715 1.389 . S
C717 C718 1.524 . S
C718 C717 1.524 . S
C718 C719 1.397 . S
C718 C723 1.363 . S
C719 H690 0.950 . S
C719 C718 1.397 . S
C719 C720 1.334 . S
C720 H691 0.950 1_556 S
C720 C719 1.334 . S
C720 C721 1.287 . S
C721 C720 1.287 . S
C721 C722 1.524 . S
C721 H724 0.999 1_556 S
C722 H692 0.950 . S
C722 C721 1.524 . S
C722 C723 1.415 . S
C723 H693 0.950 . S
C723 C718 1.363 . S
C723 C722 1.415 . S
H724 C721 0.999 1_554 S
H725 C706 0.913 . S
H726 C744 0.951 . S
H727 C746 0.951 . S
H728 C748 0.950 . S
H729 C749 0.950 . S
H730 C751 0.950 1_545 S
H731 C754 0.950 . S
H732 C755 0.946 1_545 S
H733 C757 0.950 . S
H734 C758 0.950 . S
H735 C759 0.951 . S
H736 C761 0.951 . S
H737 C763 0.950 . S
H738 C764 0.950 . S
H739 C766 0.950 . S
H740 C769 0.950 . S
H741 C770 0.950 . S
H742 C772 0.950 . S
H743 C773 0.950 . S
C744 H726 0.951 . S
C744 C745 1.366 . S
C744 C746 1.388 . S
C745 C744 1.366 . S
C745 C749 1.385 . S
C746 H727 0.951 . S
C746 C744 1.388 . S
C746 C747 1.366 . S
C747 C746 1.366 . S
C747 C748 1.414 . S
C747 C750 1.499 . S
C748 H728 0.950 . S
C748 C747 1.414 . S
C748 C749 1.374 . S
C749 H729 0.950 . S
C749 C745 1.385 . S
C749 C748 1.374 . S
C750 C747 1.499 . S
C750 C751 1.373 1_545 S
C750 C752 1.389 1_545 S
C751 H730 0.950 1_565 S
C751 C750 1.373 1_565 S
C751 C767 1.377 . S
C752 C750 1.389 1_565 S
C752 C753 1.524 . S
C752 C766 1.377 . S
C753 C752 1.524 . S
C753 C754 1.397 . S
C753 C758 1.363 . S
C754 H731 0.950 . S
C754 C753 1.397 . S
C754 C755 1.334 . S
C755 H732 0.946 1_565 S
C755 C754 1.334 . S
C755 C756 1.287 . S
C756 C755 1.287 . S
C756 C757 1.524 . S
C756 H775 0.913 . S
C757 H733 0.950 . S
C757 C756 1.524 . S
C757 C758 1.415 . S
C758 H734 0.950 . S
C758 C753 1.363 . S
C758 C757 1.415 . S
C759 H735 0.951 . S
C759 C760 1.366 . S
C759 C761 1.388 . S
C760 C759 1.366 . S
C760 C764 1.385 . S
C761 H736 0.951 . S
C761 C759 1.388 . S
C761 C762 1.366 . S
C762 C761 1.366 . S
C762 C763 1.414 . S
C762 C765 1.499 . S
C763 H737 0.950 . S
C763 C762 1.414 . S
C763 C764 1.374 . S
C764 H738 0.950 . S
C764 C760 1.385 . S
C764 C763 1.374 . S
C765 C762 1.499 . S
C765 C766 1.373 . S
C765 C767 1.389 . S
C766 H739 0.950 . S
C766 C752 1.377 . S
C766 C765 1.373 . S
C767 C751 1.377 . S
C767 C765 1.389 . S
C767 C768 1.524 . S
C768 C767 1.524 . S
C768 C769 1.397 . S
C768 C773 1.363 . S
C769 H740 0.950 . S
C769 C768 1.397 . S
C769 C770 1.334 . S
C770 H741 0.950 . S
C770 C769 1.334 . S
C770 C771 1.287 . S
C771 C770 1.287 . S
C771 C772 1.524 . S
C771 H774 0.999 . S
C772 H742 0.950 . S
C772 C771 1.524 . S
C772 C773 1.415 . S
C773 H743 0.950 . S
C773 C768 1.363 . S
C773 C772 1.415 . S
H774 C771 0.999 . S
H775 C756 0.913 . S
H776 C794 0.951 . S
H777 C796 0.951 . S
H778 C798 0.950 . S
H779 C799 0.950 . S
H780 C801 0.950 . S
H781 C804 0.950 . S
H782 C805 0.950 . S
H783 C807 0.945 1_554 S
H784 C808 0.950 1_565 S
H785 C809 0.951 . S
H786 C811 0.951 . S
H787 C813 0.950 . S
H788 C814 0.950 . S
H789 C816 0.929 1_565 S
H790 C819 0.950 . S
H791 C820 0.950 . S
H792 C822 0.950 . S
H793 C823 0.950 . S
C794 H776 0.951 . S
C794 C795 1.366 . S
C794 C796 1.388 . S
C795 C794 1.366 . S
C795 C799 1.385 . S
C796 H777 0.951 . S
C796 C794 1.388 . S
C796 C797 1.366 . S
C797 C796 1.366 . S
C797 C798 1.414 . S
C797 C800 1.499 . S
C798 H778 0.950 . S
C798 C797 1.414 . S
C798 C799 1.374 . S
C799 H779 0.950 . S
C799 C795 1.385 . S
C799 C798 1.374 . S
C800 C797 1.499 . S
C800 C801 1.373 . S
C800 C802 1.389 . S
C801 H780 0.950 . S
C801 C800 1.373 . S
C801 C817 1.377 . S
C802 C800 1.389 . S
C802 C803 1.524 . S
C802 C816 1.405 . S
C803 C802 1.524 . S
C803 C804 1.397 . S
C803 C808 1.363 . S
C804 H781 0.950 . S
C804 C803 1.397 . S
C804 C805 1.334 1_556 S
C805 H782 0.950 . S
C805 C804 1.334 1_554 S
C805 C806 1.287 . S
C806 C805 1.287 . S
C806 C807 1.524 1_554 S
C806 H825 0.913 . S
C807 H783 0.945 1_556 S
C807 C806 1.524 1_556 S
C807 C808 1.415 . S
C808 H784 0.950 1_545 S
C808 C803 1.363 . S
C808 C807 1.415 . S
C809 H785 0.951 . S
C809 C810 1.366 . S
C809 C811 1.388 . S
C810 C809 1.366 . S
C810 C814 1.385 . S
C811 H786 0.951 . S
C811 C809 1.388 . S
C811 C812 1.366 . S
C812 C811 1.366 . S
C812 C813 1.414 . S
C812 C815 1.499 . S
C813 H787 0.950 . S
C813 C812 1.414 . S
C813 C814 1.374 . S
C814 H788 0.950 . S
C814 C810 1.385 . S
C814 C813 1.374 . S
C815 C812 1.499 . S
C815 C816 1.366 1_565 S
C815 C817 1.389 1_565 S
C816 H789 0.929 1_545 S
C816 C802 1.405 . S
C816 C815 1.366 1_545 S
C817 C801 1.377 . S
C817 C815 1.389 1_545 S
C817 C818 1.524 . S
C818 C817 1.524 . S
C818 C819 1.397 1_545 S
C818 C823 1.363 . S
C819 H790 0.950 . S
C819 C818 1.397 1_565 S
C819 C820 1.334 . S
C820 H791 0.950 . S
C820 C819 1.334 . S
C820 C821 1.287 . S
C821 C820 1.287 . S
C821 C822 1.524 1_565 S
C821 H824 0.999 . S
C822 H792 0.950 . S
C822 C821 1.524 1_545 S
C822 C823 1.415 . S
C823 H793 0.950 . S
C823 C818 1.363 . S
C823 C822 1.415 . S
H824 C821 0.999 . S
H825 C806 0.913 . S
H826 C844 0.951 . S
H827 C846 0.951 . S
H828 C848 0.950 . S
H829 C849 0.950 . S
H830 C851 0.950 . S
H831 C854 0.950 . S
H832 C855 0.950 . S
H833 C857 0.950 . S
H834 C858 0.950 . S
H835 C859 0.951 . S
H836 C861 0.951 . S
H837 C863 0.950 . S
H838 C864 0.950 . S
H839 C866 0.950 . S
H840 C869 0.950 . S
H841 C870 0.950 . S
H842 C872 0.950 . S
H843 C873 0.950 . S
C844 H826 0.951 . S
C844 C845 1.366 . S
C844 C846 1.388 . S
C845 C844 1.366 . S
C845 C849 1.385 . S
C846 H827 0.951 . S
C846 C844 1.388 . S
C846 C847 1.366 . S
C847 C846 1.366 . S
C847 C848 1.414 . S
C847 C850 1.499 . S
C848 H828 0.950 . S
C848 C847 1.414 . S
C848 C849 1.374 . S
C849 H829 0.950 . S
C849 C845 1.385 . S
C849 C848 1.374 . S
C850 C847 1.499 . S
C850 C851 1.373 . S
C850 C852 1.389 . S
C851 H830 0.950 . S
C851 C850 1.373 . S
C851 C867 1.377 . S
C852 C850 1.389 . S
C852 C853 1.524 . S
C852 C866 1.377 . S
C853 C852 1.524 . S
C853 C854 1.397 . S
C853 C858 1.363 . S
C854 H831 0.950 . S
C854 C853 1.397 . S
C854 C855 1.334 . S
C855 H832 0.950 . S
C855 C854 1.334 . S
C855 C856 1.287 . S
C856 C855 1.287 . S
C856 C857 1.524 . S
C856 H875 0.913 . S
C857 H833 0.950 . S
C857 C856 1.524 . S
C857 C858 1.415 . S
C858 H834 0.950 . S
C858 C853 1.363 . S
C858 C857 1.415 . S
C859 H835 0.951 . S
C859 C860 1.366 . S
C859 C861 1.388 . S
C860 C859 1.366 . S
C860 C864 1.385 . S
C861 H836 0.951 . S
C861 C859 1.388 . S
C861 C862 1.366 . S
C862 C861 1.366 . S
C862 C863 1.414 . S
C862 C865 1.499 . S
C863 H837 0.950 . S
C863 C862 1.414 . S
C863 C864 1.374 . S
C864 H838 0.950 . S
C864 C860 1.385 . S
C864 C863 1.374 . S
C865 C862 1.499 . S
C865 C866 1.373 . S
C865 C867 1.389 . S
C866 H839 0.950 . S
C866 C852 1.377 . S
C866 C865 1.373 . S
C867 C851 1.377 . S
C867 C865 1.389 . S
C867 C868 1.524 . S
C868 C867 1.524 . S
C868 C869 1.397 . S
C868 C873 1.363 . S
C869 H840 0.950 . S
C869 C868 1.397 . S
C869 C870 1.334 . S
C870 H841 0.950 . S
C870 C869 1.334 . S
C870 C871 1.287 . S
C871 C870 1.287 . S
C871 C872 1.524 . S
C871 H874 0.999 . S
C872 H842 0.950 . S
C872 C871 1.524 . S
C872 C873 1.415 . S
C873 H843 0.950 . S
C873 C868 1.363 . S
C873 C872 1.415 . S
H874 C871 0.999 . S
H875 C856 0.913 . S
H876 C894 0.951 . S
H877 C896 0.951 . S
H878 C898 0.950 . S
H879 C899 0.950 . S
H880 C901 0.950 . S
H881 C904 0.950 . S
H882 C905 0.950 . S
H883 C907 0.950 . S
H884 C908 0.950 . S
H885 C909 0.951 . S
H886 C911 0.951 . S
H887 C913 0.950 . S
H888 C914 0.950 . S
H889 C916 0.950 . S
H890 C919 0.950 . S
H891 C920 0.950 . S
H892 C922 0.950 . S
H893 C923 0.950 . S
C894 H876 0.951 . S
C894 C895 1.366 . S
C894 C896 1.388 . S
C895 C894 1.366 . S
C895 C899 1.385 . S
C896 H877 0.951 . S
C896 C894 1.388 . S
C896 C897 1.366 . S
C897 C896 1.366 . S
C897 C898 1.414 . S
C897 C900 1.499 . S
C898 H878 0.950 . S
C898 C897 1.414 . S
C898 C899 1.374 . S
C899 H879 0.950 . S
C899 C895 1.385 . S
C899 C898 1.374 . S
C900 C897 1.499 . S
C900 C901 1.373 . S
C900 C902 1.389 . S
C901 H880 0.950 . S
C901 C900 1.373 . S
C901 C917 1.377 . S
C902 C900 1.389 . S
C902 C903 1.524 . S
C902 C916 1.377 . S
C903 C902 1.524 . S
C903 C904 1.397 . S
C903 C908 1.363 . S
C904 H881 0.950 . S
C904 C903 1.397 . S
C904 C905 1.334 . S
C905 H882 0.950 . S
C905 C904 1.334 . S
C905 C906 1.287 . S
C906 C905 1.287 . S
C906 C907 1.524 . S
C906 H925 0.913 . S
C907 H883 0.950 . S
C907 C906 1.524 . S
C907 C908 1.415 . S
C908 H884 0.950 . S
C908 C903 1.363 . S
C908 C907 1.415 . S
C909 H885 0.951 . S
C909 C910 1.366 . S
C909 C911 1.388 . S
C910 C909 1.366 . S
C910 C914 1.385 . S
C911 H886 0.951 . S
C911 C909 1.388 . S
C911 C912 1.366 . S
C912 C911 1.366 . S
C912 C913 1.414 . S
C912 C915 1.499 . S
C913 H887 0.950 . S
C913 C912 1.414 . S
C913 C914 1.374 . S
C914 H888 0.950 . S
C914 C910 1.385 . S
C914 C913 1.374 . S
C915 C912 1.499 . S
C915 C916 1.373 . S
C915 C917 1.389 . S
C916 H889 0.950 . S
C916 C902 1.377 . S
C916 C915 1.373 . S
C917 C901 1.377 . S
C917 C915 1.389 . S
C917 C918 1.524 . S
C918 C917 1.524 . S
C918 C919 1.397 . S
C918 C923 1.363 . S
C919 H890 0.950 . S
C919 C918 1.397 . S
C919 C920 1.334 1_554 S
C920 H891 0.950 . S
C920 C919 1.334 1_556 S
C920 C921 1.287 . S
C921 C920 1.287 . S
C921 C922 1.524 . S
C921 H924 0.999 . S
C922 H892 0.950 . S
C922 C921 1.524 . S
C922 C923 1.415 1_556 S
C923 H893 0.950 . S
C923 C918 1.363 . S
C923 C922 1.415 1_554 S
H924 C921 0.999 . S
H925 C906 0.913 . S
H926 C944 0.951 . S
H927 C946 0.951 . S
H928 C948 0.950 . S
H929 C949 0.950 . S
H930 C951 0.950 . S
H931 C954 0.950 . S
H932 C955 0.950 . S
H933 C957 0.950 . S
H934 C958 0.946 1_545 S
H935 C959 0.951 . S
H936 C961 0.951 . S
H937 C963 0.950 . S
H938 C964 0.950 . S
H939 C966 0.950 . S
H940 C969 0.950 . S
H941 C970 0.950 . S
H942 C972 0.950 . S
H943 C973 0.950 . S
C944 H926 0.951 . S
C944 C945 1.366 . S
C944 C946 1.388 . S
C945 C944 1.366 . S
C945 C949 1.385 . S
C946 H927 0.951 . S
C946 C944 1.388 . S
C946 C947 1.366 . S
C947 C946 1.366 . S
C947 C948 1.414 . S
C947 C950 1.499 . S
C948 H928 0.950 . S
C948 C947 1.414 . S
C948 C949 1.374 . S
C949 H929 0.950 . S
C949 C945 1.385 . S
C949 C948 1.374 . S
C950 C947 1.499 . S
C950 C951 1.373 1_565 S
C950 C952 1.387 1_565 S
C951 H930 0.950 . S
C951 C950 1.373 1_545 S
C951 C967 1.377 . S
C952 C950 1.387 1_545 S
C952 C953 1.518 1_545 S
C952 C966 1.385 . S
C953 C952 1.518 1_565 S
C953 C954 1.397 . S
C953 C958 1.363 . S
C954 H931 0.950 . S
C954 C953 1.397 . S
C954 C955 1.334 . S
C955 H932 0.950 . S
C955 C954 1.334 . S
C955 C956 1.287 . S
C956 C955 1.287 . S
C956 C957 1.524 . S
C956 H975 0.913 . S
C957 H933 0.950 . S
C957 C956 1.524 . S
C957 C958 1.415 . S
C958 H934 0.946 1_565 S
C958 C953 1.363 . S
C958 C957 1.415 . S
C959 H935 0.951 . S
C959 C960 1.366 . S
C959 C961 1.388 . S
C960 C959 1.366 . S
C960 C964 1.385 . S
C961 H936 0.951 . S
C961 C959 1.388 . S
C961 C962 1.366 . S
C962 C961 1.366 . S
C962 C963 1.414 . S
C962 C965 1.499 . S
C963 H937 0.950 . S
C963 C962 1.414 . S
C963 C964 1.374 . S
C964 H938 0.950 . S
C964 C960 1.385 . S
C964 C963 1.374 . S
C965 C962 1.499 . S
C965 C966 1.373 . S
C965 C967 1.389 . S
C966 H939 0.950 . S
C966 C952 1.385 . S
C966 C965 1.373 . S
C967 C951 1.377 . S
C967 C965 1.389 . S
C967 C968 1.524 . S
C968 C967 1.524 . S
C968 C969 1.397 . S
C968 C973 1.363 . S
C969 H940 0.950 . S
C969 C968 1.397 . S
C969 C970 1.334 . S
C970 H941 0.950 . S
C970 C969 1.334 . S
C970 C971 1.287 . S
C971 C970 1.287 . S
C971 C972 1.524 . S
C971 H974 0.999 . S
C972 H942 0.950 . S
C972 C971 1.524 . S
C972 C973 1.415 . S
C973 H943 0.950 . S
C973 C968 1.363 . S
C973 C972 1.415 . S
H974 C971 0.999 . S
H975 C956 0.913 . S
H976 C994 0.951 . S
H977 C996 0.951 . S
H978 C998 0.950 . S
H979 C999 0.950 . S
H980 C1001 0.950 . S
H981 C1004 0.950 . S
H982 C1005 0.950 . S
H983 C1007 0.950 . S
H984 C1008 0.950 . S
H985 C1009 0.951 . S
H986 C1011 0.951 . S
H987 C1013 0.950 . S
H988 C1014 0.950 . S
H989 C1016 0.950 . S
H990 C1019 0.950 . S
H991 C1020 0.950 . S
H992 C1022 0.950 . S
H993 C1023 0.950 . S
C994 H976 0.951 . S
C994 C995 1.366 . S
C994 C996 1.388 . S
C995 C994 1.366 . S
C995 C999 1.385 . S
C996 H977 0.951 . S
C996 C994 1.388 . S
C996 C997 1.366 . S
C997 C996 1.366 . S
C997 C998 1.414 . S
C997 C1000 1.499 . S
C998 H978 0.950 . S
C998 C997 1.414 . S
C998 C999 1.374 . S
C999 H979 0.950 . S
C999 C995 1.385 . S
C999 C998 1.374 . S
C1000 C997 1.499 . S
C1000 C1001 1.373 . S
C1000 C1002 1.389 . S
C1001 H980 0.950 . S
C1001 C1000 1.373 . S
C1001 C1017 1.377 . S
C1002 C1000 1.389 . S
C1002 C1003 1.524 . S
C1002 C1016 1.377 . S
C1003 C1002 1.524 . S
C1003 C1004 1.397 . S
C1003 C1008 1.363 . S
C1004 H981 0.950 . S
C1004 C1003 1.397 . S
C1004 C1005 1.334 . S
C1005 H982 0.950 . S
C1005 C1004 1.334 . S
C1005 C1006 1.287 . S
C1006 C1005 1.287 . S
C1006 C1007 1.524 . S
C1006 H1025 0.913 . S
C1007 H983 0.950 . S
C1007 C1006 1.524 . S
C1007 C1008 1.415 . S
C1008 H984 0.950 . S
C1008 C1003 1.363 . S
C1008 C1007 1.415 . S
C1009 H985 0.951 . S
C1009 C1010 1.366 . S
C1009 C1011 1.388 . S
C1010 C1009 1.366 . S
C1010 C1014 1.385 . S
C1011 H986 0.951 . S
C1011 C1009 1.388 . S
C1011 C1012 1.366 . S
C1012 C1011 1.366 . S
C1012 C1013 1.414 . S
C1012 C1015 1.499 . S
C1013 H987 0.950 . S
C1013 C1012 1.414 . S
C1013 C1014 1.374 . S
C1014 H988 0.950 . S
C1014 C1010 1.385 . S
C1014 C1013 1.374 . S
C1015 C1012 1.499 . S
C1015 C1016 1.373 . S
C1015 C1017 1.389 . S
C1016 H989 0.950 . S
C1016 C1002 1.377 . S
C1016 C1015 1.373 . S
C1017 C1001 1.377 . S
C1017 C1015 1.389 . S
C1017 C1018 1.524 . S
C1018 C1017 1.524 . S
C1018 C1019 1.397 . S
C1018 C1023 1.363 . S
C1019 H990 0.950 . S
C1019 C1018 1.397 . S
C1019 C1020 1.334 . S
C1020 H991 0.950 . S
C1020 C1019 1.334 . S
C1020 C1021 1.287 . S
C1021 C1020 1.287 . S
C1021 C1022 1.524 . S
C1021 H1024 0.999 . S
C1022 H992 0.950 . S
C1022 C1021 1.524 . S
C1022 C1023 1.415 . S
C1023 H993 0.950 . S
C1023 C1018 1.363 . S
C1023 C1022 1.415 . S
H1024 C1021 0.999 . S
H1025 C1006 0.913 . S
H1026 C1044 0.951 . S
H1027 C1046 0.951 . S
H1028 C1048 0.950 . S
H1029 C1049 0.950 . S
H1030 C1051 0.950 . S
H1031 C1054 0.950 . S
H1032 C1055 0.950 . S
H1033 C1057 0.950 . S
H1034 C1058 0.950 . S
H1035 C1059 0.951 . S
H1036 C1061 0.951 . S
H1037 C1063 0.950 . S
H1038 C1064 0.950 . S
H1039 C1066 0.950 . S
H1040 C1069 0.950 . S
H1041 C1070 0.950 . S
H1042 C1072 0.950 . S
H1043 C1073 0.950 . S
C1044 H1026 0.951 . S
C1044 C1045 1.366 . S
C1044 C1046 1.388 . S
C1045 C1044 1.366 . S
C1045 C1049 1.385 . S
C1046 H1027 0.951 . S
C1046 C1044 1.388 . S
C1046 C1047 1.366 . S
C1047 C1046 1.366 . S
C1047 C1048 1.414 . S
C1047 C1050 1.499 . S
C1048 H1028 0.950 . S
C1048 C1047 1.414 . S
C1048 C1049 1.374 . S
C1049 H1029 0.950 . S
C1049 C1045 1.385 . S
C1049 C1048 1.374 . S
C1050 C1047 1.499 . S
C1050 C1051 1.373 . S
C1050 C1052 1.389 . S
C1051 H1030 0.950 . S
C1051 C1050 1.373 . S
C1051 C1067 1.377 . S
C1052 C1050 1.389 . S
C1052 C1053 1.524 . S
C1052 C1066 1.377 . S
C1053 C1052 1.524 . S
C1053 C1054 1.397 . S
C1053 C1058 1.363 . S
C1054 H1031 0.950 . S
C1054 C1053 1.397 . S
C1054 C1055 1.334 . S
C1055 H1032 0.950 . S
C1055 C1054 1.334 . S
C1055 C1056 1.287 . S
C1056 C1055 1.287 . S
C1056 C1057 1.524 . S
C1056 H1075 0.913 . S
C1057 H1033 0.950 . S
C1057 C1056 1.524 . S
C1057 C1058 1.415 . S
C1058 H1034 0.950 . S
C1058 C1053 1.363 . S
C1058 C1057 1.415 . S
C1059 H1035 0.951 . S
C1059 C1060 1.366 . S
C1059 C1061 1.388 . S
C1060 C1059 1.366 . S
C1060 C1064 1.385 . S
C1061 H1036 0.951 . S
C1061 C1059 1.388 . S
C1061 C1062 1.366 . S
C1062 C1061 1.366 . S
C1062 C1063 1.414 . S
C1062 C1065 1.499 . S
C1063 H1037 0.950 . S
C1063 C1062 1.414 . S
C1063 C1064 1.374 . S
C1064 H1038 0.950 . S
C1064 C1060 1.385 . S
C1064 C1063 1.374 . S
C1065 C1062 1.499 . S
C1065 C1066 1.373 . S
C1065 C1067 1.389 . S
C1066 H1039 0.950 . S
C1066 C1052 1.377 . S
C1066 C1065 1.373 . S
C1067 C1051 1.377 . S
C1067 C1065 1.389 . S
C1067 C1068 1.524 . S
C1068 C1067 1.524 . S
C1068 C1069 1.397 . S
C1068 C1073 1.363 . S
C1069 H1040 0.950 . S
C1069 C1068 1.397 . S
C1069 C1070 1.334 . S
C1070 H1041 0.950 . S
C1070 C1069 1.334 . S
C1070 C1071 1.287 . S
C1071 C1070 1.287 . S
C1071 C1072 1.524 . S
C1071 H1074 0.999 . S
C1072 H1042 0.950 . S
C1072 C1071 1.524 . S
C1072 C1073 1.415 . S
C1073 H1043 0.950 . S
C1073 C1068 1.363 . S
C1073 C1072 1.415 . S
H1074 C1071 0.999 . S
H1075 C1056 0.913 . S
H1076 C1094 0.951 . S
H1077 C1096 0.951 . S
H1078 C1098 0.950 . S
H1079 C1099 0.950 . S
H1080 C1101 0.950 . S
H1081 C1104 0.950 . S
H1082 C1105 0.950 . S
H1083 C1107 0.950 . S
H1084 C1108 0.950 . S
H1085 C1109 0.951 . S
H1086 C1111 0.951 . S
H1087 C1113 0.950 . S
H1088 C1114 0.950 . S
H1089 C1116 0.950 . S
H1090 C1119 0.950 . S
H1091 C1120 0.950 . S
H1092 C1122 0.950 . S
H1093 C1123 0.950 . S
C1094 H1076 0.951 . S
C1094 C1095 1.366 . S
C1094 C1096 1.388 . S
C1095 C1094 1.366 . S
C1095 C1099 1.385 . S
C1096 H1077 0.951 . S
C1096 C1094 1.388 . S
C1096 C1097 1.366 . S
C1097 C1096 1.366 . S
C1097 C1098 1.414 . S
C1097 C1100 1.499 . S
C1098 H1078 0.950 . S
C1098 C1097 1.414 . S
C1098 C1099 1.374 . S
C1099 H1079 0.950 . S
C1099 C1095 1.385 . S
C1099 C1098 1.374 . S
C1100 C1097 1.499 . S
C1100 C1101 1.373 . S
C1100 C1102 1.389 . S
C1101 H1080 0.950 . S
C1101 C1100 1.373 . S
C1101 C1117 1.377 . S
C1102 C1100 1.389 . S
C1102 C1103 1.524 . S
C1102 C1116 1.377 . S
C1103 C1102 1.524 . S
C1103 C1104 1.397 . S
C1103 C1108 1.363 . S
C1104 H1081 0.950 . S
C1104 C1103 1.397 . S
C1104 C1105 1.334 . S
C1105 H1082 0.950 . S
C1105 C1104 1.334 . S
C1105 C1106 1.287 . S
C1106 C1105 1.287 . S
C1106 C1107 1.524 . S
C1106 H1125 0.913 . S
C1107 H1083 0.950 . S
C1107 C1106 1.524 . S
C1107 C1108 1.415 . S
C1108 H1084 0.950 . S
C1108 C1103 1.363 . S
C1108 C1107 1.415 . S
C1109 H1085 0.951 . S
C1109 C1110 1.366 . S
C1109 C1111 1.388 . S
C1110 C1109 1.366 . S
C1110 C1114 1.385 . S
C1111 H1086 0.951 . S
C1111 C1109 1.388 . S
C1111 C1112 1.366 . S
C1112 C1111 1.366 . S
C1112 C1113 1.414 . S
C1112 C1115 1.499 . S
C1113 H1087 0.950 . S
C1113 C1112 1.414 . S
C1113 C1114 1.374 . S
C1114 H1088 0.950 . S
C1114 C1110 1.385 . S
C1114 C1113 1.374 . S
C1115 C1112 1.499 . S
C1115 C1116 1.373 . S
C1115 C1117 1.389 . S
C1116 H1089 0.950 . S
C1116 C1102 1.377 . S
C1116 C1115 1.373 . S
C1117 C1101 1.377 . S
C1117 C1115 1.389 . S
C1117 C1118 1.524 . S
C1118 C1117 1.524 . S
C1118 C1119 1.397 . S
C1118 C1123 1.363 . S
C1119 H1090 0.950 . S
C1119 C1118 1.397 . S
C1119 C1120 1.334 . S
C1120 H1091 0.950 . S
C1120 C1119 1.334 . S
C1120 C1121 1.287 . S
C1121 C1120 1.287 . S
C1121 C1122 1.524 . S
C1121 H1124 0.999 . S
C1122 H1092 0.950 . S
C1122 C1121 1.524 . S
C1122 C1123 1.415 . S
C1123 H1093 0.950 . S
C1123 C1118 1.363 . S
C1123 C1122 1.415 . S
H1124 C1121 0.999 . S
H1125 C1106 0.913 . S
H1126 C1144 0.951 . S
H1127 C1146 0.951 . S
H1128 C1148 0.950 . S
H1129 C1149 0.950 . S
H1130 C1151 0.950 . S
H1131 C1154 0.950 . S
H1132 C1155 0.950 . S
H1133 C1157 0.950 . S
H1134 C1158 0.950 . S
H1135 C1159 0.951 . S
H1136 C1161 0.951 . S
H1137 C1163 0.950 . S
H1138 C1164 0.950 . S
H1139 C1166 0.950 . S
H1140 C1169 0.950 . S
H1141 C1170 0.950 . S
H1142 C1172 0.950 . S
H1143 C1173 0.950 . S
C1144 H1126 0.951 . S
C1144 C1145 1.366 . S
C1144 C1146 1.388 . S
C1145 C1144 1.366 . S
C1145 C1149 1.385 . S
C1146 H1127 0.951 . S
C1146 C1144 1.388 . S
C1146 C1147 1.366 . S
C1147 C1146 1.366 . S
C1147 C1148 1.414 . S
C1147 C1150 1.499 . S
C1148 H1128 0.950 . S
C1148 C1147 1.414 . S
C1148 C1149 1.374 . S
C1149 H1129 0.950 . S
C1149 C1145 1.385 . S
C1149 C1148 1.374 . S
C1150 C1147 1.499 . S
C1150 C1151 1.373 . S
C1150 C1152 1.389 . S
C1151 H1130 0.950 . S
C1151 C1150 1.373 . S
C1151 C1167 1.377 . S
C1152 C1150 1.389 . S
C1152 C1153 1.524 . S
C1152 C1166 1.377 . S
C1153 C1152 1.524 . S
C1153 C1154 1.397 . S
C1153 C1158 1.363 . S
C1154 H1131 0.950 . S
C1154 C1153 1.397 . S
C1154 C1155 1.334 . S
C1155 H1132 0.950 . S
C1155 C1154 1.334 . S
C1155 C1156 1.287 . S
C1156 C1155 1.287 . S
C1156 C1157 1.524 . S
C1156 H1175 0.913 . S
C1157 H1133 0.950 . S
C1157 C1156 1.524 . S
C1157 C1158 1.415 . S
C1158 H1134 0.950 . S
C1158 C1153 1.363 . S
C1158 C1157 1.415 . S
C1159 H1135 0.951 . S
C1159 C1160 1.366 . S
C1159 C1161 1.388 . S
C1160 C1159 1.366 . S
C1160 C1164 1.385 . S
C1161 H1136 0.951 . S
C1161 C1159 1.388 . S
C1161 C1162 1.366 . S
C1162 C1161 1.366 . S
C1162 C1163 1.414 . S
C1162 C1165 1.499 . S
C1163 H1137 0.950 . S
C1163 C1162 1.414 . S
C1163 C1164 1.374 . S
C1164 H1138 0.950 . S
C1164 C1160 1.385 . S
C1164 C1163 1.374 . S
C1165 C1162 1.499 . S
C1165 C1166 1.373 . S
C1165 C1167 1.389 . S
C1166 H1139 0.950 . S
C1166 C1152 1.377 . S
C1166 C1165 1.373 . S
C1167 C1151 1.377 . S
C1167 C1165 1.389 . S
C1167 C1168 1.524 . S
C1168 C1167 1.524 . S
C1168 C1169 1.397 . S
C1168 C1173 1.363 . S
C1169 H1140 0.950 . S
C1169 C1168 1.397 . S
C1169 C1170 1.334 . S
C1170 H1141 0.950 . S
C1170 C1169 1.334 . S
C1170 C1171 1.287 . S
C1171 C1170 1.287 . S
C1171 C1172 1.524 . S
C1171 H1174 0.999 . S
C1172 H1142 0.950 . S
C1172 C1171 1.524 . S
C1172 C1173 1.415 . S
C1173 H1143 0.950 . S
C1173 C1168 1.363 . S
C1173 C1172 1.415 . S
H1174 C1171 0.999 . S
H1175 C1156 0.913 . S
H1176 C1194 0.951 . S
H1177 C1196 0.951 . S
H1178 C1198 0.950 . S
H1179 C1199 0.950 . S
H1180 C1201 0.950 . S
H1181 C1204 0.950 . S
H1182 C1205 0.950 . S
H1183 C1207 0.950 . S
H1184 C1208 0.950 . S
H1185 C1209 0.951 . S
H1186 C1211 0.951 . S
H1187 C1213 0.950 . S
H1188 C1214 0.950 . S
H1189 C1216 0.950 . S
H1190 C1219 0.950 . S
H1191 C1220 0.950 . S
H1192 C1222 0.950 . S
H1193 C1223 0.950 . S
C1194 H1176 0.951 . S
C1194 C1195 1.366 . S
C1194 C1196 1.388 . S
C1195 C1194 1.366 . S
C1195 C1199 1.385 . S
C1196 H1177 0.951 . S
C1196 C1194 1.388 . S
C1196 C1197 1.366 . S
C1197 C1196 1.366 . S
C1197 C1198 1.414 . S
C1197 C1200 1.499 . S
C1198 H1178 0.950 . S
C1198 C1197 1.414 . S
C1198 C1199 1.374 . S
C1199 H1179 0.950 . S
C1199 C1195 1.385 . S
C1199 C1198 1.374 . S
C1200 C1197 1.499 . S
C1200 C1201 1.373 . S
C1200 C1202 1.389 . S
C1201 H1180 0.950 . S
C1201 C1200 1.373 . S
C1201 C1217 1.377 . S
C1202 C1200 1.389 . S
C1202 C1203 1.524 . S
C1202 C1216 1.377 . S
C1203 C1202 1.524 . S
C1203 C1204 1.397 . S
C1203 C1208 1.363 . S
C1204 H1181 0.950 . S
C1204 C1203 1.397 . S
C1204 C1205 1.334 . S
C1205 H1182 0.950 . S
C1205 C1204 1.334 . S
C1205 C1206 1.287 . S
C1206 C1205 1.287 . S
C1206 C1207 1.524 . S
C1206 H1225 0.913 . S
C1207 H1183 0.950 . S
C1207 C1206 1.524 . S
C1207 C1208 1.415 . S
C1208 H1184 0.950 . S
C1208 C1203 1.363 . S
C1208 C1207 1.415 . S
C1209 H1185 0.951 . S
C1209 C1210 1.366 . S
C1209 C1211 1.388 . S
C1210 C1209 1.366 . S
C1210 C1214 1.385 . S
C1211 H1186 0.951 . S
C1211 C1209 1.388 . S
C1211 C1212 1.366 . S
C1212 C1211 1.366 . S
C1212 C1213 1.414 . S
C1212 C1215 1.499 . S
C1213 H1187 0.950 . S
C1213 C1212 1.414 . S
C1213 C1214 1.374 . S
C1214 H1188 0.950 . S
C1214 C1210 1.385 . S
C1214 C1213 1.374 . S
C1215 C1212 1.499 . S
C1215 C1216 1.373 . S
C1215 C1217 1.389 . S
C1216 H1189 0.950 . S
C1216 C1202 1.377 . S
C1216 C1215 1.373 . S
C1217 C1201 1.377 . S
C1217 C1215 1.389 . S
C1217 C1218 1.524 . S
C1218 C1217 1.524 . S
C1218 C1219 1.397 . S
C1218 C1223 1.363 . S
C1219 H1190 0.950 . S
C1219 C1218 1.397 . S
C1219 C1220 1.334 . S
C1220 H1191 0.950 . S
C1220 C1219 1.334 . S
C1220 C1221 1.287 . S
C1221 C1220 1.287 . S
C1221 C1222 1.524 . S
C1221 H1224 0.999 . S
C1222 H1192 0.950 . S
C1222 C1221 1.524 . S
C1222 C1223 1.415 . S
C1223 H1193 0.950 . S
C1223 C1218 1.363 . S
C1223 C1222 1.415 . S
H1224 C1221 0.999 . S
H1225 C1206 0.913 . S
H1226 C1244 0.951 . S
H1227 C1246 0.951 . S
H1228 C1248 0.950 . S
H1229 C1249 0.950 . S
H1230 C1251 0.950 . S
H1231 C1254 0.950 . S
H1232 C1255 0.950 . S
H1233 C1257 0.950 . S
H1234 C1258 0.950 . S
H1235 C1259 0.951 . S
H1236 C1261 0.951 . S
H1237 C1263 0.950 . S
H1238 C1264 0.950 . S
H1239 C1266 0.950 . S
H1240 C1269 0.950 . S
H1241 C1270 0.950 . S
H1242 C1272 0.950 . S
H1243 C1273 0.950 . S
C1244 H1226 0.951 . S
C1244 C1245 1.366 . S
C1244 C1246 1.388 . S
C1245 C1244 1.366 . S
C1245 C1249 1.385 . S
C1246 H1227 0.951 . S
C1246 C1244 1.388 . S
C1246 C1247 1.366 . S
C1247 C1246 1.366 . S
C1247 C1248 1.414 . S
C1247 C1250 1.499 . S
C1248 H1228 0.950 . S
C1248 C1247 1.414 . S
C1248 C1249 1.374 . S
C1249 H1229 0.950 . S
C1249 C1245 1.385 . S
C1249 C1248 1.374 . S
C1250 C1247 1.499 . S
C1250 C1251 1.373 . S
C1250 C1252 1.389 . S
C1251 H1230 0.950 . S
C1251 C1250 1.373 . S
C1251 C1267 1.377 . S
C1252 C1250 1.389 . S
C1252 C1253 1.524 . S
C1252 C1266 1.377 . S
C1253 C1252 1.524 . S
C1253 C1254 1.397 . S
C1253 C1258 1.363 . S
C1254 H1231 0.950 . S
C1254 C1253 1.397 . S
C1254 C1255 1.334 . S
C1255 H1232 0.950 . S
C1255 C1254 1.334 . S
C1255 C1256 1.287 . S
C1256 C1255 1.287 . S
C1256 C1257 1.524 . S
C1256 H1275 0.913 . S
C1257 H1233 0.950 . S
C1257 C1256 1.524 . S
C1257 C1258 1.415 . S
C1258 H1234 0.950 . S
C1258 C1253 1.363 . S
C1258 C1257 1.415 . S
C1259 H1235 0.951 . S
C1259 C1260 1.366 . S
C1259 C1261 1.388 . S
C1260 C1259 1.366 . S
C1260 C1264 1.385 . S
C1261 H1236 0.951 . S
C1261 C1259 1.388 . S
C1261 C1262 1.366 . S
C1262 C1261 1.366 . S
C1262 C1263 1.414 . S
C1262 C1265 1.499 . S
C1263 H1237 0.950 . S
C1263 C1262 1.414 . S
C1263 C1264 1.374 . S
C1264 H1238 0.950 . S
C1264 C1260 1.385 . S
C1264 C1263 1.374 . S
C1265 C1262 1.499 . S
C1265 C1266 1.373 . S
C1265 C1267 1.389 . S
C1266 H1239 0.950 . S
C1266 C1252 1.377 . S
C1266 C1265 1.373 . S
C1267 C1251 1.377 . S
C1267 C1265 1.389 . S
C1267 C1268 1.524 . S
C1268 C1267 1.524 . S
C1268 C1269 1.397 . S
C1268 C1273 1.363 . S
C1269 H1240 0.950 . S
C1269 C1268 1.397 . S
C1269 C1270 1.334 . S
C1270 H1241 0.950 . S
C1270 C1269 1.334 . S
C1270 C1271 1.287 . S
C1271 C1270 1.287 . S
C1271 C1272 1.524 . S
C1271 H1274 0.999 . S
C1272 H1242 0.950 . S
C1272 C1271 1.524 . S
C1272 C1273 1.415 . S
C1273 H1243 0.950 . S
C1273 C1268 1.363 . S
C1273 C1272 1.415 . S
H1274 C1271 0.999 . S
H1275 C1256 0.913 . S
H1276 C1294 0.951 . S
H1277 C1296 0.951 . S
H1278 C1298 0.950 . S
H1279 C1299 0.950 . S
H1280 C1301 0.950 . S
H1281 C1304 0.950 . S
H1282 C1305 0.950 . S
H1283 C1307 0.950 . S
H1284 C1308 0.950 . S
H1285 C1309 0.951 . S
H1286 C1311 0.951 . S
H1287 C1313 0.950 . S
H1288 C1314 0.950 . S
H1289 C1316 0.950 . S
H1290 C1319 0.950 . S
H1291 C1320 0.950 . S
H1292 C1322 0.950 . S
H1293 C1323 0.950 . S
C1294 H1276 0.951 . S
C1294 C1295 1.366 . S
C1294 C1296 1.388 . S
C1295 C1294 1.366 . S
C1295 C1299 1.385 . S
C1296 H1277 0.951 . S
C1296 C1294 1.388 . S
C1296 C1297 1.366 . S
C1297 C1296 1.366 . S
C1297 C1298 1.414 . S
C1297 C1300 1.499 . S
C1298 H1278 0.950 . S
C1298 C1297 1.414 . S
C1298 C1299 1.374 . S
C1299 H1279 0.950 . S
C1299 C1295 1.385 . S
C1299 C1298 1.374 . S
C1300 C1297 1.499 . S
C1300 C1301 1.373 . S
C1300 C1302 1.389 . S
C1301 H1280 0.950 . S
C1301 C1300 1.373 . S
C1301 C1317 1.377 . S
C1302 C1300 1.389 . S
C1302 C1303 1.524 . S
C1302 C1316 1.377 . S
C1303 C1302 1.524 . S
C1303 C1304 1.397 . S
C1303 C1308 1.363 . S
C1304 H1281 0.950 . S
C1304 C1303 1.397 . S
C1304 C1305 1.334 . S
C1305 H1282 0.950 . S
C1305 C1304 1.334 . S
C1305 C1306 1.287 . S
C1306 C1305 1.287 . S
C1306 C1307 1.524 . S
C1306 H1325 0.913 . S
C1307 H1283 0.950 . S
C1307 C1306 1.524 . S
C1307 C1308 1.415 . S
C1308 H1284 0.950 . S
C1308 C1303 1.363 . S
C1308 C1307 1.415 . S
C1309 H1285 0.951 . S
C1309 C1310 1.366 . S
C1309 C1311 1.388 . S
C1310 C1309 1.366 . S
C1310 C1314 1.385 . S
C1311 H1286 0.951 . S
C1311 C1309 1.388 . S
C1311 C1312 1.366 . S
C1312 C1311 1.366 . S
C1312 C1313 1.414 . S
C1312 C1315 1.499 . S
C1313 H1287 0.950 . S
C1313 C1312 1.414 . S
C1313 C1314 1.374 . S
C1314 H1288 0.950 . S
C1314 C1310 1.385 . S
C1314 C1313 1.374 . S
C1315 C1312 1.499 . S
C1315 C1316 1.373 . S
C1315 C1317 1.389 . S
C1316 H1289 0.950 . S
C1316 C1302 1.377 . S
C1316 C1315 1.373 . S
C1317 C1301 1.377 . S
C1317 C1315 1.389 . S
C1317 C1318 1.524 . S
C1318 C1317 1.524 . S
C1318 C1319 1.397 . S
C1318 C1323 1.363 . S
C1319 H1290 0.950 . S
C1319 C1318 1.397 . S
C1319 C1320 1.334 . S
C1320 H1291 0.950 . S
C1320 C1319 1.334 . S
C1320 C1321 1.287 . S
C1321 C1320 1.287 . S
C1321 C1322 1.524 . S
C1321 H1324 0.999 . S
C1322 H1292 0.950 . S
C1322 C1321 1.524 . S
C1322 C1323 1.415 . S
C1323 H1293 0.950 . S
C1323 C1318 1.363 . S
C1323 C1322 1.415 . S
H1324 C1321 0.999 . S
H1325 C1306 0.913 . S
H1326 C1344 0.951 . S
H1327 C1346 0.951 . S
H1328 C1348 0.950 . S
H1329 C1349 0.950 . S
H1330 C1351 0.950 . S
H1331 C1354 0.950 . S
H1332 C1355 0.950 . S
H1333 C1357 0.950 . S
H1334 C1358 0.950 . S
H1335 C1359 0.951 . S
H1336 C1361 0.951 . S
H1337 C1363 0.950 . S
H1338 C1364 0.950 . S
H1339 C1366 0.950 . S
H1340 C1369 0.950 . S
H1341 C1370 0.950 . S
H1342 C1372 0.950 . S
H1343 C1373 0.950 . S
C1344 H1326 0.951 . S
C1344 C1345 1.366 . S
C1344 C1346 1.388 . S
C1345 C1344 1.366 . S
C1345 C1349 1.385 . S
C1346 H1327 0.951 . S
C1346 C1344 1.388 . S
C1346 C1347 1.366 . S
C1347 C1346 1.366 . S
C1347 C1348 1.414 . S
C1347 C1350 1.499 . S
C1348 H1328 0.950 . S
C1348 C1347 1.414 . S
C1348 C1349 1.374 . S
C1349 H1329 0.950 . S
C1349 C1345 1.385 . S
C1349 C1348 1.374 . S
C1350 C1347 1.499 . S
C1350 C1351 1.373 . S
C1350 C1352 1.389 . S
C1351 H1330 0.950 . S
C1351 C1350 1.373 . S
C1351 C1367 1.377 . S
C1352 C1350 1.389 . S
C1352 C1353 1.524 . S
C1352 C1366 1.377 . S
C1353 C1352 1.524 . S
C1353 C1354 1.397 . S
C1353 C1358 1.363 . S
C1354 H1331 0.950 . S
C1354 C1353 1.397 . S
C1354 C1355 1.334 . S
C1355 H1332 0.950 . S
C1355 C1354 1.334 . S
C1355 C1356 1.287 . S
C1356 C1355 1.287 . S
C1356 C1357 1.524 . S
C1356 H1375 0.913 . S
C1357 H1333 0.950 . S
C1357 C1356 1.524 . S
C1357 C1358 1.415 . S
C1358 H1334 0.950 . S
C1358 C1353 1.363 . S
C1358 C1357 1.415 . S
C1359 H1335 0.951 . S
C1359 C1360 1.366 . S
C1359 C1361 1.388 . S
C1360 C1359 1.366 . S
C1360 C1364 1.385 . S
C1361 H1336 0.951 . S
C1361 C1359 1.388 . S
C1361 C1362 1.366 . S
C1362 C1361 1.366 . S
C1362 C1363 1.414 . S
C1362 C1365 1.499 . S
C1363 H1337 0.950 . S
C1363 C1362 1.414 . S
C1363 C1364 1.374 . S
C1364 H1338 0.950 . S
C1364 C1360 1.385 . S
C1364 C1363 1.374 . S
C1365 C1362 1.499 . S
C1365 C1366 1.373 . S
C1365 C1367 1.389 . S
C1366 H1339 0.950 . S
C1366 C1352 1.377 . S
C1366 C1365 1.373 . S
C1367 C1351 1.377 . S
C1367 C1365 1.389 . S
C1367 C1368 1.524 . S
C1368 C1367 1.524 . S
C1368 C1369 1.397 . S
C1368 C1373 1.363 . S
C1369 H1340 0.950 . S
C1369 C1368 1.397 . S
C1369 C1370 1.334 . S
C1370 H1341 0.950 . S
C1370 C1369 1.334 . S
C1370 C1371 1.287 . S
C1371 C1370 1.287 . S
C1371 C1372 1.524 . S
C1371 H1374 0.999 . S
C1372 H1342 0.950 . S
C1372 C1371 1.524 . S
C1372 C1373 1.415 . S
C1373 H1343 0.950 . S
C1373 C1368 1.363 . S
C1373 C1372 1.415 . S
H1374 C1371 0.999 . S
H1375 C1356 0.913 . S
C195 C9 0.503 . S
C210 C71 0.506 . S
C245 C27 0.506 . S
C260 C49 0.503 . S
C295 C94 0.506 . S
C310 C160 0.503 . S
C345 C116 0.503 . S
C360 C139 0.506 . S
C395 C6 2.094 . S
C410 C97 2.094 . S
C445 C119 2.094 . S
C460 C29 2.094 . S
C495 C137 2.094 . S
C510 C51 2.094 . S
C545 C73 2.094 . S
C560 C163 2.094 . S
C595 C141 0.800 . S
C610 C4 0.802 . S
C645 C159 0.800 . S
C660 C30 0.802 . S
C695 C52 0.803 . S
C710 C93 0.800 . S
C745 C74 0.802 . S
C760 C115 0.799 . S
C795 C50 0.800 . S
C810 C96 0.803 . S
C845 C118 0.803 . S
C860 C72 0.801 . S
C895 C7 0.799 . S
C910 C136 0.801 . S
C945 C162 0.802 . S
C960 C28 0.800 . S
C995 C5 1.672 1_556 S
C1010 C26 1.697 . S
C1045 C8 1.697 . S
C1060 C31 1.672 . S
C1095 C70 1.697 . S
C1110 C53 1.672 1_554 S
C1145 C75 1.672 . S
C1160 C48 1.697 . S
C1195 C95 1.672 1_554 S
C1210 C114 1.697 . S
C1245 C92 1.697 . S
C1260 C117 1.672 . S
C1295 C158 1.697 . S
C1310 C138 1.672 1_556 S
C1345 C161 1.671 . S
C1360 C140 1.697 . S
