# Generated by pormake.
# Topology wkh, (6)-cn, num edge types: 1
# Building blocks:
#     Node 0, Type 0, BuildingBlock: VOLQOD_clean_sbu_1, # of connection points: 6
#     Node 1, Type 0, BuildingBlock: VOLQOD_clean_sbu_1, # of connection points: 6
#     Node 2, Type 0, BuildingBlock: VOLQOD_clean_sbu_1, # of connection points: 6
#     Node 3, Type 0, BuildingBlock: VOLQOD_clean_sbu_1, # of connection points: 6
#     Node 4, Type 0, BuildingBlock: VOLQOD_clean_sbu_1, # of connection points: 6
#     Node 5, Type 0, BuildingBlock: VOLQOD_clean_sbu_1, # of connection points: 6
#     Node 6, Type 0, BuildingBlock: VOLQOD_clean_sbu_1, # of connection points: 6
#     Node 7, Type 0, BuildingBlock: VOLQOD_clean_sbu_1, # of connection points: 6
#     Node 8, Type 0, BuildingBlock: VOLQOD_clean_sbu_1, # of connection points: 6
#     Node 9, Type 0, BuildingBlock: VOLQOD_clean_sbu_1, # of connection points: 6
#     Node 10, Type 0, BuildingBlock: VOLQOD_clean_sbu_1, # of connection points: 6
#     Node 11, Type 0, BuildingBlock: VOLQOD_clean_sbu_1, # of connection points: 6
#     Edge 12, Type (0, 0), BuildingBlock: UVAHIK_clean_linker_0, # of connection points: 2
#     Edge 13, Type (0, 0), BuildingBlock: UVAHIK_clean_linker_0, # of connection points: 2
#     Edge 14, Type (0, 0), BuildingBlock: UVAHIK_clean_linker_0, # of connection points: 2
#     Edge 15, Type (0, 0), BuildingBlock: UVAHIK_clean_linker_0, # of connection points: 2
#     Edge 16, Type (0, 0), BuildingBlock: UVAHIK_clean_linker_0, # of connection points: 2
#     Edge 17, Type (0, 0), BuildingBlock: UVAHIK_clean_linker_0, # of connection points: 2
#     Edge 18, Type (0, 0), BuildingBlock: UVAHIK_clean_linker_0, # of connection points: 2
#     Edge 19, Type (0, 0), BuildingBlock: UVAHIK_clean_linker_0, # of connection points: 2
#     Edge 20, Type (0, 0), BuildingBlock: UVAHIK_clean_linker_0, # of connection points: 2
#     Edge 21, Type (0, 0), BuildingBlock: UVAHIK_clean_linker_0, # of connection points: 2
#     Edge 22, Type (0, 0), BuildingBlock: UVAHIK_clean_linker_0, # of connection points: 2
#     Edge 23, Type (0, 0), BuildingBlock: UVAHIK_clean_linker_0, # of connection points: 2
#     Edge 24, Type (0, 0), BuildingBlock: UVAHIK_clean_linker_0, # of connection points: 2
#     Edge 25, Type (0, 0), BuildingBlock: UVAHIK_clean_linker_0, # of connection points: 2
#     Edge 26, Type (0, 0), BuildingBlock: UVAHIK_clean_linker_0, # of connection points: 2
#     Edge 27, Type (0, 0), BuildingBlock: UVAHIK_clean_linker_0, # of connection points: 2
#     Edge 28, Type (0, 0), BuildingBlock: UVAHIK_clean_linker_0, # of connection points: 2
#     Edge 29, Type (0, 0), BuildingBlock: UVAHIK_clean_linker_0, # of connection points: 2
#     Edge 30, Type (0, 0), BuildingBlock: UVAHIK_clean_linker_0, # of connection points: 2
#     Edge 31, Type (0, 0), BuildingBlock: UVAHIK_clean_linker_0, # of connection points: 2
#     Edge 32, Type (0, 0), BuildingBlock: UVAHIK_clean_linker_0, # of connection points: 2
#     Edge 33, Type (0, 0), BuildingBlock: UVAHIK_clean_linker_0, # of connection points: 2
#     Edge 34, Type (0, 0), BuildingBlock: UVAHIK_clean_linker_0, # of connection points: 2
#     Edge 35, Type (0, 0), BuildingBlock: UVAHIK_clean_linker_0, # of connection points: 2
#     Edge 36, Type (0, 0), BuildingBlock: UVAHIK_clean_linker_0, # of connection points: 2
#     Edge 37, Type (0, 0), BuildingBlock: UVAHIK_clean_linker_0, # of connection points: 2
#     Edge 38, Type (0, 0), BuildingBlock: UVAHIK_clean_linker_0, # of connection points: 2
#     Edge 39, Type (0, 0), BuildingBlock: UVAHIK_clean_linker_0, # of connection points: 2
#     Edge 40, Type (0, 0), BuildingBlock: UVAHIK_clean_linker_0, # of connection points: 2
#     Edge 41, Type (0, 0), BuildingBlock: UVAHIK_clean_linker_0, # of connection points: 2
#     Edge 42, Type (0, 0), BuildingBlock: UVAHIK_clean_linker_0, # of connection points: 2
#     Edge 43, Type (0, 0), BuildingBlock: UVAHIK_clean_linker_0, # of connection points: 2
#     Edge 44, Type (0, 0), BuildingBlock: UVAHIK_clean_linker_0, # of connection points: 2
#     Edge 45, Type (0, 0), BuildingBlock: UVAHIK_clean_linker_0, # of connection points: 2
#     Edge 46, Type (0, 0), BuildingBlock: UVAHIK_clean_linker_0, # of connection points: 2
#     Edge 47, Type (0, 0), BuildingBlock: UVAHIK_clean_linker_0, # of connection points: 2
# Relax obj value: 0.364
# Max RMSD: 0.262
# Mean RMSD: 0.262
data_MOF--net-wkh--node1-VOLQOD_clean_sbu_1--edge1-UVAHIK_clean_linker_0
_symmetry_space_group_name_H-M    P1
_symmetry_Int_Tables_number       1
_symmetry_cell_setting            triclinic
loop_
_symmetry_equiv_pos_as_xyz
'x, y, z'
_cell_length_a     34.646104
_cell_length_b     34.62457
_cell_length_c     111.12843
_cell_angle_alpha  90.033558
_cell_angle_beta   89.993668
_cell_angle_gamma 119.98332
loop_
_atom_site_label
_atom_site_type_symbol
_atom_site_fract_x
_atom_site_fract_y
_atom_site_fract_z
_atom_type_partial_charge
O0 O 0.13867 0.32586 0.04174 0.0
Zn1 Zn 0.14977 0.31016 0.0253 0.0
O2 O 0.21261 0.33296 0.02277 0.0
Zn3 Zn 0.2228 0.28432 0.01892 0.0
Zn4 Zn 0.24455 0.36055 0.03765 0.0
Zn5 Zn 0.23329 0.37553 0.00936 0.0
O6 O 0.25259 0.29327 0.00301 0.0
O7 O 0.24929 0.35018 0.99491 0.0
O8 O 0.11288 0.24391 0.02269 0.0
O9 O 0.16497 0.2269 0.0181 0.0
O10 O 0.25885 0.27529 0.03144 0.0
O11 O 0.26473 0.32171 0.046 0.0
O12 O 0.3007 0.41718 0.03341 0.0
O13 O 0.12777 0.33957 0.0142 0.0
O14 O 0.29174 0.42949 0.01422 0.0
O15 O 0.18603 0.39132 0.00412 0.0
C16 C 0.16335 0.35154 0.05008 0.0
C17 C 0.25868 0.31903 0.99417 0.0
C18 C 0.27081 0.29065 0.04202 0.0
C19 C 0.12434 0.21549 0.01981 0.0
C20 C 0.31511 0.44031 0.02382 0.0
C21 C 0.14457 0.37157 0.00672 0.0
O22 O 0.20573 0.37022 0.04954 0.0
O23 O 0.81707 0.14492 0.20717 0.0
Zn24 Zn 0.84043 0.1599 0.19035 0.0
O25 O 0.87756 0.22356 0.18832 0.0
Zn26 Zn 0.93626 0.23761 0.18315 0.0
Zn27 Zn 0.88302 0.2521 0.20377 0.0
Zn28 Zn 0.85261 0.24534 0.17606 0.0
O29 O 0.95601 0.27593 0.16851 0.0
O30 O 0.89209 0.26608 0.16121 0.0
O31 O 0.87164 0.12616 0.18549 0.0
O32 O 0.93555 0.18167 0.17859 0.0
O33 O 0.98172 0.26603 0.19623 0.0
O34 O 0.94249 0.26994 0.21146 0.0
O35 O 0.88204 0.30889 0.20091 0.0
O36 O 0.78634 0.13811 0.18015 0.0
O37 O 0.85555 0.30172 0.18229 0.0
O38 O 0.79008 0.19697 0.17098 0.0
C39 C 0.81474 0.16783 0.21582 0.0
C40 C 0.93377 0.28066 0.16011 0.0
C41 C 0.97894 0.27533 0.20716 0.0
C42 C 0.9091 0.14028 0.1803 0.0
C43 C 0.87054 0.3241 0.192 0.0
C44 C 0.76956 0.15522 0.17327 0.0
O45 O 0.83561 0.21037 0.21549 0.0
O46 O 0.67545 0.82712 0.37392 0.0
Zn47 Zn 0.68254 0.84889 0.35697 0.0
O48 O 0.65468 0.88465 0.35471 0.0
Zn49 Zn 0.69822 0.94337 0.34924 0.0
Zn50 Zn 0.6316 0.89059 0.37011 0.0
Zn51 Zn 0.60776 0.85772 0.34255 0.0
O52 O 0.6786 0.96088 0.33438 0.0
O53 O 0.62586 0.89558 0.32737 0.0
O54 O 0.74711 0.88077 0.35192 0.0
O55 O 0.75425 0.94396 0.34484 0.0
O56 O 0.71436 0.98981 0.36201 0.0
O57 O 0.67221 0.95114 0.37744 0.0
O58 O 0.57287 0.88745 0.36722 0.0
O59 O 0.65086 0.79379 0.34715 0.0
O60 O 0.55401 0.86028 0.34864 0.0
O61 O 0.59422 0.79481 0.33807 0.0
C62 C 0.65033 0.82484 0.38258 0.0
C63 C 0.6521 0.93736 0.32604 0.0
C64 C 0.70246 0.98763 0.37293 0.0
C65 C 0.76989 0.91815 0.34665 0.0
C66 C 0.54611 0.87509 0.35831 0.0
C67 C 0.61647 0.77543 0.34047 0.0
O68 O 0.62777 0.84477 0.38213 0.0
O69 O 0.84897 0.67801 0.54133 0.0
Zn70 Zn 0.83588 0.6856 0.52419 0.0
O71 O 0.77243 0.65875 0.52161 0.0
Zn72 Zn 0.75805 0.7035 0.51669 0.0
Zn73 Zn 0.742 0.63356 0.53669 0.0
Zn74 Zn 0.75284 0.61337 0.50901 0.0
O75 O 0.72293 0.68669 0.50147 0.0
O76 O 0.73508 0.63422 0.49399 0.0
O77 O 0.86965 0.75039 0.51916 0.0
O78 O 0.81404 0.76015 0.51316 0.0
O79 O 0.72626 0.71753 0.52949 0.0
O80 O 0.72173 0.67316 0.54445 0.0
O81 O 0.68656 0.57535 0.53328 0.0
O82 O 0.85908 0.65325 0.5145 0.0
O83 O 0.69552 0.55925 0.51446 0.0
O84 O 0.80181 0.59913 0.5046 0.0
C85 C 0.82509 0.65158 0.54967 0.0
C86 C 0.72033 0.66122 0.49287 0.0
C87 C 0.71575 0.70401 0.54027 0.0
C88 C 0.85548 0.77478 0.51462 0.0
C89 C 0.67239 0.55001 0.52408 0.0
C90 C 0.84306 0.6198 0.50746 0.0
O91 O 0.78279 0.62834 0.54871 0.0
O92 O 0.18315 0.85389 0.7084 0.0
Zn93 Zn 0.15896 0.84293 0.69167 0.0
O94 O 0.12149 0.78002 0.68883 0.0
Zn95 Zn 0.06159 0.76694 0.68533 0.0
Zn96 Zn 0.12024 0.74775 0.70335 0.0
Zn97 Zn 0.14405 0.76228 0.67505 0.0
O98 O 0.04025 0.73569 0.66958 0.0
O99 O 0.1026 0.74712 0.66074 0.0
O100 O 0.12751 0.87754 0.68867 0.0
O101 O 0.05923 0.82341 0.6842 0.0
O102 O 0.01891 0.73095 0.69829 0.0
O103 O 0.06193 0.72633 0.71233 0.0
O104 O 0.12157 0.69226 0.69843 0.0
O105 O 0.21185 0.86737 0.68097 0.0
O106 O 0.14059 0.70385 0.67908 0.0
O107 O 0.20654 0.81107 0.6701 0.0
C108 C 0.18831 0.82987 0.71619 0.0
C109 C 0.06095 0.73351 0.66038 0.0
C110 C 0.02404 0.71949 0.70877 0.0
C111 C 0.08737 0.86453 0.68574 0.0
C112 C 0.12938 0.67923 0.68844 0.0
C113 C 0.2277 0.85209 0.6732 0.0
O114 O 0.16984 0.78764 0.71493 0.0
O115 O 0.32558 0.17234 0.87451 0.0
Zn116 Zn 0.31798 0.15142 0.8574 0.0
O117 O 0.34291 0.113 0.85486 0.0
Zn118 Zn 0.29637 0.05524 0.84966 0.0
Zn119 Zn 0.36601 0.10591 0.87012 0.0
Zn120 Zn 0.38931 0.13725 0.84242 0.0
O121 O 0.31333 0.03477 0.83495 0.0
O122 O 0.37025 0.09676 0.82765 0.0
O123 O 0.25346 0.12308 0.85229 0.0
O124 O 0.24277 0.05867 0.84508 0.0
O125 O 0.27786 0.00896 0.86256 0.0
O126 O 0.32423 0.04596 0.87748 0.0
O127 O 0.42383 0.10732 0.86712 0.0
O128 O 0.35184 0.20603 0.84757 0.0
O129 O 0.44295 0.13468 0.84858 0.0
O130 O 0.40396 0.20017 0.8374 0.0
C131 C 0.35 0.17264 0.88312 0.0
C132 C 0.34115 0.05554 0.8266 0.0
C133 C 0.29139 0.01053 0.87329 0.0
C134 C 0.22935 0.08629 0.84687 0.0
C135 C 0.45057 0.1195 0.85821 0.0
C136 C 0.38453 0.22199 0.84029 0.0
O137 O 0.37137 0.15156 0.88238 0.0
O138 O 0.67568 0.84727 0.78809 0.0
Zn139 Zn 0.6836 0.83323 0.80503 0.0
O140 O 0.6574 0.76976 0.80732 0.0
Zn141 Zn 0.70238 0.75661 0.81284 0.0
Zn142 Zn 0.63471 0.74018 0.79195 0.0
Zn143 Zn 0.61033 0.74868 0.81945 0.0
O144 O 0.68334 0.71891 0.82763 0.0
O145 O 0.62914 0.72942 0.83454 0.0
O146 O 0.74816 0.8677 0.81007 0.0
O147 O 0.75701 0.81305 0.81744 0.0
O148 O 0.72069 0.72826 0.8 0.0
O149 O 0.67629 0.72133 0.78478 0.0
O150 O 0.57661 0.68385 0.79482 0.0
O151 O 0.65094 0.85533 0.81491 0.0
O152 O 0.55725 0.69182 0.81336 0.0
O153 O 0.5954 0.79697 0.82407 0.0
C154 C 0.65121 0.82391 0.77939 0.0
C155 C 0.65625 0.71495 0.83592 0.0
C156 C 0.7081 0.71734 0.78916 0.0
C157 C 0.77157 0.85427 0.81553 0.0
C158 C 0.54983 0.66909 0.80372 0.0
C159 C 0.61676 0.83862 0.82167 0.0
O160 O 0.62993 0.78138 0.77982 0.0
O161 O 0.81621 0.67336 0.95558 0.0
Zn162 Zn 0.83843 0.68136 0.97254 0.0
O163 O 0.87635 0.65588 0.97476 0.0
Zn164 Zn 0.93548 0.70195 0.97935 0.0
Zn165 Zn 0.88039 0.6304 0.95958 0.0
Zn166 Zn 0.8525 0.61085 0.98746 0.0
O167 O 0.95601 0.68591 0.99438 0.0
O168 O 0.89232 0.63319 0.00222 0.0
O169 O 0.86791 0.74577 0.97773 0.0
O170 O 0.9344 0.75756 0.98332 0.0
O171 O 0.98009 0.71721 0.96605 0.0
O172 O 0.93938 0.6703 0.95159 0.0
O173 O 0.87902 0.5727 0.96283 0.0
O174 O 0.78375 0.64782 0.98237 0.0
O175 O 0.85685 0.55746 0.9819 0.0
O176 O 0.789 0.59476 0.99218 0.0
C177 C 0.81324 0.64702 0.94716 0.0
C178 C 0.93401 0.6607 0.00312 0.0
C179 C 0.97615 0.70251 0.95535 0.0
C180 C 0.90641 0.77091 0.98219 0.0
C181 C 0.86966 0.54799 0.97211 0.0
C182 C 0.76736 0.61444 0.98941 0.0
O183 O 0.83306 0.62439 0.94782 0.0
O184 O 0.14596 0.82123 0.12253 0.0
Zn185 Zn 0.16097 0.84357 0.13948 0.0
O186 O 0.22451 0.88012 0.14165 0.0
Zn187 Zn 0.23884 0.93914 0.1466 0.0
Zn188 Zn 0.25336 0.88459 0.12632 0.0
Zn189 Zn 0.24549 0.8555 0.15422 0.0
O190 O 0.27822 0.95951 0.16102 0.0
O191 O 0.2647 0.89527 0.1691 0.0
O192 O 0.12761 0.87487 0.14456 0.0
O193 O 0.18329 0.93886 0.15138 0.0
O194 O 0.26666 0.98392 0.13335 0.0
O195 O 0.27347 0.94451 0.11864 0.0
O196 O 0.30877 0.88143 0.12934 0.0
O197 O 0.13892 0.78915 0.1495 0.0
O198 O 0.30255 0.85883 0.14835 0.0
O199 O 0.19693 0.7925 0.15903 0.0
C200 C 0.16879 0.81876 0.11389 0.0
C201 C 0.28114 0.93741 0.16977 0.0
C202 C 0.27768 0.98091 0.12262 0.0
C203 C 0.14187 0.91236 0.14975 0.0
C204 C 0.32432 0.87154 0.13849 0.0
C205 C 0.15539 0.77201 0.15647 0.0
O206 O 0.21124 0.83848 0.11438 0.0
O207 O 0.3256 0.15056 0.28772 0.0
Zn208 Zn 0.31701 0.16421 0.30473 0.0
O209 O 0.34429 0.22766 0.3073 0.0
Zn210 Zn 0.29973 0.24213 0.31225 0.0
Zn211 Zn 0.36956 0.25757 0.2922 0.0
Zn212 Zn 0.3894 0.24751 0.31994 0.0
O213 O 0.31807 0.28057 0.32691 0.0
O214 O 0.3689 0.2668 0.33475 0.0
O215 O 0.25207 0.1308 0.30953 0.0
O216 O 0.24454 0.18639 0.31684 0.0
O217 O 0.28295 0.27009 0.29895 0.0
O218 O 0.32925 0.27655 0.2843 0.0
O219 O 0.4273 0.31347 0.29563 0.0
O220 O 0.34825 0.14091 0.31479 0.0
O221 O 0.44391 0.3043 0.31438 0.0
O222 O 0.40247 0.19807 0.3247 0.0
C223 C 0.35259 0.1742 0.27945 0.0
C224 C 0.34305 0.28301 0.33561 0.0
C225 C 0.29692 0.28068 0.2882 0.0
C226 C 0.22922 0.14503 0.31495 0.0
C227 C 0.45286 0.32757 0.30479 0.0
C228 C 0.38128 0.15668 0.32196 0.0
O229 O 0.37575 0.21656 0.28036 0.0
O230 O 0.17921 0.32896 0.45398 0.0
Zn231 Zn 0.15398 0.31605 0.47061 0.0
O232 O 0.116 0.34131 0.47308 0.0
Zn233 Zn 0.05638 0.29462 0.47714 0.0
Zn234 Zn 0.11283 0.36932 0.4582 0.0
Zn235 Zn 0.13971 0.38447 0.48628 0.0
O236 O 0.03657 0.30659 0.49292 0.0
O237 O 0.09949 0.3603 0.50089 0.0
O238 O 0.12275 0.25006 0.47392 0.0
O239 O 0.05497 0.23646 0.4788 0.0
O240 O 0.01196 0.28475 0.46424 0.0
O241 O 0.05382 0.33126 0.44988 0.0
O242 O 0.11453 0.42675 0.46231 0.0
O243 O 0.20672 0.34548 0.48131 0.0
O244 O 0.13602 0.43892 0.48148 0.0
O245 O 0.2026 0.39905 0.49119 0.0
C246 C 0.18187 0.35552 0.44568 0.0
C247 C 0.05817 0.33149 0.50175 0.0
C248 C 0.01634 0.30018 0.45363 0.0
C249 C 0.08291 0.22329 0.4772 0.0
C250 C 0.12361 0.44998 0.4719 0.0
C251 C 0.22324 0.3782 0.48858 0.0
O252 O 0.16068 0.37683 0.44634 0.0
O253 O 0.8559 0.18056 0.62266 0.0
Zn254 Zn 0.84126 0.15649 0.63957 0.0
O255 O 0.77735 0.11862 0.6415 0.0
Zn256 Zn 0.76341 0.05913 0.64599 0.0
Zn257 Zn 0.7479 0.11451 0.62632 0.0
Zn258 Zn 0.75565 0.14257 0.65404 0.0
O259 O 0.72704 0.03891 0.661 0.0
O260 O 0.73649 0.10225 0.66873 0.0
O261 O 0.87501 0.12495 0.64414 0.0
O262 O 0.81945 0.05893 0.64973 0.0
O263 O 0.7332 0.01439 0.6328 0.0
O264 O 0.72783 0.05525 0.61828 0.0
O265 O 0.69214 0.11716 0.62933 0.0
O266 O 0.86323 0.2094 0.65043 0.0
O267 O 0.69903 0.14 0.64832 0.0
O268 O 0.80336 0.20526 0.65907 0.0
C269 C 0.83223 0.18223 0.6141 0.0
C270 C 0.72273 0.06062 0.66963 0.0
C271 C 0.72253 0.01826 0.62211 0.0
C272 C 0.8609 0.08609 0.64846 0.0
C273 C 0.67703 0.1274 0.6385 0.0
C274 C 0.84538 0.22561 0.65726 0.0
O275 O 0.78977 0.1613 0.61468 0.0
C276 C 0.7052 0.57096 0.00425 0.0
C277 C 0.72181 0.59862 0.99407 0.0
C278 C 0.66235 0.55791 0.00861 0.0
C279 C 0.55439 0.54094 -0.00146 0.0
H280 H 0.53172 0.55416 0.03203 0.0
C281 C 0.38021 0.5007 0.01269 0.0
C282 C 0.36314 0.47398 0.02301 0.0
C283 C 0.42593 0.52293 0.0103 0.0
C284 C 0.53741 0.54995 0.02266 0.0
H285 H 0.7062 0.63371 0.98043 0.0
H286 H 0.63207 0.61057 0.9879 0.0
H287 H 0.60718 0.57454 0.0256 0.0
H288 H 0.38135 0.45327 0.03948 0.0
H289 H 0.46051 0.4909 0.03517 0.0
H290 H 0.48505 0.51526 0.99552 0.0
C291 C 0.65198 0.5991 0.99255 0.0
C292 C 0.58059 0.56151 0.01901 0.0
C293 C 0.69463 0.6125 0.98831 0.0
C294 C 0.39325 0.47346 0.03142 0.0
C295 C 0.43889 0.49518 0.02895 0.0
C296 C 0.51135 0.52901 0.00219 0.0
C297 C 0.63532 0.57171 0.00273 0.0
C298 C 0.58946 0.55735 0.00689 0.0
C299 C 0.45553 0.51843 0.01808 0.0
C300 C 0.50222 0.53358 0.01427 0.0
H301 H 0.7254 0.5599 0.00891 0.0
H302 H 0.6501 0.53655 0.01645 0.0
H303 H 0.56019 0.53685 0.98917 0.0
H304 H 0.35803 0.5023 0.0061 0.0
H305 H 0.43777 0.54186 0.00204 0.0
C306 C 0.08223 0.70147 0.15619 0.0
C307 C 0.12467 0.7271 0.1614 0.0
C308 C 0.05205 0.65957 0.16072 0.0
C309 C 0.02049 0.58867 0.18735 0.0
H310 H 0.96138 0.49306 0.16412 0.0
C311 C 0.91799 0.40155 0.19987 0.0
C312 C 0.88497 0.37226 0.19179 0.0
C313 C 0.94236 0.44727 0.19748 0.0
C314 C 0.97669 0.51946 0.17074 0.0
H315 H 0.16848 0.7287 0.17556 0.0
H316 H 0.115 0.65469 0.18358 0.0
H317 H 0.01625 0.56702 0.1573 0.0
H318 H 0.84757 0.36884 0.1758 0.0
H319 H 0.88863 0.44874 0.17194 0.0
H320 H 0.98059 0.54095 0.20081 0.0
C321 C 0.10549 0.66759 0.17596 0.0
C322 C 0.00854 0.56182 0.16682 0.0
C323 C 0.13614 0.70969 0.17132 0.0
C324 C 0.87324 0.39035 0.1821 0.0
C325 C 0.8972 0.43615 0.17981 0.0
C326 C 0.98819 0.54616 0.1913 0.0
C327 C 0.06325 0.64208 0.17063 0.0
C328 C 0.03076 0.59689 0.17506 0.0
C329 C 0.93378 0.46478 0.18707 0.0
C330 C 0.96584 0.51099 0.18302 0.0
H331 H 0.07214 0.71366 0.14853 0.0
H332 H 0.01962 0.64091 0.1565 0.0
H333 H 0.03683 0.61528 0.19388 0.0
H334 H 0.92788 0.38888 0.20746 0.0
H335 H 0.97012 0.46816 0.20331 0.0
C336 C 0.37724 0.08277 0.32179 0.0
C337 C 0.39453 0.12535 0.32698 0.0
C338 C 0.38826 0.05215 0.3264 0.0
C339 C 0.42692 0.02035 0.35317 0.0
H340 H 0.46376 0.96098 0.33012 0.0
C341 C 0.51427 0.92107 0.36604 0.0
C342 C 0.51143 0.88821 0.35804 0.0
C343 C 0.49186 0.94434 0.36358 0.0
C344 C 0.45253 0.97632 0.33669 0.0
H345 H 0.43675 0.1689 0.34119 0.0
H346 H 0.45608 0.11473 0.34933 0.0
H347 H 0.44414 0.01531 0.32315 0.0
H348 H 0.47792 0.8498 0.34212 0.0
H349 H 0.43722 0.88893 0.33814 0.0
H350 H 0.43519 0.9811 0.36674 0.0
C351 C 0.43383 0.10542 0.34167 0.0
C352 C 0.44171 0.00787 0.33268 0.0
C353 C 0.42308 0.13648 0.33696 0.0
C354 C 0.48142 0.87541 0.34836 0.0
C355 C 0.4585 0.89826 0.346 0.0
C356 C 0.4374 0.98834 0.35721 0.0
C357 C 0.41668 0.06307 0.33636 0.0
C358 C 0.42892 0.03031 0.34086 0.0
C359 C 0.46558 0.93479 0.35317 0.0
C360 C 0.45048 0.966 0.349 0.0
H361 H 0.35516 0.07293 0.31409 0.0
H362 H 0.37421 0.01965 0.32219 0.0
H363 H 0.41667 0.03686 0.35965 0.0
H364 H 0.53694 0.93175 0.37363 0.0
H365 H 0.49811 0.97211 0.36934 0.0
C366 C 0.2938 0.37561 0.4884 0.0
C367 C 0.26787 0.39204 0.49365 0.0
C368 C 0.33584 0.38777 0.49289 0.0
C369 C 0.40734 0.42755 0.51934 0.0
H370 H 0.50281 0.46876 0.49592 0.0
C371 C 0.59445 0.51683 0.53179 0.0
C372 C 0.6246 0.5154 0.52357 0.0
C373 C 0.54877 0.49428 0.52936 0.0
C374 C 0.47651 0.45635 0.50258 0.0
H375 H 0.26576 0.43377 0.50789 0.0
H376 H 0.33999 0.45496 0.51587 0.0
H377 H 0.42802 0.4474 0.48932 0.0
H378 H 0.62982 0.4844 0.50716 0.0
H379 H 0.55001 0.44336 0.50322 0.0
H380 H 0.45588 0.43611 0.53261 0.0
C381 C 0.32722 0.43257 0.50824 0.0
C382 C 0.43366 0.44456 0.49879 0.0
C383 C 0.28499 0.42073 0.50362 0.0
C384 C 0.6076 0.48677 0.51359 0.0
C385 C 0.56183 0.46368 0.51126 0.0
C386 C 0.45031 0.43894 0.52314 0.0
C387 C 0.35312 0.41644 0.50281 0.0
C388 C 0.39866 0.4301 0.50711 0.0
C389 C 0.53214 0.46922 0.51875 0.0
C390 C 0.4855 0.45357 0.5148 0.0
H391 H 0.28184 0.35349 0.4807 0.0
H392 H 0.35488 0.37452 0.48861 0.0
H393 H 0.38077 0.41603 0.52591 0.0
H394 H 0.60629 0.53843 0.5396 0.0
H395 H 0.5271 0.49938 0.53536 0.0
C396 C 0.85895 0.29815 0.66615 0.0
C397 C 0.87482 0.26931 0.66297 0.0
C398 C 0.88844 0.34114 0.67042 0.0
C399 C -0.00108 0.41206 0.68403 0.0
H400 H 0.99753 0.50818 0.66651 0.0
C401 C 0.0962 0.60143 0.69663 0.0
C402 C 0.11522 0.63133 0.68694 0.0
C403 C 0.07132 0.55541 0.69456 0.0
C404 C -0.00159 0.48165 0.67145 0.0
H405 H 0.93342 0.26189 0.66239 0.0
H406 H 0.98442 0.33638 0.67003 0.0
H407 H 0.94161 0.43101 0.66206 0.0
H408 H 0.1268 0.63572 0.66764 0.0
H409 H 0.0833 0.55575 0.66412 0.0
H410 H 0.05576 0.46307 0.69346 0.0
C411 C 0.94942 0.32601 0.66913 0.0
C412 C 0.96609 0.43757 0.66901 0.0
C413 C 0.92023 0.28349 0.66467 0.0
C414 C 0.11237 0.61387 0.67532 0.0
C415 C 0.08714 0.56803 0.67326 0.0
C416 C 0.03089 0.45633 0.68662 0.0
C417 C 0.93405 0.3556 0.67181 0.0
C418 C 0.96624 0.40231 0.67519 0.0
C419 C 0.06481 0.53858 0.68278 0.0
C420 C 0.03126 0.49148 0.68023 0.0
H421 H 0.82417 0.28813 0.66492 0.0
H422 H 0.87575 0.36332 0.67248 0.0
H423 H -0.0003 0.38541 0.68893 0.0
H424 H 0.09786 0.61362 0.7057 0.0
H425 H 0.0546 0.53334 0.70207 0.0
C426 C 0.61925 0.91176 0.82145 0.0
C427 C 0.60238 0.86919 0.82659 0.0
C428 C 0.60753 0.94188 0.82605 0.0
C429 C 0.56819 0.97272 0.85283 0.0
H430 H 0.53133 0.03228 0.82987 0.0
C431 C 0.48163 0.07273 0.86585 0.0
C432 C 0.48485 0.10585 0.8579 0.0
C433 C 0.50366 0.04912 0.86335 0.0
C434 C 0.54253 0.01686 0.83641 0.0
H435 H 0.56003 0.82504 0.84067 0.0
H436 H 0.53948 0.87838 0.84881 0.0
H437 H 0.5509 0.97797 0.82282 0.0
H438 H 0.5186 0.14428 0.84201 0.0
H439 H 0.55862 0.10451 0.83795 0.0
H440 H 0.56 0.01192 0.86644 0.0
C441 C 0.56195 0.88806 0.8412 0.0
C442 C 0.55332 0.98533 0.83236 0.0
C443 C 0.57339 0.85748 0.83649 0.0
C444 C 0.51482 0.11848 0.84822 0.0
C445 C 0.53735 0.09528 0.84581 0.0
C446 C 0.55774 0.00471 0.8569 0.0
C447 C 0.57882 0.93047 0.83595 0.0
C448 C 0.5662 0.96289 0.8405 0.0
C449 C 0.52992 0.05857 0.85293 0.0
C450 C 0.5447 0.02716 0.84873 0.0
H451 H 0.64162 0.92198 0.81381 0.0
H452 H 0.62135 0.97443 0.82189 0.0
H453 H 0.57851 0.95621 0.85928 0.0
H454 H 0.45897 0.06218 0.87343 0.0
H455 H 0.49716 0.02121 0.86907 0.0
C456 C 0.48619 0.60341 0.81375 0.0
C457 C 0.51583 0.62104 0.80401 0.0
C458 C 0.46415 0.55768 0.81613 0.0
C459 C 0.4438 0.44697 0.80491 0.0
H460 H 0.45352 0.4278 0.83889 0.0
C461 C 0.42705 0.28324 0.82511 0.0
C462 C 0.39929 0.26692 0.83528 0.0
C463 C 0.4388 0.32529 0.82038 0.0
C464 C 0.45028 0.43251 0.82938 0.0
H465 H 0.54148 0.60368 0.78833 0.0
H466 H 0.50398 0.52444 0.79264 0.0
H467 H 0.47264 0.50156 0.83187 0.0
H468 H 0.36257 0.28228 0.84848 0.0
H469 H 0.38323 0.35487 0.84032 0.0
H470 H 0.42242 0.37754 0.80254 0.0
C471 C 0.49748 0.54569 0.79844 0.0
C472 C 0.46083 0.47476 0.82535 0.0
C473 C 0.51909 0.59136 0.79597 0.0
C474 C 0.38397 0.29362 0.84064 0.0
C475 C 0.39595 0.33543 0.836 0.0
C476 C 0.43347 0.40454 0.80897 0.0
C477 C 0.47168 0.52867 0.80891 0.0
C478 C 0.45753 0.48261 0.81308 0.0
C479 C 0.42348 0.35182 0.82584 0.0
C480 C 0.4364 0.39692 0.82127 0.0
H481 H 0.48237 0.62523 0.82003 0.0
H482 H 0.44322 0.54544 0.82405 0.0
H483 H 0.44078 0.45178 0.79541 0.0
H484 H 0.4392 0.26339 0.82076 0.0
H485 H 0.46032 0.33733 0.81256 0.0
C486 C 0.87237 0.48488 0.98229 0.0
C487 C 0.88361 0.51393 0.97243 0.0
C488 C 0.89544 0.46204 0.98442 0.0
C489 C 0.98236 0.43829 0.97213 0.0
H490 H 0.01267 0.44434 0.00593 0.0
C491 C 0.12726 0.41567 0.99167 0.0
C492 C 0.11452 0.38606 0.00147 0.0
C493 C 0.09774 0.42863 0.98703 0.0
C494 C 0.00435 0.44223 0.99647 0.0
H495 H 0.92492 0.53826 0.95643 0.0
H496 H 0.96578 0.4996 0.96033 0.0
H497 H 0.95989 0.4669 -0.00042 0.0
H498 H 0.06059 0.34677 0.01397 0.0
H499 H 0.01017 0.36968 0.00601 0.0
H500 H 0.02842 0.41474 0.96915 0.0
C501 C 0.93895 0.49394 0.96637 0.0
C502 C 0.97366 0.4547 0.99281 0.0
C503 C 0.9154 0.51623 0.96413 0.0
C504 C 0.07175 0.36964 0.00643 0.0
C505 C 0.04274 0.38286 0.00191 0.0
C506 C 0.01357 0.42619 0.97581 0.0
C507 C 0.93076 0.46832 0.97686 0.0
C508 C 0.96191 0.45262 0.98061 0.0
C509 C 0.05542 0.41267 0.99223 0.0
C510 C 0.02454 0.42777 0.98803 0.0
H511 H 0.84764 0.48188 0.98876 0.0
H512 H 0.88713 0.44128 0.99236 0.0
H513 H 0.97402 0.43609 0.96267 0.0
H514 H 0.15987 0.42875 0.98762 0.0
H515 H 0.1083 0.45184 0.97957 0.0
C516 C 0.40008 0.91182 0.12912 0.0
C517 C 0.37227 0.88502 0.13851 0.0
C518 C 0.44628 0.936 0.13063 0.0
C519 C 0.54076 0.95186 0.14942 0.0
H520 H 0.5827 0.07805 0.1454 0.0
C521 C 0.6973 0.08382 0.17356 0.0
C522 C 0.7253 0.12494 0.16797 0.0
C523 C 0.65662 0.05329 0.16843 0.0
C524 C 0.57205 0.04301 0.14635 0.0
H525 H 0.37176 0.85866 0.15626 0.0
H526 H 0.45249 0.90018 0.15874 0.0
H527 H 0.50848 0.02325 0.13845 0.0
H528 H 0.73234 0.16649 0.15262 0.0
H529 H 0.66127 0.11248 0.14342 0.0
H530 H 0.60413 0.97134 0.15732 0.0
C531 C 0.43839 0.90296 0.15031 0.0
C532 C 0.52943 0.01157 0.14237 0.0
C533 C 0.39208 0.87915 0.14887 0.0
C534 C 0.71132 0.13517 0.15717 0.0
C535 C 0.6706 0.10419 0.15192 0.0
C536 C 0.58363 0.98325 0.15325 0.0
C537 C 0.46568 0.93328 0.14144 0.0
C538 C 0.513 0.96574 0.14412 0.0
C539 C 0.64291 0.06265 0.15745 0.0
C540 C 0.59939 0.0293 0.15207 0.0
H541 H 0.38614 0.91697 0.12097 0.0
H542 H 0.46668 0.95862 0.12358 0.0
H543 H 0.52904 0.91673 0.15078 0.0
H544 H 0.70679 0.07511 0.18198 0.0
H545 H 0.63574 0.02241 0.17318 0.0
C546 C 0.51566 0.39252 0.31535 0.0
C547 C 0.48718 0.37547 0.30535 0.0
C548 C 0.53813 0.43825 0.3178 0.0
C549 C 0.56088 0.54955 0.30621 0.0
H550 H 0.55108 0.57029 0.34008 0.0
C551 C 0.57414 0.71255 0.32575 0.0
C552 C 0.60272 0.73041 0.33571 0.0
C553 C 0.56322 0.67044 0.32122 0.0
C554 C 0.55429 0.56509 0.3306 0.0
H555 H 0.46393 0.39375 0.28937 0.0
H556 H 0.50187 0.47281 0.29379 0.0
H557 H 0.53173 0.49612 0.33331 0.0
H558 H 0.64171 0.7178 0.34881 0.0
H559 H 0.62218 0.64479 0.34105 0.0
H560 H 0.58206 0.61881 0.30359 0.0
C561 C 0.50733 0.45123 0.29973 0.0
C562 C 0.54366 0.52261 0.32671 0.0
C563 C 0.4854 0.40562 0.2972 0.0
C564 C 0.61968 0.70519 0.3411 0.0
C565 C 0.60839 0.66321 0.3367 0.0
C566 C 0.57108 0.59211 0.31011 0.0
C567 C 0.53211 0.46782 0.31039 0.0
C568 C 0.54686 0.51418 0.31447 0.0
C569 C 0.58012 0.64536 0.32672 0.0
C570 C 0.56796 0.60022 0.32236 0.0
H571 H 0.51831 0.37031 0.32173 0.0
H572 H 0.55828 0.45006 0.32586 0.0
H573 H 0.56405 0.54444 0.29673 0.0
H574 H 0.56074 0.73127 0.32138 0.0
H575 H 0.54109 0.65721 0.31355 0.0
C576 C 0.12019 0.51115 0.48304 0.0
C577 C 0.10964 0.48398 0.47278 0.0
C578 C 0.09703 0.53366 0.48557 0.0
C579 C 0.01118 0.55984 0.4737 0.0
H580 H 0.97845 0.54878 0.50742 0.0
C581 C 0.86326 0.57742 0.49264 0.0
C582 C 0.87384 0.60527 0.50277 0.0
C583 C 0.89387 0.56557 0.48821 0.0
C584 C 0.98749 0.55236 0.49798 0.0
H585 H 0.0694 0.46268 0.45654 0.0
H586 H 0.02841 0.5007 0.4611 0.0
H587 H 0.03213 0.52768 0.5008 0.0
H588 H 0.92467 0.64202 0.51626 0.0
H589 H 0.97716 0.62089 0.50867 0.0
H590 H 0.96488 0.5832 0.47097 0.0
C591 C 0.05479 0.5052 0.46717 0.0
C592 C 0.01868 0.54069 0.49418 0.0
C593 C 0.07842 0.48326 0.46454 0.0
C594 C 0.91534 0.62059 0.50842 0.0
C595 C 0.94547 0.60836 0.50411 0.0
C596 C 0.97947 0.57108 0.47751 0.0
C597 C 0.06232 0.52895 0.478 0.0
C598 C 0.03113 0.54436 0.482 0.0
C599 C 0.93516 0.58078 0.49397 0.0
C600 C 0.96747 0.56755 0.4897 0.0
H601 H 0.14445 0.51291 0.48949 0.0
H602 H 0.10486 0.55296 0.49379 0.0
H603 H 0.02013 0.56345 0.46427 0.0
H604 H 0.83166 0.56526 0.48807 0.0
H605 H 0.88504 0.544 0.48041 0.0
C606 C 0.61204 0.12728 0.64837 0.0
C607 C 0.62938 0.11467 0.63869 0.0
C608 C 0.56615 0.10519 0.65049 0.0
C609 C 0.45499 0.01799 0.63852 0.0
H610 H 0.43124 0.98968 0.67243 0.0
C611 C 0.28934 0.87177 0.6581 0.0
C612 C 0.27199 0.88336 0.66802 0.0
C613 C 0.33144 0.90231 0.65346 0.0
C614 C 0.43726 0.99752 0.66293 0.0
H615 H 0.61171 0.07208 0.62291 0.0
H616 H 0.53224 0.03287 0.6268 0.0
H617 H 0.50631 0.0425 0.66593 0.0
H618 H 0.28527 0.93636 0.68074 0.0
H619 H 0.35805 0.98868 0.67276 0.0
H620 H 0.38554 0.97126 0.63563 0.0
C621 C 0.55373 0.06004 0.63272 0.0
C622 C 0.48029 0.02822 0.6592 0.0
C623 C 0.59956 0.08262 0.63049 0.0
C624 C 0.29744 0.92607 0.67311 0.0
C625 C 0.33934 0.95617 0.66857 0.0
C626 C 0.41182 0.98678 0.64228 0.0
C627 C 0.53669 0.0695 0.64309 0.0
C628 C 0.48983 0.03905 0.64695 0.0
C629 C 0.35696 0.9446 0.65877 0.0
C630 C 0.40261 0.97643 0.65453 0.0
H631 H 0.63406 0.15227 0.65476 0.0
H632 H 0.55403 0.11447 0.65833 0.0
H633 H 0.46101 0.02566 0.62902 0.0
H634 H 0.2705 0.83924 0.65394 0.0
H635 H 0.34446 0.89254 0.64591 0.0
C636 C 0.27171 0.32878 0.97185 0.0
C637 C 0.27662 0.31174 0.98285 0.0
C638 C 0.28615 0.31884 0.96112 0.0
C639 C 0.3112 0.23482 0.94853 0.0
H640 H 0.35992 0.31762 0.92185 0.0
C641 C 0.3688 0.18882 0.90503 0.0
C642 C 0.35149 0.19618 0.89439 0.0
C643 C 0.36596 0.20764 0.91589 0.0
C644 C 0.34631 0.29418 0.92924 0.0
H645 H 0.30277 0.2731 0.99133 0.0
H646 H 0.32889 0.25693 0.97277 0.0
H647 H 0.34299 0.34198 0.94079 0.0
H648 H 0.31971 0.23095 0.88671 0.0
H649 H 0.31485 0.26368 0.90565 0.0
H650 H 0.31429 0.18702 0.93699 0.0
C651 C 0.31263 0.27668 0.97231 0.0
C652 C 0.33643 0.30804 0.94006 0.0
C653 C 0.2978 0.28614 0.98297 0.0
C654 C 0.33312 0.22436 0.89476 0.0
C655 C 0.33061 0.24342 0.90559 0.0
C656 C 0.32137 0.22114 0.93777 0.0
C657 C 0.30617 0.29207 0.96122 0.0
C658 C 0.31844 0.27838 0.94981 0.0
C659 C 0.34613 0.23449 0.91631 0.0
C660 C 0.33867 0.25051 0.92798 0.0
H661 H 0.2555 0.34859 0.97147 0.0
H662 H 0.28028 0.33094 0.95272 0.0
H663 H 0.29651 0.21075 0.95574 0.0
H664 H 0.38327 0.16739 0.90505 0.0
H665 H 0.37863 0.20059 0.92401 0.0
C666 C 0.0034 0.32091 0.14788 0.0
C667 C 0.95679 0.30112 0.14866 0.0
C668 C 0.02511 0.33607 0.13687 0.0
C669 C 0.00397 0.31217 0.10487 0.0
H670 H 0.12176 0.41571 0.10122 0.0
C671 C 0.09673 0.34706 0.06005 0.0
C672 C 0.14159 0.35804 0.06072 0.0
C673 C 0.07423 0.3484 0.0703 0.0
C674 C 0.08896 0.38659 0.10212 0.0
H675 H 0.89671 0.28395 0.13857 0.0
H676 H 0.9348 0.31052 0.11928 0.0
H677 H 0.08134 0.40377 0.12015 0.0
H678 H 0.19867 0.38106 0.07255 0.0
H679 H 0.15901 0.38236 0.09058 0.0
H680 H 0.01193 0.29392 0.08709 0.0
C681 C 0.95438 0.31381 0.12721 0.0
C682 C 0.06577 0.37984 0.11293 0.0
C683 C 0.9326 0.29877 0.13827 0.0
C684 C 0.1641 0.37241 0.07176 0.0
C685 C 0.14139 0.37335 0.08208 0.0
C686 C 0.02713 0.31882 0.0941 0.0
C687 C 0.00075 0.33174 0.12636 0.0
C688 C 0.02331 0.34215 0.11448 0.0
C689 C 0.09588 0.3603 0.08151 0.0
C690 C 0.07017 0.35575 0.09264 0.0
H691 H 0.02315 0.32356 0.15572 0.0
H692 H 0.06078 0.3493 0.1365 0.0
H693 H 0.97169 0.28238 0.10585 0.0
H694 H 0.07861 0.33654 0.05163 0.0
H695 H 0.03951 0.33918 0.06949 0.0
C696 C 0.75755 0.09786 0.22584 0.0
C697 C 0.78759 0.14398 0.22646 0.0
C698 C 0.73384 0.07433 0.236 0.0
C699 C 0.70153 0.0873 0.26697 0.0
H700 H 0.6978 0.97476 0.27226 0.0
C701 C 0.67865 0.00581 0.31347 0.0
C702 C 0.65456 0.95905 0.31437 0.0
C703 C 0.68586 0.02665 0.3023 0.0
C704 C 0.6977 0.00565 0.27083 0.0
H705 H 0.81523 0.20183 0.23817 0.0
H706 H 0.77457 0.1605 0.25603 0.0
H707 H 0.72835 0.01509 0.25359 0.0
H708 H 0.61709 0.89757 0.3043 0.0
H709 H 0.62986 0.93416 0.28471 0.0
H710 H 0.67226 0.07834 0.28447 0.0
C711 C 0.76881 0.14265 0.24761 0.0
C712 C 0.71528 0.02887 0.26011 0.0
C713 C 0.79233 0.16633 0.2374 0.0
C714 C 0.63594 0.93364 0.3039 0.0
C715 C 0.64343 0.95456 0.29269 0.0
C716 C 0.68407 0.0641 0.27773 0.0
C717 C 0.73984 0.09623 0.24707 0.0
C718 C 0.718 0.07028 0.25812 0.0
C719 C 0.66931 0.00124 0.29176 0.0
C720 C 0.68262 0.02336 0.27984 0.0
H721 H 0.75258 0.07969 0.21751 0.0
H722 H 0.71112 0.0388 0.23519 0.0
H723 H 0.70247 0.11874 0.26564 0.0
H724 H 0.69319 0.02644 0.32136 0.0
H725 H 0.70626 0.06263 0.30188 0.0
C726 C 0.66465 0.76904 0.39282 0.0
C727 C 0.6481 0.79871 0.39336 0.0
C728 C 0.66532 0.74616 0.40306 0.0
C729 C 0.62141 0.7151 0.43417 0.0
H730 H 0.73034 0.71147 0.43921 0.0
C731 C 0.68027 0.69037 0.48048 0.0
C732 C 0.70215 0.66547 0.48121 0.0
C733 C 0.66708 0.69865 0.46938 0.0
C734 C 0.69935 0.71141 0.43785 0.0
H735 H 0.61803 0.82663 0.405 0.0
H736 H 0.6202 0.78742 0.42303 0.0
H737 H 0.72001 0.74192 0.42058 0.0
H738 H 0.72546 0.62794 0.47088 0.0
H739 H 0.70247 0.64262 0.45141 0.0
H740 H 0.60162 0.6859 0.45169 0.0
C741 C 0.632 0.7813 0.41461 0.0
C742 C 0.69339 0.72892 0.42716 0.0
C743 C 0.63098 0.80398 0.4043 0.0
C744 C 0.70883 0.64738 0.47062 0.0
C745 C 0.69588 0.65595 0.45947 0.0
C746 C 0.62749 0.69775 0.4449 0.0
C747 C 0.64985 0.75265 0.41414 0.0
C748 C 0.65458 0.73145 0.42524 0.0
C749 C 0.67565 0.68241 0.45873 0.0
C750 C 0.66678 0.69625 0.44691 0.0
H751 H 0.6775 0.76366 0.38448 0.0
H752 H 0.67838 0.72362 0.40231 0.0
H753 H 0.59083 0.71592 0.4329 0.0
H754 H 0.6743 0.70455 0.48847 0.0
H755 H 0.65196 0.71947 0.4691 0.0
C756 C 0.89384 0.67001 0.56139 0.0
C757 C 0.84712 0.64928 0.56083 0.0
C758 C 0.91507 0.67091 0.57214 0.0
C759 C 0.89877 0.66996 0.6045 0.0
H760 H 0.00273 0.65561 0.60631 0.0
C761 C 0.989 0.69103 0.6493 0.0
C762 C 0.0358 0.71557 0.64906 0.0
C763 C 0.96468 0.67631 0.63864 0.0
C764 C 0.97395 0.66004 0.60593 0.0
H765 H 0.78598 0.61177 0.57103 0.0
H766 H 0.82324 0.61362 0.58986 0.0
H767 H 0.96191 0.6409 0.58735 0.0
H768 H 0.09388 0.74273 0.63748 0.0
H769 H 0.05134 0.7181 0.61878 0.0
H770 H 0.91138 0.6906 0.62286 0.0
C771 C 0.84332 0.62936 0.58196 0.0
C772 C 0.95052 0.65145 0.59509 0.0
C773 C 0.82202 0.62816 0.57117 0.0
C774 C 0.05784 0.72389 0.63794 0.0
C775 C 0.03343 0.70953 0.62724 0.0
C776 C 0.9223 0.67881 0.61528 0.0
C777 C 0.89008 0.65134 0.58259 0.0
C778 C 0.91293 0.65672 0.59426 0.0
C779 C 0.98653 0.68619 0.62746 0.0
C780 C 0.96039 0.67433 0.61611 0.0
H781 H 0.91419 0.68636 0.55358 0.0
H782 H 0.95115 0.68844 0.57238 0.0
H783 H 0.87041 0.67508 0.60407 0.0
H784 H 0.97099 0.68344 0.65773 0.0
H785 H 0.92866 0.65753 0.63916 0.0
C786 C 0.37065 0.04907 0.8064 0.0
C787 C 0.33752 0.03108 0.81533 0.0
C788 C 0.36543 0.02585 0.79563 0.0
C789 C 0.29382 0.91437 0.78105 0.0
H790 H 0.32503 0.98418 0.75177 0.0
C791 C 0.23033 0.83014 0.73472 0.0
C792 C 0.2155 0.8521 0.72698 0.0
C793 C 0.25518 0.85169 0.74502 0.0
C794 C 0.31588 0.96409 0.75986 0.0
H795 H 0.27315 0.97434 0.81996 0.0
H796 H 0.26339 0.9352 0.80125 0.0
H797 H 0.34935 0.02181 0.77103 0.0
H798 H 0.21529 0.91396 0.72396 0.0
H799 H 0.25652 0.95043 0.74195 0.0
H800 H 0.25716 0.8569 0.76997 0.0
C801 C 0.29413 0.96637 0.80259 0.0
C802 C 0.33054 0.98573 0.77093 0.0
C803 C 0.29956 0.98919 0.81334 0.0
C804 C 0.22641 0.89607 0.72967 0.0
C805 C 0.25061 0.91728 0.73998 0.0
C806 C 0.27848 0.89278 0.77 0.0
C807 C 0.32678 0.98439 0.79354 0.0
C808 C 0.31831 0.96124 0.78171 0.0
C809 C 0.26525 0.89545 0.74784 0.0
C810 C 0.28795 0.91749 0.75929 0.0
H811 H 0.40045 0.08112 0.80771 0.0
H812 H 0.39152 0.04056 0.78893 0.0
H813 H 0.28485 0.89427 0.78913 0.0
H814 H 0.22275 0.79636 0.73284 0.0
H815 H 0.2663 0.83397 0.75078 0.0
C816 C 0.63876 0.70125 0.85795 0.0
C817 C 0.6588 0.69579 0.84759 0.0
C818 C 0.64593 0.68777 0.86919 0.0
C819 C 0.68749 0.62032 0.88439 0.0
H820 H 0.7283 0.71264 0.90876 0.0
C821 C 0.79223 0.62601 0.92554 0.0
C822 C 0.78669 0.64357 0.93638 0.0
C823 C 0.76943 0.62614 0.91516 0.0
C824 C 0.71617 0.68603 0.90218 0.0
H825 H 0.69976 0.66937 0.8408 0.0
H826 H 0.71219 0.64605 0.86035 0.0
H827 H 0.69905 0.72251 0.88987 0.0
H828 H 0.75096 0.67264 0.94502 0.0
H829 H 0.71054 0.67187 0.92706 0.0
H830 H 0.70534 0.58414 0.89666 0.0
C831 C 0.69096 0.66067 0.85981 0.0
C832 C 0.69937 0.69174 0.89133 0.0
C833 C 0.6841 0.6744 0.84861 0.0
C834 C 0.75652 0.65951 0.93676 0.0
C835 C 0.73344 0.65922 0.92644 0.0
C836 C 0.70408 0.61446 0.89529 0.0
C837 C 0.67288 0.66821 0.87026 0.0
C838 C 0.68555 0.65932 0.88225 0.0
C839 C 0.74031 0.64345 0.91546 0.0
C840 C 0.71929 0.6476 0.90424 0.0
H841 H 0.61895 0.71744 0.85747 0.0
H842 H 0.6312 0.69356 0.8771 0.0
H843 H 0.67667 0.59458 0.87758 0.0
H844 H 0.81529 0.61354 0.92496 0.0
H845 H 0.77589 0.61417 0.90683 0.0
C846 C 0.00397 0.69182 0.01532 0.0
C847 C 0.95725 0.66574 0.01469 0.0
C848 C 0.02594 0.70032 0.02636 0.0
C849 C 0.00708 0.7105 0.05816 0.0
H850 H 0.12062 0.71564 0.06258 0.0
C851 C 0.09886 0.7637 0.1034 0.0
C852 C 0.14507 0.79331 0.103 0.0
C853 C 0.0755 0.74192 0.09301 0.0
C854 C 0.08911 0.71469 0.06146 0.0
H855 H 0.89715 0.6266 0.02517 0.0
H856 H 0.93567 0.64168 0.0445 0.0
H857 H 0.08005 0.68757 0.04366 0.0
H858 H 0.20323 0.82227 0.09143 0.0
H859 H 0.16224 0.7851 0.07318 0.0
H860 H 0.01654 0.73895 0.07571 0.0
C861 C 0.95515 0.65574 0.03641 0.0
C862 C 0.06582 0.69846 0.05065 0.0
C863 C 0.93314 0.64694 0.02533 0.0
C864 C 0.16765 0.7996 0.09203 0.0
C865 C 0.14415 0.77809 0.08159 0.0
C866 C 0.03044 0.72695 0.06892 0.0
C867 C 0.00171 0.68316 0.03705 0.0
C868 C 0.02476 0.6966 0.04885 0.0
C869 C 0.09764 0.74954 0.08192 0.0
C870 C 0.07193 0.72964 0.07068 0.0
H871 H 0.02363 0.70664 0.0073 0.0
H872 H 0.06178 0.72188 0.02657 0.0
H873 H 0.97593 0.71024 0.05697 0.0
H874 H 0.08052 0.7576 0.11174 0.0
H875 H 0.03991 0.71941 0.09366 0.0
C876 C 0.29007 0.93929 0.19221 0.0
C877 C 0.30145 0.96147 0.18109 0.0
C878 C 0.30443 0.96355 0.20296 0.0
C879 C 0.33898 0.07637 0.21425 0.0
H880 H 0.36474 0.03334 0.24365 0.0
C881 C 0.37998 0.17642 0.25839 0.0
C882 C 0.35604 0.15168 0.26851 0.0
C883 C 0.38058 0.15473 0.24783 0.0
C884 C 0.35756 0.04572 0.23549 0.0
H885 H 0.33969 0.02594 0.17244 0.0
H886 H 0.36567 0.06792 0.19109 0.0
H887 H 0.35345 0.99208 0.22489 0.0
H888 H 0.31543 0.0847 0.27559 0.0
H889 H 0.31632 0.04712 0.25719 0.0
H890 H 0.34234 0.12951 0.22483 0.0
C891 C 0.34445 0.03206 0.19158 0.0
C892 C 0.351 0.02205 0.22477 0.0
C893 C 0.32974 0.00795 0.18089 0.0
C894 C 0.33402 0.10484 0.26795 0.0
C895 C 0.33483 0.08322 0.25743 0.0
C896 C 0.34572 0.10006 0.22493 0.0
C897 C 0.33079 0.01037 0.20275 0.0
C898 C 0.34112 0.03684 0.21404 0.0
C899 C 0.35752 0.1079 0.2472 0.0
C900 C 0.3545 0.08472 0.2357 0.0
H901 H 0.26826 0.90349 0.19264 0.0
H902 H 0.29305 0.94577 0.2114 0.0
H903 H 0.33051 0.0883 0.20623 0.0
H904 H 0.39746 0.21253 0.25852 0.0
H905 H 0.39874 0.17463 0.24011 0.0
C906 C 0.35862 0.29754 0.35773 0.0
C907 C 0.3394 0.30251 0.34713 0.0
C908 C 0.35068 0.31164 0.36879 0.0
C909 C 0.30765 0.37983 0.38298 0.0
H910 H 0.26859 0.29061 0.40814 0.0
C911 C 0.20272 0.37621 0.42402 0.0
C912 C 0.20929 0.36018 0.43499 0.0
C913 C 0.22565 0.37589 0.41367 0.0
C914 C 0.28019 0.31636 0.40132 0.0
H915 H 0.29889 0.32853 0.33975 0.0
H916 H 0.28496 0.35272 0.35898 0.0
H917 H 0.29784 0.27903 0.38947 0.0
H918 H 0.24724 0.33412 0.44391 0.0
H919 H 0.28774 0.33454 0.42602 0.0
H920 H 0.28911 0.41676 0.39481 0.0
C921 C 0.30626 0.33813 0.35877 0.0
C922 C 0.29701 0.30969 0.39061 0.0
C923 C 0.31399 0.32388 0.34775 0.0
C924 C 0.24084 0.34601 0.43555 0.0
C925 C 0.26397 0.34607 0.42527 0.0
C926 C 0.29094 0.38662 0.39375 0.0
C927 C 0.32363 0.33123 0.36945 0.0
C928 C 0.31035 0.34101 0.38125 0.0
C929 C 0.25582 0.35987 0.41414 0.0
C930 C 0.27649 0.35466 0.40299 0.0
H931 H 0.37853 0.28142 0.35756 0.0
H932 H 0.36496 0.30638 0.37686 0.0
H933 H 0.31808 0.40478 0.37597 0.0
H934 H 0.1786 0.38732 0.42331 0.0
H935 H 0.21832 0.38644 0.40523 0.0
C936 C 0.98789 0.30288 0.5136 0.0
C937 C 0.03468 0.32542 0.51331 0.0
C938 C 0.96522 0.29388 0.52452 0.0
C939 C 0.9793 0.32081 0.55723 0.0
H940 H 0.87573 0.20253 0.55981 0.0
C941 C 0.90123 0.23232 0.60233 0.0
C942 C 0.85447 0.2069 0.60298 0.0
C943 C 0.92233 0.25229 0.59152 0.0
C944 C 0.90417 0.23592 0.55919 0.0
H945 H 0.09446 0.35753 0.52425 0.0
H946 H 0.05483 0.3406 0.54341 0.0
H947 H 0.91449 0.22712 0.54071 0.0
H948 H 0.79321 0.18418 0.59287 0.0
H949 H 0.83015 0.21892 0.57402 0.0
H950 H 0.96949 0.32862 0.57594 0.0
C951 C 0.03562 0.33061 0.53516 0.0
C952 C 0.92641 0.25012 0.54823 0.0
C953 C 0.05837 0.34012 0.52418 0.0
C954 C 0.82928 0.20332 0.59269 0.0
C955 C 0.8504 0.22305 0.58187 0.0
C956 C 0.95717 0.30639 0.56826 0.0
C957 C 0.98873 0.30663 0.53546 0.0
C958 C 0.96434 0.29268 0.5471 0.0
C959 C 0.89713 0.24702 0.58112 0.0
C960 C 0.91947 0.26372 0.56935 0.0
H961 H 0.96865 0.29172 0.50536 0.0
H962 H 0.92914 0.27637 0.52439 0.0
H963 H 0.00806 0.35398 0.55665 0.0
H964 H 0.92165 0.23595 0.6101 0.0
H965 H 0.9584 0.27032 0.59118 0.0
C966 C 0.633 0.82505 0.75755 0.0
C967 C 0.6483 0.84732 0.7686 0.0
C968 C 0.63375 0.84857 0.74722 0.0
C969 C 0.69205 0.96308 0.73508 0.0
H970 H 0.60356 0.91206 0.70975 0.0
C971 C 0.70802 0.06078 0.69176 0.0
C972 C 0.70376 0.03704 0.68112 0.0
C973 C 0.69448 0.03843 0.70278 0.0
C974 C 0.6285 0.9267 0.71676 0.0
H975 H 0.67392 0.91112 0.77763 0.0
H976 H 0.67426 0.95165 0.75977 0.0
H977 H 0.59244 0.87078 0.72848 0.0
H978 H 0.67953 0.97093 0.67361 0.0
H979 H 0.65619 0.93224 0.69277 0.0
H980 H 0.72845 0.01859 0.72334 0.0
C981 C 0.66293 0.9164 0.75896 0.0
C982 C 0.62224 0.90302 0.72746 0.0
C983 C 0.66257 0.89307 0.76921 0.0
C984 C 0.68362 0.99032 0.68165 0.0
C985 C 0.66986 0.96802 0.69263 0.0
C986 C 0.69818 0.98678 0.72444 0.0
C987 C 0.64946 0.8947 0.74778 0.0
C988 C 0.65425 0.9207 0.73669 0.0
C989 C 0.67608 0.9919 0.70335 0.0
C990 C 0.66682 0.96861 0.71509 0.0
H991 H 0.62183 0.78982 0.75679 0.0
H992 H 0.62351 0.83088 0.73874 0.0
H993 H 0.71782 0.9774 0.74189 0.0
H994 H 0.72323 0.09675 0.69166 0.0
H995 H 0.69921 0.05763 0.7109 0.0
C996 C 0.2934 0.05849 0.11835 0.0
C997 C 0.29294 0.01961 0.11445 0.0
C998 C 0.3031 0.09316 0.11032 0.0
C999 C 0.29559 0.11026 0.07812 0.0
H1000 H 0.3552 0.23534 0.08698 0.0
C1001 C 0.30151 0.23971 0.0452 0.0
C1002 C 0.28884 0.26929 0.05001 0.0
C1003 C 0.31271 0.2147 0.05277 0.0
C1004 C 0.33842 0.20052 0.08439 0.0
H1005 H 0.30505 0.98793 0.09919 0.0
H1006 H 0.32246 0.04871 0.08521 0.0
H1007 H 0.35602 0.18095 0.10085 0.0
H1008 H 0.28062 0.29781 0.06653 0.0
H1009 H 0.29937 0.25342 0.07978 0.0
H1010 H 0.27675 0.12927 0.06187 0.0
C1011 C 0.31445 0.05195 0.09444 0.0
C1012 C 0.3389 0.1694 0.09232 0.0
C1013 C 0.30463 0.01719 0.10247 0.0
C1014 C 0.29015 0.27524 0.06255 0.0
C1015 C 0.30112 0.24994 0.07014 0.0
C1016 C 0.29513 0.14127 0.07021 0.0
C1017 C 0.3127 0.08983 0.0982 0.0
C1018 C 0.31683 0.1238 0.08935 0.0
C1019 C 0.31122 0.21843 0.06533 0.0
C1020 C 0.31593 0.18666 0.07332 0.0
H1021 H 0.2847 0.06158 0.12752 0.0
H1022 H 0.30101 0.12164 0.11349 0.0
H1023 H 0.27753 0.07535 0.07563 0.0
H1024 H 0.30151 0.23483 0.03558 0.0
H1025 H 0.3213 0.19143 0.04878 0.0
C1026 C 0.01419 0.29235 0.22764 0.0
C1027 C 0.01816 0.29008 0.2151 0.0
C1028 C 0.05011 0.30168 0.23519 0.0
C1029 C 0.15049 0.29131 0.23558 0.0
H1030 H 0.17529 0.35732 0.26548 0.0
C1031 C 0.28611 0.30452 0.26776 0.0
C1032 C 0.27303 0.29493 0.27987 0.0
C1033 C 0.26058 0.31305 0.2596 0.0
C1034 C 0.16868 0.33872 0.25716 0.0
H1035 H 0.06386 0.29856 0.20064 0.0
H1036 H 0.12651 0.31543 0.21378 0.0
H1037 H 0.11998 0.35589 0.25155 0.0
H1038 H 0.22404 0.28911 0.29302 0.0
H1039 H 0.17933 0.30338 0.27878 0.0
H1040 H 0.19813 0.27311 0.24126 0.0
C1041 C 0.09536 0.30899 0.2178 0.0
C1042 C 0.137 0.33788 0.2492 0.0
C1043 C 0.05945 0.29948 0.21026 0.0
C1044 C 0.23505 0.29621 0.28375 0.0
C1045 C 0.20952 0.30471 0.2756 0.0
C1046 C 0.1821 0.29218 0.24351 0.0
C1047 C 0.0908 0.30912 0.23036 0.0
C1048 C 0.1271 0.31361 0.23839 0.0
C1049 C 0.22141 0.31218 0.26337 0.0
C1050 C 0.19111 0.31533 0.25448 0.0
H1051 H 0.98287 0.28531 0.23167 0.0
H1052 H 0.04534 0.30114 0.24483 0.0
H1053 H 0.14314 0.27161 0.22744 0.0
H1054 H 0.31539 0.3042 0.26447 0.0
H1055 H 0.27101 0.31942 0.25028 0.0
C1056 C 0.75813 0.06864 0.37564 0.0
C1057 C 0.72648 0.0276 0.38066 0.0
C1058 C 0.78446 0.10517 0.38301 0.0
C1059 C 0.79793 0.14888 0.41421 0.0
H1060 H 0.92375 0.20743 0.4064 0.0
C1061 C 0.93753 0.24213 0.44899 0.0
C1062 C 0.97801 0.27892 0.44525 0.0
C1063 C 0.90326 0.21837 0.44075 0.0
C1064 C 0.8887 0.19222 0.4086 0.0
H1065 H 0.69612 0.9935 0.39737 0.0
H1066 H 0.74258 0.05704 0.41025 0.0
H1067 H 0.86973 0.15292 0.39258 0.0
H1068 H 0.01302 0.32134 0.43003 0.0
H1069 H 0.95295 0.28009 0.41567 0.0
H1070 H 0.81733 0.18741 0.43046 0.0
C1071 C 0.74672 0.06112 0.40059 0.0
C1072 C 0.85765 0.16086 0.40067 0.0
C1073 C 0.72024 0.02458 0.3932 0.0
C1074 C 0.98247 0.29291 0.4332 0.0
C1075 C 0.94811 0.26915 0.42495 0.0
C1076 C 0.82907 0.18036 0.42217 0.0
C1077 C 0.77988 0.1015 0.39559 0.0
C1078 C 0.81197 0.13821 0.40347 0.0
C1079 C 0.9086 0.2309 0.42857 0.0
C1080 C 0.8749 0.20175 0.41955 0.0
H1081 H 0.76347 0.07234 0.366 0.0
H1082 H 0.80913 0.13605 0.37887 0.0
H1083 H 0.76291 0.13246 0.41655 0.0
H1084 H 0.93284 0.23048 0.45821 0.0
H1085 H 0.87347 0.18885 0.44382 0.0
C1086 C 0.68914 0.7584 0.54355 0.0
C1087 C 0.69964 0.72713 0.54829 0.0
C1088 C 0.67949 0.78447 0.55119 0.0
C1089 C 0.65427 0.79874 0.58289 0.0
H1090 H 0.71965 0.92431 0.57463 0.0
C1091 C 0.70447 0.94013 0.61747 0.0
C1092 C 0.70632 0.97986 0.61377 0.0
C1093 C 0.6937 0.90561 0.60928 0.0
C1094 C 0.70038 0.88933 0.57698 0.0
H1095 H 0.70572 0.69695 0.56476 0.0
H1096 H 0.68972 0.74307 0.57809 0.0
H1097 H 0.71803 0.86982 0.56061 0.0
H1098 H 0.69571 0.01333 0.5987 0.0
H1099 H 0.67652 0.95287 0.58444 0.0
H1100 H 0.63792 0.81875 0.59948 0.0
C1101 C 0.68843 0.7471 0.56846 0.0
C1102 C 0.69944 0.858 0.56892 0.0
C1103 C 0.69786 0.7208 0.56081 0.0
C1104 C 0.69505 0.98338 0.60183 0.0
C1105 C 0.6842 0.9488 0.59364 0.0
C1106 C 0.65524 0.83018 0.59098 0.0
C1107 C 0.68036 0.78008 0.56374 0.0
C1108 C 0.67701 0.8124 0.57185 0.0
C1109 C 0.68445 0.90997 0.59721 0.0
C1110 C 0.67896 0.87591 0.58819 0.0
H1111 H 0.68962 0.76371 0.53394 0.0
H1112 H 0.6725 0.80895 0.54726 0.0
H1113 H 0.63622 0.7638 0.58534 0.0
H1114 H 0.71283 0.9362 0.62661 0.0
H1115 H 0.69464 0.87635 0.6123 0.0
C1116 C 0.94264 0.6865 0.71269 0.0
C1117 C 0.98581 0.70161 0.71716 0.0
C1118 C 0.90735 0.67627 0.72051 0.0
C1119 C 0.87179 0.65819 0.75254 0.0
H1120 H 0.80394 0.71412 0.74262 0.0
C1121 C 0.77198 0.70417 0.78545 0.0
C1122 C 0.73277 0.70245 0.78132 0.0
C1123 C 0.79787 0.69467 0.77769 0.0
C1124 C 0.82181 0.69745 0.74546 0.0
H1125 H 0.02521 0.71502 0.7334 0.0
H1126 H 0.96357 0.69787 0.74711 0.0
H1127 H 0.85819 0.71343 0.72898 0.0
H1128 H 0.68863 0.68669 0.76598 0.0
H1129 H 0.73346 0.66948 0.7525 0.0
H1130 H 0.83591 0.64331 0.76919 0.0
C1131 C 0.95696 0.69353 0.73753 0.0
C1132 C 0.85303 0.69707 0.73762 0.0
C1133 C 0.99233 0.7035 0.72968 0.0
C1134 C 0.7189 0.68885 0.76942 0.0
C1135 C 0.7447 0.67915 0.76167 0.0
C1136 C 0.84038 0.65851 0.7604 0.0
C1137 C 0.91442 0.68124 0.733 0.0
C1138 C 0.87876 0.67791 0.7411 0.0
C1139 C 0.78506 0.68304 0.76563 0.0
C1140 C 0.81544 0.67867 0.757 0.0
H1141 H 0.93632 0.68399 0.70309 0.0
H1142 H 0.87475 0.66586 0.71675 0.0
H1143 H 0.8908 0.6428 0.75543 0.0
H1144 H 0.78364 0.71444 0.79457 0.0
H1145 H 0.82895 0.69842 0.78101 0.0
C1146 C 0.05414 0.76259 0.95061 0.0
C1147 C 0.01412 0.72507 0.94691 0.0
C1148 C 0.08821 0.78666 0.94234 0.0
C1149 C 0.10274 0.81195 0.91019 0.0
H1150 H 0.22876 0.86941 0.91773 0.0
C1151 C 0.2331 0.93067 0.87645 0.0
C1152 C 0.26652 0.97137 0.88122 0.0
C1153 C 0.20626 0.89513 0.88404 0.0
C1154 C 0.19368 0.8537 0.91552 0.0
H1155 H 0.97963 0.68201 0.93173 0.0
H1156 H 0.03922 0.72393 0.91733 0.0
H1157 H 0.17421 0.81633 0.93195 0.0
H1158 H 0.29931 0.00591 0.89768 0.0
H1159 H 0.25187 0.94426 0.91094 0.0
H1160 H 0.12173 0.85017 0.894 0.0
C1161 C 0.04389 0.73508 0.9266 0.0
C1162 C 0.16248 0.82329 0.92364 0.0
C1163 C 0.00982 0.71098 0.93487 0.0
C1164 C 0.27385 0.97503 0.89371 0.0
C1165 C 0.24678 0.93955 0.90132 0.0
C1166 C 0.13383 0.84236 0.9021 0.0
C1167 C 0.08303 0.77376 0.93018 0.0
C1168 C 0.11663 0.80259 0.92114 0.0
C1169 C 0.21199 0.89955 0.89659 0.0
C1170 C 0.17963 0.86411 0.90473 0.0
H1171 H 0.05866 0.77431 0.95982 0.0
H1172 H 0.11779 0.81653 0.94536 0.0
H1173 H 0.06765 0.79721 0.90808 0.0
H1174 H 0.22692 0.92651 0.86685 0.0
H1175 H 0.18035 0.86447 0.88009 0.0
C1176 C 0.10229 0.13529 0.01935 0.0
C1177 C 0.09016 0.16821 0.01831 0.0
C1178 C 0.07111 0.09069 0.01731 0.0
C1179 C 0.97436 0.02035 -0.00038 0.0
H1180 H 0.97237 0.92752 0.01958 0.0
C1181 C 0.88979 0.83311 0.98549 0.0
C1182 C 0.91847 0.81557 0.98683 0.0
C1183 C 0.90107 0.87461 0.99048 0.0
C1184 C 0.9723 0.95304 0.01396 0.0
H1185 H 0.03573 0.18036 0.0145 0.0
H1186 H 0.98104 0.10172 0.0106 0.0
H1187 H 0.00933 0.00421 0.02688 0.0
H1188 H 0.98163 0.82815 0.99435 0.0
H1189 H 0.00102 0.89988 0.00293 0.0
H1190 H 0.93948 0.96937 0.9864 0.0
C1191 C 0.01471 0.11077 0.01314 0.0
C1192 C 0.99331 0.99679 0.01814 0.0
C1193 C 0.04589 0.15556 0.0154 0.0
C1194 C 0.95865 0.84047 0.99315 0.0
C1195 C 0.96963 0.88147 -0.00181 0.0
C1196 C 0.95336 0.97642 0.9954 0.0
C1197 C 0.02722 0.07805 0.01404 0.0
C1198 C 0.99619 0.03109 0.0108 0.0
C1199 C 0.94087 0.89881 0.99701 0.0
C1200 C 0.95395 0.94281 0.00233 0.0
H1201 H 0.13609 0.144 0.02165 0.0
H1202 H 0.08179 0.0662 0.0179 0.0
H1203 H 0.97632 0.04632 0.99378 0.0
H1204 H 0.85859 0.81473 0.98067 0.0
H1205 H 0.87847 0.88745 0.98941 0.0
C1206 C 0.06782 0.90897 0.14882 0.0
C1207 C 0.11033 0.92628 0.15398 0.0
C1208 C 0.04032 0.92613 0.15212 0.0
C1209 C 0.98252 0.95956 0.16431 0.0
H1210 H 0.04749 0.08845 0.16713 0.0
C1211 C 0.90702 0.06686 0.18165 0.0
C1212 C 0.92311 0.10871 0.17617 0.0
C1213 C 0.92474 0.0397 0.17848 0.0
C1214 C 0.02869 0.05249 0.16625 0.0
H1215 H 0.15593 0.97227 0.16731 0.0
H1216 H 0.10781 0.00121 0.17323 0.0
H1217 H 0.08767 0.04951 0.16295 0.0
H1218 H 0.96731 0.15331 0.16241 0.0
H1219 H 0.99717 0.10575 0.15671 0.0
H1220 H 0.92322 0.96323 0.16736 0.0
C1221 C 0.09619 0.97561 0.16636 0.0
C1222 C 0.05184 0.03006 0.16404 0.0
C1223 C 0.12373 0.95895 0.16298 0.0
C1224 C 0.95497 0.12165 0.16698 0.0
C1225 C 0.97216 0.09444 0.16373 0.0
C1226 C 0.95916 0.98219 0.16652 0.0
C1227 C 0.05485 0.96051 0.1607 0.0
C1228 C 0.02917 0.98338 0.1631 0.0
C1229 C 0.95843 0.05393 0.16972 0.0
C1230 C 0.98211 0.02895 0.16744 0.0
H1231 H 0.05663 0.88362 0.14189 0.0
H1232 H 0.00866 0.91393 0.14758 0.0
H1233 H 0.96421 0.92353 0.16367 0.0
H1234 H 0.88231 0.05606 0.18874 0.0
H1235 H 0.91358 0.00866 0.18327 0.0
C1236 C 0.1574 0.07218 0.3136 0.0
C1237 C 0.18392 0.11358 0.31923 0.0
C1238 C 0.1128 0.04517 0.31701 0.0
C1239 C 0.02354 0.0584 0.33041 0.0
H1240 H 0.95787 0.92925 0.3321 0.0
C1241 C 0.84056 0.91472 0.34749 0.0
C1242 C 0.81556 0.93261 0.34252 0.0
C1243 C 0.88521 0.93193 0.3442 0.0
C1244 C 0.97595 0.96533 0.33172 0.0
H1245 H 0.18608 0.15749 0.33348 0.0
H1246 H 0.10916 0.11015 0.33959 0.0
H1247 H 0.03831 0.96839 0.3281 0.0
H1248 H 0.81644 0.97995 0.32957 0.0
H1249 H 0.89351 0.00908 0.3237 0.0
H1250 H 0.96215 0.05597 0.33424 0.0
C1251 C 0.12201 0.09911 0.33228 0.0
C1252 C 0.02179 0.98765 0.32934 0.0
C1253 C 0.16611 0.12619 0.3288 0.0
C1254 C 0.83512 0.96612 0.33375 0.0
C1255 C 0.87932 0.98288 0.3304 0.0
C1256 C 0.97812 0.03628 0.33279 0.0
C1257 C 0.09442 0.0591 0.32616 0.0
C1258 C 0.04599 0.03447 0.32871 0.0
C1259 C 0.90525 0.96698 0.33584 0.0
C1260 C 0.95371 0.98955 0.3334 0.0
H1261 H 0.17047 0.06164 0.30624 0.0
H1262 H 0.09226 0.01451 0.31212 0.0
H1263 H 0.04102 0.09444 0.32978 0.0
H1264 H 0.8262 0.88872 0.35423 0.0
H1265 H 0.90447 0.91912 0.34857 0.0
C1266 C 0.09915 0.16179 0.48179 0.0
C1267 C 0.06829 0.17585 0.47927 0.0
C1268 C 0.08436 0.11693 0.48435 0.0
C1269 C 0.9888 0.00453 0.4802 0.0
H1270 H 0.01989 0.97531 0.51108 0.0
C1271 C 0.87092 0.84576 0.50482 0.0
C1272 C 0.88726 0.82033 0.51037 0.0
C1273 C 0.90002 0.8876 0.5001 0.0
C1274 C 0.01166 0.98288 0.50232 0.0
H1275 H -0.00194 0.15396 0.4771 0.0
H1276 H 0.97252 0.07604 0.48137 0.0
H1277 H 0.05966 0.05256 0.50388 0.0
H1278 H 0.94728 0.81957 0.51556 0.0
H1279 H -0.00145 0.89369 0.50733 0.0
H1280 H 0.93974 0.93553 0.47879 0.0
C1281 C 0.00801 0.09953 0.48141 0.0
C1282 C 0.03437 0.02697 0.49821 0.0
C1283 C 0.02264 0.14421 0.47905 0.0
C1284 C 0.93364 0.83831 0.51132 0.0
C1285 C 0.96296 0.88063 0.50663 0.0
C1286 C 0.9663 0.96066 0.48427 0.0
C1287 C 0.03863 0.0855 0.48416 0.0
C1288 C 0.02181 0.03833 0.48734 0.0
C1289 C 0.94628 0.90528 0.50081 0.0
C1290 C 0.97621 0.94975 0.49559 0.0
H1291 H 0.13454 0.18556 0.48206 0.0
H1292 H 0.10852 0.1068 0.48647 0.0
H1293 H 0.97904 0.01241 0.4717 0.0
H1294 H 0.83546 0.83322 0.50397 0.0
H1295 H 0.88621 0.90631 0.49593 0.0
C1296 C 0.02727 0.88381 0.68433 0.0
C1297 C 0.07283 0.89752 0.68391 0.0
C1298 C 0.01281 0.91409 0.68211 0.0
C1299 C 0.0396 0.01314 0.66526 0.0
H1300 H 0.94494 0.01022 0.68457 0.0
C1301 C 0.93909 0.10105 0.65192 0.0
C1302 C 0.89271 0.07244 0.65276 0.0
C1303 C 0.96841 0.08821 0.65672 0.0
C1304 C 0.97154 0.0116 0.67913 0.0
H1305 H 0.13911 0.95382 0.68093 0.0
H1306 H 0.11338 0.0069 0.67677 0.0
H1307 H 0.984 0.97244 0.69173 0.0
H1308 H 0.84092 0.00759 0.65907 0.0
H1309 H 0.89167 0.98556 0.66729 0.0
H1310 H 0.02541 0.05045 0.65236 0.0
C1311 C 0.08915 0.97267 0.67894 0.0
C1312 C 0.99388 0.99009 0.68323 0.0
C1313 C 0.10377 0.94239 0.68136 0.0
C1314 C 0.87637 0.03065 0.6583 0.0
C1315 C 0.90547 0.0181 0.66312 0.0
C1316 C 0.01707 0.03465 0.66112 0.0
C1317 C 0.0435 0.95866 0.67929 0.0
C1318 C 0.02686 0.98916 0.67611 0.0
C1319 C 0.9517 0.04686 0.66252 0.0
C1320 C 0.98161 0.03242 0.66781 0.0
H1321 H 0.00264 0.84952 0.68632 0.0
H1322 H 0.97735 0.90227 0.68227 0.0
H1323 H 0.06487 0.01275 0.6596 0.0
H1324 H 0.95272 0.13345 0.6477 0.0
H1325 H 0.00399 0.11087 0.65609 0.0
C1326 C 0.16698 0.04564 0.83257 0.0
C1327 C 0.18476 0.07454 0.84244 0.0
C1328 C 0.12307 0.02961 0.82906 0.0
C1329 C 0.02268 0.03997 0.83264 0.0
H1330 H 0.96352 0.91205 0.82765 0.0
C1331 C 0.83673 0.87368 0.82868 0.0
C1332 C 0.8168 0.88655 0.81975 0.0
C1333 C 0.88078 0.90192 0.83203 0.0
C1334 C 0.97938 0.9477 0.82912 0.0
H1335 H 0.17172 0.11181 0.85593 0.0
H1336 H 0.0937 0.08237 0.84999 0.0
H1337 H 0.04263 0.9529 0.8318 0.0
H1338 H 0.82648 0.94014 0.80778 0.0
H1339 H 0.90456 0.98945 0.81346 0.0
H1340 H 0.95838 0.03395 0.83015 0.0
C1341 C 0.11414 0.07269 0.84489 0.0
C1342 C 0.0249 0.97124 0.83132 0.0
C1343 C 0.1586 0.08933 0.84832 0.0
C1344 C 0.84116 0.92931 0.81465 0.0
C1345 C 0.88567 0.95758 0.81794 0.0
C1346 C 0.97672 0.01619 0.8304 0.0
C1347 C 0.09564 0.04148 0.83548 0.0
C1348 C 0.04715 0.0176 0.83306 0.0
C1349 C 0.90618 0.9435 0.82642 0.0
C1350 C 0.95469 0.96975 0.8287 0.0
H1351 H 0.18676 0.03449 0.8277 0.0
H1352 H 0.11007 0.00655 0.82156 0.0
H1353 H 0.03909 0.07572 0.83393 0.0
H1354 H 0.81853 0.84132 0.83297 0.0
H1355 H 0.8954 0.89065 0.83881 0.0
loop_
_geom_bond_atom_site_label_1
_geom_bond_atom_site_label_2
_geom_bond_distance
_geom_bond_site_symmetry_2
_ccdc_geom_bond_type
O0 Zn1 1.953 . S
O0 C16 1.225 . S
Zn1 O0 1.953 . S
Zn1 O2 1.949 . S
Zn1 O8 1.919 . S
Zn1 O13 1.924 . S
O2 Zn1 1.949 . S
O2 Zn3 1.923 . S
O2 Zn4 1.950 . S
O2 Zn5 1.945 . S
Zn3 O2 1.923 . S
Zn3 O6 1.933 1_554 S
Zn3 O9 1.941 . S
Zn3 O10 1.965 . S
Zn4 O2 1.950 . S
Zn4 O11 1.938 . S
Zn4 O12 1.906 . S
Zn4 O22 1.953 . S
Zn5 O2 1.945 . S
Zn5 O7 1.932 1_554 S
Zn5 O14 1.977 . S
Zn5 O15 1.910 . S
O6 Zn3 1.933 1_556 S
O6 C17 1.226 . S
O7 Zn5 1.932 1_556 S
O7 C17 1.307 . S
O8 Zn1 1.919 . S
O8 C19 1.253 . S
O9 Zn3 1.941 . S
O9 C19 1.283 . S
O10 Zn3 1.965 . S
O10 C18 1.303 . S
O11 Zn4 1.938 . S
O11 C18 1.247 . S
O12 Zn4 1.906 . S
O12 C20 1.304 . S
O13 Zn1 1.924 . S
O13 C21 1.311 . S
O14 Zn5 1.977 . S
O14 C20 1.272 . S
O15 Zn5 1.910 . S
O15 C21 1.231 . S
C16 O0 1.225 . S
C16 O22 1.298 . S
C17 O6 1.226 . S
C17 O7 1.307 . S
C18 O10 1.303 . S
C18 O11 1.247 . S
C19 O8 1.253 . S
C19 O9 1.283 . S
C20 O12 1.304 . S
C20 O14 1.272 . S
C21 O13 1.311 . S
C21 O15 1.231 . S
O22 Zn4 1.953 . S
O22 C16 1.298 . S
O23 Zn24 1.953 . S
O23 C39 1.225 . S
Zn24 O23 1.953 . S
Zn24 O25 1.949 . S
Zn24 O31 1.919 . S
Zn24 O36 1.924 . S
O25 Zn24 1.949 . S
O25 Zn26 1.923 . S
O25 Zn27 1.950 . S
O25 Zn28 1.945 . S
Zn26 O25 1.923 . S
Zn26 O29 1.933 1_655 S
Zn26 O32 1.941 . S
Zn26 O33 1.965 1_655 S
Zn27 O25 1.950 . S
Zn27 O34 1.938 . S
Zn27 O35 1.906 . S
Zn27 O45 1.953 . S
Zn28 O25 1.945 . S
Zn28 O30 1.932 . S
Zn28 O37 1.977 . S
Zn28 O38 1.910 . S
O29 Zn26 1.933 1_455 S
O29 C40 1.226 1_455 S
O30 Zn28 1.932 . S
O30 C40 1.307 . S
O31 Zn24 1.919 . S
O31 C42 1.253 . S
O32 Zn26 1.941 . S
O32 C42 1.283 . S
O33 Zn26 1.965 1_455 S
O33 C41 1.303 . S
O34 Zn27 1.938 . S
O34 C41 1.247 1_655 S
O35 Zn27 1.906 . S
O35 C43 1.304 . S
O36 Zn24 1.924 . S
O36 C44 1.311 . S
O37 Zn28 1.977 . S
O37 C43 1.272 . S
O38 Zn28 1.910 . S
O38 C44 1.231 . S
C39 O23 1.225 . S
C39 O45 1.298 . S
C40 O29 1.226 1_655 S
C40 O30 1.307 . S
C41 O33 1.303 . S
C41 O34 1.247 1_455 S
C42 O31 1.253 . S
C42 O32 1.283 . S
C43 O35 1.304 . S
C43 O37 1.272 . S
C44 O36 1.311 . S
C44 O38 1.231 . S
O45 Zn27 1.953 . S
O45 C39 1.298 . S
O46 Zn47 1.953 . S
O46 C62 1.225 . S
Zn47 O46 1.953 . S
Zn47 O48 1.949 . S
Zn47 O54 1.919 . S
Zn47 O59 1.924 . S
O48 Zn47 1.949 . S
O48 Zn49 1.923 . S
O48 Zn50 1.950 . S
O48 Zn51 1.945 . S
Zn49 O48 1.923 . S
Zn49 O52 1.933 1_565 S
Zn49 O55 1.941 . S
Zn49 O56 1.965 1_565 S
Zn50 O48 1.950 . S
Zn50 O57 1.938 . S
Zn50 O58 1.906 . S
Zn50 O68 1.953 . S
Zn51 O48 1.945 . S
Zn51 O53 1.932 . S
Zn51 O60 1.977 . S
Zn51 O61 1.910 . S
O52 Zn49 1.933 1_545 S
O52 C63 1.226 1_545 S
O53 Zn51 1.932 . S
O53 C63 1.307 . S
O54 Zn47 1.919 . S
O54 C65 1.253 . S
O55 Zn49 1.941 . S
O55 C65 1.283 . S
O56 Zn49 1.965 1_545 S
O56 C64 1.303 . S
O57 Zn50 1.938 . S
O57 C64 1.247 1_565 S
O58 Zn50 1.906 . S
O58 C66 1.304 . S
O59 Zn47 1.924 . S
O59 C67 1.311 . S
O60 Zn51 1.977 . S
O60 C66 1.272 . S
O61 Zn51 1.910 . S
O61 C67 1.231 . S
C62 O46 1.225 . S
C62 O68 1.298 . S
C63 O52 1.226 1_565 S
C63 O53 1.307 . S
C64 O56 1.303 . S
C64 O57 1.247 1_545 S
C65 O54 1.253 . S
C65 O55 1.283 . S
C66 O58 1.304 . S
C66 O60 1.272 . S
C67 O59 1.311 . S
C67 O61 1.231 . S
O68 Zn50 1.953 . S
O68 C62 1.298 . S
O69 Zn70 1.953 . S
O69 C85 1.225 . S
Zn70 O69 1.953 . S
Zn70 O71 1.949 . S
Zn70 O77 1.919 . S
Zn70 O82 1.924 . S
O71 Zn70 1.949 . S
O71 Zn72 1.923 . S
O71 Zn73 1.950 . S
O71 Zn74 1.945 . S
Zn72 O71 1.923 . S
Zn72 O75 1.933 . S
Zn72 O78 1.941 . S
Zn72 O79 1.965 . S
Zn73 O71 1.950 . S
Zn73 O80 1.938 . S
Zn73 O81 1.906 . S
Zn73 O91 1.953 . S
Zn74 O71 1.945 . S
Zn74 O76 1.932 . S
Zn74 O83 1.977 . S
Zn74 O84 1.910 . S
O75 Zn72 1.933 . S
O75 C86 1.226 . S
O76 Zn74 1.932 . S
O76 C86 1.307 . S
O77 Zn70 1.919 . S
O77 C88 1.253 . S
O78 Zn72 1.941 . S
O78 C88 1.283 . S
O79 Zn72 1.965 . S
O79 C87 1.303 . S
O80 Zn73 1.938 . S
O80 C87 1.247 . S
O81 Zn73 1.906 . S
O81 C89 1.304 . S
O82 Zn70 1.924 . S
O82 C90 1.311 . S
O83 Zn74 1.977 . S
O83 C89 1.272 . S
O84 Zn74 1.910 . S
O84 C90 1.231 . S
C85 O69 1.225 . S
C85 O91 1.298 . S
C86 O75 1.226 . S
C86 O76 1.307 . S
C87 O79 1.303 . S
C87 O80 1.247 . S
C88 O77 1.253 . S
C88 O78 1.283 . S
C89 O81 1.304 . S
C89 O83 1.272 . S
C90 O82 1.311 . S
C90 O84 1.231 . S
O91 Zn73 1.953 . S
O91 C85 1.298 . S
O92 Zn93 1.953 . S
O92 C108 1.225 . S
Zn93 O92 1.953 . S
Zn93 O94 1.949 . S
Zn93 O100 1.919 . S
Zn93 O105 1.924 . S
O94 Zn93 1.949 . S
O94 Zn95 1.923 . S
O94 Zn96 1.950 . S
O94 Zn97 1.945 . S
Zn95 O94 1.923 . S
Zn95 O98 1.933 1_455 S
Zn95 O101 1.941 . S
Zn95 O102 1.965 1_455 S
Zn96 O94 1.950 . S
Zn96 O103 1.938 . S
Zn96 O104 1.906 . S
Zn96 O114 1.953 . S
Zn97 O94 1.945 . S
Zn97 O99 1.932 . S
Zn97 O106 1.977 . S
Zn97 O107 1.910 . S
O98 Zn95 1.933 1_655 S
O98 C109 1.226 1_655 S
O99 Zn97 1.932 . S
O99 C109 1.307 . S
O100 Zn93 1.919 . S
O100 C111 1.253 . S
O101 Zn95 1.941 . S
O101 C111 1.283 . S
O102 Zn95 1.965 1_655 S
O102 C110 1.303 . S
O103 Zn96 1.938 . S
O103 C110 1.247 1_455 S
O104 Zn96 1.906 . S
O104 C112 1.304 . S
O105 Zn93 1.924 . S
O105 C113 1.311 . S
O106 Zn97 1.977 . S
O106 C112 1.272 . S
O107 Zn97 1.910 . S
O107 C113 1.231 . S
C108 O92 1.225 . S
C108 O114 1.298 . S
C109 O98 1.226 1_455 S
C109 O99 1.307 . S
C110 O102 1.303 . S
C110 O103 1.247 1_655 S
C111 O100 1.253 . S
C111 O101 1.283 . S
C112 O104 1.304 . S
C112 O106 1.272 . S
C113 O105 1.311 . S
C113 O107 1.231 . S
O114 Zn96 1.953 . S
O114 C108 1.298 . S
O115 Zn116 1.953 . S
O115 C131 1.225 . S
Zn116 O115 1.953 . S
Zn116 O117 1.949 . S
Zn116 O123 1.919 . S
Zn116 O128 1.924 . S
O117 Zn116 1.949 . S
O117 Zn118 1.923 . S
O117 Zn119 1.950 . S
O117 Zn120 1.945 . S
Zn118 O117 1.923 . S
Zn118 O121 1.933 1_545 S
Zn118 O124 1.941 . S
Zn118 O125 1.965 1_545 S
Zn119 O117 1.950 . S
Zn119 O126 1.938 . S
Zn119 O127 1.906 . S
Zn119 O137 1.953 . S
Zn120 O117 1.945 . S
Zn120 O122 1.932 . S
Zn120 O129 1.977 . S
Zn120 O130 1.910 . S
O121 Zn118 1.933 1_565 S
O121 C132 1.226 1_565 S
O122 Zn120 1.932 . S
O122 C132 1.307 . S
O123 Zn116 1.919 . S
O123 C134 1.253 . S
O124 Zn118 1.941 . S
O124 C134 1.283 . S
O125 Zn118 1.965 1_565 S
O125 C133 1.303 . S
O126 Zn119 1.938 . S
O126 C133 1.247 1_545 S
O127 Zn119 1.906 . S
O127 C135 1.304 . S
O128 Zn116 1.924 . S
O128 C136 1.311 . S
O129 Zn120 1.977 . S
O129 C135 1.272 . S
O130 Zn120 1.910 . S
O130 C136 1.231 . S
C131 O115 1.225 . S
C131 O137 1.298 . S
C132 O121 1.226 1_545 S
C132 O122 1.307 . S
C133 O125 1.303 . S
C133 O126 1.247 1_565 S
C134 O123 1.253 . S
C134 O124 1.283 . S
C135 O127 1.304 . S
C135 O129 1.272 . S
C136 O128 1.311 . S
C136 O130 1.231 . S
O137 Zn119 1.953 . S
O137 C131 1.298 . S
O138 Zn139 1.953 . S
O138 C154 1.225 . S
Zn139 O138 1.953 . S
Zn139 O140 1.949 . S
Zn139 O146 1.919 . S
Zn139 O151 1.924 . S
O140 Zn139 1.949 . S
O140 Zn141 1.923 . S
O140 Zn142 1.950 . S
O140 Zn143 1.945 . S
Zn141 O140 1.923 . S
Zn141 O144 1.933 . S
Zn141 O147 1.941 . S
Zn141 O148 1.965 . S
Zn142 O140 1.950 . S
Zn142 O149 1.938 . S
Zn142 O150 1.906 . S
Zn142 O160 1.953 . S
Zn143 O140 1.945 . S
Zn143 O145 1.932 . S
Zn143 O152 1.977 . S
Zn143 O153 1.910 . S
O144 Zn141 1.933 . S
O144 C155 1.226 . S
O145 Zn143 1.932 . S
O145 C155 1.307 . S
O146 Zn139 1.919 . S
O146 C157 1.253 . S
O147 Zn141 1.941 . S
O147 C157 1.283 . S
O148 Zn141 1.965 . S
O148 C156 1.303 . S
O149 Zn142 1.938 . S
O149 C156 1.247 . S
O150 Zn142 1.906 . S
O150 C158 1.304 . S
O151 Zn139 1.924 . S
O151 C159 1.311 . S
O152 Zn143 1.977 . S
O152 C158 1.272 . S
O153 Zn143 1.910 . S
O153 C159 1.231 . S
C154 O138 1.225 . S
C154 O160 1.298 . S
C155 O144 1.226 . S
C155 O145 1.307 . S
C156 O148 1.303 . S
C156 O149 1.247 . S
C157 O146 1.253 . S
C157 O147 1.283 . S
C158 O150 1.304 . S
C158 O152 1.272 . S
C159 O151 1.311 . S
C159 O153 1.231 . S
O160 Zn142 1.953 . S
O160 C154 1.298 . S
O161 Zn162 1.953 . S
O161 C177 1.225 . S
Zn162 O161 1.953 . S
Zn162 O163 1.949 . S
Zn162 O169 1.919 . S
Zn162 O174 1.924 . S
O163 Zn162 1.949 . S
O163 Zn164 1.923 . S
O163 Zn165 1.950 . S
O163 Zn166 1.945 . S
Zn164 O163 1.923 . S
Zn164 O167 1.933 1_656 S
Zn164 O170 1.941 . S
Zn164 O171 1.965 1_655 S
Zn165 O163 1.950 . S
Zn165 O172 1.938 . S
Zn165 O173 1.906 . S
Zn165 O183 1.953 . S
Zn166 O163 1.945 . S
Zn166 O168 1.932 1_556 S
Zn166 O175 1.977 . S
Zn166 O176 1.910 . S
O167 Zn164 1.933 1_454 S
O167 C178 1.226 1_455 S
O168 Zn166 1.932 1_554 S
O168 C178 1.307 . S
O169 Zn162 1.919 . S
O169 C180 1.253 . S
O170 Zn164 1.941 . S
O170 C180 1.283 . S
O171 Zn164 1.965 1_455 S
O171 C179 1.303 . S
O172 Zn165 1.938 . S
O172 C179 1.247 1_655 S
O173 Zn165 1.906 . S
O173 C181 1.304 . S
O174 Zn162 1.924 . S
O174 C182 1.311 . S
O175 Zn166 1.977 . S
O175 C181 1.272 . S
O176 Zn166 1.910 . S
O176 C182 1.231 . S
C177 O161 1.225 . S
C177 O183 1.298 . S
C178 O167 1.226 1_655 S
C178 O168 1.307 . S
C179 O171 1.303 . S
C179 O172 1.247 1_455 S
C180 O169 1.253 . S
C180 O170 1.283 . S
C181 O173 1.304 . S
C181 O175 1.272 . S
C182 O174 1.311 . S
C182 O176 1.231 . S
O183 Zn165 1.953 . S
O183 C177 1.298 . S
O184 Zn185 1.953 . S
O184 C200 1.225 . S
Zn185 O184 1.953 . S
Zn185 O186 1.949 . S
Zn185 O192 1.919 . S
Zn185 O197 1.924 . S
O186 Zn185 1.949 . S
O186 Zn187 1.923 . S
O186 Zn188 1.950 . S
O186 Zn189 1.945 . S
Zn187 O186 1.923 . S
Zn187 O190 1.933 1_565 S
Zn187 O193 1.941 . S
Zn187 O194 1.965 1_565 S
Zn188 O186 1.950 . S
Zn188 O195 1.938 . S
Zn188 O196 1.906 . S
Zn188 O206 1.953 . S
Zn189 O186 1.945 . S
Zn189 O191 1.932 . S
Zn189 O198 1.977 . S
Zn189 O199 1.910 . S
O190 Zn187 1.933 1_545 S
O190 C201 1.226 1_545 S
O191 Zn189 1.932 . S
O191 C201 1.307 . S
O192 Zn185 1.919 . S
O192 C203 1.253 . S
O193 Zn187 1.941 . S
O193 C203 1.283 . S
O194 Zn187 1.965 1_545 S
O194 C202 1.303 . S
O195 Zn188 1.938 . S
O195 C202 1.247 1_565 S
O196 Zn188 1.906 . S
O196 C204 1.304 . S
O197 Zn185 1.924 . S
O197 C205 1.311 . S
O198 Zn189 1.977 . S
O198 C204 1.272 . S
O199 Zn189 1.910 . S
O199 C205 1.231 . S
C200 O184 1.225 . S
C200 O206 1.298 . S
C201 O190 1.226 1_565 S
C201 O191 1.307 . S
C202 O194 1.303 . S
C202 O195 1.247 1_545 S
C203 O192 1.253 . S
C203 O193 1.283 . S
C204 O196 1.304 . S
C204 O198 1.272 . S
C205 O197 1.311 . S
C205 O199 1.231 . S
O206 Zn188 1.953 . S
O206 C200 1.298 . S
O207 Zn208 1.953 . S
O207 C223 1.225 . S
Zn208 O207 1.953 . S
Zn208 O209 1.949 . S
Zn208 O215 1.919 . S
Zn208 O220 1.924 . S
O209 Zn208 1.949 . S
O209 Zn210 1.923 . S
O209 Zn211 1.950 . S
O209 Zn212 1.945 . S
Zn210 O209 1.923 . S
Zn210 O213 1.933 . S
Zn210 O216 1.941 . S
Zn210 O217 1.965 . S
Zn211 O209 1.950 . S
Zn211 O218 1.938 . S
Zn211 O219 1.906 . S
Zn211 O229 1.953 . S
Zn212 O209 1.945 . S
Zn212 O214 1.932 . S
Zn212 O221 1.977 . S
Zn212 O222 1.910 . S
O213 Zn210 1.933 . S
O213 C224 1.226 . S
O214 Zn212 1.932 . S
O214 C224 1.307 . S
O215 Zn208 1.919 . S
O215 C226 1.253 . S
O216 Zn210 1.941 . S
O216 C226 1.283 . S
O217 Zn210 1.965 . S
O217 C225 1.303 . S
O218 Zn211 1.938 . S
O218 C225 1.247 . S
O219 Zn211 1.906 . S
O219 C227 1.304 . S
O220 Zn208 1.924 . S
O220 C228 1.311 . S
O221 Zn212 1.977 . S
O221 C227 1.272 . S
O222 Zn212 1.910 . S
O222 C228 1.231 . S
C223 O207 1.225 . S
C223 O229 1.298 . S
C224 O213 1.226 . S
C224 O214 1.307 . S
C225 O217 1.303 . S
C225 O218 1.247 . S
C226 O215 1.253 . S
C226 O216 1.283 . S
C227 O219 1.304 . S
C227 O221 1.272 . S
C228 O220 1.311 . S
C228 O222 1.231 . S
O229 Zn211 1.953 . S
O229 C223 1.298 . S
O230 Zn231 1.953 . S
O230 C246 1.225 . S
Zn231 O230 1.953 . S
Zn231 O232 1.949 . S
Zn231 O238 1.919 . S
Zn231 O243 1.924 . S
O232 Zn231 1.949 . S
O232 Zn233 1.923 . S
O232 Zn234 1.950 . S
O232 Zn235 1.945 . S
Zn233 O232 1.923 . S
Zn233 O236 1.933 1_455 S
Zn233 O239 1.941 . S
Zn233 O240 1.965 1_455 S
Zn234 O232 1.950 . S
Zn234 O241 1.938 . S
Zn234 O242 1.906 . S
Zn234 O252 1.953 . S
Zn235 O232 1.945 . S
Zn235 O237 1.932 . S
Zn235 O244 1.977 . S
Zn235 O245 1.910 . S
O236 Zn233 1.933 1_655 S
O236 C247 1.226 1_655 S
O237 Zn235 1.932 . S
O237 C247 1.307 . S
O238 Zn231 1.919 . S
O238 C249 1.253 . S
O239 Zn233 1.941 . S
O239 C249 1.283 . S
O240 Zn233 1.965 1_655 S
O240 C248 1.303 . S
O241 Zn234 1.938 . S
O241 C248 1.247 1_455 S
O242 Zn234 1.906 . S
O242 C250 1.304 . S
O243 Zn231 1.924 . S
O243 C251 1.311 . S
O244 Zn235 1.977 . S
O244 C250 1.272 . S
O245 Zn235 1.910 . S
O245 C251 1.231 . S
C246 O230 1.225 . S
C246 O252 1.298 . S
C247 O236 1.226 1_455 S
C247 O237 1.307 . S
C248 O240 1.303 . S
C248 O241 1.247 1_655 S
C249 O238 1.253 . S
C249 O239 1.283 . S
C250 O242 1.304 . S
C250 O244 1.272 . S
C251 O243 1.311 . S
C251 O245 1.231 . S
O252 Zn234 1.953 . S
O252 C246 1.298 . S
O253 Zn254 1.953 . S
O253 C269 1.225 . S
Zn254 O253 1.953 . S
Zn254 O255 1.949 . S
Zn254 O261 1.919 . S
Zn254 O266 1.924 . S
O255 Zn254 1.949 . S
O255 Zn256 1.923 . S
O255 Zn257 1.950 . S
O255 Zn258 1.945 . S
Zn256 O255 1.923 . S
Zn256 O259 1.933 1_545 S
Zn256 O262 1.941 . S
Zn256 O263 1.965 1_545 S
Zn257 O255 1.950 . S
Zn257 O264 1.938 . S
Zn257 O265 1.906 . S
Zn257 O275 1.953 . S
Zn258 O255 1.945 . S
Zn258 O260 1.932 . S
Zn258 O267 1.977 . S
Zn258 O268 1.910 . S
O259 Zn256 1.933 1_565 S
O259 C270 1.226 1_565 S
O260 Zn258 1.932 . S
O260 C270 1.307 . S
O261 Zn254 1.919 . S
O261 C272 1.253 . S
O262 Zn256 1.941 . S
O262 C272 1.283 . S
O263 Zn256 1.965 1_565 S
O263 C271 1.303 . S
O264 Zn257 1.938 . S
O264 C271 1.247 1_545 S
O265 Zn257 1.906 . S
O265 C273 1.304 . S
O266 Zn254 1.924 . S
O266 C274 1.311 . S
O267 Zn258 1.977 . S
O267 C273 1.272 . S
O268 Zn258 1.910 . S
O268 C274 1.231 . S
C269 O253 1.225 . S
C269 O275 1.298 . S
C270 O259 1.226 1_545 S
C270 O260 1.307 . S
C271 O263 1.303 . S
C271 O264 1.247 1_565 S
C272 O261 1.253 . S
C272 O262 1.283 . S
C273 O265 1.304 . S
C273 O267 1.272 . S
C274 O266 1.311 . S
C274 O268 1.231 . S
O275 Zn257 1.953 . S
O275 C269 1.298 . S
C276 C277 1.349 1_554 S
C276 C278 1.327 . S
C276 H301 0.950 . S
C277 C276 1.349 1_556 S
C277 C293 1.349 . S
C278 C276 1.327 . S
C278 C297 1.463 . S
C278 H302 0.950 . S
C279 C296 1.574 . S
C279 C298 1.368 1_556 S
C279 H303 0.949 . S
H280 C284 0.949 . S
C281 C282 1.349 . S
C281 C283 1.327 . S
C281 H304 0.950 . S
C282 C281 1.349 . S
C282 C294 1.349 . S
C283 C281 1.327 . S
C283 C299 1.429 . S
C283 H305 0.950 1_554 S
C284 H280 0.949 . S
C284 C292 1.574 . S
C284 C300 1.368 . S
H285 C293 0.950 . S
H286 C291 0.950 . S
H287 C292 0.949 . S
H288 C294 0.950 . S
H289 C295 0.950 . S
H290 C296 0.949 . S
C291 H286 0.950 . S
C291 C293 1.327 . S
C291 C297 1.382 1_556 S
C292 C284 1.574 . S
C292 H287 0.949 . S
C292 C298 1.368 . S
C293 C277 1.349 . S
C293 H285 0.950 . S
C293 C291 1.327 . S
C294 C282 1.349 . S
C294 H288 0.950 . S
C294 C295 1.327 . S
C295 H289 0.950 . S
C295 C294 1.327 . S
C295 C299 1.429 . S
C296 C279 1.574 . S
C296 H290 0.949 . S
C296 C300 1.368 1_556 S
C297 C278 1.463 . S
C297 C291 1.382 1_554 S
C297 C298 1.537 . S
C298 C279 1.368 1_554 S
C298 C292 1.368 . S
C298 C297 1.537 . S
C299 C283 1.429 . S
C299 C295 1.429 . S
C299 C300 1.523 . S
C300 C284 1.368 . S
C300 C296 1.368 1_554 S
C300 C299 1.523 . S
H301 C276 0.950 . S
H302 C278 0.950 . S
H303 C279 0.949 . S
H304 C281 0.950 . S
H305 C283 0.950 1_556 S
C306 C307 1.349 . S
C306 C308 1.327 . S
C306 H331 0.950 . S
C307 C306 1.349 . S
C307 C323 1.349 . S
C308 C306 1.327 . S
C308 C327 1.429 . S
C308 H332 0.950 . S
C309 C326 1.574 . S
C309 C328 1.368 . S
C309 H333 0.949 . S
H310 C314 0.949 . S
C311 C312 1.349 . S
C311 C313 1.327 . S
C311 H334 0.950 . S
C312 C311 1.349 . S
C312 C324 1.349 . S
C313 C311 1.327 . S
C313 C329 1.429 1_655 S
C313 H335 0.950 . S
C314 H310 0.949 . S
C314 C322 1.574 . S
C314 C330 1.368 . S
H315 C323 0.950 . S
H316 C321 0.950 . S
H317 C322 0.949 . S
H318 C324 0.950 . S
H319 C325 0.950 . S
H320 C326 0.949 . S
C321 H316 0.950 . S
C321 C323 1.327 . S
C321 C327 1.429 . S
C322 C314 1.574 . S
C322 H317 0.949 . S
C322 C328 1.368 . S
C323 C307 1.349 . S
C323 H315 0.950 . S
C323 C321 1.327 . S
C324 C312 1.349 . S
C324 H318 0.950 . S
C324 C325 1.327 1_655 S
C325 H319 0.950 . S
C325 C324 1.327 1_455 S
C325 C329 1.429 . S
C326 C309 1.574 . S
C326 H320 0.949 . S
C326 C330 1.368 . S
C327 C308 1.429 . S
C327 C321 1.429 . S
C327 C328 1.523 . S
C328 C309 1.368 . S
C328 C322 1.368 . S
C328 C327 1.523 . S
C329 C313 1.429 1_455 S
C329 C325 1.429 . S
C329 C330 1.523 . S
C330 C314 1.368 . S
C330 C326 1.368 . S
C330 C329 1.523 . S
H331 C306 0.950 . S
H332 C308 0.950 . S
H333 C309 0.949 . S
H334 C311 0.950 . S
H335 C313 0.950 . S
C336 C337 1.349 . S
C336 C338 1.327 . S
C336 H361 0.950 . S
C337 C336 1.349 . S
C337 C353 1.349 . S
C338 C336 1.327 . S
C338 C357 1.429 . S
C338 H362 0.950 . S
C339 C356 1.574 . S
C339 C358 1.368 . S
C339 H363 0.949 . S
H340 C344 0.949 . S
C341 C342 1.349 . S
C341 C343 1.327 . S
C341 H364 0.950 . S
C342 C341 1.349 . S
C342 C354 1.349 . S
C343 C341 1.327 . S
C343 C359 1.429 1_565 S
C343 H365 0.950 . S
C344 H340 0.949 . S
C344 C352 1.574 . S
C344 C360 1.368 . S
H345 C353 0.950 . S
H346 C351 0.950 . S
H347 C352 0.949 . S
H348 C354 0.950 . S
H349 C355 0.950 . S
H350 C356 0.949 . S
C351 H346 0.950 . S
C351 C353 1.327 . S
C351 C357 1.429 . S
C352 C344 1.574 . S
C352 H347 0.949 . S
C352 C358 1.368 . S
C353 C337 1.349 . S
C353 H345 0.950 . S
C353 C351 1.327 . S
C354 C342 1.349 . S
C354 H348 0.950 . S
C354 C355 1.327 1_565 S
C355 H349 0.950 . S
C355 C354 1.327 1_545 S
C355 C359 1.429 . S
C356 C339 1.574 . S
C356 H350 0.949 . S
C356 C360 1.368 . S
C357 C338 1.429 . S
C357 C351 1.429 . S
C357 C358 1.523 . S
C358 C339 1.368 . S
C358 C352 1.368 . S
C358 C357 1.523 . S
C359 C343 1.429 1_545 S
C359 C355 1.429 . S
C359 C360 1.523 . S
C360 C344 1.368 . S
C360 C356 1.368 . S
C360 C359 1.523 . S
H361 C336 0.950 . S
H362 C338 0.950 . S
H363 C339 0.949 . S
H364 C341 0.950 . S
H365 C343 0.950 . S
C366 C367 1.349 . S
C366 C368 1.327 . S
C366 H391 0.950 . S
C367 C366 1.349 . S
C367 C383 1.349 . S
C368 C366 1.327 . S
C368 C387 1.429 . S
C368 H392 0.950 . S
C369 C386 1.574 . S
C369 C388 1.368 . S
C369 H393 0.949 . S
H370 C374 0.949 . S
C371 C372 1.349 . S
C371 C373 1.327 . S
C371 H394 0.950 . S
C372 C371 1.349 . S
C372 C384 1.349 . S
C373 C371 1.327 . S
C373 C389 1.429 . S
C373 H395 0.950 . S
C374 H370 0.949 . S
C374 C382 1.574 . S
C374 C390 1.368 . S
H375 C383 0.950 . S
H376 C381 0.950 . S
H377 C382 0.949 . S
H378 C384 0.950 . S
H379 C385 0.950 . S
H380 C386 0.949 . S
C381 H376 0.950 . S
C381 C383 1.327 . S
C381 C387 1.429 . S
C382 C374 1.574 . S
C382 H377 0.949 . S
C382 C388 1.368 . S
C383 C367 1.349 . S
C383 H375 0.950 . S
C383 C381 1.327 . S
C384 C372 1.349 . S
C384 H378 0.950 . S
C384 C385 1.327 . S
C385 H379 0.950 . S
C385 C384 1.327 . S
C385 C389 1.429 . S
C386 C369 1.574 . S
C386 H380 0.949 . S
C386 C390 1.368 . S
C387 C368 1.429 . S
C387 C381 1.429 . S
C387 C388 1.523 . S
C388 C369 1.368 . S
C388 C382 1.368 . S
C388 C387 1.523 . S
C389 C373 1.429 . S
C389 C385 1.429 . S
C389 C390 1.523 . S
C390 C374 1.368 . S
C390 C386 1.368 . S
C390 C389 1.523 . S
H391 C366 0.950 . S
H392 C368 0.950 . S
H393 C369 0.949 . S
H394 C371 0.950 . S
H395 C373 0.950 . S
C396 C397 1.349 . S
C396 C398 1.327 . S
C396 H421 0.950 . S
C397 C396 1.349 . S
C397 C413 1.349 . S
C398 C396 1.327 . S
C398 C417 1.429 . S
C398 H422 0.950 . S
C399 C416 1.574 . S
C399 C418 1.368 . S
C399 H423 0.949 . S
H400 C404 0.949 . S
C401 C402 1.349 . S
C401 C403 1.327 . S
C401 H424 0.950 . S
C402 C401 1.349 . S
C402 C414 1.366 . S
C403 C401 1.327 . S
C403 C419 1.429 1_455 S
C403 H425 0.950 . S
C404 H400 0.949 . S
C404 C412 1.574 . S
C404 C420 1.368 . S
H405 C413 0.950 . S
H406 C411 0.950 . S
H407 C412 0.949 . S
H408 C414 0.933 1_655 S
H409 C415 0.950 . S
H410 C416 0.949 1_455 S
C411 H406 0.950 . S
C411 C413 1.327 . S
C411 C417 1.429 . S
C412 C404 1.574 . S
C412 H407 0.949 . S
C412 C418 1.368 . S
C413 C397 1.349 . S
C413 H405 0.950 . S
C413 C411 1.327 . S
C414 C402 1.366 . S
C414 H408 0.933 1_455 S
C414 C415 1.327 1_455 S
C415 H409 0.950 . S
C415 C414 1.327 1_655 S
C415 C419 1.429 . S
C416 C399 1.574 . S
C416 H410 0.949 1_655 S
C416 C420 1.368 . S
C417 C398 1.429 . S
C417 C411 1.429 . S
C417 C418 1.523 . S
C418 C399 1.368 . S
C418 C412 1.368 . S
C418 C417 1.523 . S
C419 C403 1.429 1_655 S
C419 C415 1.429 . S
C419 C420 1.523 . S
C420 C404 1.368 . S
C420 C416 1.368 . S
C420 C419 1.523 . S
H421 C396 0.950 . S
H422 C398 0.950 . S
H423 C399 0.949 . S
H424 C401 0.950 . S
H425 C403 0.950 . S
C426 C427 1.349 . S
C426 C428 1.327 . S
C426 H451 0.950 . S
C427 C426 1.349 . S
C427 C443 1.349 . S
C428 C426 1.327 . S
C428 C447 1.429 . S
C428 H452 0.950 . S
C429 C446 1.574 . S
C429 C448 1.368 . S
C429 H453 0.949 . S
H430 C434 0.949 . S
C431 C432 1.349 . S
C431 C433 1.327 . S
C431 H454 0.950 . S
C432 C431 1.349 . S
C432 C444 1.349 . S
C433 C431 1.327 . S
C433 C449 1.429 1_545 S
C433 H455 0.950 . S
C434 H430 0.949 . S
C434 C442 1.574 . S
C434 C450 1.368 . S
H435 C443 0.950 . S
H436 C441 0.950 . S
H437 C442 0.949 . S
H438 C444 0.950 . S
H439 C445 0.950 . S
H440 C446 0.949 . S
C441 H436 0.950 . S
C441 C443 1.327 . S
C441 C447 1.429 . S
C442 C434 1.574 . S
C442 H437 0.949 . S
C442 C448 1.368 . S
C443 C427 1.349 . S
C443 H435 0.950 . S
C443 C441 1.327 . S
C444 C432 1.349 . S
C444 H438 0.950 . S
C444 C445 1.327 1_545 S
C445 H439 0.950 . S
C445 C444 1.327 1_565 S
C445 C449 1.429 . S
C446 C429 1.574 . S
C446 H440 0.949 . S
C446 C450 1.368 . S
C447 C428 1.429 . S
C447 C441 1.429 . S
C447 C448 1.523 . S
C448 C429 1.368 . S
C448 C442 1.368 . S
C448 C447 1.523 . S
C449 C433 1.429 1_565 S
C449 C445 1.429 . S
C449 C450 1.523 . S
C450 C434 1.368 . S
C450 C446 1.368 . S
C450 C449 1.523 . S
H451 C426 0.950 . S
H452 C428 0.950 . S
H453 C429 0.949 . S
H454 C431 0.950 . S
H455 C433 0.950 . S
C456 C457 1.349 . S
C456 C458 1.327 . S
C456 H481 0.950 . S
C457 C456 1.349 . S
C457 C473 1.349 . S
C458 C456 1.327 . S
C458 C477 1.429 . S
C458 H482 0.950 . S
C459 C476 1.574 . S
C459 C478 1.368 . S
C459 H483 0.949 . S
H460 C464 0.949 . S
C461 C462 1.349 . S
C461 C463 1.327 . S
C461 H484 0.950 . S
C462 C461 1.349 . S
C462 C474 1.349 . S
C463 C461 1.327 . S
C463 C479 1.429 . S
C463 H485 0.950 . S
C464 H460 0.949 . S
C464 C472 1.574 . S
C464 C480 1.368 . S
H465 C473 0.950 . S
H466 C471 0.950 . S
H467 C472 0.949 . S
H468 C474 0.950 . S
H469 C475 0.950 . S
H470 C476 0.949 . S
C471 H466 0.950 . S
C471 C473 1.327 . S
C471 C477 1.429 . S
C472 C464 1.574 . S
C472 H467 0.949 . S
C472 C478 1.368 . S
C473 C457 1.349 . S
C473 H465 0.950 . S
C473 C471 1.327 . S
C474 C462 1.349 . S
C474 H468 0.950 . S
C474 C475 1.327 . S
C475 H469 0.950 . S
C475 C474 1.327 . S
C475 C479 1.429 . S
C476 C459 1.574 . S
C476 H470 0.949 . S
C476 C480 1.368 . S
C477 C458 1.429 . S
C477 C471 1.429 . S
C477 C478 1.523 . S
C478 C459 1.368 . S
C478 C472 1.368 . S
C478 C477 1.523 . S
C479 C463 1.429 . S
C479 C475 1.429 . S
C479 C480 1.523 . S
C480 C464 1.368 . S
C480 C476 1.368 . S
C480 C479 1.523 . S
H481 C456 0.950 . S
H482 C458 0.950 . S
H483 C459 0.949 . S
H484 C461 0.950 . S
H485 C463 0.950 . S
C486 C487 1.349 . S
C486 C488 1.327 . S
C486 H511 0.950 1_556 S
C487 C486 1.349 . S
C487 C503 1.349 . S
C488 C486 1.327 . S
C488 C507 1.429 1_655 S
C488 H512 0.950 1_556 S
C489 C506 1.574 . S
C489 C508 1.368 . S
C489 H513 0.949 . S
H490 C494 0.949 . S
C491 C492 1.349 1_556 S
C491 C493 1.327 . S
C491 H514 0.950 . S
C492 C491 1.349 1_554 S
C492 C504 1.349 . S
C493 C491 1.327 . S
C493 C509 1.476 . S
C493 H515 0.950 . S
C494 H490 0.949 . S
C494 C502 1.574 . S
C494 C510 1.368 1_554 S
H495 C503 0.950 . S
H496 C501 0.950 . S
H497 C502 0.949 . S
H498 C504 0.950 . S
H499 C505 0.950 . S
H500 C506 0.949 . S
C501 H496 0.950 . S
C501 C503 1.327 1_455 S
C501 C507 1.429 . S
C502 C494 1.574 . S
C502 H497 0.949 . S
C502 C508 1.368 1_554 S
C503 C487 1.349 . S
C503 H495 0.950 . S
C503 C501 1.327 1_655 S
C504 C492 1.349 . S
C504 H498 0.950 . S
C504 C505 1.327 . S
C505 H499 0.950 . S
C505 C504 1.327 . S
C505 C509 1.369 1_554 S
C506 C489 1.574 . S
C506 H500 0.949 . S
C506 C510 1.368 . S
C507 C488 1.429 1_455 S
C507 C501 1.429 . S
C507 C508 1.523 . S
C508 C489 1.368 . S
C508 C502 1.368 1_556 S
C508 C507 1.523 . S
C509 C493 1.476 . S
C509 C505 1.369 1_556 S
C509 C510 1.537 . S
C510 C494 1.368 1_556 S
C510 C506 1.368 . S
C510 C509 1.537 . S
H511 C486 0.950 1_554 S
H512 C488 0.950 1_554 S
H513 C489 0.949 . S
H514 C491 0.950 . S
H515 C493 0.950 . S
C516 C517 1.349 1_545 S
C516 C518 1.327 . S
C516 H541 0.950 . S
C517 C516 1.349 1_565 S
C517 C533 1.349 . S
C518 C516 1.327 . S
C518 C537 1.429 . S
C518 H542 0.950 . S
C519 C536 1.574 . S
C519 C538 1.368 . S
C519 H543 0.949 1_545 S
H520 C524 0.949 . S
C521 C522 1.349 . S
C521 C523 1.327 . S
C521 H544 0.950 . S
C522 C521 1.349 . S
C522 C534 1.349 . S
C523 C521 1.327 . S
C523 C539 1.429 . S
C523 H545 0.950 . S
C524 H520 0.949 . S
C524 C532 1.574 . S
C524 C540 1.368 . S
H525 C533 0.950 . S
H526 C531 0.950 . S
H527 C532 0.949 . S
H528 C534 0.950 . S
H529 C535 0.950 . S
H530 C536 0.949 . S
C531 H526 0.950 . S
C531 C533 1.327 . S
C531 C537 1.429 1_565 S
C532 C524 1.574 . S
C532 H527 0.949 . S
C532 C538 1.368 . S
C533 C517 1.349 . S
C533 H525 0.950 . S
C533 C531 1.327 . S
C534 C522 1.349 . S
C534 H528 0.950 . S
C534 C535 1.327 . S
C535 H529 0.950 . S
C535 C534 1.327 . S
C535 C539 1.429 . S
C536 C519 1.574 . S
C536 H530 0.949 . S
C536 C540 1.368 . S
C537 C518 1.429 . S
C537 C531 1.429 1_545 S
C537 C538 1.523 . S
C538 C519 1.368 . S
C538 C532 1.368 . S
C538 C537 1.523 . S
C539 C523 1.429 . S
C539 C535 1.429 . S
C539 C540 1.523 . S
C540 C524 1.368 . S
C540 C536 1.368 . S
C540 C539 1.523 . S
H541 C516 0.950 . S
H542 C518 0.950 . S
H543 C519 0.949 1_565 S
H544 C521 0.950 . S
H545 C523 0.950 . S
C546 C547 1.349 . S
C546 C548 1.327 . S
C546 H571 0.950 . S
C547 C546 1.349 . S
C547 C563 1.349 . S
C548 C546 1.327 . S
C548 C567 1.429 . S
C548 H572 0.950 . S
C549 C566 1.574 . S
C549 C568 1.368 . S
C549 H573 0.949 . S
H550 C554 0.949 . S
C551 C552 1.349 . S
C551 C553 1.327 . S
C551 H574 0.950 . S
C552 C551 1.349 . S
C552 C564 1.349 . S
C553 C551 1.327 . S
C553 C569 1.429 . S
C553 H575 0.950 . S
C554 H550 0.949 . S
C554 C562 1.574 . S
C554 C570 1.368 . S
H555 C563 0.950 . S
H556 C561 0.950 . S
H557 C562 0.949 . S
H558 C564 0.950 . S
H559 C565 0.950 . S
H560 C566 0.949 . S
C561 H556 0.950 . S
C561 C563 1.327 . S
C561 C567 1.429 . S
C562 C554 1.574 . S
C562 H557 0.949 . S
C562 C568 1.368 . S
C563 C547 1.349 . S
C563 H555 0.950 . S
C563 C561 1.327 . S
C564 C552 1.349 . S
C564 H558 0.950 . S
C564 C565 1.327 . S
C565 H559 0.950 . S
C565 C564 1.327 . S
C565 C569 1.429 . S
C566 C549 1.574 . S
C566 H560 0.949 . S
C566 C570 1.368 . S
C567 C548 1.429 . S
C567 C561 1.429 . S
C567 C568 1.523 . S
C568 C549 1.368 . S
C568 C562 1.368 . S
C568 C567 1.523 . S
C569 C553 1.429 . S
C569 C565 1.429 . S
C569 C570 1.523 . S
C570 C554 1.368 . S
C570 C566 1.368 . S
C570 C569 1.523 . S
H571 C546 0.950 . S
H572 C548 0.950 . S
H573 C549 0.949 . S
H574 C551 0.950 . S
H575 C553 0.950 . S
C576 C577 1.349 . S
C576 C578 1.327 . S
C576 H601 0.950 . S
C577 C576 1.349 . S
C577 C593 1.349 . S
C578 C576 1.327 . S
C578 C597 1.429 1_455 S
C578 H602 0.947 1_455 S
C579 C596 1.574 . S
C579 C598 1.368 . S
C579 H603 0.949 . S
H580 C584 0.949 . S
C581 C582 1.349 . S
C581 C583 1.327 . S
C581 H604 0.950 . S
C582 C581 1.349 . S
C582 C594 1.349 . S
C583 C581 1.327 . S
C583 C599 1.429 . S
C583 H605 0.950 . S
C584 H580 0.949 . S
C584 C592 1.574 . S
C584 C600 1.368 . S
H585 C593 0.950 . S
H586 C591 0.950 1_655 S
H587 C592 0.949 . S
H588 C594 0.950 . S
H589 C595 0.950 . S
H590 C596 0.949 . S
C591 H586 0.950 1_455 S
C591 C593 1.327 . S
C591 C597 1.429 1_455 S
C592 C584 1.574 . S
C592 H587 0.949 . S
C592 C598 1.368 . S
C593 C577 1.349 . S
C593 H585 0.950 . S
C593 C591 1.327 . S
C594 C582 1.349 . S
C594 H588 0.950 . S
C594 C595 1.327 . S
C595 H589 0.950 . S
C595 C594 1.327 . S
C595 C599 1.429 . S
C596 C579 1.574 . S
C596 H590 0.949 . S
C596 C600 1.368 . S
C597 C578 1.429 1_655 S
C597 C591 1.429 1_655 S
C597 C598 1.523 . S
C598 C579 1.368 . S
C598 C592 1.368 . S
C598 C597 1.523 . S
C599 C583 1.429 . S
C599 C595 1.429 . S
C599 C600 1.523 . S
C600 C584 1.368 . S
C600 C596 1.368 . S
C600 C599 1.523 . S
H601 C576 0.950 . S
H602 C578 0.947 1_655 S
H603 C579 0.949 . S
H604 C581 0.950 . S
H605 C583 0.950 . S
C606 C607 1.349 . S
C606 C608 1.327 . S
C606 H631 0.950 . S
C607 C606 1.349 . S
C607 C623 1.349 . S
C608 C606 1.327 . S
C608 C627 1.429 1_545 S
C608 H632 0.950 . S
C609 C626 1.574 . S
C609 C628 1.368 . S
C609 H633 0.949 . S
H610 C614 0.949 . S
C611 C612 1.349 . S
C611 C613 1.327 . S
C611 H634 0.950 . S
C612 C611 1.349 . S
C612 C624 1.349 . S
C613 C611 1.327 . S
C613 C629 1.429 . S
C613 H635 0.950 . S
C614 H610 0.949 . S
C614 C622 1.574 . S
C614 C630 1.368 . S
H615 C623 0.950 1_565 S
H616 C621 0.950 . S
H617 C622 0.949 1_545 S
H618 C624 0.950 . S
H619 C625 0.950 . S
H620 C626 0.949 . S
C621 H616 0.950 . S
C621 C623 1.327 1_565 S
C621 C627 1.429 . S
C622 C614 1.574 . S
C622 H617 0.949 1_565 S
C622 C628 1.368 . S
C623 C607 1.349 . S
C623 H615 0.950 1_545 S
C623 C621 1.327 1_545 S
C624 C612 1.349 . S
C624 H618 0.950 . S
C624 C625 1.327 . S
C625 H619 0.950 . S
C625 C624 1.327 . S
C625 C629 1.429 . S
C626 C609 1.574 . S
C626 H620 0.949 . S
C626 C630 1.368 . S
C627 C608 1.429 1_565 S
C627 C621 1.429 . S
C627 C628 1.523 . S
C628 C609 1.368 . S
C628 C622 1.368 . S
C628 C627 1.523 . S
C629 C613 1.429 . S
C629 C625 1.429 . S
C629 C630 1.523 . S
C630 C614 1.368 . S
C630 C626 1.368 . S
C630 C629 1.523 . S
H631 C606 0.950 . S
H632 C608 0.950 . S
H633 C609 0.949 . S
H634 C611 0.950 . S
H635 C613 0.950 . S
C636 C637 1.349 . S
C636 C638 1.327 . S
C636 H661 0.950 . S
C637 C636 1.349 . S
C637 C653 1.349 . S
C638 C636 1.327 . S
C638 C657 1.429 . S
C638 H662 0.950 . S
C639 C656 1.574 . S
C639 C658 1.368 . S
C639 H663 0.949 . S
H640 C644 0.949 . S
C641 C642 1.349 . S
C641 C643 1.327 . S
C641 H664 0.950 . S
C642 C641 1.349 . S
C642 C654 1.349 . S
C643 C641 1.327 . S
C643 C659 1.429 . S
C643 H665 0.950 . S
C644 H640 0.949 . S
C644 C652 1.574 . S
C644 C660 1.368 . S
H645 C653 0.950 . S
H646 C651 0.950 . S
H647 C652 0.949 . S
H648 C654 0.950 . S
H649 C655 0.950 . S
H650 C656 0.949 . S
C651 H646 0.950 . S
C651 C653 1.327 . S
C651 C657 1.429 . S
C652 C644 1.574 . S
C652 H647 0.949 . S
C652 C658 1.368 . S
C653 C637 1.349 . S
C653 H645 0.950 . S
C653 C651 1.327 . S
C654 C642 1.349 . S
C654 H648 0.950 . S
C654 C655 1.327 . S
C655 H649 0.950 . S
C655 C654 1.327 . S
C655 C659 1.429 . S
C656 C639 1.574 . S
C656 H650 0.949 . S
C656 C660 1.368 . S
C657 C638 1.429 . S
C657 C651 1.429 . S
C657 C658 1.523 . S
C658 C639 1.368 . S
C658 C652 1.368 . S
C658 C657 1.523 . S
C659 C643 1.429 . S
C659 C655 1.429 . S
C659 C660 1.523 . S
C660 C644 1.368 . S
C660 C656 1.368 . S
C660 C659 1.523 . S
H661 C636 0.950 . S
H662 C638 0.950 . S
H663 C639 0.949 . S
H664 C641 0.950 . S
H665 C643 0.950 . S
C666 C667 1.349 . S
C666 C668 1.327 . S
C666 H691 0.950 . S
C667 C666 1.349 . S
C667 C683 1.349 1_455 S
C668 C666 1.327 . S
C668 C687 1.429 . S
C668 H692 0.950 . S
C669 C686 1.574 . S
C669 C688 1.368 . S
C669 H693 0.949 . S
H670 C674 0.949 . S
C671 C672 1.349 . S
C671 C673 1.327 . S
C671 H694 0.950 . S
C672 C671 1.349 . S
C672 C684 1.349 . S
C673 C671 1.327 . S
C673 C689 1.429 . S
C673 H695 0.950 . S
C674 H670 0.949 . S
C674 C682 1.574 . S
C674 C690 1.368 . S
H675 C683 0.950 . S
H676 C681 0.950 1_655 S
H677 C682 0.949 . S
H678 C684 0.950 . S
H679 C685 0.950 . S
H680 C686 0.949 . S
C681 H676 0.950 1_455 S
C681 C683 1.327 1_455 S
C681 C687 1.429 . S
C682 C674 1.574 . S
C682 H677 0.949 . S
C682 C688 1.368 . S
C683 C667 1.349 1_655 S
C683 H675 0.950 . S
C683 C681 1.327 1_655 S
C684 C672 1.349 . S
C684 H678 0.950 . S
C684 C685 1.327 . S
C685 H679 0.950 . S
C685 C684 1.327 . S
C685 C689 1.429 . S
C686 C669 1.574 . S
C686 H680 0.949 . S
C686 C690 1.368 . S
C687 C668 1.429 . S
C687 C681 1.429 . S
C687 C688 1.523 . S
C688 C669 1.368 . S
C688 C682 1.368 . S
C688 C687 1.523 . S
C689 C673 1.429 . S
C689 C685 1.429 . S
C689 C690 1.523 . S
C690 C674 1.368 . S
C690 C686 1.368 . S
C690 C689 1.523 . S
H691 C666 0.950 . S
H692 C668 0.950 . S
H693 C669 0.949 . S
H694 C671 0.950 . S
H695 C673 0.950 . S
C696 C697 1.349 . S
C696 C698 1.327 . S
C696 H721 0.950 . S
C697 C696 1.349 . S
C697 C713 1.349 . S
C698 C696 1.327 . S
C698 C717 1.429 . S
C698 H722 0.950 . S
C699 C716 1.574 . S
C699 C718 1.368 . S
C699 H723 0.949 . S
H700 C704 0.949 . S
C701 C702 1.349 . S
C701 C703 1.327 . S
C701 H724 0.950 . S
C702 C701 1.349 . S
C702 C714 1.349 1_545 S
C703 C701 1.327 . S
C703 C719 1.429 . S
C703 H725 0.950 . S
C704 H700 0.949 . S
C704 C712 1.574 . S
C704 C720 1.368 . S
H705 C713 0.950 . S
H706 C711 0.950 . S
H707 C712 0.949 . S
H708 C714 0.950 . S
H709 C715 0.950 1_565 S
H710 C716 0.949 . S
C711 H706 0.950 . S
C711 C713 1.327 . S
C711 C717 1.429 . S
C712 C704 1.574 . S
C712 H707 0.949 . S
C712 C718 1.368 . S
C713 C697 1.349 . S
C713 H705 0.950 . S
C713 C711 1.327 . S
C714 C702 1.349 1_565 S
C714 H708 0.950 . S
C714 C715 1.327 1_565 S
C715 H709 0.950 1_545 S
C715 C714 1.327 1_545 S
C715 C719 1.429 . S
C716 C699 1.574 . S
C716 H710 0.949 . S
C716 C720 1.368 . S
C717 C698 1.429 . S
C717 C711 1.429 . S
C717 C718 1.523 . S
C718 C699 1.368 . S
C718 C712 1.368 . S
C718 C717 1.523 . S
C719 C703 1.429 . S
C719 C715 1.429 . S
C719 C720 1.523 . S
C720 C704 1.368 . S
C720 C716 1.368 . S
C720 C719 1.523 . S
H721 C696 0.950 . S
H722 C698 0.950 . S
H723 C699 0.949 . S
H724 C701 0.950 . S
H725 C703 0.950 . S
C726 C727 1.349 . S
C726 C728 1.327 . S
C726 H751 0.950 . S
C727 C726 1.349 . S
C727 C743 1.349 . S
C728 C726 1.327 . S
C728 C747 1.429 . S
C728 H752 0.950 . S
C729 C746 1.574 . S
C729 C748 1.368 . S
C729 H753 0.949 . S
H730 C734 0.949 . S
C731 C732 1.349 . S
C731 C733 1.327 . S
C731 H754 0.950 . S
C732 C731 1.349 . S
C732 C744 1.349 . S
C733 C731 1.327 . S
C733 C749 1.429 . S
C733 H755 0.950 . S
C734 H730 0.949 . S
C734 C742 1.574 . S
C734 C750 1.368 . S
H735 C743 0.950 . S
H736 C741 0.950 . S
H737 C742 0.949 . S
H738 C744 0.950 . S
H739 C745 0.950 . S
H740 C746 0.949 . S
C741 H736 0.950 . S
C741 C743 1.327 . S
C741 C747 1.429 . S
C742 C734 1.574 . S
C742 H737 0.949 . S
C742 C748 1.368 . S
C743 C727 1.349 . S
C743 H735 0.950 . S
C743 C741 1.327 . S
C744 C732 1.349 . S
C744 H738 0.950 . S
C744 C745 1.327 . S
C745 H739 0.950 . S
C745 C744 1.327 . S
C745 C749 1.429 . S
C746 C729 1.574 . S
C746 H740 0.949 . S
C746 C750 1.368 . S
C747 C728 1.429 . S
C747 C741 1.429 . S
C747 C748 1.523 . S
C748 C729 1.368 . S
C748 C742 1.368 . S
C748 C747 1.523 . S
C749 C733 1.429 . S
C749 C745 1.429 . S
C749 C750 1.523 . S
C750 C734 1.368 . S
C750 C746 1.368 . S
C750 C749 1.523 . S
H751 C726 0.950 . S
H752 C728 0.950 . S
H753 C729 0.949 . S
H754 C731 0.950 . S
H755 C733 0.950 . S
C756 C757 1.349 . S
C756 C758 1.327 . S
C756 H781 0.950 . S
C757 C756 1.349 . S
C757 C773 1.349 . S
C758 C756 1.327 . S
C758 C777 1.429 . S
C758 H782 0.950 . S
C759 C776 1.574 . S
C759 C778 1.368 . S
C759 H783 0.949 . S
H760 C764 0.949 . S
C761 C762 1.349 . S
C761 C763 1.327 . S
C761 H784 0.950 . S
C762 C761 1.349 . S
C762 C774 1.349 . S
C763 C761 1.327 . S
C763 C779 1.429 . S
C763 H785 0.950 . S
C764 H760 0.949 . S
C764 C772 1.574 . S
C764 C780 1.368 . S
H765 C773 0.950 . S
H766 C771 0.950 . S
H767 C772 0.949 . S
H768 C774 0.950 1_455 S
H769 C775 0.950 . S
H770 C776 0.949 . S
C771 H766 0.950 . S
C771 C773 1.327 . S
C771 C777 1.429 . S
C772 C764 1.574 . S
C772 H767 0.949 . S
C772 C778 1.368 . S
C773 C757 1.349 . S
C773 H765 0.950 . S
C773 C771 1.327 . S
C774 C762 1.349 . S
C774 H768 0.950 1_655 S
C774 C775 1.327 . S
C775 H769 0.950 . S
C775 C774 1.327 . S
C775 C779 1.429 . S
C776 C759 1.574 . S
C776 H770 0.949 . S
C776 C780 1.368 . S
C777 C758 1.429 . S
C777 C771 1.429 . S
C777 C778 1.523 . S
C778 C759 1.368 . S
C778 C772 1.368 . S
C778 C777 1.523 . S
C779 C763 1.429 . S
C779 C775 1.429 . S
C779 C780 1.523 . S
C780 C764 1.368 . S
C780 C776 1.368 . S
C780 C779 1.523 . S
H781 C756 0.950 . S
H782 C758 0.950 . S
H783 C759 0.949 . S
H784 C761 0.950 . S
H785 C763 0.950 . S
C786 C787 1.349 1_545 S
C786 C788 1.327 1_545 S
C786 H811 0.950 . S
C787 C786 1.349 1_565 S
C787 C803 1.349 . S
C788 C786 1.327 1_565 S
C788 C807 1.429 . S
C788 H812 0.950 1_565 S
C789 C806 1.574 . S
C789 C808 1.368 . S
C789 H813 0.949 . S
H790 C794 0.949 . S
C791 C792 1.349 . S
C791 C793 1.327 . S
C791 H814 0.950 . S
C792 C791 1.349 . S
C792 C804 1.349 . S
C793 C791 1.327 . S
C793 C809 1.429 . S
C793 H815 0.950 . S
C794 H790 0.949 . S
C794 C802 1.574 . S
C794 C810 1.368 . S
H795 C803 0.950 . S
H796 C801 0.950 . S
H797 C802 0.949 . S
H798 C804 0.950 . S
H799 C805 0.950 . S
H800 C806 0.949 . S
C801 H796 0.950 . S
C801 C803 1.327 . S
C801 C807 1.429 . S
C802 C794 1.574 . S
C802 H797 0.949 . S
C802 C808 1.368 . S
C803 C787 1.349 . S
C803 H795 0.950 . S
C803 C801 1.327 . S
C804 C792 1.349 . S
C804 H798 0.950 . S
C804 C805 1.327 . S
C805 H799 0.950 . S
C805 C804 1.327 . S
C805 C809 1.429 . S
C806 C789 1.574 . S
C806 H800 0.949 . S
C806 C810 1.368 . S
C807 C788 1.429 . S
C807 C801 1.429 . S
C807 C808 1.523 . S
C808 C789 1.368 . S
C808 C802 1.368 . S
C808 C807 1.523 . S
C809 C793 1.429 . S
C809 C805 1.429 . S
C809 C810 1.523 . S
C810 C794 1.368 . S
C810 C806 1.368 . S
C810 C809 1.523 . S
H811 C786 0.950 . S
H812 C788 0.950 1_545 S
H813 C789 0.949 . S
H814 C791 0.950 . S
H815 C793 0.950 . S
C816 C817 1.349 . S
C816 C818 1.327 . S
C816 H841 0.950 . S
C817 C816 1.349 . S
C817 C833 1.349 . S
C818 C816 1.327 . S
C818 C837 1.429 . S
C818 H842 0.950 . S
C819 C836 1.574 . S
C819 C838 1.368 . S
C819 H843 0.949 . S
H820 C824 0.949 . S
C821 C822 1.349 . S
C821 C823 1.327 . S
C821 H844 0.950 . S
C822 C821 1.349 . S
C822 C834 1.349 . S
C823 C821 1.327 . S
C823 C839 1.429 . S
C823 H845 0.950 . S
C824 H820 0.949 . S
C824 C832 1.574 . S
C824 C840 1.368 . S
H825 C833 0.950 . S
H826 C831 0.950 . S
H827 C832 0.949 . S
H828 C834 0.950 . S
H829 C835 0.950 . S
H830 C836 0.949 . S
C831 H826 0.950 . S
C831 C833 1.327 . S
C831 C837 1.429 . S
C832 C824 1.574 . S
C832 H827 0.949 . S
C832 C838 1.368 . S
C833 C817 1.349 . S
C833 H825 0.950 . S
C833 C831 1.327 . S
C834 C822 1.349 . S
C834 H828 0.950 . S
C834 C835 1.327 . S
C835 H829 0.950 . S
C835 C834 1.327 . S
C835 C839 1.429 . S
C836 C819 1.574 . S
C836 H830 0.949 . S
C836 C840 1.368 . S
C837 C818 1.429 . S
C837 C831 1.429 . S
C837 C838 1.523 . S
C838 C819 1.368 . S
C838 C832 1.368 . S
C838 C837 1.523 . S
C839 C823 1.429 . S
C839 C835 1.429 . S
C839 C840 1.523 . S
C840 C824 1.368 . S
C840 C836 1.368 . S
C840 C839 1.523 . S
H841 C816 0.950 . S
H842 C818 0.950 . S
H843 C819 0.949 . S
H844 C821 0.950 . S
H845 C823 0.950 . S
C846 C847 1.349 . S
C846 C848 1.327 . S
C846 H871 0.950 . S
C847 C846 1.349 . S
C847 C863 1.349 . S
C848 C846 1.327 . S
C848 C867 1.429 . S
C848 H872 0.950 . S
C849 C866 1.574 . S
C849 C868 1.368 . S
C849 H873 0.949 . S
H850 C854 0.949 . S
C851 C852 1.349 . S
C851 C853 1.327 . S
C851 H874 0.950 . S
C852 C851 1.349 . S
C852 C864 1.349 . S
C853 C851 1.327 . S
C853 C869 1.429 . S
C853 H875 0.950 . S
C854 H850 0.949 . S
C854 C862 1.574 . S
C854 C870 1.368 . S
H855 C863 0.950 1_655 S
H856 C861 0.950 . S
H857 C862 0.949 . S
H858 C864 0.950 . S
H859 C865 0.950 . S
H860 C866 0.949 . S
C861 H856 0.950 . S
C861 C863 1.327 . S
C861 C867 1.429 . S
C862 C854 1.574 . S
C862 H857 0.949 . S
C862 C868 1.368 . S
C863 C847 1.349 . S
C863 H855 0.950 1_455 S
C863 C861 1.327 . S
C864 C852 1.349 . S
C864 H858 0.950 . S
C864 C865 1.327 . S
C865 H859 0.950 . S
C865 C864 1.327 . S
C865 C869 1.429 . S
C866 C849 1.574 . S
C866 H860 0.949 . S
C866 C870 1.368 . S
C867 C848 1.429 . S
C867 C861 1.429 . S
C867 C868 1.523 . S
C868 C849 1.368 . S
C868 C862 1.368 . S
C868 C867 1.523 . S
C869 C853 1.429 . S
C869 C865 1.429 . S
C869 C870 1.523 . S
C870 C854 1.368 . S
C870 C866 1.368 . S
C870 C869 1.523 . S
H871 C846 0.950 . S
H872 C848 0.950 . S
H873 C849 0.949 . S
H874 C851 0.950 . S
H875 C853 0.950 . S
C876 C877 1.349 1_565 S
C876 C878 1.327 1_565 S
C876 H901 0.950 . S
C877 C876 1.349 1_545 S
C877 C893 1.349 . S
C878 C876 1.327 1_545 S
C878 C897 1.429 . S
C878 H902 0.950 1_545 S
C879 C896 1.574 . S
C879 C898 1.368 . S
C879 H903 0.949 . S
H880 C884 0.949 . S
C881 C882 1.349 . S
C881 C883 1.327 . S
C881 H904 0.950 . S
C882 C881 1.349 . S
C882 C894 1.349 . S
C883 C881 1.327 . S
C883 C899 1.429 . S
C883 H905 0.950 . S
C884 H880 0.949 . S
C884 C892 1.574 . S
C884 C900 1.368 . S
H885 C893 0.950 . S
H886 C891 0.950 . S
H887 C892 0.949 . S
H888 C894 0.950 . S
H889 C895 0.950 . S
H890 C896 0.949 . S
C891 H886 0.950 . S
C891 C893 1.327 . S
C891 C897 1.429 . S
C892 C884 1.574 . S
C892 H887 0.949 . S
C892 C898 1.368 . S
C893 C877 1.349 . S
C893 H885 0.950 . S
C893 C891 1.327 . S
C894 C882 1.349 . S
C894 H888 0.950 . S
C894 C895 1.327 . S
C895 H889 0.950 . S
C895 C894 1.327 . S
C895 C899 1.429 . S
C896 C879 1.574 . S
C896 H890 0.949 . S
C896 C900 1.368 . S
C897 C878 1.429 . S
C897 C891 1.429 . S
C897 C898 1.523 . S
C898 C879 1.368 . S
C898 C892 1.368 . S
C898 C897 1.523 . S
C899 C883 1.429 . S
C899 C895 1.429 . S
C899 C900 1.523 . S
C900 C884 1.368 . S
C900 C896 1.368 . S
C900 C899 1.523 . S
H901 C876 0.950 . S
H902 C878 0.950 1_565 S
H903 C879 0.949 . S
H904 C881 0.950 . S
H905 C883 0.950 . S
C906 C907 1.349 . S
C906 C908 1.327 . S
C906 H931 0.950 . S
C907 C906 1.349 . S
C907 C923 1.349 . S
C908 C906 1.327 . S
C908 C927 1.429 . S
C908 H932 0.950 . S
C909 C926 1.574 . S
C909 C928 1.368 . S
C909 H933 0.949 . S
H910 C914 0.949 . S
C911 C912 1.349 . S
C911 C913 1.327 . S
C911 H934 0.950 . S
C912 C911 1.349 . S
C912 C924 1.349 . S
C913 C911 1.327 . S
C913 C929 1.429 . S
C913 H935 0.950 . S
C914 H910 0.949 . S
C914 C922 1.574 . S
C914 C930 1.368 . S
H915 C923 0.950 . S
H916 C921 0.950 . S
H917 C922 0.949 . S
H918 C924 0.950 . S
H919 C925 0.950 . S
H920 C926 0.949 . S
C921 H916 0.950 . S
C921 C923 1.327 . S
C921 C927 1.429 . S
C922 C914 1.574 . S
C922 H917 0.949 . S
C922 C928 1.368 . S
C923 C907 1.349 . S
C923 H915 0.950 . S
C923 C921 1.327 . S
C924 C912 1.349 . S
C924 H918 0.950 . S
C924 C925 1.327 . S
C925 H919 0.950 . S
C925 C924 1.327 . S
C925 C929 1.429 . S
C926 C909 1.574 . S
C926 H920 0.949 . S
C926 C930 1.368 . S
C927 C908 1.429 . S
C927 C921 1.429 . S
C927 C928 1.523 . S
C928 C909 1.368 . S
C928 C922 1.368 . S
C928 C927 1.523 . S
C929 C913 1.429 . S
C929 C925 1.429 . S
C929 C930 1.523 . S
C930 C914 1.368 . S
C930 C926 1.368 . S
C930 C929 1.523 . S
H931 C906 0.950 . S
H932 C908 0.950 . S
H933 C909 0.949 . S
H934 C911 0.950 . S
H935 C913 0.950 . S
C936 C937 1.349 . S
C936 C938 1.327 . S
C936 H961 0.950 . S
C937 C936 1.349 . S
C937 C953 1.349 . S
C938 C936 1.327 . S
C938 C957 1.429 . S
C938 H962 0.950 . S
C939 C956 1.574 . S
C939 C958 1.368 . S
C939 H963 0.949 . S
H940 C944 0.949 . S
C941 C942 1.349 . S
C941 C943 1.327 . S
C941 H964 0.950 . S
C942 C941 1.349 . S
C942 C954 1.349 . S
C943 C941 1.327 . S
C943 C959 1.429 . S
C943 H965 0.950 . S
C944 H940 0.949 . S
C944 C952 1.574 . S
C944 C960 1.368 . S
H945 C953 0.950 . S
H946 C951 0.950 . S
H947 C952 0.949 . S
H948 C954 0.950 . S
H949 C955 0.950 . S
H950 C956 0.949 . S
C951 H946 0.950 . S
C951 C953 1.327 . S
C951 C957 1.429 . S
C952 C944 1.574 . S
C952 H947 0.949 . S
C952 C958 1.368 . S
C953 C937 1.349 . S
C953 H945 0.950 . S
C953 C951 1.327 . S
C954 C942 1.349 . S
C954 H948 0.950 . S
C954 C955 1.327 . S
C955 H949 0.950 . S
C955 C954 1.327 . S
C955 C959 1.429 . S
C956 C939 1.574 . S
C956 H950 0.949 . S
C956 C960 1.368 . S
C957 C938 1.429 . S
C957 C951 1.429 . S
C957 C958 1.523 . S
C958 C939 1.368 . S
C958 C952 1.368 . S
C958 C957 1.523 . S
C959 C943 1.429 . S
C959 C955 1.429 . S
C959 C960 1.523 . S
C960 C944 1.368 . S
C960 C956 1.368 . S
C960 C959 1.523 . S
H961 C936 0.950 . S
H962 C938 0.950 . S
H963 C939 0.949 . S
H964 C941 0.950 . S
H965 C943 0.950 . S
C966 C967 1.349 . S
C966 C968 1.327 . S
C966 H991 0.950 . S
C967 C966 1.349 . S
C967 C983 1.349 . S
C968 C966 1.327 . S
C968 C987 1.429 . S
C968 H992 0.950 . S
C969 C986 1.574 . S
C969 C988 1.368 . S
C969 H993 0.949 . S
H970 C974 0.949 . S
C971 C972 1.349 1_545 S
C971 C973 1.327 . S
C971 H994 0.950 . S
C972 C971 1.349 1_565 S
C972 C984 1.349 . S
C973 C971 1.327 . S
C973 C989 1.429 1_545 S
C973 H995 0.950 . S
C974 H970 0.949 . S
C974 C982 1.574 . S
C974 C990 1.368 . S
H975 C983 0.950 . S
H976 C981 0.950 . S
H977 C982 0.949 . S
H978 C984 0.950 . S
H979 C985 0.950 . S
H980 C986 0.949 . S
C981 H976 0.950 . S
C981 C983 1.327 . S
C981 C987 1.429 . S
C982 C974 1.574 . S
C982 H977 0.949 . S
C982 C988 1.368 . S
C983 C967 1.349 . S
C983 H975 0.950 . S
C983 C981 1.327 . S
C984 C972 1.349 . S
C984 H978 0.950 . S
C984 C985 1.327 . S
C985 H979 0.950 . S
C985 C984 1.327 . S
C985 C989 1.429 . S
C986 C969 1.574 . S
C986 H980 0.949 . S
C986 C990 1.368 . S
C987 C968 1.429 . S
C987 C981 1.429 . S
C987 C988 1.523 . S
C988 C969 1.368 . S
C988 C982 1.368 . S
C988 C987 1.523 . S
C989 C973 1.429 1_565 S
C989 C985 1.429 . S
C989 C990 1.523 . S
C990 C974 1.368 . S
C990 C986 1.368 . S
C990 C989 1.523 . S
H991 C966 0.950 . S
H992 C968 0.950 . S
H993 C969 0.949 . S
H994 C971 0.950 . S
H995 C973 0.950 . S
C996 C997 1.349 . S
C996 C998 1.327 . S
C996 H1021 0.950 . S
C997 C996 1.349 . S
C997 C1013 1.349 . S
C998 C996 1.327 . S
C998 C1017 1.429 . S
C998 H1022 0.950 . S
C999 C1016 1.574 . S
C999 C1018 1.368 . S
C999 H1023 0.949 . S
H1000 C1004 0.949 . S
C1001 C1002 1.349 . S
C1001 C1003 1.327 . S
C1001 H1024 0.950 . S
C1002 C1001 1.349 . S
C1002 C1014 1.349 . S
C1003 C1001 1.327 . S
C1003 C1019 1.429 . S
C1003 H1025 0.950 . S
C1004 H1000 0.949 . S
C1004 C1012 1.574 . S
C1004 C1020 1.368 . S
H1005 C1013 0.950 1_565 S
H1006 C1011 0.950 . S
H1007 C1012 0.949 . S
H1008 C1014 0.950 . S
H1009 C1015 0.950 . S
H1010 C1016 0.949 . S
C1011 H1006 0.950 . S
C1011 C1013 1.327 . S
C1011 C1017 1.429 . S
C1012 C1004 1.574 . S
C1012 H1007 0.949 . S
C1012 C1018 1.368 . S
C1013 C997 1.349 . S
C1013 H1005 0.950 1_545 S
C1013 C1011 1.327 . S
C1014 C1002 1.349 . S
C1014 H1008 0.950 . S
C1014 C1015 1.327 . S
C1015 H1009 0.950 . S
C1015 C1014 1.327 . S
C1015 C1019 1.429 . S
C1016 C999 1.574 . S
C1016 H1010 0.949 . S
C1016 C1020 1.368 . S
C1017 C998 1.429 . S
C1017 C1011 1.429 . S
C1017 C1018 1.523 . S
C1018 C999 1.368 . S
C1018 C1012 1.368 . S
C1018 C1017 1.523 . S
C1019 C1003 1.429 . S
C1019 C1015 1.429 . S
C1019 C1020 1.523 . S
C1020 C1004 1.368 . S
C1020 C1016 1.368 . S
C1020 C1019 1.523 . S
H1021 C996 0.950 . S
H1022 C998 0.950 . S
H1023 C999 0.949 . S
H1024 C1001 0.950 . S
H1025 C1003 0.950 . S
C1026 C1027 1.349 . S
C1026 C1028 1.327 . S
C1026 H1051 0.950 . S
C1027 C1026 1.349 . S
C1027 C1043 1.349 . S
C1028 C1026 1.327 . S
C1028 C1047 1.429 . S
C1028 H1052 0.950 . S
C1029 C1046 1.574 . S
C1029 C1048 1.368 . S
C1029 H1053 0.949 . S
H1030 C1034 0.949 . S
C1031 C1032 1.349 . S
C1031 C1033 1.327 . S
C1031 H1054 0.950 . S
C1032 C1031 1.349 . S
C1032 C1044 1.349 . S
C1033 C1031 1.327 . S
C1033 C1049 1.429 . S
C1033 H1055 0.950 . S
C1034 H1030 0.949 . S
C1034 C1042 1.574 . S
C1034 C1050 1.368 . S
H1035 C1043 0.950 . S
H1036 C1041 0.950 . S
H1037 C1042 0.949 . S
H1038 C1044 0.950 . S
H1039 C1045 0.950 . S
H1040 C1046 0.949 . S
C1041 H1036 0.950 . S
C1041 C1043 1.327 . S
C1041 C1047 1.429 . S
C1042 C1034 1.574 . S
C1042 H1037 0.949 . S
C1042 C1048 1.368 . S
C1043 C1027 1.349 . S
C1043 H1035 0.950 . S
C1043 C1041 1.327 . S
C1044 C1032 1.349 . S
C1044 H1038 0.950 . S
C1044 C1045 1.327 . S
C1045 H1039 0.950 . S
C1045 C1044 1.327 . S
C1045 C1049 1.429 . S
C1046 C1029 1.574 . S
C1046 H1040 0.949 . S
C1046 C1050 1.368 . S
C1047 C1028 1.429 . S
C1047 C1041 1.429 . S
C1047 C1048 1.523 . S
C1048 C1029 1.368 . S
C1048 C1042 1.368 . S
C1048 C1047 1.523 . S
C1049 C1033 1.429 . S
C1049 C1045 1.429 . S
C1049 C1050 1.523 . S
C1050 C1034 1.368 . S
C1050 C1046 1.368 . S
C1050 C1049 1.523 . S
H1051 C1026 0.950 . S
H1052 C1028 0.950 . S
H1053 C1029 0.949 . S
H1054 C1031 0.950 . S
H1055 C1033 0.950 . S
C1056 C1057 1.349 . S
C1056 C1058 1.327 . S
C1056 H1081 0.950 . S
C1057 C1056 1.349 . S
C1057 C1073 1.349 . S
C1058 C1056 1.327 . S
C1058 C1077 1.429 . S
C1058 H1082 0.950 . S
C1059 C1076 1.574 . S
C1059 C1078 1.368 . S
C1059 H1083 0.949 . S
H1060 C1064 0.949 . S
C1061 C1062 1.349 . S
C1061 C1063 1.327 . S
C1061 H1084 0.950 . S
C1062 C1061 1.349 . S
C1062 C1074 1.349 . S
C1063 C1061 1.327 . S
C1063 C1079 1.429 . S
C1063 H1085 0.950 . S
C1064 H1060 0.949 . S
C1064 C1072 1.574 . S
C1064 C1080 1.368 . S
H1065 C1073 0.950 . S
H1066 C1071 0.950 . S
H1067 C1072 0.949 . S
H1068 C1074 0.950 1_455 S
H1069 C1075 0.950 . S
H1070 C1076 0.949 . S
C1071 H1066 0.950 . S
C1071 C1073 1.327 . S
C1071 C1077 1.429 . S
C1072 C1064 1.574 . S
C1072 H1067 0.949 . S
C1072 C1078 1.368 . S
C1073 C1057 1.349 . S
C1073 H1065 0.950 . S
C1073 C1071 1.327 . S
C1074 C1062 1.349 . S
C1074 H1068 0.950 1_655 S
C1074 C1075 1.327 . S
C1075 H1069 0.950 . S
C1075 C1074 1.327 . S
C1075 C1079 1.429 . S
C1076 C1059 1.574 . S
C1076 H1070 0.949 . S
C1076 C1080 1.368 . S
C1077 C1058 1.429 . S
C1077 C1071 1.429 . S
C1077 C1078 1.523 . S
C1078 C1059 1.368 . S
C1078 C1072 1.368 . S
C1078 C1077 1.523 . S
C1079 C1063 1.429 . S
C1079 C1075 1.429 . S
C1079 C1080 1.523 . S
C1080 C1064 1.368 . S
C1080 C1076 1.368 . S
C1080 C1079 1.523 . S
H1081 C1056 0.950 . S
H1082 C1058 0.950 . S
H1083 C1059 0.949 . S
H1084 C1061 0.950 . S
H1085 C1063 0.950 . S
C1086 C1087 1.349 . S
C1086 C1088 1.327 . S
C1086 H1111 0.950 . S
C1087 C1086 1.349 . S
C1087 C1103 1.349 . S
C1088 C1086 1.327 . S
C1088 C1107 1.429 . S
C1088 H1112 0.950 . S
C1089 C1106 1.574 . S
C1089 C1108 1.368 . S
C1089 H1113 0.949 . S
H1090 C1094 0.949 . S
C1091 C1092 1.349 . S
C1091 C1093 1.327 . S
C1091 H1114 0.950 . S
C1092 C1091 1.349 . S
C1092 C1104 1.349 . S
C1093 C1091 1.327 . S
C1093 C1109 1.429 . S
C1093 H1115 0.950 . S
C1094 H1090 0.949 . S
C1094 C1102 1.574 . S
C1094 C1110 1.368 . S
H1095 C1103 0.950 . S
H1096 C1101 0.950 . S
H1097 C1102 0.949 . S
H1098 C1104 0.950 . S
H1099 C1105 0.950 . S
H1100 C1106 0.949 . S
C1101 H1096 0.950 . S
C1101 C1103 1.327 . S
C1101 C1107 1.429 . S
C1102 C1094 1.574 . S
C1102 H1097 0.949 . S
C1102 C1108 1.368 . S
C1103 C1087 1.349 . S
C1103 H1095 0.950 . S
C1103 C1101 1.327 . S
C1104 C1092 1.349 . S
C1104 H1098 0.950 . S
C1104 C1105 1.327 . S
C1105 H1099 0.950 . S
C1105 C1104 1.327 . S
C1105 C1109 1.429 . S
C1106 C1089 1.574 . S
C1106 H1100 0.949 . S
C1106 C1110 1.368 . S
C1107 C1088 1.429 . S
C1107 C1101 1.429 . S
C1107 C1108 1.523 . S
C1108 C1089 1.368 . S
C1108 C1102 1.368 . S
C1108 C1107 1.523 . S
C1109 C1093 1.429 . S
C1109 C1105 1.429 . S
C1109 C1110 1.523 . S
C1110 C1094 1.368 . S
C1110 C1106 1.368 . S
C1110 C1109 1.523 . S
H1111 C1086 0.950 . S
H1112 C1088 0.950 . S
H1113 C1089 0.949 . S
H1114 C1091 0.950 . S
H1115 C1093 0.950 . S
C1116 C1117 1.349 . S
C1116 C1118 1.327 . S
C1116 H1141 0.950 . S
C1117 C1116 1.349 . S
C1117 C1133 1.349 . S
C1118 C1116 1.327 . S
C1118 C1137 1.429 . S
C1118 H1142 0.950 . S
C1119 C1136 1.574 . S
C1119 C1138 1.368 . S
C1119 H1143 0.949 . S
H1120 C1124 0.949 . S
C1121 C1122 1.349 . S
C1121 C1123 1.327 . S
C1121 H1144 0.950 . S
C1122 C1121 1.349 . S
C1122 C1134 1.349 . S
C1123 C1121 1.327 . S
C1123 C1139 1.429 . S
C1123 H1145 0.950 . S
C1124 H1120 0.949 . S
C1124 C1132 1.574 . S
C1124 C1140 1.368 . S
H1125 C1133 0.950 . S
H1126 C1131 0.950 . S
H1127 C1132 0.949 . S
H1128 C1134 0.950 . S
H1129 C1135 0.950 . S
H1130 C1136 0.949 . S
C1131 H1126 0.950 . S
C1131 C1133 1.327 . S
C1131 C1137 1.429 . S
C1132 C1124 1.574 . S
C1132 H1127 0.949 . S
C1132 C1138 1.368 . S
C1133 C1117 1.349 . S
C1133 H1125 0.950 . S
C1133 C1131 1.327 . S
C1134 C1122 1.349 . S
C1134 H1128 0.950 . S
C1134 C1135 1.327 . S
C1135 H1129 0.950 . S
C1135 C1134 1.327 . S
C1135 C1139 1.429 . S
C1136 C1119 1.574 . S
C1136 H1130 0.949 . S
C1136 C1140 1.368 . S
C1137 C1118 1.429 . S
C1137 C1131 1.429 . S
C1137 C1138 1.523 . S
C1138 C1119 1.368 . S
C1138 C1132 1.368 . S
C1138 C1137 1.523 . S
C1139 C1123 1.429 . S
C1139 C1135 1.429 . S
C1139 C1140 1.523 . S
C1140 C1124 1.368 . S
C1140 C1136 1.368 . S
C1140 C1139 1.523 . S
H1141 C1116 0.950 . S
H1142 C1118 0.950 . S
H1143 C1119 0.949 . S
H1144 C1121 0.950 . S
H1145 C1123 0.950 . S
C1146 C1147 1.349 . S
C1146 C1148 1.327 . S
C1146 H1171 0.950 . S
C1147 C1146 1.349 . S
C1147 C1163 1.349 . S
C1148 C1146 1.327 . S
C1148 C1167 1.429 . S
C1148 H1172 0.950 . S
C1149 C1166 1.574 . S
C1149 C1168 1.368 . S
C1149 H1173 0.949 . S
H1150 C1154 0.949 . S
C1151 C1152 1.349 . S
C1151 C1153 1.327 . S
C1151 H1174 0.950 . S
C1152 C1151 1.349 . S
C1152 C1164 1.349 . S
C1153 C1151 1.327 . S
C1153 C1169 1.429 . S
C1153 H1175 0.950 . S
C1154 H1150 0.949 . S
C1154 C1162 1.574 . S
C1154 C1170 1.368 . S
H1155 C1163 0.950 1_655 S
H1156 C1161 0.950 . S
H1157 C1162 0.949 . S
H1158 C1164 0.950 1_545 S
H1159 C1165 0.950 . S
H1160 C1166 0.949 . S
C1161 H1156 0.950 . S
C1161 C1163 1.327 . S
C1161 C1167 1.429 . S
C1162 C1154 1.574 . S
C1162 H1157 0.949 . S
C1162 C1168 1.368 . S
C1163 C1147 1.349 . S
C1163 H1155 0.950 1_455 S
C1163 C1161 1.327 . S
C1164 C1152 1.349 . S
C1164 H1158 0.950 1_565 S
C1164 C1165 1.327 . S
C1165 H1159 0.950 . S
C1165 C1164 1.327 . S
C1165 C1169 1.429 . S
C1166 C1149 1.574 . S
C1166 H1160 0.949 . S
C1166 C1170 1.368 . S
C1167 C1148 1.429 . S
C1167 C1161 1.429 . S
C1167 C1168 1.523 . S
C1168 C1149 1.368 . S
C1168 C1162 1.368 . S
C1168 C1167 1.523 . S
C1169 C1153 1.429 . S
C1169 C1165 1.429 . S
C1169 C1170 1.523 . S
C1170 C1154 1.368 . S
C1170 C1166 1.368 . S
C1170 C1169 1.523 . S
H1171 C1146 0.950 . S
H1172 C1148 0.950 . S
H1173 C1149 0.949 . S
H1174 C1151 0.950 . S
H1175 C1153 0.950 . S
C1176 C1177 1.349 . S
C1176 C1178 1.327 . S
C1176 H1201 0.950 . S
C1177 C1176 1.349 . S
C1177 C1193 1.350 . S
C1178 C1176 1.327 . S
C1178 C1197 1.429 . S
C1178 H1202 0.950 . S
C1179 C1196 1.574 1_545 S
C1179 C1198 1.368 1_556 S
C1179 H1203 0.949 . S
H1180 C1184 0.949 . S
C1181 C1182 1.349 . S
C1181 C1183 1.327 . S
C1181 H1204 0.950 . S
C1182 C1181 1.349 . S
C1182 C1194 1.350 . S
C1183 C1181 1.327 . S
C1183 C1199 1.429 . S
C1183 H1205 0.950 1_655 S
C1184 H1180 0.949 . S
C1184 C1192 1.574 1_665 S
C1184 C1200 1.368 1_654 S
H1185 C1193 0.949 1_556 S
H1186 C1191 0.950 . S
H1187 C1192 0.949 . S
H1188 C1194 0.949 1_554 S
H1189 C1195 0.950 . S
H1190 C1196 0.949 . S
C1191 H1186 0.950 . S
C1191 C1193 1.327 1_556 S
C1191 C1197 1.429 1_556 S
C1192 C1184 1.574 1_445 S
C1192 H1187 0.949 . S
C1192 C1198 1.368 . S
C1193 C1177 1.350 . S
C1193 H1185 0.949 1_554 S
C1193 C1191 1.327 1_554 S
C1194 C1182 1.350 . S
C1194 H1188 0.949 1_556 S
C1194 C1195 1.327 1_556 S
C1195 H1189 0.950 . S
C1195 C1194 1.327 1_554 S
C1195 C1199 1.429 1_554 S
C1196 C1179 1.574 1_565 S
C1196 H1190 0.949 . S
C1196 C1200 1.368 . S
C1197 C1178 1.429 . S
C1197 C1191 1.429 1_554 S
C1197 C1198 1.523 . S
C1198 C1179 1.368 1_554 S
C1198 C1192 1.368 . S
C1198 C1197 1.523 . S
C1199 C1183 1.429 . S
C1199 C1195 1.429 1_556 S
C1199 C1200 1.523 1_655 S
C1200 C1184 1.368 1_456 S
C1200 C1196 1.368 . S
C1200 C1199 1.523 1_455 S
H1201 C1176 0.950 . S
H1202 C1178 0.950 . S
H1203 C1179 0.949 . S
H1204 C1181 0.950 . S
H1205 C1183 0.950 1_455 S
C1206 C1207 1.349 . S
C1206 C1208 1.327 . S
C1206 H1231 0.950 . S
C1207 C1206 1.349 . S
C1207 C1223 1.349 . S
C1208 C1206 1.327 . S
C1208 C1227 1.429 . S
C1208 H1232 0.950 . S
C1209 C1226 1.574 1_565 S
C1209 C1228 1.368 1_565 S
C1209 H1233 0.949 . S
H1210 C1214 0.949 . S
C1211 C1212 1.349 . S
C1211 C1213 1.327 . S
C1211 H1234 0.950 . S
C1212 C1211 1.349 . S
C1212 C1224 1.349 . S
C1213 C1211 1.327 . S
C1213 C1229 1.429 . S
C1213 H1235 0.950 . S
C1214 H1210 0.949 . S
C1214 C1222 1.574 . S
C1214 C1230 1.368 . S
H1215 C1223 0.950 . S
H1216 C1221 0.950 . S
H1217 C1222 0.949 . S
H1218 C1224 0.950 . S
H1219 C1225 0.950 . S
H1220 C1226 0.949 1_655 S
C1221 H1216 0.950 . S
C1221 C1223 1.327 . S
C1221 C1227 1.429 . S
C1222 C1214 1.574 . S
C1222 H1217 0.949 . S
C1222 C1228 1.368 . S
C1223 C1207 1.349 . S
C1223 H1215 0.950 . S
C1223 C1221 1.327 . S
C1224 C1212 1.349 . S
C1224 H1218 0.950 . S
C1224 C1225 1.327 . S
C1225 H1219 0.950 . S
C1225 C1224 1.327 . S
C1225 C1229 1.429 . S
C1226 C1209 1.574 1_545 S
C1226 H1220 0.949 1_455 S
C1226 C1230 1.368 . S
C1227 C1208 1.429 . S
C1227 C1221 1.429 . S
C1227 C1228 1.523 1_565 S
C1228 C1209 1.368 1_545 S
C1228 C1222 1.368 . S
C1228 C1227 1.523 1_545 S
C1229 C1213 1.429 . S
C1229 C1225 1.429 . S
C1229 C1230 1.523 1_655 S
C1230 C1214 1.368 . S
C1230 C1226 1.368 . S
C1230 C1229 1.523 1_455 S
H1231 C1206 0.950 . S
H1232 C1208 0.950 . S
H1233 C1209 0.949 . S
H1234 C1211 0.950 . S
H1235 C1213 0.950 . S
C1236 C1237 1.349 . S
C1236 C1238 1.327 . S
C1236 H1261 0.950 . S
C1237 C1236 1.349 . S
C1237 C1253 1.349 . S
C1238 C1236 1.327 . S
C1238 C1257 1.429 . S
C1238 H1262 0.950 . S
C1239 C1256 1.574 1_455 S
C1239 C1258 1.368 . S
C1239 H1263 0.949 . S
H1240 C1244 0.949 . S
C1241 C1242 1.349 . S
C1241 C1243 1.327 . S
C1241 H1264 0.950 . S
C1242 C1241 1.349 . S
C1242 C1254 1.349 . S
C1243 C1241 1.327 . S
C1243 C1259 1.429 . S
C1243 H1265 0.950 1_565 S
C1244 H1240 0.949 . S
C1244 C1252 1.574 1_665 S
C1244 C1260 1.368 1_565 S
H1245 C1253 0.950 . S
H1246 C1251 0.950 . S
H1247 C1252 0.949 . S
H1248 C1254 0.950 . S
H1249 C1255 0.950 . S
H1250 C1256 0.949 . S
C1251 H1246 0.950 . S
C1251 C1253 1.327 . S
C1251 C1257 1.429 . S
C1252 C1244 1.574 1_445 S
C1252 H1247 0.949 . S
C1252 C1258 1.368 . S
C1253 C1237 1.349 . S
C1253 H1245 0.950 . S
C1253 C1251 1.327 . S
C1254 C1242 1.349 . S
C1254 H1248 0.950 . S
C1254 C1255 1.327 . S
C1255 H1249 0.950 . S
C1255 C1254 1.327 . S
C1255 C1259 1.429 . S
C1256 C1239 1.574 1_655 S
C1256 H1250 0.949 . S
C1256 C1260 1.368 . S
C1257 C1238 1.429 . S
C1257 C1251 1.429 . S
C1257 C1258 1.523 . S
C1258 C1239 1.368 . S
C1258 C1252 1.368 . S
C1258 C1257 1.523 . S
C1259 C1243 1.429 . S
C1259 C1255 1.429 . S
C1259 C1260 1.523 1_565 S
C1260 C1244 1.368 1_545 S
C1260 C1256 1.368 . S
C1260 C1259 1.523 1_545 S
H1261 C1236 0.950 . S
H1262 C1238 0.950 . S
H1263 C1239 0.949 . S
H1264 C1241 0.950 . S
H1265 C1243 0.950 1_545 S
C1266 C1267 1.349 . S
C1266 C1268 1.327 . S
C1266 H1291 0.950 . S
C1267 C1266 1.349 . S
C1267 C1283 1.349 . S
C1268 C1266 1.327 . S
C1268 C1287 1.429 . S
C1268 H1292 0.950 . S
C1269 C1286 1.574 1_545 S
C1269 C1288 1.368 . S
C1269 H1293 0.949 . S
H1270 C1274 0.949 . S
C1271 C1272 1.349 . S
C1271 C1273 1.327 . S
C1271 H1294 0.950 . S
C1272 C1271 1.349 . S
C1272 C1284 1.349 . S
C1273 C1271 1.327 . S
C1273 C1289 1.429 . S
C1273 H1295 0.950 . S
C1274 H1270 0.949 . S
C1274 C1282 1.574 1_665 S
C1274 C1290 1.368 . S
H1275 C1283 0.950 . S
H1276 C1281 0.950 1_655 S
H1277 C1282 0.949 . S
H1278 C1284 0.950 . S
H1279 C1285 0.950 . S
H1280 C1286 0.949 . S
C1281 H1276 0.950 1_455 S
C1281 C1283 1.327 . S
C1281 C1287 1.429 . S
C1282 C1274 1.574 1_445 S
C1282 H1277 0.949 . S
C1282 C1288 1.368 1_455 S
C1283 C1267 1.349 . S
C1283 H1275 0.950 . S
C1283 C1281 1.327 . S
C1284 C1272 1.349 . S
C1284 H1278 0.950 . S
C1284 C1285 1.327 . S
C1285 H1279 0.950 . S
C1285 C1284 1.327 . S
C1285 C1289 1.429 . S
C1286 C1269 1.574 1_565 S
C1286 H1280 0.949 . S
C1286 C1290 1.368 . S
C1287 C1268 1.429 . S
C1287 C1281 1.429 . S
C1287 C1288 1.523 1_455 S
C1288 C1269 1.368 . S
C1288 C1282 1.368 1_655 S
C1288 C1287 1.523 1_655 S
C1289 C1273 1.429 . S
C1289 C1285 1.429 . S
C1289 C1290 1.523 . S
C1290 C1274 1.368 . S
C1290 C1286 1.368 . S
C1290 C1289 1.523 . S
H1291 C1266 0.950 . S
H1292 C1268 0.950 . S
H1293 C1269 0.949 . S
H1294 C1271 0.950 . S
H1295 C1273 0.950 . S
C1296 C1297 1.349 . S
C1296 C1298 1.327 . S
C1296 H1321 0.950 . S
C1297 C1296 1.349 . S
C1297 C1313 1.349 . S
C1298 C1296 1.327 . S
C1298 C1317 1.429 . S
C1298 H1322 0.950 . S
C1299 C1316 1.574 . S
C1299 C1318 1.368 . S
C1299 H1323 0.949 . S
H1300 C1304 0.949 . S
C1301 C1302 1.349 . S
C1301 C1303 1.327 . S
C1301 H1324 0.950 . S
C1302 C1301 1.349 . S
C1302 C1314 1.349 . S
C1303 C1301 1.327 . S
C1303 C1319 1.429 . S
C1303 H1325 0.950 1_545 S
C1304 H1300 0.949 . S
C1304 C1312 1.574 1_645 S
C1304 C1320 1.368 1_545 S
H1305 C1313 0.950 . S
H1306 C1311 0.950 1_655 S
H1307 C1312 0.949 . S
H1308 C1314 0.950 . S
H1309 C1315 0.950 . S
H1310 C1316 0.949 . S
C1311 H1306 0.950 1_455 S
C1311 C1313 1.327 . S
C1311 C1317 1.429 . S
C1312 C1304 1.574 1_465 S
C1312 H1307 0.949 . S
C1312 C1318 1.368 1_455 S
C1313 C1297 1.349 . S
C1313 H1305 0.950 . S
C1313 C1311 1.327 . S
C1314 C1302 1.349 . S
C1314 H1308 0.950 . S
C1314 C1315 1.327 . S
C1315 H1309 0.950 . S
C1315 C1314 1.327 . S
C1315 C1319 1.429 . S
C1316 C1299 1.574 . S
C1316 H1310 0.949 . S
C1316 C1320 1.368 . S
C1317 C1298 1.429 . S
C1317 C1311 1.429 . S
C1317 C1318 1.523 1_455 S
C1318 C1299 1.368 . S
C1318 C1312 1.368 1_655 S
C1318 C1317 1.523 1_655 S
C1319 C1303 1.429 . S
C1319 C1315 1.429 . S
C1319 C1320 1.523 1_545 S
C1320 C1304 1.368 1_565 S
C1320 C1316 1.368 . S
C1320 C1319 1.523 1_565 S
H1321 C1296 0.950 . S
H1322 C1298 0.950 . S
H1323 C1299 0.949 . S
H1324 C1301 0.950 . S
H1325 C1303 0.950 1_565 S
C1326 C1327 1.349 . S
C1326 C1328 1.327 . S
C1326 H1351 0.950 . S
C1327 C1326 1.349 . S
C1327 C1343 1.349 . S
C1328 C1326 1.327 . S
C1328 C1347 1.429 . S
C1328 H1352 0.950 . S
C1329 C1346 1.574 1_445 S
C1329 C1348 1.368 1_545 S
C1329 H1353 0.949 . S
H1330 C1334 0.949 . S
C1331 C1332 1.349 . S
C1331 C1333 1.327 . S
C1331 H1354 0.950 . S
C1332 C1331 1.349 . S
C1332 C1344 1.349 . S
C1333 C1331 1.327 . S
C1333 C1349 1.429 . S
C1333 H1355 0.950 . S
C1334 H1330 0.949 . S
C1334 C1342 1.574 1_655 S
C1334 C1350 1.368 . S
H1335 C1343 0.950 . S
H1336 C1341 0.950 . S
H1337 C1342 0.949 . S
H1338 C1344 0.950 . S
H1339 C1345 0.950 . S
H1340 C1346 0.949 . S
C1341 H1336 0.950 . S
C1341 C1343 1.327 . S
C1341 C1347 1.429 . S
C1342 C1334 1.574 1_455 S
C1342 H1337 0.949 . S
C1342 C1348 1.368 . S
C1343 C1327 1.349 . S
C1343 H1335 0.950 . S
C1343 C1341 1.327 . S
C1344 C1332 1.349 . S
C1344 H1338 0.950 . S
C1344 C1345 1.327 . S
C1345 H1339 0.950 . S
C1345 C1344 1.327 . S
C1345 C1349 1.429 . S
C1346 C1329 1.574 1_665 S
C1346 H1340 0.949 . S
C1346 C1350 1.368 . S
C1347 C1328 1.429 . S
C1347 C1341 1.429 . S
C1347 C1348 1.523 1_545 S
C1348 C1329 1.368 1_565 S
C1348 C1342 1.368 . S
C1348 C1347 1.523 1_565 S
C1349 C1333 1.429 . S
C1349 C1345 1.429 . S
C1349 C1350 1.523 . S
C1350 C1334 1.368 . S
C1350 C1346 1.368 . S
C1350 C1349 1.523 . S
H1351 C1326 0.950 . S
H1352 C1328 0.950 . S
H1353 C1329 0.949 . S
H1354 C1331 0.950 . S
H1355 C1333 0.950 . S
C277 C182 1.820 . S
C282 C20 1.826 . S
C307 C205 1.820 . S
C312 C43 1.826 . S
C337 C228 1.820 . S
C342 C66 1.826 . S
C367 C251 1.820 . S
C372 C89 1.826 . S
C397 C274 1.820 . S
C402 C112 1.826 . S
C427 C159 1.820 . S
C432 C135 1.826 . S
C457 C158 1.826 . S
C462 C136 1.820 . S
C487 C181 1.826 . S
C492 C21 1.820 . S
C517 C204 1.826 . S
C522 C44 1.820 . S
C547 C227 1.826 . S
C552 C67 1.820 . S
C577 C250 1.826 . S
C582 C90 1.820 . S
C607 C273 1.826 . S
C612 C113 1.820 . S
C637 C17 1.246 . S
C642 C131 1.233 . S
C667 C40 1.246 1_455 S
C672 C16 1.233 . S
C697 C39 1.233 . S
C702 C63 1.246 1_545 S
C727 C62 1.232 . S
C732 C86 1.245 . S
C757 C85 1.233 . S
C762 C109 1.246 1_655 S
C787 C132 1.245 1_565 S
C792 C108 1.232 . S
C817 C155 1.246 . S
C822 C177 1.233 . S
C847 C178 1.245 1_455 S
C852 C200 1.232 . S
C877 C201 1.245 1_545 S
C882 C223 1.233 . S
C907 C224 1.246 . S
C912 C246 1.233 . S
C937 C247 1.245 1_655 S
C942 C269 1.232 . S
C967 C154 1.233 . S
C972 C270 1.246 1_565 S
C997 C202 0.772 . S
C1002 C18 0.772 . S
C1027 C41 0.772 . S
C1032 C225 0.772 . S
C1057 C64 0.772 . S
C1062 C248 0.772 . S
C1087 C87 0.772 . S
C1092 C271 0.772 . S
C1117 C110 0.772 . S
C1122 C156 0.772 . S
C1147 C179 0.772 . S
C1152 C133 0.772 . S
C1177 C19 0.510 . S
C1182 C180 0.510 . S
C1207 C203 0.510 . S
C1212 C42 0.510 . S
C1237 C226 0.510 . S
C1242 C65 0.510 . S
C1267 C249 0.510 . S
C1272 C88 0.510 . S
C1297 C111 0.510 . S
C1302 C272 0.510 . S
C1327 C134 0.510 . S
C1332 C157 0.510 . S
