# Generated by pormake.
# Topology whh, (6)-cn, num edge types: 1
# Building blocks:
#     Node 0, Type 0, BuildingBlock: VOLQOD_clean_sbu_1, # of connection points: 6
#     Node 1, Type 0, BuildingBlock: VOLQOD_clean_sbu_1, # of connection points: 6
#     Node 2, Type 0, BuildingBlock: VOLQOD_clean_sbu_1, # of connection points: 6
#     Node 3, Type 0, BuildingBlock: VOLQOD_clean_sbu_1, # of connection points: 6
#     Node 4, Type 0, BuildingBlock: VOLQOD_clean_sbu_1, # of connection points: 6
#     Node 5, Type 0, BuildingBlock: VOLQOD_clean_sbu_1, # of connection points: 6
#     Node 6, Type 0, BuildingBlock: VOLQOD_clean_sbu_1, # of connection points: 6
#     Node 7, Type 0, BuildingBlock: VOLQOD_clean_sbu_1, # of connection points: 6
#     Node 8, Type 0, BuildingBlock: VOLQOD_clean_sbu_1, # of connection points: 6
#     Node 9, Type 0, BuildingBlock: VOLQOD_clean_sbu_1, # of connection points: 6
#     Node 10, Type 0, BuildingBlock: VOLQOD_clean_sbu_1, # of connection points: 6
#     Node 11, Type 0, BuildingBlock: VOLQOD_clean_sbu_1, # of connection points: 6
#     Node 12, Type 0, BuildingBlock: VOLQOD_clean_sbu_1, # of connection points: 6
#     Node 13, Type 0, BuildingBlock: VOLQOD_clean_sbu_1, # of connection points: 6
#     Node 14, Type 0, BuildingBlock: VOLQOD_clean_sbu_1, # of connection points: 6
#     Node 15, Type 0, BuildingBlock: VOLQOD_clean_sbu_1, # of connection points: 6
#     Edge 16, Type (0, 0), None
#     Edge 17, Type (0, 0), None
#     Edge 18, Type (0, 0), None
#     Edge 19, Type (0, 0), None
#     Edge 20, Type (0, 0), None
#     Edge 21, Type (0, 0), None
#     Edge 22, Type (0, 0), None
#     Edge 23, Type (0, 0), None
#     Edge 24, Type (0, 0), None
#     Edge 25, Type (0, 0), None
#     Edge 26, Type (0, 0), None
#     Edge 27, Type (0, 0), None
#     Edge 28, Type (0, 0), None
#     Edge 29, Type (0, 0), None
#     Edge 30, Type (0, 0), None
#     Edge 31, Type (0, 0), None
#     Edge 32, Type (0, 0), None
#     Edge 33, Type (0, 0), None
#     Edge 34, Type (0, 0), None
#     Edge 35, Type (0, 0), None
#     Edge 36, Type (0, 0), None
#     Edge 37, Type (0, 0), None
#     Edge 38, Type (0, 0), None
#     Edge 39, Type (0, 0), None
#     Edge 40, Type (0, 0), None
#     Edge 41, Type (0, 0), None
#     Edge 42, Type (0, 0), None
#     Edge 43, Type (0, 0), None
#     Edge 44, Type (0, 0), None
#     Edge 45, Type (0, 0), None
#     Edge 46, Type (0, 0), None
#     Edge 47, Type (0, 0), None
#     Edge 48, Type (0, 0), None
#     Edge 49, Type (0, 0), None
#     Edge 50, Type (0, 0), None
#     Edge 51, Type (0, 0), None
#     Edge 52, Type (0, 0), None
#     Edge 53, Type (0, 0), None
#     Edge 54, Type (0, 0), None
#     Edge 55, Type (0, 0), None
#     Edge 56, Type (0, 0), None
#     Edge 57, Type (0, 0), None
#     Edge 58, Type (0, 0), None
#     Edge 59, Type (0, 0), None
#     Edge 60, Type (0, 0), None
#     Edge 61, Type (0, 0), None
#     Edge 62, Type (0, 0), None
#     Edge 63, Type (0, 0), None
# Relax obj value: 0.567
# Max RMSD: 0.275
# Mean RMSD: 0.275
data_MOF--net-whh--node1-VOLQOD_clean_sbu_1--edge1-none
_symmetry_space_group_name_H-M    P1
_symmetry_Int_Tables_number       1
_symmetry_cell_setting            triclinic
loop_
_symmetry_equiv_pos_as_xyz
'x, y, z'
_cell_length_a     17.468797
_cell_length_b     17.467373
_cell_length_c     24.834211
_cell_angle_alpha  89.998985
_cell_angle_beta   90.000332
_cell_angle_gamma 89.661261
loop_
_atom_site_label
_atom_site_type_symbol
_atom_site_fract_x
_atom_site_fract_y
_atom_site_fract_z
_atom_type_partial_charge
O0 O 0.0222 0.47502 0.11012 0.0
Zn1 Zn 0.07077 0.53537 0.177 0.0
O2 O -0.00492 0.61003 0.17258 0.0
Zn3 Zn 0.90646 0.57928 0.215 0.0
Zn4 Zn 0.96274 0.64633 0.10264 0.0
Zn5 Zn 0.03793 0.69429 0.2055 0.0
O6 O 0.90873 0.63423 0.28373 0.0
O7 O 0.02794 0.67807 0.28254 0.0
O8 O 0.04025 0.48519 0.25618 0.0
O9 O 0.91859 0.4674 0.23848 0.0
O10 O 0.80967 0.61341 0.17616 0.0
O11 O 0.84982 0.66838 0.10511 0.0
O12 O 0.00564 0.74886 0.09429 0.0
O13 O 0.18172 0.6021 0.16938 0.0
O14 O 0.97423 0.77421 0.17908 0.0
O15 O 0.14255 0.72098 0.18494 0.0
C16 C 0.98806 0.49276 0.06528 0.0
C17 C 0.96797 0.65809 0.30754 0.0
C18 C 0.81382 0.61322 0.1253 0.0
C19 C 0.9747 0.45666 0.27034 0.0
C20 C 0.97157 0.79019 0.12927 0.0
C21 C 0.19601 0.67541 0.17257 0.0
O22 O 0.98033 0.56213 0.04996 0.0
O23 O 0.97865 0.05825 0.11223 0.0
Zn24 Zn 0.90047 0.08682 0.17461 0.0
O25 O 0.82508 0.01753 0.14806 0.0
Zn26 Zn 0.82364 0.92357 0.18697 0.0
Zn27 Zn 0.84561 0.97426 0.07741 0.0
Zn28 Zn 0.72536 0.0598 0.1412 0.0
O29 O 0.72383 0.90901 0.22017 0.0
O30 O 0.6746 0.02497 0.2061 0.0
O31 O 0.94889 0.0414 0.25182 0.0
O32 O 0.8992 0.92512 0.24728 0.0
O33 O 0.84806 0.83381 0.14224 0.0
O34 O 0.92102 0.89325 0.0848 0.0
O35 O 0.75109 0.92573 0.04823 0.0
O36 O 0.83573 0.1981 0.17641 0.0
O37 O 0.68267 0.02541 0.0716 0.0
O38 O 0.71825 0.17218 0.14615 0.0
C39 C 0.97143 0.03796 0.06238 0.0
C40 C 0.67916 0.96336 0.23282 0.0
C41 C 0.90757 0.83601 0.11322 0.0
C42 C 0.9436 0.97222 0.27053 0.0
C43 C 0.68635 0.95549 0.05824 0.0
C44 C 0.76607 0.21992 0.16412 0.0
O45 O 0.9073 0.04394 1.03812 0.0
O46 O 0.41079 0.94778 0.10566 0.0
Zn47 Zn 0.37564 0.86854 0.16635 0.0
O48 O 0.46361 0.80961 0.14951 0.0
Zn49 Zn 0.53978 0.87216 0.18405 0.0
Zn50 Zn 0.505 0.80252 0.07693 0.0
Zn51 Zn 0.44641 0.70713 0.17395 0.0
O52 O 0.59279 0.79761 0.2302 0.0
O53 O 0.4906 0.72204 0.24376 0.0
O54 O 0.38969 0.91397 0.24832 0.0
O55 O 0.50654 0.95527 0.2374 0.0
O56 O 0.60621 0.92396 0.13005 0.0
O57 O 0.60706 0.84672 0.05982 0.0
O58 O 0.50688 0.69446 0.06142 0.0
O59 O 0.28114 0.78592 0.16219 0.0
O60 O 0.51333 0.63247 0.1364 0.0
O61 O 0.33466 0.67098 0.1739 0.0
C62 C 0.44269 0.93349 0.0596 0.0
C63 C 0.55324 0.75234 0.25891 0.0
C64 C 0.63109 0.90554 0.08386 0.0
C65 C 0.44666 0.95339 0.26604 0.0
C66 C 0.54767 0.65948 0.09593 0.0
C67 C 0.27481 0.7119 0.16717 0.0
O68 O 0.43647 0.86769 1.03819 0.0
O69 O 0.5273 0.47061 0.10899 0.0
Zn70 Zn 0.60427 0.43139 0.16954 0.0
O71 O 0.67718 0.50943 0.15639 0.0
Zn72 Zn 0.63949 0.5975 0.19951 0.0
Zn73 Zn 0.68626 0.54698 0.08126 0.0
Zn74 Zn 0.77359 0.46463 0.18253 0.0
O75 O 0.70738 0.61212 0.26091 0.0
O76 O 0.77735 0.50517 0.25483 0.0
O77 O 0.56276 0.45463 0.25093 0.0
O78 O 0.5382 0.57686 0.23853 0.0
O79 O 0.64348 0.69412 0.15512 0.0
O80 O 0.67537 0.66184 0.07503 0.0
O81 O 0.7912 0.51623 0.06337 0.0
O82 O 0.66703 0.32173 0.16088 0.0
O83 O 0.8586 0.49069 0.13381 0.0
O84 O 0.78535 0.35146 0.18495 0.0
C85 C 0.53608 0.49875 0.06115 0.0
C86 C 0.7531 0.56319 0.28048 0.0
C87 C 0.62458 0.68873 0.10602 0.0
C88 C 0.53223 0.51765 0.26804 0.0
C89 C 0.83389 0.54012 0.10119 0.0
C90 C 0.73762 0.3016 0.17049 0.0
O91 O 0.60175 0.50368 1.03934 0.0
O92 O 0.05824 0.97856 0.48338 0.0
Zn93 Zn 0.0868 0.90038 0.421 0.0
O94 O 0.01751 0.825 0.44757 0.0
Zn95 Zn 0.92353 0.82367 0.40869 0.0
Zn96 Zn 0.97428 0.8455 0.51825 0.0
Zn97 Zn 0.05976 0.72526 0.45438 0.0
O98 O 0.90902 0.72398 0.37531 0.0
O99 O 0.02486 0.67448 0.38951 0.0
O100 O 0.04136 0.94882 0.34381 0.0
O101 O 0.92498 0.89941 0.34848 0.0
O102 O 0.83381 0.84788 0.45353 0.0
O103 O 0.89324 0.92089 0.51091 0.0
O104 O 0.92579 0.75097 0.54746 0.0
O105 O 0.19807 0.83563 0.41918 0.0
O106 O 0.02545 0.68258 0.52401 0.0
O107 O 0.17214 0.71812 0.44939 0.0
C108 C 0.03796 0.97135 0.53323 0.0
C109 C 0.96326 0.67911 0.36279 0.0
C110 C 0.83601 0.90747 0.48248 0.0
C111 C 0.97214 0.94369 0.32518 0.0
C112 C 0.95553 0.68623 0.53738 0.0
C113 C 0.21988 0.76595 0.43144 0.0
O114 O 0.04396 0.90723 0.5575 0.0
O115 O 0.47504 0.02216 0.48544 0.0
Zn116 Zn 0.53543 0.07071 0.41857 0.0
O117 O 0.61006 -0.00501 0.423 0.0
Zn118 Zn 0.57931 0.90638 0.38056 0.0
Zn119 Zn 0.64632 0.96263 0.49295 0.0
Zn120 Zn 0.69437 0.0378 0.39015 0.0
O121 O 0.63428 0.9087 0.31183 0.0
O122 O 0.67818 0.0279 0.3131 0.0
O123 O 0.48527 0.04023 0.33937 0.0
O124 O 0.46744 0.91853 0.35707 0.0
O125 O 0.61338 0.80958 0.4194 0.0
O126 O 0.66834 0.8497 0.49047 0.0
O127 O 0.74884 0.00548 0.50138 0.0
O128 O 0.60219 0.18164 0.42617 0.0
O129 O 0.77425 0.97404 0.41659 0.0
O130 O 0.72107 0.14242 0.41072 0.0
C131 C 0.49275 0.988 0.53028 0.0
C132 C 0.65812 0.96798 0.28806 0.0
C133 C 0.61317 0.81372 0.47026 0.0
C134 C 0.45674 0.97467 0.32523 0.0
C135 C 0.79022 0.97148 0.4664 0.0
C136 C 0.67551 0.1959 0.42303 0.0
O137 O 0.56211 0.98023 0.54561 0.0
O138 O 0.47061 0.52719 0.48657 0.0
Zn139 Zn 0.43137 0.60416 0.42601 0.0
O140 O 0.5094 0.67708 0.43916 0.0
Zn141 Zn 0.59747 0.63938 0.39605 0.0
Zn142 Zn 0.54695 0.68618 0.51429 0.0
Zn143 Zn 0.46457 0.7735 0.41303 0.0
O144 O 0.61203 0.70723 0.33462 0.0
O145 O 0.50515 0.77733 0.34076 0.0
O146 O 0.45464 0.56267 0.34462 0.0
O147 O 0.57686 0.53806 0.35707 0.0
O148 O 0.69405 0.64345 0.44046 0.0
O149 O 0.66182 0.67529 0.52051 0.0
O150 O 0.51619 0.79111 0.53219 0.0
O151 O 0.3217 0.66691 0.43467 0.0
O152 O 0.49064 0.85851 0.46175 0.0
O153 O 0.35142 0.78524 0.41061 0.0
C154 C 0.49874 0.53599 0.53441 0.0
C155 C 0.5632 0.75313 0.31512 0.0
C156 C 0.68865 0.62443 0.48954 0.0
C157 C 0.51767 0.53214 0.32753 0.0
C158 C 0.54007 0.8338 0.49437 0.0
C159 C 0.30157 0.73751 0.42507 0.0
O160 O 0.50365 0.60167 0.55621 0.0
O161 O 0.94783 0.41075 0.48989 0.0
Zn162 Zn 0.86859 0.37557 0.42921 0.0
O163 O 0.80965 0.46354 0.44604 0.0
Zn164 Zn 0.87221 0.53972 0.41151 0.0
Zn165 Zn 0.80254 0.50495 0.51861 0.0
Zn166 Zn 0.70719 0.44632 0.4216 0.0
O167 O 0.79768 0.59276 0.36536 0.0
O168 O 0.72207 0.49057 0.35181 0.0
O169 O 0.91402 0.3896 0.34724 0.0
O170 O 0.95531 0.50649 0.35816 0.0
O171 O 0.92402 0.60613 0.46553 0.0
O172 O 0.84671 0.60703 0.53572 0.0
O173 O 0.6945 0.5068 0.53416 0.0
O174 O 0.78601 0.28105 0.4334 0.0
O175 O 0.63252 0.51319 0.45914 0.0
O176 O 0.67108 0.33455 0.42164 0.0
C177 C 0.93352 0.44266 0.53596 0.0
C178 C 0.75227 0.55329 0.3367 0.0
C179 C 0.90557 0.63103 0.51171 0.0
C180 C 0.9534 0.44659 0.32952 0.0
C181 C 0.65945 0.54751 0.49964 0.0
C182 C 0.712 0.27471 0.4284 0.0
O183 O 0.86773 0.43644 0.55736 0.0
O184 O 0.91079 0.44781 0.98989 0.0
Zn185 Zn 0.87562 0.36856 0.92922 0.0
O186 O 0.96359 0.30962 0.94605 0.0
Zn187 Zn 0.03977 0.37218 0.91153 0.0
Zn188 Zn 0.00498 0.30252 1.01864 0.0
Zn189 Zn 0.94638 0.20715 0.92161 0.0
O190 O 0.09278 0.29764 0.86537 0.0
O191 O -0.0094 0.22207 0.8518 0.0
O192 O 0.88967 0.41399 0.84725 0.0
O193 O 0.00652 0.45531 0.85818 0.0
O194 O 0.10621 0.42395 0.96555 0.0
O195 O 0.10703 0.34671 1.03578 0.0
O196 O 0.00682 0.19446 1.03415 0.0
O197 O 0.78111 0.28597 0.93338 0.0
O198 O 0.01326 0.13247 0.95917 0.0
O199 O 0.83461 0.17102 0.92165 0.0
C200 C 0.9427 0.4335 1.03595 0.0
C201 C 0.05324 0.25237 0.83666 0.0
C202 C 0.13108 0.40554 1.01174 0.0
C203 C 0.94664 0.45342 0.82953 0.0
C204 C 0.04761 0.15947 0.99964 0.0
C205 C 0.77476 0.21195 0.92838 0.0
O206 O 0.93645 0.3677 0.05737 0.0
O207 O 0.02729 0.97061 0.98661 0.0
Zn208 Zn 0.10424 0.93139 0.92604 0.0
O209 O 0.17714 0.00944 0.93919 0.0
Zn210 Zn 0.13945 0.0975 0.89606 0.0
Zn211 Zn 0.18625 0.04699 1.01431 0.0
Zn212 Zn 0.27357 0.96464 0.91305 0.0
O213 O 0.20732 0.11211 0.83466 0.0
O214 O 0.27731 0.00517 0.84075 0.0
O215 O 0.06273 0.95464 0.84465 0.0
O216 O 0.03815 0.07686 0.85705 0.0
O217 O 0.14342 0.19411 0.94045 0.0
O218 O 0.17531 0.16184 1.02055 0.0
O219 O 0.29121 0.01626 1.03218 0.0
O220 O 0.16701 0.82174 0.9347 0.0
O221 O 0.35856 -0.00927 0.96177 0.0
O222 O 0.28533 0.85147 0.91064 0.0
C223 C 0.03609 -0.00128 1.03446 0.0
C224 C 0.25305 0.06319 0.81509 0.0
C225 C 0.12452 0.18872 0.98956 0.0
C226 C 0.03219 0.01766 0.82753 0.0
C227 C 0.33383 0.04022 0.99434 0.0
C228 C 0.23761 0.80161 0.9251 0.0
O229 O 0.10177 0.00366 0.05625 0.0
O230 O 0.52218 0.97503 0.98543 0.0
Zn231 Zn 0.57073 0.0354 0.91855 0.0
O232 O 0.49504 0.11006 0.92298 0.0
Zn233 Zn 0.40644 0.07929 0.88055 0.0
Zn234 Zn 0.4627 0.14634 0.99293 0.0
Zn235 Zn 0.53787 0.19436 0.89009 0.0
O236 O 0.40874 0.13421 0.8118 0.0
O237 O 0.52791 0.17818 0.81305 0.0
O238 O 0.54021 0.98523 0.83937 0.0
O239 O 0.41856 0.96741 0.85709 0.0
O240 O 0.30963 0.11339 0.91937 0.0
O241 O 0.34979 0.16841 0.9905 0.0
O242 O 0.5056 0.24886 1.0013 0.0
O243 O 0.68168 0.10215 0.92616 0.0
O244 O 0.47413 0.27425 0.91653 0.0
O245 O 0.6425 0.22104 0.91066 0.0
C246 C 0.48805 -0.00724 1.03028 0.0
C247 C 0.46798 0.15813 0.78803 0.0
C248 C 0.31375 0.11332 0.97023 0.0
C249 C 0.47466 0.95669 0.82522 0.0
C250 C 0.47149 0.2902 0.96635 0.0
C251 C 0.69596 0.17547 0.92299 0.0
O252 O 0.48028 0.06213 1.04559 0.0
O253 O 0.47862 0.55826 0.98338 0.0
Zn254 Zn 0.40046 0.58681 0.92099 0.0
O255 O 0.32507 0.51754 0.94756 0.0
Zn256 Zn 0.32365 0.42356 0.90866 0.0
Zn257 Zn 0.34559 0.47426 1.0182 0.0
Zn258 Zn 0.22535 0.5598 0.95441 0.0
O259 O 0.2239 0.40908 0.87536 0.0
O260 O 0.17459 0.52499 0.88951 0.0
O261 O 0.44891 0.54136 0.8438 0.0
O262 O 0.39932 0.42505 0.84842 0.0
O263 O 0.34795 0.3338 0.95344 0.0
O264 O 0.42099 0.39325 1.01082 0.0
O265 O 0.25105 0.42571 1.04732 0.0
O266 O 0.33572 0.6981 0.91918 0.0
O267 O 0.18252 0.52541 1.02398 0.0
O268 O 0.21824 0.67219 0.94945 0.0
C269 C 0.4714 0.53797 1.03324 0.0
C270 C 0.17917 0.46341 0.86276 0.0
C271 C 0.4075 0.33599 0.98243 0.0
C272 C 0.44369 0.47215 0.82515 0.0
C273 C 0.18629 0.45551 1.03739 0.0
C274 C 0.26606 0.71992 0.93148 0.0
O275 O 0.40727 0.54393 0.0575 0.0
O276 O 0.97061 0.02725 0.60898 0.0
Zn277 Zn 0.93138 0.10421 0.66955 0.0
O278 O 0.00943 0.17711 0.6564 0.0
Zn279 Zn 0.09748 0.13941 0.69953 0.0
Zn280 Zn 0.04701 0.18623 0.58128 0.0
Zn281 Zn 0.96462 0.27355 0.68252 0.0
O282 O 0.11204 0.20726 0.76096 0.0
O283 O 0.00517 0.27737 0.75481 0.0
O284 O 0.95463 0.0627 0.75094 0.0
O285 O 0.07686 0.03809 0.73851 0.0
O286 O 0.19408 0.14347 0.65512 0.0
O287 O 0.16187 0.17535 0.57508 0.0
O288 O 0.01627 0.29118 0.56339 0.0
O289 O 0.82173 0.16697 0.66089 0.0
O290 O -0.00928 0.35854 0.63379 0.0
O291 O 0.85146 0.28531 0.68493 0.0
C292 C -0.00127 0.03604 0.56114 0.0
C293 C 0.06321 0.25316 0.78045 0.0
C294 C 0.18867 0.12447 0.60603 0.0
C295 C 0.01766 0.03217 0.76804 0.0
C296 C 0.04022 0.33382 0.60122 0.0
C297 C 0.8016 0.23757 0.67049 0.0
O298 O 0.00371 0.10172 0.53934 0.0
O299 O 0.44775 0.91075 0.60567 0.0
Zn300 Zn 0.36852 0.8756 0.66635 0.0
O301 O 0.30959 0.96357 0.64952 0.0
Zn302 Zn 0.37216 0.03974 0.68405 0.0
Zn303 Zn 0.3025 0.00497 0.57693 0.0
Zn304 Zn 0.20714 0.94637 0.67396 0.0
O305 O 0.29765 0.09276 0.73022 0.0
O306 O 0.22203 -0.00942 0.74376 0.0
O307 O 0.41394 0.88963 0.74833 0.0
O308 O 0.45528 0.00649 0.73739 0.0
O309 O 0.42394 0.10615 0.63003 0.0
O310 O 0.34668 0.10703 0.55981 0.0
O311 O 0.19445 0.00685 0.5614 0.0
O312 O 0.28591 0.78111 0.66217 0.0
O313 O 0.13247 0.01326 0.63643 0.0
O314 O 0.17098 0.83462 0.67391 0.0
C315 C 0.43347 0.94267 0.55961 0.0
C316 C 0.25224 0.05329 0.75887 0.0
C317 C 0.40553 0.13104 0.58383 0.0
C318 C 0.45335 0.94661 0.76603 0.0
C319 C 0.15942 0.04757 0.59593 0.0
C320 C 0.21189 0.77477 0.66716 0.0
O321 O 0.36767 0.93646 0.53819 0.0
O322 O 0.55826 0.47857 0.61219 0.0
Zn323 Zn 0.58682 0.40043 0.6746 0.0
O324 O 0.51754 0.32503 0.64806 0.0
Zn325 Zn 0.42359 0.32359 0.68697 0.0
Zn326 Zn 0.47423 0.34557 0.57744 0.0
Zn327 Zn 0.55981 0.2253 0.64119 0.0
O328 O 0.40901 0.22377 0.72014 0.0
O329 O 0.52499 0.17453 0.70609 0.0
O330 O 0.5414 0.4489 0.7518 0.0
O331 O 0.42516 0.39914 0.74728 0.0
O332 O 0.33383 0.34807 0.64225 0.0
O333 O 0.39327 0.42103 0.58483 0.0
O334 O 0.42567 0.25104 0.54832 0.0
O335 O 0.69809 0.33568 0.67641 0.0
O336 O 0.52538 0.1825 0.57161 0.0
O337 O 0.67218 0.21819 0.64614 0.0
C338 C 0.53798 0.47132 0.56233 0.0
C339 C 0.46333 0.17904 0.73275 0.0
C340 C 0.33605 0.40765 0.61328 0.0
C341 C 0.47224 0.44357 0.77051 0.0
C342 C 0.45548 0.18628 0.55821 0.0
C343 C 0.71992 0.26602 0.66411 0.0
O344 O 0.54392 0.40717 0.5381 0.0
O345 O 0.97503 0.52217 0.61012 0.0
Zn346 Zn 0.03537 0.57076 0.677 0.0
O347 O 0.11001 0.49505 0.67258 0.0
Zn348 Zn 0.07931 0.40644 0.71502 0.0
Zn349 Zn 0.14634 0.46272 0.60264 0.0
Zn350 Zn 0.19424 0.53792 0.70549 0.0
O351 O 0.13431 0.40875 0.78375 0.0
O352 O 0.17797 0.52804 0.78252 0.0
O353 O 0.98522 0.54026 0.7562 0.0
O354 O 0.96744 0.41856 0.73851 0.0
O355 O 0.11338 0.30962 0.67619 0.0
O356 O 0.1684 0.3498 0.60508 0.0
O357 O 0.24887 0.50562 0.5943 0.0
O358 O 0.10209 0.6817 0.66937 0.0
O359 O 0.27417 0.47421 0.67911 0.0
O360 O 0.22096 0.64251 0.6849 0.0
C361 C -0.00723 0.48804 0.56528 0.0
C362 C 0.15804 0.46806 0.80753 0.0
C363 C 0.11332 0.31375 0.62534 0.0
C364 C 0.95672 0.47469 0.77034 0.0
C365 C 0.29022 0.47165 0.62931 0.0
C366 C 0.1754 0.69597 0.67255 0.0
O367 O 0.06214 0.48029 0.54997 0.0
loop_
_geom_bond_atom_site_label_1
_geom_bond_atom_site_label_2
_geom_bond_distance
_geom_bond_site_symmetry_2
_ccdc_geom_bond_type
O0 Zn1 1.953 . S
O0 C16 1.225 . S
Zn1 O0 1.953 . S
Zn1 O2 1.949 . S
Zn1 O8 1.919 . S
Zn1 O13 1.924 . S
O2 Zn1 1.949 . S
O2 Zn3 1.923 1_455 S
O2 Zn4 1.950 1_455 S
O2 Zn5 1.945 . S
Zn3 O2 1.923 1_655 S
Zn3 O6 1.933 . S
Zn3 O9 1.941 . S
Zn3 O10 1.965 . S
Zn4 O2 1.950 1_655 S
Zn4 O11 1.938 . S
Zn4 O12 1.906 . S
Zn4 O22 1.953 1_655 S
Zn5 O2 1.945 . S
Zn5 O7 1.932 . S
Zn5 O14 1.977 . S
Zn5 O15 1.910 . S
O6 Zn3 1.933 . S
O6 C17 1.226 1_655 S
O7 Zn5 1.932 . S
O7 C17 1.307 . S
O8 Zn1 1.919 . S
O8 C19 1.253 . S
O9 Zn3 1.941 . S
O9 C19 1.283 1_655 S
O10 Zn3 1.965 . S
O10 C18 1.303 . S
O11 Zn4 1.938 . S
O11 C18 1.247 . S
O12 Zn4 1.906 . S
O12 C20 1.304 . S
O13 Zn1 1.924 . S
O13 C21 1.311 . S
O14 Zn5 1.977 . S
O14 C20 1.272 1_455 S
O15 Zn5 1.910 . S
O15 C21 1.231 . S
C16 O0 1.225 . S
C16 O22 1.298 . S
C17 O6 1.226 1_455 S
C17 O7 1.307 . S
C18 O10 1.303 . S
C18 O11 1.247 . S
C19 O8 1.253 . S
C19 O9 1.283 1_455 S
C20 O12 1.304 . S
C20 O14 1.272 1_655 S
C21 O13 1.311 . S
C21 O15 1.231 . S
O22 Zn4 1.953 1_455 S
O22 C16 1.298 . S
O23 Zn24 1.953 1_455 S
O23 C39 1.225 1_455 S
Zn24 O23 1.953 1_655 S
Zn24 O25 1.949 . S
Zn24 O31 1.919 1_655 S
Zn24 O36 1.924 . S
O25 Zn24 1.949 . S
O25 Zn26 1.923 1_545 S
O25 Zn27 1.950 1_545 S
O25 Zn28 1.945 . S
Zn26 O25 1.923 1_565 S
Zn26 O29 1.933 . S
Zn26 O32 1.941 . S
Zn26 O33 1.965 . S
Zn27 O25 1.950 1_565 S
Zn27 O34 1.938 . S
Zn27 O35 1.906 . S
Zn27 O45 1.953 1_565 S
Zn28 O25 1.945 . S
Zn28 O30 1.932 . S
Zn28 O37 1.977 . S
Zn28 O38 1.910 . S
O29 Zn26 1.933 . S
O29 C40 1.226 1_565 S
O30 Zn28 1.932 . S
O30 C40 1.307 . S
O31 Zn24 1.919 1_455 S
O31 C42 1.253 . S
O32 Zn26 1.941 . S
O32 C42 1.283 1_665 S
O33 Zn26 1.965 . S
O33 C41 1.303 . S
O34 Zn27 1.938 . S
O34 C41 1.247 . S
O35 Zn27 1.906 . S
O35 C43 1.304 . S
O36 Zn24 1.924 . S
O36 C44 1.311 . S
O37 Zn28 1.977 . S
O37 C43 1.272 1_545 S
O38 Zn28 1.910 . S
O38 C44 1.231 . S
C39 O23 1.225 1_655 S
C39 O45 1.298 . S
C40 O29 1.226 1_545 S
C40 O30 1.307 . S
C41 O33 1.303 . S
C41 O34 1.247 . S
C42 O31 1.253 . S
C42 O32 1.283 1_445 S
C43 O35 1.304 . S
C43 O37 1.272 1_565 S
C44 O36 1.311 . S
C44 O38 1.231 . S
O45 Zn27 1.953 1_545 S
O45 C39 1.298 . S
O46 Zn47 1.953 1_545 S
O46 C62 1.225 1_545 S
Zn47 O46 1.953 1_565 S
Zn47 O48 1.949 . S
Zn47 O54 1.919 1_565 S
Zn47 O59 1.924 . S
O48 Zn47 1.949 . S
O48 Zn49 1.923 . S
O48 Zn50 1.950 . S
O48 Zn51 1.945 . S
Zn49 O48 1.923 . S
Zn49 O52 1.933 . S
Zn49 O55 1.941 . S
Zn49 O56 1.965 . S
Zn50 O48 1.950 . S
Zn50 O57 1.938 . S
Zn50 O58 1.906 . S
Zn50 O68 1.953 . S
Zn51 O48 1.945 . S
Zn51 O53 1.932 . S
Zn51 O60 1.977 . S
Zn51 O61 1.910 . S
O52 Zn49 1.933 . S
O52 C63 1.226 . S
O53 Zn51 1.932 . S
O53 C63 1.307 . S
O54 Zn47 1.919 1_545 S
O54 C65 1.253 . S
O55 Zn49 1.941 . S
O55 C65 1.283 1_565 S
O56 Zn49 1.965 . S
O56 C64 1.303 . S
O57 Zn50 1.938 . S
O57 C64 1.247 . S
O58 Zn50 1.906 . S
O58 C66 1.304 . S
O59 Zn47 1.924 . S
O59 C67 1.311 . S
O60 Zn51 1.977 . S
O60 C66 1.272 . S
O61 Zn51 1.910 . S
O61 C67 1.231 . S
C62 O46 1.225 1_565 S
C62 O68 1.298 . S
C63 O52 1.226 . S
C63 O53 1.307 . S
C64 O56 1.303 . S
C64 O57 1.247 . S
C65 O54 1.253 . S
C65 O55 1.283 1_545 S
C66 O58 1.304 . S
C66 O60 1.272 . S
C67 O59 1.311 . S
C67 O61 1.231 . S
O68 Zn50 1.953 . S
O68 C62 1.298 . S
O69 Zn70 1.953 . S
O69 C85 1.225 . S
Zn70 O69 1.953 . S
Zn70 O71 1.949 . S
Zn70 O77 1.919 . S
Zn70 O82 1.924 . S
O71 Zn70 1.949 . S
O71 Zn72 1.923 . S
O71 Zn73 1.950 . S
O71 Zn74 1.945 . S
Zn72 O71 1.923 . S
Zn72 O75 1.933 . S
Zn72 O78 1.941 . S
Zn72 O79 1.965 . S
Zn73 O71 1.950 . S
Zn73 O80 1.938 . S
Zn73 O81 1.906 . S
Zn73 O91 1.953 . S
Zn74 O71 1.945 . S
Zn74 O76 1.932 . S
Zn74 O83 1.977 . S
Zn74 O84 1.910 . S
O75 Zn72 1.933 . S
O75 C86 1.226 . S
O76 Zn74 1.932 . S
O76 C86 1.307 . S
O77 Zn70 1.919 . S
O77 C88 1.253 . S
O78 Zn72 1.941 . S
O78 C88 1.283 . S
O79 Zn72 1.965 . S
O79 C87 1.303 . S
O80 Zn73 1.938 . S
O80 C87 1.247 . S
O81 Zn73 1.906 . S
O81 C89 1.304 . S
O82 Zn70 1.924 . S
O82 C90 1.311 . S
O83 Zn74 1.977 . S
O83 C89 1.272 . S
O84 Zn74 1.910 . S
O84 C90 1.231 . S
C85 O69 1.225 . S
C85 O91 1.298 . S
C86 O75 1.226 . S
C86 O76 1.307 . S
C87 O79 1.303 . S
C87 O80 1.247 . S
C88 O77 1.253 . S
C88 O78 1.283 . S
C89 O81 1.304 . S
C89 O83 1.272 . S
C90 O82 1.311 . S
C90 O84 1.231 . S
O91 Zn73 1.953 . S
O91 C85 1.298 . S
O92 Zn93 1.953 1_545 S
O92 C108 1.225 1_545 S
Zn93 O92 1.953 1_565 S
Zn93 O94 1.949 . S
Zn93 O100 1.919 1_565 S
Zn93 O105 1.924 . S
O94 Zn93 1.949 . S
O94 Zn95 1.923 1_455 S
O94 Zn96 1.950 1_455 S
O94 Zn97 1.945 . S
Zn95 O94 1.923 1_655 S
Zn95 O98 1.933 . S
Zn95 O101 1.941 . S
Zn95 O102 1.965 . S
Zn96 O94 1.950 1_655 S
Zn96 O103 1.938 . S
Zn96 O104 1.906 . S
Zn96 O114 1.953 1_655 S
Zn97 O94 1.945 . S
Zn97 O99 1.932 . S
Zn97 O106 1.977 . S
Zn97 O107 1.910 . S
O98 Zn95 1.933 . S
O98 C109 1.226 1_655 S
O99 Zn97 1.932 . S
O99 C109 1.307 . S
O100 Zn93 1.919 1_545 S
O100 C111 1.253 . S
O101 Zn95 1.941 . S
O101 C111 1.283 1_665 S
O102 Zn95 1.965 . S
O102 C110 1.303 . S
O103 Zn96 1.938 . S
O103 C110 1.247 . S
O104 Zn96 1.906 . S
O104 C112 1.304 . S
O105 Zn93 1.924 . S
O105 C113 1.311 . S
O106 Zn97 1.977 . S
O106 C112 1.272 1_455 S
O107 Zn97 1.910 . S
O107 C113 1.231 . S
C108 O92 1.225 1_565 S
C108 O114 1.298 . S
C109 O98 1.226 1_455 S
C109 O99 1.307 . S
C110 O102 1.303 . S
C110 O103 1.247 . S
C111 O100 1.253 . S
C111 O101 1.283 1_445 S
C112 O104 1.304 . S
C112 O106 1.272 1_655 S
C113 O105 1.311 . S
C113 O107 1.231 . S
O114 Zn96 1.953 1_455 S
O114 C108 1.298 . S
O115 Zn116 1.953 . S
O115 C131 1.225 . S
Zn116 O115 1.953 . S
Zn116 O117 1.949 . S
Zn116 O123 1.919 . S
Zn116 O128 1.924 . S
O117 Zn116 1.949 . S
O117 Zn118 1.923 1_545 S
O117 Zn119 1.950 1_545 S
O117 Zn120 1.945 . S
Zn118 O117 1.923 1_565 S
Zn118 O121 1.933 . S
Zn118 O124 1.941 . S
Zn118 O125 1.965 . S
Zn119 O117 1.950 1_565 S
Zn119 O126 1.938 . S
Zn119 O127 1.906 . S
Zn119 O137 1.953 1_565 S
Zn120 O117 1.945 . S
Zn120 O122 1.932 . S
Zn120 O129 1.977 . S
Zn120 O130 1.910 . S
O121 Zn118 1.933 . S
O121 C132 1.226 1_565 S
O122 Zn120 1.932 . S
O122 C132 1.307 . S
O123 Zn116 1.919 . S
O123 C134 1.253 . S
O124 Zn118 1.941 . S
O124 C134 1.283 1_565 S
O125 Zn118 1.965 . S
O125 C133 1.303 . S
O126 Zn119 1.938 . S
O126 C133 1.247 . S
O127 Zn119 1.906 . S
O127 C135 1.304 . S
O128 Zn116 1.924 . S
O128 C136 1.311 . S
O129 Zn120 1.977 . S
O129 C135 1.272 1_545 S
O130 Zn120 1.910 . S
O130 C136 1.231 . S
C131 O115 1.225 . S
C131 O137 1.298 . S
C132 O121 1.226 1_545 S
C132 O122 1.307 . S
C133 O125 1.303 . S
C133 O126 1.247 . S
C134 O123 1.253 . S
C134 O124 1.283 1_545 S
C135 O127 1.304 . S
C135 O129 1.272 1_565 S
C136 O128 1.311 . S
C136 O130 1.231 . S
O137 Zn119 1.953 1_545 S
O137 C131 1.298 . S
O138 Zn139 1.953 . S
O138 C154 1.225 . S
Zn139 O138 1.953 . S
Zn139 O140 1.949 . S
Zn139 O146 1.919 . S
Zn139 O151 1.924 . S
O140 Zn139 1.949 . S
O140 Zn141 1.923 . S
O140 Zn142 1.950 . S
O140 Zn143 1.945 . S
Zn141 O140 1.923 . S
Zn141 O144 1.933 . S
Zn141 O147 1.941 . S
Zn141 O148 1.965 . S
Zn142 O140 1.950 . S
Zn142 O149 1.938 . S
Zn142 O150 1.906 . S
Zn142 O160 1.953 . S
Zn143 O140 1.945 . S
Zn143 O145 1.932 . S
Zn143 O152 1.977 . S
Zn143 O153 1.910 . S
O144 Zn141 1.933 . S
O144 C155 1.226 . S
O145 Zn143 1.932 . S
O145 C155 1.307 . S
O146 Zn139 1.919 . S
O146 C157 1.253 . S
O147 Zn141 1.941 . S
O147 C157 1.283 . S
O148 Zn141 1.965 . S
O148 C156 1.303 . S
O149 Zn142 1.938 . S
O149 C156 1.247 . S
O150 Zn142 1.906 . S
O150 C158 1.304 . S
O151 Zn139 1.924 . S
O151 C159 1.311 . S
O152 Zn143 1.977 . S
O152 C158 1.272 . S
O153 Zn143 1.910 . S
O153 C159 1.231 . S
C154 O138 1.225 . S
C154 O160 1.298 . S
C155 O144 1.226 . S
C155 O145 1.307 . S
C156 O148 1.303 . S
C156 O149 1.247 . S
C157 O146 1.253 . S
C157 O147 1.283 . S
C158 O150 1.304 . S
C158 O152 1.272 . S
C159 O151 1.311 . S
C159 O153 1.231 . S
O160 Zn142 1.953 . S
O160 C154 1.298 . S
O161 Zn162 1.953 1_455 S
O161 C177 1.225 1_455 S
Zn162 O161 1.953 1_655 S
Zn162 O163 1.949 . S
Zn162 O169 1.919 1_655 S
Zn162 O174 1.924 . S
O163 Zn162 1.949 . S
O163 Zn164 1.923 . S
O163 Zn165 1.950 . S
O163 Zn166 1.945 . S
Zn164 O163 1.923 . S
Zn164 O167 1.933 . S
Zn164 O170 1.941 . S
Zn164 O171 1.965 . S
Zn165 O163 1.950 . S
Zn165 O172 1.938 . S
Zn165 O173 1.906 . S
Zn165 O183 1.953 . S
Zn166 O163 1.945 . S
Zn166 O168 1.932 . S
Zn166 O175 1.977 . S
Zn166 O176 1.910 . S
O167 Zn164 1.933 . S
O167 C178 1.226 . S
O168 Zn166 1.932 . S
O168 C178 1.307 . S
O169 Zn162 1.919 1_455 S
O169 C180 1.253 . S
O170 Zn164 1.941 . S
O170 C180 1.283 1_655 S
O171 Zn164 1.965 . S
O171 C179 1.303 . S
O172 Zn165 1.938 . S
O172 C179 1.247 . S
O173 Zn165 1.906 . S
O173 C181 1.304 . S
O174 Zn162 1.924 . S
O174 C182 1.311 . S
O175 Zn166 1.977 . S
O175 C181 1.272 . S
O176 Zn166 1.910 . S
O176 C182 1.231 . S
C177 O161 1.225 1_655 S
C177 O183 1.298 . S
C178 O167 1.226 . S
C178 O168 1.307 . S
C179 O171 1.303 . S
C179 O172 1.247 . S
C180 O169 1.253 . S
C180 O170 1.283 1_455 S
C181 O173 1.304 . S
C181 O175 1.272 . S
C182 O174 1.311 . S
C182 O176 1.231 . S
O183 Zn165 1.953 . S
O183 C177 1.298 . S
O184 Zn185 1.953 . S
O184 C200 1.225 . S
Zn185 O184 1.953 . S
Zn185 O186 1.949 . S
Zn185 O192 1.919 . S
Zn185 O197 1.924 . S
O186 Zn185 1.949 . S
O186 Zn187 1.923 1_655 S
O186 Zn188 1.950 1_655 S
O186 Zn189 1.945 . S
Zn187 O186 1.923 1_455 S
Zn187 O190 1.933 . S
Zn187 O193 1.941 . S
Zn187 O194 1.965 . S
Zn188 O186 1.950 1_455 S
Zn188 O195 1.938 . S
Zn188 O196 1.906 . S
Zn188 O206 1.953 1_455 S
Zn189 O186 1.945 . S
Zn189 O191 1.932 . S
Zn189 O198 1.977 . S
Zn189 O199 1.910 . S
O190 Zn187 1.933 . S
O190 C201 1.226 1_455 S
O191 Zn189 1.932 . S
O191 C201 1.307 . S
O192 Zn185 1.919 . S
O192 C203 1.253 . S
O193 Zn187 1.941 . S
O193 C203 1.283 1_455 S
O194 Zn187 1.965 . S
O194 C202 1.303 . S
O195 Zn188 1.938 . S
O195 C202 1.247 . S
O196 Zn188 1.906 . S
O196 C204 1.304 . S
O197 Zn185 1.924 . S
O197 C205 1.311 . S
O198 Zn189 1.977 . S
O198 C204 1.272 1_655 S
O199 Zn189 1.910 . S
O199 C205 1.231 . S
C200 O184 1.225 . S
C200 O206 1.298 . S
C201 O190 1.226 1_655 S
C201 O191 1.307 . S
C202 O194 1.303 . S
C202 O195 1.247 . S
C203 O192 1.253 . S
C203 O193 1.283 1_655 S
C204 O196 1.304 . S
C204 O198 1.272 1_455 S
C205 O197 1.311 . S
C205 O199 1.231 . S
O206 Zn188 1.953 1_655 S
O206 C200 1.298 . S
O207 Zn208 1.953 1_655 S
O207 C223 1.225 1_655 S
Zn208 O207 1.953 1_455 S
Zn208 O209 1.949 . S
Zn208 O215 1.919 1_455 S
Zn208 O220 1.924 . S
O209 Zn208 1.949 . S
O209 Zn210 1.923 1_565 S
O209 Zn211 1.950 1_565 S
O209 Zn212 1.945 . S
Zn210 O209 1.923 1_545 S
Zn210 O213 1.933 . S
Zn210 O216 1.941 . S
Zn210 O217 1.965 . S
Zn211 O209 1.950 1_545 S
Zn211 O218 1.938 . S
Zn211 O219 1.906 . S
Zn211 O229 1.953 1_545 S
Zn212 O209 1.945 . S
Zn212 O214 1.932 . S
Zn212 O221 1.977 . S
Zn212 O222 1.910 . S
O213 Zn210 1.933 . S
O213 C224 1.226 1_545 S
O214 Zn212 1.932 . S
O214 C224 1.307 . S
O215 Zn208 1.919 1_655 S
O215 C226 1.253 . S
O216 Zn210 1.941 . S
O216 C226 1.283 1_445 S
O217 Zn210 1.965 . S
O217 C225 1.303 . S
O218 Zn211 1.938 . S
O218 C225 1.247 . S
O219 Zn211 1.906 . S
O219 C227 1.304 . S
O220 Zn208 1.924 . S
O220 C228 1.311 . S
O221 Zn212 1.977 . S
O221 C227 1.272 1_565 S
O222 Zn212 1.910 . S
O222 C228 1.231 . S
C223 O207 1.225 1_455 S
C223 O229 1.298 . S
C224 O213 1.226 1_565 S
C224 O214 1.307 . S
C225 O217 1.303 . S
C225 O218 1.247 . S
C226 O215 1.253 . S
C226 O216 1.283 1_665 S
C227 O219 1.304 . S
C227 O221 1.272 1_545 S
C228 O220 1.311 . S
C228 O222 1.231 . S
O229 Zn211 1.953 1_565 S
O229 C223 1.298 . S
O230 Zn231 1.953 1_565 S
O230 C246 1.225 1_565 S
Zn231 O230 1.953 1_545 S
Zn231 O232 1.949 . S
Zn231 O238 1.919 1_545 S
Zn231 O243 1.924 . S
O232 Zn231 1.949 . S
O232 Zn233 1.923 . S
O232 Zn234 1.950 . S
O232 Zn235 1.945 . S
Zn233 O232 1.923 . S
Zn233 O236 1.933 . S
Zn233 O239 1.941 . S
Zn233 O240 1.965 . S
Zn234 O232 1.950 . S
Zn234 O241 1.938 . S
Zn234 O242 1.906 . S
Zn234 O252 1.953 . S
Zn235 O232 1.945 . S
Zn235 O237 1.932 . S
Zn235 O244 1.977 . S
Zn235 O245 1.910 . S
O236 Zn233 1.933 . S
O236 C247 1.226 . S
O237 Zn235 1.932 . S
O237 C247 1.307 . S
O238 Zn231 1.919 1_565 S
O238 C249 1.253 . S
O239 Zn233 1.941 . S
O239 C249 1.283 1_545 S
O240 Zn233 1.965 . S
O240 C248 1.303 . S
O241 Zn234 1.938 . S
O241 C248 1.247 . S
O242 Zn234 1.906 . S
O242 C250 1.304 . S
O243 Zn231 1.924 . S
O243 C251 1.311 . S
O244 Zn235 1.977 . S
O244 C250 1.272 . S
O245 Zn235 1.910 . S
O245 C251 1.231 . S
C246 O230 1.225 1_545 S
C246 O252 1.298 . S
C247 O236 1.226 . S
C247 O237 1.307 . S
C248 O240 1.303 . S
C248 O241 1.247 . S
C249 O238 1.253 . S
C249 O239 1.283 1_565 S
C250 O242 1.304 . S
C250 O244 1.272 . S
C251 O243 1.311 . S
C251 O245 1.231 . S
O252 Zn234 1.953 . S
O252 C246 1.298 . S
O253 Zn254 1.953 . S
O253 C269 1.225 . S
Zn254 O253 1.953 . S
Zn254 O255 1.949 . S
Zn254 O261 1.919 . S
Zn254 O266 1.924 . S
O255 Zn254 1.949 . S
O255 Zn256 1.923 . S
O255 Zn257 1.950 . S
O255 Zn258 1.945 . S
Zn256 O255 1.923 . S
Zn256 O259 1.933 . S
Zn256 O262 1.941 . S
Zn256 O263 1.965 . S
Zn257 O255 1.950 . S
Zn257 O264 1.938 . S
Zn257 O265 1.906 . S
Zn257 O275 1.953 . S
Zn258 O255 1.945 . S
Zn258 O260 1.932 . S
Zn258 O267 1.977 . S
Zn258 O268 1.910 . S
O259 Zn256 1.933 . S
O259 C270 1.226 . S
O260 Zn258 1.932 . S
O260 C270 1.307 . S
O261 Zn254 1.919 . S
O261 C272 1.253 . S
O262 Zn256 1.941 . S
O262 C272 1.283 . S
O263 Zn256 1.965 . S
O263 C271 1.303 . S
O264 Zn257 1.938 . S
O264 C271 1.247 . S
O265 Zn257 1.906 . S
O265 C273 1.304 . S
O266 Zn254 1.924 . S
O266 C274 1.311 . S
O267 Zn258 1.977 . S
O267 C273 1.272 . S
O268 Zn258 1.910 . S
O268 C274 1.231 . S
C269 O253 1.225 . S
C269 O275 1.298 . S
C270 O259 1.226 . S
C270 O260 1.307 . S
C271 O263 1.303 . S
C271 O264 1.247 . S
C272 O261 1.253 . S
C272 O262 1.283 . S
C273 O265 1.304 . S
C273 O267 1.272 . S
C274 O266 1.311 . S
C274 O268 1.231 . S
O275 Zn257 1.953 . S
O275 C269 1.298 . S
O276 Zn277 1.953 1_565 S
O276 C292 1.225 1_565 S
Zn277 O276 1.953 1_545 S
Zn277 O278 1.949 . S
Zn277 O284 1.919 1_545 S
Zn277 O289 1.924 . S
O278 Zn277 1.949 . S
O278 Zn279 1.923 1_655 S
O278 Zn280 1.950 1_655 S
O278 Zn281 1.945 . S
Zn279 O278 1.923 1_455 S
Zn279 O282 1.933 . S
Zn279 O285 1.941 . S
Zn279 O286 1.965 . S
Zn280 O278 1.950 1_455 S
Zn280 O287 1.938 . S
Zn280 O288 1.906 . S
Zn280 O298 1.953 1_455 S
Zn281 O278 1.945 . S
Zn281 O283 1.932 . S
Zn281 O290 1.977 . S
Zn281 O291 1.910 . S
O282 Zn279 1.933 . S
O282 C293 1.226 1_455 S
O283 Zn281 1.932 . S
O283 C293 1.307 . S
O284 Zn277 1.919 1_565 S
O284 C295 1.253 . S
O285 Zn279 1.941 . S
O285 C295 1.283 1_445 S
O286 Zn279 1.965 . S
O286 C294 1.303 . S
O287 Zn280 1.938 . S
O287 C294 1.247 . S
O288 Zn280 1.906 . S
O288 C296 1.304 . S
O289 Zn277 1.924 . S
O289 C297 1.311 . S
O290 Zn281 1.977 . S
O290 C296 1.272 1_655 S
O291 Zn281 1.910 . S
O291 C297 1.231 . S
C292 O276 1.225 1_545 S
C292 O298 1.298 . S
C293 O282 1.226 1_655 S
C293 O283 1.307 . S
C294 O286 1.303 . S
C294 O287 1.247 . S
C295 O284 1.253 . S
C295 O285 1.283 1_665 S
C296 O288 1.304 . S
C296 O290 1.272 1_455 S
C297 O289 1.311 . S
C297 O291 1.231 . S
O298 Zn280 1.953 1_655 S
O298 C292 1.298 . S
O299 Zn300 1.953 . S
O299 C315 1.225 . S
Zn300 O299 1.953 . S
Zn300 O301 1.949 . S
Zn300 O307 1.919 . S
Zn300 O312 1.924 . S
O301 Zn300 1.949 . S
O301 Zn302 1.923 1_565 S
O301 Zn303 1.950 1_565 S
O301 Zn304 1.945 . S
Zn302 O301 1.923 1_545 S
Zn302 O305 1.933 . S
Zn302 O308 1.941 . S
Zn302 O309 1.965 . S
Zn303 O301 1.950 1_545 S
Zn303 O310 1.938 . S
Zn303 O311 1.906 . S
Zn303 O321 1.953 1_545 S
Zn304 O301 1.945 . S
Zn304 O306 1.932 . S
Zn304 O313 1.977 . S
Zn304 O314 1.910 . S
O305 Zn302 1.933 . S
O305 C316 1.226 1_545 S
O306 Zn304 1.932 . S
O306 C316 1.307 . S
O307 Zn300 1.919 . S
O307 C318 1.253 . S
O308 Zn302 1.941 . S
O308 C318 1.283 1_545 S
O309 Zn302 1.965 . S
O309 C317 1.303 . S
O310 Zn303 1.938 . S
O310 C317 1.247 . S
O311 Zn303 1.906 . S
O311 C319 1.304 . S
O312 Zn300 1.924 . S
O312 C320 1.311 . S
O313 Zn304 1.977 . S
O313 C319 1.272 1_565 S
O314 Zn304 1.910 . S
O314 C320 1.231 . S
C315 O299 1.225 . S
C315 O321 1.298 . S
C316 O305 1.226 1_565 S
C316 O306 1.307 . S
C317 O309 1.303 . S
C317 O310 1.247 . S
C318 O307 1.253 . S
C318 O308 1.283 1_565 S
C319 O311 1.304 . S
C319 O313 1.272 1_545 S
C320 O312 1.311 . S
C320 O314 1.231 . S
O321 Zn303 1.953 1_565 S
O321 C315 1.298 . S
O322 Zn323 1.953 . S
O322 C338 1.225 . S
Zn323 O322 1.953 . S
Zn323 O324 1.949 . S
Zn323 O330 1.919 . S
Zn323 O335 1.924 . S
O324 Zn323 1.949 . S
O324 Zn325 1.923 . S
O324 Zn326 1.950 . S
O324 Zn327 1.945 . S
Zn325 O324 1.923 . S
Zn325 O328 1.933 . S
Zn325 O331 1.941 . S
Zn325 O332 1.965 . S
Zn326 O324 1.950 . S
Zn326 O333 1.938 . S
Zn326 O334 1.906 . S
Zn326 O344 1.953 . S
Zn327 O324 1.945 . S
Zn327 O329 1.932 . S
Zn327 O336 1.977 . S
Zn327 O337 1.910 . S
O328 Zn325 1.933 . S
O328 C339 1.226 . S
O329 Zn327 1.932 . S
O329 C339 1.307 . S
O330 Zn323 1.919 . S
O330 C341 1.253 . S
O331 Zn325 1.941 . S
O331 C341 1.283 . S
O332 Zn325 1.965 . S
O332 C340 1.303 . S
O333 Zn326 1.938 . S
O333 C340 1.247 . S
O334 Zn326 1.906 . S
O334 C342 1.304 . S
O335 Zn323 1.924 . S
O335 C343 1.311 . S
O336 Zn327 1.977 . S
O336 C342 1.272 . S
O337 Zn327 1.910 . S
O337 C343 1.231 . S
C338 O322 1.225 . S
C338 O344 1.298 . S
C339 O328 1.226 . S
C339 O329 1.307 . S
C340 O332 1.303 . S
C340 O333 1.247 . S
C341 O330 1.253 . S
C341 O331 1.283 . S
C342 O334 1.304 . S
C342 O336 1.272 . S
C343 O335 1.311 . S
C343 O337 1.231 . S
O344 Zn326 1.953 . S
O344 C338 1.298 . S
O345 Zn346 1.953 1_655 S
O345 C361 1.225 1_655 S
Zn346 O345 1.953 1_455 S
Zn346 O347 1.949 . S
Zn346 O353 1.919 1_455 S
Zn346 O358 1.924 . S
O347 Zn346 1.949 . S
O347 Zn348 1.923 . S
O347 Zn349 1.950 . S
O347 Zn350 1.945 . S
Zn348 O347 1.923 . S
Zn348 O351 1.933 . S
Zn348 O354 1.941 . S
Zn348 O355 1.965 . S
Zn349 O347 1.950 . S
Zn349 O356 1.938 . S
Zn349 O357 1.906 . S
Zn349 O367 1.953 . S
Zn350 O347 1.945 . S
Zn350 O352 1.932 . S
Zn350 O359 1.977 . S
Zn350 O360 1.910 . S
O351 Zn348 1.933 . S
O351 C362 1.226 . S
O352 Zn350 1.932 . S
O352 C362 1.307 . S
O353 Zn346 1.919 1_655 S
O353 C364 1.253 . S
O354 Zn348 1.941 . S
O354 C364 1.283 1_455 S
O355 Zn348 1.965 . S
O355 C363 1.303 . S
O356 Zn349 1.938 . S
O356 C363 1.247 . S
O357 Zn349 1.906 . S
O357 C365 1.304 . S
O358 Zn346 1.924 . S
O358 C366 1.311 . S
O359 Zn350 1.977 . S
O359 C365 1.272 . S
O360 Zn350 1.910 . S
O360 C366 1.231 . S
C361 O345 1.225 1_455 S
C361 O367 1.298 . S
C362 O351 1.226 . S
C362 O352 1.307 . S
C363 O355 1.303 . S
C363 O356 1.247 . S
C364 O353 1.253 . S
C364 O354 1.283 1_655 S
C365 O357 1.304 . S
C365 O359 1.272 . S
C366 O358 1.311 . S
C366 O360 1.231 . S
O367 Zn349 1.953 . S
O367 C361 1.298 . S
C89 C18 1.705 . S
C20 C41 1.705 . S
C64 C43 1.705 . S
C66 C87 1.705 . S
C110 C135 1.705 . S
C133 C158 1.705 . S
C156 C181 1.705 . S
C112 C179 1.705 . S
C202 C273 1.705 . S
C204 C225 1.705 . S
C227 C248 1.705 . S
C250 C271 1.705 . S
C294 C319 1.705 . S
C342 C317 1.705 . S
C365 C340 1.705 . S
C363 C296 1.705 . S
C17 C109 0.605 . S
C132 C40 0.605 . S
C63 C155 0.605 . S
C86 C178 0.606 . S
C293 C201 0.605 . S
C316 C224 0.605 . S
C247 C339 0.605 . S
C362 C270 0.606 . S
C21 C67 2.972 . S
C44 C90 2.971 . S
C159 C113 2.971 . S
C182 C136 2.972 . S
C251 C205 2.972 . S
C274 C228 2.971 . S
C297 C343 2.971 . S
C320 C366 2.972 . S
C200 C16 2.329 1_656 S
C223 C39 2.328 1_466 S
C246 C62 2.329 1_546 S
C85 C269 2.328 1_554 S
C292 C108 2.328 1_645 S
C315 C131 2.329 1_565 S
C338 C154 2.328 . S
C361 C177 2.329 1_455 S
C180 C19 2.503 . S
C111 C42 2.503 . S
C134 C65 2.503 . S
C157 C88 2.503 . S
C364 C203 2.503 . S
C295 C226 2.503 . S
C318 C249 2.503 . S
C272 C341 2.503 . S
