# Generated by pormake.
# Topology umq, (4)-cn, num edge types: 1
# Building blocks:
#     Node 0, Type 0, BuildingBlock: CEKHIL_clean_sbu_0, # of connection points: 4
#     Node 1, Type 0, BuildingBlock: CEKHIL_clean_sbu_0, # of connection points: 4
#     Node 2, Type 0, BuildingBlock: CEKHIL_clean_sbu_0, # of connection points: 4
#     Node 3, Type 0, BuildingBlock: CEKHIL_clean_sbu_0, # of connection points: 4
#     Node 4, Type 0, BuildingBlock: CEKHIL_clean_sbu_0, # of connection points: 4
#     Node 5, Type 0, BuildingBlock: CEKHIL_clean_sbu_0, # of connection points: 4
#     Node 6, Type 0, BuildingBlock: CEKHIL_clean_sbu_0, # of connection points: 4
#     Node 7, Type 0, BuildingBlock: CEKHIL_clean_sbu_0, # of connection points: 4
#     Node 8, Type 0, BuildingBlock: CEKHIL_clean_sbu_0, # of connection points: 4
#     Node 9, Type 0, BuildingBlock: CEKHIL_clean_sbu_0, # of connection points: 4
#     Node 10, Type 0, BuildingBlock: CEKHIL_clean_sbu_0, # of connection points: 4
#     Node 11, Type 0, BuildingBlock: CEKHIL_clean_sbu_0, # of connection points: 4
#     Node 12, Type 0, BuildingBlock: CEKHIL_clean_sbu_0, # of connection points: 4
#     Node 13, Type 0, BuildingBlock: CEKHIL_clean_sbu_0, # of connection points: 4
#     Node 14, Type 0, BuildingBlock: CEKHIL_clean_sbu_0, # of connection points: 4
#     Node 15, Type 0, BuildingBlock: CEKHIL_clean_sbu_0, # of connection points: 4
#     Node 16, Type 0, BuildingBlock: CEKHIL_clean_sbu_0, # of connection points: 4
#     Node 17, Type 0, BuildingBlock: CEKHIL_clean_sbu_0, # of connection points: 4
#     Node 18, Type 0, BuildingBlock: CEKHIL_clean_sbu_0, # of connection points: 4
#     Node 19, Type 0, BuildingBlock: CEKHIL_clean_sbu_0, # of connection points: 4
#     Node 20, Type 0, BuildingBlock: CEKHIL_clean_sbu_0, # of connection points: 4
#     Node 21, Type 0, BuildingBlock: CEKHIL_clean_sbu_0, # of connection points: 4
#     Node 22, Type 0, BuildingBlock: CEKHIL_clean_sbu_0, # of connection points: 4
#     Node 23, Type 0, BuildingBlock: CEKHIL_clean_sbu_0, # of connection points: 4
#     Node 24, Type 0, BuildingBlock: CEKHIL_clean_sbu_0, # of connection points: 4
#     Node 25, Type 0, BuildingBlock: CEKHIL_clean_sbu_0, # of connection points: 4
#     Node 26, Type 0, BuildingBlock: CEKHIL_clean_sbu_0, # of connection points: 4
#     Node 27, Type 0, BuildingBlock: CEKHIL_clean_sbu_0, # of connection points: 4
#     Node 28, Type 0, BuildingBlock: CEKHIL_clean_sbu_0, # of connection points: 4
#     Node 29, Type 0, BuildingBlock: CEKHIL_clean_sbu_0, # of connection points: 4
#     Node 30, Type 0, BuildingBlock: CEKHIL_clean_sbu_0, # of connection points: 4
#     Node 31, Type 0, BuildingBlock: CEKHIL_clean_sbu_0, # of connection points: 4
#     Edge 32, Type (0, 0), BuildingBlock: KIFKEQ_clean_linker_1, # of connection points: 2
#     Edge 33, Type (0, 0), BuildingBlock: KIFKEQ_clean_linker_1, # of connection points: 2
#     Edge 34, Type (0, 0), BuildingBlock: KIFKEQ_clean_linker_1, # of connection points: 2
#     Edge 35, Type (0, 0), BuildingBlock: KIFKEQ_clean_linker_1, # of connection points: 2
#     Edge 36, Type (0, 0), BuildingBlock: KIFKEQ_clean_linker_1, # of connection points: 2
#     Edge 37, Type (0, 0), BuildingBlock: KIFKEQ_clean_linker_1, # of connection points: 2
#     Edge 38, Type (0, 0), BuildingBlock: KIFKEQ_clean_linker_1, # of connection points: 2
#     Edge 39, Type (0, 0), BuildingBlock: KIFKEQ_clean_linker_1, # of connection points: 2
#     Edge 40, Type (0, 0), BuildingBlock: KIFKEQ_clean_linker_1, # of connection points: 2
#     Edge 41, Type (0, 0), BuildingBlock: KIFKEQ_clean_linker_1, # of connection points: 2
#     Edge 42, Type (0, 0), BuildingBlock: KIFKEQ_clean_linker_1, # of connection points: 2
#     Edge 43, Type (0, 0), BuildingBlock: KIFKEQ_clean_linker_1, # of connection points: 2
#     Edge 44, Type (0, 0), BuildingBlock: KIFKEQ_clean_linker_1, # of connection points: 2
#     Edge 45, Type (0, 0), BuildingBlock: KIFKEQ_clean_linker_1, # of connection points: 2
#     Edge 46, Type (0, 0), BuildingBlock: KIFKEQ_clean_linker_1, # of connection points: 2
#     Edge 47, Type (0, 0), BuildingBlock: KIFKEQ_clean_linker_1, # of connection points: 2
#     Edge 48, Type (0, 0), BuildingBlock: KIFKEQ_clean_linker_1, # of connection points: 2
#     Edge 49, Type (0, 0), BuildingBlock: KIFKEQ_clean_linker_1, # of connection points: 2
#     Edge 50, Type (0, 0), BuildingBlock: KIFKEQ_clean_linker_1, # of connection points: 2
#     Edge 51, Type (0, 0), BuildingBlock: KIFKEQ_clean_linker_1, # of connection points: 2
#     Edge 52, Type (0, 0), BuildingBlock: KIFKEQ_clean_linker_1, # of connection points: 2
#     Edge 53, Type (0, 0), BuildingBlock: KIFKEQ_clean_linker_1, # of connection points: 2
#     Edge 54, Type (0, 0), BuildingBlock: KIFKEQ_clean_linker_1, # of connection points: 2
#     Edge 55, Type (0, 0), BuildingBlock: KIFKEQ_clean_linker_1, # of connection points: 2
#     Edge 56, Type (0, 0), BuildingBlock: KIFKEQ_clean_linker_1, # of connection points: 2
#     Edge 57, Type (0, 0), BuildingBlock: KIFKEQ_clean_linker_1, # of connection points: 2
#     Edge 58, Type (0, 0), BuildingBlock: KIFKEQ_clean_linker_1, # of connection points: 2
#     Edge 59, Type (0, 0), BuildingBlock: KIFKEQ_clean_linker_1, # of connection points: 2
#     Edge 60, Type (0, 0), BuildingBlock: KIFKEQ_clean_linker_1, # of connection points: 2
#     Edge 61, Type (0, 0), BuildingBlock: KIFKEQ_clean_linker_1, # of connection points: 2
#     Edge 62, Type (0, 0), BuildingBlock: KIFKEQ_clean_linker_1, # of connection points: 2
#     Edge 63, Type (0, 0), BuildingBlock: KIFKEQ_clean_linker_1, # of connection points: 2
#     Edge 64, Type (0, 0), BuildingBlock: KIFKEQ_clean_linker_1, # of connection points: 2
#     Edge 65, Type (0, 0), BuildingBlock: KIFKEQ_clean_linker_1, # of connection points: 2
#     Edge 66, Type (0, 0), BuildingBlock: KIFKEQ_clean_linker_1, # of connection points: 2
#     Edge 67, Type (0, 0), BuildingBlock: KIFKEQ_clean_linker_1, # of connection points: 2
#     Edge 68, Type (0, 0), BuildingBlock: KIFKEQ_clean_linker_1, # of connection points: 2
#     Edge 69, Type (0, 0), BuildingBlock: KIFKEQ_clean_linker_1, # of connection points: 2
#     Edge 70, Type (0, 0), BuildingBlock: KIFKEQ_clean_linker_1, # of connection points: 2
#     Edge 71, Type (0, 0), BuildingBlock: KIFKEQ_clean_linker_1, # of connection points: 2
#     Edge 72, Type (0, 0), BuildingBlock: KIFKEQ_clean_linker_1, # of connection points: 2
#     Edge 73, Type (0, 0), BuildingBlock: KIFKEQ_clean_linker_1, # of connection points: 2
#     Edge 74, Type (0, 0), BuildingBlock: KIFKEQ_clean_linker_1, # of connection points: 2
#     Edge 75, Type (0, 0), BuildingBlock: KIFKEQ_clean_linker_1, # of connection points: 2
#     Edge 76, Type (0, 0), BuildingBlock: KIFKEQ_clean_linker_1, # of connection points: 2
#     Edge 77, Type (0, 0), BuildingBlock: KIFKEQ_clean_linker_1, # of connection points: 2
#     Edge 78, Type (0, 0), BuildingBlock: KIFKEQ_clean_linker_1, # of connection points: 2
#     Edge 79, Type (0, 0), BuildingBlock: KIFKEQ_clean_linker_1, # of connection points: 2
#     Edge 80, Type (0, 0), BuildingBlock: KIFKEQ_clean_linker_1, # of connection points: 2
#     Edge 81, Type (0, 0), BuildingBlock: KIFKEQ_clean_linker_1, # of connection points: 2
#     Edge 82, Type (0, 0), BuildingBlock: KIFKEQ_clean_linker_1, # of connection points: 2
#     Edge 83, Type (0, 0), BuildingBlock: KIFKEQ_clean_linker_1, # of connection points: 2
#     Edge 84, Type (0, 0), BuildingBlock: KIFKEQ_clean_linker_1, # of connection points: 2
#     Edge 85, Type (0, 0), BuildingBlock: KIFKEQ_clean_linker_1, # of connection points: 2
#     Edge 86, Type (0, 0), BuildingBlock: KIFKEQ_clean_linker_1, # of connection points: 2
#     Edge 87, Type (0, 0), BuildingBlock: KIFKEQ_clean_linker_1, # of connection points: 2
#     Edge 88, Type (0, 0), BuildingBlock: KIFKEQ_clean_linker_1, # of connection points: 2
#     Edge 89, Type (0, 0), BuildingBlock: KIFKEQ_clean_linker_1, # of connection points: 2
#     Edge 90, Type (0, 0), BuildingBlock: KIFKEQ_clean_linker_1, # of connection points: 2
#     Edge 91, Type (0, 0), BuildingBlock: KIFKEQ_clean_linker_1, # of connection points: 2
#     Edge 92, Type (0, 0), BuildingBlock: KIFKEQ_clean_linker_1, # of connection points: 2
#     Edge 93, Type (0, 0), BuildingBlock: KIFKEQ_clean_linker_1, # of connection points: 2
#     Edge 94, Type (0, 0), BuildingBlock: KIFKEQ_clean_linker_1, # of connection points: 2
#     Edge 95, Type (0, 0), BuildingBlock: KIFKEQ_clean_linker_1, # of connection points: 2
# Relax obj value: 0.078
# Max RMSD: 0.062
# Mean RMSD: 0.062
data_MOF--net-umq--node1-CEKHIL_clean_sbu_0--edge1-KIFKEQ_clean_linker_1
_symmetry_space_group_name_H-M    P1
_symmetry_Int_Tables_number       1
_symmetry_cell_setting            triclinic
loop_
_symmetry_equiv_pos_as_xyz
'x, y, z'
_cell_length_a     66.583815
_cell_length_b     66.584394
_cell_length_c     44.690405
_cell_angle_alpha  89.998681
_cell_angle_beta   89.98666
_cell_angle_gamma 90.007437
loop_
_atom_site_label
_atom_site_type_symbol
_atom_site_fract_x
_atom_site_fract_y
_atom_site_fract_z
_atom_type_partial_charge
Co0 Co 0.24473 0.09955 0.16439 0.0
O1 O 0.23062 0.07464 0.17204 0.0
O2 O 0.25545 0.08623 0.1998 0.0
C3 C 0.2488 0.09433 0.1145 0.0
O4 O 0.26383 0.12384 0.1624 0.0
Co5 Co 0.22707 0.13168 0.12095 0.0
O6 O 0.25485 0.14233 0.12242 0.0
C7 C 0.20985 0.12725 0.18144 0.0
C8 C 0.24263 0.0719 0.19451 0.0
C9 C 0.26713 0.13809 0.14338 0.0
O10 O 0.22436 0.1154 0.18924 0.0
O11 O 0.20745 0.13359 0.15464 0.0
O12 O 0.261 0.08594 0.13345 0.0
O13 O 0.23398 0.10386 0.12635 0.0
Co14 Co 0.91328 0.24682 0.16933 0.0
O15 O 0.93757 0.23146 0.17629 0.0
O16 O 0.92708 0.25627 0.20506 0.0
C17 C 0.91861 0.25146 0.11957 0.0
O18 O 0.89 0.26716 0.16851 0.0
Co19 Co 0.87993 0.23243 0.12533 0.0
O20 O 0.8718 0.26106 0.12706 0.0
C21 C 0.88379 0.21315 0.18466 0.0
C22 C 0.94085 0.24297 0.19921 0.0
C23 C 0.87658 0.27223 0.14908 0.0
O24 O 0.89654 0.22667 0.19327 0.0
O25 O 0.87703 0.2121 0.1579 0.0
O26 O 0.92761 0.26294 0.13891 0.0
O27 O 0.90825 0.23702 0.13091 0.0
Co28 Co 0.76707 0.91556 0.1683 0.0
O29 O 0.78157 0.93989 0.17813 0.0
O30 O 0.75596 0.92816 0.20408 0.0
C31 C 0.764 0.92281 0.11887 0.0
O32 O 0.7476 0.89162 0.1644 0.0
Co33 Co 0.78381 0.88471 0.12215 0.0
O34 O 0.756 0.87413 0.12322 0.0
C35 C 0.80123 0.88667 0.18318 0.0
C36 C 0.7692 0.94231 0.20024 0.0
C37 C 0.74397 0.87787 0.14471 0.0
O38 O 0.78713 0.89868 0.19216 0.0
O39 O 0.80316 0.88116 0.15588 0.0
O40 O 0.75128 0.93028 0.13793 0.0
O41 O 0.77837 0.9125 0.13037 0.0
Co42 Co 0.10045 0.76583 0.16545 0.0
O43 O 0.07542 0.77993 0.17245 0.0
O44 O 0.08714 0.75586 0.20146 0.0
C45 C 0.0951 0.76058 0.11577 0.0
O46 O 0.12504 0.74692 0.16443 0.0
Co47 Co 0.13215 0.78287 0.12032 0.0
O48 O 0.1456 0.75683 0.12712 0.0
C49 C 0.12929 0.8003 0.18099 0.0
C50 C 0.0727 0.76842 0.19549 0.0
C51 C 0.1409 0.74468 0.14803 0.0
O52 O 0.11631 0.78687 0.18923 0.0
O53 O 0.13568 0.80199 0.15412 0.0
O54 O 0.08686 0.74875 0.13538 0.0
O55 O 0.10455 0.77571 0.12678 0.0
Co56 Co 0.24343 0.91349 0.34121 0.0
O57 O 0.22954 0.93827 0.33223 0.0
O58 O 0.25417 0.92583 0.30493 0.0
C59 C 0.24739 0.92052 0.39055 0.0
O60 O 0.26234 0.88907 0.34454 0.0
Co61 Co 0.22606 0.88303 0.3874 0.0
O62 O 0.2533 0.87118 0.38505 0.0
C63 C 0.20848 0.88528 0.32663 0.0
C64 C 0.24153 0.94041 0.3096 0.0
C65 C 0.26546 0.87484 0.36368 0.0
O66 O 0.22269 0.89719 0.31774 0.0
O67 O 0.20652 0.8797 0.35388 0.0
O68 O 0.26002 0.92771 0.37113 0.0
O69 O 0.23257 0.91065 0.37944 0.0
Co70 Co 0.10085 0.24541 0.34173 0.0
O71 O 0.0764 0.23051 0.33414 0.0
O72 O 0.08744 0.25533 0.30589 0.0
C73 C 0.09512 0.24981 0.39142 0.0
O74 O 0.12456 0.26528 0.34349 0.0
Co75 Co 0.13336 0.22963 0.38607 0.0
O76 O 0.14239 0.25799 0.38488 0.0
C77 C 0.12963 0.21114 0.3262 0.0
C78 C 0.07344 0.24219 0.31134 0.0
C79 C 0.13807 0.26965 0.36319 0.0
O80 O 0.11736 0.22513 0.31772 0.0
O81 O 0.13607 0.20955 0.35308 0.0
O82 O 0.08656 0.2616 0.37206 0.0
O83 O 0.10526 0.23521 0.38009 0.0
Co84 Co 0.76688 0.10197 0.3445 0.0
O85 O 0.78123 0.07746 0.33525 0.0
O86 O 0.75555 0.08895 0.30921 0.0
C87 C 0.76361 0.09586 0.39428 0.0
O88 O 0.74766 0.12615 0.34818 0.0
Co89 Co 0.78543 0.13329 0.38854 0.0
O90 O 0.75831 0.14539 0.38645 0.0
C91 C 0.80186 0.12944 0.32756 0.0
C92 C 0.76879 0.07482 0.31327 0.0
C93 C 0.74537 0.14107 0.36641 0.0
O94 O 0.78681 0.11832 0.31958 0.0
O95 O 0.80487 0.13495 0.35462 0.0
O96 O 0.75119 0.08772 0.37543 0.0
O97 O 0.77823 0.10563 0.38231 0.0
Co98 Co 0.9134 0.76843 0.34086 0.0
O99 O 0.93795 0.78259 0.33122 0.0
O100 O 0.92585 0.75744 0.30473 0.0
C101 C 0.92084 0.76515 0.39028 0.0
O102 O 0.88919 0.74923 0.34498 0.0
Co103 Co 0.88306 0.78575 0.38752 0.0
O104 O 0.87153 0.75841 0.38566 0.0
C105 C 0.88308 0.80145 0.32539 0.0
C106 C 0.94028 0.77034 0.30897 0.0
C107 C 0.87502 0.74621 0.36429 0.0
O108 O 0.89654 0.78855 0.31699 0.0
O109 O 0.87713 0.80329 0.35248 0.0
O110 O 0.92805 0.75241 0.37105 0.0
O111 O 0.91067 0.77969 0.37895 0.0
Co112 Co 0.7682 0.9112 0.84424 0.0
O113 O 0.782 0.93622 0.83658 0.0
O114 O 0.75761 0.92422 0.80838 0.0
C115 C 0.7635 0.91672 0.89389 0.0
O116 O 0.74959 0.88649 0.8465 0.0
Co117 Co 0.78691 0.8801 0.88851 0.0
O118 O 0.76022 0.86724 0.8848 0.0
C119 C 0.80393 0.88425 0.828 0.0
C120 C 0.77019 0.93874 0.81385 0.0
C121 C 0.7475 0.87133 0.86433 0.0
O122 O 0.78903 0.89554 0.81996 0.0
O123 O 0.80666 0.87847 0.855 0.0
O124 O 0.75136 0.92474 0.87452 0.0
O125 O 0.77869 0.9075 0.88255 0.0
Co126 Co 0.0986 0.76717 0.84162 0.0
O127 O 0.07481 0.78242 0.8313 0.0
O128 O 0.08605 0.75645 0.80565 0.0
C129 C 0.09089 0.76422 0.89093 0.0
O130 O 0.12184 0.74694 0.84582 0.0
Co131 Co 0.12984 0.7824 0.88828 0.0
O132 O 0.13853 0.75395 0.88826 0.0
C133 C 0.13033 0.79881 0.82646 0.0
C134 C 0.07224 0.77007 0.80918 0.0
C135 C 0.13481 0.7424 0.86622 0.0
O136 O 0.11633 0.78655 0.81795 0.0
O137 O 0.13661 0.79999 0.85348 0.0
O138 O 0.08313 0.75187 0.8716 0.0
O139 O 0.1018 0.7783 0.87975 0.0
Co140 Co 0.24465 0.09929 0.83937 0.0
O141 O 0.23074 0.07459 0.82986 0.0
O142 O 0.2561 0.08666 0.80375 0.0
C143 C 0.24792 0.09246 0.88896 0.0
O144 O 0.2634 0.12386 0.8432 0.0
Co145 Co 0.22611 0.12966 0.88483 0.0
O146 O 0.25266 0.14288 0.88166 0.0
C147 C 0.2095 0.12684 0.82356 0.0
C148 C 0.24313 0.07227 0.80776 0.0
C149 C 0.26542 0.13895 0.86119 0.0
O150 O 0.22427 0.11551 0.81504 0.0
O151 O 0.20683 0.13208 0.85083 0.0
O152 O 0.26079 0.08519 0.86998 0.0
O153 O 0.23321 0.10217 0.87726 0.0
Co154 Co 0.91271 0.24556 0.84512 0.0
O155 O 0.93715 0.23102 0.83624 0.0
O156 O 0.92531 0.25583 0.80873 0.0
C157 C 0.91994 0.24949 0.89444 0.0
O158 O 0.88876 0.26511 0.84823 0.0
Co159 Co 0.88168 0.22969 0.89156 0.0
O160 O 0.87219 0.2579 0.89075 0.0
C161 C 0.88309 0.21174 0.8308 0.0
C162 C 0.93959 0.24286 0.81351 0.0
C163 C 0.87567 0.26945 0.8686 0.0
O164 O 0.89588 0.22515 0.82186 0.0
O165 O 0.87709 0.21042 0.85795 0.0
O166 O 0.9274 0.26187 0.87489 0.0
O167 O 0.90957 0.23495 0.88349 0.0
Co168 Co 0.76938 0.09779 0.66893 0.0
O169 O 0.7841 0.07354 0.67837 0.0
O170 O 0.75869 0.08511 0.70493 0.0
C171 C 0.76624 0.09044 0.61953 0.0
O172 O 0.74954 0.12139 0.66525 0.0
Co173 Co 0.78511 0.12899 0.62259 0.0
O174 O 0.75674 0.13798 0.62278 0.0
C175 C 0.80173 0.12878 0.68432 0.0
C176 C 0.77184 0.07095 0.70059 0.0
C177 C 0.74512 0.13438 0.64481 0.0
O178 O 0.78913 0.11506 0.6928 0.0
O179 O 0.80308 0.13494 0.65725 0.0
O180 O 0.7537 0.08285 0.63873 0.0
O181 O 0.78049 0.10104 0.63083 0.0
Co182 Co 0.91252 0.76662 0.66563 0.0
O183 O 0.93667 0.78176 0.67441 0.0
O184 O 0.92603 0.75584 0.70076 0.0
C185 C 0.91839 0.76343 0.61577 0.0
O186 O 0.88909 0.74649 0.66277 0.0
Co187 Co 0.87989 0.78286 0.62184 0.0
O188 O 0.87084 0.7545 0.6221 0.0
C189 C 0.8836 0.80036 0.68242 0.0
C190 C 0.93976 0.76944 0.69643 0.0
C191 C 0.8754 0.74244 0.64318 0.0
O192 O 0.89571 0.78615 0.69054 0.0
O193 O 0.87732 0.80243 0.65552 0.0
O194 O 0.92708 0.75134 0.63457 0.0
O195 O 0.90806 0.77765 0.62778 0.0
Co196 Co 0.24518 0.91173 0.66541 0.0
O197 O 0.23111 0.93651 0.67406 0.0
O198 O 0.25628 0.92475 0.70089 0.0
C199 C 0.24918 0.91759 0.61565 0.0
O200 O 0.26401 0.88719 0.66242 0.0
Co201 Co 0.22661 0.88068 0.62082 0.0
O202 O 0.25314 0.8676 0.62464 0.0
C203 C 0.20988 0.8843 0.68173 0.0
C204 C 0.24333 0.93908 0.69631 0.0
C205 C 0.26594 0.87183 0.6449 0.0
O206 O 0.22469 0.89569 0.68994 0.0
O207 O 0.20717 0.87881 0.6546 0.0
O208 O 0.26149 0.92563 0.63477 0.0
O209 O 0.23426 0.90815 0.62731 0.0
Co210 Co 0.09759 0.24503 0.66592 0.0
O211 O 0.07345 0.23005 0.67521 0.0
O212 O 0.08483 0.25542 0.70203 0.0
C213 C 0.09026 0.24825 0.61653 0.0
O214 O 0.12102 0.26512 0.6626 0.0
Co215 Co 0.12919 0.23025 0.61954 0.0
O216 O 0.1372 0.25891 0.61945 0.0
C217 C 0.12935 0.21346 0.6812 0.0
C218 C 0.07079 0.24215 0.69761 0.0
C219 C 0.13361 0.27012 0.64192 0.0
O220 O 0.11498 0.22533 0.68959 0.0
O221 O 0.13601 0.2127 0.65434 0.0
O222 O 0.08253 0.26066 0.63582 0.0
O223 O 0.10108 0.23412 0.62773 0.0
Co224 Co 0.74459 0.59906 0.66808 0.0
O225 O 0.73006 0.57498 0.67882 0.0
O226 O 0.75606 0.58671 0.70386 0.0
C227 C 0.74729 0.59121 0.61876 0.0
O228 O 0.76402 0.62294 0.66285 0.0
Co229 Co 0.72681 0.62916 0.62151 0.0
O230 O 0.75417 0.6407 0.62261 0.0
C231 C 0.71194 0.62967 0.68409 0.0
C232 C 0.74268 0.5726 0.70059 0.0
C233 C 0.76672 0.63713 0.64348 0.0
O234 O 0.72507 0.6164 0.69229 0.0
O235 O 0.70961 0.63528 0.65691 0.0
O236 O 0.76004 0.58392 0.63787 0.0
O237 O 0.73291 0.60158 0.63022 0.0
Co238 Co 0.41415 0.74555 0.66575 0.0
O239 O 0.43842 0.7311 0.6757 0.0
O240 O 0.42709 0.7573 0.70077 0.0
C241 C 0.42074 0.74781 0.616 0.0
O242 O 0.39024 0.76486 0.66133 0.0
Co243 Co 0.38287 0.72696 0.62188 0.0
O244 O 0.37188 0.7547 0.62185 0.0
C245 C 0.38613 0.71137 0.68347 0.0
C246 C 0.44106 0.74381 0.69731 0.0
C247 C 0.37602 0.76757 0.64209 0.0
O248 O 0.39743 0.72631 0.69114 0.0
O249 O 0.38063 0.70797 0.6565 0.0
O250 O 0.42859 0.76068 0.63446 0.0
O251 O 0.41069 0.73352 0.62834 0.0
Co252 Co 0.26705 0.41091 0.66604 0.0
O253 O 0.28138 0.43547 0.67514 0.0
O254 O 0.2557 0.42401 0.70123 0.0
C255 C 0.26376 0.41691 0.61626 0.0
O256 O 0.24775 0.3868 0.6625 0.0
Co257 Co 0.28529 0.37939 0.62204 0.0
O258 O 0.25795 0.36778 0.62374 0.0
C259 C 0.30199 0.38336 0.68287 0.0
C260 C 0.26887 0.43818 0.69702 0.0
C261 C 0.24514 0.37212 0.64395 0.0
O262 O 0.28704 0.39458 0.69098 0.0
O263 O 0.30479 0.37773 0.65582 0.0
O264 O 0.25136 0.4251 0.63509 0.0
O265 O 0.27837 0.40713 0.62824 0.0
Co266 Co 0.60149 0.26567 0.66699 0.0
O267 O 0.57663 0.2798 0.6748 0.0
O268 O 0.58849 0.25539 0.70307 0.0
C269 C 0.59551 0.26084 0.61742 0.0
O270 O 0.62596 0.24667 0.66483 0.0
Co271 Co 0.63266 0.28303 0.62144 0.0
O272 O 0.64492 0.25615 0.62555 0.0
C273 C 0.63082 0.29972 0.68266 0.0
C274 C 0.57403 0.26803 0.69759 0.0
C275 C 0.64093 0.244 0.64679 0.0
O276 O 0.61767 0.28644 0.6908 0.0
O277 O 0.63714 0.30153 0.65576 0.0
O278 O 0.58751 0.24887 0.63704 0.0
O279 O 0.60511 0.27589 0.62843 0.0
Co280 Co 0.74432 0.41292 0.84459 0.0
O281 O 0.73022 0.43741 0.83468 0.0
O282 O 0.75574 0.42541 0.80885 0.0
C283 C 0.74739 0.42026 0.894 0.0
O284 O 0.76328 0.38856 0.84894 0.0
Co285 Co 0.72605 0.38273 0.89048 0.0
O286 O 0.75294 0.37014 0.88825 0.0
C287 C 0.70958 0.38474 0.82901 0.0
C288 C 0.74266 0.43973 0.81265 0.0
C289 C 0.76562 0.37388 0.86759 0.0
O290 O 0.72411 0.39638 0.82045 0.0
O291 O 0.70701 0.37951 0.85631 0.0
O292 O 0.76028 0.42742 0.87495 0.0
O293 O 0.7328 0.41027 0.88247 0.0
Co294 Co 0.59914 0.74512 0.8443 0.0
O295 O 0.57499 0.73048 0.83409 0.0
O296 O 0.58692 0.75606 0.80821 0.0
C297 C 0.59142 0.74844 0.89356 0.0
O298 O 0.62291 0.76468 0.8485 0.0
Co299 Co 0.62972 0.72879 0.89107 0.0
O300 O 0.63969 0.75685 0.89058 0.0
C301 C 0.62886 0.71149 0.82986 0.0
C302 C 0.57276 0.7428 0.81187 0.0
C303 C 0.63618 0.76865 0.86873 0.0
O304 O 0.61636 0.72514 0.82086 0.0
O305 O 0.63441 0.70976 0.85717 0.0
O306 O 0.58405 0.76095 0.87414 0.0
O307 O 0.60191 0.73402 0.88247 0.0
Co308 Co 0.26597 0.5996 0.83697 0.0
O309 O 0.2802 0.57502 0.82794 0.0
O310 O 0.25404 0.58604 0.80253 0.0
C311 C 0.26346 0.59432 0.88703 0.0
O312 O 0.24697 0.62388 0.84087 0.0
Co313 Co 0.28622 0.63126 0.87884 0.0
O314 O 0.25931 0.64393 0.87709 0.0
C315 C 0.30085 0.62633 0.81732 0.0
C316 C 0.26744 0.57204 0.80649 0.0
C317 C 0.24562 0.63934 0.8583 0.0
O318 O 0.28526 0.61565 0.8106 0.0
O319 O 0.30506 0.63187 0.84399 0.0
O320 O 0.2508 0.58583 0.86888 0.0
O321 O 0.278 0.60374 0.8742 0.0
Co322 Co 0.41375 0.26595 0.84029 0.0
O323 O 0.43851 0.28006 0.83182 0.0
O324 O 0.42663 0.25527 0.80434 0.0
C325 C 0.42035 0.26217 0.88982 0.0
O326 O 0.38941 0.24687 0.84323 0.0
Co327 Co 0.38268 0.28306 0.88588 0.0
O328 O 0.37221 0.25519 0.88477 0.0
C329 C 0.38557 0.30074 0.82519 0.0
C330 C 0.44106 0.26804 0.80934 0.0
C331 C 0.37579 0.24322 0.86314 0.0
O332 O 0.39747 0.2865 0.81642 0.0
O333 O 0.37973 0.30269 0.85234 0.0
O334 O 0.42784 0.24957 0.87062 0.0
O335 O 0.41042 0.27684 0.87839 0.0
Co336 Co 0.26881 0.41328 0.34159 0.0
O337 O 0.28273 0.43795 0.3321 0.0
O338 O 0.25769 0.42561 0.30556 0.0
C339 C 0.26549 0.42048 0.39099 0.0
O340 O 0.24986 0.38891 0.34556 0.0
Co341 Co 0.28647 0.38288 0.38777 0.0
O342 O 0.25915 0.37127 0.38618 0.0
C343 C 0.30223 0.38353 0.32571 0.0
C344 C 0.27048 0.44013 0.30982 0.0
C345 C 0.2469 0.37475 0.36488 0.0
O346 O 0.28907 0.39677 0.31754 0.0
O347 O 0.30418 0.37742 0.35271 0.0
O348 O 0.25266 0.42765 0.37185 0.0
O349 O 0.28014 0.4105 0.37959 0.0
Co350 Co 0.59709 0.26748 0.34368 0.0
O351 O 0.57258 0.28179 0.33447 0.0
O352 O 0.58487 0.25709 0.30713 0.0
C353 C 0.58967 0.26345 0.39286 0.0
O354 O 0.62117 0.24819 0.34703 0.0
Co355 Co 0.62771 0.28356 0.39061 0.0
O356 O 0.63739 0.25539 0.38985 0.0
C357 C 0.62631 0.30168 0.32998 0.0
C358 C 0.57044 0.26992 0.3117 0.0
C359 C 0.63412 0.24389 0.36757 0.0
O360 O 0.61388 0.28804 0.32074 0.0
O361 O 0.63204 0.30308 0.35725 0.0
O362 O 0.5824 0.251 0.37325 0.0
O363 O 0.59993 0.2781 0.38204 0.0
Co364 Co 0.74528 0.60005 0.34396 0.0
O365 O 0.73024 0.5756 0.33664 0.0
O366 O 0.75493 0.58652 0.30804 0.0
C367 C 0.74984 0.5944 0.39365 0.0
O368 O 0.76536 0.62367 0.34525 0.0
Co369 Co 0.73036 0.63281 0.38858 0.0
O370 O 0.75877 0.64157 0.38683 0.0
C371 C 0.71135 0.62941 0.32895 0.0
C372 C 0.74181 0.57255 0.31371 0.0
C373 C 0.77011 0.63716 0.36482 0.0
O374 O 0.72486 0.61665 0.32026 0.0
O375 O 0.71029 0.636 0.3558 0.0
O376 O 0.76153 0.58573 0.37424 0.0
O377 O 0.73532 0.60465 0.3824 0.0
Co378 Co 0.41199 0.74587 0.34024 0.0
O379 O 0.43619 0.73048 0.33235 0.0
O380 O 0.42586 0.75595 0.30485 0.0
C381 C 0.41769 0.74933 0.39018 0.0
O382 O 0.3888 0.76644 0.34216 0.0
Co383 Co 0.37867 0.73144 0.38432 0.0
O384 O 0.37115 0.7602 0.38406 0.0
C385 C 0.38052 0.71431 0.32311 0.0
C386 C 0.43957 0.74247 0.31001 0.0
C387 C 0.37566 0.7715 0.36207 0.0
O388 O 0.39494 0.72637 0.31553 0.0
O389 O 0.37321 0.71347 0.34957 0.0
O390 O 0.4266 0.76119 0.37126 0.0
O391 O 0.40704 0.73529 0.37834 0.0
Co392 Co 0.26923 0.59834 0.16238 0.0
O393 O 0.28297 0.57342 0.17107 0.0
O394 O 0.25815 0.58569 0.19816 0.0
C395 C 0.26569 0.59188 0.11275 0.0
O396 O 0.2504 0.62282 0.15943 0.0
Co397 Co 0.28679 0.62935 0.11716 0.0
O398 O 0.25942 0.64095 0.11917 0.0
C399 C 0.30394 0.62649 0.17821 0.0
C400 C 0.27079 0.57111 0.19344 0.0
C401 C 0.24725 0.63713 0.14047 0.0
O402 O 0.28974 0.61443 0.18662 0.0
O403 O 0.30607 0.63237 0.15111 0.0
O404 O 0.25289 0.58448 0.13176 0.0
O405 O 0.2804 0.60162 0.1244 0.0
Co406 Co 0.41224 0.26761 0.16421 0.0
O407 O 0.43765 0.28093 0.17118 0.0
O408 O 0.42501 0.2574 0.20041 0.0
C409 C 0.41733 0.26182 0.11469 0.0
O410 O 0.38714 0.24952 0.16315 0.0
Co411 Co 0.38123 0.28592 0.11942 0.0
O412 O 0.36733 0.25996 0.12536 0.0
C413 C 0.38586 0.30404 0.17915 0.0
C414 C 0.43982 0.26952 0.19447 0.0
C415 C 0.37151 0.24757 0.14623 0.0
O416 O 0.39715 0.28927 0.18769 0.0
O417 O 0.37997 0.30624 0.1521 0.0
O418 O 0.42526 0.24989 0.13445 0.0
O419 O 0.40852 0.27741 0.1255 0.0
Co420 Co 0.7435 0.41317 0.16913 0.0
O421 O 0.72847 0.43738 0.17796 0.0
O422 O 0.75394 0.42635 0.20489 0.0
C423 C 0.74699 0.41948 0.1194 0.0
O424 O 0.76362 0.3897 0.16595 0.0
Co425 Co 0.72738 0.38114 0.12405 0.0
O426 O 0.75544 0.3715 0.12533 0.0
C427 C 0.7112 0.38223 0.1857 0.0
C428 C 0.74058 0.44029 0.20027 0.0
C429 C 0.76747 0.37579 0.14657 0.0
O430 O 0.72391 0.396 0.19359 0.0
O431 O 0.70952 0.37578 0.15886 0.0
O432 O 0.75901 0.42798 0.13851 0.0
O433 O 0.73268 0.40912 0.13104 0.0
Co434 Co 0.60035 0.74588 0.16806 0.0
O435 O 0.57555 0.73145 0.17539 0.0
O436 O 0.58708 0.75567 0.20426 0.0
C437 C 0.59466 0.75106 0.11843 0.0
O438 O 0.6247 0.76512 0.16657 0.0
Co439 Co 0.63191 0.72909 0.12255 0.0
O440 O 0.64458 0.75564 0.12825 0.0
C441 C 0.62948 0.71156 0.18314 0.0
C442 C 0.57278 0.74291 0.19848 0.0
C443 C 0.64013 0.76773 0.14937 0.0
O444 O 0.6166 0.72502 0.19162 0.0
O445 O 0.6356 0.70985 0.15613 0.0
O446 O 0.58638 0.76279 0.13812 0.0
O447 O 0.6043 0.73604 0.12936 0.0
H448 H 0.37727 0.21117 0.17557 0.0
H449 H 0.33296 0.2456 0.12699 0.0
H450 H 0.35375 0.18255 0.17731 0.0
H451 H 0.30994 0.21758 0.12896 0.0
H452 H 0.28459 0.15967 0.09907 0.0
H453 H 0.31107 0.18448 0.10296 0.0
H454 H 0.31778 0.17122 0.19694 0.0
H455 H 0.29097 0.14581 0.19302 0.0
C456 C 0.36254 0.21274 0.1656 0.0
C457 C 0.35721 0.23059 0.15063 0.0
C458 C 0.34908 0.19638 0.16664 0.0
C459 C 0.33015 0.19766 0.1527 0.0
C460 C 0.32459 0.21587 0.13922 0.0
C461 C 0.33787 0.23201 0.13814 0.0
C462 C 0.29174 0.16182 0.12061 0.0
C463 C 0.28534 0.15097 0.14587 0.0
C464 C 0.30695 0.17611 0.12283 0.0
C465 C 0.31624 0.18016 0.15039 0.0
C466 C 0.31084 0.16847 0.17541 0.0
C467 C 0.29549 0.15396 0.17316 0.0
H468 H 0.85878 0.28824 0.19933 0.0
H469 H 0.8688 0.29902 0.10538 0.0
H470 H 0.83445 0.316 0.20057 0.0
H471 H 0.84553 0.32714 0.10674 0.0
H472 H 0.78158 0.34915 0.10561 0.0
H473 H 0.81014 0.32716 0.10892 0.0
H474 H 0.8252 0.35191 0.1954 0.0
H475 H 0.79565 0.37403 0.19245 0.0
C476 C 0.85625 0.29696 0.17922 0.0
C477 C 0.86543 0.29136 0.15216 0.0
C478 C 0.84234 0.31288 0.1799 0.0
C479 C 0.83761 0.32355 0.15357 0.0
C480 C 0.84825 0.3189 0.12724 0.0
C481 C 0.86174 0.30287 0.12646 0.0
C482 C 0.7909 0.35013 0.12542 0.0
C483 C 0.78614 0.36346 0.14881 0.0
C484 C 0.80755 0.33754 0.12717 0.0
C485 C 0.82026 0.33784 0.15226 0.0
C486 C 0.81572 0.35124 0.17574 0.0
C487 C 0.79886 0.36401 0.17398 0.0
H488 H 0.63325 0.80499 0.17593 0.0
H489 H 0.67926 0.76927 0.13333 0.0
H490 H 0.65662 0.83381 0.17722 0.0
H491 H 0.70209 0.79747 0.1348 0.0
H492 H 0.72749 0.85462 0.10123 0.0
H493 H 0.70111 0.82976 0.10577 0.0
H494 H 0.69247 0.84592 0.19836 0.0
H495 H 0.71923 0.87133 0.19384 0.0
C496 C 0.64832 0.80318 0.16724 0.0
C497 C 0.65419 0.7849 0.15397 0.0
C498 C 0.66168 0.81966 0.16799 0.0
C499 C 0.68106 0.81804 0.15549 0.0
C500 C 0.68712 0.79942 0.14388 0.0
C501 C 0.67395 0.78319 0.14308 0.0
C502 C 0.71996 0.85312 0.1226 0.0
C503 C 0.72583 0.8648 0.14732 0.0
C504 C 0.70479 0.83879 0.12519 0.0
C505 C 0.69495 0.83556 0.15258 0.0
C506 C 0.69982 0.84803 0.17697 0.0
C507 C 0.71516 0.86254 0.17438 0.0
H508 H 0.23492 0.66613 0.10167 0.0
H509 H 0.21904 0.639 0.18633 0.0
H510 H 0.2083 0.69045 0.10766 0.0
H511 H 0.19195 0.66391 0.19229 0.0
H512 H 0.13351 0.70543 0.16629 0.0
H513 H 0.15803 0.67757 0.16721 0.0
H514 H 0.20521 0.71911 0.14365 0.0
H515 H 0.18114 0.74639 0.14234 0.0
C516 C 0.22573 0.66524 0.12162 0.0
C517 C 0.22947 0.65066 0.14373 0.0
C518 C 0.21041 0.67931 0.12505 0.0
C519 C 0.19821 0.67938 0.1507 0.0
C520 C 0.20115 0.66427 0.17231 0.0
C521 C 0.21669 0.65006 0.16891 0.0
C522 C 0.1492 0.70855 0.16184 0.0
C523 C 0.15532 0.72804 0.15367 0.0
C524 C 0.16321 0.69264 0.16237 0.0
C525 C 0.18349 0.69607 0.15483 0.0
C526 C 0.18964 0.71583 0.14879 0.0
C527 C 0.1758 0.7315 0.14809 0.0
H528 H 0.27627 0.84442 0.40106 0.0
H529 H 0.29568 0.87486 0.32065 0.0
H530 H 0.30483 0.8223 0.39811 0.0
H531 H 0.32504 0.85246 0.31805 0.0
H532 H 0.35998 0.78921 0.31129 0.0
H533 H 0.33487 0.81632 0.30971 0.0
H534 H 0.34041 0.82355 0.40539 0.0
H535 H 0.36466 0.7963 0.40696 0.0
C536 C 0.28671 0.84656 0.38274 0.0
C537 C 0.28355 0.86163 0.36116 0.0
C538 C 0.30331 0.83385 0.3812 0.0
C539 C 0.31753 0.83572 0.35812 0.0
C540 C 0.3144 0.8506 0.33617 0.0
C541 C 0.29762 0.86349 0.33774 0.0
C542 C 0.35611 0.79696 0.33179 0.0
C543 C 0.36407 0.79047 0.3593 0.0
C544 C 0.34172 0.81248 0.33092 0.0
C545 C 0.33521 0.82182 0.35754 0.0
C546 C 0.34455 0.81633 0.38457 0.0
C547 C 0.35859 0.80079 0.38546 0.0
H548 H 0.21547 0.37543 0.32379 0.0
H549 H 0.23796 0.34279 0.40041 0.0
H550 H 0.18659 0.35238 0.3214 0.0
H551 H 0.20992 0.32005 0.39758 0.0
H552 H 0.1508 0.29286 0.40893 0.0
H553 H 0.17468 0.3204 0.40753 0.0
H554 H 0.17711 0.31632 0.31114 0.0
H555 H 0.15233 0.28888 0.31261 0.0
C556 C 0.21431 0.36344 0.34008 0.0
C557 C 0.22907 0.36119 0.36245 0.0
C558 C 0.19781 0.35018 0.33862 0.0
C559 C 0.1957 0.33451 0.3596 0.0
C560 C 0.21065 0.33221 0.38152 0.0
C561 C 0.22693 0.34531 0.383 0.0
C562 C 0.15616 0.29803 0.38735 0.0
C563 C 0.14989 0.28851 0.36092 0.0
C564 C 0.16997 0.31377 0.38654 0.0
C565 C 0.1783 0.32027 0.35928 0.0
C566 C 0.17105 0.31168 0.33253 0.0
C567 C 0.15688 0.29596 0.33335 0.0
H568 H 0.73706 0.17369 0.40092 0.0
H569 H 0.71282 0.13916 0.32738 0.0
H570 H 0.70859 0.19593 0.399 0.0
H571 H 0.68354 0.16174 0.32589 0.0
H572 H 0.64789 0.22443 0.31687 0.0
H573 H 0.67329 0.19762 0.31481 0.0
H574 H 0.67356 0.19494 0.41136 0.0
H575 H 0.64897 0.22182 0.41335 0.0
C576 C 0.72558 0.17067 0.38436 0.0
C577 C 0.72734 0.15439 0.36442 0.0
C578 C 0.70905 0.18347 0.38342 0.0
C579 C 0.6935 0.18051 0.36264 0.0
C580 C 0.69524 0.16445 0.34223 0.0
C581 C 0.71197 0.15147 0.34317 0.0
C582 C 0.65318 0.21782 0.33757 0.0
C583 C 0.6467 0.2255 0.36529 0.0
C584 C 0.66771 0.20245 0.3364 0.0
C585 C 0.67585 0.19442 0.36294 0.0
C586 C 0.66812 0.20115 0.39047 0.0
C587 C 0.65392 0.21654 0.39163 0.0
H588 H 0.79365 0.6503 0.40991 0.0
H589 H 0.78908 0.65096 0.31362 0.0
H590 H 0.82104 0.67431 0.40767 0.0
H591 H 0.81646 0.67581 0.31131 0.0
H592 H 0.87606 0.71433 0.32385 0.0
H593 H 0.85301 0.68539 0.3217 0.0
H594 H 0.81988 0.70966 0.39644 0.0
H595 H 0.84254 0.73777 0.399 0.0
C596 C 0.79867 0.65546 0.38816 0.0
C597 C 0.789 0.64893 0.36198 0.0
C598 C 0.81434 0.66934 0.38686 0.0
C599 C 0.82066 0.67745 0.35936 0.0
C600 C 0.81195 0.66992 0.33288 0.0
C601 C 0.79627 0.6557 0.33418 0.0
C602 C 0.86388 0.71338 0.33986 0.0
C603 C 0.86142 0.72839 0.36181 0.0
C604 C 0.85063 0.69685 0.33854 0.0
C605 C 0.83476 0.69497 0.35924 0.0
C606 C 0.8322 0.71021 0.38064 0.0
C607 C 0.84527 0.72652 0.38197 0.0
H608 H 0.71264 0.87555 0.83045 0.0
H609 H 0.74253 0.83532 0.89195 0.0
H610 H 0.68344 0.85278 0.82967 0.0
H611 H 0.71401 0.81304 0.89085 0.0
H612 H 0.65485 0.78833 0.91398 0.0
H613 H 0.67981 0.81477 0.91065 0.0
H614 H 0.67233 0.81682 0.81476 0.0
H615 H 0.6467 0.79026 0.81817 0.0
C616 C 0.71308 0.8619 0.84362 0.0
C617 C 0.72991 0.85752 0.8616 0.0
C618 C 0.69638 0.84886 0.84312 0.0
C619 C 0.69622 0.83128 0.86069 0.0
C620 C 0.71333 0.82669 0.8777 0.0
C621 C 0.72982 0.83954 0.87819 0.0
C622 C 0.65829 0.79451 0.89215 0.0
C623 C 0.649 0.7869 0.86629 0.0
C624 C 0.67268 0.80968 0.89023 0.0
C625 C 0.67845 0.81761 0.86236 0.0
C626 C 0.66826 0.81099 0.83656 0.0
C627 C 0.65361 0.79577 0.83852 0.0
H628 H 0.1529 0.72196 0.91128 0.0
H629 H 0.14508 0.721 0.81538 0.0
H630 H 0.17754 0.69524 0.90762 0.0
H631 H 0.17037 0.69416 0.81164 0.0
H632 H 0.21042 0.63545 0.82515 0.0
H633 H 0.18118 0.65813 0.82553 0.0
H634 H 0.21178 0.6967 0.88834 0.0
H635 H 0.24034 0.67448 0.88834 0.0
C636 C 0.15631 0.71591 0.88936 0.0
C637 C 0.14723 0.72389 0.86358 0.0
C638 C 0.17053 0.70059 0.88725 0.0
C639 C 0.17631 0.69285 0.85927 0.0
C640 C 0.16629 0.69982 0.83353 0.0
C641 C 0.15183 0.7152 0.83567 0.0
C642 C 0.21084 0.64878 0.83901 0.0
C643 C 0.22775 0.6529 0.85697 0.0
C644 C 0.19412 0.66179 0.83915 0.0
C645 C 0.19398 0.67906 0.85739 0.0
C646 C 0.21109 0.6833 0.87463 0.0
C647 C 0.22761 0.67048 0.87447 0.0
H648 H 0.36575 0.22061 0.81312 0.0
H649 H 0.35632 0.22455 0.90854 0.0
H650 H 0.34023 0.19387 0.81029 0.0
H651 H 0.3315 0.19801 0.9058 0.0
H652 H 0.26955 0.17553 0.88746 0.0
H653 H 0.29757 0.19846 0.88556 0.0
H654 H 0.32932 0.1582 0.82649 0.0
H655 H 0.30061 0.13482 0.828 0.0
C656 C 0.35855 0.21555 0.8335 0.0
C657 C 0.36283 0.22501 0.86097 0.0
C658 C 0.34396 0.20022 0.83189 0.0
C659 C 0.33347 0.19409 0.85773 0.0
C660 C 0.33883 0.2027 0.88531 0.0
C661 C 0.35317 0.21793 0.88689 0.0
C662 C 0.28243 0.17132 0.87403 0.0
C663 C 0.28281 0.15303 0.85825 0.0
C664 C 0.29862 0.18457 0.87305 0.0
C665 C 0.31593 0.18005 0.85639 0.0
C666 C 0.31623 0.16211 0.83963 0.0
C667 C 0.29981 0.1487 0.84058 0.0
H668 H 0.85975 0.29079 0.91436 0.0
H669 H 0.86306 0.28987 0.81792 0.0
H670 H 0.83527 0.31772 0.9122 0.0
H671 H 0.8378 0.31684 0.81567 0.0
H672 H 0.79885 0.376 0.8298 0.0
H673 H 0.82769 0.35283 0.82813 0.0
H674 H 0.80044 0.31713 0.8978 0.0
H675 H 0.77238 0.33991 0.89989 0.0
C676 C 0.85533 0.29645 0.89261 0.0
C677 C 0.86315 0.28792 0.86631 0.0
C678 C 0.84118 0.31188 0.89136 0.0
C679 C 0.83412 0.31916 0.86375 0.0
C680 C 0.84285 0.31157 0.83732 0.0
C681 C 0.8573 0.29611 0.83859 0.0
C682 C 0.79911 0.36321 0.84477 0.0
C683 C 0.78329 0.36009 0.86523 0.0
C684 C 0.81559 0.3499 0.84372 0.0
C685 C 0.8166 0.33327 0.86321 0.0
C686 C 0.80054 0.33002 0.88301 0.0
C687 C 0.78427 0.34316 0.88408 0.0
H688 H 0.67801 0.24 0.62246 0.0
H689 H 0.636 0.20875 0.67967 0.0
H690 H 0.7006 0.21173 0.62444 0.0
H691 H 0.65915 0.1798 0.68143 0.0
H692 H 0.72292 0.14419 0.69522 0.0
H693 H 0.69585 0.16932 0.69848 0.0
H694 H 0.69855 0.17743 0.60276 0.0
H695 H 0.72537 0.15291 0.59953 0.0
C696 C 0.67347 0.22703 0.63544 0.0
C697 C 0.65489 0.22663 0.65047 0.0
C698 C 0.68652 0.21073 0.63651 0.0
C699 C 0.68153 0.19331 0.65254 0.0
C700 C 0.66336 0.19301 0.66875 0.0
C701 C 0.65011 0.20954 0.66769 0.0
C702 C 0.71743 0.15111 0.67488 0.0
C703 C 0.7266 0.14682 0.64718 0.0
C704 C 0.70192 0.16547 0.67675 0.0
C705 C 0.69534 0.17568 0.65095 0.0
C706 C 0.70358 0.17022 0.62316 0.0
C707 C 0.71898 0.1561 0.62131 0.0
H708 H 0.77397 0.67046 0.61003 0.0
H709 H 0.79976 0.6352 0.6816 0.0
H710 H 0.802 0.69324 0.61208 0.0
H711 H 0.82862 0.65832 0.68315 0.0
H712 H 0.86318 0.72156 0.6935 0.0
H713 H 0.83848 0.69407 0.69526 0.0
H714 H 0.83677 0.69325 0.59866 0.0
H715 H 0.8606 0.7208 0.59703 0.0
C716 C 0.78574 0.66736 0.62611 0.0
C717 C 0.78454 0.65072 0.64546 0.0
C718 C 0.802 0.68049 0.62714 0.0
C719 C 0.81786 0.67748 0.64737 0.0
C720 C 0.81668 0.66107 0.66723 0.0
C721 C 0.80019 0.64778 0.66625 0.0
C722 C 0.85774 0.7152 0.67272 0.0
C723 C 0.86355 0.72358 0.64513 0.0
C724 C 0.84361 0.69945 0.67371 0.0
C725 C 0.83523 0.69175 0.64711 0.0
C726 C 0.84238 0.69918 0.61963 0.0
C727 C 0.85616 0.71494 0.61867 0.0
H728 H 0.30246 0.87737 0.67415 0.0
H729 H 0.26855 0.83393 0.62306 0.0
H730 H 0.33121 0.85402 0.67499 0.0
H731 H 0.29661 0.81104 0.62428 0.0
H732 H 0.35407 0.78394 0.59712 0.0
H733 H 0.32935 0.81058 0.59997 0.0
H734 H 0.34303 0.81922 0.6935 0.0
H735 H 0.36842 0.79242 0.69051 0.0
C736 C 0.30105 0.86289 0.66334 0.0
C737 C 0.28326 0.85776 0.64807 0.0
C738 C 0.31749 0.84951 0.66386 0.0
C739 C 0.31638 0.83082 0.64911 0.0
C740 C 0.29827 0.82551 0.63509 0.0
C741 C 0.28207 0.83872 0.6345 0.0
C742 C 0.35202 0.79157 0.61832 0.0
C743 C 0.36303 0.78575 0.64371 0.0
C744 C 0.33776 0.80686 0.61997 0.0
C745 C 0.33383 0.81676 0.64714 0.0
C746 C 0.34565 0.81186 0.67225 0.0
C747 C 0.36016 0.7965 0.67054 0.0
H748 H 0.14654 0.29389 0.59674 0.0
H749 H 0.14837 0.28832 0.69289 0.0
H750 H 0.17102 0.32091 0.59894 0.0
H751 H 0.17368 0.31518 0.69512 0.0
H752 H 0.21358 0.37323 0.68477 0.0
H753 H 0.18392 0.35115 0.6861 0.0
H754 H 0.20634 0.31944 0.60873 0.0
H755 H 0.23518 0.34122 0.60699 0.0
C756 C 0.15206 0.29861 0.61844 0.0
C757 C 0.14572 0.28878 0.64459 0.0
C758 C 0.16621 0.31404 0.61971 0.0
C759 C 0.17477 0.31991 0.64714 0.0
C760 C 0.16744 0.31104 0.67361 0.0
C761 C 0.15295 0.29565 0.67236 0.0
C762 C 0.21205 0.36159 0.668 0.0
C763 C 0.22683 0.35918 0.64569 0.0
C764 C 0.19511 0.34889 0.66884 0.0
C765 C 0.19254 0.33367 0.64726 0.0
C766 C 0.20745 0.33127 0.62529 0.0
C767 C 0.2242 0.34378 0.62447 0.0
H768 H 0.27208 0.06875 0.08041 0.0
H769 H 0.2322 0.1197 0.07417 0.0
H770 H 0.27353 0.06711 0.02544 0.0
H771 H 0.23432 0.11869 0.02027 0.0
H772 H 0.21843 0.09774 0.92942 0.0
H773 H 0.2206 0.09722 0.98342 0.0
H774 H 0.28392 0.08346 0.97783 0.0
H775 H 0.28146 0.08325 0.92285 0.0
C776 C 0.26391 0.07975 0.06736 0.0
C777 C 0.25179 0.09416 0.08164 0.0
C778 C 0.26479 0.07887 0.03593 0.0
C779 C 0.25368 0.09249 0.01836 0.0
C780 C 0.24255 0.10753 0.03294 0.0
C781 C 0.24145 0.10821 0.06402 0.0
C782 C 0.23284 0.09452 0.93959 0.0
C783 C 0.24983 0.09077 0.92187 0.0
C784 C 0.23414 0.09435 0.97067 0.0
C785 C 0.25255 0.09078 0.9851 0.0
C786 C 0.26951 0.0863 0.96744 0.0
C787 C 0.26814 0.08623 0.93601 0.0
H788 H 0.93065 0.28313 0.9273 0.0
H789 H 0.91421 0.22065 0.93572 0.0
H790 H 0.93091 0.28619 0.98229 0.0
H791 H 0.91506 0.22346 0.98964 0.0
H792 H 0.89203 0.23717 0.0791 0.0
H793 H 0.89329 0.23929 0.02526 0.0
H794 H 0.94749 0.27475 0.03068 0.0
H795 H 0.94571 0.27328 0.08573 0.0
C796 C 0.92734 0.27005 0.94085 0.0
C797 C 0.92209 0.25174 0.92724 0.0
C798 C 0.92755 0.27178 0.97226 0.0
C799 C 0.92257 0.25518 0.99037 0.0
C800 C 0.91835 0.23672 0.97647 0.0
C801 C 0.91796 0.23508 0.94546 0.0
C802 C 0.90414 0.24564 0.06907 0.0
C803 C 0.91891 0.25485 0.08679 0.0
C804 C 0.90494 0.24675 0.03802 0.0
C805 C 0.92078 0.25674 0.02355 0.0
C806 C 0.93512 0.26687 0.04116 0.0
C807 C 0.93414 0.26599 0.07261 0.0
H808 H 0.78026 0.89241 0.93547 0.0
H809 H 0.73963 0.94256 0.92646 0.0
H810 H 0.77804 0.89471 0.98936 0.0
H811 H 0.73797 0.94545 0.98129 0.0
H812 H 0.7302 0.93084 0.08484 0.0
H813 H 0.72774 0.92961 0.02985 0.0
H814 H 0.79148 0.91792 0.02465 0.0
H815 H 0.7937 0.91848 0.07867 0.0
C816 C 0.77082 0.90398 0.94502 0.0
C817 C 0.76033 0.91746 0.92666 0.0
C818 C 0.76964 0.90539 0.97604 0.0
C819 C 0.75823 0.9206 0.98974 0.0
C820 C 0.74693 0.9336 0.97145 0.0
C821 C 0.74792 0.93199 0.94011 0.0
C822 C 0.74362 0.92818 0.07175 0.0
C823 C 0.76208 0.92447 0.08599 0.0
C824 C 0.74225 0.92749 0.04033 0.0
C825 C 0.75934 0.9232 0.02284 0.0
C826 C 0.77788 0.9206 0.03734 0.0
C827 C 0.77919 0.92106 0.06839 0.0
H828 H 0.09853 0.79249 0.93248 0.0
H829 H 0.07927 0.73086 0.92358 0.0
H830 H 0.09857 0.78919 0.98639 0.0
H831 H 0.07986 0.72728 0.97845 0.0
H832 H 0.06708 0.73975 0.08242 0.0
H833 H 0.06461 0.7388 0.02743 0.0
H834 H 0.1201 0.77216 0.02112 0.0
H835 H 0.12209 0.7737 0.07502 0.0
C836 C 0.09432 0.77816 0.94211 0.0
C837 C 0.08913 0.76187 0.92376 0.0
C838 C 0.09445 0.77622 0.9731 0.0
C839 C 0.08969 0.75782 0.9868 0.0
C840 C 0.08367 0.74164 0.96858 0.0
C841 C 0.08336 0.74366 0.93723 0.0
C842 C 0.07881 0.74665 0.06911 0.0
C843 C 0.09459 0.75711 0.08305 0.0
C844 C 0.07742 0.74608 0.03769 0.0
C845 C 0.0919 0.75585 0.01987 0.0
C846 C 0.10832 0.76505 0.03407 0.0
C847 C 0.10953 0.76584 0.06512 0.0
H848 H 0.21796 0.91683 0.43136 0.0
H849 H 0.28148 0.9288 0.42381 0.0
H850 H 0.22052 0.91726 0.48532 0.0
H851 H 0.28428 0.92854 0.47881 0.0
H852 H 0.27285 0.94316 0.58209 0.0
H853 H 0.27426 0.94532 0.52712 0.0
H854 H 0.23424 0.89441 0.52098 0.0
H855 H 0.23221 0.89285 0.57484 0.0
C856 C 0.23255 0.91951 0.44131 0.0
C857 C 0.24957 0.92251 0.42335 0.0
C858 C 0.23406 0.91964 0.47234 0.0
C859 C 0.2527 0.92242 0.48648 0.0
C860 C 0.26971 0.9263 0.4686 0.0
C861 C 0.26813 0.9264 0.43719 0.0
C862 C 0.26449 0.93241 0.56883 0.0
C863 C 0.25216 0.91805 0.58282 0.0
C864 C 0.26535 0.93359 0.53741 0.0
C865 C 0.25399 0.92032 0.51963 0.0
C866 C 0.24268 0.90529 0.53388 0.0
C867 C 0.24161 0.90431 0.56493 0.0
H868 H 0.08102 0.28197 0.58296 0.0
H869 H 0.09507 0.21886 0.57595 0.0
H870 H 0.08169 0.28468 0.52795 0.0
H871 H 0.09508 0.22132 0.52194 0.0
H872 H 0.12003 0.23375 0.43281 0.0
H873 H 0.11783 0.23572 0.48667 0.0
H874 H 0.06575 0.27408 0.4793 0.0
H875 H 0.0685 0.27271 0.42439 0.0
C876 C 0.08394 0.26867 0.56969 0.0
C877 C 0.08829 0.25027 0.5837 0.0
C878 C 0.08429 0.2702 0.53827 0.0
C879 C 0.08889 0.25331 0.52053 0.0
C880 C 0.09213 0.23478 0.53481 0.0
C881 C 0.092 0.23333 0.56586 0.0
C882 C 0.10818 0.24279 0.44247 0.0
C883 C 0.0943 0.25288 0.42425 0.0
C884 C 0.10683 0.24381 0.4735 0.0
C885 C 0.09129 0.25463 0.48741 0.0
C886 C 0.07786 0.26556 0.46929 0.0
C887 C 0.07939 0.26473 0.4379 0.0
H888 H 0.73234 0.08224 0.5859 0.0
H889 H 0.79583 0.09446 0.57902 0.0
H890 H 0.72966 0.0831 0.53095 0.0
H891 H 0.79342 0.09458 0.52499 0.0
H892 H 0.78168 0.11961 0.4354 0.0
H893 H 0.78019 0.11735 0.48932 0.0
H894 H 0.73921 0.06724 0.48256 0.0
H895 H 0.74009 0.07013 0.4277 0.0
C896 C 0.74572 0.08478 0.57266 0.0
C897 C 0.76423 0.08857 0.58669 0.0
C898 C 0.74422 0.08525 0.54125 0.0
C899 C 0.76125 0.08937 0.52352 0.0
C900 C 0.77986 0.09203 0.53783 0.0
C901 C 0.78128 0.09183 0.56889 0.0
C902 C 0.7722 0.10817 0.44524 0.0
C903 C 0.76118 0.09491 0.4272 0.0
C904 C 0.77146 0.10677 0.4763 0.0
C905 C 0.75997 0.09178 0.49038 0.0
C906 C 0.74824 0.07893 0.47244 0.0
C907 C 0.74879 0.08053 0.44106 0.0
H908 H 0.89377 0.78081 0.57514 0.0
H909 H 0.94417 0.74026 0.58179 0.0
H910 H 0.89524 0.77901 0.52124 0.0
H911 H 0.94625 0.73909 0.52683 0.0
H912 H 0.92979 0.73144 0.42399 0.0
H913 H 0.92972 0.72896 0.47899 0.0
H914 H 0.91728 0.79253 0.48476 0.0
H915 H 0.91664 0.79476 0.43075 0.0
C916 C 0.90524 0.77148 0.56509 0.0
C917 C 0.91899 0.76084 0.58284 0.0
C918 C 0.90618 0.77057 0.53401 0.0
C919 C 0.92118 0.7593 0.51957 0.0
C920 C 0.93453 0.74795 0.53723 0.0
C921 C 0.9334 0.74867 0.56866 0.0
C922 C 0.92717 0.74483 0.43719 0.0
C923 C 0.92292 0.76323 0.42312 0.0
C924 C 0.92718 0.74343 0.46863 0.0
C925 C 0.92306 0.76046 0.48634 0.0
C926 C 0.91986 0.77896 0.47196 0.0
C927 C 0.91962 0.78028 0.44089 0.0
H928 H 0.71832 0.59742 0.57771 0.0
H929 H 0.78071 0.58059 0.58563 0.0
H930 H 0.72108 0.59694 0.52372 0.0
H931 H 0.78375 0.58075 0.5307 0.0
H932 H 0.7716 0.56712 0.42722 0.0
H933 H 0.77265 0.5648 0.48223 0.0
H934 H 0.7368 0.61871 0.48827 0.0
H935 H 0.73509 0.62049 0.43445 0.0
C936 C 0.7327 0.59365 0.56785 0.0
C937 C 0.74936 0.58929 0.58592 0.0
C938 C 0.73433 0.59348 0.5368 0.0
C939 C 0.75277 0.58927 0.5228 0.0
C940 C 0.76934 0.58409 0.5408 0.0
C941 C 0.76763 0.58405 0.57218 0.0
C942 C 0.76413 0.5785 0.44047 0.0
C943 C 0.75301 0.59381 0.42646 0.0
C944 C 0.76476 0.57722 0.47191 0.0
C945 C 0.75439 0.59131 0.48967 0.0
C946 C 0.7444 0.60722 0.47539 0.0
C947 C 0.74355 0.60832 0.44435 0.0
H948 H 0.39192 0.73349 0.43066 0.0
H949 H 0.4446 0.77107 0.42437 0.0
H950 H 0.39326 0.7352 0.48452 0.0
H951 H 0.44659 0.77203 0.47933 0.0
H952 H 0.43157 0.7806 0.58175 0.0
H953 H 0.43123 0.78298 0.52683 0.0
H954 H 0.41357 0.72061 0.52167 0.0
H955 H 0.41314 0.71857 0.57573 0.0
C956 C 0.40387 0.74215 0.44078 0.0
C957 C 0.41826 0.752 0.42312 0.0
C958 C 0.40475 0.74298 0.47187 0.0
C959 C 0.42033 0.75332 0.48645 0.0
C960 C 0.43439 0.76389 0.46887 0.0
C961 C 0.43331 0.7633 0.43742 0.0
C962 C 0.42767 0.76745 0.56871 0.0
C963 C 0.42212 0.74948 0.58302 0.0
C964 C 0.42756 0.76878 0.53729 0.0
C965 C 0.422 0.7521 0.51973 0.0
C966 C 0.41731 0.73397 0.53432 0.0
C967 C 0.41719 0.73274 0.56543 0.0
H968 H 0.23157 0.42841 0.42474 0.0
H969 H 0.29524 0.417 0.43135 0.0
H970 H 0.22909 0.42801 0.47973 0.0
H971 H 0.293 0.41734 0.48537 0.0
H972 H 0.28184 0.39295 0.57542 0.0
H973 H 0.28005 0.39468 0.52152 0.0
H974 H 0.23876 0.44456 0.5277 0.0
H975 H 0.23993 0.4422 0.58261 0.0
C976 C 0.24503 0.42612 0.43792 0.0
C977 C 0.26354 0.42243 0.42382 0.0
C978 C 0.24363 0.42593 0.46934 0.0
C979 C 0.26077 0.42219 0.48699 0.0
C980 C 0.27936 0.4196 0.47259 0.0
C981 C 0.28068 0.41953 0.44153 0.0
C982 C 0.27222 0.40422 0.56548 0.0
C983 C 0.2612 0.41758 0.58336 0.0
C984 C 0.27131 0.40532 0.53442 0.0
C985 C 0.25965 0.42008 0.52017 0.0
C986 C 0.24792 0.43303 0.53796 0.0
C987 C 0.24864 0.43173 0.56936 0.0
H988 H 0.56873 0.23787 0.58491 0.0
H989 H 0.6206 0.27632 0.57579 0.0
H990 H 0.56574 0.23643 0.53 0.0
H991 H 0.61812 0.27432 0.52198 0.0
H992 H 0.59395 0.29247 0.43412 0.0
H993 H 0.5943 0.28937 0.48803 0.0
H994 H 0.58206 0.22585 0.48058 0.0
H995 H 0.58114 0.22916 0.42562 0.0
C996 C 0.57966 0.24569 0.57125 0.0
C997 C 0.59469 0.25749 0.58469 0.0
C998 C 0.57799 0.24483 0.53988 0.0
C999 C 0.59142 0.25565 0.52164 0.0
C1000 C 0.60714 0.2663 0.53531 0.0
C1001 C 0.60864 0.26737 0.56631 0.0
C1002 C 0.5912 0.27781 0.44385 0.0
C1003 C 0.58778 0.261 0.42563 0.0
C1004 C 0.5915 0.27601 0.47483 0.0
C1005 C 0.58871 0.25727 0.48864 0.0
C1006 C 0.58434 0.24048 0.47057 0.0
C1007 C 0.58384 0.24235 0.4392 0.0
H1008 H 0.71737 0.4167 0.93396 0.0
H1009 H 0.78086 0.42925 0.92813 0.0
H1010 H 0.71911 0.41801 0.98798 0.0
H1011 H 0.78286 0.4298 0.98317 0.0
H1012 H 0.77066 0.44507 0.08568 0.0
H1013 H 0.77237 0.44686 0.03068 0.0
H1014 H 0.73226 0.39601 0.02482 0.0
H1015 H 0.72987 0.39486 0.07858 0.0
C1016 C 0.73179 0.41967 0.94431 0.0
C1017 C 0.74903 0.4226 0.92682 0.0
C1018 C 0.73282 0.42032 0.97538 0.0
C1019 C 0.75123 0.42351 0.99003 0.0
C1020 C 0.76845 0.42727 0.97258 0.0
C1021 C 0.76734 0.42689 0.94114 0.0
C1022 C 0.76232 0.43428 0.07247 0.0
C1023 C 0.74992 0.42 0.08652 0.0
C1024 C 0.76335 0.43525 0.04103 0.0
C1025 C 0.75209 0.42185 0.02329 0.0
C1026 C 0.74062 0.40699 0.03764 0.0
C1027 C 0.73938 0.40623 0.06867 0.0
H1028 H 0.62149 0.73773 0.07758 0.0
H1029 H 0.56692 0.77238 0.08514 0.0
H1030 H 0.61966 0.73963 0.02374 0.0
H1031 H 0.56463 0.77369 0.03012 0.0
H1032 H 0.58037 0.78198 0.92628 0.0
H1033 H 0.5806 0.78534 0.98121 0.0
H1034 H 0.59769 0.72297 0.98893 0.0
H1035 H 0.59801 0.71986 0.93501 0.0
C1036 C 0.60906 0.74583 0.06776 0.0
C1037 C 0.59419 0.75464 0.08572 0.0
C1038 C 0.60795 0.74682 0.03672 0.0
C1039 C 0.59171 0.75633 0.02254 0.0
C1040 C 0.5773 0.76618 0.04038 0.0
C1041 C 0.57858 0.7654 0.07181 0.0
C1042 C 0.58403 0.76903 0.93989 0.0
C1043 C 0.58947 0.75074 0.92637 0.0
C1044 C 0.58412 0.77093 0.97127 0.0
C1045 C 0.58959 0.75454 0.98945 0.0
C1046 C 0.594 0.73608 0.97568 0.0
C1047 C 0.59408 0.73426 0.94467 0.0
H1048 H 0.29524 0.59687 0.07234 0.0
H1049 H 0.23197 0.58341 0.07882 0.0
H1050 H 0.29306 0.59667 0.01834 0.0
H1051 H 0.2295 0.58398 0.02387 0.0
H1052 H 0.24006 0.56941 0.92174 0.0
H1053 H 0.23911 0.56777 0.97663 0.0
H1054 H 0.28021 0.61794 0.98097 0.0
H1055 H 0.28182 0.61889 0.92691 0.0
C1056 C 0.28077 0.59396 0.06214 0.0
C1057 C 0.26373 0.59036 0.07984 0.0
C1058 C 0.27947 0.594 0.03106 0.0
C1059 C 0.261 0.59079 0.0166 0.0
C1060 C 0.24397 0.58652 0.03426 0.0
C1061 C 0.24534 0.58624 0.06568 0.0
C1062 C 0.24881 0.58008 0.93457 0.0
C1063 C 0.26125 0.59408 0.92001 0.0
C1064 C 0.24819 0.57922 0.96599 0.0
C1065 C 0.25989 0.59246 0.98332 0.0
C1066 C 0.27149 0.60706 0.96849 0.0
C1067 C 0.27231 0.60772 0.93735 0.0
H1068 H 0.41389 0.29111 0.93069 0.0
H1069 H 0.4304 0.2286 0.92325 0.0
H1070 H 0.41392 0.28847 0.98462 0.0
H1071 H 0.42984 0.22571 0.97824 0.0
H1072 H 0.44408 0.23929 0.08157 0.0
H1073 H 0.44595 0.23726 0.0266 0.0
H1074 H 0.39193 0.27293 0.02018 0.0
H1075 H 0.3906 0.27556 0.07404 0.0
C1076 C 0.41747 0.27671 0.94064 0.0
C1077 C 0.42189 0.26 0.92269 0.0
C1078 C 0.41737 0.27516 0.97167 0.0
C1079 C 0.42139 0.25675 0.98582 0.0
C1080 C 0.42661 0.24009 0.968 0.0
C1081 C 0.42689 0.24172 0.93659 0.0
C1082 C 0.43255 0.24647 0.06825 0.0
C1083 C 0.41741 0.2579 0.0821 0.0
C1084 C 0.43358 0.24528 0.03684 0.0
C1085 C 0.41936 0.25536 0.01897 0.0
C1086 C 0.40352 0.26554 0.03315 0.0
C1087 C 0.40268 0.26696 0.06418 0.0
H1088 H 0.22777 0.03567 0.17667 0.0
H1089 H 0.25739 0.06461 0.25097 0.0
H1090 H 0.22826 1.00372 0.20374 0.0
H1091 H 0.2573 0.03264 0.27844 0.0
H1092 H 0.22693 0.97687 0.32646 0.0
H1093 H 0.22793 0.00858 0.29897 0.0
H1094 H 0.25703 0.97887 0.225 0.0
H1095 H 0.25661 0.94704 0.25298 0.0
C1096 C 0.23426 0.03525 0.19889 0.0
C1097 C 0.24247 0.05274 0.21171 0.0
C1098 C 0.23466 0.0169 0.21427 0.0
C1099 C 0.24285 0.01565 0.24316 0.0
C1100 C 0.25085 0.03316 0.2562 0.0
C1101 C 0.25091 0.05145 0.24049 0.0
C1102 C 0.23353 0.97703 0.30431 0.0
C1103 C 0.24163 0.95937 0.29187 0.0
C1104 C 0.23421 0.99526 0.28867 0.0
C1105 C 0.24259 0.99624 0.25988 0.0
C1106 C 0.25044 0.97854 0.24716 0.0
C1107 C 0.25021 0.96035 0.26315 0.0
H1108 H 0.97657 0.22713 0.1807 0.0
H1109 H 0.94877 0.25679 0.25593 0.0
H1110 H 0.00877 0.22698 0.20717 0.0
H1111 H 0.98094 0.25604 0.28278 0.0
H1112 H 0.03759 0.22646 0.32928 0.0
H1113 H 1.00551 0.22662 0.30261 0.0
H1114 H 0.03367 0.25612 0.22764 0.0
H1115 H 0.06579 0.25655 0.25474 0.0
C1116 C 0.97727 0.23343 0.20302 0.0
C1117 C 0.96005 0.24192 0.21624 0.0
C1118 C 0.99576 0.23346 0.21807 0.0
C1119 C 0.9974 0.24153 0.24701 0.0
C1120 C 0.98012 0.24967 0.26052 0.0
C1121 C 0.96171 0.2501 0.24515 0.0
C1122 C 0.037 0.23293 0.30706 0.0
C1123 C 0.0543 0.24146 0.29411 0.0
C1124 C 0.01857 0.23312 0.29189 0.0
C1125 C 0.01705 0.2414 0.26307 0.0
C1126 C 0.03441 0.24958 0.2498 0.0
C1127 C 0.05277 0.24984 0.26531 0.0
H1128 H 0.7393 0.05949 0.27667 0.0
H1129 H 0.7989 0.0471 0.30981 0.0
H1130 H 0.73926 0.02714 0.25035 0.0
H1131 H 0.79893 0.01501 0.28339 0.0
H1132 H 0.79922 0.97012 0.20403 0.0
H1133 H 0.79902 1.00218 0.23055 0.0
H1134 H 0.73936 0.98967 0.26336 0.0
H1135 H 0.73962 0.95736 0.23695 0.0
C1136 C 0.75246 0.04998 0.2781 0.0
C1137 C 0.76913 0.05596 0.29529 0.0
C1138 C 0.75236 0.03136 0.26326 0.0
C1139 C 0.76907 0.01842 0.26482 0.0
C1140 C 0.78586 0.02462 0.28153 0.0
C1141 C 0.78583 0.04304 0.29673 0.0
C1142 C 0.78611 0.97409 0.21711 0.0
C1143 C 0.76947 0.96108 0.21845 0.0
C1144 C 0.78601 0.99249 0.23236 0.0
C1145 C 0.76915 0.99858 0.24902 0.0
C1146 C 0.75252 0.98554 0.25051 0.0
C1147 C 0.75274 0.96693 0.23561 0.0
H1148 H 0.06512 0.75471 0.25255 0.0
H1149 H 0.0364 0.78259 0.1766 0.0
H1150 H 0.03295 0.75504 0.27957 0.0
H1151 H 1.00428 0.78231 0.20321 0.0
H1152 H 0.94741 0.75447 0.25287 0.0
H1153 H 0.97941 0.75389 0.22532 0.0
H1154 H 0.00843 0.78438 0.29863 0.0
H1155 H 0.97654 0.78555 0.32565 0.0
C1156 C 0.05197 0.76086 0.24161 0.0
C1157 C 0.0534 0.76874 0.21249 0.0
C1158 C 0.03356 0.76105 0.25706 0.0
C1159 C 0.01604 0.76862 0.24345 0.0
C1160 C 0.01744 0.77625 0.21422 0.0
C1161 C 0.03591 0.77653 0.19908 0.0
C1162 C 0.96059 0.76115 0.26298 0.0
C1163 C 0.95934 0.77016 0.29139 0.0
C1164 C 0.9789 0.76083 0.24723 0.0
C1165 C 0.99648 0.769 0.25989 0.0
C1166 C 0.99522 0.77783 0.28837 0.0
C1167 C 0.97688 0.77861 0.30373 0.0
H1168 H 0.75623 0.94606 0.75681 0.0
H1169 H 0.78424 0.97505 0.83244 0.0
H1170 H 0.75654 0.97817 0.72956 0.0
H1171 H 0.78395 0.00705 0.80565 0.0
H1172 H 0.75582 0.06362 0.75637 0.0
H1173 H 0.75517 0.03155 0.78364 0.0
H1174 H 0.78624 1.00286 0.71056 0.0
H1175 H 0.78748 0.03487 0.68378 0.0
C1176 C 0.76238 0.95925 0.76763 0.0
C1177 C 0.77032 0.95794 0.79672 0.0
C1178 C 0.76258 0.97761 0.75205 0.0
C1179 C 0.7702 0.99515 0.76555 0.0
C1180 C 0.77786 0.99386 0.79475 0.0
C1181 C 0.77814 0.97546 0.80999 0.0
C1182 C 0.76263 0.0505 0.74625 0.0
C1183 C 0.77183 0.05186 0.718 0.0
C1184 C 0.76224 0.03216 0.76183 0.0
C1185 C 0.77055 0.01467 0.74914 0.0
C1186 C 0.77958 0.01602 0.72081 0.0
C1187 C 0.78042 0.03442 0.7056 0.0
H1188 H 0.9674 0.79979 0.69893 0.0
H1189 H 0.95535 0.74046 0.73344 0.0
H1190 H 0.99961 0.80017 0.72516 0.0
H1191 H 0.98774 0.74076 0.75947 0.0
H1192 H 0.05712 0.74073 0.77235 0.0
H1193 H 0.02493 0.7407 0.74575 0.0
H1194 H 0.01286 0.80056 0.77809 0.0
H1195 H 0.04485 0.80052 0.80488 0.0
C1196 C 0.97156 0.78686 0.71226 0.0
C1197 C 0.95872 0.77012 0.71415 0.0
C1198 C 0.99004 0.7871 0.72734 0.0
C1199 C 0.99634 0.77046 0.74431 0.0
C1200 C 0.98345 0.75374 0.74633 0.0
C1201 C 0.9648 0.75364 0.73163 0.0
C1202 C 0.04768 0.75395 0.77355 0.0
C1203 C 0.05362 0.77064 0.79071 0.0
C1204 C 0.02915 0.75387 0.75852 0.0
C1205 C 0.01624 0.7706 0.75988 0.0
C1206 C 0.02245 0.78747 0.77642 0.0
C1207 C 0.0408 0.78743 0.79181 0.0
H1208 H 0.27279 0.95436 0.73311 0.0
H1209 H 0.21358 0.9672 0.69882 0.0
H1210 H 0.27303 0.98694 0.75887 0.0
H1211 H 0.21374 0.99948 0.72469 0.0
H1212 H 0.21312 0.04455 0.80368 0.0
H1213 H 0.21337 0.01241 0.77747 0.0
H1214 H 0.27331 0.02452 0.7455 0.0
H1215 H 0.27299 0.05698 0.77163 0.0
C1216 C 0.25975 0.96402 0.73131 0.0
C1217 C 0.24313 0.95809 0.71398 0.0
C1218 C 0.25997 0.98277 0.74583 0.0
C1219 C 0.24342 0.99589 0.7438 0.0
C1220 C 0.22669 0.98974 0.72691 0.0
C1221 C 0.22661 0.97121 0.71204 0.0
C1222 C 0.22631 0.04049 0.79085 0.0
C1223 C 0.243 0.05344 0.78967 0.0
C1224 C 0.22644 0.02203 0.77578 0.0
C1225 C 0.24338 0.01579 0.75943 0.0
C1226 C 0.26008 0.02877 0.7581 0.0
C1227 C 0.25983 0.04745 0.77283 0.0
H1228 H 0.94643 0.2572 0.75654 0.0
H1229 H 0.97586 0.22796 0.83075 0.0
H1230 H 0.97826 0.2569 0.72858 0.0
H1231 H 0.00761 0.22829 0.80326 0.0
H1232 H 0.06375 0.25753 0.75382 0.0
H1233 H 0.03188 0.25768 0.78163 0.0
H1234 H 1.00285 0.22716 0.70836 0.0
H1235 H 0.03468 0.2264 0.68101 0.0
C1236 C 0.95965 0.25074 0.76688 0.0
C1237 C 0.95855 0.24249 0.7958 0.0
C1238 C 0.97785 0.25057 0.75089 0.0
C1239 C 0.99544 0.24265 0.76381 0.0
C1240 C 0.99435 0.2346 0.7928 0.0
C1241 C 0.97611 0.2343 0.80844 0.0
C1242 C 0.0506 0.25073 0.74377 0.0
C1243 C 0.05182 0.24183 0.71529 0.0
C1244 C 0.03237 0.25082 0.75966 0.0
C1245 C 0.01485 0.24252 0.74708 0.0
C1246 C 0.01605 0.23379 0.71853 0.0
C1247 C 0.03434 0.23324 0.703 0.0
H1248 H 0.77263 0.55723 0.73647 0.0
H1249 H 0.71252 0.54511 0.70519 0.0
H1250 H 0.77294 0.52476 0.76255 0.0
H1251 H 0.71279 0.51294 0.73122 0.0
H1252 H 0.71284 0.46765 0.80925 0.0
H1253 H 0.71312 0.49984 0.7833 0.0
H1254 H 0.77263 0.48732 0.74988 0.0
H1255 H 0.77231 0.45482 0.7759 0.0
C1256 C 0.75942 0.54777 0.73543 0.0
C1257 C 0.74252 0.55385 0.71884 0.0
C1258 C 0.75967 0.52907 0.75011 0.0
C1259 C 0.74291 0.51617 0.74892 0.0
C1260 C 0.72591 0.5225 0.73282 0.0
C1261 C 0.72576 0.54099 0.71785 0.0
C1262 C 0.72595 0.47162 0.79617 0.0
C1263 C 0.74252 0.45855 0.79457 0.0
C1264 C 0.72609 0.49012 0.78124 0.0
C1265 C 0.74292 0.49626 0.76455 0.0
C1266 C 0.7595 0.48316 0.76278 0.0
C1267 C 0.75924 0.46445 0.77742 0.0
H1268 H 0.55831 0.77222 0.77445 0.0
H1269 H 0.54468 0.71304 0.80825 0.0
H1270 H 0.52616 0.77265 0.74767 0.0
H1271 H 0.51276 0.71341 0.78141 0.0
H1272 H 0.46831 0.7134 0.70178 0.0
H1273 H 0.50023 0.71321 0.72856 0.0
H1274 H 0.4887 0.77335 0.76023 0.0
H1275 H 0.45651 0.77349 0.73348 0.0
C1276 C 0.54858 0.75922 0.77591 0.0
C1277 C 0.55413 0.74256 0.79341 0.0
C1278 C 0.53007 0.75955 0.76081 0.0
C1279 C 0.51682 0.74309 0.76247 0.0
C1280 C 0.52262 0.72628 0.77947 0.0
C1281 C 0.54094 0.72609 0.7949 0.0
C1282 C 0.47246 0.72655 0.71464 0.0
C1283 C 0.45978 0.74343 0.71555 0.0
C1284 C 0.49078 0.72642 0.73004 0.0
C1285 C 0.4971 0.74328 0.74647 0.0
C1286 C 0.48438 0.76018 0.74754 0.0
C1287 C 0.46585 0.76019 0.73245 0.0
H1288 H 0.29847 0.4665 0.6996 0.0
H1289 H 0.23919 0.45336 0.73342 0.0
H1290 H 0.29792 0.49891 0.72511 0.0
H1291 H 0.23857 0.48602 0.75886 0.0
H1292 H 0.23771 0.55595 0.77093 0.0
H1293 H 0.23786 0.52331 0.74532 0.0
H1294 H 0.298 0.51234 0.77734 0.0
H1295 H 0.29781 0.54468 0.80297 0.0
C1296 C 0.28535 0.47046 0.71266 0.0
C1297 C 0.26891 0.45724 0.71455 0.0
C1298 C 0.28505 0.48907 0.72732 0.0
C1299 C 0.26817 0.49515 0.74397 0.0
C1300 C 0.25173 0.4819 0.74599 0.0
C1301 C 0.25216 0.4631 0.73165 0.0
C1302 C 0.25101 0.54662 0.77228 0.0
C1303 C 0.26777 0.55299 0.78894 0.0
C1304 C 0.25103 0.52784 0.75784 0.0
C1305 C 0.26793 0.51515 0.75932 0.0
C1306 C 0.28479 0.52175 0.77553 0.0
C1307 C 0.28465 0.54031 0.79029 0.0
H1308 H 0.44867 0.25293 0.75297 0.0
H1309 H 0.47719 0.28289 0.82733 0.0
H1310 H 0.48089 0.25276 0.72602 0.0
H1311 H 0.5093 0.28213 0.80087 0.0
H1312 H 0.5664 0.25345 0.75419 0.0
H1313 H 0.53413 0.25323 0.78098 0.0
H1314 H 0.50562 0.28164 0.7054 0.0
H1315 H 0.5378 0.28245 0.67906 0.0
C1316 C 0.46177 0.25944 0.76357 0.0
C1317 C 0.46029 0.26804 0.79222 0.0
C1318 C 0.48021 0.25934 0.74816 0.0
C1319 C 0.49767 0.26734 0.76141 0.0
C1320 C 0.49619 0.27572 0.79016 0.0
C1321 C 0.47772 0.27627 0.8052 0.0
C1322 C 0.55327 0.25974 0.74339 0.0
C1323 C 0.55474 0.26809 0.71457 0.0
C1324 C 0.5348 0.25962 0.75871 0.0
C1325 C 0.5173 0.26733 0.74521 0.0
C1326 C 0.51877 0.27545 0.71629 0.0
C1327 C 0.53727 0.27604 0.70133 0.0
H1328 H 0.28502 0.53454 0.1762 0.0
H1329 H 0.25567 0.56441 0.24994 0.0
H1330 H 0.28393 0.50278 0.20365 0.0
H1331 H 0.25517 0.53258 0.27784 0.0
H1332 H 0.28525 0.47658 0.32636 0.0
H1333 H 0.28434 0.50821 0.29867 0.0
H1334 H 0.25474 0.47846 0.22519 0.0
H1335 H 0.25505 0.44672 0.25339 0.0
C1336 C 0.27846 0.53437 0.19838 0.0
C1337 C 0.27051 0.55207 0.21094 0.0
C1338 C 0.27771 0.51612 0.21398 0.0
C1339 C 0.26943 0.51516 0.24285 0.0
C1340 C 0.26167 0.53288 0.25562 0.0
C1341 C 0.26195 0.55108 0.23967 0.0
C1342 C 0.27854 0.47672 0.30428 0.0
C1343 C 0.27029 0.45906 0.29203 0.0
C1344 C 0.27791 0.4949 0.28854 0.0
C1345 C 0.26943 0.49585 0.25982 0.0
C1346 C 0.26139 0.47817 0.2473 0.0
C1347 C 0.26157 0.46002 0.26342 0.0
H1348 H 0.53414 0.28545 0.32764 0.0
H1349 H 0.56395 0.25452 0.25529 0.0
H1350 H 0.50261 0.28471 0.29969 0.0
H1351 H 0.53234 0.25431 0.22687 0.0
H1352 H 0.47652 0.28311 0.17651 0.0
H1353 H 0.50822 0.28262 0.20418 0.0
H1354 H 0.47808 0.25597 0.27982 0.0
H1355 H 0.44634 0.25592 0.25179 0.0
C1356 C 0.53402 0.27864 0.30563 0.0
C1357 C 0.55163 0.27011 0.29366 0.0
C1358 C 0.51589 0.2781 0.28974 0.0
C1359 C 0.51496 0.26941 0.26114 0.0
C1360 C 0.53261 0.26115 0.24886 0.0
C1361 C 0.5507 0.26126 0.26511 0.0
C1362 C 0.47661 0.27715 0.19906 0.0
C1363 C 0.45885 0.26962 0.21199 0.0
C1364 C 0.49482 0.27675 0.2148 0.0
C1365 C 0.49566 0.26923 0.24414 0.0
C1366 C 0.47788 0.2619 0.25726 0.0
C1367 C 0.45972 0.26186 0.24122 0.0
H1368 H 0.75545 0.56496 0.25671 0.0
H1369 H 0.72664 0.53654 0.33216 0.0
H1370 H 0.75479 0.53287 0.22954 0.0
H1371 H 0.72661 0.50445 0.3054 0.0
H1372 H 0.7559 0.44779 0.25641 0.0
H1373 H 0.75582 0.47981 0.28382 0.0
H1374 H 0.72506 0.50818 0.2102 0.0
H1375 H 0.72453 0.47619 0.18327 0.0
C1376 C 0.74899 0.5519 0.26748 0.0
C1377 C 0.74099 0.55337 0.29653 0.0
C1378 C 0.7486 0.53354 0.25194 0.0
C1379 C 0.74072 0.51611 0.26541 0.0
C1380 C 0.73289 0.51756 0.29452 0.0
C1381 C 0.73279 0.53599 0.30973 0.0
C1382 C 0.74899 0.46082 0.2462 0.0
C1383 C 0.74011 0.45937 0.21772 0.0
C1384 C 0.74894 0.47914 0.26189 0.0
C1385 C 0.74051 0.49653 0.24909 0.0
C1386 C 0.73177 0.49509 0.22056 0.0
C1387 C 0.73136 0.47671 0.20525 0.0
H1388 H 0.44778 0.7575 0.25399 0.0
H1389 H 0.47528 0.72627 0.32801 0.0
H1390 H 0.48007 0.7573 0.22736 0.0
H1391 H 0.5076 0.72668 0.3018 0.0
H1392 H 0.5651 0.75647 0.25567 0.0
H1393 H 0.53289 0.75592 0.28262 0.0
H1394 H 0.50454 0.7283 0.20627 0.0
H1395 H 0.53668 0.72824 0.17976 0.0
C1396 C 0.46068 0.75059 0.26456 0.0
C1397 C 0.45888 0.7418 0.29306 0.0
C1398 C 0.47916 0.75047 0.24932 0.0
C1399 C 0.49642 0.74206 0.26255 0.0
C1400 C 0.49464 0.73339 0.2911 0.0
C1401 C 0.47607 0.73304 0.306 0.0
C1402 C 0.55202 0.75017 0.24474 0.0
C1403 C 0.55354 0.74231 0.2156 0.0
C1404 C 0.53359 0.74983 0.26017 0.0
C1405 C 0.51614 0.74213 0.24651 0.0
C1406 C 0.51766 0.73443 0.21733 0.0
C1407 C 0.53613 0.7343 0.20224 0.0
H1408 H 0.21569 0.13211 0.24207 0.0
H1409 H 0.17217 0.14173 0.17189 0.0
H1410 H 0.19446 0.15104 0.27671 0.0
H1411 H 0.15085 0.16015 0.20643 0.0
H1412 H 0.13233 0.21452 0.26478 0.0
H1413 H 0.15035 0.19218 0.23061 0.0
H1414 H 0.16366 0.1522 0.30411 0.0
H1415 H 0.14617 0.1746 0.33811 0.0
C1416 C 0.2014 0.13784 0.23422 0.0
C1417 C 0.19576 0.13552 0.20415 0.0
C1418 C 0.18919 0.14874 0.25405 0.0
C1419 C 0.17099 0.15743 0.2443 0.0
C1420 C 0.16494 0.15416 0.2146 0.0
C1421 C 0.17714 0.14341 0.19484 0.0
C1422 C 0.13885 0.20082 0.27351 0.0
C1423 C 0.13793 0.19652 0.30424 0.0
C1424 C 0.1492 0.18796 0.25394 0.0
C1425 C 0.15873 0.17042 0.26462 0.0
C1426 C 0.15698 0.16574 0.29514 0.0
C1427 C 0.14678 0.17859 0.31463 0.0
H1428 H 0.88148 0.2158 0.24622 0.0
H1429 H 0.86627 0.17722 0.1719 0.0
H1430 H 0.86289 0.19354 0.2799 0.0
H1431 H 0.84816 0.15495 0.20536 0.0
H1432 H 0.79565 0.13577 0.26726 0.0
H1433 H 0.81727 0.15465 0.23304 0.0
H1434 H 0.86167 0.16096 0.30289 0.0
H1435 H 0.84003 0.14257 0.33699 0.0
C1436 C 0.87454 0.2024 0.23717 0.0
C1437 C 0.87525 0.19846 0.20632 0.0
C1438 C 0.86386 0.1896 0.25644 0.0
C1439 C 0.85375 0.17251 0.2453 0.0
C1440 C 0.85529 0.16817 0.21467 0.0
C1441 C 0.86585 0.18093 0.19549 0.0
C1442 C 0.81017 0.14088 0.27509 0.0
C1443 C 0.81598 0.13778 0.30494 0.0
C1444 C 0.82261 0.15175 0.25551 0.0
C1445 C 0.84117 0.15963 0.26531 0.0
C1446 C 0.84732 0.15561 0.29473 0.0
C1447 C 0.83492 0.14488 0.31423 0.0
H1448 H 0.89769 0.8186 0.27324 0.0
H1449 H 0.8445 0.81372 0.32797 0.0
H1450 H 0.87995 0.84212 0.24022 0.0
H1451 H 0.82667 0.83621 0.29488 0.0
H1452 H 0.80108 0.88829 0.24513 0.0
H1453 H 0.8227 0.86951 0.27939 0.0
H1454 H 0.85469 0.84438 0.20401 0.0
H1455 H 0.83402 0.86366 0.17028 0.0
C1456 C 0.88218 0.82235 0.27798 0.0
C1457 C 0.87258 0.81439 0.3033 0.0
C1458 C 0.87196 0.83585 0.25913 0.0
C1459 C 0.85183 0.8414 0.265 0.0
C1460 C 0.84226 0.83295 0.29 0.0
C1461 C 0.85249 0.8198 0.30888 0.0
C1462 C 0.81295 0.87903 0.23596 0.0
C1463 C 0.81551 0.87738 0.20487 0.0
C1464 C 0.82527 0.86806 0.25557 0.0
C1465 C 0.84036 0.85507 0.24457 0.0
C1466 C 0.84345 0.85424 0.21354 0.0
C1467 C 0.83132 0.86526 0.19407 0.0
H1468 H 0.20711 0.88957 0.26503 0.0
H1469 H 0.17734 0.85984 0.33871 0.0
H1470 H 0.1857 0.87126 0.23 0.0
H1471 H 0.15691 0.84102 0.30407 0.0
H1472 H 0.11433 0.81507 0.23467 0.0
H1473 H 0.13105 0.83863 0.26881 0.0
H1474 H 0.18335 0.83868 0.21141 0.0
H1475 H 0.16654 0.8162 0.17736 0.0
C1476 C 0.19599 0.87927 0.27381 0.0
C1477 C 0.19425 0.8761 0.30476 0.0
C1478 C 0.18378 0.86858 0.25372 0.0
C1479 C 0.16967 0.85431 0.26406 0.0
C1480 C 0.16736 0.85191 0.29506 0.0
C1481 C 0.17935 0.86268 0.31504 0.0
C1482 C 0.12936 0.82021 0.22947 0.0
C1483 C 0.13897 0.81387 0.20316 0.0
C1484 C 0.13901 0.83372 0.249 0.0
C1485 C 0.15858 0.84089 0.24281 0.0
C1486 C 0.16813 0.83417 0.21666 0.0
C1487 C 0.15847 0.82102 0.19715 0.0
H1488 H 0.86772 0.83727 0.67132 0.0
H1489 H 0.88043 0.79623 0.74374 0.0
H1490 H 0.85035 0.85952 0.70564 0.0
H1491 H 0.86254 0.81849 0.77828 0.0
H1492 H 0.84141 0.86916 0.83764 0.0
H1493 H 0.86254 0.85055 0.80308 0.0
H1494 H 0.81926 0.86054 0.73264 0.0
H1495 H 0.79818 0.87959 0.76731 0.0
C1496 C 0.86688 0.83299 0.69468 0.0
C1497 C 0.87536 0.8148 0.7047 0.0
C1498 C 0.85675 0.84576 0.71435 0.0
C1499 C 0.85472 0.84075 0.74469 0.0
C1500 C 0.86391 0.82294 0.75506 0.0
C1501 C 0.87417 0.81014 0.7353 0.0
C1502 C 0.83646 0.86762 0.81467 0.0
C1503 C 0.81797 0.87581 0.80533 0.0
C1504 C 0.84855 0.85676 0.79489 0.0
C1505 C 0.84254 0.85371 0.76513 0.0
C1506 C 0.82448 0.86267 0.75536 0.0
C1507 C 0.81236 0.87365 0.77521 0.0
H1508 H 0.21135 0.88606 0.74369 0.0
H1509 H 0.17649 0.86181 0.67054 0.0
H1510 H 0.19037 0.8674 0.77901 0.0
H1511 H 0.15659 0.84255 0.70516 0.0
H1512 H 0.11519 0.81614 0.77504 0.0
H1513 H 0.1323 0.83996 0.74194 0.0
H1514 H 0.18618 0.83449 0.79538 0.0
H1515 H 0.16885 0.81174 0.82878 0.0
C1516 C 0.19919 0.87692 0.73512 0.0
C1517 C 0.19589 0.87535 0.70417 0.0
C1518 C 0.18725 0.86599 0.75534 0.0
C1519 C 0.17185 0.85309 0.74507 0.0
C1520 C 0.16804 0.85236 0.7142 0.0
C1521 C 0.17974 0.86338 0.69417 0.0
C1522 C 0.13069 0.82005 0.77953 0.0
C1523 C 0.14061 0.81208 0.80455 0.0
C1524 C 0.14057 0.83372 0.7606 0.0
C1525 C 0.16071 0.83943 0.76597 0.0
C1526 C 0.17058 0.83108 0.79081 0.0
C1527 C 0.16066 0.81776 0.80986 0.0
H1528 H 0.11385 0.19437 0.73107 0.0
H1529 H 0.1684 0.20238 0.68029 0.0
H1530 H 0.13123 0.17034 0.76358 0.0
H1531 H 0.18591 0.17938 0.7131 0.0
H1532 H 0.21172 0.12686 0.76164 0.0
H1533 H 0.19065 0.14593 0.72697 0.0
H1534 H 0.1551 0.16746 0.80129 0.0
H1535 H 0.1752 0.14781 0.83527 0.0
C1536 C 0.12959 0.19121 0.72713 0.0
C1537 C 0.13969 0.20021 0.70306 0.0
C1538 C 0.13961 0.17742 0.74571 0.0
C1539 C 0.16005 0.1726 0.74089 0.0
C1540 C 0.17011 0.18207 0.71713 0.0
C1541 C 0.16007 0.19552 0.69845 0.0
C1542 C 0.19916 0.13535 0.77044 0.0
C1543 C 0.19543 0.13592 0.80136 0.0
C1544 C 0.18717 0.14652 0.75061 0.0
C1545 C 0.17126 0.15864 0.76125 0.0
C1546 C 0.167 0.15831 0.792 0.0
C1547 C 0.17879 0.14707 0.81165 0.0
H1548 H 0.89057 0.20708 0.77019 0.0
H1549 H 0.85398 0.18388 0.84226 0.0
H1550 H 0.87307 0.1849 0.73522 0.0
H1551 H 0.83614 0.16266 0.80755 0.0
H1552 H 0.81299 0.11672 0.74134 0.0
H1553 H 0.83522 0.13455 0.77606 0.0
H1554 H 0.84182 0.18257 0.71169 0.0
H1555 H 0.8206 0.16463 0.67713 0.0
C1556 C 0.87887 0.19728 0.77863 0.0
C1557 C 0.8737 0.1975 0.8091 0.0
C1558 C 0.8687 0.18461 0.75855 0.0
C1559 C 0.85296 0.17198 0.76839 0.0
C1560 C 0.84828 0.17184 0.799 0.0
C1561 C 0.8585 0.18429 0.81899 0.0
C1562 C 0.8193 0.13103 0.73467 0.0
C1563 C 0.81501 0.13911 0.70635 0.0
C1564 C 0.83203 0.14133 0.75457 0.0
C1565 C 0.84054 0.16007 0.74675 0.0
C1566 C 0.83613 0.16802 0.71842 0.0
C1567 C 0.82369 0.1577 0.69857 0.0
H1568 H 0.6983 0.61631 0.73921 0.0
H1569 H 0.69673 0.66723 0.67943 0.0
H1570 H 0.67573 0.6341 0.77358 0.0
H1571 H 0.67516 0.68513 0.71374 0.0
H1572 H 0.62439 0.70951 0.7683 0.0
H1573 H 0.64275 0.68795 0.73348 0.0
H1574 H 0.67429 0.6608 0.80769 0.0
H1575 H 0.65553 0.68143 0.84215 0.0
C1576 C 0.69331 0.63132 0.73356 0.0
C1577 C 0.69922 0.64023 0.70649 0.0
C1578 C 0.68037 0.64158 0.75321 0.0
C1579 C 0.67332 0.66109 0.7464 0.0
C1580 C 0.67964 0.66998 0.71952 0.0
C1581 C 0.69225 0.65971 0.69987 0.0
C1582 C 0.63504 0.69875 0.77716 0.0
C1583 C 0.63851 0.69747 0.8081 0.0
C1584 C 0.64574 0.68645 0.75718 0.0
C1585 C 0.66029 0.67267 0.76762 0.0
C1586 C 0.66315 0.67096 0.79862 0.0
C1587 C 0.65241 0.68306 0.81849 0.0
H1588 H 0.34123 0.62234 0.81208 0.0
H1589 H 0.28985 0.65062 0.77121 0.0
H1590 H 0.36372 0.64236 0.78034 0.0
H1591 H 0.31239 0.67124 0.74025 0.0
H1592 H 0.36289 0.72194 0.73111 0.0
H1593 H 0.34205 0.69932 0.76162 0.0
H1594 H 0.36803 0.64813 0.71696 0.0
H1595 H 0.38825 0.67073 0.6857 0.0
C1596 C 0.33479 0.63248 0.79572 0.0
C1597 C 0.31384 0.63468 0.7936 0.0
C1598 C 0.34763 0.64403 0.77783 0.0
C1599 C 0.33975 0.65847 0.7582 0.0
C1600 C 0.31879 0.66027 0.7554 0.0
C1601 C 0.30592 0.6483 0.77273 0.0
C1602 C 0.36449 0.70585 0.72841 0.0
C1603 C 0.37736 0.69803 0.70643 0.0
C1604 C 0.35241 0.69295 0.74552 0.0
C1605 C 0.35335 0.67203 0.74136 0.0
C1606 C 0.36702 0.66419 0.72051 0.0
C1607 C 0.37867 0.67709 0.70287 0.0
H1608 H 0.38176 0.29701 0.7639 0.0
H1609 H 0.36896 0.33723 0.83732 0.0
H1610 H 0.36271 0.31893 0.73032 0.0
H1611 H 0.35031 0.3591 0.80393 0.0
H1612 H 0.29661 0.37778 0.74361 0.0
H1613 H 0.31861 0.35911 0.77761 0.0
H1614 H 0.36177 0.35141 0.70635 0.0
H1615 H 0.33984 0.36966 0.67257 0.0
C1616 C 0.37525 0.31068 0.77276 0.0
C1617 C 0.37679 0.31519 0.80337 0.0
C1618 C 0.36429 0.32328 0.75355 0.0
C1619 C 0.3547 0.34072 0.76449 0.0
C1620 C 0.35704 0.34561 0.79482 0.0
C1621 C 0.36791 0.33307 0.81394 0.0
C1622 C 0.31094 0.3724 0.73541 0.0
C1623 C 0.31631 0.37508 0.70529 0.0
C1624 C 0.32358 0.36166 0.75485 0.0
C1625 C 0.34189 0.35344 0.74461 0.0
C1626 C 0.34761 0.35703 0.71487 0.0
C1627 C 0.33504 0.36767 0.69554 0.0
H1628 H 0.66861 0.31435 0.67997 0.0
H1629 H 0.61558 0.31531 0.73555 0.0
H1630 H 0.68555 0.33678 0.71406 0.0
H1631 H 0.63241 0.33882 0.76962 0.0
H1632 H 0.6777 0.36013 0.84053 0.0
H1633 H 0.65761 0.34115 0.80569 0.0
H1634 H 0.68854 0.36951 0.73187 0.0
H1635 H 0.70962 0.38797 0.7672 0.0
C1636 C 0.66042 0.3196 0.69941 0.0
C1637 C 0.64066 0.31306 0.70495 0.0
C1638 C 0.67015 0.33272 0.71891 0.0
C1639 C 0.66039 0.34002 0.74454 0.0
C1640 C 0.64055 0.33344 0.75025 0.0
C1641 C 0.63084 0.31996 0.73078 0.0
C1642 C 0.68027 0.36252 0.81687 0.0
C1643 C 0.69565 0.37546 0.8068 0.0
C1644 C 0.66847 0.35166 0.79675 0.0
C1645 C 0.67145 0.35348 0.76579 0.0
C1646 C 0.68608 0.36727 0.75558 0.0
C1647 C 0.6981 0.37805 0.77583 0.0
H1648 H 0.3895 0.30403 0.24084 0.0
H1649 H 0.36259 0.33692 0.16773 0.0
H1650 H 0.37145 0.32533 0.27632 0.0
H1651 H 0.34393 0.3572 0.20271 0.0
H1652 H 0.31805 0.39884 0.27318 0.0
H1653 H 0.34156 0.38204 0.23913 0.0
H1654 H 0.33873 0.32854 0.29387 0.0
H1655 H 0.31631 0.34551 0.32804 0.0
C1656 C 0.37991 0.31585 0.2323 0.0
C1657 C 0.37739 0.31847 0.20135 0.0
C1658 C 0.36934 0.32797 0.25263 0.0
C1659 C 0.35582 0.34287 0.24252 0.0
C1660 C 0.3542 0.34611 0.21158 0.0
C1661 C 0.36488 0.33421 0.19138 0.0
C1662 C 0.32251 0.3835 0.27776 0.0
C1663 C 0.31541 0.37359 0.30337 0.0
C1664 C 0.336 0.37381 0.2583 0.0
C1665 C 0.34237 0.35388 0.2638 0.0
C1666 C 0.33484 0.34401 0.2892 0.0
C1667 C 0.32172 0.35374 0.30872 0.0
H1668 H 0.62267 0.30328 0.26835 0.0
H1669 H 0.65172 0.33271 0.34292 0.0
H1670 H 0.64138 0.32478 0.23388 0.0
H1671 H 0.67086 0.35333 0.30879 0.0
H1672 H 0.69607 0.39681 0.23931 0.0
H1673 H 0.67281 0.37955 0.27336 0.0
H1674 H 0.67458 0.32704 0.21653 0.0
H1675 H 0.69689 0.3443 0.18262 0.0
C1676 C 0.6329 0.31436 0.27744 0.0
C1677 C 0.63578 0.31597 0.30847 0.0
C1678 C 0.6438 0.32661 0.25768 0.0
C1679 C 0.65795 0.34068 0.26845 0.0
C1680 C 0.66007 0.34288 0.29951 0.0
C1681 C 0.64913 0.33079 0.31917 0.0
C1682 C 0.69145 0.38159 0.23428 0.0
C1683 C 0.69822 0.37205 0.20813 0.0
C1684 C 0.67811 0.37165 0.25371 0.0
C1685 C 0.67147 0.3519 0.24755 0.0
C1686 C 0.6787 0.34238 0.22168 0.0
C1687 C 0.69174 0.3523 0.20229 0.0
H1688 H 0.70786 0.6228 0.26796 0.0
H1689 H 0.68141 0.65625 0.34092 0.0
H1690 H 0.68559 0.64015 0.23299 0.0
H1691 H 0.66017 0.67406 0.30626 0.0
H1692 H 0.61588 0.69858 0.23863 0.0
H1693 H 0.63311 0.67558 0.27304 0.0
H1694 H 0.68316 0.67194 0.21161 0.0
H1695 H 0.66585 0.69384 0.17737 0.0
C1696 C 0.6973 0.63374 0.27659 0.0
C1697 C 0.69674 0.63821 0.30729 0.0
C1698 C 0.68459 0.64385 0.25653 0.0
C1699 C 0.67115 0.65883 0.26662 0.0
C1700 C 0.67005 0.66258 0.29747 0.0
C1701 C 0.68253 0.65239 0.31743 0.0
C1702 C 0.63051 0.69273 0.23257 0.0
C1703 C 0.63934 0.69798 0.20514 0.0
C1704 C 0.64045 0.67956 0.25226 0.0
C1705 C 0.65957 0.67163 0.24511 0.0
C1706 C 0.66829 0.6771 0.21771 0.0
C1707 C 0.65833 0.68992 0.19807 0.0
H1708 H 0.33715 0.64928 0.16675 0.0
H1709 H 0.30248 0.62498 0.24008 0.0
H1710 H 0.3567 0.66912 0.20132 0.0
H1711 H 0.32295 0.6443 0.27522 0.0
H1712 H 0.34204 0.70129 0.3234 0.0
H1713 H 0.32574 0.67793 0.28989 0.0
H1714 H 0.38078 0.67233 0.23921 0.0
H1715 H 0.39701 0.69666 0.27263 0.0
C1716 C 0.33387 0.64785 0.19039 0.0
C1717 C 0.31787 0.6357 0.20048 0.0
C1718 C 0.34533 0.65919 0.21036 0.0
C1719 C 0.34135 0.65867 0.24119 0.0
C1720 C 0.32617 0.64554 0.25155 0.0
C1721 C 0.31453 0.63425 0.23144 0.0
C1722 C 0.35075 0.69511 0.30511 0.0
C1723 C 0.37089 0.70085 0.30076 0.0
C1724 C 0.3414 0.68145 0.28599 0.0
C1725 C 0.35191 0.67283 0.26197 0.0
C1726 C 0.37209 0.67871 0.25734 0.0
C1727 C 0.38144 0.69268 0.27643 0.0
loop_
_geom_bond_atom_site_label_1
_geom_bond_atom_site_label_2
_geom_bond_distance
_geom_bond_site_symmetry_2
_ccdc_geom_bond_type
Co0 O1 2.216 . S
Co0 O2 2.091 . S
Co0 O4 2.004 . S
Co0 O10 2.021 . S
Co0 O12 2.137 . S
Co0 O13 2.244 . S
O1 Co0 2.216 . S
O1 C8 1.247 . S
O2 Co0 2.091 . S
O2 C8 1.261 . S
C3 O12 1.247 . S
C3 O13 1.272 . S
O4 Co0 2.004 . S
O4 C9 1.259 . S
Co5 O6 2.061 . S
Co5 O11 2.052 . S
Co5 O13 2.135 . S
O6 Co5 2.061 . S
O6 C9 1.235 . S
C7 O10 1.238 . S
C7 O11 1.241 . S
C8 O1 1.247 . S
C8 O2 1.261 . S
C9 O4 1.259 . S
C9 O6 1.235 . S
O10 Co0 2.021 . S
O10 C7 1.238 . S
O11 Co5 2.052 . S
O11 C7 1.241 . S
O12 Co0 2.137 . S
O12 C3 1.247 . S
O13 Co0 2.244 . S
O13 C3 1.272 . S
O13 Co5 2.135 . S
Co14 O15 2.216 . S
Co14 O16 2.091 . S
Co14 O18 2.004 . S
Co14 O24 2.021 . S
Co14 O26 2.137 . S
Co14 O27 2.244 . S
O15 Co14 2.216 . S
O15 C22 1.247 . S
O16 Co14 2.091 . S
O16 C22 1.261 . S
C17 O26 1.247 . S
C17 O27 1.272 . S
O18 Co14 2.004 . S
O18 C23 1.259 . S
Co19 O20 2.061 . S
Co19 O25 2.052 . S
Co19 O27 2.135 . S
O20 Co19 2.061 . S
O20 C23 1.235 . S
C21 O24 1.238 . S
C21 O25 1.241 . S
C22 O15 1.247 . S
C22 O16 1.261 . S
C23 O18 1.259 . S
C23 O20 1.235 . S
O24 Co14 2.021 . S
O24 C21 1.238 . S
O25 Co19 2.052 . S
O25 C21 1.241 . S
O26 Co14 2.137 . S
O26 C17 1.247 . S
O27 Co14 2.244 . S
O27 C17 1.272 . S
O27 Co19 2.135 . S
Co28 O29 2.216 . S
Co28 O30 2.091 . S
Co28 O32 2.004 . S
Co28 O38 2.021 . S
Co28 O40 2.137 . S
Co28 O41 2.244 . S
O29 Co28 2.216 . S
O29 C36 1.247 . S
O30 Co28 2.091 . S
O30 C36 1.261 . S
C31 O40 1.247 . S
C31 O41 1.272 . S
O32 Co28 2.004 . S
O32 C37 1.259 . S
Co33 O34 2.061 . S
Co33 O39 2.052 . S
Co33 O41 2.135 . S
O34 Co33 2.061 . S
O34 C37 1.235 . S
C35 O38 1.238 . S
C35 O39 1.241 . S
C36 O29 1.247 . S
C36 O30 1.261 . S
C37 O32 1.259 . S
C37 O34 1.235 . S
O38 Co28 2.021 . S
O38 C35 1.238 . S
O39 Co33 2.052 . S
O39 C35 1.241 . S
O40 Co28 2.137 . S
O40 C31 1.247 . S
O41 Co28 2.244 . S
O41 C31 1.272 . S
O41 Co33 2.135 . S
Co42 O43 2.216 . S
Co42 O44 2.091 . S
Co42 O46 2.004 . S
Co42 O52 2.021 . S
Co42 O54 2.137 . S
Co42 O55 2.244 . S
O43 Co42 2.216 . S
O43 C50 1.247 . S
O44 Co42 2.091 . S
O44 C50 1.261 . S
C45 O54 1.247 . S
C45 O55 1.272 . S
O46 Co42 2.004 . S
O46 C51 1.259 . S
Co47 O48 2.061 . S
Co47 O53 2.052 . S
Co47 O55 2.135 . S
O48 Co47 2.061 . S
O48 C51 1.235 . S
C49 O52 1.238 . S
C49 O53 1.241 . S
C50 O43 1.247 . S
C50 O44 1.261 . S
C51 O46 1.259 . S
C51 O48 1.235 . S
O52 Co42 2.021 . S
O52 C49 1.238 . S
O53 Co47 2.052 . S
O53 C49 1.241 . S
O54 Co42 2.137 . S
O54 C45 1.247 . S
O55 Co42 2.244 . S
O55 C45 1.272 . S
O55 Co47 2.135 . S
Co56 O57 2.216 . S
Co56 O58 2.091 . S
Co56 O60 2.004 . S
Co56 O66 2.021 . S
Co56 O68 2.137 . S
Co56 O69 2.244 . S
O57 Co56 2.216 . S
O57 C64 1.247 . S
O58 Co56 2.091 . S
O58 C64 1.261 . S
C59 O68 1.247 . S
C59 O69 1.272 . S
O60 Co56 2.004 . S
O60 C65 1.259 . S
Co61 O62 2.061 . S
Co61 O67 2.052 . S
Co61 O69 2.135 . S
O62 Co61 2.061 . S
O62 C65 1.235 . S
C63 O66 1.238 . S
C63 O67 1.241 . S
C64 O57 1.247 . S
C64 O58 1.261 . S
C65 O60 1.259 . S
C65 O62 1.235 . S
O66 Co56 2.021 . S
O66 C63 1.238 . S
O67 Co61 2.052 . S
O67 C63 1.241 . S
O68 Co56 2.137 . S
O68 C59 1.247 . S
O69 Co56 2.244 . S
O69 C59 1.272 . S
O69 Co61 2.135 . S
Co70 O71 2.216 . S
Co70 O72 2.091 . S
Co70 O74 2.004 . S
Co70 O80 2.021 . S
Co70 O82 2.137 . S
Co70 O83 2.244 . S
O71 Co70 2.216 . S
O71 C78 1.247 . S
O72 Co70 2.091 . S
O72 C78 1.261 . S
C73 O82 1.247 . S
C73 O83 1.272 . S
O74 Co70 2.004 . S
O74 C79 1.259 . S
Co75 O76 2.061 . S
Co75 O81 2.052 . S
Co75 O83 2.135 . S
O76 Co75 2.061 . S
O76 C79 1.235 . S
C77 O80 1.238 . S
C77 O81 1.241 . S
C78 O71 1.247 . S
C78 O72 1.261 . S
C79 O74 1.259 . S
C79 O76 1.235 . S
O80 Co70 2.021 . S
O80 C77 1.238 . S
O81 Co75 2.052 . S
O81 C77 1.241 . S
O82 Co70 2.137 . S
O82 C73 1.247 . S
O83 Co70 2.244 . S
O83 C73 1.272 . S
O83 Co75 2.135 . S
Co84 O85 2.216 . S
Co84 O86 2.091 . S
Co84 O88 2.004 . S
Co84 O94 2.021 . S
Co84 O96 2.137 . S
Co84 O97 2.244 . S
O85 Co84 2.216 . S
O85 C92 1.247 . S
O86 Co84 2.091 . S
O86 C92 1.261 . S
C87 O96 1.247 . S
C87 O97 1.272 . S
O88 Co84 2.004 . S
O88 C93 1.259 . S
Co89 O90 2.061 . S
Co89 O95 2.052 . S
Co89 O97 2.135 . S
O90 Co89 2.061 . S
O90 C93 1.235 . S
C91 O94 1.238 . S
C91 O95 1.241 . S
C92 O85 1.247 . S
C92 O86 1.261 . S
C93 O88 1.259 . S
C93 O90 1.235 . S
O94 Co84 2.021 . S
O94 C91 1.238 . S
O95 Co89 2.052 . S
O95 C91 1.241 . S
O96 Co84 2.137 . S
O96 C87 1.247 . S
O97 Co84 2.244 . S
O97 C87 1.272 . S
O97 Co89 2.135 . S
Co98 O99 2.216 . S
Co98 O100 2.091 . S
Co98 O102 2.004 . S
Co98 O108 2.021 . S
Co98 O110 2.137 . S
Co98 O111 2.244 . S
O99 Co98 2.216 . S
O99 C106 1.247 . S
O100 Co98 2.091 . S
O100 C106 1.261 . S
C101 O110 1.247 . S
C101 O111 1.272 . S
O102 Co98 2.004 . S
O102 C107 1.259 . S
Co103 O104 2.061 . S
Co103 O109 2.052 . S
Co103 O111 2.135 . S
O104 Co103 2.061 . S
O104 C107 1.235 . S
C105 O108 1.238 . S
C105 O109 1.241 . S
C106 O99 1.247 . S
C106 O100 1.261 . S
C107 O102 1.259 . S
C107 O104 1.235 . S
O108 Co98 2.021 . S
O108 C105 1.238 . S
O109 Co103 2.052 . S
O109 C105 1.241 . S
O110 Co98 2.137 . S
O110 C101 1.247 . S
O111 Co98 2.244 . S
O111 C101 1.272 . S
O111 Co103 2.135 . S
Co112 O113 2.216 . S
Co112 O114 2.091 . S
Co112 O116 2.004 . S
Co112 O122 2.021 . S
Co112 O124 2.137 . S
Co112 O125 2.244 . S
O113 Co112 2.216 . S
O113 C120 1.247 . S
O114 Co112 2.091 . S
O114 C120 1.261 . S
C115 O124 1.247 . S
C115 O125 1.272 . S
O116 Co112 2.004 . S
O116 C121 1.259 . S
Co117 O118 2.061 . S
Co117 O123 2.052 . S
Co117 O125 2.135 . S
O118 Co117 2.061 . S
O118 C121 1.235 . S
C119 O122 1.238 . S
C119 O123 1.241 . S
C120 O113 1.247 . S
C120 O114 1.261 . S
C121 O116 1.259 . S
C121 O118 1.235 . S
O122 Co112 2.021 . S
O122 C119 1.238 . S
O123 Co117 2.052 . S
O123 C119 1.241 . S
O124 Co112 2.137 . S
O124 C115 1.247 . S
O125 Co112 2.244 . S
O125 C115 1.272 . S
O125 Co117 2.135 . S
Co126 O127 2.216 . S
Co126 O128 2.091 . S
Co126 O130 2.004 . S
Co126 O136 2.021 . S
Co126 O138 2.137 . S
Co126 O139 2.244 . S
O127 Co126 2.216 . S
O127 C134 1.247 . S
O128 Co126 2.091 . S
O128 C134 1.261 . S
C129 O138 1.247 . S
C129 O139 1.272 . S
O130 Co126 2.004 . S
O130 C135 1.259 . S
Co131 O132 2.061 . S
Co131 O137 2.052 . S
Co131 O139 2.135 . S
O132 Co131 2.061 . S
O132 C135 1.235 . S
C133 O136 1.238 . S
C133 O137 1.241 . S
C134 O127 1.247 . S
C134 O128 1.261 . S
C135 O130 1.259 . S
C135 O132 1.235 . S
O136 Co126 2.021 . S
O136 C133 1.238 . S
O137 Co131 2.052 . S
O137 C133 1.241 . S
O138 Co126 2.137 . S
O138 C129 1.247 . S
O139 Co126 2.244 . S
O139 C129 1.272 . S
O139 Co131 2.135 . S
Co140 O141 2.216 . S
Co140 O142 2.091 . S
Co140 O144 2.004 . S
Co140 O150 2.021 . S
Co140 O152 2.137 . S
Co140 O153 2.244 . S
O141 Co140 2.216 . S
O141 C148 1.247 . S
O142 Co140 2.091 . S
O142 C148 1.261 . S
C143 O152 1.247 . S
C143 O153 1.272 . S
O144 Co140 2.004 . S
O144 C149 1.259 . S
Co145 O146 2.061 . S
Co145 O151 2.052 . S
Co145 O153 2.135 . S
O146 Co145 2.061 . S
O146 C149 1.235 . S
C147 O150 1.238 . S
C147 O151 1.241 . S
C148 O141 1.247 . S
C148 O142 1.261 . S
C149 O144 1.259 . S
C149 O146 1.235 . S
O150 Co140 2.021 . S
O150 C147 1.238 . S
O151 Co145 2.052 . S
O151 C147 1.241 . S
O152 Co140 2.137 . S
O152 C143 1.247 . S
O153 Co140 2.244 . S
O153 C143 1.272 . S
O153 Co145 2.135 . S
Co154 O155 2.216 . S
Co154 O156 2.091 . S
Co154 O158 2.004 . S
Co154 O164 2.021 . S
Co154 O166 2.137 . S
Co154 O167 2.244 . S
O155 Co154 2.216 . S
O155 C162 1.247 . S
O156 Co154 2.091 . S
O156 C162 1.261 . S
C157 O166 1.247 . S
C157 O167 1.272 . S
O158 Co154 2.004 . S
O158 C163 1.259 . S
Co159 O160 2.061 . S
Co159 O165 2.052 . S
Co159 O167 2.135 . S
O160 Co159 2.061 . S
O160 C163 1.235 . S
C161 O164 1.238 . S
C161 O165 1.241 . S
C162 O155 1.247 . S
C162 O156 1.261 . S
C163 O158 1.259 . S
C163 O160 1.235 . S
O164 Co154 2.021 . S
O164 C161 1.238 . S
O165 Co159 2.052 . S
O165 C161 1.241 . S
O166 Co154 2.137 . S
O166 C157 1.247 . S
O167 Co154 2.244 . S
O167 C157 1.272 . S
O167 Co159 2.135 . S
Co168 O169 2.216 . S
Co168 O170 2.091 . S
Co168 O172 2.004 . S
Co168 O178 2.021 . S
Co168 O180 2.137 . S
Co168 O181 2.244 . S
O169 Co168 2.216 . S
O169 C176 1.247 . S
O170 Co168 2.091 . S
O170 C176 1.261 . S
C171 O180 1.247 . S
C171 O181 1.272 . S
O172 Co168 2.004 . S
O172 C177 1.259 . S
Co173 O174 2.061 . S
Co173 O179 2.052 . S
Co173 O181 2.135 . S
O174 Co173 2.061 . S
O174 C177 1.235 . S
C175 O178 1.238 . S
C175 O179 1.241 . S
C176 O169 1.247 . S
C176 O170 1.261 . S
C177 O172 1.259 . S
C177 O174 1.235 . S
O178 Co168 2.021 . S
O178 C175 1.238 . S
O179 Co173 2.052 . S
O179 C175 1.241 . S
O180 Co168 2.137 . S
O180 C171 1.247 . S
O181 Co168 2.244 . S
O181 C171 1.272 . S
O181 Co173 2.135 . S
Co182 O183 2.216 . S
Co182 O184 2.091 . S
Co182 O186 2.004 . S
Co182 O192 2.021 . S
Co182 O194 2.137 . S
Co182 O195 2.244 . S
O183 Co182 2.216 . S
O183 C190 1.247 . S
O184 Co182 2.091 . S
O184 C190 1.261 . S
C185 O194 1.247 . S
C185 O195 1.272 . S
O186 Co182 2.004 . S
O186 C191 1.259 . S
Co187 O188 2.061 . S
Co187 O193 2.052 . S
Co187 O195 2.135 . S
O188 Co187 2.061 . S
O188 C191 1.235 . S
C189 O192 1.238 . S
C189 O193 1.241 . S
C190 O183 1.247 . S
C190 O184 1.261 . S
C191 O186 1.259 . S
C191 O188 1.235 . S
O192 Co182 2.021 . S
O192 C189 1.238 . S
O193 Co187 2.052 . S
O193 C189 1.241 . S
O194 Co182 2.137 . S
O194 C185 1.247 . S
O195 Co182 2.244 . S
O195 C185 1.272 . S
O195 Co187 2.135 . S
Co196 O197 2.216 . S
Co196 O198 2.091 . S
Co196 O200 2.004 . S
Co196 O206 2.021 . S
Co196 O208 2.137 . S
Co196 O209 2.244 . S
O197 Co196 2.216 . S
O197 C204 1.247 . S
O198 Co196 2.091 . S
O198 C204 1.261 . S
C199 O208 1.247 . S
C199 O209 1.272 . S
O200 Co196 2.004 . S
O200 C205 1.259 . S
Co201 O202 2.061 . S
Co201 O207 2.052 . S
Co201 O209 2.135 . S
O202 Co201 2.061 . S
O202 C205 1.235 . S
C203 O206 1.238 . S
C203 O207 1.241 . S
C204 O197 1.247 . S
C204 O198 1.261 . S
C205 O200 1.259 . S
C205 O202 1.235 . S
O206 Co196 2.021 . S
O206 C203 1.238 . S
O207 Co201 2.052 . S
O207 C203 1.241 . S
O208 Co196 2.137 . S
O208 C199 1.247 . S
O209 Co196 2.244 . S
O209 C199 1.272 . S
O209 Co201 2.135 . S
Co210 O211 2.216 . S
Co210 O212 2.091 . S
Co210 O214 2.004 . S
Co210 O220 2.021 . S
Co210 O222 2.137 . S
Co210 O223 2.244 . S
O211 Co210 2.216 . S
O211 C218 1.247 . S
O212 Co210 2.091 . S
O212 C218 1.261 . S
C213 O222 1.247 . S
C213 O223 1.272 . S
O214 Co210 2.004 . S
O214 C219 1.259 . S
Co215 O216 2.061 . S
Co215 O221 2.052 . S
Co215 O223 2.135 . S
O216 Co215 2.061 . S
O216 C219 1.235 . S
C217 O220 1.238 . S
C217 O221 1.241 . S
C218 O211 1.247 . S
C218 O212 1.261 . S
C219 O214 1.259 . S
C219 O216 1.235 . S
O220 Co210 2.021 . S
O220 C217 1.238 . S
O221 Co215 2.052 . S
O221 C217 1.241 . S
O222 Co210 2.137 . S
O222 C213 1.247 . S
O223 Co210 2.244 . S
O223 C213 1.272 . S
O223 Co215 2.135 . S
Co224 O225 2.216 . S
Co224 O226 2.091 . S
Co224 O228 2.004 . S
Co224 O234 2.021 . S
Co224 O236 2.137 . S
Co224 O237 2.244 . S
O225 Co224 2.216 . S
O225 C232 1.247 . S
O226 Co224 2.091 . S
O226 C232 1.261 . S
C227 O236 1.247 . S
C227 O237 1.272 . S
O228 Co224 2.004 . S
O228 C233 1.259 . S
Co229 O230 2.061 . S
Co229 O235 2.052 . S
Co229 O237 2.135 . S
O230 Co229 2.061 . S
O230 C233 1.235 . S
C231 O234 1.238 . S
C231 O235 1.241 . S
C232 O225 1.247 . S
C232 O226 1.261 . S
C233 O228 1.259 . S
C233 O230 1.235 . S
O234 Co224 2.021 . S
O234 C231 1.238 . S
O235 Co229 2.052 . S
O235 C231 1.241 . S
O236 Co224 2.137 . S
O236 C227 1.247 . S
O237 Co224 2.244 . S
O237 C227 1.272 . S
O237 Co229 2.135 . S
Co238 O239 2.216 . S
Co238 O240 2.091 . S
Co238 O242 2.004 . S
Co238 O248 2.021 . S
Co238 O250 2.137 . S
Co238 O251 2.244 . S
O239 Co238 2.216 . S
O239 C246 1.247 . S
O240 Co238 2.091 . S
O240 C246 1.261 . S
C241 O250 1.247 . S
C241 O251 1.272 . S
O242 Co238 2.004 . S
O242 C247 1.259 . S
Co243 O244 2.061 . S
Co243 O249 2.052 . S
Co243 O251 2.135 . S
O244 Co243 2.061 . S
O244 C247 1.235 . S
C245 O248 1.238 . S
C245 O249 1.241 . S
C246 O239 1.247 . S
C246 O240 1.261 . S
C247 O242 1.259 . S
C247 O244 1.235 . S
O248 Co238 2.021 . S
O248 C245 1.238 . S
O249 Co243 2.052 . S
O249 C245 1.241 . S
O250 Co238 2.137 . S
O250 C241 1.247 . S
O251 Co238 2.244 . S
O251 C241 1.272 . S
O251 Co243 2.135 . S
Co252 O253 2.216 . S
Co252 O254 2.091 . S
Co252 O256 2.004 . S
Co252 O262 2.021 . S
Co252 O264 2.137 . S
Co252 O265 2.244 . S
O253 Co252 2.216 . S
O253 C260 1.247 . S
O254 Co252 2.091 . S
O254 C260 1.261 . S
C255 O264 1.247 . S
C255 O265 1.272 . S
O256 Co252 2.004 . S
O256 C261 1.259 . S
Co257 O258 2.061 . S
Co257 O263 2.052 . S
Co257 O265 2.135 . S
O258 Co257 2.061 . S
O258 C261 1.235 . S
C259 O262 1.238 . S
C259 O263 1.241 . S
C260 O253 1.247 . S
C260 O254 1.261 . S
C261 O256 1.259 . S
C261 O258 1.235 . S
O262 Co252 2.021 . S
O262 C259 1.238 . S
O263 Co257 2.052 . S
O263 C259 1.241 . S
O264 Co252 2.137 . S
O264 C255 1.247 . S
O265 Co252 2.244 . S
O265 C255 1.272 . S
O265 Co257 2.135 . S
Co266 O267 2.216 . S
Co266 O268 2.091 . S
Co266 O270 2.004 . S
Co266 O276 2.021 . S
Co266 O278 2.137 . S
Co266 O279 2.244 . S
O267 Co266 2.216 . S
O267 C274 1.247 . S
O268 Co266 2.091 . S
O268 C274 1.261 . S
C269 O278 1.247 . S
C269 O279 1.272 . S
O270 Co266 2.004 . S
O270 C275 1.259 . S
Co271 O272 2.061 . S
Co271 O277 2.052 . S
Co271 O279 2.135 . S
O272 Co271 2.061 . S
O272 C275 1.235 . S
C273 O276 1.238 . S
C273 O277 1.241 . S
C274 O267 1.247 . S
C274 O268 1.261 . S
C275 O270 1.259 . S
C275 O272 1.235 . S
O276 Co266 2.021 . S
O276 C273 1.238 . S
O277 Co271 2.052 . S
O277 C273 1.241 . S
O278 Co266 2.137 . S
O278 C269 1.247 . S
O279 Co266 2.244 . S
O279 C269 1.272 . S
O279 Co271 2.135 . S
Co280 O281 2.216 . S
Co280 O282 2.091 . S
Co280 O284 2.004 . S
Co280 O290 2.021 . S
Co280 O292 2.137 . S
Co280 O293 2.244 . S
O281 Co280 2.216 . S
O281 C288 1.247 . S
O282 Co280 2.091 . S
O282 C288 1.261 . S
C283 O292 1.247 . S
C283 O293 1.272 . S
O284 Co280 2.004 . S
O284 C289 1.259 . S
Co285 O286 2.061 . S
Co285 O291 2.052 . S
Co285 O293 2.135 . S
O286 Co285 2.061 . S
O286 C289 1.235 . S
C287 O290 1.238 . S
C287 O291 1.241 . S
C288 O281 1.247 . S
C288 O282 1.261 . S
C289 O284 1.259 . S
C289 O286 1.235 . S
O290 Co280 2.021 . S
O290 C287 1.238 . S
O291 Co285 2.052 . S
O291 C287 1.241 . S
O292 Co280 2.137 . S
O292 C283 1.247 . S
O293 Co280 2.244 . S
O293 C283 1.272 . S
O293 Co285 2.135 . S
Co294 O295 2.216 . S
Co294 O296 2.091 . S
Co294 O298 2.004 . S
Co294 O304 2.021 . S
Co294 O306 2.137 . S
Co294 O307 2.244 . S
O295 Co294 2.216 . S
O295 C302 1.247 . S
O296 Co294 2.091 . S
O296 C302 1.261 . S
C297 O306 1.247 . S
C297 O307 1.272 . S
O298 Co294 2.004 . S
O298 C303 1.259 . S
Co299 O300 2.061 . S
Co299 O305 2.052 . S
Co299 O307 2.135 . S
O300 Co299 2.061 . S
O300 C303 1.235 . S
C301 O304 1.238 . S
C301 O305 1.241 . S
C302 O295 1.247 . S
C302 O296 1.261 . S
C303 O298 1.259 . S
C303 O300 1.235 . S
O304 Co294 2.021 . S
O304 C301 1.238 . S
O305 Co299 2.052 . S
O305 C301 1.241 . S
O306 Co294 2.137 . S
O306 C297 1.247 . S
O307 Co294 2.244 . S
O307 C297 1.272 . S
O307 Co299 2.135 . S
Co308 O309 2.216 . S
Co308 O310 2.091 . S
Co308 O312 2.004 . S
Co308 O318 2.021 . S
Co308 O320 2.137 . S
Co308 O321 2.244 . S
O309 Co308 2.216 . S
O309 C316 1.247 . S
O310 Co308 2.091 . S
O310 C316 1.261 . S
C311 O320 1.247 . S
C311 O321 1.272 . S
O312 Co308 2.004 . S
O312 C317 1.259 . S
Co313 O314 2.061 . S
Co313 O319 2.052 . S
Co313 O321 2.135 . S
O314 Co313 2.061 . S
O314 C317 1.235 . S
C315 O318 1.238 . S
C315 O319 1.241 . S
C316 O309 1.247 . S
C316 O310 1.261 . S
C317 O312 1.259 . S
C317 O314 1.235 . S
O318 Co308 2.021 . S
O318 C315 1.238 . S
O319 Co313 2.052 . S
O319 C315 1.241 . S
O320 Co308 2.137 . S
O320 C311 1.247 . S
O321 Co308 2.244 . S
O321 C311 1.272 . S
O321 Co313 2.135 . S
Co322 O323 2.216 . S
Co322 O324 2.091 . S
Co322 O326 2.004 . S
Co322 O332 2.021 . S
Co322 O334 2.137 . S
Co322 O335 2.244 . S
O323 Co322 2.216 . S
O323 C330 1.247 . S
O324 Co322 2.091 . S
O324 C330 1.261 . S
C325 O334 1.247 . S
C325 O335 1.272 . S
O326 Co322 2.004 . S
O326 C331 1.259 . S
Co327 O328 2.061 . S
Co327 O333 2.052 . S
Co327 O335 2.135 . S
O328 Co327 2.061 . S
O328 C331 1.235 . S
C329 O332 1.238 . S
C329 O333 1.241 . S
C330 O323 1.247 . S
C330 O324 1.261 . S
C331 O326 1.259 . S
C331 O328 1.235 . S
O332 Co322 2.021 . S
O332 C329 1.238 . S
O333 Co327 2.052 . S
O333 C329 1.241 . S
O334 Co322 2.137 . S
O334 C325 1.247 . S
O335 Co322 2.244 . S
O335 C325 1.272 . S
O335 Co327 2.135 . S
Co336 O337 2.216 . S
Co336 O338 2.091 . S
Co336 O340 2.004 . S
Co336 O346 2.021 . S
Co336 O348 2.137 . S
Co336 O349 2.244 . S
O337 Co336 2.216 . S
O337 C344 1.247 . S
O338 Co336 2.091 . S
O338 C344 1.261 . S
C339 O348 1.247 . S
C339 O349 1.272 . S
O340 Co336 2.004 . S
O340 C345 1.259 . S
Co341 O342 2.061 . S
Co341 O347 2.052 . S
Co341 O349 2.135 . S
O342 Co341 2.061 . S
O342 C345 1.235 . S
C343 O346 1.238 . S
C343 O347 1.241 . S
C344 O337 1.247 . S
C344 O338 1.261 . S
C345 O340 1.259 . S
C345 O342 1.235 . S
O346 Co336 2.021 . S
O346 C343 1.238 . S
O347 Co341 2.052 . S
O347 C343 1.241 . S
O348 Co336 2.137 . S
O348 C339 1.247 . S
O349 Co336 2.244 . S
O349 C339 1.272 . S
O349 Co341 2.135 . S
Co350 O351 2.216 . S
Co350 O352 2.091 . S
Co350 O354 2.004 . S
Co350 O360 2.021 . S
Co350 O362 2.137 . S
Co350 O363 2.244 . S
O351 Co350 2.216 . S
O351 C358 1.247 . S
O352 Co350 2.091 . S
O352 C358 1.261 . S
C353 O362 1.247 . S
C353 O363 1.272 . S
O354 Co350 2.004 . S
O354 C359 1.259 . S
Co355 O356 2.061 . S
Co355 O361 2.052 . S
Co355 O363 2.135 . S
O356 Co355 2.061 . S
O356 C359 1.235 . S
C357 O360 1.238 . S
C357 O361 1.241 . S
C358 O351 1.247 . S
C358 O352 1.261 . S
C359 O354 1.259 . S
C359 O356 1.235 . S
O360 Co350 2.021 . S
O360 C357 1.238 . S
O361 Co355 2.052 . S
O361 C357 1.241 . S
O362 Co350 2.137 . S
O362 C353 1.247 . S
O363 Co350 2.244 . S
O363 C353 1.272 . S
O363 Co355 2.135 . S
Co364 O365 2.216 . S
Co364 O366 2.091 . S
Co364 O368 2.004 . S
Co364 O374 2.021 . S
Co364 O376 2.137 . S
Co364 O377 2.244 . S
O365 Co364 2.216 . S
O365 C372 1.247 . S
O366 Co364 2.091 . S
O366 C372 1.261 . S
C367 O376 1.247 . S
C367 O377 1.272 . S
O368 Co364 2.004 . S
O368 C373 1.259 . S
Co369 O370 2.061 . S
Co369 O375 2.052 . S
Co369 O377 2.135 . S
O370 Co369 2.061 . S
O370 C373 1.235 . S
C371 O374 1.238 . S
C371 O375 1.241 . S
C372 O365 1.247 . S
C372 O366 1.261 . S
C373 O368 1.259 . S
C373 O370 1.235 . S
O374 Co364 2.021 . S
O374 C371 1.238 . S
O375 Co369 2.052 . S
O375 C371 1.241 . S
O376 Co364 2.137 . S
O376 C367 1.247 . S
O377 Co364 2.244 . S
O377 C367 1.272 . S
O377 Co369 2.135 . S
Co378 O379 2.216 . S
Co378 O380 2.091 . S
Co378 O382 2.004 . S
Co378 O388 2.021 . S
Co378 O390 2.137 . S
Co378 O391 2.244 . S
O379 Co378 2.216 . S
O379 C386 1.247 . S
O380 Co378 2.091 . S
O380 C386 1.261 . S
C381 O390 1.247 . S
C381 O391 1.272 . S
O382 Co378 2.004 . S
O382 C387 1.259 . S
Co383 O384 2.061 . S
Co383 O389 2.052 . S
Co383 O391 2.135 . S
O384 Co383 2.061 . S
O384 C387 1.235 . S
C385 O388 1.238 . S
C385 O389 1.241 . S
C386 O379 1.247 . S
C386 O380 1.261 . S
C387 O382 1.259 . S
C387 O384 1.235 . S
O388 Co378 2.021 . S
O388 C385 1.238 . S
O389 Co383 2.052 . S
O389 C385 1.241 . S
O390 Co378 2.137 . S
O390 C381 1.247 . S
O391 Co378 2.244 . S
O391 C381 1.272 . S
O391 Co383 2.135 . S
Co392 O393 2.216 . S
Co392 O394 2.091 . S
Co392 O396 2.004 . S
Co392 O402 2.021 . S
Co392 O404 2.137 . S
Co392 O405 2.244 . S
O393 Co392 2.216 . S
O393 C400 1.247 . S
O394 Co392 2.091 . S
O394 C400 1.261 . S
C395 O404 1.247 . S
C395 O405 1.272 . S
O396 Co392 2.004 . S
O396 C401 1.259 . S
Co397 O398 2.061 . S
Co397 O403 2.052 . S
Co397 O405 2.135 . S
O398 Co397 2.061 . S
O398 C401 1.235 . S
C399 O402 1.238 . S
C399 O403 1.241 . S
C400 O393 1.247 . S
C400 O394 1.261 . S
C401 O396 1.259 . S
C401 O398 1.235 . S
O402 Co392 2.021 . S
O402 C399 1.238 . S
O403 Co397 2.052 . S
O403 C399 1.241 . S
O404 Co392 2.137 . S
O404 C395 1.247 . S
O405 Co392 2.244 . S
O405 C395 1.272 . S
O405 Co397 2.135 . S
Co406 O407 2.216 . S
Co406 O408 2.091 . S
Co406 O410 2.004 . S
Co406 O416 2.021 . S
Co406 O418 2.137 . S
Co406 O419 2.244 . S
O407 Co406 2.216 . S
O407 C414 1.247 . S
O408 Co406 2.091 . S
O408 C414 1.261 . S
C409 O418 1.247 . S
C409 O419 1.272 . S
O410 Co406 2.004 . S
O410 C415 1.259 . S
Co411 O412 2.061 . S
Co411 O417 2.052 . S
Co411 O419 2.135 . S
O412 Co411 2.061 . S
O412 C415 1.235 . S
C413 O416 1.238 . S
C413 O417 1.241 . S
C414 O407 1.247 . S
C414 O408 1.261 . S
C415 O410 1.259 . S
C415 O412 1.235 . S
O416 Co406 2.021 . S
O416 C413 1.238 . S
O417 Co411 2.052 . S
O417 C413 1.241 . S
O418 Co406 2.137 . S
O418 C409 1.247 . S
O419 Co406 2.244 . S
O419 C409 1.272 . S
O419 Co411 2.135 . S
Co420 O421 2.216 . S
Co420 O422 2.091 . S
Co420 O424 2.004 . S
Co420 O430 2.021 . S
Co420 O432 2.137 . S
Co420 O433 2.244 . S
O421 Co420 2.216 . S
O421 C428 1.247 . S
O422 Co420 2.091 . S
O422 C428 1.261 . S
C423 O432 1.247 . S
C423 O433 1.272 . S
O424 Co420 2.004 . S
O424 C429 1.259 . S
Co425 O426 2.061 . S
Co425 O431 2.052 . S
Co425 O433 2.135 . S
O426 Co425 2.061 . S
O426 C429 1.235 . S
C427 O430 1.238 . S
C427 O431 1.241 . S
C428 O421 1.247 . S
C428 O422 1.261 . S
C429 O424 1.259 . S
C429 O426 1.235 . S
O430 Co420 2.021 . S
O430 C427 1.238 . S
O431 Co425 2.052 . S
O431 C427 1.241 . S
O432 Co420 2.137 . S
O432 C423 1.247 . S
O433 Co420 2.244 . S
O433 C423 1.272 . S
O433 Co425 2.135 . S
Co434 O435 2.216 . S
Co434 O436 2.091 . S
Co434 O438 2.004 . S
Co434 O444 2.021 . S
Co434 O446 2.137 . S
Co434 O447 2.244 . S
O435 Co434 2.216 . S
O435 C442 1.247 . S
O436 Co434 2.091 . S
O436 C442 1.261 . S
C437 O446 1.247 . S
C437 O447 1.272 . S
O438 Co434 2.004 . S
O438 C443 1.259 . S
Co439 O440 2.061 . S
Co439 O445 2.052 . S
Co439 O447 2.135 . S
O440 Co439 2.061 . S
O440 C443 1.235 . S
C441 O444 1.238 . S
C441 O445 1.241 . S
C442 O435 1.247 . S
C442 O436 1.261 . S
C443 O438 1.259 . S
C443 O440 1.235 . S
O444 Co434 2.021 . S
O444 C441 1.238 . S
O445 Co439 2.052 . S
O445 C441 1.241 . S
O446 Co434 2.137 . S
O446 C437 1.247 . S
O447 Co434 2.244 . S
O447 C437 1.272 . S
O447 Co439 2.135 . S
H448 C456 0.950 . S
H449 C461 0.950 . S
H450 C458 0.950 . S
H451 C460 0.950 . S
H452 C462 0.950 . S
H453 C464 0.950 . S
H454 C466 0.950 . S
H455 C467 0.950 . S
C456 H448 0.950 . S
C456 C457 1.386 . S
C456 C458 1.391 . S
C457 C456 1.386 . S
C457 C461 1.393 . S
C458 H450 0.950 . S
C458 C456 1.391 . S
C458 C459 1.400 . S
C459 C458 1.400 . S
C459 C460 1.398 . S
C459 C465 1.491 . S
C460 H451 0.950 . S
C460 C459 1.398 . S
C460 C461 1.391 . S
C461 H449 0.950 . S
C461 C457 1.393 . S
C461 C460 1.391 . S
C462 H452 0.950 . S
C462 C463 1.386 . S
C462 C464 1.391 . S
C463 C462 1.386 . S
C463 C467 1.393 . S
C464 H453 0.950 . S
C464 C462 1.391 . S
C464 C465 1.400 . S
C465 C459 1.491 . S
C465 C464 1.400 . S
C465 C466 1.398 . S
C466 H454 0.950 . S
C466 C465 1.398 . S
C466 C467 1.391 . S
C467 H455 0.950 . S
C467 C463 1.393 . S
C467 C466 1.391 . S
H468 C476 0.950 . S
H469 C481 0.950 . S
H470 C478 0.950 . S
H471 C480 0.950 . S
H472 C482 0.950 . S
H473 C484 0.950 . S
H474 C486 0.950 . S
H475 C487 0.950 . S
C476 H468 0.950 . S
C476 C477 1.386 . S
C476 C478 1.391 . S
C477 C476 1.386 . S
C477 C481 1.393 . S
C478 H470 0.950 . S
C478 C476 1.391 . S
C478 C479 1.400 . S
C479 C478 1.400 . S
C479 C480 1.398 . S
C479 C485 1.491 . S
C480 H471 0.950 . S
C480 C479 1.398 . S
C480 C481 1.391 . S
C481 H469 0.950 . S
C481 C477 1.393 . S
C481 C480 1.391 . S
C482 H472 0.950 . S
C482 C483 1.386 . S
C482 C484 1.391 . S
C483 C482 1.386 . S
C483 C487 1.393 . S
C484 H473 0.950 . S
C484 C482 1.391 . S
C484 C485 1.400 . S
C485 C479 1.491 . S
C485 C484 1.400 . S
C485 C486 1.398 . S
C486 H474 0.950 . S
C486 C485 1.398 . S
C486 C487 1.391 . S
C487 H475 0.950 . S
C487 C483 1.393 . S
C487 C486 1.391 . S
H488 C496 0.950 . S
H489 C501 0.950 . S
H490 C498 0.950 . S
H491 C500 0.950 . S
H492 C502 0.950 . S
H493 C504 0.950 . S
H494 C506 0.950 . S
H495 C507 0.950 . S
C496 H488 0.950 . S
C496 C497 1.386 . S
C496 C498 1.391 . S
C497 C496 1.386 . S
C497 C501 1.393 . S
C498 H490 0.950 . S
C498 C496 1.391 . S
C498 C499 1.400 . S
C499 C498 1.400 . S
C499 C500 1.398 . S
C499 C505 1.491 . S
C500 H491 0.950 . S
C500 C499 1.398 . S
C500 C501 1.391 . S
C501 H489 0.950 . S
C501 C497 1.393 . S
C501 C500 1.391 . S
C502 H492 0.950 . S
C502 C503 1.386 . S
C502 C504 1.391 . S
C503 C502 1.386 . S
C503 C507 1.393 . S
C504 H493 0.950 . S
C504 C502 1.391 . S
C504 C505 1.400 . S
C505 C499 1.491 . S
C505 C504 1.400 . S
C505 C506 1.398 . S
C506 H494 0.950 . S
C506 C505 1.398 . S
C506 C507 1.391 . S
C507 H495 0.950 . S
C507 C503 1.393 . S
C507 C506 1.391 . S
H508 C516 0.950 . S
H509 C521 0.950 . S
H510 C518 0.950 . S
H511 C520 0.950 . S
H512 C522 0.950 . S
H513 C524 0.950 . S
H514 C526 0.950 . S
H515 C527 0.950 . S
C516 H508 0.950 . S
C516 C517 1.386 . S
C516 C518 1.391 . S
C517 C516 1.386 . S
C517 C521 1.393 . S
C518 H510 0.950 . S
C518 C516 1.391 . S
C518 C519 1.400 . S
C519 C518 1.400 . S
C519 C520 1.398 . S
C519 C525 1.491 . S
C520 H511 0.950 . S
C520 C519 1.398 . S
C520 C521 1.391 . S
C521 H509 0.950 . S
C521 C517 1.393 . S
C521 C520 1.391 . S
C522 H512 0.950 . S
C522 C523 1.386 . S
C522 C524 1.391 . S
C523 C522 1.386 . S
C523 C527 1.393 . S
C524 H513 0.950 . S
C524 C522 1.391 . S
C524 C525 1.400 . S
C525 C519 1.491 . S
C525 C524 1.400 . S
C525 C526 1.398 . S
C526 H514 0.950 . S
C526 C525 1.398 . S
C526 C527 1.391 . S
C527 H515 0.950 . S
C527 C523 1.393 . S
C527 C526 1.391 . S
H528 C536 0.950 . S
H529 C541 0.950 . S
H530 C538 0.950 . S
H531 C540 0.950 . S
H532 C542 0.950 . S
H533 C544 0.950 . S
H534 C546 0.950 . S
H535 C547 0.950 . S
C536 H528 0.950 . S
C536 C537 1.386 . S
C536 C538 1.391 . S
C537 C536 1.386 . S
C537 C541 1.393 . S
C538 H530 0.950 . S
C538 C536 1.391 . S
C538 C539 1.400 . S
C539 C538 1.400 . S
C539 C540 1.398 . S
C539 C545 1.491 . S
C540 H531 0.950 . S
C540 C539 1.398 . S
C540 C541 1.391 . S
C541 H529 0.950 . S
C541 C537 1.393 . S
C541 C540 1.391 . S
C542 H532 0.950 . S
C542 C543 1.386 . S
C542 C544 1.391 . S
C543 C542 1.386 . S
C543 C547 1.393 . S
C544 H533 0.950 . S
C544 C542 1.391 . S
C544 C545 1.400 . S
C545 C539 1.491 . S
C545 C544 1.400 . S
C545 C546 1.398 . S
C546 H534 0.950 . S
C546 C545 1.398 . S
C546 C547 1.391 . S
C547 H535 0.950 . S
C547 C543 1.393 . S
C547 C546 1.391 . S
H548 C556 0.950 . S
H549 C561 0.950 . S
H550 C558 0.950 . S
H551 C560 0.950 . S
H552 C562 0.950 . S
H553 C564 0.950 . S
H554 C566 0.950 . S
H555 C567 0.950 . S
C556 H548 0.950 . S
C556 C557 1.386 . S
C556 C558 1.391 . S
C557 C556 1.386 . S
C557 C561 1.393 . S
C558 H550 0.950 . S
C558 C556 1.391 . S
C558 C559 1.400 . S
C559 C558 1.400 . S
C559 C560 1.398 . S
C559 C565 1.491 . S
C560 H551 0.950 . S
C560 C559 1.398 . S
C560 C561 1.391 . S
C561 H549 0.950 . S
C561 C557 1.393 . S
C561 C560 1.391 . S
C562 H552 0.950 . S
C562 C563 1.386 . S
C562 C564 1.391 . S
C563 C562 1.386 . S
C563 C567 1.393 . S
C564 H553 0.950 . S
C564 C562 1.391 . S
C564 C565 1.400 . S
C565 C559 1.491 . S
C565 C564 1.400 . S
C565 C566 1.398 . S
C566 H554 0.950 . S
C566 C565 1.398 . S
C566 C567 1.391 . S
C567 H555 0.950 . S
C567 C563 1.393 . S
C567 C566 1.391 . S
H568 C576 0.950 . S
H569 C581 0.950 . S
H570 C578 0.950 . S
H571 C580 0.950 . S
H572 C582 0.950 . S
H573 C584 0.950 . S
H574 C586 0.950 . S
H575 C587 0.950 . S
C576 H568 0.950 . S
C576 C577 1.386 . S
C576 C578 1.391 . S
C577 C576 1.386 . S
C577 C581 1.393 . S
C578 H570 0.950 . S
C578 C576 1.391 . S
C578 C579 1.400 . S
C579 C578 1.400 . S
C579 C580 1.398 . S
C579 C585 1.491 . S
C580 H571 0.950 . S
C580 C579 1.398 . S
C580 C581 1.391 . S
C581 H569 0.950 . S
C581 C577 1.393 . S
C581 C580 1.391 . S
C582 H572 0.950 . S
C582 C583 1.386 . S
C582 C584 1.391 . S
C583 C582 1.386 . S
C583 C587 1.393 . S
C584 H573 0.950 . S
C584 C582 1.391 . S
C584 C585 1.400 . S
C585 C579 1.491 . S
C585 C584 1.400 . S
C585 C586 1.398 . S
C586 H574 0.950 . S
C586 C585 1.398 . S
C586 C587 1.391 . S
C587 H575 0.950 . S
C587 C583 1.393 . S
C587 C586 1.391 . S
H588 C596 0.950 . S
H589 C601 0.950 . S
H590 C598 0.950 . S
H591 C600 0.950 . S
H592 C602 0.950 . S
H593 C604 0.950 . S
H594 C606 0.950 . S
H595 C607 0.950 . S
C596 H588 0.950 . S
C596 C597 1.386 . S
C596 C598 1.391 . S
C597 C596 1.386 . S
C597 C601 1.393 . S
C598 H590 0.950 . S
C598 C596 1.391 . S
C598 C599 1.400 . S
C599 C598 1.400 . S
C599 C600 1.398 . S
C599 C605 1.491 . S
C600 H591 0.950 . S
C600 C599 1.398 . S
C600 C601 1.391 . S
C601 H589 0.950 . S
C601 C597 1.393 . S
C601 C600 1.391 . S
C602 H592 0.950 . S
C602 C603 1.386 . S
C602 C604 1.391 . S
C603 C602 1.386 . S
C603 C607 1.393 . S
C604 H593 0.950 . S
C604 C602 1.391 . S
C604 C605 1.400 . S
C605 C599 1.491 . S
C605 C604 1.400 . S
C605 C606 1.398 . S
C606 H594 0.950 . S
C606 C605 1.398 . S
C606 C607 1.391 . S
C607 H595 0.950 . S
C607 C603 1.393 . S
C607 C606 1.391 . S
H608 C616 0.950 . S
H609 C621 0.950 . S
H610 C618 0.950 . S
H611 C620 0.950 . S
H612 C622 0.950 . S
H613 C624 0.950 . S
H614 C626 0.950 . S
H615 C627 0.950 . S
C616 H608 0.950 . S
C616 C617 1.386 . S
C616 C618 1.391 . S
C617 C616 1.386 . S
C617 C621 1.393 . S
C618 H610 0.950 . S
C618 C616 1.391 . S
C618 C619 1.400 . S
C619 C618 1.400 . S
C619 C620 1.398 . S
C619 C625 1.491 . S
C620 H611 0.950 . S
C620 C619 1.398 . S
C620 C621 1.391 . S
C621 H609 0.950 . S
C621 C617 1.393 . S
C621 C620 1.391 . S
C622 H612 0.950 . S
C622 C623 1.386 . S
C622 C624 1.391 . S
C623 C622 1.386 . S
C623 C627 1.393 . S
C624 H613 0.950 . S
C624 C622 1.391 . S
C624 C625 1.400 . S
C625 C619 1.491 . S
C625 C624 1.400 . S
C625 C626 1.398 . S
C626 H614 0.950 . S
C626 C625 1.398 . S
C626 C627 1.391 . S
C627 H615 0.950 . S
C627 C623 1.393 . S
C627 C626 1.391 . S
H628 C636 0.950 . S
H629 C641 0.950 . S
H630 C638 0.950 . S
H631 C640 0.950 . S
H632 C642 0.950 . S
H633 C644 0.950 . S
H634 C646 0.950 . S
H635 C647 0.950 . S
C636 H628 0.950 . S
C636 C637 1.386 . S
C636 C638 1.391 . S
C637 C636 1.386 . S
C637 C641 1.393 . S
C638 H630 0.950 . S
C638 C636 1.391 . S
C638 C639 1.400 . S
C639 C638 1.400 . S
C639 C640 1.398 . S
C639 C645 1.491 . S
C640 H631 0.950 . S
C640 C639 1.398 . S
C640 C641 1.391 . S
C641 H629 0.950 . S
C641 C637 1.393 . S
C641 C640 1.391 . S
C642 H632 0.950 . S
C642 C643 1.386 . S
C642 C644 1.391 . S
C643 C642 1.386 . S
C643 C647 1.393 . S
C644 H633 0.950 . S
C644 C642 1.391 . S
C644 C645 1.400 . S
C645 C639 1.491 . S
C645 C644 1.400 . S
C645 C646 1.398 . S
C646 H634 0.950 . S
C646 C645 1.398 . S
C646 C647 1.391 . S
C647 H635 0.950 . S
C647 C643 1.393 . S
C647 C646 1.391 . S
H648 C656 0.950 . S
H649 C661 0.950 . S
H650 C658 0.950 . S
H651 C660 0.950 . S
H652 C662 0.950 . S
H653 C664 0.950 . S
H654 C666 0.950 . S
H655 C667 0.950 . S
C656 H648 0.950 . S
C656 C657 1.386 . S
C656 C658 1.391 . S
C657 C656 1.386 . S
C657 C661 1.393 . S
C658 H650 0.950 . S
C658 C656 1.391 . S
C658 C659 1.400 . S
C659 C658 1.400 . S
C659 C660 1.398 . S
C659 C665 1.491 . S
C660 H651 0.950 . S
C660 C659 1.398 . S
C660 C661 1.391 . S
C661 H649 0.950 . S
C661 C657 1.393 . S
C661 C660 1.391 . S
C662 H652 0.950 . S
C662 C663 1.386 . S
C662 C664 1.391 . S
C663 C662 1.386 . S
C663 C667 1.393 . S
C664 H653 0.950 . S
C664 C662 1.391 . S
C664 C665 1.400 . S
C665 C659 1.491 . S
C665 C664 1.400 . S
C665 C666 1.398 . S
C666 H654 0.950 . S
C666 C665 1.398 . S
C666 C667 1.391 . S
C667 H655 0.950 . S
C667 C663 1.393 . S
C667 C666 1.391 . S
H668 C676 0.950 . S
H669 C681 0.950 . S
H670 C678 0.950 . S
H671 C680 0.950 . S
H672 C682 0.950 . S
H673 C684 0.950 . S
H674 C686 0.950 . S
H675 C687 0.950 . S
C676 H668 0.950 . S
C676 C677 1.386 . S
C676 C678 1.391 . S
C677 C676 1.386 . S
C677 C681 1.393 . S
C678 H670 0.950 . S
C678 C676 1.391 . S
C678 C679 1.400 . S
C679 C678 1.400 . S
C679 C680 1.398 . S
C679 C685 1.491 . S
C680 H671 0.950 . S
C680 C679 1.398 . S
C680 C681 1.391 . S
C681 H669 0.950 . S
C681 C677 1.393 . S
C681 C680 1.391 . S
C682 H672 0.950 . S
C682 C683 1.386 . S
C682 C684 1.391 . S
C683 C682 1.386 . S
C683 C687 1.393 . S
C684 H673 0.950 . S
C684 C682 1.391 . S
C684 C685 1.400 . S
C685 C679 1.491 . S
C685 C684 1.400 . S
C685 C686 1.398 . S
C686 H674 0.950 . S
C686 C685 1.398 . S
C686 C687 1.391 . S
C687 H675 0.950 . S
C687 C683 1.393 . S
C687 C686 1.391 . S
H688 C696 0.950 . S
H689 C701 0.950 . S
H690 C698 0.950 . S
H691 C700 0.950 . S
H692 C702 0.950 . S
H693 C704 0.950 . S
H694 C706 0.950 . S
H695 C707 0.950 . S
C696 H688 0.950 . S
C696 C697 1.386 . S
C696 C698 1.391 . S
C697 C696 1.386 . S
C697 C701 1.393 . S
C698 H690 0.950 . S
C698 C696 1.391 . S
C698 C699 1.400 . S
C699 C698 1.400 . S
C699 C700 1.398 . S
C699 C705 1.491 . S
C700 H691 0.950 . S
C700 C699 1.398 . S
C700 C701 1.391 . S
C701 H689 0.950 . S
C701 C697 1.393 . S
C701 C700 1.391 . S
C702 H692 0.950 . S
C702 C703 1.386 . S
C702 C704 1.391 . S
C703 C702 1.386 . S
C703 C707 1.393 . S
C704 H693 0.950 . S
C704 C702 1.391 . S
C704 C705 1.400 . S
C705 C699 1.491 . S
C705 C704 1.400 . S
C705 C706 1.398 . S
C706 H694 0.950 . S
C706 C705 1.398 . S
C706 C707 1.391 . S
C707 H695 0.950 . S
C707 C703 1.393 . S
C707 C706 1.391 . S
H708 C716 0.950 . S
H709 C721 0.950 . S
H710 C718 0.950 . S
H711 C720 0.950 . S
H712 C722 0.950 . S
H713 C724 0.950 . S
H714 C726 0.950 . S
H715 C727 0.950 . S
C716 H708 0.950 . S
C716 C717 1.386 . S
C716 C718 1.391 . S
C717 C716 1.386 . S
C717 C721 1.393 . S
C718 H710 0.950 . S
C718 C716 1.391 . S
C718 C719 1.400 . S
C719 C718 1.400 . S
C719 C720 1.398 . S
C719 C725 1.491 . S
C720 H711 0.950 . S
C720 C719 1.398 . S
C720 C721 1.391 . S
C721 H709 0.950 . S
C721 C717 1.393 . S
C721 C720 1.391 . S
C722 H712 0.950 . S
C722 C723 1.386 . S
C722 C724 1.391 . S
C723 C722 1.386 . S
C723 C727 1.393 . S
C724 H713 0.950 . S
C724 C722 1.391 . S
C724 C725 1.400 . S
C725 C719 1.491 . S
C725 C724 1.400 . S
C725 C726 1.398 . S
C726 H714 0.950 . S
C726 C725 1.398 . S
C726 C727 1.391 . S
C727 H715 0.950 . S
C727 C723 1.393 . S
C727 C726 1.391 . S
H728 C736 0.950 . S
H729 C741 0.950 . S
H730 C738 0.950 . S
H731 C740 0.950 . S
H732 C742 0.950 . S
H733 C744 0.950 . S
H734 C746 0.950 . S
H735 C747 0.950 . S
C736 H728 0.950 . S
C736 C737 1.386 . S
C736 C738 1.391 . S
C737 C736 1.386 . S
C737 C741 1.393 . S
C738 H730 0.950 . S
C738 C736 1.391 . S
C738 C739 1.400 . S
C739 C738 1.400 . S
C739 C740 1.398 . S
C739 C745 1.491 . S
C740 H731 0.950 . S
C740 C739 1.398 . S
C740 C741 1.391 . S
C741 H729 0.950 . S
C741 C737 1.393 . S
C741 C740 1.391 . S
C742 H732 0.950 . S
C742 C743 1.386 . S
C742 C744 1.391 . S
C743 C742 1.386 . S
C743 C747 1.393 . S
C744 H733 0.950 . S
C744 C742 1.391 . S
C744 C745 1.400 . S
C745 C739 1.491 . S
C745 C744 1.400 . S
C745 C746 1.398 . S
C746 H734 0.950 . S
C746 C745 1.398 . S
C746 C747 1.391 . S
C747 H735 0.950 . S
C747 C743 1.393 . S
C747 C746 1.391 . S
H748 C756 0.950 . S
H749 C761 0.950 . S
H750 C758 0.950 . S
H751 C760 0.950 . S
H752 C762 0.950 . S
H753 C764 0.950 . S
H754 C766 0.950 . S
H755 C767 0.950 . S
C756 H748 0.950 . S
C756 C757 1.386 . S
C756 C758 1.391 . S
C757 C756 1.386 . S
C757 C761 1.393 . S
C758 H750 0.950 . S
C758 C756 1.391 . S
C758 C759 1.400 . S
C759 C758 1.400 . S
C759 C760 1.398 . S
C759 C765 1.491 . S
C760 H751 0.950 . S
C760 C759 1.398 . S
C760 C761 1.391 . S
C761 H749 0.950 . S
C761 C757 1.393 . S
C761 C760 1.391 . S
C762 H752 0.950 . S
C762 C763 1.386 . S
C762 C764 1.391 . S
C763 C762 1.386 . S
C763 C767 1.393 . S
C764 H753 0.950 . S
C764 C762 1.391 . S
C764 C765 1.400 . S
C765 C759 1.491 . S
C765 C764 1.400 . S
C765 C766 1.398 . S
C766 H754 0.950 . S
C766 C765 1.398 . S
C766 C767 1.391 . S
C767 H755 0.950 . S
C767 C763 1.393 . S
C767 C766 1.391 . S
H768 C776 0.950 . S
H769 C781 0.950 . S
H770 C778 0.950 . S
H771 C780 0.950 . S
H772 C782 0.950 . S
H773 C784 0.950 . S
H774 C786 0.950 . S
H775 C787 0.950 . S
C776 H768 0.950 . S
C776 C777 1.386 . S
C776 C778 1.391 . S
C777 C776 1.386 . S
C777 C781 1.393 . S
C778 H770 0.950 . S
C778 C776 1.391 . S
C778 C779 1.400 . S
C779 C778 1.400 . S
C779 C780 1.398 . S
C779 C785 1.491 1_554 S
C780 H771 0.950 . S
C780 C779 1.398 . S
C780 C781 1.391 . S
C781 H769 0.950 . S
C781 C777 1.393 . S
C781 C780 1.391 . S
C782 H772 0.950 . S
C782 C783 1.386 . S
C782 C784 1.391 . S
C783 C782 1.386 . S
C783 C787 1.393 . S
C784 H773 0.950 . S
C784 C782 1.391 . S
C784 C785 1.400 . S
C785 C779 1.491 1_556 S
C785 C784 1.400 . S
C785 C786 1.398 . S
C786 H774 0.950 . S
C786 C785 1.398 . S
C786 C787 1.391 . S
C787 H775 0.950 . S
C787 C783 1.393 . S
C787 C786 1.391 . S
H788 C796 0.950 . S
H789 C801 0.950 . S
H790 C798 0.950 . S
H791 C800 0.950 . S
H792 C802 0.950 . S
H793 C804 0.950 . S
H794 C806 0.950 . S
H795 C807 0.950 . S
C796 H788 0.950 . S
C796 C797 1.386 . S
C796 C798 1.391 . S
C797 C796 1.386 . S
C797 C801 1.393 . S
C798 H790 0.950 . S
C798 C796 1.391 . S
C798 C799 1.400 . S
C799 C798 1.400 . S
C799 C800 1.398 . S
C799 C805 1.491 1_556 S
C800 H791 0.950 . S
C800 C799 1.398 . S
C800 C801 1.391 . S
C801 H789 0.950 . S
C801 C797 1.393 . S
C801 C800 1.391 . S
C802 H792 0.950 . S
C802 C803 1.386 . S
C802 C804 1.391 . S
C803 C802 1.386 . S
C803 C807 1.393 . S
C804 H793 0.950 . S
C804 C802 1.391 . S
C804 C805 1.400 . S
C805 C799 1.491 1_554 S
C805 C804 1.400 . S
C805 C806 1.398 . S
C806 H794 0.950 . S
C806 C805 1.398 . S
C806 C807 1.391 . S
C807 H795 0.950 . S
C807 C803 1.393 . S
C807 C806 1.391 . S
H808 C816 0.950 . S
H809 C821 0.950 . S
H810 C818 0.950 . S
H811 C820 0.950 . S
H812 C822 0.950 . S
H813 C824 0.950 . S
H814 C826 0.950 . S
H815 C827 0.950 . S
C816 H808 0.950 . S
C816 C817 1.386 . S
C816 C818 1.391 . S
C817 C816 1.386 . S
C817 C821 1.393 . S
C818 H810 0.950 . S
C818 C816 1.391 . S
C818 C819 1.400 . S
C819 C818 1.400 . S
C819 C820 1.398 . S
C819 C825 1.491 1_556 S
C820 H811 0.950 . S
C820 C819 1.398 . S
C820 C821 1.391 . S
C821 H809 0.950 . S
C821 C817 1.393 . S
C821 C820 1.391 . S
C822 H812 0.950 . S
C822 C823 1.386 . S
C822 C824 1.391 . S
C823 C822 1.386 . S
C823 C827 1.393 . S
C824 H813 0.950 . S
C824 C822 1.391 . S
C824 C825 1.400 . S
C825 C819 1.491 1_554 S
C825 C824 1.400 . S
C825 C826 1.398 . S
C826 H814 0.950 . S
C826 C825 1.398 . S
C826 C827 1.391 . S
C827 H815 0.950 . S
C827 C823 1.393 . S
C827 C826 1.391 . S
H828 C836 0.950 . S
H829 C841 0.950 . S
H830 C838 0.950 . S
H831 C840 0.950 . S
H832 C842 0.950 . S
H833 C844 0.950 . S
H834 C846 0.950 . S
H835 C847 0.950 . S
C836 H828 0.950 . S
C836 C837 1.386 . S
C836 C838 1.391 . S
C837 C836 1.386 . S
C837 C841 1.393 . S
C838 H830 0.950 . S
C838 C836 1.391 . S
C838 C839 1.400 . S
C839 C838 1.400 . S
C839 C840 1.398 . S
C839 C845 1.491 1_556 S
C840 H831 0.950 . S
C840 C839 1.398 . S
C840 C841 1.391 . S
C841 H829 0.950 . S
C841 C837 1.393 . S
C841 C840 1.391 . S
C842 H832 0.950 . S
C842 C843 1.386 . S
C842 C844 1.391 . S
C843 C842 1.386 . S
C843 C847 1.393 . S
C844 H833 0.950 . S
C844 C842 1.391 . S
C844 C845 1.400 . S
C845 C839 1.491 1_554 S
C845 C844 1.400 . S
C845 C846 1.398 . S
C846 H834 0.950 . S
C846 C845 1.398 . S
C846 C847 1.391 . S
C847 H835 0.950 . S
C847 C843 1.393 . S
C847 C846 1.391 . S
H848 C856 0.950 . S
H849 C861 0.950 . S
H850 C858 0.950 . S
H851 C860 0.950 . S
H852 C862 0.950 . S
H853 C864 0.950 . S
H854 C866 0.950 . S
H855 C867 0.950 . S
C856 H848 0.950 . S
C856 C857 1.386 . S
C856 C858 1.391 . S
C857 C856 1.386 . S
C857 C861 1.393 . S
C858 H850 0.950 . S
C858 C856 1.391 . S
C858 C859 1.400 . S
C859 C858 1.400 . S
C859 C860 1.398 . S
C859 C865 1.491 . S
C860 H851 0.950 . S
C860 C859 1.398 . S
C860 C861 1.391 . S
C861 H849 0.950 . S
C861 C857 1.393 . S
C861 C860 1.391 . S
C862 H852 0.950 . S
C862 C863 1.386 . S
C862 C864 1.391 . S
C863 C862 1.386 . S
C863 C867 1.393 . S
C864 H853 0.950 . S
C864 C862 1.391 . S
C864 C865 1.400 . S
C865 C859 1.491 . S
C865 C864 1.400 . S
C865 C866 1.398 . S
C866 H854 0.950 . S
C866 C865 1.398 . S
C866 C867 1.391 . S
C867 H855 0.950 . S
C867 C863 1.393 . S
C867 C866 1.391 . S
H868 C876 0.950 . S
H869 C881 0.950 . S
H870 C878 0.950 . S
H871 C880 0.950 . S
H872 C882 0.950 . S
H873 C884 0.950 . S
H874 C886 0.950 . S
H875 C887 0.950 . S
C876 H868 0.950 . S
C876 C877 1.386 . S
C876 C878 1.391 . S
C877 C876 1.386 . S
C877 C881 1.393 . S
C878 H870 0.950 . S
C878 C876 1.391 . S
C878 C879 1.400 . S
C879 C878 1.400 . S
C879 C880 1.398 . S
C879 C885 1.491 . S
C880 H871 0.950 . S
C880 C879 1.398 . S
C880 C881 1.391 . S
C881 H869 0.950 . S
C881 C877 1.393 . S
C881 C880 1.391 . S
C882 H872 0.950 . S
C882 C883 1.386 . S
C882 C884 1.391 . S
C883 C882 1.386 . S
C883 C887 1.393 . S
C884 H873 0.950 . S
C884 C882 1.391 . S
C884 C885 1.400 . S
C885 C879 1.491 . S
C885 C884 1.400 . S
C885 C886 1.398 . S
C886 H874 0.950 . S
C886 C885 1.398 . S
C886 C887 1.391 . S
C887 H875 0.950 . S
C887 C883 1.393 . S
C887 C886 1.391 . S
H888 C896 0.950 . S
H889 C901 0.950 . S
H890 C898 0.950 . S
H891 C900 0.950 . S
H892 C902 0.950 . S
H893 C904 0.950 . S
H894 C906 0.950 . S
H895 C907 0.950 . S
C896 H888 0.950 . S
C896 C897 1.386 . S
C896 C898 1.391 . S
C897 C896 1.386 . S
C897 C901 1.393 . S
C898 H890 0.950 . S
C898 C896 1.391 . S
C898 C899 1.400 . S
C899 C898 1.400 . S
C899 C900 1.398 . S
C899 C905 1.491 . S
C900 H891 0.950 . S
C900 C899 1.398 . S
C900 C901 1.391 . S
C901 H889 0.950 . S
C901 C897 1.393 . S
C901 C900 1.391 . S
C902 H892 0.950 . S
C902 C903 1.386 . S
C902 C904 1.391 . S
C903 C902 1.386 . S
C903 C907 1.393 . S
C904 H893 0.950 . S
C904 C902 1.391 . S
C904 C905 1.400 . S
C905 C899 1.491 . S
C905 C904 1.400 . S
C905 C906 1.398 . S
C906 H894 0.950 . S
C906 C905 1.398 . S
C906 C907 1.391 . S
C907 H895 0.950 . S
C907 C903 1.393 . S
C907 C906 1.391 . S
H908 C916 0.950 . S
H909 C921 0.950 . S
H910 C918 0.950 . S
H911 C920 0.950 . S
H912 C922 0.950 . S
H913 C924 0.950 . S
H914 C926 0.950 . S
H915 C927 0.950 . S
C916 H908 0.950 . S
C916 C917 1.386 . S
C916 C918 1.391 . S
C917 C916 1.386 . S
C917 C921 1.393 . S
C918 H910 0.950 . S
C918 C916 1.391 . S
C918 C919 1.400 . S
C919 C918 1.400 . S
C919 C920 1.398 . S
C919 C925 1.491 . S
C920 H911 0.950 . S
C920 C919 1.398 . S
C920 C921 1.391 . S
C921 H909 0.950 . S
C921 C917 1.393 . S
C921 C920 1.391 . S
C922 H912 0.950 . S
C922 C923 1.386 . S
C922 C924 1.391 . S
C923 C922 1.386 . S
C923 C927 1.393 . S
C924 H913 0.950 . S
C924 C922 1.391 . S
C924 C925 1.400 . S
C925 C919 1.491 . S
C925 C924 1.400 . S
C925 C926 1.398 . S
C926 H914 0.950 . S
C926 C925 1.398 . S
C926 C927 1.391 . S
C927 H915 0.950 . S
C927 C923 1.393 . S
C927 C926 1.391 . S
H928 C936 0.950 . S
H929 C941 0.950 . S
H930 C938 0.950 . S
H931 C940 0.950 . S
H932 C942 0.950 . S
H933 C944 0.950 . S
H934 C946 0.950 . S
H935 C947 0.950 . S
C936 H928 0.950 . S
C936 C937 1.386 . S
C936 C938 1.391 . S
C937 C936 1.386 . S
C937 C941 1.393 . S
C938 H930 0.950 . S
C938 C936 1.391 . S
C938 C939 1.400 . S
C939 C938 1.400 . S
C939 C940 1.398 . S
C939 C945 1.491 . S
C940 H931 0.950 . S
C940 C939 1.398 . S
C940 C941 1.391 . S
C941 H929 0.950 . S
C941 C937 1.393 . S
C941 C940 1.391 . S
C942 H932 0.950 . S
C942 C943 1.386 . S
C942 C944 1.391 . S
C943 C942 1.386 . S
C943 C947 1.393 . S
C944 H933 0.950 . S
C944 C942 1.391 . S
C944 C945 1.400 . S
C945 C939 1.491 . S
C945 C944 1.400 . S
C945 C946 1.398 . S
C946 H934 0.950 . S
C946 C945 1.398 . S
C946 C947 1.391 . S
C947 H935 0.950 . S
C947 C943 1.393 . S
C947 C946 1.391 . S
H948 C956 0.950 . S
H949 C961 0.950 . S
H950 C958 0.950 . S
H951 C960 0.950 . S
H952 C962 0.950 . S
H953 C964 0.950 . S
H954 C966 0.950 . S
H955 C967 0.950 . S
C956 H948 0.950 . S
C956 C957 1.386 . S
C956 C958 1.391 . S
C957 C956 1.386 . S
C957 C961 1.393 . S
C958 H950 0.950 . S
C958 C956 1.391 . S
C958 C959 1.400 . S
C959 C958 1.400 . S
C959 C960 1.398 . S
C959 C965 1.491 . S
C960 H951 0.950 . S
C960 C959 1.398 . S
C960 C961 1.391 . S
C961 H949 0.950 . S
C961 C957 1.393 . S
C961 C960 1.391 . S
C962 H952 0.950 . S
C962 C963 1.386 . S
C962 C964 1.391 . S
C963 C962 1.386 . S
C963 C967 1.393 . S
C964 H953 0.950 . S
C964 C962 1.391 . S
C964 C965 1.400 . S
C965 C959 1.491 . S
C965 C964 1.400 . S
C965 C966 1.398 . S
C966 H954 0.950 . S
C966 C965 1.398 . S
C966 C967 1.391 . S
C967 H955 0.950 . S
C967 C963 1.393 . S
C967 C966 1.391 . S
H968 C976 0.950 . S
H969 C981 0.950 . S
H970 C978 0.950 . S
H971 C980 0.950 . S
H972 C982 0.950 . S
H973 C984 0.950 . S
H974 C986 0.950 . S
H975 C987 0.950 . S
C976 H968 0.950 . S
C976 C977 1.386 . S
C976 C978 1.391 . S
C977 C976 1.386 . S
C977 C981 1.393 . S
C978 H970 0.950 . S
C978 C976 1.391 . S
C978 C979 1.400 . S
C979 C978 1.400 . S
C979 C980 1.398 . S
C979 C985 1.491 . S
C980 H971 0.950 . S
C980 C979 1.398 . S
C980 C981 1.391 . S
C981 H969 0.950 . S
C981 C977 1.393 . S
C981 C980 1.391 . S
C982 H972 0.950 . S
C982 C983 1.386 . S
C982 C984 1.391 . S
C983 C982 1.386 . S
C983 C987 1.393 . S
C984 H973 0.950 . S
C984 C982 1.391 . S
C984 C985 1.400 . S
C985 C979 1.491 . S
C985 C984 1.400 . S
C985 C986 1.398 . S
C986 H974 0.950 . S
C986 C985 1.398 . S
C986 C987 1.391 . S
C987 H975 0.950 . S
C987 C983 1.393 . S
C987 C986 1.391 . S
H988 C996 0.950 . S
H989 C1001 0.950 . S
H990 C998 0.950 . S
H991 C1000 0.950 . S
H992 C1002 0.950 . S
H993 C1004 0.950 . S
H994 C1006 0.950 . S
H995 C1007 0.950 . S
C996 H988 0.950 . S
C996 C997 1.386 . S
C996 C998 1.391 . S
C997 C996 1.386 . S
C997 C1001 1.393 . S
C998 H990 0.950 . S
C998 C996 1.391 . S
C998 C999 1.400 . S
C999 C998 1.400 . S
C999 C1000 1.398 . S
C999 C1005 1.491 . S
C1000 H991 0.950 . S
C1000 C999 1.398 . S
C1000 C1001 1.391 . S
C1001 H989 0.950 . S
C1001 C997 1.393 . S
C1001 C1000 1.391 . S
C1002 H992 0.950 . S
C1002 C1003 1.386 . S
C1002 C1004 1.391 . S
C1003 C1002 1.386 . S
C1003 C1007 1.393 . S
C1004 H993 0.950 . S
C1004 C1002 1.391 . S
C1004 C1005 1.400 . S
C1005 C999 1.491 . S
C1005 C1004 1.400 . S
C1005 C1006 1.398 . S
C1006 H994 0.950 . S
C1006 C1005 1.398 . S
C1006 C1007 1.391 . S
C1007 H995 0.950 . S
C1007 C1003 1.393 . S
C1007 C1006 1.391 . S
H1008 C1016 0.950 . S
H1009 C1021 0.950 . S
H1010 C1018 0.950 . S
H1011 C1020 0.950 . S
H1012 C1022 0.950 . S
H1013 C1024 0.950 . S
H1014 C1026 0.950 . S
H1015 C1027 0.950 . S
C1016 H1008 0.950 . S
C1016 C1017 1.386 . S
C1016 C1018 1.391 . S
C1017 C1016 1.386 . S
C1017 C1021 1.393 . S
C1018 H1010 0.950 . S
C1018 C1016 1.391 . S
C1018 C1019 1.400 . S
C1019 C1018 1.400 . S
C1019 C1020 1.398 . S
C1019 C1025 1.491 1_556 S
C1020 H1011 0.950 . S
C1020 C1019 1.398 . S
C1020 C1021 1.391 . S
C1021 H1009 0.950 . S
C1021 C1017 1.393 . S
C1021 C1020 1.391 . S
C1022 H1012 0.950 . S
C1022 C1023 1.386 . S
C1022 C1024 1.391 . S
C1023 C1022 1.386 . S
C1023 C1027 1.393 . S
C1024 H1013 0.950 . S
C1024 C1022 1.391 . S
C1024 C1025 1.400 . S
C1025 C1019 1.491 1_554 S
C1025 C1024 1.400 . S
C1025 C1026 1.398 . S
C1026 H1014 0.950 . S
C1026 C1025 1.398 . S
C1026 C1027 1.391 . S
C1027 H1015 0.950 . S
C1027 C1023 1.393 . S
C1027 C1026 1.391 . S
H1028 C1036 0.950 . S
H1029 C1041 0.950 . S
H1030 C1038 0.950 . S
H1031 C1040 0.950 . S
H1032 C1042 0.950 . S
H1033 C1044 0.950 . S
H1034 C1046 0.950 . S
H1035 C1047 0.950 . S
C1036 H1028 0.950 . S
C1036 C1037 1.386 . S
C1036 C1038 1.391 . S
C1037 C1036 1.386 . S
C1037 C1041 1.393 . S
C1038 H1030 0.950 . S
C1038 C1036 1.391 . S
C1038 C1039 1.400 . S
C1039 C1038 1.400 . S
C1039 C1040 1.398 . S
C1039 C1045 1.491 1_554 S
C1040 H1031 0.950 . S
C1040 C1039 1.398 . S
C1040 C1041 1.391 . S
C1041 H1029 0.950 . S
C1041 C1037 1.393 . S
C1041 C1040 1.391 . S
C1042 H1032 0.950 . S
C1042 C1043 1.386 . S
C1042 C1044 1.391 . S
C1043 C1042 1.386 . S
C1043 C1047 1.393 . S
C1044 H1033 0.950 . S
C1044 C1042 1.391 . S
C1044 C1045 1.400 . S
C1045 C1039 1.491 1_556 S
C1045 C1044 1.400 . S
C1045 C1046 1.398 . S
C1046 H1034 0.950 . S
C1046 C1045 1.398 . S
C1046 C1047 1.391 . S
C1047 H1035 0.950 . S
C1047 C1043 1.393 . S
C1047 C1046 1.391 . S
H1048 C1056 0.950 . S
H1049 C1061 0.950 . S
H1050 C1058 0.950 . S
H1051 C1060 0.950 . S
H1052 C1062 0.950 . S
H1053 C1064 0.950 . S
H1054 C1066 0.950 . S
H1055 C1067 0.950 . S
C1056 H1048 0.950 . S
C1056 C1057 1.386 . S
C1056 C1058 1.391 . S
C1057 C1056 1.386 . S
C1057 C1061 1.393 . S
C1058 H1050 0.950 . S
C1058 C1056 1.391 . S
C1058 C1059 1.400 . S
C1059 C1058 1.400 . S
C1059 C1060 1.398 . S
C1059 C1065 1.491 1_554 S
C1060 H1051 0.950 . S
C1060 C1059 1.398 . S
C1060 C1061 1.391 . S
C1061 H1049 0.950 . S
C1061 C1057 1.393 . S
C1061 C1060 1.391 . S
C1062 H1052 0.950 . S
C1062 C1063 1.386 . S
C1062 C1064 1.391 . S
C1063 C1062 1.386 . S
C1063 C1067 1.393 . S
C1064 H1053 0.950 . S
C1064 C1062 1.391 . S
C1064 C1065 1.400 . S
C1065 C1059 1.491 1_556 S
C1065 C1064 1.400 . S
C1065 C1066 1.398 . S
C1066 H1054 0.950 . S
C1066 C1065 1.398 . S
C1066 C1067 1.391 . S
C1067 H1055 0.950 . S
C1067 C1063 1.393 . S
C1067 C1066 1.391 . S
H1068 C1076 0.950 . S
H1069 C1081 0.950 . S
H1070 C1078 0.950 . S
H1071 C1080 0.950 . S
H1072 C1082 0.950 . S
H1073 C1084 0.950 . S
H1074 C1086 0.950 . S
H1075 C1087 0.950 . S
C1076 H1068 0.950 . S
C1076 C1077 1.386 . S
C1076 C1078 1.391 . S
C1077 C1076 1.386 . S
C1077 C1081 1.393 . S
C1078 H1070 0.950 . S
C1078 C1076 1.391 . S
C1078 C1079 1.400 . S
C1079 C1078 1.400 . S
C1079 C1080 1.398 . S
C1079 C1085 1.491 1_556 S
C1080 H1071 0.950 . S
C1080 C1079 1.398 . S
C1080 C1081 1.391 . S
C1081 H1069 0.950 . S
C1081 C1077 1.393 . S
C1081 C1080 1.391 . S
C1082 H1072 0.950 . S
C1082 C1083 1.386 . S
C1082 C1084 1.391 . S
C1083 C1082 1.386 . S
C1083 C1087 1.393 . S
C1084 H1073 0.950 . S
C1084 C1082 1.391 . S
C1084 C1085 1.400 . S
C1085 C1079 1.491 1_554 S
C1085 C1084 1.400 . S
C1085 C1086 1.398 . S
C1086 H1074 0.950 . S
C1086 C1085 1.398 . S
C1086 C1087 1.391 . S
C1087 H1075 0.950 . S
C1087 C1083 1.393 . S
C1087 C1086 1.391 . S
H1088 C1096 0.950 . S
H1089 C1101 0.950 . S
H1090 C1098 0.950 1_565 S
H1091 C1100 0.950 . S
H1092 C1102 0.950 . S
H1093 C1104 0.950 1_545 S
H1094 C1106 0.950 . S
H1095 C1107 0.950 . S
C1096 H1088 0.950 . S
C1096 C1097 1.386 . S
C1096 C1098 1.391 . S
C1097 C1096 1.386 . S
C1097 C1101 1.393 . S
C1098 H1090 0.950 1_545 S
C1098 C1096 1.391 . S
C1098 C1099 1.400 . S
C1099 C1098 1.400 . S
C1099 C1100 1.398 . S
C1099 C1105 1.491 1_545 S
C1100 H1091 0.950 . S
C1100 C1099 1.398 . S
C1100 C1101 1.391 . S
C1101 H1089 0.950 . S
C1101 C1097 1.393 . S
C1101 C1100 1.391 . S
C1102 H1092 0.950 . S
C1102 C1103 1.386 . S
C1102 C1104 1.391 . S
C1103 C1102 1.386 . S
C1103 C1107 1.393 . S
C1104 H1093 0.950 1_565 S
C1104 C1102 1.391 . S
C1104 C1105 1.400 . S
C1105 C1099 1.491 1_565 S
C1105 C1104 1.400 . S
C1105 C1106 1.398 . S
C1106 H1094 0.950 . S
C1106 C1105 1.398 . S
C1106 C1107 1.391 . S
C1107 H1095 0.950 . S
C1107 C1103 1.393 . S
C1107 C1106 1.391 . S
H1108 C1116 0.950 . S
H1109 C1121 0.950 . S
H1110 C1118 0.950 1_455 S
H1111 C1120 0.950 . S
H1112 C1122 0.950 . S
H1113 C1124 0.950 1_655 S
H1114 C1126 0.950 . S
H1115 C1127 0.950 . S
C1116 H1108 0.950 . S
C1116 C1117 1.386 . S
C1116 C1118 1.391 . S
C1117 C1116 1.386 . S
C1117 C1121 1.393 . S
C1118 H1110 0.950 1_655 S
C1118 C1116 1.391 . S
C1118 C1119 1.400 . S
C1119 C1118 1.400 . S
C1119 C1120 1.398 . S
C1119 C1125 1.491 1_655 S
C1120 H1111 0.950 . S
C1120 C1119 1.398 . S
C1120 C1121 1.391 . S
C1121 H1109 0.950 . S
C1121 C1117 1.393 . S
C1121 C1120 1.391 . S
C1122 H1112 0.950 . S
C1122 C1123 1.386 . S
C1122 C1124 1.391 . S
C1123 C1122 1.386 . S
C1123 C1127 1.393 . S
C1124 H1113 0.950 1_455 S
C1124 C1122 1.391 . S
C1124 C1125 1.400 . S
C1125 C1119 1.491 1_455 S
C1125 C1124 1.400 . S
C1125 C1126 1.398 . S
C1126 H1114 0.950 . S
C1126 C1125 1.398 . S
C1126 C1127 1.391 . S
C1127 H1115 0.950 . S
C1127 C1123 1.393 . S
C1127 C1126 1.391 . S
H1128 C1136 0.950 . S
H1129 C1141 0.950 . S
H1130 C1138 0.950 . S
H1131 C1140 0.950 . S
H1132 C1142 0.950 . S
H1133 C1144 0.950 . S
H1134 C1146 0.950 . S
H1135 C1147 0.950 . S
C1136 H1128 0.950 . S
C1136 C1137 1.386 . S
C1136 C1138 1.391 . S
C1137 C1136 1.386 . S
C1137 C1141 1.393 . S
C1138 H1130 0.950 . S
C1138 C1136 1.391 . S
C1138 C1139 1.400 . S
C1139 C1138 1.400 . S
C1139 C1140 1.398 . S
C1139 C1145 1.491 1_545 S
C1140 H1131 0.950 . S
C1140 C1139 1.398 . S
C1140 C1141 1.391 . S
C1141 H1129 0.950 . S
C1141 C1137 1.393 . S
C1141 C1140 1.391 . S
C1142 H1132 0.950 . S
C1142 C1143 1.386 . S
C1142 C1144 1.391 . S
C1143 C1142 1.386 . S
C1143 C1147 1.393 . S
C1144 H1133 0.950 . S
C1144 C1142 1.391 . S
C1144 C1145 1.400 . S
C1145 C1139 1.491 1_565 S
C1145 C1144 1.400 . S
C1145 C1146 1.398 . S
C1146 H1134 0.950 . S
C1146 C1145 1.398 . S
C1146 C1147 1.391 . S
C1147 H1135 0.950 . S
C1147 C1143 1.393 . S
C1147 C1146 1.391 . S
H1148 C1156 0.950 . S
H1149 C1161 0.950 . S
H1150 C1158 0.950 . S
H1151 C1160 0.950 1_655 S
H1152 C1162 0.950 . S
H1153 C1164 0.950 . S
H1154 C1166 0.950 1_455 S
H1155 C1167 0.950 . S
C1156 H1148 0.950 . S
C1156 C1157 1.386 . S
C1156 C1158 1.391 . S
C1157 C1156 1.386 . S
C1157 C1161 1.393 . S
C1158 H1150 0.950 . S
C1158 C1156 1.391 . S
C1158 C1159 1.400 . S
C1159 C1158 1.400 . S
C1159 C1160 1.398 . S
C1159 C1165 1.491 1_455 S
C1160 H1151 0.950 1_455 S
C1160 C1159 1.398 . S
C1160 C1161 1.391 . S
C1161 H1149 0.950 . S
C1161 C1157 1.393 . S
C1161 C1160 1.391 . S
C1162 H1152 0.950 . S
C1162 C1163 1.386 . S
C1162 C1164 1.391 . S
C1163 C1162 1.386 . S
C1163 C1167 1.393 . S
C1164 H1153 0.950 . S
C1164 C1162 1.391 . S
C1164 C1165 1.400 . S
C1165 C1159 1.491 1_655 S
C1165 C1164 1.400 . S
C1165 C1166 1.398 . S
C1166 H1154 0.950 1_655 S
C1166 C1165 1.398 . S
C1166 C1167 1.391 . S
C1167 H1155 0.950 . S
C1167 C1163 1.393 . S
C1167 C1166 1.391 . S
H1168 C1176 0.950 . S
H1169 C1181 0.950 . S
H1170 C1178 0.950 . S
H1171 C1180 0.950 1_545 S
H1172 C1182 0.950 . S
H1173 C1184 0.950 . S
H1174 C1186 0.950 1_565 S
H1175 C1187 0.950 . S
C1176 H1168 0.950 . S
C1176 C1177 1.386 . S
C1176 C1178 1.391 . S
C1177 C1176 1.386 . S
C1177 C1181 1.393 . S
C1178 H1170 0.950 . S
C1178 C1176 1.391 . S
C1178 C1179 1.400 . S
C1179 C1178 1.400 . S
C1179 C1180 1.398 . S
C1179 C1185 1.491 1_565 S
C1180 H1171 0.950 1_565 S
C1180 C1179 1.398 . S
C1180 C1181 1.391 . S
C1181 H1169 0.950 . S
C1181 C1177 1.393 . S
C1181 C1180 1.391 . S
C1182 H1172 0.950 . S
C1182 C1183 1.386 . S
C1182 C1184 1.391 . S
C1183 C1182 1.386 . S
C1183 C1187 1.393 . S
C1184 H1173 0.950 . S
C1184 C1182 1.391 . S
C1184 C1185 1.400 . S
C1185 C1179 1.491 1_545 S
C1185 C1184 1.400 . S
C1185 C1186 1.398 . S
C1186 H1174 0.950 1_545 S
C1186 C1185 1.398 . S
C1186 C1187 1.391 . S
C1187 H1175 0.950 . S
C1187 C1183 1.393 . S
C1187 C1186 1.391 . S
H1188 C1196 0.950 . S
H1189 C1201 0.950 . S
H1190 C1198 0.950 . S
H1191 C1200 0.950 . S
H1192 C1202 0.950 . S
H1193 C1204 0.950 . S
H1194 C1206 0.950 . S
H1195 C1207 0.950 . S
C1196 H1188 0.950 . S
C1196 C1197 1.386 . S
C1196 C1198 1.391 . S
C1197 C1196 1.386 . S
C1197 C1201 1.393 . S
C1198 H1190 0.950 . S
C1198 C1196 1.391 . S
C1198 C1199 1.400 . S
C1199 C1198 1.400 . S
C1199 C1200 1.398 . S
C1199 C1205 1.491 1_655 S
C1200 H1191 0.950 . S
C1200 C1199 1.398 . S
C1200 C1201 1.391 . S
C1201 H1189 0.950 . S
C1201 C1197 1.393 . S
C1201 C1200 1.391 . S
C1202 H1192 0.950 . S
C1202 C1203 1.386 . S
C1202 C1204 1.391 . S
C1203 C1202 1.386 . S
C1203 C1207 1.393 . S
C1204 H1193 0.950 . S
C1204 C1202 1.391 . S
C1204 C1205 1.400 . S
C1205 C1199 1.491 1_455 S
C1205 C1204 1.400 . S
C1205 C1206 1.398 . S
C1206 H1194 0.950 . S
C1206 C1205 1.398 . S
C1206 C1207 1.391 . S
C1207 H1195 0.950 . S
C1207 C1203 1.393 . S
C1207 C1206 1.391 . S
H1208 C1216 0.950 . S
H1209 C1221 0.950 . S
H1210 C1218 0.950 . S
H1211 C1220 0.953 . S
H1212 C1222 0.950 . S
H1213 C1224 0.950 . S
H1214 C1226 0.953 . S
H1215 C1227 0.950 . S
C1216 H1208 0.950 . S
C1216 C1217 1.386 . S
C1216 C1218 1.391 . S
C1217 C1216 1.386 . S
C1217 C1221 1.393 . S
C1218 H1210 0.950 . S
C1218 C1216 1.391 . S
C1218 C1219 1.400 . S
C1219 C1218 1.400 . S
C1219 C1220 1.398 . S
C1219 C1225 1.491 1_565 S
C1220 H1211 0.953 . S
C1220 C1219 1.398 . S
C1220 C1221 1.391 . S
C1221 H1209 0.950 . S
C1221 C1217 1.393 . S
C1221 C1220 1.391 . S
C1222 H1212 0.950 . S
C1222 C1223 1.386 . S
C1222 C1224 1.391 . S
C1223 C1222 1.386 . S
C1223 C1227 1.393 . S
C1224 H1213 0.950 . S
C1224 C1222 1.391 . S
C1224 C1225 1.400 . S
C1225 C1219 1.491 1_545 S
C1225 C1224 1.400 . S
C1225 C1226 1.398 . S
C1226 H1214 0.953 . S
C1226 C1225 1.398 . S
C1226 C1227 1.391 . S
C1227 H1215 0.950 . S
C1227 C1223 1.393 . S
C1227 C1226 1.391 . S
H1228 C1236 0.950 . S
H1229 C1241 0.950 . S
H1230 C1238 0.950 . S
H1231 C1240 0.950 1_455 S
H1232 C1242 0.950 . S
H1233 C1244 0.950 . S
H1234 C1246 0.950 1_655 S
H1235 C1247 0.950 . S
C1236 H1228 0.950 . S
C1236 C1237 1.386 . S
C1236 C1238 1.391 . S
C1237 C1236 1.386 . S
C1237 C1241 1.393 . S
C1238 H1230 0.950 . S
C1238 C1236 1.391 . S
C1238 C1239 1.400 . S
C1239 C1238 1.400 . S
C1239 C1240 1.398 . S
C1239 C1245 1.491 1_655 S
C1240 H1231 0.950 1_655 S
C1240 C1239 1.398 . S
C1240 C1241 1.391 . S
C1241 H1229 0.950 . S
C1241 C1237 1.393 . S
C1241 C1240 1.391 . S
C1242 H1232 0.950 . S
C1242 C1243 1.386 . S
C1242 C1244 1.391 . S
C1243 C1242 1.386 . S
C1243 C1247 1.393 . S
C1244 H1233 0.950 . S
C1244 C1242 1.391 . S
C1244 C1245 1.400 . S
C1245 C1239 1.491 1_455 S
C1245 C1244 1.400 . S
C1245 C1246 1.398 . S
C1246 H1234 0.950 1_455 S
C1246 C1245 1.398 . S
C1246 C1247 1.391 . S
C1247 H1235 0.950 . S
C1247 C1243 1.393 . S
C1247 C1246 1.391 . S
H1248 C1256 0.950 . S
H1249 C1261 0.950 . S
H1250 C1258 0.950 . S
H1251 C1260 0.950 . S
H1252 C1262 0.950 . S
H1253 C1264 0.950 . S
H1254 C1266 0.950 . S
H1255 C1267 0.950 . S
C1256 H1248 0.950 . S
C1256 C1257 1.386 . S
C1256 C1258 1.391 . S
C1257 C1256 1.386 . S
C1257 C1261 1.393 . S
C1258 H1250 0.950 . S
C1258 C1256 1.391 . S
C1258 C1259 1.400 . S
C1259 C1258 1.400 . S
C1259 C1260 1.398 . S
C1259 C1265 1.491 . S
C1260 H1251 0.950 . S
C1260 C1259 1.398 . S
C1260 C1261 1.391 . S
C1261 H1249 0.950 . S
C1261 C1257 1.393 . S
C1261 C1260 1.391 . S
C1262 H1252 0.950 . S
C1262 C1263 1.386 . S
C1262 C1264 1.391 . S
C1263 C1262 1.386 . S
C1263 C1267 1.393 . S
C1264 H1253 0.950 . S
C1264 C1262 1.391 . S
C1264 C1265 1.400 . S
C1265 C1259 1.491 . S
C1265 C1264 1.400 . S
C1265 C1266 1.398 . S
C1266 H1254 0.950 . S
C1266 C1265 1.398 . S
C1266 C1267 1.391 . S
C1267 H1255 0.950 . S
C1267 C1263 1.393 . S
C1267 C1266 1.391 . S
H1268 C1276 0.950 . S
H1269 C1281 0.950 . S
H1270 C1278 0.950 . S
H1271 C1280 0.950 . S
H1272 C1282 0.950 . S
H1273 C1284 0.950 . S
H1274 C1286 0.950 . S
H1275 C1287 0.950 . S
C1276 H1268 0.950 . S
C1276 C1277 1.386 . S
C1276 C1278 1.391 . S
C1277 C1276 1.386 . S
C1277 C1281 1.393 . S
C1278 H1270 0.950 . S
C1278 C1276 1.391 . S
C1278 C1279 1.400 . S
C1279 C1278 1.400 . S
C1279 C1280 1.398 . S
C1279 C1285 1.491 . S
C1280 H1271 0.950 . S
C1280 C1279 1.398 . S
C1280 C1281 1.391 . S
C1281 H1269 0.950 . S
C1281 C1277 1.393 . S
C1281 C1280 1.391 . S
C1282 H1272 0.950 . S
C1282 C1283 1.386 . S
C1282 C1284 1.391 . S
C1283 C1282 1.386 . S
C1283 C1287 1.393 . S
C1284 H1273 0.950 . S
C1284 C1282 1.391 . S
C1284 C1285 1.400 . S
C1285 C1279 1.491 . S
C1285 C1284 1.400 . S
C1285 C1286 1.398 . S
C1286 H1274 0.950 . S
C1286 C1285 1.398 . S
C1286 C1287 1.391 . S
C1287 H1275 0.950 . S
C1287 C1283 1.393 . S
C1287 C1286 1.391 . S
H1288 C1296 0.950 . S
H1289 C1301 0.950 . S
H1290 C1298 0.950 . S
H1291 C1300 0.950 . S
H1292 C1302 0.950 . S
H1293 C1304 0.950 . S
H1294 C1306 0.950 . S
H1295 C1307 0.950 . S
C1296 H1288 0.950 . S
C1296 C1297 1.386 . S
C1296 C1298 1.391 . S
C1297 C1296 1.386 . S
C1297 C1301 1.393 . S
C1298 H1290 0.950 . S
C1298 C1296 1.391 . S
C1298 C1299 1.400 . S
C1299 C1298 1.400 . S
C1299 C1300 1.398 . S
C1299 C1305 1.491 . S
C1300 H1291 0.950 . S
C1300 C1299 1.398 . S
C1300 C1301 1.391 . S
C1301 H1289 0.950 . S
C1301 C1297 1.393 . S
C1301 C1300 1.391 . S
C1302 H1292 0.950 . S
C1302 C1303 1.386 . S
C1302 C1304 1.391 . S
C1303 C1302 1.386 . S
C1303 C1307 1.393 . S
C1304 H1293 0.950 . S
C1304 C1302 1.391 . S
C1304 C1305 1.400 . S
C1305 C1299 1.491 . S
C1305 C1304 1.400 . S
C1305 C1306 1.398 . S
C1306 H1294 0.950 . S
C1306 C1305 1.398 . S
C1306 C1307 1.391 . S
C1307 H1295 0.950 . S
C1307 C1303 1.393 . S
C1307 C1306 1.391 . S
H1308 C1316 0.950 . S
H1309 C1321 0.950 . S
H1310 C1318 0.950 . S
H1311 C1320 0.950 . S
H1312 C1322 0.950 . S
H1313 C1324 0.950 . S
H1314 C1326 0.950 . S
H1315 C1327 0.950 . S
C1316 H1308 0.950 . S
C1316 C1317 1.386 . S
C1316 C1318 1.391 . S
C1317 C1316 1.386 . S
C1317 C1321 1.393 . S
C1318 H1310 0.950 . S
C1318 C1316 1.391 . S
C1318 C1319 1.400 . S
C1319 C1318 1.400 . S
C1319 C1320 1.398 . S
C1319 C1325 1.491 . S
C1320 H1311 0.950 . S
C1320 C1319 1.398 . S
C1320 C1321 1.391 . S
C1321 H1309 0.950 . S
C1321 C1317 1.393 . S
C1321 C1320 1.391 . S
C1322 H1312 0.950 . S
C1322 C1323 1.386 . S
C1322 C1324 1.391 . S
C1323 C1322 1.386 . S
C1323 C1327 1.393 . S
C1324 H1313 0.950 . S
C1324 C1322 1.391 . S
C1324 C1325 1.400 . S
C1325 C1319 1.491 . S
C1325 C1324 1.400 . S
C1325 C1326 1.398 . S
C1326 H1314 0.950 . S
C1326 C1325 1.398 . S
C1326 C1327 1.391 . S
C1327 H1315 0.950 . S
C1327 C1323 1.393 . S
C1327 C1326 1.391 . S
H1328 C1336 0.950 . S
H1329 C1341 0.950 . S
H1330 C1338 0.950 . S
H1331 C1340 0.950 . S
H1332 C1342 0.950 . S
H1333 C1344 0.950 . S
H1334 C1346 0.950 . S
H1335 C1347 0.950 . S
C1336 H1328 0.950 . S
C1336 C1337 1.386 . S
C1336 C1338 1.391 . S
C1337 C1336 1.386 . S
C1337 C1341 1.393 . S
C1338 H1330 0.950 . S
C1338 C1336 1.391 . S
C1338 C1339 1.400 . S
C1339 C1338 1.400 . S
C1339 C1340 1.398 . S
C1339 C1345 1.491 . S
C1340 H1331 0.950 . S
C1340 C1339 1.398 . S
C1340 C1341 1.391 . S
C1341 H1329 0.950 . S
C1341 C1337 1.393 . S
C1341 C1340 1.391 . S
C1342 H1332 0.950 . S
C1342 C1343 1.386 . S
C1342 C1344 1.391 . S
C1343 C1342 1.386 . S
C1343 C1347 1.393 . S
C1344 H1333 0.950 . S
C1344 C1342 1.391 . S
C1344 C1345 1.400 . S
C1345 C1339 1.491 . S
C1345 C1344 1.400 . S
C1345 C1346 1.398 . S
C1346 H1334 0.950 . S
C1346 C1345 1.398 . S
C1346 C1347 1.391 . S
C1347 H1335 0.950 . S
C1347 C1343 1.393 . S
C1347 C1346 1.391 . S
H1348 C1356 0.950 . S
H1349 C1361 0.950 . S
H1350 C1358 0.950 . S
H1351 C1360 0.950 . S
H1352 C1362 0.950 . S
H1353 C1364 0.950 . S
H1354 C1366 0.950 . S
H1355 C1367 0.950 . S
C1356 H1348 0.950 . S
C1356 C1357 1.386 . S
C1356 C1358 1.391 . S
C1357 C1356 1.386 . S
C1357 C1361 1.393 . S
C1358 H1350 0.950 . S
C1358 C1356 1.391 . S
C1358 C1359 1.400 . S
C1359 C1358 1.400 . S
C1359 C1360 1.398 . S
C1359 C1365 1.491 . S
C1360 H1351 0.950 . S
C1360 C1359 1.398 . S
C1360 C1361 1.391 . S
C1361 H1349 0.950 . S
C1361 C1357 1.393 . S
C1361 C1360 1.391 . S
C1362 H1352 0.950 . S
C1362 C1363 1.386 . S
C1362 C1364 1.391 . S
C1363 C1362 1.386 . S
C1363 C1367 1.393 . S
C1364 H1353 0.950 . S
C1364 C1362 1.391 . S
C1364 C1365 1.400 . S
C1365 C1359 1.491 . S
C1365 C1364 1.400 . S
C1365 C1366 1.398 . S
C1366 H1354 0.950 . S
C1366 C1365 1.398 . S
C1366 C1367 1.391 . S
C1367 H1355 0.950 . S
C1367 C1363 1.393 . S
C1367 C1366 1.391 . S
H1368 C1376 0.950 . S
H1369 C1381 0.950 . S
H1370 C1378 0.950 . S
H1371 C1380 0.950 . S
H1372 C1382 0.950 . S
H1373 C1384 0.950 . S
H1374 C1386 0.950 . S
H1375 C1387 0.950 . S
C1376 H1368 0.950 . S
C1376 C1377 1.386 . S
C1376 C1378 1.391 . S
C1377 C1376 1.386 . S
C1377 C1381 1.393 . S
C1378 H1370 0.950 . S
C1378 C1376 1.391 . S
C1378 C1379 1.400 . S
C1379 C1378 1.400 . S
C1379 C1380 1.398 . S
C1379 C1385 1.491 . S
C1380 H1371 0.950 . S
C1380 C1379 1.398 . S
C1380 C1381 1.391 . S
C1381 H1369 0.950 . S
C1381 C1377 1.393 . S
C1381 C1380 1.391 . S
C1382 H1372 0.950 . S
C1382 C1383 1.386 . S
C1382 C1384 1.391 . S
C1383 C1382 1.386 . S
C1383 C1387 1.393 . S
C1384 H1373 0.950 . S
C1384 C1382 1.391 . S
C1384 C1385 1.400 . S
C1385 C1379 1.491 . S
C1385 C1384 1.400 . S
C1385 C1386 1.398 . S
C1386 H1374 0.950 . S
C1386 C1385 1.398 . S
C1386 C1387 1.391 . S
C1387 H1375 0.950 . S
C1387 C1383 1.393 . S
C1387 C1386 1.391 . S
H1388 C1396 0.950 . S
H1389 C1401 0.950 . S
H1390 C1398 0.950 . S
H1391 C1400 0.950 . S
H1392 C1402 0.950 . S
H1393 C1404 0.950 . S
H1394 C1406 0.950 . S
H1395 C1407 0.950 . S
C1396 H1388 0.950 . S
C1396 C1397 1.386 . S
C1396 C1398 1.391 . S
C1397 C1396 1.386 . S
C1397 C1401 1.393 . S
C1398 H1390 0.950 . S
C1398 C1396 1.391 . S
C1398 C1399 1.400 . S
C1399 C1398 1.400 . S
C1399 C1400 1.398 . S
C1399 C1405 1.491 . S
C1400 H1391 0.950 . S
C1400 C1399 1.398 . S
C1400 C1401 1.391 . S
C1401 H1389 0.950 . S
C1401 C1397 1.393 . S
C1401 C1400 1.391 . S
C1402 H1392 0.950 . S
C1402 C1403 1.386 . S
C1402 C1404 1.391 . S
C1403 C1402 1.386 . S
C1403 C1407 1.393 . S
C1404 H1393 0.950 . S
C1404 C1402 1.391 . S
C1404 C1405 1.400 . S
C1405 C1399 1.491 . S
C1405 C1404 1.400 . S
C1405 C1406 1.398 . S
C1406 H1394 0.950 . S
C1406 C1405 1.398 . S
C1406 C1407 1.391 . S
C1407 H1395 0.950 . S
C1407 C1403 1.393 . S
C1407 C1406 1.391 . S
H1408 C1416 0.950 . S
H1409 C1421 0.950 . S
H1410 C1418 0.950 . S
H1411 C1420 0.950 . S
H1412 C1422 0.950 . S
H1413 C1424 0.950 . S
H1414 C1426 0.950 . S
H1415 C1427 0.950 . S
C1416 H1408 0.950 . S
C1416 C1417 1.386 . S
C1416 C1418 1.391 . S
C1417 C1416 1.386 . S
C1417 C1421 1.393 . S
C1418 H1410 0.950 . S
C1418 C1416 1.391 . S
C1418 C1419 1.400 . S
C1419 C1418 1.400 . S
C1419 C1420 1.398 . S
C1419 C1425 1.491 . S
C1420 H1411 0.950 . S
C1420 C1419 1.398 . S
C1420 C1421 1.391 . S
C1421 H1409 0.950 . S
C1421 C1417 1.393 . S
C1421 C1420 1.391 . S
C1422 H1412 0.950 . S
C1422 C1423 1.386 . S
C1422 C1424 1.391 . S
C1423 C1422 1.386 . S
C1423 C1427 1.393 . S
C1424 H1413 0.950 . S
C1424 C1422 1.391 . S
C1424 C1425 1.400 . S
C1425 C1419 1.491 . S
C1425 C1424 1.400 . S
C1425 C1426 1.398 . S
C1426 H1414 0.950 . S
C1426 C1425 1.398 . S
C1426 C1427 1.391 . S
C1427 H1415 0.950 . S
C1427 C1423 1.393 . S
C1427 C1426 1.391 . S
H1428 C1436 0.950 . S
H1429 C1441 0.950 . S
H1430 C1438 0.950 . S
H1431 C1440 0.950 . S
H1432 C1442 0.950 . S
H1433 C1444 0.950 . S
H1434 C1446 0.950 . S
H1435 C1447 0.950 . S
C1436 H1428 0.950 . S
C1436 C1437 1.386 . S
C1436 C1438 1.391 . S
C1437 C1436 1.386 . S
C1437 C1441 1.393 . S
C1438 H1430 0.950 . S
C1438 C1436 1.391 . S
C1438 C1439 1.400 . S
C1439 C1438 1.400 . S
C1439 C1440 1.398 . S
C1439 C1445 1.491 . S
C1440 H1431 0.950 . S
C1440 C1439 1.398 . S
C1440 C1441 1.391 . S
C1441 H1429 0.950 . S
C1441 C1437 1.393 . S
C1441 C1440 1.391 . S
C1442 H1432 0.950 . S
C1442 C1443 1.386 . S
C1442 C1444 1.391 . S
C1443 C1442 1.386 . S
C1443 C1447 1.393 . S
C1444 H1433 0.950 . S
C1444 C1442 1.391 . S
C1444 C1445 1.400 . S
C1445 C1439 1.491 . S
C1445 C1444 1.400 . S
C1445 C1446 1.398 . S
C1446 H1434 0.950 . S
C1446 C1445 1.398 . S
C1446 C1447 1.391 . S
C1447 H1435 0.950 . S
C1447 C1443 1.393 . S
C1447 C1446 1.391 . S
H1448 C1456 0.950 . S
H1449 C1461 0.950 . S
H1450 C1458 0.950 . S
H1451 C1460 0.950 . S
H1452 C1462 0.950 . S
H1453 C1464 0.950 . S
H1454 C1466 0.950 . S
H1455 C1467 0.950 . S
C1456 H1448 0.950 . S
C1456 C1457 1.386 . S
C1456 C1458 1.391 . S
C1457 C1456 1.386 . S
C1457 C1461 1.393 . S
C1458 H1450 0.950 . S
C1458 C1456 1.391 . S
C1458 C1459 1.400 . S
C1459 C1458 1.400 . S
C1459 C1460 1.398 . S
C1459 C1465 1.491 . S
C1460 H1451 0.950 . S
C1460 C1459 1.398 . S
C1460 C1461 1.391 . S
C1461 H1449 0.950 . S
C1461 C1457 1.393 . S
C1461 C1460 1.391 . S
C1462 H1452 0.950 . S
C1462 C1463 1.386 . S
C1462 C1464 1.391 . S
C1463 C1462 1.386 . S
C1463 C1467 1.393 . S
C1464 H1453 0.950 . S
C1464 C1462 1.391 . S
C1464 C1465 1.400 . S
C1465 C1459 1.491 . S
C1465 C1464 1.400 . S
C1465 C1466 1.398 . S
C1466 H1454 0.950 . S
C1466 C1465 1.398 . S
C1466 C1467 1.391 . S
C1467 H1455 0.950 . S
C1467 C1463 1.393 . S
C1467 C1466 1.391 . S
H1468 C1476 0.950 . S
H1469 C1481 0.950 . S
H1470 C1478 0.950 . S
H1471 C1480 0.950 . S
H1472 C1482 0.950 . S
H1473 C1484 0.950 . S
H1474 C1486 0.950 . S
H1475 C1487 0.950 . S
C1476 H1468 0.950 . S
C1476 C1477 1.386 . S
C1476 C1478 1.391 . S
C1477 C1476 1.386 . S
C1477 C1481 1.393 . S
C1478 H1470 0.950 . S
C1478 C1476 1.391 . S
C1478 C1479 1.400 . S
C1479 C1478 1.400 . S
C1479 C1480 1.398 . S
C1479 C1485 1.491 . S
C1480 H1471 0.950 . S
C1480 C1479 1.398 . S
C1480 C1481 1.391 . S
C1481 H1469 0.950 . S
C1481 C1477 1.393 . S
C1481 C1480 1.391 . S
C1482 H1472 0.950 . S
C1482 C1483 1.386 . S
C1482 C1484 1.391 . S
C1483 C1482 1.386 . S
C1483 C1487 1.393 . S
C1484 H1473 0.950 . S
C1484 C1482 1.391 . S
C1484 C1485 1.400 . S
C1485 C1479 1.491 . S
C1485 C1484 1.400 . S
C1485 C1486 1.398 . S
C1486 H1474 0.950 . S
C1486 C1485 1.398 . S
C1486 C1487 1.391 . S
C1487 H1475 0.950 . S
C1487 C1483 1.393 . S
C1487 C1486 1.391 . S
H1488 C1496 0.950 . S
H1489 C1501 0.950 . S
H1490 C1498 0.950 . S
H1491 C1500 0.950 . S
H1492 C1502 0.950 . S
H1493 C1504 0.950 . S
H1494 C1506 0.950 . S
H1495 C1507 0.950 . S
C1496 H1488 0.950 . S
C1496 C1497 1.386 . S
C1496 C1498 1.391 . S
C1497 C1496 1.386 . S
C1497 C1501 1.393 . S
C1498 H1490 0.950 . S
C1498 C1496 1.391 . S
C1498 C1499 1.400 . S
C1499 C1498 1.400 . S
C1499 C1500 1.398 . S
C1499 C1505 1.491 . S
C1500 H1491 0.950 . S
C1500 C1499 1.398 . S
C1500 C1501 1.391 . S
C1501 H1489 0.950 . S
C1501 C1497 1.393 . S
C1501 C1500 1.391 . S
C1502 H1492 0.950 . S
C1502 C1503 1.386 . S
C1502 C1504 1.391 . S
C1503 C1502 1.386 . S
C1503 C1507 1.393 . S
C1504 H1493 0.950 . S
C1504 C1502 1.391 . S
C1504 C1505 1.400 . S
C1505 C1499 1.491 . S
C1505 C1504 1.400 . S
C1505 C1506 1.398 . S
C1506 H1494 0.950 . S
C1506 C1505 1.398 . S
C1506 C1507 1.391 . S
C1507 H1495 0.950 . S
C1507 C1503 1.393 . S
C1507 C1506 1.391 . S
H1508 C1516 0.950 . S
H1509 C1521 0.950 . S
H1510 C1518 0.950 . S
H1511 C1520 0.950 . S
H1512 C1522 0.950 . S
H1513 C1524 0.950 . S
H1514 C1526 0.950 . S
H1515 C1527 0.950 . S
C1516 H1508 0.950 . S
C1516 C1517 1.386 . S
C1516 C1518 1.391 . S
C1517 C1516 1.386 . S
C1517 C1521 1.393 . S
C1518 H1510 0.950 . S
C1518 C1516 1.391 . S
C1518 C1519 1.400 . S
C1519 C1518 1.400 . S
C1519 C1520 1.398 . S
C1519 C1525 1.491 . S
C1520 H1511 0.950 . S
C1520 C1519 1.398 . S
C1520 C1521 1.391 . S
C1521 H1509 0.950 . S
C1521 C1517 1.393 . S
C1521 C1520 1.391 . S
C1522 H1512 0.950 . S
C1522 C1523 1.386 . S
C1522 C1524 1.391 . S
C1523 C1522 1.386 . S
C1523 C1527 1.393 . S
C1524 H1513 0.950 . S
C1524 C1522 1.391 . S
C1524 C1525 1.400 . S
C1525 C1519 1.491 . S
C1525 C1524 1.400 . S
C1525 C1526 1.398 . S
C1526 H1514 0.950 . S
C1526 C1525 1.398 . S
C1526 C1527 1.391 . S
C1527 H1515 0.950 . S
C1527 C1523 1.393 . S
C1527 C1526 1.391 . S
H1528 C1536 0.950 . S
H1529 C1541 0.950 . S
H1530 C1538 0.950 . S
H1531 C1540 0.950 . S
H1532 C1542 0.950 . S
H1533 C1544 0.950 . S
H1534 C1546 0.950 . S
H1535 C1547 0.950 . S
C1536 H1528 0.950 . S
C1536 C1537 1.386 . S
C1536 C1538 1.391 . S
C1537 C1536 1.386 . S
C1537 C1541 1.393 . S
C1538 H1530 0.950 . S
C1538 C1536 1.391 . S
C1538 C1539 1.400 . S
C1539 C1538 1.400 . S
C1539 C1540 1.398 . S
C1539 C1545 1.491 . S
C1540 H1531 0.950 . S
C1540 C1539 1.398 . S
C1540 C1541 1.391 . S
C1541 H1529 0.950 . S
C1541 C1537 1.393 . S
C1541 C1540 1.391 . S
C1542 H1532 0.950 . S
C1542 C1543 1.386 . S
C1542 C1544 1.391 . S
C1543 C1542 1.386 . S
C1543 C1547 1.393 . S
C1544 H1533 0.950 . S
C1544 C1542 1.391 . S
C1544 C1545 1.400 . S
C1545 C1539 1.491 . S
C1545 C1544 1.400 . S
C1545 C1546 1.398 . S
C1546 H1534 0.950 . S
C1546 C1545 1.398 . S
C1546 C1547 1.391 . S
C1547 H1535 0.950 . S
C1547 C1543 1.393 . S
C1547 C1546 1.391 . S
H1548 C1556 0.950 . S
H1549 C1561 0.950 . S
H1550 C1558 0.950 . S
H1551 C1560 0.950 . S
H1552 C1562 0.950 . S
H1553 C1564 0.950 . S
H1554 C1566 0.950 . S
H1555 C1567 0.950 . S
C1556 H1548 0.950 . S
C1556 C1557 1.386 . S
C1556 C1558 1.391 . S
C1557 C1556 1.386 . S
C1557 C1561 1.393 . S
C1558 H1550 0.950 . S
C1558 C1556 1.391 . S
C1558 C1559 1.400 . S
C1559 C1558 1.400 . S
C1559 C1560 1.398 . S
C1559 C1565 1.491 . S
C1560 H1551 0.950 . S
C1560 C1559 1.398 . S
C1560 C1561 1.391 . S
C1561 H1549 0.950 . S
C1561 C1557 1.393 . S
C1561 C1560 1.391 . S
C1562 H1552 0.950 . S
C1562 C1563 1.386 . S
C1562 C1564 1.391 . S
C1563 C1562 1.386 . S
C1563 C1567 1.393 . S
C1564 H1553 0.950 . S
C1564 C1562 1.391 . S
C1564 C1565 1.400 . S
C1565 C1559 1.491 . S
C1565 C1564 1.400 . S
C1565 C1566 1.398 . S
C1566 H1554 0.950 . S
C1566 C1565 1.398 . S
C1566 C1567 1.391 . S
C1567 H1555 0.950 . S
C1567 C1563 1.393 . S
C1567 C1566 1.391 . S
H1568 C1576 0.950 . S
H1569 C1581 0.950 . S
H1570 C1578 0.950 . S
H1571 C1580 0.950 . S
H1572 C1582 0.950 . S
H1573 C1584 0.950 . S
H1574 C1586 0.950 . S
H1575 C1587 0.950 . S
C1576 H1568 0.950 . S
C1576 C1577 1.386 . S
C1576 C1578 1.391 . S
C1577 C1576 1.386 . S
C1577 C1581 1.393 . S
C1578 H1570 0.950 . S
C1578 C1576 1.391 . S
C1578 C1579 1.400 . S
C1579 C1578 1.400 . S
C1579 C1580 1.398 . S
C1579 C1585 1.491 . S
C1580 H1571 0.950 . S
C1580 C1579 1.398 . S
C1580 C1581 1.391 . S
C1581 H1569 0.950 . S
C1581 C1577 1.393 . S
C1581 C1580 1.391 . S
C1582 H1572 0.950 . S
C1582 C1583 1.386 . S
C1582 C1584 1.391 . S
C1583 C1582 1.386 . S
C1583 C1587 1.393 . S
C1584 H1573 0.950 . S
C1584 C1582 1.391 . S
C1584 C1585 1.400 . S
C1585 C1579 1.491 . S
C1585 C1584 1.400 . S
C1585 C1586 1.398 . S
C1586 H1574 0.950 . S
C1586 C1585 1.398 . S
C1586 C1587 1.391 . S
C1587 H1575 0.950 . S
C1587 C1583 1.393 . S
C1587 C1586 1.391 . S
H1588 C1596 0.950 . S
H1589 C1601 0.950 . S
H1590 C1598 0.950 . S
H1591 C1600 0.950 . S
H1592 C1602 0.950 . S
H1593 C1604 0.950 . S
H1594 C1606 0.950 . S
H1595 C1607 0.950 . S
C1596 H1588 0.950 . S
C1596 C1597 1.386 . S
C1596 C1598 1.391 . S
C1597 C1596 1.386 . S
C1597 C1601 1.393 . S
C1598 H1590 0.950 . S
C1598 C1596 1.391 . S
C1598 C1599 1.400 . S
C1599 C1598 1.400 . S
C1599 C1600 1.398 . S
C1599 C1605 1.491 . S
C1600 H1591 0.950 . S
C1600 C1599 1.398 . S
C1600 C1601 1.391 . S
C1601 H1589 0.950 . S
C1601 C1597 1.393 . S
C1601 C1600 1.391 . S
C1602 H1592 0.950 . S
C1602 C1603 1.386 . S
C1602 C1604 1.391 . S
C1603 C1602 1.386 . S
C1603 C1607 1.393 . S
C1604 H1593 0.950 . S
C1604 C1602 1.391 . S
C1604 C1605 1.400 . S
C1605 C1599 1.491 . S
C1605 C1604 1.400 . S
C1605 C1606 1.398 . S
C1606 H1594 0.950 . S
C1606 C1605 1.398 . S
C1606 C1607 1.391 . S
C1607 H1595 0.950 . S
C1607 C1603 1.393 . S
C1607 C1606 1.391 . S
H1608 C1616 0.950 . S
H1609 C1621 0.950 . S
H1610 C1618 0.950 . S
H1611 C1620 0.950 . S
H1612 C1622 0.950 . S
H1613 C1624 0.950 . S
H1614 C1626 0.950 . S
H1615 C1627 0.950 . S
C1616 H1608 0.950 . S
C1616 C1617 1.386 . S
C1616 C1618 1.391 . S
C1617 C1616 1.386 . S
C1617 C1621 1.393 . S
C1618 H1610 0.950 . S
C1618 C1616 1.391 . S
C1618 C1619 1.400 . S
C1619 C1618 1.400 . S
C1619 C1620 1.398 . S
C1619 C1625 1.491 . S
C1620 H1611 0.950 . S
C1620 C1619 1.398 . S
C1620 C1621 1.391 . S
C1621 H1609 0.950 . S
C1621 C1617 1.393 . S
C1621 C1620 1.391 . S
C1622 H1612 0.950 . S
C1622 C1623 1.386 . S
C1622 C1624 1.391 . S
C1623 C1622 1.386 . S
C1623 C1627 1.393 . S
C1624 H1613 0.950 . S
C1624 C1622 1.391 . S
C1624 C1625 1.400 . S
C1625 C1619 1.491 . S
C1625 C1624 1.400 . S
C1625 C1626 1.398 . S
C1626 H1614 0.950 . S
C1626 C1625 1.398 . S
C1626 C1627 1.391 . S
C1627 H1615 0.950 . S
C1627 C1623 1.393 . S
C1627 C1626 1.391 . S
H1628 C1636 0.950 . S
H1629 C1641 0.950 . S
H1630 C1638 0.950 . S
H1631 C1640 0.950 . S
H1632 C1642 0.950 . S
H1633 C1644 0.950 . S
H1634 C1646 0.950 . S
H1635 C1647 0.950 . S
C1636 H1628 0.950 . S
C1636 C1637 1.386 . S
C1636 C1638 1.391 . S
C1637 C1636 1.386 . S
C1637 C1641 1.393 . S
C1638 H1630 0.950 . S
C1638 C1636 1.391 . S
C1638 C1639 1.400 . S
C1639 C1638 1.400 . S
C1639 C1640 1.398 . S
C1639 C1645 1.491 . S
C1640 H1631 0.950 . S
C1640 C1639 1.398 . S
C1640 C1641 1.391 . S
C1641 H1629 0.950 . S
C1641 C1637 1.393 . S
C1641 C1640 1.391 . S
C1642 H1632 0.950 . S
C1642 C1643 1.386 . S
C1642 C1644 1.391 . S
C1643 C1642 1.386 . S
C1643 C1647 1.393 . S
C1644 H1633 0.950 . S
C1644 C1642 1.391 . S
C1644 C1645 1.400 . S
C1645 C1639 1.491 . S
C1645 C1644 1.400 . S
C1645 C1646 1.398 . S
C1646 H1634 0.950 . S
C1646 C1645 1.398 . S
C1646 C1647 1.391 . S
C1647 H1635 0.950 . S
C1647 C1643 1.393 . S
C1647 C1646 1.391 . S
H1648 C1656 0.950 . S
H1649 C1661 0.950 . S
H1650 C1658 0.950 . S
H1651 C1660 0.950 . S
H1652 C1662 0.950 . S
H1653 C1664 0.950 . S
H1654 C1666 0.950 . S
H1655 C1667 0.950 . S
C1656 H1648 0.950 . S
C1656 C1657 1.386 . S
C1656 C1658 1.391 . S
C1657 C1656 1.386 . S
C1657 C1661 1.393 . S
C1658 H1650 0.950 . S
C1658 C1656 1.391 . S
C1658 C1659 1.400 . S
C1659 C1658 1.400 . S
C1659 C1660 1.398 . S
C1659 C1665 1.491 . S
C1660 H1651 0.950 . S
C1660 C1659 1.398 . S
C1660 C1661 1.391 . S
C1661 H1649 0.950 . S
C1661 C1657 1.393 . S
C1661 C1660 1.391 . S
C1662 H1652 0.950 . S
C1662 C1663 1.386 . S
C1662 C1664 1.391 . S
C1663 C1662 1.386 . S
C1663 C1667 1.393 . S
C1664 H1653 0.950 . S
C1664 C1662 1.391 . S
C1664 C1665 1.400 . S
C1665 C1659 1.491 . S
C1665 C1664 1.400 . S
C1665 C1666 1.398 . S
C1666 H1654 0.950 . S
C1666 C1665 1.398 . S
C1666 C1667 1.391 . S
C1667 H1655 0.950 . S
C1667 C1663 1.393 . S
C1667 C1666 1.391 . S
H1668 C1676 0.950 . S
H1669 C1681 0.950 . S
H1670 C1678 0.950 . S
H1671 C1680 0.950 . S
H1672 C1682 0.950 . S
H1673 C1684 0.950 . S
H1674 C1686 0.950 . S
H1675 C1687 0.950 . S
C1676 H1668 0.950 . S
C1676 C1677 1.386 . S
C1676 C1678 1.391 . S
C1677 C1676 1.386 . S
C1677 C1681 1.393 . S
C1678 H1670 0.950 . S
C1678 C1676 1.391 . S
C1678 C1679 1.400 . S
C1679 C1678 1.400 . S
C1679 C1680 1.398 . S
C1679 C1685 1.491 . S
C1680 H1671 0.950 . S
C1680 C1679 1.398 . S
C1680 C1681 1.391 . S
C1681 H1669 0.950 . S
C1681 C1677 1.393 . S
C1681 C1680 1.391 . S
C1682 H1672 0.950 . S
C1682 C1683 1.386 . S
C1682 C1684 1.391 . S
C1683 C1682 1.386 . S
C1683 C1687 1.393 . S
C1684 H1673 0.950 . S
C1684 C1682 1.391 . S
C1684 C1685 1.400 . S
C1685 C1679 1.491 . S
C1685 C1684 1.400 . S
C1685 C1686 1.398 . S
C1686 H1674 0.950 . S
C1686 C1685 1.398 . S
C1686 C1687 1.391 . S
C1687 H1675 0.950 . S
C1687 C1683 1.393 . S
C1687 C1686 1.391 . S
H1688 C1696 0.950 . S
H1689 C1701 0.950 . S
H1690 C1698 0.950 . S
H1691 C1700 0.950 . S
H1692 C1702 0.950 . S
H1693 C1704 0.950 . S
H1694 C1706 0.950 . S
H1695 C1707 0.950 . S
C1696 H1688 0.950 . S
C1696 C1697 1.386 . S
C1696 C1698 1.391 . S
C1697 C1696 1.386 . S
C1697 C1701 1.393 . S
C1698 H1690 0.950 . S
C1698 C1696 1.391 . S
C1698 C1699 1.400 . S
C1699 C1698 1.400 . S
C1699 C1700 1.398 . S
C1699 C1705 1.491 . S
C1700 H1691 0.950 . S
C1700 C1699 1.398 . S
C1700 C1701 1.391 . S
C1701 H1689 0.950 . S
C1701 C1697 1.393 . S
C1701 C1700 1.391 . S
C1702 H1692 0.950 . S
C1702 C1703 1.386 . S
C1702 C1704 1.391 . S
C1703 C1702 1.386 . S
C1703 C1707 1.393 . S
C1704 H1693 0.950 . S
C1704 C1702 1.391 . S
C1704 C1705 1.400 . S
C1705 C1699 1.491 . S
C1705 C1704 1.400 . S
C1705 C1706 1.398 . S
C1706 H1694 0.950 . S
C1706 C1705 1.398 . S
C1706 C1707 1.391 . S
C1707 H1695 0.950 . S
C1707 C1703 1.393 . S
C1707 C1706 1.391 . S
H1708 C1716 0.950 . S
H1709 C1721 0.950 . S
H1710 C1718 0.950 . S
H1711 C1720 0.950 . S
H1712 C1722 0.950 . S
H1713 C1724 0.950 . S
H1714 C1726 0.950 . S
H1715 C1727 0.950 . S
C1716 H1708 0.950 . S
C1716 C1717 1.386 . S
C1716 C1718 1.391 . S
C1717 C1716 1.386 . S
C1717 C1721 1.393 . S
C1718 H1710 0.950 . S
C1718 C1716 1.391 . S
C1718 C1719 1.400 . S
C1719 C1718 1.400 . S
C1719 C1720 1.398 . S
C1719 C1725 1.491 . S
C1720 H1711 0.950 . S
C1720 C1719 1.398 . S
C1720 C1721 1.391 . S
C1721 H1709 0.950 . S
C1721 C1717 1.393 . S
C1721 C1720 1.391 . S
C1722 H1712 0.950 . S
C1722 C1723 1.386 . S
C1722 C1724 1.391 . S
C1723 C1722 1.386 . S
C1723 C1727 1.393 . S
C1724 H1713 0.950 . S
C1724 C1722 1.391 . S
C1724 C1725 1.400 . S
C1725 C1719 1.491 . S
C1725 C1724 1.400 . S
C1725 C1726 1.398 . S
C1726 H1714 0.950 . S
C1726 C1725 1.398 . S
C1726 C1727 1.391 . S
C1727 H1715 0.950 . S
C1727 C1723 1.393 . S
C1727 C1726 1.391 . S
C457 C415 1.564 . S
C463 C9 1.561 . S
C477 C23 1.570 . S
C483 C429 1.556 . S
C497 C443 1.566 . S
C503 C37 1.560 . S
C517 C401 1.558 . S
C523 C51 1.567 . S
C537 C65 1.557 . S
C543 C387 1.569 . S
C557 C345 1.561 . S
C563 C79 1.565 . S
C577 C93 1.558 . S
C583 C359 1.568 . S
C597 C373 1.564 . S
C603 C107 1.562 . S
C617 C121 1.560 . S
C623 C303 1.565 . S
C637 C135 1.560 . S
C643 C317 1.565 . S
C657 C331 1.557 . S
C663 C149 1.568 . S
C677 C163 1.564 . S
C683 C289 1.562 . S
C697 C275 1.567 . S
C703 C177 1.559 . S
C717 C233 1.565 . S
C723 C191 1.560 . S
C737 C205 1.565 . S
C743 C247 1.560 . S
C757 C219 1.570 . S
C763 C261 1.556 . S
C777 C3 1.401 . S
C783 C143 1.396 . S
C797 C157 1.396 . S
C803 C17 1.402 . S
C817 C115 1.401 . S
C823 C31 1.396 . S
C837 C129 1.401 . S
C843 C45 1.396 . S
C857 C59 1.396 . S
C863 C199 1.402 . S
C877 C213 1.398 . S
C883 C73 1.399 . S
C897 C171 1.395 . S
C903 C87 1.403 . S
C917 C185 1.403 . S
C923 C101 1.395 . S
C937 C227 1.396 . S
C943 C367 1.402 . S
C957 C381 1.403 . S
C963 C241 1.395 . S
C977 C339 1.397 . S
C983 C255 1.400 . S
C997 C269 1.403 . S
C1003 C353 1.395 . S
C1017 C283 1.396 . S
C1023 C423 1.402 . S
C1037 C437 1.403 . S
C1043 C297 1.395 . S
C1057 C395 1.401 . S
C1063 C311 1.396 . S
C1077 C325 1.395 . S
C1083 C409 1.402 . S
C1097 C8 1.514 . S
C1103 C64 1.521 . S
C1117 C22 1.513 . S
C1123 C78 1.520 . S
C1137 C92 1.513 . S
C1143 C36 1.517 . S
C1157 C50 1.523 . S
C1163 C106 1.517 . S
C1177 C120 1.516 . S
C1183 C176 1.523 . S
C1197 C190 1.513 . S
C1203 C134 1.516 . S
C1217 C204 1.519 . S
C1223 C148 1.523 . S
C1237 C162 1.513 . S
C1243 C218 1.520 . S
C1257 C232 1.513 . S
C1263 C288 1.516 . S
C1277 C302 1.513 . S
C1283 C246 1.517 . S
C1297 C260 1.522 . S
C1303 C316 1.521 . S
C1317 C330 1.522 . S
C1323 C274 1.515 . S
C1337 C400 1.520 . S
C1343 C344 1.513 . S
C1357 C358 1.518 . S
C1363 C414 1.513 . S
C1377 C372 1.513 . S
C1383 C428 1.519 . S
C1397 C386 1.517 . S
C1403 C442 1.523 . S
C1417 C7 1.325 . S
C1423 C77 1.343 . S
C1437 C21 1.328 . S
C1443 C91 1.345 . S
C1457 C105 1.341 . S
C1463 C35 1.348 . S
C1477 C63 1.321 . S
C1483 C49 1.325 . S
C1497 C189 1.321 . S
C1503 C119 1.337 . S
C1517 C203 1.348 . S
C1523 C133 1.336 . S
C1537 C217 1.322 . S
C1543 C147 1.323 . S
C1557 C161 1.347 . S
C1563 C175 1.331 . S
C1577 C231 1.340 . S
C1583 C301 1.348 . S
C1597 C315 1.344 . S
C1603 C245 1.346 . S
C1617 C329 1.323 . S
C1623 C259 1.341 . S
C1637 C273 1.331 . S
C1643 C287 1.319 . S
C1657 C413 1.348 . S
C1663 C343 1.340 . S
C1677 C357 1.347 . S
C1683 C427 1.342 . S
C1697 C371 1.348 . S
C1703 C441 1.337 . S
C1717 C399 1.320 . S
C1723 C385 1.333 . S
