# Generated by pormake.
# Topology vbd, (5)-cn, num edge types: 1
# Building blocks:
#     Node 0, Type 0, BuildingBlock: XOMCOT_clean_sbu_0, # of connection points: 5
#     Node 1, Type 0, BuildingBlock: XOMCOT_clean_sbu_0, # of connection points: 5
#     Node 2, Type 0, BuildingBlock: XOMCOT_clean_sbu_0, # of connection points: 5
#     Node 3, Type 0, BuildingBlock: XOMCOT_clean_sbu_0, # of connection points: 5
#     Node 4, Type 0, BuildingBlock: XOMCOT_clean_sbu_0, # of connection points: 5
#     Node 5, Type 0, BuildingBlock: XOMCOT_clean_sbu_0, # of connection points: 5
#     Node 6, Type 0, BuildingBlock: XOMCOT_clean_sbu_0, # of connection points: 5
#     Node 7, Type 0, BuildingBlock: XOMCOT_clean_sbu_0, # of connection points: 5
#     Node 8, Type 0, BuildingBlock: XOMCOT_clean_sbu_0, # of connection points: 5
#     Node 9, Type 0, BuildingBlock: XOMCOT_clean_sbu_0, # of connection points: 5
#     Node 10, Type 0, BuildingBlock: XOMCOT_clean_sbu_0, # of connection points: 5
#     Node 11, Type 0, BuildingBlock: XOMCOT_clean_sbu_0, # of connection points: 5
#     Node 12, Type 0, BuildingBlock: XOMCOT_clean_sbu_0, # of connection points: 5
#     Node 13, Type 0, BuildingBlock: XOMCOT_clean_sbu_0, # of connection points: 5
#     Node 14, Type 0, BuildingBlock: XOMCOT_clean_sbu_0, # of connection points: 5
#     Node 15, Type 0, BuildingBlock: XOMCOT_clean_sbu_0, # of connection points: 5
#     Node 16, Type 0, BuildingBlock: XOMCOT_clean_sbu_0, # of connection points: 5
#     Node 17, Type 0, BuildingBlock: XOMCOT_clean_sbu_0, # of connection points: 5
#     Node 18, Type 0, BuildingBlock: XOMCOT_clean_sbu_0, # of connection points: 5
#     Node 19, Type 0, BuildingBlock: XOMCOT_clean_sbu_0, # of connection points: 5
#     Node 20, Type 0, BuildingBlock: XOMCOT_clean_sbu_0, # of connection points: 5
#     Node 21, Type 0, BuildingBlock: XOMCOT_clean_sbu_0, # of connection points: 5
#     Node 22, Type 0, BuildingBlock: XOMCOT_clean_sbu_0, # of connection points: 5
#     Node 23, Type 0, BuildingBlock: XOMCOT_clean_sbu_0, # of connection points: 5
#     Node 24, Type 0, BuildingBlock: XOMCOT_clean_sbu_0, # of connection points: 5
#     Node 25, Type 0, BuildingBlock: XOMCOT_clean_sbu_0, # of connection points: 5
#     Node 26, Type 0, BuildingBlock: XOMCOT_clean_sbu_0, # of connection points: 5
#     Node 27, Type 0, BuildingBlock: XOMCOT_clean_sbu_0, # of connection points: 5
#     Node 28, Type 0, BuildingBlock: XOMCOT_clean_sbu_0, # of connection points: 5
#     Node 29, Type 0, BuildingBlock: XOMCOT_clean_sbu_0, # of connection points: 5
#     Node 30, Type 0, BuildingBlock: XOMCOT_clean_sbu_0, # of connection points: 5
#     Node 31, Type 0, BuildingBlock: XOMCOT_clean_sbu_0, # of connection points: 5
#     Edge 32, Type (0, 0), BuildingBlock: KIFKEQ_clean_linker_1, # of connection points: 2
#     Edge 33, Type (0, 0), BuildingBlock: KIFKEQ_clean_linker_1, # of connection points: 2
#     Edge 34, Type (0, 0), BuildingBlock: KIFKEQ_clean_linker_1, # of connection points: 2
#     Edge 35, Type (0, 0), BuildingBlock: KIFKEQ_clean_linker_1, # of connection points: 2
#     Edge 36, Type (0, 0), BuildingBlock: KIFKEQ_clean_linker_1, # of connection points: 2
#     Edge 37, Type (0, 0), BuildingBlock: KIFKEQ_clean_linker_1, # of connection points: 2
#     Edge 38, Type (0, 0), BuildingBlock: KIFKEQ_clean_linker_1, # of connection points: 2
#     Edge 39, Type (0, 0), BuildingBlock: KIFKEQ_clean_linker_1, # of connection points: 2
#     Edge 40, Type (0, 0), BuildingBlock: KIFKEQ_clean_linker_1, # of connection points: 2
#     Edge 41, Type (0, 0), BuildingBlock: KIFKEQ_clean_linker_1, # of connection points: 2
#     Edge 42, Type (0, 0), BuildingBlock: KIFKEQ_clean_linker_1, # of connection points: 2
#     Edge 43, Type (0, 0), BuildingBlock: KIFKEQ_clean_linker_1, # of connection points: 2
#     Edge 44, Type (0, 0), BuildingBlock: KIFKEQ_clean_linker_1, # of connection points: 2
#     Edge 45, Type (0, 0), BuildingBlock: KIFKEQ_clean_linker_1, # of connection points: 2
#     Edge 46, Type (0, 0), BuildingBlock: KIFKEQ_clean_linker_1, # of connection points: 2
#     Edge 47, Type (0, 0), BuildingBlock: KIFKEQ_clean_linker_1, # of connection points: 2
#     Edge 48, Type (0, 0), BuildingBlock: KIFKEQ_clean_linker_1, # of connection points: 2
#     Edge 49, Type (0, 0), BuildingBlock: KIFKEQ_clean_linker_1, # of connection points: 2
#     Edge 50, Type (0, 0), BuildingBlock: KIFKEQ_clean_linker_1, # of connection points: 2
#     Edge 51, Type (0, 0), BuildingBlock: KIFKEQ_clean_linker_1, # of connection points: 2
#     Edge 52, Type (0, 0), BuildingBlock: KIFKEQ_clean_linker_1, # of connection points: 2
#     Edge 53, Type (0, 0), BuildingBlock: KIFKEQ_clean_linker_1, # of connection points: 2
#     Edge 54, Type (0, 0), BuildingBlock: KIFKEQ_clean_linker_1, # of connection points: 2
#     Edge 55, Type (0, 0), BuildingBlock: KIFKEQ_clean_linker_1, # of connection points: 2
#     Edge 56, Type (0, 0), BuildingBlock: KIFKEQ_clean_linker_1, # of connection points: 2
#     Edge 57, Type (0, 0), BuildingBlock: KIFKEQ_clean_linker_1, # of connection points: 2
#     Edge 58, Type (0, 0), BuildingBlock: KIFKEQ_clean_linker_1, # of connection points: 2
#     Edge 59, Type (0, 0), BuildingBlock: KIFKEQ_clean_linker_1, # of connection points: 2
#     Edge 60, Type (0, 0), BuildingBlock: KIFKEQ_clean_linker_1, # of connection points: 2
#     Edge 61, Type (0, 0), BuildingBlock: KIFKEQ_clean_linker_1, # of connection points: 2
#     Edge 62, Type (0, 0), BuildingBlock: KIFKEQ_clean_linker_1, # of connection points: 2
#     Edge 63, Type (0, 0), BuildingBlock: KIFKEQ_clean_linker_1, # of connection points: 2
#     Edge 64, Type (0, 0), BuildingBlock: KIFKEQ_clean_linker_1, # of connection points: 2
#     Edge 65, Type (0, 0), BuildingBlock: KIFKEQ_clean_linker_1, # of connection points: 2
#     Edge 66, Type (0, 0), BuildingBlock: KIFKEQ_clean_linker_1, # of connection points: 2
#     Edge 67, Type (0, 0), BuildingBlock: KIFKEQ_clean_linker_1, # of connection points: 2
#     Edge 68, Type (0, 0), BuildingBlock: KIFKEQ_clean_linker_1, # of connection points: 2
#     Edge 69, Type (0, 0), BuildingBlock: KIFKEQ_clean_linker_1, # of connection points: 2
#     Edge 70, Type (0, 0), BuildingBlock: KIFKEQ_clean_linker_1, # of connection points: 2
#     Edge 71, Type (0, 0), BuildingBlock: KIFKEQ_clean_linker_1, # of connection points: 2
#     Edge 72, Type (0, 0), BuildingBlock: KIFKEQ_clean_linker_1, # of connection points: 2
#     Edge 73, Type (0, 0), BuildingBlock: KIFKEQ_clean_linker_1, # of connection points: 2
#     Edge 74, Type (0, 0), BuildingBlock: KIFKEQ_clean_linker_1, # of connection points: 2
#     Edge 75, Type (0, 0), BuildingBlock: KIFKEQ_clean_linker_1, # of connection points: 2
#     Edge 76, Type (0, 0), BuildingBlock: KIFKEQ_clean_linker_1, # of connection points: 2
#     Edge 77, Type (0, 0), BuildingBlock: KIFKEQ_clean_linker_1, # of connection points: 2
#     Edge 78, Type (0, 0), BuildingBlock: KIFKEQ_clean_linker_1, # of connection points: 2
#     Edge 79, Type (0, 0), BuildingBlock: KIFKEQ_clean_linker_1, # of connection points: 2
#     Edge 80, Type (0, 0), BuildingBlock: KIFKEQ_clean_linker_1, # of connection points: 2
#     Edge 81, Type (0, 0), BuildingBlock: KIFKEQ_clean_linker_1, # of connection points: 2
#     Edge 82, Type (0, 0), BuildingBlock: KIFKEQ_clean_linker_1, # of connection points: 2
#     Edge 83, Type (0, 0), BuildingBlock: KIFKEQ_clean_linker_1, # of connection points: 2
#     Edge 84, Type (0, 0), BuildingBlock: KIFKEQ_clean_linker_1, # of connection points: 2
#     Edge 85, Type (0, 0), BuildingBlock: KIFKEQ_clean_linker_1, # of connection points: 2
#     Edge 86, Type (0, 0), BuildingBlock: KIFKEQ_clean_linker_1, # of connection points: 2
#     Edge 87, Type (0, 0), BuildingBlock: KIFKEQ_clean_linker_1, # of connection points: 2
#     Edge 88, Type (0, 0), BuildingBlock: KIFKEQ_clean_linker_1, # of connection points: 2
#     Edge 89, Type (0, 0), BuildingBlock: KIFKEQ_clean_linker_1, # of connection points: 2
#     Edge 90, Type (0, 0), BuildingBlock: KIFKEQ_clean_linker_1, # of connection points: 2
#     Edge 91, Type (0, 0), BuildingBlock: KIFKEQ_clean_linker_1, # of connection points: 2
#     Edge 92, Type (0, 0), BuildingBlock: KIFKEQ_clean_linker_1, # of connection points: 2
#     Edge 93, Type (0, 0), BuildingBlock: KIFKEQ_clean_linker_1, # of connection points: 2
#     Edge 94, Type (0, 0), BuildingBlock: KIFKEQ_clean_linker_1, # of connection points: 2
#     Edge 95, Type (0, 0), BuildingBlock: KIFKEQ_clean_linker_1, # of connection points: 2
#     Edge 96, Type (0, 0), BuildingBlock: KIFKEQ_clean_linker_1, # of connection points: 2
#     Edge 97, Type (0, 0), BuildingBlock: KIFKEQ_clean_linker_1, # of connection points: 2
#     Edge 98, Type (0, 0), BuildingBlock: KIFKEQ_clean_linker_1, # of connection points: 2
#     Edge 99, Type (0, 0), BuildingBlock: KIFKEQ_clean_linker_1, # of connection points: 2
#     Edge 100, Type (0, 0), BuildingBlock: KIFKEQ_clean_linker_1, # of connection points: 2
#     Edge 101, Type (0, 0), BuildingBlock: KIFKEQ_clean_linker_1, # of connection points: 2
#     Edge 102, Type (0, 0), BuildingBlock: KIFKEQ_clean_linker_1, # of connection points: 2
#     Edge 103, Type (0, 0), BuildingBlock: KIFKEQ_clean_linker_1, # of connection points: 2
#     Edge 104, Type (0, 0), BuildingBlock: KIFKEQ_clean_linker_1, # of connection points: 2
#     Edge 105, Type (0, 0), BuildingBlock: KIFKEQ_clean_linker_1, # of connection points: 2
#     Edge 106, Type (0, 0), BuildingBlock: KIFKEQ_clean_linker_1, # of connection points: 2
#     Edge 107, Type (0, 0), BuildingBlock: KIFKEQ_clean_linker_1, # of connection points: 2
#     Edge 108, Type (0, 0), BuildingBlock: KIFKEQ_clean_linker_1, # of connection points: 2
#     Edge 109, Type (0, 0), BuildingBlock: KIFKEQ_clean_linker_1, # of connection points: 2
#     Edge 110, Type (0, 0), BuildingBlock: KIFKEQ_clean_linker_1, # of connection points: 2
#     Edge 111, Type (0, 0), BuildingBlock: KIFKEQ_clean_linker_1, # of connection points: 2
# Relax obj value: 0.073
# Max RMSD: 0.131
# Mean RMSD: 0.128
data_MOF--net-vbd--node1-XOMCOT_clean_sbu_0--edge1-KIFKEQ_clean_linker_1
_symmetry_space_group_name_H-M    P1
_symmetry_Int_Tables_number       1
_symmetry_cell_setting            triclinic
loop_
_symmetry_equiv_pos_as_xyz
'x, y, z'
_cell_length_a     106.79161
_cell_length_b     24.522842
_cell_length_c     67.498602
_cell_angle_alpha  89.975555
_cell_angle_beta   90.477252
_cell_angle_gamma 89.808178
loop_
_atom_site_label
_atom_site_type_symbol
_atom_site_fract_x
_atom_site_fract_y
_atom_site_fract_z
_atom_type_partial_charge
Co0 Co 0.04181 0.28753 0.03503 0.0
C1 C 0.04503 0.31815 0.9925 0.0
C2 C 0.02798 0.27454 0.99787 0.0
C3 C 0.02848 0.28717 0.97807 0.0
N4 N 0.03839 0.29322 1.00688 0.0
N5 N 0.03918 0.31455 0.97464 0.0
H6 H 0.05385 0.33865 0.99507 0.0
H7 H 0.02032 0.25478 1.00533 0.0
C8 C 0.03787 0.16419 0.04048 0.0
O9 O 0.04791 0.15599 0.05148 0.0
N10 N 0.04495 0.28232 0.06362 0.0
C11 C 0.05205 0.31677 0.07446 0.0
C12 C 0.05194 0.30089 0.09397 0.0
C13 C 0.0401 0.24737 0.07713 0.0
N14 N 0.04448 0.25695 0.09573 0.0
C15 C 0.06895 0.29364 0.03574 0.0
C16 C 0.07303 0.19456 1.01736 0.0
C17 C 0.08335 0.22156 0.02583 0.0
C18 C 0.08118 0.27307 0.03436 0.0
C19 C 0.06101 0.21705 0.01883 0.0
N20 N 0.05895 0.26384 0.02932 0.0
H21 H 0.06755 0.33344 0.04208 0.0
H22 H 0.05331 0.19582 1.01188 0.0
H23 H 0.05683 0.35216 0.06883 0.0
H24 H 0.03322 0.2166 0.07367 0.0
O25 O 0.04352 0.36702 0.03624 0.0
O26 O 0.02596 0.32071 0.0402 0.0
O27 O 0.03513 0.21142 0.03387 0.0
C28 C 0.03142 0.36766 0.03916 0.0
H29 H 0.02125 0.27876 0.96716 0.0
H30 H 0.05711 0.32015 0.10589 0.0
H31 H 0.07406 0.15538 1.01019 0.0
H32 H 0.08884 0.2974 0.04006 0.0
Co33 Co 0.21519 0.04909 0.03141 0.0
C34 C 0.2138 0.07889 0.07468 0.0
C35 C 0.22766 0.01797 0.06886 0.0
C36 C 0.22853 0.03266 0.08851 0.0
N37 N 0.21824 0.04603 0.06011 0.0
N38 N 0.21985 0.07134 0.09222 0.0
H39 H 0.20692 0.11041 0.07239 0.0
H40 H 0.23388 0.99029 0.06125 0.0
C41 C 0.21526 0.92877 0.04148 0.0
O42 O 0.2086 0.93693 0.05749 0.0
N43 N 0.21246 0.05281 1.0029 0.0
C44 C 0.20765 0.09555 0.99282 0.0
C45 C 0.20729 0.08292 0.97292 0.0
C46 C 0.21483 0.01441 0.98897 0.0
N47 N 0.21175 0.03186 0.97052 0.0
C48 C 0.19158 0.09624 0.04109 0.0
C49 C 0.17648 0.01365 0.02689 0.0
C50 C 0.17091 0.06179 0.03388 0.0
C51 C 0.17863 0.1029 0.04126 0.0
C52 C 0.18961 0.00784 0.02757 0.0
N53 N 0.19702 0.04885 0.0348 0.0
H54 H 0.19719 0.13093 0.04509 0.0
H55 H 0.19379 0.97164 0.02132 0.0
H56 H 0.20457 0.13334 0.99947 0.0
H57 H 0.21889 0.97485 0.99211 0.0
O58 O 0.21805 0.12685 0.03246 0.0
O59 O 0.23273 0.06425 0.0277 0.0
O60 O 0.2169 0.96747 0.02916 0.0
C61 C 0.22981 0.11534 0.02989 0.0
H62 H 0.23531 0.01688 0.09905 0.0
H63 H 0.20383 0.10901 0.96113 0.0
H64 H 0.17078 0.98144 0.02062 0.0
H65 H 0.1747 0.14135 0.04617 0.0
Co66 Co 0.04099 0.02245 0.28305 0.0
C67 C 0.04102 0.99485 0.32629 0.0
C68 C 0.02885 0.06199 0.31918 0.0
C69 C 0.0282 0.05219 0.33912 0.0
N70 N 0.03694 0.02642 0.31105 0.0
N71 N 0.03574 0.00958 0.34375 0.0
H72 H 0.04747 0.96115 0.32448 0.0
H73 H 0.02358 0.0928 0.31124 0.0
C74 C 0.03814 0.14393 0.27293 0.0
O75 O 0.0493 0.15054 0.26528 0.0
N76 N 0.04469 0.01912 0.25469 0.0
C77 C 0.05207 0.98307 0.24516 0.0
C78 C 0.05219 0.99569 0.22526 0.0
C79 C 0.03995 0.05131 0.2401 0.0
N80 N 0.04462 0.03905 0.22204 0.0
C81 C 0.06788 0.01249 0.28509 0.0
C82 C 0.07234 0.11407 0.30132 0.0
C83 C 0.08261 0.08299 0.29491 0.0
C84 C 0.08022 0.03043 0.28752 0.0
C85 C 0.06017 0.09401 0.29891 0.0
N86 N 0.05802 0.04576 0.28939 0.0
H87 H 0.06629 0.97173 0.27975 0.0
H88 H 0.05244 0.11824 0.30425 0.0
H89 H 0.05689 0.94907 0.25194 0.0
H90 H 0.03291 0.08218 0.24249 0.0
O91 O 0.0427 0.94372 0.28539 0.0
O92 O 0.02521 0.98859 0.27785 0.0
O93 O 0.03459 0.09843 0.27989 0.0
C94 C 0.03073 0.94235 0.28131 0.0
H95 H 0.02245 0.07506 0.34928 0.0
H96 H 0.05761 0.97465 0.21415 0.0
H97 H 0.07356 0.15436 0.30755 0.0
H98 H 0.08779 0.00325 0.28351 0.0
Co99 Co 0.21194 0.30338 0.28025 0.0
C100 C 0.21177 0.33443 0.32352 0.0
C101 C 0.22644 0.27835 0.31643 0.0
C102 C 0.22786 0.29383 0.33589 0.0
N103 N 0.21614 0.30248 0.30863 0.0
N104 N 0.21865 0.32926 0.34041 0.0
H105 H 0.20443 0.36436 0.32176 0.0
H106 H 0.23298 0.25347 0.30825 0.0
C107 C 0.21743 0.18504 0.28801 0.0
O108 O 0.21006 0.18525 0.30352 0.0
N109 N 0.20824 0.30468 0.25199 0.0
C110 C 0.199 0.33292 0.24296 0.0
C111 C 0.19854 0.31804 0.22325 0.0
C112 C 0.21332 0.27323 0.23764 0.0
N113 N 0.20751 0.28021 0.21986 0.0
C114 C 0.18656 0.30792 0.29561 0.0
C115 C 0.17855 0.21391 0.27686 0.0
C116 C 0.17009 0.24257 0.28868 0.0
C117 C 0.1742 0.29019 0.29817 0.0
C118 C 0.19082 0.23239 0.27502 0.0
N119 N 0.19487 0.27793 0.28482 0.0
H120 H 0.18924 0.34676 0.30165 0.0
H121 H 0.19697 0.21054 0.26519 0.0
H122 H 0.19271 0.36075 0.25036 0.0
H123 H 0.22097 0.24511 0.24025 0.0
O124 O 0.20978 0.3821 0.28182 0.0
O125 O 0.22756 0.33849 0.27545 0.0
O126 O 0.21848 0.22743 0.27727 0.0
C127 C 0.22178 0.38438 0.27822 0.0
H128 H 0.23535 0.2811 0.34577 0.0
H129 H 0.19173 0.33246 0.21249 0.0
H130 H 0.1757 0.17746 0.26898 0.0
H131 H 0.16779 0.31454 0.30686 0.0
Co132 Co 0.96466 0.78222 0.0409 0.0
C133 C 0.96394 0.7515 0.08385 0.0
C134 C 0.97655 0.81745 0.07795 0.0
C135 C 0.97733 0.80488 0.09771 0.0
N136 N 0.96813 0.78436 0.06919 0.0
N137 N 0.96952 0.76307 0.1015 0.0
H138 H 0.95742 0.71843 0.08148 0.0
H139 H 0.98215 0.84754 0.07044 0.0
C140 C 0.96608 0.90404 0.0314 0.0
O141 O 0.95592 0.90478 0.02029 0.0
N142 N 0.96158 0.77998 1.01218 0.0
C143 C 0.95514 0.74164 1.002 0.0
C144 C 0.95523 0.75421 0.98211 0.0
C145 C 0.96606 0.81362 0.99794 0.0
N146 N 0.96198 0.79991 0.97957 0.0
C147 C 0.93768 0.76956 0.03993 0.0
C148 C 0.9322 0.86961 0.05663 0.0
C149 C 0.92231 0.83902 0.0485 0.0
C150 C 0.9252 0.78717 0.04084 0.0
C151 C 0.94451 0.85001 0.05565 0.0
N152 N 0.94723 0.80255 0.04597 0.0
H153 H 0.93963 0.72947 0.03423 0.0
H154 H 0.9519 0.87416 0.06218 0.0
H155 H 0.95084 0.70604 1.00837 0.0
H156 H 0.97248 0.84669 1.00072 0.0
O157 O 0.96383 0.70289 0.0422 0.0
O158 O 0.98094 0.75127 0.03662 0.0
O159 O 0.97006 0.86026 0.03942 0.0
C160 C 0.97588 0.70373 0.03896 0.0
H161 H 0.98342 0.82455 0.10839 0.0
H162 H 0.95048 0.73184 0.97046 0.0
H163 H 0.93061 0.90935 0.06311 0.0
H164 H 0.9179 0.76035 0.03544 0.0
Co165 Co 0.79094 0.0409 0.0309 0.0
C166 C 0.79332 0.06801 0.07423 0.0
C167 C 0.78161 -0.00108 0.06895 0.0
C168 C 0.78155 0.01019 0.08888 0.0
N169 N 0.78936 0.0338 0.05969 0.0
N170 N 0.78896 0.05366 0.0923 0.0
H171 H 0.79863 0.10454 0.0716 0.0
H172 H 0.77576 0.96907 0.06164 0.0
C173 C 0.79164 0.91919 0.03655 0.0
O174 O 0.80026 0.92431 0.05043 0.0
N175 N 0.79199 0.04804 1.0023 0.0
C176 C 0.79916 0.08356 0.99235 0.0
C177 C 0.79866 0.07085 0.97246 0.0
C178 C 0.78713 0.01451 0.98832 0.0
N179 N 0.79114 0.0271 0.96987 0.0
C180 C 0.81698 0.05659 0.0436 0.0
C181 C 0.82651 0.97197 0.02119 0.0
C182 C 0.83451 -0.00154 0.03458 0.0
C183 C 0.82966 0.04208 0.04561 0.0
C184 C 0.81391 0.98708 0.01994 0.0
N185 N 0.80906 0.02697 0.03184 0.0
H186 H 0.81365 0.09191 0.05135 0.0
H187 H 0.80795 0.96547 1.00961 0.0
H188 H 0.80485 0.11485 0.9992 0.0
H189 H 0.78105 0.9807 0.99167 0.0
O190 O 0.79012 0.12023 0.03354 0.0
O191 O 0.77384 0.0653 0.02997 0.0
O192 O 0.78736 0.96111 0.02752 0.0
C193 C 0.77797 0.11455 0.03244 0.0
H194 H 0.77588 0.98977 0.09981 0.0
H195 H 0.80398 0.09073 0.96098 0.0
H196 H 0.82986 0.93863 1.01213 0.0
H197 H 0.83565 0.06514 0.05554 0.0
Co198 Co 0.96625 0.03514 0.79118 0.0
C199 C 0.96604 0.06639 0.74827 0.0
C200 C 0.97862 3e-05 0.75463 0.0
C201 C 0.97947 0.01269 0.73488 0.0
N202 N 0.97017 0.03339 0.76308 0.0
N203 N 0.97167 0.05473 0.7308 0.0
H204 H 0.95943 0.09935 0.75041 0.0
H205 H 0.98405 0.96924 0.76232 0.0
C206 C 0.96723 0.91072 0.7972 0.0
O207 O 0.9555 0.90382 0.80224 0.0
N208 N 0.96274 0.0369 0.81972 0.0
C209 C 0.9584 0.07992 0.83011 0.0
C210 C 0.95779 0.06625 0.84985 0.0
C211 C 0.96508 -0.0018 0.83368 0.0
N212 N 0.96195 0.01461 0.85217 0.0
C213 C 0.93933 0.04591 0.79292 0.0
C214 C 0.93407 0.95701 0.7691 0.0
C215 C 0.92415 0.98381 0.77852 0.0
C216 C 0.92688 0.02992 0.79006 0.0
C217 C 0.94635 0.97467 0.77222 0.0
N218 N 0.94892 0.01657 0.78494 0.0
H219 H 0.94123 0.08159 0.80172 0.0
H220 H 0.95386 0.9531 0.76496 0.0
H221 H 0.95596 0.11923 0.82391 0.0
H222 H 0.96921 0.95915 0.83061 0.0
O223 O 0.96564 0.11444 0.78984 0.0
O224 O 0.98249 0.06418 0.79643 0.0
O225 O 0.97165 0.95745 0.79317 0.0
C226 C 0.97768 0.11215 0.79357 0.0
H227 H 0.98554 0.99255 0.72439 0.0
H228 H 0.95477 0.0931 0.8616 0.0
H229 H 0.93236 0.92231 0.75954 0.0
H230 H 0.9195 0.05253 0.79733 0.0
Co231 Co 0.79246 0.78984 0.78233 0.0
C232 C 0.79149 0.74538 0.74097 0.0
C233 C 0.78863 0.83194 0.74162 0.0
C234 C 0.78883 0.81536 0.72219 0.0
N235 N 0.79033 0.78824 0.75354 0.0
N236 N 0.79061 0.76104 0.72177 0.0
H237 H 0.79334 0.70389 0.74559 0.0
H238 H 0.78768 0.87366 0.74645 0.0
C239 C 0.78793 0.90982 0.79219 0.0
O240 O 0.79722 0.91318 0.80503 0.0
N241 N 0.79467 0.79105 0.81118 0.0
C242 C 0.80321 0.7621 0.82163 0.0
C243 C 0.80225 0.77495 0.84137 0.0
C244 C 0.7882 0.81928 0.82508 0.0
N245 N 0.7929 0.81146 0.8436 0.0
C246 C 0.81928 0.77397 0.78129 0.0
C247 C 0.82527 0.87947 0.77071 0.0
C248 C 0.835 0.84324 0.77542 0.0
C249 C 0.8319 0.78923 0.78013 0.0
C250 C 0.81286 0.86243 0.77191 0.0
N251 N 0.80991 0.8113 0.77844 0.0
H252 H 0.81707 0.7321 0.78465 0.0
H253 H 0.80572 0.89087 0.76737 0.0
H254 H 0.80976 0.73328 0.81553 0.0
H255 H 0.78027 0.84535 0.82176 0.0
O256 O 0.79383 0.71048 0.7828 0.0
O257 O 0.77629 0.75839 0.7857 0.0
O258 O 0.78597 0.86634 0.78238 0.0
C259 C 0.78169 0.71111 0.78506 0.0
H260 H 0.78777 0.84133 0.7093 0.0
H261 H 0.80831 0.7598 0.85307 0.0
H262 H 0.82723 0.92079 0.76601 0.0
H263 H 0.83913 0.75937 0.78334 0.0
Co264 Co 0.0403 0.78595 0.53449 0.0
C265 C 0.04136 0.81846 0.49161 0.0
C266 C 0.02615 0.76474 0.49842 0.0
C267 C 0.02517 0.77937 0.47891 0.0
N268 N 0.03634 0.78846 0.50641 0.0
N269 N 0.03461 0.81369 0.47456 0.0
H270 H 0.04928 0.84542 0.49358 0.0
H271 H 0.0194 0.74118 0.50657 0.0
C272 C 0.03816 0.66149 0.54004 0.0
O273 O 0.04869 0.65507 0.54998 0.0
N274 N 0.04376 0.78387 0.56307 0.0
C275 C 0.04922 0.82385 0.57385 0.0
C276 C 0.04931 0.80948 0.59355 0.0
C277 C 0.0402 0.74654 0.57674 0.0
N278 N 0.04372 0.76067 0.59534 0.0
C279 C 0.06736 0.79259 0.53652 0.0
C280 C 0.07185 0.69783 0.51554 0.0
C281 C 0.08196 0.72286 0.52536 0.0
C282 C 0.0796 0.77231 0.53524 0.0
C283 C 0.05979 0.71995 0.51699 0.0
N284 N 0.05752 0.76451 0.52859 0.0
H285 H 0.06579 0.83044 0.5442 0.0
H286 H 0.05216 0.69964 0.50945 0.0
H287 H 0.05272 0.8618 0.56798 0.0
H288 H 0.03464 0.71095 0.57354 0.0
O289 O 0.04146 0.86545 0.53462 0.0
O290 O 0.02425 0.81747 0.53976 0.0
O291 O 0.03443 0.70842 0.53438 0.0
C292 C 0.02942 0.86494 0.53796 0.0
H293 H 0.01775 0.76708 0.46887 0.0
H294 H 0.05328 0.83296 0.60563 0.0
H295 H 0.07306 0.66015 0.50743 0.0
H296 H 0.08713 0.79502 0.54218 0.0
Co297 Co 0.21346 0.54799 0.53162 0.0
C298 C 0.21208 0.57699 0.57513 0.0
C299 C 0.2269 0.52117 0.56851 0.0
C300 C 0.22777 0.53515 0.58822 0.0
N301 N 0.21693 0.54657 0.56021 0.0
N302 N 0.21847 0.57051 0.59244 0.0
H303 H 0.2043 0.6046 0.57346 0.0
H304 H 0.23345 0.49575 0.56054 0.0
C305 C 0.21371 0.42937 0.54315 0.0
O306 O 0.20737 0.43953 0.55934 0.0
N307 N 0.21035 0.54996 0.5032 0.0
C308 C 0.20416 0.5896 0.49337 0.0
C309 C 0.20343 0.5758 0.47362 0.0
C310 C 0.21332 0.51247 0.48925 0.0
N311 N 0.20913 0.52709 0.47093 0.0
C312 C 0.19001 0.59627 0.54147 0.0
C313 C 0.17476 0.51317 0.52805 0.0
C314 C 0.1693 0.56218 0.53439 0.0
C315 C 0.17707 0.60354 0.54143 0.0
C316 C 0.18787 0.50693 0.52882 0.0
N317 N 0.19535 0.54828 0.53557 0.0
H318 H 0.19572 0.63084 0.54533 0.0
H319 H 0.19197 0.47016 0.5229 0.0
H320 H 0.20034 0.62594 0.50012 0.0
H321 H 0.21824 0.47491 0.49251 0.0
O322 O 0.21637 0.62568 0.53166 0.0
O323 O 0.23096 0.56245 0.52729 0.0
O324 O 0.215 0.46635 0.53006 0.0
C325 C 0.2281 0.61377 0.52891 0.0
H326 H 0.23509 0.52228 0.59838 0.0
H327 H 0.19907 0.60036 0.46217 0.0
H328 H 0.169 0.48074 0.52207 0.0
H329 H 0.17319 0.64248 0.54592 0.0
Co330 Co 0.04302 0.52171 0.78338 0.0
C331 C 0.04604 0.49157 0.82602 0.0
C332 C 0.0311 0.54902 0.82127 0.0
C333 C 0.03171 0.53676 0.84111 0.0
N334 N 0.04015 0.52122 0.81179 0.0
N335 N 0.04108 0.50062 0.84414 0.0
H336 H 0.05371 0.46382 0.82314 0.0
H337 H 0.02427 0.57545 0.81425 0.0
C338 C 0.03776 0.6456 0.77925 0.0
O339 O 0.04905 0.66151 0.77431 0.0
N340 N 0.0455 0.52168 0.75454 0.0
C341 C 0.04864 0.47806 0.74334 0.0
C342 C 0.04848 0.49263 0.72365 0.0
C343 C 0.04345 0.56222 0.7412 0.0
N344 N 0.04524 0.54556 0.72233 0.0
C345 C 0.06969 0.52691 0.77786 0.0
C346 C 0.07403 0.61182 0.80395 0.0
C347 C 0.08412 0.59145 0.79295 0.0
C348 C 0.0818 0.54781 0.77994 0.0
C349 C 0.06204 0.59006 0.80127 0.0
N350 N 0.0599 0.54932 0.78787 0.0
H351 H 0.06818 0.49288 0.76802 0.0
H352 H 0.0544 0.60689 0.80973 0.0
H353 H 0.05088 0.43789 0.74893 0.0
H354 H 0.04027 0.60261 0.74482 0.0
O355 O 0.04588 0.44322 0.78469 0.0
O356 O 0.02758 0.48438 0.77947 0.0
O357 O 0.03529 0.59564 0.78222 0.0
C358 C 0.03379 0.43934 0.78177 0.0
H359 H 0.02539 0.55172 0.85235 0.0
H360 H 0.05066 0.46636 0.71126 0.0
H361 H 0.07534 0.64431 0.81462 0.0
H362 H 0.08922 0.53039 0.7711 0.0
Co363 Co 0.21391 0.80031 0.78171 0.0
C364 C 0.21318 0.83064 0.825 0.0
C365 C 0.22986 0.78759 0.81688 0.0
C366 C 0.23123 0.80542 0.83608 0.0
N367 N 0.21851 0.80279 0.80983 0.0
N368 N 0.22076 0.8325 0.8412 0.0
H369 H 0.20446 0.85275 0.82392 0.0
H370 H 0.23701 0.7676 0.80821 0.0
C371 C 0.22044 0.68494 0.79257 0.0
O372 O 0.21411 0.68866 0.80913 0.0
N373 N 0.20964 0.79852 0.75368 0.0
C374 C 0.20097 0.83004 0.74466 0.0
C375 C 0.19988 0.81414 0.72515 0.0
C376 C 0.21373 0.76382 0.7395 0.0
N377 N 0.20785 0.77225 0.72186 0.0
C378 C 0.18835 0.81465 0.79495 0.0
C379 C 0.18047 0.71097 0.78482 0.0
C380 C 0.17187 0.74674 0.79342 0.0
C381 C 0.17585 0.79967 0.79818 0.0
C382 C 0.19272 0.72785 0.7815 0.0
N383 N 0.19676 0.77814 0.78745 0.0
H384 H 0.19118 0.85604 0.798 0.0
H385 H 0.19876 0.70059 0.7735 0.0
H386 H 0.19563 0.86175 0.75188 0.0
H387 H 0.22058 0.73205 0.74217 0.0
O388 O 0.21255 0.87988 0.78194 0.0
O389 O 0.22971 0.83208 0.77571 0.0
O390 O 0.22013 0.72347 0.77992 0.0
C391 C 0.22454 0.87941 0.77814 0.0
H392 H 0.23949 0.80069 0.84533 0.0
H393 H 0.19363 0.83221 0.71427 0.0
H394 H 0.17763 0.67063 0.78005 0.0
H395 H 0.16937 0.82912 0.80431 0.0
Co396 Co 0.96349 0.28087 0.54085 0.0
C397 C 0.96378 0.2472 0.58356 0.0
C398 C 0.97618 0.31383 0.5776 0.0
C399 C 0.97744 0.29971 0.59717 0.0
N400 N 0.9676 0.28126 0.56898 0.0
N401 N 0.96976 0.25745 0.60099 0.0
H402 H 0.95723 0.2142 0.58124 0.0
H403 H 0.98159 0.3446 0.57011 0.0
C404 C 0.96639 0.40139 0.53019 0.0
O405 O 0.95662 0.40279 0.51824 0.0
N406 N 0.95972 0.28024 0.51234 0.0
C407 C 0.95126 0.24881 0.50283 0.0
C408 C 0.95143 0.26048 0.4829 0.0
C409 C 0.96541 0.30849 0.49765 0.0
N410 N 0.96026 0.29851 0.47955 0.0
C411 C 0.93661 0.2682 0.54386 0.0
C412 C 0.93169 0.37296 0.55676 0.0
C413 C 0.92158 0.33978 0.55126 0.0
C414 C 0.92416 0.28589 0.54553 0.0
C415 C 0.94396 0.35337 0.55507 0.0
N416 N 0.94633 0.30318 0.5471 0.0
H417 H 0.9384 0.22646 0.53974 0.0
H418 H 0.9515 0.37914 0.56007 0.0
H419 H 0.94542 0.21846 0.50961 0.0
H420 H 0.97322 0.33565 0.50011 0.0
O421 O 0.96213 0.20162 0.54169 0.0
O422 O 0.97943 0.24806 0.53546 0.0
O423 O 0.96953 0.35807 0.53937 0.0
C424 C 0.97409 0.20111 0.53778 0.0
H425 H 0.98376 0.31867 0.60769 0.0
H426 H 0.94529 0.24287 0.47182 0.0
H427 H 0.93015 0.41385 0.56231 0.0
H428 H 0.91665 0.25806 0.54179 0.0
Co429 Co 0.78922 0.52778 0.53373 0.0
C430 C 0.79092 0.56283 0.57589 0.0
C431 C 0.77781 0.49756 0.57166 0.0
C432 C 0.778 0.51134 0.59142 0.0
N433 N 0.78602 0.52924 0.56197 0.0
N434 N 0.7862 0.55242 0.59406 0.0
H435 H 0.79773 0.5942 0.57278 0.0
H436 H 0.77182 0.4675 0.56477 0.0
C437 C 0.79091 0.40496 0.52729 0.0
O438 O 0.80136 0.40835 0.51723 0.0
N439 N 0.79203 0.52712 0.50501 0.0
C440 C 0.79646 0.56902 0.49412 0.0
C441 C 0.79623 0.55511 0.47437 0.0
C442 C 0.78867 0.48911 0.49135 0.0
N443 N 0.79143 0.50467 0.47266 0.0
C444 C 0.81622 0.54462 0.53103 0.0
C445 C 0.82265 0.45623 0.55452 0.0
C446 C 0.83219 0.48416 0.54471 0.0
C447 C 0.82889 0.53015 0.53338 0.0
C448 C 0.81018 0.47236 0.55195 0.0
N449 N 0.80699 0.51396 0.53936 0.0
H450 H 0.81389 0.58013 0.52238 0.0
H451 H 0.80302 0.44992 0.55965 0.0
H452 H 0.79942 0.60795 0.49995 0.0
H453 H 0.78381 0.45176 0.49467 0.0
O454 O 0.7885 0.60743 0.53354 0.0
O455 O 0.77239 0.55216 0.52889 0.0
O456 O 0.78544 0.44757 0.53384 0.0
C457 C 0.77648 0.60175 0.53041 0.0
H458 H 0.77222 0.49386 0.60287 0.0
H459 H 0.79943 0.58005 0.4622 0.0
H460 H 0.82477 0.42174 0.56401 0.0
H461 H 0.83597 0.55378 0.5259 0.0
Co462 Co 0.96425 0.53381 0.29096 0.0
C463 C 0.96391 0.56988 0.24847 0.0
C464 C 0.97527 0.49863 0.25321 0.0
C465 C 0.97602 0.51311 0.23366 0.0
N466 N 0.96768 0.53399 0.26263 0.0
N467 N 0.969 0.55818 0.2306 0.0
H468 H 0.95798 0.60483 0.25132 0.0
H469 H 0.98024 0.465 0.25997 0.0
C470 C 0.96866 0.40976 0.29845 0.0
O471 O 0.95821 0.39737 0.30754 0.0
N472 N 0.96104 0.5333 0.31951 0.0
C473 C 0.95408 0.56958 0.32968 0.0
C474 C 0.95401 0.55514 0.34939 0.0
C475 C 0.9655 0.49846 0.33354 0.0
N476 N 0.96114 0.51011 0.35186 0.0
C477 C 0.9374 0.54593 0.28971 0.0
C478 C 0.93241 0.44588 0.27261 0.0
C479 C 0.92228 0.47847 0.27858 0.0
C480 C 0.92496 0.52988 0.28675 0.0
C481 C 0.94469 0.46385 0.27564 0.0
N482 N 0.94708 0.51186 0.28516 0.0
H483 H 0.93923 0.58606 0.2955 0.0
H484 H 0.95226 0.43882 0.2703 0.0
H485 H 0.94947 0.60489 0.32342 0.0
H486 H 0.97213 0.46622 0.33067 0.0
O487 O 0.96285 0.61327 0.29038 0.0
O488 O 0.98021 0.56571 0.29586 0.0
O489 O 0.97073 0.45775 0.29223 0.0
C490 C 0.97494 0.61293 0.2936 0.0
H491 H 0.98149 0.49216 0.22256 0.0
H492 H 0.9489 0.57599 0.36093 0.0
H493 H 0.93095 0.40624 0.26596 0.0
H494 H 0.91752 0.55781 0.29073 0.0
Co495 Co 0.79253 0.26785 0.28412 0.0
C496 C 0.79437 0.23608 0.24141 0.0
C497 C 0.77903 0.29054 0.24712 0.0
C498 C 0.7789 0.27759 0.22735 0.0
N499 N 0.78877 0.26508 0.25595 0.0
N500 N 0.78852 0.24339 0.22367 0.0
H501 H 0.80245 0.21007 0.2438 0.0
H502 H 0.77223 0.31563 0.25461 0.0
C503 C 0.78894 0.39239 0.28881 0.0
O504 O 0.79998 0.40389 0.29643 0.0
N505 N 0.79589 0.27046 0.31276 0.0
C506 C 0.801 0.23003 0.32384 0.0
C507 C 0.80069 0.24442 0.34354 0.0
C508 C 0.79229 0.30844 0.32621 0.0
N509 N 0.79527 0.29382 0.345 0.0
C510 C 0.81945 0.26158 0.28614 0.0
C511 C 0.82391 0.3543 0.26399 0.0
C512 C 0.83407 0.32786 0.2732 0.0
C513 C 0.83175 0.2799 0.28388 0.0
C514 C 0.81178 0.33417 0.26644 0.0
N515 N 0.80961 0.29023 0.27835 0.0
H516 H 0.81785 0.22466 0.29437 0.0
H517 H 0.80408 0.35481 0.25911 0.0
H518 H 0.80446 0.19168 0.31818 0.0
H519 H 0.78701 0.34474 0.32272 0.0
O520 O 0.79423 0.18876 0.28414 0.0
O521 O 0.77672 0.23546 0.28943 0.0
O522 O 0.78598 0.34386 0.28423 0.0
C523 C 0.78223 0.18857 0.28779 0.0
H524 H 0.77192 0.29079 0.21665 0.0
H525 H 0.80417 0.22033 0.35586 0.0
H526 H 0.82532 0.39044 0.25506 0.0
H527 H 0.83933 0.25762 0.29098 0.0
Co528 Co 0.54194 0.29417 0.53757 0.0
C529 C 0.54429 0.3289 0.49525 0.0
C530 C 0.53182 0.26116 0.49862 0.0
C531 C 0.53221 0.2749 0.47892 0.0
N532 N 0.53945 0.2946 0.50894 0.0
N533 N 0.54002 0.3175 0.47672 0.0
H534 H 0.55073 0.36154 0.49877 0.0
H535 H 0.52611 0.22945 0.50485 0.0
C536 C 0.53793 0.17116 0.54516 0.0
O537 O 0.54837 0.16208 0.55508 0.0
N538 N 0.54421 0.29442 0.56649 0.0
C539 C 0.54985 0.33392 0.57729 0.0
C540 C 0.54926 0.32091 0.59711 0.0
C541 C 0.53989 0.25887 0.58023 0.0
N542 N 0.54309 0.27346 0.5989 0.0
C543 C 0.56891 0.30058 0.54124 0.0
C544 C 0.57377 0.20109 0.52361 0.0
C545 C 0.58376 0.22879 0.53279 0.0
C546 C 0.58121 0.28042 0.54097 0.0
C547 C 0.56169 0.22332 0.52386 0.0
N548 N 0.55923 0.27057 0.5338 0.0
H549 H 0.56718 0.34014 0.5476 0.0
H550 H 0.55422 0.2013 0.51659 0.0
H551 H 0.554 0.37046 0.57133 0.0
H552 H 0.53407 0.22415 0.57702 0.0
O553 O 0.54342 0.37364 0.53703 0.0
O554 O 0.52588 0.32677 0.54087 0.0
O555 O 0.53537 0.21814 0.53822 0.0
C556 C 0.53128 0.37375 0.53958 0.0
H557 H 0.52678 0.25605 0.46719 0.0
H558 H 0.55323 0.34414 0.60925 0.0
H559 H 0.57506 0.16153 0.51684 0.0
H560 H 0.5886 0.30516 0.54729 0.0
Co561 Co 0.71426 0.0364 0.53998 0.0
C562 C 0.71872 0.07985 0.58107 0.0
C563 C 0.71904 0.99253 0.58048 0.0
C564 C 0.72058 0.00948 0.59978 0.0
N565 N 0.71787 0.03656 0.56857 0.0
N566 N 0.7203 0.06439 0.60022 0.0
H567 H 0.718 0.12192 0.57638 0.0
H568 H 0.71839 0.95054 0.57583 0.0
C569 C 0.71424 0.91495 0.52796 0.0
O570 O 0.70712 0.92129 0.51218 0.0
N571 N 0.71061 0.03829 0.51159 0.0
C572 C 0.70106 0.0664 0.50325 0.0
C573 C 0.70079 0.05627 0.48326 0.0
C574 C 0.71656 0.01422 0.49619 0.0
N575 N 0.71042 0.02288 0.47881 0.0
C576 C 0.69196 0.08433 0.55497 0.0
C577 C 0.67506 0.01249 0.53824 0.0
C578 C 0.67058 0.06068 0.54686 0.0
C579 C 0.67917 0.09574 0.55594 0.0
C580 C 0.68799 0.00168 0.53816 0.0
N581 N 0.69632 0.03858 0.54571 0.0
H582 H 0.69838 0.11446 0.56059 0.0
H583 H 0.6912 0.96553 0.53087 0.0
H584 H 0.69448 0.09157 0.51122 0.0
H585 H 0.72464 0.98776 0.49786 0.0
O586 O 0.71735 0.11389 0.53866 0.0
O587 O 0.73169 0.04924 0.53463 0.0
O588 O 0.71574 0.95376 0.54043 0.0
C589 C 0.72898 0.1009 0.53526 0.0
H590 H 0.72128 0.98318 0.61263 0.0
H591 H 0.6938 0.07096 0.47283 0.0
H592 H 0.66868 0.98427 0.53112 0.0
H593 H 0.67609 0.13363 0.5626 0.0
Co594 Co 0.54219 0.03282 0.78701 0.0
C595 C 0.54581 0.00079 0.82936 0.0
C596 C 0.52984 0.05289 0.82475 0.0
C597 C 0.53052 0.03953 0.84448 0.0
N598 N 0.53947 0.02916 0.8153 0.0
N599 N 0.54056 0.00681 0.84745 0.0
H600 H 0.55399 0.97605 0.82636 0.0
H601 H 0.52257 0.07684 0.81764 0.0
C602 C 0.54083 0.15697 0.78236 0.0
O603 O 0.55098 0.16141 0.77161 0.0
N604 N 0.54449 0.03606 0.75821 0.0
C605 C 0.54925 0.99586 0.74679 0.0
C606 C 0.5485 0.01094 0.72718 0.0
C607 C 0.54051 0.07437 0.74504 0.0
N608 N 0.54309 0.06046 0.72611 0.0
C609 C 0.56912 0.02111 0.78352 0.0
C610 C 0.57504 0.11173 0.80605 0.0
C611 C 0.58477 0.08417 0.79635 0.0
C612 C 0.58166 0.03715 0.78545 0.0
C613 C 0.56269 0.09381 0.80396 0.0
N614 N 0.55975 0.051 0.79186 0.0
H615 H 0.56699 0.98465 0.7753 0.0
H616 H 0.55542 0.11545 0.81178 0.0
H617 H 0.5528 0.95726 0.75217 0.0
H618 H 0.53529 0.11054 0.74886 0.0
O619 O 0.54277 0.95333 0.78631 0.0
O620 O 0.52574 0.00448 0.78274 0.0
O621 O 0.53689 0.11085 0.78818 0.0
C622 C 0.53062 0.95611 0.78396 0.0
H623 H 0.52381 0.05125 0.85563 0.0
H624 H 0.55175 0.98743 0.71465 0.0
H625 H 0.57679 0.14793 0.81478 0.0
H626 H 0.58883 0.01277 0.77843 0.0
Co627 Co 0.71386 0.30546 0.78793 0.0
C628 C 0.71184 0.34123 0.83024 0.0
C629 C 0.72638 0.28193 0.82582 0.0
C630 C 0.72639 0.2966 0.84544 0.0
N631 N 0.71721 0.30934 0.81626 0.0
N632 N 0.71727 0.33389 0.84831 0.0
H633 H 0.70422 0.36931 0.82723 0.0
H634 H 0.7329 0.25419 0.81897 0.0
C635 C 0.71745 0.18145 0.78237 0.0
O636 O 0.70687 0.17179 0.77295 0.0
N637 N 0.71086 0.30191 0.75921 0.0
C638 C 0.7047 0.3395 0.74819 0.0
C639 C 0.70522 0.32511 0.72851 0.0
C640 C 0.71544 0.26607 0.74572 0.0
N641 N 0.71194 0.27875 0.72692 0.0
C642 C 0.68678 0.31374 0.78633 0.0
C643 C 0.68236 0.2174 0.80637 0.0
C644 C 0.6722 0.24501 0.7977 0.0
C645 C 0.67446 0.29489 0.78821 0.0
C646 C 0.69446 0.23815 0.80443 0.0
N647 N 0.69665 0.28374 0.79335 0.0
H648 H 0.68835 0.35221 0.7791 0.0
H649 H 0.70212 0.2167 0.81152 0.0
H650 H 0.7004 0.37621 0.75382 0.0
H651 H 0.7217 0.23282 0.74928 0.0
O652 O 0.71256 0.38502 0.78721 0.0
O653 O 0.72986 0.33626 0.78314 0.0
O654 O 0.72021 0.22905 0.78837 0.0
C655 C 0.72467 0.38384 0.78438 0.0
H656 H 0.73295 0.28229 0.85661 0.0
H657 H 0.70097 0.34724 0.71631 0.0
H658 H 0.68098 0.17986 0.81452 0.0
H659 H 0.66684 0.31828 0.78174 0.0
Co660 Co 0.46298 0.78106 0.54085 0.0
C661 C 0.45996 0.75036 0.58341 0.0
C662 C 0.47387 0.8123 0.57926 0.0
C663 C 0.47336 0.79985 0.59908 0.0
N664 N 0.46539 0.78181 0.56943 0.0
N665 N 0.46464 0.76091 0.60175 0.0
H666 H 0.45285 0.72021 0.5802 0.0
H667 H 0.48028 0.84063 0.57249 0.0
C668 C 0.46614 0.90674 0.53807 0.0
O669 O 0.45443 0.92127 0.53512 0.0
N670 N 0.46108 0.78016 0.51186 0.0
C671 C 0.45994 0.73545 0.5003 0.0
C672 C 0.45933 0.75104 0.48076 0.0
C673 C 0.46118 0.82246 0.49888 0.0
N674 N 0.46011 0.80581 0.47979 0.0
C675 C 0.43645 0.78238 0.53173 0.0
C676 C 0.43004 0.86165 0.55903 0.0
C677 C 0.42093 0.84379 0.54551 0.0
C678 C 0.42418 0.80283 0.53199 0.0
C679 C 0.44226 0.84104 0.55798 0.0
N680 N 0.44548 0.8034 0.54394 0.0
H681 H 0.4387 0.75044 0.52137 0.0
H682 H 0.44926 0.85764 0.56788 0.0
H683 H 0.45957 0.69385 0.50551 0.0
H684 H 0.46193 0.86462 0.50312 0.0
O685 O 0.46178 0.70148 0.54193 0.0
O686 O 0.47918 0.74947 0.53835 0.0
O687 O 0.46934 0.85706 0.53981 0.0
C688 C 0.474 0.70218 0.54022 0.0
H689 H 0.47935 0.81664 0.61054 0.0
H690 H 0.45862 0.72375 0.46821 0.0
H691 H 0.4279 0.89312 0.56975 0.0
H692 H 0.41732 0.78698 0.5216 0.0
Co693 Co 0.28924 0.0454 0.53768 0.0
C694 C 0.29191 0.07305 0.58095 0.0
C695 C 0.27857 0.00981 0.57535 0.0
C696 C 0.27783 0.02433 0.59495 0.0
N697 N 0.28756 0.03941 0.56646 0.0
N698 N 0.28619 0.06418 0.5985 0.0
H699 H 0.29813 0.10689 0.57845 0.0
H700 H 0.27221 0.98248 0.56779 0.0
C701 C 0.28803 0.92359 0.54419 0.0
O702 O 0.29611 0.92633 0.55894 0.0
N703 N 0.29046 0.05177 0.5089 0.0
C704 C 0.29405 0.09604 0.49853 0.0
C705 C 0.29407 0.08341 0.47861 0.0
C706 C 0.28844 0.01274 0.49503 0.0
N707 N 0.29062 0.03091 0.47647 0.0
C708 C 0.31554 0.06238 0.54843 0.0
C709 C 0.32422 0.9707 0.52899 0.0
C710 C 0.33289 0.00231 0.53958 0.0
C711 C 0.32839 0.04924 0.54926 0.0
C712 C 0.31163 0.98551 0.52838 0.0
N713 N 0.30723 0.02934 0.53875 0.0
H714 H 0.31237 0.09964 0.55521 0.0
H715 H 0.30544 0.96097 0.51945 0.0
H716 H 0.29674 0.1347 0.50495 0.0
H717 H 0.28561 0.97152 0.49831 0.0
O718 O 0.2888 0.12498 0.54021 0.0
O719 O 0.27232 0.07124 0.53648 0.0
O720 O 0.28489 0.96634 0.53458 0.0
C721 C 0.27662 0.12013 0.5389 0.0
H722 H 0.27116 0.00891 0.60554 0.0
H723 H 0.29682 0.1102 0.46667 0.0
H724 H 0.32704 0.93403 0.52127 0.0
H725 H 0.33474 0.07615 0.55709 0.0
Co726 Co 0.46305 0.03852 0.2922 0.0
C727 C 0.46067 0.06245 0.24861 0.0
C728 C 0.47593 0.00865 0.2554 0.0
C729 C 0.47614 0.02009 0.23547 0.0
N730 N 0.46601 0.03375 0.26368 0.0
N731 N 0.46656 0.05407 0.23116 0.0
H732 H 0.4531 0.09108 0.2504 0.0
H733 H 0.483 0.98583 0.26347 0.0
C734 C 0.46778 0.91899 0.28528 0.0
O735 O 0.46002 0.91855 0.27007 0.0
N736 N 0.4604 0.04389 0.32057 0.0
C737 C 0.45284 0.07995 0.32965 0.0
C738 C 0.45233 0.06719 0.34952 0.0
C739 C 0.46437 0.00958 0.33505 0.0
N740 N 0.45952 0.02272 0.35292 0.0
C741 C 0.43697 0.04789 0.27979 0.0
C742 C 0.42954 0.95067 0.29672 0.0
C743 C 0.42067 0.98098 0.28594 0.0
C744 C 0.42449 0.03076 0.27763 0.0
C745 C 0.44179 0.9694 0.2986 0.0
N746 N 0.44561 0.01587 0.28928 0.0
H747 H 0.43956 0.0875 0.2743 0.0
H748 H 0.44815 0.94628 0.30783 0.0
H749 H 0.44765 0.11201 0.32221 0.0
H750 H 0.47045 0.97502 0.33253 0.0
O751 O 0.4618 0.1178 0.28972 0.0
O752 O 0.4792 0.07045 0.29521 0.0
O753 O 0.46909 0.96181 0.29576 0.0
C754 C 0.47396 0.11745 0.29225 0.0
H755 H 0.48328 0.00707 0.22519 0.0
H756 H 0.4466 0.08761 0.36041 0.0
H757 H 0.42712 0.91234 0.30365 0.0
H758 H 0.41787 0.05687 0.26992 0.0
Co759 Co 0.28971 0.78786 0.28903 0.0
C760 C 0.2911 0.75546 0.24583 0.0
C761 C 0.27475 0.80217 0.253 0.0
C762 C 0.27359 0.78441 0.23378 0.0
N763 N 0.28579 0.78478 0.26066 0.0
N764 N 0.28386 0.75528 0.22926 0.0
H765 H 0.29948 0.73119 0.2474 0.0
H766 H 0.26765 0.82372 0.26125 0.0
C767 C 0.28521 0.90291 0.27654 0.0
O768 O 0.2919 0.89444 0.26058 0.0
N769 N 0.29316 0.79019 0.31735 0.0
C770 C 0.29971 0.75283 0.32783 0.0
C771 C 0.30005 0.76852 0.34744 0.0
C772 C 0.28972 0.8285 0.33071 0.0
N773 N 0.29382 0.81615 0.34922 0.0
C774 C 0.31544 0.77073 0.27677 0.0
C775 C 0.32378 0.87255 0.28844 0.0
C776 C 0.33225 0.83695 0.27945 0.0
C777 C 0.32805 0.78484 0.27396 0.0
C778 C 0.31143 0.85656 0.29124 0.0
N779 N 0.30715 0.80744 0.28445 0.0
H780 H 0.31244 0.72989 0.27323 0.0
H781 H 0.30542 0.88369 0.2994 0.0
H782 H 0.30403 0.71678 0.32166 0.0
H783 H 0.28426 0.8644 0.32712 0.0
O784 O 0.29053 0.70834 0.28928 0.0
O785 O 0.27351 0.75841 0.2941 0.0
O786 O 0.28423 0.86604 0.28974 0.0
C787 C 0.27846 0.71038 0.29235 0.0
H788 H 0.26555 0.79019 0.22413 0.0
H789 H 0.30475 0.74712 0.35942 0.0
H790 H 0.32677 0.91203 0.29387 0.0
H791 H 0.33443 0.75536 0.2676 0.0
Co792 Co 0.54152 0.78494 0.03609 0.0
C793 C 0.54607 0.81647 0.99406 0.0
C794 C 0.53179 0.75557 0.99668 0.0
C795 C 0.53301 0.76872 0.97703 0.0
N796 N 0.54003 0.78505 1.00739 0.0
N797 N 0.54197 0.80705 0.97531 0.0
H798 H 0.55316 0.846 0.99804 0.0
H799 H 0.52504 0.72759 1.00269 0.0
C800 C 0.5375 0.6599 0.0403 0.0
O801 O 0.54842 0.6465 0.04801 0.0
N802 N 0.5427 0.7854 0.06517 0.0
C803 C 0.54591 0.82853 0.07657 0.0
C804 C 0.54564 0.81361 0.09621 0.0
C805 C 0.54029 0.74505 0.07834 0.0
N806 N 0.54214 0.76101 0.09734 0.0
C807 C 0.5681 0.7859 0.04496 0.0
C808 C 0.57415 0.69736 0.0215 0.0
C809 C 0.58354 0.71995 0.03362 0.0
C810 C 0.58039 0.76566 0.04515 0.0
C811 C 0.56198 0.71871 0.02183 0.0
N812 N 0.55894 0.761 0.03408 0.0
H813 H 0.56594 0.82125 0.05379 0.0
H814 H 0.5549 0.70011 1.01255 0.0
H815 H 0.54851 0.86831 0.07113 0.0
H816 H 0.53693 0.70518 0.07444 0.0
O817 O 0.54303 0.86461 0.03542 0.0
O818 O 0.52538 0.81792 0.03759 0.0
O819 O 0.53483 0.70915 0.03613 0.0
C820 C 0.53078 0.86489 0.03633 0.0
H821 H 0.5273 0.75297 0.96502 0.0
H822 H 0.54813 0.83929 0.10866 0.0
H823 H 0.57615 0.66331 1.01181 0.0
H824 H 0.58726 0.78507 0.05465 0.0
Co825 Co 0.71609 0.547 0.03894 0.0
C826 C 0.71595 0.57168 0.08278 0.0
C827 C 0.731 0.51911 0.07426 0.0
C828 C 0.73251 0.53222 0.09395 0.0
N829 N 0.72054 0.54332 0.06715 0.0
N830 N 0.72307 0.5656 0.09942 0.0
H831 H 0.70783 0.5976 0.08197 0.0
H832 H 0.73742 0.49525 0.06546 0.0
C833 C 0.71662 0.4271 0.04927 0.0
O834 O 0.71162 0.43578 0.06671 0.0
N835 N 0.71198 0.55139 1.01091 0.0
C836 C 0.70527 0.5912 1.00203 0.0
C837 C 0.7039 0.57876 0.98224 0.0
C838 C 0.71467 0.51539 0.99635 0.0
N839 N 0.70977 0.53097 0.97863 0.0
C840 C 0.69352 0.59975 0.05015 0.0
C841 C 0.67703 0.51981 0.03792 0.0
C842 C 0.67233 0.57165 0.04281 0.0
C843 C 0.68075 0.61105 0.04957 0.0
C844 C 0.69005 0.51004 0.03867 0.0
N845 N 0.69816 0.55018 0.04451 0.0
H846 H 0.69971 0.63272 0.05402 0.0
H847 H 0.69358 0.47155 0.03329 0.0
H848 H 0.70155 0.62669 1.00947 0.0
H849 H 0.71989 0.47808 0.99876 0.0
O850 O 0.71968 0.62414 0.03922 0.0
O851 O 0.73353 0.5591 0.03302 0.0
O852 O 0.71692 0.46522 0.03643 0.0
C853 C 0.73115 0.61074 0.03509 0.0
H854 H 0.74037 0.51998 0.10314 0.0
H855 H 0.699 0.6034 0.97134 0.0
H856 H 0.67082 0.48835 0.03242 0.0
H857 H 0.67754 0.65149 0.0536 0.0
Co858 Co 0.54124 0.52498 0.28453 0.0
C859 C 0.54333 0.50084 0.32836 0.0
C860 C 0.52722 0.54878 0.32072 0.0
C861 C 0.52685 0.53748 0.34065 0.0
N862 N 0.53773 0.52718 0.31295 0.0
N863 N 0.53698 0.50724 0.34552 0.0
H864 H 0.55153 0.4756 0.32708 0.0
H865 H 0.52002 0.5697 0.31228 0.0
C866 C 0.53704 0.64202 0.29393 0.0
O867 O 0.54457 0.63675 0.30932 0.0
N868 N 0.54434 0.522 0.25624 0.0
C869 C 0.55178 0.48573 0.24706 0.0
C870 C 0.55239 0.49911 0.22729 0.0
C871 C 0.54053 0.55707 0.2419 0.0
N872 N 0.54539 0.54429 0.22399 0.0
C873 C 0.56718 0.51397 0.2977 0.0
C874 C 0.57512 0.61027 0.28065 0.0
C875 C 0.58374 0.5792 0.29153 0.0
C876 C 0.57971 0.53018 0.30005 0.0
C877 C 0.56274 0.59319 0.27902 0.0
N878 N 0.55868 0.54693 0.28829 0.0
H879 H 0.56447 0.47417 0.30284 0.0
H880 H 0.55647 0.61703 0.26985 0.0
H881 H 0.55666 0.45249 0.25433 0.0
H882 H 0.53468 0.59225 0.24467 0.0
O883 O 0.54251 0.44585 0.28627 0.0
O884 O 0.52512 0.49308 0.2803 0.0
O885 O 0.53546 0.60253 0.28191 0.0
C886 C 0.53043 0.446 0.28291 0.0
H887 H 0.51932 0.54835 0.35054 0.0
H888 H 0.55772 0.47717 0.2163 0.0
H889 H 0.57792 0.6477 0.27342 0.0
H890 H 0.58625 0.50388 0.30786 0.0
Co891 Co 0.71435 0.78341 0.2913 0.0
C892 C 0.71585 0.82811 0.33269 0.0
C893 C 0.71918 0.74188 0.3319 0.0
C894 C 0.71952 0.75864 0.35131 0.0
N895 N 0.71685 0.78523 0.32006 0.0
N896 N 0.71745 0.81277 0.35183 0.0
H897 H 0.71359 0.86933 0.32817 0.0
H898 H 0.72024 0.70023 0.32707 0.0
C899 C 0.71813 0.66263 0.28179 0.0
O900 O 0.70856 0.65938 0.26948 0.0
N901 N 0.71188 0.78221 0.26245 0.0
C902 C 0.70395 0.81451 0.25207 0.0
C903 C 0.70477 0.80228 0.23225 0.0
C904 C 0.71783 0.75225 0.24843 0.0
N905 N 0.7134 0.76269 0.22992 0.0
C906 C 0.68751 0.80002 0.29218 0.0
C907 C 0.68157 0.69615 0.30478 0.0
C908 C 0.67176 0.73177 0.29968 0.0
C909 C 0.6749 0.785 0.29383 0.0
C910 C 0.69397 0.713 0.30311 0.0
N911 N 0.69688 0.76313 0.29563 0.0
H912 H 0.68972 0.84143 0.28817 0.0
H913 H 0.70114 0.68503 0.3079 0.0
H914 H 0.69803 0.84571 0.25825 0.0
H915 H 0.72534 0.7238 0.25154 0.0
O916 O 0.71336 0.86297 0.29072 0.0
O917 O 0.7306 0.81321 0.28766 0.0
O918 O 0.7205 0.70646 0.29114 0.0
C919 C 0.72551 0.86108 0.28847 0.0
H920 H 0.72106 0.73284 0.36412 0.0
H921 H 0.69921 0.82041 0.22047 0.0
H922 H 0.67977 0.65487 0.30964 0.0
H923 H 0.6677 0.81498 0.2906 0.0
Co924 Co 0.46314 0.27424 0.04023 0.0
C925 C 0.46125 0.23948 0.08256 0.0
C926 C 0.47665 0.29365 0.07743 0.0
C927 C 0.47668 0.2795 0.09712 0.0
N928 N 0.46692 0.26919 0.06832 0.0
N929 N 0.46702 0.24544 0.10041 0.0
H930 H 0.45316 0.21398 0.07989 0.0
H931 H 0.48351 0.31882 0.07014 0.0
C932 C 0.46592 0.39632 0.03305 0.0
O933 O 0.45594 0.39989 0.02158 0.0
N934 N 0.45972 0.27897 1.01167 0.0
C935 C 0.45191 0.24701 1.00105 0.0
C936 C 0.45236 0.26181 0.98141 0.0
C937 C 0.46531 0.31096 0.99792 0.0
N938 N 0.46073 0.30241 0.97938 0.0
C939 C 0.4361 0.26286 0.04139 0.0
C940 C 0.43142 0.36302 0.0586 0.0
C941 C 0.42121 0.33302 0.05128 0.0
C942 C 0.4237 0.2811 0.04333 0.0
C943 C 0.44362 0.34291 0.05655 0.0
N944 N 0.44592 0.29549 0.04656 0.0
H945 H 0.43777 0.22249 0.0357 0.0
H946 H 0.45123 0.36637 0.06274 0.0
H947 H 0.44645 0.21383 1.00684 0.0
H948 H 0.47278 0.33921 1.00127 0.0
O949 O 0.46191 0.19489 0.03913 0.0
O950 O 0.47916 0.24313 0.03449 0.0
O951 O 0.46917 0.35129 0.04095 0.0
C952 C 0.47393 0.19565 0.0356 0.0
H953 H 0.48358 0.29178 0.10806 0.0
H954 H 0.44679 0.24418 0.9696 0.0
H955 H 0.43014 0.40267 0.06533 0.0
H956 H 0.41616 0.25468 0.03854 0.0
Co957 Co 0.29023 0.54121 0.03736 0.0
C958 C 0.29105 0.57225 0.08064 0.0
C959 C 0.27827 0.50737 0.07429 0.0
C960 C 0.27683 0.52239 0.09374 0.0
N961 N 0.28742 0.53747 0.066 0.0
N962 N 0.28487 0.5631 0.09776 0.0
H963 H 0.29706 0.60696 0.07851 0.0
H964 H 0.27238 0.47881 0.06639 0.0
C965 C 0.29012 0.42145 0.04566 0.0
O966 O 0.29761 0.42964 0.06091 0.0
N967 N 0.29247 0.54551 1.00885 0.0
C968 C 0.29971 0.58168 0.99932 0.0
C969 C 0.30013 0.56777 0.97956 0.0
C970 C 0.28853 0.51017 0.99471 0.0
N971 N 0.29316 0.52256 0.97661 0.0
C972 C 0.31608 0.55585 0.05194 0.0
C973 C 0.32571 0.46965 0.0304 0.0
C974 C 0.33371 0.49745 0.04339 0.0
C975 C 0.32879 0.54145 0.05418 0.0
C976 C 0.31314 0.48455 0.02893 0.0
N977 N 0.30825 0.52584 0.04014 0.0
H978 H 0.31269 0.59158 0.05939 0.0
H979 H 0.30729 0.46214 0.01869 0.0
H980 H 0.30479 0.61449 1.00642 0.0
H981 H 0.28266 0.47536 0.99771 0.0
O982 O 0.28953 0.6209 0.03888 0.0
O983 O 0.27329 0.56629 0.03435 0.0
O984 O 0.28655 0.46119 0.03477 0.0
C985 C 0.27742 0.61558 0.03659 0.0
H986 H 0.27 0.50628 0.10393 0.0
H987 H 0.30568 0.58803 0.96844 0.0
H988 H 0.3291 0.43578 0.02162 0.0
H989 H 0.33476 0.56516 0.06392 0.0
Co990 Co 0.46489 0.54705 0.79259 0.0
C991 C 0.46213 0.57743 0.74999 0.0
C992 C 0.47855 0.52889 0.75564 0.0
C993 C 0.47811 0.54144 0.73581 0.0
N994 N 0.4685 0.55098 0.76453 0.0
N995 N 0.4678 0.57194 0.73219 0.0
H996 H 0.4536 0.6003 0.75243 0.0
H997 H 0.48589 0.50632 0.7631 0.0
C998 C 0.47089 0.42543 0.80009 0.0
O999 O 0.46079 0.4137 0.81022 0.0
N1000 N 0.46142 0.54333 0.82103 0.0
C1001 C 0.45317 0.57462 0.83095 0.0
C1002 C 0.45327 0.5599 0.85061 0.0
C1003 C 0.4668 0.51141 0.83519 0.0
N1004 N 0.46178 0.51979 0.85335 0.0
C1005 C 0.43806 0.55422 0.78967 0.0
C1006 C 0.43406 0.45058 0.77495 0.0
C1007 C 0.42362 0.48209 0.78037 0.0
C1008 C 0.42581 0.5355 0.78706 0.0
C1009 C 0.44617 0.47136 0.77751 0.0
N1010 N 0.44807 0.52104 0.78616 0.0
H1011 H 0.43948 0.59559 0.79454 0.0
H1012 H 0.45397 0.44705 0.77258 0.0
H1013 H 0.44752 0.60674 0.82458 0.0
H1014 H 0.47442 0.48344 0.83249 0.0
O1015 O 0.46227 0.62582 0.79265 0.0
O1016 O 0.4803 0.58335 0.79838 0.0
O1017 O 0.47253 0.47268 0.79283 0.0
C1018 C 0.47427 0.62894 0.7964 0.0
H1019 H 0.48511 0.53052 0.725 0.0
H1020 H 0.4473 0.57692 0.86193 0.0
H1021 H 0.43299 0.40961 0.76924 0.0
H1022 H 0.41812 0.56285 0.79035 0.0
Co1023 Co 0.29233 0.28406 0.78924 0.0
C1024 C 0.29298 0.2576 0.74529 0.0
C1025 C 0.27725 0.30614 0.75387 0.0
C1026 C 0.27596 0.29343 0.73418 0.0
N1027 N 0.28806 0.28498 0.76093 0.0
N1028 N 0.28585 0.26287 0.72861 0.0
H1029 H 0.30122 0.23234 0.74614 0.0
H1030 H 0.2704 0.32742 0.76274 0.0
C1031 C 0.28798 0.40106 0.77951 0.0
O1032 O 0.29492 0.39518 0.76366 0.0
N1033 N 0.29601 0.28288 0.81746 0.0
C1034 C 0.30483 0.25254 0.82664 0.0
C1035 C 0.30531 0.26721 0.84635 0.0
C1036 C 0.29121 0.31544 0.83171 0.0
N1037 N 0.29677 0.30699 0.84959 0.0
C1038 C 0.31788 0.27163 0.77522 0.0
C1039 C 0.32664 0.36667 0.79237 0.0
C1040 C 0.33502 0.33391 0.78187 0.0
C1041 C 0.33053 0.28582 0.77315 0.0
C1042 C 0.31411 0.3516 0.79374 0.0
N1043 N 0.30969 0.30554 0.78468 0.0
H1044 H 0.31484 0.23229 0.77002 0.0
H1045 H 0.30808 0.3763 0.80284 0.0
H1046 H 0.3108 0.22316 0.81936 0.0
H1047 H 0.2839 0.3452 0.82896 0.0
O1048 O 0.29365 0.20507 0.78794 0.0
O1049 O 0.27633 0.25205 0.79421 0.0
O1050 O 0.28668 0.36177 0.79167 0.0
C1051 C 0.28165 0.20505 0.7915 0.0
H1052 H 0.26793 0.30362 0.72503 0.0
H1053 H 0.31183 0.25117 0.85725 0.0
H1054 H 0.32979 0.40352 0.7997 0.0
H1055 H 0.33684 0.25837 0.76556 0.0
H1056 H 0.03491 0.14136 0.21695 0.0
H1057 H 0.04988 0.00413 0.18455 0.0
H1058 H 0.03286 0.19224 0.18628 0.0
H1059 H 0.0485 0.05635 0.15405 0.0
H1060 H 0.03747 0.15039 0.09873 0.0
H1061 H 0.0357 0.09648 0.12901 0.0
H1062 H 0.04568 0.23808 0.16371 0.0
H1063 H 0.04677 0.29212 0.13375 0.0
C1064 C 0.03771 0.12161 0.20336 0.0
C1065 C 0.04265 0.06827 0.20352 0.0
C1066 C 0.03667 0.15132 0.18567 0.0
C1067 C 0.04064 0.12894 0.16755 0.0
C1068 C 0.04524 0.07507 0.1676 0.0
C1069 C 0.04619 0.04518 0.18527 0.0
C1070 C 0.03904 0.17026 0.11284 0.0
C1071 C 0.04237 0.22573 0.11365 0.0
C1072 C 0.03818 0.13911 0.13025 0.0
C1073 C 0.04062 0.16255 0.14896 0.0
C1074 C 0.04358 0.2184 0.14972 0.0
C1075 C 0.04439 0.24945 0.13239 0.0
H1076 H 0.23653 0.08287 0.12282 0.0
H1077 H 0.19923 0.12878 0.10379 0.0
H1078 H 0.23368 0.13308 0.15348 0.0
H1079 H 0.19644 0.17946 0.13451 0.0
H1080 H 0.20075 0.31109 0.18247 0.0
H1081 H 0.20365 0.26058 0.15182 0.0
H1082 H 0.22221 0.13164 0.18438 0.0
H1083 H 0.21923 0.18191 0.2151 0.0
C1084 C 0.22766 0.10313 0.12515 0.0
C1085 C 0.21812 0.10133 0.1106 0.0
C1086 C 0.22603 0.13213 0.14285 0.0
C1087 C 0.21482 0.16051 0.1466 0.0
C1088 C 0.20528 0.15884 0.13208 0.0
C1089 C 0.20689 0.12964 0.11438 0.0
C1090 C 0.20537 0.27183 0.18322 0.0
C1091 C 0.2097 0.25087 0.20149 0.0
C1092 C 0.20703 0.24271 0.16554 0.0
C1093 C 0.21313 0.19176 0.16551 0.0
C1094 C 0.2176 0.17101 0.18372 0.0
C1095 C 0.2159 0.20005 0.20143 0.0
H1096 H 0.97553 0.92171 0.85963 0.0
H1097 H 0.9501 0.03621 0.88695 0.0
H1098 H 0.97645 0.86969 0.89037 0.0
H1099 H 0.95121 0.98463 0.91758 0.0
H1100 H 0.96455 0.90921 0.9755 0.0
H1101 H 0.96553 0.96126 0.94473 0.0
H1102 H 0.9631 0.8117 0.9112 0.0
H1103 H 0.96247 0.75967 0.94207 0.0
C1104 C 0.97009 0.93596 0.87204 0.0
C1105 C 0.96275 0.98374 0.87055 0.0
C1106 C 0.97064 0.90596 0.88976 0.0
C1107 C 0.96395 0.92299 0.90655 0.0
C1108 C 0.95668 0.97074 0.9051 0.0
C1109 C 0.95605 0.0005 0.88741 0.0
C1110 C 0.9645 0.88737 0.96159 0.0
C1111 C 0.96349 0.83021 0.96132 0.0
C1112 C 0.96488 0.91726 0.9439 0.0
C1113 C 0.96431 0.89081 0.9254 0.0
C1114 C 0.96365 0.83349 0.92513 0.0
C1115 C 0.96318 0.80363 0.94284 0.0
H1116 H 0.78277 0.91313 0.84725 0.0
H1117 H 0.79644 0.77605 0.88132 0.0
H1118 H 0.78024 0.96542 0.87777 0.0
H1119 H 0.79451 0.82871 0.91157 0.0
H1120 H 0.78337 0.92159 0.96575 0.0
H1121 H 0.7814 0.8696 0.93525 0.0
H1122 H 0.79296 0.01047 0.9017 0.0
H1123 H 0.79428 0.0633 0.93207 0.0
C1124 C 0.78509 0.89383 0.86123 0.0
C1125 C 0.78992 0.84037 0.86171 0.0
C1126 C 0.7838 0.92412 0.87877 0.0
C1127 C 0.78729 0.90176 0.89728 0.0
C1128 C 0.79161 0.84748 0.89775 0.0
C1129 C 0.79287 0.81729 0.88028 0.0
C1130 C 0.78527 0.94202 0.9519 0.0
C1131 C 0.78911 0.99693 0.95161 0.0
C1132 C 0.78428 0.9118 0.93432 0.0
C1133 C 0.78714 0.93538 0.91586 0.0
C1134 C 0.79057 0.99075 0.91551 0.0
C1135 C 0.79151 0.02103 0.93307 0.0
H1136 H 0.03899 0.79963 0.63201 0.0
H1137 H 0.04562 0.65128 0.59951 0.0
H1138 H 0.03816 0.7481 0.66284 0.0
H1139 H 0.0455 0.5995 0.63034 0.0
H1140 H 0.03622 0.51105 0.68696 0.0
H1141 H 0.03449 0.56316 0.65632 0.0
H1142 H 0.05021 0.70352 0.68622 0.0
H1143 H 0.05124 0.65164 0.71701 0.0
C1144 C 0.04033 0.75587 0.63152 0.0
C1145 C 0.04238 0.7295 0.61336 0.0
C1146 C 0.03996 0.72618 0.64924 0.0
C1147 C 0.04189 0.66928 0.64937 0.0
C1148 C 0.04375 0.64293 0.63103 0.0
C1149 C 0.04387 0.6726 0.61327 0.0
C1150 C 0.03926 0.55312 0.68692 0.0
C1151 C 0.04389 0.57722 0.70437 0.0
C1152 C 0.03835 0.58311 0.66929 0.0
C1153 C 0.04228 0.63788 0.6685 0.0
C1154 C 0.04684 0.66196 0.68612 0.0
C1155 C 0.04751 0.63218 0.70384 0.0
H1156 H 0.20694 0.66854 0.5985 0.0
H1157 H 0.22568 0.53662 0.62919 0.0
H1158 H 0.20443 0.71655 0.6298 0.0
H1159 H 0.22317 0.5846 0.66049 0.0
H1160 H 0.22799 0.71198 0.7101 0.0
H1161 H 0.23044 0.66278 0.67893 0.0
H1162 H 0.19339 0.71402 0.66063 0.0
H1163 H 0.19095 0.763 0.69162 0.0
C1164 C 0.21041 0.64933 0.6119 0.0
C1165 C 0.21654 0.59847 0.61114 0.0
C1166 C 0.20898 0.67702 0.62994 0.0
C1167 C 0.21362 0.65472 0.64781 0.0
C1168 C 0.21966 0.60367 0.64706 0.0
C1169 C 0.22109 0.576 0.62904 0.0
C1170 C 0.22033 0.71249 0.69952 0.0
C1171 C 0.2093 0.74205 0.7035 0.0
C1172 C 0.22172 0.68414 0.68158 0.0
C1173 C 0.21214 0.68446 0.66709 0.0
C1174 C 0.20109 0.7136 0.67117 0.0
C1175 C 0.19969 0.74186 0.68906 0.0
H1176 H 0.9589 0.5474 0.38965 0.0
H1177 H 0.96757 0.40291 0.35582 0.0
H1178 H 0.96006 0.49471 0.42008 0.0
H1179 H 0.96929 0.35049 0.38644 0.0
H1180 H 0.95465 0.26273 0.44226 0.0
H1181 H 0.95614 0.31357 0.41149 0.0
H1182 H 0.97323 0.44759 0.44306 0.0
H1183 H 0.9712 0.39742 0.47399 0.0
C1184 C 0.96114 0.50445 0.38865 0.0
C1185 C 0.96302 0.47958 0.3701 0.0
C1186 C 0.96198 0.4742 0.40623 0.0
C1187 C 0.96474 0.41803 0.40588 0.0
C1188 C 0.96697 0.39342 0.38737 0.0
C1189 C 0.96613 0.42373 0.36974 0.0
C1190 C 0.95871 0.30305 0.44275 0.0
C1191 C 0.96262 0.32608 0.46089 0.0
C1192 C 0.95971 0.33212 0.42494 0.0
C1193 C 0.96471 0.38516 0.42465 0.0
C1194 C 0.9691 0.40732 0.44265 0.0
C1195 C 0.96808 0.37821 0.46047 0.0
H1196 H 0.79769 0.40257 0.3502 0.0
H1197 H 0.7883 0.25395 0.38058 0.0
H1198 H 0.79599 0.45311 0.38115 0.0
H1199 H 0.78577 0.3043 0.4114 0.0
H1200 H 0.79577 0.3968 0.46801 0.0
H1201 H 0.79602 0.34586 0.43704 0.0
H1202 H 0.78403 0.49084 0.40547 0.0
H1203 H 0.78461 0.54189 0.43643 0.0
C1204 C 0.795 0.38098 0.36349 0.0
C1205 C 0.7932 0.32433 0.36299 0.0
C1206 C 0.79394 0.40993 0.38132 0.0
C1207 C 0.79077 0.3832 0.39912 0.0
C1208 C 0.78856 0.32656 0.39832 0.0
C1209 C 0.7899 0.29752 0.38058 0.0
C1210 C 0.79308 0.41742 0.45443 0.0
C1211 C 0.79023 0.47334 0.45463 0.0
C1212 C 0.79316 0.38821 0.43657 0.0
C1213 C 0.79011 0.41385 0.41841 0.0
C1214 C 0.78678 0.46955 0.41887 0.0
C1215 C 0.78699 0.49894 0.43667 0.0
H1216 H 0.54693 0.16852 0.72156 0.0
H1217 H 0.535 0.02423 0.69049 0.0
H1218 H 0.54604 0.22033 0.69075 0.0
H1219 H 0.53318 0.07611 0.65981 0.0
H1220 H 0.54505 0.16449 0.60372 0.0
H1221 H 0.54413 0.11371 0.63464 0.0
H1222 H 0.53535 0.26297 0.66589 0.0
H1223 H 0.53717 0.31359 0.63496 0.0
C1224 C 0.54382 0.14831 0.70814 0.0
C1225 C 0.54111 0.09236 0.70837 0.0
C1226 C 0.54323 0.17801 0.69038 0.0
C1227 C 0.53962 0.15281 0.67241 0.0
C1228 C 0.53638 0.0971 0.673 0.0
C1229 C 0.53728 0.06722 0.69066 0.0
C1230 C 0.54282 0.18614 0.61722 0.0
C1231 C 0.54123 0.24296 0.61694 0.0
C1232 C 0.54221 0.15703 0.63506 0.0
C1233 C 0.53968 0.18376 0.65313 0.0
C1234 C 0.53764 0.24063 0.65259 0.0
C1235 C 0.53856 0.26984 0.63479 0.0
H1236 H 0.7143 0.32052 0.68989 0.0
H1237 H 0.71537 0.16957 0.72268 0.0
H1238 H 0.7173 0.27065 0.65912 0.0
H1239 H 0.71805 0.11912 0.69184 0.0
H1240 H 0.73234 0.04391 0.63494 0.0
H1241 H 0.73135 0.0967 0.66547 0.0
H1242 H 0.70701 0.21351 0.63636 0.0
H1243 H 0.70832 0.16114 0.60573 0.0
C1244 C 0.71511 0.27655 0.69053 0.0
C1245 C 0.71453 0.24912 0.70882 0.0
C1246 C 0.71678 0.24777 0.6728 0.0
C1247 C 0.71783 0.1905 0.67275 0.0
C1248 C 0.71747 0.16316 0.69115 0.0
C1249 C 0.71591 0.19208 0.70892 0.0
C1250 C 0.72681 0.08097 0.63506 0.0
C1251 C 0.7204 0.09814 0.61784 0.0
C1252 C 0.72617 0.11124 0.65264 0.0
C1253 C 0.71901 0.15948 0.65364 0.0
C1254 C 0.71278 0.17716 0.63625 0.0
C1255 C 0.71352 0.14707 0.61859 0.0
H1256 H 0.47003 0.90728 0.47482 0.0
H1257 H 0.45013 0.77957 0.44392 0.0
H1258 H 0.47059 0.96067 0.44428 0.0
H1259 H 0.45075 0.83257 0.41354 0.0
H1260 H 0.46462 0.91466 0.35771 0.0
H1261 H 0.46531 0.86356 0.38867 0.0
H1262 H 0.45718 0.01093 0.42117 0.0
H1263 H 0.45689 0.06239 0.39024 0.0
C1264 C 0.46568 0.89068 0.46162 0.0
C1265 C 0.46011 0.83874 0.46194 0.0
C1266 C 0.46603 0.92132 0.44405 0.0
C1267 C 0.46082 0.90081 0.42633 0.0
C1268 C 0.45511 0.84924 0.42674 0.0
C1269 C 0.45474 0.81876 0.44426 0.0
C1270 C 0.46317 0.93644 0.37145 0.0
C1271 C 0.46065 0.99279 0.37137 0.0
C1272 C 0.46342 0.90693 0.38924 0.0
C1273 C 0.46119 0.93292 0.40748 0.0
C1274 C 0.459 0.98952 0.40746 0.0
C1275 C 0.45871 0.01899 0.38966 0.0
H1276 H 0.29489 0.92591 0.35324 0.0
H1277 H 0.28935 0.7771 0.38586 0.0
H1278 H 0.29391 0.97808 0.38397 0.0
H1279 H 0.28756 0.82871 0.4165 0.0
H1280 H 0.29777 0.92601 0.47135 0.0
H1281 H 0.29826 0.87481 0.4405 0.0
H1282 H 0.28254 0.01392 0.40949 0.0
H1283 H 0.28285 0.06566 0.44035 0.0
C1284 C 0.29322 0.90454 0.367 0.0
C1285 C 0.29227 0.84745 0.36717 0.0
C1286 C 0.29259 0.93441 0.38471 0.0
C1287 C 0.29072 0.90806 0.40306 0.0
C1288 C 0.28937 0.85085 0.40296 0.0
C1289 C 0.29029 0.82103 0.38533 0.0
C1290 C 0.29437 0.94538 0.45792 0.0
C1291 C 0.29027 -0.00017 0.45828 0.0
C1292 C 0.29456 0.91593 0.44013 0.0
C1293 C 0.2904 0.93968 0.42218 0.0
C1294 C 0.28609 0.99412 0.42273 0.0
C1295 C 0.28616 0.02389 0.44047 0.0
H1296 H 0.53691 0.79631 0.1345 0.0
H1297 H 0.5454 0.65144 0.1008 0.0
H1298 H 0.53701 0.7427 0.16494 0.0
H1299 H 0.54519 0.5975 0.13121 0.0
H1300 H 0.56036 0.53753 0.19153 0.0
H1301 H 0.55846 0.58798 0.16078 0.0
H1302 H 0.52581 0.67109 0.1831 0.0
H1303 H 0.52756 0.61992 0.214 0.0
C1304 C 0.53874 0.75297 0.13355 0.0
C1305 C 0.54124 0.72837 0.11515 0.0
C1306 C 0.53867 0.72208 0.15102 0.0
C1307 C 0.54117 0.66575 0.15059 0.0
C1308 C 0.54338 0.6409 0.13214 0.0
C1309 C 0.54337 0.67175 0.11465 0.0
C1310 C 0.55264 0.5658 0.18995 0.0
C1311 C 0.5441 0.57413 0.20549 0.0
C1312 C 0.55156 0.5949 0.17218 0.0
C1313 C 0.54196 0.63354 0.16937 0.0
C1314 C 0.5334 0.64202 0.18482 0.0
C1315 C 0.53443 0.61261 0.2026 0.0
H1316 H 0.73515 0.54164 0.13429 0.0
H1317 H 0.70772 0.65161 0.10867 0.0
H1318 H 0.73379 0.58976 0.16552 0.0
H1319 H 0.70583 0.69747 0.14028 0.0
H1320 H 0.71341 0.80587 0.19303 0.0
H1321 H 0.71601 0.75785 0.16178 0.0
H1322 H 0.72173 0.60693 0.19377 0.0
H1323 H 0.7195 0.6559 0.22508 0.0
C1324 C 0.72879 0.57591 0.13516 0.0
C1325 C 0.72166 0.59257 0.11852 0.0
C1326 C 0.72789 0.60328 0.15335 0.0
C1327 C 0.71975 0.64804 0.15563 0.0
C1328 C 0.71242 0.66402 0.13914 0.0
C1329 C 0.71339 0.63695 0.1209 0.0
C1330 C 0.71529 0.76248 0.19338 0.0
C1331 C 0.71621 0.73477 0.21158 0.0
C1332 C 0.71669 0.73468 0.1754 0.0
C1333 C 0.7189 0.67803 0.17501 0.0
C1334 C 0.72015 0.65054 0.19331 0.0
C1335 C 0.71889 0.67859 0.21134 0.0
H1336 H 0.45786 0.5549 0.89101 0.0
H1337 H 0.47095 0.41645 0.85746 0.0
H1338 H 0.45927 0.50182 0.92131 0.0
H1339 H 0.47292 0.36379 0.88803 0.0
H1340 H 0.45774 0.26723 0.94142 0.0
H1341 H 0.45965 0.32039 0.91126 0.0
H1342 H 0.47215 0.45876 0.94562 0.0
H1343 H 0.46968 0.40598 0.976 0.0
C1344 C 0.46115 0.51324 0.89006 0.0
C1345 C 0.46412 0.48999 0.8716 0.0
C1346 C 0.46213 0.48282 0.90759 0.0
C1347 C 0.46615 0.42812 0.90728 0.0
C1348 C 0.4696 0.40546 0.88891 0.0
C1349 C 0.46861 0.43595 0.87133 0.0
C1350 C 0.46089 0.30898 0.94264 0.0
C1351 C 0.46338 0.33229 0.96132 0.0
C1352 C 0.46215 0.33945 0.9252 0.0
C1353 C 0.46599 0.39426 0.92584 0.0
C1354 C 0.46897 0.41699 0.94447 0.0
C1355 C 0.4677 0.38645 0.96196 0.0
H1356 H 0.29631 0.55972 0.93903 0.0
H1357 H 0.28758 0.41457 0.97236 0.0
H1358 H 0.29632 0.50685 0.9086 0.0
H1359 H 0.28701 0.36201 0.94173 0.0
H1360 H 0.30267 0.27387 0.88704 0.0
H1361 H 0.30085 0.32583 0.91752 0.0
H1362 H 0.28399 0.45905 0.88488 0.0
H1363 H 0.28637 0.40805 0.85421 0.0
C1364 C 0.29431 0.51657 0.93992 0.0
C1365 C 0.29206 0.49163 0.95834 0.0
C1366 C 0.29416 0.48621 0.92233 0.0
C1367 C 0.2917 0.42985 0.92255 0.0
C1368 C 0.28913 0.4051 0.94092 0.0
C1369 C 0.2893 0.43551 0.95854 0.0
C1370 C 0.29864 0.31433 0.88625 0.0
C1371 C 0.29479 0.33662 0.86794 0.0
C1372 C 0.29743 0.34402 0.90388 0.0
C1373 C 0.2923 0.39697 0.90382 0.0
C1374 C 0.28816 0.41879 0.88558 0.0
C1375 C 0.2894 0.38911 0.86791 0.0
H1376 H 0.03443 0.27355 0.93826 0.0
H1377 H 0.05187 0.40887 0.96841 0.0
H1378 H 0.03754 0.31844 0.90653 0.0
H1379 H 0.05529 0.45373 0.93645 0.0
H1380 H 0.03921 0.54459 0.88069 0.0
H1381 H 0.0414 0.49768 0.91233 0.0
H1382 H 0.05226 0.35044 0.88176 0.0
H1383 H 0.04974 0.39745 0.84995 0.0
C1384 C 0.03909 0.31268 0.93806 0.0
C1385 C 0.04275 0.33796 0.95588 0.0
C1386 C 0.04101 0.33821 0.91982 0.0
C1387 C 0.0466 0.38993 0.91888 0.0
C1388 C 0.05082 0.41416 0.93665 0.0
C1389 C 0.04897 0.3883 0.95495 0.0
C1390 C 0.04216 0.50231 0.88072 0.0
C1391 C 0.04415 0.47458 0.86278 0.0
C1392 C 0.04356 0.47553 0.89891 0.0
C1393 C 0.04694 0.42011 0.89966 0.0
C1394 C 0.04951 0.39298 0.88173 0.0
C1395 C 0.04818 0.41999 0.86349 0.0
H1396 H 0.19982 0.83694 0.86363 0.0
H1397 H 0.23769 0.89602 0.8599 0.0
H1398 H 0.19736 0.88448 0.89556 0.0
H1399 H 0.23517 0.94441 0.89133 0.0
H1400 H 0.21871 0.07368 0.93528 0.0
H1401 H 0.22046 0.02553 0.90362 0.0
H1402 H 0.20889 0.8763 0.93181 0.0
H1403 H 0.20741 0.92447 0.96369 0.0
C1404 C 0.20755 0.86049 0.86956 0.0
C1405 C 0.21895 0.86268 0.85934 0.0
C1406 C 0.20618 0.88731 0.88784 0.0
C1407 C 0.21609 0.91805 0.89595 0.0
C1408 C 0.22737 0.92115 0.88546 0.0
C1409 C 0.22883 0.89333 0.86751 0.0
C1410 C 0.21654 0.03062 0.93471 0.0
C1411 C 0.21296 0.00283 0.95198 0.0
C1412 C 0.21757 0.00304 0.91662 0.0
C1413 C 0.21476 0.94721 0.91522 0.0
C1414 C 0.21103 0.91941 0.93242 0.0
C1415 C 0.21029 0.9468 0.95067 0.0
H1416 H 0.05333 0.93485 0.35624 0.0
H1417 H 0.02083 0.02513 0.37588 0.0
H1418 H 0.05424 0.88854 0.38843 0.0
H1419 H 0.02217 0.98133 0.40762 0.0
H1420 H 0.01592 0.84339 0.44958 0.0
H1421 H 0.01755 0.88964 0.41817 0.0
H1422 H 0.05763 0.90144 0.42593 0.0
H1423 H 0.05601 0.85231 0.45769 0.0
C1424 C 0.04644 0.94529 0.36727 0.0
C1425 C 0.03695 0.98385 0.36307 0.0
C1426 C 0.04707 0.9191 0.38583 0.0
C1427 C 0.03819 0.93078 0.40054 0.0
C1428 C 0.02903 0.97055 0.39655 0.0
C1429 C 0.02837 0.99632 0.37818 0.0
C1430 C 0.02515 0.85499 0.44463 0.0
C1431 C 0.03586 0.84354 0.45618 0.0
C1432 C 0.02606 0.88231 0.42663 0.0
C1433 C 0.03771 0.89973 0.41954 0.0
C1434 C 0.04852 0.88833 0.43095 0.0
C1435 C 0.04759 0.86075 0.44919 0.0
H1436 H 0.19705 0.36789 0.35623 0.0
H1437 H 0.23686 0.3567 0.36692 0.0
H1438 H 0.19447 0.41374 0.38807 0.0
H1439 H 0.23439 0.40324 0.39844 0.0
H1440 H 0.22514 0.44313 0.4624 0.0
H1441 H 0.22703 0.39422 0.4312 0.0
H1442 H 0.19803 0.49567 0.40548 0.0
H1443 H 0.19565 0.54239 0.43682 0.0
C1444 C 0.20527 0.37569 0.36527 0.0
C1445 C 0.21714 0.35822 0.35898 0.0
C1446 C 0.20381 0.40211 0.38358 0.0
C1447 C 0.21421 0.41224 0.39606 0.0
C1448 C 0.2261 0.39524 0.38958 0.0
C1449 C 0.22753 0.36856 0.37138 0.0
C1450 C 0.21905 0.45476 0.45022 0.0
C1451 C 0.21027 0.49732 0.45238 0.0
C1452 C 0.22024 0.42697 0.43213 0.0
C1453 C 0.21274 0.44091 0.41559 0.0
C1454 C 0.2039 0.48309 0.41782 0.0
C1455 C 0.20266 0.51064 0.43589 0.0
H1456 H 0.98748 0.75425 0.12982 0.0
H1457 H 0.9496 0.70587 0.11572 0.0
H1458 H 0.98626 0.70779 0.16132 0.0
H1459 H 0.94852 0.65706 0.14754 0.0
H1460 H 0.94973 0.62194 0.217 0.0
H1461 H 0.94887 0.67234 0.18543 0.0
H1462 H 0.98579 0.61252 0.17124 0.0
H1463 H 0.98679 0.56441 0.20248 0.0
C1464 C 0.97881 0.73404 0.13346 0.0
C1465 C 0.9686 0.73422 0.12015 0.0
C1466 C 0.97817 0.70676 0.15154 0.0
C1467 C 0.96733 0.67835 0.15695 0.0
C1468 C 0.95699 0.67884 0.14385 0.0
C1469 C 0.95765 0.70625 0.12555 0.0
C1470 C 0.95766 0.62001 0.20714 0.0
C1471 C 0.9683 0.58887 0.21229 0.0
C1472 C 0.95712 0.64834 0.18899 0.0
C1473 C 0.96728 0.64659 0.17583 0.0
C1474 C 0.97784 0.61533 0.18107 0.0
C1475 C 0.97836 0.58713 0.19898 0.0
H1476 H 0.78366 0.28514 0.18734 0.0
H1477 H 0.79919 0.1441 0.21698 0.0
H1478 H 0.78526 0.239 0.15568 0.0
H1479 H 0.80134 0.09822 0.18497 0.0
H1480 H 0.78626 0.01029 0.12906 0.0
H1481 H 0.78792 0.05697 0.16068 0.0
H1482 H 0.79851 0.20495 0.13049 0.0
H1483 H 0.7962 0.15899 0.09874 0.0
C1484 C 0.78754 0.24434 0.18707 0.0
C1485 C 0.79112 0.21808 0.20478 0.0
C1486 C 0.78862 0.21801 0.16881 0.0
C1487 C 0.79337 0.16458 0.16765 0.0
C1488 C 0.79746 0.13905 0.18529 0.0
C1489 C 0.79637 0.16554 0.20365 0.0
C1490 C 0.78886 0.05289 0.12907 0.0
C1491 C 0.7909 0.08083 0.11115 0.0
C1492 C 0.79001 0.07954 0.14733 0.0
C1493 C 0.79331 0.13495 0.14826 0.0
C1494 C 0.79576 0.16248 0.13039 0.0
C1495 C 0.79456 0.13585 0.1121 0.0
H1496 H 0.98836 0.24673 0.62819 0.0
H1497 H 0.95018 0.1992 0.61586 0.0
H1498 H 0.98778 0.19925 0.65954 0.0
H1499 H 0.94974 0.14926 0.6475 0.0
H1500 H 0.95188 0.11483 0.71675 0.0
H1501 H 0.95054 0.16327 0.6849 0.0
H1502 H 0.98756 0.10557 0.67029 0.0
H1503 H 0.98909 0.0596 0.70189 0.0
C1504 C 0.97977 0.22637 0.63218 0.0
C1505 C 0.96928 0.2273 0.61943 0.0
C1506 C 0.9795 0.19842 0.65017 0.0
C1507 C 0.96875 0.17002 0.65606 0.0
C1508 C 0.95816 0.17098 0.64346 0.0
C1509 C 0.95845 0.19908 0.62526 0.0
C1510 C 0.95974 0.11282 0.70675 0.0
C1511 C 0.97058 0.08308 0.712 0.0
C1512 C 0.95892 0.14008 0.68842 0.0
C1513 C 0.96897 0.13859 0.67505 0.0
C1514 C 0.9797 0.1083 0.68027 0.0
C1515 C 0.9805 0.08123 0.69842 0.0
H1516 H 0.78068 0.66102 0.71576 0.0
H1517 H 0.80256 0.78649 0.68802 0.0
H1518 H 0.78041 0.60944 0.68482 0.0
H1519 H 0.80302 0.73419 0.65739 0.0
H1520 H 0.78929 0.66095 0.59903 0.0
H1521 H 0.79108 0.70994 0.63034 0.0
H1522 H 0.79072 0.55637 0.66194 0.0
H1523 H 0.78821 0.50832 0.63056 0.0
C1524 C 0.78565 0.6769 0.7031 0.0
C1525 C 0.79155 0.72785 0.70421 0.0
C1526 C 0.78557 0.64732 0.68532 0.0
C1527 C 0.79162 0.66752 0.6683 0.0
C1528 C 0.79794 0.71769 0.66983 0.0
C1529 C 0.79779 0.74763 0.68746 0.0
C1530 C 0.78973 0.63789 0.6127 0.0
C1531 C 0.78857 0.58094 0.61239 0.0
C1532 C 0.79081 0.66585 0.63074 0.0
C1533 C 0.79101 0.63744 0.64895 0.0
C1534 C 0.79029 0.5801 0.64843 0.0
C1535 C 0.78896 0.55235 0.63042 0.0
H1536 H 0.55056 0.41528 0.35355 0.0
H1537 H 0.5295 0.54437 0.38142 0.0
H1538 H 0.55371 0.37199 0.38573 0.0
H1539 H 0.53218 0.49995 0.41341 0.0
H1540 H 0.5449 0.42549 0.47157 0.0
H1541 H 0.54628 0.47423 0.43995 0.0
H1542 H 0.54118 0.32224 0.4086 0.0
H1543 H 0.54024 0.27395 0.43997 0.0
C1544 C 0.54669 0.43481 0.36651 0.0
C1545 C 0.53965 0.4832 0.36473 0.0
C1546 C 0.54839 0.40961 0.385 0.0
C1547 C 0.54312 0.4321 0.40225 0.0
C1548 C 0.53648 0.48153 0.40056 0.0
C1549 C 0.53478 0.50669 0.38209 0.0
C1550 C 0.54434 0.4025 0.4579 0.0
C1551 C 0.54234 0.34589 0.45832 0.0
C1552 C 0.54499 0.43045 0.43976 0.0
C1553 C 0.54374 0.40235 0.42162 0.0
C1554 C 0.5423 0.34539 0.42215 0.0
C1555 C 0.54161 0.31766 0.44021 0.0
H1556 H 0.73217 -0.00139 0.45997 0.0
H1557 H 0.69205 0.98189 0.45578 0.0
H1558 H 0.73432 0.95016 0.4281 0.0
H1559 H 0.69418 0.9332 0.42448 0.0
H1560 H 0.70615 0.7846 0.3858 0.0
H1561 H 0.7051 0.83735 0.41646 0.0
H1562 H 0.72585 0.96737 0.38906 0.0
H1563 H 0.72669 0.9145 0.35799 0.0
C1564 C 0.72386 0.9846 0.45225 0.0
C1565 C 0.71195 0.99434 0.46027 0.0
C1566 C 0.72507 0.95731 0.43402 0.0
C1567 C 0.7144 0.93814 0.42383 0.0
C1568 C 0.70255 0.94756 0.43199 0.0
C1569 C 0.70134 0.97565 0.44987 0.0
C1570 C 0.71048 0.82445 0.3863 0.0
C1571 C 0.71648 0.84552 0.36952 0.0
C1572 C 0.70986 0.85463 0.40382 0.0
C1573 C 0.71545 0.90627 0.40516 0.0
C1574 C 0.72155 0.92745 0.38845 0.0
C1575 C 0.72192 0.89757 0.37068 0.0
H1576 H 0.55269 0.90998 0.85272 0.0
H1577 H 0.53626 0.04493 0.8844 0.0
H1578 H 0.5562 0.86219 0.88407 0.0
H1579 H 0.53923 0.9966 0.91547 0.0
H1580 H 0.55033 0.91116 0.9713 0.0
H1581 H 0.55309 0.96115 0.9403 0.0
H1582 H 0.54317 0.81641 0.9073 0.0
H1583 H 0.54097 0.76635 0.93811 0.0
C1584 C 0.54997 0.92978 0.86636 0.0
C1585 C 0.54402 0.98098 0.86598 0.0
C1586 C 0.55187 0.90216 0.88435 0.0
C1587 C 0.54788 0.92517 0.90238 0.0
C1588 C 0.54253 0.97761 0.902 0.0
C1589 C 0.54065 0.00511 0.88408 0.0
C1590 C 0.54904 0.88977 0.95742 0.0
C1591 C 0.54525 0.83494 0.95722 0.0
C1592 C 0.55049 0.91854 0.93962 0.0
C1593 C 0.5482 0.89311 0.92122 0.0
C1594 C 0.5451 0.83744 0.92109 0.0
C1595 C 0.54367 0.8088 0.93882 0.0
H1596 H 0.69363 0.53961 0.94733 0.0
H1597 H 0.72734 0.45732 0.96694 0.0
H1598 H 0.6947 0.49216 0.91571 0.0
H1599 H 0.72843 0.40999 0.93529 0.0
H1600 H 0.72028 0.29267 0.88518 0.0
H1601 H 0.71808 0.3403 0.91654 0.0
H1602 H 0.7064 0.48569 0.8852 0.0
H1603 H 0.70854 0.43732 0.85364 0.0
C1604 C 0.70135 0.51181 0.94489 0.0
C1605 C 0.71041 0.50249 0.95983 0.0
C1606 C 0.70196 0.48453 0.92667 0.0
C1607 C 0.71163 0.44701 0.92285 0.0
C1608 C 0.7207 0.4378 0.93777 0.0
C1609 C 0.72009 0.46505 0.95599 0.0
C1610 C 0.71726 0.33483 0.88494 0.0
C1611 C 0.71472 0.36129 0.86684 0.0
C1612 C 0.71603 0.36229 0.90297 0.0
C1613 C 0.71225 0.41723 0.9035 0.0
C1614 C 0.70928 0.44331 0.88542 0.0
C1615 C 0.71048 0.41562 0.8673 0.0
H1616 H 0.45702 0.65624 0.60727 0.0
H1617 H 0.46622 0.80452 0.63847 0.0
H1618 H 0.45501 0.60858 0.63894 0.0
H1619 H 0.46465 0.75692 0.66994 0.0
H1620 H 0.45519 0.667 0.72574 0.0
H1621 H 0.45158 0.71197 0.69382 0.0
H1622 H 0.46948 0.57703 0.66407 0.0
H1623 H 0.47265 0.53166 0.69575 0.0
C1624 C 0.45844 0.67886 0.62087 0.0
C1625 C 0.46194 0.73404 0.6203 0.0
C1626 C 0.45741 0.65145 0.63904 0.0
C1627 C 0.45978 0.67869 0.65707 0.0
C1628 C 0.46265 0.73457 0.65645 0.0
C1629 C 0.46371 0.7618 0.63834 0.0
C1630 C 0.4581 0.6465 0.71234 0.0
C1631 C 0.46435 0.59602 0.71335 0.0
C1632 C 0.45615 0.67248 0.69403 0.0
C1633 C 0.46034 0.64844 0.6763 0.0
C1634 C 0.46603 0.59672 0.67731 0.0
C1635 C 0.468 0.57094 0.69556 0.0
H1636 H 0.26706 0.09951 0.62093 0.0
H1637 H 0.30731 0.1006 0.61682 0.0
H1638 H 0.26828 0.1498 0.65207 0.0
H1639 H 0.3086 0.15072 0.64848 0.0
H1640 H 0.30091 0.17613 0.71879 0.0
H1641 H 0.3022 0.13088 0.68651 0.0
H1642 H 0.2758 0.24663 0.66214 0.0
H1643 H 0.27481 0.29306 0.6938 0.0
C1644 C 0.27619 0.11046 0.62675 0.0
C1645 C 0.2871 0.09603 0.61647 0.0
C1646 C 0.27689 0.13949 0.64454 0.0
C1647 C 0.28853 0.15418 0.65276 0.0
C1648 C 0.2995 0.1397 0.64255 0.0
C1649 C 0.29877 0.11147 0.62441 0.0
C1650 C 0.29553 0.19266 0.70653 0.0
C1651 C 0.28755 0.23796 0.70926 0.0
C1652 C 0.29628 0.16659 0.688 0.0
C1653 C 0.28898 0.18482 0.67185 0.0
C1654 C 0.28138 0.23107 0.67437 0.0
C1655 C 0.28077 0.25748 0.69269 0.0
H1656 H 0.47141 0.01283 0.19482 0.0
H1657 H 0.4564 0.15445 0.22435 0.0
H1658 H 0.46948 0.05933 0.16301 0.0
H1659 H 0.45415 0.20063 0.19242 0.0
H1660 H 0.47056 0.28696 0.13706 0.0
H1661 H 0.46855 0.23967 0.16858 0.0
H1662 H 0.45513 0.09658 0.13786 0.0
H1663 H 0.45742 0.14406 0.10612 0.0
C1664 C 0.46759 0.05376 0.19451 0.0
C1665 C 0.46418 0.08 0.21221 0.0
C1666 C 0.46635 0.08025 0.17621 0.0
C1667 C 0.4617 0.1339 0.17509 0.0
C1668 C 0.45789 0.15953 0.19273 0.0
C1669 C 0.45907 0.13285 0.21105 0.0
C1670 C 0.46711 0.24551 0.13703 0.0
C1671 C 0.46427 0.21912 0.11905 0.0
C1672 C 0.46583 0.2185 0.15514 0.0
C1673 C 0.46172 0.16413 0.15583 0.0
C1674 C 0.45845 0.13826 0.13788 0.0
C1675 C 0.45964 0.16557 0.1197 0.0
H1676 H 0.26837 0.67821 0.21549 0.0
H1677 H 0.30267 0.76212 0.20277 0.0
H1678 H 0.26943 0.63094 0.18384 0.0
H1679 H 0.30353 0.71759 0.17021 0.0
H1680 H 0.30564 0.59657 0.11763 0.0
H1681 H 0.30642 0.64056 0.15027 0.0
H1682 H 0.26593 0.64559 0.15084 0.0
H1683 H 0.26535 0.59921 0.11906 0.0
C1684 C 0.27616 0.68633 0.20577 0.0
C1685 C 0.28543 0.72361 0.21148 0.0
C1686 C 0.27672 0.65988 0.18745 0.0
C1687 C 0.28641 0.67109 0.17398 0.0
C1688 C 0.29594 0.70739 0.18007 0.0
C1689 C 0.29549 0.73306 0.19869 0.0
C1690 C 0.29697 0.60749 0.12483 0.0
C1691 C 0.28544 0.59397 0.11596 0.0
C1692 C 0.29737 0.63281 0.14354 0.0
C1693 C 0.28623 0.64603 0.15363 0.0
C1694 C 0.27474 0.63448 0.14412 0.0
C1695 C 0.27436 0.6083 0.12573 0.0
H1696 H 0.10176 0.23164 0.05434 0.0
H1697 H 0.09411 0.15167 0.9985 0.0
H1698 H 0.12221 0.189 0.05562 0.0
H1699 H 0.11418 0.10517 1.00067 0.0
H1700 H 0.15699 0.07655 1.0003 0.0
H1701 H 0.13576 0.11359 0.99786 0.0
H1702 H 0.13293 0.10892 0.06174 0.0
H1703 H 0.1544 0.07502 0.06393 0.0
C1704 C 0.10439 0.20506 0.04226 0.0
C1705 C 0.09612 0.19563 0.02628 0.0
C1706 C 0.11612 0.17944 0.04322 0.0
C1707 C 0.11995 0.14269 0.02839 0.0
C1708 C 0.11171 0.13336 1.01235 0.0
C1709 C 0.10003 0.15964 1.01125 0.0
C1710 C 0.15167 0.08243 1.01373 0.0
C1711 C 0.15726 0.07257 0.03228 0.0
C1712 C 0.13948 0.10378 1.01239 0.0
C1713 C 0.13254 0.11525 0.02961 0.0
C1714 C 0.138 0.10232 0.04813 0.0
C1715 C 0.15025 0.08195 0.04944 0.0
H1716 H 0.09331 0.15496 0.32169 0.0
H1717 H 0.10158 0.06336 0.26864 0.0
H1718 H 0.11389 0.19685 0.32029 0.0
H1719 H 0.12241 0.10152 0.26825 0.0
H1720 H 0.15405 0.2177 0.25857 0.0
H1721 H 0.13296 0.1812 0.26071 0.0
H1722 H 0.13559 0.18503 0.32468 0.0
H1723 H 0.15656 0.22424 0.32231 0.0
C1724 C 0.09949 0.14341 0.30977 0.0
C1725 C 0.09562 0.10573 0.29522 0.0
C1726 C 0.11142 0.16698 0.30914 0.0
C1727 C 0.11989 0.15314 0.29406 0.0
C1728 C 0.11613 0.11438 0.27985 0.0
C1729 C 0.10417 0.09147 0.28032 0.0
C1730 C 0.15007 0.21096 0.27307 0.0
C1731 C 0.15695 0.2235 0.29027 0.0
C1732 C 0.13799 0.18955 0.27435 0.0
C1733 C 0.13254 0.17909 0.29289 0.0
C1734 C 0.13937 0.19286 0.31013 0.0
C1735 C 0.15141 0.2152 0.30882 0.0
H1736 H 0.85151 0.97589 1.00563 0.0
H1737 H 0.84731 0.97791 0.06911 0.0
H1738 H 0.8726 0.93915 1.00944 0.0
H1739 H 0.86823 0.93883 0.07308 0.0
H1740 H 0.9104 0.90875 0.07462 0.0
H1741 H 0.88987 0.95074 0.07118 0.0
H1742 H 0.8835 0.85995 1.01719 0.0
H1743 H 0.90438 0.82157 0.01973 0.0
C1744 C 0.85511 0.96823 0.02043 0.0
C1745 C 0.84773 0.97973 0.03706 0.0
C1746 C 0.86719 0.94666 0.02265 0.0
C1747 C 0.8722 0.93506 0.04159 0.0
C1748 C 0.86486 0.94765 0.05825 0.0
C1749 C 0.85282 0.97003 0.05601 0.0
C1750 C 0.90473 0.89819 0.06184 0.0
C1751 C 0.90924 0.86169 0.04741 0.0
C1752 C 0.89279 0.92183 0.06001 0.0
C1753 C 0.88491 0.90928 0.04382 0.0
C1754 C 0.88931 0.8718 0.02967 0.0
C1755 C 0.90129 0.84875 0.03135 0.0
H1756 H 0.91639 0.87807 0.78116 0.0
H1757 H 0.90249 0.04181 0.77227 0.0
H1758 H 0.89504 0.8434 0.78011 0.0
H1759 H 0.88112 0.00719 0.7707 0.0
H1760 H 0.84407 0.93742 0.79126 0.0
H1761 H 0.8655 0.9706 0.79138 0.0
H1762 H 0.87725 0.82634 0.75968 0.0
H1763 H 0.85575 0.79258 0.76005 0.0
C1764 C 0.90877 0.90658 0.77867 0.0
C1765 C 0.91114 0.96272 0.77683 0.0
C1766 C 0.89651 0.88668 0.77802 0.0
C1767 C 0.88629 0.92239 0.77539 0.0
C1768 C 0.88871 0.9785 0.77317 0.0
C1769 C 0.90096 -0.00157 0.77399 0.0
C1770 C 0.85122 0.91291 0.78422 0.0
C1771 C 0.8482 0.86247 0.77557 0.0
C1772 C 0.86353 0.93205 0.78421 0.0
C1773 C 0.87316 0.90148 0.7754 0.0
C1774 C 0.87014 0.85076 0.76683 0.0
C1775 C 0.8578 0.83137 0.76699 0.0
H1776 H 0.09936 0.72495 0.5556 0.0
H1777 H 0.09355 0.66023 0.4967 0.0
H1778 H 0.11979 0.68195 0.55706 0.0
H1779 H 0.11363 0.61348 0.49882 0.0
H1780 H 0.15652 0.58793 0.50071 0.0
H1781 H 0.1353 0.62496 0.49807 0.0
H1782 H 0.1304 0.59987 0.56097 0.0
H1783 H 0.15187 0.56573 0.5635 0.0
C1784 C 0.1024 0.70169 0.54289 0.0
C1785 C 0.09468 0.69666 0.52598 0.0
C1786 C 0.1141 0.67587 0.5439 0.0
C1787 C 0.11844 0.64342 0.52816 0.0
C1788 C 0.11074 0.63836 0.51122 0.0
C1789 C 0.09908 0.66477 0.5101 0.0
C1790 C 0.15075 0.58935 0.51383 0.0
C1791 C 0.15572 0.57348 0.53226 0.0
C1792 C 0.13857 0.61062 0.51237 0.0
C1793 C 0.13104 0.61618 0.52934 0.0
C1794 C 0.13593 0.59765 0.54763 0.0
C1795 C 0.14817 0.57719 0.5491 0.0
H1796 H 0.16398 0.65392 0.81146 0.0
H1797 H 0.15022 0.79811 0.78175 0.0
H1798 H 0.14274 0.61855 0.81333 0.0
H1799 H 0.12893 0.76198 0.7828 0.0
H1800 H 0.09042 0.69905 0.79886 0.0
H1801 H 0.11122 0.73865 0.80159 0.0
H1802 H 0.12766 0.57937 0.79259 0.0
H1803 H 0.10694 0.53935 0.7913 0.0
C1804 C 0.15636 0.67809 0.80536 0.0
C1805 C 0.15875 0.72866 0.7964 0.0
C1806 C 0.14418 0.65764 0.80627 0.0
C1807 C 0.13405 0.68683 0.79794 0.0
C1808 C 0.13642 0.73843 0.78956 0.0
C1809 C 0.14863 0.75924 0.78891 0.0
C1810 C 0.09846 0.67222 0.79785 0.0
C1811 C 0.0969 0.61579 0.79486 0.0
C1812 C 0.11044 0.69517 0.79912 0.0
C1813 C 0.12122 0.66245 0.79729 0.0
C1814 C 0.11964 0.606 0.79439 0.0
C1815 C 0.10769 0.58301 0.79331 0.0
H1816 H 0.84053 0.37937 0.5412 0.0
H1817 H 0.85371 0.5434 0.55086 0.0
H1818 H 0.86193 0.34539 0.54303 0.0
H1819 H 0.87519 0.5094 0.55342 0.0
H1820 H 0.9134 0.43826 0.53719 0.0
H1821 H 0.89207 0.47347 0.53569 0.0
H1822 H 0.87885 0.32671 0.5641 0.0
H1823 H 0.90019 0.29097 0.56491 0.0
C1824 C 0.84802 0.40815 0.54398 0.0
C1825 C 0.84539 0.46411 0.54595 0.0
C1826 C 0.86033 0.38861 0.54513 0.0
C1827 C 0.87042 0.42437 0.54851 0.0
C1828 C 0.86776 0.4805 0.5505 0.0
C1829 C 0.85542 0.50012 0.5491 0.0
C1830 C 0.90594 0.4137 0.54325 0.0
C1831 C 0.90852 0.36174 0.55116 0.0
C1832 C 0.89367 0.43399 0.54246 0.0
C1833 C 0.8836 0.40315 0.54975 0.0
C1834 C 0.88625 0.3514 0.55794 0.0
C1835 C 0.89852 0.33085 0.5585 0.0
H1836 H 0.91198 0.4143 0.24911 0.0
H1837 H 0.90251 0.49738 0.3035 0.0
H1838 H 0.89074 0.37843 0.24698 0.0
H1839 H 0.88121 0.46297 0.30086 0.0
H1840 H 0.84098 0.43398 0.27851 0.0
H1841 H 0.86211 0.47196 0.27876 0.0
H1842 H 0.87735 0.31236 0.26647 0.0
H1843 H 0.85618 0.27435 0.26613 0.0
C1844 C 0.90544 0.42489 0.26066 0.0
C1845 C 0.90908 0.45876 0.27654 0.0
C1846 C 0.89323 0.40443 0.25936 0.0
C1847 C 0.8843 0.41785 0.27375 0.0
C1848 C 0.88783 0.45242 0.2894 0.0
C1849 C 0.90007 0.47236 0.29085 0.0
C1850 C 0.84883 0.40711 0.27563 0.0
C1851 C 0.84691 0.35114 0.27229 0.0
C1852 C 0.86093 0.42879 0.27595 0.0
C1853 C 0.8714 0.39514 0.27268 0.0
C1854 C 0.86947 0.33939 0.26891 0.0
C1855 C 0.85736 0.31755 0.26885 0.0
H1856 H 0.59523 0.15644 0.50707 0.0
H1857 H 0.60161 0.24249 0.56213 0.0
H1858 H 0.61514 0.11028 0.51107 0.0
H1859 H 0.62208 0.20084 0.56498 0.0
H1860 H 0.65427 0.08686 0.57632 0.0
H1861 H 0.63315 0.12401 0.57288 0.0
H1862 H 0.63642 0.11571 0.50907 0.0
H1863 H 0.65715 0.07506 0.51285 0.0
C1864 C 0.60084 0.16592 0.52003 0.0
C1865 C 0.59657 0.20339 0.53431 0.0
C1866 C 0.61248 0.1399 0.52215 0.0
C1867 C 0.6204 0.15127 0.53841 0.0
C1868 C 0.61625 0.18965 0.55246 0.0
C1869 C 0.6045 0.21477 0.55056 0.0
C1870 C 0.65031 0.09215 0.56162 0.0
C1871 C 0.65727 0.07767 0.54487 0.0
C1872 C 0.63825 0.11423 0.55956 0.0
C1873 C 0.63295 0.1239 0.54065 0.0
C1874 C 0.63994 0.10831 0.52391 0.0
C1875 C 0.65188 0.08502 0.52602 0.0
H1876 H 0.6655 0.14092 0.78841 0.0
H1877 H 0.65008 0.29465 0.80774 0.0
H1878 H 0.64455 0.10084 0.78845 0.0
H1879 H 0.62908 0.25428 0.80798 0.0
H1880 H 0.59672 0.13799 0.8271 0.0
H1881 H 0.61763 0.17754 0.82745 0.0
H1882 H 0.62401 0.11608 0.76854 0.0
H1883 H 0.60289 0.07875 0.76759 0.0
C1884 C 0.65763 0.16602 0.7928 0.0
C1885 C 0.65943 0.22091 0.79811 0.0
C1886 C 0.64564 0.14317 0.7927 0.0
C1887 C 0.63519 0.1744 0.79823 0.0
C1888 C 0.63699 0.22914 0.80377 0.0
C1889 C 0.64897 0.25233 0.80352 0.0
C1890 C 0.60245 0.13338 0.81405 0.0
C1891 C 0.59794 0.10517 0.79725 0.0
C1892 C 0.61448 0.15594 0.81434 0.0
C1893 C 0.62244 0.15004 0.79801 0.0
C1894 C 0.61812 0.12089 0.78141 0.0
C1895 C 0.60601 0.09913 0.78096 0.0
H1896 H 0.40461 0.85961 0.57613 0.0
H1897 H 0.40891 0.88731 0.5135 0.0
H1898 H 0.38381 0.90127 0.57478 0.0
H1899 H 0.38855 0.93195 0.51216 0.0
H1900 H 0.34668 0.9542 0.51016 0.0
H1901 H 0.36755 0.91668 0.51218 0.0
H1902 H 0.37149 0.97916 0.5718 0.0
H1903 H 0.34997 0.01259 0.57035 0.0
C1904 C 0.40112 0.87514 0.56211 0.0
C1905 C 0.4083 0.86957 0.54487 0.0
C1906 C 0.38922 0.89957 0.56132 0.0
C1907 C 0.3843 0.92008 0.54332 0.0
C1908 C 0.39173 0.91552 0.52621 0.0
C1909 C 0.40348 0.89009 0.52695 0.0
C1910 C 0.35187 0.95943 0.52386 0.0
C1911 C 0.34641 0.98568 0.54023 0.0
C1912 C 0.36405 0.93861 0.5249 0.0
C1913 C 0.37139 0.94444 0.54219 0.0
C1914 C 0.36613 0.97268 0.55834 0.0
C1915 C 0.3538 0.9928 0.5574 0.0
H1916 H 0.34081 0.93256 0.26414 0.0
H1917 H 0.35351 0.78074 0.28982 0.0
H1918 H 0.3623 0.96657 0.26434 0.0
H1919 H 0.37506 0.81467 0.28994 0.0
H1920 H 0.40661 0.92704 0.31355 0.0
H1921 H 0.3858 0.88858 0.30956 0.0
H1922 H 0.38376 0.95149 0.2499 0.0
H1923 H 0.40487 0.98887 0.2536 0.0
C1924 C 0.34824 0.90621 0.26958 0.0
C1925 C 0.34549 0.85409 0.27706 0.0
C1926 C 0.36055 0.92558 0.2696 0.0
C1927 C 0.37036 0.8935 0.27731 0.0
C1928 C 0.36767 0.84056 0.28411 0.0
C1929 C 0.35536 0.82091 0.28386 0.0
C1930 C 0.40186 0.93212 0.29944 0.0
C1931 C 0.40755 0.96066 0.28382 0.0
C1932 C 0.3899 0.91001 0.29718 0.0
C1933 C 0.38319 0.91637 0.27934 0.0
C1934 C 0.3887 0.94597 0.26384 0.0
C1935 C 0.40076 0.96767 0.26602 0.0
H1936 H 0.60607 0.77331 0.03714 0.0
H1937 H 0.59043 0.6117 0.03172 0.0
H1938 H 0.62697 0.73429 0.039 0.0
H1939 H 0.61147 0.57274 0.03245 0.0
H1940 H 0.65096 0.52053 0.05583 0.0
H1941 H 0.62935 0.55446 0.05329 0.0
H1942 H 0.64223 0.6921 0.01912 0.0
H1943 H 0.66364 0.65903 0.02221 0.0
C1944 C 0.60705 0.72942 0.03633 0.0
C1945 C 0.59646 0.69589 0.03427 0.0
C1946 C 0.61912 0.70693 0.03711 0.0
C1947 C 0.62101 0.65017 0.03571 0.0
C1948 C 0.61043 0.61653 0.03372 0.0
C1949 C 0.59833 0.63905 0.03302 0.0
C1950 C 0.64908 0.55768 0.04762 0.0
C1951 C 0.65899 0.58749 0.03946 0.0
C1952 C 0.63671 0.57721 0.04613 0.0
C1953 C 0.63399 0.62672 0.03628 0.0
C1954 C 0.64392 0.65483 0.02734 0.0
C1955 C 0.65622 0.63565 0.02898 0.0
H1956 H 0.65244 0.76028 0.27456 0.0
H1957 H 0.66082 0.65946 0.32555 0.0
H1958 H 0.63128 0.72446 0.27364 0.0
H1959 H 0.64002 0.62031 0.32359 0.0
H1960 H 0.5977 0.59244 0.3253 0.0
H1961 H 0.61858 0.63232 0.32833 0.0
H1962 H 0.62036 0.64631 0.26452 0.0
H1963 H 0.59932 0.60901 0.26178 0.0
C1964 C 0.6498 0.73068 0.28566 0.0
C1965 C 0.65848 0.71263 0.30002 0.0
C1966 C 0.63767 0.70925 0.2849 0.0
C1967 C 0.6339 0.66857 0.29832 0.0
C1968 C 0.64248 0.65165 0.31303 0.0
C1969 C 0.65454 0.67364 0.31396 0.0
C1970 C 0.60265 0.60372 0.31198 0.0
C1971 C 0.59691 0.59789 0.29333 0.0
C1972 C 0.61463 0.62655 0.31366 0.0
C1973 C 0.62121 0.64327 0.29668 0.0
C1974 C 0.61553 0.63554 0.27799 0.0
C1975 C 0.6035 0.61359 0.27637 0.0
H1976 H 0.34714 0.47595 0.07735 0.0
H1977 H 0.3503 0.47808 1.01372 0.0
H1978 H 0.36808 0.43574 0.08007 0.0
H1979 H 0.37133 0.44014 1.01628 0.0
H1980 H 0.40237 0.31778 0.02385 0.0
H1981 H 0.38165 0.35829 0.02294 0.0
H1982 H 0.38989 0.44594 0.07699 0.0
H1983 H 0.41034 0.40212 0.07872 0.0
C1984 C 0.35243 0.46884 0.06397 0.0
C1985 C 0.34704 0.47982 0.04532 0.0
C1986 C 0.36446 0.44576 0.06549 0.0
C1987 C 0.37145 0.43368 0.04838 0.0
C1988 C 0.36618 0.4471 0.0298 0.0
C1989 C 0.35414 0.46942 0.02829 0.0
C1990 C 0.39973 0.34475 0.03582 0.0
C1991 C 0.40819 0.35642 0.05134 0.0
C1992 C 0.38785 0.36899 0.03509 0.0
C1993 C 0.38403 0.40633 0.04972 0.0
C1994 C 0.39239 0.41733 0.06546 0.0
C1995 C 0.40425 0.3926 0.0663 0.0
H1996 H 0.41352 0.40774 0.75386 0.0
H1997 H 0.40409 0.50397 0.80531 0.0
H1998 H 0.39274 0.36725 0.75422 0.0
H1999 H 0.38314 0.46706 0.80466 0.0
H2000 H 0.35047 0.35659 0.81291 0.0
H2001 H 0.37196 0.38892 0.81208 0.0
H2002 H 0.3712 0.38121 0.74806 0.0
H2003 H 0.34977 0.34612 0.74916 0.0
C2004 C 0.40705 0.42053 0.76523 0.0
C2005 C 0.41063 0.45925 0.7796 0.0
C2006 C 0.39502 0.39775 0.76525 0.0
C2007 C 0.38617 0.41337 0.77955 0.0
C2008 C 0.3897 0.45287 0.79365 0.0
C2009 C 0.40173 0.47504 0.79378 0.0
C2010 C 0.35496 0.36143 0.79868 0.0
C2011 C 0.34845 0.3492 0.7811 0.0
C2012 C 0.36726 0.38048 0.79815 0.0
C2013 C 0.37335 0.38887 0.77997 0.0
C2014 C 0.36692 0.375 0.76236 0.0
C2015 C 0.35462 0.35501 0.76293 0.0
H2016 H 0.03907 0.47487 0.04293 0.0
H2017 H 0.00617 0.37427 0.03666 0.0
H2018 H 0.02568 0.55626 0.0437 0.0
H2019 H 0.99298 0.4544 0.03646 0.0
H2020 H 0.97057 0.60273 0.05409 0.0
H2021 H 0.98438 0.52331 0.05557 0.0
H2022 H 0.01281 0.61314 0.02418 0.0
H2023 H 0.99921 0.69288 0.02363 0.0
C2024 C 0.02902 0.47017 0.04166 0.0
C2025 C 0.02372 0.4181 0.03988 0.0
C2026 C 0.02131 0.51677 0.04196 0.0
C2027 C 0.00815 0.51224 0.04023 0.0
C2028 C 0.00297 0.45991 0.03834 0.0
C2029 C 0.01061 0.41369 0.0383 0.0
C2030 C 0.97974 0.60524 0.04743 0.0
C2031 C 0.98377 0.65394 0.03869 0.0
C2032 C 0.9877 0.55968 0.04822 0.0
C2033 C 0.9998 0.56143 0.03998 0.0
C2034 C 0.00371 0.61024 0.03105 0.0
C2035 C 0.99584 0.65591 0.03053 0.0
H2036 H 0.28209 0.72604 0.03389 0.0
H2037 H 0.25225 0.60962 0.04129 0.0
H2038 H 0.26667 0.80061 0.0348 0.0
H2039 H 0.237 0.68348 0.04232 0.0
H2040 H 0.21577 0.83701 0.06506 0.0
H2041 H 0.23095 0.76198 0.06421 0.0
H2042 H 0.24861 0.83481 1.01344 0.0
H2043 H 0.23349 0.90922 1.0141 0.0
C2044 C 0.27228 0.71638 0.03575 0.0
C2045 C 0.26842 0.66189 0.0374 0.0
C2046 C 0.26344 0.75897 0.03619 0.0
C2047 C 0.25059 0.74794 0.03864 0.0
C2048 C 0.24681 0.69348 0.04059 0.0
C2049 C 0.25558 0.6511 0.03985 0.0
C2050 C 0.22276 0.83663 0.05354 0.0
C2051 C 0.22332 0.87927 0.03964 0.0
C2052 C 0.2315 0.79371 0.05309 0.0
C2053 C 0.24109 0.79277 0.03889 0.0
C2054 C 0.24148 0.83475 0.02477 0.0
C2055 C 0.23268 0.87715 0.02504 0.0
H2056 H 0.03588 0.84865 0.3018 0.0
H2057 H 0.00843 0.92371 0.26315 0.0
H2058 H 0.02203 0.77073 0.30631 0.0
H2059 H 0.99481 0.84511 0.2668 0.0
H2060 H 0.96765 0.72086 0.29156 0.0
H2061 H 0.98135 0.80048 0.28908 0.0
H2062 H 0.01376 0.69426 0.29054 0.0
H2063 H 1.00025 0.61619 0.29397 0.0
C2064 C 0.02701 0.84782 0.29392 0.0
C2065 C 0.02325 0.89198 0.28208 0.0
C2066 C 0.01903 0.80326 0.2965 0.0
C2067 C 0.0072 0.80158 0.28701 0.0
C2068 C 0.00367 0.84538 0.27473 0.0
C2069 C 0.01155 0.89016 0.27242 0.0
C2070 C 0.9777 0.71489 0.29158 0.0
C2071 C 0.98284 0.66232 0.29305 0.0
C2072 C 0.98558 0.76036 0.28997 0.0
C2073 C 0.99872 0.75396 0.28957 0.0
C2074 C 0.00375 0.7012 0.2912 0.0
C2075 C 0.99594 0.65618 0.29304 0.0
H2076 H 0.21671 0.47728 0.29917 0.0
H2077 H 0.2436 0.40485 0.25964 0.0
H2078 H 0.23067 0.55494 0.30422 0.0
H2079 H 0.25729 0.48303 0.26387 0.0
H2080 H 0.28515 0.60203 0.28994 0.0
H2081 H 0.27106 0.52392 0.28692 0.0
H2082 H 0.23916 0.63273 0.28945 0.0
H2083 H 0.25311 0.70951 0.29337 0.0
C2084 C 0.22546 0.47873 0.29118 0.0
C2085 C 0.22906 0.4353 0.27898 0.0
C2086 C 0.2335 0.52309 0.29409 0.0
C2087 C 0.24523 0.52515 0.28462 0.0
C2088 C 0.24854 0.48235 0.27184 0.0
C2089 C 0.2406 0.43783 0.26919 0.0
C2090 C 0.27513 0.60892 0.29011 0.0
C2091 C 0.27027 0.66187 0.29193 0.0
C2092 C 0.26703 0.56432 0.28818 0.0
C2093 C 0.25391 0.5719 0.2878 0.0
C2094 C 0.24915 0.62494 0.28998 0.0
C2095 C 0.2572 0.66918 0.29213 0.0
H2096 H 0.78245 0.22512 0.03052 0.0
H2097 H 0.75307 0.10759 0.03995 0.0
H2098 H 0.76713 0.29933 0.03427 0.0
H2099 H 0.73793 0.18124 0.04387 0.0
H2100 H 0.71845 0.33378 0.07189 0.0
H2101 H 0.73335 0.25842 0.06796 0.0
H2102 H 0.74788 0.33453 1.01534 0.0
H2103 H 0.73301 0.40916 0.01902 0.0
C2104 C 0.77276 0.21514 0.03343 0.0
C2105 C 0.76899 0.16047 0.03483 0.0
C2106 C 0.76398 0.25754 0.0355 0.0
C2107 C 0.75131 0.24611 0.03938 0.0
C2108 C 0.74762 0.19145 0.04105 0.0
C2109 C 0.75631 0.14924 0.03866 0.0
C2110 C 0.72468 0.33404 0.05932 0.0
C2111 C 0.72444 0.3776 0.04576 0.0
C2112 C 0.73325 0.29094 0.0571 0.0
C2113 C 0.7419 0.29085 0.04145 0.0
C2114 C 0.74148 0.33378 0.0277 0.0
C2115 C 0.73282 0.37631 0.02973 0.0
H2116 H 0.97111 0.22026 0.79011 0.0
H2117 H 0.00304 0.11249 0.79565 0.0
H2118 H 0.98527 0.29804 0.78744 0.0
H2119 H 0.01709 0.18912 0.79214 0.0
H2120 H 0.03906 0.34694 0.80311 0.0
H2121 H 0.02533 0.26805 0.80727 0.0
H2122 H 0.99929 0.33711 0.76463 0.0
H2123 H 0.01273 0.41624 0.76124 0.0
C2124 C 0.98113 0.21323 0.79077 0.0
C2125 C 0.98594 0.16034 0.79309 0.0
C2126 C 0.98927 0.25764 0.78907 0.0
C2127 C 1.00237 0.24989 0.78941 0.0
C2128 C 0.0071 0.19692 0.79208 0.0
C2129 C 0.999 0.15282 0.79399 0.0
C2130 C 0.03051 0.34448 0.79442 0.0
C2131 C 0.02693 0.38742 0.78187 0.0
C2132 C 0.0226 0.2995 0.79682 0.0
C2133 C 0.01107 0.29652 0.7865 0.0
C2134 C 0.00788 0.33862 0.77326 0.0
C2135 C 0.01566 0.38366 0.7711 0.0
H2136 H 0.7499 0.38584 0.78696 0.0
H2137 H 0.71773 0.49209 0.78103 0.0
H2138 H 0.76366 0.46363 0.78744 0.0
H2139 H 0.73173 0.57115 0.78061 0.0
H2140 H 0.75897 0.70129 0.80199 0.0
H2141 H 0.74502 0.62323 0.80133 0.0
H2142 H 0.77253 0.53223 0.76809 0.0
H2143 H 0.78673 0.61016 0.76961 0.0
C2144 C 0.74575 0.42602 0.78547 0.0
C2145 C 0.73269 0.43282 0.7839 0.0
C2146 C 0.75371 0.4708 0.7856 0.0
C2147 C 0.74889 0.52387 0.78393 0.0
C2148 C 0.73579 0.53085 0.78219 0.0
C2149 C 0.72775 0.48568 0.7823 0.0
C2150 C 0.76208 0.66433 0.7947 0.0
C2151 C 0.77396 0.66152 0.78595 0.0
C2152 C 0.75401 0.61977 0.79412 0.0
C2153 C 0.75754 0.57141 0.78451 0.0
C2154 C 0.76953 0.56851 0.77588 0.0
C2155 C 0.7777 0.61303 0.77674 0.0
H2156 H 0.99681 0.18787 0.5207 0.0
H2157 H 0.96869 0.10081 0.55348 0.0
H2158 H 0.01019 0.10753 0.52098 0.0
H2159 H 0.98233 0.02065 0.55463 0.0
H2160 H 0.00409 0.86999 0.53637 0.0
H2161 H 0.99071 0.94984 0.53586 0.0
H2162 H 0.02332 0.05315 0.54093 0.0
H2163 H 0.03683 0.97231 0.54049 0.0
C2164 C 0.9935 0.1514 0.52802 0.0
C2165 C 0.98167 0.15053 0.53699 0.0
C2166 C 1.00125 0.1054 0.52838 0.0
C2167 C 0.99747 0.05737 0.53797 0.0
C2168 C 0.98554 0.05648 0.54683 0.0
C2169 C 0.97769 0.10243 0.54622 0.0
C2170 C 0.00844 0.90972 0.53745 0.0
C2171 C 0.02155 0.91479 0.5385 0.0
C2172 C 1.00072 0.95572 0.53729 0.0
C2173 C 0.00584 0.00833 0.53844 0.0
C2174 C 0.01899 0.01342 0.53971 0.0
C2175 C 0.02677 0.96713 0.5396 0.0
H2176 H 0.28102 0.2302 0.534 0.0
H2177 H 0.25198 0.11429 0.54761 0.0
H2178 H 0.26546 0.30432 0.53518 0.0
H2179 H 0.23662 0.18756 0.54883 0.0
H2180 H 0.21552 0.34304 0.56911 0.0
H2181 H 0.2311 0.26961 0.56902 0.0
H2182 H 0.24649 0.33277 0.51477 0.0
H2183 H 0.23099 0.40564 0.51469 0.0
C2184 C 0.27137 0.22064 0.53737 0.0
C2185 C 0.26773 0.16643 0.54059 0.0
C2186 C 0.26245 0.26289 0.53794 0.0
C2187 C 0.24979 0.25173 0.54206 0.0
C2188 C 0.24628 0.19764 0.54577 0.0
C2189 C 0.2551 0.1556 0.54493 0.0
C2190 C 0.2221 0.34082 0.55701 0.0
C2191 C 0.22192 0.38032 0.5419 0.0
C2192 C 0.23107 0.29888 0.557 0.0
C2193 C 0.24015 0.29582 0.54202 0.0
C2194 C 0.23979 0.33455 0.52671 0.0
C2195 C 0.23076 0.37599 0.52658 0.0
H2196 H 0.25926 0.1885 0.80917 0.0
H2197 H 0.28632 0.11088 0.77126 0.0
H2198 H 0.24528 0.11097 0.80528 0.0
H2199 H 0.27211 0.03431 0.76641 0.0
H2200 H 0.24984 0.8815 0.77771 0.0
H2201 H 0.26359 0.95857 0.78154 0.0
H2202 H 0.23152 0.06661 0.78328 0.0
H2203 H 0.21756 0.98781 0.78048 0.0
C2204 C 0.26222 0.1546 0.80002 0.0
C2205 C 0.27392 0.15534 0.79068 0.0
C2206 C 0.25412 0.11044 0.79756 0.0
C2207 C 0.25745 0.06627 0.78539 0.0
C2208 C 0.26926 0.067 0.77618 0.0
C2209 C 0.27745 0.11083 0.77894 0.0
C2210 C 0.24565 0.92168 0.77875 0.0
C2211 C 0.23256 0.9285 0.77872 0.0
C2212 C 0.25361 0.96618 0.78084 0.0
C2213 C 0.24876 0.0192 0.78266 0.0
C2214 C 0.23563 0.02631 0.78224 0.0
C2215 C 0.2276 0.98131 0.78043 0.0
H2216 H 0.71477 0.82526 0.5037 0.0
H2217 H 0.7327 0.89408 0.55554 0.0
H2218 H 0.73 0.7511 0.50381 0.0
H2219 H 0.74775 0.8193 0.55587 0.0
H2220 H 0.78098 0.71087 0.5372 0.0
H2221 H 0.76562 0.78548 0.53705 0.0
H2222 H 0.73636 0.6712 0.522 0.0
H2223 H 0.7516 0.59757 0.52178 0.0
C2224 C 0.7218 0.82415 0.51534 0.0
C2225 C 0.72239 0.86572 0.52967 0.0
C2226 C 0.73057 0.78153 0.51541 0.0
C2227 C 0.7402 0.77929 0.52978 0.0
C2228 C 0.74061 0.82013 0.54438 0.0
C2229 C 0.73183 0.8627 0.54434 0.0
C2230 C 0.77128 0.70192 0.53371 0.0
C2231 C 0.76755 0.64828 0.52946 0.0
C2232 C 0.76245 0.74454 0.53379 0.0
C2233 C 0.74971 0.73443 0.52954 0.0
C2234 C 0.74607 0.68079 0.52509 0.0
C2235 C 0.75485 0.63841 0.52506 0.0
H2236 H 0.78715 0.08825 0.27174 0.0
H2237 H 0.76012 0.177 0.30646 0.0
H2238 H 0.77309 0.00974 0.27084 0.0
H2239 H 0.74632 0.09848 0.30628 0.0
H2240 H 0.71866 0.96929 0.28567 0.0
H2241 H 0.73269 0.04812 0.28518 0.0
H2242 H 0.76463 0.94012 0.2907 0.0
H2243 H 0.75079 0.86239 0.29037 0.0
C2244 C 0.77832 0.09047 0.2795 0.0
C2245 C 0.77472 0.1385 0.28916 0.0
C2246 C 0.77024 0.04565 0.27898 0.0
C2247 C 0.75848 0.04792 0.28835 0.0
C2248 C 0.75512 0.09565 0.29849 0.0
C2249 C 0.76311 0.14046 0.29879 0.0
C2250 C 0.72868 0.96269 0.28666 0.0
C2251 C 0.7336 0.90974 0.28797 0.0
C2252 C 0.73673 0.00771 0.2865 0.0
C2253 C 0.74983 0.00049 0.28787 0.0
C2254 C 0.75465 0.94736 0.28921 0.0
C2255 C 0.74666 0.90267 0.28916 0.0
H2256 H 0.50837 0.38269 0.55587 0.0
H2257 H 0.5365 0.47661 0.52564 0.0
H2258 H 0.49444 0.46098 0.556 0.0
H2259 H 0.52231 0.55532 0.52512 0.0
H2260 H 0.49906 0.69955 0.54571 0.0
H2261 H 0.51298 0.62158 0.54584 0.0
H2262 H 0.48145 0.51523 0.53505 0.0
H2263 H 0.4673 0.59423 0.53561 0.0
C2264 C 0.51157 0.42027 0.54919 0.0
C2265 C 0.52354 0.42363 0.54075 0.0
C2266 C 0.50351 0.46506 0.5491 0.0
C2267 C 0.50714 0.51443 0.54039 0.0
C2268 C 0.51922 0.51808 0.53216 0.0
C2269 C 0.52738 0.47314 0.53244 0.0
C2270 C 0.49504 0.65955 0.54334 0.0
C2271 C 0.48205 0.65303 0.5406 0.0
C2272 C 0.50309 0.61477 0.54327 0.0
C2273 C 0.49841 0.56202 0.54028 0.0
C2274 C 0.48537 0.55528 0.53761 0.0
C2275 C 0.47725 0.6004 0.53787 0.0
H2276 H 0.53715 0.84749 0.78559 0.0
H2277 H 0.50522 0.95605 0.78371 0.0
H2278 H 0.52301 0.76968 0.78858 0.0
H2279 H 0.49123 0.87939 0.78754 0.0
H2280 H 0.46861 0.72368 0.77675 0.0
H2281 H 0.48237 0.80223 0.77238 0.0
H2282 H 0.50965 0.72815 0.81182 0.0
H2283 H 0.49614 0.64925 0.81542 0.0
C2284 C 0.52714 0.8547 0.78577 0.0
C2285 C 0.52233 0.90787 0.78439 0.0
C2286 C 0.51901 0.81024 0.78768 0.0
C2287 C 0.50592 0.81814 0.78847 0.0
C2288 C 0.50119 0.87141 0.78672 0.0
C2289 C 0.50927 0.91556 0.78462 0.0
C2290 C 0.47745 0.72489 0.78473 0.0
C2291 C 0.48131 0.68058 0.79644 0.0
C2292 C 0.48538 0.76974 0.7822 0.0
C2293 C 0.49725 0.77136 0.79153 0.0
C2294 C 0.50078 0.72782 0.80394 0.0
C2295 C 0.49295 0.68288 0.80624 0.0
H2296 H 0.53585 0.34716 0.29995 0.0
H2297 H 0.50734 0.4334 0.26666 0.0
H2298 H 0.52187 0.26897 0.30292 0.0
H2299 H 0.49358 0.35493 0.26882 0.0
H2300 H 0.46695 0.22587 0.29287 0.0
H2301 H 0.48079 0.30516 0.29078 0.0
H2302 H 0.51271 0.19749 0.28505 0.0
H2303 H 0.49908 0.11947 0.28797 0.0
C2304 C 0.52669 0.34893 0.29295 0.0
C2305 C 0.5227 0.39622 0.28306 0.0
C2306 C 0.51865 0.30418 0.29463 0.0
C2307 C 0.50651 0.30556 0.28619 0.0
C2308 C 0.5027 0.35265 0.2759 0.0
C2309 C 0.51066 0.39748 0.27447 0.0
C2310 C 0.47693 0.21947 0.29124 0.0
C2311 C 0.48191 0.16652 0.29075 0.0
C2312 C 0.48488 0.26478 0.28993 0.0
C2313 C 0.49794 0.25787 0.28784 0.0
C2314 C 0.5028 0.20468 0.28712 0.0
C2315 C 0.49492 0.15977 0.28867 0.0
H2316 H 0.49733 0.18805 0.02049 0.0
H2317 H 0.46847 0.09167 0.04783 0.0
H2318 H 0.51126 0.10945 0.02032 0.0
H2319 H 0.48257 0.01296 0.04832 0.0
H2320 H 0.50594 0.86938 0.02873 0.0
H2321 H 0.49228 0.94811 0.02772 0.0
H2322 H 0.52374 0.05248 0.0413 0.0
H2323 H 0.53766 0.97261 0.04162 0.0
C2324 C 0.49395 0.14988 0.02646 0.0
C2325 C 0.48177 0.14594 0.0341 0.0
C2326 C 0.50201 0.1049 0.02655 0.0
C2327 C 0.49814 0.05477 0.03444 0.0
C2328 C 0.48585 0.05068 0.04187 0.0
C2329 C 0.47773 0.09572 0.0416 0.0
C2330 C 0.51001 0.90908 0.03153 0.0
C2331 C 0.52291 0.91471 0.03538 0.0
C2332 C 0.5021 0.95436 0.03108 0.0
C2333 C 0.5068 0.00681 0.03466 0.0
C2334 C 0.51978 0.01272 0.0383 0.0
C2335 C 0.52777 0.96707 0.03856 0.0
H2336 H 0.97554 0.96074 1.00046 0.0
H2337 H 0.97652 0.94811 0.06413 0.0
H2338 H 0.99397 0.01891 1.00142 0.0
H2339 H 0.99451 0.00892 0.06546 0.0
H2340 H 0.034 0.07069 0.06216 0.0
H2341 H 0.01611 0.00904 0.05921 0.0
H2342 H 1.00221 0.10275 1.00929 0.0
H2343 H 0.02037 0.16065 1.01135 0.0
C2344 C 0.97942 0.97238 1.01469 0.0
C2345 C 0.9746 0.95065 0.03221 0.0
C2346 C 0.99005 0.00541 1.01532 0.0
C2347 C 0.99591 0.0181 0.03354 0.0
C2348 C 0.99053 -0.00123 0.05113 0.0
C2349 C 0.98007 0.9649 0.05044 0.0
C2350 C 0.02727 0.07698 0.05028 0.0
C2351 C 0.02849 0.121 0.03718 0.0
C2352 C 0.01689 0.04235 0.04877 0.0
C2353 C 0.00752 0.0515 0.03424 0.0
C2354 C 0.00918 0.09398 0.0206 0.0
C2355 C 0.01957 0.12777 0.02193 0.0
H2356 H 0.22823 0.21289 0.04863 0.0
H2357 H 0.25331 0.11243 1.01434 0.0
H2358 H 0.24474 0.28102 0.05264 0.0
H2359 H 0.26973 0.18179 1.0179 0.0
H2360 H 0.28272 0.37554 1.01089 0.0
H2361 H 0.26911 0.29602 1.00665 0.0
H2362 H 0.2693 0.27092 0.06992 0.0
H2363 H 0.2832 0.34952 0.07418 0.0
C2364 C 0.23722 0.20573 0.04177 0.0
C2365 C 0.23951 0.15766 0.03111 0.0
C2366 C 0.24666 0.24436 0.04422 0.0
C2367 C 0.25845 0.23606 0.0357 0.0
C2368 C 0.2607 0.18865 0.02466 0.0
C2369 C 0.25133 0.14927 0.02261 0.0
C2370 C 0.2801 0.35214 0.02382 0.0
C2371 C 0.28396 0.36845 0.04286 0.0
C2372 C 0.27237 0.3068 0.02138 0.0
C2373 C 0.26818 0.27799 0.03799 0.0
C2374 C 0.27246 0.2928 0.05694 0.0
C2375 C 0.28044 0.33738 0.05935 0.0
H2376 H 0.9683 0.29748 0.30234 0.0
H2377 H 0.99265 0.43315 0.2892 0.0
H2378 H 0.9857 0.23455 0.2958 0.0
H2379 H 0.00947 0.37135 0.28173 0.0
H2380 H 0.0411 0.24675 0.28749 0.0
H2381 H 0.02418 0.31041 0.29553 0.0
H2382 H 0.99736 0.20163 0.26806 0.0
H2383 H 0.0142 0.13771 0.26087 0.0
C2384 C 0.9773 0.3138 0.29808 0.0
C2385 C 0.97899 0.37015 0.29598 0.0
C2386 C 0.98723 0.27794 0.29415 0.0
C2387 C 0.99896 0.29799 0.28805 0.0
C2388 C 1.00066 0.35438 0.28656 0.0
C2389 C 0.99087 0.38987 0.29062 0.0
C2390 C 0.03162 0.23752 0.28276 0.0
C2391 C 0.02889 0.18802 0.27342 0.0
C2392 C 0.0219 0.27353 0.28747 0.0
C2393 C 0.00936 0.26066 0.28269 0.0
C2394 C 0.00683 0.21215 0.27244 0.0
C2395 C 0.01649 0.17607 0.26798 0.0
H2396 H 0.2204 0.09059 0.30947 0.0
H2397 H 0.23494 0.17833 0.2591 0.0
H2398 H 0.2371 0.02307 0.30601 0.0
H2399 H 0.2518 0.11307 0.25629 0.0
H2400 H 0.27463 0.95887 0.24587 0.0
H2401 H 0.25736 0.02371 0.24768 0.0
H2402 H 0.2591 0.01692 0.31169 0.0
H2403 H 0.276 0.95029 0.30975 0.0
C2404 C 0.22708 0.09526 0.2976 0.0
C2405 C 0.22636 0.13997 0.28466 0.0
C2406 C 0.23674 0.05702 0.29575 0.0
C2407 C 0.24591 0.06308 0.28103 0.0
C2408 C 0.24487 0.10672 0.26767 0.0
C2409 C 0.23518 0.14441 0.26937 0.0
C2410 C 0.27147 0.97216 0.2603 0.0
C2411 C 0.27663 0.94976 0.27766 0.0
C2412 C 0.26154 0.00913 0.26137 0.0
C2413 C 0.25671 0.02499 0.27985 0.0
C2414 C 0.26233 0.00444 0.29722 0.0
C2415 C 0.27214 0.96691 0.29613 0.0
H2416 H 0.7281 0.72046 0.03253 0.0
H2417 H 0.75648 0.59446 0.03438 0.0
H2418 H 0.74436 0.78972 0.03089 0.0
H2419 H 0.77283 0.66437 0.0329 0.0
H2420 H 0.77495 0.89439 1.0073 0.0
H2421 H 0.76135 0.81535 1.00541 0.0
H2422 H 0.77991 0.74554 0.05653 0.0
H2423 H 0.79361 0.82535 0.05864 0.0
C2424 C 0.73781 0.70759 0.0325 0.0
C2425 C 0.74103 0.65216 0.0335 0.0
C2426 C 0.74711 0.74717 0.03148 0.0
C2427 C 0.75981 0.73217 0.03164 0.0
C2428 C 0.76308 0.67679 0.03276 0.0
C2429 C 0.75374 0.63698 0.03351 0.0
C2430 C 0.77631 0.86197 1.018 0.0
C2431 C 0.78522 0.86662 0.03335 0.0
C2432 C 0.76849 0.81677 1.0169 0.0
C2433 C 0.76948 0.775 0.031 0.0
C2434 C 0.77899 0.77739 0.04548 0.0
C2435 C 0.78681 0.82302 0.04668 0.0
H2436 H 0.98998 0.91235 0.81429 0.0
H2437 H 0.96508 0.81026 0.7801 0.0
H2438 H 0.00701 0.84779 0.8094 0.0
H2439 H 0.98229 0.74576 0.77456 0.0
H2440 H 0.01329 0.6205 0.78474 0.0
H2441 H 0.99594 0.6815 0.79036 0.0
H2442 H 0.02041 0.81981 0.78266 0.0
H2443 H 0.03817 0.75797 0.77777 0.0
C2444 C 0.98815 0.87539 0.80596 0.0
C2445 C 0.97627 0.86576 0.79764 0.0
C2446 C 0.99794 0.83893 0.80289 0.0
C2447 C 0.99609 0.7923 0.79123 0.0
C2448 C 0.984 0.78132 0.78367 0.0
C2449 C 0.97412 0.8178 0.78694 0.0
C2450 C 0.01508 0.66392 0.78426 0.0
C2451 C 0.02722 0.6844 0.78105 0.0
C2452 C 0.00503 0.69891 0.78731 0.0
C2453 C 0.00677 0.75543 0.78707 0.0
C2454 C 0.01882 0.77625 0.78329 0.0
C2455 C 0.02897 0.74099 0.78032 0.0
H2456 H 0.78319 0.99354 0.81802 0.0
H2457 H 0.77063 0.92197 0.76282 0.0
H2458 H 0.76536 0.05641 0.81687 0.0
H2459 H 0.75309 0.98484 0.76157 0.0
H2460 H 0.71608 0.07052 0.77545 0.0
H2461 H 0.73324 0.00409 0.77871 0.0
H2462 H 0.7583 0.13313 0.79675 0.0
H2463 H 0.74154 0.19831 0.79362 0.0
C2464 C 0.77678 0.9919 0.8055 0.0
C2465 C 0.77836 0.95304 0.79049 0.0
C2466 C 0.76654 0.02753 0.80489 0.0
C2467 C 0.75775 0.02495 0.78923 0.0
C2468 C 0.75953 0.98695 0.77404 0.0
C2469 C 0.76971 0.95144 0.77465 0.0
C2470 C 0.72524 0.08436 0.78022 0.0
C2471 C 0.72734 0.13955 0.7845 0.0
C2472 C 0.73505 0.04654 0.78205 0.0
C2473 C 0.74708 0.06351 0.78818 0.0
C2474 C 0.7491 0.11855 0.79248 0.0
C2475 C 0.73941 0.15599 0.79062 0.0
H2476 H 0.02258 0.64908 0.50883 0.0
H2477 H 0.03399 0.57143 0.56341 0.0
H2478 H 0.00452 0.59104 0.5066 0.0
H2479 H 0.01644 0.50796 0.5602 0.0
H2480 H 0.97688 0.44536 0.56302 0.0
H2481 H 0.99511 0.50465 0.56453 0.0
H2482 H 0.99551 0.51038 0.50038 0.0
H2483 H 0.97665 0.45547 0.49933 0.0
C2484 C 0.02129 0.61871 0.52023 0.0
C2485 C 0.02944 0.61594 0.53661 0.0
C2486 C 0.01099 0.58449 0.51879 0.0
C2487 C 0.00875 0.54499 0.5334 0.0
C2488 C 0.01757 0.53907 0.54899 0.0
C2489 C 0.0278 0.57457 0.55066 0.0
C2490 C 0.98072 0.46094 0.54933 0.0
C2491 C 0.97536 0.44647 0.53105 0.0
C2492 C 0.99134 0.49391 0.55013 0.0
C2493 C 0.99707 0.51178 0.53259 0.0
C2494 C 0.99137 0.4984 0.51429 0.0
C2495 C 0.98051 0.46686 0.51358 0.0
H2496 H 0.25343 0.59996 0.53202 0.0
H2497 H 0.22463 0.7234 0.52654 0.0
H2498 H 0.26938 0.67128 0.53433 0.0
H2499 H 0.24051 0.79425 0.52881 0.0
H2500 H 0.27194 0.90527 0.5135 0.0
H2501 H 0.25854 0.82705 0.50823 0.0
H2502 H 0.27501 0.74758 0.55927 0.0
H2503 H 0.28868 0.82645 0.56463 0.0
C2504 C 0.25053 0.64226 0.53111 0.0
C2505 C 0.2378 0.65627 0.52902 0.0
C2506 C 0.25964 0.68292 0.53258 0.0
C2507 C 0.25616 0.73811 0.53168 0.0
C2508 C 0.24346 0.75195 0.5293 0.0
C2509 C 0.23436 0.71144 0.52807 0.0
C2510 C 0.27291 0.87098 0.5235 0.0
C2511 C 0.28131 0.87244 0.53966 0.0
C2512 C 0.26516 0.82624 0.52048 0.0
C2513 C 0.26562 0.78176 0.53351 0.0
C2514 C 0.2745 0.78148 0.549 0.0
C2515 C 0.28229 0.8266 0.55208 0.0
H2516 H 0.27793 0.46226 0.7498 0.0
H2517 H 0.27843 0.44348 0.81339 0.0
H2518 H 0.26097 0.52816 0.7524 0.0
H2519 H 0.26189 0.51168 0.81623 0.0
H2520 H 0.22351 0.59058 0.81407 0.0
H2521 H 0.24023 0.52308 0.81062 0.0
H2522 H 0.25551 0.61569 0.76197 0.0
H2523 H 0.23859 0.68062 0.76467 0.0
C2524 C 0.27466 0.47359 0.76438 0.0
C2525 C 0.2795 0.44807 0.78139 0.0
C2526 C 0.2649 0.51128 0.76591 0.0
C2527 C 0.25994 0.52502 0.78454 0.0
C2528 C 0.26523 0.50111 0.80162 0.0
C2529 C 0.27483 0.46266 0.80004 0.0
C2530 C 0.23035 0.59585 0.80247 0.0
C2531 C 0.22968 0.64081 0.78964 0.0
C2532 C 0.24003 0.5576 0.80062 0.0
C2533 C 0.24932 0.56409 0.7861 0.0
C2534 C 0.24846 0.60867 0.77311 0.0
C2535 C 0.23872 0.64619 0.77473 0.0
H2536 H 0.72664 0.21029 0.5409 0.0
H2537 H 0.7534 0.0859 0.52461 0.0
H2538 H 0.74301 0.27902 0.53901 0.0
H2539 H 0.76984 0.15505 0.52279 0.0
H2540 H 0.79017 0.31851 0.50146 0.0
H2541 H 0.7757 0.24083 0.50287 0.0
H2542 H 0.76227 0.29757 0.55943 0.0
H2543 H 0.77661 0.37419 0.55805 0.0
C2544 C 0.736 0.19768 0.53682 0.0
C2545 C 0.73876 0.14274 0.53302 0.0
C2546 C 0.74539 0.23694 0.53586 0.0
C2547 C 0.75772 0.22217 0.53097 0.0
C2548 C 0.76042 0.16748 0.52657 0.0
C2549 C 0.75102 0.128 0.52769 0.0
C2550 C 0.78432 0.3134 0.51437 0.0
C2551 C 0.78431 0.3527 0.5295 0.0
C2552 C 0.77603 0.26923 0.51514 0.0
C2553 C 0.76767 0.26407 0.53104 0.0
C2554 C 0.76836 0.30139 0.54675 0.0
C2555 C 0.77659 0.34516 0.54598 0.0
H2556 H 0.79038 0.50402 0.29382 0.0
H2557 H 0.76449 0.37368 0.28014 0.0
H2558 H 0.77302 0.56967 0.2911 0.0
H2559 H 0.74755 0.43824 0.27746 0.0
H2560 H 0.72191 0.57672 0.25642 0.0
H2561 H 0.73972 0.51357 0.25673 0.0
H2562 H 0.7538 0.58905 0.31024 0.0
H2563 H 0.73629 0.65189 0.30987 0.0
C2564 C 0.78108 0.48943 0.29015 0.0
C2565 C 0.7789 0.43373 0.28702 0.0
C2566 C 0.77116 0.52682 0.28861 0.0
C2567 C 0.75896 0.50891 0.28389 0.0
C2568 C 0.75687 0.4534 0.28066 0.0
C2569 C 0.76666 0.41636 0.28227 0.0
C2570 C 0.7287 0.57912 0.26839 0.0
C2571 C 0.72764 0.61908 0.28314 0.0
C2572 C 0.73894 0.54338 0.2685 0.0
C2573 C 0.74824 0.54712 0.28337 0.0
C2574 C 0.74696 0.5861 0.29835 0.0
C2575 C 0.73679 0.62158 0.29825 0.0
H2576 H 0.53768 0.06603 0.55986 0.0
H2577 H 0.51472 0.18531 0.52917 0.0
H2578 H 0.51995 0.00271 0.5594 0.0
H2579 H 0.49756 0.12233 0.52802 0.0
H2580 H 0.4647 0.01689 0.54546 0.0
H2581 H 0.4823 0.08015 0.54886 0.0
H2582 H 0.50814 0.94943 0.53553 0.0
H2583 H 0.49081 0.88671 0.5326 0.0
C2584 C 0.52898 0.07852 0.55284 0.0
C2585 C 0.52775 0.13046 0.54432 0.0
C2586 C 0.51883 0.0424 0.55256 0.0
C2587 C 0.50733 0.05775 0.54374 0.0
C2588 C 0.50618 0.10953 0.53523 0.0
C2589 C 0.51619 0.14539 0.5356 0.0
C2590 C 0.47414 0.002 0.54316 0.0
C2591 C 0.47635 0.94698 0.5388 0.0
C2592 C 0.48422 0.038 0.54515 0.0
C2593 C 0.49663 0.01955 0.54262 0.0
C2594 C 0.49875 0.96467 0.53803 0.0
C2595 C 0.48876 0.92887 0.53616 0.0
H2596 H 0.53535 0.24338 0.75807 0.0
H2597 H 0.52753 0.17444 0.81548 0.0
H2598 H 0.51818 0.30877 0.76251 0.0
H2599 H 0.51043 0.23907 0.8199 0.0
H2600 H 0.4714 0.31524 0.80856 0.0
H2601 H 0.48926 0.25293 0.80467 0.0
H2602 H 0.51186 0.38632 0.78361 0.0
H2603 H 0.49438 0.4478 0.78754 0.0
C2604 C 0.53018 0.24323 0.77181 0.0
C2605 C 0.53266 0.20388 0.78638 0.0
C2606 C 0.52029 0.28014 0.7743 0.0
C2607 C 0.51281 0.27806 0.79139 0.0
C2608 C 0.5158 0.24059 0.80637 0.0
C2609 C 0.52565 0.20401 0.8039 0.0
C2610 C 0.48018 0.33102 0.80308 0.0
C2611 C 0.48136 0.38626 0.79805 0.0
C2612 C 0.4904 0.29556 0.8009 0.0
C2613 C 0.50191 0.31488 0.79366 0.0
C2614 C 0.50306 0.37005 0.78882 0.0
C2615 C 0.49296 0.40525 0.79106 0.0
H2616 H 0.46985 0.82246 0.26487 0.0
H2617 H 0.48671 0.9156 0.31243 0.0
H2618 H 0.48685 0.7559 0.26749 0.0
H2619 H 0.50386 0.85156 0.31427 0.0
H2620 H 0.52793 0.70169 0.32451 0.0
H2621 H 0.51031 0.76465 0.32349 0.0
H2622 H 0.50834 0.74812 0.25972 0.0
H2623 H 0.52559 0.68285 0.26099 0.0
C2624 C 0.47711 0.82852 0.27595 0.0
C2625 C 0.47693 0.87442 0.28835 0.0
C2626 C 0.48694 0.79083 0.2773 0.0
C2627 C 0.49684 0.79871 0.29092 0.0
C2628 C 0.49637 0.84365 0.30376 0.0
C2629 C 0.4865 0.88069 0.30261 0.0
C2630 C 0.52388 0.71241 0.31026 0.0
C2631 C 0.52814 0.68773 0.29282 0.0
C2632 C 0.51373 0.74836 0.30965 0.0
C2633 C 0.50778 0.76115 0.29153 0.0
C2634 C 0.51246 0.73814 0.27399 0.0
C2635 C 0.52246 0.70144 0.27465 0.0
H2636 H 0.53752 0.55005 0.04944 0.0
H2637 H 0.5138 0.68027 0.02725 0.0
H2638 H 0.51961 0.4877 0.04742 0.0
H2639 H 0.4963 0.61882 0.02529 0.0
H2640 H 0.47091 0.47641 1.00603 0.0
H2641 H 0.48878 0.53875 1.00685 0.0
H2642 H 0.49919 0.47825 0.06484 0.0
H2643 H 0.48143 0.41643 0.064 0.0
C2644 C 0.5286 0.56526 0.044 0.0
C2645 C 0.52719 0.62005 0.03838 0.0
C2646 C 0.51835 0.52978 0.04293 0.0
C2647 C 0.50658 0.54855 0.03613 0.0
C2648 C 0.50527 0.60295 0.03026 0.0
C2649 C 0.5154 0.63821 0.03143 0.0
C2650 C 0.47686 0.47748 0.01909 0.0
C2651 C 0.47486 0.44151 0.03488 0.0
C2652 C 0.48714 0.51267 0.01951 0.0
C2653 C 0.49552 0.51239 0.03575 0.0
C2654 C 0.49311 0.47822 0.05191 0.0
C2655 C 0.48287 0.44328 0.05149 0.0
loop_
_geom_bond_atom_site_label_1
_geom_bond_atom_site_label_2
_geom_bond_distance
_geom_bond_site_symmetry_2
_ccdc_geom_bond_type
Co0 N4 2.148 1_554 S
Co0 N10 2.128 . S
Co0 N20 2.194 . S
Co0 O25 2.351 . S
Co0 O26 2.155 . S
Co0 O27 2.096 . S
C1 N4 1.301 . S
C1 N5 1.328 . S
C1 H6 0.930 . S
C2 C3 1.333 . S
C2 N4 1.317 . S
C2 H7 0.930 . S
C3 C2 1.333 . S
C3 N5 1.350 . S
C3 H29 0.931 . S
N4 Co0 2.148 1_556 S
N4 C1 1.301 . S
N4 C2 1.317 . S
N5 C1 1.328 . S
N5 C3 1.350 . S
H6 C1 0.930 . S
H7 C2 0.930 . S
C8 O9 1.224 . S
C8 O27 1.247 . S
O9 C8 1.224 . S
N10 Co0 2.128 . S
N10 C11 1.355 . S
N10 C13 1.311 . S
C11 N10 1.355 . S
C11 C12 1.363 . S
C11 H23 0.929 . S
C12 C11 1.363 . S
C12 N14 1.375 . S
C12 H30 0.931 . S
C13 N10 1.311 . S
C13 N14 1.347 . S
C13 H24 0.929 . S
N14 C12 1.375 . S
N14 C13 1.347 . S
C15 C18 1.365 . S
C15 N20 1.328 . S
C15 H21 0.929 . S
C16 C17 1.362 . S
C16 C19 1.378 . S
C16 H31 0.929 . S
C17 C16 1.362 . S
C17 C18 1.366 . S
C18 C15 1.365 . S
C18 C17 1.366 . S
C18 H32 0.930 . S
C19 C16 1.378 . S
C19 N20 1.315 . S
C19 H22 0.930 . S
N20 Co0 2.194 . S
N20 C15 1.328 . S
N20 C19 1.315 . S
H21 C15 0.929 . S
H22 C19 0.930 . S
H23 C11 0.929 . S
H24 C13 0.929 . S
O25 Co0 2.351 . S
O25 C28 1.244 . S
O26 Co0 2.155 . S
O26 C28 1.240 . S
O27 Co0 2.096 . S
O27 C8 1.247 . S
C28 O25 1.244 . S
C28 O26 1.240 . S
H29 C3 0.931 . S
H30 C12 0.931 . S
H31 C16 0.929 . S
H32 C18 0.930 . S
Co33 N37 2.148 . S
Co33 N43 2.128 1_554 S
Co33 N53 2.194 . S
Co33 O58 2.351 . S
Co33 O59 2.155 . S
Co33 O60 2.096 1_545 S
C34 N37 1.301 . S
C34 N38 1.328 . S
C34 H39 0.930 . S
C35 C36 1.333 . S
C35 N37 1.317 . S
C35 H40 0.930 1_545 S
C36 C35 1.333 . S
C36 N38 1.350 . S
C36 H62 0.931 . S
N37 Co33 2.148 . S
N37 C34 1.301 . S
N37 C35 1.317 . S
N38 C34 1.328 . S
N38 C36 1.350 . S
H39 C34 0.930 . S
H40 C35 0.930 1_565 S
C41 O42 1.224 . S
C41 O60 1.247 . S
O42 C41 1.224 . S
N43 Co33 2.128 1_556 S
N43 C44 1.355 . S
N43 C46 1.311 . S
C44 N43 1.355 . S
C44 C45 1.363 . S
C44 H56 0.929 . S
C45 C44 1.363 . S
C45 N47 1.375 . S
C45 H63 0.931 . S
C46 N43 1.311 . S
C46 N47 1.347 . S
C46 H57 0.929 1_545 S
N47 C45 1.375 . S
N47 C46 1.347 . S
C48 C51 1.365 . S
C48 N53 1.328 . S
C48 H54 0.929 . S
C49 C50 1.362 . S
C49 C52 1.378 . S
C49 H64 0.929 . S
C50 C49 1.362 . S
C50 C51 1.366 . S
C51 C48 1.365 . S
C51 C50 1.366 . S
C51 H65 0.930 . S
C52 C49 1.378 . S
C52 N53 1.315 . S
C52 H55 0.930 1_545 S
N53 Co33 2.194 . S
N53 C48 1.328 . S
N53 C52 1.315 . S
H54 C48 0.929 . S
H55 C52 0.930 1_565 S
H56 C44 0.929 . S
H57 C46 0.929 1_565 S
O58 Co33 2.351 . S
O58 C61 1.244 . S
O59 Co33 2.155 . S
O59 C61 1.240 . S
O60 Co33 2.096 1_565 S
O60 C41 1.247 . S
C61 O58 1.244 . S
C61 O59 1.240 . S
H62 C36 0.931 . S
H63 C45 0.931 . S
H64 C49 0.929 . S
H65 C51 0.930 . S
Co66 N70 2.148 . S
Co66 N76 2.128 . S
Co66 N86 2.194 . S
Co66 O91 2.351 1_545 S
Co66 O92 2.155 1_545 S
Co66 O93 2.096 . S
C67 N70 1.301 . S
C67 N71 1.328 . S
C67 H72 0.930 1_545 S
C68 C69 1.333 . S
C68 N70 1.317 . S
C68 H73 0.930 . S
C69 C68 1.333 . S
C69 N71 1.350 . S
C69 H95 0.931 . S
N70 Co66 2.148 . S
N70 C67 1.301 . S
N70 C68 1.317 . S
N71 C67 1.328 . S
N71 C69 1.350 . S
H72 C67 0.930 1_565 S
H73 C68 0.930 . S
C74 O75 1.224 . S
C74 O93 1.247 . S
O75 C74 1.224 . S
N76 Co66 2.128 . S
N76 C77 1.355 . S
N76 C79 1.311 . S
C77 N76 1.355 . S
C77 C78 1.363 . S
C77 H89 0.929 . S
C78 C77 1.363 . S
C78 N80 1.375 . S
C78 H96 0.931 . S
C79 N76 1.311 . S
C79 N80 1.347 . S
C79 H90 0.929 . S
N80 C78 1.375 . S
N80 C79 1.347 . S
C81 C84 1.365 . S
C81 N86 1.328 . S
C81 H87 0.929 1_545 S
C82 C83 1.362 . S
C82 C85 1.378 . S
C82 H97 0.929 . S
C83 C82 1.362 . S
C83 C84 1.366 . S
C84 C81 1.365 . S
C84 C83 1.366 . S
C84 H98 0.930 . S
C85 C82 1.378 . S
C85 N86 1.315 . S
C85 H88 0.930 . S
N86 Co66 2.194 . S
N86 C81 1.328 . S
N86 C85 1.315 . S
H87 C81 0.929 1_565 S
H88 C85 0.930 . S
H89 C77 0.929 . S
H90 C79 0.929 . S
O91 Co66 2.351 1_565 S
O91 C94 1.244 . S
O92 Co66 2.155 1_565 S
O92 C94 1.240 . S
O93 Co66 2.096 . S
O93 C74 1.247 . S
C94 O91 1.244 . S
C94 O92 1.240 . S
H95 C69 0.931 . S
H96 C78 0.931 . S
H97 C82 0.929 . S
H98 C84 0.930 . S
Co99 N103 2.148 . S
Co99 N109 2.128 . S
Co99 N119 2.194 . S
Co99 O124 2.351 . S
Co99 O125 2.155 . S
Co99 O126 2.096 . S
C100 N103 1.301 . S
C100 N104 1.328 . S
C100 H105 0.930 . S
C101 C102 1.333 . S
C101 N103 1.317 . S
C101 H106 0.930 . S
C102 C101 1.333 . S
C102 N104 1.350 . S
C102 H128 0.931 . S
N103 Co99 2.148 . S
N103 C100 1.301 . S
N103 C101 1.317 . S
N104 C100 1.328 . S
N104 C102 1.350 . S
H105 C100 0.930 . S
H106 C101 0.930 . S
C107 O108 1.224 . S
C107 O126 1.247 . S
O108 C107 1.224 . S
N109 Co99 2.128 . S
N109 C110 1.355 . S
N109 C112 1.311 . S
C110 N109 1.355 . S
C110 C111 1.363 . S
C110 H122 0.929 . S
C111 C110 1.363 . S
C111 N113 1.375 . S
C111 H129 0.931 . S
C112 N109 1.311 . S
C112 N113 1.347 . S
C112 H123 0.929 . S
N113 C111 1.375 . S
N113 C112 1.347 . S
C114 C117 1.365 . S
C114 N119 1.328 . S
C114 H120 0.929 . S
C115 C116 1.362 . S
C115 C118 1.378 . S
C115 H130 0.929 . S
C116 C115 1.362 . S
C116 C117 1.366 . S
C117 C114 1.365 . S
C117 C116 1.366 . S
C117 H131 0.930 . S
C118 C115 1.378 . S
C118 N119 1.315 . S
C118 H121 0.930 . S
N119 Co99 2.194 . S
N119 C114 1.328 . S
N119 C118 1.315 . S
H120 C114 0.929 . S
H121 C118 0.930 . S
H122 C110 0.929 . S
H123 C112 0.929 . S
O124 Co99 2.351 . S
O124 C127 1.244 . S
O125 Co99 2.155 . S
O125 C127 1.240 . S
O126 Co99 2.096 . S
O126 C107 1.247 . S
C127 O124 1.244 . S
C127 O125 1.240 . S
H128 C102 0.931 . S
H129 C111 0.931 . S
H130 C115 0.929 . S
H131 C117 0.930 . S
Co132 N136 2.148 . S
Co132 N142 2.128 1_554 S
Co132 N152 2.194 . S
Co132 O157 2.351 . S
Co132 O158 2.155 . S
Co132 O159 2.096 . S
C133 N136 1.301 . S
C133 N137 1.328 . S
C133 H138 0.930 . S
C134 C135 1.333 . S
C134 N136 1.317 . S
C134 H139 0.930 . S
C135 C134 1.333 . S
C135 N137 1.350 . S
C135 H161 0.931 . S
N136 Co132 2.148 . S
N136 C133 1.301 . S
N136 C134 1.317 . S
N137 C133 1.328 . S
N137 C135 1.350 . S
H138 C133 0.930 . S
H139 C134 0.930 . S
C140 O141 1.224 . S
C140 O159 1.247 . S
O141 C140 1.224 . S
N142 Co132 2.128 1_556 S
N142 C143 1.355 . S
N142 C145 1.311 . S
C143 N142 1.355 . S
C143 C144 1.363 . S
C143 H155 0.929 . S
C144 C143 1.363 . S
C144 N146 1.375 . S
C144 H162 0.931 . S
C145 N142 1.311 . S
C145 N146 1.347 . S
C145 H156 0.929 . S
N146 C144 1.375 . S
N146 C145 1.347 . S
C147 C150 1.365 . S
C147 N152 1.328 . S
C147 H153 0.929 . S
C148 C149 1.362 . S
C148 C151 1.378 . S
C148 H163 0.929 . S
C149 C148 1.362 . S
C149 C150 1.366 . S
C150 C147 1.365 . S
C150 C149 1.366 . S
C150 H164 0.930 . S
C151 C148 1.378 . S
C151 N152 1.315 . S
C151 H154 0.930 . S
N152 Co132 2.194 . S
N152 C147 1.328 . S
N152 C151 1.315 . S
H153 C147 0.929 . S
H154 C151 0.930 . S
H155 C143 0.929 . S
H156 C145 0.929 . S
O157 Co132 2.351 . S
O157 C160 1.244 . S
O158 Co132 2.155 . S
O158 C160 1.240 . S
O159 Co132 2.096 . S
O159 C140 1.247 . S
C160 O157 1.244 . S
C160 O158 1.240 . S
H161 C135 0.931 . S
H162 C144 0.931 . S
H163 C148 0.929 . S
H164 C150 0.930 . S
Co165 N169 2.148 . S
Co165 N175 2.128 1_554 S
Co165 N185 2.194 . S
Co165 O190 2.351 . S
Co165 O191 2.155 . S
Co165 O192 2.096 1_545 S
C166 N169 1.301 . S
C166 N170 1.328 . S
C166 H171 0.930 . S
C167 C168 1.333 1_565 S
C167 N169 1.317 1_565 S
C167 H172 0.930 . S
C168 C167 1.333 1_545 S
C168 N170 1.350 . S
C168 H194 0.931 1_545 S
N169 Co165 2.148 . S
N169 C166 1.301 . S
N169 C167 1.317 1_545 S
N170 C166 1.328 . S
N170 C168 1.350 . S
H171 C166 0.930 . S
H172 C167 0.930 . S
C173 O174 1.224 . S
C173 O192 1.247 . S
O174 C173 1.224 . S
N175 Co165 2.128 1_556 S
N175 C176 1.355 . S
N175 C178 1.311 1_545 S
C176 N175 1.355 . S
C176 C177 1.363 . S
C176 H188 0.929 . S
C177 C176 1.363 . S
C177 N179 1.375 1_545 S
C177 H195 0.931 . S
C178 N175 1.311 1_565 S
C178 N179 1.347 . S
C178 H189 0.929 . S
N179 C177 1.375 1_565 S
N179 C178 1.347 . S
C180 C183 1.365 . S
C180 N185 1.328 . S
C180 H186 0.929 . S
C181 C182 1.362 . S
C181 C184 1.378 . S
C181 H196 0.929 . S
C182 C181 1.362 . S
C182 C183 1.366 1_565 S
C183 C180 1.365 . S
C183 C182 1.366 1_545 S
C183 H197 0.930 . S
C184 C181 1.378 . S
C184 N185 1.315 1_565 S
C184 H187 0.930 . S
N185 Co165 2.194 . S
N185 C180 1.328 . S
N185 C184 1.315 1_545 S
H186 C180 0.929 . S
H187 C184 0.930 . S
H188 C176 0.929 . S
H189 C178 0.929 . S
O190 Co165 2.351 . S
O190 C193 1.244 . S
O191 Co165 2.155 . S
O191 C193 1.240 . S
O192 Co165 2.096 1_565 S
O192 C173 1.247 . S
C193 O190 1.244 . S
C193 O191 1.240 . S
H194 C168 0.931 1_565 S
H195 C177 0.931 . S
H196 C181 0.929 . S
H197 C183 0.930 . S
Co198 N202 2.148 . S
Co198 N208 2.128 . S
Co198 N218 2.194 . S
Co198 O223 2.351 . S
Co198 O224 2.155 . S
Co198 O225 2.096 1_545 S
C199 N202 1.301 . S
C199 N203 1.328 . S
C199 H204 0.930 . S
C200 C201 1.333 1_565 S
C200 N202 1.317 1_565 S
C200 H205 0.930 . S
C201 C200 1.333 1_545 S
C201 N203 1.350 . S
C201 H227 0.931 1_545 S
N202 Co198 2.148 . S
N202 C199 1.301 . S
N202 C200 1.317 1_545 S
N203 C199 1.328 . S
N203 C201 1.350 . S
H204 C199 0.930 . S
H205 C200 0.930 . S
C206 O207 1.224 . S
C206 O225 1.247 . S
O207 C206 1.224 . S
N208 Co198 2.128 . S
N208 C209 1.355 . S
N208 C211 1.311 1_545 S
C209 N208 1.355 . S
C209 C210 1.363 . S
C209 H221 0.929 . S
C210 C209 1.363 . S
C210 N212 1.375 1_545 S
C210 H228 0.931 . S
C211 N208 1.311 1_565 S
C211 N212 1.347 . S
C211 H222 0.929 . S
N212 C210 1.375 1_565 S
N212 C211 1.347 . S
C213 C216 1.365 . S
C213 N218 1.328 . S
C213 H219 0.929 . S
C214 C215 1.362 . S
C214 C217 1.378 . S
C214 H229 0.929 . S
C215 C214 1.362 . S
C215 C216 1.366 1_565 S
C216 C213 1.365 . S
C216 C215 1.366 1_545 S
C216 H230 0.930 . S
C217 C214 1.378 . S
C217 N218 1.315 1_565 S
C217 H220 0.930 . S
N218 Co198 2.194 . S
N218 C213 1.328 . S
N218 C217 1.315 1_545 S
H219 C213 0.929 . S
H220 C217 0.930 . S
H221 C209 0.929 . S
H222 C211 0.929 . S
O223 Co198 2.351 . S
O223 C226 1.244 . S
O224 Co198 2.155 . S
O224 C226 1.240 . S
O225 Co198 2.096 1_565 S
O225 C206 1.247 . S
C226 O223 1.244 . S
C226 O224 1.240 . S
H227 C201 0.931 1_565 S
H228 C210 0.931 . S
H229 C214 0.929 . S
H230 C216 0.930 . S
Co231 N235 2.148 . S
Co231 N241 2.128 . S
Co231 N251 2.194 . S
Co231 O256 2.351 . S
Co231 O257 2.155 . S
Co231 O258 2.096 . S
C232 N235 1.301 . S
C232 N236 1.328 . S
C232 H237 0.930 . S
C233 C234 1.333 . S
C233 N235 1.317 . S
C233 H238 0.930 . S
C234 C233 1.333 . S
C234 N236 1.350 . S
C234 H260 0.931 . S
N235 Co231 2.148 . S
N235 C232 1.301 . S
N235 C233 1.317 . S
N236 C232 1.328 . S
N236 C234 1.350 . S
H237 C232 0.930 . S
H238 C233 0.930 . S
C239 O240 1.224 . S
C239 O258 1.247 . S
O240 C239 1.224 . S
N241 Co231 2.128 . S
N241 C242 1.355 . S
N241 C244 1.311 . S
C242 N241 1.355 . S
C242 C243 1.363 . S
C242 H254 0.929 . S
C243 C242 1.363 . S
C243 N245 1.375 . S
C243 H261 0.931 . S
C244 N241 1.311 . S
C244 N245 1.347 . S
C244 H255 0.929 . S
N245 C243 1.375 . S
N245 C244 1.347 . S
C246 C249 1.365 . S
C246 N251 1.328 . S
C246 H252 0.929 . S
C247 C248 1.362 . S
C247 C250 1.378 . S
C247 H262 0.929 . S
C248 C247 1.362 . S
C248 C249 1.366 . S
C249 C246 1.365 . S
C249 C248 1.366 . S
C249 H263 0.930 . S
C250 C247 1.378 . S
C250 N251 1.315 . S
C250 H253 0.930 . S
N251 Co231 2.194 . S
N251 C246 1.328 . S
N251 C250 1.315 . S
H252 C246 0.929 . S
H253 C250 0.930 . S
H254 C242 0.929 . S
H255 C244 0.929 . S
O256 Co231 2.351 . S
O256 C259 1.244 . S
O257 Co231 2.155 . S
O257 C259 1.240 . S
O258 Co231 2.096 . S
O258 C239 1.247 . S
C259 O256 1.244 . S
C259 O257 1.240 . S
H260 C234 0.931 . S
H261 C243 0.931 . S
H262 C247 0.929 . S
H263 C249 0.930 . S
Co264 N268 2.148 . S
Co264 N274 2.128 . S
Co264 N284 2.194 . S
Co264 O289 2.351 . S
Co264 O290 2.155 . S
Co264 O291 2.096 . S
C265 N268 1.301 . S
C265 N269 1.328 . S
C265 H270 0.930 . S
C266 C267 1.333 . S
C266 N268 1.317 . S
C266 H271 0.930 . S
C267 C266 1.333 . S
C267 N269 1.350 . S
C267 H293 0.931 . S
N268 Co264 2.148 . S
N268 C265 1.301 . S
N268 C266 1.317 . S
N269 C265 1.328 . S
N269 C267 1.350 . S
H270 C265 0.930 . S
H271 C266 0.930 . S
C272 O273 1.224 . S
C272 O291 1.247 . S
O273 C272 1.224 . S
N274 Co264 2.128 . S
N274 C275 1.355 . S
N274 C277 1.311 . S
C275 N274 1.355 . S
C275 C276 1.363 . S
C275 H287 0.929 . S
C276 C275 1.363 . S
C276 N278 1.375 . S
C276 H294 0.931 . S
C277 N274 1.311 . S
C277 N278 1.347 . S
C277 H288 0.929 . S
N278 C276 1.375 . S
N278 C277 1.347 . S
C279 C282 1.365 . S
C279 N284 1.328 . S
C279 H285 0.929 . S
C280 C281 1.362 . S
C280 C283 1.378 . S
C280 H295 0.929 . S
C281 C280 1.362 . S
C281 C282 1.366 . S
C282 C279 1.365 . S
C282 C281 1.366 . S
C282 H296 0.930 . S
C283 C280 1.378 . S
C283 N284 1.315 . S
C283 H286 0.930 . S
N284 Co264 2.194 . S
N284 C279 1.328 . S
N284 C283 1.315 . S
H285 C279 0.929 . S
H286 C283 0.930 . S
H287 C275 0.929 . S
H288 C277 0.929 . S
O289 Co264 2.351 . S
O289 C292 1.244 . S
O290 Co264 2.155 . S
O290 C292 1.240 . S
O291 Co264 2.096 . S
O291 C272 1.247 . S
C292 O289 1.244 . S
C292 O290 1.240 . S
H293 C267 0.931 . S
H294 C276 0.931 . S
H295 C280 0.929 . S
H296 C282 0.930 . S
Co297 N301 2.148 . S
Co297 N307 2.128 . S
Co297 N317 2.194 . S
Co297 O322 2.351 . S
Co297 O323 2.155 . S
Co297 O324 2.096 . S
C298 N301 1.301 . S
C298 N302 1.328 . S
C298 H303 0.930 . S
C299 C300 1.333 . S
C299 N301 1.317 . S
C299 H304 0.930 . S
C300 C299 1.333 . S
C300 N302 1.350 . S
C300 H326 0.931 . S
N301 Co297 2.148 . S
N301 C298 1.301 . S
N301 C299 1.317 . S
N302 C298 1.328 . S
N302 C300 1.350 . S
H303 C298 0.930 . S
H304 C299 0.930 . S
C305 O306 1.224 . S
C305 O324 1.247 . S
O306 C305 1.224 . S
N307 Co297 2.128 . S
N307 C308 1.355 . S
N307 C310 1.311 . S
C308 N307 1.355 . S
C308 C309 1.363 . S
C308 H320 0.929 . S
C309 C308 1.363 . S
C309 N311 1.375 . S
C309 H327 0.931 . S
C310 N307 1.311 . S
C310 N311 1.347 . S
C310 H321 0.929 . S
N311 C309 1.375 . S
N311 C310 1.347 . S
C312 C315 1.365 . S
C312 N317 1.328 . S
C312 H318 0.929 . S
C313 C314 1.362 . S
C313 C316 1.378 . S
C313 H328 0.929 . S
C314 C313 1.362 . S
C314 C315 1.366 . S
C315 C312 1.365 . S
C315 C314 1.366 . S
C315 H329 0.930 . S
C316 C313 1.378 . S
C316 N317 1.315 . S
C316 H319 0.930 . S
N317 Co297 2.194 . S
N317 C312 1.328 . S
N317 C316 1.315 . S
H318 C312 0.929 . S
H319 C316 0.930 . S
H320 C308 0.929 . S
H321 C310 0.929 . S
O322 Co297 2.351 . S
O322 C325 1.244 . S
O323 Co297 2.155 . S
O323 C325 1.240 . S
O324 Co297 2.096 . S
O324 C305 1.247 . S
C325 O322 1.244 . S
C325 O323 1.240 . S
H326 C300 0.931 . S
H327 C309 0.931 . S
H328 C313 0.929 . S
H329 C315 0.930 . S
Co330 N334 2.148 . S
Co330 N340 2.128 . S
Co330 N350 2.194 . S
Co330 O355 2.351 . S
Co330 O356 2.155 . S
Co330 O357 2.096 . S
C331 N334 1.301 . S
C331 N335 1.328 . S
C331 H336 0.930 . S
C332 C333 1.333 . S
C332 N334 1.317 . S
C332 H337 0.930 . S
C333 C332 1.333 . S
C333 N335 1.350 . S
C333 H359 0.931 . S
N334 Co330 2.148 . S
N334 C331 1.301 . S
N334 C332 1.317 . S
N335 C331 1.328 . S
N335 C333 1.350 . S
H336 C331 0.930 . S
H337 C332 0.930 . S
C338 O339 1.224 . S
C338 O357 1.247 . S
O339 C338 1.224 . S
N340 Co330 2.128 . S
N340 C341 1.355 . S
N340 C343 1.311 . S
C341 N340 1.355 . S
C341 C342 1.363 . S
C341 H353 0.929 . S
C342 C341 1.363 . S
C342 N344 1.375 . S
C342 H360 0.931 . S
C343 N340 1.311 . S
C343 N344 1.347 . S
C343 H354 0.929 . S
N344 C342 1.375 . S
N344 C343 1.347 . S
C345 C348 1.365 . S
C345 N350 1.328 . S
C345 H351 0.929 . S
C346 C347 1.362 . S
C346 C349 1.378 . S
C346 H361 0.929 . S
C347 C346 1.362 . S
C347 C348 1.366 . S
C348 C345 1.365 . S
C348 C347 1.366 . S
C348 H362 0.930 . S
C349 C346 1.378 . S
C349 N350 1.315 . S
C349 H352 0.930 . S
N350 Co330 2.194 . S
N350 C345 1.328 . S
N350 C349 1.315 . S
H351 C345 0.929 . S
H352 C349 0.930 . S
H353 C341 0.929 . S
H354 C343 0.929 . S
O355 Co330 2.351 . S
O355 C358 1.244 . S
O356 Co330 2.155 . S
O356 C358 1.240 . S
O357 Co330 2.096 . S
O357 C338 1.247 . S
C358 O355 1.244 . S
C358 O356 1.240 . S
H359 C333 0.931 . S
H360 C342 0.931 . S
H361 C346 0.929 . S
H362 C348 0.930 . S
Co363 N367 2.148 . S
Co363 N373 2.128 . S
Co363 N383 2.194 . S
Co363 O388 2.351 . S
Co363 O389 2.155 . S
Co363 O390 2.096 . S
C364 N367 1.301 . S
C364 N368 1.328 . S
C364 H369 0.930 . S
C365 C366 1.333 . S
C365 N367 1.317 . S
C365 H370 0.930 . S
C366 C365 1.333 . S
C366 N368 1.350 . S
C366 H392 0.931 . S
N367 Co363 2.148 . S
N367 C364 1.301 . S
N367 C365 1.317 . S
N368 C364 1.328 . S
N368 C366 1.350 . S
H369 C364 0.930 . S
H370 C365 0.930 . S
C371 O372 1.224 . S
C371 O390 1.247 . S
O372 C371 1.224 . S
N373 Co363 2.128 . S
N373 C374 1.355 . S
N373 C376 1.311 . S
C374 N373 1.355 . S
C374 C375 1.363 . S
C374 H386 0.929 . S
C375 C374 1.363 . S
C375 N377 1.375 . S
C375 H393 0.931 . S
C376 N373 1.311 . S
C376 N377 1.347 . S
C376 H387 0.929 . S
N377 C375 1.375 . S
N377 C376 1.347 . S
C378 C381 1.365 . S
C378 N383 1.328 . S
C378 H384 0.929 . S
C379 C380 1.362 . S
C379 C382 1.378 . S
C379 H394 0.929 . S
C380 C379 1.362 . S
C380 C381 1.366 . S
C381 C378 1.365 . S
C381 C380 1.366 . S
C381 H395 0.930 . S
C382 C379 1.378 . S
C382 N383 1.315 . S
C382 H385 0.930 . S
N383 Co363 2.194 . S
N383 C378 1.328 . S
N383 C382 1.315 . S
H384 C378 0.929 . S
H385 C382 0.930 . S
H386 C374 0.929 . S
H387 C376 0.929 . S
O388 Co363 2.351 . S
O388 C391 1.244 . S
O389 Co363 2.155 . S
O389 C391 1.240 . S
O390 Co363 2.096 . S
O390 C371 1.247 . S
C391 O388 1.244 . S
C391 O389 1.240 . S
H392 C366 0.931 . S
H393 C375 0.931 . S
H394 C379 0.929 . S
H395 C381 0.930 . S
Co396 N400 2.148 . S
Co396 N406 2.128 . S
Co396 N416 2.194 . S
Co396 O421 2.351 . S
Co396 O422 2.155 . S
Co396 O423 2.096 . S
C397 N400 1.301 . S
C397 N401 1.328 . S
C397 H402 0.930 . S
C398 C399 1.333 . S
C398 N400 1.317 . S
C398 H403 0.930 . S
C399 C398 1.333 . S
C399 N401 1.350 . S
C399 H425 0.931 . S
N400 Co396 2.148 . S
N400 C397 1.301 . S
N400 C398 1.317 . S
N401 C397 1.328 . S
N401 C399 1.350 . S
H402 C397 0.930 . S
H403 C398 0.930 . S
C404 O405 1.224 . S
C404 O423 1.247 . S
O405 C404 1.224 . S
N406 Co396 2.128 . S
N406 C407 1.355 . S
N406 C409 1.311 . S
C407 N406 1.355 . S
C407 C408 1.363 . S
C407 H419 0.929 . S
C408 C407 1.363 . S
C408 N410 1.375 . S
C408 H426 0.931 . S
C409 N406 1.311 . S
C409 N410 1.347 . S
C409 H420 0.929 . S
N410 C408 1.375 . S
N410 C409 1.347 . S
C411 C414 1.365 . S
C411 N416 1.328 . S
C411 H417 0.929 . S
C412 C413 1.362 . S
C412 C415 1.378 . S
C412 H427 0.929 . S
C413 C412 1.362 . S
C413 C414 1.366 . S
C414 C411 1.365 . S
C414 C413 1.366 . S
C414 H428 0.930 . S
C415 C412 1.378 . S
C415 N416 1.315 . S
C415 H418 0.930 . S
N416 Co396 2.194 . S
N416 C411 1.328 . S
N416 C415 1.315 . S
H417 C411 0.929 . S
H418 C415 0.930 . S
H419 C407 0.929 . S
H420 C409 0.929 . S
O421 Co396 2.351 . S
O421 C424 1.244 . S
O422 Co396 2.155 . S
O422 C424 1.240 . S
O423 Co396 2.096 . S
O423 C404 1.247 . S
C424 O421 1.244 . S
C424 O422 1.240 . S
H425 C399 0.931 . S
H426 C408 0.931 . S
H427 C412 0.929 . S
H428 C414 0.930 . S
Co429 N433 2.148 . S
Co429 N439 2.128 . S
Co429 N449 2.194 . S
Co429 O454 2.351 . S
Co429 O455 2.155 . S
Co429 O456 2.096 . S
C430 N433 1.301 . S
C430 N434 1.328 . S
C430 H435 0.930 . S
C431 C432 1.333 . S
C431 N433 1.317 . S
C431 H436 0.930 . S
C432 C431 1.333 . S
C432 N434 1.350 . S
C432 H458 0.931 . S
N433 Co429 2.148 . S
N433 C430 1.301 . S
N433 C431 1.317 . S
N434 C430 1.328 . S
N434 C432 1.350 . S
H435 C430 0.930 . S
H436 C431 0.930 . S
C437 O438 1.224 . S
C437 O456 1.247 . S
O438 C437 1.224 . S
N439 Co429 2.128 . S
N439 C440 1.355 . S
N439 C442 1.311 . S
C440 N439 1.355 . S
C440 C441 1.363 . S
C440 H452 0.929 . S
C441 C440 1.363 . S
C441 N443 1.375 . S
C441 H459 0.931 . S
C442 N439 1.311 . S
C442 N443 1.347 . S
C442 H453 0.929 . S
N443 C441 1.375 . S
N443 C442 1.347 . S
C444 C447 1.365 . S
C444 N449 1.328 . S
C444 H450 0.929 . S
C445 C446 1.362 . S
C445 C448 1.378 . S
C445 H460 0.929 . S
C446 C445 1.362 . S
C446 C447 1.366 . S
C447 C444 1.365 . S
C447 C446 1.366 . S
C447 H461 0.930 . S
C448 C445 1.378 . S
C448 N449 1.315 . S
C448 H451 0.930 . S
N449 Co429 2.194 . S
N449 C444 1.328 . S
N449 C448 1.315 . S
H450 C444 0.929 . S
H451 C448 0.930 . S
H452 C440 0.929 . S
H453 C442 0.929 . S
O454 Co429 2.351 . S
O454 C457 1.244 . S
O455 Co429 2.155 . S
O455 C457 1.240 . S
O456 Co429 2.096 . S
O456 C437 1.247 . S
C457 O454 1.244 . S
C457 O455 1.240 . S
H458 C432 0.931 . S
H459 C441 0.931 . S
H460 C445 0.929 . S
H461 C447 0.930 . S
Co462 N466 2.148 . S
Co462 N472 2.128 . S
Co462 N482 2.194 . S
Co462 O487 2.351 . S
Co462 O488 2.155 . S
Co462 O489 2.096 . S
C463 N466 1.301 . S
C463 N467 1.328 . S
C463 H468 0.930 . S
C464 C465 1.333 . S
C464 N466 1.317 . S
C464 H469 0.930 . S
C465 C464 1.333 . S
C465 N467 1.350 . S
C465 H491 0.931 . S
N466 Co462 2.148 . S
N466 C463 1.301 . S
N466 C464 1.317 . S
N467 C463 1.328 . S
N467 C465 1.350 . S
H468 C463 0.930 . S
H469 C464 0.930 . S
C470 O471 1.224 . S
C470 O489 1.247 . S
O471 C470 1.224 . S
N472 Co462 2.128 . S
N472 C473 1.355 . S
N472 C475 1.311 . S
C473 N472 1.355 . S
C473 C474 1.363 . S
C473 H485 0.929 . S
C474 C473 1.363 . S
C474 N476 1.375 . S
C474 H492 0.931 . S
C475 N472 1.311 . S
C475 N476 1.347 . S
C475 H486 0.929 . S
N476 C474 1.375 . S
N476 C475 1.347 . S
C477 C480 1.365 . S
C477 N482 1.328 . S
C477 H483 0.929 . S
C478 C479 1.362 . S
C478 C481 1.378 . S
C478 H493 0.929 . S
C479 C478 1.362 . S
C479 C480 1.366 . S
C480 C477 1.365 . S
C480 C479 1.366 . S
C480 H494 0.930 . S
C481 C478 1.378 . S
C481 N482 1.315 . S
C481 H484 0.930 . S
N482 Co462 2.194 . S
N482 C477 1.328 . S
N482 C481 1.315 . S
H483 C477 0.929 . S
H484 C481 0.930 . S
H485 C473 0.929 . S
H486 C475 0.929 . S
O487 Co462 2.351 . S
O487 C490 1.244 . S
O488 Co462 2.155 . S
O488 C490 1.240 . S
O489 Co462 2.096 . S
O489 C470 1.247 . S
C490 O487 1.244 . S
C490 O488 1.240 . S
H491 C465 0.931 . S
H492 C474 0.931 . S
H493 C478 0.929 . S
H494 C480 0.930 . S
Co495 N499 2.148 . S
Co495 N505 2.128 . S
Co495 N515 2.194 . S
Co495 O520 2.351 . S
Co495 O521 2.155 . S
Co495 O522 2.096 . S
C496 N499 1.301 . S
C496 N500 1.328 . S
C496 H501 0.930 . S
C497 C498 1.333 . S
C497 N499 1.317 . S
C497 H502 0.930 . S
C498 C497 1.333 . S
C498 N500 1.350 . S
C498 H524 0.931 . S
N499 Co495 2.148 . S
N499 C496 1.301 . S
N499 C497 1.317 . S
N500 C496 1.328 . S
N500 C498 1.350 . S
H501 C496 0.930 . S
H502 C497 0.930 . S
C503 O504 1.224 . S
C503 O522 1.247 . S
O504 C503 1.224 . S
N505 Co495 2.128 . S
N505 C506 1.355 . S
N505 C508 1.311 . S
C506 N505 1.355 . S
C506 C507 1.363 . S
C506 H518 0.929 . S
C507 C506 1.363 . S
C507 N509 1.375 . S
C507 H525 0.931 . S
C508 N505 1.311 . S
C508 N509 1.347 . S
C508 H519 0.929 . S
N509 C507 1.375 . S
N509 C508 1.347 . S
C510 C513 1.365 . S
C510 N515 1.328 . S
C510 H516 0.929 . S
C511 C512 1.362 . S
C511 C514 1.378 . S
C511 H526 0.929 . S
C512 C511 1.362 . S
C512 C513 1.366 . S
C513 C510 1.365 . S
C513 C512 1.366 . S
C513 H527 0.930 . S
C514 C511 1.378 . S
C514 N515 1.315 . S
C514 H517 0.930 . S
N515 Co495 2.194 . S
N515 C510 1.328 . S
N515 C514 1.315 . S
H516 C510 0.929 . S
H517 C514 0.930 . S
H518 C506 0.929 . S
H519 C508 0.929 . S
O520 Co495 2.351 . S
O520 C523 1.244 . S
O521 Co495 2.155 . S
O521 C523 1.240 . S
O522 Co495 2.096 . S
O522 C503 1.247 . S
C523 O520 1.244 . S
C523 O521 1.240 . S
H524 C498 0.931 . S
H525 C507 0.931 . S
H526 C511 0.929 . S
H527 C513 0.930 . S
Co528 N532 2.148 . S
Co528 N538 2.128 . S
Co528 N548 2.194 . S
Co528 O553 2.351 . S
Co528 O554 2.155 . S
Co528 O555 2.096 . S
C529 N532 1.301 . S
C529 N533 1.328 . S
C529 H534 0.930 . S
C530 C531 1.333 . S
C530 N532 1.317 . S
C530 H535 0.930 . S
C531 C530 1.333 . S
C531 N533 1.350 . S
C531 H557 0.931 . S
N532 Co528 2.148 . S
N532 C529 1.301 . S
N532 C530 1.317 . S
N533 C529 1.328 . S
N533 C531 1.350 . S
H534 C529 0.930 . S
H535 C530 0.930 . S
C536 O537 1.224 . S
C536 O555 1.247 . S
O537 C536 1.224 . S
N538 Co528 2.128 . S
N538 C539 1.355 . S
N538 C541 1.311 . S
C539 N538 1.355 . S
C539 C540 1.363 . S
C539 H551 0.929 . S
C540 C539 1.363 . S
C540 N542 1.375 . S
C540 H558 0.931 . S
C541 N538 1.311 . S
C541 N542 1.347 . S
C541 H552 0.929 . S
N542 C540 1.375 . S
N542 C541 1.347 . S
C543 C546 1.365 . S
C543 N548 1.328 . S
C543 H549 0.929 . S
C544 C545 1.362 . S
C544 C547 1.378 . S
C544 H559 0.929 . S
C545 C544 1.362 . S
C545 C546 1.366 . S
C546 C543 1.365 . S
C546 C545 1.366 . S
C546 H560 0.930 . S
C547 C544 1.378 . S
C547 N548 1.315 . S
C547 H550 0.930 . S
N548 Co528 2.194 . S
N548 C543 1.328 . S
N548 C547 1.315 . S
H549 C543 0.929 . S
H550 C547 0.930 . S
H551 C539 0.929 . S
H552 C541 0.929 . S
O553 Co528 2.351 . S
O553 C556 1.244 . S
O554 Co528 2.155 . S
O554 C556 1.240 . S
O555 Co528 2.096 . S
O555 C536 1.247 . S
C556 O553 1.244 . S
C556 O554 1.240 . S
H557 C531 0.931 . S
H558 C540 0.931 . S
H559 C544 0.929 . S
H560 C546 0.930 . S
Co561 N565 2.148 . S
Co561 N571 2.128 . S
Co561 N581 2.194 . S
Co561 O586 2.351 . S
Co561 O587 2.155 . S
Co561 O588 2.096 1_545 S
C562 N565 1.301 . S
C562 N566 1.328 . S
C562 H567 0.930 . S
C563 C564 1.333 . S
C563 N565 1.317 . S
C563 H568 0.930 1_545 S
C564 C563 1.333 . S
C564 N566 1.350 . S
C564 H590 0.931 . S
N565 Co561 2.148 . S
N565 C562 1.301 . S
N565 C563 1.317 . S
N566 C562 1.328 . S
N566 C564 1.350 . S
H567 C562 0.930 . S
H568 C563 0.930 1_565 S
C569 O570 1.224 . S
C569 O588 1.247 . S
O570 C569 1.224 . S
N571 Co561 2.128 . S
N571 C572 1.355 . S
N571 C574 1.311 . S
C572 N571 1.355 . S
C572 C573 1.363 . S
C572 H584 0.929 . S
C573 C572 1.363 . S
C573 N575 1.375 . S
C573 H591 0.931 . S
C574 N571 1.311 . S
C574 N575 1.347 . S
C574 H585 0.929 1_545 S
N575 C573 1.375 . S
N575 C574 1.347 . S
C576 C579 1.365 . S
C576 N581 1.328 . S
C576 H582 0.929 . S
C577 C578 1.362 . S
C577 C580 1.378 . S
C577 H592 0.929 . S
C578 C577 1.362 . S
C578 C579 1.366 . S
C579 C576 1.365 . S
C579 C578 1.366 . S
C579 H593 0.930 . S
C580 C577 1.378 . S
C580 N581 1.315 . S
C580 H583 0.930 1_545 S
N581 Co561 2.194 . S
N581 C576 1.328 . S
N581 C580 1.315 . S
H582 C576 0.929 . S
H583 C580 0.930 1_565 S
H584 C572 0.929 . S
H585 C574 0.929 1_565 S
O586 Co561 2.351 . S
O586 C589 1.244 . S
O587 Co561 2.155 . S
O587 C589 1.240 . S
O588 Co561 2.096 1_565 S
O588 C569 1.247 . S
C589 O586 1.244 . S
C589 O587 1.240 . S
H590 C564 0.931 . S
H591 C573 0.931 . S
H592 C577 0.929 . S
H593 C579 0.930 . S
Co594 N598 2.148 . S
Co594 N604 2.128 . S
Co594 N614 2.194 . S
Co594 O619 2.351 1_545 S
Co594 O620 2.155 1_545 S
Co594 O621 2.096 . S
C595 N598 1.301 . S
C595 N599 1.328 . S
C595 H600 0.930 1_545 S
C596 C597 1.333 . S
C596 N598 1.317 . S
C596 H601 0.930 . S
C597 C596 1.333 . S
C597 N599 1.350 . S
C597 H623 0.931 . S
N598 Co594 2.148 . S
N598 C595 1.301 . S
N598 C596 1.317 . S
N599 C595 1.328 . S
N599 C597 1.350 . S
H600 C595 0.930 1_565 S
H601 C596 0.930 . S
C602 O603 1.224 . S
C602 O621 1.247 . S
O603 C602 1.224 . S
N604 Co594 2.128 . S
N604 C605 1.355 . S
N604 C607 1.311 . S
C605 N604 1.355 . S
C605 C606 1.363 . S
C605 H617 0.929 . S
C606 C605 1.363 . S
C606 N608 1.375 . S
C606 H624 0.931 . S
C607 N604 1.311 . S
C607 N608 1.347 . S
C607 H618 0.929 . S
N608 C606 1.375 . S
N608 C607 1.347 . S
C609 C612 1.365 . S
C609 N614 1.328 . S
C609 H615 0.929 1_545 S
C610 C611 1.362 . S
C610 C613 1.378 . S
C610 H625 0.929 . S
C611 C610 1.362 . S
C611 C612 1.366 . S
C612 C609 1.365 . S
C612 C611 1.366 . S
C612 H626 0.930 . S
C613 C610 1.378 . S
C613 N614 1.315 . S
C613 H616 0.930 . S
N614 Co594 2.194 . S
N614 C609 1.328 . S
N614 C613 1.315 . S
H615 C609 0.929 1_565 S
H616 C613 0.930 . S
H617 C605 0.929 . S
H618 C607 0.929 . S
O619 Co594 2.351 1_565 S
O619 C622 1.244 . S
O620 Co594 2.155 1_565 S
O620 C622 1.240 . S
O621 Co594 2.096 . S
O621 C602 1.247 . S
C622 O619 1.244 . S
C622 O620 1.240 . S
H623 C597 0.931 . S
H624 C606 0.931 . S
H625 C610 0.929 . S
H626 C612 0.930 . S
Co627 N631 2.148 . S
Co627 N637 2.128 . S
Co627 N647 2.194 . S
Co627 O652 2.351 . S
Co627 O653 2.155 . S
Co627 O654 2.096 . S
C628 N631 1.301 . S
C628 N632 1.328 . S
C628 H633 0.930 . S
C629 C630 1.333 . S
C629 N631 1.317 . S
C629 H634 0.930 . S
C630 C629 1.333 . S
C630 N632 1.350 . S
C630 H656 0.931 . S
N631 Co627 2.148 . S
N631 C628 1.301 . S
N631 C629 1.317 . S
N632 C628 1.328 . S
N632 C630 1.350 . S
H633 C628 0.930 . S
H634 C629 0.930 . S
C635 O636 1.224 . S
C635 O654 1.247 . S
O636 C635 1.224 . S
N637 Co627 2.128 . S
N637 C638 1.355 . S
N637 C640 1.311 . S
C638 N637 1.355 . S
C638 C639 1.363 . S
C638 H650 0.929 . S
C639 C638 1.363 . S
C639 N641 1.375 . S
C639 H657 0.931 . S
C640 N637 1.311 . S
C640 N641 1.347 . S
C640 H651 0.929 . S
N641 C639 1.375 . S
N641 C640 1.347 . S
C642 C645 1.365 . S
C642 N647 1.328 . S
C642 H648 0.929 . S
C643 C644 1.362 . S
C643 C646 1.378 . S
C643 H658 0.929 . S
C644 C643 1.362 . S
C644 C645 1.366 . S
C645 C642 1.365 . S
C645 C644 1.366 . S
C645 H659 0.930 . S
C646 C643 1.378 . S
C646 N647 1.315 . S
C646 H649 0.930 . S
N647 Co627 2.194 . S
N647 C642 1.328 . S
N647 C646 1.315 . S
H648 C642 0.929 . S
H649 C646 0.930 . S
H650 C638 0.929 . S
H651 C640 0.929 . S
O652 Co627 2.351 . S
O652 C655 1.244 . S
O653 Co627 2.155 . S
O653 C655 1.240 . S
O654 Co627 2.096 . S
O654 C635 1.247 . S
C655 O652 1.244 . S
C655 O653 1.240 . S
H656 C630 0.931 . S
H657 C639 0.931 . S
H658 C643 0.929 . S
H659 C645 0.930 . S
Co660 N664 2.148 . S
Co660 N670 2.128 . S
Co660 N680 2.194 . S
Co660 O685 2.351 . S
Co660 O686 2.155 . S
Co660 O687 2.096 . S
C661 N664 1.301 . S
C661 N665 1.328 . S
C661 H666 0.930 . S
C662 C663 1.333 . S
C662 N664 1.317 . S
C662 H667 0.930 . S
C663 C662 1.333 . S
C663 N665 1.350 . S
C663 H689 0.931 . S
N664 Co660 2.148 . S
N664 C661 1.301 . S
N664 C662 1.317 . S
N665 C661 1.328 . S
N665 C663 1.350 . S
H666 C661 0.930 . S
H667 C662 0.930 . S
C668 O669 1.224 . S
C668 O687 1.247 . S
O669 C668 1.224 . S
N670 Co660 2.128 . S
N670 C671 1.355 . S
N670 C673 1.311 . S
C671 N670 1.355 . S
C671 C672 1.363 . S
C671 H683 0.929 . S
C672 C671 1.363 . S
C672 N674 1.375 . S
C672 H690 0.931 . S
C673 N670 1.311 . S
C673 N674 1.347 . S
C673 H684 0.929 . S
N674 C672 1.375 . S
N674 C673 1.347 . S
C675 C678 1.365 . S
C675 N680 1.328 . S
C675 H681 0.929 . S
C676 C677 1.362 . S
C676 C679 1.378 . S
C676 H691 0.929 . S
C677 C676 1.362 . S
C677 C678 1.366 . S
C678 C675 1.365 . S
C678 C677 1.366 . S
C678 H692 0.930 . S
C679 C676 1.378 . S
C679 N680 1.315 . S
C679 H682 0.930 . S
N680 Co660 2.194 . S
N680 C675 1.328 . S
N680 C679 1.315 . S
H681 C675 0.929 . S
H682 C679 0.930 . S
H683 C671 0.929 . S
H684 C673 0.929 . S
O685 Co660 2.351 . S
O685 C688 1.244 . S
O686 Co660 2.155 . S
O686 C688 1.240 . S
O687 Co660 2.096 . S
O687 C668 1.247 . S
C688 O685 1.244 . S
C688 O686 1.240 . S
H689 C663 0.931 . S
H690 C672 0.931 . S
H691 C676 0.929 . S
H692 C678 0.930 . S
Co693 N697 2.148 . S
Co693 N703 2.128 . S
Co693 N713 2.194 . S
Co693 O718 2.351 . S
Co693 O719 2.155 . S
Co693 O720 2.096 1_545 S
C694 N697 1.301 . S
C694 N698 1.328 . S
C694 H699 0.930 . S
C695 C696 1.333 1_565 S
C695 N697 1.317 1_565 S
C695 H700 0.930 . S
C696 C695 1.333 1_545 S
C696 N698 1.350 . S
C696 H722 0.931 1_545 S
N697 Co693 2.148 . S
N697 C694 1.301 . S
N697 C695 1.317 1_545 S
N698 C694 1.328 . S
N698 C696 1.350 . S
H699 C694 0.930 . S
H700 C695 0.930 . S
C701 O702 1.224 . S
C701 O720 1.247 . S
O702 C701 1.224 . S
N703 Co693 2.128 . S
N703 C704 1.355 . S
N703 C706 1.311 1_545 S
C704 N703 1.355 . S
C704 C705 1.363 . S
C704 H716 0.929 . S
C705 C704 1.363 . S
C705 N707 1.375 1_545 S
C705 H723 0.931 . S
C706 N703 1.311 1_565 S
C706 N707 1.347 . S
C706 H717 0.929 . S
N707 C705 1.375 1_565 S
N707 C706 1.347 . S
C708 C711 1.365 . S
C708 N713 1.328 . S
C708 H714 0.929 . S
C709 C710 1.362 . S
C709 C712 1.378 . S
C709 H724 0.929 . S
C710 C709 1.362 . S
C710 C711 1.366 1_565 S
C711 C708 1.365 . S
C711 C710 1.366 1_545 S
C711 H725 0.930 . S
C712 C709 1.378 . S
C712 N713 1.315 1_565 S
C712 H715 0.930 . S
N713 Co693 2.194 . S
N713 C708 1.328 . S
N713 C712 1.315 1_545 S
H714 C708 0.929 . S
H715 C712 0.930 . S
H716 C704 0.929 . S
H717 C706 0.929 . S
O718 Co693 2.351 . S
O718 C721 1.244 . S
O719 Co693 2.155 . S
O719 C721 1.240 . S
O720 Co693 2.096 1_565 S
O720 C701 1.247 . S
C721 O718 1.244 . S
C721 O719 1.240 . S
H722 C696 0.931 1_565 S
H723 C705 0.931 . S
H724 C709 0.929 . S
H725 C711 0.930 . S
Co726 N730 2.148 . S
Co726 N736 2.128 . S
Co726 N746 2.194 . S
Co726 O751 2.351 . S
Co726 O752 2.155 . S
Co726 O753 2.096 1_545 S
C727 N730 1.301 . S
C727 N731 1.328 . S
C727 H732 0.930 . S
C728 C729 1.333 1_565 S
C728 N730 1.317 1_565 S
C728 H733 0.930 . S
C729 C728 1.333 1_545 S
C729 N731 1.350 . S
C729 H755 0.931 1_545 S
N730 Co726 2.148 . S
N730 C727 1.301 . S
N730 C728 1.317 1_545 S
N731 C727 1.328 . S
N731 C729 1.350 . S
H732 C727 0.930 . S
H733 C728 0.930 . S
C734 O735 1.224 . S
C734 O753 1.247 . S
O735 C734 1.224 . S
N736 Co726 2.128 . S
N736 C737 1.355 . S
N736 C739 1.311 1_545 S
C737 N736 1.355 . S
C737 C738 1.363 . S
C737 H749 0.929 . S
C738 C737 1.363 . S
C738 N740 1.375 1_545 S
C738 H756 0.931 . S
C739 N736 1.311 1_565 S
C739 N740 1.347 . S
C739 H750 0.929 . S
N740 C738 1.375 1_565 S
N740 C739 1.347 . S
C741 C744 1.365 . S
C741 N746 1.328 . S
C741 H747 0.929 . S
C742 C743 1.362 . S
C742 C745 1.378 . S
C742 H757 0.929 . S
C743 C742 1.362 . S
C743 C744 1.366 1_565 S
C744 C741 1.365 . S
C744 C743 1.366 1_545 S
C744 H758 0.930 . S
C745 C742 1.378 . S
C745 N746 1.315 1_565 S
C745 H748 0.930 . S
N746 Co726 2.194 . S
N746 C741 1.328 . S
N746 C745 1.315 1_545 S
H747 C741 0.929 . S
H748 C745 0.930 . S
H749 C737 0.929 . S
H750 C739 0.929 . S
O751 Co726 2.351 . S
O751 C754 1.244 . S
O752 Co726 2.155 . S
O752 C754 1.240 . S
O753 Co726 2.096 1_565 S
O753 C734 1.247 . S
C754 O751 1.244 . S
C754 O752 1.240 . S
H755 C729 0.931 1_565 S
H756 C738 0.931 . S
H757 C742 0.929 . S
H758 C744 0.930 . S
Co759 N763 2.148 . S
Co759 N769 2.128 . S
Co759 N779 2.194 . S
Co759 O784 2.351 . S
Co759 O785 2.155 . S
Co759 O786 2.096 . S
C760 N763 1.301 . S
C760 N764 1.328 . S
C760 H765 0.930 . S
C761 C762 1.333 . S
C761 N763 1.317 . S
C761 H766 0.930 . S
C762 C761 1.333 . S
C762 N764 1.350 . S
C762 H788 0.931 . S
N763 Co759 2.148 . S
N763 C760 1.301 . S
N763 C761 1.317 . S
N764 C760 1.328 . S
N764 C762 1.350 . S
H765 C760 0.930 . S
H766 C761 0.930 . S
C767 O768 1.224 . S
C767 O786 1.247 . S
O768 C767 1.224 . S
N769 Co759 2.128 . S
N769 C770 1.355 . S
N769 C772 1.311 . S
C770 N769 1.355 . S
C770 C771 1.363 . S
C770 H782 0.929 . S
C771 C770 1.363 . S
C771 N773 1.375 . S
C771 H789 0.931 . S
C772 N769 1.311 . S
C772 N773 1.347 . S
C772 H783 0.929 . S
N773 C771 1.375 . S
N773 C772 1.347 . S
C774 C777 1.365 . S
C774 N779 1.328 . S
C774 H780 0.929 . S
C775 C776 1.362 . S
C775 C778 1.378 . S
C775 H790 0.929 . S
C776 C775 1.362 . S
C776 C777 1.366 . S
C777 C774 1.365 . S
C777 C776 1.366 . S
C777 H791 0.930 . S
C778 C775 1.378 . S
C778 N779 1.315 . S
C778 H781 0.930 . S
N779 Co759 2.194 . S
N779 C774 1.328 . S
N779 C778 1.315 . S
H780 C774 0.929 . S
H781 C778 0.930 . S
H782 C770 0.929 . S
H783 C772 0.929 . S
O784 Co759 2.351 . S
O784 C787 1.244 . S
O785 Co759 2.155 . S
O785 C787 1.240 . S
O786 Co759 2.096 . S
O786 C767 1.247 . S
C787 O784 1.244 . S
C787 O785 1.240 . S
H788 C762 0.931 . S
H789 C771 0.931 . S
H790 C775 0.929 . S
H791 C777 0.930 . S
Co792 N796 2.148 1_554 S
Co792 N802 2.128 . S
Co792 N812 2.194 . S
Co792 O817 2.351 . S
Co792 O818 2.155 . S
Co792 O819 2.096 . S
C793 N796 1.301 . S
C793 N797 1.328 . S
C793 H798 0.930 . S
C794 C795 1.333 . S
C794 N796 1.317 . S
C794 H799 0.930 . S
C795 C794 1.333 . S
C795 N797 1.350 . S
C795 H821 0.931 . S
N796 Co792 2.148 1_556 S
N796 C793 1.301 . S
N796 C794 1.317 . S
N797 C793 1.328 . S
N797 C795 1.350 . S
H798 C793 0.930 . S
H799 C794 0.930 . S
C800 O801 1.224 . S
C800 O819 1.247 . S
O801 C800 1.224 . S
N802 Co792 2.128 . S
N802 C803 1.355 . S
N802 C805 1.311 . S
C803 N802 1.355 . S
C803 C804 1.363 . S
C803 H815 0.929 . S
C804 C803 1.363 . S
C804 N806 1.375 . S
C804 H822 0.931 . S
C805 N802 1.311 . S
C805 N806 1.347 . S
C805 H816 0.929 . S
N806 C804 1.375 . S
N806 C805 1.347 . S
C807 C810 1.365 . S
C807 N812 1.328 . S
C807 H813 0.929 . S
C808 C809 1.362 . S
C808 C811 1.378 . S
C808 H823 0.929 . S
C809 C808 1.362 . S
C809 C810 1.366 . S
C810 C807 1.365 . S
C810 C809 1.366 . S
C810 H824 0.930 . S
C811 C808 1.378 . S
C811 N812 1.315 . S
C811 H814 0.930 . S
N812 Co792 2.194 . S
N812 C807 1.328 . S
N812 C811 1.315 . S
H813 C807 0.929 . S
H814 C811 0.930 . S
H815 C803 0.929 . S
H816 C805 0.929 . S
O817 Co792 2.351 . S
O817 C820 1.244 . S
O818 Co792 2.155 . S
O818 C820 1.240 . S
O819 Co792 2.096 . S
O819 C800 1.247 . S
C820 O817 1.244 . S
C820 O818 1.240 . S
H821 C795 0.931 . S
H822 C804 0.931 . S
H823 C808 0.929 . S
H824 C810 0.930 . S
Co825 N829 2.148 . S
Co825 N835 2.128 1_554 S
Co825 N845 2.194 . S
Co825 O850 2.351 . S
Co825 O851 2.155 . S
Co825 O852 2.096 . S
C826 N829 1.301 . S
C826 N830 1.328 . S
C826 H831 0.930 . S
C827 C828 1.333 . S
C827 N829 1.317 . S
C827 H832 0.930 . S
C828 C827 1.333 . S
C828 N830 1.350 . S
C828 H854 0.931 . S
N829 Co825 2.148 . S
N829 C826 1.301 . S
N829 C827 1.317 . S
N830 C826 1.328 . S
N830 C828 1.350 . S
H831 C826 0.930 . S
H832 C827 0.930 . S
C833 O834 1.224 . S
C833 O852 1.247 . S
O834 C833 1.224 . S
N835 Co825 2.128 1_556 S
N835 C836 1.355 . S
N835 C838 1.311 . S
C836 N835 1.355 . S
C836 C837 1.363 . S
C836 H848 0.929 . S
C837 C836 1.363 . S
C837 N839 1.375 . S
C837 H855 0.931 . S
C838 N835 1.311 . S
C838 N839 1.347 . S
C838 H849 0.929 . S
N839 C837 1.375 . S
N839 C838 1.347 . S
C840 C843 1.365 . S
C840 N845 1.328 . S
C840 H846 0.929 . S
C841 C842 1.362 . S
C841 C844 1.378 . S
C841 H856 0.929 . S
C842 C841 1.362 . S
C842 C843 1.366 . S
C843 C840 1.365 . S
C843 C842 1.366 . S
C843 H857 0.930 . S
C844 C841 1.378 . S
C844 N845 1.315 . S
C844 H847 0.930 . S
N845 Co825 2.194 . S
N845 C840 1.328 . S
N845 C844 1.315 . S
H846 C840 0.929 . S
H847 C844 0.930 . S
H848 C836 0.929 . S
H849 C838 0.929 . S
O850 Co825 2.351 . S
O850 C853 1.244 . S
O851 Co825 2.155 . S
O851 C853 1.240 . S
O852 Co825 2.096 . S
O852 C833 1.247 . S
C853 O850 1.244 . S
C853 O851 1.240 . S
H854 C828 0.931 . S
H855 C837 0.931 . S
H856 C841 0.929 . S
H857 C843 0.930 . S
Co858 N862 2.148 . S
Co858 N868 2.128 . S
Co858 N878 2.194 . S
Co858 O883 2.351 . S
Co858 O884 2.155 . S
Co858 O885 2.096 . S
C859 N862 1.301 . S
C859 N863 1.328 . S
C859 H864 0.930 . S
C860 C861 1.333 . S
C860 N862 1.317 . S
C860 H865 0.930 . S
C861 C860 1.333 . S
C861 N863 1.350 . S
C861 H887 0.931 . S
N862 Co858 2.148 . S
N862 C859 1.301 . S
N862 C860 1.317 . S
N863 C859 1.328 . S
N863 C861 1.350 . S
H864 C859 0.930 . S
H865 C860 0.930 . S
C866 O867 1.224 . S
C866 O885 1.247 . S
O867 C866 1.224 . S
N868 Co858 2.128 . S
N868 C869 1.355 . S
N868 C871 1.311 . S
C869 N868 1.355 . S
C869 C870 1.363 . S
C869 H881 0.929 . S
C870 C869 1.363 . S
C870 N872 1.375 . S
C870 H888 0.931 . S
C871 N868 1.311 . S
C871 N872 1.347 . S
C871 H882 0.929 . S
N872 C870 1.375 . S
N872 C871 1.347 . S
C873 C876 1.365 . S
C873 N878 1.328 . S
C873 H879 0.929 . S
C874 C875 1.362 . S
C874 C877 1.378 . S
C874 H889 0.929 . S
C875 C874 1.362 . S
C875 C876 1.366 . S
C876 C873 1.365 . S
C876 C875 1.366 . S
C876 H890 0.930 . S
C877 C874 1.378 . S
C877 N878 1.315 . S
C877 H880 0.930 . S
N878 Co858 2.194 . S
N878 C873 1.328 . S
N878 C877 1.315 . S
H879 C873 0.929 . S
H880 C877 0.930 . S
H881 C869 0.929 . S
H882 C871 0.929 . S
O883 Co858 2.351 . S
O883 C886 1.244 . S
O884 Co858 2.155 . S
O884 C886 1.240 . S
O885 Co858 2.096 . S
O885 C866 1.247 . S
C886 O883 1.244 . S
C886 O884 1.240 . S
H887 C861 0.931 . S
H888 C870 0.931 . S
H889 C874 0.929 . S
H890 C876 0.930 . S
Co891 N895 2.148 . S
Co891 N901 2.128 . S
Co891 N911 2.194 . S
Co891 O916 2.351 . S
Co891 O917 2.155 . S
Co891 O918 2.096 . S
C892 N895 1.301 . S
C892 N896 1.328 . S
C892 H897 0.930 . S
C893 C894 1.333 . S
C893 N895 1.317 . S
C893 H898 0.930 . S
C894 C893 1.333 . S
C894 N896 1.350 . S
C894 H920 0.931 . S
N895 Co891 2.148 . S
N895 C892 1.301 . S
N895 C893 1.317 . S
N896 C892 1.328 . S
N896 C894 1.350 . S
H897 C892 0.930 . S
H898 C893 0.930 . S
C899 O900 1.224 . S
C899 O918 1.247 . S
O900 C899 1.224 . S
N901 Co891 2.128 . S
N901 C902 1.355 . S
N901 C904 1.311 . S
C902 N901 1.355 . S
C902 C903 1.363 . S
C902 H914 0.929 . S
C903 C902 1.363 . S
C903 N905 1.375 . S
C903 H921 0.931 . S
C904 N901 1.311 . S
C904 N905 1.347 . S
C904 H915 0.929 . S
N905 C903 1.375 . S
N905 C904 1.347 . S
C906 C909 1.365 . S
C906 N911 1.328 . S
C906 H912 0.929 . S
C907 C908 1.362 . S
C907 C910 1.378 . S
C907 H922 0.929 . S
C908 C907 1.362 . S
C908 C909 1.366 . S
C909 C906 1.365 . S
C909 C908 1.366 . S
C909 H923 0.930 . S
C910 C907 1.378 . S
C910 N911 1.315 . S
C910 H913 0.930 . S
N911 Co891 2.194 . S
N911 C906 1.328 . S
N911 C910 1.315 . S
H912 C906 0.929 . S
H913 C910 0.930 . S
H914 C902 0.929 . S
H915 C904 0.929 . S
O916 Co891 2.351 . S
O916 C919 1.244 . S
O917 Co891 2.155 . S
O917 C919 1.240 . S
O918 Co891 2.096 . S
O918 C899 1.247 . S
C919 O916 1.244 . S
C919 O917 1.240 . S
H920 C894 0.931 . S
H921 C903 0.931 . S
H922 C907 0.929 . S
H923 C909 0.930 . S
Co924 N928 2.148 . S
Co924 N934 2.128 1_554 S
Co924 N944 2.194 . S
Co924 O949 2.351 . S
Co924 O950 2.155 . S
Co924 O951 2.096 . S
C925 N928 1.301 . S
C925 N929 1.328 . S
C925 H930 0.930 . S
C926 C927 1.333 . S
C926 N928 1.317 . S
C926 H931 0.930 . S
C927 C926 1.333 . S
C927 N929 1.350 . S
C927 H953 0.931 . S
N928 Co924 2.148 . S
N928 C925 1.301 . S
N928 C926 1.317 . S
N929 C925 1.328 . S
N929 C927 1.350 . S
H930 C925 0.930 . S
H931 C926 0.930 . S
C932 O933 1.224 . S
C932 O951 1.247 . S
O933 C932 1.224 . S
N934 Co924 2.128 1_556 S
N934 C935 1.355 . S
N934 C937 1.311 . S
C935 N934 1.355 . S
C935 C936 1.363 . S
C935 H947 0.929 . S
C936 C935 1.363 . S
C936 N938 1.375 . S
C936 H954 0.931 . S
C937 N934 1.311 . S
C937 N938 1.347 . S
C937 H948 0.929 . S
N938 C936 1.375 . S
N938 C937 1.347 . S
C939 C942 1.365 . S
C939 N944 1.328 . S
C939 H945 0.929 . S
C940 C941 1.362 . S
C940 C943 1.378 . S
C940 H955 0.929 . S
C941 C940 1.362 . S
C941 C942 1.366 . S
C942 C939 1.365 . S
C942 C941 1.366 . S
C942 H956 0.930 . S
C943 C940 1.378 . S
C943 N944 1.315 . S
C943 H946 0.930 . S
N944 Co924 2.194 . S
N944 C939 1.328 . S
N944 C943 1.315 . S
H945 C939 0.929 . S
H946 C943 0.930 . S
H947 C935 0.929 . S
H948 C937 0.929 . S
O949 Co924 2.351 . S
O949 C952 1.244 . S
O950 Co924 2.155 . S
O950 C952 1.240 . S
O951 Co924 2.096 . S
O951 C932 1.247 . S
C952 O949 1.244 . S
C952 O950 1.240 . S
H953 C927 0.931 . S
H954 C936 0.931 . S
H955 C940 0.929 . S
H956 C942 0.930 . S
Co957 N961 2.148 . S
Co957 N967 2.128 1_554 S
Co957 N977 2.194 . S
Co957 O982 2.351 . S
Co957 O983 2.155 . S
Co957 O984 2.096 . S
C958 N961 1.301 . S
C958 N962 1.328 . S
C958 H963 0.930 . S
C959 C960 1.333 . S
C959 N961 1.317 . S
C959 H964 0.930 . S
C960 C959 1.333 . S
C960 N962 1.350 . S
C960 H986 0.931 . S
N961 Co957 2.148 . S
N961 C958 1.301 . S
N961 C959 1.317 . S
N962 C958 1.328 . S
N962 C960 1.350 . S
H963 C958 0.930 . S
H964 C959 0.930 . S
C965 O966 1.224 . S
C965 O984 1.247 . S
O966 C965 1.224 . S
N967 Co957 2.128 1_556 S
N967 C968 1.355 . S
N967 C970 1.311 . S
C968 N967 1.355 . S
C968 C969 1.363 . S
C968 H980 0.929 . S
C969 C968 1.363 . S
C969 N971 1.375 . S
C969 H987 0.931 . S
C970 N967 1.311 . S
C970 N971 1.347 . S
C970 H981 0.929 . S
N971 C969 1.375 . S
N971 C970 1.347 . S
C972 C975 1.365 . S
C972 N977 1.328 . S
C972 H978 0.929 . S
C973 C974 1.362 . S
C973 C976 1.378 . S
C973 H988 0.929 . S
C974 C973 1.362 . S
C974 C975 1.366 . S
C975 C972 1.365 . S
C975 C974 1.366 . S
C975 H989 0.930 . S
C976 C973 1.378 . S
C976 N977 1.315 . S
C976 H979 0.930 . S
N977 Co957 2.194 . S
N977 C972 1.328 . S
N977 C976 1.315 . S
H978 C972 0.929 . S
H979 C976 0.930 . S
H980 C968 0.929 . S
H981 C970 0.929 . S
O982 Co957 2.351 . S
O982 C985 1.244 . S
O983 Co957 2.155 . S
O983 C985 1.240 . S
O984 Co957 2.096 . S
O984 C965 1.247 . S
C985 O982 1.244 . S
C985 O983 1.240 . S
H986 C960 0.931 . S
H987 C969 0.931 . S
H988 C973 0.929 . S
H989 C975 0.930 . S
Co990 N994 2.148 . S
Co990 N1000 2.128 . S
Co990 N1010 2.194 . S
Co990 O1015 2.351 . S
Co990 O1016 2.155 . S
Co990 O1017 2.096 . S
C991 N994 1.301 . S
C991 N995 1.328 . S
C991 H996 0.930 . S
C992 C993 1.333 . S
C992 N994 1.317 . S
C992 H997 0.930 . S
C993 C992 1.333 . S
C993 N995 1.350 . S
C993 H1019 0.931 . S
N994 Co990 2.148 . S
N994 C991 1.301 . S
N994 C992 1.317 . S
N995 C991 1.328 . S
N995 C993 1.350 . S
H996 C991 0.930 . S
H997 C992 0.930 . S
C998 O999 1.224 . S
C998 O1017 1.247 . S
O999 C998 1.224 . S
N1000 Co990 2.128 . S
N1000 C1001 1.355 . S
N1000 C1003 1.311 . S
C1001 N1000 1.355 . S
C1001 C1002 1.363 . S
C1001 H1013 0.929 . S
C1002 C1001 1.363 . S
C1002 N1004 1.375 . S
C1002 H1020 0.931 . S
C1003 N1000 1.311 . S
C1003 N1004 1.347 . S
C1003 H1014 0.929 . S
N1004 C1002 1.375 . S
N1004 C1003 1.347 . S
C1005 C1008 1.365 . S
C1005 N1010 1.328 . S
C1005 H1011 0.929 . S
C1006 C1007 1.362 . S
C1006 C1009 1.378 . S
C1006 H1021 0.929 . S
C1007 C1006 1.362 . S
C1007 C1008 1.366 . S
C1008 C1005 1.365 . S
C1008 C1007 1.366 . S
C1008 H1022 0.930 . S
C1009 C1006 1.378 . S
C1009 N1010 1.315 . S
C1009 H1012 0.930 . S
N1010 Co990 2.194 . S
N1010 C1005 1.328 . S
N1010 C1009 1.315 . S
H1011 C1005 0.929 . S
H1012 C1009 0.930 . S
H1013 C1001 0.929 . S
H1014 C1003 0.929 . S
O1015 Co990 2.351 . S
O1015 C1018 1.244 . S
O1016 Co990 2.155 . S
O1016 C1018 1.240 . S
O1017 Co990 2.096 . S
O1017 C998 1.247 . S
C1018 O1015 1.244 . S
C1018 O1016 1.240 . S
H1019 C993 0.931 . S
H1020 C1002 0.931 . S
H1021 C1006 0.929 . S
H1022 C1008 0.930 . S
Co1023 N1027 2.148 . S
Co1023 N1033 2.128 . S
Co1023 N1043 2.194 . S
Co1023 O1048 2.351 . S
Co1023 O1049 2.155 . S
Co1023 O1050 2.096 . S
C1024 N1027 1.301 . S
C1024 N1028 1.328 . S
C1024 H1029 0.930 . S
C1025 C1026 1.333 . S
C1025 N1027 1.317 . S
C1025 H1030 0.930 . S
C1026 C1025 1.333 . S
C1026 N1028 1.350 . S
C1026 H1052 0.931 . S
N1027 Co1023 2.148 . S
N1027 C1024 1.301 . S
N1027 C1025 1.317 . S
N1028 C1024 1.328 . S
N1028 C1026 1.350 . S
H1029 C1024 0.930 . S
H1030 C1025 0.930 . S
C1031 O1032 1.224 . S
C1031 O1050 1.247 . S
O1032 C1031 1.224 . S
N1033 Co1023 2.128 . S
N1033 C1034 1.355 . S
N1033 C1036 1.311 . S
C1034 N1033 1.355 . S
C1034 C1035 1.363 . S
C1034 H1046 0.929 . S
C1035 C1034 1.363 . S
C1035 N1037 1.375 . S
C1035 H1053 0.931 . S
C1036 N1033 1.311 . S
C1036 N1037 1.347 . S
C1036 H1047 0.929 . S
N1037 C1035 1.375 . S
N1037 C1036 1.347 . S
C1038 C1041 1.365 . S
C1038 N1043 1.328 . S
C1038 H1044 0.929 . S
C1039 C1040 1.362 . S
C1039 C1042 1.378 . S
C1039 H1054 0.929 . S
C1040 C1039 1.362 . S
C1040 C1041 1.366 . S
C1041 C1038 1.365 . S
C1041 C1040 1.366 . S
C1041 H1055 0.930 . S
C1042 C1039 1.378 . S
C1042 N1043 1.315 . S
C1042 H1045 0.930 . S
N1043 Co1023 2.194 . S
N1043 C1038 1.328 . S
N1043 C1042 1.315 . S
H1044 C1038 0.929 . S
H1045 C1042 0.930 . S
H1046 C1034 0.929 . S
H1047 C1036 0.929 . S
O1048 Co1023 2.351 . S
O1048 C1051 1.244 . S
O1049 Co1023 2.155 . S
O1049 C1051 1.240 . S
O1050 Co1023 2.096 . S
O1050 C1031 1.247 . S
C1051 O1048 1.244 . S
C1051 O1049 1.240 . S
H1052 C1026 0.931 . S
H1053 C1035 0.931 . S
H1054 C1039 0.929 . S
H1055 C1041 0.930 . S
H1056 C1064 0.950 . S
H1057 C1069 0.950 . S
H1058 C1066 0.950 . S
H1059 C1068 0.950 . S
H1060 C1070 0.950 . S
H1061 C1072 0.950 . S
H1062 C1074 0.950 . S
H1063 C1075 0.950 . S
C1064 H1056 0.950 . S
C1064 C1065 1.386 . S
C1064 C1066 1.391 . S
C1065 C1064 1.386 . S
C1065 C1069 1.393 . S
C1066 H1058 0.950 . S
C1066 C1064 1.391 . S
C1066 C1067 1.400 . S
C1067 C1066 1.400 . S
C1067 C1068 1.398 . S
C1067 C1073 1.491 . S
C1068 H1059 0.950 . S
C1068 C1067 1.398 . S
C1068 C1069 1.391 . S
C1069 H1057 0.950 . S
C1069 C1065 1.393 . S
C1069 C1068 1.391 . S
C1070 H1060 0.950 . S
C1070 C1071 1.386 . S
C1070 C1072 1.391 . S
C1071 C1070 1.386 . S
C1071 C1075 1.393 . S
C1072 H1061 0.950 . S
C1072 C1070 1.391 . S
C1072 C1073 1.400 . S
C1073 C1067 1.491 . S
C1073 C1072 1.400 . S
C1073 C1074 1.398 . S
C1074 H1062 0.950 . S
C1074 C1073 1.398 . S
C1074 C1075 1.391 . S
C1075 H1063 0.950 . S
C1075 C1071 1.393 . S
C1075 C1074 1.391 . S
H1076 C1084 0.950 . S
H1077 C1089 0.950 . S
H1078 C1086 0.950 . S
H1079 C1088 0.950 . S
H1080 C1090 0.950 . S
H1081 C1092 0.950 . S
H1082 C1094 0.950 . S
H1083 C1095 0.950 . S
C1084 H1076 0.950 . S
C1084 C1085 1.386 . S
C1084 C1086 1.391 . S
C1085 C1084 1.386 . S
C1085 C1089 1.393 . S
C1086 H1078 0.950 . S
C1086 C1084 1.391 . S
C1086 C1087 1.400 . S
C1087 C1086 1.400 . S
C1087 C1088 1.398 . S
C1087 C1093 1.491 . S
C1088 H1079 0.950 . S
C1088 C1087 1.398 . S
C1088 C1089 1.391 . S
C1089 H1077 0.950 . S
C1089 C1085 1.393 . S
C1089 C1088 1.391 . S
C1090 H1080 0.950 . S
C1090 C1091 1.386 . S
C1090 C1092 1.391 . S
C1091 C1090 1.386 . S
C1091 C1095 1.393 . S
C1092 H1081 0.950 . S
C1092 C1090 1.391 . S
C1092 C1093 1.400 . S
C1093 C1087 1.491 . S
C1093 C1092 1.400 . S
C1093 C1094 1.398 . S
C1094 H1082 0.950 . S
C1094 C1093 1.398 . S
C1094 C1095 1.391 . S
C1095 H1083 0.950 . S
C1095 C1091 1.393 . S
C1095 C1094 1.391 . S
H1096 C1104 0.950 . S
H1097 C1109 0.950 . S
H1098 C1106 0.950 . S
H1099 C1108 0.950 . S
H1100 C1110 0.950 . S
H1101 C1112 0.950 . S
H1102 C1114 0.950 . S
H1103 C1115 0.950 . S
C1104 H1096 0.950 . S
C1104 C1105 1.386 . S
C1104 C1106 1.391 . S
C1105 C1104 1.386 . S
C1105 C1109 1.393 . S
C1106 H1098 0.950 . S
C1106 C1104 1.391 . S
C1106 C1107 1.400 . S
C1107 C1106 1.400 . S
C1107 C1108 1.398 . S
C1107 C1113 1.491 . S
C1108 H1099 0.950 . S
C1108 C1107 1.398 . S
C1108 C1109 1.391 . S
C1109 H1097 0.950 . S
C1109 C1105 1.393 . S
C1109 C1108 1.391 . S
C1110 H1100 0.950 . S
C1110 C1111 1.386 . S
C1110 C1112 1.391 . S
C1111 C1110 1.386 . S
C1111 C1115 1.393 . S
C1112 H1101 0.950 . S
C1112 C1110 1.391 . S
C1112 C1113 1.400 . S
C1113 C1107 1.491 . S
C1113 C1112 1.400 . S
C1113 C1114 1.398 . S
C1114 H1102 0.950 . S
C1114 C1113 1.398 . S
C1114 C1115 1.391 . S
C1115 H1103 0.950 . S
C1115 C1111 1.393 . S
C1115 C1114 1.391 . S
H1116 C1124 0.950 . S
H1117 C1129 0.950 . S
H1118 C1126 0.950 . S
H1119 C1128 0.950 . S
H1120 C1130 0.950 . S
H1121 C1132 0.950 . S
H1122 C1134 0.950 . S
H1123 C1135 0.950 . S
C1124 H1116 0.950 . S
C1124 C1125 1.386 . S
C1124 C1126 1.391 . S
C1125 C1124 1.386 . S
C1125 C1129 1.393 . S
C1126 H1118 0.950 . S
C1126 C1124 1.391 . S
C1126 C1127 1.400 . S
C1127 C1126 1.400 . S
C1127 C1128 1.398 . S
C1127 C1133 1.491 . S
C1128 H1119 0.950 . S
C1128 C1127 1.398 . S
C1128 C1129 1.391 . S
C1129 H1117 0.950 . S
C1129 C1125 1.393 . S
C1129 C1128 1.391 . S
C1130 H1120 0.950 . S
C1130 C1131 1.386 . S
C1130 C1132 1.391 . S
C1131 C1130 1.386 . S
C1131 C1135 1.393 . S
C1132 H1121 0.950 . S
C1132 C1130 1.391 . S
C1132 C1133 1.400 . S
C1133 C1127 1.491 . S
C1133 C1132 1.400 . S
C1133 C1134 1.398 . S
C1134 H1122 0.950 . S
C1134 C1133 1.398 . S
C1134 C1135 1.391 . S
C1135 H1123 0.950 . S
C1135 C1131 1.393 . S
C1135 C1134 1.391 . S
H1136 C1144 0.950 . S
H1137 C1149 0.950 . S
H1138 C1146 0.950 . S
H1139 C1148 0.950 . S
H1140 C1150 0.950 . S
H1141 C1152 0.950 . S
H1142 C1154 0.950 . S
H1143 C1155 0.950 . S
C1144 H1136 0.950 . S
C1144 C1145 1.386 . S
C1144 C1146 1.391 . S
C1145 C1144 1.386 . S
C1145 C1149 1.393 . S
C1146 H1138 0.950 . S
C1146 C1144 1.391 . S
C1146 C1147 1.400 . S
C1147 C1146 1.400 . S
C1147 C1148 1.398 . S
C1147 C1153 1.491 . S
C1148 H1139 0.950 . S
C1148 C1147 1.398 . S
C1148 C1149 1.391 . S
C1149 H1137 0.950 . S
C1149 C1145 1.393 . S
C1149 C1148 1.391 . S
C1150 H1140 0.950 . S
C1150 C1151 1.386 . S
C1150 C1152 1.391 . S
C1151 C1150 1.386 . S
C1151 C1155 1.393 . S
C1152 H1141 0.950 . S
C1152 C1150 1.391 . S
C1152 C1153 1.400 . S
C1153 C1147 1.491 . S
C1153 C1152 1.400 . S
C1153 C1154 1.398 . S
C1154 H1142 0.950 . S
C1154 C1153 1.398 . S
C1154 C1155 1.391 . S
C1155 H1143 0.950 . S
C1155 C1151 1.393 . S
C1155 C1154 1.391 . S
H1156 C1164 0.950 . S
H1157 C1169 0.950 . S
H1158 C1166 0.950 . S
H1159 C1168 0.950 . S
H1160 C1170 0.950 . S
H1161 C1172 0.950 . S
H1162 C1174 0.950 . S
H1163 C1175 0.950 . S
C1164 H1156 0.950 . S
C1164 C1165 1.386 . S
C1164 C1166 1.391 . S
C1165 C1164 1.386 . S
C1165 C1169 1.393 . S
C1166 H1158 0.950 . S
C1166 C1164 1.391 . S
C1166 C1167 1.400 . S
C1167 C1166 1.400 . S
C1167 C1168 1.398 . S
C1167 C1173 1.491 . S
C1168 H1159 0.950 . S
C1168 C1167 1.398 . S
C1168 C1169 1.391 . S
C1169 H1157 0.950 . S
C1169 C1165 1.393 . S
C1169 C1168 1.391 . S
C1170 H1160 0.950 . S
C1170 C1171 1.386 . S
C1170 C1172 1.391 . S
C1171 C1170 1.386 . S
C1171 C1175 1.393 . S
C1172 H1161 0.950 . S
C1172 C1170 1.391 . S
C1172 C1173 1.400 . S
C1173 C1167 1.491 . S
C1173 C1172 1.400 . S
C1173 C1174 1.398 . S
C1174 H1162 0.950 . S
C1174 C1173 1.398 . S
C1174 C1175 1.391 . S
C1175 H1163 0.950 . S
C1175 C1171 1.393 . S
C1175 C1174 1.391 . S
H1176 C1184 0.950 . S
H1177 C1189 0.950 . S
H1178 C1186 0.950 . S
H1179 C1188 0.950 . S
H1180 C1190 0.950 . S
H1181 C1192 0.950 . S
H1182 C1194 0.950 . S
H1183 C1195 0.950 . S
C1184 H1176 0.950 . S
C1184 C1185 1.386 . S
C1184 C1186 1.391 . S
C1185 C1184 1.386 . S
C1185 C1189 1.393 . S
C1186 H1178 0.950 . S
C1186 C1184 1.391 . S
C1186 C1187 1.400 . S
C1187 C1186 1.400 . S
C1187 C1188 1.398 . S
C1187 C1193 1.491 . S
C1188 H1179 0.950 . S
C1188 C1187 1.398 . S
C1188 C1189 1.391 . S
C1189 H1177 0.950 . S
C1189 C1185 1.393 . S
C1189 C1188 1.391 . S
C1190 H1180 0.950 . S
C1190 C1191 1.386 . S
C1190 C1192 1.391 . S
C1191 C1190 1.386 . S
C1191 C1195 1.393 . S
C1192 H1181 0.950 . S
C1192 C1190 1.391 . S
C1192 C1193 1.400 . S
C1193 C1187 1.491 . S
C1193 C1192 1.400 . S
C1193 C1194 1.398 . S
C1194 H1182 0.950 . S
C1194 C1193 1.398 . S
C1194 C1195 1.391 . S
C1195 H1183 0.950 . S
C1195 C1191 1.393 . S
C1195 C1194 1.391 . S
H1196 C1204 0.950 . S
H1197 C1209 0.950 . S
H1198 C1206 0.950 . S
H1199 C1208 0.950 . S
H1200 C1210 0.950 . S
H1201 C1212 0.950 . S
H1202 C1214 0.950 . S
H1203 C1215 0.950 . S
C1204 H1196 0.950 . S
C1204 C1205 1.386 . S
C1204 C1206 1.391 . S
C1205 C1204 1.386 . S
C1205 C1209 1.393 . S
C1206 H1198 0.950 . S
C1206 C1204 1.391 . S
C1206 C1207 1.400 . S
C1207 C1206 1.400 . S
C1207 C1208 1.398 . S
C1207 C1213 1.491 . S
C1208 H1199 0.950 . S
C1208 C1207 1.398 . S
C1208 C1209 1.391 . S
C1209 H1197 0.950 . S
C1209 C1205 1.393 . S
C1209 C1208 1.391 . S
C1210 H1200 0.950 . S
C1210 C1211 1.386 . S
C1210 C1212 1.391 . S
C1211 C1210 1.386 . S
C1211 C1215 1.393 . S
C1212 H1201 0.950 . S
C1212 C1210 1.391 . S
C1212 C1213 1.400 . S
C1213 C1207 1.491 . S
C1213 C1212 1.400 . S
C1213 C1214 1.398 . S
C1214 H1202 0.950 . S
C1214 C1213 1.398 . S
C1214 C1215 1.391 . S
C1215 H1203 0.950 . S
C1215 C1211 1.393 . S
C1215 C1214 1.391 . S
H1216 C1224 0.950 . S
H1217 C1229 0.950 . S
H1218 C1226 0.950 . S
H1219 C1228 0.950 . S
H1220 C1230 0.950 . S
H1221 C1232 0.950 . S
H1222 C1234 0.950 . S
H1223 C1235 0.950 . S
C1224 H1216 0.950 . S
C1224 C1225 1.386 . S
C1224 C1226 1.391 . S
C1225 C1224 1.386 . S
C1225 C1229 1.393 . S
C1226 H1218 0.950 . S
C1226 C1224 1.391 . S
C1226 C1227 1.400 . S
C1227 C1226 1.400 . S
C1227 C1228 1.398 . S
C1227 C1233 1.491 . S
C1228 H1219 0.950 . S
C1228 C1227 1.398 . S
C1228 C1229 1.391 . S
C1229 H1217 0.950 . S
C1229 C1225 1.393 . S
C1229 C1228 1.391 . S
C1230 H1220 0.950 . S
C1230 C1231 1.386 . S
C1230 C1232 1.391 . S
C1231 C1230 1.386 . S
C1231 C1235 1.393 . S
C1232 H1221 0.950 . S
C1232 C1230 1.391 . S
C1232 C1233 1.400 . S
C1233 C1227 1.491 . S
C1233 C1232 1.400 . S
C1233 C1234 1.398 . S
C1234 H1222 0.950 . S
C1234 C1233 1.398 . S
C1234 C1235 1.391 . S
C1235 H1223 0.950 . S
C1235 C1231 1.393 . S
C1235 C1234 1.391 . S
H1236 C1244 0.950 . S
H1237 C1249 0.950 . S
H1238 C1246 0.950 . S
H1239 C1248 0.950 . S
H1240 C1250 0.950 . S
H1241 C1252 0.950 . S
H1242 C1254 0.950 . S
H1243 C1255 0.950 . S
C1244 H1236 0.950 . S
C1244 C1245 1.386 . S
C1244 C1246 1.391 . S
C1245 C1244 1.386 . S
C1245 C1249 1.393 . S
C1246 H1238 0.950 . S
C1246 C1244 1.391 . S
C1246 C1247 1.400 . S
C1247 C1246 1.400 . S
C1247 C1248 1.398 . S
C1247 C1253 1.491 . S
C1248 H1239 0.950 . S
C1248 C1247 1.398 . S
C1248 C1249 1.391 . S
C1249 H1237 0.950 . S
C1249 C1245 1.393 . S
C1249 C1248 1.391 . S
C1250 H1240 0.950 . S
C1250 C1251 1.386 . S
C1250 C1252 1.391 . S
C1251 C1250 1.386 . S
C1251 C1255 1.393 . S
C1252 H1241 0.950 . S
C1252 C1250 1.391 . S
C1252 C1253 1.400 . S
C1253 C1247 1.491 . S
C1253 C1252 1.400 . S
C1253 C1254 1.398 . S
C1254 H1242 0.950 . S
C1254 C1253 1.398 . S
C1254 C1255 1.391 . S
C1255 H1243 0.950 . S
C1255 C1251 1.393 . S
C1255 C1254 1.391 . S
H1256 C1264 0.950 . S
H1257 C1269 0.950 . S
H1258 C1266 0.950 . S
H1259 C1268 0.950 . S
H1260 C1270 0.950 . S
H1261 C1272 0.950 . S
H1262 C1274 0.950 . S
H1263 C1275 0.950 . S
C1264 H1256 0.950 . S
C1264 C1265 1.386 . S
C1264 C1266 1.391 . S
C1265 C1264 1.386 . S
C1265 C1269 1.393 . S
C1266 H1258 0.950 . S
C1266 C1264 1.391 . S
C1266 C1267 1.400 . S
C1267 C1266 1.400 . S
C1267 C1268 1.398 . S
C1267 C1273 1.491 . S
C1268 H1259 0.950 . S
C1268 C1267 1.398 . S
C1268 C1269 1.391 . S
C1269 H1257 0.950 . S
C1269 C1265 1.393 . S
C1269 C1268 1.391 . S
C1270 H1260 0.950 . S
C1270 C1271 1.386 . S
C1270 C1272 1.391 . S
C1271 C1270 1.386 . S
C1271 C1275 1.393 . S
C1272 H1261 0.950 . S
C1272 C1270 1.391 . S
C1272 C1273 1.400 . S
C1273 C1267 1.491 . S
C1273 C1272 1.400 . S
C1273 C1274 1.398 . S
C1274 H1262 0.950 . S
C1274 C1273 1.398 . S
C1274 C1275 1.391 . S
C1275 H1263 0.950 . S
C1275 C1271 1.393 . S
C1275 C1274 1.391 . S
H1276 C1284 0.950 . S
H1277 C1289 0.950 . S
H1278 C1286 0.950 . S
H1279 C1288 0.950 . S
H1280 C1290 0.950 . S
H1281 C1292 0.950 . S
H1282 C1294 0.950 . S
H1283 C1295 0.950 1_545 S
C1284 H1276 0.950 . S
C1284 C1285 1.386 . S
C1284 C1286 1.391 . S
C1285 C1284 1.386 . S
C1285 C1289 1.393 . S
C1286 H1278 0.950 . S
C1286 C1284 1.391 . S
C1286 C1287 1.400 . S
C1287 C1286 1.400 . S
C1287 C1288 1.398 . S
C1287 C1293 1.491 . S
C1288 H1279 0.950 . S
C1288 C1287 1.398 . S
C1288 C1289 1.391 . S
C1289 H1277 0.950 . S
C1289 C1285 1.393 . S
C1289 C1288 1.391 . S
C1290 H1280 0.950 . S
C1290 C1291 1.386 . S
C1290 C1292 1.391 . S
C1291 C1290 1.386 . S
C1291 C1295 1.393 . S
C1292 H1281 0.950 . S
C1292 C1290 1.391 . S
C1292 C1293 1.400 . S
C1293 C1287 1.491 . S
C1293 C1292 1.400 . S
C1293 C1294 1.398 . S
C1294 H1282 0.950 . S
C1294 C1293 1.398 . S
C1294 C1295 1.391 . S
C1295 H1283 0.950 1_565 S
C1295 C1291 1.393 . S
C1295 C1294 1.391 . S
H1296 C1304 0.950 . S
H1297 C1309 0.950 . S
H1298 C1306 0.950 . S
H1299 C1308 0.950 . S
H1300 C1310 0.950 . S
H1301 C1312 0.950 . S
H1302 C1314 0.950 . S
H1303 C1315 0.950 . S
C1304 H1296 0.950 . S
C1304 C1305 1.386 . S
C1304 C1306 1.391 . S
C1305 C1304 1.386 . S
C1305 C1309 1.393 . S
C1306 H1298 0.950 . S
C1306 C1304 1.391 . S
C1306 C1307 1.400 . S
C1307 C1306 1.400 . S
C1307 C1308 1.398 . S
C1307 C1313 1.491 . S
C1308 H1299 0.950 . S
C1308 C1307 1.398 . S
C1308 C1309 1.391 . S
C1309 H1297 0.950 . S
C1309 C1305 1.393 . S
C1309 C1308 1.391 . S
C1310 H1300 0.950 . S
C1310 C1311 1.386 . S
C1310 C1312 1.391 . S
C1311 C1310 1.386 . S
C1311 C1315 1.393 . S
C1312 H1301 0.950 . S
C1312 C1310 1.391 . S
C1312 C1313 1.400 . S
C1313 C1307 1.491 . S
C1313 C1312 1.400 . S
C1313 C1314 1.398 . S
C1314 H1302 0.950 . S
C1314 C1313 1.398 . S
C1314 C1315 1.391 . S
C1315 H1303 0.950 . S
C1315 C1311 1.393 . S
C1315 C1314 1.391 . S
H1316 C1324 0.950 . S
H1317 C1329 0.950 . S
H1318 C1326 0.950 . S
H1319 C1328 0.950 . S
H1320 C1330 0.950 . S
H1321 C1332 0.950 . S
H1322 C1334 0.950 . S
H1323 C1335 0.950 . S
C1324 H1316 0.950 . S
C1324 C1325 1.386 . S
C1324 C1326 1.391 . S
C1325 C1324 1.386 . S
C1325 C1329 1.393 . S
C1326 H1318 0.950 . S
C1326 C1324 1.391 . S
C1326 C1327 1.400 . S
C1327 C1326 1.400 . S
C1327 C1328 1.398 . S
C1327 C1333 1.491 . S
C1328 H1319 0.950 . S
C1328 C1327 1.398 . S
C1328 C1329 1.391 . S
C1329 H1317 0.950 . S
C1329 C1325 1.393 . S
C1329 C1328 1.391 . S
C1330 H1320 0.950 . S
C1330 C1331 1.386 . S
C1330 C1332 1.391 . S
C1331 C1330 1.386 . S
C1331 C1335 1.393 . S
C1332 H1321 0.950 . S
C1332 C1330 1.391 . S
C1332 C1333 1.400 . S
C1333 C1327 1.491 . S
C1333 C1332 1.400 . S
C1333 C1334 1.398 . S
C1334 H1322 0.950 . S
C1334 C1333 1.398 . S
C1334 C1335 1.391 . S
C1335 H1323 0.950 . S
C1335 C1331 1.393 . S
C1335 C1334 1.391 . S
H1336 C1344 0.950 . S
H1337 C1349 0.950 . S
H1338 C1346 0.950 . S
H1339 C1348 0.950 . S
H1340 C1350 0.950 . S
H1341 C1352 0.950 . S
H1342 C1354 0.950 . S
H1343 C1355 0.950 . S
C1344 H1336 0.950 . S
C1344 C1345 1.386 . S
C1344 C1346 1.391 . S
C1345 C1344 1.386 . S
C1345 C1349 1.393 . S
C1346 H1338 0.950 . S
C1346 C1344 1.391 . S
C1346 C1347 1.400 . S
C1347 C1346 1.400 . S
C1347 C1348 1.398 . S
C1347 C1353 1.491 . S
C1348 H1339 0.950 . S
C1348 C1347 1.398 . S
C1348 C1349 1.391 . S
C1349 H1337 0.950 . S
C1349 C1345 1.393 . S
C1349 C1348 1.391 . S
C1350 H1340 0.950 . S
C1350 C1351 1.386 . S
C1350 C1352 1.391 . S
C1351 C1350 1.386 . S
C1351 C1355 1.393 . S
C1352 H1341 0.950 . S
C1352 C1350 1.391 . S
C1352 C1353 1.400 . S
C1353 C1347 1.491 . S
C1353 C1352 1.400 . S
C1353 C1354 1.398 . S
C1354 H1342 0.950 . S
C1354 C1353 1.398 . S
C1354 C1355 1.391 . S
C1355 H1343 0.950 . S
C1355 C1351 1.393 . S
C1355 C1354 1.391 . S
H1356 C1364 0.950 . S
H1357 C1369 0.950 . S
H1358 C1366 0.950 . S
H1359 C1368 0.950 . S
H1360 C1370 0.950 . S
H1361 C1372 0.950 . S
H1362 C1374 0.950 . S
H1363 C1375 0.950 . S
C1364 H1356 0.950 . S
C1364 C1365 1.386 . S
C1364 C1366 1.391 . S
C1365 C1364 1.386 . S
C1365 C1369 1.393 . S
C1366 H1358 0.950 . S
C1366 C1364 1.391 . S
C1366 C1367 1.400 . S
C1367 C1366 1.400 . S
C1367 C1368 1.398 . S
C1367 C1373 1.491 . S
C1368 H1359 0.950 . S
C1368 C1367 1.398 . S
C1368 C1369 1.391 . S
C1369 H1357 0.950 . S
C1369 C1365 1.393 . S
C1369 C1368 1.391 . S
C1370 H1360 0.950 . S
C1370 C1371 1.386 . S
C1370 C1372 1.391 . S
C1371 C1370 1.386 . S
C1371 C1375 1.393 . S
C1372 H1361 0.950 . S
C1372 C1370 1.391 . S
C1372 C1373 1.400 . S
C1373 C1367 1.491 . S
C1373 C1372 1.400 . S
C1373 C1374 1.398 . S
C1374 H1362 0.950 . S
C1374 C1373 1.398 . S
C1374 C1375 1.391 . S
C1375 H1363 0.950 . S
C1375 C1371 1.393 . S
C1375 C1374 1.391 . S
H1376 C1384 0.950 . S
H1377 C1389 0.950 . S
H1378 C1386 0.950 . S
H1379 C1388 0.950 . S
H1380 C1390 0.950 . S
H1381 C1392 0.950 . S
H1382 C1394 0.950 . S
H1383 C1395 0.950 . S
C1384 H1376 0.950 . S
C1384 C1385 1.386 . S
C1384 C1386 1.391 . S
C1385 C1384 1.386 . S
C1385 C1389 1.393 . S
C1386 H1378 0.950 . S
C1386 C1384 1.391 . S
C1386 C1387 1.400 . S
C1387 C1386 1.400 . S
C1387 C1388 1.398 . S
C1387 C1393 1.491 . S
C1388 H1379 0.950 . S
C1388 C1387 1.398 . S
C1388 C1389 1.391 . S
C1389 H1377 0.950 . S
C1389 C1385 1.393 . S
C1389 C1388 1.391 . S
C1390 H1380 0.950 . S
C1390 C1391 1.386 . S
C1390 C1392 1.391 . S
C1391 C1390 1.386 . S
C1391 C1395 1.393 . S
C1392 H1381 0.950 . S
C1392 C1390 1.391 . S
C1392 C1393 1.400 . S
C1393 C1387 1.491 . S
C1393 C1392 1.400 . S
C1393 C1394 1.398 . S
C1394 H1382 0.950 . S
C1394 C1393 1.398 . S
C1394 C1395 1.391 . S
C1395 H1383 0.950 . S
C1395 C1391 1.393 . S
C1395 C1394 1.391 . S
H1396 C1404 0.950 . S
H1397 C1409 0.950 . S
H1398 C1406 0.950 . S
H1399 C1408 0.950 . S
H1400 C1410 0.950 1_545 S
H1401 C1412 0.950 . S
H1402 C1414 0.950 . S
H1403 C1415 0.950 . S
C1404 H1396 0.950 . S
C1404 C1405 1.386 . S
C1404 C1406 1.391 . S
C1405 C1404 1.386 . S
C1405 C1409 1.393 . S
C1406 H1398 0.950 . S
C1406 C1404 1.391 . S
C1406 C1407 1.400 . S
C1407 C1406 1.400 . S
C1407 C1408 1.398 . S
C1407 C1413 1.491 . S
C1408 H1399 0.950 . S
C1408 C1407 1.398 . S
C1408 C1409 1.391 . S
C1409 H1397 0.950 . S
C1409 C1405 1.393 . S
C1409 C1408 1.391 . S
C1410 H1400 0.950 1_565 S
C1410 C1411 1.386 . S
C1410 C1412 1.391 . S
C1411 C1410 1.386 . S
C1411 C1415 1.393 . S
C1412 H1401 0.950 . S
C1412 C1410 1.391 . S
C1412 C1413 1.400 . S
C1413 C1407 1.491 . S
C1413 C1412 1.400 . S
C1413 C1414 1.398 . S
C1414 H1402 0.950 . S
C1414 C1413 1.398 . S
C1414 C1415 1.391 . S
C1415 H1403 0.950 . S
C1415 C1411 1.393 . S
C1415 C1414 1.391 . S
H1416 C1424 0.950 . S
H1417 C1429 0.950 1_545 S
H1418 C1426 0.950 . S
H1419 C1428 0.950 . S
H1420 C1430 0.950 . S
H1421 C1432 0.950 . S
H1422 C1434 0.950 . S
H1423 C1435 0.950 . S
C1424 H1416 0.950 . S
C1424 C1425 1.386 . S
C1424 C1426 1.391 . S
C1425 C1424 1.386 . S
C1425 C1429 1.393 . S
C1426 H1418 0.950 . S
C1426 C1424 1.391 . S
C1426 C1427 1.400 . S
C1427 C1426 1.400 . S
C1427 C1428 1.398 . S
C1427 C1433 1.491 . S
C1428 H1419 0.950 . S
C1428 C1427 1.398 . S
C1428 C1429 1.391 . S
C1429 H1417 0.950 1_565 S
C1429 C1425 1.393 . S
C1429 C1428 1.391 . S
C1430 H1420 0.950 . S
C1430 C1431 1.386 . S
C1430 C1432 1.391 . S
C1431 C1430 1.386 . S
C1431 C1435 1.393 . S
C1432 H1421 0.950 . S
C1432 C1430 1.391 . S
C1432 C1433 1.400 . S
C1433 C1427 1.491 . S
C1433 C1432 1.400 . S
C1433 C1434 1.398 . S
C1434 H1422 0.950 . S
C1434 C1433 1.398 . S
C1434 C1435 1.391 . S
C1435 H1423 0.950 . S
C1435 C1431 1.393 . S
C1435 C1434 1.391 . S
H1436 C1444 0.950 . S
H1437 C1449 0.950 . S
H1438 C1446 0.950 . S
H1439 C1448 0.950 . S
H1440 C1450 0.950 . S
H1441 C1452 0.950 . S
H1442 C1454 0.950 . S
H1443 C1455 0.950 . S
C1444 H1436 0.950 . S
C1444 C1445 1.386 . S
C1444 C1446 1.391 . S
C1445 C1444 1.386 . S
C1445 C1449 1.393 . S
C1446 H1438 0.950 . S
C1446 C1444 1.391 . S
C1446 C1447 1.400 . S
C1447 C1446 1.400 . S
C1447 C1448 1.398 . S
C1447 C1453 1.491 . S
C1448 H1439 0.950 . S
C1448 C1447 1.398 . S
C1448 C1449 1.391 . S
C1449 H1437 0.950 . S
C1449 C1445 1.393 . S
C1449 C1448 1.391 . S
C1450 H1440 0.950 . S
C1450 C1451 1.386 . S
C1450 C1452 1.391 . S
C1451 C1450 1.386 . S
C1451 C1455 1.393 . S
C1452 H1441 0.950 . S
C1452 C1450 1.391 . S
C1452 C1453 1.400 . S
C1453 C1447 1.491 . S
C1453 C1452 1.400 . S
C1453 C1454 1.398 . S
C1454 H1442 0.950 . S
C1454 C1453 1.398 . S
C1454 C1455 1.391 . S
C1455 H1443 0.950 . S
C1455 C1451 1.393 . S
C1455 C1454 1.391 . S
H1456 C1464 0.950 . S
H1457 C1469 0.950 . S
H1458 C1466 0.950 . S
H1459 C1468 0.950 . S
H1460 C1470 0.950 . S
H1461 C1472 0.950 . S
H1462 C1474 0.950 . S
H1463 C1475 0.950 . S
C1464 H1456 0.950 . S
C1464 C1465 1.386 . S
C1464 C1466 1.391 . S
C1465 C1464 1.386 . S
C1465 C1469 1.393 . S
C1466 H1458 0.950 . S
C1466 C1464 1.391 . S
C1466 C1467 1.400 . S
C1467 C1466 1.400 . S
C1467 C1468 1.398 . S
C1467 C1473 1.491 . S
C1468 H1459 0.950 . S
C1468 C1467 1.398 . S
C1468 C1469 1.391 . S
C1469 H1457 0.950 . S
C1469 C1465 1.393 . S
C1469 C1468 1.391 . S
C1470 H1460 0.950 . S
C1470 C1471 1.386 . S
C1470 C1472 1.391 . S
C1471 C1470 1.386 . S
C1471 C1475 1.393 . S
C1472 H1461 0.950 . S
C1472 C1470 1.391 . S
C1472 C1473 1.400 . S
C1473 C1467 1.491 . S
C1473 C1472 1.400 . S
C1473 C1474 1.398 . S
C1474 H1462 0.950 . S
C1474 C1473 1.398 . S
C1474 C1475 1.391 . S
C1475 H1463 0.950 . S
C1475 C1471 1.393 . S
C1475 C1474 1.391 . S
H1476 C1484 0.950 . S
H1477 C1489 0.950 . S
H1478 C1486 0.950 . S
H1479 C1488 0.950 . S
H1480 C1490 0.950 . S
H1481 C1492 0.950 . S
H1482 C1494 0.950 . S
H1483 C1495 0.950 . S
C1484 H1476 0.950 . S
C1484 C1485 1.386 . S
C1484 C1486 1.391 . S
C1485 C1484 1.386 . S
C1485 C1489 1.393 . S
C1486 H1478 0.950 . S
C1486 C1484 1.391 . S
C1486 C1487 1.400 . S
C1487 C1486 1.400 . S
C1487 C1488 1.398 . S
C1487 C1493 1.491 . S
C1488 H1479 0.950 . S
C1488 C1487 1.398 . S
C1488 C1489 1.391 . S
C1489 H1477 0.950 . S
C1489 C1485 1.393 . S
C1489 C1488 1.391 . S
C1490 H1480 0.950 . S
C1490 C1491 1.386 . S
C1490 C1492 1.391 . S
C1491 C1490 1.386 . S
C1491 C1495 1.393 . S
C1492 H1481 0.950 . S
C1492 C1490 1.391 . S
C1492 C1493 1.400 . S
C1493 C1487 1.491 . S
C1493 C1492 1.400 . S
C1493 C1494 1.398 . S
C1494 H1482 0.950 . S
C1494 C1493 1.398 . S
C1494 C1495 1.391 . S
C1495 H1483 0.950 . S
C1495 C1491 1.393 . S
C1495 C1494 1.391 . S
H1496 C1504 0.950 . S
H1497 C1509 0.950 . S
H1498 C1506 0.950 . S
H1499 C1508 0.950 . S
H1500 C1510 0.950 . S
H1501 C1512 0.950 . S
H1502 C1514 0.950 . S
H1503 C1515 0.950 . S
C1504 H1496 0.950 . S
C1504 C1505 1.386 . S
C1504 C1506 1.391 . S
C1505 C1504 1.386 . S
C1505 C1509 1.393 . S
C1506 H1498 0.950 . S
C1506 C1504 1.391 . S
C1506 C1507 1.400 . S
C1507 C1506 1.400 . S
C1507 C1508 1.398 . S
C1507 C1513 1.491 . S
C1508 H1499 0.950 . S
C1508 C1507 1.398 . S
C1508 C1509 1.391 . S
C1509 H1497 0.950 . S
C1509 C1505 1.393 . S
C1509 C1508 1.391 . S
C1510 H1500 0.950 . S
C1510 C1511 1.386 . S
C1510 C1512 1.391 . S
C1511 C1510 1.386 . S
C1511 C1515 1.393 . S
C1512 H1501 0.950 . S
C1512 C1510 1.391 . S
C1512 C1513 1.400 . S
C1513 C1507 1.491 . S
C1513 C1512 1.400 . S
C1513 C1514 1.398 . S
C1514 H1502 0.950 . S
C1514 C1513 1.398 . S
C1514 C1515 1.391 . S
C1515 H1503 0.950 . S
C1515 C1511 1.393 . S
C1515 C1514 1.391 . S
H1516 C1524 0.950 . S
H1517 C1529 0.950 . S
H1518 C1526 0.950 . S
H1519 C1528 0.950 . S
H1520 C1530 0.950 . S
H1521 C1532 0.950 . S
H1522 C1534 0.950 . S
H1523 C1535 0.950 . S
C1524 H1516 0.950 . S
C1524 C1525 1.386 . S
C1524 C1526 1.391 . S
C1525 C1524 1.386 . S
C1525 C1529 1.393 . S
C1526 H1518 0.950 . S
C1526 C1524 1.391 . S
C1526 C1527 1.400 . S
C1527 C1526 1.400 . S
C1527 C1528 1.398 . S
C1527 C1533 1.491 . S
C1528 H1519 0.950 . S
C1528 C1527 1.398 . S
C1528 C1529 1.391 . S
C1529 H1517 0.950 . S
C1529 C1525 1.393 . S
C1529 C1528 1.391 . S
C1530 H1520 0.950 . S
C1530 C1531 1.386 . S
C1530 C1532 1.391 . S
C1531 C1530 1.386 . S
C1531 C1535 1.393 . S
C1532 H1521 0.950 . S
C1532 C1530 1.391 . S
C1532 C1533 1.400 . S
C1533 C1527 1.491 . S
C1533 C1532 1.400 . S
C1533 C1534 1.398 . S
C1534 H1522 0.950 . S
C1534 C1533 1.398 . S
C1534 C1535 1.391 . S
C1535 H1523 0.950 . S
C1535 C1531 1.393 . S
C1535 C1534 1.391 . S
H1536 C1544 0.950 . S
H1537 C1549 0.950 . S
H1538 C1546 0.950 . S
H1539 C1548 0.950 . S
H1540 C1550 0.950 . S
H1541 C1552 0.950 . S
H1542 C1554 0.950 . S
H1543 C1555 0.950 . S
C1544 H1536 0.950 . S
C1544 C1545 1.386 . S
C1544 C1546 1.391 . S
C1545 C1544 1.386 . S
C1545 C1549 1.393 . S
C1546 H1538 0.950 . S
C1546 C1544 1.391 . S
C1546 C1547 1.400 . S
C1547 C1546 1.400 . S
C1547 C1548 1.398 . S
C1547 C1553 1.491 . S
C1548 H1539 0.950 . S
C1548 C1547 1.398 . S
C1548 C1549 1.391 . S
C1549 H1537 0.950 . S
C1549 C1545 1.393 . S
C1549 C1548 1.391 . S
C1550 H1540 0.950 . S
C1550 C1551 1.386 . S
C1550 C1552 1.391 . S
C1551 C1550 1.386 . S
C1551 C1555 1.393 . S
C1552 H1541 0.950 . S
C1552 C1550 1.391 . S
C1552 C1553 1.400 . S
C1553 C1547 1.491 . S
C1553 C1552 1.400 . S
C1553 C1554 1.398 . S
C1554 H1542 0.950 . S
C1554 C1553 1.398 . S
C1554 C1555 1.391 . S
C1555 H1543 0.950 . S
C1555 C1551 1.393 . S
C1555 C1554 1.391 . S
H1556 C1564 0.950 1_545 S
H1557 C1569 0.950 . S
H1558 C1566 0.950 . S
H1559 C1568 0.950 . S
H1560 C1570 0.950 . S
H1561 C1572 0.950 . S
H1562 C1574 0.950 . S
H1563 C1575 0.950 . S
C1564 H1556 0.950 1_565 S
C1564 C1565 1.386 . S
C1564 C1566 1.391 . S
C1565 C1564 1.386 . S
C1565 C1569 1.393 . S
C1566 H1558 0.950 . S
C1566 C1564 1.391 . S
C1566 C1567 1.400 . S
C1567 C1566 1.400 . S
C1567 C1568 1.398 . S
C1567 C1573 1.491 . S
C1568 H1559 0.950 . S
C1568 C1567 1.398 . S
C1568 C1569 1.391 . S
C1569 H1557 0.950 . S
C1569 C1565 1.393 . S
C1569 C1568 1.391 . S
C1570 H1560 0.950 . S
C1570 C1571 1.386 . S
C1570 C1572 1.391 . S
C1571 C1570 1.386 . S
C1571 C1575 1.393 . S
C1572 H1561 0.950 . S
C1572 C1570 1.391 . S
C1572 C1573 1.400 . S
C1573 C1567 1.491 . S
C1573 C1572 1.400 . S
C1573 C1574 1.398 . S
C1574 H1562 0.950 . S
C1574 C1573 1.398 . S
C1574 C1575 1.391 . S
C1575 H1563 0.950 . S
C1575 C1571 1.393 . S
C1575 C1574 1.391 . S
H1576 C1584 0.950 . S
H1577 C1589 0.950 . S
H1578 C1586 0.950 . S
H1579 C1588 0.950 1_545 S
H1580 C1590 0.950 . S
H1581 C1592 0.950 . S
H1582 C1594 0.950 . S
H1583 C1595 0.950 . S
C1584 H1576 0.950 . S
C1584 C1585 1.386 . S
C1584 C1586 1.391 . S
C1585 C1584 1.386 . S
C1585 C1589 1.393 1_565 S
C1586 H1578 0.950 . S
C1586 C1584 1.391 . S
C1586 C1587 1.400 . S
C1587 C1586 1.400 . S
C1587 C1588 1.398 . S
C1587 C1593 1.491 . S
C1588 H1579 0.950 1_565 S
C1588 C1587 1.398 . S
C1588 C1589 1.391 1_565 S
C1589 H1577 0.950 . S
C1589 C1585 1.393 1_545 S
C1589 C1588 1.391 1_545 S
C1590 H1580 0.950 . S
C1590 C1591 1.386 . S
C1590 C1592 1.391 . S
C1591 C1590 1.386 . S
C1591 C1595 1.393 . S
C1592 H1581 0.950 . S
C1592 C1590 1.391 . S
C1592 C1593 1.400 . S
C1593 C1587 1.491 . S
C1593 C1592 1.400 . S
C1593 C1594 1.398 . S
C1594 H1582 0.950 . S
C1594 C1593 1.398 . S
C1594 C1595 1.391 . S
C1595 H1583 0.950 . S
C1595 C1591 1.393 . S
C1595 C1594 1.391 . S
H1596 C1604 0.950 . S
H1597 C1609 0.950 . S
H1598 C1606 0.950 . S
H1599 C1608 0.950 . S
H1600 C1610 0.950 . S
H1601 C1612 0.950 . S
H1602 C1614 0.950 . S
H1603 C1615 0.950 . S
C1604 H1596 0.950 . S
C1604 C1605 1.386 . S
C1604 C1606 1.391 . S
C1605 C1604 1.386 . S
C1605 C1609 1.393 . S
C1606 H1598 0.950 . S
C1606 C1604 1.391 . S
C1606 C1607 1.400 . S
C1607 C1606 1.400 . S
C1607 C1608 1.398 . S
C1607 C1613 1.491 . S
C1608 H1599 0.950 . S
C1608 C1607 1.398 . S
C1608 C1609 1.391 . S
C1609 H1597 0.950 . S
C1609 C1605 1.393 . S
C1609 C1608 1.391 . S
C1610 H1600 0.950 . S
C1610 C1611 1.386 . S
C1610 C1612 1.391 . S
C1611 C1610 1.386 . S
C1611 C1615 1.393 . S
C1612 H1601 0.950 . S
C1612 C1610 1.391 . S
C1612 C1613 1.400 . S
C1613 C1607 1.491 . S
C1613 C1612 1.400 . S
C1613 C1614 1.398 . S
C1614 H1602 0.950 . S
C1614 C1613 1.398 . S
C1614 C1615 1.391 . S
C1615 H1603 0.950 . S
C1615 C1611 1.393 . S
C1615 C1614 1.391 . S
H1616 C1624 0.950 . S
H1617 C1629 0.950 . S
H1618 C1626 0.950 . S
H1619 C1628 0.950 . S
H1620 C1630 0.950 . S
H1621 C1632 0.950 . S
H1622 C1634 0.950 . S
H1623 C1635 0.950 . S
C1624 H1616 0.950 . S
C1624 C1625 1.386 . S
C1624 C1626 1.391 . S
C1625 C1624 1.386 . S
C1625 C1629 1.393 . S
C1626 H1618 0.950 . S
C1626 C1624 1.391 . S
C1626 C1627 1.400 . S
C1627 C1626 1.400 . S
C1627 C1628 1.398 . S
C1627 C1633 1.491 . S
C1628 H1619 0.950 . S
C1628 C1627 1.398 . S
C1628 C1629 1.391 . S
C1629 H1617 0.950 . S
C1629 C1625 1.393 . S
C1629 C1628 1.391 . S
C1630 H1620 0.950 . S
C1630 C1631 1.386 . S
C1630 C1632 1.391 . S
C1631 C1630 1.386 . S
C1631 C1635 1.393 . S
C1632 H1621 0.950 . S
C1632 C1630 1.391 . S
C1632 C1633 1.400 . S
C1633 C1627 1.491 . S
C1633 C1632 1.400 . S
C1633 C1634 1.398 . S
C1634 H1622 0.950 . S
C1634 C1633 1.398 . S
C1634 C1635 1.391 . S
C1635 H1623 0.950 . S
C1635 C1631 1.393 . S
C1635 C1634 1.391 . S
H1636 C1644 0.950 . S
H1637 C1649 0.950 . S
H1638 C1646 0.950 . S
H1639 C1648 0.950 . S
H1640 C1650 0.950 . S
H1641 C1652 0.950 . S
H1642 C1654 0.950 . S
H1643 C1655 0.950 . S
C1644 H1636 0.950 . S
C1644 C1645 1.386 . S
C1644 C1646 1.391 . S
C1645 C1644 1.386 . S
C1645 C1649 1.393 . S
C1646 H1638 0.950 . S
C1646 C1644 1.391 . S
C1646 C1647 1.400 . S
C1647 C1646 1.400 . S
C1647 C1648 1.398 . S
C1647 C1653 1.491 . S
C1648 H1639 0.950 . S
C1648 C1647 1.398 . S
C1648 C1649 1.391 . S
C1649 H1637 0.950 . S
C1649 C1645 1.393 . S
C1649 C1648 1.391 . S
C1650 H1640 0.950 . S
C1650 C1651 1.386 . S
C1650 C1652 1.391 . S
C1651 C1650 1.386 . S
C1651 C1655 1.393 . S
C1652 H1641 0.950 . S
C1652 C1650 1.391 . S
C1652 C1653 1.400 . S
C1653 C1647 1.491 . S
C1653 C1652 1.400 . S
C1653 C1654 1.398 . S
C1654 H1642 0.950 . S
C1654 C1653 1.398 . S
C1654 C1655 1.391 . S
C1655 H1643 0.950 . S
C1655 C1651 1.393 . S
C1655 C1654 1.391 . S
H1656 C1664 0.950 . S
H1657 C1669 0.950 . S
H1658 C1666 0.950 . S
H1659 C1668 0.950 . S
H1660 C1670 0.950 . S
H1661 C1672 0.950 . S
H1662 C1674 0.950 . S
H1663 C1675 0.950 . S
C1664 H1656 0.950 . S
C1664 C1665 1.386 . S
C1664 C1666 1.391 . S
C1665 C1664 1.386 . S
C1665 C1669 1.393 . S
C1666 H1658 0.950 . S
C1666 C1664 1.391 . S
C1666 C1667 1.400 . S
C1667 C1666 1.400 . S
C1667 C1668 1.398 . S
C1667 C1673 1.491 . S
C1668 H1659 0.950 . S
C1668 C1667 1.398 . S
C1668 C1669 1.391 . S
C1669 H1657 0.950 . S
C1669 C1665 1.393 . S
C1669 C1668 1.391 . S
C1670 H1660 0.950 . S
C1670 C1671 1.386 . S
C1670 C1672 1.391 . S
C1671 C1670 1.386 . S
C1671 C1675 1.393 . S
C1672 H1661 0.950 . S
C1672 C1670 1.391 . S
C1672 C1673 1.400 . S
C1673 C1667 1.491 . S
C1673 C1672 1.400 . S
C1673 C1674 1.398 . S
C1674 H1662 0.950 . S
C1674 C1673 1.398 . S
C1674 C1675 1.391 . S
C1675 H1663 0.950 . S
C1675 C1671 1.393 . S
C1675 C1674 1.391 . S
H1676 C1684 0.950 . S
H1677 C1689 0.950 . S
H1678 C1686 0.950 . S
H1679 C1688 0.950 . S
H1680 C1690 0.950 . S
H1681 C1692 0.950 . S
H1682 C1694 0.950 . S
H1683 C1695 0.950 . S
C1684 H1676 0.950 . S
C1684 C1685 1.386 . S
C1684 C1686 1.391 . S
C1685 C1684 1.386 . S
C1685 C1689 1.393 . S
C1686 H1678 0.950 . S
C1686 C1684 1.391 . S
C1686 C1687 1.400 . S
C1687 C1686 1.400 . S
C1687 C1688 1.398 . S
C1687 C1693 1.491 . S
C1688 H1679 0.950 . S
C1688 C1687 1.398 . S
C1688 C1689 1.391 . S
C1689 H1677 0.950 . S
C1689 C1685 1.393 . S
C1689 C1688 1.391 . S
C1690 H1680 0.950 . S
C1690 C1691 1.386 . S
C1690 C1692 1.391 . S
C1691 C1690 1.386 . S
C1691 C1695 1.393 . S
C1692 H1681 0.950 . S
C1692 C1690 1.391 . S
C1692 C1693 1.400 . S
C1693 C1687 1.491 . S
C1693 C1692 1.400 . S
C1693 C1694 1.398 . S
C1694 H1682 0.950 . S
C1694 C1693 1.398 . S
C1694 C1695 1.391 . S
C1695 H1683 0.950 . S
C1695 C1691 1.393 . S
C1695 C1694 1.391 . S
H1696 C1704 0.950 . S
H1697 C1709 0.950 . S
H1698 C1706 0.950 . S
H1699 C1708 0.950 . S
H1700 C1710 0.950 . S
H1701 C1712 0.950 . S
H1702 C1714 0.950 . S
H1703 C1715 0.950 . S
C1704 H1696 0.950 . S
C1704 C1705 1.386 . S
C1704 C1706 1.391 . S
C1705 C1704 1.386 . S
C1705 C1709 1.393 1_554 S
C1706 H1698 0.950 . S
C1706 C1704 1.391 . S
C1706 C1707 1.400 . S
C1707 C1706 1.400 . S
C1707 C1708 1.398 1_554 S
C1707 C1713 1.491 . S
C1708 H1699 0.950 . S
C1708 C1707 1.398 1_556 S
C1708 C1709 1.391 . S
C1709 H1697 0.950 . S
C1709 C1705 1.393 1_556 S
C1709 C1708 1.391 . S
C1710 H1700 0.950 . S
C1710 C1711 1.386 1_556 S
C1710 C1712 1.391 . S
C1711 C1710 1.386 1_554 S
C1711 C1715 1.393 . S
C1712 H1701 0.950 . S
C1712 C1710 1.391 . S
C1712 C1713 1.400 1_556 S
C1713 C1707 1.491 . S
C1713 C1712 1.400 1_554 S
C1713 C1714 1.398 . S
C1714 H1702 0.950 . S
C1714 C1713 1.398 . S
C1714 C1715 1.391 . S
C1715 H1703 0.950 . S
C1715 C1711 1.393 . S
C1715 C1714 1.391 . S
H1716 C1724 0.950 . S
H1717 C1729 0.950 . S
H1718 C1726 0.950 . S
H1719 C1728 0.950 . S
H1720 C1730 0.950 . S
H1721 C1732 0.950 . S
H1722 C1734 0.950 . S
H1723 C1735 0.950 . S
C1724 H1716 0.950 . S
C1724 C1725 1.386 . S
C1724 C1726 1.391 . S
C1725 C1724 1.386 . S
C1725 C1729 1.393 . S
C1726 H1718 0.950 . S
C1726 C1724 1.391 . S
C1726 C1727 1.400 . S
C1727 C1726 1.400 . S
C1727 C1728 1.398 . S
C1727 C1733 1.491 . S
C1728 H1719 0.950 . S
C1728 C1727 1.398 . S
C1728 C1729 1.391 . S
C1729 H1717 0.950 . S
C1729 C1725 1.393 . S
C1729 C1728 1.391 . S
C1730 H1720 0.950 . S
C1730 C1731 1.386 . S
C1730 C1732 1.391 . S
C1731 C1730 1.386 . S
C1731 C1735 1.393 . S
C1732 H1721 0.950 . S
C1732 C1730 1.391 . S
C1732 C1733 1.400 . S
C1733 C1727 1.491 . S
C1733 C1732 1.400 . S
C1733 C1734 1.398 . S
C1734 H1722 0.950 . S
C1734 C1733 1.398 . S
C1734 C1735 1.391 . S
C1735 H1723 0.950 . S
C1735 C1731 1.393 . S
C1735 C1734 1.391 . S
H1736 C1744 0.950 . S
H1737 C1749 0.950 . S
H1738 C1746 0.950 . S
H1739 C1748 0.942 1_545 S
H1740 C1750 0.950 . S
H1741 C1752 0.950 . S
H1742 C1754 0.950 . S
H1743 C1755 0.950 . S
C1744 H1736 0.950 . S
C1744 C1745 1.386 . S
C1744 C1746 1.391 . S
C1745 C1744 1.386 . S
C1745 C1749 1.393 1_565 S
C1746 H1738 0.950 . S
C1746 C1744 1.391 . S
C1746 C1747 1.400 . S
C1747 C1746 1.400 . S
C1747 C1748 1.398 . S
C1747 C1753 1.491 . S
C1748 H1739 0.942 1_565 S
C1748 C1747 1.398 . S
C1748 C1749 1.391 1_565 S
C1749 H1737 0.950 . S
C1749 C1745 1.393 1_545 S
C1749 C1748 1.391 1_545 S
C1750 H1740 0.950 . S
C1750 C1751 1.386 . S
C1750 C1752 1.391 . S
C1751 C1750 1.386 . S
C1751 C1755 1.393 . S
C1752 H1741 0.950 . S
C1752 C1750 1.391 . S
C1752 C1753 1.400 . S
C1753 C1747 1.491 . S
C1753 C1752 1.400 . S
C1753 C1754 1.398 . S
C1754 H1742 0.950 . S
C1754 C1753 1.398 . S
C1754 C1755 1.391 . S
C1755 H1743 0.950 . S
C1755 C1751 1.393 . S
C1755 C1754 1.391 . S
H1756 C1764 0.950 . S
H1757 C1769 0.950 . S
H1758 C1766 0.950 . S
H1759 C1768 0.950 1_545 S
H1760 C1770 0.950 . S
H1761 C1772 0.950 . S
H1762 C1774 0.950 . S
H1763 C1775 0.950 . S
C1764 H1756 0.950 . S
C1764 C1765 1.386 . S
C1764 C1766 1.391 . S
C1765 C1764 1.386 . S
C1765 C1769 1.393 1_565 S
C1766 H1758 0.950 . S
C1766 C1764 1.391 . S
C1766 C1767 1.400 . S
C1767 C1766 1.400 . S
C1767 C1768 1.398 . S
C1767 C1773 1.491 . S
C1768 H1759 0.950 1_565 S
C1768 C1767 1.398 . S
C1768 C1769 1.391 1_565 S
C1769 H1757 0.950 . S
C1769 C1765 1.393 1_545 S
C1769 C1768 1.391 1_545 S
C1770 H1760 0.950 . S
C1770 C1771 1.386 . S
C1770 C1772 1.391 . S
C1771 C1770 1.386 . S
C1771 C1775 1.393 . S
C1772 H1761 0.950 . S
C1772 C1770 1.391 . S
C1772 C1773 1.400 . S
C1773 C1767 1.491 . S
C1773 C1772 1.400 . S
C1773 C1774 1.398 . S
C1774 H1762 0.950 . S
C1774 C1773 1.398 . S
C1774 C1775 1.391 . S
C1775 H1763 0.950 . S
C1775 C1771 1.393 . S
C1775 C1774 1.391 . S
H1776 C1784 0.950 . S
H1777 C1789 0.950 . S
H1778 C1786 0.950 . S
H1779 C1788 0.950 . S
H1780 C1790 0.950 . S
H1781 C1792 0.950 . S
H1782 C1794 0.950 . S
H1783 C1795 0.950 . S
C1784 H1776 0.950 . S
C1784 C1785 1.386 . S
C1784 C1786 1.391 . S
C1785 C1784 1.386 . S
C1785 C1789 1.393 . S
C1786 H1778 0.950 . S
C1786 C1784 1.391 . S
C1786 C1787 1.400 . S
C1787 C1786 1.400 . S
C1787 C1788 1.398 . S
C1787 C1793 1.491 . S
C1788 H1779 0.950 . S
C1788 C1787 1.398 . S
C1788 C1789 1.391 . S
C1789 H1777 0.950 . S
C1789 C1785 1.393 . S
C1789 C1788 1.391 . S
C1790 H1780 0.950 . S
C1790 C1791 1.386 . S
C1790 C1792 1.391 . S
C1791 C1790 1.386 . S
C1791 C1795 1.393 . S
C1792 H1781 0.950 . S
C1792 C1790 1.391 . S
C1792 C1793 1.400 . S
C1793 C1787 1.491 . S
C1793 C1792 1.400 . S
C1793 C1794 1.398 . S
C1794 H1782 0.950 . S
C1794 C1793 1.398 . S
C1794 C1795 1.391 . S
C1795 H1783 0.950 . S
C1795 C1791 1.393 . S
C1795 C1794 1.391 . S
H1796 C1804 0.950 . S
H1797 C1809 0.950 . S
H1798 C1806 0.950 . S
H1799 C1808 0.950 . S
H1800 C1810 0.950 . S
H1801 C1812 0.950 . S
H1802 C1814 0.950 . S
H1803 C1815 0.950 . S
C1804 H1796 0.950 . S
C1804 C1805 1.386 . S
C1804 C1806 1.391 . S
C1805 C1804 1.386 . S
C1805 C1809 1.393 . S
C1806 H1798 0.950 . S
C1806 C1804 1.391 . S
C1806 C1807 1.400 . S
C1807 C1806 1.400 . S
C1807 C1808 1.398 . S
C1807 C1813 1.491 . S
C1808 H1799 0.950 . S
C1808 C1807 1.398 . S
C1808 C1809 1.391 . S
C1809 H1797 0.950 . S
C1809 C1805 1.393 . S
C1809 C1808 1.391 . S
C1810 H1800 0.950 . S
C1810 C1811 1.386 . S
C1810 C1812 1.391 . S
C1811 C1810 1.386 . S
C1811 C1815 1.393 . S
C1812 H1801 0.950 . S
C1812 C1810 1.391 . S
C1812 C1813 1.400 . S
C1813 C1807 1.491 . S
C1813 C1812 1.400 . S
C1813 C1814 1.398 . S
C1814 H1802 0.950 . S
C1814 C1813 1.398 . S
C1814 C1815 1.391 . S
C1815 H1803 0.950 . S
C1815 C1811 1.393 . S
C1815 C1814 1.391 . S
H1816 C1824 0.950 . S
H1817 C1829 0.950 . S
H1818 C1826 0.950 . S
H1819 C1828 0.950 . S
H1820 C1830 0.950 . S
H1821 C1832 0.950 . S
H1822 C1834 0.950 . S
H1823 C1835 0.950 . S
C1824 H1816 0.950 . S
C1824 C1825 1.386 . S
C1824 C1826 1.391 . S
C1825 C1824 1.386 . S
C1825 C1829 1.393 . S
C1826 H1818 0.950 . S
C1826 C1824 1.391 . S
C1826 C1827 1.400 . S
C1827 C1826 1.400 . S
C1827 C1828 1.398 . S
C1827 C1833 1.491 . S
C1828 H1819 0.950 . S
C1828 C1827 1.398 . S
C1828 C1829 1.391 . S
C1829 H1817 0.950 . S
C1829 C1825 1.393 . S
C1829 C1828 1.391 . S
C1830 H1820 0.950 . S
C1830 C1831 1.386 . S
C1830 C1832 1.391 . S
C1831 C1830 1.386 . S
C1831 C1835 1.393 . S
C1832 H1821 0.950 . S
C1832 C1830 1.391 . S
C1832 C1833 1.400 . S
C1833 C1827 1.491 . S
C1833 C1832 1.400 . S
C1833 C1834 1.398 . S
C1834 H1822 0.950 . S
C1834 C1833 1.398 . S
C1834 C1835 1.391 . S
C1835 H1823 0.950 . S
C1835 C1831 1.393 . S
C1835 C1834 1.391 . S
H1836 C1844 0.950 . S
H1837 C1849 0.950 . S
H1838 C1846 0.950 . S
H1839 C1848 0.950 . S
H1840 C1850 0.950 . S
H1841 C1852 0.950 . S
H1842 C1854 0.950 . S
H1843 C1855 0.950 . S
C1844 H1836 0.950 . S
C1844 C1845 1.386 . S
C1844 C1846 1.391 . S
C1845 C1844 1.386 . S
C1845 C1849 1.393 . S
C1846 H1838 0.950 . S
C1846 C1844 1.391 . S
C1846 C1847 1.400 . S
C1847 C1846 1.400 . S
C1847 C1848 1.398 . S
C1847 C1853 1.491 . S
C1848 H1839 0.950 . S
C1848 C1847 1.398 . S
C1848 C1849 1.391 . S
C1849 H1837 0.950 . S
C1849 C1845 1.393 . S
C1849 C1848 1.391 . S
C1850 H1840 0.950 . S
C1850 C1851 1.386 . S
C1850 C1852 1.391 . S
C1851 C1850 1.386 . S
C1851 C1855 1.393 . S
C1852 H1841 0.950 . S
C1852 C1850 1.391 . S
C1852 C1853 1.400 . S
C1853 C1847 1.491 . S
C1853 C1852 1.400 . S
C1853 C1854 1.398 . S
C1854 H1842 0.950 . S
C1854 C1853 1.398 . S
C1854 C1855 1.391 . S
C1855 H1843 0.950 . S
C1855 C1851 1.393 . S
C1855 C1854 1.391 . S
H1856 C1864 0.950 . S
H1857 C1869 0.950 . S
H1858 C1866 0.950 . S
H1859 C1868 0.950 . S
H1860 C1870 0.950 . S
H1861 C1872 0.950 . S
H1862 C1874 0.950 . S
H1863 C1875 0.950 . S
C1864 H1856 0.950 . S
C1864 C1865 1.386 . S
C1864 C1866 1.391 . S
C1865 C1864 1.386 . S
C1865 C1869 1.393 . S
C1866 H1858 0.950 . S
C1866 C1864 1.391 . S
C1866 C1867 1.400 . S
C1867 C1866 1.400 . S
C1867 C1868 1.398 . S
C1867 C1873 1.491 . S
C1868 H1859 0.950 . S
C1868 C1867 1.398 . S
C1868 C1869 1.391 . S
C1869 H1857 0.950 . S
C1869 C1865 1.393 . S
C1869 C1868 1.391 . S
C1870 H1860 0.950 . S
C1870 C1871 1.386 . S
C1870 C1872 1.391 . S
C1871 C1870 1.386 . S
C1871 C1875 1.393 . S
C1872 H1861 0.950 . S
C1872 C1870 1.391 . S
C1872 C1873 1.400 . S
C1873 C1867 1.491 . S
C1873 C1872 1.400 . S
C1873 C1874 1.398 . S
C1874 H1862 0.950 . S
C1874 C1873 1.398 . S
C1874 C1875 1.391 . S
C1875 H1863 0.950 . S
C1875 C1871 1.393 . S
C1875 C1874 1.391 . S
H1876 C1884 0.950 . S
H1877 C1889 0.950 . S
H1878 C1886 0.950 . S
H1879 C1888 0.950 . S
H1880 C1890 0.950 . S
H1881 C1892 0.950 . S
H1882 C1894 0.950 . S
H1883 C1895 0.950 . S
C1884 H1876 0.950 . S
C1884 C1885 1.386 . S
C1884 C1886 1.391 . S
C1885 C1884 1.386 . S
C1885 C1889 1.393 . S
C1886 H1878 0.950 . S
C1886 C1884 1.391 . S
C1886 C1887 1.400 . S
C1887 C1886 1.400 . S
C1887 C1888 1.398 . S
C1887 C1893 1.491 . S
C1888 H1879 0.950 . S
C1888 C1887 1.398 . S
C1888 C1889 1.391 . S
C1889 H1877 0.950 . S
C1889 C1885 1.393 . S
C1889 C1888 1.391 . S
C1890 H1880 0.950 . S
C1890 C1891 1.386 . S
C1890 C1892 1.391 . S
C1891 C1890 1.386 . S
C1891 C1895 1.393 . S
C1892 H1881 0.950 . S
C1892 C1890 1.391 . S
C1892 C1893 1.400 . S
C1893 C1887 1.491 . S
C1893 C1892 1.400 . S
C1893 C1894 1.398 . S
C1894 H1882 0.950 . S
C1894 C1893 1.398 . S
C1894 C1895 1.391 . S
C1895 H1883 0.950 . S
C1895 C1891 1.393 . S
C1895 C1894 1.391 . S
H1896 C1904 0.950 . S
H1897 C1909 0.950 . S
H1898 C1906 0.950 . S
H1899 C1908 0.950 . S
H1900 C1910 0.950 . S
H1901 C1912 0.950 . S
H1902 C1914 0.950 . S
H1903 C1915 0.950 . S
C1904 H1896 0.950 . S
C1904 C1905 1.386 . S
C1904 C1906 1.391 . S
C1905 C1904 1.386 . S
C1905 C1909 1.393 . S
C1906 H1898 0.950 . S
C1906 C1904 1.391 . S
C1906 C1907 1.400 . S
C1907 C1906 1.400 . S
C1907 C1908 1.398 . S
C1907 C1913 1.491 . S
C1908 H1899 0.950 . S
C1908 C1907 1.398 . S
C1908 C1909 1.391 . S
C1909 H1897 0.950 . S
C1909 C1905 1.393 . S
C1909 C1908 1.391 . S
C1910 H1900 0.950 . S
C1910 C1911 1.386 . S
C1910 C1912 1.391 . S
C1911 C1910 1.386 . S
C1911 C1915 1.393 . S
C1912 H1901 0.950 . S
C1912 C1910 1.391 . S
C1912 C1913 1.400 . S
C1913 C1907 1.491 . S
C1913 C1912 1.400 . S
C1913 C1914 1.398 . S
C1914 H1902 0.950 . S
C1914 C1913 1.398 . S
C1914 C1915 1.391 . S
C1915 H1903 0.950 . S
C1915 C1911 1.393 . S
C1915 C1914 1.391 . S
H1916 C1924 0.950 . S
H1917 C1929 0.950 . S
H1918 C1926 0.950 . S
H1919 C1928 0.950 . S
H1920 C1930 0.950 . S
H1921 C1932 0.950 . S
H1922 C1934 0.950 . S
H1923 C1935 0.950 1_545 S
C1924 H1916 0.950 . S
C1924 C1925 1.386 . S
C1924 C1926 1.391 . S
C1925 C1924 1.386 . S
C1925 C1929 1.393 . S
C1926 H1918 0.950 . S
C1926 C1924 1.391 . S
C1926 C1927 1.400 . S
C1927 C1926 1.400 . S
C1927 C1928 1.398 . S
C1927 C1933 1.491 . S
C1928 H1919 0.950 . S
C1928 C1927 1.398 . S
C1928 C1929 1.391 . S
C1929 H1917 0.950 . S
C1929 C1925 1.393 . S
C1929 C1928 1.391 . S
C1930 H1920 0.950 . S
C1930 C1931 1.386 . S
C1930 C1932 1.391 . S
C1931 C1930 1.386 . S
C1931 C1935 1.393 . S
C1932 H1921 0.950 . S
C1932 C1930 1.391 . S
C1932 C1933 1.400 . S
C1933 C1927 1.491 . S
C1933 C1932 1.400 . S
C1933 C1934 1.398 . S
C1934 H1922 0.950 . S
C1934 C1933 1.398 . S
C1934 C1935 1.391 . S
C1935 H1923 0.950 1_565 S
C1935 C1931 1.393 . S
C1935 C1934 1.391 . S
H1936 C1944 0.950 . S
H1937 C1949 0.950 . S
H1938 C1946 0.950 . S
H1939 C1948 0.950 . S
H1940 C1950 0.950 . S
H1941 C1952 0.950 . S
H1942 C1954 0.950 . S
H1943 C1955 0.950 . S
C1944 H1936 0.950 . S
C1944 C1945 1.386 1_556 S
C1944 C1946 1.391 . S
C1945 C1944 1.386 1_554 S
C1945 C1949 1.393 . S
C1946 H1938 0.950 . S
C1946 C1944 1.391 . S
C1946 C1947 1.400 1_556 S
C1947 C1946 1.400 1_554 S
C1947 C1948 1.398 . S
C1947 C1953 1.491 . S
C1948 H1939 0.950 . S
C1948 C1947 1.398 . S
C1948 C1949 1.391 . S
C1949 H1937 0.950 . S
C1949 C1945 1.393 . S
C1949 C1948 1.391 . S
C1950 H1940 0.950 . S
C1950 C1951 1.386 . S
C1950 C1952 1.391 . S
C1951 C1950 1.386 . S
C1951 C1955 1.393 1_554 S
C1952 H1941 0.950 . S
C1952 C1950 1.391 . S
C1952 C1953 1.400 . S
C1953 C1947 1.491 . S
C1953 C1952 1.400 . S
C1953 C1954 1.398 1_554 S
C1954 H1942 0.950 . S
C1954 C1953 1.398 1_556 S
C1954 C1955 1.391 . S
C1955 H1943 0.950 . S
C1955 C1951 1.393 1_556 S
C1955 C1954 1.391 . S
H1956 C1964 0.950 . S
H1957 C1969 0.950 . S
H1958 C1966 0.950 . S
H1959 C1968 0.950 . S
H1960 C1970 0.950 . S
H1961 C1972 0.950 . S
H1962 C1974 0.950 . S
H1963 C1975 0.950 . S
C1964 H1956 0.950 . S
C1964 C1965 1.386 . S
C1964 C1966 1.391 . S
C1965 C1964 1.386 . S
C1965 C1969 1.393 . S
C1966 H1958 0.950 . S
C1966 C1964 1.391 . S
C1966 C1967 1.400 . S
C1967 C1966 1.400 . S
C1967 C1968 1.398 . S
C1967 C1973 1.491 . S
C1968 H1959 0.950 . S
C1968 C1967 1.398 . S
C1968 C1969 1.391 . S
C1969 H1957 0.950 . S
C1969 C1965 1.393 . S
C1969 C1968 1.391 . S
C1970 H1960 0.950 . S
C1970 C1971 1.386 . S
C1970 C1972 1.391 . S
C1971 C1970 1.386 . S
C1971 C1975 1.393 . S
C1972 H1961 0.950 . S
C1972 C1970 1.391 . S
C1972 C1973 1.400 . S
C1973 C1967 1.491 . S
C1973 C1972 1.400 . S
C1973 C1974 1.398 . S
C1974 H1962 0.950 . S
C1974 C1973 1.398 . S
C1974 C1975 1.391 . S
C1975 H1963 0.950 . S
C1975 C1971 1.393 . S
C1975 C1974 1.391 . S
H1976 C1984 0.950 . S
H1977 C1989 0.950 . S
H1978 C1986 0.950 . S
H1979 C1988 0.950 . S
H1980 C1990 0.950 . S
H1981 C1992 0.950 . S
H1982 C1994 0.950 . S
H1983 C1995 0.950 . S
C1984 H1976 0.950 . S
C1984 C1985 1.386 . S
C1984 C1986 1.391 . S
C1985 C1984 1.386 . S
C1985 C1989 1.393 . S
C1986 H1978 0.950 . S
C1986 C1984 1.391 . S
C1986 C1987 1.400 . S
C1987 C1986 1.400 . S
C1987 C1988 1.398 . S
C1987 C1993 1.491 . S
C1988 H1979 0.950 . S
C1988 C1987 1.398 . S
C1988 C1989 1.391 . S
C1989 H1977 0.950 . S
C1989 C1985 1.393 . S
C1989 C1988 1.391 . S
C1990 H1980 0.950 . S
C1990 C1991 1.386 . S
C1990 C1992 1.391 . S
C1991 C1990 1.386 . S
C1991 C1995 1.393 . S
C1992 H1981 0.950 . S
C1992 C1990 1.391 . S
C1992 C1993 1.400 . S
C1993 C1987 1.491 . S
C1993 C1992 1.400 . S
C1993 C1994 1.398 . S
C1994 H1982 0.950 . S
C1994 C1993 1.398 . S
C1994 C1995 1.391 . S
C1995 H1983 0.950 . S
C1995 C1991 1.393 . S
C1995 C1994 1.391 . S
H1996 C2004 0.950 . S
H1997 C2009 0.950 . S
H1998 C2006 0.950 . S
H1999 C2008 0.950 . S
H2000 C2010 0.950 . S
H2001 C2012 0.950 . S
H2002 C2014 0.950 . S
H2003 C2015 0.950 . S
C2004 H1996 0.950 . S
C2004 C2005 1.386 . S
C2004 C2006 1.391 . S
C2005 C2004 1.386 . S
C2005 C2009 1.393 . S
C2006 H1998 0.950 . S
C2006 C2004 1.391 . S
C2006 C2007 1.400 . S
C2007 C2006 1.400 . S
C2007 C2008 1.398 . S
C2007 C2013 1.491 . S
C2008 H1999 0.950 . S
C2008 C2007 1.398 . S
C2008 C2009 1.391 . S
C2009 H1997 0.950 . S
C2009 C2005 1.393 . S
C2009 C2008 1.391 . S
C2010 H2000 0.950 . S
C2010 C2011 1.386 . S
C2010 C2012 1.391 . S
C2011 C2010 1.386 . S
C2011 C2015 1.393 . S
C2012 H2001 0.950 . S
C2012 C2010 1.391 . S
C2012 C2013 1.400 . S
C2013 C2007 1.491 . S
C2013 C2012 1.400 . S
C2013 C2014 1.398 . S
C2014 H2002 0.950 . S
C2014 C2013 1.398 . S
C2014 C2015 1.391 . S
C2015 H2003 0.950 . S
C2015 C2011 1.393 . S
C2015 C2014 1.391 . S
H2016 C2024 0.950 . S
H2017 C2029 0.950 . S
H2018 C2026 0.950 . S
H2019 C2028 0.950 1_655 S
H2020 C2030 0.950 . S
H2021 C2032 0.950 . S
H2022 C2034 0.950 1_455 S
H2023 C2035 0.950 . S
C2024 H2016 0.950 . S
C2024 C2025 1.386 . S
C2024 C2026 1.391 . S
C2025 C2024 1.386 . S
C2025 C2029 1.393 . S
C2026 H2018 0.950 . S
C2026 C2024 1.391 . S
C2026 C2027 1.400 . S
C2027 C2026 1.400 . S
C2027 C2028 1.398 . S
C2027 C2033 1.491 1_455 S
C2028 H2019 0.950 1_455 S
C2028 C2027 1.398 . S
C2028 C2029 1.391 . S
C2029 H2017 0.950 . S
C2029 C2025 1.393 . S
C2029 C2028 1.391 . S
C2030 H2020 0.950 . S
C2030 C2031 1.386 . S
C2030 C2032 1.391 . S
C2031 C2030 1.386 . S
C2031 C2035 1.393 . S
C2032 H2021 0.950 . S
C2032 C2030 1.391 . S
C2032 C2033 1.400 . S
C2033 C2027 1.491 1_655 S
C2033 C2032 1.400 . S
C2033 C2034 1.398 . S
C2034 H2022 0.950 1_655 S
C2034 C2033 1.398 . S
C2034 C2035 1.391 . S
C2035 H2023 0.950 . S
C2035 C2031 1.393 . S
C2035 C2034 1.391 . S
H2036 C2044 0.950 . S
H2037 C2049 0.950 1_556 S
H2038 C2046 0.950 . S
H2039 C2048 0.950 1_556 S
H2040 C2050 0.929 1_556 S
H2041 C2052 0.950 1_556 S
H2042 C2054 0.950 . S
H2043 C2055 0.950 . S
C2044 H2036 0.950 . S
C2044 C2045 1.386 . S
C2044 C2046 1.391 . S
C2045 C2044 1.386 . S
C2045 C2049 1.393 . S
C2046 H2038 0.950 . S
C2046 C2044 1.391 . S
C2046 C2047 1.400 . S
C2047 C2046 1.400 . S
C2047 C2048 1.398 . S
C2047 C2053 1.491 . S
C2048 H2039 0.950 1_554 S
C2048 C2047 1.398 . S
C2048 C2049 1.391 . S
C2049 H2037 0.950 1_554 S
C2049 C2045 1.393 . S
C2049 C2048 1.391 . S
C2050 H2040 0.929 1_554 S
C2050 C2051 1.386 . S
C2050 C2052 1.391 . S
C2051 C2050 1.386 . S
C2051 C2055 1.393 . S
C2052 H2041 0.950 1_554 S
C2052 C2050 1.391 . S
C2052 C2053 1.400 . S
C2053 C2047 1.491 . S
C2053 C2052 1.400 . S
C2053 C2054 1.398 . S
C2054 H2042 0.950 . S
C2054 C2053 1.398 . S
C2054 C2055 1.391 . S
C2055 H2043 0.950 . S
C2055 C2051 1.393 . S
C2055 C2054 1.391 . S
H2056 C2064 0.950 . S
H2057 C2069 0.950 . S
H2058 C2066 0.950 . S
H2059 C2068 0.950 1_655 S
H2060 C2070 0.950 . S
H2061 C2072 0.950 . S
H2062 C2074 0.950 1_455 S
H2063 C2075 0.950 . S
C2064 H2056 0.950 . S
C2064 C2065 1.386 . S
C2064 C2066 1.391 . S
C2065 C2064 1.386 . S
C2065 C2069 1.393 . S
C2066 H2058 0.950 . S
C2066 C2064 1.391 . S
C2066 C2067 1.400 . S
C2067 C2066 1.400 . S
C2067 C2068 1.398 . S
C2067 C2073 1.491 1_455 S
C2068 H2059 0.950 1_455 S
C2068 C2067 1.398 . S
C2068 C2069 1.391 . S
C2069 H2057 0.950 . S
C2069 C2065 1.393 . S
C2069 C2068 1.391 . S
C2070 H2060 0.950 . S
C2070 C2071 1.386 . S
C2070 C2072 1.391 . S
C2071 C2070 1.386 . S
C2071 C2075 1.393 . S
C2072 H2061 0.950 . S
C2072 C2070 1.391 . S
C2072 C2073 1.400 . S
C2073 C2067 1.491 1_655 S
C2073 C2072 1.400 . S
C2073 C2074 1.398 . S
C2074 H2062 0.950 1_655 S
C2074 C2073 1.398 . S
C2074 C2075 1.391 . S
C2075 H2063 0.950 . S
C2075 C2071 1.393 . S
C2075 C2074 1.391 . S
H2076 C2084 0.950 . S
H2077 C2089 0.950 . S
H2078 C2086 0.950 . S
H2079 C2088 0.950 . S
H2080 C2090 0.950 . S
H2081 C2092 0.950 . S
H2082 C2094 0.950 . S
H2083 C2095 0.950 . S
C2084 H2076 0.950 . S
C2084 C2085 1.386 . S
C2084 C2086 1.391 . S
C2085 C2084 1.386 . S
C2085 C2089 1.393 . S
C2086 H2078 0.950 . S
C2086 C2084 1.391 . S
C2086 C2087 1.400 . S
C2087 C2086 1.400 . S
C2087 C2088 1.398 . S
C2087 C2093 1.491 . S
C2088 H2079 0.950 . S
C2088 C2087 1.398 . S
C2088 C2089 1.391 . S
C2089 H2077 0.950 . S
C2089 C2085 1.393 . S
C2089 C2088 1.391 . S
C2090 H2080 0.950 . S
C2090 C2091 1.386 . S
C2090 C2092 1.391 . S
C2091 C2090 1.386 . S
C2091 C2095 1.393 . S
C2092 H2081 0.950 . S
C2092 C2090 1.391 . S
C2092 C2093 1.400 . S
C2093 C2087 1.491 . S
C2093 C2092 1.400 . S
C2093 C2094 1.398 . S
C2094 H2082 0.950 . S
C2094 C2093 1.398 . S
C2094 C2095 1.391 . S
C2095 H2083 0.950 . S
C2095 C2091 1.393 . S
C2095 C2094 1.391 . S
H2096 C2104 0.950 1_556 S
H2097 C2109 0.950 . S
H2098 C2106 0.950 1_556 S
H2099 C2108 0.950 . S
H2100 C2110 0.950 . S
H2101 C2112 0.950 . S
H2102 C2114 0.950 1_556 S
H2103 C2115 0.950 1_556 S
C2104 H2096 0.950 1_554 S
C2104 C2105 1.386 . S
C2104 C2106 1.391 . S
C2105 C2104 1.386 . S
C2105 C2109 1.393 . S
C2106 H2098 0.950 1_554 S
C2106 C2104 1.391 . S
C2106 C2107 1.400 . S
C2107 C2106 1.400 . S
C2107 C2108 1.398 . S
C2107 C2113 1.491 . S
C2108 H2099 0.950 . S
C2108 C2107 1.398 . S
C2108 C2109 1.391 . S
C2109 H2097 0.950 . S
C2109 C2105 1.393 . S
C2109 C2108 1.391 . S
C2110 H2100 0.950 . S
C2110 C2111 1.386 . S
C2110 C2112 1.391 . S
C2111 C2110 1.386 . S
C2111 C2115 1.393 . S
C2112 H2101 0.950 . S
C2112 C2110 1.391 . S
C2112 C2113 1.400 . S
C2113 C2107 1.491 . S
C2113 C2112 1.400 . S
C2113 C2114 1.398 . S
C2114 H2102 0.950 1_554 S
C2114 C2113 1.398 . S
C2114 C2115 1.391 . S
C2115 H2103 0.950 1_554 S
C2115 C2111 1.393 . S
C2115 C2114 1.391 . S
H2116 C2124 0.950 . S
H2117 C2129 0.950 . S
H2118 C2126 0.950 . S
H2119 C2128 0.950 1_455 S
H2120 C2130 0.950 . S
H2121 C2132 0.950 . S
H2122 C2134 0.950 1_655 S
H2123 C2135 0.950 . S
C2124 H2116 0.950 . S
C2124 C2125 1.386 . S
C2124 C2126 1.391 . S
C2125 C2124 1.386 . S
C2125 C2129 1.393 . S
C2126 H2118 0.950 . S
C2126 C2124 1.391 . S
C2126 C2127 1.400 . S
C2127 C2126 1.400 . S
C2127 C2128 1.398 . S
C2127 C2133 1.491 1_655 S
C2128 H2119 0.950 1_655 S
C2128 C2127 1.398 . S
C2128 C2129 1.391 . S
C2129 H2117 0.950 . S
C2129 C2125 1.393 . S
C2129 C2128 1.391 . S
C2130 H2120 0.950 . S
C2130 C2131 1.386 . S
C2130 C2132 1.391 . S
C2131 C2130 1.386 . S
C2131 C2135 1.393 . S
C2132 H2121 0.950 . S
C2132 C2130 1.391 . S
C2132 C2133 1.400 . S
C2133 C2127 1.491 1_455 S
C2133 C2132 1.400 . S
C2133 C2134 1.398 . S
C2134 H2122 0.950 1_455 S
C2134 C2133 1.398 . S
C2134 C2135 1.391 . S
C2135 H2123 0.950 . S
C2135 C2131 1.393 . S
C2135 C2134 1.391 . S
H2136 C2144 0.950 . S
H2137 C2149 0.950 . S
H2138 C2146 0.950 . S
H2139 C2148 0.950 . S
H2140 C2150 0.950 . S
H2141 C2152 0.950 . S
H2142 C2154 0.950 . S
H2143 C2155 0.950 . S
C2144 H2136 0.950 . S
C2144 C2145 1.386 . S
C2144 C2146 1.391 . S
C2145 C2144 1.386 . S
C2145 C2149 1.393 . S
C2146 H2138 0.950 . S
C2146 C2144 1.391 . S
C2146 C2147 1.400 . S
C2147 C2146 1.400 . S
C2147 C2148 1.398 . S
C2147 C2153 1.491 . S
C2148 H2139 0.950 . S
C2148 C2147 1.398 . S
C2148 C2149 1.391 . S
C2149 H2137 0.950 . S
C2149 C2145 1.393 . S
C2149 C2148 1.391 . S
C2150 H2140 0.950 . S
C2150 C2151 1.386 . S
C2150 C2152 1.391 . S
C2151 C2150 1.386 . S
C2151 C2155 1.393 . S
C2152 H2141 0.950 . S
C2152 C2150 1.391 . S
C2152 C2153 1.400 . S
C2153 C2147 1.491 . S
C2153 C2152 1.400 . S
C2153 C2154 1.398 . S
C2154 H2142 0.950 . S
C2154 C2153 1.398 . S
C2154 C2155 1.391 . S
C2155 H2143 0.950 . S
C2155 C2151 1.393 . S
C2155 C2154 1.391 . S
H2156 C2164 0.950 . S
H2157 C2169 0.950 . S
H2158 C2166 0.909 1_455 S
H2159 C2168 0.950 . S
H2160 C2170 0.950 . S
H2161 C2172 0.899 1_655 S
H2162 C2174 0.950 . S
H2163 C2175 0.950 . S
C2164 H2156 0.950 . S
C2164 C2165 1.386 . S
C2164 C2166 1.419 . S
C2165 C2164 1.386 . S
C2165 C2169 1.393 . S
C2166 H2158 0.909 1_655 S
C2166 C2164 1.419 . S
C2166 C2167 1.413 . S
C2167 C2166 1.413 . S
C2167 C2168 1.398 . S
C2167 C2173 1.491 1_655 S
C2168 H2159 0.950 . S
C2168 C2167 1.398 . S
C2168 C2169 1.391 . S
C2169 H2157 0.950 . S
C2169 C2165 1.393 . S
C2169 C2168 1.391 . S
C2170 H2160 0.950 . S
C2170 C2171 1.386 . S
C2170 C2172 1.426 . S
C2171 C2170 1.386 . S
C2171 C2175 1.393 . S
C2172 H2161 0.899 1_455 S
C2172 C2170 1.426 . S
C2172 C2173 1.417 1_565 S
C2173 C2167 1.491 1_455 S
C2173 C2172 1.417 1_545 S
C2173 C2174 1.398 . S
C2174 H2162 0.950 . S
C2174 C2173 1.398 . S
C2174 C2175 1.391 1_545 S
C2175 H2163 0.950 . S
C2175 C2171 1.393 . S
C2175 C2174 1.391 1_565 S
H2176 C2184 0.950 . S
H2177 C2189 0.950 . S
H2178 C2186 0.950 . S
H2179 C2188 0.950 . S
H2180 C2190 0.950 . S
H2181 C2192 0.950 . S
H2182 C2194 0.950 . S
H2183 C2195 0.950 . S
C2184 H2176 0.950 . S
C2184 C2185 1.386 . S
C2184 C2186 1.391 . S
C2185 C2184 1.386 . S
C2185 C2189 1.393 . S
C2186 H2178 0.950 . S
C2186 C2184 1.391 . S
C2186 C2187 1.400 . S
C2187 C2186 1.400 . S
C2187 C2188 1.398 . S
C2187 C2193 1.491 . S
C2188 H2179 0.950 . S
C2188 C2187 1.398 . S
C2188 C2189 1.391 . S
C2189 H2177 0.950 . S
C2189 C2185 1.393 . S
C2189 C2188 1.391 . S
C2190 H2180 0.950 . S
C2190 C2191 1.386 . S
C2190 C2192 1.391 . S
C2191 C2190 1.386 . S
C2191 C2195 1.393 . S
C2192 H2181 0.950 . S
C2192 C2190 1.391 . S
C2192 C2193 1.400 . S
C2193 C2187 1.491 . S
C2193 C2192 1.400 . S
C2193 C2194 1.398 . S
C2194 H2182 0.950 . S
C2194 C2193 1.398 . S
C2194 C2195 1.391 . S
C2195 H2183 0.950 . S
C2195 C2191 1.393 . S
C2195 C2194 1.391 . S
H2196 C2204 0.950 . S
H2197 C2209 0.950 . S
H2198 C2206 0.950 . S
H2199 C2208 0.950 . S
H2200 C2210 0.950 . S
H2201 C2212 0.950 . S
H2202 C2214 0.950 . S
H2203 C2215 0.950 . S
C2204 H2196 0.950 . S
C2204 C2205 1.386 . S
C2204 C2206 1.391 . S
C2205 C2204 1.386 . S
C2205 C2209 1.393 . S
C2206 H2198 0.950 . S
C2206 C2204 1.391 . S
C2206 C2207 1.400 . S
C2207 C2206 1.400 . S
C2207 C2208 1.398 . S
C2207 C2213 1.491 . S
C2208 H2199 0.950 . S
C2208 C2207 1.398 . S
C2208 C2209 1.391 . S
C2209 H2197 0.950 . S
C2209 C2205 1.393 . S
C2209 C2208 1.391 . S
C2210 H2200 0.950 . S
C2210 C2211 1.386 . S
C2210 C2212 1.391 . S
C2211 C2210 1.386 . S
C2211 C2215 1.393 . S
C2212 H2201 0.950 . S
C2212 C2210 1.391 . S
C2212 C2213 1.400 1_565 S
C2213 C2207 1.491 . S
C2213 C2212 1.400 1_545 S
C2213 C2214 1.398 . S
C2214 H2202 0.950 . S
C2214 C2213 1.398 . S
C2214 C2215 1.391 1_545 S
C2215 H2203 0.950 . S
C2215 C2211 1.393 . S
C2215 C2214 1.391 1_565 S
H2216 C2224 0.950 . S
H2217 C2229 0.950 . S
H2218 C2226 0.950 . S
H2219 C2228 0.950 . S
H2220 C2230 0.950 . S
H2221 C2232 0.950 . S
H2222 C2234 0.950 . S
H2223 C2235 0.950 . S
C2224 H2216 0.950 . S
C2224 C2225 1.386 . S
C2224 C2226 1.391 . S
C2225 C2224 1.386 . S
C2225 C2229 1.393 . S
C2226 H2218 0.950 . S
C2226 C2224 1.391 . S
C2226 C2227 1.400 . S
C2227 C2226 1.400 . S
C2227 C2228 1.398 . S
C2227 C2233 1.491 . S
C2228 H2219 0.950 . S
C2228 C2227 1.398 . S
C2228 C2229 1.391 . S
C2229 H2217 0.950 . S
C2229 C2225 1.393 . S
C2229 C2228 1.391 . S
C2230 H2220 0.950 . S
C2230 C2231 1.386 . S
C2230 C2232 1.391 . S
C2231 C2230 1.386 . S
C2231 C2235 1.393 . S
C2232 H2221 0.950 . S
C2232 C2230 1.391 . S
C2232 C2233 1.400 . S
C2233 C2227 1.491 . S
C2233 C2232 1.400 . S
C2233 C2234 1.398 . S
C2234 H2222 0.950 . S
C2234 C2233 1.398 . S
C2234 C2235 1.391 . S
C2235 H2223 0.950 . S
C2235 C2231 1.393 . S
C2235 C2234 1.391 . S
H2236 C2244 0.950 . S
H2237 C2249 0.950 . S
H2238 C2246 0.950 . S
H2239 C2248 0.950 . S
H2240 C2250 0.950 . S
H2241 C2252 0.950 . S
H2242 C2254 0.950 . S
H2243 C2255 0.950 . S
C2244 H2236 0.950 . S
C2244 C2245 1.386 . S
C2244 C2246 1.391 . S
C2245 C2244 1.386 . S
C2245 C2249 1.393 . S
C2246 H2238 0.950 . S
C2246 C2244 1.391 . S
C2246 C2247 1.400 . S
C2247 C2246 1.400 . S
C2247 C2248 1.398 . S
C2247 C2253 1.491 . S
C2248 H2239 0.950 . S
C2248 C2247 1.398 . S
C2248 C2249 1.391 . S
C2249 H2237 0.950 . S
C2249 C2245 1.393 . S
C2249 C2248 1.391 . S
C2250 H2240 0.950 . S
C2250 C2251 1.386 . S
C2250 C2252 1.391 1_565 S
C2251 C2250 1.386 . S
C2251 C2255 1.393 . S
C2252 H2241 0.950 . S
C2252 C2250 1.391 1_545 S
C2252 C2253 1.400 . S
C2253 C2247 1.491 . S
C2253 C2252 1.400 . S
C2253 C2254 1.398 1_545 S
C2254 H2242 0.950 . S
C2254 C2253 1.398 1_565 S
C2254 C2255 1.391 . S
C2255 H2243 0.950 . S
C2255 C2251 1.393 . S
C2255 C2254 1.391 . S
H2256 C2264 0.950 . S
H2257 C2269 0.950 . S
H2258 C2266 0.950 . S
H2259 C2268 0.950 . S
H2260 C2270 0.950 . S
H2261 C2272 0.950 . S
H2262 C2274 0.950 . S
H2263 C2275 0.950 . S
C2264 H2256 0.950 . S
C2264 C2265 1.386 . S
C2264 C2266 1.391 . S
C2265 C2264 1.386 . S
C2265 C2269 1.393 . S
C2266 H2258 0.950 . S
C2266 C2264 1.391 . S
C2266 C2267 1.400 . S
C2267 C2266 1.400 . S
C2267 C2268 1.398 . S
C2267 C2273 1.491 . S
C2268 H2259 0.950 . S
C2268 C2267 1.398 . S
C2268 C2269 1.391 . S
C2269 H2257 0.950 . S
C2269 C2265 1.393 . S
C2269 C2268 1.391 . S
C2270 H2260 0.950 . S
C2270 C2271 1.386 . S
C2270 C2272 1.391 . S
C2271 C2270 1.386 . S
C2271 C2275 1.393 . S
C2272 H2261 0.950 . S
C2272 C2270 1.391 . S
C2272 C2273 1.400 . S
C2273 C2267 1.491 . S
C2273 C2272 1.400 . S
C2273 C2274 1.398 . S
C2274 H2262 0.950 . S
C2274 C2273 1.398 . S
C2274 C2275 1.391 . S
C2275 H2263 0.950 . S
C2275 C2271 1.393 . S
C2275 C2274 1.391 . S
H2276 C2284 0.950 . S
H2277 C2289 0.950 . S
H2278 C2286 0.950 . S
H2279 C2288 0.950 . S
H2280 C2290 0.950 . S
H2281 C2292 0.950 . S
H2282 C2294 0.950 . S
H2283 C2295 0.950 . S
C2284 H2276 0.950 . S
C2284 C2285 1.386 . S
C2284 C2286 1.391 . S
C2285 C2284 1.386 . S
C2285 C2289 1.393 . S
C2286 H2278 0.950 . S
C2286 C2284 1.391 . S
C2286 C2287 1.400 . S
C2287 C2286 1.400 . S
C2287 C2288 1.398 . S
C2287 C2293 1.491 . S
C2288 H2279 0.950 . S
C2288 C2287 1.398 . S
C2288 C2289 1.391 . S
C2289 H2277 0.950 . S
C2289 C2285 1.393 . S
C2289 C2288 1.391 . S
C2290 H2280 0.950 . S
C2290 C2291 1.386 . S
C2290 C2292 1.391 . S
C2291 C2290 1.386 . S
C2291 C2295 1.393 . S
C2292 H2281 0.950 . S
C2292 C2290 1.391 . S
C2292 C2293 1.400 . S
C2293 C2287 1.491 . S
C2293 C2292 1.400 . S
C2293 C2294 1.398 . S
C2294 H2282 0.950 . S
C2294 C2293 1.398 . S
C2294 C2295 1.391 . S
C2295 H2283 0.950 . S
C2295 C2291 1.393 . S
C2295 C2294 1.391 . S
H2296 C2304 0.950 . S
H2297 C2309 0.950 . S
H2298 C2306 0.950 . S
H2299 C2308 0.950 . S
H2300 C2310 0.950 . S
H2301 C2312 0.950 . S
H2302 C2314 0.950 . S
H2303 C2315 0.950 . S
C2304 H2296 0.950 . S
C2304 C2305 1.386 . S
C2304 C2306 1.391 . S
C2305 C2304 1.386 . S
C2305 C2309 1.393 . S
C2306 H2298 0.950 . S
C2306 C2304 1.391 . S
C2306 C2307 1.400 . S
C2307 C2306 1.400 . S
C2307 C2308 1.398 . S
C2307 C2313 1.491 . S
C2308 H2299 0.950 . S
C2308 C2307 1.398 . S
C2308 C2309 1.391 . S
C2309 H2297 0.950 . S
C2309 C2305 1.393 . S
C2309 C2308 1.391 . S
C2310 H2300 0.950 . S
C2310 C2311 1.386 . S
C2310 C2312 1.391 . S
C2311 C2310 1.386 . S
C2311 C2315 1.393 . S
C2312 H2301 0.950 . S
C2312 C2310 1.391 . S
C2312 C2313 1.400 . S
C2313 C2307 1.491 . S
C2313 C2312 1.400 . S
C2313 C2314 1.398 . S
C2314 H2302 0.950 . S
C2314 C2313 1.398 . S
C2314 C2315 1.391 . S
C2315 H2303 0.950 . S
C2315 C2311 1.393 . S
C2315 C2314 1.391 . S
H2316 C2324 0.950 . S
H2317 C2329 0.950 1_556 S
H2318 C2326 0.950 . S
H2319 C2328 0.950 1_556 S
H2320 C2330 0.950 1_556 S
H2321 C2332 0.950 1_556 S
H2322 C2334 0.950 . S
H2323 C2335 0.950 . S
C2324 H2316 0.950 . S
C2324 C2325 1.386 . S
C2324 C2326 1.391 . S
C2325 C2324 1.386 . S
C2325 C2329 1.393 . S
C2326 H2318 0.950 . S
C2326 C2324 1.391 . S
C2326 C2327 1.400 . S
C2327 C2326 1.400 . S
C2327 C2328 1.398 . S
C2327 C2333 1.491 . S
C2328 H2319 0.950 1_554 S
C2328 C2327 1.398 . S
C2328 C2329 1.391 . S
C2329 H2317 0.950 1_554 S
C2329 C2325 1.393 . S
C2329 C2328 1.391 . S
C2330 H2320 0.950 1_554 S
C2330 C2331 1.386 . S
C2330 C2332 1.391 . S
C2331 C2330 1.386 . S
C2331 C2335 1.393 . S
C2332 H2321 0.950 1_554 S
C2332 C2330 1.391 . S
C2332 C2333 1.400 1_565 S
C2333 C2327 1.491 . S
C2333 C2332 1.400 1_545 S
C2333 C2334 1.398 . S
C2334 H2322 0.950 . S
C2334 C2333 1.398 . S
C2334 C2335 1.391 1_545 S
C2335 H2323 0.950 . S
C2335 C2331 1.393 . S
C2335 C2334 1.391 1_565 S
H2336 C2344 0.950 1_556 S
H2337 C2349 0.950 . S
H2338 C2346 0.950 1_556 S
H2339 C2348 0.950 . S
H2340 C2350 0.950 . S
H2341 C2352 0.950 . S
H2342 C2354 0.950 1_556 S
H2343 C2355 0.917 1_556 S
C2344 H2336 0.950 1_554 S
C2344 C2345 1.386 . S
C2344 C2346 1.391 . S
C2345 C2344 1.386 . S
C2345 C2349 1.393 . S
C2346 H2338 0.950 1_554 S
C2346 C2344 1.391 . S
C2346 C2347 1.400 1_565 S
C2347 C2346 1.400 1_545 S
C2347 C2348 1.398 . S
C2347 C2353 1.491 1_655 S
C2348 H2339 0.950 . S
C2348 C2347 1.398 . S
C2348 C2349 1.391 1_545 S
C2349 H2337 0.950 . S
C2349 C2345 1.393 . S
C2349 C2348 1.391 1_565 S
C2350 H2340 0.950 . S
C2350 C2351 1.386 . S
C2350 C2352 1.391 . S
C2351 C2350 1.386 . S
C2351 C2355 1.421 . S
C2352 H2341 0.950 . S
C2352 C2350 1.391 . S
C2352 C2353 1.400 . S
C2353 C2347 1.491 1_455 S
C2353 C2352 1.400 . S
C2353 C2354 1.398 . S
C2354 H2342 0.950 1_554 S
C2354 C2353 1.398 . S
C2354 C2355 1.395 . S
C2355 H2343 0.917 1_554 S
C2355 C2351 1.421 . S
C2355 C2354 1.395 . S
H2356 C2364 0.950 . S
H2357 C2369 0.912 1_556 S
H2358 C2366 0.950 . S
H2359 C2368 0.950 1_556 S
H2360 C2370 0.948 . S
H2361 C2372 0.950 1_556 S
H2362 C2374 0.950 . S
H2363 C2375 0.950 . S
C2364 H2356 0.950 . S
C2364 C2365 1.386 . S
C2364 C2366 1.391 . S
C2365 C2364 1.386 . S
C2365 C2369 1.426 . S
C2366 H2358 0.950 . S
C2366 C2364 1.391 . S
C2366 C2367 1.400 . S
C2367 C2366 1.400 . S
C2367 C2368 1.398 . S
C2367 C2373 1.491 . S
C2368 H2359 0.950 1_554 S
C2368 C2367 1.398 . S
C2368 C2369 1.398 . S
C2369 H2357 0.912 1_554 S
C2369 C2365 1.426 . S
C2369 C2368 1.398 . S
C2370 H2360 0.948 . S
C2370 C2371 1.386 . S
C2370 C2372 1.391 . S
C2371 C2370 1.386 . S
C2371 C2375 1.393 . S
C2372 H2361 0.950 1_554 S
C2372 C2370 1.391 . S
C2372 C2373 1.400 . S
C2373 C2367 1.491 . S
C2373 C2372 1.400 . S
C2373 C2374 1.398 . S
C2374 H2362 0.950 . S
C2374 C2373 1.398 . S
C2374 C2375 1.391 . S
C2375 H2363 0.950 . S
C2375 C2371 1.393 . S
C2375 C2374 1.391 . S
H2376 C2384 0.950 . S
H2377 C2389 0.950 . S
H2378 C2386 0.950 . S
H2379 C2388 0.914 1_455 S
H2380 C2390 0.950 . S
H2381 C2392 0.950 . S
H2382 C2394 0.908 1_655 S
H2383 C2395 0.950 . S
C2384 H2376 0.950 . S
C2384 C2385 1.386 . S
C2384 C2386 1.391 . S
C2385 C2384 1.386 . S
C2385 C2389 1.393 . S
C2386 H2378 0.950 . S
C2386 C2384 1.391 . S
C2386 C2387 1.400 . S
C2387 C2386 1.400 . S
C2387 C2388 1.410 . S
C2387 C2393 1.491 1_655 S
C2388 H2379 0.914 1_655 S
C2388 C2387 1.410 . S
C2388 C2389 1.415 . S
C2389 H2377 0.950 . S
C2389 C2385 1.393 . S
C2389 C2388 1.415 . S
C2390 H2380 0.950 . S
C2390 C2391 1.386 . S
C2390 C2392 1.391 . S
C2391 C2390 1.386 . S
C2391 C2395 1.393 . S
C2392 H2381 0.950 . S
C2392 C2390 1.391 . S
C2392 C2393 1.400 . S
C2393 C2387 1.491 1_455 S
C2393 C2392 1.400 . S
C2393 C2394 1.412 . S
C2394 H2382 0.908 1_455 S
C2394 C2393 1.412 . S
C2394 C2395 1.419 . S
C2395 H2383 0.950 . S
C2395 C2391 1.393 . S
C2395 C2394 1.419 . S
H2396 C2404 0.950 . S
H2397 C2409 0.950 . S
H2398 C2406 0.950 . S
H2399 C2408 0.950 . S
H2400 C2410 0.950 . S
H2401 C2412 0.950 . S
H2402 C2414 0.950 . S
H2403 C2415 0.950 . S
C2404 H2396 0.950 . S
C2404 C2405 1.386 . S
C2404 C2406 1.391 . S
C2405 C2404 1.386 . S
C2405 C2409 1.393 . S
C2406 H2398 0.950 . S
C2406 C2404 1.391 . S
C2406 C2407 1.400 . S
C2407 C2406 1.400 . S
C2407 C2408 1.398 . S
C2407 C2413 1.491 . S
C2408 H2399 0.950 . S
C2408 C2407 1.398 . S
C2408 C2409 1.391 . S
C2409 H2397 0.950 . S
C2409 C2405 1.393 . S
C2409 C2408 1.391 . S
C2410 H2400 0.950 . S
C2410 C2411 1.386 . S
C2410 C2412 1.391 1_565 S
C2411 C2410 1.386 . S
C2411 C2415 1.393 . S
C2412 H2401 0.950 . S
C2412 C2410 1.391 1_545 S
C2412 C2413 1.400 . S
C2413 C2407 1.491 . S
C2413 C2412 1.400 . S
C2413 C2414 1.398 1_545 S
C2414 H2402 0.950 . S
C2414 C2413 1.398 1_565 S
C2414 C2415 1.391 . S
C2415 H2403 0.950 . S
C2415 C2411 1.393 . S
C2415 C2414 1.391 . S
H2416 C2424 0.950 . S
H2417 C2429 0.950 . S
H2418 C2426 0.950 . S
H2419 C2428 0.950 . S
H2420 C2430 0.950 . S
H2421 C2432 0.950 . S
H2422 C2434 0.950 . S
H2423 C2435 0.950 . S
C2424 H2416 0.950 . S
C2424 C2425 1.386 . S
C2424 C2426 1.391 . S
C2425 C2424 1.386 . S
C2425 C2429 1.393 . S
C2426 H2418 0.950 . S
C2426 C2424 1.391 . S
C2426 C2427 1.400 . S
C2427 C2426 1.400 . S
C2427 C2428 1.398 . S
C2427 C2433 1.491 . S
C2428 H2419 0.950 . S
C2428 C2427 1.398 . S
C2428 C2429 1.391 . S
C2429 H2417 0.950 . S
C2429 C2425 1.393 . S
C2429 C2428 1.391 . S
C2430 H2420 0.950 . S
C2430 C2431 1.386 . S
C2430 C2432 1.391 . S
C2431 C2430 1.386 . S
C2431 C2435 1.393 . S
C2432 H2421 0.950 . S
C2432 C2430 1.391 . S
C2432 C2433 1.400 . S
C2433 C2427 1.491 . S
C2433 C2432 1.400 . S
C2433 C2434 1.398 . S
C2434 H2422 0.950 . S
C2434 C2433 1.398 . S
C2434 C2435 1.391 . S
C2435 H2423 0.950 . S
C2435 C2431 1.393 . S
C2435 C2434 1.391 . S
H2436 C2444 0.950 . S
H2437 C2449 0.950 . S
H2438 C2446 0.950 1_455 S
H2439 C2448 0.950 . S
H2440 C2450 0.950 . S
H2441 C2452 0.950 1_655 S
H2442 C2454 0.950 . S
H2443 C2455 0.950 . S
C2444 H2436 0.950 . S
C2444 C2445 1.386 . S
C2444 C2446 1.391 . S
C2445 C2444 1.386 . S
C2445 C2449 1.393 . S
C2446 H2438 0.950 1_655 S
C2446 C2444 1.391 . S
C2446 C2447 1.400 . S
C2447 C2446 1.400 . S
C2447 C2448 1.398 . S
C2447 C2453 1.491 1_655 S
C2448 H2439 0.950 . S
C2448 C2447 1.398 . S
C2448 C2449 1.391 . S
C2449 H2437 0.950 . S
C2449 C2445 1.393 . S
C2449 C2448 1.391 . S
C2450 H2440 0.950 . S
C2450 C2451 1.386 . S
C2450 C2452 1.391 . S
C2451 C2450 1.386 . S
C2451 C2455 1.393 . S
C2452 H2441 0.950 1_455 S
C2452 C2450 1.391 . S
C2452 C2453 1.400 . S
C2453 C2447 1.491 1_455 S
C2453 C2452 1.400 . S
C2453 C2454 1.398 . S
C2454 H2442 0.950 . S
C2454 C2453 1.398 . S
C2454 C2455 1.391 . S
C2455 H2443 0.950 . S
C2455 C2451 1.393 . S
C2455 C2454 1.391 . S
H2456 C2464 0.950 . S
H2457 C2469 0.950 . S
H2458 C2466 0.950 . S
H2459 C2468 0.950 . S
H2460 C2470 0.950 . S
H2461 C2472 0.950 . S
H2462 C2474 0.950 . S
H2463 C2475 0.950 . S
C2464 H2456 0.950 . S
C2464 C2465 1.386 . S
C2464 C2466 1.391 1_565 S
C2465 C2464 1.386 . S
C2465 C2469 1.393 . S
C2466 H2458 0.950 . S
C2466 C2464 1.391 1_545 S
C2466 C2467 1.400 . S
C2467 C2466 1.400 . S
C2467 C2468 1.398 1_545 S
C2467 C2473 1.491 . S
C2468 H2459 0.950 . S
C2468 C2467 1.398 1_565 S
C2468 C2469 1.391 . S
C2469 H2457 0.950 . S
C2469 C2465 1.393 . S
C2469 C2468 1.391 . S
C2470 H2460 0.950 . S
C2470 C2471 1.386 . S
C2470 C2472 1.391 . S
C2471 C2470 1.386 . S
C2471 C2475 1.393 . S
C2472 H2461 0.950 . S
C2472 C2470 1.391 . S
C2472 C2473 1.400 . S
C2473 C2467 1.491 . S
C2473 C2472 1.400 . S
C2473 C2474 1.398 . S
C2474 H2462 0.950 . S
C2474 C2473 1.398 . S
C2474 C2475 1.391 . S
C2475 H2463 0.950 . S
C2475 C2471 1.393 . S
C2475 C2474 1.391 . S
H2476 C2484 0.950 . S
H2477 C2489 0.950 . S
H2478 C2486 0.950 . S
H2479 C2488 0.950 . S
H2480 C2490 0.950 . S
H2481 C2492 0.950 . S
H2482 C2494 0.950 . S
H2483 C2495 0.950 . S
C2484 H2476 0.950 . S
C2484 C2485 1.386 . S
C2484 C2486 1.391 . S
C2485 C2484 1.386 . S
C2485 C2489 1.393 . S
C2486 H2478 0.950 . S
C2486 C2484 1.391 . S
C2486 C2487 1.400 . S
C2487 C2486 1.400 . S
C2487 C2488 1.398 . S
C2487 C2493 1.491 1_455 S
C2488 H2479 0.950 . S
C2488 C2487 1.398 . S
C2488 C2489 1.391 . S
C2489 H2477 0.950 . S
C2489 C2485 1.393 . S
C2489 C2488 1.391 . S
C2490 H2480 0.950 . S
C2490 C2491 1.386 . S
C2490 C2492 1.391 . S
C2491 C2490 1.386 . S
C2491 C2495 1.393 . S
C2492 H2481 0.950 . S
C2492 C2490 1.391 . S
C2492 C2493 1.400 . S
C2493 C2487 1.491 1_655 S
C2493 C2492 1.400 . S
C2493 C2494 1.398 . S
C2494 H2482 0.950 . S
C2494 C2493 1.398 . S
C2494 C2495 1.391 . S
C2495 H2483 0.950 . S
C2495 C2491 1.393 . S
C2495 C2494 1.391 . S
H2496 C2504 0.950 . S
H2497 C2509 0.950 . S
H2498 C2506 0.950 . S
H2499 C2508 0.950 . S
H2500 C2510 0.950 . S
H2501 C2512 0.950 . S
H2502 C2514 0.950 . S
H2503 C2515 0.950 . S
C2504 H2496 0.950 . S
C2504 C2505 1.386 . S
C2504 C2506 1.391 . S
C2505 C2504 1.386 . S
C2505 C2509 1.393 . S
C2506 H2498 0.950 . S
C2506 C2504 1.391 . S
C2506 C2507 1.400 . S
C2507 C2506 1.400 . S
C2507 C2508 1.398 . S
C2507 C2513 1.491 . S
C2508 H2499 0.950 . S
C2508 C2507 1.398 . S
C2508 C2509 1.391 . S
C2509 H2497 0.950 . S
C2509 C2505 1.393 . S
C2509 C2508 1.391 . S
C2510 H2500 0.950 . S
C2510 C2511 1.386 . S
C2510 C2512 1.391 . S
C2511 C2510 1.386 . S
C2511 C2515 1.393 . S
C2512 H2501 0.950 . S
C2512 C2510 1.391 . S
C2512 C2513 1.400 . S
C2513 C2507 1.491 . S
C2513 C2512 1.400 . S
C2513 C2514 1.398 . S
C2514 H2502 0.950 . S
C2514 C2513 1.398 . S
C2514 C2515 1.391 . S
C2515 H2503 0.950 . S
C2515 C2511 1.393 . S
C2515 C2514 1.391 . S
H2516 C2524 0.950 . S
H2517 C2529 0.950 . S
H2518 C2526 0.950 . S
H2519 C2528 0.950 . S
H2520 C2530 0.950 . S
H2521 C2532 0.950 . S
H2522 C2534 0.950 . S
H2523 C2535 0.950 . S
C2524 H2516 0.950 . S
C2524 C2525 1.386 . S
C2524 C2526 1.391 . S
C2525 C2524 1.386 . S
C2525 C2529 1.393 . S
C2526 H2518 0.950 . S
C2526 C2524 1.391 . S
C2526 C2527 1.400 . S
C2527 C2526 1.400 . S
C2527 C2528 1.398 . S
C2527 C2533 1.491 . S
C2528 H2519 0.950 . S
C2528 C2527 1.398 . S
C2528 C2529 1.391 . S
C2529 H2517 0.950 . S
C2529 C2525 1.393 . S
C2529 C2528 1.391 . S
C2530 H2520 0.950 . S
C2530 C2531 1.386 . S
C2530 C2532 1.391 . S
C2531 C2530 1.386 . S
C2531 C2535 1.393 . S
C2532 H2521 0.950 . S
C2532 C2530 1.391 . S
C2532 C2533 1.400 . S
C2533 C2527 1.491 . S
C2533 C2532 1.400 . S
C2533 C2534 1.398 . S
C2534 H2522 0.950 . S
C2534 C2533 1.398 . S
C2534 C2535 1.391 . S
C2535 H2523 0.950 . S
C2535 C2531 1.393 . S
C2535 C2534 1.391 . S
H2536 C2544 0.950 . S
H2537 C2549 0.950 . S
H2538 C2546 0.950 . S
H2539 C2548 0.950 . S
H2540 C2550 0.950 . S
H2541 C2552 0.950 . S
H2542 C2554 0.950 . S
H2543 C2555 0.950 . S
C2544 H2536 0.950 . S
C2544 C2545 1.386 . S
C2544 C2546 1.391 . S
C2545 C2544 1.386 . S
C2545 C2549 1.393 . S
C2546 H2538 0.950 . S
C2546 C2544 1.391 . S
C2546 C2547 1.400 . S
C2547 C2546 1.400 . S
C2547 C2548 1.398 . S
C2547 C2553 1.491 . S
C2548 H2539 0.950 . S
C2548 C2547 1.398 . S
C2548 C2549 1.391 . S
C2549 H2537 0.950 . S
C2549 C2545 1.393 . S
C2549 C2548 1.391 . S
C2550 H2540 0.950 . S
C2550 C2551 1.386 . S
C2550 C2552 1.391 . S
C2551 C2550 1.386 . S
C2551 C2555 1.393 . S
C2552 H2541 0.950 . S
C2552 C2550 1.391 . S
C2552 C2553 1.400 . S
C2553 C2547 1.491 . S
C2553 C2552 1.400 . S
C2553 C2554 1.398 . S
C2554 H2542 0.950 . S
C2554 C2553 1.398 . S
C2554 C2555 1.391 . S
C2555 H2543 0.950 . S
C2555 C2551 1.393 . S
C2555 C2554 1.391 . S
H2556 C2564 0.950 . S
H2557 C2569 0.950 . S
H2558 C2566 0.950 . S
H2559 C2568 0.950 . S
H2560 C2570 0.950 . S
H2561 C2572 0.950 . S
H2562 C2574 0.950 . S
H2563 C2575 0.950 . S
C2564 H2556 0.950 . S
C2564 C2565 1.386 . S
C2564 C2566 1.391 . S
C2565 C2564 1.386 . S
C2565 C2569 1.393 . S
C2566 H2558 0.950 . S
C2566 C2564 1.391 . S
C2566 C2567 1.400 . S
C2567 C2566 1.400 . S
C2567 C2568 1.398 . S
C2567 C2573 1.491 . S
C2568 H2559 0.950 . S
C2568 C2567 1.398 . S
C2568 C2569 1.391 . S
C2569 H2557 0.950 . S
C2569 C2565 1.393 . S
C2569 C2568 1.391 . S
C2570 H2560 0.950 . S
C2570 C2571 1.386 . S
C2570 C2572 1.391 . S
C2571 C2570 1.386 . S
C2571 C2575 1.393 . S
C2572 H2561 0.950 . S
C2572 C2570 1.391 . S
C2572 C2573 1.400 . S
C2573 C2567 1.491 . S
C2573 C2572 1.400 . S
C2573 C2574 1.398 . S
C2574 H2562 0.950 . S
C2574 C2573 1.398 . S
C2574 C2575 1.391 . S
C2575 H2563 0.950 . S
C2575 C2571 1.393 . S
C2575 C2574 1.391 . S
H2576 C2584 0.950 . S
H2577 C2589 0.950 . S
H2578 C2586 0.950 . S
H2579 C2588 0.950 . S
H2580 C2590 0.950 . S
H2581 C2592 0.950 . S
H2582 C2594 0.950 . S
H2583 C2595 0.950 . S
C2584 H2576 0.950 . S
C2584 C2585 1.386 . S
C2584 C2586 1.391 . S
C2585 C2584 1.386 . S
C2585 C2589 1.393 . S
C2586 H2578 0.950 . S
C2586 C2584 1.391 . S
C2586 C2587 1.400 . S
C2587 C2586 1.400 . S
C2587 C2588 1.398 . S
C2587 C2593 1.491 . S
C2588 H2579 0.950 . S
C2588 C2587 1.398 . S
C2588 C2589 1.391 . S
C2589 H2577 0.950 . S
C2589 C2585 1.393 . S
C2589 C2588 1.391 . S
C2590 H2580 0.950 . S
C2590 C2591 1.386 . S
C2590 C2592 1.391 1_565 S
C2591 C2590 1.386 . S
C2591 C2595 1.393 . S
C2592 H2581 0.950 . S
C2592 C2590 1.391 1_545 S
C2592 C2593 1.400 . S
C2593 C2587 1.491 . S
C2593 C2592 1.400 . S
C2593 C2594 1.398 1_545 S
C2594 H2582 0.950 . S
C2594 C2593 1.398 1_565 S
C2594 C2595 1.391 . S
C2595 H2583 0.950 . S
C2595 C2591 1.393 . S
C2595 C2594 1.391 . S
H2596 C2604 0.950 . S
H2597 C2609 0.950 . S
H2598 C2606 0.950 . S
H2599 C2608 0.950 . S
H2600 C2610 0.950 . S
H2601 C2612 0.950 . S
H2602 C2614 0.950 . S
H2603 C2615 0.950 . S
C2604 H2596 0.950 . S
C2604 C2605 1.386 . S
C2604 C2606 1.391 . S
C2605 C2604 1.386 . S
C2605 C2609 1.393 . S
C2606 H2598 0.950 . S
C2606 C2604 1.391 . S
C2606 C2607 1.400 . S
C2607 C2606 1.400 . S
C2607 C2608 1.398 . S
C2607 C2613 1.491 . S
C2608 H2599 0.950 . S
C2608 C2607 1.398 . S
C2608 C2609 1.391 . S
C2609 H2597 0.950 . S
C2609 C2605 1.393 . S
C2609 C2608 1.391 . S
C2610 H2600 0.950 . S
C2610 C2611 1.386 . S
C2610 C2612 1.391 . S
C2611 C2610 1.386 . S
C2611 C2615 1.393 . S
C2612 H2601 0.950 . S
C2612 C2610 1.391 . S
C2612 C2613 1.400 . S
C2613 C2607 1.491 . S
C2613 C2612 1.400 . S
C2613 C2614 1.398 . S
C2614 H2602 0.950 . S
C2614 C2613 1.398 . S
C2614 C2615 1.391 . S
C2615 H2603 0.950 . S
C2615 C2611 1.393 . S
C2615 C2614 1.391 . S
H2616 C2624 0.950 . S
H2617 C2629 0.950 . S
H2618 C2626 0.950 . S
H2619 C2628 0.950 . S
H2620 C2630 0.950 . S
H2621 C2632 0.950 . S
H2622 C2634 0.950 . S
H2623 C2635 0.950 . S
C2624 H2616 0.950 . S
C2624 C2625 1.386 . S
C2624 C2626 1.391 . S
C2625 C2624 1.386 . S
C2625 C2629 1.393 . S
C2626 H2618 0.950 . S
C2626 C2624 1.391 . S
C2626 C2627 1.400 . S
C2627 C2626 1.400 . S
C2627 C2628 1.398 . S
C2627 C2633 1.491 . S
C2628 H2619 0.950 . S
C2628 C2627 1.398 . S
C2628 C2629 1.391 . S
C2629 H2617 0.950 . S
C2629 C2625 1.393 . S
C2629 C2628 1.391 . S
C2630 H2620 0.950 . S
C2630 C2631 1.386 . S
C2630 C2632 1.391 . S
C2631 C2630 1.386 . S
C2631 C2635 1.393 . S
C2632 H2621 0.950 . S
C2632 C2630 1.391 . S
C2632 C2633 1.400 . S
C2633 C2627 1.491 . S
C2633 C2632 1.400 . S
C2633 C2634 1.398 . S
C2634 H2622 0.950 . S
C2634 C2633 1.398 . S
C2634 C2635 1.391 . S
C2635 H2623 0.950 . S
C2635 C2631 1.393 . S
C2635 C2634 1.391 . S
H2636 C2644 0.950 . S
H2637 C2649 0.950 . S
H2638 C2646 0.950 . S
H2639 C2648 0.950 . S
H2640 C2650 0.950 . S
H2641 C2652 0.950 . S
H2642 C2654 0.950 . S
H2643 C2655 0.950 . S
C2644 H2636 0.950 . S
C2644 C2645 1.386 . S
C2644 C2646 1.391 . S
C2645 C2644 1.386 . S
C2645 C2649 1.393 . S
C2646 H2638 0.950 . S
C2646 C2644 1.391 . S
C2646 C2647 1.400 . S
C2647 C2646 1.400 . S
C2647 C2648 1.398 . S
C2647 C2653 1.491 . S
C2648 H2639 0.950 . S
C2648 C2647 1.398 . S
C2648 C2649 1.391 . S
C2649 H2637 0.950 . S
C2649 C2645 1.393 . S
C2649 C2648 1.391 . S
C2650 H2640 0.950 . S
C2650 C2651 1.386 . S
C2650 C2652 1.391 . S
C2651 C2650 1.386 . S
C2651 C2655 1.393 . S
C2652 H2641 0.950 . S
C2652 C2650 1.391 . S
C2652 C2653 1.400 . S
C2653 C2647 1.491 . S
C2653 C2652 1.400 . S
C2653 C2654 1.398 . S
C2654 H2642 0.950 . S
C2654 C2653 1.398 . S
C2654 C2655 1.391 . S
C2655 H2643 0.950 . S
C2655 C2651 1.393 . S
C2655 C2654 1.391 . S
C1065 N80 1.529 . S
C1071 N14 1.543 . S
C1085 N38 1.553 . S
C1091 N113 1.543 . S
C1105 N212 1.555 . S
C1111 N146 1.551 . S
C1125 N245 1.543 . S
C1131 N179 1.535 . S
C1145 N278 1.541 . S
C1151 N344 1.528 . S
C1165 N302 1.550 . S
C1171 N377 1.547 . S
C1185 N476 1.567 . S
C1191 N410 1.571 . S
C1205 N509 1.534 . S
C1211 N443 1.521 . S
C1225 N608 1.527 . S
C1231 N542 1.538 . S
C1245 N641 1.547 . S
C1251 N566 1.550 . S
C1265 N674 1.554 . S
C1271 N740 1.552 . S
C1285 N773 1.542 . S
C1291 N707 1.528 . S
C1305 N806 1.549 . S
C1311 N872 1.547 . S
C1325 N830 1.554 . S
C1331 N905 1.544 . S
C1345 N1004 1.557 . S
C1351 N938 1.570 . S
C1365 N971 1.521 . S
C1371 N1037 1.525 . S
C1385 N5 1.473 . S
C1391 N335 1.482 . S
C1405 N368 1.490 . S
C1411 N47 1.490 1_565 S
C1425 N71 1.476 1_565 S
C1431 N269 1.476 . S
C1445 N104 1.495 . S
C1451 N311 1.494 . S
C1465 N137 1.465 . S
C1471 N467 1.464 . S
C1485 N500 1.510 . S
C1491 N170 1.498 . S
C1505 N401 1.463 . S
C1511 N203 1.466 . S
C1525 N236 1.500 . S
C1531 N434 1.507 . S
C1545 N863 1.480 . S
C1551 N533 1.473 . S
C1565 N575 1.501 1_565 S
C1571 N896 1.499 . S
C1585 N599 1.482 1_565 S
C1591 N797 1.473 . S
C1605 N839 1.493 . S
C1611 N632 1.493 . S
C1625 N665 1.464 . S
C1631 N995 1.471 . S
C1645 N698 1.499 . S
C1651 N1028 1.507 . S
C1665 N731 1.472 . S
C1671 N929 1.463 . S
C1685 N764 1.506 . S
C1691 N962 1.499 . S
C1705 C17 1.544 . S
C1711 C50 1.529 . S
C1725 C83 1.546 . S
C1731 C116 1.547 . S
C1745 C182 1.544 . S
C1751 C149 1.542 . S
C1765 C215 1.546 . S
C1771 C248 1.544 . S
C1785 C281 1.544 . S
C1791 C314 1.530 . S
C1805 C380 1.545 . S
C1811 C347 1.547 . S
C1825 C446 1.542 . S
C1831 C413 1.540 . S
C1845 C479 1.543 . S
C1851 C512 1.541 . S
C1865 C545 1.553 . S
C1871 C578 1.541 . S
C1885 C644 1.540 . S
C1891 C611 1.543 . S
C1905 C677 1.535 . S
C1911 C710 1.534 . S
C1925 C776 1.541 . S
C1931 C743 1.539 . S
C1945 C809 1.556 . S
C1951 C842 1.546 . S
C1965 C908 1.540 . S
C1971 C875 1.538 . S
C1985 C974 1.536 . S
C1991 C941 1.539 . S
C2005 C1007 1.539 . S
C2011 C1040 1.539 . S
C2025 C28 1.526 . S
C2031 C160 1.527 . S
C2045 C985 1.558 . S
C2051 C41 1.569 . S
C2065 C94 1.538 . S
C2071 C490 1.538 . S
C2085 C127 1.541 . S
C2091 C787 1.541 . S
C2105 C193 1.545 . S
C2111 C833 1.558 . S
C2125 C226 1.526 . S
C2131 C358 1.527 . S
C2145 C655 1.556 . S
C2151 C259 1.556 . S
C2165 C424 1.532 . S
C2171 C292 1.531 . S
C2185 C721 1.553 . S
C2191 C305 1.565 . S
C2205 C1051 1.544 . S
C2211 C391 1.544 . S
C2225 C569 1.559 . S
C2231 C457 1.548 . S
C2245 C523 1.542 . S
C2251 C919 1.542 . S
C2265 C556 1.540 . S
C2271 C688 1.540 . S
C2285 C622 1.525 . S
C2291 C1018 1.525 . S
C2305 C886 1.527 . S
C2311 C754 1.527 . S
C2325 C952 1.541 . S
C2331 C820 1.541 . S
C2345 C140 0.528 . S
C2351 C8 0.528 . S
C2365 C61 0.510 . S
C2371 C965 0.514 . S
C2385 C470 0.544 . S
C2391 C74 0.544 . S
C2405 C107 0.511 . S
C2411 C767 0.511 . S
C2425 C853 0.511 . S
C2431 C173 0.510 . S
C2445 C206 0.527 . S
C2451 C338 0.527 . S
C2465 C239 0.536 . S
C2471 C635 0.536 . S
C2485 C272 0.524 . S
C2491 C404 0.525 . S
C2505 C325 0.529 . S
C2511 C701 0.530 . S
C2525 C1031 0.537 . S
C2531 C371 0.537 . S
C2545 C589 0.514 . S
C2551 C437 0.522 . S
C2565 C503 0.536 . S
C2571 C899 0.536 . S
C2585 C536 0.520 . S
C2591 C668 0.520 . S
C2605 C602 0.524 . S
C2611 C998 0.524 . S
C2625 C734 0.545 . S
C2631 C866 0.545 . S
C2645 C800 0.520 . S
C2651 C932 0.520 . S
