# Generated by pormake.
# Topology sma, (6)-cn, num edge types: 1
# Building blocks:
#     Node 0, Type 0, BuildingBlock: BETGAK_clean_sbu_0, # of connection points: 6
#     Node 1, Type 0, BuildingBlock: BETGAK_clean_sbu_0, # of connection points: 6
#     Node 2, Type 0, BuildingBlock: BETGAK_clean_sbu_0, # of connection points: 6
#     Edge 3, Type (0, 0), BuildingBlock: TEMPAE_clean_linker_10, # of connection points: 2
#     Edge 4, Type (0, 0), BuildingBlock: TEMPAE_clean_linker_10, # of connection points: 2
#     Edge 5, Type (0, 0), BuildingBlock: TEMPAE_clean_linker_10, # of connection points: 2
#     Edge 6, Type (0, 0), BuildingBlock: TEMPAE_clean_linker_10, # of connection points: 2
#     Edge 7, Type (0, 0), BuildingBlock: TEMPAE_clean_linker_10, # of connection points: 2
#     Edge 8, Type (0, 0), BuildingBlock: TEMPAE_clean_linker_10, # of connection points: 2
#     Edge 9, Type (0, 0), BuildingBlock: TEMPAE_clean_linker_10, # of connection points: 2
#     Edge 10, Type (0, 0), BuildingBlock: TEMPAE_clean_linker_10, # of connection points: 2
#     Edge 11, Type (0, 0), BuildingBlock: TEMPAE_clean_linker_10, # of connection points: 2
# Relax obj value: 0.133
# Max RMSD: 0.255
# Mean RMSD: 0.203
data_MOF--net-sma--node1-BETGAK_clean_sbu_0--edge1-TEMPAE_clean_linker_10
_symmetry_space_group_name_H-M    P1
_symmetry_Int_Tables_number       1
_symmetry_cell_setting            triclinic
loop_
_symmetry_equiv_pos_as_xyz
'x, y, z'
_cell_length_a     40.708519
_cell_length_b     47.60543
_cell_length_c     14.131043
_cell_angle_alpha  93.359957
_cell_angle_beta   90.242253
_cell_angle_gamma 139.89684
loop_
_atom_site_label
_atom_site_type_symbol
_atom_site_fract_x
_atom_site_fract_y
_atom_site_fract_z
_atom_type_partial_charge
La0 La 0.14749 0.65608 0.17461 0.0
La1 La 1.08729 0.67031 0.22001 0.0
C2 C 0.20216 0.65315 0.11053 0.0
C3 C 0.23677 0.65345 0.07577 0.0
C4 C 0.2879 0.68624 0.1133 0.0
C5 C 0.3201 0.68522 0.08728 0.0
C6 C 0.302 0.65111 0.02363 0.0
C7 C 0.25106 0.61887 -0.01598 0.0
C8 C 0.21885 0.62012 0.00963 0.0
C9 C 0.12619 0.64971 0.35238 0.0
C10 C 0.20765 0.75258 0.21739 0.0
C11 C 1.05193 0.69531 0.26215 0.0
C12 C 1.01066 0.68697 0.22565 0.0
C13 C 0.98441 0.66401 0.13621 0.0
C14 C 0.95092 0.66197 0.09638 0.0
C15 C 0.94297 0.68294 0.14498 0.0
C16 C 0.96827 0.70476 0.23591 0.0
C17 C 1.00176 0.7068 0.27556 0.0
C18 C 1.0799 0.64546 0.04144 0.0
C19 C 1.0309 0.57552 0.21372 0.0
O20 O 0.21384 0.67545 0.1907 0.0
O21 O 0.15898 0.63222 0.06481 0.0
O22 O 0.13117 0.62858 0.30909 0.0
O23 O 0.13705 0.67583 0.2992 0.0
O24 O 0.2069 0.72706 0.17148 0.0
O25 O 0.16639 0.73604 0.2547 0.0
O26 O 1.08833 0.71436 0.20496 0.0
O27 O 1.03903 0.66402 0.30268 0.0
O28 O 1.04333 0.63394 0.08281 0.0
O29 O 0.11917 0.67189 0.09746 0.0
O30 O 1.03416 0.60339 0.25552 0.0
O31 O 1.0674 0.58895 0.16111 0.0
H32 H 0.30305 0.71263 0.16378 0.0
H33 H 0.35931 0.71126 0.11754 0.0
H34 H 0.23555 0.59191 0.93533 0.0
H35 H 0.17954 0.59431 -0.02016 0.0
H36 H 0.99091 0.64871 0.09591 0.0
H37 H 0.93159 0.64428 0.027 0.0
H38 H 0.96369 0.72171 0.2752 0.0
H39 H 1.02211 0.72521 0.34405 0.0
La40 La 0.65946 0.16305 0.37306 0.0
La41 La 0.60013 0.17797 0.33218 0.0
C42 C 0.6961 0.14208 0.43608 0.0
C43 C 0.6823 0.10547 0.47205 0.0
C44 C 0.6789 0.07927 0.40872 0.0
C45 C 0.67352 1.0489 0.44173 0.0
C46 C 0.6716 1.04385 0.53923 0.0
C47 C 0.67291 0.06871 0.60266 0.0
C48 C 0.67859 0.09947 0.5695 0.0
C49 C 0.65877 0.17741 0.1978 0.0
C50 C 0.53919 0.08035 0.32402 0.0
C51 C 0.5468 0.18547 0.29534 0.0
C52 C 0.54779 0.21502 0.34121 0.0
C53 C 0.5524 0.22223 0.4409 0.0
C54 C 0.55374 0.25024 0.48456 0.0
C55 C 0.55098 0.27225 0.43 0.0
C56 C 0.54647 0.26509 0.33006 0.0
C57 C 0.54489 0.23677 0.28622 0.0
C58 C 0.63404 0.19417 0.51003 0.0
C59 C 0.71944 0.25814 0.34398 0.0
O60 O 0.6827 0.13686 0.34645 0.0
O61 O 0.69176 0.16251 0.48974 0.0
O62 O 0.69647 0.18932 0.24113 0.0
O63 O 0.62206 0.15597 0.24986 0.0
O64 O 0.58096 0.09535 0.36042 0.0
O65 O 0.53949 0.10694 0.29885 0.0
O66 O 0.53242 0.15613 0.34794 0.0
O67 O 0.58651 0.20396 0.24839 0.0
O68 O 0.63154 0.21622 0.47078 0.0
O69 O 0.61553 0.16327 0.45217 0.0
O70 O 0.67672 0.23968 0.30117 0.0
O71 O 0.71976 0.2353 0.39347 0.0
H72 H 0.68218 0.08322 0.33336 0.0
H73 H 0.67189 1.02989 0.39076 0.0
H74 H 0.67176 1.06575 0.67831 0.0
H75 H 0.68176 0.11948 0.62043 0.0
H76 H 0.55483 0.20609 0.48568 0.0
H77 H 0.55628 0.25414 0.56148 0.0
H78 H 0.54482 0.2818 0.28557 0.0
H79 H 0.54163 0.23201 0.20932 0.0
La80 La 0.66458 0.71057 0.86163 0.0
La81 La 0.58344 0.61292 0.88458 0.0
C82 C 0.71201 0.7818 0.79809 0.0
C83 C 0.70239 0.80508 0.77535 0.0
C84 C 0.74358 0.85096 0.78193 0.0
C85 C 0.73591 0.87419 0.76247 0.0
C86 C 0.68664 0.85208 0.73646 0.0
C87 C 0.64528 0.80588 0.7297 0.0
C88 C 0.65311 0.78262 0.74873 0.0
C89 C 0.65631 0.69099 0.03456 0.0
C90 C 0.54747 0.65146 0.89273 0.0
C91 C 0.53673 0.53854 0.9202 0.0
C92 C 0.53894 0.51159 0.87207 0.0
C93 C 0.55091 0.51638 0.77675 0.0
C94 C 0.55354 0.49144 0.73038 0.0
C95 C 0.5451 0.46145 0.77844 0.0
C96 C 0.53384 0.45722 0.8746 0.0
C97 C 0.53073 0.482 0.92082 0.0
C98 C 0.59605 0.63437 0.71075 0.0
C99 C 0.70293 0.67416 0.88339 0.0
O100 O 0.71348 0.77757 0.88817 0.0
O101 O 0.68728 0.74599 0.74393 0.0
O102 O 0.69881 0.72745 0.00448 0.0
O103 O 0.61996 0.6696 -0.02758 0.0
O104 O 0.59143 0.68614 0.85677 0.0
O105 O 0.53902 0.62079 0.9245 0.0
O106 O 0.51628 0.54467 0.86801 0.0
O107 O 0.57886 0.57494 -0.03147 0.0
O108 O 0.55336 0.59774 0.738 0.0
O109 O 0.63036 0.65437 0.77586 0.0
O110 O 0.65544 0.63673 0.90058 0.0
O111 O 0.71555 0.70754 0.85597 0.0
H112 H 0.78195 0.86896 0.802 0.0
H113 H 0.76889 0.90959 0.76661 0.0
H114 H 0.60674 0.78765 0.71075 0.0
H115 H 0.6207 0.74718 0.74283 0.0
H116 H 0.55806 0.5394 0.7377 0.0
H117 H 0.56153 0.49534 0.6562 0.0
H118 H 0.528 0.43512 0.91467 0.0
H119 H 0.52217 0.47821 -0.00528 0.0
C120 C 0.33493 0.63541 0.9087 0.0
C121 C 0.33603 0.64898 0.00093 0.0
C122 C 0.36753 0.6341 0.88692 0.0
C123 C 0.40241 0.64693 0.95878 0.0
C124 C 0.40344 0.66033 0.05204 0.0
C125 C 0.37018 0.66093 0.07201 0.0
C126 C 0.36498 0.61939 0.78671 0.0
C127 C 0.44003 0.67436 0.13086 0.0
C128 C 0.46047 0.61154 0.93363 0.0
C129 C 0.50932 0.64937 0.90525 0.0
C130 C 0.42488 0.6099 0.94902 0.0
C131 C 0.43849 0.64709 0.93662 0.0
C132 C 0.48749 0.68516 0.90681 0.0
C133 C 0.52214 0.68578 0.89128 0.0
C134 C 0.37293 0.56853 -0.02009 0.0
C135 C 0.50387 0.7257 0.89344 0.0
H136 H 0.30919 0.6265 0.8529 0.0
H137 H 0.37075 0.67055 0.14399 0.0
H138 H 0.40225 0.64645 0.75602 0.0
H139 H 0.35763 0.59164 0.78708 0.0
H140 H 0.33459 0.609 0.73974 0.0
H141 H 0.43616 0.68394 0.19955 0.0
H142 H 0.43323 0.64732 0.14094 0.0
H143 H 0.48 0.70257 0.11137 0.0
H144 H 0.45002 0.58315 0.9443 0.0
H145 H 0.55979 0.71531 0.87007 0.0
H146 H 0.34244 0.55708 0.93091 0.0
H147 H 0.3682 0.57526 0.05183 0.0
H148 H 0.36727 0.54174 -0.01822 0.0
H149 H 0.47613 0.71756 0.84271 0.0
H150 H 0.54252 0.75205 0.86658 0.0
H151 H 0.50423 0.73851 0.96214 0.0
C152 C 0.76739 0.32426 0.2584 0.0
C153 C 0.76791 0.30463 0.328 0.0
C154 C 0.8118 0.36781 0.24017 0.0
C155 C 0.85846 0.39302 0.29297 0.0
C156 C 0.85967 0.37349 0.36273 0.0
C157 C 0.81441 0.32943 0.37919 0.0
C158 C 0.80854 0.387 0.16482 0.0
C159 C 0.90865 0.39931 0.42069 0.0
C160 C 0.97876 0.49672 0.18574 0.0
C161 C 0.98733 0.52874 0.2339 0.0
C162 C 0.93797 0.45264 0.20619 0.0
C163 C 0.90507 0.44023 0.27693 0.0
C164 C 0.91429 0.47261 0.32716 0.0
C165 C 0.95503 0.51625 0.30494 0.0
C166 C 0.9294 0.41916 0.15067 0.0
C167 C 0.8804 0.46102 0.40323 0.0
H168 H 0.73202 0.30549 0.21718 0.0
H169 H 0.81535 0.31463 0.43274 0.0
H170 H 0.8186 0.41479 0.19767 0.0
H171 H 0.83643 0.40006 0.11127 0.0
H172 H 0.76976 0.36257 0.12757 0.0
H173 H 0.90373 0.37916 0.4701 0.0
H174 H 0.93882 0.41267 0.37293 0.0
H175 H 0.92247 0.42764 0.46278 0.0
H176 H 1.00362 0.50596 0.13129 0.0
H177 H 0.96158 0.54066 0.34385 0.0
H178 H 0.89226 0.39516 0.10749 0.0
H179 H 0.92736 0.40063 0.19996 0.0
H180 H 0.96013 0.43438 0.1024 0.0
H181 H 0.84121 0.43895 0.37089 0.0
H182 H 0.89477 0.49041 0.44038 0.0
H183 H 0.87747 0.44313 0.45665 0.0
C184 C 0.70423 1.01564 0.53764 0.0
C185 C 0.67119 1.01451 0.57381 0.0
C186 C 0.70435 0.98807 0.5674 0.0
C187 C 0.67036 0.9582 0.63488 0.0
C188 C 0.63693 0.95691 0.67205 0.0
C189 C 0.63798 0.98527 0.64156 0.0
C190 C 0.74115 0.9911 0.52675 0.0
C191 C 0.5998 0.92532 0.74342 0.0
C192 C 0.64495 0.86272 0.63953 0.0
C193 C 0.67908 0.8774 0.71515 0.0
C194 C 0.64024 0.88783 0.61497 0.0
C195 C 0.67057 0.92886 0.6667 0.0
C196 C 0.70388 0.94323 0.74485 0.0
C197 C 0.70754 0.91734 0.76829 0.0
C198 C 0.60402 0.87109 0.53149 0.0
C199 C 0.73696 0.9867 0.80199 0.0
H200 H 0.73062 1.03862 0.48646 0.0
H201 H 0.61213 0.98401 0.66941 0.0
H202 H 0.7666 0.99946 0.58493 0.0
H203 H 0.7197 0.95892 0.49039 0.0
H204 H 0.76524 1.01613 0.47513 0.0
H205 H 0.57619 0.92817 0.76522 0.0
H206 H 0.57398 0.89121 0.71283 0.0
H207 H 0.62088 0.93132 0.80768 0.0
H208 H 0.62304 0.8322 0.59732 0.0
H209 H 0.73319 0.92867 0.82814 0.0
H210 H 0.62616 0.89255 0.47319 0.0
H211 H 0.57866 0.87213 0.55205 0.0
H212 H 0.57992 0.83702 0.50386 0.0
H213 H 0.76455 1.01369 0.75599 0.0
H214 H 0.75874 0.9921 0.86383 0.0
H215 H 0.71311 0.98871 0.82822 0.0
C216 C 0.72792 0.64039 0.9028 0.0
C217 C 0.74258 0.67837 0.90283 0.0
C218 C 0.76219 0.6422 0.93565 0.0
C219 C 0.81254 0.68299 -0.02942 0.0
C220 C 0.82831 0.72174 -0.03287 0.0
C221 C 0.79322 0.719 0.93285 0.0
C222 C 0.74371 0.60009 0.93656 0.0
C223 C 0.88152 0.76587 0.00385 0.0
C224 C 0.87743 0.67883 0.15472 0.0
C225 C 0.90968 0.68315 0.10018 0.0
C226 C 0.84643 0.67948 0.1138 0.0
C227 C 0.84736 0.68449 0.01557 0.0
C228 C 0.87997 0.68909 0.96013 0.0
C229 C 0.91065 0.6884 0.00294 0.0
C230 C 0.81212 0.67425 0.17567 0.0
C231 C 0.88221 0.69448 0.8553 0.0
H232 H 0.68894 0.60882 0.87928 0.0
H233 H 0.80474 0.74842 0.93411 0.0
H234 H 0.77039 0.60303 0.9011 0.0
H235 H 0.74288 0.59349 0.01107 0.0
H236 H 0.70479 0.57156 0.90048 0.0
H237 H 0.88926 0.79315 -0.01076 0.0
H238 H 0.88643 0.76697 0.0818 0.0
H239 H 0.91047 0.77117 -0.02887 0.0
H240 H 0.87579 0.67425 0.22951 0.0
H241 H 0.93597 0.69253 0.96023 0.0
H242 H 0.77152 0.64402 0.14977 0.0
H243 H 0.82009 0.70222 0.17129 0.0
H244 H 0.81715 0.67229 0.25138 0.0
H245 H 0.84396 0.66542 0.81781 0.0
H246 H 0.91029 0.69861 0.82237 0.0
H247 H 0.89269 0.72341 0.84404 0.0
C248 C 0.48471 1.00321 0.35381 0.0
C249 C 0.49094 1.03221 0.30747 0.0
C250 C 0.43898 0.95764 0.33959 0.0
C251 C 0.39873 0.94048 0.27623 0.0
C252 C 0.40507 0.96956 0.22831 0.0
C253 C 0.45084 1.015 0.24511 0.0
C254 C 0.43353 0.92786 0.39323 0.0
C255 C 0.36349 0.95266 0.15905 0.0
C256 C 0.29748 0.82063 0.17658 0.0
C257 C 0.25644 0.80064 0.23172 0.0
C258 C 0.34383 0.86608 0.18981 0.0
C259 C 0.3497 0.89216 0.261 0.0
C260 C 0.30854 0.87209 0.31736 0.0
C261 C 0.26235 0.82673 0.30154 0.0
C262 C 0.38644 0.88624 0.12715 0.0
C263 C 0.31338 0.89852 0.39493 0.0
H264 H 0.51535 1.01616 0.40246 0.0
H265 H 0.45537 1.03707 0.20837 0.0
H266 H 0.40039 0.90834 0.43746 0.0
H267 H 0.42588 0.90439 0.34256 0.0
H268 H 0.46827 0.94632 0.44014 0.0
H269 H 0.37494 0.97946 0.12539 0.0
H270 H 0.35358 0.92955 0.10231 0.0
H271 H 0.32837 0.93428 0.19613 0.0
H272 H 0.29323 0.80081 0.12219 0.0
H273 H 0.23104 0.8116 0.34501 0.0
H274 H 0.42093 0.9026 0.17132 0.0
H275 H 0.3971 0.91175 0.08868 0.0
H276 H 0.37563 0.8616 0.07422 0.0
H277 H 0.3461 0.91566 0.44654 0.0
H278 H 0.27825 0.87788 0.4339 0.0
H279 H 0.32132 0.92402 0.36407 0.0
C280 C 0.58328 0.45238 0.6597 0.0
C281 C 0.54762 0.43461 0.72784 0.0
C282 C 0.58485 0.42713 0.60898 0.0
C283 C 0.5505 0.38305 0.62751 0.0
C284 C 0.51495 0.36505 0.69707 0.0
C285 C 0.51373 0.39086 0.74583 0.0
C286 C 0.62322 0.44762 0.53521 0.0
C287 C 0.47797 0.31835 0.71977 0.0
C288 C 0.52122 0.30327 0.4422 0.0
C289 C 0.55243 0.30214 0.47794 0.0
C290 C 0.52075 0.32986 0.48926 0.0
C291 C 0.55193 0.35584 0.57471 0.0
C292 C 0.58402 0.35534 0.61046 0.0
C293 C 0.5841 0.3288 0.56155 0.0
C294 C 0.48632 0.32971 0.44816 0.0
C295 C 0.61789 0.38248 0.70122 0.0
H296 H 0.61039 0.4863 0.64619 0.0
H297 H 0.4855 0.37641 0.79704 0.0
H298 H 0.64918 0.44709 0.55434 0.0
H299 H 0.60313 0.42834 0.46508 0.0
H300 H 0.64667 0.48203 0.5279 0.0
H301 H 0.45339 0.30945 0.77703 0.0
H302 H 0.45304 0.29556 0.65523 0.0
H303 H 0.49931 0.31339 0.74226 0.0
H304 H 0.49618 0.28257 0.37841 0.0
H305 H 0.60918 0.32901 0.58901 0.0
H306 H 0.50905 0.3636 0.437 0.0
H307 H 0.45759 0.31728 0.49894 0.0
H308 H 0.46587 0.30903 0.37938 0.0
H309 H 0.64434 0.41762 0.69464 0.0
H310 H 0.64086 0.37869 0.71934 0.0
H311 H 0.59415 0.37278 0.76103 0.0
C312 C 0.12463 0.6591 0.90007 0.0
C313 C 1.07967 0.6388 0.93908 0.0
C314 C 0.12669 0.65677 0.80171 0.0
C315 C 1.08265 0.63362 0.74168 0.0
C316 C 1.03656 0.61171 0.78086 0.0
C317 C 1.03561 0.61458 0.87975 0.0
C318 C 0.17641 0.6802 0.76206 0.0
C319 C 0.9889 0.58646 0.71844 0.0
C320 C 0.11418 0.67252 0.49686 0.0
C321 C 0.10917 0.64289 0.44807 0.0
C322 C 0.10291 0.6685 0.59204 0.0
C323 C 1.08593 0.63382 0.63789 0.0
C324 C 1.07755 0.60216 0.58663 0.0
C325 C 1.08959 0.60725 0.492 0.0
C326 C 0.11201 0.70271 0.64491 0.0
C327 C 1.0587 0.56441 0.63303 0.0
H328 H 0.15864 0.6778 0.94636 0.0
H329 H 1.00081 0.59881 0.91047 0.0
H330 H 0.17023 0.65698 0.71404 0.0
H331 H 0.19064 0.70627 0.71933 0.0
H332 H 0.20649 0.69538 0.81882 0.0
H333 H 0.95524 0.56859 0.76033 0.0
H334 H 0.9954 0.60933 0.67714 0.0
H335 H 0.9799 0.56255 0.66647 0.0
H336 H 0.12885 0.69977 0.46191 0.0
H337 H 1.08487 0.58389 0.45309 0.0
H338 H 0.14498 0.7228 0.69848 0.0
H339 H 1.07823 0.6869 0.68372 0.0
H340 H 0.12026 0.72485 0.59661 0.0
H341 H 1.08938 0.57694 0.6837 0.0
H342 H 1.04754 0.53957 0.58015 0.0
H343 H 1.02538 0.54814 0.67417 0.0
C344 C 0.70393 0.21392 0.05414 0.0
C345 C 0.6592 0.18731 0.10184 0.0
C346 C 0.70407 0.22054 0.95917 0.0
C347 C 0.6583 0.19985 0.91182 0.0
C348 C 0.61377 0.17496 0.96141 0.0
C349 C 0.61479 0.16899 0.05656 0.0
C350 C 0.7523 0.24761 0.9083 0.0
C351 C 0.56441 0.15271 0.91267 0.0
C352 C 0.66027 0.23157 0.67164 0.0
C353 C 0.64424 0.19779 0.61177 0.0
C354 C 0.66599 0.23325 0.77016 0.0
C355 C 0.65543 0.20037 0.80831 0.0
C356 C 0.64064 0.16691 0.74771 0.0
C357 C 0.63508 0.16598 0.64971 0.0
C358 C 0.68198 0.26937 0.83335 0.0
C359 C 0.62948 0.13151 0.78641 0.0
H360 H 0.73849 0.22858 0.09022 0.0
H361 H 0.58042 0.14878 0.0944 0.0
H362 H 0.74697 0.22588 0.85587 0.0
H363 H 0.76061 0.27168 0.8684 0.0
H364 H 0.78596 0.2655 0.95812 0.0
H365 H 0.53495 0.13831 -0.03634 0.0
H366 H 0.57128 0.1763 0.87399 0.0
H367 H 0.54901 0.12612 0.85942 0.0
H368 H 0.66732 0.25614 0.64163 0.0
H369 H 0.62228 0.1397 0.60303 0.0
H370 H 0.7157 0.28657 0.88181 0.0
H371 H 0.6506 0.25513 0.87848 0.0
H372 H 0.69153 0.29377 0.79187 0.0
H373 H 0.66336 0.14646 0.83017 0.0
H374 H 0.61917 0.1083 0.72914 0.0
H375 H 0.59744 0.1127 0.83326 0.0
C376 C 0.61571 0.62189 0.56193 0.0
C377 C 0.60654 0.6413 0.61204 0.0
C378 C 0.62636 0.62859 0.46656 0.0
C379 C 0.62755 0.65517 0.42209 0.0
C380 C 0.61873 0.67516 0.47353 0.0
C381 C 0.6082 0.66785 0.56873 0.0
C382 C 0.63579 0.60703 0.41334 0.0
C383 C 0.61976 0.70371 0.42779 0.0
C384 C 0.6924 0.70626 0.19722 0.0
C385 C 0.65 0.67909 0.13112 0.0
C386 C 0.68597 0.69751 0.29236 0.0
C387 C 0.63602 0.66095 0.32066 0.0
C388 C 0.59344 0.63207 0.25293 0.0
C389 C 0.60102 0.6415 0.15837 0.0
C390 C 0.73216 0.72856 0.3632 0.0
C391 C 0.53965 0.59268 0.28111 0.0
H392 H 0.61447 0.60151 0.59746 0.0
H393 H 0.60105 0.68266 0.60924 0.0
H394 H 0.60618 0.58406 0.35348 0.0
H395 H 0.67336 0.63208 0.3823 0.0
H396 H 0.63517 0.58859 0.45973 0.0
H397 H 0.6135 0.7177 0.47891 0.0
H398 H 0.65708 0.73105 0.39755 0.0
H399 H 0.58965 0.68427 0.36825 0.0
H400 H 0.73033 0.73504 0.17523 0.0
H401 H 0.56837 0.62027 0.10652 0.0
H402 H 0.73189 0.7101 0.40836 0.0
H403 H 0.73098 0.74709 0.41095 0.0
H404 H 0.7686 0.75237 0.32789 0.0
H405 H 0.53775 0.5728 0.3243 0.0
H406 H 0.5115 0.57143 0.2184 0.0
H407 H 0.52822 0.60377 0.32568 0.0
loop_
_geom_bond_atom_site_label_1
_geom_bond_atom_site_label_2
_geom_bond_distance
_geom_bond_site_symmetry_2
_ccdc_geom_bond_type
La0 C2 2.928 . S
La0 O20 2.521 . S
La0 O21 2.628 . S
La0 O22 2.554 . S
La0 O23 2.757 . S
La0 O24 2.470 . S
La0 O29 2.482 . S
La0 O31 2.503 1_455 S
La1 C11 2.928 . S
La1 O23 2.482 1_655 S
La1 O25 2.503 1_655 S
La1 O26 2.521 . S
La1 O27 2.628 . S
La1 O28 2.554 1_554 S
La1 O29 2.757 1_655 S
La1 O30 2.470 . S
C2 La0 2.928 . S
C2 C3 1.503 . S
C2 O20 1.261 . S
C2 O21 1.243 . S
C3 C2 1.503 . S
C3 C4 1.394 . S
C3 C8 1.373 . S
C4 C3 1.394 . S
C4 C5 1.380 . S
C4 H32 0.930 . S
C5 C4 1.380 . S
C5 C6 1.376 . S
C5 H33 0.930 . S
C6 C5 1.376 . S
C6 C7 1.370 . S
C7 C6 1.370 . S
C7 C8 1.396 . S
C7 H34 0.929 . S
C8 C3 1.373 . S
C8 C7 1.396 . S
C8 H35 0.929 . S
C9 O22 1.240 . S
C9 O23 1.289 . S
C10 O24 1.258 . S
C10 O25 1.256 . S
C11 La1 2.928 . S
C11 C12 1.503 . S
C11 O26 1.261 . S
C11 O27 1.243 . S
C12 C11 1.503 . S
C12 C13 1.394 . S
C12 C17 1.373 . S
C13 C12 1.394 . S
C13 C14 1.380 . S
C13 H36 0.930 . S
C14 C13 1.380 . S
C14 C15 1.376 . S
C14 H37 0.930 . S
C15 C14 1.376 . S
C15 C16 1.370 . S
C16 C15 1.370 . S
C16 C17 1.396 . S
C16 H38 0.929 . S
C17 C12 1.373 . S
C17 C16 1.396 . S
C17 H39 0.929 . S
C18 O28 1.240 1_455 S
C18 O29 1.289 1_556 S
C19 O30 1.258 . S
C19 O31 1.256 . S
O20 La0 2.521 . S
O20 C2 1.261 . S
O21 La0 2.628 . S
O21 C2 1.243 . S
O22 La0 2.554 . S
O22 C9 1.240 . S
O23 La0 2.757 . S
O23 La1 2.482 1_455 S
O23 C9 1.289 . S
O24 La0 2.470 . S
O24 C10 1.258 . S
O25 La1 2.503 1_455 S
O25 C10 1.256 . S
O26 La1 2.521 . S
O26 C11 1.261 . S
O27 La1 2.628 . S
O27 C11 1.243 . S
O28 La1 2.554 1_556 S
O28 C18 1.240 1_655 S
O29 La0 2.482 . S
O29 La1 2.757 1_455 S
O29 C18 1.289 1_554 S
O30 La1 2.470 . S
O30 C19 1.258 . S
O31 La0 2.503 1_655 S
O31 C19 1.256 . S
H32 C4 0.930 . S
H33 C5 0.930 . S
H34 C7 0.929 . S
H35 C8 0.929 . S
H36 C13 0.930 . S
H37 C14 0.930 . S
H38 C16 0.929 . S
H39 C17 0.929 . S
La40 C42 2.928 . S
La40 O60 2.521 . S
La40 O61 2.628 . S
La40 O62 2.554 . S
La40 O63 2.757 . S
La40 O64 2.470 . S
La40 O69 2.482 . S
La40 O71 2.503 . S
La41 C51 2.928 . S
La41 O63 2.482 . S
La41 O65 2.503 . S
La41 O66 2.521 . S
La41 O67 2.628 . S
La41 O68 2.554 . S
La41 O69 2.757 . S
La41 O70 2.470 . S
C42 La40 2.928 . S
C42 C43 1.503 1_545 S
C42 O60 1.261 . S
C42 O61 1.243 . S
C43 C42 1.503 1_565 S
C43 C44 1.394 . S
C43 C48 1.373 . S
C44 C43 1.394 . S
C44 C45 1.380 . S
C44 H72 0.930 . S
C45 C44 1.380 . S
C45 C46 1.376 . S
C45 H73 0.930 . S
C46 C45 1.376 . S
C46 C47 1.370 . S
C47 C46 1.370 . S
C47 C48 1.396 . S
C47 H74 0.929 . S
C48 C43 1.373 . S
C48 C47 1.396 . S
C48 H75 0.929 . S
C49 O62 1.240 . S
C49 O63 1.289 . S
C50 O64 1.258 . S
C50 O65 1.256 . S
C51 La41 2.928 . S
C51 C52 1.503 . S
C51 O66 1.261 . S
C51 O67 1.243 . S
C52 C51 1.503 . S
C52 C53 1.394 . S
C52 C57 1.373 . S
C53 C52 1.394 . S
C53 C54 1.380 . S
C53 H76 0.930 . S
C54 C53 1.380 . S
C54 C55 1.376 . S
C54 H77 0.930 . S
C55 C54 1.376 . S
C55 C56 1.370 . S
C56 C55 1.370 . S
C56 C57 1.396 . S
C56 H78 0.929 . S
C57 C52 1.373 . S
C57 C56 1.396 . S
C57 H79 0.929 . S
C58 O68 1.240 . S
C58 O69 1.289 . S
C59 O70 1.258 . S
C59 O71 1.256 . S
O60 La40 2.521 . S
O60 C42 1.261 . S
O61 La40 2.628 . S
O61 C42 1.243 . S
O62 La40 2.554 . S
O62 C49 1.240 . S
O63 La40 2.757 . S
O63 La41 2.482 . S
O63 C49 1.289 . S
O64 La40 2.470 . S
O64 C50 1.258 . S
O65 La41 2.503 . S
O65 C50 1.256 . S
O66 La41 2.521 . S
O66 C51 1.261 . S
O67 La41 2.628 . S
O67 C51 1.243 . S
O68 La41 2.554 . S
O68 C58 1.240 . S
O69 La40 2.482 . S
O69 La41 2.757 . S
O69 C58 1.289 . S
O70 La41 2.470 . S
O70 C59 1.258 . S
O71 La40 2.503 . S
O71 C59 1.256 . S
H72 C44 0.930 . S
H73 C45 0.930 . S
H74 C47 0.929 . S
H75 C48 0.929 . S
H76 C53 0.930 . S
H77 C54 0.930 . S
H78 C56 0.929 . S
H79 C57 0.929 . S
La80 C82 2.928 . S
La80 O100 2.521 . S
La80 O101 2.628 . S
La80 O102 2.554 1_556 S
La80 O103 2.757 . S
La80 O104 2.470 . S
La80 O109 2.482 . S
La80 O111 2.503 . S
La81 C91 2.928 . S
La81 O103 2.482 . S
La81 O105 2.503 . S
La81 O106 2.521 . S
La81 O107 2.628 . S
La81 O108 2.554 . S
La81 O109 2.757 . S
La81 O110 2.470 . S
C82 La80 2.928 . S
C82 C83 1.503 . S
C82 O100 1.261 . S
C82 O101 1.243 . S
C83 C82 1.503 . S
C83 C84 1.394 . S
C83 C88 1.373 . S
C84 C83 1.394 . S
C84 C85 1.380 . S
C84 H112 0.936 . S
C85 C84 1.380 . S
C85 C86 1.376 . S
C85 H113 0.930 . S
C86 C85 1.376 . S
C86 C87 1.370 . S
C87 C86 1.370 . S
C87 C88 1.396 . S
C87 H114 0.929 . S
C88 C83 1.373 . S
C88 C87 1.396 . S
C88 H115 0.929 . S
C89 O102 1.240 . S
C89 O103 1.289 1_554 S
C90 O104 1.258 . S
C90 O105 1.256 . S
C91 La81 2.928 . S
C91 C92 1.503 . S
C91 O106 1.261 . S
C91 O107 1.243 . S
C92 C91 1.503 . S
C92 C93 1.394 . S
C92 C97 1.373 . S
C93 C92 1.394 . S
C93 C94 1.380 . S
C93 H116 0.930 . S
C94 C93 1.380 . S
C94 C95 1.376 . S
C94 H117 0.930 . S
C95 C94 1.376 . S
C95 C96 1.370 . S
C96 C95 1.370 . S
C96 C97 1.396 . S
C96 H118 0.929 . S
C97 C92 1.373 . S
C97 C96 1.396 . S
C97 H119 0.929 . S
C98 O108 1.240 . S
C98 O109 1.289 . S
C99 O110 1.258 . S
C99 O111 1.256 . S
O100 La80 2.521 . S
O100 C82 1.261 . S
O101 La80 2.628 . S
O101 C82 1.243 . S
O102 La80 2.554 1_554 S
O102 C89 1.240 . S
O103 La80 2.757 . S
O103 La81 2.482 . S
O103 C89 1.289 1_556 S
O104 La80 2.470 . S
O104 C90 1.258 . S
O105 La81 2.503 . S
O105 C90 1.256 . S
O106 La81 2.521 . S
O106 C91 1.261 . S
O107 La81 2.628 . S
O107 C91 1.243 . S
O108 La81 2.554 . S
O108 C98 1.240 . S
O109 La80 2.482 . S
O109 La81 2.757 . S
O109 C98 1.289 . S
O110 La81 2.470 . S
O110 C99 1.258 . S
O111 La80 2.503 . S
O111 C99 1.256 . S
H112 C84 0.936 . S
H113 C85 0.930 . S
H114 C87 0.929 . S
H115 C88 0.929 . S
H116 C93 0.930 . S
H117 C94 0.930 . S
H118 C96 0.929 . S
H119 C97 0.929 . S
C120 C121 1.391 . S
C120 C122 1.394 1_554 S
C120 H136 0.931 1_554 S
C121 C120 1.391 . S
C121 C125 1.376 . S
C122 C120 1.394 1_556 S
C122 C123 1.369 1_556 S
C122 C126 1.531 . S
C123 C122 1.369 1_554 S
C123 C124 1.410 . S
C123 C131 1.503 1_554 S
C124 C123 1.410 . S
C124 C125 1.392 . S
C124 C127 1.511 . S
C125 C121 1.376 . S
C125 C124 1.392 . S
C125 H137 0.929 . S
C126 C122 1.531 . S
C126 H138 0.960 . S
C126 H139 0.962 . S
C126 H140 0.960 . S
C127 C124 1.511 . S
C127 H141 0.961 . S
C127 H142 0.961 . S
C127 H143 0.961 . S
C128 C129 1.370 . S
C128 C130 1.363 . S
C128 H144 0.931 . S
C129 C128 1.370 . S
C129 C133 1.408 . S
C130 C128 1.363 . S
C130 C131 1.370 . S
C130 C134 1.524 . S
C131 C123 1.503 1_556 S
C131 C130 1.370 . S
C131 C132 1.403 . S
C132 C131 1.403 . S
C132 C133 1.404 . S
C132 C135 1.539 1_556 S
C133 C129 1.408 . S
C133 C132 1.404 . S
C133 H145 0.930 . S
C134 C130 1.524 . S
C134 H146 0.956 . S
C134 H147 0.961 . S
C134 H148 0.961 . S
C135 C132 1.539 1_554 S
C135 H149 0.958 . S
C135 H150 0.961 . S
C135 H151 0.960 . S
H136 C120 0.931 1_556 S
H137 C125 0.929 . S
H138 C126 0.960 . S
H139 C126 0.962 . S
H140 C126 0.960 . S
H141 C127 0.961 . S
H142 C127 0.961 . S
H143 C127 0.961 . S
H144 C128 0.931 . S
H145 C133 0.930 . S
H146 C134 0.956 . S
H147 C134 0.961 . S
H148 C134 0.961 . S
H149 C135 0.958 . S
H150 C135 0.961 . S
H151 C135 0.960 . S
C152 C153 1.391 . S
C152 C154 1.394 . S
C152 H168 0.931 . S
C153 C152 1.391 . S
C153 C157 1.376 . S
C154 C152 1.394 . S
C154 C155 1.369 . S
C154 C158 1.531 . S
C155 C154 1.369 . S
C155 C156 1.410 . S
C155 C163 1.503 . S
C156 C155 1.410 . S
C156 C157 1.392 . S
C156 C159 1.511 . S
C157 C153 1.376 . S
C157 C156 1.392 . S
C157 H169 0.929 . S
C158 C154 1.531 . S
C158 H170 0.960 . S
C158 H171 0.962 . S
C158 H172 0.960 . S
C159 C156 1.511 . S
C159 H173 0.961 . S
C159 H174 0.961 . S
C159 H175 0.961 . S
C160 C161 1.370 . S
C160 C162 1.363 . S
C160 H176 0.931 . S
C161 C160 1.370 . S
C161 C165 1.408 . S
C162 C160 1.363 . S
C162 C163 1.370 . S
C162 C166 1.524 . S
C163 C155 1.503 . S
C163 C162 1.370 . S
C163 C164 1.403 . S
C164 C163 1.403 . S
C164 C165 1.404 . S
C164 C167 1.539 . S
C165 C161 1.408 . S
C165 C164 1.404 . S
C165 H177 0.930 . S
C166 C162 1.524 . S
C166 H178 0.956 . S
C166 H179 0.961 . S
C166 H180 0.961 . S
C167 C164 1.539 . S
C167 H181 0.958 . S
C167 H182 0.961 . S
C167 H183 0.960 . S
H168 C152 0.931 . S
H169 C157 0.929 . S
H170 C158 0.960 . S
H171 C158 0.962 . S
H172 C158 0.960 . S
H173 C159 0.961 . S
H174 C159 0.961 . S
H175 C159 0.961 . S
H176 C160 0.931 . S
H177 C165 0.930 . S
H178 C166 0.956 . S
H179 C166 0.961 . S
H180 C166 0.961 . S
H181 C167 0.958 . S
H182 C167 0.961 . S
H183 C167 0.960 . S
C184 C185 1.391 . S
C184 C186 1.394 . S
C184 H200 0.931 . S
C185 C184 1.391 . S
C185 C189 1.376 . S
C186 C184 1.394 . S
C186 C187 1.369 . S
C186 C190 1.531 . S
C187 C186 1.369 . S
C187 C188 1.410 . S
C187 C195 1.503 . S
C188 C187 1.410 . S
C188 C189 1.392 . S
C188 C191 1.511 . S
C189 C185 1.376 . S
C189 C188 1.392 . S
C189 H201 0.929 . S
C190 C186 1.531 . S
C190 H202 0.960 . S
C190 H203 0.962 . S
C190 H204 0.960 . S
C191 C188 1.511 . S
C191 H205 0.961 . S
C191 H206 0.961 . S
C191 H207 0.961 . S
C192 C193 1.370 . S
C192 C194 1.363 . S
C192 H208 0.931 . S
C193 C192 1.370 . S
C193 C197 1.408 . S
C194 C192 1.363 . S
C194 C195 1.370 . S
C194 C198 1.524 . S
C195 C187 1.503 . S
C195 C194 1.370 . S
C195 C196 1.403 . S
C196 C195 1.403 . S
C196 C197 1.404 . S
C196 C199 1.539 . S
C197 C193 1.408 . S
C197 C196 1.404 . S
C197 H209 0.930 . S
C198 C194 1.524 . S
C198 H210 0.956 . S
C198 H211 0.961 . S
C198 H212 0.961 . S
C199 C196 1.539 . S
C199 H213 0.958 . S
C199 H214 0.961 . S
C199 H215 0.960 . S
H200 C184 0.931 . S
H201 C189 0.929 . S
H202 C190 0.960 . S
H203 C190 0.962 . S
H204 C190 0.960 . S
H205 C191 0.961 . S
H206 C191 0.961 . S
H207 C191 0.961 . S
H208 C192 0.931 . S
H209 C197 0.930 . S
H210 C198 0.956 . S
H211 C198 0.961 . S
H212 C198 0.961 . S
H213 C199 0.958 . S
H214 C199 0.961 . S
H215 C199 0.960 . S
C216 C217 1.391 . S
C216 C218 1.394 . S
C216 H232 0.931 . S
C217 C216 1.391 . S
C217 C221 1.376 1_556 S
C218 C216 1.394 . S
C218 C219 1.369 1_556 S
C218 C222 1.531 . S
C219 C218 1.369 1_554 S
C219 C220 1.410 . S
C219 C227 1.503 . S
C220 C219 1.410 . S
C220 C221 1.392 . S
C220 C223 1.511 . S
C221 C217 1.376 1_554 S
C221 C220 1.392 . S
C221 H233 0.929 . S
C222 C218 1.531 . S
C222 H234 0.960 . S
C222 H235 0.962 . S
C222 H236 0.960 . S
C223 C220 1.511 . S
C223 H237 0.961 . S
C223 H238 0.961 . S
C223 H239 0.961 . S
C224 C225 1.370 . S
C224 C226 1.363 . S
C224 H240 0.931 . S
C225 C224 1.370 . S
C225 C229 1.408 . S
C226 C224 1.363 . S
C226 C227 1.370 . S
C226 C230 1.524 . S
C227 C219 1.503 . S
C227 C226 1.370 . S
C227 C228 1.403 . S
C228 C227 1.403 . S
C228 C229 1.404 . S
C228 C231 1.539 . S
C229 C225 1.408 . S
C229 C228 1.404 . S
C229 H241 0.930 . S
C230 C226 1.524 . S
C230 H242 0.956 1_554 S
C230 H243 0.961 . S
C230 H244 0.961 . S
C231 C228 1.539 . S
C231 H245 0.958 1_554 S
C231 H246 0.961 . S
C231 H247 0.960 . S
H232 C216 0.931 . S
H233 C221 0.929 . S
H234 C222 0.960 . S
H235 C222 0.962 . S
H236 C222 0.960 . S
H237 C223 0.961 . S
H238 C223 0.961 . S
H239 C223 0.961 . S
H240 C224 0.931 . S
H241 C229 0.930 . S
H242 C230 0.956 1_556 S
H243 C230 0.961 . S
H244 C230 0.961 . S
H245 C231 0.958 1_556 S
H246 C231 0.961 . S
H247 C231 0.960 . S
C248 C249 1.391 . S
C248 C250 1.394 . S
C248 H264 0.931 . S
C249 C248 1.391 . S
C249 C253 1.376 . S
C250 C248 1.394 . S
C250 C251 1.369 . S
C250 C254 1.531 . S
C251 C250 1.369 . S
C251 C252 1.410 . S
C251 C259 1.503 . S
C252 C251 1.410 . S
C252 C253 1.392 . S
C252 C255 1.511 . S
C253 C249 1.376 . S
C253 C252 1.392 . S
C253 H265 0.929 . S
C254 C250 1.531 . S
C254 H266 0.960 . S
C254 H267 0.962 . S
C254 H268 0.960 . S
C255 C252 1.511 . S
C255 H269 0.961 . S
C255 H270 0.961 . S
C255 H271 0.961 . S
C256 C257 1.370 . S
C256 C258 1.363 . S
C256 H272 0.931 . S
C257 C256 1.370 . S
C257 C261 1.408 . S
C258 C256 1.363 . S
C258 C259 1.370 . S
C258 C262 1.524 . S
C259 C251 1.503 . S
C259 C258 1.370 . S
C259 C260 1.403 . S
C260 C259 1.403 . S
C260 C261 1.404 . S
C260 C263 1.539 . S
C261 C257 1.408 . S
C261 C260 1.404 . S
C261 H273 0.930 . S
C262 C258 1.524 . S
C262 H274 0.956 . S
C262 H275 0.961 . S
C262 H276 0.961 . S
C263 C260 1.539 . S
C263 H277 0.958 . S
C263 H278 0.961 . S
C263 H279 0.960 . S
H264 C248 0.931 . S
H265 C253 0.929 . S
H266 C254 0.960 . S
H267 C254 0.962 . S
H268 C254 0.960 . S
H269 C255 0.961 . S
H270 C255 0.961 . S
H271 C255 0.961 . S
H272 C256 0.931 . S
H273 C261 0.930 . S
H274 C262 0.956 . S
H275 C262 0.961 . S
H276 C262 0.961 . S
H277 C263 0.958 . S
H278 C263 0.961 . S
H279 C263 0.960 . S
C280 C281 1.391 . S
C280 C282 1.394 . S
C280 H296 0.931 . S
C281 C280 1.391 . S
C281 C285 1.376 . S
C282 C280 1.394 . S
C282 C283 1.369 . S
C282 C286 1.531 . S
C283 C282 1.369 . S
C283 C284 1.410 . S
C283 C291 1.503 . S
C284 C283 1.410 . S
C284 C285 1.392 . S
C284 C287 1.511 . S
C285 C281 1.376 . S
C285 C284 1.392 . S
C285 H297 0.929 . S
C286 C282 1.531 . S
C286 H298 0.960 . S
C286 H299 0.962 . S
C286 H300 0.960 . S
C287 C284 1.511 . S
C287 H301 0.961 . S
C287 H302 0.961 . S
C287 H303 0.961 . S
C288 C289 1.370 . S
C288 C290 1.363 . S
C288 H304 0.931 . S
C289 C288 1.370 . S
C289 C293 1.408 . S
C290 C288 1.363 . S
C290 C291 1.370 . S
C290 C294 1.524 . S
C291 C283 1.503 . S
C291 C290 1.370 . S
C291 C292 1.403 . S
C292 C291 1.403 . S
C292 C293 1.404 . S
C292 C295 1.539 . S
C293 C289 1.408 . S
C293 C292 1.404 . S
C293 H305 0.930 . S
C294 C290 1.524 . S
C294 H306 0.956 . S
C294 H307 0.961 . S
C294 H308 0.961 . S
C295 C292 1.539 . S
C295 H309 0.958 . S
C295 H310 0.961 . S
C295 H311 0.960 . S
H296 C280 0.931 . S
H297 C285 0.929 . S
H298 C286 0.960 . S
H299 C286 0.962 . S
H300 C286 0.960 . S
H301 C287 0.961 . S
H302 C287 0.961 . S
H303 C287 0.961 . S
H304 C288 0.931 . S
H305 C293 0.930 . S
H306 C294 0.956 . S
H307 C294 0.961 . S
H308 C294 0.961 . S
H309 C295 0.958 . S
H310 C295 0.961 . S
H311 C295 0.960 . S
C312 C313 1.391 . S
C312 C314 1.394 . S
C312 H328 0.931 . S
C313 C312 1.391 . S
C313 C317 1.376 . S
C314 C312 1.394 . S
C314 C315 1.369 . S
C314 C318 1.531 . S
C315 C314 1.369 . S
C315 C316 1.410 . S
C315 C323 1.503 . S
C316 C315 1.410 . S
C316 C317 1.392 . S
C316 C319 1.511 . S
C317 C313 1.376 . S
C317 C316 1.392 . S
C317 H329 0.929 . S
C318 C314 1.531 . S
C318 H330 0.960 1_455 S
C318 H331 0.962 . S
C318 H332 0.960 1_455 S
C319 C316 1.511 . S
C319 H333 0.961 . S
C319 H334 0.961 . S
C319 H335 0.961 1_455 S
C320 C321 1.370 . S
C320 C322 1.363 . S
C320 H336 0.931 . S
C321 C320 1.370 . S
C321 C325 1.408 1_455 S
C322 C320 1.363 . S
C322 C323 1.370 . S
C322 C326 1.524 . S
C323 C315 1.503 . S
C323 C322 1.370 . S
C323 C324 1.403 1_455 S
C324 C323 1.403 1_655 S
C324 C325 1.404 . S
C324 C327 1.539 . S
C325 C321 1.408 1_655 S
C325 C324 1.404 . S
C325 H337 0.930 . S
C326 C322 1.524 . S
C326 H338 0.956 . S
C326 H339 0.961 . S
C326 H340 0.961 . S
C327 C324 1.539 . S
C327 H341 0.958 . S
C327 H342 0.961 . S
C327 H343 0.960 . S
H328 C312 0.931 . S
H329 C317 0.929 . S
H330 C318 0.960 1_655 S
H331 C318 0.962 . S
H332 C318 0.960 1_655 S
H333 C319 0.961 . S
H334 C319 0.961 . S
H335 C319 0.961 1_655 S
H336 C320 0.931 . S
H337 C325 0.930 . S
H338 C326 0.956 . S
H339 C326 0.961 . S
H340 C326 0.961 . S
H341 C327 0.958 . S
H342 C327 0.961 . S
H343 C327 0.960 . S
C344 C345 1.391 . S
C344 C346 1.394 . S
C344 H360 0.931 . S
C345 C344 1.391 . S
C345 C349 1.376 . S
C346 C344 1.394 . S
C346 C347 1.369 . S
C346 C350 1.531 . S
C347 C346 1.369 . S
C347 C348 1.410 . S
C347 C355 1.503 1_554 S
C348 C347 1.410 . S
C348 C349 1.392 . S
C348 C351 1.511 1_554 S
C349 C345 1.376 . S
C349 C348 1.392 . S
C349 H361 0.929 . S
C350 C346 1.531 . S
C350 H362 0.960 1_554 S
C350 H363 0.962 . S
C350 H364 0.960 . S
C351 C348 1.511 1_556 S
C351 H365 0.961 1_556 S
C351 H366 0.961 . S
C351 H367 0.961 . S
C352 C353 1.370 . S
C352 C354 1.363 . S
C352 H368 0.931 . S
C353 C352 1.370 . S
C353 C357 1.408 . S
C354 C352 1.363 . S
C354 C355 1.370 . S
C354 C358 1.524 . S
C355 C347 1.503 1_556 S
C355 C354 1.370 . S
C355 C356 1.403 . S
C356 C355 1.403 . S
C356 C357 1.404 . S
C356 C359 1.539 . S
C357 C353 1.408 . S
C357 C356 1.404 . S
C357 H369 0.930 . S
C358 C354 1.524 . S
C358 H370 0.956 . S
C358 H371 0.961 . S
C358 H372 0.961 . S
C359 C356 1.539 . S
C359 H373 0.958 . S
C359 H374 0.961 . S
C359 H375 0.960 . S
H360 C344 0.931 . S
H361 C349 0.929 . S
H362 C350 0.960 1_556 S
H363 C350 0.962 . S
H364 C350 0.960 . S
H365 C351 0.961 1_554 S
H366 C351 0.961 . S
H367 C351 0.961 . S
H368 C352 0.931 . S
H369 C357 0.930 . S
H370 C358 0.956 . S
H371 C358 0.961 . S
H372 C358 0.961 . S
H373 C359 0.958 . S
H374 C359 0.961 . S
H375 C359 0.960 . S
C376 C377 1.391 . S
C376 C378 1.394 . S
C376 H392 0.931 . S
C377 C376 1.391 . S
C377 C381 1.376 . S
C378 C376 1.394 . S
C378 C379 1.369 . S
C378 C382 1.531 . S
C379 C378 1.369 . S
C379 C380 1.410 . S
C379 C387 1.503 . S
C380 C379 1.410 . S
C380 C381 1.392 . S
C380 C383 1.511 . S
C381 C377 1.376 . S
C381 C380 1.392 . S
C381 H393 0.929 . S
C382 C378 1.531 . S
C382 H394 0.960 . S
C382 H395 0.962 . S
C382 H396 0.960 . S
C383 C380 1.511 . S
C383 H397 0.961 . S
C383 H398 0.961 . S
C383 H399 0.961 . S
C384 C385 1.370 . S
C384 C386 1.363 . S
C384 H400 0.931 . S
C385 C384 1.370 . S
C385 C389 1.408 . S
C386 C384 1.363 . S
C386 C387 1.370 . S
C386 C390 1.524 . S
C387 C379 1.503 . S
C387 C386 1.370 . S
C387 C388 1.403 . S
C388 C387 1.403 . S
C388 C389 1.404 . S
C388 C391 1.539 . S
C389 C385 1.408 . S
C389 C388 1.404 . S
C389 H401 0.930 . S
C390 C386 1.524 . S
C390 H402 0.956 . S
C390 H403 0.961 . S
C390 H404 0.961 . S
C391 C388 1.539 . S
C391 H405 0.958 . S
C391 H406 0.961 . S
C391 H407 0.960 . S
H392 C376 0.931 . S
H393 C381 0.929 . S
H394 C382 0.960 . S
H395 C382 0.962 . S
H396 C382 0.960 . S
H397 C383 0.961 . S
H398 C383 0.961 . S
H399 C383 0.961 . S
H400 C384 0.931 . S
H401 C389 0.930 . S
H402 C390 0.956 . S
H403 C390 0.961 . S
H404 C390 0.961 . S
H405 C391 0.958 . S
H406 C391 0.961 . S
H407 C391 0.960 . S
C121 C6 2.221 . S
C129 C90 2.162 . S
C153 C59 3.015 . S
C161 C19 2.965 . S
C185 C46 1.519 . S
C193 C86 1.567 . S
C217 C99 2.587 . S
C225 C15 2.441 . S
C249 C50 2.684 1_565 S
C257 C10 2.631 . S
C281 C95 1.544 . S
C289 C55 1.513 . S
C313 C18 0.528 . S
C321 C9 0.573 . S
C345 C49 0.451 . S
C353 C58 0.572 . S
C377 C98 0.493 . S
C385 C89 0.549 . S
