# Generated by pormake.
# Topology ecn, (8)-cn, num edge types: 1
# Building blocks:
#     Node 0, Type 0, BuildingBlock: TAGTUT_clean_sbu_3, # of connection points: 8
#     Node 1, Type 0, BuildingBlock: TAGTUT_clean_sbu_3, # of connection points: 8
#     Node 2, Type 0, BuildingBlock: TAGTUT_clean_sbu_3, # of connection points: 8
#     Node 3, Type 0, BuildingBlock: TAGTUT_clean_sbu_3, # of connection points: 8
#     Node 4, Type 0, BuildingBlock: TAGTUT_clean_sbu_3, # of connection points: 8
#     Node 5, Type 0, BuildingBlock: TAGTUT_clean_sbu_3, # of connection points: 8
#     Node 6, Type 0, BuildingBlock: TAGTUT_clean_sbu_3, # of connection points: 8
#     Node 7, Type 0, BuildingBlock: TAGTUT_clean_sbu_3, # of connection points: 8
#     Node 8, Type 0, BuildingBlock: TAGTUT_clean_sbu_3, # of connection points: 8
#     Edge 9, Type (0, 0), BuildingBlock: KIFKEQ_clean_linker_1, # of connection points: 2
#     Edge 10, Type (0, 0), BuildingBlock: KIFKEQ_clean_linker_1, # of connection points: 2
#     Edge 11, Type (0, 0), BuildingBlock: KIFKEQ_clean_linker_1, # of connection points: 2
#     Edge 12, Type (0, 0), BuildingBlock: KIFKEQ_clean_linker_1, # of connection points: 2
#     Edge 13, Type (0, 0), BuildingBlock: KIFKEQ_clean_linker_1, # of connection points: 2
#     Edge 14, Type (0, 0), BuildingBlock: KIFKEQ_clean_linker_1, # of connection points: 2
#     Edge 15, Type (0, 0), BuildingBlock: KIFKEQ_clean_linker_1, # of connection points: 2
#     Edge 16, Type (0, 0), BuildingBlock: KIFKEQ_clean_linker_1, # of connection points: 2
#     Edge 17, Type (0, 0), BuildingBlock: KIFKEQ_clean_linker_1, # of connection points: 2
#     Edge 18, Type (0, 0), BuildingBlock: KIFKEQ_clean_linker_1, # of connection points: 2
#     Edge 19, Type (0, 0), BuildingBlock: KIFKEQ_clean_linker_1, # of connection points: 2
#     Edge 20, Type (0, 0), BuildingBlock: KIFKEQ_clean_linker_1, # of connection points: 2
#     Edge 21, Type (0, 0), BuildingBlock: KIFKEQ_clean_linker_1, # of connection points: 2
#     Edge 22, Type (0, 0), BuildingBlock: KIFKEQ_clean_linker_1, # of connection points: 2
#     Edge 23, Type (0, 0), BuildingBlock: KIFKEQ_clean_linker_1, # of connection points: 2
#     Edge 24, Type (0, 0), BuildingBlock: KIFKEQ_clean_linker_1, # of connection points: 2
#     Edge 25, Type (0, 0), BuildingBlock: KIFKEQ_clean_linker_1, # of connection points: 2
#     Edge 26, Type (0, 0), BuildingBlock: KIFKEQ_clean_linker_1, # of connection points: 2
#     Edge 27, Type (0, 0), BuildingBlock: KIFKEQ_clean_linker_1, # of connection points: 2
#     Edge 28, Type (0, 0), BuildingBlock: KIFKEQ_clean_linker_1, # of connection points: 2
#     Edge 29, Type (0, 0), BuildingBlock: KIFKEQ_clean_linker_1, # of connection points: 2
#     Edge 30, Type (0, 0), BuildingBlock: KIFKEQ_clean_linker_1, # of connection points: 2
#     Edge 31, Type (0, 0), BuildingBlock: KIFKEQ_clean_linker_1, # of connection points: 2
#     Edge 32, Type (0, 0), BuildingBlock: KIFKEQ_clean_linker_1, # of connection points: 2
#     Edge 33, Type (0, 0), BuildingBlock: KIFKEQ_clean_linker_1, # of connection points: 2
#     Edge 34, Type (0, 0), BuildingBlock: KIFKEQ_clean_linker_1, # of connection points: 2
#     Edge 35, Type (0, 0), BuildingBlock: KIFKEQ_clean_linker_1, # of connection points: 2
#     Edge 36, Type (0, 0), BuildingBlock: KIFKEQ_clean_linker_1, # of connection points: 2
#     Edge 37, Type (0, 0), BuildingBlock: KIFKEQ_clean_linker_1, # of connection points: 2
#     Edge 38, Type (0, 0), BuildingBlock: KIFKEQ_clean_linker_1, # of connection points: 2
#     Edge 39, Type (0, 0), BuildingBlock: KIFKEQ_clean_linker_1, # of connection points: 2
#     Edge 40, Type (0, 0), BuildingBlock: KIFKEQ_clean_linker_1, # of connection points: 2
#     Edge 41, Type (0, 0), BuildingBlock: KIFKEQ_clean_linker_1, # of connection points: 2
#     Edge 42, Type (0, 0), BuildingBlock: KIFKEQ_clean_linker_1, # of connection points: 2
#     Edge 43, Type (0, 0), BuildingBlock: KIFKEQ_clean_linker_1, # of connection points: 2
#     Edge 44, Type (0, 0), BuildingBlock: KIFKEQ_clean_linker_1, # of connection points: 2
# Relax obj value: 0.156
# Max RMSD: 0.272
# Mean RMSD: 0.272
data_MOF--net-ecn--node1-TAGTUT_clean_sbu_3--edge1-KIFKEQ_clean_linker_1
_symmetry_space_group_name_H-M    P1
_symmetry_Int_Tables_number       1
_symmetry_cell_setting            triclinic
loop_
_symmetry_equiv_pos_as_xyz
'x, y, z'
_cell_length_a     51.242468
_cell_length_b     51.193785
_cell_length_c     15.342446
_cell_angle_alpha  90.044336
_cell_angle_beta   89.958966
_cell_angle_gamma 119.9108
loop_
_atom_site_label
_atom_site_type_symbol
_atom_site_fract_x
_atom_site_fract_y
_atom_site_fract_z
_atom_type_partial_charge
C0 C 0.12691 0.28258 0.05047 0.0
C1 C 1.00898 0.21278 0.09417 0.0
C2 C 0.03186 0.14254 0.06548 0.0
Mg3 Mg 0.17947 0.26486 -0.00104 0.0
Mg4 Mg 0.16303 0.20976 0.85587 0.0
O5 O 0.1536 0.22238 0.9601 0.0
Mg6 Mg 0.11324 0.21865 -0.02323 0.0
O7 O 0.0739 0.21778 0.00191 0.0
Mg8 Mg 0.07579 0.21586 0.13103 0.0
Mg9 Mg 0.03723 0.19311 0.94726 0.0
C10 C 0.10423 0.15195 0.92103 0.0
O11 O 0.10423 0.22212 0.83505 0.0
O12 O 0.22047 0.25606 -0.0102 0.0
O13 O 0.05408 0.20287 0.81463 0.0
O14 O 0.18866 0.28094 0.8578 0.0
O15 O 0.20626 0.21748 0.8958 0.0
O16 O 0.17253 0.24407 0.75861 0.0
O17 O 0.11948 0.21487 0.1152 0.0
O18 O 0.1681 0.24669 0.13928 0.0
C19 C 0.14185 0.22733 0.16678 0.0
C20 C 0.22554 0.23715 0.94794 0.0
O21 O 0.09518 0.16808 0.96093 0.0
O22 O 0.03161 0.21785 0.14165 0.0
O23 O 0.1265 0.16307 0.86732 0.0
O24 O 0.04654 0.16151 0.12694 0.0
O25 O 1.00653 0.20404 0.01471 0.0
O26 O 0.02757 0.15075 -0.00877 0.0
O27 O 0.13515 0.26805 -0.00022 0.0
O28 O 0.10565 0.26858 0.10725 0.0
C29 C 0.18485 0.272 0.77868 0.0
C30 C 0.0813 0.21497 0.78662 0.0
C31 C 0.73602 0.84901 0.07021 0.0
C32 C 0.8046 0.799 0.10996 0.0
C33 C 0.87465 0.89119 0.0626 0.0
Mg34 Mg 0.75433 0.91849 0.00883 0.0
Mg35 Mg 0.8079 0.95367 0.85985 0.0
O36 O 0.79647 0.93398 0.9679 0.0
Mg37 Mg 0.79898 0.89674 -0.01352 0.0
O38 O 0.79857 0.85781 0.01372 0.0
Mg39 Mg 0.80346 0.86415 0.14198 0.0
Mg40 Mg 0.82114 0.84373 0.95647 0.0
C41 C 0.86558 0.95104 0.91789 0.0
O42 O 0.79317 0.88255 0.84497 0.0
O43 O 0.76381 0.96832 -0.0073 0.0
O44 O 0.81003 0.84966 0.82413 0.0
O45 O 0.73686 0.90929 0.86847 0.0
O46 O 0.80127 0.99047 0.89428 0.0
O47 O 0.77294 0.92727 0.76684 0.0
O48 O 0.80473 0.90879 0.12414 0.0
O49 O 0.77366 0.92664 0.14846 0.0
C50 C 0.79272 0.91925 0.17592 0.0
C51 C 0.7823 0.99133 0.9469 0.0
O52 O 0.84962 0.92733 0.96386 0.0
O53 O 0.80114 0.81788 0.1564 0.0
O54 O 0.85396 0.96193 0.86501 0.0
O55 O 0.85755 0.88879 0.12762 0.0
O56 O 0.81131 0.80337 0.02873 0.0
O57 O 0.86425 0.87645 -0.00769 0.0
O58 O 0.75008 0.87071 0.01588 0.0
O59 O 0.75056 0.84204 0.12605 0.0
C60 C 0.74521 0.91258 0.78881 0.0
C61 C 0.79873 0.86557 0.79633 0.0
C62 C 0.17422 0.89407 0.06242 0.0
C63 C 0.22163 0.01239 0.10888 0.0
C64 C 0.12949 0.98955 0.10333 0.0
Mg65 Mg 0.10385 0.84245 0.01177 0.0
Mg66 Mg 0.06794 0.86086 0.86566 0.0
O67 O 0.08773 0.86898 0.97367 0.0
Mg68 Mg 0.12431 0.90912 -0.00789 0.0
O69 O 0.16247 0.94837 0.01814 0.0
Mg70 Mg 0.15991 0.94516 0.14836 0.0
Mg71 Mg 0.17081 0.9849 0.96819 0.0
C72 C 0.06961 0.92072 0.92469 0.0
O73 O 0.1365 0.91848 0.8506 0.0
O74 O 0.0539 0.80231 -0.00072 0.0
O75 O 0.16286 0.96917 0.83301 0.0
O76 O 0.11153 0.8332 0.87089 0.0
O77 O 0.03131 0.8179 0.90286 0.0
O78 O 0.09289 0.85087 0.77021 0.0
O79 O 0.11452 0.90237 0.13148 0.0
O80 O 0.0968 0.85343 0.15339 0.0
C81 C 0.1041 0.87971 0.18213 0.0
C82 C 0.03063 0.79812 0.9553 0.0
O83 O 0.0925 0.92801 0.97397 0.0
O84 O 0.20589 0.98898 0.15596 0.0
O85 O 0.05973 0.89887 0.86969 0.0
O86 O 0.13635 0.97508 0.15864 0.0
O87 O 0.21317 0.01559 0.03278 0.0
O88 O 0.13822 0.99331 0.02433 0.0
O89 O 0.15131 0.88642 0.01333 0.0
O90 O 0.18214 0.91525 0.11956 0.0
C91 C 0.10746 0.83758 0.79136 0.0
C92 C 0.15001 0.94208 0.8031 0.0
C93 C 0.7955 0.61877 0.40086 0.0
C94 C 0.67785 0.55231 0.4417 0.0
C95 C 0.69801 0.48092 0.38706 0.0
Mg96 Mg 0.84621 0.60013 0.33776 0.0
Mg97 Mg 0.82778 0.54736 0.18561 0.0
O98 O 0.81942 0.55826 0.29448 0.0
Mg99 Mg 0.77989 0.55602 0.3139 0.0
O100 O 0.7417 0.55676 0.34234 0.0
Mg101 Mg 0.7431 0.55106 0.47003 0.0
Mg102 Mg 0.70486 0.53594 0.28517 0.0
C103 C 0.76706 0.48957 0.24084 0.0
O104 O 0.77165 0.56271 0.17275 0.0
O105 O 0.88602 0.59009 0.32085 0.0
O106 O 0.72222 0.54728 0.15283 0.0
O107 O 0.85502 0.61849 0.19854 0.0
O108 O 0.87074 0.55306 0.22074 0.0
O109 O 0.83724 0.58319 0.09457 0.0
O110 O 0.78606 0.54939 0.4514 0.0
O111 O 0.83481 0.58023 0.4766 0.0
C112 C 0.80835 0.56117 0.50361 0.0
C113 C 0.89041 0.5716 0.27439 0.0
O114 O 0.75946 0.50535 0.28853 0.0
O115 O 0.69967 0.55363 0.48596 0.0
O116 O 0.78961 0.50146 0.18818 0.0
O117 O 0.71352 0.49735 0.45208 0.0
O118 O 0.67574 0.54763 0.35915 0.0
O119 O 0.69314 0.49207 0.31911 0.0
O120 O 0.80304 0.60485 0.34554 0.0
O121 O 0.77406 0.60405 0.45665 0.0
C122 C 0.85033 0.61079 0.11836 0.0
C123 C 0.74928 0.55793 0.12456 0.0
C124 C 0.40493 0.18068 0.39682 0.0
C125 C 0.47588 0.13311 0.44024 0.0
C126 C 0.5451 0.22519 0.42929 0.0
Mg127 Mg 0.42321 0.25047 0.34253 0.0
Mg128 Mg 0.47666 0.28595 0.19384 0.0
O129 O 0.46561 0.26655 0.30263 0.0
Mg130 Mg 0.46929 0.23 0.3216 0.0
O131 O 0.47055 0.19192 0.34838 0.0
Mg132 Mg 0.47074 0.1952 0.47859 0.0
Mg133 Mg 0.49831 0.18316 0.29733 0.0
C134 C 0.53501 0.28442 0.25011 0.0
O135 O 0.46567 0.21713 0.18031 0.0
O136 O 0.43273 0.30022 0.32884 0.0
O137 O 0.48992 0.19067 0.16236 0.0
O138 O 0.40575 0.24215 0.20232 0.0
O139 O 0.47037 0.32273 0.23083 0.0
O140 O 0.44148 0.26052 0.09998 0.0
O141 O 0.47317 0.24055 0.46081 0.0
O142 O 0.44182 0.2581 0.48341 0.0
C143 C 0.46097 0.25099 0.51175 0.0
C144 C 0.45144 0.32341 0.28404 0.0
O145 O 0.51973 0.26174 0.30047 0.0
O146 O 0.46858 0.14918 0.4873 0.0
O147 O 0.52274 0.29404 0.19538 0.0
O148 O 0.52418 0.21878 0.4857 0.0
O149 O 0.48706 0.14112 0.36345 0.0
O150 O 0.53961 0.21594 0.35083 0.0
O151 O 0.41984 0.20308 0.34568 0.0
O152 O 0.41856 0.17299 0.45328 0.0
C153 C 0.41379 0.24588 0.12244 0.0
C154 C 0.47557 0.20344 0.13266 0.0
C155 C 0.83858 0.2276 0.37428 0.0
C156 C 0.88672 0.34565 0.41725 0.0
C157 C 0.79409 0.32333 0.38214 0.0
Mg158 Mg 0.76901 0.17558 0.31876 0.0
Mg159 Mg 0.73111 0.19239 0.17387 0.0
O160 O 0.75263 0.20159 0.27895 0.0
Mg161 Mg 0.78925 0.24182 0.29648 0.0
O162 O 0.82761 0.28102 0.32261 0.0
Mg163 Mg 0.82278 0.27906 0.45153 0.0
Mg164 Mg 0.84005 0.31779 0.26753 0.0
C165 C 0.73219 0.25139 0.23879 0.0
O166 O 0.80241 0.25076 0.1549 0.0
O167 O 0.71942 0.13476 0.30778 0.0
O168 O 0.83353 0.3009 0.13474 0.0
O169 O 0.7768 0.16683 0.17775 0.0
O170 O 0.69546 0.14907 0.21268 0.0
O171 O 0.75665 0.18333 0.07778 0.0
O172 O 0.77834 0.23548 0.43465 0.0
O173 O 0.76161 0.18682 0.45895 0.0
C174 C 0.7684 0.21311 0.48637 0.0
C175 C 0.69567 0.12975 0.26515 0.0
O176 O 0.75729 0.26034 0.27867 0.0
O177 O 0.86872 0.32299 0.46384 0.0
O178 O 0.72099 0.22903 0.18533 0.0
O179 O 0.79782 0.30851 0.44437 0.0
O180 O 0.88116 0.34837 0.3373 0.0
O181 O 0.80718 0.32766 0.30882 0.0
O182 O 0.8164 0.2197 0.32174 0.0
O183 O 0.84556 0.24891 0.43081 0.0
C184 C 0.77223 0.17102 0.09844 0.0
C185 C 0.81843 0.27367 0.10657 0.0
C186 C 0.46235 0.95084 0.7293 0.0
C187 C 0.34416 0.88248 0.767 0.0
C188 C 0.36509 0.81151 0.73056 0.0
Mg189 Mg 0.51387 0.93311 0.67026 0.0
Mg190 Mg 0.49668 0.87991 0.52125 0.0
O191 O 0.48777 0.89095 0.62902 0.0
Mg192 Mg 0.44767 0.8876 0.64724 0.0
O193 O 0.4087 0.88717 0.67377 0.0
Mg194 Mg 0.41014 0.8837 0.80258 0.0
Mg195 Mg 0.37215 0.86384 0.61721 0.0
C196 C 0.43747 0.82163 0.58022 0.0
O197 O 0.43924 0.89284 0.5058 0.0
O198 O 0.55443 0.92395 0.65643 0.0
O199 O 0.38926 0.87432 0.48494 0.0
O200 O 0.52278 0.95085 0.53007 0.0
O201 O 0.53982 0.88663 0.55766 0.0
O202 O 0.50546 0.91492 0.42797 0.0
O203 O 0.45357 0.88215 0.78529 0.0
O204 O 0.50235 0.91354 0.80946 0.0
C205 C 0.47601 0.89425 0.83686 0.0
C206 C 0.5592 0.90547 0.61126 0.0
O207 O 0.4289 0.83711 0.62562 0.0
O208 O 0.36642 0.8864 0.81445 0.0
O209 O 0.45966 0.83364 0.5264 0.0
O210 O 0.38005 0.82961 0.79343 0.0
O211 O 0.34191 0.87487 0.6865 0.0
O212 O 0.36126 0.82077 0.65743 0.0
O213 O 0.46998 0.93664 0.67545 0.0
O214 O 0.44081 0.93646 0.78491 0.0
C215 C 0.51823 0.94265 0.45024 0.0
C216 C 0.4165 0.88631 0.45716 0.0
C217 C 0.06751 0.51337 0.71803 0.0
C218 C 0.13676 0.46425 0.75929 0.0
C219 C 0.20709 0.55658 0.72911 0.0
Mg220 Mg 0.08512 0.58315 0.66364 0.0
Mg221 Mg 0.13894 0.62024 0.51774 0.0
O222 O 0.12753 0.59961 0.6243 0.0
Mg223 Mg 0.13127 0.56293 0.64153 0.0
O224 O 0.13198 0.52439 0.667 0.0
Mg225 Mg 0.13421 0.52836 0.79612 0.0
Mg226 Mg 0.1561 0.51181 0.61153 0.0
C227 C 0.19725 0.61925 0.57734 0.0
O228 O 0.12709 0.54998 0.49988 0.0
O229 O 0.09385 0.6329 0.65224 0.0
O230 O 0.14617 0.51888 0.47898 0.0
O231 O 0.06823 0.575 0.52255 0.0
O232 O 0.13161 0.65634 0.55542 0.0
O233 O 0.10473 0.59434 0.42235 0.0
O234 O 0.13557 0.57337 0.77989 0.0
O235 O 0.10392 0.59056 0.80369 0.0
C236 C 0.12322 0.58353 0.83132 0.0
C237 C 0.11241 0.65648 0.60857 0.0
O238 O 0.18187 0.59516 0.62251 0.0
O239 O 0.13196 0.48203 0.80687 0.0
O240 O 0.18518 0.62946 0.52376 0.0
O241 O 0.18836 0.55266 0.79095 0.0
O242 O 0.14516 0.47027 0.67951 0.0
O243 O 0.19862 0.54414 0.65483 0.0
O244 O 0.08207 0.53583 0.66659 0.0
O245 O 0.08151 0.50592 0.77426 0.0
C246 C 0.07693 0.57908 0.44315 0.0
C247 C 0.13406 0.53406 0.4512 0.0
C248 C 0.50797 0.56059 0.74337 0.0
C249 C 0.55438 0.6781 0.78414 0.0
C250 C 0.46194 0.65469 0.74328 0.0
Mg251 Mg 0.43946 0.50725 0.68315 0.0
Mg252 Mg 0.40206 0.52311 0.53582 0.0
O253 O 0.42254 0.53272 0.64249 0.0
Mg254 Mg 0.45824 0.57345 0.6613 0.0
O255 O 0.4958 0.61297 0.68901 0.0
Mg256 Mg 0.49048 0.6112 0.81771 0.0
Mg257 Mg 0.5089 0.64952 0.63203 0.0
C258 C 0.40122 0.58165 0.59288 0.0
O259 O 0.47304 0.58303 0.51921 0.0
O260 O 0.38984 0.4657 0.67104 0.0
O261 O 0.50511 0.63292 0.4994 0.0
O262 O 0.4478 0.49805 0.54307 0.0
O263 O 0.36645 0.47997 0.57376 0.0
O264 O 0.42744 0.5137 0.44158 0.0
O265 O 0.44648 0.56701 0.80104 0.0
O266 O 0.4325 0.51864 0.82236 0.0
C267 C 0.43852 0.5445 0.85151 0.0
C268 C 0.36634 0.46062 0.62668 0.0
O269 O 0.42509 0.59076 0.63941 0.0
O270 O 0.53619 0.65556 0.83087 0.0
O271 O 0.39183 0.55948 0.53916 0.0
O272 O 0.46531 0.64011 0.80692 0.0
O273 O 0.5493 0.68042 0.7035 0.0
O274 O 0.47545 0.6589 0.67062 0.0
O275 O 0.48637 0.55213 0.68821 0.0
O276 O 0.51375 0.58173 0.79949 0.0
C277 C 0.44306 0.5016 0.46341 0.0
C278 C 0.4901 0.60572 0.47088 0.0
H279 H 0.23814 0.19314 0.90253 0.0
H280 H 0.27872 0.28224 0.01599 0.0
H281 H 0.28545 0.19326 0.91821 0.0
H282 H 0.32628 0.28222 0.03147 0.0
H283 H 0.35958 0.19487 0.11028 0.0
H284 H 0.31416 0.19225 0.05131 0.0
H285 H 0.36785 0.28081 0.93926 0.0
H286 H 0.41343 0.28316 -0.00227 0.0
C287 C 0.2572 0.21287 0.93043 0.0
C288 C 0.25457 0.23767 0.95854 0.0
C289 C 0.2843 0.21287 0.93921 0.0
C290 C 0.30958 0.2378 0.9753 0.0
C291 C 0.30723 0.26287 0.00208 0.0
C292 C 0.27993 0.26274 -0.00573 0.0
C293 C 0.36177 0.2131 0.06948 0.0
C294 C 0.38991 0.23916 0.05847 0.0
C295 C 0.33577 0.21174 0.03621 0.0
C296 C 0.33747 0.23665 -0.0076 0.0
C297 C 0.36593 0.26151 0.97398 0.0
C298 C 0.39203 0.26262 0.00603 0.0
H299 H 0.73459 0.13234 -0.02348 0.0
H300 H 0.82426 0.16984 0.08138 0.0
H301 H 0.73744 0.08894 0.92165 0.0
H302 H 0.82735 0.12682 0.02593 0.0
H303 H 0.73792 1.00078 0.01378 0.0
H304 H 0.73766 0.04841 0.02064 0.0
H305 H 0.82523 0.09424 0.89875 0.0
H306 H 0.82561 0.0469 0.89161 0.0
C307 C 0.75553 0.13213 -0.0165 0.0
C308 C 0.7792 0.15432 0.0333 0.0
C309 C 0.75694 0.10704 0.95356 0.0
C310 C 0.78232 0.1042 0.97144 0.0
C311 C 0.80746 0.12833 0.01141 0.0
C312 C 0.80583 0.15311 0.04255 0.0
C313 C 0.75707 0.02099 -0.01166 0.0
C314 C 0.78182 0.02001 0.9527 0.0
C315 C 0.75676 0.04818 -0.00883 0.0
C316 C 0.78133 0.07496 0.95935 0.0
C317 C 0.80598 0.07395 0.92345 0.0
C318 C 0.80615 0.04678 0.91964 0.0
H319 H 0.02089 0.74371 0.01793 0.0
H320 H 0.97485 0.78771 0.90995 0.0
H321 H 0.9727 0.69666 0.02896 0.0
H322 H 0.92698 0.74086 0.92145 0.0
H323 H 0.85398 0.66538 0.11252 0.0
H324 H 0.89682 0.71098 0.05452 0.0
H325 H 0.92959 0.65706 0.93091 0.0
H326 H 0.88631 0.61133 -0.01188 0.0
C327 C 1.00058 0.74335 -0.00348 0.0
C328 C 1.00172 0.76949 0.96357 0.0
C329 C 0.97307 0.71636 0.00171 0.0
C330 C 0.94619 0.71512 0.97513 0.0
C331 C 0.94736 0.74119 0.94199 0.0
C332 C 0.97482 0.76799 0.93568 0.0
C333 C 0.86953 0.66323 0.06926 0.0
C334 C 0.86698 0.63498 0.0549 0.0
C335 C 0.89417 0.68931 0.03657 0.0
C336 C 0.91684 0.6875 -0.00997 0.0
C337 C 0.9126 0.65901 0.96779 0.0
C338 C 0.8876 0.63285 -0.00078 0.0
H339 H 0.84737 0.78284 0.10194 0.0
H340 H 0.76259 0.7591 0.22342 0.0
H341 H 0.85096 0.74507 0.18808 0.0
H342 H 0.76415 0.71887 0.30392 0.0
H343 H 0.77636 0.65566 0.47504 0.0
H344 H 0.78141 0.70169 0.41234 0.0
H345 H 0.83656 0.69702 0.2057 0.0
H346 H 0.83392 0.65354 0.27272 0.0
C347 C 0.82901 0.76875 0.14547 0.0
C348 C 0.80446 0.77345 0.15496 0.0
C349 C 0.83092 0.74687 0.19514 0.0
C350 C 0.80771 0.72819 0.25348 0.0
C351 C 0.78291 0.7329 0.26177 0.0
C352 C 0.78163 0.75564 0.21436 0.0
C353 C 0.79041 0.66517 0.41794 0.0
C354 C 0.80433 0.65045 0.37851 0.0
C355 C 0.79284 0.69134 0.38053 0.0
C356 C 0.8087 0.70309 0.30167 0.0
C357 C 0.82428 0.68938 0.26632 0.0
C358 C 0.82257 0.66392 0.30492 0.0
H359 H 0.26221 0.0097 0.21787 0.0
H360 H 0.24033 0.07208 0.0951 0.0
H361 H 0.30361 0.05114 0.29545 0.0
H362 H 0.27991 0.11334 0.17747 0.0
H363 H 0.37353 0.18498 0.25981 0.0
H364 H 0.32952 0.14497 0.19165 0.0
H365 H 0.31934 0.08573 0.40604 0.0
H366 H 0.36548 0.1257 0.47108 0.0
C367 C 0.26637 0.0324 0.20759 0.0
C368 C 0.24849 0.03779 0.14925 0.0
C369 C 0.28979 0.05621 0.25331 0.0
C370 C 0.29536 0.08596 0.24393 0.0
C371 C 0.27711 0.0911 0.18557 0.0
C372 C 0.2543 0.0674 0.13795 0.0
C373 C 0.36179 0.16361 0.29349 0.0
C374 C 0.37355 0.15857 0.37045 0.0
C375 C 0.33614 0.14043 0.25419 0.0
C376 C 0.32077 0.11155 0.29179 0.0
C377 C 0.33102 0.10724 0.37301 0.0
C378 C 0.35726 0.13038 0.41145 0.0
H379 H 0.94933 0.1729 0.07643 0.0
H380 H 1.01168 0.25453 0.21024 0.0
H381 H 0.90779 0.17122 0.15707 0.0
H382 H 0.96999 0.25485 0.28573 0.0
H383 H 0.89326 0.24336 0.45184 0.0
H384 H 0.93379 0.23723 0.39017 0.0
H385 H 0.87647 0.18906 0.17145 0.0
H386 H 0.83595 0.19278 0.23655 0.0
C387 C 0.95397 0.19101 0.12154 0.0
C388 C 0.98364 0.21406 0.13616 0.0
C389 C 0.93008 0.19019 0.16805 0.0
C390 C 0.93501 0.21304 0.22845 0.0
C391 C 0.96493 0.23639 0.24179 0.0
C392 C 0.98894 0.23658 0.19735 0.0
C393 C 0.88915 0.23066 0.39198 0.0
C394 C 0.86127 0.21882 0.3492 0.0
C395 C 0.91264 0.22759 0.35538 0.0
C396 C 0.90908 0.21318 0.27406 0.0
C397 C 0.88055 0.19999 0.23428 0.0
C398 C 0.85701 0.20234 0.27185 0.0
H399 H 0.90173 0.52722 0.22265 0.0
H400 H 0.94422 0.61572 0.34053 0.0
H401 H 0.94881 0.52646 0.23388 0.0
H402 H 0.99142 0.61488 0.35109 0.0
H403 H 0.023 0.52774 0.43003 0.0
H404 H 0.9778 0.52489 0.3683 0.0
H405 H 0.03198 0.61289 0.2534 0.0
H406 H 0.07731 0.61546 0.31439 0.0
C407 C 0.92116 0.54663 0.25038 0.0
C408 C 0.91917 0.5715 0.28133 0.0
C409 C 0.9481 0.54615 0.25649 0.0
C410 C 0.97378 0.5707 0.29238 0.0
C411 C 0.97205 0.59585 0.32168 0.0
C412 C 0.94495 0.59617 0.31674 0.0
C413 C 0.02535 0.54575 0.3879 0.0
C414 C 0.05349 0.57185 0.37731 0.0
C415 C 0.9995 0.54424 0.35296 0.0
C416 C 1.00141 0.56901 0.30793 0.0
C417 C 0.02994 0.5937 0.28904 0.0
C418 C 0.05589 0.59495 0.32273 0.0
H419 H 0.49383 0.49762 0.45685 0.0
H420 H 0.40832 0.46714 0.32974 0.0
H421 H 0.49712 0.45579 0.39235 0.0
H422 H 0.41132 0.42484 0.26629 0.0
H423 H 0.49641 0.37942 0.2387 0.0
H424 H 0.49726 0.42727 0.25358 0.0
H425 H 0.40761 0.38072 0.36206 0.0
H426 H 0.40669 0.33265 0.34794 0.0
C427 C 0.47643 0.48273 0.41184 0.0
C428 C 0.45075 0.4854 0.39856 0.0
C429 C 0.47821 0.4587 0.37532 0.0
C430 C 0.45412 0.43679 0.32608 0.0
C431 C 0.42996 0.44129 0.30509 0.0
C432 C 0.42847 0.4657 0.34032 0.0
C433 C 0.47675 0.37929 0.26523 0.0
C434 C 0.45151 0.35223 0.2928 0.0
C435 C 0.47728 0.40671 0.27342 0.0
C436 C 0.45242 0.4076 0.30799 0.0
C437 C 0.4269 0.38054 0.33375 0.0
C438 C 0.42652 0.35311 0.32678 0.0
H439 H 0.52189 0.99724 0.44211 0.0
H440 H 0.55351 0.94241 0.3188 0.0
H441 H 0.56379 0.04236 0.37852 0.0
H442 H 0.59588 0.98769 0.25608 0.0
H443 H 0.63912 0.11767 0.22229 0.0
H444 H 0.59184 0.07055 0.24017 0.0
H445 H 0.64002 0.02901 0.3485 0.0
H446 H 0.68761 0.07635 0.33122 0.0
C447 C 0.53708 0.99478 0.39814 0.0
C448 C 0.53459 0.96647 0.38545 0.0
C449 C 0.56117 0.02059 0.36218 0.0
C450 C 0.58339 0.0185 0.31405 0.0
C451 C 0.57922 0.98987 0.29403 0.0
C452 C 0.55474 0.96395 0.3287 0.0
C453 C 0.63976 0.09847 0.24946 0.0
C454 C 0.66718 0.10083 0.27589 0.0
C455 C 0.61264 0.07151 0.25945 0.0
C456 C 0.61232 0.04613 0.29487 0.0
C457 C 0.63972 0.04817 0.31965 0.0
C458 C 0.66689 0.07533 0.3108 0.0
H459 H 0.51864 0.11672 0.43426 0.0
H460 H 0.43169 0.09113 0.54394 0.0
H461 H 0.52085 0.07789 0.51926 0.0
H462 H 0.43221 0.05026 0.62352 0.0
H463 H 0.44348 0.9882 0.80099 0.0
H464 H 0.44941 0.0344 0.73684 0.0
H465 H 0.50539 0.02905 0.53418 0.0
H466 H 0.50172 0.98519 0.6024 0.0
C467 C 0.49953 0.10203 0.47468 0.0
C468 C 0.4748 0.10656 0.48156 0.0
C469 C 0.5007 0.07963 0.5238 0.0
C470 C 0.47667 0.06046 0.57909 0.0
C471 C 0.45159 0.06479 0.58399 0.0
C472 C 0.45092 0.08788 0.537 0.0
C473 C 0.45787 0.99756 0.74446 0.0
C474 C 0.47169 0.98255 0.70631 0.0
C475 C 0.46082 0.02381 0.70629 0.0
C476 C 0.47716 0.03534 0.62808 0.0
C477 C 0.49272 0.02142 0.5942 0.0
C478 C 0.49042 0.99582 0.63347 0.0
H479 H 0.02887 0.4573 0.78867 0.0
H480 H 0.03546 0.51799 0.58348 0.0
H481 H 0.98315 0.41732 0.72186 0.0
H482 H 0.99226 0.4781 0.5129 0.0
H483 H 0.90537 0.40529 0.40644 0.0
H484 H 0.9438 0.44599 0.49287 0.0
H485 H 0.96634 0.3831 0.61235 0.0
H486 H 0.92565 0.34215 0.53124 0.0
C487 C 0.02043 0.46227 0.72999 0.0
C488 C 0.03622 0.49092 0.6913 0.0
C489 C 0.99444 0.43911 0.69032 0.0
C490 C 0.98396 0.44382 0.60991 0.0
C491 C 0.99889 0.4731 0.57472 0.0
C492 C 0.02417 0.49627 0.61544 0.0
C493 C 0.91882 0.40037 0.45069 0.0
C494 C 0.9129 0.37071 0.46121 0.0
C495 C 0.94106 0.42377 0.50059 0.0
C496 C 0.95881 0.41836 0.56034 0.0
C497 C 0.953 0.38849 0.56921 0.0
C498 C 0.92999 0.36493 0.52144 0.0
H499 H 0.56719 0.59036 0.79454 0.0
H500 H 0.50344 0.51565 0.63699 0.0
H501 H 0.60845 0.58787 0.72405 0.0
H502 H 0.54471 0.51288 0.56753 0.0
H503 H 0.62422 0.54478 0.37852 0.0
H504 H 0.583 0.54356 0.46183 0.0
H505 H 0.63454 0.56059 0.69877 0.0
H506 H 0.67585 0.56258 0.61581 0.0
C507 C 0.56186 0.57274 0.74702 0.0
C508 C 0.53193 0.55343 0.7209 0.0
C509 C 0.58561 0.57141 0.70608 0.0
C510 C 0.57999 0.55064 0.63844 0.0
C511 C 0.54994 0.52974 0.61749 0.0
C512 C 0.52622 0.53108 0.65828 0.0
C513 C 0.62688 0.54855 0.44822 0.0
C514 C 0.65347 0.55385 0.49008 0.0
C515 C 0.60308 0.54749 0.49627 0.0
C516 C 0.60529 0.55168 0.58735 0.0
C517 C 0.63207 0.55747 0.62882 0.0
C518 C 0.65581 0.55856 0.58094 0.0
H519 H 0.61295 0.94996 0.67724 0.0
H520 H 0.57045 0.86067 0.56453 0.0
H521 H 0.66 0.94889 0.69134 0.0
H522 H 0.61729 0.85967 0.57936 0.0
H523 H 0.74576 0.94798 0.65689 0.0
H524 H 0.7006 0.94558 0.59504 0.0
H525 H 0.64568 0.85903 0.71728 0.0
H526 H 0.69069 0.86175 0.78015 0.0
C527 C 0.61365 0.9302 0.65532 0.0
C528 C 0.58793 0.90538 0.62026 0.0
C529 C 0.64064 0.92973 0.66233 0.0
C530 C 0.64227 0.90428 0.63554 0.0
C531 C 0.61665 0.87959 0.60004 0.0
C532 C 0.58985 0.88022 0.59184 0.0
C533 C 0.72419 0.92779 0.66682 0.0
C534 C 0.72156 0.90509 0.72354 0.0
C535 C 0.69835 0.92666 0.63263 0.0
C536 C 0.66971 0.90245 0.65308 0.0
C537 C 0.66749 0.878 0.70071 0.0
C538 C 0.69323 0.87942 0.73622 0.0
H539 H 0.06814 0.66552 0.679 0.0
H540 H 0.15647 0.7127 0.56098 0.0
H541 H 0.06902 0.71353 0.69629 0.0
H542 H 0.15725 0.76035 0.57879 0.0
H543 H 0.1577 0.83284 0.77747 0.0
H544 H 0.15929 0.78979 0.71546 0.0
H545 H 0.07094 0.75731 0.60493 0.0
H546 H 0.06965 0.80087 0.66604 0.0
C547 C 0.08764 0.68603 0.65655 0.0
C548 C 0.11226 0.68523 0.61911 0.0
C549 C 0.08801 0.71345 0.66547 0.0
C550 C 0.11314 0.74062 0.63819 0.0
C551 C 0.13759 0.73977 0.60017 0.0
C552 C 0.13707 0.71241 0.59016 0.0
C553 C 0.1393 0.81731 0.73632 0.0
C554 C 0.1136 0.82017 0.72639 0.0
C555 C 0.14007 0.79252 0.70133 0.0
C556 C 0.11494 0.7699 0.65702 0.0
C557 C 0.09042 0.77425 0.63992 0.0
C558 C 0.08992 0.79943 0.67355 0.0
H559 H 0.22469 0.27222 0.66243 0.0
H560 H 0.18679 0.32546 0.75749 0.0
H561 H 0.26897 0.31803 0.60997 0.0
H562 H 0.23068 0.37111 0.70448 0.0
H563 H 0.31081 0.44791 0.57078 0.0
H564 H 0.26369 0.40045 0.57915 0.0
H565 H 0.30935 0.35945 0.70689 0.0
H566 H 0.35702 0.40724 0.6983 0.0
C567 C 0.22506 0.29351 0.66767 0.0
C568 C 0.20239 0.29541 0.71388 0.0
C569 C 0.25067 0.31977 0.63931 0.0
C570 C 0.25357 0.34815 0.6551 0.0
C571 C 0.22914 0.34958 0.69161 0.0
C572 C 0.20384 0.32343 0.72121 0.0
C573 C 0.311 0.42882 0.60043 0.0
C574 C 0.33779 0.43148 0.63437 0.0
C575 C 0.28391 0.4016 0.605 0.0
C576 C 0.28286 0.37621 0.64292 0.0
C577 C 0.30962 0.37859 0.67593 0.0
C578 C 0.33682 0.40602 0.6721 0.0
H579 H 0.11164 0.32225 0.12621 0.0
H580 H 0.15915 0.31273 0.90688 0.0
H581 H 0.11632 0.36782 0.06077 0.0
H582 H 0.16143 0.35586 0.83849 0.0
H583 H 0.17614 0.44388 0.73793 0.0
H584 H 0.17887 0.40479 0.8197 0.0
H585 H 0.09713 0.38506 0.95692 0.0
H586 H 0.09643 0.42632 0.87992 0.0
C587 C 0.12335 0.33 0.06462 0.0
C588 C 0.13484 0.31353 0.02206 0.0
C589 C 0.12558 0.35592 0.02592 0.0
C590 C 0.13874 0.36567 0.94268 0.0
C591 C 0.15149 0.34988 0.90274 0.0
C592 C 0.15 0.32465 0.9423 0.0
C593 C 0.15864 0.43093 0.78509 0.0
C594 C 0.13584 0.43783 0.80168 0.0
C595 C 0.16008 0.4083 0.83231 0.0
C596 C 0.1381 0.39113 0.89558 0.0
C597 C 0.11495 0.39791 0.91073 0.0
C598 C 0.11416 0.42129 0.86545 0.0
H599 H 0.70231 0.85233 0.93819 0.0
H600 H 0.69827 0.79372 0.14648 0.0
H601 H 0.65856 0.81162 0.87223 0.0
H602 H 0.65203 0.75294 0.0845 0.0
H603 H 0.5938 0.67588 0.89922 0.0
H604 H 0.63452 0.71772 -0.0222 0.0
H605 H 0.61011 0.77888 0.85601 0.0
H606 H 0.5717 0.73734 0.77199 0.0
C607 C 0.69147 0.83091 0.97188 0.0
C608 C 0.70441 0.82634 0.04706 0.0
C609 C 0.66586 0.80725 0.93387 0.0
C610 C 0.6515 0.77828 0.97128 0.0
C611 C 0.66285 0.77444 0.05127 0.0
C612 C 0.68915 0.79807 0.08817 0.0
C613 C 0.59771 0.69847 0.8885 0.0
C614 C 0.58017 0.70355 0.82814 0.0
C615 C 0.62075 0.72254 0.93476 0.0
C616 C 0.62611 0.75221 0.92421 0.0
C617 C 0.60776 0.75686 0.86482 0.0
C618 C 0.58552 0.73296 0.81638 0.0
H619 H 0.34701 0.92145 0.89321 0.0
H620 H 0.2844 0.84476 0.74126 0.0
H621 H 0.30526 0.92092 0.97095 0.0
H622 H 0.24269 0.84218 0.82335 0.0
H623 H 0.17236 0.86468 0.91271 0.0
H624 H 0.21278 0.86171 0.84362 0.0
H625 H 0.26802 0.9003 0.07311 0.0
H626 H 0.22765 0.9056 0.13993 0.0
C627 C 0.3242 0.90442 0.87671 0.0
C628 C 0.31887 0.88355 0.81004 0.0
C629 C 0.30016 0.90372 0.92233 0.0
C630 C 0.27016 0.88146 0.90438 0.0
C631 C 0.26513 0.86028 0.83818 0.0
C632 C 0.28911 0.86164 0.79079 0.0
C633 C 0.19287 0.87212 0.94959 0.0
C634 C 0.19665 0.88564 0.03201 0.0
C635 C 0.21633 0.87027 0.90959 0.0
C636 C 0.24425 0.88105 0.95157 0.0
C637 C 0.24732 0.89258 0.03698 0.0
C638 C 0.22394 0.89516 0.07629 0.0
H639 H 0.07202 0.97385 0.06976 0.0
H640 H 0.15346 0.0434 0.18527 0.0
H641 H 0.05672 0.01082 0.03294 0.0
H642 H 0.13778 0.08038 0.15321 0.0
H643 H 0.09761 0.10082 0.84125 0.0
H644 H 0.0938 0.0564 0.91464 0.0
H645 H 0.09139 0.09382 0.16445 0.0
H646 H 0.09428 0.13755 0.09197 0.0
C647 C 0.08571 0.9967 0.09144 0.0
C648 C 0.11383 1.00576 0.12927 0.0
C649 C 0.07716 0.01789 0.06995 0.0
C650 C 0.09639 0.04842 0.08878 0.0
C651 C 0.12255 0.05688 0.13803 0.0
C652 C 0.13133 0.03566 0.15767 0.0
C653 C 0.09526 0.09902 0.91149 0.0
C654 C 0.09592 0.12247 0.96055 0.0
C655 C 0.09301 0.07367 0.95348 0.0
C656 C 0.09225 0.07184 0.04511 0.0
C657 C 0.09176 0.09469 0.09387 0.0
C658 C 0.09333 0.11962 0.05205 0.0
H659 H 0.03928 0.10673 0.955 0.0
H660 H 0.99103 0.1046 0.18691 0.0
H661 H 1.0068 0.05347 0.93405 0.0
H662 H 0.95494 0.05135 0.15892 0.0
H663 H 0.91236 0.99226 0.81919 0.0
H664 H 0.95911 0.03404 0.87304 0.0
H665 H 0.9363 0.99843 0.13485 0.0
H666 H 0.88876 0.95737 0.08092 0.0
C667 C 0.02292 0.09438 0.00508 0.0
C668 C 0.01878 0.10969 0.07496 0.0
C669 C 1.00334 0.06389 -0.00897 0.0
C670 C 0.97753 0.04823 0.04265 0.0
C671 C 0.97464 0.06266 0.11765 0.0
C672 C 0.99537 0.0932 0.13416 0.0
C673 C 0.91778 0.99286 0.88768 0.0
C674 C 0.89706 0.97127 0.94525 0.0
C675 C 0.94473 0.01679 0.91899 0.0
C676 C 0.95163 0.01975 0.00886 0.0
C677 C 0.93168 0.99707 0.06564 0.0
C678 C 0.90461 0.97324 0.03429 0.0
H679 H 0.91576 0.90595 0.19791 0.0
H680 H 0.9083 0.92125 0.92483 0.0
H681 H 0.9701 0.92639 0.17859 0.0
H682 H 0.96086 0.93992 0.90429 0.0
H683 H 0.05215 0.95939 0.8548 0.0
H684 H 1.0115 0.96716 0.90922 0.0
H685 H 0.99561 0.90445 0.11946 0.0
H686 H 0.03723 0.89892 0.06849 0.0
C687 C 0.92581 0.91451 0.1347 0.0
C688 C 0.90769 0.91135 0.06265 0.0
C689 C 0.95688 0.92586 0.12295 0.0
C690 C 0.97002 0.93386 0.03891 0.0
C691 C 0.95218 0.93409 0.96997 0.0
C692 C 0.9216 0.92296 -0.01829 0.0
C693 C 0.04015 0.9479 0.91344 0.0
C694 C 0.04747 0.9285 0.95743 0.0
C695 C 0.01678 0.95213 0.94478 0.0
C696 C 0.99964 0.93609 0.01856 0.0
C697 C 1.00825 0.91772 0.06385 0.0
C698 C 0.03189 0.91411 0.03381 0.0
H699 H 0.75241 0.31672 0.26677 0.0
H700 H 0.79477 0.36301 0.5047 0.0
H701 H 0.73094 0.34866 0.24569 0.0
H702 H 0.77692 0.39863 0.47707 0.0
H703 H 0.76231 0.44375 0.13867 0.0
H704 H 0.75786 0.39685 0.18918 0.0
H705 H 0.74256 0.41673 0.4521 0.0
H706 H 0.74874 0.46457 0.40162 0.0
C707 C 0.7556 0.33263 0.31766 0.0
C708 C 0.77414 0.33633 0.38946 0.0
C709 C 0.74422 0.35187 0.30375 0.0
C710 C 0.75304 0.37701 0.35759 0.0
C711 C 0.76954 0.37946 0.43402 0.0
C712 C 0.77977 0.35901 0.45029 0.0
C713 C 0.75703 0.43765 0.20664 0.0
C714 C 0.7555 0.45773 0.26558 0.0
C715 C 0.75431 0.41058 0.23606 0.0
C716 C 0.74992 0.40285 0.32536 0.0
C717 C 0.74627 0.42202 0.3833 0.0
C718 C 0.74928 0.44925 0.35388 0.0
H719 H 0.69299 0.44847 0.24463 0.0
H720 H 0.67405 0.43873 0.52055 0.0
H721 H 0.66012 0.39563 0.22287 0.0
H722 H 0.64134 0.38423 0.49971 0.0
H723 H 0.54611 0.31605 0.39571 0.0
H724 H 0.59311 0.35828 0.44447 0.0
H725 H 0.63896 0.34472 0.22674 0.0
H726 H 0.59063 0.30328 0.17495 0.0
C727 C 0.68235 0.43466 0.30154 0.0
C728 C 0.68532 0.4479 0.38401 0.0
C729 C 0.66363 0.40396 0.28911 0.0
C730 C 0.64706 0.38539 0.3589 0.0
C731 C 0.65293 0.39802 0.4437 0.0
C732 C 0.67189 0.42917 0.45618 0.0
C733 C 0.56641 0.32197 0.359 0.0
C734 C 0.56496 0.30678 0.28144 0.0
C735 C 0.59358 0.34597 0.3877 0.0
C736 C 0.62016 0.35539 0.33966 0.0
C737 C 0.6189 0.3387 0.26454 0.0
C738 C 0.59136 0.31491 0.2347 0.0
H739 H 0.58606 0.28253 0.3921 0.0
H740 H 0.57597 0.20204 0.51001 0.0
H741 H 0.63813 0.29826 0.35275 0.0
H742 H 0.62848 0.21813 0.47526 0.0
H743 H 0.7285 0.26214 0.40959 0.0
H744 H 0.68788 0.26499 0.48333 0.0
H745 H 0.64671 0.26111 0.235 0.0
H746 H 0.68717 0.25741 0.16025 0.0
C747 C 0.5956 0.26919 0.41381 0.0
C748 C 0.57708 0.24121 0.45318 0.0
C749 C 0.62522 0.27796 0.39082 0.0
C750 C 0.63697 0.25908 0.40959 0.0
C751 C 0.61985 0.23309 0.46013 0.0
C752 C 0.58995 0.22408 0.4813 0.0
C753 C 0.7113 0.2628 0.37016 0.0
C754 C 0.71115 0.25982 0.2787 0.0
C755 C 0.68804 0.26434 0.41275 0.0
C756 C 0.66438 0.26337 0.36482 0.0
C757 C 0.66504 0.26227 0.27317 0.0
C758 C 0.68805 0.26008 0.23041 0.0
H759 H 0.42124 0.79922 0.74429 0.0
H760 H 0.4345 0.77521 0.48482 0.0
H761 H 0.41501 0.75197 0.80052 0.0
H762 H 0.42994 0.72885 0.5411 0.0
H763 H 0.46348 0.69541 0.86281 0.0
H764 H 0.44766 0.73228 0.83016 0.0
H765 H 0.40109 0.68135 0.60058 0.0
H766 H 0.42086 0.6482 0.62628 0.0
C767 C 0.42204 0.78344 0.69877 0.0
C768 C 0.42779 0.79064 0.60954 0.0
C769 C 0.41884 0.75652 0.73138 0.0
C770 C 0.42193 0.73644 0.67585 0.0
C771 C 0.42662 0.74326 0.58601 0.0
C772 C 0.42948 0.77 0.55334 0.0
C773 C 0.44872 0.69149 0.80781 0.0
C774 C 0.44245 0.66817 0.74876 0.0
C775 C 0.43968 0.71267 0.78862 0.0
C776 C 0.42372 0.71025 0.71111 0.0
C777 C 0.41405 0.68451 0.65933 0.0
C778 C 0.42434 0.66456 0.676 0.0
H779 H 0.24336 0.6617 0.47984 0.0
H780 H 0.22009 0.62634 0.74123 0.0
H781 H 0.28973 0.70382 0.53383 0.0
H782 H 0.26742 0.6678 0.79544 0.0
H783 H 0.32439 0.77325 0.85176 0.0
H784 H 0.28732 0.72041 0.82209 0.0
H785 H 0.33728 0.72286 0.59206 0.0
H786 H 0.37053 0.77589 0.61457 0.0
C787 C 0.24876 0.66238 0.54837 0.0
C788 C 0.22831 0.6405 0.60576 0.0
C789 C 0.27551 0.68647 0.57977 0.0
C790 C 0.28257 0.68929 0.66951 0.0
C791 C 0.26269 0.66655 0.72631 0.0
C792 C 0.23573 0.64258 0.69492 0.0
C793 C 0.32801 0.76199 0.79719 0.0
C794 C 0.35109 0.77851 0.73711 0.0
C795 C 0.30673 0.73169 0.77976 0.0
C796 C 0.30883 0.71752 0.70305 0.0
C797 C 0.33432 0.73314 0.65018 0.0
C798 C 0.35431 0.76345 0.66497 0.0
H799 H 0.35909 0.58468 0.49192 0.0
H800 H 0.39242 0.59694 0.75577 0.0
H801 H 0.3163 0.58861 0.5422 0.0
H802 H 0.35016 0.60229 0.80628 0.0
H803 H 0.24396 0.59837 0.61691 0.0
H804 H 0.2971 0.6177 0.59851 0.0
H805 H 0.29706 0.56889 0.82833 0.0
H806 H 0.24398 0.55322 0.85342 0.0
C807 C 0.35778 0.58929 0.56023 0.0
C808 C 0.37931 0.59091 0.61938 0.0
C809 C 0.33331 0.59177 0.58945 0.0
C810 C 0.32972 0.59594 0.67875 0.0
C811 C 0.35204 0.59889 0.73741 0.0
C812 C 0.37644 0.59617 0.70815 0.0
C813 C 0.25582 0.59412 0.66812 0.0
C814 C 0.23999 0.57544 0.7387 0.0
C815 C 0.28621 0.60425 0.65573 0.0
C816 C 0.30121 0.59395 0.70981 0.0
C817 C 0.28625 0.57734 0.78518 0.0
C818 C 0.25582 0.56839 0.79999 0.0
H819 H 0.05862 0.16896 0.67453 0.0
H820 H 0.11861 0.26484 0.69535 0.0
H821 H 0.07692 0.1694 0.52836 0.0
H822 H 0.13522 0.26625 0.54549 0.0
H823 H 0.0903 0.18482 0.24077 0.0
H824 H 0.07474 0.18255 0.38912 0.0
H825 H 0.16432 0.25387 0.45702 0.0
H826 H 0.17901 0.25825 0.30395 0.0
C827 C 0.07478 0.19032 0.64563 0.0
C828 C 0.08677 0.21696 0.69381 0.0
C829 C 0.08545 0.19067 0.56224 0.0
C830 C 0.10755 0.2179 0.52485 0.0
C831 C 0.11869 0.2448 0.5728 0.0
C832 C 0.10872 0.24421 0.65747 0.0
C833 C 0.10671 0.20019 0.28698 0.0
C834 C 0.13555 0.2224 0.26029 0.0
C835 C 0.0979 0.19855 0.37288 0.0
C836 C 0.11813 0.21829 0.43517 0.0
C837 C 0.14789 0.23896 0.40996 0.0
C838 C 0.15648 0.24118 0.32274 0.0
H839 H 0.76232 0.92662 0.31304 0.0
H840 H 0.83305 0.90694 0.25113 0.0
H841 H 0.76472 0.91435 0.46544 0.0
H842 H 0.8331 0.89153 0.39837 0.0
H843 H 0.74998 0.85694 0.70442 0.0
H844 H 0.75004 0.87301 0.55465 0.0
H845 H 0.84566 0.90435 0.53807 0.0
H846 H 0.8444 0.88555 0.68369 0.0
C847 C 0.77838 0.91976 0.33193 0.0
C848 C 0.79698 0.91704 0.26978 0.0
C849 C 0.77942 0.9122 0.41885 0.0
C850 C 0.79864 0.90126 0.44428 0.0
C851 C 0.81821 0.90011 0.38235 0.0
C852 C 0.81784 0.90855 0.29688 0.0
C853 C 0.77058 0.86625 0.66664 0.0
C854 C 0.79696 0.86926 0.70319 0.0
C855 C 0.77089 0.87614 0.58187 0.0
C856 C 0.7979 0.89017 0.53387 0.0
C857 C 0.82422 0.89293 0.57151 0.0
C858 C 0.82359 0.88207 0.65484 0.0
H859 H 0.12297 0.96142 0.69184 0.0
H860 H 0.16701 0.90854 0.70933 0.0
H861 H 0.10589 0.94242 0.54555 0.0
H862 H 0.1524 0.89131 0.55979 0.0
H863 H 0.10741 0.92886 0.25674 0.0
H864 H 0.12027 0.94534 0.40495 0.0
H865 H 0.11205 0.85937 0.47221 0.0
H866 H 0.10223 0.84416 0.31925 0.0
C867 C 0.13009 0.94675 0.66225 0.0
C868 C 0.14684 0.93694 0.70972 0.0
C869 C 0.12021 0.93566 0.57872 0.0
C870 C 0.12772 0.91523 0.54045 0.0
C871 C 0.14558 0.90642 0.58762 0.0
C872 C 0.15462 0.91681 0.67223 0.0
C873 C 0.10857 0.91352 0.3029 0.0
C874 C 0.10489 0.88569 0.27595 0.0
C875 C 0.11546 0.92279 0.38872 0.0
C876 C 0.1177 0.90392 0.45085 0.0
C877 C 0.11149 0.87489 0.42541 0.0
C878 C 0.10535 0.86592 0.33824 0.0
H879 H 0.84608 0.59115 0.64096 0.0
H880 H 0.7553 0.52175 0.57897 0.0
H881 H 0.83135 0.58954 0.79291 0.0
H882 H 0.7398 0.52265 0.72569 0.0
H883 H 0.72205 0.5125 0.01147 0.0
H884 H 0.73901 0.51044 0.86567 0.0
H885 H 0.80591 0.60534 0.88224 0.0
H886 H 0.79042 0.60606 0.03225 0.0
C887 C 0.82304 0.57556 0.65971 0.0
C888 C 0.80168 0.55713 0.59754 0.0
C889 C 0.81441 0.575 0.74643 0.0
C890 C 0.78415 0.55649 0.77177 0.0
C891 C 0.76335 0.53704 0.70987 0.0
C892 C 0.77218 0.53686 0.62462 0.0
C893 C 0.73984 0.53301 -0.0174 0.0
C894 C 0.75455 0.55958 0.03117 0.0
C895 C 0.74974 0.53192 0.89904 0.0
C896 C 0.77389 0.55776 0.8613 0.0
C897 C 0.78772 0.5848 0.90944 0.0
C898 C 0.77847 0.58552 -0.00557 0.0
H899 H 0.52186 0.22919 0.02089 0.0
H900 H 0.42533 0.1879 0.03916 0.0
H901 H 0.52052 0.24664 0.87478 0.0
H902 H 0.4232 0.20279 0.88963 0.0
H903 H 0.50601 0.24631 0.58637 0.0
H904 H 0.50901 0.23284 0.73427 0.0
H905 H 0.43261 0.24331 0.8018 0.0
H906 H 0.42775 0.25366 0.64905 0.0
C907 C 0.50024 0.22272 -0.0085 0.0
C908 C 0.47365 0.20667 0.03924 0.0
C909 C 0.49936 0.23281 0.908 0.0
C910 C 0.47171 0.22618 0.8699 0.0
C911 C 0.44495 0.20896 0.91728 0.0
C912 C 0.446 0.19974 0.00192 0.0
C913 C 0.48968 0.24553 0.6325 0.0
C914 C 0.46603 0.24998 0.60559 0.0
C915 C 0.4917 0.23828 0.7182 0.0
C916 C 0.47078 0.23648 0.78035 0.0
C917 C 0.44853 0.24349 0.75501 0.0
C918 C 0.446 0.24995 0.66794 0.0
H919 H 0.77847 0.26512 0.56071 0.0
H920 H 0.76182 0.17579 0.62373 0.0
H921 H 0.79259 0.28079 0.70852 0.0
H922 H 0.77284 0.1906 0.77649 0.0
H923 H 0.79667 0.29775 -0.00613 0.0
H924 H 0.77851 0.27969 0.84793 0.0
H925 H 0.81403 0.21868 0.86538 0.0
H926 H 0.82945 0.23509 0.01519 0.0
C927 C 0.77728 0.24858 0.60679 0.0
C928 C 0.77005 0.21953 0.58003 0.0
C929 C 0.78494 0.25748 0.69249 0.0
C930 C 0.78429 0.23712 0.75475 0.0
C931 C 0.77456 0.20717 0.72955 0.0
C932 C 0.76775 0.19849 0.64246 0.0
C933 C 0.80117 0.28104 0.96511 0.0
C934 C 0.815 0.26823 0.01355 0.0
C935 C 0.79069 0.27051 0.88172 0.0
C936 C 0.79483 0.2477 0.84437 0.0
C937 C 0.80984 0.23577 0.89251 0.0
C938 C 0.81936 0.24561 -0.02277 0.0
H939 H 0.45583 0.93532 0.36525 0.0
H940 H 0.39166 0.84038 0.34502 0.0
H941 H 0.47198 0.93554 0.21546 0.0
H942 H 0.40938 0.83947 0.19919 0.0
H943 H 0.51378 0.92432 0.97386 0.0
H944 H 0.49925 0.92117 0.12669 0.0
H945 H 0.40841 0.85243 0.05966 0.0
H946 H 0.4237 0.85331 0.91169 0.0
C947 C 0.44494 0.91466 0.32756 0.0
C948 C 0.42198 0.88804 0.36418 0.0
C949 C 0.45461 0.91453 0.24286 0.0
C950 C 0.44212 0.88748 0.19505 0.0
C951 C 0.41899 0.8609 0.23272 0.0
C952 C 0.40866 0.86133 0.31605 0.0
C953 C 0.49098 0.90803 -0.0072 0.0
C954 C 0.46967 0.8896 0.93057 0.0
C955 C 0.48248 0.90655 0.07994 0.0
C956 C 0.45245 0.88702 0.1054 0.0
C957 C 0.43178 0.86756 0.04339 0.0
C958 C 0.44048 0.8684 0.95762 0.0
H959 H 0.18003 0.55659 0.33912 0.0
H960 H 0.08453 0.52273 0.35974 0.0
H961 H 0.18007 0.57485 0.19329 0.0
H962 H 0.08354 0.53834 0.21013 0.0
H963 H 0.16516 0.57358 0.9057 0.0
H964 H 0.16699 0.56 0.05392 0.0
H965 H 0.09658 0.57985 0.1215 0.0
H966 H 0.09261 0.59048 0.96846 0.0
C967 C 0.15883 0.55191 0.31023 0.0
C968 C 0.13216 0.5377 0.35834 0.0
C969 C 0.15876 0.56246 0.22699 0.0
C970 C 0.13176 0.55802 0.18955 0.0
C971 C 0.10483 0.54273 0.23741 0.0
C972 C 0.10516 0.5331 0.32197 0.0
C973 C 0.14991 0.57495 0.95181 0.0
C974 C 0.12806 0.58211 0.92495 0.0
C975 C 0.15129 0.56759 0.03768 0.0
C976 C 0.13167 0.56842 0.09988 0.0
C977 C 0.11139 0.57805 0.07455 0.0
C978 C 0.10941 0.58461 -0.01267 0.0
H979 H 0.48509 0.55561 0.39764 0.0
H980 H 0.49691 0.64287 0.33433 0.0
H981 H 0.47181 0.53948 0.24788 0.0
H982 H 0.48695 0.62821 0.18124 0.0
H983 H 0.42734 0.58174 0.9497 0.0
H984 H 0.44436 0.5983 0.09817 0.0
H985 H 0.48459 0.54132 0.10453 0.0
H986 H 0.46547 0.52329 0.95895 0.0
C987 C 0.48513 0.57139 0.35081 0.0
C988 C 0.49052 0.59981 0.37761 0.0
C989 C 0.47814 0.56245 0.26449 0.0
C990 C 0.47749 0.58229 0.20247 0.0
C991 C 0.48608 0.61196 0.22796 0.0
C992 C 0.49234 0.6206 0.31519 0.0
C993 C 0.43918 0.57231 -0.01575 0.0
C994 C 0.44462 0.55088 0.94436 0.0
C995 C 0.4495 0.5822 0.06846 0.0
C996 C 0.46627 0.57149 0.1132 0.0
C997 C 0.47136 0.54972 0.07295 0.0
C998 C 0.4603 0.53924 -0.01032 0.0
loop_
_geom_bond_atom_site_label_1
_geom_bond_atom_site_label_2
_geom_bond_distance
_geom_bond_site_symmetry_2
_ccdc_geom_bond_type
C0 O27 1.312 . S
C0 O28 1.208 . S
C1 O22 1.331 1_556 S
C1 O25 1.244 . S
C2 O24 1.264 . S
C2 O26 1.273 . S
Mg3 O5 1.936 . S
Mg3 O12 2.081 . S
Mg3 O14 2.023 1_554 S
Mg3 O18 2.031 . S
Mg3 O27 2.291 . S
Mg4 O5 1.963 1_556 S
Mg4 O15 1.942 1_556 S
Mg4 O16 1.955 . S
Mg4 O23 1.986 . S
O5 Mg3 1.936 . S
O5 Mg4 1.963 1_554 S
O5 Mg6 1.913 1_554 S
Mg6 O5 1.913 1_556 S
Mg6 O7 1.917 . S
Mg6 O11 2.025 . S
Mg6 O17 2.102 1_556 S
Mg6 O21 2.013 . S
Mg6 O27 2.112 1_556 S
O7 Mg6 1.917 . S
O7 Mg8 1.936 1_556 S
O7 Mg9 1.963 . S
Mg8 O7 1.936 1_554 S
Mg8 O17 2.291 . S
Mg8 O22 2.081 . S
Mg8 O24 2.023 . S
Mg8 O28 2.031 . S
Mg9 O7 1.963 . S
Mg9 O13 1.986 . S
Mg9 O25 1.942 . S
Mg9 O26 1.955 1_556 S
C10 O21 1.191 . S
C10 O23 1.307 . S
O11 Mg6 2.025 . S
O11 C30 1.191 . S
O12 Mg3 2.081 . S
O12 C20 1.331 . S
O13 Mg9 1.986 . S
O13 C30 1.307 . S
O14 Mg3 2.023 1_556 S
O14 C29 1.264 . S
O15 Mg4 1.942 1_554 S
O15 C20 1.244 . S
O16 Mg4 1.955 . S
O16 C29 1.273 . S
O17 Mg6 2.102 1_554 S
O17 Mg8 2.291 . S
O17 C19 1.312 . S
O18 Mg3 2.031 . S
O18 C19 1.208 . S
C19 O17 1.312 . S
C19 O18 1.208 . S
C20 O12 1.331 . S
C20 O15 1.244 . S
O21 Mg6 2.013 . S
O21 C10 1.191 . S
O22 C1 1.331 1_554 S
O22 Mg8 2.081 . S
O23 Mg4 1.986 . S
O23 C10 1.307 . S
O24 C2 1.264 . S
O24 Mg8 2.023 . S
O25 C1 1.244 . S
O25 Mg9 1.942 . S
O26 C2 1.273 . S
O26 Mg9 1.955 1_554 S
O27 C0 1.312 . S
O27 Mg3 2.291 . S
O27 Mg6 2.112 1_554 S
O28 C0 1.208 . S
O28 Mg8 2.031 . S
C29 O14 1.264 . S
C29 O16 1.273 . S
C30 O11 1.191 . S
C30 O13 1.307 . S
C31 O58 1.312 . S
C31 O59 1.208 . S
C32 O53 1.331 1_556 S
C32 O56 1.244 . S
C33 O55 1.264 . S
C33 O57 1.273 . S
Mg34 O36 1.936 . S
Mg34 O43 2.081 . S
Mg34 O45 2.023 1_554 S
Mg34 O49 2.031 . S
Mg34 O58 2.291 . S
Mg35 O36 1.963 1_556 S
Mg35 O46 1.942 1_556 S
Mg35 O47 1.955 . S
Mg35 O54 1.986 . S
O36 Mg34 1.936 . S
O36 Mg35 1.963 1_554 S
O36 Mg37 1.913 1_554 S
Mg37 O36 1.913 1_556 S
Mg37 O38 1.917 . S
Mg37 O42 2.025 . S
Mg37 O48 2.102 1_556 S
Mg37 O52 2.013 . S
Mg37 O58 2.112 1_556 S
O38 Mg37 1.917 . S
O38 Mg39 1.936 1_556 S
O38 Mg40 1.963 . S
Mg39 O38 1.936 1_554 S
Mg39 O48 2.291 . S
Mg39 O53 2.081 . S
Mg39 O55 2.023 . S
Mg39 O59 2.031 . S
Mg40 O38 1.963 . S
Mg40 O44 1.986 . S
Mg40 O56 1.942 . S
Mg40 O57 1.955 1_556 S
C41 O52 1.191 . S
C41 O54 1.307 . S
O42 Mg37 2.025 . S
O42 C61 1.191 . S
O43 Mg34 2.081 . S
O43 C51 1.331 . S
O44 Mg40 1.986 . S
O44 C61 1.307 . S
O45 Mg34 2.023 1_556 S
O45 C60 1.264 . S
O46 Mg35 1.942 1_554 S
O46 C51 1.244 . S
O47 Mg35 1.955 . S
O47 C60 1.273 . S
O48 Mg37 2.102 1_554 S
O48 Mg39 2.291 . S
O48 C50 1.312 . S
O49 Mg34 2.031 . S
O49 C50 1.208 . S
C50 O48 1.312 . S
C50 O49 1.208 . S
C51 O43 1.331 . S
C51 O46 1.244 . S
O52 Mg37 2.013 . S
O52 C41 1.191 . S
O53 C32 1.331 1_554 S
O53 Mg39 2.081 . S
O54 Mg35 1.986 . S
O54 C41 1.307 . S
O55 C33 1.264 . S
O55 Mg39 2.023 . S
O56 C32 1.244 . S
O56 Mg40 1.942 . S
O57 C33 1.273 . S
O57 Mg40 1.955 1_554 S
O58 C31 1.312 . S
O58 Mg34 2.291 . S
O58 Mg37 2.112 1_554 S
O59 C31 1.208 . S
O59 Mg39 2.031 . S
C60 O45 1.264 . S
C60 O47 1.273 . S
C61 O42 1.191 . S
C61 O44 1.307 . S
C62 O89 1.312 . S
C62 O90 1.208 . S
C63 O84 1.331 1_556 S
C63 O87 1.244 . S
C64 O86 1.264 . S
C64 O88 1.273 . S
Mg65 O67 1.936 . S
Mg65 O74 2.081 . S
Mg65 O76 2.023 1_554 S
Mg65 O80 2.031 . S
Mg65 O89 2.291 . S
Mg66 O67 1.963 1_556 S
Mg66 O77 1.942 1_556 S
Mg66 O78 1.955 . S
Mg66 O85 1.986 . S
O67 Mg65 1.936 . S
O67 Mg66 1.963 1_554 S
O67 Mg68 1.913 1_554 S
Mg68 O67 1.913 1_556 S
Mg68 O69 1.917 . S
Mg68 O73 2.024 . S
Mg68 O79 2.103 1_556 S
Mg68 O83 2.013 . S
Mg68 O89 2.112 1_556 S
O69 Mg68 1.917 . S
O69 Mg70 1.936 1_556 S
O69 Mg71 1.963 . S
Mg70 O69 1.936 1_554 S
Mg70 O79 2.291 . S
Mg70 O84 2.081 . S
Mg70 O86 2.023 . S
Mg70 O90 2.031 . S
Mg71 O69 1.963 . S
Mg71 O75 1.986 . S
Mg71 O87 1.942 . S
Mg71 O88 1.955 1_556 S
C72 O83 1.191 . S
C72 O85 1.307 . S
O73 Mg68 2.024 . S
O73 C92 1.191 . S
O74 Mg65 2.081 . S
O74 C82 1.331 . S
O75 Mg71 1.986 . S
O75 C92 1.307 . S
O76 Mg65 2.023 1_556 S
O76 C91 1.264 . S
O77 Mg66 1.942 1_554 S
O77 C82 1.244 . S
O78 Mg66 1.955 . S
O78 C91 1.273 . S
O79 Mg68 2.103 1_554 S
O79 Mg70 2.291 . S
O79 C81 1.312 . S
O80 Mg65 2.031 . S
O80 C81 1.208 . S
C81 O79 1.312 . S
C81 O80 1.208 . S
C82 O74 1.331 . S
C82 O77 1.244 . S
O83 Mg68 2.013 . S
O83 C72 1.191 . S
O84 C63 1.331 1_554 S
O84 Mg70 2.081 . S
O85 Mg66 1.986 . S
O85 C72 1.307 . S
O86 C64 1.264 . S
O86 Mg70 2.023 . S
O87 C63 1.244 . S
O87 Mg71 1.942 . S
O88 C64 1.273 . S
O88 Mg71 1.955 1_554 S
O89 C62 1.312 . S
O89 Mg65 2.291 . S
O89 Mg68 2.112 1_554 S
O90 C62 1.208 . S
O90 Mg70 2.031 . S
C91 O76 1.264 . S
C91 O78 1.273 . S
C92 O73 1.191 . S
C92 O75 1.307 . S
C93 O120 1.312 . S
C93 O121 1.208 . S
C94 O115 1.331 . S
C94 O118 1.244 . S
C95 O117 1.264 . S
C95 O119 1.273 . S
Mg96 O98 1.936 . S
Mg96 O105 2.081 . S
Mg96 O107 2.023 . S
Mg96 O111 2.031 . S
Mg96 O120 2.291 . S
Mg97 O98 1.963 . S
Mg97 O108 1.942 . S
Mg97 O109 1.955 . S
Mg97 O116 1.986 . S
O98 Mg96 1.936 . S
O98 Mg97 1.963 . S
O98 Mg99 1.915 . S
Mg99 O98 1.915 . S
Mg99 O100 1.915 . S
Mg99 O104 2.013 . S
Mg99 O110 2.114 . S
Mg99 O114 2.013 . S
Mg99 O120 2.114 . S
O100 Mg99 1.915 . S
O100 Mg101 1.936 . S
O100 Mg102 1.963 . S
Mg101 O100 1.936 . S
Mg101 O110 2.291 . S
Mg101 O115 2.081 . S
Mg101 O117 2.023 . S
Mg101 O121 2.031 . S
Mg102 O100 1.963 . S
Mg102 O106 1.986 . S
Mg102 O118 1.942 . S
Mg102 O119 1.955 . S
C103 O114 1.191 . S
C103 O116 1.307 . S
O104 Mg99 2.013 . S
O104 C123 1.191 . S
O105 Mg96 2.081 . S
O105 C113 1.331 . S
O106 Mg102 1.986 . S
O106 C123 1.307 . S
O107 Mg96 2.023 . S
O107 C122 1.264 . S
O108 Mg97 1.942 . S
O108 C113 1.244 . S
O109 Mg97 1.955 . S
O109 C122 1.273 . S
O110 Mg99 2.114 . S
O110 Mg101 2.291 . S
O110 C112 1.312 . S
O111 Mg96 2.031 . S
O111 C112 1.208 . S
C112 O110 1.312 . S
C112 O111 1.208 . S
C113 O105 1.331 . S
C113 O108 1.244 . S
O114 Mg99 2.013 . S
O114 C103 1.191 . S
O115 C94 1.331 . S
O115 Mg101 2.081 . S
O116 Mg97 1.986 . S
O116 C103 1.307 . S
O117 C95 1.264 . S
O117 Mg101 2.023 . S
O118 C94 1.244 . S
O118 Mg102 1.942 . S
O119 C95 1.273 . S
O119 Mg102 1.955 . S
O120 C93 1.312 . S
O120 Mg96 2.291 . S
O120 Mg99 2.114 . S
O121 C93 1.208 . S
O121 Mg101 2.031 . S
C122 O107 1.264 . S
C122 O109 1.273 . S
C123 O104 1.191 . S
C123 O106 1.307 . S
C124 O151 1.312 . S
C124 O152 1.208 . S
C125 O146 1.331 . S
C125 O149 1.244 . S
C126 O148 1.264 . S
C126 O150 1.273 . S
Mg127 O129 1.936 . S
Mg127 O136 2.081 . S
Mg127 O138 2.023 . S
Mg127 O142 2.031 . S
Mg127 O151 2.291 . S
Mg128 O129 1.963 . S
Mg128 O139 1.942 . S
Mg128 O140 1.955 . S
Mg128 O147 1.986 . S
O129 Mg127 1.936 . S
O129 Mg128 1.963 . S
O129 Mg130 1.915 . S
Mg130 O129 1.915 . S
Mg130 O131 1.915 . S
Mg130 O135 2.013 . S
Mg130 O141 2.114 . S
Mg130 O145 2.013 . S
Mg130 O151 2.114 . S
O131 Mg130 1.915 . S
O131 Mg132 1.936 . S
O131 Mg133 1.963 . S
Mg132 O131 1.936 . S
Mg132 O141 2.291 . S
Mg132 O146 2.081 . S
Mg132 O148 2.023 . S
Mg132 O152 2.031 . S
Mg133 O131 1.963 . S
Mg133 O137 1.986 . S
Mg133 O149 1.942 . S
Mg133 O150 1.955 . S
C134 O145 1.191 . S
C134 O147 1.307 . S
O135 Mg130 2.013 . S
O135 C154 1.191 . S
O136 Mg127 2.081 . S
O136 C144 1.331 . S
O137 Mg133 1.986 . S
O137 C154 1.307 . S
O138 Mg127 2.023 . S
O138 C153 1.264 . S
O139 Mg128 1.942 . S
O139 C144 1.244 . S
O140 Mg128 1.955 . S
O140 C153 1.273 . S
O141 Mg130 2.114 . S
O141 Mg132 2.291 . S
O141 C143 1.312 . S
O142 Mg127 2.031 . S
O142 C143 1.208 . S
C143 O141 1.312 . S
C143 O142 1.208 . S
C144 O136 1.331 . S
C144 O139 1.244 . S
O145 Mg130 2.013 . S
O145 C134 1.191 . S
O146 C125 1.331 . S
O146 Mg132 2.081 . S
O147 Mg128 1.986 . S
O147 C134 1.307 . S
O148 C126 1.264 . S
O148 Mg132 2.023 . S
O149 C125 1.244 . S
O149 Mg133 1.942 . S
O150 C126 1.273 . S
O150 Mg133 1.955 . S
O151 C124 1.312 . S
O151 Mg127 2.291 . S
O151 Mg130 2.114 . S
O152 C124 1.208 . S
O152 Mg132 2.031 . S
C153 O138 1.264 . S
C153 O140 1.273 . S
C154 O135 1.191 . S
C154 O137 1.307 . S
C155 O182 1.312 . S
C155 O183 1.208 . S
C156 O177 1.331 . S
C156 O180 1.244 . S
C157 O179 1.264 . S
C157 O181 1.273 . S
Mg158 O160 1.936 . S
Mg158 O167 2.081 . S
Mg158 O169 2.023 . S
Mg158 O173 2.031 . S
Mg158 O182 2.291 . S
Mg159 O160 1.963 . S
Mg159 O170 1.942 . S
Mg159 O171 1.955 . S
Mg159 O178 1.986 . S
O160 Mg158 1.936 . S
O160 Mg159 1.963 . S
O160 Mg161 1.915 . S
Mg161 O160 1.915 . S
Mg161 O162 1.915 . S
Mg161 O166 2.013 . S
Mg161 O172 2.114 . S
Mg161 O176 2.013 . S
Mg161 O182 2.114 . S
O162 Mg161 1.915 . S
O162 Mg163 1.936 . S
O162 Mg164 1.963 . S
Mg163 O162 1.936 . S
Mg163 O172 2.291 . S
Mg163 O177 2.081 . S
Mg163 O179 2.023 . S
Mg163 O183 2.031 . S
Mg164 O162 1.963 . S
Mg164 O168 1.986 . S
Mg164 O180 1.942 . S
Mg164 O181 1.955 . S
C165 O176 1.191 . S
C165 O178 1.307 . S
O166 Mg161 2.013 . S
O166 C185 1.191 . S
O167 Mg158 2.081 . S
O167 C175 1.331 . S
O168 Mg164 1.986 . S
O168 C185 1.307 . S
O169 Mg158 2.023 . S
O169 C184 1.264 . S
O170 Mg159 1.942 . S
O170 C175 1.244 . S
O171 Mg159 1.955 . S
O171 C184 1.273 . S
O172 Mg161 2.114 . S
O172 Mg163 2.291 . S
O172 C174 1.312 . S
O173 Mg158 2.031 . S
O173 C174 1.208 . S
C174 O172 1.312 . S
C174 O173 1.208 . S
C175 O167 1.331 . S
C175 O170 1.244 . S
O176 Mg161 2.013 . S
O176 C165 1.191 . S
O177 C156 1.331 . S
O177 Mg163 2.081 . S
O178 Mg159 1.986 . S
O178 C165 1.307 . S
O179 C157 1.264 . S
O179 Mg163 2.023 . S
O180 C156 1.244 . S
O180 Mg164 1.942 . S
O181 C157 1.273 . S
O181 Mg164 1.955 . S
O182 C155 1.312 . S
O182 Mg158 2.291 . S
O182 Mg161 2.114 . S
O183 C155 1.208 . S
O183 Mg163 2.031 . S
C184 O169 1.264 . S
C184 O171 1.273 . S
C185 O166 1.191 . S
C185 O168 1.307 . S
C186 O213 1.312 . S
C186 O214 1.208 . S
C187 O208 1.331 . S
C187 O211 1.244 . S
C188 O210 1.264 . S
C188 O212 1.273 . S
Mg189 O191 1.936 . S
Mg189 O198 2.081 . S
Mg189 O200 2.023 . S
Mg189 O204 2.031 . S
Mg189 O213 2.291 . S
Mg190 O191 1.963 . S
Mg190 O201 1.942 . S
Mg190 O202 1.955 . S
Mg190 O209 1.986 . S
O191 Mg189 1.936 . S
O191 Mg190 1.963 . S
O191 Mg192 1.915 . S
Mg192 O191 1.915 . S
Mg192 O193 1.915 . S
Mg192 O197 2.013 . S
Mg192 O203 2.114 . S
Mg192 O207 2.013 . S
Mg192 O213 2.114 . S
O193 Mg192 1.915 . S
O193 Mg194 1.936 . S
O193 Mg195 1.963 . S
Mg194 O193 1.936 . S
Mg194 O203 2.291 . S
Mg194 O208 2.081 . S
Mg194 O210 2.023 . S
Mg194 O214 2.031 . S
Mg195 O193 1.963 . S
Mg195 O199 1.986 . S
Mg195 O211 1.942 . S
Mg195 O212 1.955 . S
C196 O207 1.191 . S
C196 O209 1.307 . S
O197 Mg192 2.013 . S
O197 C216 1.191 . S
O198 Mg189 2.081 . S
O198 C206 1.331 . S
O199 Mg195 1.986 . S
O199 C216 1.307 . S
O200 Mg189 2.023 . S
O200 C215 1.264 . S
O201 Mg190 1.942 . S
O201 C206 1.244 . S
O202 Mg190 1.955 . S
O202 C215 1.273 . S
O203 Mg192 2.114 . S
O203 Mg194 2.291 . S
O203 C205 1.312 . S
O204 Mg189 2.031 . S
O204 C205 1.208 . S
C205 O203 1.312 . S
C205 O204 1.208 . S
C206 O198 1.331 . S
C206 O201 1.244 . S
O207 Mg192 2.013 . S
O207 C196 1.191 . S
O208 C187 1.331 . S
O208 Mg194 2.081 . S
O209 Mg190 1.986 . S
O209 C196 1.307 . S
O210 C188 1.264 . S
O210 Mg194 2.023 . S
O211 C187 1.244 . S
O211 Mg195 1.942 . S
O212 C188 1.273 . S
O212 Mg195 1.955 . S
O213 C186 1.312 . S
O213 Mg189 2.291 . S
O213 Mg192 2.114 . S
O214 C186 1.208 . S
O214 Mg194 2.031 . S
C215 O200 1.264 . S
C215 O202 1.273 . S
C216 O197 1.191 . S
C216 O199 1.307 . S
C217 O244 1.312 . S
C217 O245 1.208 . S
C218 O239 1.331 . S
C218 O242 1.244 . S
C219 O241 1.264 . S
C219 O243 1.273 . S
Mg220 O222 1.936 . S
Mg220 O229 2.081 . S
Mg220 O231 2.023 . S
Mg220 O235 2.031 . S
Mg220 O244 2.291 . S
Mg221 O222 1.963 . S
Mg221 O232 1.942 . S
Mg221 O233 1.955 . S
Mg221 O240 1.986 . S
O222 Mg220 1.936 . S
O222 Mg221 1.963 . S
O222 Mg223 1.915 . S
Mg223 O222 1.915 . S
Mg223 O224 1.915 . S
Mg223 O228 2.013 . S
Mg223 O234 2.114 . S
Mg223 O238 2.013 . S
Mg223 O244 2.114 . S
O224 Mg223 1.915 . S
O224 Mg225 1.936 . S
O224 Mg226 1.963 . S
Mg225 O224 1.936 . S
Mg225 O234 2.291 . S
Mg225 O239 2.081 . S
Mg225 O241 2.023 . S
Mg225 O245 2.031 . S
Mg226 O224 1.963 . S
Mg226 O230 1.986 . S
Mg226 O242 1.942 . S
Mg226 O243 1.955 . S
C227 O238 1.191 . S
C227 O240 1.307 . S
O228 Mg223 2.013 . S
O228 C247 1.191 . S
O229 Mg220 2.081 . S
O229 C237 1.331 . S
O230 Mg226 1.986 . S
O230 C247 1.307 . S
O231 Mg220 2.023 . S
O231 C246 1.264 . S
O232 Mg221 1.942 . S
O232 C237 1.244 . S
O233 Mg221 1.955 . S
O233 C246 1.273 . S
O234 Mg223 2.114 . S
O234 Mg225 2.291 . S
O234 C236 1.312 . S
O235 Mg220 2.031 . S
O235 C236 1.208 . S
C236 O234 1.312 . S
C236 O235 1.208 . S
C237 O229 1.331 . S
C237 O232 1.244 . S
O238 Mg223 2.013 . S
O238 C227 1.191 . S
O239 C218 1.331 . S
O239 Mg225 2.081 . S
O240 Mg221 1.986 . S
O240 C227 1.307 . S
O241 C219 1.264 . S
O241 Mg225 2.023 . S
O242 C218 1.244 . S
O242 Mg226 1.942 . S
O243 C219 1.273 . S
O243 Mg226 1.955 . S
O244 C217 1.312 . S
O244 Mg220 2.291 . S
O244 Mg223 2.114 . S
O245 C217 1.208 . S
O245 Mg225 2.031 . S
C246 O231 1.264 . S
C246 O233 1.273 . S
C247 O228 1.191 . S
C247 O230 1.307 . S
C248 O275 1.312 . S
C248 O276 1.208 . S
C249 O270 1.331 . S
C249 O273 1.244 . S
C250 O272 1.264 . S
C250 O274 1.273 . S
Mg251 O253 1.936 . S
Mg251 O260 2.081 . S
Mg251 O262 2.023 . S
Mg251 O266 2.031 . S
Mg251 O275 2.291 . S
Mg252 O253 1.963 . S
Mg252 O263 1.942 . S
Mg252 O264 1.955 . S
Mg252 O271 1.986 . S
O253 Mg251 1.936 . S
O253 Mg252 1.963 . S
O253 Mg254 1.915 . S
Mg254 O253 1.915 . S
Mg254 O255 1.915 . S
Mg254 O259 2.013 . S
Mg254 O265 2.114 . S
Mg254 O269 2.013 . S
Mg254 O275 2.114 . S
O255 Mg254 1.915 . S
O255 Mg256 1.936 . S
O255 Mg257 1.963 . S
Mg256 O255 1.936 . S
Mg256 O265 2.291 . S
Mg256 O270 2.081 . S
Mg256 O272 2.023 . S
Mg256 O276 2.031 . S
Mg257 O255 1.963 . S
Mg257 O261 1.986 . S
Mg257 O273 1.942 . S
Mg257 O274 1.955 . S
C258 O269 1.191 . S
C258 O271 1.307 . S
O259 Mg254 2.013 . S
O259 C278 1.191 . S
O260 Mg251 2.081 . S
O260 C268 1.331 . S
O261 Mg257 1.986 . S
O261 C278 1.307 . S
O262 Mg251 2.023 . S
O262 C277 1.264 . S
O263 Mg252 1.942 . S
O263 C268 1.244 . S
O264 Mg252 1.955 . S
O264 C277 1.273 . S
O265 Mg254 2.114 . S
O265 Mg256 2.291 . S
O265 C267 1.312 . S
O266 Mg251 2.031 . S
O266 C267 1.208 . S
C267 O265 1.312 . S
C267 O266 1.208 . S
C268 O260 1.331 . S
C268 O263 1.244 . S
O269 Mg254 2.013 . S
O269 C258 1.191 . S
O270 C249 1.331 . S
O270 Mg256 2.081 . S
O271 Mg252 1.986 . S
O271 C258 1.307 . S
O272 C250 1.264 . S
O272 Mg256 2.023 . S
O273 C249 1.244 . S
O273 Mg257 1.942 . S
O274 C250 1.273 . S
O274 Mg257 1.955 . S
O275 C248 1.312 . S
O275 Mg251 2.291 . S
O275 Mg254 2.114 . S
O276 C248 1.208 . S
O276 Mg256 2.031 . S
C277 O262 1.264 . S
C277 O264 1.273 . S
C278 O259 1.191 . S
C278 O261 1.307 . S
H279 C287 0.950 . S
H280 C292 0.950 . S
H281 C289 0.950 . S
H282 C291 0.950 . S
H283 C293 0.950 . S
H284 C295 0.950 . S
H285 C297 0.950 . S
H286 C298 0.950 . S
C287 H279 0.950 . S
C287 C288 1.386 . S
C287 C289 1.391 . S
C288 C287 1.386 . S
C288 C292 1.393 . S
C289 H281 0.950 . S
C289 C287 1.391 . S
C289 C290 1.400 . S
C290 C289 1.400 . S
C290 C291 1.398 . S
C290 C296 1.491 . S
C291 H282 0.950 . S
C291 C290 1.398 . S
C291 C292 1.391 . S
C292 H280 0.950 . S
C292 C288 1.393 . S
C292 C291 1.391 . S
C293 H283 0.950 . S
C293 C294 1.386 . S
C293 C295 1.391 . S
C294 C293 1.386 . S
C294 C298 1.393 . S
C295 H284 0.950 . S
C295 C293 1.391 . S
C295 C296 1.400 . S
C296 C290 1.491 . S
C296 C295 1.400 . S
C296 C297 1.398 . S
C297 H285 0.950 . S
C297 C296 1.398 . S
C297 C298 1.391 . S
C298 H286 0.950 . S
C298 C294 1.393 . S
C298 C297 1.391 . S
H299 C307 0.950 . S
H300 C312 0.950 . S
H301 C309 0.950 . S
H302 C311 0.950 . S
H303 C313 0.950 1_565 S
H304 C315 0.950 . S
H305 C317 0.950 . S
H306 C318 0.950 . S
C307 H299 0.950 . S
C307 C308 1.386 . S
C307 C309 1.391 . S
C308 C307 1.386 . S
C308 C312 1.393 . S
C309 H301 0.950 . S
C309 C307 1.391 . S
C309 C310 1.400 . S
C310 C309 1.400 . S
C310 C311 1.398 . S
C310 C316 1.491 . S
C311 H302 0.950 . S
C311 C310 1.398 . S
C311 C312 1.391 . S
C312 H300 0.950 . S
C312 C308 1.393 . S
C312 C311 1.391 . S
C313 H303 0.950 1_545 S
C313 C314 1.386 1_545 S
C313 C315 1.391 . S
C314 C313 1.386 1_565 S
C314 C318 1.393 . S
C315 H304 0.950 . S
C315 C313 1.391 . S
C315 C316 1.400 . S
C316 C310 1.491 . S
C316 C315 1.400 . S
C316 C317 1.398 . S
C317 H305 0.950 . S
C317 C316 1.398 . S
C317 C318 1.391 1_545 S
C318 H306 0.950 . S
C318 C314 1.393 . S
C318 C317 1.391 1_565 S
H319 C327 0.950 . S
H320 C332 0.953 . S
H321 C329 0.950 . S
H322 C331 0.950 . S
H323 C333 0.950 . S
H324 C335 0.950 . S
H325 C337 0.950 . S
H326 C338 0.950 . S
C327 H319 0.950 . S
C327 C328 1.386 . S
C327 C329 1.391 1_455 S
C328 C327 1.386 . S
C328 C332 1.393 1_455 S
C329 H321 0.950 . S
C329 C327 1.391 1_655 S
C329 C330 1.400 . S
C330 C329 1.400 . S
C330 C331 1.398 . S
C330 C336 1.491 . S
C331 H322 0.950 . S
C331 C330 1.398 . S
C331 C332 1.391 . S
C332 H320 0.953 . S
C332 C328 1.393 1_655 S
C332 C331 1.391 . S
C333 H323 0.950 . S
C333 C334 1.386 . S
C333 C335 1.391 . S
C334 C333 1.386 . S
C334 C338 1.393 . S
C335 H324 0.950 . S
C335 C333 1.391 . S
C335 C336 1.400 . S
C336 C330 1.491 . S
C336 C335 1.400 . S
C336 C337 1.398 . S
C337 H325 0.950 . S
C337 C336 1.398 . S
C337 C338 1.391 . S
C338 H326 0.950 . S
C338 C334 1.393 . S
C338 C337 1.391 . S
H339 C347 0.954 . S
H340 C352 0.950 . S
H341 C349 0.950 . S
H342 C351 0.950 . S
H343 C353 0.950 . S
H344 C355 0.950 . S
H345 C357 0.950 . S
H346 C358 0.950 . S
C347 H339 0.954 . S
C347 C348 1.387 . S
C347 C349 1.385 1_556 S
C348 C347 1.387 . S
C348 C352 1.393 1_556 S
C349 H341 0.950 . S
C349 C347 1.385 1_554 S
C349 C350 1.400 . S
C350 C349 1.400 . S
C350 C351 1.398 . S
C350 C356 1.491 . S
C351 H342 0.950 . S
C351 C350 1.398 . S
C351 C352 1.391 . S
C352 H340 0.950 . S
C352 C348 1.393 1_554 S
C352 C351 1.391 . S
C353 H343 0.950 . S
C353 C354 1.386 . S
C353 C355 1.391 . S
C354 C353 1.386 . S
C354 C358 1.393 . S
C355 H344 0.950 . S
C355 C353 1.391 . S
C355 C356 1.400 . S
C356 C350 1.491 . S
C356 C355 1.400 . S
C356 C357 1.398 . S
C357 H345 0.950 . S
C357 C356 1.398 . S
C357 C358 1.391 . S
C358 H346 0.950 . S
C358 C354 1.393 . S
C358 C357 1.391 . S
H359 C367 0.950 1_556 S
H360 C372 0.950 . S
H361 C369 0.950 . S
H362 C371 0.950 . S
H363 C373 0.950 . S
H364 C375 0.950 . S
H365 C377 0.950 . S
H366 C378 0.950 . S
C367 H359 0.950 1_554 S
C367 C368 1.386 1_554 S
C367 C369 1.391 . S
C368 C367 1.386 1_556 S
C368 C372 1.393 1_556 S
C369 H361 0.950 . S
C369 C367 1.391 . S
C369 C370 1.400 . S
C370 C369 1.400 . S
C370 C371 1.398 . S
C370 C376 1.491 . S
C371 H362 0.950 . S
C371 C370 1.398 . S
C371 C372 1.391 . S
C372 H360 0.950 . S
C372 C368 1.393 1_554 S
C372 C371 1.391 . S
C373 H363 0.950 . S
C373 C374 1.386 . S
C373 C375 1.391 . S
C374 C373 1.386 . S
C374 C378 1.393 . S
C375 H364 0.950 . S
C375 C373 1.391 . S
C375 C376 1.400 . S
C376 C370 1.491 . S
C376 C375 1.400 . S
C376 C377 1.398 . S
C377 H365 0.950 . S
C377 C376 1.398 . S
C377 C378 1.391 . S
C378 H366 0.950 . S
C378 C374 1.393 . S
C378 C377 1.391 . S
H379 C387 0.950 . S
H380 C392 0.950 1_455 S
H381 C389 0.950 . S
H382 C391 0.950 . S
H383 C393 0.950 . S
H384 C395 0.950 . S
H385 C397 0.950 . S
H386 C398 0.950 . S
C387 H379 0.950 . S
C387 C388 1.386 . S
C387 C389 1.391 1_556 S
C388 C387 1.386 . S
C388 C392 1.393 1_556 S
C389 H381 0.950 . S
C389 C387 1.391 1_554 S
C389 C390 1.400 . S
C390 C389 1.400 . S
C390 C391 1.398 . S
C390 C396 1.491 . S
C391 H382 0.950 . S
C391 C390 1.398 . S
C391 C392 1.391 . S
C392 H380 0.950 1_655 S
C392 C388 1.393 1_554 S
C392 C391 1.391 . S
C393 H383 0.950 . S
C393 C394 1.386 . S
C393 C395 1.391 . S
C394 C393 1.386 . S
C394 C398 1.393 . S
C395 H384 0.950 . S
C395 C393 1.391 . S
C395 C396 1.400 . S
C396 C390 1.491 . S
C396 C395 1.400 . S
C396 C397 1.398 . S
C397 H385 0.950 . S
C397 C396 1.398 . S
C397 C398 1.391 . S
C398 H386 0.950 . S
C398 C394 1.393 . S
C398 C397 1.391 . S
H399 C407 0.950 . S
H400 C412 0.950 . S
H401 C409 0.950 . S
H402 C411 0.950 . S
H403 C413 0.938 1_455 S
H404 C415 0.950 . S
H405 C417 0.950 . S
H406 C418 0.950 . S
C407 H399 0.950 . S
C407 C408 1.386 . S
C407 C409 1.391 . S
C408 C407 1.386 . S
C408 C412 1.393 . S
C409 H401 0.950 . S
C409 C407 1.391 . S
C409 C410 1.400 . S
C410 C409 1.400 . S
C410 C411 1.398 . S
C410 C416 1.491 . S
C411 H402 0.950 . S
C411 C410 1.398 . S
C411 C412 1.391 . S
C412 H400 0.950 . S
C412 C408 1.393 . S
C412 C411 1.391 . S
C413 H403 0.938 1_655 S
C413 C414 1.378 1_655 S
C413 C415 1.405 . S
C414 C413 1.378 1_455 S
C414 C418 1.393 . S
C415 H404 0.950 . S
C415 C413 1.405 . S
C415 C416 1.400 . S
C416 C410 1.491 . S
C416 C415 1.400 . S
C416 C417 1.398 . S
C417 H405 0.950 . S
C417 C416 1.398 . S
C417 C418 1.391 1_655 S
C418 H406 0.950 . S
C418 C414 1.393 . S
C418 C417 1.391 1_455 S
H419 C427 0.950 . S
H420 C432 0.950 . S
H421 C429 0.950 . S
H422 C431 0.950 . S
H423 C433 0.950 . S
H424 C435 0.950 . S
H425 C437 0.950 . S
H426 C438 0.950 . S
C427 H419 0.950 . S
C427 C428 1.386 . S
C427 C429 1.391 . S
C428 C427 1.386 . S
C428 C432 1.393 . S
C429 H421 0.950 . S
C429 C427 1.391 . S
C429 C430 1.400 . S
C430 C429 1.400 . S
C430 C431 1.398 . S
C430 C436 1.491 . S
C431 H422 0.950 . S
C431 C430 1.398 . S
C431 C432 1.391 . S
C432 H420 0.950 . S
C432 C428 1.393 . S
C432 C431 1.391 . S
C433 H423 0.950 . S
C433 C434 1.386 . S
C433 C435 1.391 . S
C434 C433 1.386 . S
C434 C438 1.393 . S
C435 H424 0.950 . S
C435 C433 1.391 . S
C435 C436 1.400 . S
C436 C430 1.491 . S
C436 C435 1.400 . S
C436 C437 1.398 . S
C437 H425 0.950 . S
C437 C436 1.398 . S
C437 C438 1.391 . S
C438 H426 0.950 . S
C438 C434 1.393 . S
C438 C437 1.391 . S
H439 C447 0.950 . S
H440 C452 0.950 . S
H441 C449 0.950 . S
H442 C451 0.950 . S
H443 C453 0.950 . S
H444 C455 0.950 . S
H445 C457 0.950 . S
H446 C458 0.950 . S
C447 H439 0.950 . S
C447 C448 1.386 . S
C447 C449 1.391 1_565 S
C448 C447 1.386 . S
C448 C452 1.393 . S
C449 H441 0.950 . S
C449 C447 1.391 1_545 S
C449 C450 1.400 . S
C450 C449 1.400 . S
C450 C451 1.398 . S
C450 C456 1.491 . S
C451 H442 0.950 . S
C451 C450 1.398 . S
C451 C452 1.391 1_545 S
C452 H440 0.950 . S
C452 C448 1.393 . S
C452 C451 1.391 1_565 S
C453 H443 0.950 . S
C453 C454 1.386 . S
C453 C455 1.391 . S
C454 C453 1.386 . S
C454 C458 1.393 . S
C455 H444 0.950 . S
C455 C453 1.391 . S
C455 C456 1.400 . S
C456 C450 1.491 . S
C456 C455 1.400 . S
C456 C457 1.398 . S
C457 H445 0.950 . S
C457 C456 1.398 . S
C457 C458 1.391 . S
C458 H446 0.950 . S
C458 C454 1.393 . S
C458 C457 1.391 . S
H459 C467 0.950 . S
H460 C472 0.950 . S
H461 C469 0.950 . S
H462 C471 0.950 . S
H463 C473 0.950 . S
H464 C475 0.950 . S
H465 C477 0.950 . S
H466 C478 0.950 . S
C467 H459 0.950 . S
C467 C468 1.386 . S
C467 C469 1.391 . S
C468 C467 1.386 . S
C468 C472 1.393 . S
C469 H461 0.950 . S
C469 C467 1.391 . S
C469 C470 1.400 . S
C470 C469 1.400 . S
C470 C471 1.398 . S
C470 C476 1.491 . S
C471 H462 0.950 . S
C471 C470 1.398 . S
C471 C472 1.391 . S
C472 H460 0.950 . S
C472 C468 1.393 . S
C472 C471 1.391 . S
C473 H463 0.950 . S
C473 C474 1.386 . S
C473 C475 1.391 1_565 S
C474 C473 1.386 . S
C474 C478 1.393 . S
C475 H464 0.950 . S
C475 C473 1.391 1_545 S
C475 C476 1.400 . S
C476 C470 1.491 . S
C476 C475 1.400 . S
C476 C477 1.398 . S
C477 H465 0.950 . S
C477 C476 1.398 . S
C477 C478 1.391 1_545 S
C478 H466 0.950 . S
C478 C474 1.393 . S
C478 C477 1.391 1_565 S
H479 C487 0.950 . S
H480 C492 0.950 . S
H481 C489 0.950 . S
H482 C491 0.950 . S
H483 C493 0.950 . S
H484 C495 0.950 . S
H485 C497 0.950 . S
H486 C498 0.950 . S
C487 H479 0.950 . S
C487 C488 1.386 . S
C487 C489 1.391 1_455 S
C488 C487 1.386 . S
C488 C492 1.393 . S
C489 H481 0.950 . S
C489 C487 1.391 1_655 S
C489 C490 1.400 . S
C490 C489 1.400 . S
C490 C491 1.398 . S
C490 C496 1.491 . S
C491 H482 0.950 . S
C491 C490 1.398 . S
C491 C492 1.391 1_655 S
C492 H480 0.950 . S
C492 C488 1.393 . S
C492 C491 1.391 1_455 S
C493 H483 0.950 . S
C493 C494 1.386 . S
C493 C495 1.391 . S
C494 C493 1.386 . S
C494 C498 1.393 . S
C495 H484 0.950 . S
C495 C493 1.391 . S
C495 C496 1.400 . S
C496 C490 1.491 . S
C496 C495 1.400 . S
C496 C497 1.398 . S
C497 H485 0.950 . S
C497 C496 1.398 . S
C497 C498 1.391 . S
C498 H486 0.950 . S
C498 C494 1.393 . S
C498 C497 1.391 . S
H499 C507 0.950 . S
H500 C512 0.950 . S
H501 C509 0.950 . S
H502 C511 0.950 . S
H503 C513 0.950 . S
H504 C515 0.950 . S
H505 C517 0.950 . S
H506 C518 0.950 . S
C507 H499 0.950 . S
C507 C508 1.386 . S
C507 C509 1.391 . S
C508 C507 1.386 . S
C508 C512 1.393 . S
C509 H501 0.950 . S
C509 C507 1.391 . S
C509 C510 1.400 . S
C510 C509 1.400 . S
C510 C511 1.398 . S
C510 C516 1.491 . S
C511 H502 0.950 . S
C511 C510 1.398 . S
C511 C512 1.391 . S
C512 H500 0.950 . S
C512 C508 1.393 . S
C512 C511 1.391 . S
C513 H503 0.950 . S
C513 C514 1.386 . S
C513 C515 1.391 . S
C514 C513 1.386 . S
C514 C518 1.393 . S
C515 H504 0.950 . S
C515 C513 1.391 . S
C515 C516 1.400 . S
C516 C510 1.491 . S
C516 C515 1.400 . S
C516 C517 1.398 . S
C517 H505 0.950 . S
C517 C516 1.398 . S
C517 C518 1.391 . S
C518 H506 0.950 . S
C518 C514 1.393 . S
C518 C517 1.391 . S
H519 C527 0.950 . S
H520 C532 0.950 . S
H521 C529 0.950 . S
H522 C531 0.950 . S
H523 C533 0.950 . S
H524 C535 0.950 . S
H525 C537 0.950 . S
H526 C538 0.950 . S
C527 H519 0.950 . S
C527 C528 1.386 . S
C527 C529 1.391 . S
C528 C527 1.386 . S
C528 C532 1.393 . S
C529 H521 0.950 . S
C529 C527 1.391 . S
C529 C530 1.400 . S
C530 C529 1.400 . S
C530 C531 1.398 . S
C530 C536 1.491 . S
C531 H522 0.950 . S
C531 C530 1.398 . S
C531 C532 1.391 . S
C532 H520 0.950 . S
C532 C528 1.393 . S
C532 C531 1.391 . S
C533 H523 0.950 . S
C533 C534 1.386 . S
C533 C535 1.391 . S
C534 C533 1.386 . S
C534 C538 1.393 . S
C535 H524 0.950 . S
C535 C533 1.391 . S
C535 C536 1.400 . S
C536 C530 1.491 . S
C536 C535 1.400 . S
C536 C537 1.398 . S
C537 H525 0.950 . S
C537 C536 1.398 . S
C537 C538 1.391 . S
C538 H526 0.950 . S
C538 C534 1.393 . S
C538 C537 1.391 . S
H539 C547 0.950 . S
H540 C552 0.950 . S
H541 C549 0.950 . S
H542 C551 0.950 . S
H543 C553 0.950 . S
H544 C555 0.950 . S
H545 C557 0.950 . S
H546 C558 0.950 . S
C547 H539 0.950 . S
C547 C548 1.386 . S
C547 C549 1.391 . S
C548 C547 1.386 . S
C548 C552 1.393 . S
C549 H541 0.950 . S
C549 C547 1.391 . S
C549 C550 1.400 . S
C550 C549 1.400 . S
C550 C551 1.398 . S
C550 C556 1.491 . S
C551 H542 0.950 . S
C551 C550 1.398 . S
C551 C552 1.391 . S
C552 H540 0.950 . S
C552 C548 1.393 . S
C552 C551 1.391 . S
C553 H543 0.950 . S
C553 C554 1.386 . S
C553 C555 1.391 . S
C554 C553 1.386 . S
C554 C558 1.393 . S
C555 H544 0.950 . S
C555 C553 1.391 . S
C555 C556 1.400 . S
C556 C550 1.491 . S
C556 C555 1.400 . S
C556 C557 1.398 . S
C557 H545 0.950 . S
C557 C556 1.398 . S
C557 C558 1.391 . S
C558 H546 0.950 . S
C558 C554 1.393 . S
C558 C557 1.391 . S
H559 C567 0.950 . S
H560 C572 0.950 . S
H561 C569 0.950 . S
H562 C571 0.950 . S
H563 C573 0.950 . S
H564 C575 0.950 . S
H565 C577 0.950 . S
H566 C578 0.950 . S
C567 H559 0.950 . S
C567 C568 1.386 . S
C567 C569 1.391 . S
C568 C567 1.386 . S
C568 C572 1.393 . S
C569 H561 0.950 . S
C569 C567 1.391 . S
C569 C570 1.400 . S
C570 C569 1.400 . S
C570 C571 1.398 . S
C570 C576 1.491 . S
C571 H562 0.950 . S
C571 C570 1.398 . S
C571 C572 1.391 . S
C572 H560 0.950 . S
C572 C568 1.393 . S
C572 C571 1.391 . S
C573 H563 0.950 . S
C573 C574 1.386 . S
C573 C575 1.391 . S
C574 C573 1.386 . S
C574 C578 1.393 . S
C575 H564 0.950 . S
C575 C573 1.391 . S
C575 C576 1.400 . S
C576 C570 1.491 . S
C576 C575 1.400 . S
C576 C577 1.398 . S
C577 H565 0.950 . S
C577 C576 1.398 . S
C577 C578 1.391 . S
C578 H566 0.950 . S
C578 C574 1.393 . S
C578 C577 1.391 . S
H579 C587 0.950 1_554 S
H580 C592 0.950 . S
H581 C589 0.950 . S
H582 C591 0.950 . S
H583 C593 0.950 . S
H584 C595 0.950 . S
H585 C597 0.950 . S
H586 C598 0.950 . S
C587 H579 0.950 1_556 S
C587 C588 1.386 . S
C587 C589 1.391 . S
C588 C587 1.386 . S
C588 C592 1.393 . S
C589 H581 0.950 . S
C589 C587 1.391 . S
C589 C590 1.400 . S
C590 C589 1.400 . S
C590 C591 1.398 . S
C590 C596 1.491 . S
C591 H582 0.950 . S
C591 C590 1.398 . S
C591 C592 1.391 . S
C592 H580 0.950 . S
C592 C588 1.393 . S
C592 C591 1.391 . S
C593 H583 0.950 . S
C593 C594 1.386 . S
C593 C595 1.391 . S
C594 C593 1.386 . S
C594 C598 1.393 . S
C595 H584 0.950 . S
C595 C593 1.391 . S
C595 C596 1.400 . S
C596 C590 1.491 . S
C596 C595 1.400 . S
C596 C597 1.398 . S
C597 H585 0.950 . S
C597 C596 1.398 . S
C597 C598 1.391 . S
C598 H586 0.950 . S
C598 C594 1.393 . S
C598 C597 1.391 . S
H599 C607 0.950 . S
H600 C612 0.950 1_554 S
H601 C609 0.950 . S
H602 C611 0.950 . S
H603 C613 0.950 . S
H604 C615 0.950 . S
H605 C617 0.950 . S
H606 C618 0.950 . S
C607 H599 0.950 . S
C607 C608 1.386 . S
C607 C609 1.391 . S
C608 C607 1.386 . S
C608 C612 1.393 . S
C609 H601 0.950 . S
C609 C607 1.391 . S
C609 C610 1.400 . S
C610 C609 1.400 . S
C610 C611 1.398 . S
C610 C616 1.491 . S
C611 H602 0.950 . S
C611 C610 1.398 . S
C611 C612 1.391 . S
C612 H600 0.950 1_556 S
C612 C608 1.393 . S
C612 C611 1.391 . S
C613 H603 0.950 . S
C613 C614 1.386 . S
C613 C615 1.391 . S
C614 C613 1.386 . S
C614 C618 1.393 . S
C615 H604 0.950 . S
C615 C613 1.391 . S
C615 C616 1.400 . S
C616 C610 1.491 . S
C616 C615 1.400 . S
C616 C617 1.398 . S
C617 H605 0.950 . S
C617 C616 1.398 . S
C617 C618 1.391 . S
C618 H606 0.950 . S
C618 C614 1.393 . S
C618 C617 1.391 . S
H619 C627 0.950 . S
H620 C632 0.950 . S
H621 C629 0.950 . S
H622 C631 0.950 . S
H623 C633 0.950 . S
H624 C635 0.950 . S
H625 C637 0.950 . S
H626 C638 0.950 1_554 S
C627 H619 0.950 . S
C627 C628 1.386 . S
C627 C629 1.391 . S
C628 C627 1.386 . S
C628 C632 1.393 . S
C629 H621 0.950 . S
C629 C627 1.391 . S
C629 C630 1.400 . S
C630 C629 1.400 . S
C630 C631 1.398 . S
C630 C636 1.491 . S
C631 H622 0.950 . S
C631 C630 1.398 . S
C631 C632 1.391 . S
C632 H620 0.950 . S
C632 C628 1.393 . S
C632 C631 1.391 . S
C633 H623 0.950 . S
C633 C634 1.386 . S
C633 C635 1.391 . S
C634 C633 1.386 . S
C634 C638 1.393 . S
C635 H624 0.950 . S
C635 C633 1.391 . S
C635 C636 1.400 . S
C636 C630 1.491 . S
C636 C635 1.400 . S
C636 C637 1.398 . S
C637 H625 0.950 . S
C637 C636 1.398 . S
C637 C638 1.391 . S
C638 H626 0.950 1_556 S
C638 C634 1.393 . S
C638 C637 1.391 . S
H639 C647 0.950 1_565 S
H640 C652 0.950 . S
H641 C649 0.950 . S
H642 C651 0.950 1_556 S
H643 C653 0.950 . S
H644 C655 0.950 . S
H645 C657 0.950 . S
H646 C658 0.950 . S
C647 H639 0.950 1_545 S
C647 C648 1.386 . S
C647 C649 1.391 . S
C648 C647 1.386 . S
C648 C652 1.393 . S
C649 H641 0.950 . S
C649 C647 1.391 . S
C649 C650 1.400 . S
C650 C649 1.400 . S
C650 C651 1.398 . S
C650 C656 1.491 . S
C651 H642 0.950 1_554 S
C651 C650 1.398 . S
C651 C652 1.391 . S
C652 H640 0.950 . S
C652 C648 1.393 . S
C652 C651 1.391 . S
C653 H643 0.950 . S
C653 C654 1.386 . S
C653 C655 1.391 . S
C654 C653 1.386 . S
C654 C658 1.393 1_556 S
C655 H644 0.950 . S
C655 C653 1.391 . S
C655 C656 1.400 1_556 S
C656 C650 1.491 . S
C656 C655 1.400 1_554 S
C656 C657 1.398 . S
C657 H645 0.950 . S
C657 C656 1.398 . S
C657 C658 1.391 . S
C658 H646 0.950 . S
C658 C654 1.393 1_554 S
C658 C657 1.391 . S
H659 C667 0.950 1_455 S
H660 C672 0.950 . S
H661 C669 0.950 . S
H662 C671 0.950 . S
H663 C673 0.964 1_565 S
H664 C675 0.950 1_556 S
H665 C677 0.950 . S
H666 C678 0.950 . S
C667 H659 0.950 1_655 S
C667 C668 1.386 . S
C667 C669 1.391 . S
C668 C667 1.386 . S
C668 C672 1.393 . S
C669 H661 0.950 . S
C669 C667 1.391 . S
C669 C670 1.400 . S
C670 C669 1.400 . S
C670 C671 1.398 . S
C670 C676 1.491 . S
C671 H662 0.950 . S
C671 C670 1.398 . S
C671 C672 1.391 . S
C672 H660 0.950 . S
C672 C668 1.393 . S
C672 C671 1.391 . S
C673 H663 0.964 1_545 S
C673 C674 1.356 1_545 S
C673 C675 1.408 1_556 S
C674 C673 1.356 1_565 S
C674 C678 1.393 1_556 S
C675 H664 0.950 1_554 S
C675 C673 1.408 1_554 S
C675 C676 1.400 . S
C676 C670 1.491 . S
C676 C675 1.400 . S
C676 C677 1.398 . S
C677 H665 0.950 . S
C677 C676 1.398 . S
C677 C678 1.391 1_545 S
C678 H666 0.950 . S
C678 C674 1.393 1_554 S
C678 C677 1.391 1_565 S
H679 C687 0.950 . S
H680 C692 0.950 . S
H681 C689 0.950 . S
H682 C691 0.950 . S
H683 C693 0.950 . S
H684 C695 0.950 . S
H685 C697 0.950 . S
H686 C698 0.957 . S
C687 H679 0.950 . S
C687 C688 1.386 . S
C687 C689 1.391 . S
C688 C687 1.386 . S
C688 C692 1.393 . S
C689 H681 0.950 . S
C689 C687 1.391 . S
C689 C690 1.400 . S
C690 C689 1.400 . S
C690 C691 1.398 . S
C690 C696 1.491 . S
C691 H682 0.950 . S
C691 C690 1.398 . S
C691 C692 1.391 . S
C692 H680 0.950 . S
C692 C688 1.393 . S
C692 C691 1.391 . S
C693 H683 0.950 . S
C693 C694 1.386 . S
C693 C695 1.391 1_455 S
C694 C693 1.386 . S
C694 C698 1.398 . S
C695 H684 0.950 . S
C695 C693 1.391 1_655 S
C695 C696 1.400 . S
C696 C690 1.491 . S
C696 C695 1.400 . S
C696 C697 1.398 . S
C697 H685 0.950 . S
C697 C696 1.398 . S
C697 C698 1.379 1_655 S
C698 H686 0.957 . S
C698 C694 1.398 . S
C698 C697 1.379 1_455 S
H699 C707 0.950 . S
H700 C712 0.950 . S
H701 C709 0.950 . S
H702 C711 0.950 . S
H703 C713 0.950 . S
H704 C715 0.950 . S
H705 C717 0.950 . S
H706 C718 0.950 . S
C707 H699 0.950 . S
C707 C708 1.386 . S
C707 C709 1.391 . S
C708 C707 1.386 . S
C708 C712 1.393 . S
C709 H701 0.950 . S
C709 C707 1.391 . S
C709 C710 1.400 . S
C710 C709 1.400 . S
C710 C711 1.398 . S
C710 C716 1.491 . S
C711 H702 0.950 . S
C711 C710 1.398 . S
C711 C712 1.391 . S
C712 H700 0.950 . S
C712 C708 1.393 . S
C712 C711 1.391 . S
C713 H703 0.950 . S
C713 C714 1.386 . S
C713 C715 1.391 . S
C714 C713 1.386 . S
C714 C718 1.393 . S
C715 H704 0.950 . S
C715 C713 1.391 . S
C715 C716 1.400 . S
C716 C710 1.491 . S
C716 C715 1.400 . S
C716 C717 1.398 . S
C717 H705 0.950 . S
C717 C716 1.398 . S
C717 C718 1.391 . S
C718 H706 0.950 . S
C718 C714 1.393 . S
C718 C717 1.391 . S
H719 C727 0.950 . S
H720 C732 0.950 . S
H721 C729 0.950 . S
H722 C731 0.950 . S
H723 C733 0.950 . S
H724 C735 0.950 . S
H725 C737 0.950 . S
H726 C738 0.950 . S
C727 H719 0.950 . S
C727 C728 1.386 . S
C727 C729 1.391 . S
C728 C727 1.386 . S
C728 C732 1.393 . S
C729 H721 0.950 . S
C729 C727 1.391 . S
C729 C730 1.400 . S
C730 C729 1.400 . S
C730 C731 1.398 . S
C730 C736 1.491 . S
C731 H722 0.950 . S
C731 C730 1.398 . S
C731 C732 1.391 . S
C732 H720 0.950 . S
C732 C728 1.393 . S
C732 C731 1.391 . S
C733 H723 0.950 . S
C733 C734 1.386 . S
C733 C735 1.391 . S
C734 C733 1.386 . S
C734 C738 1.393 . S
C735 H724 0.950 . S
C735 C733 1.391 . S
C735 C736 1.400 . S
C736 C730 1.491 . S
C736 C735 1.400 . S
C736 C737 1.398 . S
C737 H725 0.950 . S
C737 C736 1.398 . S
C737 C738 1.391 . S
C738 H726 0.950 . S
C738 C734 1.393 . S
C738 C737 1.391 . S
H739 C747 0.950 . S
H740 C752 0.950 . S
H741 C749 0.950 . S
H742 C751 0.950 . S
H743 C753 0.950 . S
H744 C755 0.950 . S
H745 C757 0.950 . S
H746 C758 0.950 . S
C747 H739 0.950 . S
C747 C748 1.386 . S
C747 C749 1.391 . S
C748 C747 1.386 . S
C748 C752 1.393 . S
C749 H741 0.950 . S
C749 C747 1.391 . S
C749 C750 1.400 . S
C750 C749 1.400 . S
C750 C751 1.398 . S
C750 C756 1.491 . S
C751 H742 0.950 . S
C751 C750 1.398 . S
C751 C752 1.391 . S
C752 H740 0.950 . S
C752 C748 1.393 . S
C752 C751 1.391 . S
C753 H743 0.950 . S
C753 C754 1.386 . S
C753 C755 1.391 . S
C754 C753 1.386 . S
C754 C758 1.393 . S
C755 H744 0.950 . S
C755 C753 1.391 . S
C755 C756 1.400 . S
C756 C750 1.491 . S
C756 C755 1.400 . S
C756 C757 1.398 . S
C757 H745 0.950 . S
C757 C756 1.398 . S
C757 C758 1.391 . S
C758 H746 0.950 . S
C758 C754 1.393 . S
C758 C757 1.391 . S
H759 C767 0.950 . S
H760 C772 0.950 . S
H761 C769 0.950 . S
H762 C771 0.950 . S
H763 C773 0.950 . S
H764 C775 0.950 . S
H765 C777 0.950 . S
H766 C778 0.950 . S
C767 H759 0.950 . S
C767 C768 1.386 . S
C767 C769 1.391 . S
C768 C767 1.386 . S
C768 C772 1.393 . S
C769 H761 0.950 . S
C769 C767 1.391 . S
C769 C770 1.400 . S
C770 C769 1.400 . S
C770 C771 1.398 . S
C770 C776 1.491 . S
C771 H762 0.950 . S
C771 C770 1.398 . S
C771 C772 1.391 . S
C772 H760 0.950 . S
C772 C768 1.393 . S
C772 C771 1.391 . S
C773 H763 0.950 . S
C773 C774 1.386 . S
C773 C775 1.391 . S
C774 C773 1.386 . S
C774 C778 1.393 . S
C775 H764 0.950 . S
C775 C773 1.391 . S
C775 C776 1.400 . S
C776 C770 1.491 . S
C776 C775 1.400 . S
C776 C777 1.398 . S
C777 H765 0.950 . S
C777 C776 1.398 . S
C777 C778 1.391 . S
C778 H766 0.950 . S
C778 C774 1.393 . S
C778 C777 1.391 . S
H779 C787 0.950 . S
H780 C792 0.950 . S
H781 C789 0.950 . S
H782 C791 0.950 . S
H783 C793 0.950 . S
H784 C795 0.950 . S
H785 C797 0.950 . S
H786 C798 0.950 . S
C787 H779 0.950 . S
C787 C788 1.386 . S
C787 C789 1.391 . S
C788 C787 1.386 . S
C788 C792 1.393 . S
C789 H781 0.950 . S
C789 C787 1.391 . S
C789 C790 1.400 . S
C790 C789 1.400 . S
C790 C791 1.398 . S
C790 C796 1.491 . S
C791 H782 0.950 . S
C791 C790 1.398 . S
C791 C792 1.391 . S
C792 H780 0.950 . S
C792 C788 1.393 . S
C792 C791 1.391 . S
C793 H783 0.950 . S
C793 C794 1.386 . S
C793 C795 1.391 . S
C794 C793 1.386 . S
C794 C798 1.393 . S
C795 H784 0.950 . S
C795 C793 1.391 . S
C795 C796 1.400 . S
C796 C790 1.491 . S
C796 C795 1.400 . S
C796 C797 1.398 . S
C797 H785 0.950 . S
C797 C796 1.398 . S
C797 C798 1.391 . S
C798 H786 0.950 . S
C798 C794 1.393 . S
C798 C797 1.391 . S
H799 C807 0.950 . S
H800 C812 0.950 . S
H801 C809 0.950 . S
H802 C811 0.950 . S
H803 C813 0.950 . S
H804 C815 0.950 . S
H805 C817 0.950 . S
H806 C818 0.950 . S
C807 H799 0.950 . S
C807 C808 1.386 . S
C807 C809 1.391 . S
C808 C807 1.386 . S
C808 C812 1.393 . S
C809 H801 0.950 . S
C809 C807 1.391 . S
C809 C810 1.400 . S
C810 C809 1.400 . S
C810 C811 1.398 . S
C810 C816 1.491 . S
C811 H802 0.950 . S
C811 C810 1.398 . S
C811 C812 1.391 . S
C812 H800 0.950 . S
C812 C808 1.393 . S
C812 C811 1.391 . S
C813 H803 0.950 . S
C813 C814 1.386 . S
C813 C815 1.391 . S
C814 C813 1.386 . S
C814 C818 1.393 . S
C815 H804 0.950 . S
C815 C813 1.391 . S
C815 C816 1.400 . S
C816 C810 1.491 . S
C816 C815 1.400 . S
C816 C817 1.398 . S
C817 H805 0.950 . S
C817 C816 1.398 . S
C817 C818 1.391 . S
C818 H806 0.950 . S
C818 C814 1.393 . S
C818 C817 1.391 . S
H819 C827 0.950 . S
H820 C832 0.950 . S
H821 C829 0.950 . S
H822 C831 0.950 . S
H823 C833 0.950 . S
H824 C835 0.950 . S
H825 C837 0.950 . S
H826 C838 0.950 . S
C827 H819 0.950 . S
C827 C828 1.386 . S
C827 C829 1.391 . S
C828 C827 1.386 . S
C828 C832 1.393 . S
C829 H821 0.950 . S
C829 C827 1.391 . S
C829 C830 1.400 . S
C830 C829 1.400 . S
C830 C831 1.398 . S
C830 C836 1.491 . S
C831 H822 0.950 . S
C831 C830 1.398 . S
C831 C832 1.391 . S
C832 H820 0.950 . S
C832 C828 1.393 . S
C832 C831 1.391 . S
C833 H823 0.950 . S
C833 C834 1.386 . S
C833 C835 1.391 . S
C834 C833 1.386 . S
C834 C838 1.393 . S
C835 H824 0.950 . S
C835 C833 1.391 . S
C835 C836 1.400 . S
C836 C830 1.491 . S
C836 C835 1.400 . S
C836 C837 1.398 . S
C837 H825 0.950 . S
C837 C836 1.398 . S
C837 C838 1.391 . S
C838 H826 0.950 . S
C838 C834 1.393 . S
C838 C837 1.391 . S
H839 C847 0.950 . S
H840 C852 0.950 . S
H841 C849 0.950 . S
H842 C851 0.950 . S
H843 C853 0.950 . S
H844 C855 0.950 . S
H845 C857 0.950 . S
H846 C858 0.950 . S
C847 H839 0.950 . S
C847 C848 1.386 . S
C847 C849 1.391 . S
C848 C847 1.386 . S
C848 C852 1.393 . S
C849 H841 0.950 . S
C849 C847 1.391 . S
C849 C850 1.400 . S
C850 C849 1.400 . S
C850 C851 1.398 . S
C850 C856 1.491 . S
C851 H842 0.950 . S
C851 C850 1.398 . S
C851 C852 1.391 . S
C852 H840 0.950 . S
C852 C848 1.393 . S
C852 C851 1.391 . S
C853 H843 0.950 . S
C853 C854 1.386 . S
C853 C855 1.391 . S
C854 C853 1.386 . S
C854 C858 1.393 . S
C855 H844 0.950 . S
C855 C853 1.391 . S
C855 C856 1.400 . S
C856 C850 1.491 . S
C856 C855 1.400 . S
C856 C857 1.398 . S
C857 H845 0.950 . S
C857 C856 1.398 . S
C857 C858 1.391 . S
C858 H846 0.950 . S
C858 C854 1.393 . S
C858 C857 1.391 . S
H859 C867 0.950 . S
H860 C872 0.950 . S
H861 C869 0.950 . S
H862 C871 0.950 . S
H863 C873 0.950 . S
H864 C875 0.950 . S
H865 C877 0.950 . S
H866 C878 0.950 . S
C867 H859 0.950 . S
C867 C868 1.386 . S
C867 C869 1.391 . S
C868 C867 1.386 . S
C868 C872 1.393 . S
C869 H861 0.950 . S
C869 C867 1.391 . S
C869 C870 1.400 . S
C870 C869 1.400 . S
C870 C871 1.398 . S
C870 C876 1.491 . S
C871 H862 0.950 . S
C871 C870 1.398 . S
C871 C872 1.391 . S
C872 H860 0.950 . S
C872 C868 1.393 . S
C872 C871 1.391 . S
C873 H863 0.950 . S
C873 C874 1.386 . S
C873 C875 1.391 . S
C874 C873 1.386 . S
C874 C878 1.393 . S
C875 H864 0.950 . S
C875 C873 1.391 . S
C875 C876 1.400 . S
C876 C870 1.491 . S
C876 C875 1.400 . S
C876 C877 1.398 . S
C877 H865 0.950 . S
C877 C876 1.398 . S
C877 C878 1.391 . S
C878 H866 0.950 . S
C878 C874 1.393 . S
C878 C877 1.391 . S
H879 C887 0.950 . S
H880 C892 0.950 . S
H881 C889 0.950 . S
H882 C891 0.950 . S
H883 C893 0.950 . S
H884 C895 0.950 . S
H885 C897 0.950 . S
H886 C898 0.950 . S
C887 H879 0.950 . S
C887 C888 1.386 . S
C887 C889 1.391 . S
C888 C887 1.386 . S
C888 C892 1.393 . S
C889 H881 0.950 . S
C889 C887 1.391 . S
C889 C890 1.400 . S
C890 C889 1.400 . S
C890 C891 1.398 . S
C890 C896 1.491 . S
C891 H882 0.950 . S
C891 C890 1.398 . S
C891 C892 1.391 . S
C892 H880 0.950 . S
C892 C888 1.393 . S
C892 C891 1.391 . S
C893 H883 0.950 . S
C893 C894 1.386 . S
C893 C895 1.391 1_554 S
C894 C893 1.386 . S
C894 C898 1.393 . S
C895 H884 0.950 . S
C895 C893 1.391 1_556 S
C895 C896 1.400 . S
C896 C890 1.491 . S
C896 C895 1.400 . S
C896 C897 1.398 . S
C897 H885 0.950 . S
C897 C896 1.398 . S
C897 C898 1.391 1_556 S
C898 H886 0.950 . S
C898 C894 1.393 . S
C898 C897 1.391 1_554 S
H899 C907 0.950 . S
H900 C912 0.950 . S
H901 C909 0.950 . S
H902 C911 0.950 . S
H903 C913 0.950 . S
H904 C915 0.950 . S
H905 C917 0.950 . S
H906 C918 0.950 . S
C907 H899 0.950 . S
C907 C908 1.386 . S
C907 C909 1.391 1_554 S
C908 C907 1.386 . S
C908 C912 1.393 . S
C909 H901 0.950 . S
C909 C907 1.391 1_556 S
C909 C910 1.400 . S
C910 C909 1.400 . S
C910 C911 1.398 . S
C910 C916 1.491 . S
C911 H902 0.950 . S
C911 C910 1.398 . S
C911 C912 1.391 1_556 S
C912 H900 0.950 . S
C912 C908 1.393 . S
C912 C911 1.391 1_554 S
C913 H903 0.950 . S
C913 C914 1.386 . S
C913 C915 1.391 . S
C914 C913 1.386 . S
C914 C918 1.393 . S
C915 H904 0.950 . S
C915 C913 1.391 . S
C915 C916 1.400 . S
C916 C910 1.491 . S
C916 C915 1.400 . S
C916 C917 1.398 . S
C917 H905 0.950 . S
C917 C916 1.398 . S
C917 C918 1.391 . S
C918 H906 0.950 . S
C918 C914 1.393 . S
C918 C917 1.391 . S
H919 C927 0.950 . S
H920 C932 0.950 . S
H921 C929 0.950 . S
H922 C931 0.950 . S
H923 C933 0.950 . S
H924 C935 0.950 . S
H925 C937 0.950 . S
H926 C938 0.950 . S
C927 H919 0.950 . S
C927 C928 1.386 . S
C927 C929 1.391 . S
C928 C927 1.386 . S
C928 C932 1.393 . S
C929 H921 0.950 . S
C929 C927 1.391 . S
C929 C930 1.400 . S
C930 C929 1.400 . S
C930 C931 1.398 . S
C930 C936 1.491 . S
C931 H922 0.950 . S
C931 C930 1.398 . S
C931 C932 1.391 . S
C932 H920 0.950 . S
C932 C928 1.393 . S
C932 C931 1.391 . S
C933 H923 0.950 . S
C933 C934 1.386 . S
C933 C935 1.391 1_554 S
C934 C933 1.386 . S
C934 C938 1.393 . S
C935 H924 0.950 . S
C935 C933 1.391 1_556 S
C935 C936 1.400 . S
C936 C930 1.491 . S
C936 C935 1.400 . S
C936 C937 1.398 . S
C937 H925 0.950 . S
C937 C936 1.398 . S
C937 C938 1.391 1_556 S
C938 H926 0.950 . S
C938 C934 1.393 . S
C938 C937 1.391 1_554 S
H939 C947 0.950 . S
H940 C952 0.950 . S
H941 C949 0.950 . S
H942 C951 0.950 . S
H943 C953 0.950 . S
H944 C955 0.950 . S
H945 C957 0.950 . S
H946 C958 0.950 . S
C947 H939 0.950 . S
C947 C948 1.386 . S
C947 C949 1.391 . S
C948 C947 1.386 . S
C948 C952 1.393 . S
C949 H941 0.950 . S
C949 C947 1.391 . S
C949 C950 1.400 . S
C950 C949 1.400 . S
C950 C951 1.398 . S
C950 C956 1.491 . S
C951 H942 0.950 . S
C951 C950 1.398 . S
C951 C952 1.391 . S
C952 H940 0.950 . S
C952 C948 1.393 . S
C952 C951 1.391 . S
C953 H943 0.950 . S
C953 C954 1.386 . S
C953 C955 1.391 1_556 S
C954 C953 1.386 . S
C954 C958 1.393 . S
C955 H944 0.950 . S
C955 C953 1.391 1_554 S
C955 C956 1.400 . S
C956 C950 1.491 . S
C956 C955 1.400 . S
C956 C957 1.398 . S
C957 H945 0.950 . S
C957 C956 1.398 . S
C957 C958 1.391 1_554 S
C958 H946 0.950 . S
C958 C954 1.393 . S
C958 C957 1.391 1_556 S
H959 C967 0.950 . S
H960 C972 0.950 . S
H961 C969 0.950 . S
H962 C971 0.950 . S
H963 C973 0.950 . S
H964 C975 0.950 . S
H965 C977 0.950 . S
H966 C978 0.950 . S
C967 H959 0.950 . S
C967 C968 1.386 . S
C967 C969 1.391 . S
C968 C967 1.386 . S
C968 C972 1.393 . S
C969 H961 0.950 . S
C969 C967 1.391 . S
C969 C970 1.400 . S
C970 C969 1.400 . S
C970 C971 1.398 . S
C970 C976 1.491 . S
C971 H962 0.950 . S
C971 C970 1.398 . S
C971 C972 1.391 . S
C972 H960 0.950 . S
C972 C968 1.393 . S
C972 C971 1.391 . S
C973 H963 0.950 . S
C973 C974 1.386 . S
C973 C975 1.391 1_556 S
C974 C973 1.386 . S
C974 C978 1.393 . S
C975 H964 0.950 . S
C975 C973 1.391 1_554 S
C975 C976 1.400 . S
C976 C970 1.491 . S
C976 C975 1.400 . S
C976 C977 1.398 . S
C977 H965 0.950 . S
C977 C976 1.398 . S
C977 C978 1.391 1_554 S
C978 H966 0.950 . S
C978 C974 1.393 . S
C978 C977 1.391 1_556 S
H979 C987 0.950 . S
H980 C992 0.950 . S
H981 C989 0.950 . S
H982 C991 0.950 . S
H983 C993 0.950 . S
H984 C995 0.950 . S
H985 C997 0.950 . S
H986 C998 0.950 . S
C987 H979 0.950 . S
C987 C988 1.386 . S
C987 C989 1.391 . S
C988 C987 1.386 . S
C988 C992 1.393 . S
C989 H981 0.950 . S
C989 C987 1.391 . S
C989 C990 1.400 . S
C990 C989 1.400 . S
C990 C991 1.398 . S
C990 C996 1.491 . S
C991 H982 0.950 . S
C991 C990 1.398 . S
C991 C992 1.391 . S
C992 H980 0.950 . S
C992 C988 1.393 . S
C992 C991 1.391 . S
C993 H983 0.950 . S
C993 C994 1.386 . S
C993 C995 1.391 1_556 S
C994 C993 1.386 . S
C994 C998 1.393 . S
C995 H984 0.950 . S
C995 C993 1.391 1_554 S
C995 C996 1.400 . S
C996 C990 1.491 . S
C996 C995 1.400 . S
C996 C997 1.398 . S
C997 H985 0.950 . S
C997 C996 1.398 . S
C997 C998 1.391 1_554 S
C998 H986 0.950 . S
C998 C994 1.393 . S
C998 C997 1.391 1_556 S
C288 C20 1.291 . S
C294 C153 1.285 . S
C308 C184 1.282 . S
C314 C51 1.280 . S
C328 C82 1.285 . S
C334 C122 1.260 . S
C348 C32 2.113 . S
C354 C93 2.399 . S
C368 C63 2.142 1_545 S
C374 C124 2.409 . S
C388 C1 2.114 1_655 S
C394 C155 2.399 . S
C408 C113 1.288 . S
C414 C246 1.286 . S
C428 C277 1.254 . S
C434 C144 1.278 . S
C448 C215 1.266 . S
C454 C175 1.265 . S
C468 C125 2.114 . S
C474 C186 2.399 . S
C488 C217 2.411 . S
C494 C156 2.144 . S
C508 C248 2.406 . S
C514 C94 2.137 . S
C528 C206 1.271 . S
C534 C60 1.251 . S
C548 C237 1.294 . S
C554 C91 1.283 . S
C568 C29 1.260 . S
C574 C268 1.285 . S
C588 C0 2.409 1_556 S
C594 C218 2.138 . S
C608 C31 2.400 1_556 S
C614 C249 2.122 . S
C628 C187 2.139 . S
C634 C62 2.410 1_556 S
C648 C64 1.519 1_545 S
C654 C10 1.627 . S
C668 C2 1.523 1_655 S
C674 C41 1.625 . S
C688 C33 1.494 . S
C694 C72 1.619 1_554 S
C708 C157 1.514 . S
C714 C103 1.629 . S
C728 C95 1.528 . S
C734 C134 1.621 . S
C748 C126 1.527 . S
C754 C165 1.615 . S
C768 C196 1.622 . S
C774 C250 1.527 . S
C788 C227 1.616 . S
C794 C188 1.528 . S
C808 C258 1.615 . S
C814 C219 1.502 . S
C828 C30 0.907 . S
C834 C19 0.894 . S
C848 C50 0.895 . S
C854 C61 0.907 . S
C868 C92 0.896 . S
C874 C81 0.881 . S
C888 C112 0.890 . S
C894 C123 0.904 . S
C908 C154 0.895 . S
C914 C143 0.879 . S
C928 C174 0.885 . S
C934 C185 0.896 . S
C948 C216 0.926 . S
C954 C205 0.922 . S
C968 C247 0.909 . S
C974 C236 0.897 . S
C988 C278 0.892 . S
C994 C267 0.878 . S
