# Generated by pormake.
# Topology ato, (4)-cn, num edge types: 1
# Building blocks:
#     Node 0, Type 0, BuildingBlock: CEKHIL_clean_sbu_0, # of connection points: 4
#     Node 1, Type 0, BuildingBlock: CEKHIL_clean_sbu_0, # of connection points: 4
#     Node 2, Type 0, BuildingBlock: CEKHIL_clean_sbu_0, # of connection points: 4
#     Node 3, Type 0, BuildingBlock: CEKHIL_clean_sbu_0, # of connection points: 4
#     Node 4, Type 0, BuildingBlock: CEKHIL_clean_sbu_0, # of connection points: 4
#     Node 5, Type 0, BuildingBlock: CEKHIL_clean_sbu_0, # of connection points: 4
#     Node 6, Type 0, BuildingBlock: CEKHIL_clean_sbu_0, # of connection points: 4
#     Node 7, Type 0, BuildingBlock: CEKHIL_clean_sbu_0, # of connection points: 4
#     Node 8, Type 0, BuildingBlock: CEKHIL_clean_sbu_0, # of connection points: 4
#     Node 9, Type 0, BuildingBlock: CEKHIL_clean_sbu_0, # of connection points: 4
#     Node 10, Type 0, BuildingBlock: CEKHIL_clean_sbu_0, # of connection points: 4
#     Node 11, Type 0, BuildingBlock: CEKHIL_clean_sbu_0, # of connection points: 4
#     Node 12, Type 0, BuildingBlock: CEKHIL_clean_sbu_0, # of connection points: 4
#     Node 13, Type 0, BuildingBlock: CEKHIL_clean_sbu_0, # of connection points: 4
#     Node 14, Type 0, BuildingBlock: CEKHIL_clean_sbu_0, # of connection points: 4
#     Node 15, Type 0, BuildingBlock: CEKHIL_clean_sbu_0, # of connection points: 4
#     Node 16, Type 0, BuildingBlock: CEKHIL_clean_sbu_0, # of connection points: 4
#     Node 17, Type 0, BuildingBlock: CEKHIL_clean_sbu_0, # of connection points: 4
#     Node 18, Type 0, BuildingBlock: CEKHIL_clean_sbu_0, # of connection points: 4
#     Node 19, Type 0, BuildingBlock: CEKHIL_clean_sbu_0, # of connection points: 4
#     Node 20, Type 0, BuildingBlock: CEKHIL_clean_sbu_0, # of connection points: 4
#     Node 21, Type 0, BuildingBlock: CEKHIL_clean_sbu_0, # of connection points: 4
#     Node 22, Type 0, BuildingBlock: CEKHIL_clean_sbu_0, # of connection points: 4
#     Node 23, Type 0, BuildingBlock: CEKHIL_clean_sbu_0, # of connection points: 4
#     Node 24, Type 0, BuildingBlock: CEKHIL_clean_sbu_0, # of connection points: 4
#     Node 25, Type 0, BuildingBlock: CEKHIL_clean_sbu_0, # of connection points: 4
#     Node 26, Type 0, BuildingBlock: CEKHIL_clean_sbu_0, # of connection points: 4
#     Node 27, Type 0, BuildingBlock: CEKHIL_clean_sbu_0, # of connection points: 4
#     Node 28, Type 0, BuildingBlock: CEKHIL_clean_sbu_0, # of connection points: 4
#     Node 29, Type 0, BuildingBlock: CEKHIL_clean_sbu_0, # of connection points: 4
#     Node 30, Type 0, BuildingBlock: CEKHIL_clean_sbu_0, # of connection points: 4
#     Node 31, Type 0, BuildingBlock: CEKHIL_clean_sbu_0, # of connection points: 4
#     Node 32, Type 0, BuildingBlock: CEKHIL_clean_sbu_0, # of connection points: 4
#     Node 33, Type 0, BuildingBlock: CEKHIL_clean_sbu_0, # of connection points: 4
#     Node 34, Type 0, BuildingBlock: CEKHIL_clean_sbu_0, # of connection points: 4
#     Node 35, Type 0, BuildingBlock: CEKHIL_clean_sbu_0, # of connection points: 4
#     Edge 36, Type (0, 0), BuildingBlock: MIFKUJ_clean_linker_0, # of connection points: 2
#     Edge 37, Type (0, 0), BuildingBlock: MIFKUJ_clean_linker_0, # of connection points: 2
#     Edge 38, Type (0, 0), BuildingBlock: MIFKUJ_clean_linker_0, # of connection points: 2
#     Edge 39, Type (0, 0), BuildingBlock: MIFKUJ_clean_linker_0, # of connection points: 2
#     Edge 40, Type (0, 0), BuildingBlock: MIFKUJ_clean_linker_0, # of connection points: 2
#     Edge 41, Type (0, 0), BuildingBlock: MIFKUJ_clean_linker_0, # of connection points: 2
#     Edge 42, Type (0, 0), BuildingBlock: MIFKUJ_clean_linker_0, # of connection points: 2
#     Edge 43, Type (0, 0), BuildingBlock: MIFKUJ_clean_linker_0, # of connection points: 2
#     Edge 44, Type (0, 0), BuildingBlock: MIFKUJ_clean_linker_0, # of connection points: 2
#     Edge 45, Type (0, 0), BuildingBlock: MIFKUJ_clean_linker_0, # of connection points: 2
#     Edge 46, Type (0, 0), BuildingBlock: MIFKUJ_clean_linker_0, # of connection points: 2
#     Edge 47, Type (0, 0), BuildingBlock: MIFKUJ_clean_linker_0, # of connection points: 2
#     Edge 48, Type (0, 0), BuildingBlock: MIFKUJ_clean_linker_0, # of connection points: 2
#     Edge 49, Type (0, 0), BuildingBlock: MIFKUJ_clean_linker_0, # of connection points: 2
#     Edge 50, Type (0, 0), BuildingBlock: MIFKUJ_clean_linker_0, # of connection points: 2
#     Edge 51, Type (0, 0), BuildingBlock: MIFKUJ_clean_linker_0, # of connection points: 2
#     Edge 52, Type (0, 0), BuildingBlock: MIFKUJ_clean_linker_0, # of connection points: 2
#     Edge 53, Type (0, 0), BuildingBlock: MIFKUJ_clean_linker_0, # of connection points: 2
#     Edge 54, Type (0, 0), BuildingBlock: MIFKUJ_clean_linker_0, # of connection points: 2
#     Edge 55, Type (0, 0), BuildingBlock: MIFKUJ_clean_linker_0, # of connection points: 2
#     Edge 56, Type (0, 0), BuildingBlock: MIFKUJ_clean_linker_0, # of connection points: 2
#     Edge 57, Type (0, 0), BuildingBlock: MIFKUJ_clean_linker_0, # of connection points: 2
#     Edge 58, Type (0, 0), BuildingBlock: MIFKUJ_clean_linker_0, # of connection points: 2
#     Edge 59, Type (0, 0), BuildingBlock: MIFKUJ_clean_linker_0, # of connection points: 2
#     Edge 60, Type (0, 0), BuildingBlock: MIFKUJ_clean_linker_0, # of connection points: 2
#     Edge 61, Type (0, 0), BuildingBlock: MIFKUJ_clean_linker_0, # of connection points: 2
#     Edge 62, Type (0, 0), BuildingBlock: MIFKUJ_clean_linker_0, # of connection points: 2
#     Edge 63, Type (0, 0), BuildingBlock: MIFKUJ_clean_linker_0, # of connection points: 2
#     Edge 64, Type (0, 0), BuildingBlock: MIFKUJ_clean_linker_0, # of connection points: 2
#     Edge 65, Type (0, 0), BuildingBlock: MIFKUJ_clean_linker_0, # of connection points: 2
#     Edge 66, Type (0, 0), BuildingBlock: MIFKUJ_clean_linker_0, # of connection points: 2
#     Edge 67, Type (0, 0), BuildingBlock: MIFKUJ_clean_linker_0, # of connection points: 2
#     Edge 68, Type (0, 0), BuildingBlock: MIFKUJ_clean_linker_0, # of connection points: 2
#     Edge 69, Type (0, 0), BuildingBlock: MIFKUJ_clean_linker_0, # of connection points: 2
#     Edge 70, Type (0, 0), BuildingBlock: MIFKUJ_clean_linker_0, # of connection points: 2
#     Edge 71, Type (0, 0), BuildingBlock: MIFKUJ_clean_linker_0, # of connection points: 2
#     Edge 72, Type (0, 0), BuildingBlock: MIFKUJ_clean_linker_0, # of connection points: 2
#     Edge 73, Type (0, 0), BuildingBlock: MIFKUJ_clean_linker_0, # of connection points: 2
#     Edge 74, Type (0, 0), BuildingBlock: MIFKUJ_clean_linker_0, # of connection points: 2
#     Edge 75, Type (0, 0), BuildingBlock: MIFKUJ_clean_linker_0, # of connection points: 2
#     Edge 76, Type (0, 0), BuildingBlock: MIFKUJ_clean_linker_0, # of connection points: 2
#     Edge 77, Type (0, 0), BuildingBlock: MIFKUJ_clean_linker_0, # of connection points: 2
#     Edge 78, Type (0, 0), BuildingBlock: MIFKUJ_clean_linker_0, # of connection points: 2
#     Edge 79, Type (0, 0), BuildingBlock: MIFKUJ_clean_linker_0, # of connection points: 2
#     Edge 80, Type (0, 0), BuildingBlock: MIFKUJ_clean_linker_0, # of connection points: 2
#     Edge 81, Type (0, 0), BuildingBlock: MIFKUJ_clean_linker_0, # of connection points: 2
#     Edge 82, Type (0, 0), BuildingBlock: MIFKUJ_clean_linker_0, # of connection points: 2
#     Edge 83, Type (0, 0), BuildingBlock: MIFKUJ_clean_linker_0, # of connection points: 2
#     Edge 84, Type (0, 0), BuildingBlock: MIFKUJ_clean_linker_0, # of connection points: 2
#     Edge 85, Type (0, 0), BuildingBlock: MIFKUJ_clean_linker_0, # of connection points: 2
#     Edge 86, Type (0, 0), BuildingBlock: MIFKUJ_clean_linker_0, # of connection points: 2
#     Edge 87, Type (0, 0), BuildingBlock: MIFKUJ_clean_linker_0, # of connection points: 2
#     Edge 88, Type (0, 0), BuildingBlock: MIFKUJ_clean_linker_0, # of connection points: 2
#     Edge 89, Type (0, 0), BuildingBlock: MIFKUJ_clean_linker_0, # of connection points: 2
#     Edge 90, Type (0, 0), BuildingBlock: MIFKUJ_clean_linker_0, # of connection points: 2
#     Edge 91, Type (0, 0), BuildingBlock: MIFKUJ_clean_linker_0, # of connection points: 2
#     Edge 92, Type (0, 0), BuildingBlock: MIFKUJ_clean_linker_0, # of connection points: 2
#     Edge 93, Type (0, 0), BuildingBlock: MIFKUJ_clean_linker_0, # of connection points: 2
#     Edge 94, Type (0, 0), BuildingBlock: MIFKUJ_clean_linker_0, # of connection points: 2
#     Edge 95, Type (0, 0), BuildingBlock: MIFKUJ_clean_linker_0, # of connection points: 2
#     Edge 96, Type (0, 0), BuildingBlock: MIFKUJ_clean_linker_0, # of connection points: 2
#     Edge 97, Type (0, 0), BuildingBlock: MIFKUJ_clean_linker_0, # of connection points: 2
#     Edge 98, Type (0, 0), BuildingBlock: MIFKUJ_clean_linker_0, # of connection points: 2
#     Edge 99, Type (0, 0), BuildingBlock: MIFKUJ_clean_linker_0, # of connection points: 2
#     Edge 100, Type (0, 0), BuildingBlock: MIFKUJ_clean_linker_0, # of connection points: 2
#     Edge 101, Type (0, 0), BuildingBlock: MIFKUJ_clean_linker_0, # of connection points: 2
#     Edge 102, Type (0, 0), BuildingBlock: MIFKUJ_clean_linker_0, # of connection points: 2
#     Edge 103, Type (0, 0), BuildingBlock: MIFKUJ_clean_linker_0, # of connection points: 2
#     Edge 104, Type (0, 0), BuildingBlock: MIFKUJ_clean_linker_0, # of connection points: 2
#     Edge 105, Type (0, 0), BuildingBlock: MIFKUJ_clean_linker_0, # of connection points: 2
#     Edge 106, Type (0, 0), BuildingBlock: MIFKUJ_clean_linker_0, # of connection points: 2
#     Edge 107, Type (0, 0), BuildingBlock: MIFKUJ_clean_linker_0, # of connection points: 2
# Relax obj value: 0.085
# Max RMSD: 0.095
# Mean RMSD: 0.095
data_MOF--net-ato--node1-CEKHIL_clean_sbu_0--edge1-MIFKUJ_clean_linker_0
_symmetry_space_group_name_H-M    P1
_symmetry_Int_Tables_number       1
_symmetry_cell_setting            triclinic
loop_
_symmetry_equiv_pos_as_xyz
'x, y, z'
_cell_length_a     132.39597
_cell_length_b     132.37253
_cell_length_c     30.277895
_cell_angle_alpha  90.019255
_cell_angle_beta   90.027425
_cell_angle_gamma 120.02622
loop_
_atom_site_label
_atom_site_type_symbol
_atom_site_fract_x
_atom_site_fract_y
_atom_site_fract_z
_atom_type_partial_charge
Co0 Co 0.25369 0.05626 0.26372 0.0
O1 O 0.23983 0.04528 0.2961 0.0
O2 O 0.2568 0.04594 0.29924 0.0
C3 C 0.25263 0.07248 0.28003 0.0
O4 O 0.27012 0.06642 0.23845 0.0
Co5 Co 0.25347 0.07128 0.18513 0.0
O6 O 0.27049 0.08051 0.19593 0.0
C7 C 0.24675 0.04652 0.16994 0.0
C8 C 0.24613 0.04127 0.31333 0.0
C9 C 0.27568 0.07599 0.21634 0.0
O10 O 0.24895 0.04532 0.21062 0.0
O11 O 0.2475 0.0559 0.15471 0.0
O12 O 0.25695 0.0683 0.30839 0.0
O13 O 0.24827 0.06628 0.24488 0.0
Co14 Co 0.94901 0.19911 0.26914 0.0
O15 O 0.95972 0.19598 0.30222 0.0
O16 O 0.95905 0.21227 0.30656 0.0
C17 C 0.93268 0.18164 0.28224 0.0
O18 O 0.93901 0.20552 0.24347 0.0
Co19 Co 0.93508 0.18438 0.18729 0.0
O20 O 0.92739 0.19389 0.18908 0.0
C21 C 0.95978 0.20283 0.17675 0.0
C22 C 0.96364 0.20617 0.32036 0.0
C23 C 0.93095 0.20274 0.21427 0.0
O24 O 0.96046 0.20589 0.21769 0.0
O25 O 0.95073 0.1942 0.15969 0.0
O26 O 0.93656 0.18986 0.31181 0.0
O27 O 0.93927 0.18383 0.24804 0.0
Co28 Co 0.80715 0.75147 0.26333 0.0
O29 O 0.80967 0.76487 0.29792 0.0
O30 O 0.79333 0.74788 0.29745 0.0
C31 C 0.82433 0.75248 0.28109 0.0
O32 O 0.80129 0.73544 0.23496 0.0
Co33 Co 0.82355 0.75331 0.18615 0.0
O34 O 0.81451 0.73604 0.18677 0.0
C35 C 0.8059 0.76054 0.1717 0.0
C36 C 0.79921 0.75839 0.31342 0.0
C37 C 0.80495 0.73043 0.20798 0.0
O38 O 0.80149 0.75689 0.21053 0.0
O39 O 0.81514 0.76068 0.15825 0.0
O40 O 0.81551 0.7476 0.30795 0.0
O41 O 0.82279 0.75732 0.24683 0.0
Co42 Co 0.05744 0.25176 0.74538 0.0
O43 O 0.04658 0.23814 0.71149 0.0
O44 O 0.04711 0.25506 0.71067 0.0
C45 C 0.07383 0.25108 0.7286 0.0
O46 O 0.06746 0.26795 0.77267 0.0
Co47 Co 0.07204 0.25051 0.82377 0.0
O48 O 0.07975 0.26776 0.82357 0.0
C49 C 0.04701 0.24266 0.83684 0.0
C50 C 0.04251 0.24449 0.6954 0.0
C51 C 0.07585 0.27315 0.80071 0.0
O52 O 0.04636 0.24647 0.79819 0.0
O53 O 0.05612 0.24258 0.85054 0.0
O54 O 0.06965 0.25555 0.70087 0.0
O55 O 0.06747 0.24629 0.76298 0.0
Co56 Co 0.75304 0.80552 0.73895 0.0
O57 O 0.76649 0.80783 0.70521 0.0
O58 O 0.74928 0.79175 0.70406 0.0
C59 C 0.75454 0.82294 0.72197 0.0
O60 O 0.73695 0.79991 0.76623 0.0
Co61 Co 0.75484 0.82171 0.81691 0.0
O62 O 0.73761 0.81346 0.81277 0.0
C63 C 0.76049 0.80293 0.83208 0.0
C64 C 0.75989 0.79747 0.68892 0.0
C65 C 0.73193 0.80388 0.79179 0.0
O66 O 0.7579 0.79933 0.79172 0.0
O67 O 0.76035 0.8119 0.84704 0.0
O68 O 0.74966 0.81424 0.69452 0.0
O69 O 0.75916 0.82115 0.75644 0.0
Co70 Co 0.19893 0.9483 0.73908 0.0
O71 O 0.19618 0.95932 0.70645 0.0
O72 O 0.2126 0.95885 0.70498 0.0
C73 C 0.18176 0.93213 0.72092 0.0
O74 O 0.20503 0.93807 0.76503 0.0
Co75 Co 0.18298 0.93289 0.81566 0.0
O76 O 0.19078 0.92366 0.8048 0.0
C77 C 0.2006 0.95774 0.83273 0.0
C78 C 0.2066 0.96347 0.69025 0.0
C79 C 0.20069 0.92829 0.78585 0.0
O80 O 0.20467 0.95903 0.79298 0.0
O81 O 0.19169 0.94833 0.84622 0.0
O82 O 0.19048 0.93638 0.69348 0.0
O83 O 0.18339 0.93824 0.75611 0.0
Co84 Co 0.75312 0.94765 0.74273 0.0
O85 O 0.76659 0.95856 0.70856 0.0
O86 O 0.74964 0.95796 0.70858 0.0
C87 C 0.75413 0.93148 0.72487 0.0
O88 O 0.73704 0.93749 0.7707 0.0
Co89 Co 0.75453 0.93276 0.81953 0.0
O90 O 0.73732 0.92373 0.81326 0.0
C91 C 0.76168 0.95764 0.83513 0.0
C92 C 0.76017 0.96259 0.69289 0.0
C93 C 0.73183 0.9281 0.79405 0.0
O94 O 0.75844 0.95864 0.7958 0.0
O95 O 0.76151 0.9484 0.84872 0.0
O96 O 0.74929 0.93546 0.69793 0.0
O97 O 0.75889 0.93781 0.75936 0.0
Co98 Co 0.05791 0.80543 0.74025 0.0
O99 O 0.04693 0.80838 0.70821 0.0
O100 O 0.04745 0.79199 0.70493 0.0
C101 C 0.07412 0.82272 0.72371 0.0
O102 O 0.068 0.79903 0.76504 0.0
Co103 Co 0.07334 0.82062 0.81823 0.0
O104 O 0.08249 0.81279 0.80613 0.0
C105 C 0.04856 0.8027 0.83443 0.0
C106 C 0.04282 0.79805 0.69103 0.0
C107 C 0.07771 0.80301 0.78614 0.0
O108 O 0.04712 0.79931 0.79368 0.0
O109 O 0.05806 0.81125 0.84929 0.0
O110 O 0.0699 0.81419 0.69538 0.0
O111 O 0.068 0.82084 0.75907 0.0
Co112 Co 0.19845 0.25068 0.74516 0.0
O113 O 0.19629 0.23721 0.71192 0.0
O114 O 0.21239 0.25441 0.71169 0.0
C115 C 0.18122 0.24934 0.72608 0.0
O116 O 0.20389 0.26677 0.77241 0.0
Co117 Co 0.18177 0.24885 0.82119 0.0
O118 O 0.18967 0.26604 0.81523 0.0
C119 C 0.19979 0.24222 0.83792 0.0
C120 C 0.20673 0.24382 0.69639 0.0
C121 C 0.19949 0.27177 0.79585 0.0
O122 O 0.20419 0.24568 0.79896 0.0
O123 O 0.1905 0.24205 0.85088 0.0
O124 O 0.19006 0.25409 0.69931 0.0
O125 O 0.18275 0.24468 0.76097 0.0
Co126 Co 0.94979 0.75298 0.26429 0.0
O127 O 0.96065 0.76648 0.29857 0.0
O128 O 0.96007 0.74953 0.29877 0.0
C129 C 0.93356 0.75389 0.28168 0.0
O130 O 0.93967 0.73687 0.23645 0.0
Co131 Co 0.93517 0.75454 0.18668 0.0
O132 O 0.92743 0.7373 0.18582 0.0
C133 C 0.96006 0.76181 0.17238 0.0
C134 C 0.96467 0.76006 0.31445 0.0
C135 C 0.93128 0.73181 0.20832 0.0
O136 O 0.96088 0.75832 0.21144 0.0
O137 O 0.95093 0.76188 0.15878 0.0
O138 O 0.93757 0.74913 0.3088 0.0
O139 O 0.93992 0.7587 0.24734 0.0
Co140 Co 0.2539 0.19827 0.26929 0.0
O141 O 0.24002 0.19535 0.30151 0.0
O142 O 0.25693 0.21176 0.30445 0.0
C143 C 0.25271 0.18096 0.28592 0.0
O144 O 0.27033 0.20456 0.24413 0.0
Co145 Co 0.25398 0.18304 0.19128 0.0
O146 O 0.27084 0.19037 0.20517 0.0
C147 C 0.24734 0.20112 0.17513 0.0
C148 C 0.24626 0.20569 0.3185 0.0
C149 C 0.27595 0.20025 0.22436 0.0
O150 O 0.2492 0.20439 0.216 0.0
O151 O 0.24833 0.19262 0.15999 0.0
O152 O 0.25709 0.1895 0.31419 0.0
O153 O 0.24848 0.18285 0.25053 0.0
Co154 Co 0.80673 0.05589 0.26715 0.0
O155 O 0.8092 0.04474 0.30017 0.0
O156 O 0.7932 0.04597 0.30313 0.0
C157 C 0.82433 0.07182 0.28264 0.0
O158 O 0.80095 0.06638 0.24095 0.0
Co159 Co 0.82231 0.07022 0.18783 0.0
O160 O 0.81443 0.07948 0.19482 0.0
C161 C 0.80351 0.04572 0.17396 0.0
C162 C 0.79896 0.04105 0.31745 0.0
C163 C 0.8049 0.07551 0.21617 0.0
O164 O 0.80015 0.04478 0.21461 0.0
O165 O 0.81238 0.05483 0.15838 0.0
O166 O 0.81588 0.06802 0.31117 0.0
O167 O 0.82221 0.06539 0.24801 0.0
Co168 Co 0.9218 0.39058 0.60105 0.0
O169 O 0.90844 0.38018 0.63674 0.0
O170 O 0.92546 0.3809 0.63822 0.0
C171 C 0.92092 0.40704 0.61365 0.0
O172 O 0.93772 0.40034 0.57185 0.0
Co173 Co 0.91938 0.40325 0.51862 0.0
O174 O 0.93664 0.41088 0.51559 0.0
C175 C 0.91115 0.3781 0.51428 0.0
C176 C 0.91493 0.37638 0.65374 0.0
C177 C 0.94244 0.40789 0.54063 0.0
O178 O 0.91631 0.37865 0.55117 0.0
O179 O 0.91026 0.38661 0.49871 0.0
O180 O 0.92572 0.40347 0.64245 0.0
O181 O 0.91593 0.40007 0.58083 0.0
Co182 Co 0.6154 0.53218 0.60117 0.0
O183 O 0.62636 0.52951 0.63461 0.0
O184 O 0.62531 0.54562 0.63752 0.0
C185 C 0.59933 0.51468 0.61595 0.0
O186 O 0.6051 0.53813 0.57467 0.0
Co187 Co 0.60126 0.51692 0.52107 0.0
O188 O 0.59182 0.52458 0.5292 0.0
C189 C 0.62583 0.53558 0.50844 0.0
C190 C 0.63011 0.53976 0.65196 0.0
C191 C 0.59585 0.53412 0.5505 0.0
O192 O 0.62669 0.53872 0.54933 0.0
O193 O 0.61669 0.52695 0.49186 0.0
O194 O 0.60314 0.52312 0.64457 0.0
O195 O 0.60583 0.51673 0.58157 0.0
Co196 Co 0.47405 0.08535 0.60279 0.0
O197 O 0.47683 0.09889 0.63715 0.0
O198 O 0.46038 0.082 0.63732 0.0
C199 C 0.49111 0.08602 0.61976 0.0
O200 O 0.46788 0.06923 0.57497 0.0
Co201 Co 0.49001 0.08672 0.52471 0.0
O202 O 0.48048 0.06947 0.52457 0.0
C203 C 0.47282 0.09457 0.51143 0.0
C204 C 0.46638 0.09253 0.65297 0.0
C205 C 0.47113 0.06406 0.54707 0.0
O206 O 0.46837 0.09082 0.55014 0.0
O207 O 0.48197 0.09458 0.4977 0.0
O208 O 0.4824 0.08141 0.64717 0.0
O209 O 0.48959 0.09089 0.58552 0.0
Co210 Co 0.72342 0.585 0.07741 0.0
O211 O 0.71252 0.57161 0.04291 0.0
O212 O 0.71308 0.58855 0.04385 0.0
C213 C 0.73964 0.58418 0.0591 0.0
O214 O 0.73366 0.60102 0.10594 0.0
Co215 Co 0.73799 0.58304 0.15429 0.0
O216 O 0.74673 0.6003 0.15132 0.0
C217 C 0.71303 0.57539 0.16848 0.0
C218 C 0.70846 0.57805 0.02775 0.0
C219 C 0.74271 0.606 0.13125 0.0
O220 O 0.7124 0.57946 0.13037 0.0
O221 O 0.72212 0.57519 0.18162 0.0
O222 O 0.73553 0.58893 0.03234 0.0
O223 O 0.73331 0.57926 0.09342 0.0
Co224 Co 0.42047 0.13985 0.07877 0.0
O225 O 0.43401 0.14242 0.04512 0.0
O226 O 0.41694 0.12618 0.04372 0.0
C227 C 0.42187 0.15723 0.06186 0.0
O228 O 0.40429 0.13392 0.10583 0.0
Co229 Co 0.42148 0.15568 0.15647 0.0
O230 O 0.40439 0.14804 0.14728 0.0
C231 C 0.42748 0.13711 0.17223 0.0
C232 C 0.42754 0.13206 0.02866 0.0
C233 C 0.39898 0.13818 0.12803 0.0
O234 O 0.42539 0.13374 0.1315 0.0
O235 O 0.42683 0.14581 0.18737 0.0
O236 O 0.41699 0.14853 0.03443 0.0
O237 O 0.42639 0.15544 0.09662 0.0
Co238 Co 0.86611 0.28232 0.07708 0.0
O239 O 0.86341 0.29285 0.04108 0.0
O240 O 0.87969 0.29208 0.0411 0.0
C241 C 0.84877 0.26596 0.06299 0.0
O242 O 0.87204 0.27242 0.10682 0.0
Co243 Co 0.85049 0.26933 0.15806 0.0
O244 O 0.85967 0.26121 0.16015 0.0
C245 C 0.86762 0.29444 0.16445 0.0
C246 C 0.87379 0.29666 0.02495 0.0
C247 C 0.86877 0.26446 0.13669 0.0
O248 O 0.87233 0.29408 0.12757 0.0
O249 O 0.85816 0.28587 0.1793 0.0
O250 O 0.8573 0.26958 0.03485 0.0
O251 O 0.85064 0.27284 0.09602 0.0
Co252 Co 0.41921 0.28172 0.07029 0.0
O253 O 0.43219 0.29235 0.03362 0.0
O254 O 0.41493 0.29111 0.03402 0.0
C255 C 0.42056 0.26558 0.05634 0.0
O256 O 0.40359 0.27162 0.10126 0.0
Co257 Co 0.42268 0.26923 0.15104 0.0
O258 O 0.40537 0.2598 0.15003 0.0
C259 C 0.42989 0.29419 0.15708 0.0
C260 C 0.4254 0.29588 0.01754 0.0
C261 C 0.39916 0.26305 0.12879 0.0
O262 O 0.42474 0.29363 0.12018 0.0
O263 O 0.43103 0.28581 0.1724 0.0
O264 O 0.41528 0.26888 0.02862 0.0
O265 O 0.42567 0.27262 0.08883 0.0
Co266 Co 0.72378 0.13948 0.0792 0.0
O267 O 0.71275 0.14195 0.04537 0.0
O268 O 0.71389 0.12589 0.04334 0.0
C269 C 0.73977 0.15701 0.06356 0.0
O270 O 0.73415 0.13369 0.10642 0.0
Co271 Co 0.73803 0.15528 0.15829 0.0
O272 O 0.7471 0.14716 0.15306 0.0
C273 C 0.71341 0.13668 0.17172 0.0
C274 C 0.70905 0.13166 0.02842 0.0
C275 C 0.74316 0.1376 0.13188 0.0
O276 O 0.71258 0.13308 0.13144 0.0
O277 O 0.72247 0.14567 0.18699 0.0
O278 O 0.73603 0.14847 0.03542 0.0
O279 O 0.73328 0.15501 0.09787 0.0
Co280 Co 0.86578 0.58633 0.07718 0.0
O281 O 0.86286 0.57267 0.04327 0.0
O282 O 0.87936 0.5895 0.04242 0.0
C283 C 0.84873 0.58573 0.06045 0.0
O284 O 0.87212 0.60257 0.1044 0.0
Co285 Co 0.85002 0.58535 0.15547 0.0
O286 O 0.85972 0.60257 0.15519 0.0
C287 C 0.86702 0.57725 0.16876 0.0
C288 C 0.87329 0.57895 0.02711 0.0
C289 C 0.86902 0.60786 0.13235 0.0
O290 O 0.87149 0.58094 0.13002 0.0
O291 O 0.85791 0.57734 0.18233 0.0
O292 O 0.85738 0.59018 0.03269 0.0
O293 O 0.85031 0.58097 0.09489 0.0
Co294 Co 0.61573 0.08499 0.60301 0.0
O295 O 0.62683 0.09873 0.63564 0.0
O296 O 0.62629 0.0818 0.63686 0.0
C297 C 0.59968 0.08612 0.62159 0.0
O298 O 0.60547 0.06868 0.57691 0.0
Co299 Co 0.60008 0.08545 0.52711 0.0
O300 O 0.59097 0.06837 0.53719 0.0
C301 C 0.62486 0.09248 0.50908 0.0
C302 C 0.63096 0.09242 0.65166 0.0
C303 C 0.59572 0.06316 0.55584 0.0
O304 O 0.62634 0.08992 0.54894 0.0
O305 O 0.61539 0.09191 0.49587 0.0
O306 O 0.60387 0.08154 0.64878 0.0
O307 O 0.60573 0.09054 0.58627 0.0
Co308 Co 0.91945 0.53187 0.60089 0.0
O309 O 0.90579 0.52924 0.63397 0.0
O310 O 0.92293 0.54538 0.63688 0.0
C311 C 0.9179 0.51436 0.61643 0.0
O312 O 0.93572 0.53778 0.57471 0.0
Co313 Co 0.91853 0.51638 0.52188 0.0
O314 O 0.93554 0.52376 0.53228 0.0
C315 C 0.91271 0.5351 0.50753 0.0
C316 C 0.91226 0.5395 0.65124 0.0
C317 C 0.94101 0.5335 0.55241 0.0
O318 O 0.91481 0.53832 0.54842 0.0
O319 O 0.91326 0.52641 0.49178 0.0
O320 O 0.9226 0.52286 0.6448 0.0
O321 O 0.91354 0.5164 0.58177 0.0
Co322 Co 0.47285 0.39005 0.59446 0.0
O323 O 0.47577 0.37966 0.63038 0.0
O324 O 0.4592 0.37988 0.62944 0.0
C325 C 0.48993 0.40659 0.61002 0.0
O326 O 0.46661 0.39969 0.56462 0.0
Co327 Co 0.48865 0.40397 0.51511 0.0
O328 O 0.4806 0.41318 0.52095 0.0
C329 C 0.47188 0.3787 0.50574 0.0
C330 C 0.46529 0.37553 0.64589 0.0
C331 C 0.4708 0.40895 0.54056 0.0
O332 O 0.46717 0.37851 0.54333 0.0
O333 O 0.48105 0.38767 0.49104 0.0
O334 O 0.48124 0.4027 0.63755 0.0
O335 O 0.48833 0.39993 0.57655 0.0
Co336 Co 0.58746 0.72352 0.93087 0.0
O337 O 0.57435 0.71284 0.96699 0.0
O338 O 0.59149 0.71383 0.96625 0.0
C339 C 0.58644 0.73982 0.9459 0.0
O340 O 0.6032 0.73359 0.90056 0.0
Co341 Co 0.58434 0.73646 0.85071 0.0
O342 O 0.60165 0.74504 0.84925 0.0
C343 C 0.57654 0.71141 0.84379 0.0
C344 C 0.58103 0.70912 0.98266 0.0
C345 C 0.60772 0.7418 0.87149 0.0
O346 O 0.58185 0.71183 0.88013 0.0
O347 O 0.57547 0.71992 0.82944 0.0
O348 O 0.59141 0.73616 0.9736 0.0
O349 O 0.58134 0.73297 0.91286 0.0
Co350 Co 0.28242 0.86603 0.92965 0.0
O351 O 0.29323 0.86365 0.96504 0.0
O352 O 0.29234 0.87987 0.96429 0.0
C353 C 0.26634 0.84873 0.94618 0.0
O354 O 0.27224 0.87163 0.89999 0.0
Co355 Co 0.26873 0.84973 0.85108 0.0
O356 O 0.25923 0.8575 0.85544 0.0
C357 C 0.29376 0.86716 0.84087 0.0
C358 C 0.29706 0.8741 0.98049 0.0
C359 C 0.26308 0.86724 0.87526 0.0
O360 O 0.2938 0.87192 0.87814 0.0
O361 O 0.28501 0.85771 0.82669 0.0
O362 O 0.27002 0.8575 0.97324 0.0
O363 O 0.27295 0.8504 0.91251 0.0
Co364 Co 0.14039 0.41833 0.93257 0.0
O365 O 0.14332 0.4319 0.96695 0.0
O366 O 0.12712 0.41482 0.96992 0.0
C367 C 0.15786 0.41951 0.94565 0.0
O368 O 0.1342 0.40214 0.90507 0.0
Co369 Co 0.1554 0.41996 0.85071 0.0
O370 O 0.14633 0.4027 0.85183 0.0
C371 C 0.1368 0.42599 0.84122 0.0
C372 C 0.13311 0.42546 0.98458 0.0
C373 C 0.13731 0.39713 0.87593 0.0
O374 O 0.13367 0.42327 0.88189 0.0
O375 O 0.14548 0.42578 0.82374 0.0
O376 O 0.14953 0.41485 0.97466 0.0
O377 O 0.15576 0.42417 0.91207 0.0
Co378 Co 0.39041 0.92 0.40569 0.0
O379 O 0.37997 0.9069 0.369 0.0
O380 O 0.38089 0.92403 0.36926 0.0
C381 C 0.40677 0.91899 0.39242 0.0
O382 O 0.40029 0.93572 0.4362 0.0
Co383 Co 0.40284 0.9169 0.48742 0.0
O384 O 0.41083 0.93418 0.49145 0.0
C385 C 0.37778 0.90905 0.49186 0.0
C386 C 0.37629 0.91357 0.35279 0.0
C387 C 0.40793 0.9402 0.46731 0.0
O388 O 0.37844 0.91438 0.45534 0.0
O389 O 0.38618 0.90794 0.5072 0.0
O390 O 0.4033 0.92403 0.36428 0.0
O391 O 0.39975 0.91385 0.42494 0.0
Co392 Co 0.0876 0.47391 0.40828 0.0
O393 O 0.10106 0.47674 0.37333 0.0
O394 O 0.08419 0.46026 0.37345 0.0
C395 C 0.0882 0.49098 0.3922 0.0
O396 O 0.07155 0.46769 0.43668 0.0
Co397 Co 0.08917 0.48975 0.48716 0.0
O398 O 0.0719 0.48026 0.48753 0.0
C399 C 0.09744 0.47285 0.49842 0.0
C400 C 0.09469 0.46627 0.35757 0.0
C401 C 0.06644 0.47093 0.46487 0.0
O402 O 0.09323 0.46821 0.46034 0.0
O403 O 0.09759 0.48206 0.51235 0.0
O404 O 0.08354 0.4823 0.36455 0.0
O405 O 0.09315 0.4894 0.42606 0.0
Co406 Co 0.53318 0.61541 0.40656 0.0
O407 O 0.53047 0.62561 0.36877 0.0
O408 O 0.54695 0.62525 0.37138 0.0
C409 C 0.51611 0.59885 0.39164 0.0
O410 O 0.53912 0.60583 0.43877 0.0
Co411 Co 0.51702 0.60258 0.48634 0.0
O412 O 0.52569 0.59393 0.4879 0.0
C413 C 0.53415 0.62771 0.49309 0.0
C414 C 0.54097 0.62957 0.35375 0.0
C415 C 0.53525 0.59744 0.46711 0.0
O416 O 0.53892 0.62735 0.45636 0.0
O417 O 0.52472 0.6191 0.50802 0.0
O418 O 0.5249 0.60244 0.36476 0.0
O419 O 0.51758 0.60582 0.4239 0.0
Co420 Co 0.08547 0.61505 0.40776 0.0
O421 O 0.09907 0.62619 0.37469 0.0
O422 O 0.08185 0.62501 0.37211 0.0
C423 C 0.08708 0.59915 0.39165 0.0
O424 O 0.06925 0.60463 0.4343 0.0
Co425 Co 0.08652 0.60047 0.48634 0.0
O426 O 0.06951 0.59071 0.47594 0.0
C427 C 0.09228 0.62499 0.5011 0.0
C428 C 0.09251 0.62991 0.35769 0.0
C429 C 0.06401 0.59502 0.45634 0.0
O430 O 0.09015 0.62612 0.46029 0.0
O431 O 0.09171 0.61573 0.51676 0.0
O432 O 0.08233 0.60295 0.36359 0.0
O433 O 0.09146 0.60551 0.42643 0.0
Co434 Co 0.39037 0.47351 0.40417 0.0
O435 O 0.37951 0.47602 0.36951 0.0
O436 O 0.38005 0.45963 0.37032 0.0
C437 C 0.40649 0.49068 0.38608 0.0
O438 O 0.40052 0.46763 0.43248 0.0
Co439 Co 0.40531 0.48988 0.48066 0.0
O440 O 0.41436 0.48173 0.47467 0.0
C441 C 0.38041 0.47221 0.4964 0.0
C442 C 0.37546 0.46553 0.35419 0.0
C443 C 0.40994 0.47183 0.45564 0.0
O444 O 0.37936 0.46793 0.45711 0.0
O445 O 0.38969 0.48127 0.5099 0.0
O446 O 0.40258 0.4818 0.35946 0.0
O447 O 0.40018 0.48917 0.42053 0.0
Co448 Co 0.53228 0.91883 0.41032 0.0
O449 O 0.5298 0.90538 0.37606 0.0
O450 O 0.54603 0.92246 0.37576 0.0
C451 C 0.51496 0.91761 0.39303 0.0
O452 O 0.53813 0.93491 0.43831 0.0
Co453 Co 0.51604 0.91734 0.48752 0.0
O454 O 0.52415 0.93455 0.48142 0.0
C455 C 0.53375 0.91013 0.50225 0.0
C456 C 0.54021 0.91191 0.36014 0.0
C457 C 0.53397 0.94009 0.46194 0.0
O458 O 0.53808 0.91357 0.46316 0.0
O459 O 0.52463 0.9102 0.5158 0.0
O460 O 0.52371 0.92249 0.36582 0.0
O461 O 0.51668 0.91293 0.4274 0.0
Co462 Co 0.28239 0.41743 0.92719 0.0
O463 O 0.29359 0.43119 0.9596 0.0
O464 O 0.2924 0.41398 0.96321 0.0
C465 C 0.26658 0.41922 0.94305 0.0
O466 O 0.27194 0.40107 0.90171 0.0
Co467 Co 0.26743 0.41782 0.84875 0.0
O468 O 0.25755 0.40095 0.86191 0.0
C469 C 0.29209 0.42401 0.83361 0.0
C470 C 0.29732 0.4247 0.97711 0.0
C471 C 0.26207 0.39564 0.88137 0.0
O472 O 0.29333 0.42192 0.87439 0.0
O473 O 0.28274 0.4233 0.81827 0.0
O474 O 0.27036 0.41452 0.97143 0.0
O475 O 0.27283 0.42333 0.90793 0.0
Co476 Co 0.58682 0.86542 0.93443 0.0
O477 O 0.57304 0.86261 0.96707 0.0
O478 O 0.59006 0.87888 0.97019 0.0
C479 C 0.58548 0.84799 0.95023 0.0
O480 O 0.6032 0.87155 0.90878 0.0
Co481 Co 0.58639 0.85012 0.85557 0.0
O482 O 0.60334 0.8575 0.86757 0.0
C483 C 0.5802 0.86856 0.8407 0.0
C484 C 0.57938 0.8729 0.98432 0.0
C485 C 0.60864 0.86729 0.8874 0.0
O486 O 0.58217 0.87176 0.88163 0.0
O487 O 0.58096 0.85997 0.82507 0.0
O488 O 0.58997 0.85647 0.97872 0.0
O489 O 0.58119 0.84999 0.91525 0.0
Co490 Co 0.14146 0.72291 0.93208 0.0
O491 O 0.14416 0.71234 0.96785 0.0
O492 O 0.12764 0.71262 0.96609 0.0
C493 C 0.15848 0.73931 0.94935 0.0
O494 O 0.13539 0.73271 0.90228 0.0
Co495 Co 0.15779 0.73738 0.85469 0.0
O496 O 0.1493 0.74615 0.85837 0.0
C497 C 0.14044 0.71231 0.8413 0.0
C498 C 0.13363 0.70822 0.98287 0.0
C499 C 0.13944 0.74185 0.87759 0.0
O500 O 0.136 0.71162 0.88001 0.0
O501 O 0.14955 0.72148 0.82738 0.0
O502 O 0.14963 0.73538 0.97607 0.0
O503 O 0.15706 0.73281 0.91557 0.0
H504 H 0.19476 0.97232 0.64548 0.0
H505 H 0.20142 0.98548 0.58186 0.0
H506 H 0.23496 0.98761 0.58864 0.0
H507 H 0.22835 0.97444 0.65239 0.0
H508 H 0.23719 0.009 0.57277 0.0
H509 H 0.21519 0.97038 0.51272 0.0
H510 H 0.19805 0.95072 0.50406 0.0
H511 H 0.17735 0.96575 0.46335 0.0
H512 H 0.19434 0.98551 0.47238 0.0
H513 H 0.25805 0.03285 0.36014 0.0
H514 H 0.25128 0.01976 0.42392 0.0
H515 H 0.21749 0.01699 0.41387 0.0
H516 H 0.2242 0.03004 0.34977 0.0
H517 H 0.21528 0.99597 0.43165 0.0
H518 H 0.23707 0.03451 0.49134 0.0
H519 H 0.25406 0.05425 0.50045 0.0
H520 H 0.27494 0.03953 0.54241 0.0
H521 H 0.25811 0.01969 0.53293 0.0
C522 C 0.20359 0.97566 0.63374 0.0
C523 C 0.211 0.97228 0.65408 0.0
C524 C 0.20737 0.98315 0.59711 0.0
C525 C 0.21866 0.98745 0.57993 0.0
C526 C 0.22621 0.9844 0.60111 0.0
C527 C 0.22241 0.97685 0.63759 0.0
C528 C 0.22251 0.99495 0.53951 0.0
C529 C 0.23248 0.00608 0.54178 0.0
C530 C 0.21624 0.9913 0.49918 0.0
C531 C 0.20601 0.97943 0.49368 0.0
C532 C 0.20696 0.96949 0.50229 0.0
C533 C 0.19727 0.95833 0.49725 0.0
C534 C 0.18661 0.95699 0.48329 0.0
C535 C 0.18561 0.9668 0.47423 0.0
C536 C 0.19527 0.97799 0.47928 0.0
C537 C 0.24914 0.02939 0.37121 0.0
C538 C 0.24169 0.03254 0.3498 0.0
C539 C 0.2453 0.02194 0.40795 0.0
C540 C 0.23391 0.01749 0.42431 0.0
C541 C 0.22632 0.02032 0.40209 0.0
C542 C 0.23018 0.0278 0.3654 0.0
C543 C 0.22998 0.01003 0.46486 0.0
C544 C 0.21999 0.9989 0.46264 0.0
C545 C 0.23622 0.0137 0.50527 0.0
C546 C 0.24636 0.02561 0.51097 0.0
C547 C 0.24532 0.03548 0.50214 0.0
C548 C 0.25491 0.04669 0.50744 0.0
C549 C 0.26559 0.04814 0.52188 0.0
C550 C 0.26667 0.03839 0.53116 0.0
C551 C 0.25711 0.02716 0.52585 0.0
H552 H 0.273 0.05683 0.52599 0.0
H553 H 0.17912 0.94834 0.47939 0.0
H554 H 0.03009 0.22233 0.6615 0.0
H555 H 0.01657 0.21565 0.59888 0.0
H556 H 0.02184 0.25035 0.58333 0.0
H557 H 0.03505 0.25697 0.64678 0.0
H558 H 0.99986 0.23534 0.5709 0.0
H559 H 0.03551 0.23864 0.51537 0.0
H560 H 0.05184 0.23468 0.51419 0.0
H561 H 0.02769 0.19805 0.49875 0.0
H562 H 0.01121 0.20178 0.50038 0.0
H563 H 0.97573 0.22811 0.35624 0.0
H564 H 0.98916 0.23457 0.41908 0.0
H565 H 0.98426 0.19993 0.43163 0.0
H566 H 0.97119 0.19357 0.3677 0.0
H567 H 0.00595 0.21473 0.44597 0.0
H568 H 0.97032 0.21128 0.50133 0.0
H569 H 0.95388 0.21508 0.50295 0.0
H570 H 0.97782 0.25174 0.51935 0.0
H571 H 0.99441 0.24817 0.51729 0.0
C572 C 0.0283 0.22852 0.64495 0.0
C573 C 0.0337 0.2402 0.65917 0.0
C574 C 0.02062 0.22471 0.60883 0.0
C575 C 0.01831 0.23253 0.58549 0.0
C576 C 0.02347 0.24412 0.60046 0.0
C577 C 0.03105 0.24791 0.63684 0.0
C578 C 0.01059 0.22869 0.54547 0.0
C579 C 1.0013 0.23096 0.54338 0.0
C580 C 0.01222 0.22272 0.50973 0.0
C581 C 0.02213 0.22048 0.5084 0.0
C582 C 0.03368 0.22974 0.51199 0.0
C583 C 0.04297 0.22753 0.51121 0.0
C584 C 0.0408 0.21612 0.50651 0.0
C585 C 0.02936 0.20688 0.50244 0.0
C586 C 0.02004 0.20904 0.50325 0.0
C587 C 0.97757 0.22188 0.3722 0.0
C588 C 0.97234 0.2103 0.35695 0.0
C589 C 0.9852 0.22556 0.40847 0.0
C590 C 0.98758 0.2177 0.43108 0.0
C591 C 0.98258 0.2062 0.41511 0.0
C592 C 0.97508 0.20255 0.37846 0.0
C593 C 0.99523 0.22139 0.47134 0.0
C594 C 0.0045 0.2191 0.47349 0.0
C595 C 0.99357 0.22732 0.5072 0.0
C596 C 0.9836 0.22947 0.50876 0.0
C597 C 0.97208 0.22016 0.50501 0.0
C598 C 0.96274 0.22227 0.50604 0.0
C599 C 0.96481 0.23365 0.51114 0.0
C600 C 0.97623 0.24293 0.51535 0.0
C601 C 0.9856 0.24087 0.5143 0.0
H602 H 0.95757 0.23527 0.51191 0.0
H603 H 0.048 0.21443 0.50593 0.0
H604 H 0.81028 0.77941 0.35645 0.0
H605 H 0.80333 0.78565 0.41992 0.0
H606 H 0.77087 0.75296 0.41735 0.0
H607 H 0.77774 0.74669 0.35348 0.0
H608 H 0.76709 0.77096 0.43274 0.0
H609 H 0.79208 0.75781 0.49253 0.0
H610 H 0.81023 0.75704 0.49986 0.0
H611 H 0.829 0.79337 0.53448 0.0
H612 H 0.81097 0.7944 0.52675 0.0
H613 H 0.74777 0.77641 0.6462 0.0
H614 H 0.75416 0.76944 0.58308 0.0
H615 H 0.78756 0.80115 0.5853 0.0
H616 H 0.78129 0.80806 0.64882 0.0
H617 H 0.79061 0.78318 0.57035 0.0
H618 H 0.76596 0.79659 0.50934 0.0
H619 H 0.74797 0.79765 0.50137 0.0
H620 H 0.72876 0.76121 0.46845 0.0
H621 H 0.74661 0.75991 0.47681 0.0
C622 C 0.80162 0.77357 0.36911 0.0
C623 C 0.79459 0.76252 0.34984 0.0
C624 C 0.79768 0.77713 0.40567 0.0
C625 C 0.78662 0.76972 0.42405 0.0
C626 C 0.77944 0.75883 0.40399 0.0
C627 C 0.78339 0.75525 0.36744 0.0
C628 C 0.78266 0.77326 0.46446 0.0
C629 C 0.77216 0.77347 0.46302 0.0
C630 C 0.78936 0.7768 0.50384 0.0
C631 C 0.8002 0.7762 0.50864 0.0
C632 C 0.80009 0.76566 0.50137 0.0
C633 C 0.81036 0.76517 0.50565 0.0
C634 C 0.82077 0.77516 0.51752 0.0
C635 C 0.82093 0.78565 0.52523 0.0
C636 C 0.81069 0.78618 0.52094 0.0
C637 C 0.75651 0.78186 0.63349 0.0
C638 C 0.764 0.79282 0.65261 0.0
C639 C 0.76013 0.7779 0.59712 0.0
C640 C 0.7713 0.78483 0.57873 0.0
C641 C 0.7789 0.79563 0.59862 0.0
C642 C 0.77529 0.79958 0.63501 0.0
C643 C 0.77505 0.78093 0.53864 0.0
C644 C 0.78552 0.78065 0.54013 0.0
C645 C 0.76834 0.77737 0.49926 0.0
C646 C 0.7576 0.77813 0.49417 0.0
C647 C 0.75788 0.78878 0.50075 0.0
C648 C 0.74771 0.78943 0.4961 0.0
C649 C 0.73722 0.7795 0.48453 0.0
C650 C 0.73689 0.7689 0.47748 0.0
C651 C 0.74703 0.7682 0.48214 0.0
H652 H 0.72936 0.78001 0.48094 0.0
H653 H 0.8287 0.77477 0.52082 0.0
H654 H 0.7812 0.97245 0.65011 0.0
H655 H 0.78762 0.98582 0.58713 0.0
H656 H 0.75502 0.98575 0.58926 0.0
H657 H 0.74858 0.97244 0.65253 0.0
H658 H 0.77884 0.98291 0.50538 0.0
H659 H 0.75938 0.01207 0.55137 0.0
H660 H 0.75464 0.01964 0.61792 0.0
H661 H 0.78093 0.01688 0.69117 0.0
H662 H 0.78593 0.00944 0.62494 0.0
H663 H 0.778 0.03198 0.36073 0.0
H664 H 0.77116 0.01853 0.42354 0.0
H665 H 0.80307 0.01725 0.42082 0.0
H666 H 0.80984 0.03051 0.35759 0.0
H667 H 0.7793 0.0206 0.50476 0.0
H668 H 0.79856 0.9912 0.45865 0.0
H669 H 0.80321 0.98357 0.39203 0.0
H670 H 0.77714 0.98672 0.31877 0.0
H671 H 0.77223 0.99421 0.38507 0.0
C672 C 0.77543 0.97536 0.63751 0.0
C673 C 0.76438 0.97138 0.65661 0.0
C674 C 0.7791 0.98298 0.60126 0.0
C675 C 0.77186 0.98688 0.58335 0.0
C676 C 0.76086 0.98302 0.60267 0.0
C677 C 0.75717 0.97537 0.6389 0.0
C678 C 0.77572 0.99476 0.54389 0.0
C679 C 0.77909 0.99123 0.5055 0.0
C680 C 0.77577 0.00549 0.54336 0.0
C681 C 0.77293 0.01007 0.58329 0.0
C682 C 0.76417 0.01311 0.58164 0.0
C683 C 0.76144 0.01738 0.61931 0.0
C684 C 0.76745 0.0187 0.65879 0.0
C685 C 0.77624 0.0158 0.66063 0.0
C686 C 0.77902 0.01154 0.62305 0.0
C687 C 0.78351 0.02874 0.37318 0.0
C688 C 0.79445 0.03229 0.35384 0.0
C689 C 0.77961 0.02108 0.40933 0.0
C690 C 0.78652 0.01674 0.42697 0.0
C691 C 0.79744 0.02026 0.40755 0.0
C692 C 0.80133 0.02789 0.37134 0.0
C693 C 0.78244 0.00877 0.46621 0.0
C694 C 0.77903 0.01228 0.50457 0.0
C695 C 0.78233 0.99801 0.4667 0.0
C696 C 0.78512 0.99338 0.42674 0.0
C697 C 0.7938 0.99022 0.42836 0.0
C698 C 0.79648 0.98593 0.39065 0.0
C699 C 0.7905 0.9847 0.35116 0.0
C700 C 0.7818 0.98772 0.34933 0.0
C701 C 0.77907 0.992 0.38696 0.0
H702 H 0.7926 0.98138 0.32199 0.0
H703 H 0.76532 0.022 0.68792 0.0
H704 H 0.03298 0.80958 0.65038 0.0
H705 H 0.01972 0.80311 0.587 0.0
H706 H 0.01944 0.77038 0.58596 0.0
H707 H 0.03287 0.7769 0.64883 0.0
H708 H 0.02208 0.77847 0.50464 0.0
H709 H 0.99575 0.77281 0.62311 0.0
H710 H 0.98856 0.77844 0.68841 0.0
H711 H 0.98679 0.80493 0.61265 0.0
H712 H 0.99412 0.79956 0.54702 0.0
H713 H 0.97406 0.74828 0.35647 0.0
H714 H 0.98725 0.75472 0.4201 0.0
H715 H 0.98814 0.78774 0.41936 0.0
H716 H 0.97484 0.78129 0.3561 0.0
H717 H 0.98515 0.7795 0.50154 0.0
H718 H 0.01149 0.78512 0.38309 0.0
H719 H 0.01862 0.77943 0.3178 0.0
H720 H 0.02032 0.75291 0.39366 0.0
H721 H 0.01304 0.75834 0.45929 0.0
C722 C 0.03 0.80095 0.63698 0.0
C723 C 0.03397 0.79375 0.65491 0.0
C724 C 0.02238 0.79724 0.60069 0.0
C725 C 0.01845 0.78618 0.58165 0.0
C726 C 0.02232 0.77894 0.59985 0.0
C727 C 0.02997 0.78267 0.63604 0.0
C728 C 0.01057 0.7823 0.54212 0.0
C729 C 0.01392 0.77854 0.50428 0.0
C730 C 1.00004 0.78263 0.5409 0.0
C731 C 0.99559 0.78585 0.58027 0.0
C732 C 0.99391 0.77989 0.62046 0.0
C733 C 0.98979 0.78303 0.65752 0.0
C734 C 0.98725 0.79206 0.65472 0.0
C735 C 0.98878 0.79795 0.6148 0.0
C736 C 0.9929 0.79485 0.57765 0.0
C737 C 0.97715 0.75696 0.36955 0.0
C738 C 0.9734 0.76428 0.35096 0.0
C739 C 0.98472 0.76065 0.40598 0.0
C740 C 0.9888 0.77178 0.42458 0.0
C741 C 0.98514 0.77912 0.4058 0.0
C742 C 0.97756 0.77544 0.36939 0.0
C743 C 0.99666 0.77566 0.46413 0.0
C744 C 0.99331 0.77942 0.50194 0.0
C745 C 0.00719 0.77531 0.46535 0.0
C746 C 0.01161 0.77206 0.42599 0.0
C747 C 0.0133 0.77801 0.38576 0.0
C748 C 0.01738 0.77484 0.34871 0.0
C749 C 0.01989 0.76579 0.35155 0.0
C750 C 0.01836 0.75991 0.3915 0.0
C751 C 0.01426 0.76304 0.42864 0.0
H752 H 0.02305 0.76335 0.32282 0.0
H753 H 0.98406 0.79447 0.68344 0.0
H754 H 0.25557 0.228 0.35026 0.0
H755 H 0.2489 0.23469 0.41328 0.0
H756 H 0.22048 0.19959 0.43352 0.0
H757 H 0.22683 0.19301 0.3693 0.0
H758 H 0.21277 0.21354 0.4481 0.0
H759 H 0.24717 0.21318 0.49782 0.0
H760 H 0.26783 0.21836 0.49529 0.0
H761 H 0.27846 0.25468 0.50638 0.0
H762 H 0.25785 0.24972 0.50846 0.0
H763 H 0.1981 0.22155 0.66533 0.0
H764 H 0.20496 0.21514 0.60211 0.0
H765 H 0.2326 0.25054 0.58084 0.0
H766 H 0.22601 0.25691 0.64509 0.0
H767 H 0.24074 0.2366 0.5667 0.0
H768 H 0.20618 0.23678 0.51772 0.0
H769 H 0.18547 0.23143 0.52078 0.0
H770 H 0.17511 0.19518 0.50894 0.0
H771 H 0.19576 0.20031 0.50634 0.0
C772 C 0.24784 0.22173 0.36792 0.0
C773 C 0.24176 0.20996 0.35476 0.0
C774 C 0.24408 0.22554 0.40431 0.0
C775 C 0.23431 0.21762 0.42919 0.0
C776 C 0.22806 0.20592 0.41524 0.0
C777 C 0.2317 0.20215 0.37841 0.0
C778 C 0.23063 0.22145 0.46976 0.0
C779 C 0.21888 0.21845 0.47424 0.0
C780 C 0.23858 0.2281 0.50379 0.0
C781 C 0.25097 0.23108 0.50289 0.0
C782 C 0.25391 0.22227 0.49947 0.0
C783 C 0.26562 0.22517 0.49814 0.0
C784 C 0.27445 0.23684 0.50056 0.0
C785 C 0.27161 0.24564 0.50445 0.0
C786 C 0.25992 0.24279 0.50575 0.0
C787 C 0.2057 0.22796 0.64744 0.0
C788 C 0.21147 0.23976 0.66026 0.0
C789 C 0.20957 0.22429 0.61096 0.0
C790 C 0.21916 0.23237 0.58575 0.0
C791 C 0.22515 0.24411 0.5994 0.0
C792 C 0.22137 0.24775 0.63625 0.0
C793 C 0.22289 0.22866 0.54504 0.0
C794 C 0.23464 0.23169 0.54054 0.0
C795 C 0.21493 0.222 0.51105 0.0
C796 C 0.20251 0.21892 0.51222 0.0
C797 C 0.19948 0.22766 0.51602 0.0
C798 C 0.18775 0.22467 0.51764 0.0
C799 C 0.17898 0.21297 0.51516 0.0
C800 C 0.18191 0.20424 0.51091 0.0
C801 C 0.19363 0.20719 0.50931 0.0
H802 H 0.1699 0.21067 0.51644 0.0
H803 H 0.28351 0.23907 0.49951 0.0
H804 H 0.92704 0.36801 0.69987 0.0
H805 H 0.92028 0.35459 0.7627 0.0
H806 H 0.88642 0.3517 0.75358 0.0
H807 H 0.8932 0.36529 0.69131 0.0
H808 H 0.89315 0.35445 0.83699 0.0
H809 H 0.89151 0.32949 0.71871 0.0
H810 H 0.89921 0.32351 0.65595 0.0
H811 H 0.9252 0.32331 0.74024 0.0
H812 H 0.91776 0.32944 0.8034 0.0
H813 H 0.86231 0.30562 0.97869 0.0
H814 H 0.86946 0.31908 0.91617 0.0
H815 H 0.90286 0.32094 0.92585 0.0
H816 H 0.89561 0.30719 0.98777 0.0
H817 H 0.89666 0.31888 0.84258 0.0
H818 H 0.89819 0.34368 0.9611 0.0
H819 H 0.89048 0.34966 0.02382 0.0
H820 H 0.86474 0.35021 0.93914 0.0
H821 H 0.87219 0.34409 0.87601 0.0
C822 C 0.91813 0.36446 0.71102 0.0
C823 C 0.91066 0.36772 0.69039 0.0
C824 C 0.91425 0.35674 0.74695 0.0
C825 C 0.90278 0.35199 0.76284 0.0
C826 C 0.8953 0.35521 0.74211 0.0
C827 C 0.89919 0.36296 0.7063 0.0
C828 C 0.89863 0.34389 0.8016 0.0
C829 C 0.89378 0.34659 0.8379 0.0
C830 C 0.89969 0.33377 0.80356 0.0
C831 C 0.90415 0.33003 0.76568 0.0
C832 C 0.89893 0.32825 0.72378 0.0
C833 C 0.90323 0.32482 0.68815 0.0
C834 C 0.91271 0.32306 0.69407 0.0
C835 C 0.91787 0.3247 0.73568 0.0
C836 C 0.91361 0.32814 0.77142 0.0
C837 C 0.8712 0.30895 0.96776 0.0
C838 C 0.8784 0.30536 0.98846 0.0
C839 C 0.87531 0.3167 0.93199 0.0
C840 C 0.88678 0.32121 0.9164 0.0
C841 C 0.89399 0.31763 0.93713 0.0
C842 C 0.88985 0.3098 0.97272 0.0
C843 C 0.89116 0.32942 0.87798 0.0
C844 C 0.89605 0.32675 0.84173 0.0
C845 C 0.89014 0.33958 0.87606 0.0
C846 C 0.88569 0.34333 0.91392 0.0
C847 C 0.89083 0.345 0.95592 0.0
C848 C 0.88652 0.34843 0.99154 0.0
C849 C 0.87711 0.35029 0.98549 0.0
C850 C 0.87201 0.34876 0.94378 0.0
C851 C 0.87629 0.34532 0.90807 0.0
H852 H 0.87378 0.35294 0.01311 0.0
H853 H 0.91603 0.32041 0.66645 0.0
H854 H 0.64101 0.52902 0.69039 0.0
H855 H 0.65422 0.53566 0.7539 0.0
H856 H 0.65192 0.56698 0.76085 0.0
H857 H 0.63882 0.56046 0.6969 0.0
H858 H 0.67393 0.572 0.77441 0.0
H859 H 0.63641 0.54384 0.83204 0.0
H860 H 0.61834 0.52474 0.83644 0.0
H861 H 0.63842 0.50805 0.86234 0.0
H862 H 0.65662 0.52705 0.85751 0.0
H863 H 0.69826 0.58953 0.98929 0.0
H864 H 0.68487 0.58319 0.92624 0.0
H865 H 0.68568 0.55105 0.92002 0.0
H866 H 0.69884 0.55723 0.98359 0.0
H867 H 0.66428 0.54657 0.90625 0.0
H868 H 0.70174 0.57439 0.84773 0.0
H869 H 0.71995 0.59335 0.84258 0.0
H870 H 0.70024 0.61047 0.81754 0.0
H871 H 0.68189 0.59163 0.82312 0.0
C872 C 0.64338 0.53736 0.7052 0.0
C873 C 0.63881 0.54418 0.68855 0.0
C874 C 0.65089 0.54112 0.74177 0.0
C875 C 0.65395 0.55175 0.76283 0.0
C876 C 0.64968 0.55873 0.74542 0.0
C877 C 0.64217 0.55498 0.7088 0.0
C878 C 0.66149 0.55553 0.8032 0.0
C879 C 0.67172 0.56649 0.80345 0.0
C880 C 0.65881 0.54828 0.84091 0.0
C881 C 0.64788 0.53685 0.84399 0.0
C882 C 0.63697 0.53609 0.83835 0.0
C883 C 0.62671 0.52528 0.84097 0.0
C884 C 0.62723 0.51518 0.84955 0.0
C885 C 0.63803 0.51588 0.85564 0.0
C886 C 0.64832 0.52666 0.853 0.0
C887 C 0.69552 0.58107 0.97473 0.0
C888 C 0.69966 0.57391 0.99152 0.0
C889 C 0.68791 0.57748 0.93839 0.0
C890 C 0.68438 0.5667 0.91763 0.0
C891 C 0.68827 0.55941 0.93519 0.0
C892 C 0.69582 0.56297 0.97162 0.0
C893 C 0.67674 0.56304 0.87748 0.0
C894 C 0.66649 0.55209 0.87726 0.0
C895 C 0.67942 0.57028 0.83973 0.0
C896 C 0.69044 0.58162 0.8363 0.0
C897 C 0.70128 0.58222 0.84146 0.0
C898 C 0.71163 0.59294 0.83841 0.0
C899 C 0.71125 0.60311 0.82986 0.0
C900 C 0.70052 0.60258 0.82423 0.0
C901 C 0.69015 0.59188 0.8273 0.0
H902 H 0.71928 0.61141 0.82751 0.0
H903 H 0.61928 0.50682 0.85157 0.0
H904 H 0.44581 0.08032 0.69842 0.0
H905 H 0.43913 0.08686 0.76181 0.0
H906 H 0.46999 0.12085 0.75353 0.0
H907 H 0.47684 0.11427 0.69072 0.0
H908 H 0.46626 0.11402 0.83633 0.0
H909 H 0.4422 0.11541 0.72043 0.0
H910 H 0.42827 0.10764 0.65842 0.0
H911 H 0.40268 0.08124 0.74315 0.0
H912 H 0.41651 0.08876 0.80555 0.0
H913 H 0.44806 0.14376 0.98296 0.0
H914 H 0.45441 0.13695 0.91957 0.0
H915 H 0.42304 0.10334 0.92811 0.0
H916 H 0.41648 0.11027 0.99086 0.0
H917 H 0.42691 0.10973 0.84547 0.0
H918 H 0.45088 0.10833 0.96144 0.0
H919 H 0.4648 0.11603 0.02353 0.0
H920 H 0.49054 0.1423 0.93885 0.0
H921 H 0.47672 0.13485 0.87637 0.0
C922 C 0.45113 0.08923 0.70978 0.0
C923 C 0.46186 0.09678 0.68928 0.0
C924 C 0.44728 0.09298 0.74607 0.0
C925 C 0.45397 0.10442 0.76247 0.0
C926 C 0.46464 0.11199 0.7417 0.0
C927 C 0.46853 0.10823 0.70556 0.0
C928 C 0.45006 0.10838 0.80195 0.0
C929 C 0.45771 0.11322 0.83799 0.0
C930 C 0.43878 0.10708 0.80498 0.0
C931 C 0.43043 0.10259 0.76755 0.0
C932 C 0.43363 0.1079 0.72576 0.0
C933 C 0.42574 0.10355 0.69055 0.0
C934 C 0.4146 0.09393 0.69681 0.0
C935 C 0.41131 0.08867 0.73833 0.0
C936 C 0.41917 0.09299 0.77364 0.0
C937 C 0.44255 0.13488 0.97167 0.0
C938 C 0.43178 0.12755 0.99225 0.0
C939 C 0.44622 0.13096 0.93537 0.0
C940 C 0.43931 0.11954 0.9191 0.0
C941 C 0.42857 0.11218 0.93986 0.0
C942 C 0.42485 0.11614 0.97596 0.0
C943 C 0.44312 0.1154 0.87984 0.0
C944 C 0.43546 0.11052 0.84384 0.0
C945 C 0.45438 0.11664 0.87687 0.0
C946 C 0.46273 0.12109 0.91433 0.0
C947 C 0.45948 0.1158 0.95613 0.0
C948 C 0.46736 0.12011 0.99139 0.0
C949 C 0.47853 0.12967 0.98517 0.0
C950 C 0.48187 0.13491 0.94363 0.0
C951 C 0.47403 0.13064 0.90828 0.0
H952 H 0.48461 0.13299 0.0125 0.0
H953 H 0.40851 0.09058 0.66951 0.0
H954 H 0.47749 0.36831 0.69716 0.0
H955 H 0.47041 0.35485 0.7596 0.0
H956 H 0.43573 0.34929 0.73925 0.0
H957 H 0.44291 0.36315 0.67767 0.0
H958 H 0.44008 0.35148 0.8231 0.0
H959 H 0.44439 0.32848 0.70992 0.0
H960 H 0.45473 0.3241 0.65199 0.0
H961 H 0.4802 0.32708 0.7469 0.0
H962 H 0.47009 0.33163 0.80529 0.0
H963 H 0.41219 0.30224 0.96743 0.0
H964 H 0.41848 0.31549 0.90404 0.0
H965 H 0.45371 0.32236 0.92134 0.0
H966 H 0.44739 0.30886 0.98377 0.0
H967 H 0.44852 0.31913 0.83794 0.0
H968 H 0.4444 0.34248 0.95073 0.0
H969 H 0.43406 0.34685 0.00868 0.0
H970 H 0.40816 0.34311 0.9144 0.0
H971 H 0.41827 0.33857 0.856 0.0
C972 C 0.46833 0.36416 0.70572 0.0
C973 C 0.46076 0.36677 0.68219 0.0
C974 C 0.46426 0.3564 0.74144 0.0
C975 C 0.45245 0.35083 0.754 0.0
C976 C 0.44487 0.35341 0.73037 0.0
C977 C 0.44897 0.36131 0.69498 0.0
C978 C 0.44809 0.34256 0.79233 0.0
C979 C 0.44178 0.3443 0.82592 0.0
C980 C 0.4505 0.33331 0.79691 0.0
C981 C 0.45654 0.33049 0.76189 0.0
C982 C 0.45224 0.32827 0.71837 0.0
C983 C 0.45805 0.32575 0.68546 0.0
C984 C 0.46813 0.32534 0.69574 0.0
C985 C 0.4724 0.32741 0.73898 0.0
C986 C 0.46662 0.32995 0.772 0.0
C987 C 0.42129 0.30665 0.95794 0.0
C988 C 0.42928 0.3045 0.98082 0.0
C989 C 0.42491 0.31427 0.92169 0.0
C990 C 0.43663 0.32009 0.90791 0.0
C991 C 0.44462 0.31801 0.93106 0.0
C992 C 0.441 0.31031 0.96698 0.0
C993 C 0.44057 0.32809 0.86881 0.0
C994 C 0.44679 0.3263 0.83506 0.0
C995 C 0.43808 0.33728 0.86408 0.0
C996 C 0.43203 0.34008 0.89911 0.0
C997 C 0.43646 0.34251 0.94243 0.0
C998 C 0.43064 0.34503 0.97535 0.0
C999 C 0.42044 0.34523 0.96526 0.0
C1000 C 0.41605 0.34294 0.92219 0.0
C1001 C 0.42183 0.34041 0.88916 0.0
H1002 H 0.41595 0.34718 0.99078 0.0
H1003 H 0.47262 0.32338 0.67021 0.0
H1004 H 0.70077 0.11109 0.98287 0.0
H1005 H 0.68762 0.10437 0.9191 0.0
H1006 H 0.68476 0.13539 0.92605 0.0
H1007 H 0.69779 0.14208 0.99015 0.0
H1008 H 0.66393 0.11686 0.90929 0.0
H1009 H 0.70232 0.13252 0.84903 0.0
H1010 H 0.72185 0.13474 0.84029 0.0
H1011 H 0.70632 0.09877 0.80204 0.0
H1012 H 0.68668 0.09629 0.81114 0.0
H1013 H 0.64026 0.11332 0.69543 0.0
H1014 H 0.6535 0.11981 0.75887 0.0
H1015 H 0.65483 0.08794 0.75393 0.0
H1016 H 0.6416 0.0814 0.69028 0.0
H1017 H 0.67638 0.10675 0.76956 0.0
H1018 H 0.63789 0.09129 0.82949 0.0
H1019 H 0.61847 0.08936 0.83756 0.0
H1020 H 0.63437 0.12537 0.87579 0.0
H1021 H 0.65391 0.12756 0.86734 0.0
C1022 C 0.69728 0.11644 0.97107 0.0
C1023 C 0.70038 0.12714 0.99167 0.0
C1024 C 0.68981 0.11263 0.93433 0.0
C1025 C 0.6853 0.11944 0.91712 0.0
C1026 C 0.68812 0.12997 0.93846 0.0
C1027 C 0.6956 0.13379 0.97517 0.0
C1028 C 0.67775 0.11567 0.87671 0.0
C1029 C 0.66673 0.1148 0.87861 0.0
C1030 C 0.68124 0.11274 0.8367 0.0
C1031 C 0.69303 0.11419 0.83123 0.0
C1032 C 0.70307 0.12506 0.83912 0.0
C1033 C 0.71416 0.12637 0.83403 0.0
C1034 C 0.71532 0.11689 0.82074 0.0
C1035 C 0.7054 0.1061 0.8124 0.0
C1036 C 0.69429 0.10474 0.81749 0.0
C1037 C 0.64345 0.10772 0.70753 0.0
C1038 C 0.63982 0.09681 0.68772 0.0
C1039 C 0.65097 0.11142 0.74406 0.0
C1040 C 0.65507 0.10431 0.76175 0.0
C1041 C 0.65178 0.09358 0.74109 0.0
C1042 C 0.6442 0.08985 0.70466 0.0
C1043 C 0.66258 0.10796 0.80219 0.0
C1044 C 0.67358 0.10881 0.80028 0.0
C1045 C 0.6591 0.11091 0.84214 0.0
C1046 C 0.64736 0.10962 0.84734 0.0
C1047 C 0.63725 0.09883 0.83926 0.0
C1048 C 0.62622 0.09768 0.84397 0.0
C1049 C 0.62519 0.10725 0.85707 0.0
C1050 C 0.63518 0.11797 0.86559 0.0
C1051 C 0.64624 0.11917 0.86087 0.0
H1052 H 0.61664 0.10634 0.86071 0.0
H1053 H 0.72391 0.11793 0.8168 0.0
H1054 H 0.89158 0.52769 0.69602 0.0
H1055 H 0.88509 0.53434 0.75954 0.0
H1056 H 0.91655 0.56791 0.75295 0.0
H1057 H 0.92325 0.56115 0.69013 0.0
H1058 H 0.91248 0.56128 0.83513 0.0
H1059 H 0.88871 0.56301 0.71884 0.0
H1060 H 0.87487 0.55543 0.65651 0.0
H1061 H 0.849 0.52906 0.74051 0.0
H1062 H 0.86274 0.53638 0.80323 0.0
H1063 H 0.89386 0.59094 0.98161 0.0
H1064 H 0.90043 0.58427 0.91831 0.0
H1065 H 0.86935 0.55045 0.92658 0.0
H1066 H 0.8626 0.55718 0.98935 0.0
H1067 H 0.87321 0.55722 0.84363 0.0
H1068 H 0.89698 0.55554 0.95989 0.0
H1069 H 0.91082 0.56314 0.02223 0.0
H1070 H 0.93669 0.5895 0.93817 0.0
H1071 H 0.92295 0.58215 0.87544 0.0
C1072 C 0.89708 0.53653 0.70778 0.0
C1073 C 0.90793 0.5439 0.68773 0.0
C1074 C 0.89333 0.54035 0.74415 0.0
C1075 C 0.90023 0.55171 0.76102 0.0
C1076 C 0.91103 0.55911 0.74076 0.0
C1077 C 0.91484 0.55525 0.70461 0.0
C1078 C 0.89634 0.55576 0.8004 0.0
C1079 C 0.90395 0.56055 0.83661 0.0
C1080 C 0.88509 0.55456 0.80323 0.0
C1081 C 0.87679 0.55018 0.76563 0.0
C1082 C 0.8801 0.55554 0.72395 0.0
C1083 C 0.87227 0.5513 0.68856 0.0
C1084 C 0.86107 0.54175 0.69452 0.0
C1085 C 0.85767 0.53644 0.73592 0.0
C1086 C 0.86548 0.54065 0.77141 0.0
C1087 C 0.88846 0.58204 0.97027 0.0
C1088 C 0.87771 0.57459 0.99079 0.0
C1089 C 0.89225 0.57822 0.93403 0.0
C1090 C 0.88547 0.56679 0.91766 0.0
C1091 C 0.87477 0.5593 0.93839 0.0
C1092 C 0.87094 0.56315 0.97451 0.0
C1093 C 0.88935 0.56275 0.87829 0.0
C1094 C 0.88174 0.55796 0.84211 0.0
C1095 C 0.9006 0.56396 0.87546 0.0
C1096 C 0.90889 0.56836 0.91308 0.0
C1097 C 0.90559 0.56301 0.95478 0.0
C1098 C 0.91342 0.56726 0.99017 0.0
C1099 C 0.92461 0.57681 0.9842 0.0
C1100 C 0.92801 0.58211 0.94277 0.0
C1101 C 0.92021 0.5779 0.90728 0.0
H1102 H 0.93066 0.5801 0.01164 0.0
H1103 H 0.85502 0.53848 0.66707 0.0
H1104 H 0.56321 0.64107 0.31987 0.0
H1105 H 0.5704 0.65456 0.257 0.0
H1106 H 0.53633 0.65079 0.24077 0.0
H1107 H 0.52911 0.63738 0.30352 0.0
H1108 H 0.54528 0.64888 0.16193 0.0
H1109 H 0.558 0.67524 0.28474 0.0
H1110 H 0.56794 0.68357 0.35547 0.0
H1111 H 0.60072 0.6914 0.29809 0.0
H1112 H 0.59094 0.68295 0.22712 0.0
H1113 H 0.55916 0.69664 0.01826 0.0
H1114 H 0.55287 0.68301 0.08037 0.0
H1115 H 0.58763 0.68827 0.09218 0.0
H1116 H 0.594 0.70195 0.02997 0.0
H1117 H 0.57883 0.68922 0.17265 0.0
H1118 H 0.5661 0.66325 0.04904 0.0
H1119 H 0.55608 0.65499 0.97838 0.0
H1120 H 0.52325 0.64641 0.03729 0.0
H1121 H 0.5331 0.65478 0.1082 0.0
C1122 C 0.55727 0.64317 0.30308 0.0
C1123 C 0.54559 0.63815 0.31688 0.0
C1124 C 0.5614 0.6509 0.26716 0.0
C1125 C 0.55392 0.65374 0.24412 0.0
C1126 C 0.54227 0.64874 0.25788 0.0
C1127 C 0.53817 0.6411 0.29397 0.0
C1128 C 0.55817 0.66179 0.20532 0.0
C1129 C 0.55253 0.65774 0.16444 0.0
C1130 C 0.56781 0.67328 0.20814 0.0
C1131 C 0.57371 0.67834 0.25077 0.0
C1132 C 0.56731 0.67864 0.28731 0.0
C1133 C 0.57292 0.6834 0.32742 0.0
C1134 C 0.58495 0.68798 0.33131 0.0
C1135 C 0.5914 0.68783 0.29505 0.0
C1136 C 0.58583 0.68306 0.25487 0.0
C1137 C 0.56546 0.69484 0.03384 0.0
C1138 C 0.57708 0.70037 0.01896 0.0
C1139 C 0.56184 0.68701 0.06936 0.0
C1140 C 0.56974 0.68452 0.09093 0.0
C1141 C 0.58136 0.69003 0.07615 0.0
C1142 C 0.58497 0.69781 0.04039 0.0
C1143 C 0.56591 0.67632 0.12928 0.0
C1144 C 0.57161 0.68034 0.17009 0.0
C1145 C 0.55632 0.6648 0.1264 0.0
C1146 C 0.55036 0.65975 0.08382 0.0
C1147 C 0.55676 0.6597 0.04684 0.0
C1148 C 0.55111 0.65497 0.00676 0.0
C1149 C 0.53904 0.6502 1.00331 0.0
C1150 C 0.5326 0.65012 0.03999 0.0
C1151 C 0.53821 0.65485 0.08015 0.0
H1152 H 0.53468 0.64655 0.97225 0.0
H1153 H 0.58928 0.69166 0.36239 0.0
H1154 H 0.36722 0.92569 0.31121 0.0
H1155 H 0.35392 0.91945 0.24789 0.0
H1156 H 0.35272 0.88628 0.24721 0.0
H1157 H 0.3661 0.89252 0.31015 0.0
H1158 H 0.35573 0.89485 0.16528 0.0
H1159 H 0.32974 0.889 0.28554 0.0
H1160 H 0.3228 0.89465 0.35152 0.0
H1161 H 0.32071 0.92109 0.2767 0.0
H1162 H 0.32779 0.91571 0.21038 0.0
H1163 H 0.30732 0.8633 0.02281 0.0
H1164 H 0.32087 0.87053 0.08503 0.0
H1165 H 0.32036 0.90284 0.08264 0.0
H1166 H 0.30657 0.89554 0.02072 0.0
H1167 H 0.31854 0.89539 0.16524 0.0
H1168 H 0.34412 0.90094 0.0444 0.0
H1169 H 0.35105 0.89527 0.97847 0.0
H1170 H 0.354 0.86945 0.05426 0.0
H1171 H 0.34693 0.87486 0.12054 0.0
C1172 C 0.36406 0.91704 0.29779 0.0
C1173 C 0.36772 0.9096 0.31589 0.0
C1174 C 0.35642 0.91346 0.26159 0.0
C1175 C 0.35222 0.90234 0.2428 0.0
C1176 C 0.35583 0.8949 0.26098 0.0
C1177 C 0.36345 0.89846 0.29717 0.0
C1178 C 0.34427 0.89854 0.20367 0.0
C1179 C 0.34753 0.89483 0.16551 0.0
C1180 C 0.3337 0.8988 0.20333 0.0
C1181 C 0.32941 0.90203 0.24312 0.0
C1182 C 0.32789 0.89608 0.28325 0.0
C1183 C 0.32391 0.89922 0.32069 0.0
C1184 C 0.32135 0.90824 0.31833 0.0
C1185 C 0.32272 0.91412 0.27849 0.0
C1186 C 0.3267 0.91102 0.24096 0.0
C1187 C 0.31015 0.87199 0.03523 0.0
C1188 C 0.30588 0.87886 0.01656 0.0
C1189 C 0.31795 0.87614 0.07083 0.0
C1190 C 0.32179 0.88731 0.08841 0.0
C1191 C 0.31756 0.89421 0.06973 0.0
C1192 C 0.30971 0.89004 0.03415 0.0
C1193 C 0.32997 0.89164 0.12687 0.0
C1194 C 0.32676 0.89545 0.16492 0.0
C1195 C 0.3406 0.89149 0.12711 0.0
C1196 C 0.3449 0.88824 0.08734 0.0
C1197 C 0.34617 0.894 0.04693 0.0
C1198 C 0.35013 0.89084 0.00951 0.0
C1199 C 0.35294 0.88199 0.01215 0.0
C1200 C 0.35181 0.8763 0.05225 0.0
C1201 C 0.34784 0.87941 0.08977 0.0
H1202 H 0.356 0.87955 0.98314 0.0
H1203 H 0.31827 0.91066 0.34736 0.0
H1204 H 0.11578 0.47743 0.31501 0.0
H1205 H 0.12214 0.47047 0.25184 0.0
H1206 H 0.08961 0.43783 0.25484 0.0
H1207 H 0.08313 0.44482 0.31749 0.0
H1208 H 0.12611 0.45296 0.2387 0.0
H1209 H 0.08148 0.42717 0.15051 0.0
H1210 H 0.06311 0.42753 0.1429 0.0
H1211 H 0.0813 0.46431 0.17018 0.0
H1212 H 0.0998 0.46419 0.17737 0.0
H1213 H 0.11221 0.41384 0.02841 0.0
H1214 H 0.10575 0.42064 0.09186 0.0
H1215 H 0.13778 0.45372 0.08739 0.0
H1216 H 0.14433 0.44694 0.02432 0.0
H1217 H 0.10149 0.43829 0.10425 0.0
H1218 H 0.14606 0.46425 0.19214 0.0
H1219 H 0.16456 0.46411 0.19921 0.0
H1220 H 0.14667 0.42735 0.17183 0.0
H1221 H 0.12805 0.42724 0.1652 0.0
C1222 C 0.10999 0.46874 0.30238 0.0
C1223 C 0.09891 0.46171 0.32129 0.0
C1224 C 0.11365 0.46476 0.26621 0.0
C1225 C 0.10631 0.45367 0.24791 0.0
C1226 C 0.09537 0.44651 0.26762 0.0
C1227 C 0.0917 0.45049 0.30372 0.0
C1228 C 0.11006 0.44967 0.20811 0.0
C1229 C 0.12078 0.4499 0.20912 0.0
C1230 C 0.10305 0.44543 0.16962 0.0
C1231 C 0.09199 0.44563 0.16496 0.0
C1232 C 0.08156 0.43533 0.15475 0.0
C1233 C 0.07113 0.4355 0.15052 0.0
C1234 C 0.07103 0.44593 0.15621 0.0
C1235 C 0.08138 0.45622 0.16597 0.0
C1236 C 0.09184 0.45611 0.17018 0.0
C1237 C 0.11786 0.42259 0.04079 0.0
C1238 C 0.12882 0.42982 0.02129 0.0
C1239 C 0.11414 0.42648 0.0771 0.0
C1240 C 0.12132 0.43765 0.095 0.0
C1241 C 0.13215 0.44499 0.07483 0.0
C1242 C 0.13586 0.44112 0.03852 0.0
C1243 C 0.11754 0.44158 0.13487 0.0
C1244 C 0.10681 0.44134 0.13385 0.0
C1245 C 0.12456 0.44584 0.1733 0.0
C1246 C 0.13569 0.44577 0.1777 0.0
C1247 C 0.14608 0.45613 0.18777 0.0
C1248 C 0.15658 0.4561 0.19169 0.0
C1249 C 0.1568 0.44573 0.18582 0.0
C1250 C 0.1465 0.43538 0.17619 0.0
C1251 C 0.13597 0.43536 0.17229 0.0
H1252 H 0.16494 0.44573 0.18883 0.0
H1253 H 0.06295 0.44604 0.15295 0.0
H1254 H 0.11473 0.64263 0.32502 0.0
H1255 H 0.12141 0.65603 0.26211 0.0
H1256 H 0.08661 0.65032 0.24449 0.0
H1257 H 0.07986 0.63688 0.30743 0.0
H1258 H 0.09596 0.64897 0.16616 0.0
H1259 H 0.10774 0.6757 0.28715 0.0
H1260 H 0.11731 0.68449 0.35798 0.0
H1261 H 0.15057 0.69307 0.30322 0.0
H1262 H 0.14118 0.68417 0.23219 0.0
H1263 H 0.11132 0.69636 0.0157 0.0
H1264 H 0.10418 0.68304 0.079 0.0
H1265 H 0.13845 0.6874 0.09709 0.0
H1266 H 0.14562 0.70065 0.03374 0.0
H1267 H 0.12912 0.68956 0.1754 0.0
H1268 H 0.11726 0.66261 0.05473 0.0
H1269 H 0.10767 0.65384 0.9839 0.0
H1270 H 0.0745 0.64575 0.03821 0.0
H1271 H 0.08392 0.65463 0.10923 0.0
C1272 C 0.10851 0.6443 0.30804 0.0
C1273 C 0.09676 0.6387 0.32146 0.0
C1274 C 0.11235 0.65199 0.27205 0.0
C1275 C 0.10454 0.65426 0.24853 0.0
C1276 C 0.09281 0.64872 0.262 0.0
C1277 C 0.08898 0.64109 0.29821 0.0
C1278 C 0.10856 0.66221 0.20938 0.0
C1279 C 0.10309 0.6579 0.16838 0.0
C1280 C 0.11805 0.6738 0.21183 0.0
C1281 C 0.12374 0.67916 0.25448 0.0
C1282 C 0.11709 0.67936 0.29032 0.0
C1283 C 0.12248 0.68438 0.33048 0.0
C1284 C 0.13454 0.6893 0.33514 0.0
C1285 C 0.14123 0.68924 0.29958 0.0
C1286 C 0.13588 0.68422 0.25935 0.0
C1287 C 0.11732 0.69441 0.03291 0.0
C1288 C 0.12904 0.69955 0.01948 0.0
C1289 C 0.11322 0.68677 0.06911 0.0
C1290 C 0.12076 0.68417 0.09288 0.0
C1291 C 0.13246 0.68927 0.07941 0.0
C1292 C 0.13653 0.6968 0.04297 0.0
C1293 C 0.11654 0.6763 0.13221 0.0
C1294 C 0.12197 0.68063 0.17324 0.0
C1295 C 0.10701 0.66474 0.12979 0.0
C1296 C 0.10132 0.6594 0.08714 0.0
C1297 C 0.10793 0.65906 0.05145 0.0
C1298 C 0.10253 0.65405 0.01129 0.0
C1299 C 0.09049 0.64927 0.00651 0.0
C1300 C 0.08383 0.64947 0.04194 0.0
C1301 C 0.0892 0.65448 0.08216 0.0
H1302 H 0.08632 0.64539 0.9754 0.0
H1303 H 0.1387 0.69319 0.36625 0.0
H1304 H 0.36323 0.4431 0.32242 0.0
H1305 H 0.34981 0.4359 0.2595 0.0
H1306 H 0.35501 0.47044 0.23897 0.0
H1307 H 0.36802 0.47753 0.30287 0.0
H1308 H 0.33338 0.45575 0.22567 0.0
H1309 H 0.3688 0.45782 0.17426 0.0
H1310 H 0.38492 0.45355 0.17575 0.0
H1311 H 0.36036 0.41689 0.16475 0.0
H1312 H 0.34409 0.42094 0.16372 0.0
H1313 H 0.31028 0.44706 0.00853 0.0
H1314 H 0.32357 0.45387 0.07179 0.0
H1315 H 0.3171 0.41889 0.09285 0.0
H1316 H 0.30409 0.41213 0.02877 0.0
H1317 H 0.3392 0.43355 0.1061 0.0
H1318 H 0.3038 0.43166 0.15657 0.0
H1319 H 0.28779 0.4361 0.15461 0.0
H1320 H 0.31253 0.47269 0.1668 0.0
H1321 H 0.3287 0.46847 0.16829 0.0
C1322 C 0.36144 0.44914 0.3047 0.0
C1323 C 0.36674 0.4609 0.31771 0.0
C1324 C 0.35383 0.44503 0.26838 0.0
C1325 C 0.35152 0.45265 0.24353 0.0
C1326 C 0.35661 0.46435 0.25725 0.0
C1327 C 0.36408 0.46841 0.29391 0.0
C1328 C 0.34389 0.44853 0.20327 0.0
C1329 C 0.33478 0.45103 0.19932 0.0
C1330 C 0.34545 0.44212 0.16899 0.0
C1331 C 0.35523 0.43968 0.16933 0.0
C1332 C 0.36684 0.44885 0.17243 0.0
C1333 C 0.376 0.44646 0.17316 0.0
C1334 C 0.37366 0.43495 0.17047 0.0
C1335 C 0.36216 0.4258 0.1669 0.0
C1336 C 0.35296 0.42813 0.1662 0.0
C1337 C 0.31175 0.44083 0.02641 0.0
C1338 C 0.30607 0.42903 0.01357 0.0
C1339 C 0.31931 0.44472 0.06289 0.0
C1340 C 0.32121 0.43687 0.08797 0.0
C1341 C 0.31579 0.42515 0.07437 0.0
C1342 C 0.30833 0.42128 0.03762 0.0
C1343 C 0.32874 0.44082 0.12848 0.0
C1344 C 0.33782 0.43828 0.13247 0.0
C1345 C 0.32718 0.44722 0.16275 0.0
C1346 C 0.31746 0.44976 0.16214 0.0
C1347 C 0.30583 0.44066 0.15855 0.0
C1348 C 0.29673 0.44313 0.15757 0.0
C1349 C 0.29915 0.45467 0.16047 0.0
C1350 C 0.31067 0.46375 0.1645 0.0
C1351 C 0.31981 0.46133 0.16546 0.0
H1352 H 0.29209 0.45657 0.15969 0.0
H1353 H 0.38077 0.43312 0.17105 0.0
H1354 H 0.53049 0.88993 0.32479 0.0
H1355 H 0.53736 0.8835 0.26157 0.0
H1356 H 0.5671 0.91811 0.24885 0.0
H1357 H 0.56026 0.92461 0.3121 0.0
H1358 H 0.55695 0.90963 0.16913 0.0
H1359 H 0.57032 0.89609 0.28971 0.0
H1360 H 0.56868 0.88575 0.35938 0.0
H1361 H 0.54381 0.85327 0.29946 0.0
H1362 H 0.54516 0.86346 0.22956 0.0
H1363 H 0.58972 0.89485 0.02049 0.0
H1364 H 0.58302 0.90151 0.08367 0.0
H1365 H 0.55251 0.86737 0.09468 0.0
H1366 H 0.55912 0.86068 0.03134 0.0
H1367 H 0.56321 0.87571 0.1753 0.0
H1368 H 0.54984 0.88932 0.05479 0.0
H1369 H 0.55155 0.89969 0.98512 0.0
H1370 H 0.5766 0.93209 0.04503 0.0
H1371 H 0.57516 0.92188 0.11493 0.0
C1372 C 0.53855 0.89616 0.30884 0.0
C1373 C 0.54484 0.90779 0.32373 0.0
C1374 C 0.54249 0.89246 0.27265 0.0
C1375 C 0.5528 0.90029 0.25039 0.0
C1376 C 0.55912 0.91189 0.26535 0.0
C1377 C 0.55523 0.91558 0.30174 0.0
C1378 C 0.55684 0.89643 0.21103 0.0
C1379 C 0.55848 0.90232 0.1707 0.0
C1380 C 0.5586 0.88672 0.21256 0.0
C1381 C 0.55775 0.88056 0.25453 0.0
C1382 C 0.56442 0.88676 0.29149 0.0
C1383 C 0.56356 0.88092 0.33101 0.0
C1384 C 0.55612 0.86887 0.33388 0.0
C1385 C 0.54955 0.86262 0.2972 0.0
C1386 C 0.55037 0.86842 0.25762 0.0
C1387 C 0.58153 0.88879 0.03607 0.0
C1388 C 0.57494 0.87723 0.02067 0.0
C1389 C 0.57769 0.89261 0.07223 0.0
C1390 C 0.56723 0.88496 0.09402 0.0
C1391 C 0.56062 0.87344 0.07854 0.0
C1392 C 0.56438 0.86964 0.0421 0.0
C1393 C 0.56331 0.8889 0.13344 0.0
C1394 C 0.56169 0.88303 0.17377 0.0
C1395 C 0.56159 0.89863 0.13193 0.0
C1396 C 0.56249 0.90481 0.08995 0.0
C1397 C 0.55579 0.89864 0.05299 0.0
C1398 C 0.5567 0.90449 0.01348 0.0
C1399 C 0.5642 0.91654 0.01061 0.0
C1400 C 0.5708 0.92276 0.04729 0.0
C1401 C 0.56994 0.91694 0.08687 0.0
H1402 H 0.56489 0.92106 0.98 0.0
H1403 H 0.55547 0.86436 0.3645 0.0
H1404 H 0.19723 0.95595 0.92168 0.0
H1405 H 0.20614 0.971 0.97747 0.0
H1406 H 0.2263 0.99628 0.87736 0.0
H1407 H 0.21747 0.98099 0.82034 0.0
H1408 H 0.23937 0.99926 0.95058 0.0
H1409 H 0.20225 0.99557 0.92263 0.0
H1410 H 0.18092 0.98539 0.91242 0.0
H1411 H 0.17597 0.97246 0.04531 0.0
H1412 H 0.19729 0.98242 0.05614 0.0
H1413 H 0.25143 0.04866 0.08222 0.0
H1414 H 0.24486 0.03333 0.02666 0.0
H1415 H 0.22789 0.00725 0.12775 0.0
H1416 H 0.23463 0.02271 0.18426 0.0
H1417 H 0.21349 0.00487 0.05395 0.0
H1418 H 0.25121 0.00946 0.08112 0.0
H1419 H 0.27259 0.02038 0.08984 0.0
H1420 H 0.27642 0.03268 0.9563 0.0
H1421 H 0.25504 0.02196 0.94696 0.0
C1422 C 0.20352 0.9647 0.91104 0.0
C1423 C 0.20648 0.96724 0.86609 0.0
C1424 C 0.20861 0.97333 0.94328 0.0
C1425 C 0.21671 0.98485 0.93172 0.0
C1426 C 0.22 0.98746 0.88709 0.0
C1427 C 0.21492 0.97872 0.8545 0.0
C1428 C 0.22157 0.99403 0.96671 0.0
C1429 C 0.23371 1.00061 0.97272 0.0
C1430 C 0.21421 0.99565 0.99638 0.0
C1431 C 0.20137 0.98966 0.99006 0.0
C1432 C 0.19662 0.99048 0.94957 0.0
C1433 C 0.18452 0.98476 0.94369 0.0
C1434 C 0.17709 0.97826 0.97816 0.0
C1435 C 0.18174 0.97749 0.01863 0.0
C1436 C 0.19383 0.98318 0.02467 0.0
C1437 C 0.24638 0.03966 0.09287 0.0
C1438 C 0.24349 0.0369 0.13771 0.0
C1439 C 0.24268 0.0309 0.06098 0.0
C1440 C 0.23592 0.01914 0.07297 0.0
C1441 C 0.23314 0.01628 0.11781 0.0
C1442 C 0.23702 0.0251 0.15005 0.0
C1443 C 0.23125 0.01 0.03801 0.0
C1444 C 0.21913 0.00347 0.03188 0.0
C1445 C 0.23864 0.00854 0.00802 0.0
C1446 C 0.25151 0.01498 0.01348 0.0
C1447 C 0.2566 0.01457 0.05372 0.0
C1448 C 0.26872 0.02071 0.05876 0.0
C1449 C 0.27586 0.02725 0.02368 0.0
C1450 C 0.27088 0.02763 0.98346 0.0
C1451 C 0.25876 0.02151 0.97826 0.0
H1452 H 0.28524 0.03199 0.02764 0.0
H1453 H 0.16773 0.97384 0.97355 0.0
H1454 H 0.98314 0.21011 0.18593 0.0
H1455 H 0.99804 0.21848 0.12765 0.0
H1456 H 0.97289 0.21954 0.03977 0.0
H1457 H 0.95801 0.21073 0.09695 0.0
H1458 H 0.98282 0.21053 0.99761 0.0
H1459 H 0.99731 0.24488 0.08663 0.0
H1460 H 0.00422 0.25673 0.15451 0.0
H1461 H 0.03255 0.2498 0.164 0.0
H1462 H 0.02572 0.23778 0.09647 0.0
H1463 H 0.02593 0.24224 0.82786 0.0
H1464 H 0.01085 0.23702 0.88486 0.0
H1465 H 0.03115 0.22934 0.97591 0.0
H1466 H 0.04602 0.23438 0.92011 0.0
H1467 H 0.02349 0.24305 0.01399 0.0
H1468 H 0.00775 0.20767 0.92648 0.0
H1469 H 1.00073 0.19621 0.85774 0.0
H1470 H 0.97448 0.20601 0.84453 0.0
H1471 H 0.98146 0.21767 0.91294 0.0
C1472 C 0.98092 0.21238 0.15444 0.0
C1473 C 0.96945 0.20978 0.14584 0.0
C1474 C 0.98942 0.21717 0.12107 0.0
C1475 C 0.98664 0.21969 0.07902 0.0
C1476 C 0.97529 0.2176 0.07155 0.0
C1477 C 0.96679 0.21263 0.10438 0.0
C1478 C 0.99519 0.22375 0.04177 0.0
C1479 C 0.99164 0.21779 1.00114 0.0
C1480 C 0.0068 0.2331 0.04611 0.0
C1481 C 0.01094 0.24034 0.0867 0.0
C1482 C 0.00496 0.24581 0.10337 0.0
C1483 C 0.00887 0.25257 0.14175 0.0
C1484 C 0.0188 0.25399 0.16361 0.0
C1485 C 0.02486 0.24868 0.14706 0.0
C1486 C 0.02098 0.2419 0.10871 0.0
C1487 C 0.02712 0.23935 0.85989 0.0
C1488 C 0.03725 0.23877 0.86912 0.0
C1489 C 0.01851 0.23639 0.89247 0.0
C1490 C 0.01992 0.23285 0.93481 0.0
C1491 C 0.02992 0.23215 0.94373 0.0
C1492 C 0.03841 0.235 0.91142 0.0
C1493 C 0.01107 0.2298 0.97032 0.0
C1494 C 0.01459 0.2359 0.01056 0.0
C1495 C 0.99941 0.22067 0.96553 0.0
C1496 C 0.99522 0.21365 0.9245 0.0
C1497 C 1.00055 0.20746 0.9087 0.0
C1498 C 0.99657 0.20092 0.86985 0.0
C1499 C 0.98719 0.20041 0.8467 0.0
C1500 C 0.98176 0.20643 0.86244 0.0
C1501 C 0.98572 0.213 0.90125 0.0
H1502 H 0.98412 0.19534 0.81664 0.0
H1503 H 0.02182 0.25923 0.19332 0.0
H1504 H 0.77375 0.79231 0.82139 0.0
H1505 H 0.77995 0.78369 0.87988 0.0
H1506 H 0.75913 0.78973 0.97442 0.0
H1507 H 0.75343 0.79874 0.91695 0.0
H1508 H 0.77881 0.79668 0.00918 0.0
H1509 H 0.75208 0.76148 0.93351 0.0
H1510 H 0.74363 0.74819 0.8699 0.0
H1511 H 0.77591 0.74848 0.8508 0.0
H1512 H 0.7846 0.7619 0.91397 0.0
H1513 H 0.78733 0.76443 0.18415 0.0
H1514 H 0.77777 0.77019 0.12772 0.0
H1515 H 0.8014 0.77053 0.02906 0.0
H1516 H 0.8109 0.76489 0.08417 0.0
H1517 H 0.77896 0.75937 0.99916 0.0
H1518 H 0.80566 0.79559 0.07309 0.0
H1519 H 0.8137 0.80864 0.13758 0.0
H1520 H 0.78036 0.80574 0.16112 0.0
H1521 H 0.77209 0.79254 0.09706 0.0
C1522 C 0.7704 0.79163 0.85456 0.0
C1523 C 0.76319 0.79627 0.86469 0.0
C1524 C 0.77392 0.78667 0.88803 0.0
C1525 C 0.77 0.786 0.93187 0.0
C1526 C 0.7624 0.79022 0.94122 0.0
C1527 C 0.7591 0.79534 0.90822 0.0
C1528 C 0.77424 0.78156 0.9687 0.0
C1529 C 0.77862 0.7884 0.00711 0.0
C1530 C 0.77423 0.77086 0.96619 0.0
C1531 C 0.76902 0.76278 0.92822 0.0
C1532 C 0.7574 0.75878 0.91554 0.0
C1533 C 0.75257 0.75121 0.8796 0.0
C1534 C 0.75924 0.74752 0.85626 0.0
C1535 C 0.77076 0.75136 0.86888 0.0
C1536 C 0.77564 0.75894 0.90478 0.0
C1537 C 0.79049 0.76576 0.15046 0.0
C1538 C 0.79995 0.76425 0.13903 0.0
C1539 C 0.78502 0.76905 0.11824 0.0
C1540 C 0.78888 0.77079 0.07408 0.0
C1541 C 0.79823 0.76919 0.06275 0.0
C1542 C 0.80371 0.76603 0.09467 0.0
C1543 C 0.78347 0.7745 0.03923 0.0
C1544 C 0.77895 0.76755 1.00121 0.0
C1545 C 0.78325 0.78504 0.04221 0.0
C1546 C 0.78822 0.79298 0.08064 0.0
C1547 C 0.80002 0.79766 0.09226 0.0
C1548 C 0.80462 0.80509 0.12868 0.0
C1549 C 0.79753 0.80798 0.15352 0.0
C1550 C 0.78583 0.80347 0.14191 0.0
C1551 C 0.78119 0.79602 0.10554 0.0
H1552 H 0.80111 0.81374 0.1817 0.0
H1553 H 0.75548 0.74166 0.82844 0.0
H1554 H 0.76576 0.98017 0.82289 0.0
H1555 H 0.77138 0.99541 0.87954 0.0
H1556 H 0.77119 0.97188 0.97837 0.0
H1557 H 0.76566 0.9568 0.92299 0.0
H1558 H 0.76021 0.98325 0.00802 0.0
H1559 H 0.79652 0.99281 0.9354 0.0
H1560 H 0.80968 0.99779 0.87139 0.0
H1561 H 0.80684 0.02821 0.8468 0.0
H1562 H 0.79352 0.02332 0.91037 0.0
H1563 H 0.79305 0.02187 0.18554 0.0
H1564 H 0.78446 0.00688 0.1275 0.0
H1565 H 0.79007 0.03344 0.03213 0.0
H1566 H 0.799 0.04831 0.08917 0.0
H1567 H 0.79742 0.02081 0.9984 0.0
H1568 H 0.76205 0.0122 0.07281 0.0
H1569 H 0.74871 0.00736 0.13616 0.0
H1570 H 0.74924 0.97553 0.1565 0.0
H1571 H 0.76271 0.98025 0.09359 0.0
C1572 C 0.76693 0.97826 0.85666 0.0
C1573 C 0.7653 0.96724 0.86805 0.0
C1574 C 0.77015 0.98698 0.88902 0.0
C1575 C 0.77171 0.98478 0.9333 0.0
C1576 C 0.76999 0.97378 0.9446 0.0
C1577 C 0.76689 0.96516 0.91253 0.0
C1578 C 0.77537 0.99388 0.96824 0.0
C1579 C 0.76838 0.99145 0.00607 0.0
C1580 C 0.7859 0.00467 0.9654 0.0
C1581 C 0.79392 0.00763 0.92729 0.0
C1582 C 0.79862 1.0005 0.91611 0.0
C1583 C 0.80613 0.00332 0.87996 0.0
C1584 C 0.80906 0.01329 0.85496 0.0
C1585 C 0.80453 0.02048 0.86614 0.0
C1586 C 0.79701 0.0177 0.90223 0.0
C1587 C 0.79226 0.02443 0.1523 0.0
C1588 C 0.79676 0.03625 0.1418 0.0
C1589 C 0.78734 0.01587 0.11909 0.0
C1590 C 0.78659 0.01899 0.07515 0.0
C1591 C 0.79063 0.03076 0.06544 0.0
C1592 C 0.7957 0.03927 0.0982 0.0
C1593 C 0.78226 0.01023 0.03853 0.0
C1594 C 0.78917 0.01269 1.00037 0.0
C1595 C 0.7716 0.99951 0.04098 0.0
C1596 C 0.76348 0.99664 0.07875 0.0
C1597 C 0.75939 0.00421 0.091 0.0
C1598 C 0.75179 1.00148 0.12679 0.0
C1599 C 0.74815 0.99116 0.15041 0.0
C1600 C 0.75208 0.98353 0.1382 0.0
C1601 C 0.75969 0.98622 0.10246 0.0
H1602 H 0.74227 0.98906 0.17811 0.0
H1603 H 0.81488 0.01546 0.82699 0.0
H1604 H 0.02469 0.79127 0.8215 0.0
H1605 H 0.0095 0.783 0.87896 0.0
H1606 H 0.03595 0.79186 0.97846 0.0
H1607 H 0.05103 0.80012 0.92187 0.0
H1608 H 0.01655 0.77008 0.99306 0.0
H1609 H 0.02562 0.80957 0.96252 0.0
H1610 H 0.02784 0.82567 0.91487 0.0
H1611 H 0.99168 0.80575 0.87847 0.0
H1612 H 0.98929 0.78947 0.92546 0.0
H1613 H 0.98305 0.7673 0.18542 0.0
H1614 H 0.99836 0.77333 0.12887 0.0
H1615 H 0.9737 0.76989 0.02842 0.0
H1616 H 0.95871 0.76429 0.08384 0.0
H1617 H 0.99266 0.78896 0.01474 0.0
H1618 H 0.98315 0.74945 0.04466 0.0
H1619 H 0.98064 0.73303 0.09096 0.0
H1620 H 0.01687 0.75219 0.12684 0.0
H1621 H 0.01956 0.7688 0.08117 0.0
C1622 C 0.02722 0.79129 0.85555 0.0
C1623 C 0.03906 0.79647 0.86716 0.0
C1624 C 0.01856 0.78661 0.88836 0.0
C1625 C 0.02161 0.78691 0.93313 0.0
C1626 C 0.03338 0.79154 0.94428 0.0
C1627 C 0.04199 0.79633 0.91181 0.0
C1628 C 0.01273 0.78311 0.96891 0.0
C1629 C 0.01136 0.77424 0.99802 0.0
C1630 C 0.00589 0.78846 0.97521 0.0
C1631 C 0.00731 0.79826 0.94709 0.0
C1632 C 0.01817 0.80859 0.94406 0.0
C1633 C 0.01945 0.81775 0.91723 0.0
C1634 C 0.00992 0.81672 0.89356 0.0
C1635 C 0.99907 0.80653 0.89676 0.0
C1636 C 0.99774 0.79734 0.9235 0.0
C1637 C 0.98093 0.76785 0.15128 0.0
C1638 C 0.96964 0.76539 0.1395 0.0
C1639 C 0.98967 0.77124 0.11889 0.0
C1640 C 0.9872 0.77204 0.07411 0.0
C1641 C 0.97592 0.76947 0.06257 0.0
C1642 C 0.9673 0.76624 0.09463 0.0
C1643 C 0.99625 0.77573 0.03877 0.0
C1644 C 0.99775 0.78469 0.00981 0.0
C1645 C 1.00311 0.77038 0.03247 0.0
C1646 C 1.00152 0.76041 0.05991 0.0
C1647 C 0.99056 0.7502 0.06271 0.0
C1648 C 0.98911 0.74085 0.08878 0.0
C1649 C 0.99859 0.74158 0.11194 0.0
C1650 C 0.00954 0.75165 0.10896 0.0
C1651 C 0.01103 0.76103 0.08296 0.0
H1652 H 0.99745 0.73433 0.1321 0.0
H1653 H 0.01093 0.82383 0.87281 0.0
H1654 H 0.23402 0.21156 0.18794 0.0
H1655 H 0.22707 0.21985 0.13064 0.0
H1656 H 0.24653 0.21318 0.03215 0.0
H1657 H 0.2533 0.2048 0.08862 0.0
H1658 H 0.24788 0.23507 0.02157 0.0
H1659 H 0.21919 0.19438 0.04124 0.0
H1660 H 0.20551 0.17705 0.0842 0.0
H1661 H 0.18647 0.19407 0.12229 0.0
H1662 H 0.20016 0.21158 0.08004 0.0
H1663 H 0.21837 0.23832 0.82642 0.0
H1664 H 0.22766 0.23234 0.8831 0.0
H1665 H 0.20414 0.23254 0.98117 0.0
H1666 H 0.19475 0.23812 0.92551 0.0
H1667 H 0.20534 0.21395 0.99154 0.0
H1668 H 0.23353 0.25459 0.97243 0.0
H1669 H 0.24724 0.27225 0.93116 0.0
H1670 H 0.26717 0.25611 0.89406 0.0
H1671 H 0.25348 0.23828 0.93465 0.0
C1672 C 0.23693 0.21203 0.15418 0.0
C1673 C 0.2441 0.20743 0.14271 0.0
C1674 C 0.23293 0.21672 0.12147 0.0
C1675 C 0.23623 0.21706 0.07704 0.0
C1676 C 0.24387 0.21302 0.06611 0.0
C1677 C 0.24768 0.20816 0.09846 0.0
C1678 C 0.23115 0.22085 0.04126 0.0
C1679 C 0.23859 0.23042 0.01475 0.0
C1680 C 0.21903 0.21485 0.03261 0.0
C1681 C 0.21078 0.20433 0.05793 0.0
C1682 C 0.21215 0.19447 0.05912 0.0
C1683 C 0.20438 0.18461 0.08327 0.0
C1684 C 0.19515 0.18448 0.10608 0.0
C1685 C 0.19364 0.1942 0.10468 0.0
C1686 C 0.2014 0.20409 0.08063 0.0
C1687 C 0.21519 0.23707 0.86006 0.0
C1688 C 0.20575 0.23865 0.87107 0.0
C1689 C 0.22055 0.23371 0.89253 0.0
C1690 C 0.21665 0.23204 0.93667 0.0
C1691 C 0.20729 0.23368 0.94749 0.0
C1692 C 0.20191 0.23691 0.91531 0.0
C1693 C 0.22202 0.22836 0.97197 0.0
C1694 C 0.21463 0.21869 0.99832 0.0
C1695 C 0.23417 0.23436 0.98063 0.0
C1696 C 0.2424 0.24505 0.95614 0.0
C1697 C 0.24078 0.25477 0.95515 0.0
C1698 C 0.24856 0.26482 0.93195 0.0
C1699 C 0.25805 0.26529 0.90989 0.0
C1700 C 0.2598 0.25572 0.91109 0.0
C1701 C 0.25204 0.24564 0.9342 0.0
H1702 H 0.26407 0.27308 0.89196 0.0
H1703 H 0.18913 0.17683 0.12474 0.0
H1704 H 0.89081 0.36766 0.46882 0.0
H1705 H 0.8848 0.35266 0.41169 0.0
H1706 H 0.9158 0.35053 0.43539 0.0
H1707 H 0.92172 0.36541 0.49386 0.0
H1708 H 0.91091 0.35459 0.34156 0.0
H1709 H 0.89339 0.32846 0.46367 0.0
H1710 H 0.88154 0.32115 0.53133 0.0
H1711 H 0.85135 0.31634 0.46047 0.0
H1712 H 0.86306 0.32379 0.3925 0.0
H1713 H 0.89093 0.30721 0.18434 0.0
H1714 H 0.89978 0.32118 0.24533 0.0
H1715 H 0.86655 0.31864 0.27196 0.0
H1716 H 0.85766 0.30435 0.21272 0.0
H1717 H 0.87455 0.31612 0.34457 0.0
H1718 H 0.89147 0.34381 0.22585 0.0
H1719 H 0.90276 0.35209 0.1575 0.0
H1720 H 0.93326 0.35504 0.2198 0.0
H1721 H 0.92211 0.34663 0.28838 0.0
C1722 C 0.8962 0.36379 0.4626 0.0
C1723 C 0.90667 0.36761 0.48599 0.0
C1724 C 0.89279 0.35526 0.42985 0.0
C1725 C 0.89988 0.35053 0.41916 0.0
C1726 C 0.91022 0.3541 0.44317 0.0
C1727 C 0.91352 0.36248 0.4768 0.0
C1728 C 0.89658 0.34227 0.38152 0.0
C1729 C 0.90309 0.34606 0.34233 0.0
C1730 C 0.88622 0.33132 0.38228 0.0
C1731 C 0.87913 0.32677 0.42306 0.0
C1732 C 0.88425 0.32593 0.46259 0.0
C1733 C 0.87755 0.32175 0.50099 0.0
C1734 C 0.86571 0.3183 0.50022 0.0
C1735 C 0.86053 0.31902 0.46102 0.0
C1736 C 0.86719 0.32321 0.42253 0.0
C1737 C 0.88562 0.3099 0.20256 0.0
C1738 C 0.87362 0.30473 0.19378 0.0
C1739 C 0.89067 0.31786 0.23754 0.0
C1740 C 0.88385 0.321 0.2636 0.0
C1741 C 0.87201 0.31631 0.2529 0.0
C1742 C 0.86694 0.30821 0.21872 0.0
C1743 C 0.88869 0.32851 0.3037 0.0
C1744 C 0.88245 0.32458 0.34357 0.0
C1745 C 0.89921 0.33942 0.30324 0.0
C1746 C 0.90592 0.34446 0.26206 0.0
C1747 C 0.90056 0.34614 0.22485 0.0
C1748 C 0.90694 0.35087 0.1861 0.0
C1749 C 0.91871 0.35406 0.18426 0.0
C1750 C 0.92414 0.35255 0.22124 0.0
C1751 C 0.91779 0.3478 0.26006 0.0
H1752 H 0.92363 0.35772 0.15423 0.0
H1753 H 0.86054 0.31506 0.52999 0.0
H1754 H 0.71135 0.56523 0.24845 0.0
H1755 H 0.69638 0.55951 0.3041 0.0
H1756 H 0.67712 0.56994 0.21883 0.0
H1757 H 0.69247 0.5761 0.16237 0.0
H1758 H 0.67744 0.57726 0.302 0.0
H1759 H 0.66777 0.54095 0.23674 0.0
H1760 H 0.671 0.52543 0.20731 0.0
H1761 H 0.68214 0.52089 0.33531 0.0
H1762 H 0.67913 0.53651 0.36541 0.0
H1763 H 0.62454 0.5436 0.4279 0.0
H1764 H 0.63968 0.5519 0.37105 0.0
H1765 H 0.66407 0.55013 0.46068 0.0
H1766 H 0.64893 0.5421 0.51848 0.0
H1767 H 0.66039 0.53841 0.3735 0.0
H1768 H 0.66965 0.57537 0.43713 0.0
H1769 H 0.66524 0.59032 0.46397 0.0
H1770 H 0.6531 0.59265 0.3349 0.0
H1771 H 0.65728 0.57757 0.30742 0.0
C1772 C 0.70394 0.5663 0.24098 0.0
C1773 C 0.70317 0.57114 0.20051 0.0
C1774 C 0.69531 0.56294 0.27305 0.0
C1775 C 0.6855 0.56411 0.26563 0.0
C1776 C 0.68459 0.5689 0.2253 0.0
C1777 C 0.69333 0.57235 0.19293 0.0
C1778 C 0.67645 0.56051 0.3008 0.0
C1779 C 0.67356 0.56869 0.31709 0.0
C1780 C 0.67149 0.54939 0.32115 0.0
C1781 C 0.67332 0.53998 0.30324 0.0
C1782 C 0.671 0.53671 0.25855 0.0
C1783 C 0.67277 0.52788 0.24176 0.0
C1784 C 0.6768 0.52219 0.2694 0.0
C1785 C 0.67903 0.52531 0.31393 0.0
C1786 C 0.67728 0.53414 0.33089 0.0
C1787 C 0.63321 0.54523 0.43581 0.0
C1788 C 0.6356 0.54226 0.47756 0.0
C1789 C 0.64185 0.54997 0.40332 0.0
C1790 C 0.65299 0.55162 0.41161 0.0
C1791 C 0.65552 0.54895 0.45372 0.0
C1792 C 0.64692 0.54445 0.48673 0.0
C1793 C 0.66158 0.55521 0.37502 0.0
C1794 C 0.66429 0.54697 0.35834 0.0
C1795 C 0.66619 0.56618 0.35391 0.0
C1796 C 0.66366 0.57524 0.37034 0.0
C1797 C 0.66593 0.57898 0.41457 0.0
C1798 C 0.6635 0.5875 0.42987 0.0
C1799 C 0.65886 0.59241 0.40119 0.0
C1800 C 0.65668 0.58883 0.3571 0.0
C1801 C 0.65909 0.5803 0.34163 0.0
H1802 H 0.65699 0.59901 0.4131 0.0
H1803 H 0.67816 0.51536 0.25634 0.0
H1804 H 0.41955 0.1319 0.25593 0.0
H1805 H 0.42546 0.12313 0.31373 0.0
H1806 H 0.44809 0.11917 0.22154 0.0
H1807 H 0.4417 0.12754 0.16256 0.0
H1808 H 0.43875 0.10117 0.27519 0.0
H1809 H 0.45835 0.14253 0.2976 0.0
H1810 H 0.45993 0.16177 0.30702 0.0
H1811 H 0.43875 0.14959 0.42374 0.0
H1812 H 0.43692 0.13022 0.41468 0.0
H1813 H 0.47886 0.10073 0.42546 0.0
H1814 H 0.46928 0.10633 0.37059 0.0
H1815 H 0.44395 0.10316 0.46713 0.0
H1816 H 0.45355 0.09737 0.52334 0.0
H1817 H 0.45342 0.12388 0.41415 0.0
H1818 H 0.43552 0.08257 0.39272 0.0
H1819 H 0.43531 0.06398 0.38243 0.0
H1820 H 0.45495 0.07695 0.26253 0.0
H1821 H 0.45544 0.09569 0.27242 0.0
C1822 C 0.42571 0.12906 0.2478 0.0
C1823 C 0.43028 0.13054 0.20486 0.0
C1824 C 0.42914 0.1241 0.28101 0.0
C1825 C 0.43752 0.12082 0.27256 0.0
C1826 C 0.44169 0.12174 0.22907 0.0
C1827 C 0.43805 0.12651 0.19536 0.0
C1828 C 0.44212 0.1168 0.30955 0.0
C1829 C 0.44206 0.10621 0.30533 0.0
C1830 C 0.44625 0.12322 0.3495 0.0
C1831 C 0.44741 0.13489 0.35521 0.0
C1832 C 0.45397 0.14393 0.32511 0.0
C1833 C 0.45492 0.15487 0.33041 0.0
C1834 C 0.44942 0.15689 0.36589 0.0
C1835 C 0.44299 0.148 0.39624 0.0
C1836 C 0.442 0.13705 0.39106 0.0
C1837 C 0.47127 0.10121 0.43556 0.0
C1838 C 0.46699 0.09854 0.4792 0.0
C1839 C 0.46576 0.10437 0.40378 0.0
C1840 C 0.4558 0.105 0.41447 0.0
C1841 C 0.45159 0.10264 0.45812 0.0
C1842 C 0.45709 0.09934 0.49019 0.0
C1843 C 0.45006 0.1083 0.37962 0.0
C1844 C 0.44997 0.11879 0.38416 0.0
C1845 C 0.44596 0.10188 0.33979 0.0
C1846 C 0.44558 0.09057 0.33349 0.0
C1847 C 0.43987 0.08149 0.36432 0.0
C1848 C 0.43968 0.07092 0.35853 0.0
C1849 C 0.44513 0.0693 0.32189 0.0
C1850 C 0.45074 0.07823 0.2909 0.0
C1851 C 0.45096 0.08882 0.29655 0.0
H1852 H 0.44498 0.06111 0.31748 0.0
H1853 H 0.45016 0.16537 0.36993 0.0
H1854 H 0.45162 0.30744 0.19056 0.0
H1855 H 0.45759 0.32182 0.24997 0.0
H1856 H 0.42308 0.31761 0.25177 0.0
H1857 H 0.41735 0.30372 0.19011 0.0
H1858 H 0.43765 0.33891 0.27216 0.0
H1859 H 0.43204 0.30268 0.32581 0.0
H1860 H 0.43441 0.28536 0.32851 0.0
H1861 H 0.47112 0.30728 0.35217 0.0
H1862 H 0.469 0.32475 0.34901 0.0
H1863 H 0.44851 0.36337 0.49271 0.0
H1864 H 0.43974 0.34838 0.43462 0.0
H1865 H 0.47405 0.35605 0.39366 0.0
H1866 H 0.4828 0.37108 0.45063 0.0
H1867 H 0.45716 0.33166 0.3982 0.0
H1868 H 0.4618 0.36802 0.33916 0.0
H1869 H 0.45825 0.38462 0.33952 0.0
H1870 H 0.42133 0.36097 0.33126 0.0
H1871 H 0.42466 0.34422 0.3315 0.0
C1872 C 0.44543 0.30987 0.20282 0.0
C1873 C 0.43406 0.30455 0.18572 0.0
C1874 C 0.44878 0.31796 0.23724 0.0
C1875 C 0.44067 0.32052 0.25667 0.0
C1876 C 0.42949 0.31573 0.23777 0.0
C1877 C 0.42623 0.30784 0.20238 0.0
C1878 C 0.44375 0.32772 0.29783 0.0
C1879 C 0.44174 0.33718 0.29993 0.0
C1880 C 0.44906 0.32552 0.33451 0.0
C1881 C 0.45037 0.31503 0.33685 0.0
C1882 C 0.44063 0.30381 0.33135 0.0
C1883 C 0.44193 0.29397 0.33298 0.0
C1884 C 0.45292 0.29522 0.34042 0.0
C1885 C 0.46262 0.30632 0.34638 0.0
C1886 C 0.46137 0.3162 0.34472 0.0
C1887 C 0.45414 0.36168 0.47182 0.0
C1888 C 0.46634 0.3684 0.47615 0.0
C1889 C 0.44914 0.35319 0.43849 0.0
C1890 C 0.45626 0.35117 0.40959 0.0
C1891 C 0.46839 0.35746 0.41549 0.0
C1892 C 0.47338 0.36606 0.44806 0.0
C1893 C 0.45129 0.34292 0.37185 0.0
C1894 C 0.45294 0.33326 0.37052 0.0
C1895 C 0.44545 0.3448 0.33642 0.0
C1896 C 0.44347 0.35487 0.33588 0.0
C1897 C 0.45292 0.36636 0.33781 0.0
C1898 C 0.45095 0.3758 0.33783 0.0
C1899 C 0.43957 0.37385 0.33556 0.0
C1900 C 0.43014 0.36247 0.33311 0.0
C1901 C 0.43206 0.353 0.33315 0.0
H1902 H 0.43806 0.38117 0.33559 0.0
H1903 H 0.45391 0.28759 0.34165 0.0
H1904 H 0.68969 0.12304 0.15607 0.0
H1905 H 0.67415 0.11381 0.21198 0.0
H1906 H 0.70009 0.1263 0.31518 0.0
H1907 H 0.71546 0.13546 0.26026 0.0
H1908 H 0.6827 0.10381 0.33068 0.0
H1909 H 0.68651 0.141 0.29147 0.0
H1910 H 0.68661 0.1555 0.24008 0.0
H1911 H 0.65123 0.13129 0.20294 0.0
H1912 H 0.65099 0.11658 0.25371 0.0
H1913 H 0.64847 0.10046 0.52063 0.0
H1914 H 0.66341 0.10663 0.46261 0.0
H1915 H 0.63695 0.09779 0.36303 0.0
H1916 H 0.62224 0.09198 0.41998 0.0
H1917 H 0.65441 0.11782 0.34401 0.0
H1918 H 0.64997 0.08077 0.38468 0.0
H1919 H 0.64967 0.06601 0.43517 0.0
H1920 H 0.68561 0.0892 0.46825 0.0
H1921 H 0.68608 0.10417 0.41837 0.0
C1922 C 0.69204 0.12369 0.19064 0.0
C1923 C 0.7038 0.13011 0.2037 0.0
C1924 C 0.68318 0.11845 0.22255 0.0
C1925 C 0.68597 0.11945 0.26786 0.0
C1926 C 0.69771 0.12541 0.28056 0.0
C1927 C 0.7065 0.13072 0.24899 0.0
C1928 C 0.67679 0.1149 0.30262 0.0
C1929 C 0.67653 0.1069 0.33376 0.0
C1930 C 0.66865 0.11881 0.30639 0.0
C1931 C 0.66878 0.12765 0.27597 0.0
C1932 C 0.67879 0.13874 0.27206 0.0
C1933 C 0.67887 0.147 0.2431 0.0
C1934 C 0.66895 0.1443 0.21816 0.0
C1935 C 0.65892 0.13335 0.22221 0.0
C1936 C 0.65881 0.12505 0.25108 0.0
C1937 C 0.64587 0.09981 0.48636 0.0
C1938 C 0.63415 0.09583 0.47518 0.0
C1939 C 0.6544 0.10329 0.45315 0.0
C1940 C 0.65133 0.10266 0.40821 0.0
C1941 C 0.63961 0.09848 0.39727 0.0
C1942 C 0.63117 0.09515 0.43014 0.0
C1943 C 0.6602 0.10662 0.37219 0.0
C1944 C 0.66046 0.1146 0.34087 0.0
C1945 C 0.66827 0.10261 0.36815 0.0
C1946 C 0.66802 0.09363 0.39815 0.0
C1947 C 0.65778 0.08276 0.403 0.0
C1948 C 0.65759 0.07435 0.43145 0.0
C1949 C 0.66761 0.07668 0.455 0.0
C1950 C 0.67785 0.08742 0.45004 0.0
C1951 C 0.67809 0.09586 0.42166 0.0
H1952 H 0.66744 0.07016 0.477 0.0
H1953 H 0.66902 0.15071 0.19577 0.0
H1954 H 0.92006 0.54017 0.42299 0.0
H1955 H 0.91368 0.54884 0.3662 0.0
H1956 H 0.89205 0.55328 0.46166 0.0
H1957 H 0.89865 0.54474 0.51937 0.0
H1958 H 0.88041 0.54101 0.38172 0.0
H1959 H 0.91455 0.57662 0.42542 0.0
H1960 H 0.93544 0.58926 0.44222 0.0
H1961 H 0.94426 0.58502 0.30971 0.0
H1962 H 0.92341 0.5722 0.29227 0.0
H1963 H 0.86113 0.57172 0.25507 0.0
H1964 H 0.87015 0.56558 0.30999 0.0
H1965 H 0.89486 0.56722 0.21348 0.0
H1966 H 0.88592 0.57379 0.15729 0.0
H1967 H 0.90546 0.57621 0.29202 0.0
H1968 H 0.87219 0.54085 0.24674 0.0
H1969 H 0.85156 0.52749 0.22784 0.0
H1970 H 0.84141 0.5301 0.36013 0.0
H1971 H 0.86197 0.54361 0.37969 0.0
C1972 C 0.91408 0.54316 0.43212 0.0
C1973 C 0.90981 0.54175 0.47559 0.0
C1974 C 0.91048 0.54815 0.39962 0.0
C1975 C 0.90241 0.55172 0.40964 0.0
C1976 C 0.89832 0.5506 0.4533 0.0
C1977 C 0.90212 0.54579 0.48624 0.0
C1978 C 0.89766 0.55575 0.37357 0.0
C1979 C 0.88583 0.54882 0.36261 0.0
C1980 C 0.90487 0.56563 0.3473 0.0
C1981 C 0.91742 0.57336 0.35767 0.0
C1982 C 0.92094 0.57829 0.39996 0.0
C1983 C 0.93278 0.58551 0.40958 0.0
C1984 C 0.94118 0.58792 0.37709 0.0
C1985 C 0.93775 0.58313 0.33486 0.0
C1986 C 0.92592 0.5759 0.32508 0.0
C1987 C 0.86844 0.57075 0.24489 0.0
C1988 C 0.87269 0.57317 0.20121 0.0
C1989 C 0.87359 0.56718 0.27667 0.0
C1990 C 0.88304 0.56569 0.26587 0.0
C1991 C 0.8875 0.56823 0.22254 0.0
C1992 C 0.88236 0.57194 0.19041 0.0
C1993 C 0.88814 0.56155 0.30053 0.0
C1994 C 0.90002 0.5684 0.31111 0.0
C1995 C 0.88102 0.55147 0.32613 0.0
C1996 C 0.86863 0.54332 0.31458 0.0
C1997 C 0.86555 0.53864 0.27172 0.0
C1998 C 0.85387 0.53103 0.26091 0.0
C1999 C 0.84518 0.52797 0.29274 0.0
C2000 C 0.84816 0.53249 0.3355 0.0
C2001 C 0.85982 0.54011 0.34649 0.0
H2002 H 0.83614 0.52207 0.2843 0.0
H2003 H 0.95034 0.59351 0.3846 0.0
H2004 H 0.55746 0.64086 0.51217 0.0
H2005 H 0.56641 0.6556 0.57102 0.0
H2006 H 0.53301 0.65246 0.59852 0.0
H2007 H 0.52401 0.63757 0.54097 0.0
H2008 H 0.55319 0.67641 0.59615 0.0
H2009 H 0.54003 0.63794 0.65991 0.0
H2010 H 0.53975 0.6192 0.66473 0.0
H2011 H 0.57674 0.63745 0.68735 0.0
H2012 H 0.57725 0.65631 0.68197 0.0
H2013 H 0.55583 0.70068 0.80085 0.0
H2014 H 0.54998 0.68647 0.74102 0.0
H2015 H 0.58183 0.68544 0.75737 0.0
H2016 H 0.58743 0.6993 0.81916 0.0
H2017 H 0.56525 0.66472 0.73326 0.0
H2018 H 0.57902 0.70284 0.67682 0.0
H2019 H 0.58057 0.72212 0.66959 0.0
H2020 H 0.54473 0.70578 0.62892 0.0
H2021 H 0.5429 0.68638 0.63652 0.0
C2022 C 0.55211 0.64353 0.53014 0.0
C2023 C 0.54005 0.63811 0.52196 0.0
C2024 C 0.5572 0.65186 0.56392 0.0
C2025 C 0.55035 0.65505 0.5893 0.0
C2026 C 0.53845 0.65013 0.57937 0.0
C2027 C 0.53333 0.64164 0.54645 0.0
C2028 C 0.55528 0.66304 0.62776 0.0
C2029 C 0.55578 0.67385 0.62622 0.0
C2030 C 0.55903 0.65985 0.66642 0.0
C2031 C 0.5587 0.64853 0.66996 0.0
C2032 C 0.54812 0.63796 0.66547 0.0
C2033 C 0.54791 0.62732 0.6684 0.0
C2034 C 0.55823 0.62714 0.67619 0.0
C2035 C 0.56876 0.6376 0.68122 0.0
C2036 C 0.56901 0.64827 0.67824 0.0
C2037 C 0.56144 0.69719 0.7924 0.0
C2038 C 0.57209 0.70109 0.81453 0.0
C2039 C 0.55817 0.68917 0.75783 0.0
C2040 C 0.56565 0.68517 0.74346 0.0
C2041 C 0.57595 0.68847 0.76744 0.0
C2042 C 0.57913 0.69635 0.80289 0.0
C2043 C 0.56288 0.67805 0.70224 0.0
C2044 C 0.56281 0.6674 0.70313 0.0
C2045 C 0.55974 0.6815 0.66253 0.0
C2046 C 0.56081 0.69315 0.65756 0.0
C2047 C 0.57145 0.70335 0.66659 0.0
C2048 C 0.57238 0.71431 0.6624 0.0
C2049 C 0.56275 0.71518 0.64888 0.0
C2050 C 0.55218 0.70509 0.63941 0.0
C2051 C 0.55119 0.69412 0.64361 0.0
H2052 H 0.56349 0.72366 0.64566 0.0
H2053 H 0.55805 0.61889 0.67846 0.0
H2054 H 0.30746 0.89054 0.82346 0.0
H2055 H 0.3222 0.89948 0.76462 0.0
H2056 H 0.31754 0.8657 0.732 0.0
H2057 H 0.30268 0.85674 0.78953 0.0
H2058 H 0.3418 0.88506 0.7365 0.0
H2059 H 0.30376 0.87433 0.67273 0.0
H2060 H 0.28567 0.87534 0.67005 0.0
H2061 H 0.30574 0.91248 0.65256 0.0
H2062 H 0.32397 0.9117 0.65579 0.0
H2063 H 0.36613 0.88803 0.53222 0.0
H2064 H 0.35173 0.88227 0.59123 0.0
H2065 H 0.35233 0.91503 0.57833 0.0
H2066 H 0.36634 0.92053 0.51722 0.0
H2067 H 0.33135 0.89912 0.60157 0.0
H2068 H 0.369 0.91072 0.65813 0.0
H2069 H 0.38782 0.91126 0.66492 0.0
H2070 H 0.36998 0.87509 0.70181 0.0
H2071 H 0.35103 0.87429 0.69461 0.0
C2072 C 0.30977 0.88509 0.80424 0.0
C2073 C 0.30396 0.87296 0.81104 0.0
C2074 C 0.31811 0.89018 0.77051 0.0
C2075 C 0.32089 0.88322 0.7438 0.0
C2076 C 0.31552 0.87121 0.75217 0.0
C2077 C 0.30704 0.86611 0.78505 0.0
C2078 C 0.329 0.8882 0.70576 0.0
C2079 C 0.33951 0.88809 0.70689 0.0
C2080 C 0.32618 0.89254 0.66781 0.0
C2081 C 0.31523 0.89297 0.66502 0.0
C2082 C 0.30432 0.88272 0.66866 0.0
C2083 C 0.29404 0.88325 0.66698 0.0
C2084 C 0.29456 0.89398 0.66129 0.0
C2085 C 0.30536 0.90418 0.65706 0.0
C2086 C 0.31566 0.9037 0.65878 0.0
C2087 C 0.36294 0.89386 0.54118 0.0
C2088 C 0.36734 0.90471 0.52024 0.0
C2089 C 0.35481 0.89063 0.5753 0.0
C2090 C 0.35122 0.89838 0.59049 0.0
C2091 C 0.35502 0.90894 0.56762 0.0
C2092 C 0.36299 0.91205 0.53256 0.0
C2093 C 0.34408 0.89566 0.63162 0.0
C2094 C 0.33376 0.89623 0.63122 0.0
C2095 C 0.3472 0.89198 0.6708 0.0
C2096 C 0.35859 0.89243 0.67551 0.0
C2097 C 0.36909 0.90287 0.66744 0.0
C2098 C 0.37978 0.90322 0.67138 0.0
C2099 C 0.3801 0.89321 0.68371 0.0
C2100 C 0.36972 0.88284 0.69223 0.0
C2101 C 0.359 0.88243 0.68827 0.0
H2102 H 0.38838 0.8935 0.68674 0.0
H2103 H 0.28659 0.89437 0.66005 0.0
H2104 H 0.1327 0.44431 0.84577 0.0
H2105 H 0.12448 0.45082 0.78696 0.0
H2106 H 0.1171 0.42044 0.70975 0.0
H2107 H 0.12585 0.41435 0.7674 0.0
H2108 H 0.12688 0.43783 0.65925 0.0
H2109 H 0.09513 0.42504 0.76051 0.0
H2110 H 0.08546 0.42366 0.83165 0.0
H2111 H 0.09777 0.46045 0.82809 0.0
H2112 H 0.10765 0.46208 0.75719 0.0
H2113 H 0.0951 0.45085 0.49412 0.0
H2114 H 0.10035 0.44118 0.55176 0.0
H2115 H 0.11438 0.47225 0.6318 0.0
H2116 H 0.10932 0.48191 0.57516 0.0
H2117 H 0.09953 0.45278 0.67887 0.0
H2118 H 0.13222 0.46518 0.57882 0.0
H2119 H 0.14137 0.466 0.50697 0.0
H2120 H 0.12612 0.42874 0.50778 0.0
H2121 H 0.11674 0.42768 0.57941 0.0
C2122 C 0.12905 0.43893 0.81666 0.0
C2123 C 0.12979 0.4288 0.81112 0.0
C2124 C 0.12434 0.44262 0.78299 0.0
C2125 C 0.12007 0.4361 0.7437 0.0
C2126 C 0.12037 0.42569 0.73939 0.0
C2127 C 0.12527 0.42215 0.77251 0.0
C2128 C 0.11607 0.44046 0.70581 0.0
C2129 C 0.12072 0.44088 0.66358 0.0
C2130 C 0.10816 0.44464 0.71109 0.0
C2131 C 0.10221 0.44369 0.7537 0.0
C2132 C 0.09585 0.43285 0.77504 0.0
C2133 C 0.09032 0.43202 0.81531 0.0
C2134 C 0.09103 0.44197 0.83443 0.0
C2135 C 0.09724 0.45275 0.81326 0.0
C2136 C 0.10279 0.45363 0.77301 0.0
C2137 C 0.09944 0.45566 0.52372 0.0
C2138 C 0.10169 0.46715 0.52991 0.0
C2139 C 0.10241 0.45011 0.55671 0.0
C2140 C 0.10767 0.45597 0.59633 0.0
C2141 C 0.11021 0.46751 0.60184 0.0
C2142 C 0.10732 0.47303 0.56911 0.0
C2143 C 0.11042 0.45019 0.63283 0.0
C2144 C 0.10556 0.44956 0.67471 0.0
C2145 C 0.11802 0.44569 0.62717 0.0
C2146 C 0.12367 0.44634 0.58419 0.0
C2147 C 0.13073 0.45715 0.56348 0.0
C2148 C 0.13598 0.45766 0.52284 0.0
C2149 C 0.13429 0.44743 0.50275 0.0
C2150 C 0.12739 0.43666 0.52333 0.0
C2151 C 0.12212 0.4361 0.56396 0.0
H2152 H 0.13836 0.44784 0.47129 0.0
H2153 H 0.08674 0.44131 0.8656 0.0
H2154 H 0.14756 0.71123 0.75775 0.0
H2155 H 0.13757 0.69625 0.70229 0.0
H2156 H 0.11003 0.6759 0.79473 0.0
H2157 H 0.12001 0.69108 0.85137 0.0
H2158 H 0.11806 0.66288 0.74439 0.0
H2159 H 0.10465 0.68998 0.71876 0.0
H2160 H 0.10706 0.70953 0.7078 0.0
H2161 H 0.12736 0.71419 0.59112 0.0
H2162 H 0.12523 0.69474 0.60175 0.0
H2163 H 0.08319 0.62286 0.58253 0.0
H2164 H 0.08956 0.63761 0.64047 0.0
H2165 H 0.11486 0.6632 0.55138 0.0
H2166 H 0.10799 0.64844 0.49226 0.0
H2167 H 0.10672 0.67338 0.60278 0.0
H2168 H 0.12198 0.64785 0.6297 0.0
H2169 H 0.12109 0.62895 0.64034 0.0
H2170 H 0.09905 0.62198 0.75361 0.0
H2171 H 0.09969 0.64078 0.74329 0.0
C2172 C 0.1394 0.70359 0.7668 0.0
C2173 C 0.13458 0.70246 0.8093 0.0
C2174 C 0.13367 0.69503 0.73473 0.0
C2175 C 0.12297 0.68506 0.74405 0.0
C2176 C 0.11826 0.6836 0.78677 0.0
C2177 C 0.12398 0.69227 0.8191 0.0
C2178 C 0.11685 0.67627 0.70867 0.0
C2179 C 0.11534 0.66507 0.71378 0.0
C2180 C 0.11369 0.67929 0.66813 0.0
C2181 C 0.11484 0.69092 0.66124 0.0
C2182 C 0.10969 0.6952 0.69092 0.0
C2183 C 0.111 0.70626 0.68475 0.0
C2184 C 0.11738 0.71311 0.64884 0.0
C2185 C 0.12243 0.70889 0.61894 0.0
C2186 C 0.12116 0.69783 0.62499 0.0
C2187 C 0.08999 0.63169 0.57509 0.0
C2188 C 0.09518 0.63451 0.53307 0.0
C2189 C 0.09369 0.6401 0.60836 0.0
C2190 C 0.10297 0.65146 0.60093 0.0
C2191 C 0.10776 0.65448 0.55815 0.0
C2192 C 0.10384 0.64607 0.52434 0.0
C2193 C 0.10793 0.65993 0.63831 0.0
C2194 C 0.10929 0.6711 0.63352 0.0
C2195 C 0.11112 0.65694 0.679 0.0
C2196 C 0.11079 0.64567 0.68546 0.0
C2197 C 0.11688 0.64226 0.65671 0.0
C2198 C 0.11643 0.63157 0.6627 0.0
C2199 C 0.10999 0.62426 0.69756 0.0
C2200 C 0.10402 0.62764 0.72658 0.0
C2201 C 0.10443 0.63832 0.7207 0.0
H2202 H 0.10965 0.61598 0.70214 0.0
H2203 H 0.1184 0.72167 0.64414 0.0
H2204 H 0.28995 0.4182 0.74698 0.0
H2205 H 0.3052 0.42512 0.69092 0.0
H2206 H 0.33118 0.44437 0.79029 0.0
H2207 H 0.31583 0.43727 0.84722 0.0
H2208 H 0.3319 0.45769 0.71465 0.0
H2209 H 0.33091 0.42174 0.74684 0.0
H2210 H 0.32156 0.40049 0.75792 0.0
H2211 H 0.30887 0.39462 0.62447 0.0
H2212 H 0.31801 0.41585 0.61276 0.0
H2213 H 0.38152 0.47679 0.58446 0.0
H2214 H 0.36648 0.4675 0.63985 0.0
H2215 H 0.34232 0.44492 0.54068 0.0
H2216 H 0.35766 0.45412 0.4841 0.0
H2217 H 0.34029 0.43294 0.61544 0.0
H2218 H 0.34049 0.46817 0.58207 0.0
H2219 H 0.34896 0.48927 0.56927 0.0
H2220 H 0.36188 0.49637 0.70238 0.0
H2221 H 0.35362 0.47531 0.71582 0.0
C2222 C 0.29893 0.42379 0.75711 0.0
C2223 C 0.30169 0.42724 0.80152 0.0
C2224 C 0.30764 0.42769 0.72499 0.0
C2225 C 0.31933 0.43524 0.73636 0.0
C2226 C 0.3222 0.43852 0.78086 0.0
C2227 C 0.31346 0.43442 0.81335 0.0
C2228 C 0.32832 0.44026 0.70104 0.0
C2229 C 0.3339 0.45232 0.69348 0.0
C2230 C 0.33053 0.43317 0.67217 0.0
C2231 C 0.32506 0.42039 0.67906 0.0
C2232 C 0.32604 0.41592 0.71997 0.0
C2233 C 0.3208 0.40388 0.72634 0.0
C2234 C 0.3146 0.39621 0.69196 0.0
C2235 C 0.31366 0.40057 0.65109 0.0
C2236 C 0.31888 0.41261 0.64455 0.0
C2237 C 0.37302 0.4699 0.57389 0.0
C2238 C 0.37082 0.46633 0.52935 0.0
C2239 C 0.36437 0.46459 0.60591 0.0
C2240 C 0.35316 0.45567 0.59449 0.0
C2241 C 0.3509 0.45186 0.55027 0.0
C2242 C 0.35965 0.45715 0.51793 0.0
C2243 C 0.34399 0.45043 0.6293 0.0
C2244 C 0.33832 0.43833 0.63665 0.0
C2245 C 0.34155 0.45747 0.65771 0.0
C2246 C 0.34652 0.47015 0.64983 0.0
C2247 C 0.34521 0.47423 0.60852 0.0
C2248 C 0.34996 0.48619 0.60116 0.0
C2249 C 0.35598 0.49416 0.63496 0.0
C2250 C 0.35723 0.49019 0.67622 0.0
C2251 C 0.3525 0.47824 0.68375 0.0
H2252 H 0.35965 0.50341 0.62919 0.0
H2253 H 0.31055 0.38688 0.69696 0.0
H2254 H 0.58719 0.87331 0.75559 0.0
H2255 H 0.58067 0.8819 0.69895 0.0
H2256 H 0.55948 0.88674 0.79528 0.0
H2257 H 0.56622 0.87828 0.85283 0.0
H2258 H 0.54752 0.8744 0.71585 0.0
H2259 H 0.58196 0.9099 0.75805 0.0
H2260 H 0.60293 0.92243 0.77399 0.0
H2261 H 0.61128 0.91787 0.64115 0.0
H2262 H 0.59037 0.90516 0.62458 0.0
H2263 H 0.5283 0.90523 0.58921 0.0
H2264 H 0.53743 0.8992 0.6442 0.0
H2265 H 0.56161 0.9001 0.54681 0.0
H2266 H 0.55254 0.9065 0.49056 0.0
H2267 H 0.57254 0.90936 0.625 0.0
H2268 H 0.53897 0.87406 0.58125 0.0
H2269 H 0.51826 0.86081 0.56318 0.0
H2270 H 0.50855 0.86382 0.69572 0.0
H2271 H 0.52919 0.87723 0.71445 0.0
C2272 C 0.58126 0.87636 0.76494 0.0
C2273 C 0.57717 0.87508 0.80863 0.0
C2274 C 0.57758 0.8813 0.73252 0.0
C2275 C 0.5696 0.88496 0.74284 0.0
C2276 C 0.56568 0.88398 0.78668 0.0
C2277 C 0.56956 0.87921 0.81953 0.0
C2278 C 0.56481 0.88901 0.70695 0.0
C2279 C 0.55294 0.88216 0.6965 0.0
C2280 C 0.57201 0.89883 0.68036 0.0
C2281 C 0.5846 0.90648 0.6902 0.0
C2282 C 0.58827 0.91148 0.73234 0.0
C2283 C 0.60015 0.91863 0.74147 0.0
C2284 C 0.60843 0.92092 0.70864 0.0
C2285 C 0.60486 0.91608 0.66657 0.0
C2286 C 0.59299 0.90891 0.65728 0.0
C2287 C 0.53552 0.90413 0.57889 0.0
C2288 C 0.53957 0.90626 0.53492 0.0
C2289 C 0.54073 0.90063 0.6107 0.0
C2290 C 0.55007 0.89896 0.59966 0.0
C2291 C 0.55435 0.90126 0.55607 0.0
C2292 C 0.54914 0.90487 0.52391 0.0
C2293 C 0.55518 0.89483 0.63427 0.0
C2294 C 0.56711 0.90161 0.64435 0.0
C2295 C 0.54807 0.88482 0.6602 0.0
C2296 C 0.53563 0.87673 0.64915 0.0
C2297 C 0.53241 0.87197 0.60646 0.0
C2298 C 0.52069 0.86442 0.59611 0.0
C2299 C 0.51209 0.8615 0.62825 0.0
C2300 C 0.51521 0.8661 0.67085 0.0
C2301 C 0.52693 0.87367 0.68137 0.0
H2302 H 0.50302 0.85565 0.62017 0.0
H2303 H 0.61762 0.92646 0.71576 0.0
H2304 H 0.38517 0.11438 0.12492 0.0
H2305 H 0.36435 0.10277 0.142 0.0
H2306 H 0.363 0.1344 0.16119 0.0
H2307 H 0.38388 0.14598 0.14624 0.0
H2308 H 0.35177 0.12063 0.22372 0.0
H2309 H 0.35139 0.11552 0.06643 0.0
H2310 H 0.3568 0.11023 0.99576 0.0
H2311 H 0.34325 0.07506 0.0413 0.0
H2312 H 0.33788 0.08018 0.11249 0.0
H2313 H 0.29091 0.09889 0.19868 0.0
H2314 H 0.31196 0.10823 0.18671 0.0
H2315 H 0.31063 0.07548 0.21058 0.0
H2316 H 0.2895 0.06605 0.22345 0.0
H2317 H 0.32302 0.08818 0.13005 0.0
H2318 H 0.32211 0.09388 0.28641 0.0
H2319 H 0.31604 0.09981 0.35398 0.0
H2320 H 0.33152 0.13493 0.30554 0.0
H2321 H 0.33754 0.12917 0.23734 0.0
C2322 C 0.38039 0.11884 0.13234 0.0
C2323 C 0.38617 0.1311 0.13422 0.0
C2324 C 0.36846 0.1122 0.14199 0.0
C2325 C 0.362 0.11767 0.15254 0.0
C2326 C 0.36775 0.12993 0.15343 0.0
C2327 C 0.3797 0.13655 0.14468 0.0
C2328 C 0.34936 0.11074 0.16411 0.0
C2329 C 0.34551 0.11363 0.20283 0.0
C2330 C 0.34113 0.10136 0.13771 0.0
C2331 C 0.34436 0.09827 0.09496 0.0
C2332 C 0.34964 0.10668 0.0615 0.0
C2333 C 0.35269 0.10371 0.02133 0.0
C2334 C 0.3504 0.09233 0.0141 0.0
C2335 C 0.34503 0.08388 0.04698 0.0
C2336 C 0.34198 0.08681 0.08723 0.0
C2337 C 0.29509 0.09367 0.2017 0.0
C2338 C 0.28854 0.08172 0.21204 0.0
C2339 C 0.30712 0.09903 0.19491 0.0
C2340 C 0.31283 0.09254 0.19775 0.0
C2341 C 0.30636 0.08063 0.20822 0.0
C2342 C 0.29432 0.07528 0.21583 0.0
C2343 C 0.32554 0.09828 0.18892 0.0
C2344 C 0.32937 0.09514 0.15087 0.0
C2345 C 0.33373 0.10756 0.21547 0.0
C2346 C 0.33019 0.11107 0.25659 0.0
C2347 C 0.32414 0.10285 0.28999 0.0
C2348 C 0.32072 0.10618 0.32844 0.0
C2349 C 0.32337 0.11773 0.33401 0.0
C2350 C 0.32947 0.12598 0.30117 0.0
C2351 C 0.3329 0.12269 0.26263 0.0
H2352 H 0.32072 0.12029 0.3638 0.0
H2353 H 0.35276 0.09005 0.98297 0.0
H2354 H 0.86968 0.25349 0.21175 0.0
H2355 H 0.88137 0.24418 0.22532 0.0
H2356 H 0.89561 0.25328 0.0939 0.0
H2357 H 0.8841 0.26285 0.08023 0.0
H2358 H 0.88605 0.2287 0.12138 0.0
H2359 H 0.91272 0.2681 0.16986 0.0
H2360 H 0.91825 0.28586 0.21351 0.0
H2361 H 0.91123 0.2662 0.33359 0.0
H2362 H 0.90548 0.24829 0.2906 0.0
H2363 H 0.92694 0.21011 0.13643 0.0
H2364 H 0.91765 0.22181 0.12399 0.0
H2365 H 0.91345 0.22352 0.26475 0.0
H2366 H 0.92358 0.21248 0.27721 0.0
H2367 H 0.91774 0.24289 0.23289 0.0
H2368 H 0.89045 0.20376 0.19048 0.0
H2369 H 0.88331 0.18504 0.15148 0.0
H2370 H 0.88918 0.20249 0.02665 0.0
H2371 H 0.89649 0.22135 0.06491 0.0
C2372 C 0.87531 0.25354 0.1857 0.0
C2373 C 0.87595 0.25891 0.14485 0.0
C2374 C 0.88201 0.24826 0.19362 0.0
C2375 C 0.88937 0.24809 0.16068 0.0
C2376 C 0.88999 0.25336 0.11976 0.0
C2377 C 0.88344 0.25884 0.11207 0.0
C2378 C 0.89616 0.24213 0.16869 0.0
C2379 C 0.89311 0.23187 0.14523 0.0
C2380 C 0.90502 0.24605 0.20113 0.0
C2381 C 0.90856 0.25683 0.22699 0.0
C2382 C 0.91226 0.26754 0.20556 0.0
C2383 C 0.91545 0.27764 0.23019 0.0
C2384 C 0.91506 0.27715 0.27629 0.0
C2385 C 0.91151 0.26657 0.29787 0.0
C2386 C 0.9083 0.25644 0.27339 0.0
C2387 C 0.92409 0.21306 0.1647 0.0
C2388 C 0.92585 0.21031 0.20775 0.0
C2389 C 0.91869 0.21967 0.15759 0.0
C2390 C 0.91445 0.22325 0.1933 0.0
C2391 C 0.91653 0.2208 0.23653 0.0
C2392 C 0.9223 0.21448 0.24371 0.0
C2393 C 0.90773 0.22938 0.18531 0.0
C2394 C 0.91072 0.23966 0.20889 0.0
C2395 C 0.89858 0.22532 0.15369 0.0
C2396 C 0.89412 0.21398 0.13057 0.0
C2397 C 0.89029 0.20362 0.15471 0.0
C2398 C 0.8862 0.19298 0.13274 0.0
C2399 C 0.88582 0.19258 0.08662 0.0
C2400 C 0.88949 0.20282 0.06237 0.0
C2401 C 0.8936 0.21348 0.08418 0.0
H2402 H 0.88266 0.18434 0.06967 0.0
H2403 H 0.91754 0.28498 0.2953 0.0
H2404 H 0.76047 0.619 0.18883 0.0
H2405 H 0.77 0.63985 0.20279 0.0
H2406 H 0.74834 0.64323 0.10418 0.0
H2407 H 0.73843 0.62215 0.09084 0.0
H2408 H 0.78291 0.65765 0.15575 0.0
H2409 H 0.74448 0.66629 0.12964 0.0
H2410 H 0.72307 0.65598 0.13788 0.0
H2411 H 0.72495 0.63365 0.23639 0.0
H2412 H 0.74638 0.64393 0.22917 0.0
H2413 H 0.80612 0.71804 0.13809 0.0
H2414 H 0.79473 0.69709 0.12535 0.0
H2415 H 0.7762 0.69276 0.24741 0.0
H2416 H 0.78735 0.71391 0.25966 0.0
H2417 H 0.76155 0.67872 0.1878 0.0
H2418 H 0.79897 0.68677 0.23919 0.0
H2419 H 0.82046 0.69668 0.24067 0.0
H2420 H 0.82063 0.68465 0.1091 0.0
H2421 H 0.79914 0.67479 0.10661 0.0
C2422 C 0.75766 0.62412 0.17008 0.0
C2423 C 0.74861 0.61882 0.13877 0.0
C2424 C 0.76317 0.6361 0.17808 0.0
C2425 C 0.75985 0.64316 0.15491 0.0
C2426 C 0.75092 0.63796 0.12315 0.0
C2427 C 0.7453 0.6259 0.11536 0.0
C2428 C 0.76596 0.65596 0.16368 0.0
C2429 C 0.77821 0.66223 0.16266 0.0
C2430 C 0.75989 0.66198 0.17363 0.0
C2431 C 0.74702 0.6558 0.17846 0.0
C2432 C 0.74033 0.6592 0.15314 0.0
C2433 C 0.72819 0.65336 0.15763 0.0
C2434 C 0.72265 0.64414 0.18752 0.0
C2435 C 0.72925 0.64077 0.21311 0.0
C2436 C 0.74138 0.64658 0.20879 0.0
C2437 C 0.79963 0.71266 0.16232 0.0
C2438 C 0.79775 0.71767 0.2002 0.0
C2439 C 0.79312 0.70065 0.15499 0.0
C2440 C 0.78475 0.69327 0.18583 0.0
C2441 C 0.78263 0.69825 0.22317 0.0
C2442 C 0.78904 0.71034 0.23023 0.0
C2443 C 0.77847 0.68037 0.17943 0.0
C2444 C 0.76622 0.67411 0.18078 0.0
C2445 C 0.78453 0.67427 0.17112 0.0
C2446 C 0.79745 0.68013 0.17258 0.0
C2447 C 0.8036 0.6863 0.21047 0.0
C2448 C 0.81578 0.6919 0.2115 0.0
C2449 C 0.82191 0.69132 0.17497 0.0
C2450 C 0.81587 0.68511 0.13736 0.0
C2451 C 0.80369 0.6795 0.13613 0.0
H2452 H 0.83134 0.69566 0.17583 0.0
H2453 H 0.71326 0.63963 0.19093 0.0
H2454 H 0.08608 0.28542 0.87569 0.0
H2455 H 0.09516 0.30649 0.88747 0.0
H2456 H 0.08698 0.31084 0.75355 0.0
H2457 H 0.07751 0.28964 0.74177 0.0
H2458 H 0.11328 0.32537 0.79622 0.0
H2459 H 0.0725 0.31543 0.80617 0.0
H2460 H 0.05255 0.30397 0.83595 0.0
H2461 H 0.06566 0.31484 0.96751 0.0
H2462 H 0.08571 0.32622 0.93851 0.0
H2463 H 0.13395 0.38547 0.79863 0.0
H2464 H 0.12239 0.36453 0.78552 0.0
H2465 H 0.11288 0.35894 0.92342 0.0
H2466 H 0.12399 0.3801 0.9361 0.0
H2467 H 0.09509 0.34455 0.87891 0.0
H2468 H 0.13487 0.35416 0.87582 0.0
H2469 H 0.15556 0.36478 0.85355 0.0
H2470 H 0.14577 0.35371 0.71931 0.0
H2471 H 0.125 0.34314 0.74068 0.0
C2472 C 0.08616 0.29084 0.84875 0.0
C2473 C 0.0811 0.28588 0.80773 0.0
C2474 C 0.09131 0.30286 0.85563 0.0
C2475 C 0.09169 0.31016 0.82144 0.0
C2476 C 0.0867 0.30529 0.78037 0.0
C2477 C 0.08129 0.29321 0.77374 0.0
C2478 C 0.09776 0.32294 0.82837 0.0
C2479 C 0.10927 0.32964 0.81355 0.0
C2480 C 0.09266 0.32833 0.85282 0.0
C2481 C 0.08061 0.32155 0.87022 0.0
C2482 C 0.07114 0.31527 0.84148 0.0
C2483 C 0.05981 0.30881 0.85821 0.0
C2484 C 0.05784 0.30864 0.90361 0.0
C2485 C 0.06719 0.31496 0.93236 0.0
C2486 C 0.07854 0.32142 0.91579 0.0
C2487 C 0.12939 0.37978 0.82619 0.0
C2488 C 0.12999 0.3844 0.86852 0.0
C2489 C 0.12281 0.36778 0.8187 0.0
C2490 C 0.11699 0.36005 0.85367 0.0
C2491 C 0.11733 0.36468 0.89587 0.0
C2492 C 0.1237 0.37676 0.90316 0.0
C2493 C 0.11069 0.34718 0.84604 0.0
C2494 C 0.09915 0.34039 0.86115 0.0
C2495 C 0.11589 0.34163 0.82277 0.0
C2496 C 0.12837 0.34795 0.80979 0.0
C2497 C 0.13713 0.35405 0.84149 0.0
C2498 C 0.14887 0.36006 0.82904 0.0
C2499 C 0.15197 0.35994 0.78502 0.0
C2500 C 0.14335 0.3538 0.75338 0.0
C2501 C 0.13159 0.34779 0.76565 0.0
H2502 H 0.16107 0.3646 0.77545 0.0
H2503 H 0.04906 0.30365 0.9165 0.0
H2504 H 0.71578 0.78447 0.7461 0.0
H2505 H 0.69462 0.77337 0.75752 0.0
H2506 H 0.698 0.79615 0.86539 0.0
H2507 H 0.71897 0.80743 0.8535 0.0
H2508 H 0.68087 0.76092 0.82356 0.0
H2509 H 0.67515 0.80027 0.86994 0.0
H2510 H 0.68456 0.82135 0.85418 0.0
H2511 H 0.69706 0.81615 0.73026 0.0
H2512 H 0.68759 0.79503 0.74497 0.0
H2513 H 0.62472 0.74052 0.91943 0.0
H2514 H 0.64569 0.75044 0.90425 0.0
H2515 H 0.64046 0.76593 0.78743 0.0
H2516 H 0.61965 0.75636 0.80298 0.0
H2517 H 0.65837 0.78166 0.8285 0.0
H2518 H 0.64581 0.74246 0.78358 0.0
H2519 H 0.63629 0.7211 0.79185 0.0
H2520 H 0.65964 0.72533 0.89792 0.0
H2521 H 0.6692 0.74673 0.89067 0.0
C2522 C 0.71201 0.78713 0.77218 0.0
C2523 C 0.7191 0.79693 0.79854 0.0
C2524 C 0.69991 0.78074 0.77879 0.0
C2525 C 0.69467 0.78401 0.81192 0.0
C2526 C 0.70178 0.79359 0.83899 0.0
C2527 C 0.71381 0.80003 0.83215 0.0
C2528 C 0.68177 0.77757 0.81794 0.0
C2529 C 0.67595 0.76545 0.82459 0.0
C2530 C 0.67527 0.78342 0.8185 0.0
C2531 C 0.68074 0.79608 0.80878 0.0
C2532 C 0.67985 0.80362 0.83921 0.0
C2533 C 0.68521 0.81558 0.83048 0.0
C2534 C 0.69144 0.82009 0.79131 0.0
C2535 C 0.69227 0.81265 0.76066 0.0
C2536 C 0.68691 0.80068 0.76919 0.0
C2537 C 0.62803 0.74602 0.89047 0.0
C2538 C 0.62046 0.74764 0.8625 0.0
C2539 C 0.64003 0.75165 0.88169 0.0
C2540 C 0.64469 0.75886 0.84438 0.0
C2541 C 0.63713 0.76045 0.81647 0.0
C2542 C 0.62519 0.75494 0.82544 0.0
C2543 C 0.65744 0.76499 0.83471 0.0
C2544 C 0.66326 0.7771 0.82745 0.0
C2545 C 0.66386 0.75906 0.83247 0.0
C2546 C 0.65815 0.7462 0.83685 0.0
C2547 C 0.64886 0.73884 0.80888 0.0
C2548 C 0.64346 0.72672 0.81335 0.0
C2549 C 0.64734 0.72186 0.84546 0.0
C2550 C 0.65664 0.72911 0.8731 0.0
C2551 C 0.66205 0.74123 0.8688 0.0
H2552 H 0.64315 0.71248 0.84887 0.0
H2553 H 0.69561 0.82936 0.78467 0.0
H2554 H 0.19252 0.90507 0.79627 0.0
H2555 H 0.2037 0.89528 0.80938 0.0
H2556 H 0.23573 0.92837 0.80172 0.0
H2557 H 0.22451 0.93812 0.78601 0.0
H2558 H 0.23933 0.91278 0.76628 0.0
H2559 H 0.22264 0.91457 0.90377 0.0
H2560 H 0.20693 0.91201 0.95435 0.0
H2561 H 0.1892 0.87498 0.93298 0.0
H2562 H 0.20474 0.87733 0.88187 0.0
H2563 H 0.272 0.89086 0.88187 0.0
H2564 H 0.26198 0.90183 0.866 0.0
H2565 H 0.23033 0.86967 0.83713 0.0
H2566 H 0.2403 0.85867 0.85213 0.0
H2567 H 0.22755 0.88568 0.89382 0.0
H2568 H 0.24515 0.88484 0.75472 0.0
H2569 H 0.26169 0.88822 0.70729 0.0
H2570 H 0.27893 0.92483 0.73699 0.0
H2571 H 0.26256 0.92164 0.78521 0.0
C2572 C 0.20195 0.91024 0.79696 0.0
C2573 C 0.20763 0.92237 0.79046 0.0
C2574 C 0.20835 0.90465 0.80482 0.0
C2575 C 0.22058 0.9111 0.80794 0.0
C2576 C 0.22631 0.92318 0.79983 0.0
C2577 C 0.2199 0.92876 0.79088 0.0
C2578 C 0.2273 0.90525 0.82062 0.0
C2579 C 0.23684 0.907 0.79458 0.0
C2580 C 0.22407 0.89761 0.85742 0.0
C2581 C 0.21481 0.89614 0.88874 0.0
C2582 C 0.21536 0.90588 0.90971 0.0
C2583 C 0.20649 0.90447 0.93849 0.0
C2584 C 0.19706 0.89334 0.9468 0.0
C2585 C 0.1965 0.88359 0.92649 0.0
C2586 C 0.20535 0.88496 0.89767 0.0
C2587 C 0.26289 0.88612 0.87237 0.0
C2588 C 0.25695 0.8739 0.86805 0.0
C2589 C 0.2572 0.8924 0.86315 0.0
C2590 C 0.24544 0.88656 0.85013 0.0
C2591 C 0.23941 0.87434 0.84702 0.0
C2592 C 0.24514 0.86808 0.85544 0.0
C2593 C 0.23941 0.89314 0.83923 0.0
C2594 C 0.23003 0.89152 0.86571 0.0
C2595 C 0.24292 0.90104 0.80339 0.0
C2596 C 0.25269 0.90298 0.77397 0.0
C2597 C 0.25251 0.8936 0.75145 0.0
C2598 C 0.26185 0.89548 0.72437 0.0
C2599 C 0.27137 0.90672 0.71924 0.0
C2600 C 0.27155 0.91612 0.74106 0.0
C2601 C 0.26225 0.91428 0.76825 0.0
H2602 H 0.27859 0.90816 0.69828 0.0
H2603 H 0.19019 0.89227 0.96903 0.0
H2604 H 0.71712 0.90581 0.82176 0.0
H2605 H 0.69622 0.89653 0.83628 0.0
H2606 H 0.69652 0.928 0.79737 0.0
H2607 H 0.71753 0.9374 0.78228 0.0
H2608 H 0.68456 0.91785 0.87948 0.0
H2609 H 0.68521 0.90665 0.7287 0.0
H2610 H 0.69134 0.89856 0.66777 0.0
H2611 H 0.67667 0.86565 0.73499 0.0
H2612 H 0.67059 0.87359 0.79666 0.0
H2613 H 0.62235 0.89105 0.88306 0.0
H2614 H 0.64322 0.90227 0.86626 0.0
H2615 H 0.64476 0.87044 0.86529 0.0
H2616 H 0.62381 0.85921 0.87927 0.0
H2617 H 0.65602 0.88208 0.79978 0.0
H2618 H 0.65649 0.89263 0.95203 0.0
H2619 H 0.65103 0.90019 0.01672 0.0
H2620 H 0.66409 0.93335 0.95262 0.0
H2621 H 0.66951 0.92594 0.88731 0.0
C2622 C 0.71276 0.91078 0.81609 0.0
C2623 C 0.71902 0.92236 0.80079 0.0
C2624 C 0.7008 0.90544 0.82435 0.0
C2625 C 0.69482 0.91157 0.81782 0.0
C2626 C 0.70099 0.92313 0.80264 0.0
C2627 C 0.71297 0.92845 0.79378 0.0
C2628 C 0.68212 0.90582 0.8272 0.0
C2629 C 0.67826 0.91013 0.86168 0.0
C2630 C 0.67399 0.89558 0.80475 0.0
C2631 C 0.67753 0.89075 0.76746 0.0
C2632 C 0.68336 0.89771 0.73065 0.0
C2633 C 0.68682 0.89315 0.69595 0.0
C2634 C 0.68442 0.88161 0.69755 0.0
C2635 C 0.67853 0.87459 0.73381 0.0
C2636 C 0.67507 0.87912 0.76862 0.0
C2637 C 0.6272 0.88649 0.87979 0.0
C2638 C 0.62147 0.87426 0.88255 0.0
C2639 C 0.63916 0.89292 0.87034 0.0
C2640 C 0.6457 0.88727 0.86491 0.0
C2641 C 0.63998 0.87506 0.86902 0.0
C2642 C 0.628 0.86863 0.87728 0.0
C2643 C 0.65834 0.89392 0.85297 0.0
C2644 C 0.66224 0.88981 0.81776 0.0
C2645 C 0.66653 0.90422 0.87536 0.0
C2646 C 0.66329 0.90869 0.91461 0.0
C2647 C 0.65812 0.90151 0.95161 0.0
C2648 C 0.65505 0.90577 0.98841 0.0
C2649 C 0.65718 0.91723 0.98872 0.0
C2650 C 0.66242 0.92447 0.95229 0.0
C2651 C 0.66551 0.92025 0.9154 0.0
H2652 H 0.65479 0.92051 0.01724 0.0
H2653 H 0.68711 0.87809 0.67066 0.0
H2654 H 0.06703 0.77917 0.78756 0.0
H2655 H 0.07621 0.76727 0.80098 0.0
H2656 H 0.10998 0.79844 0.80641 0.0
H2657 H 0.10087 0.81039 0.79443 0.0
H2658 H 0.10687 0.77745 0.7506 0.0
H2659 H 0.10082 0.78952 0.89661 0.0
H2660 H 0.08841 0.79094 0.95414 0.0
H2661 H 0.06676 0.75363 0.95521 0.0
H2662 H 0.07897 0.75202 0.89713 0.0
H2663 H 0.14652 0.76344 0.84321 0.0
H2664 H 0.13464 0.7722 0.82565 0.0
H2665 H 0.10402 0.74149 0.87398 0.0
H2666 H 0.11599 0.73275 0.89294 0.0
H2667 H 0.10322 0.75995 0.89887 0.0
H2668 H 0.10922 0.7467 0.76183 0.0
H2669 H 0.12004 0.74377 0.70171 0.0
H2670 H 0.13945 0.78072 0.67862 0.0
H2671 H 0.12885 0.7839 0.73906 0.0
C2672 C 0.07642 0.78347 0.79117 0.0
C2673 C 0.08324 0.79571 0.79006 0.0
C2674 C 0.08163 0.77667 0.79896 0.0
C2675 C 0.09375 0.782 0.80475 0.0
C2676 C 0.10061 0.79418 0.80199 0.0
C2677 C 0.09539 0.80099 0.79528 0.0
C2678 C 0.09931 0.77498 0.81531 0.0
C2679 C 0.10617 0.77368 0.78306 0.0
C2680 C 0.09797 0.76969 0.85708 0.0
C2681 C 0.09071 0.77066 0.89216 0.0
C2682 C 0.09334 0.78163 0.90878 0.0
C2683 C 0.08636 0.78247 0.94156 0.0
C2684 C 0.07678 0.77239 0.95821 0.0
C2685 C 0.07418 0.76144 0.94221 0.0
C2686 C 0.08112 0.76056 0.90939 0.0
C2687 C 0.13727 0.75853 0.85024 0.0
C2688 C 0.13221 0.74734 0.86919 0.0
C2689 C 0.13045 0.76353 0.83991 0.0
C2690 C 0.11836 0.75741 0.84747 0.0
C2691 C 0.11331 0.74637 0.86754 0.0
C2692 C 0.12017 0.74138 0.87837 0.0
C2693 C 0.11112 0.76264 0.83447 0.0
C2694 C 0.10389 0.76359 0.86619 0.0
C2695 C 0.1119 0.76738 0.79175 0.0
C2696 C 0.1183 0.76554 0.75525 0.0
C2697 C 0.11585 0.75422 0.74416 0.0
C2698 C 0.12194 0.75251 0.70998 0.0
C2699 C 0.13044 0.76206 0.68642 0.0
C2700 C 0.13286 0.77333 0.69693 0.0
C2701 C 0.12681 0.77509 0.73112 0.0
H2702 H 0.13515 0.76072 0.65997 0.0
H2703 H 0.07139 0.77305 0.98359 0.0
H2704 H 0.19212 0.28548 0.83578 0.0
H2705 H 0.20326 0.30638 0.84993 0.0
H2706 H 0.23321 0.30832 0.78549 0.0
H2707 H 0.22214 0.28724 0.77156 0.0
H2708 H 0.23884 0.32042 0.86474 0.0
H2709 H 0.21699 0.31799 0.73312 0.0
H2710 H 0.19883 0.31022 0.68975 0.0
H2711 H 0.18446 0.32322 0.78648 0.0
H2712 H 0.20248 0.33094 0.8307 0.0
H2713 H 0.27181 0.38241 0.8599 0.0
H2714 H 0.26169 0.36149 0.84403 0.0
H2715 H 0.22887 0.35902 0.8787 0.0
H2716 H 0.23895 0.38012 0.891 0.0
H2717 H 0.225 0.34689 0.81216 0.0
H2718 H 0.24515 0.34848 0.94611 0.0
H2719 H 0.26205 0.35509 0.99593 0.0
H2720 H 0.27822 0.34283 0.90403 0.0
H2721 H 0.26147 0.33627 0.85341 0.0
C2722 C 0.20107 0.29031 0.82444 0.0
C2723 C 0.20622 0.28463 0.80246 0.0
C2724 C 0.20742 0.3023 0.83247 0.0
C2725 C 0.21905 0.30895 0.81847 0.0
C2726 C 0.22425 0.30335 0.79655 0.0
C2727 C 0.21788 0.29132 0.7884 0.0
C2728 C 0.22575 0.32173 0.82712 0.0
C2729 C 0.23594 0.32627 0.85275 0.0
C2730 C 0.22174 0.32927 0.81269 0.0
C2731 C 0.21107 0.32499 0.78531 0.0
C2732 C 0.20995 0.31917 0.74518 0.0
C2733 C 0.19968 0.31477 0.72045 0.0
C2734 C 0.19049 0.31622 0.73536 0.0
C2735 C 0.19158 0.32211 0.77495 0.0
C2736 C 0.20183 0.32652 0.79981 0.0
C2737 C 0.26245 0.37734 0.86457 0.0
C2738 C 0.25615 0.38282 0.8769 0.0
C2739 C 0.25665 0.36534 0.85573 0.0
C2740 C 0.24447 0.35849 0.86085 0.0
C2741 C 0.23824 0.36402 0.87426 0.0
C2742 C 0.24399 0.37606 0.8816 0.0
C2743 C 0.23813 0.34572 0.85053 0.0
C2744 C 0.22799 0.34113 0.82435 0.0
C2745 C 0.24205 0.33809 0.86533 0.0
C2746 C 0.25211 0.34199 0.8958 0.0
C2747 C 0.25234 0.34726 0.93641 0.0
C2748 C 0.26189 0.35099 0.9648 0.0
C2749 C 0.27122 0.34941 0.9531 0.0
C2750 C 0.271 0.34406 0.91303 0.0
C2751 C 0.26148 0.34033 0.8845 0.0
H2752 H 0.2786 0.3523 0.97512 0.0
H2753 H 0.18253 0.31277 0.71626 0.0
H2754 H 0.92686 0.71464 0.26845 0.0
H2755 H 0.91723 0.69359 0.25493 0.0
H2756 H 0.915 0.69955 0.1159 0.0
H2757 H 0.92383 0.72043 0.13005 0.0
H2758 H 0.89619 0.68244 0.13544 0.0
H2759 H 0.93521 0.69143 0.16566 0.0
H2760 H 0.95369 0.69938 0.20702 0.0
H2761 H 0.93566 0.67662 0.31579 0.0
H2762 H 0.91704 0.66864 0.2753 0.0
H2763 H 0.88353 0.62439 0.07283 0.0
H2764 H 0.8953 0.64559 0.08468 0.0
H2765 H 0.88369 0.64108 0.21992 0.0
H2766 H 0.87167 0.62003 0.20807 0.0
H2767 H 0.91002 0.65702 0.19963 0.0
H2768 H 0.87065 0.64917 0.16431 0.0
H2769 H 0.85318 0.64106 0.11676 0.0
H2770 H 0.87404 0.66204 0.00841 0.0
H2771 H 0.89167 0.67014 0.0552 0.0
C2772 C 0.92434 0.71142 0.23505 0.0
C2773 C 0.92606 0.71914 0.20032 0.0
C2774 C 0.91891 0.69938 0.2272 0.0
C2775 C 0.91551 0.69488 0.18415 0.0
C2776 C 0.91745 0.7027 0.14944 0.0
C2777 C 0.92253 0.71466 0.1575 0.0
C2778 C 0.90954 0.68205 0.17531 0.0
C2779 C 0.89941 0.67699 0.14902 0.0
C2780 C 0.91353 0.67475 0.19313 0.0
C2781 C 0.92471 0.67952 0.21759 0.0
C2782 C 0.93518 0.68818 0.19852 0.0
C2783 C 0.94568 0.69268 0.2218 0.0
C2784 C 0.94585 0.68853 0.26405 0.0
C2785 C 0.93551 0.67984 0.28308 0.0
C2786 C 0.92498 0.67532 0.25997 0.0
C2787 C 0.88355 0.62793 0.10511 0.0
C2788 C 0.87663 0.62057 0.13943 0.0
C2789 C 0.89026 0.64001 0.11182 0.0
C2790 C 0.89035 0.64485 0.15319 0.0
C2791 C 0.88375 0.63749 0.18783 0.0
C2792 C 0.87684 0.62548 0.18088 0.0
C2793 C 0.89687 0.65766 0.16002 0.0
C2794 C 0.90701 0.66263 0.18594 0.0
C2795 C 0.89309 0.66493 0.141 0.0
C2796 C 0.88248 0.66015 0.11307 0.0
C2797 C 0.87152 0.65196 0.13023 0.0
C2798 C 0.86159 0.64739 0.10344 0.0
C2799 C 0.86251 0.651 0.05955 0.0
C2800 C 0.87335 0.65923 0.04239 0.0
C2801 C 0.88331 0.66382 0.06903 0.0
H2802 H 0.85481 0.64745 0.03887 0.0
H2803 H 0.95398 0.69203 0.28202 0.0
H2804 H 0.38316 0.26944 0.10387 0.0
H2805 H 0.36222 0.25929 0.12021 0.0
H2806 H 0.36531 0.23246 0.18906 0.0
H2807 H 0.38616 0.24248 0.173 0.0
H2808 H 0.34633 0.22358 0.13205 0.0
H2809 H 0.36362 0.25326 0.24622 0.0
H2810 H 0.37538 0.27352 0.27278 0.0
H2811 H 0.35288 0.2829 0.20401 0.0
H2812 H 0.34108 0.26271 0.17657 0.0
H2813 H 0.29182 0.19318 0.23562 0.0
H2814 H 0.31281 0.20439 0.22187 0.0
H2815 H 0.30966 0.2342 0.1847 0.0
H2816 H 0.2888 0.22322 0.20216 0.0
H2817 H 0.3288 0.24214 0.22227 0.0
H2818 H 0.31146 0.21373 0.10719 0.0
H2819 H 0.29963 0.1941 0.07487 0.0
H2820 H 0.3218 0.1831 0.13597 0.0
H2821 H 0.33368 0.20262 0.16913 0.0
C2822 C 0.37938 0.26136 0.12236 0.0
C2823 C 0.38639 0.25682 0.13725 0.0
C2824 C 0.36742 0.2556 0.13183 0.0
C2825 C 0.36222 0.24517 0.15618 0.0
C2826 C 0.36914 0.24051 0.1703 0.0
C2827 C 0.38108 0.24629 0.16118 0.0
C2828 C 0.34959 0.23905 0.16718 0.0
C2829 C 0.3425 0.22758 0.15213 0.0
C2830 C 0.34452 0.24441 0.19208 0.0
C2831 C 0.35154 0.25651 0.20901 0.0
C2832 C 0.36123 0.25966 0.23652 0.0
C2833 C 0.3679 0.27113 0.25177 0.0
C2834 C 0.3649 0.2795 0.24 0.0
C2835 C 0.35521 0.27641 0.21306 0.0
C2836 C 0.34852 0.26496 0.19768 0.0
C2837 C 0.29568 0.20218 0.22515 0.0
C2838 C 0.28874 0.20735 0.21987 0.0
C2839 C 0.30766 0.20856 0.21672 0.0
C2840 C 0.31286 0.22007 0.20068 0.0
C2841 C 0.30593 0.22534 0.19676 0.0
C2842 C 0.29401 0.21908 0.20673 0.0
C2843 C 0.32542 0.22654 0.18741 0.0
C2844 C 0.33254 0.23809 0.20197 0.0
C2845 C 0.33048 0.22134 0.1611 0.0
C2846 C 0.3234 0.20961 0.1409 0.0
C2847 C 0.31378 0.20711 0.11389 0.0
C2848 C 0.30707 0.196 0.0954 0.0
C2849 C 0.30997 0.18736 0.10335 0.0
C2850 C 0.31959 0.18981 0.12978 0.0
C2851 C 0.32631 0.20089 0.14842 0.0
H2852 H 0.30475 0.17876 0.08909 0.0
H2853 H 0.37007 0.28837 0.25182 0.0
H2854 H 0.76247 0.14325 0.18192 0.0
H2855 H 0.77165 0.13158 0.19594 0.0
H2856 H 0.74611 0.10413 0.11322 0.0
H2857 H 0.73687 0.11586 0.09844 0.0
H2858 H 0.76387 0.11102 0.23508 0.0
H2859 H 0.75943 0.0903 0.06367 0.0
H2860 H 0.7578 0.09442 0.98529 0.0
H2861 H 0.77631 0.13121 0.01227 0.0
H2862 H 0.77818 0.12731 0.09062 0.0
H2863 H 0.78297 0.06893 0.24818 0.0
H2864 H 0.7713 0.07826 0.23391 0.0
H2865 H 0.79931 0.10463 0.15571 0.0
H2866 H 0.81092 0.09537 0.16927 0.0
H2867 H 0.77902 0.09697 0.11427 0.0
H2868 H 0.79416 0.11024 0.26094 0.0
H2869 H 0.7975 0.10778 0.33935 0.0
H2870 H 0.76053 0.08883 0.36211 0.0
H2871 H 0.75697 0.09106 0.28364 0.0
C2872 C 0.75878 0.13475 0.16647 0.0
C2873 C 0.74891 0.13053 0.13889 0.0
C2874 C 0.76403 0.12805 0.17478 0.0
C2875 C 0.7596 0.11697 0.15567 0.0
C2876 C 0.74976 0.11269 0.12806 0.0
C2877 C 0.74448 0.11942 0.11965 0.0
C2878 C 0.76545 0.11007 0.16456 0.0
C2879 C 0.7671 0.10787 0.20862 0.0
C2880 C 0.76977 0.10604 0.13017 0.0
C2881 C 0.76881 0.1085 0.08307 0.0
C2882 C 0.76317 0.09927 0.05281 0.0
C2883 C 0.76221 0.10156 0.00841 0.0
C2884 C 0.76691 0.11307 0.99385 0.0
C2885 C 0.77263 0.1223 0.02362 0.0
C2886 C 0.77363 0.12005 0.06804 0.0
C2887 C 0.78667 0.07674 0.22813 0.0
C2888 C 0.79791 0.08137 0.20991 0.0
C2889 C 0.77998 0.08207 0.22 0.0
C2890 C 0.78443 0.09216 0.19371 0.0
C2891 C 0.79565 0.09681 0.1758 0.0
C2892 C 0.80231 0.09151 0.18383 0.0
C2893 C 0.77751 0.098 0.18478 0.0
C2894 C 0.77563 0.09996 0.14071 0.0
C2895 C 0.77317 0.10201 0.21918 0.0
C2896 C 0.7753 0.1007 0.26635 0.0
C2897 C 0.78674 0.10547 0.2826 0.0
C2898 C 0.78867 0.10413 0.32706 0.0
C2899 C 0.77923 0.09812 0.35567 0.0
C2900 C 0.76783 0.09347 0.3399 0.0
C2901 C 0.76585 0.09477 0.29544 0.0
H2902 H 0.78074 0.0971 0.39008 0.0
H2903 H 0.76615 0.11483 0.95947 0.0
H2904 H 0.04995 0.45543 0.40729 0.0
H2905 H 0.0288 0.44367 0.41928 0.0
H2906 H 0.0331 0.45758 0.55104 0.0
H2907 H 0.05414 0.46954 0.53908 0.0
H2908 H 0.01777 0.43166 0.54035 0.0
H2909 H 0.02448 0.46898 0.48358 0.0
H2910 H 0.03204 0.48482 0.42847 0.0
H2911 H 0.01101 0.46039 0.32798 0.0
H2912 H 0.00345 0.44438 0.38242 0.0
H2913 H 0.95982 0.41486 0.60194 0.0
H2914 H 0.98086 0.42474 0.58851 0.0
H2915 H 0.97455 0.42222 0.44784 0.0
H2916 H 0.95362 0.41317 0.46152 0.0
H2917 H 0.99132 0.4418 0.46058 0.0
H2918 H 0.98375 0.40454 0.51172 0.0
H2919 H 0.97639 0.3876 0.56165 0.0
H2920 H 0.99879 0.40962 0.6651 0.0
H2921 H 0.00618 0.42673 0.61596 0.0
C2922 C 0.04639 0.45594 0.43886 0.0
C2923 C 0.05371 0.46346 0.47214 0.0
C2924 C 0.03432 0.44923 0.44563 0.0
C2925 C 0.02942 0.44978 0.48605 0.0
C2926 C 0.03673 0.45703 0.51968 0.0
C2927 C 0.04874 0.46391 0.51265 0.0
C2928 C 0.01662 0.44312 0.49292 0.0
C2929 C 0.01194 0.43388 0.52325 0.0
C2930 C 0.00905 0.44583 0.46951 0.0
C2931 C 0.01351 0.45547 0.43694 0.0
C2932 C 0.02155 0.46698 0.44965 0.0
C2933 C 0.02582 0.47598 0.41856 0.0
C2934 C 0.02204 0.47361 0.37472 0.0
C2935 C 0.01395 0.46222 0.36193 0.0
C2936 C 0.00966 0.45318 0.39289 0.0
C2937 C 0.96297 0.4164 0.56821 0.0
C2938 C 0.95512 0.41327 0.53277 0.0
C2939 C 0.975 0.42196 0.56045 0.0
C2940 C 0.97941 0.42408 0.51702 0.0
C2941 C 0.97148 0.42076 0.48166 0.0
C2942 C 0.95949 0.41555 0.48946 0.0
C2943 C 0.99224 0.43016 0.5083 0.0
C2944 C 0.997 0.43938 0.47761 0.0
C2945 C 0.99985 0.42721 0.53063 0.0
C2946 C 0.99544 0.41694 0.56026 0.0
C2947 C 0.98705 0.40579 0.54521 0.0
C2948 C 0.98288 0.39615 0.57336 0.0
C2949 C 0.9871 0.39754 0.61655 0.0
C2950 C 0.99552 0.40856 0.63165 0.0
C2951 C 0.99971 0.41823 0.60365 0.0
H2952 H 0.98386 0.39007 0.63829 0.0
H2953 H 0.02535 0.48059 0.3507 0.0
H2954 H 0.60306 0.55642 0.57965 0.0
H2955 H 0.59361 0.56802 0.5667 0.0
H2956 H 0.56579 0.53916 0.49635 0.0
H2957 H 0.57519 0.52761 0.50851 0.0
H2958 H 0.57276 0.55874 0.45182 0.0
H2959 H 0.56218 0.54613 0.60227 0.0
H2960 H 0.5659 0.54383 0.68041 0.0
H2961 H 0.5858 0.58106 0.69546 0.0
H2962 H 0.58233 0.58358 0.6172 0.0
H2963 H 0.52985 0.57935 0.52392 0.0
H2964 H 0.54097 0.56962 0.53896 0.0
H2965 H 0.56762 0.59268 0.44794 0.0
H2966 H 0.55644 0.60242 0.43205 0.0
H2967 H 0.56195 0.57671 0.57317 0.0
H2968 H 0.57913 0.57747 0.39752 0.0
H2969 H 0.57373 0.57814 0.31999 0.0
H2970 H 0.53759 0.5617 0.35664 0.0
H2971 H 0.54277 0.56079 0.43422 0.0
C2972 C 0.5949 0.55252 0.56164 0.0
C2973 C 0.58992 0.54107 0.54508 0.0
C2974 C 0.5895 0.55917 0.55429 0.0
C2975 C 0.57897 0.55447 0.5306 0.0
C2976 C 0.57394 0.54302 0.51445 0.0
C2977 C 0.57933 0.53639 0.52163 0.0
C2978 C 0.57315 0.56142 0.52215 0.0
C2979 C 0.57046 0.56272 0.47838 0.0
C2980 C 0.57003 0.56653 0.55672 0.0
C2981 C 0.5721 0.56504 0.60378 0.0
C2982 C 0.56743 0.55382 0.62216 0.0
C2983 C 0.56948 0.55248 0.66648 0.0
C2984 C 0.57611 0.56229 0.69285 0.0
C2985 C 0.58068 0.57347 0.67498 0.0
C2986 C 0.57867 0.57486 0.63065 0.0
C2987 C 0.53807 0.58239 0.50701 0.0
C2988 C 0.54219 0.59166 0.47653 0.0
C2989 C 0.54446 0.57684 0.51585 0.0
C2990 C 0.55511 0.58035 0.49442 0.0
C2991 C 0.55936 0.58972 0.46449 0.0
C2992 C 0.55295 0.59528 0.45553 0.0
C2993 C 0.56155 0.57401 0.50286 0.0
C2994 C 0.56438 0.57284 0.5466 0.0
C2995 C 0.5646 0.56882 0.46834 0.0
C2996 C 0.56136 0.56919 0.42172 0.0
C2997 C 0.57003 0.57397 0.38898 0.0
C2998 C 0.56701 0.57439 0.34504 0.0
C2999 C 0.55533 0.57 0.33343 0.0
C3000 C 0.54664 0.56514 0.3657 0.0
C3001 C 0.54962 0.56468 0.40967 0.0
H3002 H 0.553 0.57035 0.29941 0.0
H3003 H 0.57769 0.56123 0.72716 0.0
H3004 H 0.45626 0.04749 0.60567 0.0
H3005 H 0.44452 0.02631 0.59351 0.0
H3006 H 0.4571 0.03085 0.45961 0.0
H3007 H 0.46908 0.0519 0.47179 0.0
H3008 H 0.43083 0.01525 0.47621 0.0
H3009 H 0.46943 0.0224 0.51926 0.0
H3010 H 0.48633 0.03015 0.56966 0.0
H3011 H 0.46408 0.00902 0.67499 0.0
H3012 H 0.44702 1.00128 0.62532 0.0
H3013 H 0.41381 0.95777 0.40765 0.0
H3014 H 0.42375 0.97875 0.42224 0.0
H3015 H 0.42388 0.9721 0.56185 0.0
H3016 H 0.41471 0.95121 0.5468 0.0
H3017 H 0.44312 0.98916 0.54548 0.0
H3018 H 0.40477 0.98094 0.50757 0.0
H3019 H 0.38684 0.97337 0.46295 0.0
H3020 H 0.40643 0.99622 0.35647 0.0
H3021 H 0.42452 0.00382 0.40024 0.0
C3022 C 0.45647 0.04396 0.57362 0.0
C3023 C 0.46364 0.05134 0.53977 0.0
C3024 C 0.44978 0.03189 0.56674 0.0
C3025 C 0.44996 0.02706 0.52565 0.0
C3026 C 0.45684 0.03443 0.49149 0.0
C3027 C 0.46372 0.04644 0.49862 0.0
C3028 C 0.44334 0.01427 0.51858 0.0
C3029 C 0.43351 0.0095 0.491 0.0
C3030 C 0.44667 0.00681 0.53907 0.0
C3031 C 0.45694 0.01138 0.56874 0.0
C3032 C 0.46813 0.0195 0.55328 0.0
C3033 C 0.47774 0.02387 0.58169 0.0
C3034 C 0.47627 0.02011 0.62554 0.0
C3035 C 0.4652 0.01194 0.64104 0.0
C3036 C 0.45556 0.00756 0.61277 0.0
C3037 C 0.41594 0.96082 0.44142 0.0
C3038 C 0.41349 0.95287 0.47609 0.0
C3039 C 0.42155 0.97282 0.44986 0.0
C3040 C 0.42441 0.97711 0.49336 0.0
C3041 C 0.42183 0.96911 0.52799 0.0
C3042 C 0.41655 0.95715 0.5194 0.0
C3043 C 0.43045 0.98991 0.50274 0.0
C3044 C 0.44024 0.99476 0.53078 0.0
C3045 C 0.42688 0.99741 0.48348 0.0
C3046 C 0.41602 0.99287 0.45706 0.0
C3047 C 0.40527 0.98429 0.47453 0.0
C3048 C 0.39507 0.98 0.4494 0.0
C3049 C 0.3955 0.98429 0.40686 0.0
C3050 C 0.40612 0.99289 0.3894 0.0
C3051 C 0.41634 0.99721 0.41437 0.0
H3052 H 0.3876 0.98095 0.38746 0.0
H3053 H 0.48372 0.0235 0.64748 0.0
H3054 H 0.60615 0.04978 0.55211 0.0
H3055 H 0.59674 0.02875 0.53689 0.0
H3056 H 0.56318 0.02662 0.53278 0.0
H3057 H 0.57253 0.04763 0.5467 0.0
H3058 H 0.56541 0.00847 0.58624 0.0
H3059 H 0.57296 0.02701 0.44166 0.0
H3060 H 0.58579 0.04086 0.38496 0.0
H3061 H 0.60678 0.0245 0.38484 0.0
H3062 H 0.59416 0.01066 0.4421 0.0
H3063 H 0.52647 0.95465 0.4921 0.0
H3064 H 0.53811 0.97539 0.50871 0.0
H3065 H 0.56919 0.97539 0.46606 0.0
H3066 H 0.55748 0.95458 0.448 0.0
H3067 H 0.57016 0.99466 0.43942 0.0
H3068 H 0.56276 0.9753 0.57732 0.0
H3069 H 0.55123 0.96157 0.63651 0.0
H3070 H 0.53182 0.97931 0.65389 0.0
H3071 H 0.54313 0.99306 0.59432 0.0
C3072 C 0.59676 0.0448 0.54836 0.0
C3073 C 0.59007 0.05034 0.55049 0.0
C3074 C 0.59142 0.03282 0.53951 0.0
C3075 C 0.57929 0.02617 0.53359 0.0
C3076 C 0.57256 0.03161 0.53722 0.0
C3077 C 0.57791 0.04361 0.54505 0.0
C3078 C 0.57357 0.01358 0.52251 0.0
C3079 C 0.56635 0.00542 0.55407 0.0
C3080 C 0.57517 0.00964 0.48111 0.0
C3081 C 0.58271 0.01791 0.44654 0.0
C3082 C 0.58038 0.02645 0.42988 0.0
C3083 C 0.5876 0.03427 0.39757 0.0
C3084 C 0.59712 0.03359 0.38142 0.0
C3085 C 0.59942 0.02504 0.39745 0.0
C3086 C 0.59223 0.0172 0.42981 0.0
C3087 C 0.53578 0.95904 0.48606 0.0
C3088 C 0.54105 0.9529 0.46908 0.0
C3089 C 0.54245 0.97092 0.49583 0.0
C3090 C 0.55459 0.97693 0.48973 0.0
C3091 C 0.55985 0.97094 0.47138 0.0
C3092 C 0.55314 0.95903 0.46106 0.0
C3093 C 0.56171 0.98944 0.50289 0.0
C3094 C 0.56924 0.99762 0.4718 0.0
C3095 C 0.56057 0.99339 0.54515 0.0
C3096 C 0.55374 0.98516 0.58107 0.0
C3097 C 0.55598 0.97623 0.59353 0.0
C3098 C 0.54949 0.96844 0.62719 0.0
C3099 C 0.54078 0.96955 0.64888 0.0
C3100 C 0.53856 0.97846 0.63702 0.0
C3101 C 0.54502 0.98626 0.60334 0.0
H3102 H 0.53576 0.96352 0.67494 0.0
H3103 H 0.6027 0.03965 0.3564 0.0
H3104 H 0.95569 0.52542 0.53061 0.0
H3105 H 0.97667 0.53677 0.51681 0.0
H3106 H 0.97645 0.56849 0.54719 0.0
H3107 H 0.9554 0.55714 0.56166 0.0
H3108 H 0.98809 0.56906 0.46624 0.0
H3109 H 0.98776 0.55917 0.61925 0.0
H3110 H 0.98185 0.54575 0.68278 0.0
H3111 H 0.99701 0.52718 0.62164 0.0
H3112 H 1.00281 0.54035 0.55732 0.0
H3113 H 0.05013 0.60488 0.45889 0.0
H3114 H 0.02935 0.59527 0.477 0.0
H3115 H 0.02817 0.56211 0.48429 0.0
H3116 H 0.04904 0.57182 0.46861 0.0
H3117 H 0.01705 0.56324 0.5495 0.0
H3118 H 0.01602 0.57104 0.3953 0.0
H3119 H 0.02117 0.58303 0.32779 0.0
H3120 H 0.00804 0.60383 0.38541 0.0
H3121 H 1.00294 0.59205 0.45352 0.0
C3122 C 0.9601 0.5348 0.53471 0.0
C3123 C 0.95387 0.54038 0.54725 0.0
C3124 C 0.9721 0.54127 0.52686 0.0
C3125 C 0.97811 0.55347 0.531 0.0
C3126 C 0.97196 0.55908 0.5438 0.0
C3127 C 0.95996 0.55258 0.55232 0.0
C3128 C 0.99077 0.5603 0.52093 0.0
C3129 C 0.99448 0.56796 0.48482 0.0
C3130 C 0.99901 0.55856 0.54438 0.0
C3131 C 0.99563 0.5507 0.58327 0.0
C3132 C 0.98975 0.55217 0.61917 0.0
C3133 C 0.98643 0.54461 0.65535 0.0
C3134 C 0.98904 0.53561 0.65621 0.0
C3135 C 0.995 0.53416 0.62094 0.0
C3136 C 0.9983 0.54167 0.5846 0.0
C3137 C 0.04538 0.59552 0.46384 0.0
C3138 C 0.0512 0.5891 0.4623 0.0
C3139 C 0.03347 0.59001 0.47408 0.0
C3140 C 0.02706 0.5779 0.48165 0.0
C3141 C 0.03286 0.57146 0.47891 0.0
C3142 C 0.0448 0.577 0.46972 0.0
C3143 C 0.01446 0.57194 0.49407 0.0
C3144 C 0.01073 0.56443 0.53081 0.0
C3145 C 0.00616 0.57365 0.47059 0.0
C3146 C 0.00922 0.58074 0.42968 0.0
C3147 C 0.01431 0.57823 0.3937 0.0
C3148 C 0.01721 0.58497 0.35531 0.0
C3149 C 0.01497 0.59421 0.35236 0.0
C3150 C 0.00979 0.59669 0.38777 0.0
C3151 C 0.00689 0.58998 0.42626 0.0
H3152 H 0.01722 0.59942 0.32261 0.0
H3153 H 0.98644 0.52975 0.68421 0.0
H3154 H 0.43197 0.4792 0.48643 0.0
H3155 H 0.44134 0.46758 0.49897 0.0
H3156 H 0.41046 0.43682 0.45272 0.0
H3157 H 0.40097 0.44843 0.43973 0.0
H3158 H 0.4199 0.43366 0.53341 0.0
H3159 H 0.43267 0.44866 0.38658 0.0
H3160 H 0.44129 0.46418 0.33034 0.0
H3161 H 0.47335 0.48125 0.40362 0.0
H3162 H 0.46487 0.46592 0.46065 0.0
H3163 H 0.44717 0.3988 0.53082 0.0
H3164 H 0.43599 0.40851 0.51418 0.0
H3165 H 0.46764 0.442 0.521 0.0
H3166 H 0.47886 0.43223 0.53441 0.0
H3167 H 0.45657 0.44282 0.45642 0.0
H3168 H 0.44444 0.42964 0.60543 0.0
H3169 H 0.4363 0.4153 0.666 0.0
H3170 H 0.40398 0.39624 0.59533 0.0
H3171 H 0.41198 0.4104 0.5341 0.0
C3172 C 0.42715 0.46997 0.4788 0.0
C3173 C 0.41571 0.46476 0.46198 0.0
C3174 C 0.43254 0.46334 0.48592 0.0
C3175 C 0.42661 0.45135 0.47662 0.0
C3176 C 0.41518 0.44607 0.46011 0.0
C3177 C 0.4098 0.45273 0.45248 0.0
C3178 C 0.43243 0.44438 0.48429 0.0
C3179 C 0.42783 0.43551 0.51619 0.0
C3180 C 0.44293 0.44704 0.46263 0.0
C3181 C 0.4481 0.45618 0.42805 0.0
C3182 C 0.44153 0.45577 0.39085 0.0
C3183 C 0.4464 0.46453 0.35881 0.0
C3184 C 0.45785 0.47371 0.36344 0.0
C3185 C 0.46448 0.47414 0.40008 0.0
C3186 C 0.45965 0.46541 0.43224 0.0
C3187 C 0.45169 0.40824 0.52902 0.0
C3188 C 0.46386 0.41478 0.53394 0.0
C3189 C 0.44529 0.41381 0.51976 0.0
C3190 C 0.45089 0.42606 0.51694 0.0
C3191 C 0.46306 0.43256 0.52272 0.0
C3192 C 0.46948 0.42698 0.5306 0.0
C3193 C 0.44424 0.43216 0.50655 0.0
C3194 C 0.44865 0.44088 0.47385 0.0
C3195 C 0.43368 0.42951 0.52817 0.0
C3196 C 0.42885 0.42101 0.56501 0.0
C3197 C 0.43563 0.42235 0.60269 0.0
C3198 C 0.43103 0.41426 0.63716 0.0
C3199 C 0.41964 0.40485 0.63446 0.0
C3200 C 0.41281 0.40352 0.59735 0.0
C3201 C 0.41736 0.41158 0.56278 0.0
H3202 H 0.4161 0.39859 0.66117 0.0
H3203 H 0.4616 0.48049 0.33861 0.0
H3204 H 0.25806 0.08598 0.35476 0.0
H3205 H 0.25938 0.1051 0.36251 0.0
H3206 H 0.2511 0.10444 0.22445 0.0
H3207 H 0.2495 0.08532 0.21672 0.0
H3208 H 0.27026 0.12617 0.25351 0.0
H3209 H 0.23058 0.09824 0.29328 0.0
H3210 H 0.21523 0.08182 0.33556 0.0
H3211 H 0.22851 0.10115 0.45606 0.0
H3212 H 0.24407 0.11764 0.41449 0.0
H3213 H 0.24881 0.1647 0.22303 0.0
H3214 H 0.25048 0.14725 0.22989 0.0
H3215 H 0.2599 0.15516 0.36703 0.0
H3216 H 0.25851 0.17297 0.36015 0.0
H3217 H 0.24207 0.13081 0.34716 0.0
H3218 H 0.28059 0.15959 0.30677 0.0
H3219 H 0.29543 0.17627 0.26405 0.0
H3220 H 0.28442 0.1557 0.14554 0.0
H3221 H 0.26937 0.13891 0.18749 0.0
C3222 C 0.25654 0.08993 0.32609 0.0
C3223 C 0.25366 0.08412 0.28515 0.0
C3224 C 0.25729 0.10084 0.33056 0.0
C3225 C 0.25534 0.1062 0.29402 0.0
C3226 C 0.25268 0.1005 0.25302 0.0
C3227 C 0.25173 0.08953 0.24873 0.0
C3228 C 0.25577 0.1176 0.29841 0.0
C3229 C 0.26408 0.12718 0.27388 0.0
C3230 C 0.24789 0.119 0.32581 0.0
C3231 C 0.23858 0.1091 0.35087 0.0
C3232 C 0.23031 0.09894 0.32885 0.0
C3233 C 0.22155 0.08963 0.35266 0.0
C3234 C 0.22092 0.09042 0.39849 0.0
C3235 C 0.22903 0.10054 0.42057 0.0
C3236 C 0.23782 0.10987 0.3969 0.0
C3237 C 0.25128 0.1628 0.2547 0.0
C3238 C 0.25359 0.17028 0.29101 0.0
C3239 C 0.25223 0.1528 0.25853 0.0
C3240 C 0.25537 0.14993 0.29888 0.0
C3241 C 0.25748 0.15723 0.33557 0.0
C3242 C 0.25672 0.1674 0.33155 0.0
C3243 C 0.25646 0.13931 0.30191 0.0
C3244 C 0.24841 0.12987 0.32753 0.0
C3245 C 0.2646 0.13804 0.27564 0.0
C3246 C 0.27378 0.14801 0.25024 0.0
C3247 C 0.28127 0.15864 0.27154 0.0
C3248 C 0.28973 0.16811 0.24748 0.0
C3249 C 0.29084 0.16706 0.2021 0.0
C3250 C 0.28353 0.1565 0.18071 0.0
C3251 C 0.27505 0.14699 0.20463 0.0
H3252 H 0.29736 0.17442 0.18356 0.0
H3253 H 0.21413 0.08321 0.41688 0.0
H3254 H 0.83281 0.08607 0.35556 0.0
H3255 H 0.85109 0.10478 0.36149 0.0
H3256 H 0.8584 0.10227 0.22428 0.0
H3257 H 0.84057 0.08346 0.21892 0.0
H3258 H 0.87714 0.10906 0.26797 0.0
H3259 H 0.84799 0.12094 0.26676 0.0
H3260 H 0.83054 0.12112 0.2942 0.0
H3261 H 0.84707 0.13371 0.42011 0.0
H3262 H 0.86456 0.13346 0.39358 0.0
H3263 H 0.92077 0.16595 0.21699 0.0
H3264 H 0.90222 0.14778 0.22221 0.0
H3265 H 0.90015 0.15411 0.3608 0.0
H3266 H 0.91861 0.17269 0.35521 0.0
H3267 H 0.87921 0.14522 0.32452 0.0
H3268 H 0.90892 0.13445 0.32277 0.0
H3269 H 0.9263 0.13434 0.29399 0.0
H3270 H 0.90848 0.1196 0.17182 0.0
H3271 H 0.89105 0.11975 0.19966 0.0
C3272 C 0.83833 0.08954 0.32673 0.0
C3273 C 0.83521 0.08327 0.28678 0.0
C3274 C 0.84875 0.10028 0.33004 0.0
C3275 C 0.85613 0.10508 0.29317 0.0
C3276 C 0.85294 0.09881 0.2533 0.0
C3277 C 0.84267 0.08803 0.25022 0.0
C3278 C 0.86731 0.11647 0.2957 0.0
C3279 C 0.87752 0.11697 0.27992 0.0
C3280 C 0.86799 0.1268 0.31258 0.0
C3281 C 0.85753 0.12707 0.32834 0.0
C3282 C 0.84787 0.12368 0.30038 0.0
C3283 C 0.83798 0.1238 0.31576 0.0
C3284 C 0.83768 0.12739 0.35891 0.0
C3285 C 0.8473 0.13091 0.38672 0.0
C3286 C 0.85721 0.13079 0.37153 0.0
C3287 C 0.91638 0.16353 0.2486 0.0
C3288 C 0.92123 0.17074 0.28579 0.0
C3289 C 0.90577 0.15307 0.25162 0.0
C3290 C 0.89987 0.14937 0.29216 0.0
C3291 C 0.90454 0.1567 0.32919 0.0
C3292 C 0.91511 0.16731 0.32601 0.0
C3293 C 0.88893 0.13782 0.29564 0.0
C3294 C 0.8788 0.13728 0.31276 0.0
C3295 C 0.88828 0.12743 0.27977 0.0
C3296 C 0.89871 0.12718 0.26323 0.0
C3297 C 0.90873 0.13124 0.2897 0.0
C3298 C 0.91859 0.13116 0.27355 0.0
C3299 C 0.9185 0.12699 0.23108 0.0
C3300 C 0.90854 0.12284 0.2047 0.0
C3301 C 0.89866 0.1229 0.22068 0.0
H3302 H 0.92614 0.12695 0.21863 0.0
H3303 H 0.83001 0.12748 0.37076 0.0
H3304 H 0.91618 0.74079 0.34135 0.0
H3305 H 0.89713 0.73965 0.34861 0.0
H3306 H 0.90613 0.76432 0.24213 0.0
H3307 H 0.92502 0.76545 0.23458 0.0
H3308 H 0.89664 0.76965 0.31251 0.0
H3309 H 0.88823 0.73609 0.22402 0.0
H3310 H 0.88768 0.71759 0.20745 0.0
H3311 H 0.86603 0.70169 0.32099 0.0
H3312 H 0.86662 0.72018 0.33867 0.0
H3313 H 0.84428 0.76386 0.23308 0.0
H3314 H 0.86226 0.76321 0.24158 0.0
H3315 H 0.84711 0.73921 0.35031 0.0
H3316 H 0.82894 0.73985 0.34202 0.0
H3317 H 0.85924 0.73279 0.28962 0.0
H3318 H 0.86635 0.76618 0.37392 0.0
H3319 H 0.86687 0.78475 0.38872 0.0
H3320 H 0.89098 0.801 0.28183 0.0
H3321 H 0.89048 0.78248 0.26594 0.0
C3322 C 0.91409 0.74598 0.3196 0.0
C3323 C 0.92211 0.75321 0.28738 0.0
C3324 C 0.90319 0.74529 0.32367 0.0
C3325 C 0.90018 0.75187 0.2958 0.0
C3326 C 0.90826 0.75918 0.26405 0.0
C3327 C 0.91905 0.75978 0.2597 0.0
C3328 C 0.88867 0.75125 0.29928 0.0
C3329 C 0.88848 0.7616 0.3073 0.0
C3330 C 0.87797 0.74069 0.29362 0.0
C3331 C 0.8776 0.72957 0.28302 0.0
C3332 C 0.88345 0.72869 0.24572 0.0
C3333 C 0.88311 0.7182 0.23607 0.0
C3334 C 0.87686 0.70848 0.26324 0.0
C3335 C 0.8709 0.70923 0.30004 0.0
C3336 C 0.87123 0.71971 0.3099 0.0
C3337 C 0.84473 0.75844 0.25889 0.0
C3338 C 0.83519 0.75195 0.28704 0.0
C3339 C 0.85505 0.7581 0.26376 0.0
C3340 C 0.85609 0.75125 0.29684 0.0
C3341 C 0.84651 0.74458 0.32463 0.0
C3342 C 0.83616 0.74499 0.31999 0.0
C3343 C 0.86726 0.75124 0.30205 0.0
C3344 C 0.8674 0.7408 0.29558 0.0
C3345 C 0.87794 0.76172 0.30902 0.0
C3346 C 0.87831 0.77291 0.31854 0.0
C3347 C 0.8717 0.77369 0.35335 0.0
C3348 C 0.872 0.78421 0.36197 0.0
C3349 C 0.87893 0.79404 0.33618 0.0
C3350 C 0.88561 0.79338 0.30176 0.0
C3351 C 0.88533 0.78287 0.29297 0.0
H3352 H 0.87916 0.80218 0.34291 0.0
H3353 H 0.8766 0.70036 0.2557 0.0
H3354 H 0.0884 0.25879 0.65652 0.0
H3355 H 0.10763 0.26036 0.6492 0.0
H3356 H 0.1049 0.24773 0.78238 0.0
H3357 H 0.08575 0.24601 0.78971 0.0
H3358 H 0.12679 0.26699 0.76425 0.0
H3359 H 0.09946 0.22966 0.69918 0.0
H3360 H 0.08408 0.21676 0.64689 0.0
H3361 H 0.10648 0.23516 0.53771 0.0
H3362 H 0.12194 0.24828 0.58943 0.0
H3363 H 0.16373 0.24361 0.78542 0.0
H3364 H 0.14673 0.24605 0.77823 0.0
H3365 H 0.15755 0.25981 0.64689 0.0
H3366 H 0.17485 0.25759 0.65415 0.0
H3367 H 0.13309 0.24266 0.65529 0.0
H3368 H 0.16141 0.27839 0.71973 0.0
H3369 H 0.17706 0.29093 0.77167 0.0
H3370 H 0.15332 0.2761 0.88049 0.0
H3371 H 0.13757 0.26326 0.8293 0.0
C3372 C 0.09192 0.25638 0.68422 0.0
C3373 C 0.08553 0.25226 0.72366 0.0
C3374 C 0.1029 0.25727 0.67999 0.0
C3375 C 0.10771 0.25415 0.71526 0.0
C3376 C 0.10141 0.25023 0.75482 0.0
C3377 C 0.09042 0.24921 0.75886 0.0
C3378 C 0.11914 0.25462 0.71102 0.0
C3379 C 0.12816 0.26165 0.74051 0.0
C3380 C 0.12106 0.24792 0.6792 0.0
C3381 C 0.11179 0.24004 0.64814 0.0
C3382 C 0.10106 0.23102 0.66402 0.0
C3383 C 0.09234 0.22366 0.63449 0.0
C3384 C 0.09429 0.22516 0.589 0.0
C3385 C 0.10498 0.23402 0.57296 0.0
C3386 C 0.11372 0.24142 0.60236 0.0
C3387 C 0.16255 0.24718 0.75496 0.0
C3388 C 0.1707 0.25047 0.72044 0.0
C3389 C 0.15281 0.24858 0.75094 0.0
C3390 C 0.15092 0.2532 0.71219 0.0
C3391 C 0.15887 0.25625 0.67713 0.0
C3392 C 0.16875 0.255 0.68136 0.0
C3393 C 0.14062 0.25483 0.7091 0.0
C3394 C 0.13181 0.24818 0.67842 0.0
C3395 C 0.13892 0.26194 0.73963 0.0
C3396 C 0.14831 0.26978 0.77063 0.0
C3397 C 0.15953 0.27773 0.75476 0.0
C3398 C 0.16843 0.28491 0.78406 0.0
C3399 C 0.16619 0.28431 0.82934 0.0
C3400 C 0.15504 0.27655 0.84539 0.0
C3401 C 0.14612 0.26932 0.81624 0.0
H3402 H 0.17309 0.28987 0.85197 0.0
H3403 H 0.08753 0.21945 0.56619 0.0
H3404 H 0.76643 0.84303 0.76895 0.0
H3405 H 0.76482 0.86055 0.76435 0.0
H3406 H 0.73913 0.84474 0.66093 0.0
H3407 H 0.741 0.8272 0.66451 0.0
H3408 H 0.75354 0.86715 0.64261 0.0
H3409 H 0.73104 0.84643 0.7682 0.0
H3410 H 0.72704 0.83568 0.83847 0.0
H3411 H 0.75485 0.86599 0.90104 0.0
H3412 H 0.75914 0.87687 0.83096 0.0
H3413 H 0.7405 0.91375 0.66693 0.0
H3414 H 0.73876 0.89441 0.66205 0.0
H3415 H 0.76429 0.904 0.76591 0.0
H3416 H 0.76578 0.92305 0.77171 0.0
H3417 H 0.74689 0.88307 0.78092 0.0
H3418 H 0.7703 0.90296 0.65158 0.0
H3419 H 0.77401 0.91334 0.5805 0.0
H3420 H 0.74356 0.88413 0.52479 0.0
H3421 H 0.7396 0.87363 0.59572 0.0
C3422 C 0.76045 0.84327 0.74509 0.0
C3423 C 0.75378 0.83369 0.71728 0.0
C3424 C 0.75949 0.85329 0.74264 0.0
C3425 C 0.75165 0.85391 0.71296 0.0
C3426 C 0.74519 0.84447 0.68428 0.0
C3427 C 0.74625 0.83444 0.68639 0.0
C3428 C 0.75026 0.86442 0.71248 0.0
C3429 C 0.75189 0.87053 0.67274 0.0
C3430 C 0.74814 0.8689 0.75175 0.0
C3431 C 0.74545 0.86245 0.79422 0.0
C3432 C 0.73634 0.85079 0.79689 0.0
C3433 C 0.73402 0.84467 0.83669 0.0
C3434 C 0.7407 0.85015 0.87418 0.0
C3435 C 0.74969 0.86176 0.87197 0.0
C3436 C 0.75206 0.86791 0.83223 0.0
C3437 C 0.74577 0.91173 0.68851 0.0
C3438 C 0.75329 0.91994 0.71966 0.0
C3439 C 0.74479 0.90068 0.68564 0.0
C3440 C 0.75146 0.89772 0.7134 0.0
C3441 C 0.75901 0.90599 0.74423 0.0
C3442 C 0.75989 0.91693 0.7474 0.0
C3443 C 0.75059 0.88604 0.71135 0.0
C3444 C 0.74845 0.87966 0.7507 0.0
C3445 C 0.75215 0.88129 0.67169 0.0
C3446 C 0.7546 0.88757 0.62904 0.0
C3447 C 0.76436 0.89879 0.62424 0.0
C3448 C 0.76651 0.90468 0.58398 0.0
C3449 C 0.759 0.89941 0.5482 0.0
C3450 C 0.74935 0.88821 0.55255 0.0
C3451 C 0.74716 0.88228 0.59275 0.0
H3452 H 0.76068 0.90399 0.51707 0.0
H3453 H 0.7389 0.84539 0.90496 0.0
H3454 H 0.1642 0.92065 0.78011 0.0
H3455 H 0.1471 0.90128 0.7736 0.0
H3456 H 0.15809 0.89757 0.64352 0.0
H3457 H 0.17546 0.9171 0.65001 0.0
H3458 H 0.13403 0.89035 0.6488 0.0
H3459 H 0.16112 0.88241 0.72218 0.0
H3460 H 0.17601 0.88522 0.77729 0.0
H3461 H 0.15165 0.87875 0.88201 0.0
H3462 H 0.13659 0.8759 0.82745 0.0
H3463 H 0.08887 0.82963 0.65203 0.0
H3464 H 0.10802 0.84743 0.64502 0.0
H3465 H 0.10465 0.8576 0.77706 0.0
H3466 H 0.08563 0.84 0.78418 0.0
H3467 H 0.12629 0.86044 0.76298 0.0
H3468 H 0.09986 0.87009 0.68905 0.0
H3469 H 0.08507 0.86746 0.63368 0.0
H3470 H 0.1085 0.87086 0.52921 0.0
H3471 H 0.12338 0.87337 0.58405 0.0
C3472 C 0.16305 0.91575 0.75007 0.0
C3473 C 0.17125 0.92042 0.71565 0.0
C3474 C 0.15325 0.90463 0.74646 0.0
C3475 C 0.15136 0.8979 0.70829 0.0
C3476 C 0.1594 0.9026 0.67336 0.0
C3477 C 0.16932 0.91374 0.67713 0.0
C3478 C 0.14092 0.88601 0.70552 0.0
C3479 C 0.13244 0.8837 0.67314 0.0
C3480 C 0.13877 0.8774 0.73767 0.0
C3481 C 0.14775 0.87903 0.77072 0.0
C3482 C 0.15896 0.88166 0.75698 0.0
C3483 C 0.16743 0.88324 0.78812 0.0
C3484 C 0.16481 0.88223 0.83315 0.0
C3485 C 0.15368 0.87955 0.84711 0.0
C3486 C 0.14516 0.87791 0.81608 0.0
C3487 C 0.09223 0.83567 0.67952 0.0
C3488 C 0.08571 0.83339 0.71863 0.0
C3489 C 0.10316 0.84585 0.67545 0.0
C3490 C 0.10778 0.85388 0.7105 0.0
C3491 C 0.10131 0.85153 0.74964 0.0
C3492 C 0.09039 0.84146 0.75358 0.0
C3493 C 0.11927 0.86483 0.70678 0.0
C3494 C 0.12795 0.86699 0.73811 0.0
C3495 C 0.12161 0.87327 0.67358 0.0
C3496 C 0.11267 0.87176 0.64063 0.0
C3497 C 0.10182 0.87017 0.65428 0.0
C3498 C 0.09343 0.86872 0.623 0.0
C3499 C 0.09583 0.86895 0.57796 0.0
C3500 C 0.10664 0.87066 0.56411 0.0
C3501 C 0.11506 0.8721 0.59527 0.0
H3502 H 0.08932 0.86783 0.55379 0.0
H3503 H 0.17139 0.88349 0.85721 0.0
H3504 H 0.93185 0.42411 0.67662 0.0
H3505 H 0.93199 0.4427 0.68229 0.0
H3506 H 0.91131 0.43434 0.5636 0.0
H3507 H 0.91107 0.41583 0.55791 0.0
H3508 H 0.93979 0.46175 0.62558 0.0
H3509 H 0.89158 0.44324 0.57466 0.0
H3510 H 0.87282 0.42477 0.57911 0.0
H3511 H 0.88479 0.41488 0.69417 0.0
H3512 H 0.90355 0.43335 0.69078 0.0
H3513 H 0.90775 0.49533 0.56282 0.0
H3514 H 0.909 0.4776 0.56728 0.0
H3515 H 0.93067 0.49095 0.6833 0.0
H3516 H 0.92949 0.50886 0.67886 0.0
H3517 H 0.90202 0.46115 0.63017 0.0
H3518 H 0.9503 0.48071 0.68124 0.0
H3519 H 0.96898 0.49919 0.67374 0.0
H3520 H 0.95675 0.50698 0.55429 0.0
H3521 H 0.93809 0.48851 0.56076 0.0
C3522 C 0.92735 0.42626 0.65174 0.0
C3523 C 0.92138 0.41845 0.61699 0.0
C3524 C 0.92748 0.4369 0.65493 0.0
C3525 C 0.92154 0.43987 0.62368 0.0
C3526 C 0.9158 0.43218 0.58849 0.0
C3527 C 0.9157 0.4216 0.58522 0.0
C3528 C 0.92109 0.45085 0.62796 0.0
C3529 C 0.93154 0.46163 0.62741 0.0
C3530 C 0.91033 0.45071 0.62944 0.0
C3531 C 0.89901 0.43964 0.6322 0.0
C3532 C 0.89018 0.43715 0.60103 0.0
C3533 C 0.87956 0.42667 0.60334 0.0
C3534 C 0.87763 0.41864 0.63682 0.0
C3535 C 0.88631 0.42108 0.66816 0.0
C3536 C 0.89695 0.43155 0.66602 0.0
C3537 C 0.91278 0.49452 0.58937 0.0
C3538 C 0.91853 0.50352 0.62049 0.0
C3539 C 0.91346 0.48434 0.59194 0.0
C3540 C 0.91998 0.48294 0.62545 0.0
C3541 C 0.92568 0.49187 0.65687 0.0
C3542 C 0.92495 0.50208 0.65443 0.0
C3543 C 0.9207 0.47207 0.62716 0.0
C3544 C 0.91028 0.46129 0.62884 0.0
C3545 C 0.93148 0.47223 0.62638 0.0
C3546 C 0.94275 0.48329 0.62184 0.0
C3547 C 0.95162 0.48635 0.65333 0.0
C3548 C 0.9622 0.49683 0.64926 0.0
C3549 C 0.96402 0.50427 0.61366 0.0
C3550 C 0.9553 0.50124 0.58196 0.0
C3551 C 0.94472 0.49077 0.58585 0.0
H3552 H 0.97221 0.51237 0.61053 0.0
H3553 H 0.8694 0.41053 0.63853 0.0
H3554 H 0.50771 0.41719 0.55092 0.0
H3555 H 0.5254 0.43618 0.55698 0.0
H3556 H 0.51416 0.44149 0.68423 0.0
H3557 H 0.49631 0.42236 0.67831 0.0
H3558 H 0.52865 0.4581 0.56445 0.0
H3559 H 0.53931 0.45734 0.7482 0.0
H3560 H 0.53591 0.44312 0.80723 0.0
H3561 H 0.53327 0.4182 0.71039 0.0
H3562 H 0.53681 0.43232 0.65091 0.0
H3563 H 0.58348 0.5081 0.68377 0.0
H3564 H 0.5641 0.4905 0.68784 0.0
H3565 H 0.56976 0.47947 0.56075 0.0
H3566 H 0.58899 0.49692 0.55644 0.0
H3567 H 0.557 0.46696 0.68618 0.0
H3568 H 0.54458 0.46726 0.5022 0.0
H3569 H 0.54854 0.48166 0.44335 0.0
H3570 H 0.55504 0.50781 0.54081 0.0
H3571 H 0.55091 0.49352 0.60021 0.0
C3572 C 0.50896 0.42238 0.58023 0.0
C3573 C 0.50059 0.41823 0.6142 0.0
C3574 C 0.51908 0.43328 0.58355 0.0
C3575 C 0.52117 0.44027 0.62111 0.0
C3576 C 0.5128 0.43621 0.65507 0.0
C3577 C 0.50259 0.42529 0.65162 0.0
C3578 C 0.5322 0.4517 0.62446 0.0
C3579 C 0.53487 0.46 0.59094 0.0
C3580 C 0.54021 0.45436 0.65966 0.0
C3581 C 0.53816 0.44583 0.69513 0.0
C3582 C 0.53802 0.44883 0.73955 0.0
C3583 C 0.53607 0.44079 0.77308 0.0
C3584 C 0.53433 0.42975 0.76255 0.0
C3585 C 0.53457 0.42674 0.71849 0.0
C3586 C 0.53653 0.43475 0.68486 0.0
C3587 C 0.58058 0.5019 0.65677 0.0
C3588 C 0.58775 0.50395 0.61967 0.0
C3589 C 0.56953 0.49184 0.65919 0.0
C3590 C 0.56541 0.48373 0.62436 0.0
C3591 C 0.57266 0.48568 0.58773 0.0
C3592 C 0.58369 0.49567 0.58538 0.0
C3593 C 0.55353 0.47323 0.62569 0.0
C3594 C 0.5507 0.46513 0.66003 0.0
C3595 C 0.54536 0.47075 0.59129 0.0
C3596 C 0.54753 0.47933 0.55568 0.0
C3597 C 0.54677 0.47606 0.51108 0.0
C3598 C 0.54906 0.48421 0.47762 0.0
C3599 C 0.55208 0.49565 0.48834 0.0
C3600 C 0.55274 0.49896 0.53255 0.0
C3601 C 0.55043 0.49083 0.56612 0.0
H3602 H 0.55388 0.50195 0.46239 0.0
H3603 H 0.53281 0.42354 0.78855 0.0
H3604 H 0.58352 0.07523 0.68799 0.0
H3605 H 0.56407 0.07325 0.69381 0.0
H3606 H 0.57044 0.09308 0.57378 0.0
H3607 H 0.58964 0.09498 0.56761 0.0
H3608 H 0.55668 0.08938 0.70001 0.0
H3609 H 0.54648 0.08226 0.5124 0.0
H3610 H 0.55072 0.07331 0.44887 0.0
H3611 H 0.55521 0.05032 0.53628 0.0
H3612 H 0.55093 0.05908 0.60029 0.0
H3613 H 0.50971 0.0943 0.5642 0.0
H3614 H 0.52714 0.0926 0.57095 0.0
H3615 H 0.51404 0.07355 0.69276 0.0
H3616 H 0.49649 0.07532 0.68633 0.0
H3617 H 0.52975 0.07384 0.57194 0.0
H3618 H 0.5381 0.07973 0.75887 0.0
H3619 H 0.53417 0.08892 0.82249 0.0
H3620 H 0.53345 0.11433 0.73644 0.0
H3621 H 0.53753 0.10539 0.67245 0.0
C3622 C 0.58076 0.07917 0.66296 0.0
C3623 C 0.5881 0.08518 0.62717 0.0
C3624 C 0.56966 0.07805 0.66634 0.0
C3625 C 0.5657 0.08285 0.63384 0.0
C3626 C 0.57317 0.08909 0.59881 0.0
C3627 C 0.5842 0.09021 0.59543 0.0
C3628 C 0.55381 0.08141 0.63578 0.0
C3629 C 0.55068 0.08576 0.67242 0.0
C3630 C 0.54601 0.07682 0.59957 0.0
C3631 C 0.54845 0.07139 0.56117 0.0
C3632 C 0.54832 0.07526 0.51805 0.0
C3633 C 0.55076 0.07024 0.48196 0.0
C3634 C 0.55328 0.06129 0.48855 0.0
C3635 C 0.55334 0.05731 0.53124 0.0
C3636 C 0.55092 0.06231 0.56744 0.0
C3637 C 0.51051 0.08975 0.59252 0.0
C3638 C 0.5017 0.08496 0.62478 0.0
C3639 C 0.52049 0.08875 0.59625 0.0
C3640 C 0.52197 0.08299 0.63243 0.0
C3641 C 0.51317 0.07815 0.66477 0.0
C3642 C 0.50313 0.07914 0.66101 0.0
C3643 C 0.53274 0.08212 0.63563 0.0
C3644 C 0.53566 0.0773 0.59987 0.0
C3645 C 0.5403 0.08627 0.67265 0.0
C3646 C 0.53797 0.0918 0.71087 0.0
C3647 C 0.53713 0.0873 0.75358 0.0
C3648 C 0.53487 0.09246 0.78969 0.0
C3649 C 0.53351 0.10217 0.78348 0.0
C3650 C 0.53445 0.10678 0.74117 0.0
C3651 C 0.53672 0.10166 0.70497 0.0
H3652 H 0.53176 0.10615 0.81147 0.0
H3653 H 0.55517 0.05741 0.46058 0.0
H3654 H 0.75151 0.57874 0.11902 0.0
H3655 H 0.77084 0.58094 0.11166 0.0
H3656 H 0.77358 0.59414 0.97944 0.0
H3657 H 0.75415 0.59215 0.98686 0.0
H3658 H 0.78055 0.57659 0.98969 0.0
H3659 H 0.78849 0.61296 0.05131 0.0
H3660 H 0.78562 0.62571 0.10296 0.0
H3661 H 0.79488 0.6112 0.21194 0.0
H3662 H 0.79757 0.59818 0.16103 0.0
H3663 H 0.84146 0.59279 0.98757 0.0
H3664 H 0.82367 0.59417 0.98036 0.0
H3665 H 0.81458 0.58275 0.1152 0.0
H3666 H 0.83209 0.58118 0.12238 0.0
H3667 H 0.81186 0.60179 0.09508 0.0
H3668 H 0.80134 0.56394 0.03614 0.0
H3669 H 0.80319 0.5502 0.98647 0.0
H3670 H 0.79838 0.56706 0.87387 0.0
H3671 H 0.79666 0.58103 0.92292 0.0
C3672 C 0.75619 0.58214 0.08833 0.0
C3673 C 0.75131 0.58533 0.05359 0.0
C3674 C 0.76727 0.5834 0.08422 0.0
C3675 C 0.77369 0.58778 0.04514 0.0
C3676 C 0.76877 0.59076 0.00991 0.0
C3677 C 0.7577 0.58965 0.01425 0.0
C3678 C 0.78556 0.58926 0.04188 0.0
C3679 C 0.7875 0.5823 0.01198 0.0
C3680 C 0.79454 0.59655 0.07158 0.0
C3681 C 0.79314 0.60452 0.10233 0.0
C3682 C 0.78983 0.61242 0.08633 0.0
C3683 C 0.78824 0.6197 0.11547 0.0
C3684 C 0.79004 0.61925 0.16071 0.0
C3685 C 0.79347 0.61153 0.17688 0.0
C3686 C 0.79504 0.6042 0.14788 0.0
C3687 C 0.83567 0.59061 0.01564 0.0
C3688 C 0.83819 0.58687 0.05551 0.0
C3689 C 0.82551 0.59138 0.01148 0.0
C3690 C 0.81779 0.58856 0.04727 0.0
C3691 C 0.82042 0.58502 0.08723 0.0
C3692 C 0.83044 0.58409 0.0912 0.0
C3693 C 0.80681 0.58899 0.04332 0.0
C3694 C 0.80501 0.59627 0.07208 0.0
C3695 C 0.79795 0.58197 0.01267 0.0
C3696 C 0.79904 0.57363 0.98314 0.0
C3697 C 0.8008 0.5648 1.00076 0.0
C3698 C 0.8018 0.55695 0.97274 0.0
C3699 C 0.80095 0.55779 0.92703 0.0
C3700 C 0.79907 0.56645 0.90927 0.0
C3701 C 0.79808 0.57434 0.93717 0.0
H3702 H 0.80172 0.55169 0.90538 0.0
H3703 H 0.7888 0.62489 0.18322 0.0
H3704 H 0.43563 0.17805 0.10194 0.0
H3705 H 0.43446 0.19582 0.09701 0.0
H3706 H 0.40541 0.17869 0.00698 0.0
H3707 H 0.40693 0.16095 0.01033 0.0
H3708 H 0.41884 0.20025 0.98128 0.0
H3709 H 0.40194 0.18282 0.1203 0.0
H3710 H 0.40117 0.17401 0.19286 0.0
H3711 H 0.43134 0.20573 0.2353 0.0
H3712 H 0.4324 0.21468 0.16276 0.0
H3713 H 0.40569 0.24643 0.00684 0.0
H3714 H 0.40455 0.22736 0.00505 0.0
H3715 H 0.43337 0.24003 0.09657 0.0
H3716 H 0.43417 0.25884 0.09986 0.0
H3717 H 0.41781 0.21947 0.12051 0.0
H3718 H 0.43539 0.23625 0.97874 0.0
H3719 H 0.43605 0.24484 0.90573 0.0
H3720 H 0.40412 0.21413 0.86882 0.0
H3721 H 0.4032 0.20541 0.9418 0.0
C3722 C 0.42902 0.17807 0.08092 0.0
C3723 C 0.42132 0.16808 0.05674 0.0
C3724 C 0.4283 0.18823 0.07834 0.0
C3725 C 0.41964 0.18856 0.05254 0.0
C3726 C 0.41212 0.17866 0.02737 0.0
C3727 C 0.41298 0.16852 0.02931 0.0
C3728 C 0.41846 0.19921 0.05231 0.0
C3729 C 0.41843 0.20435 0.01175 0.0
C3730 C 0.41804 0.20469 0.09197 0.0
C3731 C 0.41728 0.1994 0.13597 0.0
C3732 C 0.40844 0.1879 0.14504 0.0
C3733 C 0.40795 0.18288 0.18617 0.0
C3734 C 0.41621 0.1893 0.21865 0.0
C3735 C 0.42495 0.20076 0.21011 0.0
C3736 C 0.42549 0.20582 0.16901 0.0
C3737 C 0.41181 0.24514 0.02639 0.0
C3738 C 0.42005 0.25415 0.05338 0.0
C3739 C 0.41119 0.23424 0.02522 0.0
C3740 C 0.41899 0.23223 0.05022 0.0
C3741 C 0.42724 0.24129 0.07701 0.0
C3742 C 0.42772 0.25208 0.07875 0.0
C3743 C 0.41852 0.22071 0.04952 0.0
C3744 C 0.41817 0.21536 0.09001 0.0
C3745 C 0.41854 0.21504 0.00981 0.0
C3746 C 0.41917 0.22024 0.96584 0.0
C3747 C 0.42848 0.23136 0.95513 0.0
C3748 C 0.4289 0.23624 0.91375 0.0
C3749 C 0.42012 0.23004 0.8827 0.0
C3750 C 0.41091 0.21893 0.89291 0.0
C3751 C 0.41044 0.21401 0.93425 0.0
H3752 H 0.42046 0.23384 0.8507 0.0
H3753 H 0.41582 0.18539 0.25046 0.0
H3754 H 0.74977 0.17498 0.1222 0.0
H3755 H 0.7684 0.19304 0.11619 0.0
H3756 H 0.77432 0.18216 0.98919 0.0
H3757 H 0.75564 0.1638 0.99551 0.0
H3758 H 0.79407 0.19202 0.03844 0.0
H3759 H 0.76574 0.20263 0.99678 0.0
H3760 H 0.74779 0.20377 0.00459 0.0
H3761 H 0.76076 0.22291 0.12564 0.0
H3762 H 0.77872 0.22176 0.11887 0.0
H3763 H 0.84211 0.24976 0.99627 0.0
H3764 H 0.82383 0.23104 0.99052 0.0
H3765 H 0.81266 0.23758 0.11581 0.0
H3766 H 0.8307 0.25629 0.12124 0.0
H3767 H 0.79542 0.22986 0.05869 0.0
H3768 H 0.823 0.21813 0.10351 0.0
H3769 H 0.84092 0.21691 0.09705 0.0
H3770 H 0.82945 0.19991 0.97127 0.0
H3771 H 0.81152 0.20118 0.97671 0.0
C3772 C 0.755 0.17639 0.09292 0.0
C3773 C 0.75117 0.16796 0.05919 0.0
C3774 C 0.76566 0.18677 0.08945 0.0
C3775 C 0.77271 0.18909 0.05189 0.0
C3776 C 0.76902 0.1806 0.0184 0.0
C3777 C 0.75832 0.17014 0.02196 0.0
C3778 C 0.78387 0.2004 0.04801 0.0
C3779 C 0.79435 0.20031 0.04207 0.0
C3780 C 0.7843 0.21124 0.05348 0.0
C3781 C 0.77354 0.21204 0.05745 0.0
C3782 C 0.76473 0.20702 0.02521 0.0
C3783 C 0.75456 0.20768 0.02943 0.0
C3784 C 0.75313 0.21339 0.06563 0.0
C3785 C 0.76188 0.21849 0.09763 0.0
C3786 C 0.77206 0.21785 0.09358 0.0
C3787 C 0.83575 0.24718 0.02259 0.0
C3788 C 0.83786 0.25452 0.05921 0.0
C3789 C 0.82532 0.23645 0.01937 0.0
C3790 C 0.81686 0.23282 0.05291 0.0
C3791 C 0.819 0.24017 0.08944 0.0
C3792 C 0.82936 0.25087 0.09256 0.0
C3793 C 0.80566 0.22149 0.05008 0.0
C3794 C 0.79515 0.22159 0.05466 0.0
C3795 C 0.80524 0.21069 0.04348 0.0
C3796 C 0.81598 0.20987 0.04029 0.0
C3797 C 0.82434 0.21421 0.07431 0.0
C3798 C 0.83449 0.2135 0.07087 0.0
C3799 C 0.83634 0.20837 0.03371 0.0
C3800 C 0.82802 0.20391 0.99999 0.0
C3801 C 0.81785 0.20462 1.00325 0.0
H3802 H 0.84421 0.20782 0.03111 0.0
H3803 H 0.74524 0.21388 0.06885 0.0
H3804 H 0.59343 0.75449 0.01754 0.0
H3805 H 0.59439 0.77346 0.02365 0.0
H3806 H 0.58241 0.77026 0.8892 0.0
H3807 H 0.58123 0.75129 0.88313 0.0
H3808 H 0.60164 0.79243 0.90892 0.0
H3809 H 0.56381 0.76506 0.9675 0.0
H3810 H 0.55008 0.74943 0.01708 0.0
H3811 H 0.56685 0.77116 0.12978 0.0
H3812 H 0.58081 0.78686 0.08083 0.0
H3813 H 0.5803 0.83128 0.88781 0.0
H3814 H 0.582 0.81382 0.89322 0.0
H3815 H 0.59406 0.82264 0.02757 0.0
H3816 H 0.59254 0.84039 0.02218 0.0
H3817 H 0.57661 0.79863 0.01466 0.0
H3818 H 0.61349 0.82665 0.95594 0.0
H3819 H 0.62695 0.84241 0.90627 0.0
H3820 H 0.61207 0.81972 0.79441 0.0
H3821 H 0.59842 0.80384 0.84343 0.0
C3822 C 0.59101 0.75784 0.9893 0.0
C3823 C 0.58724 0.75137 0.94988 0.0
C3824 C 0.59154 0.76867 0.99285 0.0
C3825 C 0.58845 0.77328 0.95688 0.0
C3826 C 0.58486 0.7669 0.91733 0.0
C3827 C 0.58416 0.75603 0.91398 0.0
C3828 C 0.58877 0.78465 0.96034 0.0
C3829 C 0.59613 0.79376 0.93187 0.0
C3830 C 0.5818 0.78651 0.99107 0.0
C3831 C 0.57345 0.77707 0.02055 0.0
C3832 C 0.56465 0.76646 1.00288 0.0
C3833 C 0.55681 0.7576 0.03085 0.0
C3834 C 0.55762 0.75928 0.07656 0.0
C3835 C 0.56626 0.76985 0.09437 0.0
C3836 C 0.57413 0.77874 0.06653 0.0
C3837 C 0.58335 0.82957 0.91856 0.0
C3838 C 0.58635 0.83728 0.95452 0.0
C3839 C 0.58433 0.81956 0.92155 0.0
C3840 C 0.58824 0.81696 0.96066 0.0
C3841 C 0.59104 0.8245 0.99703 0.0
C3842 C 0.5902 0.83464 0.99387 0.0
C3843 C 0.58938 0.80634 0.96286 0.0
C3844 C 0.58227 0.79737 0.99222 0.0
C3845 C 0.5966 0.80461 0.93304 0.0
C3846 C 0.60486 0.81408 0.90336 0.0
C3847 C 0.61303 0.82504 0.92072 0.0
C3848 C 0.6207 0.834 0.89269 0.0
C3849 C 0.62033 0.83209 0.84719 0.0
C3850 C 0.61233 0.82119 0.82967 0.0
C3851 C 0.60464 0.8122 0.85758 0.0
H3852 H 0.62627 0.83904 0.82553 0.0
H3853 H 0.55154 0.75242 0.09817 0.0
H3854 H 0.17819 0.74818 0.89984 0.0
H3855 H 0.19591 0.7671 0.90675 0.0
H3856 H 0.18091 0.77575 0.01661 0.0
H3857 H 0.16298 0.75665 0.0098 0.0
H3858 H 0.19244 0.79424 0.95549 0.0
H3859 H 0.20077 0.76851 0.03819 0.0
H3860 H 0.20181 0.7507 0.05192 0.0
H3861 H 0.22536 0.75903 0.94277 0.0
H3862 H 0.22433 0.77681 0.92796 0.0
H3863 H 0.24885 0.84395 0.0058 0.0
H3864 H 0.23005 0.82576 0.01288 0.0
H3865 H 0.23951 0.81073 0.90543 0.0
H3866 H 0.25818 0.82879 0.89813 0.0
H3867 H 0.23038 0.79574 0.9752 0.0
H3868 H 0.22096 0.82036 0.88857 0.0
H3869 H 0.22007 0.83818 0.87303 0.0
H3870 H 0.19868 0.83197 0.98772 0.0
H3871 H 0.19961 0.8142 0.00439 0.0
C3872 C 0.17862 0.75408 0.92555 0.0
C3873 C 0.16918 0.75087 0.95445 0.0
C3874 C 0.18879 0.7649 0.92951 0.0
C3875 C 0.1898 0.77281 0.96247 0.0
C3876 C 0.18033 0.76976 0.991 0.0
C3877 C 0.17012 0.75884 0.98721 0.0
C3878 C 0.20087 0.78415 0.96687 0.0
C3879 C 0.20071 0.7946 0.96073 0.0
C3880 C 0.2117 0.78462 0.97284 0.0
C3881 C 0.2124 0.77396 0.98178 0.0
C3882 C 0.2061 0.7665 0.01691 0.0
C3883 C 0.2067 0.75642 0.02492 0.0
C3884 C 0.21363 0.75372 0.99819 0.0
C3885 C 0.22 0.76112 0.96344 0.0
C3886 C 0.21942 0.77122 0.95526 0.0
C3887 C 0.24691 0.83675 0.98377 0.0
C3888 C 0.255 0.8378 0.9514 0.0
C3889 C 0.23616 0.82638 0.98774 0.0
C3890 C 0.23335 0.81689 0.95957 0.0
C3891 C 0.24148 0.81792 0.92759 0.0
C3892 C 0.25214 0.82827 0.92337 0.0
C3893 C 0.22198 0.80582 0.96309 0.0
C3894 C 0.22209 0.79541 0.97065 0.0
C3895 C 0.21114 0.80541 0.95824 0.0
C3896 C 0.21048 0.81603 0.94805 0.0
C3897 C 0.21615 0.82285 0.91071 0.0
C3898 C 0.21563 0.83293 0.90166 0.0
C3899 C 0.20935 0.83622 0.92945 0.0
C3900 C 0.20356 0.82942 0.96628 0.0
C3901 C 0.20408 0.81934 0.97555 0.0
H3902 H 0.20896 0.84403 0.92239 0.0
H3903 H 0.21408 0.74591 0.00445 0.0
H3904 H 0.16404 0.40887 0.00961 0.0
H3905 H 0.18228 0.40832 0.0148 0.0
H3906 H 0.19436 0.42811 0.89408 0.0
H3907 H 0.1763 0.42877 0.88891 0.0
H3908 H 0.19269 0.39963 0.95901 0.0
H3909 H 0.22324 0.44714 0.90139 0.0
H3910 H 0.22425 0.46625 0.90393 0.0
H3911 H 0.20319 0.45591 0.02115 0.0
H3912 H 0.20219 0.4368 0.01967 0.0
H3913 H 0.25772 0.42926 0.88893 0.0
H3914 H 0.23906 0.42868 0.89472 0.0
H3915 H 0.23111 0.40805 0.01337 0.0
H3916 H 0.24987 0.40854 0.00756 0.0
H3917 H 0.23057 0.43672 0.95734 0.0
H3918 H 0.201 0.38927 0.01573 0.0
H3919 H 0.20003 0.37019 0.01094 0.0
H3920 H 0.21916 0.38048 0.88912 0.0
H3921 H 0.22012 0.39955 0.8929 0.0
C3922 C 0.17059 0.41311 0.98423 0.0
C3923 C 0.16875 0.41893 0.94901 0.0
C3924 C 0.18099 0.41275 0.98714 0.0
C3925 C 0.18976 0.41829 0.95513 0.0
C3926 C 0.18782 0.42392 0.91957 0.0
C3927 C 0.17745 0.42426 0.9166 0.0
C3928 C 0.20104 0.41839 0.95882 0.0
C3929 C 0.20097 0.40774 0.95946 0.0
C3930 C 0.21187 0.42896 0.95857 0.0
C3931 C 0.21256 0.4405 0.96017 0.0
C3932 C 0.21887 0.44896 0.92782 0.0
C3933 C 0.21943 0.45979 0.92905 0.0
C3934 C 0.21376 0.46228 0.96261 0.0
C3935 C 0.20755 0.45396 0.99509 0.0
C3936 C 0.20697 0.44312 0.99404 0.0
C3937 C 0.25202 0.42459 0.91632 0.0
C3938 C 0.25528 0.41893 0.94778 0.0
C3939 C 0.24136 0.4243 0.91965 0.0
C3940 C 0.23363 0.41827 0.95431 0.0
C3941 C 0.23687 0.41265 0.98605 0.0
C3942 C 0.24761 0.41298 0.98282 0.0
C3943 C 0.22225 0.41798 0.95685 0.0
C3944 C 0.22229 0.42861 0.95738 0.0
C3945 C 0.21142 0.4074 0.95792 0.0
C3946 C 0.21075 0.39589 0.95495 0.0
C3947 C 0.20497 0.38745 0.98788 0.0
C3948 C 0.20443 0.37664 0.98534 0.0
C3949 C 0.20958 0.37415 0.94986 0.0
C3950 C 0.21523 0.38244 0.91672 0.0
C3951 C 0.21579 0.39326 0.91908 0.0
H3952 H 0.20917 0.36578 0.94799 0.0
H3953 H 0.2142 0.47066 0.96348 0.0
H3954 H 0.41523 0.90828 0.44536 0.0
H3955 H 0.43413 0.90932 0.44114 0.0
H3956 H 0.44336 0.93224 0.32862 0.0
H3957 H 0.42425 0.93102 0.33212 0.0
H3958 H 0.45006 0.91643 0.31582 0.0
H3959 H 0.45457 0.94283 0.4318 0.0
H3960 H 0.4493 0.94908 0.50054 0.0
H3961 H 0.4523 0.92285 0.5732 0.0
H3962 H 0.45741 0.91632 0.50476 0.0
H3963 H 0.50992 0.92977 0.33133 0.0
H3964 H 0.49226 0.93142 0.32716 0.0
H3965 H 0.47813 0.9088 0.44034 0.0
H3966 H 0.4957 0.90731 0.44508 0.0
H3967 H 0.47504 0.92684 0.44936 0.0
H3968 H 0.46882 0.89942 0.3322 0.0
H3969 H 0.4738 0.89298 0.26326 0.0
H3970 H 0.47412 0.9213 0.19296 0.0
H3971 H 0.46927 0.928 0.26165 0.0
C3972 C 0.42127 0.91355 0.41968 0.0
C3973 C 0.41826 0.91962 0.38921 0.0
C3974 C 0.43212 0.91418 0.41742 0.0
C3975 C 0.4403 0.92102 0.38502 0.0
C3976 C 0.43724 0.92694 0.35403 0.0
C3977 C 0.42632 0.92626 0.35613 0.0
C3978 C 0.45199 0.92193 0.38377 0.0
C3979 C 0.45562 0.91891 0.34481 0.0
C3980 C 0.45922 0.92502 0.42168 0.0
C3981 C 0.4563 0.92903 0.46305 0.0
C3982 C 0.45404 0.93835 0.46239 0.0
C3983 C 0.45109 0.94195 0.5013 0.0
C3984 C 0.45045 0.93635 0.54119 0.0
C3985 C 0.45279 0.92717 0.54227 0.0
C3986 C 0.45573 0.92353 0.50343 0.0
C3987 C 0.50301 0.92512 0.35514 0.0
C3988 C 0.50422 0.91841 0.38851 0.0
C3989 C 0.49291 0.92604 0.35269 0.0
C3990 C 0.48379 0.92018 0.38332 0.0
C3991 C 0.48502 0.91346 0.41643 0.0
C3992 C 0.49508 0.91258 0.41899 0.0
C3993 C 0.47298 0.92106 0.38176 0.0
C3994 C 0.46954 0.92447 0.42022 0.0
C3995 C 0.46595 0.91833 0.34341 0.0
C3996 C 0.46882 0.91429 0.30213 0.0
C3997 C 0.47004 0.90433 0.3021 0.0
C3998 C 0.47282 0.90062 0.26307 0.0
C3999 C 0.47431 0.90675 0.22378 0.0
C4000 C 0.47298 0.91658 0.22343 0.0
C4001 C 0.47021 0.92033 0.26238 0.0
H4002 H 0.47647 0.90387 0.19359 0.0
H4003 H 0.44815 0.93914 0.57129 0.0
H4004 H 0.07652 0.58271 0.32615 0.0
H4005 H 0.07503 0.56347 0.32139 0.0
H4006 H 0.09486 0.57061 0.44189 0.0
H4007 H 0.09624 0.58963 0.4471 0.0
H4008 H 0.09122 0.55657 0.31518 0.0
H4009 H 0.08501 0.54654 0.50304 0.0
H4010 H 0.07625 0.55073 0.56733 0.0
H4011 H 0.05272 0.55489 0.4817 0.0
H4012 H 0.06126 0.55062 0.41696 0.0
H4013 H 0.09674 0.50952 0.4482 0.0
H4014 H 0.09506 0.52698 0.44271 0.0
H4015 H 0.07549 0.51404 0.32173 0.0
H4016 H 0.07725 0.49645 0.32688 0.0
H4017 H 0.07641 0.52973 0.44352 0.0
H4018 H 0.08142 0.53807 0.25644 0.0
H4019 H 0.09032 0.53414 0.19189 0.0
H4020 H 0.1161 0.53341 0.27581 0.0
H4021 H 0.10745 0.53748 0.34071 0.0
C4022 C 0.08057 0.58016 0.35156 0.0
C4023 C 0.08643 0.58767 0.38716 0.0
C4024 C 0.07973 0.56918 0.34876 0.0
C4025 C 0.08468 0.5655 0.38164 0.0
C4026 C 0.09076 0.57312 0.41657 0.0
C4027 C 0.09159 0.58405 0.41941 0.0
C4028 C 0.08354 0.55371 0.37994 0.0
C4029 C 0.08777 0.5506 0.3429 0.0
C4030 C 0.07917 0.54595 0.41627 0.0
C4031 C 0.07385 0.54835 0.45512 0.0
C4032 C 0.07793 0.5483 0.49795 0.0
C4033 C 0.07302 0.55071 0.53446 0.0
C4034 C 0.06397 0.55312 0.52858 0.0
C4035 C 0.05978 0.55309 0.48619 0.0
C4036 C 0.06466 0.55069 0.44957 0.0
C4037 C 0.09208 0.51036 0.42032 0.0
C4038 C 0.08714 0.50158 0.38791 0.0
C4039 C 0.09109 0.52036 0.41732 0.0
C4040 C 0.0852 0.52189 0.38173 0.0
C4041 C 0.0802 0.51313 0.34927 0.0
C4042 C 0.08118 0.50307 0.35229 0.0
C4043 C 0.08436 0.5327 0.37924 0.0
C4044 C 0.07972 0.53562 0.41556 0.0
C4045 C 0.08833 0.54025 0.34222 0.0
C4046 C 0.09369 0.53793 0.30345 0.0
C4047 C 0.089 0.53709 0.26106 0.0
C4048 C 0.094 0.53484 0.22443 0.0
C4049 C 0.10374 0.53348 0.22977 0.0
C4050 C 0.10852 0.53441 0.27174 0.0
C4051 C 0.10357 0.53667 0.30847 0.0
H4052 H 0.10759 0.53173 0.20137 0.0
H4053 H 0.06018 0.55499 0.55689 0.0
H4054 H 0.51282 0.57973 0.34419 0.0
H4055 H 0.49509 0.56051 0.34036 0.0
H4056 H 0.47735 0.5729 0.42504 0.0
H4057 H 0.49515 0.59183 0.43058 0.0
H4058 H 0.47217 0.55251 0.45067 0.0
H4059 H 0.47349 0.56894 0.30541 0.0
H4060 H 0.48257 0.57733 0.23349 0.0
H4061 H 0.48449 0.54662 0.20374 0.0
H4062 H 0.47554 0.5381 0.2757 0.0
H4063 H 0.41329 0.51187 0.42187 0.0
H4064 H 0.43241 0.52944 0.41834 0.0
H4065 H 0.44504 0.51135 0.33685 0.0
H4066 H 0.42559 0.49378 0.33872 0.0
H4067 H 0.45402 0.53304 0.30899 0.0
H4068 H 0.45107 0.51582 0.45058 0.0
H4069 H 0.44182 0.50718 0.52195 0.0
H4070 H 0.44322 0.53917 0.5591 0.0
H4071 H 0.45231 0.54795 0.48766 0.0
C4072 C 0.50511 0.57833 0.36183 0.0
C4073 C 0.50537 0.5873 0.38758 0.0
C4074 C 0.49495 0.56735 0.35946 0.0
C4075 C 0.48475 0.56522 0.38189 0.0
C4076 C 0.48505 0.57424 0.40745 0.0
C4077 C 0.49524 0.5851 0.4105 0.0
C4078 C 0.47377 0.55363 0.3798 0.0
C4079 C 0.46816 0.54834 0.4196 0.0
C4080 C 0.46869 0.54786 0.33945 0.0
C4081 C 0.47395 0.55294 0.29607 0.0
C4082 C 0.47591 0.56401 0.28361 0.0
C4083 C 0.48103 0.56878 0.24284 0.0
C4084 C 0.48414 0.56252 0.21412 0.0
C4085 C 0.4821 0.55146 0.22604 0.0
C4086 C 0.47699 0.54665 0.26678 0.0
C4087 C 0.42011 0.51165 0.40292 0.0
C4088 C 0.41796 0.50143 0.38081 0.0
C4089 C 0.43109 0.52169 0.40116 0.0
C4090 C 0.44032 0.52168 0.37836 0.0
C4091 C 0.43811 0.51158 0.35496 0.0
C4092 C 0.42699 0.50154 0.35602 0.0
C4093 C 0.45225 0.53219 0.37979 0.0
C4094 C 0.45807 0.5372 0.34002 0.0
C4095 C 0.45757 0.53771 0.42021 0.0
C4096 C 0.45232 0.53252 0.46363 0.0
C4097 C 0.44936 0.521 0.47389 0.0
C4098 C 0.44414 0.51607 0.51436 0.0
C4099 C 0.44192 0.52262 0.54502 0.0
C4100 C 0.44495 0.53411 0.53532 0.0
C4101 C 0.45015 0.53907 0.49487 0.0
H4102 H 0.43787 0.51878 0.57631 0.0
H4103 H 0.4881 0.56624 0.18259 0.0
loop_
_geom_bond_atom_site_label_1
_geom_bond_atom_site_label_2
_geom_bond_distance
_geom_bond_site_symmetry_2
_ccdc_geom_bond_type
Co0 O1 2.216 . S
Co0 O2 2.091 . S
Co0 O4 2.004 . S
Co0 O10 2.021 . S
Co0 O12 2.137 . S
Co0 O13 2.244 . S
O1 Co0 2.216 . S
O1 C8 1.247 . S
O2 Co0 2.091 . S
O2 C8 1.261 . S
C3 O12 1.247 . S
C3 O13 1.272 . S
O4 Co0 2.004 . S
O4 C9 1.259 . S
Co5 O6 2.061 . S
Co5 O11 2.052 . S
Co5 O13 2.135 . S
O6 Co5 2.061 . S
O6 C9 1.235 . S
C7 O10 1.238 . S
C7 O11 1.241 . S
C8 O1 1.247 . S
C8 O2 1.261 . S
C9 O4 1.259 . S
C9 O6 1.235 . S
O10 Co0 2.021 . S
O10 C7 1.238 . S
O11 Co5 2.052 . S
O11 C7 1.241 . S
O12 Co0 2.137 . S
O12 C3 1.247 . S
O13 Co0 2.244 . S
O13 C3 1.272 . S
O13 Co5 2.135 . S
Co14 O15 2.216 . S
Co14 O16 2.091 . S
Co14 O18 2.004 . S
Co14 O24 2.021 . S
Co14 O26 2.137 . S
Co14 O27 2.244 . S
O15 Co14 2.216 . S
O15 C22 1.247 . S
O16 Co14 2.091 . S
O16 C22 1.261 . S
C17 O26 1.247 . S
C17 O27 1.272 . S
O18 Co14 2.004 . S
O18 C23 1.259 . S
Co19 O20 2.061 . S
Co19 O25 2.052 . S
Co19 O27 2.135 . S
O20 Co19 2.061 . S
O20 C23 1.235 . S
C21 O24 1.238 . S
C21 O25 1.241 . S
C22 O15 1.247 . S
C22 O16 1.261 . S
C23 O18 1.259 . S
C23 O20 1.235 . S
O24 Co14 2.021 . S
O24 C21 1.238 . S
O25 Co19 2.052 . S
O25 C21 1.241 . S
O26 Co14 2.137 . S
O26 C17 1.247 . S
O27 Co14 2.244 . S
O27 C17 1.272 . S
O27 Co19 2.135 . S
Co28 O29 2.216 . S
Co28 O30 2.091 . S
Co28 O32 2.004 . S
Co28 O38 2.021 . S
Co28 O40 2.137 . S
Co28 O41 2.244 . S
O29 Co28 2.216 . S
O29 C36 1.247 . S
O30 Co28 2.091 . S
O30 C36 1.261 . S
C31 O40 1.247 . S
C31 O41 1.272 . S
O32 Co28 2.004 . S
O32 C37 1.259 . S
Co33 O34 2.061 . S
Co33 O39 2.052 . S
Co33 O41 2.135 . S
O34 Co33 2.061 . S
O34 C37 1.235 . S
C35 O38 1.238 . S
C35 O39 1.241 . S
C36 O29 1.247 . S
C36 O30 1.261 . S
C37 O32 1.259 . S
C37 O34 1.235 . S
O38 Co28 2.021 . S
O38 C35 1.238 . S
O39 Co33 2.052 . S
O39 C35 1.241 . S
O40 Co28 2.137 . S
O40 C31 1.247 . S
O41 Co28 2.244 . S
O41 C31 1.272 . S
O41 Co33 2.135 . S
Co42 O43 2.216 . S
Co42 O44 2.091 . S
Co42 O46 2.004 . S
Co42 O52 2.021 . S
Co42 O54 2.137 . S
Co42 O55 2.244 . S
O43 Co42 2.216 . S
O43 C50 1.247 . S
O44 Co42 2.091 . S
O44 C50 1.261 . S
C45 O54 1.247 . S
C45 O55 1.272 . S
O46 Co42 2.004 . S
O46 C51 1.259 . S
Co47 O48 2.061 . S
Co47 O53 2.052 . S
Co47 O55 2.135 . S
O48 Co47 2.061 . S
O48 C51 1.235 . S
C49 O52 1.238 . S
C49 O53 1.241 . S
C50 O43 1.247 . S
C50 O44 1.261 . S
C51 O46 1.259 . S
C51 O48 1.235 . S
O52 Co42 2.021 . S
O52 C49 1.238 . S
O53 Co47 2.052 . S
O53 C49 1.241 . S
O54 Co42 2.137 . S
O54 C45 1.247 . S
O55 Co42 2.244 . S
O55 C45 1.272 . S
O55 Co47 2.135 . S
Co56 O57 2.216 . S
Co56 O58 2.091 . S
Co56 O60 2.004 . S
Co56 O66 2.021 . S
Co56 O68 2.137 . S
Co56 O69 2.244 . S
O57 Co56 2.216 . S
O57 C64 1.247 . S
O58 Co56 2.091 . S
O58 C64 1.261 . S
C59 O68 1.247 . S
C59 O69 1.272 . S
O60 Co56 2.004 . S
O60 C65 1.259 . S
Co61 O62 2.061 . S
Co61 O67 2.052 . S
Co61 O69 2.135 . S
O62 Co61 2.061 . S
O62 C65 1.235 . S
C63 O66 1.238 . S
C63 O67 1.241 . S
C64 O57 1.247 . S
C64 O58 1.261 . S
C65 O60 1.259 . S
C65 O62 1.235 . S
O66 Co56 2.021 . S
O66 C63 1.238 . S
O67 Co61 2.052 . S
O67 C63 1.241 . S
O68 Co56 2.137 . S
O68 C59 1.247 . S
O69 Co56 2.244 . S
O69 C59 1.272 . S
O69 Co61 2.135 . S
Co70 O71 2.216 . S
Co70 O72 2.091 . S
Co70 O74 2.004 . S
Co70 O80 2.021 . S
Co70 O82 2.137 . S
Co70 O83 2.244 . S
O71 Co70 2.216 . S
O71 C78 1.247 . S
O72 Co70 2.091 . S
O72 C78 1.261 . S
C73 O82 1.247 . S
C73 O83 1.272 . S
O74 Co70 2.004 . S
O74 C79 1.259 . S
Co75 O76 2.061 . S
Co75 O81 2.052 . S
Co75 O83 2.135 . S
O76 Co75 2.061 . S
O76 C79 1.235 . S
C77 O80 1.238 . S
C77 O81 1.241 . S
C78 O71 1.247 . S
C78 O72 1.261 . S
C79 O74 1.259 . S
C79 O76 1.235 . S
O80 Co70 2.021 . S
O80 C77 1.238 . S
O81 Co75 2.052 . S
O81 C77 1.241 . S
O82 Co70 2.137 . S
O82 C73 1.247 . S
O83 Co70 2.244 . S
O83 C73 1.272 . S
O83 Co75 2.135 . S
Co84 O85 2.216 . S
Co84 O86 2.091 . S
Co84 O88 2.004 . S
Co84 O94 2.021 . S
Co84 O96 2.137 . S
Co84 O97 2.244 . S
O85 Co84 2.216 . S
O85 C92 1.247 . S
O86 Co84 2.091 . S
O86 C92 1.261 . S
C87 O96 1.247 . S
C87 O97 1.272 . S
O88 Co84 2.004 . S
O88 C93 1.259 . S
Co89 O90 2.061 . S
Co89 O95 2.052 . S
Co89 O97 2.135 . S
O90 Co89 2.061 . S
O90 C93 1.235 . S
C91 O94 1.238 . S
C91 O95 1.241 . S
C92 O85 1.247 . S
C92 O86 1.261 . S
C93 O88 1.259 . S
C93 O90 1.235 . S
O94 Co84 2.021 . S
O94 C91 1.238 . S
O95 Co89 2.052 . S
O95 C91 1.241 . S
O96 Co84 2.137 . S
O96 C87 1.247 . S
O97 Co84 2.244 . S
O97 C87 1.272 . S
O97 Co89 2.135 . S
Co98 O99 2.216 . S
Co98 O100 2.091 . S
Co98 O102 2.004 . S
Co98 O108 2.021 . S
Co98 O110 2.137 . S
Co98 O111 2.244 . S
O99 Co98 2.216 . S
O99 C106 1.247 . S
O100 Co98 2.091 . S
O100 C106 1.261 . S
C101 O110 1.247 . S
C101 O111 1.272 . S
O102 Co98 2.004 . S
O102 C107 1.259 . S
Co103 O104 2.061 . S
Co103 O109 2.052 . S
Co103 O111 2.135 . S
O104 Co103 2.061 . S
O104 C107 1.235 . S
C105 O108 1.238 . S
C105 O109 1.241 . S
C106 O99 1.247 . S
C106 O100 1.261 . S
C107 O102 1.259 . S
C107 O104 1.235 . S
O108 Co98 2.021 . S
O108 C105 1.238 . S
O109 Co103 2.052 . S
O109 C105 1.241 . S
O110 Co98 2.137 . S
O110 C101 1.247 . S
O111 Co98 2.244 . S
O111 C101 1.272 . S
O111 Co103 2.135 . S
Co112 O113 2.216 . S
Co112 O114 2.091 . S
Co112 O116 2.004 . S
Co112 O122 2.021 . S
Co112 O124 2.137 . S
Co112 O125 2.244 . S
O113 Co112 2.216 . S
O113 C120 1.247 . S
O114 Co112 2.091 . S
O114 C120 1.261 . S
C115 O124 1.247 . S
C115 O125 1.272 . S
O116 Co112 2.004 . S
O116 C121 1.259 . S
Co117 O118 2.061 . S
Co117 O123 2.052 . S
Co117 O125 2.135 . S
O118 Co117 2.061 . S
O118 C121 1.235 . S
C119 O122 1.238 . S
C119 O123 1.241 . S
C120 O113 1.247 . S
C120 O114 1.261 . S
C121 O116 1.259 . S
C121 O118 1.235 . S
O122 Co112 2.021 . S
O122 C119 1.238 . S
O123 Co117 2.052 . S
O123 C119 1.241 . S
O124 Co112 2.137 . S
O124 C115 1.247 . S
O125 Co112 2.244 . S
O125 C115 1.272 . S
O125 Co117 2.135 . S
Co126 O127 2.216 . S
Co126 O128 2.091 . S
Co126 O130 2.004 . S
Co126 O136 2.021 . S
Co126 O138 2.137 . S
Co126 O139 2.244 . S
O127 Co126 2.216 . S
O127 C134 1.247 . S
O128 Co126 2.091 . S
O128 C134 1.261 . S
C129 O138 1.247 . S
C129 O139 1.272 . S
O130 Co126 2.004 . S
O130 C135 1.259 . S
Co131 O132 2.061 . S
Co131 O137 2.052 . S
Co131 O139 2.135 . S
O132 Co131 2.061 . S
O132 C135 1.235 . S
C133 O136 1.238 . S
C133 O137 1.241 . S
C134 O127 1.247 . S
C134 O128 1.261 . S
C135 O130 1.259 . S
C135 O132 1.235 . S
O136 Co126 2.021 . S
O136 C133 1.238 . S
O137 Co131 2.052 . S
O137 C133 1.241 . S
O138 Co126 2.137 . S
O138 C129 1.247 . S
O139 Co126 2.244 . S
O139 C129 1.272 . S
O139 Co131 2.135 . S
Co140 O141 2.216 . S
Co140 O142 2.091 . S
Co140 O144 2.004 . S
Co140 O150 2.021 . S
Co140 O152 2.137 . S
Co140 O153 2.244 . S
O141 Co140 2.216 . S
O141 C148 1.247 . S
O142 Co140 2.091 . S
O142 C148 1.261 . S
C143 O152 1.247 . S
C143 O153 1.272 . S
O144 Co140 2.004 . S
O144 C149 1.259 . S
Co145 O146 2.061 . S
Co145 O151 2.052 . S
Co145 O153 2.135 . S
O146 Co145 2.061 . S
O146 C149 1.235 . S
C147 O150 1.238 . S
C147 O151 1.241 . S
C148 O141 1.247 . S
C148 O142 1.261 . S
C149 O144 1.259 . S
C149 O146 1.235 . S
O150 Co140 2.021 . S
O150 C147 1.238 . S
O151 Co145 2.052 . S
O151 C147 1.241 . S
O152 Co140 2.137 . S
O152 C143 1.247 . S
O153 Co140 2.244 . S
O153 C143 1.272 . S
O153 Co145 2.135 . S
Co154 O155 2.216 . S
Co154 O156 2.091 . S
Co154 O158 2.004 . S
Co154 O164 2.021 . S
Co154 O166 2.137 . S
Co154 O167 2.244 . S
O155 Co154 2.216 . S
O155 C162 1.247 . S
O156 Co154 2.091 . S
O156 C162 1.261 . S
C157 O166 1.247 . S
C157 O167 1.272 . S
O158 Co154 2.004 . S
O158 C163 1.259 . S
Co159 O160 2.061 . S
Co159 O165 2.052 . S
Co159 O167 2.135 . S
O160 Co159 2.061 . S
O160 C163 1.235 . S
C161 O164 1.238 . S
C161 O165 1.241 . S
C162 O155 1.247 . S
C162 O156 1.261 . S
C163 O158 1.259 . S
C163 O160 1.235 . S
O164 Co154 2.021 . S
O164 C161 1.238 . S
O165 Co159 2.052 . S
O165 C161 1.241 . S
O166 Co154 2.137 . S
O166 C157 1.247 . S
O167 Co154 2.244 . S
O167 C157 1.272 . S
O167 Co159 2.135 . S
Co168 O169 2.216 . S
Co168 O170 2.091 . S
Co168 O172 2.004 . S
Co168 O178 2.021 . S
Co168 O180 2.137 . S
Co168 O181 2.244 . S
O169 Co168 2.216 . S
O169 C176 1.247 . S
O170 Co168 2.091 . S
O170 C176 1.261 . S
C171 O180 1.247 . S
C171 O181 1.272 . S
O172 Co168 2.004 . S
O172 C177 1.259 . S
Co173 O174 2.061 . S
Co173 O179 2.052 . S
Co173 O181 2.135 . S
O174 Co173 2.061 . S
O174 C177 1.235 . S
C175 O178 1.238 . S
C175 O179 1.241 . S
C176 O169 1.247 . S
C176 O170 1.261 . S
C177 O172 1.259 . S
C177 O174 1.235 . S
O178 Co168 2.021 . S
O178 C175 1.238 . S
O179 Co173 2.052 . S
O179 C175 1.241 . S
O180 Co168 2.137 . S
O180 C171 1.247 . S
O181 Co168 2.244 . S
O181 C171 1.272 . S
O181 Co173 2.135 . S
Co182 O183 2.216 . S
Co182 O184 2.091 . S
Co182 O186 2.004 . S
Co182 O192 2.021 . S
Co182 O194 2.137 . S
Co182 O195 2.244 . S
O183 Co182 2.216 . S
O183 C190 1.247 . S
O184 Co182 2.091 . S
O184 C190 1.261 . S
C185 O194 1.247 . S
C185 O195 1.272 . S
O186 Co182 2.004 . S
O186 C191 1.259 . S
Co187 O188 2.061 . S
Co187 O193 2.052 . S
Co187 O195 2.135 . S
O188 Co187 2.061 . S
O188 C191 1.235 . S
C189 O192 1.238 . S
C189 O193 1.241 . S
C190 O183 1.247 . S
C190 O184 1.261 . S
C191 O186 1.259 . S
C191 O188 1.235 . S
O192 Co182 2.021 . S
O192 C189 1.238 . S
O193 Co187 2.052 . S
O193 C189 1.241 . S
O194 Co182 2.137 . S
O194 C185 1.247 . S
O195 Co182 2.244 . S
O195 C185 1.272 . S
O195 Co187 2.135 . S
Co196 O197 2.216 . S
Co196 O198 2.091 . S
Co196 O200 2.004 . S
Co196 O206 2.021 . S
Co196 O208 2.137 . S
Co196 O209 2.244 . S
O197 Co196 2.216 . S
O197 C204 1.247 . S
O198 Co196 2.091 . S
O198 C204 1.261 . S
C199 O208 1.247 . S
C199 O209 1.272 . S
O200 Co196 2.004 . S
O200 C205 1.259 . S
Co201 O202 2.061 . S
Co201 O207 2.052 . S
Co201 O209 2.135 . S
O202 Co201 2.061 . S
O202 C205 1.235 . S
C203 O206 1.238 . S
C203 O207 1.241 . S
C204 O197 1.247 . S
C204 O198 1.261 . S
C205 O200 1.259 . S
C205 O202 1.235 . S
O206 Co196 2.021 . S
O206 C203 1.238 . S
O207 Co201 2.052 . S
O207 C203 1.241 . S
O208 Co196 2.137 . S
O208 C199 1.247 . S
O209 Co196 2.244 . S
O209 C199 1.272 . S
O209 Co201 2.135 . S
Co210 O211 2.216 . S
Co210 O212 2.091 . S
Co210 O214 2.004 . S
Co210 O220 2.021 . S
Co210 O222 2.137 . S
Co210 O223 2.244 . S
O211 Co210 2.216 . S
O211 C218 1.247 . S
O212 Co210 2.091 . S
O212 C218 1.261 . S
C213 O222 1.247 . S
C213 O223 1.272 . S
O214 Co210 2.004 . S
O214 C219 1.259 . S
Co215 O216 2.061 . S
Co215 O221 2.052 . S
Co215 O223 2.135 . S
O216 Co215 2.061 . S
O216 C219 1.235 . S
C217 O220 1.238 . S
C217 O221 1.241 . S
C218 O211 1.247 . S
C218 O212 1.261 . S
C219 O214 1.259 . S
C219 O216 1.235 . S
O220 Co210 2.021 . S
O220 C217 1.238 . S
O221 Co215 2.052 . S
O221 C217 1.241 . S
O222 Co210 2.137 . S
O222 C213 1.247 . S
O223 Co210 2.244 . S
O223 C213 1.272 . S
O223 Co215 2.135 . S
Co224 O225 2.216 . S
Co224 O226 2.091 . S
Co224 O228 2.004 . S
Co224 O234 2.021 . S
Co224 O236 2.137 . S
Co224 O237 2.244 . S
O225 Co224 2.216 . S
O225 C232 1.247 . S
O226 Co224 2.091 . S
O226 C232 1.261 . S
C227 O236 1.247 . S
C227 O237 1.272 . S
O228 Co224 2.004 . S
O228 C233 1.259 . S
Co229 O230 2.061 . S
Co229 O235 2.052 . S
Co229 O237 2.135 . S
O230 Co229 2.061 . S
O230 C233 1.235 . S
C231 O234 1.238 . S
C231 O235 1.241 . S
C232 O225 1.247 . S
C232 O226 1.261 . S
C233 O228 1.259 . S
C233 O230 1.235 . S
O234 Co224 2.021 . S
O234 C231 1.238 . S
O235 Co229 2.052 . S
O235 C231 1.241 . S
O236 Co224 2.137 . S
O236 C227 1.247 . S
O237 Co224 2.244 . S
O237 C227 1.272 . S
O237 Co229 2.135 . S
Co238 O239 2.216 . S
Co238 O240 2.091 . S
Co238 O242 2.004 . S
Co238 O248 2.021 . S
Co238 O250 2.137 . S
Co238 O251 2.244 . S
O239 Co238 2.216 . S
O239 C246 1.247 . S
O240 Co238 2.091 . S
O240 C246 1.261 . S
C241 O250 1.247 . S
C241 O251 1.272 . S
O242 Co238 2.004 . S
O242 C247 1.259 . S
Co243 O244 2.061 . S
Co243 O249 2.052 . S
Co243 O251 2.135 . S
O244 Co243 2.061 . S
O244 C247 1.235 . S
C245 O248 1.238 . S
C245 O249 1.241 . S
C246 O239 1.247 . S
C246 O240 1.261 . S
C247 O242 1.259 . S
C247 O244 1.235 . S
O248 Co238 2.021 . S
O248 C245 1.238 . S
O249 Co243 2.052 . S
O249 C245 1.241 . S
O250 Co238 2.137 . S
O250 C241 1.247 . S
O251 Co238 2.244 . S
O251 C241 1.272 . S
O251 Co243 2.135 . S
Co252 O253 2.216 . S
Co252 O254 2.091 . S
Co252 O256 2.004 . S
Co252 O262 2.021 . S
Co252 O264 2.137 . S
Co252 O265 2.244 . S
O253 Co252 2.216 . S
O253 C260 1.247 . S
O254 Co252 2.091 . S
O254 C260 1.261 . S
C255 O264 1.247 . S
C255 O265 1.272 . S
O256 Co252 2.004 . S
O256 C261 1.259 . S
Co257 O258 2.061 . S
Co257 O263 2.052 . S
Co257 O265 2.135 . S
O258 Co257 2.061 . S
O258 C261 1.235 . S
C259 O262 1.238 . S
C259 O263 1.241 . S
C260 O253 1.247 . S
C260 O254 1.261 . S
C261 O256 1.259 . S
C261 O258 1.235 . S
O262 Co252 2.021 . S
O262 C259 1.238 . S
O263 Co257 2.052 . S
O263 C259 1.241 . S
O264 Co252 2.137 . S
O264 C255 1.247 . S
O265 Co252 2.244 . S
O265 C255 1.272 . S
O265 Co257 2.135 . S
Co266 O267 2.216 . S
Co266 O268 2.091 . S
Co266 O270 2.004 . S
Co266 O276 2.021 . S
Co266 O278 2.137 . S
Co266 O279 2.244 . S
O267 Co266 2.216 . S
O267 C274 1.247 . S
O268 Co266 2.091 . S
O268 C274 1.261 . S
C269 O278 1.247 . S
C269 O279 1.272 . S
O270 Co266 2.004 . S
O270 C275 1.259 . S
Co271 O272 2.061 . S
Co271 O277 2.052 . S
Co271 O279 2.135 . S
O272 Co271 2.061 . S
O272 C275 1.235 . S
C273 O276 1.238 . S
C273 O277 1.241 . S
C274 O267 1.247 . S
C274 O268 1.261 . S
C275 O270 1.259 . S
C275 O272 1.235 . S
O276 Co266 2.021 . S
O276 C273 1.238 . S
O277 Co271 2.052 . S
O277 C273 1.241 . S
O278 Co266 2.137 . S
O278 C269 1.247 . S
O279 Co266 2.244 . S
O279 C269 1.272 . S
O279 Co271 2.135 . S
Co280 O281 2.216 . S
Co280 O282 2.091 . S
Co280 O284 2.004 . S
Co280 O290 2.021 . S
Co280 O292 2.137 . S
Co280 O293 2.244 . S
O281 Co280 2.216 . S
O281 C288 1.247 . S
O282 Co280 2.091 . S
O282 C288 1.261 . S
C283 O292 1.247 . S
C283 O293 1.272 . S
O284 Co280 2.004 . S
O284 C289 1.259 . S
Co285 O286 2.061 . S
Co285 O291 2.052 . S
Co285 O293 2.135 . S
O286 Co285 2.061 . S
O286 C289 1.235 . S
C287 O290 1.238 . S
C287 O291 1.241 . S
C288 O281 1.247 . S
C288 O282 1.261 . S
C289 O284 1.259 . S
C289 O286 1.235 . S
O290 Co280 2.021 . S
O290 C287 1.238 . S
O291 Co285 2.052 . S
O291 C287 1.241 . S
O292 Co280 2.137 . S
O292 C283 1.247 . S
O293 Co280 2.244 . S
O293 C283 1.272 . S
O293 Co285 2.135 . S
Co294 O295 2.216 . S
Co294 O296 2.091 . S
Co294 O298 2.004 . S
Co294 O304 2.021 . S
Co294 O306 2.137 . S
Co294 O307 2.244 . S
O295 Co294 2.216 . S
O295 C302 1.247 . S
O296 Co294 2.091 . S
O296 C302 1.261 . S
C297 O306 1.247 . S
C297 O307 1.272 . S
O298 Co294 2.004 . S
O298 C303 1.259 . S
Co299 O300 2.061 . S
Co299 O305 2.052 . S
Co299 O307 2.135 . S
O300 Co299 2.061 . S
O300 C303 1.235 . S
C301 O304 1.238 . S
C301 O305 1.241 . S
C302 O295 1.247 . S
C302 O296 1.261 . S
C303 O298 1.259 . S
C303 O300 1.235 . S
O304 Co294 2.021 . S
O304 C301 1.238 . S
O305 Co299 2.052 . S
O305 C301 1.241 . S
O306 Co294 2.137 . S
O306 C297 1.247 . S
O307 Co294 2.244 . S
O307 C297 1.272 . S
O307 Co299 2.135 . S
Co308 O309 2.216 . S
Co308 O310 2.091 . S
Co308 O312 2.004 . S
Co308 O318 2.021 . S
Co308 O320 2.137 . S
Co308 O321 2.244 . S
O309 Co308 2.216 . S
O309 C316 1.247 . S
O310 Co308 2.091 . S
O310 C316 1.261 . S
C311 O320 1.247 . S
C311 O321 1.272 . S
O312 Co308 2.004 . S
O312 C317 1.259 . S
Co313 O314 2.061 . S
Co313 O319 2.052 . S
Co313 O321 2.135 . S
O314 Co313 2.061 . S
O314 C317 1.235 . S
C315 O318 1.238 . S
C315 O319 1.241 . S
C316 O309 1.247 . S
C316 O310 1.261 . S
C317 O312 1.259 . S
C317 O314 1.235 . S
O318 Co308 2.021 . S
O318 C315 1.238 . S
O319 Co313 2.052 . S
O319 C315 1.241 . S
O320 Co308 2.137 . S
O320 C311 1.247 . S
O321 Co308 2.244 . S
O321 C311 1.272 . S
O321 Co313 2.135 . S
Co322 O323 2.216 . S
Co322 O324 2.091 . S
Co322 O326 2.004 . S
Co322 O332 2.021 . S
Co322 O334 2.137 . S
Co322 O335 2.244 . S
O323 Co322 2.216 . S
O323 C330 1.247 . S
O324 Co322 2.091 . S
O324 C330 1.261 . S
C325 O334 1.247 . S
C325 O335 1.272 . S
O326 Co322 2.004 . S
O326 C331 1.259 . S
Co327 O328 2.061 . S
Co327 O333 2.052 . S
Co327 O335 2.135 . S
O328 Co327 2.061 . S
O328 C331 1.235 . S
C329 O332 1.238 . S
C329 O333 1.241 . S
C330 O323 1.247 . S
C330 O324 1.261 . S
C331 O326 1.259 . S
C331 O328 1.235 . S
O332 Co322 2.021 . S
O332 C329 1.238 . S
O333 Co327 2.052 . S
O333 C329 1.241 . S
O334 Co322 2.137 . S
O334 C325 1.247 . S
O335 Co322 2.244 . S
O335 C325 1.272 . S
O335 Co327 2.135 . S
Co336 O337 2.216 . S
Co336 O338 2.091 . S
Co336 O340 2.004 . S
Co336 O346 2.021 . S
Co336 O348 2.137 . S
Co336 O349 2.244 . S
O337 Co336 2.216 . S
O337 C344 1.247 . S
O338 Co336 2.091 . S
O338 C344 1.261 . S
C339 O348 1.247 . S
C339 O349 1.272 . S
O340 Co336 2.004 . S
O340 C345 1.259 . S
Co341 O342 2.061 . S
Co341 O347 2.052 . S
Co341 O349 2.135 . S
O342 Co341 2.061 . S
O342 C345 1.235 . S
C343 O346 1.238 . S
C343 O347 1.241 . S
C344 O337 1.247 . S
C344 O338 1.261 . S
C345 O340 1.259 . S
C345 O342 1.235 . S
O346 Co336 2.021 . S
O346 C343 1.238 . S
O347 Co341 2.052 . S
O347 C343 1.241 . S
O348 Co336 2.137 . S
O348 C339 1.247 . S
O349 Co336 2.244 . S
O349 C339 1.272 . S
O349 Co341 2.135 . S
Co350 O351 2.216 . S
Co350 O352 2.091 . S
Co350 O354 2.004 . S
Co350 O360 2.021 . S
Co350 O362 2.137 . S
Co350 O363 2.244 . S
O351 Co350 2.216 . S
O351 C358 1.247 . S
O352 Co350 2.091 . S
O352 C358 1.261 . S
C353 O362 1.247 . S
C353 O363 1.272 . S
O354 Co350 2.004 . S
O354 C359 1.259 . S
Co355 O356 2.061 . S
Co355 O361 2.052 . S
Co355 O363 2.135 . S
O356 Co355 2.061 . S
O356 C359 1.235 . S
C357 O360 1.238 . S
C357 O361 1.241 . S
C358 O351 1.247 . S
C358 O352 1.261 . S
C359 O354 1.259 . S
C359 O356 1.235 . S
O360 Co350 2.021 . S
O360 C357 1.238 . S
O361 Co355 2.052 . S
O361 C357 1.241 . S
O362 Co350 2.137 . S
O362 C353 1.247 . S
O363 Co350 2.244 . S
O363 C353 1.272 . S
O363 Co355 2.135 . S
Co364 O365 2.216 . S
Co364 O366 2.091 . S
Co364 O368 2.004 . S
Co364 O374 2.021 . S
Co364 O376 2.137 . S
Co364 O377 2.244 . S
O365 Co364 2.216 . S
O365 C372 1.247 . S
O366 Co364 2.091 . S
O366 C372 1.261 . S
C367 O376 1.247 . S
C367 O377 1.272 . S
O368 Co364 2.004 . S
O368 C373 1.259 . S
Co369 O370 2.061 . S
Co369 O375 2.052 . S
Co369 O377 2.135 . S
O370 Co369 2.061 . S
O370 C373 1.235 . S
C371 O374 1.238 . S
C371 O375 1.241 . S
C372 O365 1.247 . S
C372 O366 1.261 . S
C373 O368 1.259 . S
C373 O370 1.235 . S
O374 Co364 2.021 . S
O374 C371 1.238 . S
O375 Co369 2.052 . S
O375 C371 1.241 . S
O376 Co364 2.137 . S
O376 C367 1.247 . S
O377 Co364 2.244 . S
O377 C367 1.272 . S
O377 Co369 2.135 . S
Co378 O379 2.216 . S
Co378 O380 2.091 . S
Co378 O382 2.004 . S
Co378 O388 2.021 . S
Co378 O390 2.137 . S
Co378 O391 2.244 . S
O379 Co378 2.216 . S
O379 C386 1.247 . S
O380 Co378 2.091 . S
O380 C386 1.261 . S
C381 O390 1.247 . S
C381 O391 1.272 . S
O382 Co378 2.004 . S
O382 C387 1.259 . S
Co383 O384 2.061 . S
Co383 O389 2.052 . S
Co383 O391 2.135 . S
O384 Co383 2.061 . S
O384 C387 1.235 . S
C385 O388 1.238 . S
C385 O389 1.241 . S
C386 O379 1.247 . S
C386 O380 1.261 . S
C387 O382 1.259 . S
C387 O384 1.235 . S
O388 Co378 2.021 . S
O388 C385 1.238 . S
O389 Co383 2.052 . S
O389 C385 1.241 . S
O390 Co378 2.137 . S
O390 C381 1.247 . S
O391 Co378 2.244 . S
O391 C381 1.272 . S
O391 Co383 2.135 . S
Co392 O393 2.216 . S
Co392 O394 2.091 . S
Co392 O396 2.004 . S
Co392 O402 2.021 . S
Co392 O404 2.137 . S
Co392 O405 2.244 . S
O393 Co392 2.216 . S
O393 C400 1.247 . S
O394 Co392 2.091 . S
O394 C400 1.261 . S
C395 O404 1.247 . S
C395 O405 1.272 . S
O396 Co392 2.004 . S
O396 C401 1.259 . S
Co397 O398 2.061 . S
Co397 O403 2.052 . S
Co397 O405 2.135 . S
O398 Co397 2.061 . S
O398 C401 1.235 . S
C399 O402 1.238 . S
C399 O403 1.241 . S
C400 O393 1.247 . S
C400 O394 1.261 . S
C401 O396 1.259 . S
C401 O398 1.235 . S
O402 Co392 2.021 . S
O402 C399 1.238 . S
O403 Co397 2.052 . S
O403 C399 1.241 . S
O404 Co392 2.137 . S
O404 C395 1.247 . S
O405 Co392 2.244 . S
O405 C395 1.272 . S
O405 Co397 2.135 . S
Co406 O407 2.216 . S
Co406 O408 2.091 . S
Co406 O410 2.004 . S
Co406 O416 2.021 . S
Co406 O418 2.137 . S
Co406 O419 2.244 . S
O407 Co406 2.216 . S
O407 C414 1.247 . S
O408 Co406 2.091 . S
O408 C414 1.261 . S
C409 O418 1.247 . S
C409 O419 1.272 . S
O410 Co406 2.004 . S
O410 C415 1.259 . S
Co411 O412 2.061 . S
Co411 O417 2.052 . S
Co411 O419 2.135 . S
O412 Co411 2.061 . S
O412 C415 1.235 . S
C413 O416 1.238 . S
C413 O417 1.241 . S
C414 O407 1.247 . S
C414 O408 1.261 . S
C415 O410 1.259 . S
C415 O412 1.235 . S
O416 Co406 2.021 . S
O416 C413 1.238 . S
O417 Co411 2.052 . S
O417 C413 1.241 . S
O418 Co406 2.137 . S
O418 C409 1.247 . S
O419 Co406 2.244 . S
O419 C409 1.272 . S
O419 Co411 2.135 . S
Co420 O421 2.216 . S
Co420 O422 2.091 . S
Co420 O424 2.004 . S
Co420 O430 2.021 . S
Co420 O432 2.137 . S
Co420 O433 2.244 . S
O421 Co420 2.216 . S
O421 C428 1.247 . S
O422 Co420 2.091 . S
O422 C428 1.261 . S
C423 O432 1.247 . S
C423 O433 1.272 . S
O424 Co420 2.004 . S
O424 C429 1.259 . S
Co425 O426 2.061 . S
Co425 O431 2.052 . S
Co425 O433 2.135 . S
O426 Co425 2.061 . S
O426 C429 1.235 . S
C427 O430 1.238 . S
C427 O431 1.241 . S
C428 O421 1.247 . S
C428 O422 1.261 . S
C429 O424 1.259 . S
C429 O426 1.235 . S
O430 Co420 2.021 . S
O430 C427 1.238 . S
O431 Co425 2.052 . S
O431 C427 1.241 . S
O432 Co420 2.137 . S
O432 C423 1.247 . S
O433 Co420 2.244 . S
O433 C423 1.272 . S
O433 Co425 2.135 . S
Co434 O435 2.216 . S
Co434 O436 2.091 . S
Co434 O438 2.004 . S
Co434 O444 2.021 . S
Co434 O446 2.137 . S
Co434 O447 2.244 . S
O435 Co434 2.216 . S
O435 C442 1.247 . S
O436 Co434 2.091 . S
O436 C442 1.261 . S
C437 O446 1.247 . S
C437 O447 1.272 . S
O438 Co434 2.004 . S
O438 C443 1.259 . S
Co439 O440 2.061 . S
Co439 O445 2.052 . S
Co439 O447 2.135 . S
O440 Co439 2.061 . S
O440 C443 1.235 . S
C441 O444 1.238 . S
C441 O445 1.241 . S
C442 O435 1.247 . S
C442 O436 1.261 . S
C443 O438 1.259 . S
C443 O440 1.235 . S
O444 Co434 2.021 . S
O444 C441 1.238 . S
O445 Co439 2.052 . S
O445 C441 1.241 . S
O446 Co434 2.137 . S
O446 C437 1.247 . S
O447 Co434 2.244 . S
O447 C437 1.272 . S
O447 Co439 2.135 . S
Co448 O449 2.216 . S
Co448 O450 2.091 . S
Co448 O452 2.004 . S
Co448 O458 2.021 . S
Co448 O460 2.137 . S
Co448 O461 2.244 . S
O449 Co448 2.216 . S
O449 C456 1.247 . S
O450 Co448 2.091 . S
O450 C456 1.261 . S
C451 O460 1.247 . S
C451 O461 1.272 . S
O452 Co448 2.004 . S
O452 C457 1.259 . S
Co453 O454 2.061 . S
Co453 O459 2.052 . S
Co453 O461 2.135 . S
O454 Co453 2.061 . S
O454 C457 1.235 . S
C455 O458 1.238 . S
C455 O459 1.241 . S
C456 O449 1.247 . S
C456 O450 1.261 . S
C457 O452 1.259 . S
C457 O454 1.235 . S
O458 Co448 2.021 . S
O458 C455 1.238 . S
O459 Co453 2.052 . S
O459 C455 1.241 . S
O460 Co448 2.137 . S
O460 C451 1.247 . S
O461 Co448 2.244 . S
O461 C451 1.272 . S
O461 Co453 2.135 . S
Co462 O463 2.216 . S
Co462 O464 2.091 . S
Co462 O466 2.004 . S
Co462 O472 2.021 . S
Co462 O474 2.137 . S
Co462 O475 2.244 . S
O463 Co462 2.216 . S
O463 C470 1.247 . S
O464 Co462 2.091 . S
O464 C470 1.261 . S
C465 O474 1.247 . S
C465 O475 1.272 . S
O466 Co462 2.004 . S
O466 C471 1.259 . S
Co467 O468 2.061 . S
Co467 O473 2.052 . S
Co467 O475 2.135 . S
O468 Co467 2.061 . S
O468 C471 1.235 . S
C469 O472 1.238 . S
C469 O473 1.241 . S
C470 O463 1.247 . S
C470 O464 1.261 . S
C471 O466 1.259 . S
C471 O468 1.235 . S
O472 Co462 2.021 . S
O472 C469 1.238 . S
O473 Co467 2.052 . S
O473 C469 1.241 . S
O474 Co462 2.137 . S
O474 C465 1.247 . S
O475 Co462 2.244 . S
O475 C465 1.272 . S
O475 Co467 2.135 . S
Co476 O477 2.216 . S
Co476 O478 2.091 . S
Co476 O480 2.004 . S
Co476 O486 2.021 . S
Co476 O488 2.137 . S
Co476 O489 2.244 . S
O477 Co476 2.216 . S
O477 C484 1.247 . S
O478 Co476 2.091 . S
O478 C484 1.261 . S
C479 O488 1.247 . S
C479 O489 1.272 . S
O480 Co476 2.004 . S
O480 C485 1.259 . S
Co481 O482 2.061 . S
Co481 O487 2.052 . S
Co481 O489 2.135 . S
O482 Co481 2.061 . S
O482 C485 1.235 . S
C483 O486 1.238 . S
C483 O487 1.241 . S
C484 O477 1.247 . S
C484 O478 1.261 . S
C485 O480 1.259 . S
C485 O482 1.235 . S
O486 Co476 2.021 . S
O486 C483 1.238 . S
O487 Co481 2.052 . S
O487 C483 1.241 . S
O488 Co476 2.137 . S
O488 C479 1.247 . S
O489 Co476 2.244 . S
O489 C479 1.272 . S
O489 Co481 2.135 . S
Co490 O491 2.216 . S
Co490 O492 2.091 . S
Co490 O494 2.004 . S
Co490 O500 2.021 . S
Co490 O502 2.137 . S
Co490 O503 2.244 . S
O491 Co490 2.216 . S
O491 C498 1.247 . S
O492 Co490 2.091 . S
O492 C498 1.261 . S
C493 O502 1.247 . S
C493 O503 1.272 . S
O494 Co490 2.004 . S
O494 C499 1.259 . S
Co495 O496 2.061 . S
Co495 O501 2.052 . S
Co495 O503 2.135 . S
O496 Co495 2.061 . S
O496 C499 1.235 . S
C497 O500 1.238 . S
C497 O501 1.241 . S
C498 O491 1.247 . S
C498 O492 1.261 . S
C499 O494 1.259 . S
C499 O496 1.235 . S
O500 Co490 2.021 . S
O500 C497 1.238 . S
O501 Co495 2.052 . S
O501 C497 1.241 . S
O502 Co490 2.137 . S
O502 C493 1.247 . S
O503 Co490 2.244 . S
O503 C493 1.272 . S
O503 Co495 2.135 . S
H504 C522 0.951 . S
H505 C524 0.951 . S
H506 C526 0.950 . S
H507 C527 0.950 . S
H508 C529 0.950 . S
H509 C532 0.950 . S
H510 C533 0.950 . S
H511 C535 0.950 . S
H512 C536 0.950 . S
H513 C537 0.951 . S
H514 C539 0.951 . S
H515 C541 0.950 . S
H516 C542 0.950 . S
H517 C544 0.950 . S
H518 C547 0.950 . S
H519 C548 0.950 . S
H520 C550 0.950 . S
H521 C551 0.950 . S
C522 H504 0.951 . S
C522 C523 1.366 . S
C522 C524 1.388 . S
C523 C522 1.366 . S
C523 C527 1.385 . S
C524 H505 0.951 . S
C524 C522 1.388 . S
C524 C525 1.366 . S
C525 C524 1.366 . S
C525 C526 1.414 . S
C525 C528 1.499 . S
C526 H506 0.950 . S
C526 C525 1.414 . S
C526 C527 1.374 . S
C527 H507 0.950 . S
C527 C523 1.385 . S
C527 C526 1.374 . S
C528 C525 1.499 . S
C528 C529 1.373 1_565 S
C528 C530 1.389 . S
C529 H508 0.950 . S
C529 C528 1.373 1_545 S
C529 C545 1.377 . S
C530 C528 1.389 . S
C530 C531 1.524 . S
C530 C544 1.377 . S
C531 C530 1.524 . S
C531 C532 1.397 . S
C531 C536 1.363 . S
C532 H509 0.950 . S
C532 C531 1.397 . S
C532 C533 1.334 . S
C533 H510 0.950 . S
C533 C532 1.334 . S
C533 C534 1.287 . S
C534 C533 1.287 . S
C534 C535 1.524 . S
C534 H553 0.913 . S
C535 H511 0.950 . S
C535 C534 1.524 . S
C535 C536 1.415 . S
C536 H512 0.950 . S
C536 C531 1.363 . S
C536 C535 1.415 . S
C537 H513 0.951 . S
C537 C538 1.366 . S
C537 C539 1.388 . S
C538 C537 1.366 . S
C538 C542 1.385 . S
C539 H514 0.951 . S
C539 C537 1.388 . S
C539 C540 1.366 . S
C540 C539 1.366 . S
C540 C541 1.414 . S
C540 C543 1.499 . S
C541 H515 0.950 . S
C541 C540 1.414 . S
C541 C542 1.374 . S
C542 H516 0.950 . S
C542 C538 1.385 . S
C542 C541 1.374 . S
C543 C540 1.499 . S
C543 C544 1.373 1_545 S
C543 C545 1.389 . S
C544 H517 0.950 . S
C544 C530 1.377 . S
C544 C543 1.373 1_565 S
C545 C529 1.377 . S
C545 C543 1.389 . S
C545 C546 1.524 . S
C546 C545 1.524 . S
C546 C547 1.397 . S
C546 C551 1.363 . S
C547 H518 0.950 . S
C547 C546 1.397 . S
C547 C548 1.334 . S
C548 H519 0.950 . S
C548 C547 1.334 . S
C548 C549 1.287 . S
C549 C548 1.287 . S
C549 C550 1.524 . S
C549 H552 0.999 . S
C550 H520 0.950 . S
C550 C549 1.524 . S
C550 C551 1.415 . S
C551 H521 0.950 . S
C551 C546 1.363 . S
C551 C550 1.415 . S
H552 C549 0.999 . S
H553 C534 0.913 . S
H554 C572 0.951 . S
H555 C574 0.951 . S
H556 C576 0.950 . S
H557 C577 0.950 . S
H558 C579 0.950 . S
H559 C582 0.950 . S
H560 C583 0.950 . S
H561 C585 0.950 . S
H562 C586 0.950 . S
H563 C587 0.951 . S
H564 C589 0.951 . S
H565 C591 0.950 . S
H566 C592 0.950 . S
H567 C594 0.950 . S
H568 C597 0.950 . S
H569 C598 0.950 . S
H570 C600 0.950 . S
H571 C601 0.950 . S
C572 H554 0.951 . S
C572 C573 1.366 . S
C572 C574 1.388 . S
C573 C572 1.366 . S
C573 C577 1.385 . S
C574 H555 0.951 . S
C574 C572 1.388 . S
C574 C575 1.366 . S
C575 C574 1.366 . S
C575 C576 1.414 . S
C575 C578 1.499 . S
C576 H556 0.950 . S
C576 C575 1.414 . S
C576 C577 1.374 . S
C577 H557 0.950 . S
C577 C573 1.385 . S
C577 C576 1.374 . S
C578 C575 1.499 . S
C578 C579 1.373 . S
C578 C580 1.389 . S
C579 H558 0.950 . S
C579 C578 1.373 . S
C579 C595 1.377 1_455 S
C580 C578 1.389 . S
C580 C581 1.524 . S
C580 C594 1.377 1_455 S
C581 C580 1.524 . S
C581 C582 1.397 . S
C581 C586 1.363 1_455 S
C582 H559 0.950 . S
C582 C581 1.397 . S
C582 C583 1.334 . S
C583 H560 0.950 . S
C583 C582 1.334 . S
C583 C584 1.287 . S
C584 C583 1.287 . S
C584 C585 1.524 1_455 S
C584 H603 0.913 . S
C585 H561 0.950 . S
C585 C584 1.524 1_655 S
C585 C586 1.415 . S
C586 H562 0.950 . S
C586 C581 1.363 1_655 S
C586 C585 1.415 . S
C587 H563 0.951 . S
C587 C588 1.366 . S
C587 C589 1.388 . S
C588 C587 1.366 . S
C588 C592 1.385 . S
C589 H564 0.951 . S
C589 C587 1.388 . S
C589 C590 1.366 . S
C590 C589 1.366 . S
C590 C591 1.414 . S
C590 C593 1.499 . S
C591 H565 0.950 . S
C591 C590 1.414 . S
C591 C592 1.374 . S
C592 H566 0.950 . S
C592 C588 1.385 . S
C592 C591 1.374 . S
C593 C590 1.499 . S
C593 C594 1.373 . S
C593 C595 1.389 . S
C594 H567 0.950 . S
C594 C580 1.377 1_655 S
C594 C593 1.373 . S
C595 C579 1.377 1_655 S
C595 C593 1.389 . S
C595 C596 1.524 . S
C596 C595 1.524 . S
C596 C597 1.397 . S
C596 C601 1.363 1_655 S
C597 H568 0.950 . S
C597 C596 1.397 . S
C597 C598 1.334 . S
C598 H569 0.950 . S
C598 C597 1.334 . S
C598 C599 1.287 . S
C599 C598 1.287 . S
C599 C600 1.524 1_655 S
C599 H602 0.999 . S
C600 H570 0.950 . S
C600 C599 1.524 1_455 S
C600 C601 1.415 . S
C601 H571 0.950 . S
C601 C596 1.363 1_455 S
C601 C600 1.415 . S
H602 C599 0.999 . S
H603 C584 0.913 . S
H604 C622 0.951 . S
H605 C624 0.951 . S
H606 C626 0.950 . S
H607 C627 0.950 . S
H608 C629 0.950 . S
H609 C632 0.950 . S
H610 C633 0.950 . S
H611 C635 0.950 . S
H612 C636 0.950 . S
H613 C637 0.951 . S
H614 C639 0.951 . S
H615 C641 0.950 . S
H616 C642 0.950 . S
H617 C644 0.950 . S
H618 C647 0.950 . S
H619 C648 0.950 . S
H620 C650 0.950 . S
H621 C651 0.950 . S
C622 H604 0.951 . S
C622 C623 1.366 . S
C622 C624 1.388 . S
C623 C622 1.366 . S
C623 C627 1.385 . S
C624 H605 0.951 . S
C624 C622 1.388 . S
C624 C625 1.366 . S
C625 C624 1.366 . S
C625 C626 1.414 . S
C625 C628 1.499 . S
C626 H606 0.950 . S
C626 C625 1.414 . S
C626 C627 1.374 . S
C627 H607 0.950 . S
C627 C623 1.385 . S
C627 C626 1.374 . S
C628 C625 1.499 . S
C628 C629 1.373 . S
C628 C630 1.389 . S
C629 H608 0.950 . S
C629 C628 1.373 . S
C629 C645 1.377 . S
C630 C628 1.389 . S
C630 C631 1.524 . S
C630 C644 1.377 . S
C631 C630 1.524 . S
C631 C632 1.397 . S
C631 C636 1.363 . S
C632 H609 0.950 . S
C632 C631 1.397 . S
C632 C633 1.334 . S
C633 H610 0.950 . S
C633 C632 1.334 . S
C633 C634 1.287 . S
C634 C633 1.287 . S
C634 C635 1.524 . S
C634 H653 0.913 . S
C635 H611 0.950 . S
C635 C634 1.524 . S
C635 C636 1.415 . S
C636 H612 0.950 . S
C636 C631 1.363 . S
C636 C635 1.415 . S
C637 H613 0.951 . S
C637 C638 1.366 . S
C637 C639 1.388 . S
C638 C637 1.366 . S
C638 C642 1.385 . S
C639 H614 0.951 . S
C639 C637 1.388 . S
C639 C640 1.366 . S
C640 C639 1.366 . S
C640 C641 1.414 . S
C640 C643 1.499 . S
C641 H615 0.950 . S
C641 C640 1.414 . S
C641 C642 1.374 . S
C642 H616 0.950 . S
C642 C638 1.385 . S
C642 C641 1.374 . S
C643 C640 1.499 . S
C643 C644 1.373 . S
C643 C645 1.389 . S
C644 H617 0.950 . S
C644 C630 1.377 . S
C644 C643 1.373 . S
C645 C629 1.377 . S
C645 C643 1.389 . S
C645 C646 1.524 . S
C646 C645 1.524 . S
C646 C647 1.397 . S
C646 C651 1.363 . S
C647 H618 0.950 . S
C647 C646 1.397 . S
C647 C648 1.334 . S
C648 H619 0.950 . S
C648 C647 1.334 . S
C648 C649 1.287 . S
C649 C648 1.287 . S
C649 C650 1.524 . S
C649 H652 0.999 . S
C650 H620 0.950 . S
C650 C649 1.524 . S
C650 C651 1.415 . S
C651 H621 0.950 . S
C651 C646 1.363 . S
C651 C650 1.415 . S
H652 C649 0.999 . S
H653 C634 0.913 . S
H654 C672 0.951 . S
H655 C674 0.951 . S
H656 C676 0.950 . S
H657 C677 0.950 . S
H658 C679 0.950 . S
H659 C682 0.921 1_565 S
H660 C683 0.950 1_565 S
H661 C685 0.950 . S
H662 C686 0.950 . S
H663 C687 0.951 . S
H664 C689 0.951 . S
H665 C691 0.950 . S
H666 C692 0.950 . S
H667 C694 0.950 . S
H668 C697 0.922 1_545 S
H669 C698 0.950 1_545 S
H670 C700 0.950 . S
H671 C701 0.950 . S
C672 H654 0.951 . S
C672 C673 1.366 . S
C672 C674 1.388 . S
C673 C672 1.366 . S
C673 C677 1.385 . S
C674 H655 0.951 . S
C674 C672 1.388 . S
C674 C675 1.366 . S
C675 C674 1.366 . S
C675 C676 1.414 . S
C675 C678 1.499 . S
C676 H656 0.950 . S
C676 C675 1.414 . S
C676 C677 1.374 . S
C677 H657 0.950 . S
C677 C673 1.385 . S
C677 C676 1.374 . S
C678 C675 1.499 . S
C678 C679 1.373 . S
C678 C680 1.389 1_565 S
C679 H658 0.950 . S
C679 C678 1.373 . S
C679 C695 1.377 . S
C680 C678 1.389 1_545 S
C680 C681 1.524 . S
C680 C694 1.377 . S
C681 C680 1.524 . S
C681 C682 1.403 . S
C681 C686 1.363 . S
C682 H659 0.921 1_545 S
C682 C681 1.403 . S
C682 C683 1.358 . S
C683 H660 0.950 1_545 S
C683 C682 1.358 . S
C683 C684 1.287 . S
C684 C683 1.287 . S
C684 C685 1.524 . S
C684 H703 0.913 . S
C685 H661 0.950 . S
C685 C684 1.524 . S
C685 C686 1.415 . S
C686 H662 0.950 . S
C686 C681 1.363 . S
C686 C685 1.415 . S
C687 H663 0.951 . S
C687 C688 1.366 . S
C687 C689 1.388 . S
C688 C687 1.366 . S
C688 C692 1.385 . S
C689 H664 0.951 . S
C689 C687 1.388 . S
C689 C690 1.366 . S
C690 C689 1.366 . S
C690 C691 1.414 . S
C690 C693 1.499 . S
C691 H665 0.950 . S
C691 C690 1.414 . S
C691 C692 1.374 . S
C692 H666 0.950 . S
C692 C688 1.385 . S
C692 C691 1.374 . S
C693 C690 1.499 . S
C693 C694 1.373 . S
C693 C695 1.389 1_545 S
C694 H667 0.950 . S
C694 C680 1.377 . S
C694 C693 1.373 . S
C695 C679 1.377 . S
C695 C693 1.389 1_565 S
C695 C696 1.524 . S
C696 C695 1.524 . S
C696 C697 1.402 . S
C696 C701 1.363 . S
C697 H668 0.922 1_565 S
C697 C696 1.402 . S
C697 C698 1.358 . S
C698 H669 0.950 1_565 S
C698 C697 1.358 . S
C698 C699 1.287 . S
C699 C698 1.287 . S
C699 C700 1.524 . S
C699 H702 0.999 . S
C700 H670 0.950 . S
C700 C699 1.524 . S
C700 C701 1.415 . S
C701 H671 0.950 . S
C701 C696 1.363 . S
C701 C700 1.415 . S
H702 C699 0.999 . S
H703 C684 0.913 . S
H704 C722 0.951 . S
H705 C724 0.951 . S
H706 C726 0.950 . S
H707 C727 0.950 . S
H708 C729 0.950 . S
H709 C732 0.950 . S
H710 C733 0.950 . S
H711 C735 0.950 . S
H712 C736 0.950 . S
H713 C737 0.951 . S
H714 C739 0.951 . S
H715 C741 0.950 . S
H716 C742 0.950 . S
H717 C744 0.950 . S
H718 C747 0.950 . S
H719 C748 0.950 . S
H720 C750 0.950 . S
H721 C751 0.950 . S
C722 H704 0.951 . S
C722 C723 1.366 . S
C722 C724 1.388 . S
C723 C722 1.366 . S
C723 C727 1.385 . S
C724 H705 0.951 . S
C724 C722 1.388 . S
C724 C725 1.366 . S
C725 C724 1.366 . S
C725 C726 1.414 . S
C725 C728 1.499 . S
C726 H706 0.950 . S
C726 C725 1.414 . S
C726 C727 1.374 . S
C727 H707 0.950 . S
C727 C723 1.385 . S
C727 C726 1.374 . S
C728 C725 1.499 . S
C728 C729 1.373 . S
C728 C730 1.389 1_455 S
C729 H708 0.950 . S
C729 C728 1.373 . S
C729 C745 1.377 . S
C730 C728 1.389 1_655 S
C730 C731 1.524 . S
C730 C744 1.377 . S
C731 C730 1.524 . S
C731 C732 1.397 . S
C731 C736 1.363 . S
C732 H709 0.950 . S
C732 C731 1.397 . S
C732 C733 1.334 . S
C733 H710 0.950 . S
C733 C732 1.334 . S
C733 C734 1.287 . S
C734 C733 1.287 . S
C734 C735 1.524 . S
C734 H753 0.913 . S
C735 H711 0.950 . S
C735 C734 1.524 . S
C735 C736 1.415 . S
C736 H712 0.950 . S
C736 C731 1.363 . S
C736 C735 1.415 . S
C737 H713 0.951 . S
C737 C738 1.366 . S
C737 C739 1.388 . S
C738 C737 1.366 . S
C738 C742 1.385 . S
C739 H714 0.951 . S
C739 C737 1.388 . S
C739 C740 1.366 . S
C740 C739 1.366 . S
C740 C741 1.414 . S
C740 C743 1.499 . S
C741 H715 0.950 . S
C741 C740 1.414 . S
C741 C742 1.374 . S
C742 H716 0.950 . S
C742 C738 1.385 . S
C742 C741 1.374 . S
C743 C740 1.499 . S
C743 C744 1.373 . S
C743 C745 1.389 1_655 S
C744 H717 0.950 . S
C744 C730 1.377 . S
C744 C743 1.373 . S
C745 C729 1.377 . S
C745 C743 1.389 1_455 S
C745 C746 1.524 . S
C746 C745 1.524 . S
C746 C747 1.397 . S
C746 C751 1.363 . S
C747 H718 0.950 . S
C747 C746 1.397 . S
C747 C748 1.334 . S
C748 H719 0.950 . S
C748 C747 1.334 . S
C748 C749 1.287 . S
C749 C748 1.287 . S
C749 C750 1.524 . S
C749 H752 0.999 . S
C750 H720 0.950 . S
C750 C749 1.524 . S
C750 C751 1.415 . S
C751 H721 0.950 . S
C751 C746 1.363 . S
C751 C750 1.415 . S
H752 C749 0.999 . S
H753 C734 0.913 . S
H754 C772 0.951 . S
H755 C774 0.951 . S
H756 C776 0.950 . S
H757 C777 0.950 . S
H758 C779 0.950 . S
H759 C782 0.950 . S
H760 C783 0.950 . S
H761 C785 0.950 . S
H762 C786 0.950 . S
H763 C787 0.951 . S
H764 C789 0.951 . S
H765 C791 0.950 . S
H766 C792 0.950 . S
H767 C794 0.950 . S
H768 C797 0.950 . S
H769 C798 0.950 . S
H770 C800 0.950 . S
H771 C801 0.950 . S
C772 H754 0.951 . S
C772 C773 1.366 . S
C772 C774 1.388 . S
C773 C772 1.366 . S
C773 C777 1.385 . S
C774 H755 0.951 . S
C774 C772 1.388 . S
C774 C775 1.366 . S
C775 C774 1.366 . S
C775 C776 1.414 . S
C775 C778 1.499 . S
C776 H756 0.950 . S
C776 C775 1.414 . S
C776 C777 1.374 . S
C777 H757 0.950 . S
C777 C773 1.385 . S
C777 C776 1.374 . S
C778 C775 1.499 . S
C778 C779 1.373 . S
C778 C780 1.389 . S
C779 H758 0.950 . S
C779 C778 1.373 . S
C779 C795 1.377 . S
C780 C778 1.389 . S
C780 C781 1.524 . S
C780 C794 1.377 . S
C781 C780 1.524 . S
C781 C782 1.397 . S
C781 C786 1.363 . S
C782 H759 0.950 . S
C782 C781 1.397 . S
C782 C783 1.334 . S
C783 H760 0.950 . S
C783 C782 1.334 . S
C783 C784 1.287 . S
C784 C783 1.287 . S
C784 C785 1.524 . S
C784 H803 0.913 . S
C785 H761 0.950 . S
C785 C784 1.524 . S
C785 C786 1.415 . S
C786 H762 0.950 . S
C786 C781 1.363 . S
C786 C785 1.415 . S
C787 H763 0.951 . S
C787 C788 1.366 . S
C787 C789 1.388 . S
C788 C787 1.366 . S
C788 C792 1.385 . S
C789 H764 0.951 . S
C789 C787 1.388 . S
C789 C790 1.366 . S
C790 C789 1.366 . S
C790 C791 1.414 . S
C790 C793 1.499 . S
C791 H765 0.950 . S
C791 C790 1.414 . S
C791 C792 1.374 . S
C792 H766 0.950 . S
C792 C788 1.385 . S
C792 C791 1.374 . S
C793 C790 1.499 . S
C793 C794 1.373 . S
C793 C795 1.389 . S
C794 H767 0.950 . S
C794 C780 1.377 . S
C794 C793 1.373 . S
C795 C779 1.377 . S
C795 C793 1.389 . S
C795 C796 1.524 . S
C796 C795 1.524 . S
C796 C797 1.397 . S
C796 C801 1.363 . S
C797 H768 0.950 . S
C797 C796 1.397 . S
C797 C798 1.334 . S
C798 H769 0.950 . S
C798 C797 1.334 . S
C798 C799 1.287 . S
C799 C798 1.287 . S
C799 C800 1.524 . S
C799 H802 0.999 . S
C800 H770 0.950 . S
C800 C799 1.524 . S
C800 C801 1.415 . S
C801 H771 0.950 . S
C801 C796 1.363 . S
C801 C800 1.415 . S
H802 C799 0.999 . S
H803 C784 0.913 . S
H804 C822 0.951 . S
H805 C824 0.951 . S
H806 C826 0.950 . S
H807 C827 0.950 . S
H808 C829 0.950 . S
H809 C832 0.950 . S
H810 C833 0.950 . S
H811 C835 0.950 . S
H812 C836 0.950 . S
H813 C837 0.951 . S
H814 C839 0.951 . S
H815 C841 0.950 . S
H816 C842 0.950 . S
H817 C844 0.950 . S
H818 C847 0.950 . S
H819 C848 0.950 . S
H820 C850 0.950 . S
H821 C851 0.950 . S
C822 H804 0.951 . S
C822 C823 1.366 . S
C822 C824 1.388 . S
C823 C822 1.366 . S
C823 C827 1.385 . S
C824 H805 0.951 . S
C824 C822 1.388 . S
C824 C825 1.366 . S
C825 C824 1.366 . S
C825 C826 1.414 . S
C825 C828 1.499 . S
C826 H806 0.950 . S
C826 C825 1.414 . S
C826 C827 1.374 . S
C827 H807 0.950 . S
C827 C823 1.385 . S
C827 C826 1.374 . S
C828 C825 1.499 . S
C828 C829 1.373 . S
C828 C830 1.389 . S
C829 H808 0.950 . S
C829 C828 1.373 . S
C829 C845 1.377 . S
C830 C828 1.389 . S
C830 C831 1.524 . S
C830 C844 1.377 . S
C831 C830 1.524 . S
C831 C832 1.397 . S
C831 C836 1.363 . S
C832 H809 0.950 . S
C832 C831 1.397 . S
C832 C833 1.334 . S
C833 H810 0.950 . S
C833 C832 1.334 . S
C833 C834 1.287 . S
C834 C833 1.287 . S
C834 C835 1.524 . S
C834 H853 0.913 . S
C835 H811 0.950 . S
C835 C834 1.524 . S
C835 C836 1.415 . S
C836 H812 0.950 . S
C836 C831 1.363 . S
C836 C835 1.415 . S
C837 H813 0.951 . S
C837 C838 1.366 . S
C837 C839 1.388 . S
C838 C837 1.366 . S
C838 C842 1.385 . S
C839 H814 0.951 . S
C839 C837 1.388 . S
C839 C840 1.366 . S
C840 C839 1.366 . S
C840 C841 1.414 . S
C840 C843 1.499 . S
C841 H815 0.950 . S
C841 C840 1.414 . S
C841 C842 1.374 . S
C842 H816 0.950 . S
C842 C838 1.385 . S
C842 C841 1.374 . S
C843 C840 1.499 . S
C843 C844 1.373 . S
C843 C845 1.389 . S
C844 H817 0.950 . S
C844 C830 1.377 . S
C844 C843 1.373 . S
C845 C829 1.377 . S
C845 C843 1.389 . S
C845 C846 1.524 . S
C846 C845 1.524 . S
C846 C847 1.397 . S
C846 C851 1.363 . S
C847 H818 0.950 . S
C847 C846 1.397 . S
C847 C848 1.334 . S
C848 H819 0.950 . S
C848 C847 1.334 . S
C848 C849 1.287 . S
C849 C848 1.287 . S
C849 C850 1.524 . S
C849 H852 0.999 . S
C850 H820 0.950 . S
C850 C849 1.524 . S
C850 C851 1.415 . S
C851 H821 0.950 . S
C851 C846 1.363 . S
C851 C850 1.415 . S
H852 C849 0.999 . S
H853 C834 0.913 . S
H854 C872 0.951 . S
H855 C874 0.951 . S
H856 C876 0.950 . S
H857 C877 0.950 . S
H858 C879 0.950 . S
H859 C882 0.950 . S
H860 C883 0.950 . S
H861 C885 0.950 . S
H862 C886 0.950 . S
H863 C887 0.951 . S
H864 C889 0.951 . S
H865 C891 0.950 . S
H866 C892 0.950 . S
H867 C894 0.950 . S
H868 C897 0.950 . S
H869 C898 0.950 . S
H870 C900 0.950 . S
H871 C901 0.950 . S
C872 H854 0.951 . S
C872 C873 1.366 . S
C872 C874 1.388 . S
C873 C872 1.366 . S
C873 C877 1.385 . S
C874 H855 0.951 . S
C874 C872 1.388 . S
C874 C875 1.366 . S
C875 C874 1.366 . S
C875 C876 1.414 . S
C875 C878 1.499 . S
C876 H856 0.950 . S
C876 C875 1.414 . S
C876 C877 1.374 . S
C877 H857 0.950 . S
C877 C873 1.385 . S
C877 C876 1.374 . S
C878 C875 1.499 . S
C878 C879 1.373 . S
C878 C880 1.389 . S
C879 H858 0.950 . S
C879 C878 1.373 . S
C879 C895 1.377 . S
C880 C878 1.389 . S
C880 C881 1.524 . S
C880 C894 1.377 . S
C881 C880 1.524 . S
C881 C882 1.397 . S
C881 C886 1.363 . S
C882 H859 0.950 . S
C882 C881 1.397 . S
C882 C883 1.334 . S
C883 H860 0.950 . S
C883 C882 1.334 . S
C883 C884 1.287 . S
C884 C883 1.287 . S
C884 C885 1.524 . S
C884 H903 0.913 . S
C885 H861 0.950 . S
C885 C884 1.524 . S
C885 C886 1.415 . S
C886 H862 0.950 . S
C886 C881 1.363 . S
C886 C885 1.415 . S
C887 H863 0.951 . S
C887 C888 1.366 . S
C887 C889 1.388 . S
C888 C887 1.366 . S
C888 C892 1.385 . S
C889 H864 0.951 . S
C889 C887 1.388 . S
C889 C890 1.366 . S
C890 C889 1.366 . S
C890 C891 1.414 . S
C890 C893 1.499 . S
C891 H865 0.950 . S
C891 C890 1.414 . S
C891 C892 1.374 . S
C892 H866 0.950 . S
C892 C888 1.385 . S
C892 C891 1.374 . S
C893 C890 1.499 . S
C893 C894 1.373 . S
C893 C895 1.389 . S
C894 H867 0.950 . S
C894 C880 1.377 . S
C894 C893 1.373 . S
C895 C879 1.377 . S
C895 C893 1.389 . S
C895 C896 1.524 . S
C896 C895 1.524 . S
C896 C897 1.397 . S
C896 C901 1.363 . S
C897 H868 0.950 . S
C897 C896 1.397 . S
C897 C898 1.334 . S
C898 H869 0.950 . S
C898 C897 1.334 . S
C898 C899 1.287 . S
C899 C898 1.287 . S
C899 C900 1.524 . S
C899 H902 0.999 . S
C900 H870 0.950 . S
C900 C899 1.524 . S
C900 C901 1.415 . S
C901 H871 0.950 . S
C901 C896 1.363 . S
C901 C900 1.415 . S
H902 C899 0.999 . S
H903 C884 0.913 . S
H904 C922 0.951 . S
H905 C924 0.951 . S
H906 C926 0.950 . S
H907 C927 0.950 . S
H908 C929 0.950 . S
H909 C932 0.950 . S
H910 C933 0.950 . S
H911 C935 0.950 . S
H912 C936 0.950 . S
H913 C937 0.951 . S
H914 C939 0.951 . S
H915 C941 0.950 . S
H916 C942 0.950 . S
H917 C944 0.950 . S
H918 C947 0.950 . S
H919 C948 0.950 . S
H920 C950 0.950 . S
H921 C951 0.950 . S
C922 H904 0.951 . S
C922 C923 1.366 . S
C922 C924 1.388 . S
C923 C922 1.366 . S
C923 C927 1.385 . S
C924 H905 0.951 . S
C924 C922 1.388 . S
C924 C925 1.366 . S
C925 C924 1.366 . S
C925 C926 1.414 . S
C925 C928 1.499 . S
C926 H906 0.950 . S
C926 C925 1.414 . S
C926 C927 1.374 . S
C927 H907 0.950 . S
C927 C923 1.385 . S
C927 C926 1.374 . S
C928 C925 1.499 . S
C928 C929 1.373 . S
C928 C930 1.389 . S
C929 H908 0.950 . S
C929 C928 1.373 . S
C929 C945 1.377 . S
C930 C928 1.389 . S
C930 C931 1.524 . S
C930 C944 1.377 . S
C931 C930 1.524 . S
C931 C932 1.397 . S
C931 C936 1.363 . S
C932 H909 0.950 . S
C932 C931 1.397 . S
C932 C933 1.334 . S
C933 H910 0.950 . S
C933 C932 1.334 . S
C933 C934 1.287 . S
C934 C933 1.287 . S
C934 C935 1.524 . S
C934 H953 0.913 . S
C935 H911 0.950 . S
C935 C934 1.524 . S
C935 C936 1.415 . S
C936 H912 0.950 . S
C936 C931 1.363 . S
C936 C935 1.415 . S
C937 H913 0.951 . S
C937 C938 1.366 . S
C937 C939 1.388 . S
C938 C937 1.366 . S
C938 C942 1.385 . S
C939 H914 0.951 . S
C939 C937 1.388 . S
C939 C940 1.366 . S
C940 C939 1.366 . S
C940 C941 1.414 . S
C940 C943 1.499 . S
C941 H915 0.950 . S
C941 C940 1.414 . S
C941 C942 1.374 . S
C942 H916 0.950 . S
C942 C938 1.385 . S
C942 C941 1.374 . S
C943 C940 1.499 . S
C943 C944 1.373 . S
C943 C945 1.389 . S
C944 H917 0.950 . S
C944 C930 1.377 . S
C944 C943 1.373 . S
C945 C929 1.377 . S
C945 C943 1.389 . S
C945 C946 1.524 . S
C946 C945 1.524 . S
C946 C947 1.397 . S
C946 C951 1.363 . S
C947 H918 0.950 . S
C947 C946 1.397 . S
C947 C948 1.334 . S
C948 H919 0.950 . S
C948 C947 1.334 . S
C948 C949 1.287 . S
C949 C948 1.287 . S
C949 C950 1.524 . S
C949 H952 0.999 . S
C950 H920 0.950 . S
C950 C949 1.524 . S
C950 C951 1.415 . S
C951 H921 0.950 . S
C951 C946 1.363 . S
C951 C950 1.415 . S
H952 C949 0.999 . S
H953 C934 0.913 . S
H954 C972 0.951 . S
H955 C974 0.951 . S
H956 C976 0.950 . S
H957 C977 0.950 . S
H958 C979 0.950 . S
H959 C982 0.950 . S
H960 C983 0.950 . S
H961 C985 0.950 . S
H962 C986 0.950 . S
H963 C987 0.951 . S
H964 C989 0.951 . S
H965 C991 0.950 . S
H966 C992 0.950 1_554 S
H967 C994 0.950 . S
H968 C997 0.950 . S
H969 C998 0.950 . S
H970 C1000 0.950 . S
H971 C1001 0.950 . S
C972 H954 0.951 . S
C972 C973 1.366 . S
C972 C974 1.388 . S
C973 C972 1.366 . S
C973 C977 1.385 . S
C974 H955 0.951 . S
C974 C972 1.388 . S
C974 C975 1.366 . S
C975 C974 1.366 . S
C975 C976 1.414 . S
C975 C978 1.499 . S
C976 H956 0.950 . S
C976 C975 1.414 . S
C976 C977 1.374 . S
C977 H957 0.950 . S
C977 C973 1.385 . S
C977 C976 1.374 . S
C978 C975 1.499 . S
C978 C979 1.373 . S
C978 C980 1.389 . S
C979 H958 0.950 . S
C979 C978 1.373 . S
C979 C995 1.377 . S
C980 C978 1.389 . S
C980 C981 1.524 . S
C980 C994 1.377 . S
C981 C980 1.524 . S
C981 C982 1.397 . S
C981 C986 1.363 . S
C982 H959 0.950 . S
C982 C981 1.397 . S
C982 C983 1.334 . S
C983 H960 0.950 . S
C983 C982 1.334 . S
C983 C984 1.287 . S
C984 C983 1.287 . S
C984 C985 1.524 . S
C984 H1003 0.913 . S
C985 H961 0.950 . S
C985 C984 1.524 . S
C985 C986 1.415 . S
C986 H962 0.950 . S
C986 C981 1.363 . S
C986 C985 1.415 . S
C987 H963 0.951 . S
C987 C988 1.366 . S
C987 C989 1.388 . S
C988 C987 1.366 . S
C988 C992 1.385 . S
C989 H964 0.951 . S
C989 C987 1.388 . S
C989 C990 1.366 . S
C990 C989 1.366 . S
C990 C991 1.414 . S
C990 C993 1.499 . S
C991 H965 0.950 . S
C991 C990 1.414 . S
C991 C992 1.374 . S
C992 H966 0.950 1_556 S
C992 C988 1.385 . S
C992 C991 1.374 . S
C993 C990 1.499 . S
C993 C994 1.373 . S
C993 C995 1.389 . S
C994 H967 0.950 . S
C994 C980 1.377 . S
C994 C993 1.373 . S
C995 C979 1.377 . S
C995 C993 1.389 . S
C995 C996 1.524 . S
C996 C995 1.524 . S
C996 C997 1.397 . S
C996 C1001 1.363 . S
C997 H968 0.950 . S
C997 C996 1.397 . S
C997 C998 1.334 . S
C998 H969 0.950 . S
C998 C997 1.334 . S
C998 C999 1.287 . S
C999 C998 1.287 . S
C999 C1000 1.524 . S
C999 H1002 0.999 . S
C1000 H970 0.950 . S
C1000 C999 1.524 . S
C1000 C1001 1.415 . S
C1001 H971 0.950 . S
C1001 C996 1.363 . S
C1001 C1000 1.415 . S
H1002 C999 0.999 . S
H1003 C984 0.913 . S
H1004 C1022 0.951 . S
H1005 C1024 0.951 . S
H1006 C1026 0.950 . S
H1007 C1027 0.950 . S
H1008 C1029 0.950 . S
H1009 C1032 0.950 . S
H1010 C1033 0.950 . S
H1011 C1035 0.950 . S
H1012 C1036 0.950 . S
H1013 C1037 0.951 . S
H1014 C1039 0.951 . S
H1015 C1041 0.950 . S
H1016 C1042 0.950 . S
H1017 C1044 0.950 . S
H1018 C1047 0.950 . S
H1019 C1048 0.950 . S
H1020 C1050 0.950 . S
H1021 C1051 0.950 . S
C1022 H1004 0.951 . S
C1022 C1023 1.366 . S
C1022 C1024 1.388 . S
C1023 C1022 1.366 . S
C1023 C1027 1.385 . S
C1024 H1005 0.951 . S
C1024 C1022 1.388 . S
C1024 C1025 1.366 . S
C1025 C1024 1.366 . S
C1025 C1026 1.414 . S
C1025 C1028 1.499 . S
C1026 H1006 0.950 . S
C1026 C1025 1.414 . S
C1026 C1027 1.374 . S
C1027 H1007 0.950 . S
C1027 C1023 1.385 . S
C1027 C1026 1.374 . S
C1028 C1025 1.499 . S
C1028 C1029 1.373 . S
C1028 C1030 1.389 . S
C1029 H1008 0.950 . S
C1029 C1028 1.373 . S
C1029 C1045 1.377 . S
C1030 C1028 1.389 . S
C1030 C1031 1.524 . S
C1030 C1044 1.377 . S
C1031 C1030 1.524 . S
C1031 C1032 1.397 . S
C1031 C1036 1.363 . S
C1032 H1009 0.950 . S
C1032 C1031 1.397 . S
C1032 C1033 1.334 . S
C1033 H1010 0.950 . S
C1033 C1032 1.334 . S
C1033 C1034 1.287 . S
C1034 C1033 1.287 . S
C1034 C1035 1.524 . S
C1034 H1053 0.913 . S
C1035 H1011 0.950 . S
C1035 C1034 1.524 . S
C1035 C1036 1.415 . S
C1036 H1012 0.950 . S
C1036 C1031 1.363 . S
C1036 C1035 1.415 . S
C1037 H1013 0.951 . S
C1037 C1038 1.366 . S
C1037 C1039 1.388 . S
C1038 C1037 1.366 . S
C1038 C1042 1.385 . S
C1039 H1014 0.951 . S
C1039 C1037 1.388 . S
C1039 C1040 1.366 . S
C1040 C1039 1.366 . S
C1040 C1041 1.414 . S
C1040 C1043 1.499 . S
C1041 H1015 0.950 . S
C1041 C1040 1.414 . S
C1041 C1042 1.374 . S
C1042 H1016 0.950 . S
C1042 C1038 1.385 . S
C1042 C1041 1.374 . S
C1043 C1040 1.499 . S
C1043 C1044 1.373 . S
C1043 C1045 1.389 . S
C1044 H1017 0.950 . S
C1044 C1030 1.377 . S
C1044 C1043 1.373 . S
C1045 C1029 1.377 . S
C1045 C1043 1.389 . S
C1045 C1046 1.524 . S
C1046 C1045 1.524 . S
C1046 C1047 1.397 . S
C1046 C1051 1.363 . S
C1047 H1018 0.950 . S
C1047 C1046 1.397 . S
C1047 C1048 1.334 . S
C1048 H1019 0.950 . S
C1048 C1047 1.334 . S
C1048 C1049 1.287 . S
C1049 C1048 1.287 . S
C1049 C1050 1.524 . S
C1049 H1052 0.999 . S
C1050 H1020 0.950 . S
C1050 C1049 1.524 . S
C1050 C1051 1.415 . S
C1051 H1021 0.950 . S
C1051 C1046 1.363 . S
C1051 C1050 1.415 . S
H1052 C1049 0.999 . S
H1053 C1034 0.913 . S
H1054 C1072 0.951 . S
H1055 C1074 0.951 . S
H1056 C1076 0.950 . S
H1057 C1077 0.950 . S
H1058 C1079 0.950 . S
H1059 C1082 0.950 . S
H1060 C1083 0.950 . S
H1061 C1085 0.950 . S
H1062 C1086 0.950 . S
H1063 C1087 0.951 . S
H1064 C1089 0.951 . S
H1065 C1091 0.950 . S
H1066 C1092 0.950 . S
H1067 C1094 0.950 . S
H1068 C1097 0.950 . S
H1069 C1098 0.950 . S
H1070 C1100 0.950 . S
H1071 C1101 0.950 . S
C1072 H1054 0.951 . S
C1072 C1073 1.366 . S
C1072 C1074 1.388 . S
C1073 C1072 1.366 . S
C1073 C1077 1.385 . S
C1074 H1055 0.951 . S
C1074 C1072 1.388 . S
C1074 C1075 1.366 . S
C1075 C1074 1.366 . S
C1075 C1076 1.414 . S
C1075 C1078 1.499 . S
C1076 H1056 0.950 . S
C1076 C1075 1.414 . S
C1076 C1077 1.374 . S
C1077 H1057 0.950 . S
C1077 C1073 1.385 . S
C1077 C1076 1.374 . S
C1078 C1075 1.499 . S
C1078 C1079 1.373 . S
C1078 C1080 1.389 . S
C1079 H1058 0.950 . S
C1079 C1078 1.373 . S
C1079 C1095 1.377 . S
C1080 C1078 1.389 . S
C1080 C1081 1.524 . S
C1080 C1094 1.377 . S
C1081 C1080 1.524 . S
C1081 C1082 1.397 . S
C1081 C1086 1.363 . S
C1082 H1059 0.950 . S
C1082 C1081 1.397 . S
C1082 C1083 1.334 . S
C1083 H1060 0.950 . S
C1083 C1082 1.334 . S
C1083 C1084 1.287 . S
C1084 C1083 1.287 . S
C1084 C1085 1.524 . S
C1084 H1103 0.913 . S
C1085 H1061 0.950 . S
C1085 C1084 1.524 . S
C1085 C1086 1.415 . S
C1086 H1062 0.950 . S
C1086 C1081 1.363 . S
C1086 C1085 1.415 . S
C1087 H1063 0.951 . S
C1087 C1088 1.366 . S
C1087 C1089 1.388 . S
C1088 C1087 1.366 . S
C1088 C1092 1.385 . S
C1089 H1064 0.951 . S
C1089 C1087 1.388 . S
C1089 C1090 1.366 . S
C1090 C1089 1.366 . S
C1090 C1091 1.414 . S
C1090 C1093 1.499 . S
C1091 H1065 0.950 . S
C1091 C1090 1.414 . S
C1091 C1092 1.374 . S
C1092 H1066 0.950 . S
C1092 C1088 1.385 . S
C1092 C1091 1.374 . S
C1093 C1090 1.499 . S
C1093 C1094 1.373 . S
C1093 C1095 1.389 . S
C1094 H1067 0.950 . S
C1094 C1080 1.377 . S
C1094 C1093 1.373 . S
C1095 C1079 1.377 . S
C1095 C1093 1.389 . S
C1095 C1096 1.524 . S
C1096 C1095 1.524 . S
C1096 C1097 1.397 . S
C1096 C1101 1.363 . S
C1097 H1068 0.950 . S
C1097 C1096 1.397 . S
C1097 C1098 1.334 . S
C1098 H1069 0.950 . S
C1098 C1097 1.334 . S
C1098 C1099 1.287 . S
C1099 C1098 1.287 . S
C1099 C1100 1.524 . S
C1099 H1102 0.999 . S
C1100 H1070 0.950 . S
C1100 C1099 1.524 . S
C1100 C1101 1.415 . S
C1101 H1071 0.950 . S
C1101 C1096 1.363 . S
C1101 C1100 1.415 . S
H1102 C1099 0.999 . S
H1103 C1084 0.913 . S
H1104 C1122 0.951 . S
H1105 C1124 0.951 . S
H1106 C1126 0.950 . S
H1107 C1127 0.950 . S
H1108 C1129 0.950 . S
H1109 C1132 0.950 . S
H1110 C1133 0.950 . S
H1111 C1135 0.950 . S
H1112 C1136 0.950 . S
H1113 C1137 0.951 1_556 S
H1114 C1139 0.951 . S
H1115 C1141 0.950 . S
H1116 C1142 0.950 . S
H1117 C1144 0.950 . S
H1118 C1147 0.950 . S
H1119 C1148 0.950 . S
H1120 C1150 0.950 . S
H1121 C1151 0.950 . S
C1122 H1104 0.951 . S
C1122 C1123 1.366 . S
C1122 C1124 1.388 . S
C1123 C1122 1.366 . S
C1123 C1127 1.385 . S
C1124 H1105 0.951 . S
C1124 C1122 1.388 . S
C1124 C1125 1.366 . S
C1125 C1124 1.366 . S
C1125 C1126 1.414 . S
C1125 C1128 1.499 . S
C1126 H1106 0.950 . S
C1126 C1125 1.414 . S
C1126 C1127 1.374 . S
C1127 H1107 0.950 . S
C1127 C1123 1.385 . S
C1127 C1126 1.374 . S
C1128 C1125 1.499 . S
C1128 C1129 1.373 . S
C1128 C1130 1.389 . S
C1129 H1108 0.950 . S
C1129 C1128 1.373 . S
C1129 C1145 1.377 . S
C1130 C1128 1.389 . S
C1130 C1131 1.524 . S
C1130 C1144 1.377 . S
C1131 C1130 1.524 . S
C1131 C1132 1.397 . S
C1131 C1136 1.363 . S
C1132 H1109 0.950 . S
C1132 C1131 1.397 . S
C1132 C1133 1.334 . S
C1133 H1110 0.950 . S
C1133 C1132 1.334 . S
C1133 C1134 1.287 . S
C1134 C1133 1.287 . S
C1134 C1135 1.524 . S
C1134 H1153 0.913 . S
C1135 H1111 0.950 . S
C1135 C1134 1.524 . S
C1135 C1136 1.415 . S
C1136 H1112 0.950 . S
C1136 C1131 1.363 . S
C1136 C1135 1.415 . S
C1137 H1113 0.951 1_554 S
C1137 C1138 1.366 . S
C1137 C1139 1.388 . S
C1138 C1137 1.366 . S
C1138 C1142 1.385 . S
C1139 H1114 0.951 . S
C1139 C1137 1.388 . S
C1139 C1140 1.366 . S
C1140 C1139 1.366 . S
C1140 C1141 1.414 . S
C1140 C1143 1.499 . S
C1141 H1115 0.950 . S
C1141 C1140 1.414 . S
C1141 C1142 1.374 . S
C1142 H1116 0.950 . S
C1142 C1138 1.385 . S
C1142 C1141 1.374 . S
C1143 C1140 1.499 . S
C1143 C1144 1.373 . S
C1143 C1145 1.389 . S
C1144 H1117 0.950 . S
C1144 C1130 1.377 . S
C1144 C1143 1.373 . S
C1145 C1129 1.377 . S
C1145 C1143 1.389 . S
C1145 C1146 1.524 . S
C1146 C1145 1.524 . S
C1146 C1147 1.397 . S
C1146 C1151 1.363 . S
C1147 H1118 0.950 . S
C1147 C1146 1.397 . S
C1147 C1148 1.334 . S
C1148 H1119 0.950 . S
C1148 C1147 1.334 . S
C1148 C1149 1.287 . S
C1149 C1148 1.287 . S
C1149 C1150 1.524 . S
C1149 H1152 0.999 1_554 S
C1150 H1120 0.950 . S
C1150 C1149 1.524 . S
C1150 C1151 1.415 . S
C1151 H1121 0.950 . S
C1151 C1146 1.363 . S
C1151 C1150 1.415 . S
H1152 C1149 0.999 1_556 S
H1153 C1134 0.913 . S
H1154 C1172 0.951 . S
H1155 C1174 0.951 . S
H1156 C1176 0.950 . S
H1157 C1177 0.950 . S
H1158 C1179 0.950 . S
H1159 C1182 0.950 . S
H1160 C1183 0.950 . S
H1161 C1185 0.950 . S
H1162 C1186 0.950 . S
H1163 C1187 0.951 . S
H1164 C1189 0.951 . S
H1165 C1191 0.950 . S
H1166 C1192 0.950 . S
H1167 C1194 0.950 . S
H1168 C1197 0.950 . S
H1169 C1198 0.950 1_556 S
H1170 C1200 0.950 . S
H1171 C1201 0.950 . S
C1172 H1154 0.951 . S
C1172 C1173 1.366 . S
C1172 C1174 1.388 . S
C1173 C1172 1.366 . S
C1173 C1177 1.385 . S
C1174 H1155 0.951 . S
C1174 C1172 1.388 . S
C1174 C1175 1.366 . S
C1175 C1174 1.366 . S
C1175 C1176 1.414 . S
C1175 C1178 1.499 . S
C1176 H1156 0.950 . S
C1176 C1175 1.414 . S
C1176 C1177 1.374 . S
C1177 H1157 0.950 . S
C1177 C1173 1.385 . S
C1177 C1176 1.374 . S
C1178 C1175 1.499 . S
C1178 C1179 1.373 . S
C1178 C1180 1.389 . S
C1179 H1158 0.950 . S
C1179 C1178 1.373 . S
C1179 C1195 1.377 . S
C1180 C1178 1.389 . S
C1180 C1181 1.524 . S
C1180 C1194 1.377 . S
C1181 C1180 1.524 . S
C1181 C1182 1.397 . S
C1181 C1186 1.363 . S
C1182 H1159 0.950 . S
C1182 C1181 1.397 . S
C1182 C1183 1.334 . S
C1183 H1160 0.950 . S
C1183 C1182 1.334 . S
C1183 C1184 1.287 . S
C1184 C1183 1.287 . S
C1184 C1185 1.524 . S
C1184 H1203 0.913 . S
C1185 H1161 0.950 . S
C1185 C1184 1.524 . S
C1185 C1186 1.415 . S
C1186 H1162 0.950 . S
C1186 C1181 1.363 . S
C1186 C1185 1.415 . S
C1187 H1163 0.951 . S
C1187 C1188 1.366 . S
C1187 C1189 1.388 . S
C1188 C1187 1.366 . S
C1188 C1192 1.385 . S
C1189 H1164 0.951 . S
C1189 C1187 1.388 . S
C1189 C1190 1.366 . S
C1190 C1189 1.366 . S
C1190 C1191 1.414 . S
C1190 C1193 1.499 . S
C1191 H1165 0.950 . S
C1191 C1190 1.414 . S
C1191 C1192 1.374 . S
C1192 H1166 0.950 . S
C1192 C1188 1.385 . S
C1192 C1191 1.374 . S
C1193 C1190 1.499 . S
C1193 C1194 1.373 . S
C1193 C1195 1.389 . S
C1194 H1167 0.950 . S
C1194 C1180 1.377 . S
C1194 C1193 1.373 . S
C1195 C1179 1.377 . S
C1195 C1193 1.389 . S
C1195 C1196 1.524 . S
C1196 C1195 1.524 . S
C1196 C1197 1.397 . S
C1196 C1201 1.363 . S
C1197 H1168 0.950 . S
C1197 C1196 1.397 . S
C1197 C1198 1.334 . S
C1198 H1169 0.950 1_554 S
C1198 C1197 1.334 . S
C1198 C1199 1.287 . S
C1199 C1198 1.287 . S
C1199 C1200 1.524 . S
C1199 H1202 0.999 1_554 S
C1200 H1170 0.950 . S
C1200 C1199 1.524 . S
C1200 C1201 1.415 . S
C1201 H1171 0.950 . S
C1201 C1196 1.363 . S
C1201 C1200 1.415 . S
H1202 C1199 0.999 1_556 S
H1203 C1184 0.913 . S
H1204 C1222 0.951 . S
H1205 C1224 0.951 . S
H1206 C1226 0.950 . S
H1207 C1227 0.950 . S
H1208 C1229 0.950 . S
H1209 C1232 0.950 . S
H1210 C1233 0.950 . S
H1211 C1235 0.950 . S
H1212 C1236 0.950 . S
H1213 C1237 0.951 . S
H1214 C1239 0.951 . S
H1215 C1241 0.950 . S
H1216 C1242 0.950 1_556 S
H1217 C1244 0.950 . S
H1218 C1247 0.950 . S
H1219 C1248 0.950 . S
H1220 C1250 0.950 . S
H1221 C1251 0.950 . S
C1222 H1204 0.951 . S
C1222 C1223 1.366 . S
C1222 C1224 1.388 . S
C1223 C1222 1.366 . S
C1223 C1227 1.385 . S
C1224 H1205 0.951 . S
C1224 C1222 1.388 . S
C1224 C1225 1.366 . S
C1225 C1224 1.366 . S
C1225 C1226 1.414 . S
C1225 C1228 1.499 . S
C1226 H1206 0.950 . S
C1226 C1225 1.414 . S
C1226 C1227 1.374 . S
C1227 H1207 0.950 . S
C1227 C1223 1.385 . S
C1227 C1226 1.374 . S
C1228 C1225 1.499 . S
C1228 C1229 1.373 . S
C1228 C1230 1.389 . S
C1229 H1208 0.950 . S
C1229 C1228 1.373 . S
C1229 C1245 1.377 . S
C1230 C1228 1.389 . S
C1230 C1231 1.524 . S
C1230 C1244 1.377 . S
C1231 C1230 1.524 . S
C1231 C1232 1.397 . S
C1231 C1236 1.363 . S
C1232 H1209 0.950 . S
C1232 C1231 1.397 . S
C1232 C1233 1.334 . S
C1233 H1210 0.950 . S
C1233 C1232 1.334 . S
C1233 C1234 1.287 . S
C1234 C1233 1.287 . S
C1234 C1235 1.524 . S
C1234 H1253 0.913 . S
C1235 H1211 0.950 . S
C1235 C1234 1.524 . S
C1235 C1236 1.415 . S
C1236 H1212 0.950 . S
C1236 C1231 1.363 . S
C1236 C1235 1.415 . S
C1237 H1213 0.951 . S
C1237 C1238 1.366 . S
C1237 C1239 1.388 . S
C1238 C1237 1.366 . S
C1238 C1242 1.385 . S
C1239 H1214 0.951 . S
C1239 C1237 1.388 . S
C1239 C1240 1.366 . S
C1240 C1239 1.366 . S
C1240 C1241 1.414 . S
C1240 C1243 1.499 . S
C1241 H1215 0.950 . S
C1241 C1240 1.414 . S
C1241 C1242 1.374 . S
C1242 H1216 0.950 1_554 S
C1242 C1238 1.385 . S
C1242 C1241 1.374 . S
C1243 C1240 1.499 . S
C1243 C1244 1.373 . S
C1243 C1245 1.389 . S
C1244 H1217 0.950 . S
C1244 C1230 1.377 . S
C1244 C1243 1.373 . S
C1245 C1229 1.377 . S
C1245 C1243 1.389 . S
C1245 C1246 1.524 . S
C1246 C1245 1.524 . S
C1246 C1247 1.397 . S
C1246 C1251 1.363 . S
C1247 H1218 0.950 . S
C1247 C1246 1.397 . S
C1247 C1248 1.334 . S
C1248 H1219 0.950 . S
C1248 C1247 1.334 . S
C1248 C1249 1.287 . S
C1249 C1248 1.287 . S
C1249 C1250 1.524 . S
C1249 H1252 0.999 . S
C1250 H1220 0.950 . S
C1250 C1249 1.524 . S
C1250 C1251 1.415 . S
C1251 H1221 0.950 . S
C1251 C1246 1.363 . S
C1251 C1250 1.415 . S
H1252 C1249 0.999 . S
H1253 C1234 0.913 . S
H1254 C1272 0.951 . S
H1255 C1274 0.951 . S
H1256 C1276 0.950 . S
H1257 C1277 0.950 . S
H1258 C1279 0.950 . S
H1259 C1282 0.950 . S
H1260 C1283 0.950 . S
H1261 C1285 0.950 . S
H1262 C1286 0.950 . S
H1263 C1287 0.951 1_556 S
H1264 C1289 0.951 . S
H1265 C1291 0.950 . S
H1266 C1292 0.950 . S
H1267 C1294 0.950 . S
H1268 C1297 0.950 . S
H1269 C1298 0.950 . S
H1270 C1300 0.950 . S
H1271 C1301 0.950 . S
C1272 H1254 0.951 . S
C1272 C1273 1.366 . S
C1272 C1274 1.388 . S
C1273 C1272 1.366 . S
C1273 C1277 1.385 . S
C1274 H1255 0.951 . S
C1274 C1272 1.388 . S
C1274 C1275 1.366 . S
C1275 C1274 1.366 . S
C1275 C1276 1.414 . S
C1275 C1278 1.499 . S
C1276 H1256 0.950 . S
C1276 C1275 1.414 . S
C1276 C1277 1.374 . S
C1277 H1257 0.950 . S
C1277 C1273 1.385 . S
C1277 C1276 1.374 . S
C1278 C1275 1.499 . S
C1278 C1279 1.373 . S
C1278 C1280 1.389 . S
C1279 H1258 0.950 . S
C1279 C1278 1.373 . S
C1279 C1295 1.377 . S
C1280 C1278 1.389 . S
C1280 C1281 1.524 . S
C1280 C1294 1.377 . S
C1281 C1280 1.524 . S
C1281 C1282 1.397 . S
C1281 C1286 1.363 . S
C1282 H1259 0.950 . S
C1282 C1281 1.397 . S
C1282 C1283 1.334 . S
C1283 H1260 0.950 . S
C1283 C1282 1.334 . S
C1283 C1284 1.287 . S
C1284 C1283 1.287 . S
C1284 C1285 1.524 . S
C1284 H1303 0.913 . S
C1285 H1261 0.950 . S
C1285 C1284 1.524 . S
C1285 C1286 1.415 . S
C1286 H1262 0.950 . S
C1286 C1281 1.363 . S
C1286 C1285 1.415 . S
C1287 H1263 0.951 1_554 S
C1287 C1288 1.366 . S
C1287 C1289 1.388 . S
C1288 C1287 1.366 . S
C1288 C1292 1.385 . S
C1289 H1264 0.951 . S
C1289 C1287 1.388 . S
C1289 C1290 1.366 . S
C1290 C1289 1.366 . S
C1290 C1291 1.414 . S
C1290 C1293 1.499 . S
C1291 H1265 0.950 . S
C1291 C1290 1.414 . S
C1291 C1292 1.374 . S
C1292 H1266 0.950 . S
C1292 C1288 1.385 . S
C1292 C1291 1.374 . S
C1293 C1290 1.499 . S
C1293 C1294 1.373 . S
C1293 C1295 1.389 . S
C1294 H1267 0.950 . S
C1294 C1280 1.377 . S
C1294 C1293 1.373 . S
C1295 C1279 1.377 . S
C1295 C1293 1.389 . S
C1295 C1296 1.524 . S
C1296 C1295 1.524 . S
C1296 C1297 1.397 . S
C1296 C1301 1.363 . S
C1297 H1268 0.950 . S
C1297 C1296 1.397 . S
C1297 C1298 1.334 . S
C1298 H1269 0.950 . S
C1298 C1297 1.334 . S
C1298 C1299 1.287 . S
C1299 C1298 1.287 . S
C1299 C1300 1.524 . S
C1299 H1302 0.999 1_554 S
C1300 H1270 0.950 . S
C1300 C1299 1.524 . S
C1300 C1301 1.415 . S
C1301 H1271 0.950 . S
C1301 C1296 1.363 . S
C1301 C1300 1.415 . S
H1302 C1299 0.999 1_556 S
H1303 C1284 0.913 . S
H1304 C1322 0.951 . S
H1305 C1324 0.951 . S
H1306 C1326 0.950 . S
H1307 C1327 0.950 . S
H1308 C1329 0.950 . S
H1309 C1332 0.950 . S
H1310 C1333 0.950 . S
H1311 C1335 0.950 . S
H1312 C1336 0.950 . S
H1313 C1337 0.951 1_556 S
H1314 C1339 0.951 . S
H1315 C1341 0.950 . S
H1316 C1342 0.950 . S
H1317 C1344 0.950 . S
H1318 C1347 0.950 . S
H1319 C1348 0.950 . S
H1320 C1350 0.950 . S
H1321 C1351 0.950 . S
C1322 H1304 0.951 . S
C1322 C1323 1.366 . S
C1322 C1324 1.388 . S
C1323 C1322 1.366 . S
C1323 C1327 1.385 . S
C1324 H1305 0.951 . S
C1324 C1322 1.388 . S
C1324 C1325 1.366 . S
C1325 C1324 1.366 . S
C1325 C1326 1.414 . S
C1325 C1328 1.499 . S
C1326 H1306 0.950 . S
C1326 C1325 1.414 . S
C1326 C1327 1.374 . S
C1327 H1307 0.950 . S
C1327 C1323 1.385 . S
C1327 C1326 1.374 . S
C1328 C1325 1.499 . S
C1328 C1329 1.373 . S
C1328 C1330 1.389 . S
C1329 H1308 0.950 . S
C1329 C1328 1.373 . S
C1329 C1345 1.377 . S
C1330 C1328 1.389 . S
C1330 C1331 1.524 . S
C1330 C1344 1.377 . S
C1331 C1330 1.524 . S
C1331 C1332 1.397 . S
C1331 C1336 1.363 . S
C1332 H1309 0.950 . S
C1332 C1331 1.397 . S
C1332 C1333 1.334 . S
C1333 H1310 0.950 . S
C1333 C1332 1.334 . S
C1333 C1334 1.287 . S
C1334 C1333 1.287 . S
C1334 C1335 1.524 . S
C1334 H1353 0.913 . S
C1335 H1311 0.950 . S
C1335 C1334 1.524 . S
C1335 C1336 1.415 . S
C1336 H1312 0.950 . S
C1336 C1331 1.363 . S
C1336 C1335 1.415 . S
C1337 H1313 0.951 1_554 S
C1337 C1338 1.366 . S
C1337 C1339 1.388 . S
C1338 C1337 1.366 . S
C1338 C1342 1.385 . S
C1339 H1314 0.951 . S
C1339 C1337 1.388 . S
C1339 C1340 1.366 . S
C1340 C1339 1.366 . S
C1340 C1341 1.414 . S
C1340 C1343 1.499 . S
C1341 H1315 0.950 . S
C1341 C1340 1.414 . S
C1341 C1342 1.374 . S
C1342 H1316 0.950 . S
C1342 C1338 1.385 . S
C1342 C1341 1.374 . S
C1343 C1340 1.499 . S
C1343 C1344 1.373 . S
C1343 C1345 1.389 . S
C1344 H1317 0.950 . S
C1344 C1330 1.377 . S
C1344 C1343 1.373 . S
C1345 C1329 1.377 . S
C1345 C1343 1.389 . S
C1345 C1346 1.524 . S
C1346 C1345 1.524 . S
C1346 C1347 1.397 . S
C1346 C1351 1.363 . S
C1347 H1318 0.950 . S
C1347 C1346 1.397 . S
C1347 C1348 1.334 . S
C1348 H1319 0.950 . S
C1348 C1347 1.334 . S
C1348 C1349 1.287 . S
C1349 C1348 1.287 . S
C1349 C1350 1.524 . S
C1349 H1352 0.999 . S
C1350 H1320 0.950 . S
C1350 C1349 1.524 . S
C1350 C1351 1.415 . S
C1351 H1321 0.950 . S
C1351 C1346 1.363 . S
C1351 C1350 1.415 . S
H1352 C1349 0.999 . S
H1353 C1334 0.913 . S
H1354 C1372 0.951 . S
H1355 C1374 0.951 . S
H1356 C1376 0.950 . S
H1357 C1377 0.950 . S
H1358 C1379 0.950 . S
H1359 C1382 0.950 . S
H1360 C1383 0.950 . S
H1361 C1385 0.950 . S
H1362 C1386 0.950 . S
H1363 C1387 0.951 1_556 S
H1364 C1389 0.951 . S
H1365 C1391 0.950 . S
H1366 C1392 0.950 . S
H1367 C1394 0.950 . S
H1368 C1397 0.950 . S
H1369 C1398 0.950 . S
H1370 C1400 0.950 . S
H1371 C1401 0.950 . S
C1372 H1354 0.951 . S
C1372 C1373 1.366 . S
C1372 C1374 1.388 . S
C1373 C1372 1.366 . S
C1373 C1377 1.385 . S
C1374 H1355 0.951 . S
C1374 C1372 1.388 . S
C1374 C1375 1.366 . S
C1375 C1374 1.366 . S
C1375 C1376 1.414 . S
C1375 C1378 1.499 . S
C1376 H1356 0.950 . S
C1376 C1375 1.414 . S
C1376 C1377 1.374 . S
C1377 H1357 0.950 . S
C1377 C1373 1.385 . S
C1377 C1376 1.374 . S
C1378 C1375 1.499 . S
C1378 C1379 1.373 . S
C1378 C1380 1.389 . S
C1379 H1358 0.950 . S
C1379 C1378 1.373 . S
C1379 C1395 1.377 . S
C1380 C1378 1.389 . S
C1380 C1381 1.524 . S
C1380 C1394 1.377 . S
C1381 C1380 1.524 . S
C1381 C1382 1.397 . S
C1381 C1386 1.363 . S
C1382 H1359 0.950 . S
C1382 C1381 1.397 . S
C1382 C1383 1.334 . S
C1383 H1360 0.950 . S
C1383 C1382 1.334 . S
C1383 C1384 1.287 . S
C1384 C1383 1.287 . S
C1384 C1385 1.524 . S
C1384 H1403 0.913 . S
C1385 H1361 0.950 . S
C1385 C1384 1.524 . S
C1385 C1386 1.415 . S
C1386 H1362 0.950 . S
C1386 C1381 1.363 . S
C1386 C1385 1.415 . S
C1387 H1363 0.951 1_554 S
C1387 C1388 1.366 . S
C1387 C1389 1.388 . S
C1388 C1387 1.366 . S
C1388 C1392 1.385 . S
C1389 H1364 0.951 . S
C1389 C1387 1.388 . S
C1389 C1390 1.366 . S
C1390 C1389 1.366 . S
C1390 C1391 1.414 . S
C1390 C1393 1.499 . S
C1391 H1365 0.950 . S
C1391 C1390 1.414 . S
C1391 C1392 1.374 . S
C1392 H1366 0.950 . S
C1392 C1388 1.385 . S
C1392 C1391 1.374 . S
C1393 C1390 1.499 . S
C1393 C1394 1.373 . S
C1393 C1395 1.389 . S
C1394 H1367 0.950 . S
C1394 C1380 1.377 . S
C1394 C1393 1.373 . S
C1395 C1379 1.377 . S
C1395 C1393 1.389 . S
C1395 C1396 1.524 . S
C1396 C1395 1.524 . S
C1396 C1397 1.397 . S
C1396 C1401 1.363 . S
C1397 H1368 0.950 . S
C1397 C1396 1.397 . S
C1397 C1398 1.334 . S
C1398 H1369 0.950 . S
C1398 C1397 1.334 . S
C1398 C1399 1.287 . S
C1399 C1398 1.287 . S
C1399 C1400 1.524 . S
C1399 H1402 0.999 1_554 S
C1400 H1370 0.950 . S
C1400 C1399 1.524 . S
C1400 C1401 1.415 . S
C1401 H1371 0.950 . S
C1401 C1396 1.363 . S
C1401 C1400 1.415 . S
H1402 C1399 0.999 1_556 S
H1403 C1384 0.913 . S
H1404 C1422 0.951 . S
H1405 C1424 0.951 . S
H1406 C1426 0.950 . S
H1407 C1427 0.950 . S
H1408 C1429 0.940 . S
H1409 C1432 0.950 . S
H1410 C1433 0.950 . S
H1411 C1435 0.950 . S
H1412 C1436 0.950 . S
H1413 C1437 0.951 . S
H1414 C1439 0.951 . S
H1415 C1441 0.950 . S
H1416 C1442 0.950 . S
H1417 C1444 0.940 . S
H1418 C1447 0.950 . S
H1419 C1448 0.950 . S
H1420 C1450 0.950 . S
H1421 C1451 0.950 . S
C1422 H1404 0.951 . S
C1422 C1423 1.366 . S
C1422 C1424 1.388 . S
C1423 C1422 1.366 . S
C1423 C1427 1.385 . S
C1424 H1405 0.951 . S
C1424 C1422 1.388 . S
C1424 C1425 1.366 . S
C1425 C1424 1.366 . S
C1425 C1426 1.414 . S
C1425 C1428 1.499 . S
C1426 H1406 0.950 . S
C1426 C1425 1.414 . S
C1426 C1427 1.374 . S
C1427 H1407 0.950 . S
C1427 C1423 1.385 . S
C1427 C1426 1.374 . S
C1428 C1425 1.499 . S
C1428 C1429 1.377 . S
C1428 C1430 1.389 . S
C1429 H1408 0.940 . S
C1429 C1428 1.377 . S
C1429 C1445 1.355 1_566 S
C1430 C1428 1.389 . S
C1430 C1431 1.524 . S
C1430 C1444 1.356 1_566 S
C1431 C1430 1.524 . S
C1431 C1432 1.397 . S
C1431 C1436 1.363 1_556 S
C1432 H1409 0.950 . S
C1432 C1431 1.397 . S
C1432 C1433 1.334 . S
C1433 H1410 0.950 . S
C1433 C1432 1.334 . S
C1433 C1434 1.287 . S
C1434 C1433 1.287 . S
C1434 C1435 1.524 1_556 S
C1434 H1453 0.913 . S
C1435 H1411 0.950 . S
C1435 C1434 1.524 1_554 S
C1435 C1436 1.415 . S
C1436 H1412 0.950 . S
C1436 C1431 1.363 1_554 S
C1436 C1435 1.415 . S
C1437 H1413 0.951 . S
C1437 C1438 1.366 . S
C1437 C1439 1.388 . S
C1438 C1437 1.366 . S
C1438 C1442 1.385 . S
C1439 H1414 0.951 . S
C1439 C1437 1.388 . S
C1439 C1440 1.366 . S
C1440 C1439 1.366 . S
C1440 C1441 1.414 . S
C1440 C1443 1.499 . S
C1441 H1415 0.950 . S
C1441 C1440 1.414 . S
C1441 C1442 1.374 . S
C1442 H1416 0.950 . S
C1442 C1438 1.385 . S
C1442 C1441 1.374 . S
C1443 C1440 1.499 . S
C1443 C1444 1.377 . S
C1443 C1445 1.389 . S
C1444 H1417 0.940 . S
C1444 C1430 1.356 1_544 S
C1444 C1443 1.377 . S
C1445 C1429 1.355 1_544 S
C1445 C1443 1.389 . S
C1445 C1446 1.524 . S
C1446 C1445 1.524 . S
C1446 C1447 1.397 . S
C1446 C1451 1.363 1_554 S
C1447 H1418 0.950 . S
C1447 C1446 1.397 . S
C1447 C1448 1.334 . S
C1448 H1419 0.950 . S
C1448 C1447 1.334 . S
C1448 C1449 1.287 . S
C1449 C1448 1.287 . S
C1449 C1450 1.524 1_554 S
C1449 H1452 0.999 . S
C1450 H1420 0.950 . S
C1450 C1449 1.524 1_556 S
C1450 C1451 1.415 . S
C1451 H1421 0.950 . S
C1451 C1446 1.363 1_556 S
C1451 C1450 1.415 . S
H1452 C1449 0.999 . S
H1453 C1434 0.913 . S
H1454 C1472 0.951 . S
H1455 C1474 0.951 . S
H1456 C1476 0.950 . S
H1457 C1477 0.950 . S
H1458 C1479 0.950 . S
H1459 C1482 0.950 1_655 S
H1460 C1483 0.950 . S
H1461 C1485 0.950 . S
H1462 C1486 0.950 . S
H1463 C1487 0.951 . S
H1464 C1489 0.951 . S
H1465 C1491 0.950 . S
H1466 C1492 0.950 . S
H1467 C1494 0.950 . S
H1468 C1497 0.950 1_455 S
H1469 C1498 0.950 . S
H1470 C1500 0.950 . S
H1471 C1501 0.950 . S
C1472 H1454 0.951 . S
C1472 C1473 1.366 . S
C1472 C1474 1.388 . S
C1473 C1472 1.366 . S
C1473 C1477 1.385 . S
C1474 H1455 0.951 . S
C1474 C1472 1.388 . S
C1474 C1475 1.366 . S
C1475 C1474 1.366 . S
C1475 C1476 1.414 . S
C1475 C1478 1.499 . S
C1476 H1456 0.950 . S
C1476 C1475 1.414 . S
C1476 C1477 1.374 . S
C1477 H1457 0.950 . S
C1477 C1473 1.385 . S
C1477 C1476 1.374 . S
C1478 C1475 1.499 . S
C1478 C1479 1.373 1_554 S
C1478 C1480 1.389 1_655 S
C1479 H1458 0.950 . S
C1479 C1478 1.373 1_556 S
C1479 C1495 1.377 . S
C1480 C1478 1.389 1_455 S
C1480 C1481 1.524 . S
C1480 C1494 1.377 . S
C1481 C1480 1.524 . S
C1481 C1482 1.397 . S
C1481 C1486 1.363 . S
C1482 H1459 0.950 1_455 S
C1482 C1481 1.397 . S
C1482 C1483 1.334 . S
C1483 H1460 0.950 . S
C1483 C1482 1.334 . S
C1483 C1484 1.287 . S
C1484 C1483 1.287 . S
C1484 C1485 1.524 . S
C1484 H1503 0.913 . S
C1485 H1461 0.950 . S
C1485 C1484 1.524 . S
C1485 C1486 1.415 . S
C1486 H1462 0.950 . S
C1486 C1481 1.363 . S
C1486 C1485 1.415 . S
C1487 H1463 0.951 . S
C1487 C1488 1.366 . S
C1487 C1489 1.388 . S
C1488 C1487 1.366 . S
C1488 C1492 1.385 . S
C1489 H1464 0.951 . S
C1489 C1487 1.388 . S
C1489 C1490 1.366 . S
C1490 C1489 1.366 . S
C1490 C1491 1.414 . S
C1490 C1493 1.499 . S
C1491 H1465 0.950 . S
C1491 C1490 1.414 . S
C1491 C1492 1.374 . S
C1492 H1466 0.950 . S
C1492 C1488 1.385 . S
C1492 C1491 1.374 . S
C1493 C1490 1.499 . S
C1493 C1494 1.373 1_556 S
C1493 C1495 1.389 1_455 S
C1494 H1467 0.950 . S
C1494 C1480 1.377 . S
C1494 C1493 1.373 1_554 S
C1495 C1479 1.377 . S
C1495 C1493 1.389 1_655 S
C1495 C1496 1.524 . S
C1496 C1495 1.524 . S
C1496 C1497 1.397 . S
C1496 C1501 1.363 . S
C1497 H1468 0.950 1_655 S
C1497 C1496 1.397 . S
C1497 C1498 1.334 . S
C1498 H1469 0.950 . S
C1498 C1497 1.334 . S
C1498 C1499 1.287 . S
C1499 C1498 1.287 . S
C1499 C1500 1.524 . S
C1499 H1502 0.999 . S
C1500 H1470 0.950 . S
C1500 C1499 1.524 . S
C1500 C1501 1.415 . S
C1501 H1471 0.950 . S
C1501 C1496 1.363 . S
C1501 C1500 1.415 . S
H1502 C1499 0.999 . S
H1503 C1484 0.913 . S
H1504 C1522 0.951 . S
H1505 C1524 0.951 . S
H1506 C1526 0.950 . S
H1507 C1527 0.950 . S
H1508 C1529 0.950 . S
H1509 C1532 0.950 . S
H1510 C1533 0.950 . S
H1511 C1535 0.950 . S
H1512 C1536 0.950 . S
H1513 C1537 0.951 . S
H1514 C1539 0.951 . S
H1515 C1541 0.950 . S
H1516 C1542 0.950 . S
H1517 C1544 0.950 . S
H1518 C1547 0.950 . S
H1519 C1548 0.950 . S
H1520 C1550 0.950 . S
H1521 C1551 0.950 . S
C1522 H1504 0.951 . S
C1522 C1523 1.366 . S
C1522 C1524 1.388 . S
C1523 C1522 1.366 . S
C1523 C1527 1.385 . S
C1524 H1505 0.951 . S
C1524 C1522 1.388 . S
C1524 C1525 1.366 . S
C1525 C1524 1.366 . S
C1525 C1526 1.414 . S
C1525 C1528 1.499 . S
C1526 H1506 0.950 . S
C1526 C1525 1.414 . S
C1526 C1527 1.374 . S
C1527 H1507 0.950 . S
C1527 C1523 1.385 . S
C1527 C1526 1.374 . S
C1528 C1525 1.499 . S
C1528 C1529 1.373 1_556 S
C1528 C1530 1.389 . S
C1529 H1508 0.950 . S
C1529 C1528 1.373 1_554 S
C1529 C1545 1.377 . S
C1530 C1528 1.389 . S
C1530 C1531 1.524 . S
C1530 C1544 1.377 . S
C1531 C1530 1.524 . S
C1531 C1532 1.397 . S
C1531 C1536 1.363 . S
C1532 H1509 0.950 . S
C1532 C1531 1.397 . S
C1532 C1533 1.334 . S
C1533 H1510 0.950 . S
C1533 C1532 1.334 . S
C1533 C1534 1.287 . S
C1534 C1533 1.287 . S
C1534 C1535 1.524 . S
C1534 H1553 0.913 . S
C1535 H1511 0.950 . S
C1535 C1534 1.524 . S
C1535 C1536 1.415 . S
C1536 H1512 0.950 . S
C1536 C1531 1.363 . S
C1536 C1535 1.415 . S
C1537 H1513 0.951 . S
C1537 C1538 1.366 . S
C1537 C1539 1.388 . S
C1538 C1537 1.366 . S
C1538 C1542 1.385 . S
C1539 H1514 0.951 . S
C1539 C1537 1.388 . S
C1539 C1540 1.366 . S
C1540 C1539 1.366 . S
C1540 C1541 1.414 . S
C1540 C1543 1.499 . S
C1541 H1515 0.950 . S
C1541 C1540 1.414 . S
C1541 C1542 1.374 . S
C1542 H1516 0.950 . S
C1542 C1538 1.385 . S
C1542 C1541 1.374 . S
C1543 C1540 1.499 . S
C1543 C1544 1.373 1_554 S
C1543 C1545 1.389 . S
C1544 H1517 0.950 . S
C1544 C1530 1.377 . S
C1544 C1543 1.373 1_556 S
C1545 C1529 1.377 . S
C1545 C1543 1.389 . S
C1545 C1546 1.524 . S
C1546 C1545 1.524 . S
C1546 C1547 1.397 . S
C1546 C1551 1.363 . S
C1547 H1518 0.950 . S
C1547 C1546 1.397 . S
C1547 C1548 1.334 . S
C1548 H1519 0.950 . S
C1548 C1547 1.334 . S
C1548 C1549 1.287 . S
C1549 C1548 1.287 . S
C1549 C1550 1.524 . S
C1549 H1552 0.999 . S
C1550 H1520 0.950 . S
C1550 C1549 1.524 . S
C1550 C1551 1.415 . S
C1551 H1521 0.950 . S
C1551 C1546 1.363 . S
C1551 C1550 1.415 . S
H1552 C1549 0.999 . S
H1553 C1534 0.913 . S
H1554 C1572 0.951 . S
H1555 C1574 0.951 . S
H1556 C1576 0.950 . S
H1557 C1577 0.950 . S
H1558 C1579 0.952 . S
H1559 C1582 0.972 . S
H1560 C1583 0.950 1_565 S
H1561 C1585 0.950 . S
H1562 C1586 0.950 . S
H1563 C1587 0.951 . S
H1564 C1589 0.951 . S
H1565 C1591 0.950 . S
H1566 C1592 0.950 . S
H1567 C1594 0.952 . S
H1568 C1597 0.973 . S
H1569 C1598 0.950 1_545 S
H1570 C1600 0.950 . S
H1571 C1601 0.950 . S
C1572 H1554 0.951 . S
C1572 C1573 1.366 . S
C1572 C1574 1.388 . S
C1573 C1572 1.366 . S
C1573 C1577 1.385 . S
C1574 H1555 0.951 . S
C1574 C1572 1.388 . S
C1574 C1575 1.366 . S
C1575 C1574 1.366 . S
C1575 C1576 1.414 . S
C1575 C1578 1.499 . S
C1576 H1556 0.950 . S
C1576 C1575 1.414 . S
C1576 C1577 1.374 . S
C1577 H1557 0.950 . S
C1577 C1573 1.385 . S
C1577 C1576 1.374 . S
C1578 C1575 1.499 . S
C1578 C1579 1.353 1_556 S
C1578 C1580 1.389 1_565 S
C1579 H1558 0.952 . S
C1579 C1578 1.353 1_554 S
C1579 C1595 1.396 . S
C1580 C1578 1.389 1_545 S
C1580 C1581 1.524 . S
C1580 C1594 1.397 . S
C1581 C1580 1.524 . S
C1581 C1582 1.372 1_545 S
C1581 C1586 1.363 . S
C1582 H1559 0.972 . S
C1582 C1581 1.372 1_565 S
C1582 C1583 1.338 1_565 S
C1583 H1560 0.950 1_545 S
C1583 C1582 1.338 1_545 S
C1583 C1584 1.287 . S
C1584 C1583 1.287 . S
C1584 C1585 1.524 . S
C1584 H1603 0.913 . S
C1585 H1561 0.950 . S
C1585 C1584 1.524 . S
C1585 C1586 1.415 . S
C1586 H1562 0.950 . S
C1586 C1581 1.363 . S
C1586 C1585 1.415 . S
C1587 H1563 0.951 . S
C1587 C1588 1.366 . S
C1587 C1589 1.388 . S
C1588 C1587 1.366 . S
C1588 C1592 1.385 . S
C1589 H1564 0.951 . S
C1589 C1587 1.388 . S
C1589 C1590 1.366 . S
C1590 C1589 1.366 . S
C1590 C1591 1.414 . S
C1590 C1593 1.499 . S
C1591 H1565 0.950 . S
C1591 C1590 1.414 . S
C1591 C1592 1.374 . S
C1592 H1566 0.950 . S
C1592 C1588 1.385 . S
C1592 C1591 1.374 . S
C1593 C1590 1.499 . S
C1593 C1594 1.352 1_554 S
C1593 C1595 1.389 1_545 S
C1594 H1567 0.952 . S
C1594 C1580 1.397 . S
C1594 C1593 1.352 1_556 S
C1595 C1579 1.396 . S
C1595 C1593 1.389 1_565 S
C1595 C1596 1.524 . S
C1596 C1595 1.524 . S
C1596 C1597 1.371 1_565 S
C1596 C1601 1.363 . S
C1597 H1568 0.973 . S
C1597 C1596 1.371 1_545 S
C1597 C1598 1.338 1_545 S
C1598 H1569 0.950 1_565 S
C1598 C1597 1.338 1_565 S
C1598 C1599 1.287 . S
C1599 C1598 1.287 . S
C1599 C1600 1.524 . S
C1599 H1602 0.999 . S
C1600 H1570 0.950 . S
C1600 C1599 1.524 . S
C1600 C1601 1.415 . S
C1601 H1571 0.950 . S
C1601 C1596 1.363 . S
C1601 C1600 1.415 . S
H1602 C1599 0.999 . S
H1603 C1584 0.913 . S
H1604 C1622 0.951 . S
H1605 C1624 0.951 . S
H1606 C1626 0.950 . S
H1607 C1627 0.950 . S
H1608 C1629 0.950 . S
H1609 C1632 0.950 . S
H1610 C1633 0.950 . S
H1611 C1635 0.950 . S
H1612 C1636 0.950 . S
H1613 C1637 0.951 . S
H1614 C1639 0.951 . S
H1615 C1641 0.950 . S
H1616 C1642 0.950 . S
H1617 C1644 0.950 . S
H1618 C1647 0.950 . S
H1619 C1648 0.950 . S
H1620 C1650 0.950 . S
H1621 C1651 0.950 . S
C1622 H1604 0.951 . S
C1622 C1623 1.366 . S
C1622 C1624 1.388 . S
C1623 C1622 1.366 . S
C1623 C1627 1.385 . S
C1624 H1605 0.951 . S
C1624 C1622 1.388 . S
C1624 C1625 1.366 . S
C1625 C1624 1.366 . S
C1625 C1626 1.414 . S
C1625 C1628 1.499 . S
C1626 H1606 0.950 . S
C1626 C1625 1.414 . S
C1626 C1627 1.374 . S
C1627 H1607 0.950 . S
C1627 C1623 1.385 . S
C1627 C1626 1.374 . S
C1628 C1625 1.499 . S
C1628 C1629 1.373 . S
C1628 C1630 1.434 . S
C1629 H1608 0.950 . S
C1629 C1628 1.373 . S
C1629 C1645 1.351 1_456 S
C1630 C1628 1.434 . S
C1630 C1631 1.554 . S
C1630 C1644 1.351 1_456 S
C1631 C1630 1.554 . S
C1631 C1632 1.465 . S
C1631 C1636 1.252 1_455 S
C1632 H1609 0.950 . S
C1632 C1631 1.465 . S
C1632 C1633 1.334 . S
C1633 H1610 0.950 . S
C1633 C1632 1.334 . S
C1633 C1634 1.287 . S
C1634 C1633 1.287 . S
C1634 C1635 1.524 1_455 S
C1634 H1653 0.913 . S
C1635 H1611 0.950 . S
C1635 C1634 1.524 1_655 S
C1635 C1636 1.415 . S
C1636 H1612 0.950 . S
C1636 C1631 1.252 1_655 S
C1636 C1635 1.415 . S
C1637 H1613 0.951 . S
C1637 C1638 1.366 . S
C1637 C1639 1.388 . S
C1638 C1637 1.366 . S
C1638 C1642 1.385 . S
C1639 H1614 0.951 . S
C1639 C1637 1.388 . S
C1639 C1640 1.366 . S
C1640 C1639 1.366 . S
C1640 C1641 1.414 . S
C1640 C1643 1.499 . S
C1641 H1615 0.950 . S
C1641 C1640 1.414 . S
C1641 C1642 1.374 . S
C1642 H1616 0.950 . S
C1642 C1638 1.385 . S
C1642 C1641 1.374 . S
C1643 C1640 1.499 . S
C1643 C1644 1.373 . S
C1643 C1645 1.433 . S
C1644 H1617 0.950 . S
C1644 C1630 1.351 1_654 S
C1644 C1643 1.373 . S
C1645 C1629 1.351 1_654 S
C1645 C1643 1.433 . S
C1645 C1646 1.554 . S
C1646 C1645 1.554 . S
C1646 C1647 1.464 . S
C1646 C1651 1.254 1_655 S
C1647 H1618 0.950 . S
C1647 C1646 1.464 . S
C1647 C1648 1.334 . S
C1648 H1619 0.950 . S
C1648 C1647 1.334 . S
C1648 C1649 1.287 . S
C1649 C1648 1.287 . S
C1649 C1650 1.524 1_655 S
C1649 H1652 0.999 . S
C1650 H1620 0.950 . S
C1650 C1649 1.524 1_455 S
C1650 C1651 1.415 . S
C1651 H1621 0.950 . S
C1651 C1646 1.254 1_455 S
C1651 C1650 1.415 . S
H1652 C1649 0.999 . S
H1653 C1634 0.913 . S
H1654 C1672 0.951 . S
H1655 C1674 0.951 . S
H1656 C1676 0.950 . S
H1657 C1677 0.950 . S
H1658 C1679 0.950 . S
H1659 C1682 0.950 . S
H1660 C1683 0.950 . S
H1661 C1685 0.950 . S
H1662 C1686 0.950 . S
H1663 C1687 0.951 . S
H1664 C1689 0.951 . S
H1665 C1691 0.950 . S
H1666 C1692 0.950 . S
H1667 C1694 0.950 . S
H1668 C1697 0.950 . S
H1669 C1698 0.950 . S
H1670 C1700 0.950 . S
H1671 C1701 0.950 . S
C1672 H1654 0.951 . S
C1672 C1673 1.366 . S
C1672 C1674 1.388 . S
C1673 C1672 1.366 . S
C1673 C1677 1.385 . S
C1674 H1655 0.951 . S
C1674 C1672 1.388 . S
C1674 C1675 1.366 . S
C1675 C1674 1.366 . S
C1675 C1676 1.414 . S
C1675 C1678 1.499 . S
C1676 H1656 0.950 . S
C1676 C1675 1.414 . S
C1676 C1677 1.374 . S
C1677 H1657 0.950 . S
C1677 C1673 1.385 . S
C1677 C1676 1.374 . S
C1678 C1675 1.499 . S
C1678 C1679 1.373 . S
C1678 C1680 1.389 . S
C1679 H1658 0.950 . S
C1679 C1678 1.373 . S
C1679 C1695 1.377 1_554 S
C1680 C1678 1.389 . S
C1680 C1681 1.524 . S
C1680 C1694 1.377 1_554 S
C1681 C1680 1.524 . S
C1681 C1682 1.397 . S
C1681 C1686 1.363 . S
C1682 H1659 0.950 . S
C1682 C1681 1.397 . S
C1682 C1683 1.334 . S
C1683 H1660 0.950 . S
C1683 C1682 1.334 . S
C1683 C1684 1.287 . S
C1684 C1683 1.287 . S
C1684 C1685 1.524 . S
C1684 H1703 0.913 . S
C1685 H1661 0.950 . S
C1685 C1684 1.524 . S
C1685 C1686 1.415 . S
C1686 H1662 0.950 . S
C1686 C1681 1.363 . S
C1686 C1685 1.415 . S
C1687 H1663 0.951 . S
C1687 C1688 1.366 . S
C1687 C1689 1.388 . S
C1688 C1687 1.366 . S
C1688 C1692 1.385 . S
C1689 H1664 0.951 . S
C1689 C1687 1.388 . S
C1689 C1690 1.366 . S
C1690 C1689 1.366 . S
C1690 C1691 1.414 . S
C1690 C1693 1.499 . S
C1691 H1665 0.950 . S
C1691 C1690 1.414 . S
C1691 C1692 1.374 . S
C1692 H1666 0.950 . S
C1692 C1688 1.385 . S
C1692 C1691 1.374 . S
C1693 C1690 1.499 . S
C1693 C1694 1.373 . S
C1693 C1695 1.389 . S
C1694 H1667 0.950 . S
C1694 C1680 1.377 1_556 S
C1694 C1693 1.373 . S
C1695 C1679 1.377 1_556 S
C1695 C1693 1.389 . S
C1695 C1696 1.524 . S
C1696 C1695 1.524 . S
C1696 C1697 1.397 . S
C1696 C1701 1.363 . S
C1697 H1668 0.950 . S
C1697 C1696 1.397 . S
C1697 C1698 1.334 . S
C1698 H1669 0.950 . S
C1698 C1697 1.334 . S
C1698 C1699 1.287 . S
C1699 C1698 1.287 . S
C1699 C1700 1.524 . S
C1699 H1702 0.999 . S
C1700 H1670 0.950 . S
C1700 C1699 1.524 . S
C1700 C1701 1.415 . S
C1701 H1671 0.950 . S
C1701 C1696 1.363 . S
C1701 C1700 1.415 . S
H1702 C1699 0.999 . S
H1703 C1684 0.913 . S
H1704 C1722 0.951 . S
H1705 C1724 0.951 . S
H1706 C1726 0.950 . S
H1707 C1727 0.950 . S
H1708 C1729 0.950 . S
H1709 C1732 0.950 . S
H1710 C1733 0.950 . S
H1711 C1735 0.950 . S
H1712 C1736 0.950 . S
H1713 C1737 0.951 . S
H1714 C1739 0.951 . S
H1715 C1741 0.950 . S
H1716 C1742 0.950 . S
H1717 C1744 0.950 . S
H1718 C1747 0.950 . S
H1719 C1748 0.950 . S
H1720 C1750 0.950 . S
H1721 C1751 0.950 . S
C1722 H1704 0.951 . S
C1722 C1723 1.366 . S
C1722 C1724 1.388 . S
C1723 C1722 1.366 . S
C1723 C1727 1.385 . S
C1724 H1705 0.951 . S
C1724 C1722 1.388 . S
C1724 C1725 1.366 . S
C1725 C1724 1.366 . S
C1725 C1726 1.414 . S
C1725 C1728 1.499 . S
C1726 H1706 0.950 . S
C1726 C1725 1.414 . S
C1726 C1727 1.374 . S
C1727 H1707 0.950 . S
C1727 C1723 1.385 . S
C1727 C1726 1.374 . S
C1728 C1725 1.499 . S
C1728 C1729 1.373 . S
C1728 C1730 1.389 . S
C1729 H1708 0.950 . S
C1729 C1728 1.373 . S
C1729 C1745 1.377 . S
C1730 C1728 1.389 . S
C1730 C1731 1.524 . S
C1730 C1744 1.377 . S
C1731 C1730 1.524 . S
C1731 C1732 1.397 . S
C1731 C1736 1.363 . S
C1732 H1709 0.950 . S
C1732 C1731 1.397 . S
C1732 C1733 1.334 . S
C1733 H1710 0.950 . S
C1733 C1732 1.334 . S
C1733 C1734 1.287 . S
C1734 C1733 1.287 . S
C1734 C1735 1.524 . S
C1734 H1753 0.913 . S
C1735 H1711 0.950 . S
C1735 C1734 1.524 . S
C1735 C1736 1.415 . S
C1736 H1712 0.950 . S
C1736 C1731 1.363 . S
C1736 C1735 1.415 . S
C1737 H1713 0.951 . S
C1737 C1738 1.366 . S
C1737 C1739 1.388 . S
C1738 C1737 1.366 . S
C1738 C1742 1.385 . S
C1739 H1714 0.951 . S
C1739 C1737 1.388 . S
C1739 C1740 1.366 . S
C1740 C1739 1.366 . S
C1740 C1741 1.414 . S
C1740 C1743 1.499 . S
C1741 H1715 0.950 . S
C1741 C1740 1.414 . S
C1741 C1742 1.374 . S
C1742 H1716 0.950 . S
C1742 C1738 1.385 . S
C1742 C1741 1.374 . S
C1743 C1740 1.499 . S
C1743 C1744 1.373 . S
C1743 C1745 1.389 . S
C1744 H1717 0.950 . S
C1744 C1730 1.377 . S
C1744 C1743 1.373 . S
C1745 C1729 1.377 . S
C1745 C1743 1.389 . S
C1745 C1746 1.524 . S
C1746 C1745 1.524 . S
C1746 C1747 1.397 . S
C1746 C1751 1.363 . S
C1747 H1718 0.950 . S
C1747 C1746 1.397 . S
C1747 C1748 1.334 . S
C1748 H1719 0.950 . S
C1748 C1747 1.334 . S
C1748 C1749 1.287 . S
C1749 C1748 1.287 . S
C1749 C1750 1.524 . S
C1749 H1752 0.999 . S
C1750 H1720 0.950 . S
C1750 C1749 1.524 . S
C1750 C1751 1.415 . S
C1751 H1721 0.950 . S
C1751 C1746 1.363 . S
C1751 C1750 1.415 . S
H1752 C1749 0.999 . S
H1753 C1734 0.913 . S
H1754 C1772 0.951 . S
H1755 C1774 0.951 . S
H1756 C1776 0.950 . S
H1757 C1777 0.950 . S
H1758 C1779 0.950 . S
H1759 C1782 0.950 . S
H1760 C1783 0.950 . S
H1761 C1785 0.950 . S
H1762 C1786 0.950 . S
H1763 C1787 0.951 . S
H1764 C1789 0.951 . S
H1765 C1791 0.950 . S
H1766 C1792 0.950 . S
H1767 C1794 0.950 . S
H1768 C1797 0.950 . S
H1769 C1798 0.950 . S
H1770 C1800 0.950 . S
H1771 C1801 0.950 . S
C1772 H1754 0.951 . S
C1772 C1773 1.366 . S
C1772 C1774 1.388 . S
C1773 C1772 1.366 . S
C1773 C1777 1.385 . S
C1774 H1755 0.951 . S
C1774 C1772 1.388 . S
C1774 C1775 1.366 . S
C1775 C1774 1.366 . S
C1775 C1776 1.414 . S
C1775 C1778 1.499 . S
C1776 H1756 0.950 . S
C1776 C1775 1.414 . S
C1776 C1777 1.374 . S
C1777 H1757 0.950 . S
C1777 C1773 1.385 . S
C1777 C1776 1.374 . S
C1778 C1775 1.499 . S
C1778 C1779 1.373 . S
C1778 C1780 1.389 . S
C1779 H1758 0.950 . S
C1779 C1778 1.373 . S
C1779 C1795 1.377 . S
C1780 C1778 1.389 . S
C1780 C1781 1.524 . S
C1780 C1794 1.377 . S
C1781 C1780 1.524 . S
C1781 C1782 1.397 . S
C1781 C1786 1.363 . S
C1782 H1759 0.950 . S
C1782 C1781 1.397 . S
C1782 C1783 1.334 . S
C1783 H1760 0.950 . S
C1783 C1782 1.334 . S
C1783 C1784 1.287 . S
C1784 C1783 1.287 . S
C1784 C1785 1.524 . S
C1784 H1803 0.913 . S
C1785 H1761 0.950 . S
C1785 C1784 1.524 . S
C1785 C1786 1.415 . S
C1786 H1762 0.950 . S
C1786 C1781 1.363 . S
C1786 C1785 1.415 . S
C1787 H1763 0.951 . S
C1787 C1788 1.366 . S
C1787 C1789 1.388 . S
C1788 C1787 1.366 . S
C1788 C1792 1.385 . S
C1789 H1764 0.951 . S
C1789 C1787 1.388 . S
C1789 C1790 1.366 . S
C1790 C1789 1.366 . S
C1790 C1791 1.414 . S
C1790 C1793 1.499 . S
C1791 H1765 0.950 . S
C1791 C1790 1.414 . S
C1791 C1792 1.374 . S
C1792 H1766 0.950 . S
C1792 C1788 1.385 . S
C1792 C1791 1.374 . S
C1793 C1790 1.499 . S
C1793 C1794 1.373 . S
C1793 C1795 1.389 . S
C1794 H1767 0.950 . S
C1794 C1780 1.377 . S
C1794 C1793 1.373 . S
C1795 C1779 1.377 . S
C1795 C1793 1.389 . S
C1795 C1796 1.524 . S
C1796 C1795 1.524 . S
C1796 C1797 1.397 . S
C1796 C1801 1.363 . S
C1797 H1768 0.950 . S
C1797 C1796 1.397 . S
C1797 C1798 1.334 . S
C1798 H1769 0.950 . S
C1798 C1797 1.334 . S
C1798 C1799 1.287 . S
C1799 C1798 1.287 . S
C1799 C1800 1.524 . S
C1799 H1802 0.999 . S
C1800 H1770 0.950 . S
C1800 C1799 1.524 . S
C1800 C1801 1.415 . S
C1801 H1771 0.950 . S
C1801 C1796 1.363 . S
C1801 C1800 1.415 . S
H1802 C1799 0.999 . S
H1803 C1784 0.913 . S
H1804 C1822 0.951 . S
H1805 C1824 0.951 . S
H1806 C1826 0.950 . S
H1807 C1827 0.950 . S
H1808 C1829 0.950 . S
H1809 C1832 0.950 . S
H1810 C1833 0.950 . S
H1811 C1835 0.950 . S
H1812 C1836 0.950 . S
H1813 C1837 0.951 . S
H1814 C1839 0.951 . S
H1815 C1841 0.950 . S
H1816 C1842 0.950 . S
H1817 C1844 0.950 . S
H1818 C1847 0.950 . S
H1819 C1848 0.950 . S
H1820 C1850 0.950 . S
H1821 C1851 0.950 . S
C1822 H1804 0.951 . S
C1822 C1823 1.366 . S
C1822 C1824 1.388 . S
C1823 C1822 1.366 . S
C1823 C1827 1.385 . S
C1824 H1805 0.951 . S
C1824 C1822 1.388 . S
C1824 C1825 1.366 . S
C1825 C1824 1.366 . S
C1825 C1826 1.414 . S
C1825 C1828 1.499 . S
C1826 H1806 0.950 . S
C1826 C1825 1.414 . S
C1826 C1827 1.374 . S
C1827 H1807 0.950 . S
C1827 C1823 1.385 . S
C1827 C1826 1.374 . S
C1828 C1825 1.499 . S
C1828 C1829 1.373 . S
C1828 C1830 1.389 . S
C1829 H1808 0.950 . S
C1829 C1828 1.373 . S
C1829 C1845 1.377 . S
C1830 C1828 1.389 . S
C1830 C1831 1.524 . S
C1830 C1844 1.377 . S
C1831 C1830 1.524 . S
C1831 C1832 1.397 . S
C1831 C1836 1.363 . S
C1832 H1809 0.950 . S
C1832 C1831 1.397 . S
C1832 C1833 1.334 . S
C1833 H1810 0.950 . S
C1833 C1832 1.334 . S
C1833 C1834 1.287 . S
C1834 C1833 1.287 . S
C1834 C1835 1.524 . S
C1834 H1853 0.913 . S
C1835 H1811 0.950 . S
C1835 C1834 1.524 . S
C1835 C1836 1.415 . S
C1836 H1812 0.950 . S
C1836 C1831 1.363 . S
C1836 C1835 1.415 . S
C1837 H1813 0.951 . S
C1837 C1838 1.366 . S
C1837 C1839 1.388 . S
C1838 C1837 1.366 . S
C1838 C1842 1.385 . S
C1839 H1814 0.951 . S
C1839 C1837 1.388 . S
C1839 C1840 1.366 . S
C1840 C1839 1.366 . S
C1840 C1841 1.414 . S
C1840 C1843 1.499 . S
C1841 H1815 0.950 . S
C1841 C1840 1.414 . S
C1841 C1842 1.374 . S
C1842 H1816 0.950 . S
C1842 C1838 1.385 . S
C1842 C1841 1.374 . S
C1843 C1840 1.499 . S
C1843 C1844 1.373 . S
C1843 C1845 1.389 . S
C1844 H1817 0.950 . S
C1844 C1830 1.377 . S
C1844 C1843 1.373 . S
C1845 C1829 1.377 . S
C1845 C1843 1.389 . S
C1845 C1846 1.524 . S
C1846 C1845 1.524 . S
C1846 C1847 1.397 . S
C1846 C1851 1.363 . S
C1847 H1818 0.950 . S
C1847 C1846 1.397 . S
C1847 C1848 1.334 . S
C1848 H1819 0.950 . S
C1848 C1847 1.334 . S
C1848 C1849 1.287 . S
C1849 C1848 1.287 . S
C1849 C1850 1.524 . S
C1849 H1852 0.999 . S
C1850 H1820 0.950 . S
C1850 C1849 1.524 . S
C1850 C1851 1.415 . S
C1851 H1821 0.950 . S
C1851 C1846 1.363 . S
C1851 C1850 1.415 . S
H1852 C1849 0.999 . S
H1853 C1834 0.913 . S
H1854 C1872 0.951 . S
H1855 C1874 0.951 . S
H1856 C1876 0.950 . S
H1857 C1877 0.950 . S
H1858 C1879 0.950 . S
H1859 C1882 0.950 . S
H1860 C1883 0.950 . S
H1861 C1885 0.950 . S
H1862 C1886 0.950 . S
H1863 C1887 0.951 . S
H1864 C1889 0.951 . S
H1865 C1891 0.950 . S
H1866 C1892 0.950 . S
H1867 C1894 0.950 . S
H1868 C1897 0.950 . S
H1869 C1898 0.950 . S
H1870 C1900 0.950 . S
H1871 C1901 0.950 . S
C1872 H1854 0.951 . S
C1872 C1873 1.366 . S
C1872 C1874 1.388 . S
C1873 C1872 1.366 . S
C1873 C1877 1.385 . S
C1874 H1855 0.951 . S
C1874 C1872 1.388 . S
C1874 C1875 1.366 . S
C1875 C1874 1.366 . S
C1875 C1876 1.414 . S
C1875 C1878 1.499 . S
C1876 H1856 0.950 . S
C1876 C1875 1.414 . S
C1876 C1877 1.374 . S
C1877 H1857 0.950 . S
C1877 C1873 1.385 . S
C1877 C1876 1.374 . S
C1878 C1875 1.499 . S
C1878 C1879 1.373 . S
C1878 C1880 1.389 . S
C1879 H1858 0.950 . S
C1879 C1878 1.373 . S
C1879 C1895 1.377 . S
C1880 C1878 1.389 . S
C1880 C1881 1.524 . S
C1880 C1894 1.377 . S
C1881 C1880 1.524 . S
C1881 C1882 1.397 . S
C1881 C1886 1.363 . S
C1882 H1859 0.950 . S
C1882 C1881 1.397 . S
C1882 C1883 1.334 . S
C1883 H1860 0.950 . S
C1883 C1882 1.334 . S
C1883 C1884 1.287 . S
C1884 C1883 1.287 . S
C1884 C1885 1.524 . S
C1884 H1903 0.913 . S
C1885 H1861 0.950 . S
C1885 C1884 1.524 . S
C1885 C1886 1.415 . S
C1886 H1862 0.950 . S
C1886 C1881 1.363 . S
C1886 C1885 1.415 . S
C1887 H1863 0.951 . S
C1887 C1888 1.366 . S
C1887 C1889 1.388 . S
C1888 C1887 1.366 . S
C1888 C1892 1.385 . S
C1889 H1864 0.951 . S
C1889 C1887 1.388 . S
C1889 C1890 1.366 . S
C1890 C1889 1.366 . S
C1890 C1891 1.414 . S
C1890 C1893 1.499 . S
C1891 H1865 0.950 . S
C1891 C1890 1.414 . S
C1891 C1892 1.374 . S
C1892 H1866 0.950 . S
C1892 C1888 1.385 . S
C1892 C1891 1.374 . S
C1893 C1890 1.499 . S
C1893 C1894 1.373 . S
C1893 C1895 1.389 . S
C1894 H1867 0.950 . S
C1894 C1880 1.377 . S
C1894 C1893 1.373 . S
C1895 C1879 1.377 . S
C1895 C1893 1.389 . S
C1895 C1896 1.524 . S
C1896 C1895 1.524 . S
C1896 C1897 1.397 . S
C1896 C1901 1.363 . S
C1897 H1868 0.950 . S
C1897 C1896 1.397 . S
C1897 C1898 1.334 . S
C1898 H1869 0.950 . S
C1898 C1897 1.334 . S
C1898 C1899 1.287 . S
C1899 C1898 1.287 . S
C1899 C1900 1.524 . S
C1899 H1902 0.999 . S
C1900 H1870 0.950 . S
C1900 C1899 1.524 . S
C1900 C1901 1.415 . S
C1901 H1871 0.950 . S
C1901 C1896 1.363 . S
C1901 C1900 1.415 . S
H1902 C1899 0.999 . S
H1903 C1884 0.913 . S
H1904 C1922 0.951 . S
H1905 C1924 0.951 . S
H1906 C1926 0.950 . S
H1907 C1927 0.950 . S
H1908 C1929 0.950 . S
H1909 C1932 0.950 . S
H1910 C1933 0.950 . S
H1911 C1935 0.950 . S
H1912 C1936 0.950 . S
H1913 C1937 0.951 . S
H1914 C1939 0.951 . S
H1915 C1941 0.950 . S
H1916 C1942 0.950 . S
H1917 C1944 0.950 . S
H1918 C1947 0.950 . S
H1919 C1948 0.950 . S
H1920 C1950 0.950 . S
H1921 C1951 0.950 . S
C1922 H1904 0.951 . S
C1922 C1923 1.366 . S
C1922 C1924 1.388 . S
C1923 C1922 1.366 . S
C1923 C1927 1.385 . S
C1924 H1905 0.951 . S
C1924 C1922 1.388 . S
C1924 C1925 1.366 . S
C1925 C1924 1.366 . S
C1925 C1926 1.414 . S
C1925 C1928 1.499 . S
C1926 H1906 0.950 . S
C1926 C1925 1.414 . S
C1926 C1927 1.374 . S
C1927 H1907 0.950 . S
C1927 C1923 1.385 . S
C1927 C1926 1.374 . S
C1928 C1925 1.499 . S
C1928 C1929 1.373 . S
C1928 C1930 1.389 . S
C1929 H1908 0.950 . S
C1929 C1928 1.373 . S
C1929 C1945 1.377 . S
C1930 C1928 1.389 . S
C1930 C1931 1.524 . S
C1930 C1944 1.377 . S
C1931 C1930 1.524 . S
C1931 C1932 1.397 . S
C1931 C1936 1.363 . S
C1932 H1909 0.950 . S
C1932 C1931 1.397 . S
C1932 C1933 1.334 . S
C1933 H1910 0.950 . S
C1933 C1932 1.334 . S
C1933 C1934 1.287 . S
C1934 C1933 1.287 . S
C1934 C1935 1.524 . S
C1934 H1953 0.913 . S
C1935 H1911 0.950 . S
C1935 C1934 1.524 . S
C1935 C1936 1.415 . S
C1936 H1912 0.950 . S
C1936 C1931 1.363 . S
C1936 C1935 1.415 . S
C1937 H1913 0.951 . S
C1937 C1938 1.366 . S
C1937 C1939 1.388 . S
C1938 C1937 1.366 . S
C1938 C1942 1.385 . S
C1939 H1914 0.951 . S
C1939 C1937 1.388 . S
C1939 C1940 1.366 . S
C1940 C1939 1.366 . S
C1940 C1941 1.414 . S
C1940 C1943 1.499 . S
C1941 H1915 0.950 . S
C1941 C1940 1.414 . S
C1941 C1942 1.374 . S
C1942 H1916 0.950 . S
C1942 C1938 1.385 . S
C1942 C1941 1.374 . S
C1943 C1940 1.499 . S
C1943 C1944 1.373 . S
C1943 C1945 1.389 . S
C1944 H1917 0.950 . S
C1944 C1930 1.377 . S
C1944 C1943 1.373 . S
C1945 C1929 1.377 . S
C1945 C1943 1.389 . S
C1945 C1946 1.524 . S
C1946 C1945 1.524 . S
C1946 C1947 1.397 . S
C1946 C1951 1.363 . S
C1947 H1918 0.950 . S
C1947 C1946 1.397 . S
C1947 C1948 1.334 . S
C1948 H1919 0.950 . S
C1948 C1947 1.334 . S
C1948 C1949 1.287 . S
C1949 C1948 1.287 . S
C1949 C1950 1.524 . S
C1949 H1952 0.999 . S
C1950 H1920 0.950 . S
C1950 C1949 1.524 . S
C1950 C1951 1.415 . S
C1951 H1921 0.950 . S
C1951 C1946 1.363 . S
C1951 C1950 1.415 . S
H1952 C1949 0.999 . S
H1953 C1934 0.913 . S
H1954 C1972 0.951 . S
H1955 C1974 0.951 . S
H1956 C1976 0.950 . S
H1957 C1977 0.950 . S
H1958 C1979 0.950 . S
H1959 C1982 0.950 . S
H1960 C1983 0.950 . S
H1961 C1985 0.950 . S
H1962 C1986 0.950 . S
H1963 C1987 0.951 . S
H1964 C1989 0.951 . S
H1965 C1991 0.950 . S
H1966 C1992 0.950 . S
H1967 C1994 0.950 . S
H1968 C1997 0.950 . S
H1969 C1998 0.950 . S
H1970 C2000 0.950 . S
H1971 C2001 0.950 . S
C1972 H1954 0.951 . S
C1972 C1973 1.366 . S
C1972 C1974 1.388 . S
C1973 C1972 1.366 . S
C1973 C1977 1.385 . S
C1974 H1955 0.951 . S
C1974 C1972 1.388 . S
C1974 C1975 1.366 . S
C1975 C1974 1.366 . S
C1975 C1976 1.414 . S
C1975 C1978 1.499 . S
C1976 H1956 0.950 . S
C1976 C1975 1.414 . S
C1976 C1977 1.374 . S
C1977 H1957 0.950 . S
C1977 C1973 1.385 . S
C1977 C1976 1.374 . S
C1978 C1975 1.499 . S
C1978 C1979 1.373 . S
C1978 C1980 1.389 . S
C1979 H1958 0.950 . S
C1979 C1978 1.373 . S
C1979 C1995 1.377 . S
C1980 C1978 1.389 . S
C1980 C1981 1.524 . S
C1980 C1994 1.377 . S
C1981 C1980 1.524 . S
C1981 C1982 1.397 . S
C1981 C1986 1.363 . S
C1982 H1959 0.950 . S
C1982 C1981 1.397 . S
C1982 C1983 1.334 . S
C1983 H1960 0.950 . S
C1983 C1982 1.334 . S
C1983 C1984 1.287 . S
C1984 C1983 1.287 . S
C1984 C1985 1.524 . S
C1984 H2003 0.913 . S
C1985 H1961 0.950 . S
C1985 C1984 1.524 . S
C1985 C1986 1.415 . S
C1986 H1962 0.950 . S
C1986 C1981 1.363 . S
C1986 C1985 1.415 . S
C1987 H1963 0.951 . S
C1987 C1988 1.366 . S
C1987 C1989 1.388 . S
C1988 C1987 1.366 . S
C1988 C1992 1.385 . S
C1989 H1964 0.951 . S
C1989 C1987 1.388 . S
C1989 C1990 1.366 . S
C1990 C1989 1.366 . S
C1990 C1991 1.414 . S
C1990 C1993 1.499 . S
C1991 H1965 0.950 . S
C1991 C1990 1.414 . S
C1991 C1992 1.374 . S
C1992 H1966 0.950 . S
C1992 C1988 1.385 . S
C1992 C1991 1.374 . S
C1993 C1990 1.499 . S
C1993 C1994 1.373 . S
C1993 C1995 1.389 . S
C1994 H1967 0.950 . S
C1994 C1980 1.377 . S
C1994 C1993 1.373 . S
C1995 C1979 1.377 . S
C1995 C1993 1.389 . S
C1995 C1996 1.524 . S
C1996 C1995 1.524 . S
C1996 C1997 1.397 . S
C1996 C2001 1.363 . S
C1997 H1968 0.950 . S
C1997 C1996 1.397 . S
C1997 C1998 1.334 . S
C1998 H1969 0.950 . S
C1998 C1997 1.334 . S
C1998 C1999 1.287 . S
C1999 C1998 1.287 . S
C1999 C2000 1.524 . S
C1999 H2002 0.999 . S
C2000 H1970 0.950 . S
C2000 C1999 1.524 . S
C2000 C2001 1.415 . S
C2001 H1971 0.950 . S
C2001 C1996 1.363 . S
C2001 C2000 1.415 . S
H2002 C1999 0.999 . S
H2003 C1984 0.913 . S
H2004 C2022 0.951 . S
H2005 C2024 0.951 . S
H2006 C2026 0.950 . S
H2007 C2027 0.950 . S
H2008 C2029 0.950 . S
H2009 C2032 0.950 . S
H2010 C2033 0.950 . S
H2011 C2035 0.950 . S
H2012 C2036 0.950 . S
H2013 C2037 0.951 . S
H2014 C2039 0.951 . S
H2015 C2041 0.950 . S
H2016 C2042 0.950 . S
H2017 C2044 0.950 . S
H2018 C2047 0.950 . S
H2019 C2048 0.950 . S
H2020 C2050 0.950 . S
H2021 C2051 0.950 . S
C2022 H2004 0.951 . S
C2022 C2023 1.366 . S
C2022 C2024 1.388 . S
C2023 C2022 1.366 . S
C2023 C2027 1.385 . S
C2024 H2005 0.951 . S
C2024 C2022 1.388 . S
C2024 C2025 1.366 . S
C2025 C2024 1.366 . S
C2025 C2026 1.414 . S
C2025 C2028 1.499 . S
C2026 H2006 0.950 . S
C2026 C2025 1.414 . S
C2026 C2027 1.374 . S
C2027 H2007 0.950 . S
C2027 C2023 1.385 . S
C2027 C2026 1.374 . S
C2028 C2025 1.499 . S
C2028 C2029 1.373 . S
C2028 C2030 1.389 . S
C2029 H2008 0.950 . S
C2029 C2028 1.373 . S
C2029 C2045 1.377 . S
C2030 C2028 1.389 . S
C2030 C2031 1.524 . S
C2030 C2044 1.377 . S
C2031 C2030 1.524 . S
C2031 C2032 1.397 . S
C2031 C2036 1.363 . S
C2032 H2009 0.950 . S
C2032 C2031 1.397 . S
C2032 C2033 1.334 . S
C2033 H2010 0.950 . S
C2033 C2032 1.334 . S
C2033 C2034 1.287 . S
C2034 C2033 1.287 . S
C2034 C2035 1.524 . S
C2034 H2053 0.913 . S
C2035 H2011 0.950 . S
C2035 C2034 1.524 . S
C2035 C2036 1.415 . S
C2036 H2012 0.950 . S
C2036 C2031 1.363 . S
C2036 C2035 1.415 . S
C2037 H2013 0.951 . S
C2037 C2038 1.366 . S
C2037 C2039 1.388 . S
C2038 C2037 1.366 . S
C2038 C2042 1.385 . S
C2039 H2014 0.951 . S
C2039 C2037 1.388 . S
C2039 C2040 1.366 . S
C2040 C2039 1.366 . S
C2040 C2041 1.414 . S
C2040 C2043 1.499 . S
C2041 H2015 0.950 . S
C2041 C2040 1.414 . S
C2041 C2042 1.374 . S
C2042 H2016 0.950 . S
C2042 C2038 1.385 . S
C2042 C2041 1.374 . S
C2043 C2040 1.499 . S
C2043 C2044 1.373 . S
C2043 C2045 1.389 . S
C2044 H2017 0.950 . S
C2044 C2030 1.377 . S
C2044 C2043 1.373 . S
C2045 C2029 1.377 . S
C2045 C2043 1.389 . S
C2045 C2046 1.524 . S
C2046 C2045 1.524 . S
C2046 C2047 1.397 . S
C2046 C2051 1.363 . S
C2047 H2018 0.950 . S
C2047 C2046 1.397 . S
C2047 C2048 1.334 . S
C2048 H2019 0.950 . S
C2048 C2047 1.334 . S
C2048 C2049 1.287 . S
C2049 C2048 1.287 . S
C2049 C2050 1.524 . S
C2049 H2052 0.999 . S
C2050 H2020 0.950 . S
C2050 C2049 1.524 . S
C2050 C2051 1.415 . S
C2051 H2021 0.950 . S
C2051 C2046 1.363 . S
C2051 C2050 1.415 . S
H2052 C2049 0.999 . S
H2053 C2034 0.913 . S
H2054 C2072 0.951 . S
H2055 C2074 0.951 . S
H2056 C2076 0.950 . S
H2057 C2077 0.950 . S
H2058 C2079 0.950 . S
H2059 C2082 0.950 . S
H2060 C2083 0.950 . S
H2061 C2085 0.950 . S
H2062 C2086 0.950 . S
H2063 C2087 0.951 . S
H2064 C2089 0.951 . S
H2065 C2091 0.950 . S
H2066 C2092 0.950 . S
H2067 C2094 0.950 . S
H2068 C2097 0.950 . S
H2069 C2098 0.950 . S
H2070 C2100 0.950 . S
H2071 C2101 0.950 . S
C2072 H2054 0.951 . S
C2072 C2073 1.366 . S
C2072 C2074 1.388 . S
C2073 C2072 1.366 . S
C2073 C2077 1.385 . S
C2074 H2055 0.951 . S
C2074 C2072 1.388 . S
C2074 C2075 1.366 . S
C2075 C2074 1.366 . S
C2075 C2076 1.414 . S
C2075 C2078 1.499 . S
C2076 H2056 0.950 . S
C2076 C2075 1.414 . S
C2076 C2077 1.374 . S
C2077 H2057 0.950 . S
C2077 C2073 1.385 . S
C2077 C2076 1.374 . S
C2078 C2075 1.499 . S
C2078 C2079 1.373 . S
C2078 C2080 1.389 . S
C2079 H2058 0.950 . S
C2079 C2078 1.373 . S
C2079 C2095 1.377 . S
C2080 C2078 1.389 . S
C2080 C2081 1.524 . S
C2080 C2094 1.377 . S
C2081 C2080 1.524 . S
C2081 C2082 1.397 . S
C2081 C2086 1.363 . S
C2082 H2059 0.950 . S
C2082 C2081 1.397 . S
C2082 C2083 1.334 . S
C2083 H2060 0.950 . S
C2083 C2082 1.334 . S
C2083 C2084 1.287 . S
C2084 C2083 1.287 . S
C2084 C2085 1.524 . S
C2084 H2103 0.913 . S
C2085 H2061 0.950 . S
C2085 C2084 1.524 . S
C2085 C2086 1.415 . S
C2086 H2062 0.950 . S
C2086 C2081 1.363 . S
C2086 C2085 1.415 . S
C2087 H2063 0.951 . S
C2087 C2088 1.366 . S
C2087 C2089 1.388 . S
C2088 C2087 1.366 . S
C2088 C2092 1.385 . S
C2089 H2064 0.951 . S
C2089 C2087 1.388 . S
C2089 C2090 1.366 . S
C2090 C2089 1.366 . S
C2090 C2091 1.414 . S
C2090 C2093 1.499 . S
C2091 H2065 0.950 . S
C2091 C2090 1.414 . S
C2091 C2092 1.374 . S
C2092 H2066 0.950 . S
C2092 C2088 1.385 . S
C2092 C2091 1.374 . S
C2093 C2090 1.499 . S
C2093 C2094 1.373 . S
C2093 C2095 1.389 . S
C2094 H2067 0.950 . S
C2094 C2080 1.377 . S
C2094 C2093 1.373 . S
C2095 C2079 1.377 . S
C2095 C2093 1.389 . S
C2095 C2096 1.524 . S
C2096 C2095 1.524 . S
C2096 C2097 1.397 . S
C2096 C2101 1.363 . S
C2097 H2068 0.950 . S
C2097 C2096 1.397 . S
C2097 C2098 1.334 . S
C2098 H2069 0.950 . S
C2098 C2097 1.334 . S
C2098 C2099 1.287 . S
C2099 C2098 1.287 . S
C2099 C2100 1.524 . S
C2099 H2102 0.999 . S
C2100 H2070 0.950 . S
C2100 C2099 1.524 . S
C2100 C2101 1.415 . S
C2101 H2071 0.950 . S
C2101 C2096 1.363 . S
C2101 C2100 1.415 . S
H2102 C2099 0.999 . S
H2103 C2084 0.913 . S
H2104 C2122 0.951 . S
H2105 C2124 0.951 . S
H2106 C2126 0.950 . S
H2107 C2127 0.950 . S
H2108 C2129 0.950 . S
H2109 C2132 0.950 . S
H2110 C2133 0.950 . S
H2111 C2135 0.950 . S
H2112 C2136 0.950 . S
H2113 C2137 0.951 . S
H2114 C2139 0.951 . S
H2115 C2141 0.950 . S
H2116 C2142 0.950 . S
H2117 C2144 0.950 . S
H2118 C2147 0.950 . S
H2119 C2148 0.950 . S
H2120 C2150 0.950 . S
H2121 C2151 0.950 . S
C2122 H2104 0.951 . S
C2122 C2123 1.366 . S
C2122 C2124 1.388 . S
C2123 C2122 1.366 . S
C2123 C2127 1.385 . S
C2124 H2105 0.951 . S
C2124 C2122 1.388 . S
C2124 C2125 1.366 . S
C2125 C2124 1.366 . S
C2125 C2126 1.414 . S
C2125 C2128 1.499 . S
C2126 H2106 0.950 . S
C2126 C2125 1.414 . S
C2126 C2127 1.374 . S
C2127 H2107 0.950 . S
C2127 C2123 1.385 . S
C2127 C2126 1.374 . S
C2128 C2125 1.499 . S
C2128 C2129 1.373 . S
C2128 C2130 1.389 . S
C2129 H2108 0.950 . S
C2129 C2128 1.373 . S
C2129 C2145 1.377 . S
C2130 C2128 1.389 . S
C2130 C2131 1.524 . S
C2130 C2144 1.377 . S
C2131 C2130 1.524 . S
C2131 C2132 1.397 . S
C2131 C2136 1.363 . S
C2132 H2109 0.950 . S
C2132 C2131 1.397 . S
C2132 C2133 1.334 . S
C2133 H2110 0.950 . S
C2133 C2132 1.334 . S
C2133 C2134 1.287 . S
C2134 C2133 1.287 . S
C2134 C2135 1.524 . S
C2134 H2153 0.913 . S
C2135 H2111 0.950 . S
C2135 C2134 1.524 . S
C2135 C2136 1.415 . S
C2136 H2112 0.950 . S
C2136 C2131 1.363 . S
C2136 C2135 1.415 . S
C2137 H2113 0.951 . S
C2137 C2138 1.366 . S
C2137 C2139 1.388 . S
C2138 C2137 1.366 . S
C2138 C2142 1.385 . S
C2139 H2114 0.951 . S
C2139 C2137 1.388 . S
C2139 C2140 1.366 . S
C2140 C2139 1.366 . S
C2140 C2141 1.414 . S
C2140 C2143 1.499 . S
C2141 H2115 0.950 . S
C2141 C2140 1.414 . S
C2141 C2142 1.374 . S
C2142 H2116 0.950 . S
C2142 C2138 1.385 . S
C2142 C2141 1.374 . S
C2143 C2140 1.499 . S
C2143 C2144 1.373 . S
C2143 C2145 1.389 . S
C2144 H2117 0.950 . S
C2144 C2130 1.377 . S
C2144 C2143 1.373 . S
C2145 C2129 1.377 . S
C2145 C2143 1.389 . S
C2145 C2146 1.524 . S
C2146 C2145 1.524 . S
C2146 C2147 1.397 . S
C2146 C2151 1.363 . S
C2147 H2118 0.950 . S
C2147 C2146 1.397 . S
C2147 C2148 1.334 . S
C2148 H2119 0.950 . S
C2148 C2147 1.334 . S
C2148 C2149 1.287 . S
C2149 C2148 1.287 . S
C2149 C2150 1.524 . S
C2149 H2152 0.999 . S
C2150 H2120 0.950 . S
C2150 C2149 1.524 . S
C2150 C2151 1.415 . S
C2151 H2121 0.950 . S
C2151 C2146 1.363 . S
C2151 C2150 1.415 . S
H2152 C2149 0.999 . S
H2153 C2134 0.913 . S
H2154 C2172 0.951 . S
H2155 C2174 0.951 . S
H2156 C2176 0.950 . S
H2157 C2177 0.950 . S
H2158 C2179 0.950 . S
H2159 C2182 0.950 . S
H2160 C2183 0.950 . S
H2161 C2185 0.950 . S
H2162 C2186 0.950 . S
H2163 C2187 0.951 . S
H2164 C2189 0.951 . S
H2165 C2191 0.950 . S
H2166 C2192 0.950 . S
H2167 C2194 0.950 . S
H2168 C2197 0.950 . S
H2169 C2198 0.950 . S
H2170 C2200 0.950 . S
H2171 C2201 0.950 . S
C2172 H2154 0.951 . S
C2172 C2173 1.366 . S
C2172 C2174 1.388 . S
C2173 C2172 1.366 . S
C2173 C2177 1.385 . S
C2174 H2155 0.951 . S
C2174 C2172 1.388 . S
C2174 C2175 1.366 . S
C2175 C2174 1.366 . S
C2175 C2176 1.414 . S
C2175 C2178 1.499 . S
C2176 H2156 0.950 . S
C2176 C2175 1.414 . S
C2176 C2177 1.374 . S
C2177 H2157 0.950 . S
C2177 C2173 1.385 . S
C2177 C2176 1.374 . S
C2178 C2175 1.499 . S
C2178 C2179 1.373 . S
C2178 C2180 1.389 . S
C2179 H2158 0.950 . S
C2179 C2178 1.373 . S
C2179 C2195 1.377 . S
C2180 C2178 1.389 . S
C2180 C2181 1.524 . S
C2180 C2194 1.377 . S
C2181 C2180 1.524 . S
C2181 C2182 1.397 . S
C2181 C2186 1.363 . S
C2182 H2159 0.950 . S
C2182 C2181 1.397 . S
C2182 C2183 1.334 . S
C2183 H2160 0.950 . S
C2183 C2182 1.334 . S
C2183 C2184 1.287 . S
C2184 C2183 1.287 . S
C2184 C2185 1.524 . S
C2184 H2203 0.913 . S
C2185 H2161 0.950 . S
C2185 C2184 1.524 . S
C2185 C2186 1.415 . S
C2186 H2162 0.950 . S
C2186 C2181 1.363 . S
C2186 C2185 1.415 . S
C2187 H2163 0.951 . S
C2187 C2188 1.366 . S
C2187 C2189 1.388 . S
C2188 C2187 1.366 . S
C2188 C2192 1.385 . S
C2189 H2164 0.951 . S
C2189 C2187 1.388 . S
C2189 C2190 1.366 . S
C2190 C2189 1.366 . S
C2190 C2191 1.414 . S
C2190 C2193 1.499 . S
C2191 H2165 0.950 . S
C2191 C2190 1.414 . S
C2191 C2192 1.374 . S
C2192 H2166 0.950 . S
C2192 C2188 1.385 . S
C2192 C2191 1.374 . S
C2193 C2190 1.499 . S
C2193 C2194 1.373 . S
C2193 C2195 1.389 . S
C2194 H2167 0.950 . S
C2194 C2180 1.377 . S
C2194 C2193 1.373 . S
C2195 C2179 1.377 . S
C2195 C2193 1.389 . S
C2195 C2196 1.524 . S
C2196 C2195 1.524 . S
C2196 C2197 1.397 . S
C2196 C2201 1.363 . S
C2197 H2168 0.950 . S
C2197 C2196 1.397 . S
C2197 C2198 1.334 . S
C2198 H2169 0.950 . S
C2198 C2197 1.334 . S
C2198 C2199 1.287 . S
C2199 C2198 1.287 . S
C2199 C2200 1.524 . S
C2199 H2202 0.999 . S
C2200 H2170 0.950 . S
C2200 C2199 1.524 . S
C2200 C2201 1.415 . S
C2201 H2171 0.950 . S
C2201 C2196 1.363 . S
C2201 C2200 1.415 . S
H2202 C2199 0.999 . S
H2203 C2184 0.913 . S
H2204 C2222 0.951 . S
H2205 C2224 0.951 . S
H2206 C2226 0.950 . S
H2207 C2227 0.950 . S
H2208 C2229 0.950 . S
H2209 C2232 0.950 . S
H2210 C2233 0.950 . S
H2211 C2235 0.950 . S
H2212 C2236 0.950 . S
H2213 C2237 0.951 . S
H2214 C2239 0.951 . S
H2215 C2241 0.950 . S
H2216 C2242 0.950 . S
H2217 C2244 0.950 . S
H2218 C2247 0.950 . S
H2219 C2248 0.950 . S
H2220 C2250 0.950 . S
H2221 C2251 0.950 . S
C2222 H2204 0.951 . S
C2222 C2223 1.366 . S
C2222 C2224 1.388 . S
C2223 C2222 1.366 . S
C2223 C2227 1.385 . S
C2224 H2205 0.951 . S
C2224 C2222 1.388 . S
C2224 C2225 1.366 . S
C2225 C2224 1.366 . S
C2225 C2226 1.414 . S
C2225 C2228 1.499 . S
C2226 H2206 0.950 . S
C2226 C2225 1.414 . S
C2226 C2227 1.374 . S
C2227 H2207 0.950 . S
C2227 C2223 1.385 . S
C2227 C2226 1.374 . S
C2228 C2225 1.499 . S
C2228 C2229 1.373 . S
C2228 C2230 1.389 . S
C2229 H2208 0.950 . S
C2229 C2228 1.373 . S
C2229 C2245 1.377 . S
C2230 C2228 1.389 . S
C2230 C2231 1.524 . S
C2230 C2244 1.377 . S
C2231 C2230 1.524 . S
C2231 C2232 1.397 . S
C2231 C2236 1.363 . S
C2232 H2209 0.950 . S
C2232 C2231 1.397 . S
C2232 C2233 1.334 . S
C2233 H2210 0.950 . S
C2233 C2232 1.334 . S
C2233 C2234 1.287 . S
C2234 C2233 1.287 . S
C2234 C2235 1.524 . S
C2234 H2253 0.913 . S
C2235 H2211 0.950 . S
C2235 C2234 1.524 . S
C2235 C2236 1.415 . S
C2236 H2212 0.950 . S
C2236 C2231 1.363 . S
C2236 C2235 1.415 . S
C2237 H2213 0.951 . S
C2237 C2238 1.366 . S
C2237 C2239 1.388 . S
C2238 C2237 1.366 . S
C2238 C2242 1.385 . S
C2239 H2214 0.951 . S
C2239 C2237 1.388 . S
C2239 C2240 1.366 . S
C2240 C2239 1.366 . S
C2240 C2241 1.414 . S
C2240 C2243 1.499 . S
C2241 H2215 0.950 . S
C2241 C2240 1.414 . S
C2241 C2242 1.374 . S
C2242 H2216 0.950 . S
C2242 C2238 1.385 . S
C2242 C2241 1.374 . S
C2243 C2240 1.499 . S
C2243 C2244 1.373 . S
C2243 C2245 1.389 . S
C2244 H2217 0.950 . S
C2244 C2230 1.377 . S
C2244 C2243 1.373 . S
C2245 C2229 1.377 . S
C2245 C2243 1.389 . S
C2245 C2246 1.524 . S
C2246 C2245 1.524 . S
C2246 C2247 1.397 . S
C2246 C2251 1.363 . S
C2247 H2218 0.950 . S
C2247 C2246 1.397 . S
C2247 C2248 1.334 . S
C2248 H2219 0.950 . S
C2248 C2247 1.334 . S
C2248 C2249 1.287 . S
C2249 C2248 1.287 . S
C2249 C2250 1.524 . S
C2249 H2252 0.999 . S
C2250 H2220 0.950 . S
C2250 C2249 1.524 . S
C2250 C2251 1.415 . S
C2251 H2221 0.950 . S
C2251 C2246 1.363 . S
C2251 C2250 1.415 . S
H2252 C2249 0.999 . S
H2253 C2234 0.913 . S
H2254 C2272 0.951 . S
H2255 C2274 0.951 . S
H2256 C2276 0.950 . S
H2257 C2277 0.950 . S
H2258 C2279 0.950 . S
H2259 C2282 0.950 . S
H2260 C2283 0.950 . S
H2261 C2285 0.950 . S
H2262 C2286 0.950 . S
H2263 C2287 0.951 . S
H2264 C2289 0.951 . S
H2265 C2291 0.950 . S
H2266 C2292 0.950 . S
H2267 C2294 0.950 . S
H2268 C2297 0.950 . S
H2269 C2298 0.950 . S
H2270 C2300 0.950 . S
H2271 C2301 0.950 . S
C2272 H2254 0.951 . S
C2272 C2273 1.366 . S
C2272 C2274 1.388 . S
C2273 C2272 1.366 . S
C2273 C2277 1.385 . S
C2274 H2255 0.951 . S
C2274 C2272 1.388 . S
C2274 C2275 1.366 . S
C2275 C2274 1.366 . S
C2275 C2276 1.414 . S
C2275 C2278 1.499 . S
C2276 H2256 0.950 . S
C2276 C2275 1.414 . S
C2276 C2277 1.374 . S
C2277 H2257 0.950 . S
C2277 C2273 1.385 . S
C2277 C2276 1.374 . S
C2278 C2275 1.499 . S
C2278 C2279 1.373 . S
C2278 C2280 1.389 . S
C2279 H2258 0.950 . S
C2279 C2278 1.373 . S
C2279 C2295 1.377 . S
C2280 C2278 1.389 . S
C2280 C2281 1.524 . S
C2280 C2294 1.377 . S
C2281 C2280 1.524 . S
C2281 C2282 1.397 . S
C2281 C2286 1.363 . S
C2282 H2259 0.950 . S
C2282 C2281 1.397 . S
C2282 C2283 1.334 . S
C2283 H2260 0.950 . S
C2283 C2282 1.334 . S
C2283 C2284 1.287 . S
C2284 C2283 1.287 . S
C2284 C2285 1.524 . S
C2284 H2303 0.913 . S
C2285 H2261 0.950 . S
C2285 C2284 1.524 . S
C2285 C2286 1.415 . S
C2286 H2262 0.950 . S
C2286 C2281 1.363 . S
C2286 C2285 1.415 . S
C2287 H2263 0.951 . S
C2287 C2288 1.366 . S
C2287 C2289 1.388 . S
C2288 C2287 1.366 . S
C2288 C2292 1.385 . S
C2289 H2264 0.951 . S
C2289 C2287 1.388 . S
C2289 C2290 1.366 . S
C2290 C2289 1.366 . S
C2290 C2291 1.414 . S
C2290 C2293 1.499 . S
C2291 H2265 0.950 . S
C2291 C2290 1.414 . S
C2291 C2292 1.374 . S
C2292 H2266 0.950 . S
C2292 C2288 1.385 . S
C2292 C2291 1.374 . S
C2293 C2290 1.499 . S
C2293 C2294 1.373 . S
C2293 C2295 1.389 . S
C2294 H2267 0.950 . S
C2294 C2280 1.377 . S
C2294 C2293 1.373 . S
C2295 C2279 1.377 . S
C2295 C2293 1.389 . S
C2295 C2296 1.524 . S
C2296 C2295 1.524 . S
C2296 C2297 1.397 . S
C2296 C2301 1.363 . S
C2297 H2268 0.950 . S
C2297 C2296 1.397 . S
C2297 C2298 1.334 . S
C2298 H2269 0.950 . S
C2298 C2297 1.334 . S
C2298 C2299 1.287 . S
C2299 C2298 1.287 . S
C2299 C2300 1.524 . S
C2299 H2302 0.999 . S
C2300 H2270 0.950 . S
C2300 C2299 1.524 . S
C2300 C2301 1.415 . S
C2301 H2271 0.950 . S
C2301 C2296 1.363 . S
C2301 C2300 1.415 . S
H2302 C2299 0.999 . S
H2303 C2284 0.913 . S
H2304 C2322 0.951 . S
H2305 C2324 0.951 . S
H2306 C2326 0.950 . S
H2307 C2327 0.950 . S
H2308 C2329 0.950 . S
H2309 C2332 0.950 . S
H2310 C2333 0.950 1_556 S
H2311 C2335 0.950 . S
H2312 C2336 0.950 . S
H2313 C2337 0.951 . S
H2314 C2339 0.951 . S
H2315 C2341 0.950 . S
H2316 C2342 0.950 . S
H2317 C2344 0.950 . S
H2318 C2347 0.950 . S
H2319 C2348 0.950 . S
H2320 C2350 0.950 . S
H2321 C2351 0.950 . S
C2322 H2304 0.951 . S
C2322 C2323 1.366 . S
C2322 C2324 1.388 . S
C2323 C2322 1.366 . S
C2323 C2327 1.385 . S
C2324 H2305 0.951 . S
C2324 C2322 1.388 . S
C2324 C2325 1.366 . S
C2325 C2324 1.366 . S
C2325 C2326 1.414 . S
C2325 C2328 1.499 . S
C2326 H2306 0.950 . S
C2326 C2325 1.414 . S
C2326 C2327 1.374 . S
C2327 H2307 0.950 . S
C2327 C2323 1.385 . S
C2327 C2326 1.374 . S
C2328 C2325 1.499 . S
C2328 C2329 1.373 . S
C2328 C2330 1.389 . S
C2329 H2308 0.950 . S
C2329 C2328 1.373 . S
C2329 C2345 1.377 . S
C2330 C2328 1.389 . S
C2330 C2331 1.524 . S
C2330 C2344 1.377 . S
C2331 C2330 1.524 . S
C2331 C2332 1.397 . S
C2331 C2336 1.363 . S
C2332 H2309 0.950 . S
C2332 C2331 1.397 . S
C2332 C2333 1.334 . S
C2333 H2310 0.950 1_554 S
C2333 C2332 1.334 . S
C2333 C2334 1.287 . S
C2334 C2333 1.287 . S
C2334 C2335 1.524 . S
C2334 H2353 0.913 1_554 S
C2335 H2311 0.950 . S
C2335 C2334 1.524 . S
C2335 C2336 1.415 . S
C2336 H2312 0.950 . S
C2336 C2331 1.363 . S
C2336 C2335 1.415 . S
C2337 H2313 0.951 . S
C2337 C2338 1.366 . S
C2337 C2339 1.388 . S
C2338 C2337 1.366 . S
C2338 C2342 1.385 . S
C2339 H2314 0.951 . S
C2339 C2337 1.388 . S
C2339 C2340 1.366 . S
C2340 C2339 1.366 . S
C2340 C2341 1.414 . S
C2340 C2343 1.499 . S
C2341 H2315 0.950 . S
C2341 C2340 1.414 . S
C2341 C2342 1.374 . S
C2342 H2316 0.950 . S
C2342 C2338 1.385 . S
C2342 C2341 1.374 . S
C2343 C2340 1.499 . S
C2343 C2344 1.373 . S
C2343 C2345 1.389 . S
C2344 H2317 0.950 . S
C2344 C2330 1.377 . S
C2344 C2343 1.373 . S
C2345 C2329 1.377 . S
C2345 C2343 1.389 . S
C2345 C2346 1.524 . S
C2346 C2345 1.524 . S
C2346 C2347 1.397 . S
C2346 C2351 1.363 . S
C2347 H2318 0.950 . S
C2347 C2346 1.397 . S
C2347 C2348 1.334 . S
C2348 H2319 0.950 . S
C2348 C2347 1.334 . S
C2348 C2349 1.287 . S
C2349 C2348 1.287 . S
C2349 C2350 1.524 . S
C2349 H2352 0.999 . S
C2350 H2320 0.950 . S
C2350 C2349 1.524 . S
C2350 C2351 1.415 . S
C2351 H2321 0.950 . S
C2351 C2346 1.363 . S
C2351 C2350 1.415 . S
H2352 C2349 0.999 . S
H2353 C2334 0.913 1_556 S
H2354 C2372 0.951 . S
H2355 C2374 0.951 . S
H2356 C2376 0.950 . S
H2357 C2377 0.950 . S
H2358 C2379 0.950 . S
H2359 C2382 0.950 . S
H2360 C2383 0.950 . S
H2361 C2385 0.950 . S
H2362 C2386 0.950 . S
H2363 C2387 0.951 . S
H2364 C2389 0.951 . S
H2365 C2391 0.950 . S
H2366 C2392 0.950 . S
H2367 C2394 0.950 . S
H2368 C2397 0.950 . S
H2369 C2398 0.950 . S
H2370 C2400 0.950 1_556 S
H2371 C2401 0.950 . S
C2372 H2354 0.951 . S
C2372 C2373 1.366 . S
C2372 C2374 1.388 . S
C2373 C2372 1.366 . S
C2373 C2377 1.385 . S
C2374 H2355 0.951 . S
C2374 C2372 1.388 . S
C2374 C2375 1.366 . S
C2375 C2374 1.366 . S
C2375 C2376 1.414 . S
C2375 C2378 1.499 . S
C2376 H2356 0.950 . S
C2376 C2375 1.414 . S
C2376 C2377 1.374 . S
C2377 H2357 0.950 . S
C2377 C2373 1.385 . S
C2377 C2376 1.374 . S
C2378 C2375 1.499 . S
C2378 C2379 1.373 . S
C2378 C2380 1.389 . S
C2379 H2358 0.950 . S
C2379 C2378 1.373 . S
C2379 C2395 1.377 . S
C2380 C2378 1.389 . S
C2380 C2381 1.524 . S
C2380 C2394 1.377 . S
C2381 C2380 1.524 . S
C2381 C2382 1.397 . S
C2381 C2386 1.363 . S
C2382 H2359 0.950 . S
C2382 C2381 1.397 . S
C2382 C2383 1.334 . S
C2383 H2360 0.950 . S
C2383 C2382 1.334 . S
C2383 C2384 1.287 . S
C2384 C2383 1.287 . S
C2384 C2385 1.524 . S
C2384 H2403 0.913 . S
C2385 H2361 0.950 . S
C2385 C2384 1.524 . S
C2385 C2386 1.415 . S
C2386 H2362 0.950 . S
C2386 C2381 1.363 . S
C2386 C2385 1.415 . S
C2387 H2363 0.951 . S
C2387 C2388 1.366 . S
C2387 C2389 1.388 . S
C2388 C2387 1.366 . S
C2388 C2392 1.385 . S
C2389 H2364 0.951 . S
C2389 C2387 1.388 . S
C2389 C2390 1.366 . S
C2390 C2389 1.366 . S
C2390 C2391 1.414 . S
C2390 C2393 1.499 . S
C2391 H2365 0.950 . S
C2391 C2390 1.414 . S
C2391 C2392 1.374 . S
C2392 H2366 0.950 . S
C2392 C2388 1.385 . S
C2392 C2391 1.374 . S
C2393 C2390 1.499 . S
C2393 C2394 1.373 . S
C2393 C2395 1.389 . S
C2394 H2367 0.950 . S
C2394 C2380 1.377 . S
C2394 C2393 1.373 . S
C2395 C2379 1.377 . S
C2395 C2393 1.389 . S
C2395 C2396 1.524 . S
C2396 C2395 1.524 . S
C2396 C2397 1.397 . S
C2396 C2401 1.363 . S
C2397 H2368 0.950 . S
C2397 C2396 1.397 . S
C2397 C2398 1.334 . S
C2398 H2369 0.950 . S
C2398 C2397 1.334 . S
C2398 C2399 1.287 . S
C2399 C2398 1.287 . S
C2399 C2400 1.524 . S
C2399 H2402 0.999 . S
C2400 H2370 0.950 1_554 S
C2400 C2399 1.524 . S
C2400 C2401 1.415 . S
C2401 H2371 0.950 . S
C2401 C2396 1.363 . S
C2401 C2400 1.415 . S
H2402 C2399 0.999 . S
H2403 C2384 0.913 . S
H2404 C2422 0.951 . S
H2405 C2424 0.951 . S
H2406 C2426 0.950 . S
H2407 C2427 0.950 . S
H2408 C2429 0.950 . S
H2409 C2432 0.950 . S
H2410 C2433 0.950 . S
H2411 C2435 0.950 . S
H2412 C2436 0.950 . S
H2413 C2437 0.951 . S
H2414 C2439 0.951 . S
H2415 C2441 0.950 . S
H2416 C2442 0.950 . S
H2417 C2444 0.950 . S
H2418 C2447 0.950 . S
H2419 C2448 0.950 . S
H2420 C2450 0.950 . S
H2421 C2451 0.950 . S
C2422 H2404 0.951 . S
C2422 C2423 1.366 . S
C2422 C2424 1.388 . S
C2423 C2422 1.366 . S
C2423 C2427 1.385 . S
C2424 H2405 0.951 . S
C2424 C2422 1.388 . S
C2424 C2425 1.366 . S
C2425 C2424 1.366 . S
C2425 C2426 1.414 . S
C2425 C2428 1.499 . S
C2426 H2406 0.950 . S
C2426 C2425 1.414 . S
C2426 C2427 1.374 . S
C2427 H2407 0.950 . S
C2427 C2423 1.385 . S
C2427 C2426 1.374 . S
C2428 C2425 1.499 . S
C2428 C2429 1.373 . S
C2428 C2430 1.389 . S
C2429 H2408 0.950 . S
C2429 C2428 1.373 . S
C2429 C2445 1.377 . S
C2430 C2428 1.389 . S
C2430 C2431 1.524 . S
C2430 C2444 1.377 . S
C2431 C2430 1.524 . S
C2431 C2432 1.397 . S
C2431 C2436 1.363 . S
C2432 H2409 0.950 . S
C2432 C2431 1.397 . S
C2432 C2433 1.334 . S
C2433 H2410 0.950 . S
C2433 C2432 1.334 . S
C2433 C2434 1.287 . S
C2434 C2433 1.287 . S
C2434 C2435 1.524 . S
C2434 H2453 0.913 . S
C2435 H2411 0.950 . S
C2435 C2434 1.524 . S
C2435 C2436 1.415 . S
C2436 H2412 0.950 . S
C2436 C2431 1.363 . S
C2436 C2435 1.415 . S
C2437 H2413 0.951 . S
C2437 C2438 1.366 . S
C2437 C2439 1.388 . S
C2438 C2437 1.366 . S
C2438 C2442 1.385 . S
C2439 H2414 0.951 . S
C2439 C2437 1.388 . S
C2439 C2440 1.366 . S
C2440 C2439 1.366 . S
C2440 C2441 1.414 . S
C2440 C2443 1.499 . S
C2441 H2415 0.950 . S
C2441 C2440 1.414 . S
C2441 C2442 1.374 . S
C2442 H2416 0.950 . S
C2442 C2438 1.385 . S
C2442 C2441 1.374 . S
C2443 C2440 1.499 . S
C2443 C2444 1.373 . S
C2443 C2445 1.389 . S
C2444 H2417 0.950 . S
C2444 C2430 1.377 . S
C2444 C2443 1.373 . S
C2445 C2429 1.377 . S
C2445 C2443 1.389 . S
C2445 C2446 1.524 . S
C2446 C2445 1.524 . S
C2446 C2447 1.397 . S
C2446 C2451 1.363 . S
C2447 H2418 0.950 . S
C2447 C2446 1.397 . S
C2447 C2448 1.334 . S
C2448 H2419 0.950 . S
C2448 C2447 1.334 . S
C2448 C2449 1.287 . S
C2449 C2448 1.287 . S
C2449 C2450 1.524 . S
C2449 H2452 0.999 . S
C2450 H2420 0.950 . S
C2450 C2449 1.524 . S
C2450 C2451 1.415 . S
C2451 H2421 0.950 . S
C2451 C2446 1.363 . S
C2451 C2450 1.415 . S
H2452 C2449 0.999 . S
H2453 C2434 0.913 . S
H2454 C2472 0.951 . S
H2455 C2474 0.951 . S
H2456 C2476 0.950 . S
H2457 C2477 0.950 . S
H2458 C2479 0.950 . S
H2459 C2482 0.950 . S
H2460 C2483 0.950 . S
H2461 C2485 0.950 . S
H2462 C2486 0.950 . S
H2463 C2487 0.951 . S
H2464 C2489 0.951 . S
H2465 C2491 0.950 . S
H2466 C2492 0.950 . S
H2467 C2494 0.950 . S
H2468 C2497 0.950 . S
H2469 C2498 0.950 . S
H2470 C2500 0.950 . S
H2471 C2501 0.950 . S
C2472 H2454 0.951 . S
C2472 C2473 1.366 . S
C2472 C2474 1.388 . S
C2473 C2472 1.366 . S
C2473 C2477 1.385 . S
C2474 H2455 0.951 . S
C2474 C2472 1.388 . S
C2474 C2475 1.366 . S
C2475 C2474 1.366 . S
C2475 C2476 1.414 . S
C2475 C2478 1.499 . S
C2476 H2456 0.950 . S
C2476 C2475 1.414 . S
C2476 C2477 1.374 . S
C2477 H2457 0.950 . S
C2477 C2473 1.385 . S
C2477 C2476 1.374 . S
C2478 C2475 1.499 . S
C2478 C2479 1.373 . S
C2478 C2480 1.389 . S
C2479 H2458 0.950 . S
C2479 C2478 1.373 . S
C2479 C2495 1.377 . S
C2480 C2478 1.389 . S
C2480 C2481 1.524 . S
C2480 C2494 1.377 . S
C2481 C2480 1.524 . S
C2481 C2482 1.397 . S
C2481 C2486 1.363 . S
C2482 H2459 0.950 . S
C2482 C2481 1.397 . S
C2482 C2483 1.334 . S
C2483 H2460 0.950 . S
C2483 C2482 1.334 . S
C2483 C2484 1.287 . S
C2484 C2483 1.287 . S
C2484 C2485 1.524 . S
C2484 H2503 0.913 . S
C2485 H2461 0.950 . S
C2485 C2484 1.524 . S
C2485 C2486 1.415 . S
C2486 H2462 0.950 . S
C2486 C2481 1.363 . S
C2486 C2485 1.415 . S
C2487 H2463 0.951 . S
C2487 C2488 1.366 . S
C2487 C2489 1.388 . S
C2488 C2487 1.366 . S
C2488 C2492 1.385 . S
C2489 H2464 0.951 . S
C2489 C2487 1.388 . S
C2489 C2490 1.366 . S
C2490 C2489 1.366 . S
C2490 C2491 1.414 . S
C2490 C2493 1.499 . S
C2491 H2465 0.950 . S
C2491 C2490 1.414 . S
C2491 C2492 1.374 . S
C2492 H2466 0.950 . S
C2492 C2488 1.385 . S
C2492 C2491 1.374 . S
C2493 C2490 1.499 . S
C2493 C2494 1.373 . S
C2493 C2495 1.389 . S
C2494 H2467 0.950 . S
C2494 C2480 1.377 . S
C2494 C2493 1.373 . S
C2495 C2479 1.377 . S
C2495 C2493 1.389 . S
C2495 C2496 1.524 . S
C2496 C2495 1.524 . S
C2496 C2497 1.397 . S
C2496 C2501 1.363 . S
C2497 H2468 0.950 . S
C2497 C2496 1.397 . S
C2497 C2498 1.334 . S
C2498 H2469 0.950 . S
C2498 C2497 1.334 . S
C2498 C2499 1.287 . S
C2499 C2498 1.287 . S
C2499 C2500 1.524 . S
C2499 H2502 0.999 . S
C2500 H2470 0.950 . S
C2500 C2499 1.524 . S
C2500 C2501 1.415 . S
C2501 H2471 0.950 . S
C2501 C2496 1.363 . S
C2501 C2500 1.415 . S
H2502 C2499 0.999 . S
H2503 C2484 0.913 . S
H2504 C2522 0.951 . S
H2505 C2524 0.951 . S
H2506 C2526 0.950 . S
H2507 C2527 0.950 . S
H2508 C2529 0.950 . S
H2509 C2532 0.950 . S
H2510 C2533 0.950 . S
H2511 C2535 0.950 . S
H2512 C2536 0.950 . S
H2513 C2537 0.951 . S
H2514 C2539 0.951 . S
H2515 C2541 0.950 . S
H2516 C2542 0.950 . S
H2517 C2544 0.950 . S
H2518 C2547 0.950 . S
H2519 C2548 0.950 . S
H2520 C2550 0.950 . S
H2521 C2551 0.950 . S
C2522 H2504 0.951 . S
C2522 C2523 1.366 . S
C2522 C2524 1.388 . S
C2523 C2522 1.366 . S
C2523 C2527 1.385 . S
C2524 H2505 0.951 . S
C2524 C2522 1.388 . S
C2524 C2525 1.366 . S
C2525 C2524 1.366 . S
C2525 C2526 1.414 . S
C2525 C2528 1.499 . S
C2526 H2506 0.950 . S
C2526 C2525 1.414 . S
C2526 C2527 1.374 . S
C2527 H2507 0.950 . S
C2527 C2523 1.385 . S
C2527 C2526 1.374 . S
C2528 C2525 1.499 . S
C2528 C2529 1.373 . S
C2528 C2530 1.389 . S
C2529 H2508 0.950 . S
C2529 C2528 1.373 . S
C2529 C2545 1.377 . S
C2530 C2528 1.389 . S
C2530 C2531 1.524 . S
C2530 C2544 1.377 . S
C2531 C2530 1.524 . S
C2531 C2532 1.397 . S
C2531 C2536 1.363 . S
C2532 H2509 0.950 . S
C2532 C2531 1.397 . S
C2532 C2533 1.334 . S
C2533 H2510 0.950 . S
C2533 C2532 1.334 . S
C2533 C2534 1.287 . S
C2534 C2533 1.287 . S
C2534 C2535 1.524 . S
C2534 H2553 0.913 . S
C2535 H2511 0.950 . S
C2535 C2534 1.524 . S
C2535 C2536 1.415 . S
C2536 H2512 0.950 . S
C2536 C2531 1.363 . S
C2536 C2535 1.415 . S
C2537 H2513 0.951 . S
C2537 C2538 1.366 . S
C2537 C2539 1.388 . S
C2538 C2537 1.366 . S
C2538 C2542 1.385 . S
C2539 H2514 0.951 . S
C2539 C2537 1.388 . S
C2539 C2540 1.366 . S
C2540 C2539 1.366 . S
C2540 C2541 1.414 . S
C2540 C2543 1.499 . S
C2541 H2515 0.950 . S
C2541 C2540 1.414 . S
C2541 C2542 1.374 . S
C2542 H2516 0.950 . S
C2542 C2538 1.385 . S
C2542 C2541 1.374 . S
C2543 C2540 1.499 . S
C2543 C2544 1.373 . S
C2543 C2545 1.389 . S
C2544 H2517 0.950 . S
C2544 C2530 1.377 . S
C2544 C2543 1.373 . S
C2545 C2529 1.377 . S
C2545 C2543 1.389 . S
C2545 C2546 1.524 . S
C2546 C2545 1.524 . S
C2546 C2547 1.397 . S
C2546 C2551 1.363 . S
C2547 H2518 0.950 . S
C2547 C2546 1.397 . S
C2547 C2548 1.334 . S
C2548 H2519 0.950 . S
C2548 C2547 1.334 . S
C2548 C2549 1.287 . S
C2549 C2548 1.287 . S
C2549 C2550 1.524 . S
C2549 H2552 0.999 . S
C2550 H2520 0.950 . S
C2550 C2549 1.524 . S
C2550 C2551 1.415 . S
C2551 H2521 0.950 . S
C2551 C2546 1.363 . S
C2551 C2550 1.415 . S
H2552 C2549 0.999 . S
H2553 C2534 0.913 . S
H2554 C2572 0.951 . S
H2555 C2574 0.951 . S
H2556 C2576 0.950 . S
H2557 C2577 0.950 . S
H2558 C2579 0.950 . S
H2559 C2582 0.950 . S
H2560 C2583 0.950 . S
H2561 C2585 0.950 . S
H2562 C2586 0.950 . S
H2563 C2587 0.951 . S
H2564 C2589 0.951 . S
H2565 C2591 0.950 . S
H2566 C2592 0.950 . S
H2567 C2594 0.950 . S
H2568 C2597 0.950 . S
H2569 C2598 0.950 . S
H2570 C2600 0.950 . S
H2571 C2601 0.950 . S
C2572 H2554 0.951 . S
C2572 C2573 1.366 . S
C2572 C2574 1.388 . S
C2573 C2572 1.366 . S
C2573 C2577 1.385 . S
C2574 H2555 0.951 . S
C2574 C2572 1.388 . S
C2574 C2575 1.366 . S
C2575 C2574 1.366 . S
C2575 C2576 1.414 . S
C2575 C2578 1.499 . S
C2576 H2556 0.950 . S
C2576 C2575 1.414 . S
C2576 C2577 1.374 . S
C2577 H2557 0.950 . S
C2577 C2573 1.385 . S
C2577 C2576 1.374 . S
C2578 C2575 1.499 . S
C2578 C2579 1.373 . S
C2578 C2580 1.389 . S
C2579 H2558 0.950 . S
C2579 C2578 1.373 . S
C2579 C2595 1.377 . S
C2580 C2578 1.389 . S
C2580 C2581 1.524 . S
C2580 C2594 1.377 . S
C2581 C2580 1.524 . S
C2581 C2582 1.397 . S
C2581 C2586 1.363 . S
C2582 H2559 0.950 . S
C2582 C2581 1.397 . S
C2582 C2583 1.334 . S
C2583 H2560 0.950 . S
C2583 C2582 1.334 . S
C2583 C2584 1.287 . S
C2584 C2583 1.287 . S
C2584 C2585 1.524 . S
C2584 H2603 0.913 . S
C2585 H2561 0.950 . S
C2585 C2584 1.524 . S
C2585 C2586 1.415 . S
C2586 H2562 0.950 . S
C2586 C2581 1.363 . S
C2586 C2585 1.415 . S
C2587 H2563 0.951 . S
C2587 C2588 1.366 . S
C2587 C2589 1.388 . S
C2588 C2587 1.366 . S
C2588 C2592 1.385 . S
C2589 H2564 0.951 . S
C2589 C2587 1.388 . S
C2589 C2590 1.366 . S
C2590 C2589 1.366 . S
C2590 C2591 1.414 . S
C2590 C2593 1.499 . S
C2591 H2565 0.950 . S
C2591 C2590 1.414 . S
C2591 C2592 1.374 . S
C2592 H2566 0.950 . S
C2592 C2588 1.385 . S
C2592 C2591 1.374 . S
C2593 C2590 1.499 . S
C2593 C2594 1.373 . S
C2593 C2595 1.389 . S
C2594 H2567 0.950 . S
C2594 C2580 1.377 . S
C2594 C2593 1.373 . S
C2595 C2579 1.377 . S
C2595 C2593 1.389 . S
C2595 C2596 1.524 . S
C2596 C2595 1.524 . S
C2596 C2597 1.397 . S
C2596 C2601 1.363 . S
C2597 H2568 0.950 . S
C2597 C2596 1.397 . S
C2597 C2598 1.334 . S
C2598 H2569 0.950 . S
C2598 C2597 1.334 . S
C2598 C2599 1.287 . S
C2599 C2598 1.287 . S
C2599 C2600 1.524 . S
C2599 H2602 0.999 . S
C2600 H2570 0.950 . S
C2600 C2599 1.524 . S
C2600 C2601 1.415 . S
C2601 H2571 0.950 . S
C2601 C2596 1.363 . S
C2601 C2600 1.415 . S
H2602 C2599 0.999 . S
H2603 C2584 0.913 . S
H2604 C2622 0.951 . S
H2605 C2624 0.951 . S
H2606 C2626 0.950 . S
H2607 C2627 0.950 . S
H2608 C2629 0.950 . S
H2609 C2632 0.950 . S
H2610 C2633 0.950 . S
H2611 C2635 0.950 . S
H2612 C2636 0.950 . S
H2613 C2637 0.951 . S
H2614 C2639 0.951 . S
H2615 C2641 0.950 . S
H2616 C2642 0.950 . S
H2617 C2644 0.950 . S
H2618 C2647 0.950 . S
H2619 C2648 0.950 . S
H2620 C2650 0.950 . S
H2621 C2651 0.950 . S
C2622 H2604 0.951 . S
C2622 C2623 1.366 . S
C2622 C2624 1.388 . S
C2623 C2622 1.366 . S
C2623 C2627 1.385 . S
C2624 H2605 0.951 . S
C2624 C2622 1.388 . S
C2624 C2625 1.366 . S
C2625 C2624 1.366 . S
C2625 C2626 1.414 . S
C2625 C2628 1.499 . S
C2626 H2606 0.950 . S
C2626 C2625 1.414 . S
C2626 C2627 1.374 . S
C2627 H2607 0.950 . S
C2627 C2623 1.385 . S
C2627 C2626 1.374 . S
C2628 C2625 1.499 . S
C2628 C2629 1.373 . S
C2628 C2630 1.389 . S
C2629 H2608 0.950 . S
C2629 C2628 1.373 . S
C2629 C2645 1.377 . S
C2630 C2628 1.389 . S
C2630 C2631 1.524 . S
C2630 C2644 1.377 . S
C2631 C2630 1.524 . S
C2631 C2632 1.397 . S
C2631 C2636 1.363 . S
C2632 H2609 0.950 . S
C2632 C2631 1.397 . S
C2632 C2633 1.334 . S
C2633 H2610 0.950 . S
C2633 C2632 1.334 . S
C2633 C2634 1.287 . S
C2634 C2633 1.287 . S
C2634 C2635 1.524 . S
C2634 H2653 0.913 . S
C2635 H2611 0.950 . S
C2635 C2634 1.524 . S
C2635 C2636 1.415 . S
C2636 H2612 0.950 . S
C2636 C2631 1.363 . S
C2636 C2635 1.415 . S
C2637 H2613 0.951 . S
C2637 C2638 1.366 . S
C2637 C2639 1.388 . S
C2638 C2637 1.366 . S
C2638 C2642 1.385 . S
C2639 H2614 0.951 . S
C2639 C2637 1.388 . S
C2639 C2640 1.366 . S
C2640 C2639 1.366 . S
C2640 C2641 1.414 . S
C2640 C2643 1.499 . S
C2641 H2615 0.950 . S
C2641 C2640 1.414 . S
C2641 C2642 1.374 . S
C2642 H2616 0.950 . S
C2642 C2638 1.385 . S
C2642 C2641 1.374 . S
C2643 C2640 1.499 . S
C2643 C2644 1.373 . S
C2643 C2645 1.389 . S
C2644 H2617 0.950 . S
C2644 C2630 1.377 . S
C2644 C2643 1.373 . S
C2645 C2629 1.377 . S
C2645 C2643 1.389 . S
C2645 C2646 1.524 . S
C2646 C2645 1.524 . S
C2646 C2647 1.397 . S
C2646 C2651 1.363 . S
C2647 H2618 0.950 . S
C2647 C2646 1.397 . S
C2647 C2648 1.334 . S
C2648 H2619 0.950 . S
C2648 C2647 1.334 . S
C2648 C2649 1.287 . S
C2649 C2648 1.287 . S
C2649 C2650 1.524 . S
C2649 H2652 0.999 . S
C2650 H2620 0.950 . S
C2650 C2649 1.524 . S
C2650 C2651 1.415 . S
C2651 H2621 0.950 . S
C2651 C2646 1.363 . S
C2651 C2650 1.415 . S
H2652 C2649 0.999 . S
H2653 C2634 0.913 . S
H2654 C2672 0.951 . S
H2655 C2674 0.951 . S
H2656 C2676 0.950 . S
H2657 C2677 0.950 . S
H2658 C2679 0.950 . S
H2659 C2682 0.950 . S
H2660 C2683 0.950 . S
H2661 C2685 0.950 . S
H2662 C2686 0.950 . S
H2663 C2687 0.951 . S
H2664 C2689 0.951 . S
H2665 C2691 0.950 . S
H2666 C2692 0.950 . S
H2667 C2694 0.950 . S
H2668 C2697 0.950 . S
H2669 C2698 0.950 . S
H2670 C2700 0.950 . S
H2671 C2701 0.950 . S
C2672 H2654 0.951 . S
C2672 C2673 1.366 . S
C2672 C2674 1.388 . S
C2673 C2672 1.366 . S
C2673 C2677 1.385 . S
C2674 H2655 0.951 . S
C2674 C2672 1.388 . S
C2674 C2675 1.366 . S
C2675 C2674 1.366 . S
C2675 C2676 1.414 . S
C2675 C2678 1.499 . S
C2676 H2656 0.950 . S
C2676 C2675 1.414 . S
C2676 C2677 1.374 . S
C2677 H2657 0.950 . S
C2677 C2673 1.385 . S
C2677 C2676 1.374 . S
C2678 C2675 1.499 . S
C2678 C2679 1.373 . S
C2678 C2680 1.389 . S
C2679 H2658 0.950 . S
C2679 C2678 1.373 . S
C2679 C2695 1.377 . S
C2680 C2678 1.389 . S
C2680 C2681 1.524 . S
C2680 C2694 1.377 . S
C2681 C2680 1.524 . S
C2681 C2682 1.397 . S
C2681 C2686 1.363 . S
C2682 H2659 0.950 . S
C2682 C2681 1.397 . S
C2682 C2683 1.334 . S
C2683 H2660 0.950 . S
C2683 C2682 1.334 . S
C2683 C2684 1.287 . S
C2684 C2683 1.287 . S
C2684 C2685 1.524 . S
C2684 H2703 0.915 . S
C2685 H2661 0.950 . S
C2685 C2684 1.524 . S
C2685 C2686 1.415 . S
C2686 H2662 0.950 . S
C2686 C2681 1.363 . S
C2686 C2685 1.415 . S
C2687 H2663 0.951 . S
C2687 C2688 1.366 . S
C2687 C2689 1.388 . S
C2688 C2687 1.366 . S
C2688 C2692 1.385 . S
C2689 H2664 0.951 . S
C2689 C2687 1.388 . S
C2689 C2690 1.366 . S
C2690 C2689 1.366 . S
C2690 C2691 1.414 . S
C2690 C2693 1.499 . S
C2691 H2665 0.950 . S
C2691 C2690 1.414 . S
C2691 C2692 1.374 . S
C2692 H2666 0.950 . S
C2692 C2688 1.385 . S
C2692 C2691 1.374 . S
C2693 C2690 1.499 . S
C2693 C2694 1.373 . S
C2693 C2695 1.389 . S
C2694 H2667 0.950 . S
C2694 C2680 1.377 . S
C2694 C2693 1.373 . S
C2695 C2679 1.377 . S
C2695 C2693 1.389 . S
C2695 C2696 1.524 . S
C2696 C2695 1.524 . S
C2696 C2697 1.397 . S
C2696 C2701 1.363 . S
C2697 H2668 0.950 . S
C2697 C2696 1.397 . S
C2697 C2698 1.334 . S
C2698 H2669 0.950 . S
C2698 C2697 1.334 . S
C2698 C2699 1.287 . S
C2699 C2698 1.287 . S
C2699 C2700 1.524 . S
C2699 H2702 0.999 . S
C2700 H2670 0.950 . S
C2700 C2699 1.524 . S
C2700 C2701 1.415 . S
C2701 H2671 0.950 . S
C2701 C2696 1.363 . S
C2701 C2700 1.415 . S
H2702 C2699 0.999 . S
H2703 C2684 0.915 . S
H2704 C2722 0.951 . S
H2705 C2724 0.951 . S
H2706 C2726 0.950 . S
H2707 C2727 0.950 . S
H2708 C2729 0.950 . S
H2709 C2732 0.950 . S
H2710 C2733 0.950 . S
H2711 C2735 0.950 . S
H2712 C2736 0.950 . S
H2713 C2737 0.951 . S
H2714 C2739 0.951 . S
H2715 C2741 0.950 . S
H2716 C2742 0.950 . S
H2717 C2744 0.950 . S
H2718 C2747 0.950 . S
H2719 C2748 0.950 . S
H2720 C2750 0.950 . S
H2721 C2751 0.950 . S
C2722 H2704 0.951 . S
C2722 C2723 1.366 . S
C2722 C2724 1.388 . S
C2723 C2722 1.366 . S
C2723 C2727 1.385 . S
C2724 H2705 0.951 . S
C2724 C2722 1.388 . S
C2724 C2725 1.366 . S
C2725 C2724 1.366 . S
C2725 C2726 1.414 . S
C2725 C2728 1.499 . S
C2726 H2706 0.950 . S
C2726 C2725 1.414 . S
C2726 C2727 1.374 . S
C2727 H2707 0.950 . S
C2727 C2723 1.385 . S
C2727 C2726 1.374 . S
C2728 C2725 1.499 . S
C2728 C2729 1.373 . S
C2728 C2730 1.389 . S
C2729 H2708 0.950 . S
C2729 C2728 1.373 . S
C2729 C2745 1.377 . S
C2730 C2728 1.389 . S
C2730 C2731 1.524 . S
C2730 C2744 1.377 . S
C2731 C2730 1.524 . S
C2731 C2732 1.397 . S
C2731 C2736 1.363 . S
C2732 H2709 0.950 . S
C2732 C2731 1.397 . S
C2732 C2733 1.334 . S
C2733 H2710 0.950 . S
C2733 C2732 1.334 . S
C2733 C2734 1.287 . S
C2734 C2733 1.287 . S
C2734 C2735 1.524 . S
C2734 H2753 0.913 . S
C2735 H2711 0.950 . S
C2735 C2734 1.524 . S
C2735 C2736 1.415 . S
C2736 H2712 0.950 . S
C2736 C2731 1.363 . S
C2736 C2735 1.415 . S
C2737 H2713 0.951 . S
C2737 C2738 1.366 . S
C2737 C2739 1.388 . S
C2738 C2737 1.366 . S
C2738 C2742 1.385 . S
C2739 H2714 0.951 . S
C2739 C2737 1.388 . S
C2739 C2740 1.366 . S
C2740 C2739 1.366 . S
C2740 C2741 1.414 . S
C2740 C2743 1.499 . S
C2741 H2715 0.950 . S
C2741 C2740 1.414 . S
C2741 C2742 1.374 . S
C2742 H2716 0.950 . S
C2742 C2738 1.385 . S
C2742 C2741 1.374 . S
C2743 C2740 1.499 . S
C2743 C2744 1.373 . S
C2743 C2745 1.389 . S
C2744 H2717 0.950 . S
C2744 C2730 1.377 . S
C2744 C2743 1.373 . S
C2745 C2729 1.377 . S
C2745 C2743 1.389 . S
C2745 C2746 1.524 . S
C2746 C2745 1.524 . S
C2746 C2747 1.397 . S
C2746 C2751 1.363 . S
C2747 H2718 0.950 . S
C2747 C2746 1.397 . S
C2747 C2748 1.334 . S
C2748 H2719 0.950 . S
C2748 C2747 1.334 . S
C2748 C2749 1.287 . S
C2749 C2748 1.287 . S
C2749 C2750 1.524 . S
C2749 H2752 0.999 . S
C2750 H2720 0.950 . S
C2750 C2749 1.524 . S
C2750 C2751 1.415 . S
C2751 H2721 0.950 . S
C2751 C2746 1.363 . S
C2751 C2750 1.415 . S
H2752 C2749 0.999 . S
H2753 C2734 0.913 . S
H2754 C2772 0.951 . S
H2755 C2774 0.951 . S
H2756 C2776 0.950 . S
H2757 C2777 0.950 . S
H2758 C2779 0.950 . S
H2759 C2782 0.950 . S
H2760 C2783 0.950 . S
H2761 C2785 0.950 . S
H2762 C2786 0.950 . S
H2763 C2787 0.951 . S
H2764 C2789 0.951 . S
H2765 C2791 0.950 . S
H2766 C2792 0.950 . S
H2767 C2794 0.950 . S
H2768 C2797 0.950 . S
H2769 C2798 0.950 . S
H2770 C2800 0.950 1_556 S
H2771 C2801 0.950 . S
C2772 H2754 0.951 . S
C2772 C2773 1.366 . S
C2772 C2774 1.388 . S
C2773 C2772 1.366 . S
C2773 C2777 1.385 . S
C2774 H2755 0.951 . S
C2774 C2772 1.388 . S
C2774 C2775 1.366 . S
C2775 C2774 1.366 . S
C2775 C2776 1.414 . S
C2775 C2778 1.499 . S
C2776 H2756 0.950 . S
C2776 C2775 1.414 . S
C2776 C2777 1.374 . S
C2777 H2757 0.950 . S
C2777 C2773 1.385 . S
C2777 C2776 1.374 . S
C2778 C2775 1.499 . S
C2778 C2779 1.373 . S
C2778 C2780 1.389 . S
C2779 H2758 0.950 . S
C2779 C2778 1.373 . S
C2779 C2795 1.377 . S
C2780 C2778 1.389 . S
C2780 C2781 1.524 . S
C2780 C2794 1.377 . S
C2781 C2780 1.524 . S
C2781 C2782 1.397 . S
C2781 C2786 1.363 . S
C2782 H2759 0.950 . S
C2782 C2781 1.397 . S
C2782 C2783 1.334 . S
C2783 H2760 0.950 . S
C2783 C2782 1.334 . S
C2783 C2784 1.287 . S
C2784 C2783 1.287 . S
C2784 C2785 1.524 . S
C2784 H2803 0.913 . S
C2785 H2761 0.950 . S
C2785 C2784 1.524 . S
C2785 C2786 1.415 . S
C2786 H2762 0.950 . S
C2786 C2781 1.363 . S
C2786 C2785 1.415 . S
C2787 H2763 0.951 . S
C2787 C2788 1.366 . S
C2787 C2789 1.388 . S
C2788 C2787 1.366 . S
C2788 C2792 1.385 . S
C2789 H2764 0.951 . S
C2789 C2787 1.388 . S
C2789 C2790 1.366 . S
C2790 C2789 1.366 . S
C2790 C2791 1.414 . S
C2790 C2793 1.499 . S
C2791 H2765 0.950 . S
C2791 C2790 1.414 . S
C2791 C2792 1.374 . S
C2792 H2766 0.950 . S
C2792 C2788 1.385 . S
C2792 C2791 1.374 . S
C2793 C2790 1.499 . S
C2793 C2794 1.373 . S
C2793 C2795 1.389 . S
C2794 H2767 0.950 . S
C2794 C2780 1.377 . S
C2794 C2793 1.373 . S
C2795 C2779 1.377 . S
C2795 C2793 1.389 . S
C2795 C2796 1.524 . S
C2796 C2795 1.524 . S
C2796 C2797 1.397 . S
C2796 C2801 1.363 . S
C2797 H2768 0.950 . S
C2797 C2796 1.397 . S
C2797 C2798 1.334 . S
C2798 H2769 0.950 . S
C2798 C2797 1.334 . S
C2798 C2799 1.287 . S
C2799 C2798 1.287 . S
C2799 C2800 1.524 . S
C2799 H2802 0.999 . S
C2800 H2770 0.950 1_554 S
C2800 C2799 1.524 . S
C2800 C2801 1.415 . S
C2801 H2771 0.950 . S
C2801 C2796 1.363 . S
C2801 C2800 1.415 . S
H2802 C2799 0.999 . S
H2803 C2784 0.913 . S
H2804 C2822 0.951 . S
H2805 C2824 0.951 . S
H2806 C2826 0.950 . S
H2807 C2827 0.950 . S
H2808 C2829 0.950 . S
H2809 C2832 0.950 . S
H2810 C2833 0.950 . S
H2811 C2835 0.950 . S
H2812 C2836 0.950 . S
H2813 C2837 0.951 . S
H2814 C2839 0.951 . S
H2815 C2841 0.950 . S
H2816 C2842 0.950 . S
H2817 C2844 0.950 . S
H2818 C2847 0.950 . S
H2819 C2848 0.950 . S
H2820 C2850 0.950 . S
H2821 C2851 0.950 . S
C2822 H2804 0.951 . S
C2822 C2823 1.366 . S
C2822 C2824 1.388 . S
C2823 C2822 1.366 . S
C2823 C2827 1.385 . S
C2824 H2805 0.951 . S
C2824 C2822 1.388 . S
C2824 C2825 1.366 . S
C2825 C2824 1.366 . S
C2825 C2826 1.414 . S
C2825 C2828 1.499 . S
C2826 H2806 0.950 . S
C2826 C2825 1.414 . S
C2826 C2827 1.374 . S
C2827 H2807 0.950 . S
C2827 C2823 1.385 . S
C2827 C2826 1.374 . S
C2828 C2825 1.499 . S
C2828 C2829 1.373 . S
C2828 C2830 1.389 . S
C2829 H2808 0.950 . S
C2829 C2828 1.373 . S
C2829 C2845 1.377 . S
C2830 C2828 1.389 . S
C2830 C2831 1.524 . S
C2830 C2844 1.377 . S
C2831 C2830 1.524 . S
C2831 C2832 1.397 . S
C2831 C2836 1.363 . S
C2832 H2809 0.950 . S
C2832 C2831 1.397 . S
C2832 C2833 1.334 . S
C2833 H2810 0.950 . S
C2833 C2832 1.334 . S
C2833 C2834 1.287 . S
C2834 C2833 1.287 . S
C2834 C2835 1.524 . S
C2834 H2853 0.913 . S
C2835 H2811 0.950 . S
C2835 C2834 1.524 . S
C2835 C2836 1.415 . S
C2836 H2812 0.950 . S
C2836 C2831 1.363 . S
C2836 C2835 1.415 . S
C2837 H2813 0.951 . S
C2837 C2838 1.366 . S
C2837 C2839 1.388 . S
C2838 C2837 1.366 . S
C2838 C2842 1.385 . S
C2839 H2814 0.951 . S
C2839 C2837 1.388 . S
C2839 C2840 1.366 . S
C2840 C2839 1.366 . S
C2840 C2841 1.414 . S
C2840 C2843 1.499 . S
C2841 H2815 0.950 . S
C2841 C2840 1.414 . S
C2841 C2842 1.374 . S
C2842 H2816 0.950 . S
C2842 C2838 1.385 . S
C2842 C2841 1.374 . S
C2843 C2840 1.499 . S
C2843 C2844 1.373 . S
C2843 C2845 1.389 . S
C2844 H2817 0.950 . S
C2844 C2830 1.377 . S
C2844 C2843 1.373 . S
C2845 C2829 1.377 . S
C2845 C2843 1.389 . S
C2845 C2846 1.524 . S
C2846 C2845 1.524 . S
C2846 C2847 1.397 . S
C2846 C2851 1.363 . S
C2847 H2818 0.950 . S
C2847 C2846 1.397 . S
C2847 C2848 1.334 . S
C2848 H2819 0.950 . S
C2848 C2847 1.334 . S
C2848 C2849 1.287 . S
C2849 C2848 1.287 . S
C2849 C2850 1.524 . S
C2849 H2852 0.999 . S
C2850 H2820 0.950 . S
C2850 C2849 1.524 . S
C2850 C2851 1.415 . S
C2851 H2821 0.950 . S
C2851 C2846 1.363 . S
C2851 C2850 1.415 . S
H2852 C2849 0.999 . S
H2853 C2834 0.913 . S
H2854 C2872 0.951 . S
H2855 C2874 0.951 . S
H2856 C2876 0.950 . S
H2857 C2877 0.950 . S
H2858 C2879 0.950 . S
H2859 C2882 0.950 . S
H2860 C2883 0.950 . S
H2861 C2885 0.950 1_556 S
H2862 C2886 0.950 . S
H2863 C2887 0.951 . S
H2864 C2889 0.951 . S
H2865 C2891 0.950 . S
H2866 C2892 0.950 . S
H2867 C2894 0.950 . S
H2868 C2897 0.950 . S
H2869 C2898 0.950 . S
H2870 C2900 0.950 . S
H2871 C2901 0.950 . S
C2872 H2854 0.951 . S
C2872 C2873 1.366 . S
C2872 C2874 1.388 . S
C2873 C2872 1.366 . S
C2873 C2877 1.385 . S
C2874 H2855 0.951 . S
C2874 C2872 1.388 . S
C2874 C2875 1.366 . S
C2875 C2874 1.366 . S
C2875 C2876 1.414 . S
C2875 C2878 1.499 . S
C2876 H2856 0.950 . S
C2876 C2875 1.414 . S
C2876 C2877 1.374 . S
C2877 H2857 0.950 . S
C2877 C2873 1.385 . S
C2877 C2876 1.374 . S
C2878 C2875 1.499 . S
C2878 C2879 1.373 . S
C2878 C2880 1.389 . S
C2879 H2858 0.950 . S
C2879 C2878 1.373 . S
C2879 C2895 1.377 . S
C2880 C2878 1.389 . S
C2880 C2881 1.524 . S
C2880 C2894 1.377 . S
C2881 C2880 1.524 . S
C2881 C2882 1.397 . S
C2881 C2886 1.363 . S
C2882 H2859 0.950 . S
C2882 C2881 1.397 . S
C2882 C2883 1.334 . S
C2883 H2860 0.950 . S
C2883 C2882 1.334 . S
C2883 C2884 1.287 1_554 S
C2884 C2883 1.287 1_556 S
C2884 C2885 1.524 1_556 S
C2884 H2903 0.913 . S
C2885 H2861 0.950 1_554 S
C2885 C2884 1.524 1_554 S
C2885 C2886 1.415 . S
C2886 H2862 0.950 . S
C2886 C2881 1.363 . S
C2886 C2885 1.415 . S
C2887 H2863 0.951 . S
C2887 C2888 1.366 . S
C2887 C2889 1.388 . S
C2888 C2887 1.366 . S
C2888 C2892 1.385 . S
C2889 H2864 0.951 . S
C2889 C2887 1.388 . S
C2889 C2890 1.366 . S
C2890 C2889 1.366 . S
C2890 C2891 1.414 . S
C2890 C2893 1.499 . S
C2891 H2865 0.950 . S
C2891 C2890 1.414 . S
C2891 C2892 1.374 . S
C2892 H2866 0.950 . S
C2892 C2888 1.385 . S
C2892 C2891 1.374 . S
C2893 C2890 1.499 . S
C2893 C2894 1.373 . S
C2893 C2895 1.389 . S
C2894 H2867 0.950 . S
C2894 C2880 1.377 . S
C2894 C2893 1.373 . S
C2895 C2879 1.377 . S
C2895 C2893 1.389 . S
C2895 C2896 1.524 . S
C2896 C2895 1.524 . S
C2896 C2897 1.397 . S
C2896 C2901 1.363 . S
C2897 H2868 0.950 . S
C2897 C2896 1.397 . S
C2897 C2898 1.334 . S
C2898 H2869 0.950 . S
C2898 C2897 1.334 . S
C2898 C2899 1.287 . S
C2899 C2898 1.287 . S
C2899 C2900 1.524 . S
C2899 H2902 0.999 . S
C2900 H2870 0.950 . S
C2900 C2899 1.524 . S
C2900 C2901 1.415 . S
C2901 H2871 0.950 . S
C2901 C2896 1.363 . S
C2901 C2900 1.415 . S
H2902 C2899 0.999 . S
H2903 C2884 0.913 . S
H2904 C2922 0.951 . S
H2905 C2924 0.951 . S
H2906 C2926 0.950 . S
H2907 C2927 0.950 . S
H2908 C2929 0.950 . S
H2909 C2932 0.950 . S
H2910 C2933 0.950 . S
H2911 C2935 0.950 . S
H2912 C2936 0.950 1_655 S
H2913 C2937 0.951 . S
H2914 C2939 0.951 . S
H2915 C2941 0.950 . S
H2916 C2942 0.950 . S
H2917 C2944 0.950 . S
H2918 C2947 0.950 . S
H2919 C2948 0.950 . S
H2920 C2950 0.950 . S
H2921 C2951 0.950 1_455 S
C2922 H2904 0.951 . S
C2922 C2923 1.366 . S
C2922 C2924 1.388 . S
C2923 C2922 1.366 . S
C2923 C2927 1.385 . S
C2924 H2905 0.951 . S
C2924 C2922 1.388 . S
C2924 C2925 1.366 . S
C2925 C2924 1.366 . S
C2925 C2926 1.414 . S
C2925 C2928 1.499 . S
C2926 H2906 0.950 . S
C2926 C2925 1.414 . S
C2926 C2927 1.374 . S
C2927 H2907 0.950 . S
C2927 C2923 1.385 . S
C2927 C2926 1.374 . S
C2928 C2925 1.499 . S
C2928 C2929 1.373 . S
C2928 C2930 1.389 . S
C2929 H2908 0.950 . S
C2929 C2928 1.373 . S
C2929 C2945 1.377 1_455 S
C2930 C2928 1.389 . S
C2930 C2931 1.524 . S
C2930 C2944 1.377 1_455 S
C2931 C2930 1.524 . S
C2931 C2932 1.397 . S
C2931 C2936 1.363 . S
C2932 H2909 0.950 . S
C2932 C2931 1.397 . S
C2932 C2933 1.334 . S
C2933 H2910 0.950 . S
C2933 C2932 1.334 . S
C2933 C2934 1.287 . S
C2934 C2933 1.287 . S
C2934 C2935 1.524 . S
C2934 H2953 0.913 . S
C2935 H2911 0.950 . S
C2935 C2934 1.524 . S
C2935 C2936 1.415 . S
C2936 H2912 0.950 1_455 S
C2936 C2931 1.363 . S
C2936 C2935 1.415 . S
C2937 H2913 0.951 . S
C2937 C2938 1.366 . S
C2937 C2939 1.388 . S
C2938 C2937 1.366 . S
C2938 C2942 1.385 . S
C2939 H2914 0.951 . S
C2939 C2937 1.388 . S
C2939 C2940 1.366 . S
C2940 C2939 1.366 . S
C2940 C2941 1.414 . S
C2940 C2943 1.499 . S
C2941 H2915 0.950 . S
C2941 C2940 1.414 . S
C2941 C2942 1.374 . S
C2942 H2916 0.950 . S
C2942 C2938 1.385 . S
C2942 C2941 1.374 . S
C2943 C2940 1.499 . S
C2943 C2944 1.373 . S
C2943 C2945 1.389 . S
C2944 H2917 0.950 . S
C2944 C2930 1.377 1_655 S
C2944 C2943 1.373 . S
C2945 C2929 1.377 1_655 S
C2945 C2943 1.389 . S
C2945 C2946 1.524 . S
C2946 C2945 1.524 . S
C2946 C2947 1.397 . S
C2946 C2951 1.363 . S
C2947 H2918 0.950 . S
C2947 C2946 1.397 . S
C2947 C2948 1.334 . S
C2948 H2919 0.950 . S
C2948 C2947 1.334 . S
C2948 C2949 1.287 . S
C2949 C2948 1.287 . S
C2949 C2950 1.524 . S
C2949 H2952 0.999 . S
C2950 H2920 0.950 . S
C2950 C2949 1.524 . S
C2950 C2951 1.415 . S
C2951 H2921 0.950 1_655 S
C2951 C2946 1.363 . S
C2951 C2950 1.415 . S
H2952 C2949 0.999 . S
H2953 C2934 0.913 . S
H2954 C2972 0.951 . S
H2955 C2974 0.951 . S
H2956 C2976 0.950 . S
H2957 C2977 0.950 . S
H2958 C2979 0.950 . S
H2959 C2982 0.950 . S
H2960 C2983 0.950 . S
H2961 C2985 0.950 . S
H2962 C2986 0.950 . S
H2963 C2987 0.951 . S
H2964 C2989 0.951 . S
H2965 C2991 0.950 . S
H2966 C2992 0.950 . S
H2967 C2994 0.950 . S
H2968 C2997 0.950 . S
H2969 C2998 0.950 . S
H2970 C3000 0.950 . S
H2971 C3001 0.950 . S
C2972 H2954 0.951 . S
C2972 C2973 1.366 . S
C2972 C2974 1.388 . S
C2973 C2972 1.366 . S
C2973 C2977 1.385 . S
C2974 H2955 0.951 . S
C2974 C2972 1.388 . S
C2974 C2975 1.366 . S
C2975 C2974 1.366 . S
C2975 C2976 1.414 . S
C2975 C2978 1.499 . S
C2976 H2956 0.950 . S
C2976 C2975 1.414 . S
C2976 C2977 1.374 . S
C2977 H2957 0.950 . S
C2977 C2973 1.385 . S
C2977 C2976 1.374 . S
C2978 C2975 1.499 . S
C2978 C2979 1.373 . S
C2978 C2980 1.389 . S
C2979 H2958 0.950 . S
C2979 C2978 1.373 . S
C2979 C2995 1.377 . S
C2980 C2978 1.389 . S
C2980 C2981 1.524 . S
C2980 C2994 1.377 . S
C2981 C2980 1.524 . S
C2981 C2982 1.397 . S
C2981 C2986 1.363 . S
C2982 H2959 0.950 . S
C2982 C2981 1.397 . S
C2982 C2983 1.334 . S
C2983 H2960 0.950 . S
C2983 C2982 1.334 . S
C2983 C2984 1.287 . S
C2984 C2983 1.287 . S
C2984 C2985 1.524 . S
C2984 H3003 0.913 . S
C2985 H2961 0.950 . S
C2985 C2984 1.524 . S
C2985 C2986 1.415 . S
C2986 H2962 0.950 . S
C2986 C2981 1.363 . S
C2986 C2985 1.415 . S
C2987 H2963 0.951 . S
C2987 C2988 1.366 . S
C2987 C2989 1.388 . S
C2988 C2987 1.366 . S
C2988 C2992 1.385 . S
C2989 H2964 0.951 . S
C2989 C2987 1.388 . S
C2989 C2990 1.366 . S
C2990 C2989 1.366 . S
C2990 C2991 1.414 . S
C2990 C2993 1.499 . S
C2991 H2965 0.950 . S
C2991 C2990 1.414 . S
C2991 C2992 1.374 . S
C2992 H2966 0.950 . S
C2992 C2988 1.385 . S
C2992 C2991 1.374 . S
C2993 C2990 1.499 . S
C2993 C2994 1.373 . S
C2993 C2995 1.389 . S
C2994 H2967 0.950 . S
C2994 C2980 1.377 . S
C2994 C2993 1.373 . S
C2995 C2979 1.377 . S
C2995 C2993 1.389 . S
C2995 C2996 1.524 . S
C2996 C2995 1.524 . S
C2996 C2997 1.397 . S
C2996 C3001 1.363 . S
C2997 H2968 0.950 . S
C2997 C2996 1.397 . S
C2997 C2998 1.334 . S
C2998 H2969 0.950 . S
C2998 C2997 1.334 . S
C2998 C2999 1.287 . S
C2999 C2998 1.287 . S
C2999 C3000 1.524 . S
C2999 H3002 0.999 . S
C3000 H2970 0.950 . S
C3000 C2999 1.524 . S
C3000 C3001 1.415 . S
C3001 H2971 0.950 . S
C3001 C2996 1.363 . S
C3001 C3000 1.415 . S
H3002 C2999 0.999 . S
H3003 C2984 0.913 . S
H3004 C3022 0.951 . S
H3005 C3024 0.951 . S
H3006 C3026 0.950 . S
H3007 C3027 0.950 . S
H3008 C3029 0.950 . S
H3009 C3032 0.950 . S
H3010 C3033 0.950 . S
H3011 C3035 0.950 . S
H3012 C3036 0.950 1_565 S
H3013 C3037 0.951 . S
H3014 C3039 0.951 . S
H3015 C3041 0.950 . S
H3016 C3042 0.950 . S
H3017 C3044 0.950 . S
H3018 C3047 0.950 . S
H3019 C3048 0.950 . S
H3020 C3050 0.950 . S
H3021 C3051 0.950 1_545 S
C3022 H3004 0.951 . S
C3022 C3023 1.366 . S
C3022 C3024 1.388 . S
C3023 C3022 1.366 . S
C3023 C3027 1.385 . S
C3024 H3005 0.951 . S
C3024 C3022 1.388 . S
C3024 C3025 1.366 . S
C3025 C3024 1.366 . S
C3025 C3026 1.414 . S
C3025 C3028 1.499 . S
C3026 H3006 0.950 . S
C3026 C3025 1.414 . S
C3026 C3027 1.374 . S
C3027 H3007 0.950 . S
C3027 C3023 1.385 . S
C3027 C3026 1.374 . S
C3028 C3025 1.499 . S
C3028 C3029 1.373 . S
C3028 C3030 1.389 . S
C3029 H3008 0.950 . S
C3029 C3028 1.373 . S
C3029 C3045 1.377 1_545 S
C3030 C3028 1.389 . S
C3030 C3031 1.524 . S
C3030 C3044 1.377 1_545 S
C3031 C3030 1.524 . S
C3031 C3032 1.397 . S
C3031 C3036 1.363 . S
C3032 H3009 0.950 . S
C3032 C3031 1.397 . S
C3032 C3033 1.334 . S
C3033 H3010 0.950 . S
C3033 C3032 1.334 . S
C3033 C3034 1.287 . S
C3034 C3033 1.287 . S
C3034 C3035 1.524 . S
C3034 H3053 0.913 . S
C3035 H3011 0.950 . S
C3035 C3034 1.524 . S
C3035 C3036 1.415 . S
C3036 H3012 0.950 1_545 S
C3036 C3031 1.363 . S
C3036 C3035 1.415 . S
C3037 H3013 0.951 . S
C3037 C3038 1.366 . S
C3037 C3039 1.388 . S
C3038 C3037 1.366 . S
C3038 C3042 1.385 . S
C3039 H3014 0.951 . S
C3039 C3037 1.388 . S
C3039 C3040 1.366 . S
C3040 C3039 1.366 . S
C3040 C3041 1.414 . S
C3040 C3043 1.499 . S
C3041 H3015 0.950 . S
C3041 C3040 1.414 . S
C3041 C3042 1.374 . S
C3042 H3016 0.950 . S
C3042 C3038 1.385 . S
C3042 C3041 1.374 . S
C3043 C3040 1.499 . S
C3043 C3044 1.373 . S
C3043 C3045 1.389 . S
C3044 H3017 0.950 . S
C3044 C3030 1.377 1_565 S
C3044 C3043 1.373 . S
C3045 C3029 1.377 1_565 S
C3045 C3043 1.389 . S
C3045 C3046 1.524 . S
C3046 C3045 1.524 . S
C3046 C3047 1.397 . S
C3046 C3051 1.363 . S
C3047 H3018 0.950 . S
C3047 C3046 1.397 . S
C3047 C3048 1.334 . S
C3048 H3019 0.950 . S
C3048 C3047 1.334 . S
C3048 C3049 1.287 . S
C3049 C3048 1.287 . S
C3049 C3050 1.524 . S
C3049 H3052 0.999 . S
C3050 H3020 0.950 . S
C3050 C3049 1.524 . S
C3050 C3051 1.415 . S
C3051 H3021 0.950 1_565 S
C3051 C3046 1.363 . S
C3051 C3050 1.415 . S
H3052 C3049 0.999 . S
H3053 C3034 0.913 . S
H3054 C3072 0.951 . S
H3055 C3074 0.951 . S
H3056 C3076 0.950 . S
H3057 C3077 0.950 . S
H3058 C3079 0.950 . S
H3059 C3082 0.950 . S
H3060 C3083 0.950 . S
H3061 C3085 0.950 . S
H3062 C3086 0.950 . S
H3063 C3087 0.951 . S
H3064 C3089 0.951 . S
H3065 C3091 0.950 . S
H3066 C3092 0.950 . S
H3067 C3094 0.950 . S
H3068 C3097 0.950 . S
H3069 C3098 0.950 . S
H3070 C3100 0.950 . S
H3071 C3101 0.950 . S
C3072 H3054 0.951 . S
C3072 C3073 1.366 . S
C3072 C3074 1.388 . S
C3073 C3072 1.366 . S
C3073 C3077 1.385 . S
C3074 H3055 0.951 . S
C3074 C3072 1.388 . S
C3074 C3075 1.366 . S
C3075 C3074 1.366 . S
C3075 C3076 1.414 . S
C3075 C3078 1.499 . S
C3076 H3056 0.950 . S
C3076 C3075 1.414 . S
C3076 C3077 1.374 . S
C3077 H3057 0.950 . S
C3077 C3073 1.385 . S
C3077 C3076 1.374 . S
C3078 C3075 1.499 . S
C3078 C3079 1.373 . S
C3078 C3080 1.389 . S
C3079 H3058 0.950 . S
C3079 C3078 1.373 . S
C3079 C3095 1.377 1_545 S
C3080 C3078 1.389 . S
C3080 C3081 1.524 . S
C3080 C3094 1.377 1_545 S
C3081 C3080 1.524 . S
C3081 C3082 1.397 . S
C3081 C3086 1.363 . S
C3082 H3059 0.950 . S
C3082 C3081 1.397 . S
C3082 C3083 1.334 . S
C3083 H3060 0.950 . S
C3083 C3082 1.334 . S
C3083 C3084 1.287 . S
C3084 C3083 1.287 . S
C3084 C3085 1.524 . S
C3084 H3103 0.913 . S
C3085 H3061 0.950 . S
C3085 C3084 1.524 . S
C3085 C3086 1.415 . S
C3086 H3062 0.950 . S
C3086 C3081 1.363 . S
C3086 C3085 1.415 . S
C3087 H3063 0.951 . S
C3087 C3088 1.366 . S
C3087 C3089 1.388 . S
C3088 C3087 1.366 . S
C3088 C3092 1.385 . S
C3089 H3064 0.951 . S
C3089 C3087 1.388 . S
C3089 C3090 1.366 . S
C3090 C3089 1.366 . S
C3090 C3091 1.414 . S
C3090 C3093 1.499 . S
C3091 H3065 0.950 . S
C3091 C3090 1.414 . S
C3091 C3092 1.374 . S
C3092 H3066 0.950 . S
C3092 C3088 1.385 . S
C3092 C3091 1.374 . S
C3093 C3090 1.499 . S
C3093 C3094 1.373 . S
C3093 C3095 1.389 . S
C3094 H3067 0.950 . S
C3094 C3080 1.377 1_565 S
C3094 C3093 1.373 . S
C3095 C3079 1.377 1_565 S
C3095 C3093 1.389 . S
C3095 C3096 1.524 . S
C3096 C3095 1.524 . S
C3096 C3097 1.397 . S
C3096 C3101 1.363 . S
C3097 H3068 0.950 . S
C3097 C3096 1.397 . S
C3097 C3098 1.334 . S
C3098 H3069 0.950 . S
C3098 C3097 1.334 . S
C3098 C3099 1.287 . S
C3099 C3098 1.287 . S
C3099 C3100 1.524 . S
C3099 H3102 0.999 . S
C3100 H3070 0.950 . S
C3100 C3099 1.524 . S
C3100 C3101 1.415 . S
C3101 H3071 0.950 . S
C3101 C3096 1.363 . S
C3101 C3100 1.415 . S
H3102 C3099 0.999 . S
H3103 C3084 0.913 . S
H3104 C3122 0.951 . S
H3105 C3124 0.951 . S
H3106 C3126 0.950 . S
H3107 C3127 0.950 . S
H3108 C3129 0.950 . S
H3109 C3132 0.950 . S
H3110 C3133 0.950 . S
H3111 C3135 0.950 . S
H3112 C3136 0.950 . S
H3113 C3137 0.951 . S
H3114 C3139 0.951 . S
H3115 C3141 0.950 . S
H3116 C3142 0.950 . S
H3117 C3144 0.950 . S
H3118 C3147 0.950 . S
H3119 C3148 0.950 . S
H3120 C3150 0.950 . S
H3121 C3151 0.950 . S
C3122 H3104 0.951 . S
C3122 C3123 1.366 . S
C3122 C3124 1.388 . S
C3123 C3122 1.366 . S
C3123 C3127 1.385 . S
C3124 H3105 0.951 . S
C3124 C3122 1.388 . S
C3124 C3125 1.366 . S
C3125 C3124 1.366 . S
C3125 C3126 1.414 . S
C3125 C3128 1.499 . S
C3126 H3106 0.950 . S
C3126 C3125 1.414 . S
C3126 C3127 1.374 . S
C3127 H3107 0.950 . S
C3127 C3123 1.385 . S
C3127 C3126 1.374 . S
C3128 C3125 1.499 . S
C3128 C3129 1.373 . S
C3128 C3130 1.389 . S
C3129 H3108 0.950 . S
C3129 C3128 1.373 . S
C3129 C3145 1.377 1_655 S
C3130 C3128 1.389 . S
C3130 C3131 1.524 . S
C3130 C3144 1.377 1_655 S
C3131 C3130 1.524 . S
C3131 C3132 1.397 . S
C3131 C3136 1.363 . S
C3132 H3109 0.950 . S
C3132 C3131 1.397 . S
C3132 C3133 1.334 . S
C3133 H3110 0.950 . S
C3133 C3132 1.334 . S
C3133 C3134 1.287 . S
C3134 C3133 1.287 . S
C3134 C3135 1.524 . S
C3134 H3153 0.913 . S
C3135 H3111 0.950 . S
C3135 C3134 1.524 . S
C3135 C3136 1.415 . S
C3136 H3112 0.950 . S
C3136 C3131 1.363 . S
C3136 C3135 1.415 . S
C3137 H3113 0.951 . S
C3137 C3138 1.366 . S
C3137 C3139 1.388 . S
C3138 C3137 1.366 . S
C3138 C3142 1.385 . S
C3139 H3114 0.951 . S
C3139 C3137 1.388 . S
C3139 C3140 1.366 . S
C3140 C3139 1.366 . S
C3140 C3141 1.414 . S
C3140 C3143 1.499 . S
C3141 H3115 0.950 . S
C3141 C3140 1.414 . S
C3141 C3142 1.374 . S
C3142 H3116 0.950 . S
C3142 C3138 1.385 . S
C3142 C3141 1.374 . S
C3143 C3140 1.499 . S
C3143 C3144 1.373 . S
C3143 C3145 1.389 . S
C3144 H3117 0.950 . S
C3144 C3130 1.377 1_455 S
C3144 C3143 1.373 . S
C3145 C3129 1.377 1_455 S
C3145 C3143 1.389 . S
C3145 C3146 1.524 . S
C3146 C3145 1.524 . S
C3146 C3147 1.397 . S
C3146 C3151 1.363 . S
C3147 H3118 0.950 . S
C3147 C3146 1.397 . S
C3147 C3148 1.334 . S
C3148 H3119 0.950 . S
C3148 C3147 1.334 . S
C3148 C3149 1.287 . S
C3149 C3148 1.287 . S
C3149 C3150 1.524 . S
C3149 H3152 0.999 . S
C3150 H3120 0.950 . S
C3150 C3149 1.524 . S
C3150 C3151 1.415 . S
C3151 H3121 0.950 . S
C3151 C3146 1.363 . S
C3151 C3150 1.415 . S
H3152 C3149 0.999 . S
H3153 C3134 0.913 . S
H3154 C3172 0.951 . S
H3155 C3174 0.951 . S
H3156 C3176 0.950 . S
H3157 C3177 0.950 . S
H3158 C3179 0.950 . S
H3159 C3182 0.950 . S
H3160 C3183 0.950 . S
H3161 C3185 0.950 . S
H3162 C3186 0.950 . S
H3163 C3187 0.951 . S
H3164 C3189 0.951 . S
H3165 C3191 0.950 . S
H3166 C3192 0.950 . S
H3167 C3194 0.950 . S
H3168 C3197 0.950 . S
H3169 C3198 0.950 . S
H3170 C3200 0.950 . S
H3171 C3201 0.950 . S
C3172 H3154 0.951 . S
C3172 C3173 1.366 . S
C3172 C3174 1.388 . S
C3173 C3172 1.366 . S
C3173 C3177 1.385 . S
C3174 H3155 0.951 . S
C3174 C3172 1.388 . S
C3174 C3175 1.366 . S
C3175 C3174 1.366 . S
C3175 C3176 1.414 . S
C3175 C3178 1.499 . S
C3176 H3156 0.950 . S
C3176 C3175 1.414 . S
C3176 C3177 1.374 . S
C3177 H3157 0.950 . S
C3177 C3173 1.385 . S
C3177 C3176 1.374 . S
C3178 C3175 1.499 . S
C3178 C3179 1.373 . S
C3178 C3180 1.389 . S
C3179 H3158 0.950 . S
C3179 C3178 1.373 . S
C3179 C3195 1.377 . S
C3180 C3178 1.389 . S
C3180 C3181 1.524 . S
C3180 C3194 1.377 . S
C3181 C3180 1.524 . S
C3181 C3182 1.397 . S
C3181 C3186 1.363 . S
C3182 H3159 0.950 . S
C3182 C3181 1.397 . S
C3182 C3183 1.334 . S
C3183 H3160 0.950 . S
C3183 C3182 1.334 . S
C3183 C3184 1.287 . S
C3184 C3183 1.287 . S
C3184 C3185 1.524 . S
C3184 H3203 0.913 . S
C3185 H3161 0.950 . S
C3185 C3184 1.524 . S
C3185 C3186 1.415 . S
C3186 H3162 0.950 . S
C3186 C3181 1.363 . S
C3186 C3185 1.415 . S
C3187 H3163 0.951 . S
C3187 C3188 1.366 . S
C3187 C3189 1.388 . S
C3188 C3187 1.366 . S
C3188 C3192 1.385 . S
C3189 H3164 0.951 . S
C3189 C3187 1.388 . S
C3189 C3190 1.366 . S
C3190 C3189 1.366 . S
C3190 C3191 1.414 . S
C3190 C3193 1.499 . S
C3191 H3165 0.950 . S
C3191 C3190 1.414 . S
C3191 C3192 1.374 . S
C3192 H3166 0.950 . S
C3192 C3188 1.385 . S
C3192 C3191 1.374 . S
C3193 C3190 1.499 . S
C3193 C3194 1.373 . S
C3193 C3195 1.389 . S
C3194 H3167 0.950 . S
C3194 C3180 1.377 . S
C3194 C3193 1.373 . S
C3195 C3179 1.377 . S
C3195 C3193 1.389 . S
C3195 C3196 1.524 . S
C3196 C3195 1.524 . S
C3196 C3197 1.397 . S
C3196 C3201 1.363 . S
C3197 H3168 0.950 . S
C3197 C3196 1.397 . S
C3197 C3198 1.334 . S
C3198 H3169 0.950 . S
C3198 C3197 1.334 . S
C3198 C3199 1.287 . S
C3199 C3198 1.287 . S
C3199 C3200 1.524 . S
C3199 H3202 0.999 . S
C3200 H3170 0.950 . S
C3200 C3199 1.524 . S
C3200 C3201 1.415 . S
C3201 H3171 0.950 . S
C3201 C3196 1.363 . S
C3201 C3200 1.415 . S
H3202 C3199 0.999 . S
H3203 C3184 0.913 . S
H3204 C3222 0.951 . S
H3205 C3224 0.951 . S
H3206 C3226 0.950 . S
H3207 C3227 0.950 . S
H3208 C3229 0.950 . S
H3209 C3232 0.950 . S
H3210 C3233 0.950 . S
H3211 C3235 0.950 . S
H3212 C3236 0.950 . S
H3213 C3237 0.951 . S
H3214 C3239 0.951 . S
H3215 C3241 0.950 . S
H3216 C3242 0.950 . S
H3217 C3244 0.950 . S
H3218 C3247 0.950 . S
H3219 C3248 0.950 . S
H3220 C3250 0.950 . S
H3221 C3251 0.950 . S
C3222 H3204 0.951 . S
C3222 C3223 1.366 . S
C3222 C3224 1.388 . S
C3223 C3222 1.366 . S
C3223 C3227 1.385 . S
C3224 H3205 0.951 . S
C3224 C3222 1.388 . S
C3224 C3225 1.366 . S
C3225 C3224 1.366 . S
C3225 C3226 1.414 . S
C3225 C3228 1.499 . S
C3226 H3206 0.950 . S
C3226 C3225 1.414 . S
C3226 C3227 1.374 . S
C3227 H3207 0.950 . S
C3227 C3223 1.385 . S
C3227 C3226 1.374 . S
C3228 C3225 1.499 . S
C3228 C3229 1.373 . S
C3228 C3230 1.389 . S
C3229 H3208 0.950 . S
C3229 C3228 1.373 . S
C3229 C3245 1.377 . S
C3230 C3228 1.389 . S
C3230 C3231 1.524 . S
C3230 C3244 1.377 . S
C3231 C3230 1.524 . S
C3231 C3232 1.397 . S
C3231 C3236 1.363 . S
C3232 H3209 0.950 . S
C3232 C3231 1.397 . S
C3232 C3233 1.334 . S
C3233 H3210 0.950 . S
C3233 C3232 1.334 . S
C3233 C3234 1.287 . S
C3234 C3233 1.287 . S
C3234 C3235 1.524 . S
C3234 H3253 0.913 . S
C3235 H3211 0.950 . S
C3235 C3234 1.524 . S
C3235 C3236 1.415 . S
C3236 H3212 0.950 . S
C3236 C3231 1.363 . S
C3236 C3235 1.415 . S
C3237 H3213 0.951 . S
C3237 C3238 1.366 . S
C3237 C3239 1.388 . S
C3238 C3237 1.366 . S
C3238 C3242 1.385 . S
C3239 H3214 0.951 . S
C3239 C3237 1.388 . S
C3239 C3240 1.366 . S
C3240 C3239 1.366 . S
C3240 C3241 1.414 . S
C3240 C3243 1.499 . S
C3241 H3215 0.950 . S
C3241 C3240 1.414 . S
C3241 C3242 1.374 . S
C3242 H3216 0.950 . S
C3242 C3238 1.385 . S
C3242 C3241 1.374 . S
C3243 C3240 1.499 . S
C3243 C3244 1.373 . S
C3243 C3245 1.389 . S
C3244 H3217 0.950 . S
C3244 C3230 1.377 . S
C3244 C3243 1.373 . S
C3245 C3229 1.377 . S
C3245 C3243 1.389 . S
C3245 C3246 1.524 . S
C3246 C3245 1.524 . S
C3246 C3247 1.397 . S
C3246 C3251 1.363 . S
C3247 H3218 0.950 . S
C3247 C3246 1.397 . S
C3247 C3248 1.334 . S
C3248 H3219 0.950 . S
C3248 C3247 1.334 . S
C3248 C3249 1.287 . S
C3249 C3248 1.287 . S
C3249 C3250 1.524 . S
C3249 H3252 0.999 . S
C3250 H3220 0.950 . S
C3250 C3249 1.524 . S
C3250 C3251 1.415 . S
C3251 H3221 0.950 . S
C3251 C3246 1.363 . S
C3251 C3250 1.415 . S
H3252 C3249 0.999 . S
H3253 C3234 0.913 . S
H3254 C3272 0.951 . S
H3255 C3274 0.951 . S
H3256 C3276 0.950 . S
H3257 C3277 0.950 . S
H3258 C3279 0.950 . S
H3259 C3282 0.950 . S
H3260 C3283 0.950 . S
H3261 C3285 0.950 . S
H3262 C3286 0.950 . S
H3263 C3287 0.951 . S
H3264 C3289 0.951 . S
H3265 C3291 0.950 . S
H3266 C3292 0.950 . S
H3267 C3294 0.950 . S
H3268 C3297 0.950 . S
H3269 C3298 0.950 . S
H3270 C3300 0.950 . S
H3271 C3301 0.950 . S
C3272 H3254 0.951 . S
C3272 C3273 1.366 . S
C3272 C3274 1.388 . S
C3273 C3272 1.366 . S
C3273 C3277 1.385 . S
C3274 H3255 0.951 . S
C3274 C3272 1.388 . S
C3274 C3275 1.366 . S
C3275 C3274 1.366 . S
C3275 C3276 1.414 . S
C3275 C3278 1.499 . S
C3276 H3256 0.950 . S
C3276 C3275 1.414 . S
C3276 C3277 1.374 . S
C3277 H3257 0.950 . S
C3277 C3273 1.385 . S
C3277 C3276 1.374 . S
C3278 C3275 1.499 . S
C3278 C3279 1.373 . S
C3278 C3280 1.389 . S
C3279 H3258 0.950 . S
C3279 C3278 1.373 . S
C3279 C3295 1.377 . S
C3280 C3278 1.389 . S
C3280 C3281 1.524 . S
C3280 C3294 1.377 . S
C3281 C3280 1.524 . S
C3281 C3282 1.397 . S
C3281 C3286 1.363 . S
C3282 H3259 0.950 . S
C3282 C3281 1.397 . S
C3282 C3283 1.334 . S
C3283 H3260 0.950 . S
C3283 C3282 1.334 . S
C3283 C3284 1.287 . S
C3284 C3283 1.287 . S
C3284 C3285 1.524 . S
C3284 H3303 0.913 . S
C3285 H3261 0.950 . S
C3285 C3284 1.524 . S
C3285 C3286 1.415 . S
C3286 H3262 0.950 . S
C3286 C3281 1.363 . S
C3286 C3285 1.415 . S
C3287 H3263 0.951 . S
C3287 C3288 1.366 . S
C3287 C3289 1.388 . S
C3288 C3287 1.366 . S
C3288 C3292 1.385 . S
C3289 H3264 0.951 . S
C3289 C3287 1.388 . S
C3289 C3290 1.366 . S
C3290 C3289 1.366 . S
C3290 C3291 1.414 . S
C3290 C3293 1.499 . S
C3291 H3265 0.950 . S
C3291 C3290 1.414 . S
C3291 C3292 1.374 . S
C3292 H3266 0.950 . S
C3292 C3288 1.385 . S
C3292 C3291 1.374 . S
C3293 C3290 1.499 . S
C3293 C3294 1.373 . S
C3293 C3295 1.389 . S
C3294 H3267 0.950 . S
C3294 C3280 1.377 . S
C3294 C3293 1.373 . S
C3295 C3279 1.377 . S
C3295 C3293 1.389 . S
C3295 C3296 1.524 . S
C3296 C3295 1.524 . S
C3296 C3297 1.397 . S
C3296 C3301 1.363 . S
C3297 H3268 0.950 . S
C3297 C3296 1.397 . S
C3297 C3298 1.334 . S
C3298 H3269 0.950 . S
C3298 C3297 1.334 . S
C3298 C3299 1.287 . S
C3299 C3298 1.287 . S
C3299 C3300 1.524 . S
C3299 H3302 0.999 . S
C3300 H3270 0.950 . S
C3300 C3299 1.524 . S
C3300 C3301 1.415 . S
C3301 H3271 0.950 . S
C3301 C3296 1.363 . S
C3301 C3300 1.415 . S
H3302 C3299 0.999 . S
H3303 C3284 0.913 . S
H3304 C3322 0.951 . S
H3305 C3324 0.951 . S
H3306 C3326 0.950 . S
H3307 C3327 0.950 . S
H3308 C3329 0.950 . S
H3309 C3332 0.950 . S
H3310 C3333 0.950 . S
H3311 C3335 0.950 . S
H3312 C3336 0.950 . S
H3313 C3337 0.951 . S
H3314 C3339 0.951 . S
H3315 C3341 0.950 . S
H3316 C3342 0.950 . S
H3317 C3344 0.950 . S
H3318 C3347 0.950 . S
H3319 C3348 0.950 . S
H3320 C3350 0.950 . S
H3321 C3351 0.950 . S
C3322 H3304 0.951 . S
C3322 C3323 1.366 . S
C3322 C3324 1.388 . S
C3323 C3322 1.366 . S
C3323 C3327 1.385 . S
C3324 H3305 0.951 . S
C3324 C3322 1.388 . S
C3324 C3325 1.366 . S
C3325 C3324 1.366 . S
C3325 C3326 1.414 . S
C3325 C3328 1.499 . S
C3326 H3306 0.950 . S
C3326 C3325 1.414 . S
C3326 C3327 1.374 . S
C3327 H3307 0.950 . S
C3327 C3323 1.385 . S
C3327 C3326 1.374 . S
C3328 C3325 1.499 . S
C3328 C3329 1.373 . S
C3328 C3330 1.389 . S
C3329 H3308 0.950 . S
C3329 C3328 1.373 . S
C3329 C3345 1.377 . S
C3330 C3328 1.389 . S
C3330 C3331 1.524 . S
C3330 C3344 1.377 . S
C3331 C3330 1.524 . S
C3331 C3332 1.397 . S
C3331 C3336 1.363 . S
C3332 H3309 0.950 . S
C3332 C3331 1.397 . S
C3332 C3333 1.334 . S
C3333 H3310 0.950 . S
C3333 C3332 1.334 . S
C3333 C3334 1.287 . S
C3334 C3333 1.287 . S
C3334 C3335 1.524 . S
C3334 H3353 0.913 . S
C3335 H3311 0.950 . S
C3335 C3334 1.524 . S
C3335 C3336 1.415 . S
C3336 H3312 0.950 . S
C3336 C3331 1.363 . S
C3336 C3335 1.415 . S
C3337 H3313 0.951 . S
C3337 C3338 1.366 . S
C3337 C3339 1.388 . S
C3338 C3337 1.366 . S
C3338 C3342 1.385 . S
C3339 H3314 0.951 . S
C3339 C3337 1.388 . S
C3339 C3340 1.366 . S
C3340 C3339 1.366 . S
C3340 C3341 1.414 . S
C3340 C3343 1.499 . S
C3341 H3315 0.950 . S
C3341 C3340 1.414 . S
C3341 C3342 1.374 . S
C3342 H3316 0.950 . S
C3342 C3338 1.385 . S
C3342 C3341 1.374 . S
C3343 C3340 1.499 . S
C3343 C3344 1.373 . S
C3343 C3345 1.389 . S
C3344 H3317 0.950 . S
C3344 C3330 1.377 . S
C3344 C3343 1.373 . S
C3345 C3329 1.377 . S
C3345 C3343 1.389 . S
C3345 C3346 1.524 . S
C3346 C3345 1.524 . S
C3346 C3347 1.397 . S
C3346 C3351 1.363 . S
C3347 H3318 0.950 . S
C3347 C3346 1.397 . S
C3347 C3348 1.334 . S
C3348 H3319 0.950 . S
C3348 C3347 1.334 . S
C3348 C3349 1.287 . S
C3349 C3348 1.287 . S
C3349 C3350 1.524 . S
C3349 H3352 0.999 . S
C3350 H3320 0.950 . S
C3350 C3349 1.524 . S
C3350 C3351 1.415 . S
C3351 H3321 0.950 . S
C3351 C3346 1.363 . S
C3351 C3350 1.415 . S
H3352 C3349 0.999 . S
H3353 C3334 0.913 . S
H3354 C3372 0.951 . S
H3355 C3374 0.951 . S
H3356 C3376 0.950 . S
H3357 C3377 0.950 . S
H3358 C3379 0.950 . S
H3359 C3382 0.950 . S
H3360 C3383 0.950 . S
H3361 C3385 0.950 . S
H3362 C3386 0.950 . S
H3363 C3387 0.951 . S
H3364 C3389 0.951 . S
H3365 C3391 0.950 . S
H3366 C3392 0.950 . S
H3367 C3394 0.950 . S
H3368 C3397 0.950 . S
H3369 C3398 0.950 . S
H3370 C3400 0.950 . S
H3371 C3401 0.950 . S
C3372 H3354 0.951 . S
C3372 C3373 1.366 . S
C3372 C3374 1.388 . S
C3373 C3372 1.366 . S
C3373 C3377 1.385 . S
C3374 H3355 0.951 . S
C3374 C3372 1.388 . S
C3374 C3375 1.366 . S
C3375 C3374 1.366 . S
C3375 C3376 1.414 . S
C3375 C3378 1.499 . S
C3376 H3356 0.950 . S
C3376 C3375 1.414 . S
C3376 C3377 1.374 . S
C3377 H3357 0.950 . S
C3377 C3373 1.385 . S
C3377 C3376 1.374 . S
C3378 C3375 1.499 . S
C3378 C3379 1.373 . S
C3378 C3380 1.389 . S
C3379 H3358 0.950 . S
C3379 C3378 1.373 . S
C3379 C3395 1.377 . S
C3380 C3378 1.389 . S
C3380 C3381 1.524 . S
C3380 C3394 1.377 . S
C3381 C3380 1.524 . S
C3381 C3382 1.397 . S
C3381 C3386 1.363 . S
C3382 H3359 0.950 . S
C3382 C3381 1.397 . S
C3382 C3383 1.334 . S
C3383 H3360 0.950 . S
C3383 C3382 1.334 . S
C3383 C3384 1.287 . S
C3384 C3383 1.287 . S
C3384 C3385 1.524 . S
C3384 H3403 0.913 . S
C3385 H3361 0.950 . S
C3385 C3384 1.524 . S
C3385 C3386 1.415 . S
C3386 H3362 0.950 . S
C3386 C3381 1.363 . S
C3386 C3385 1.415 . S
C3387 H3363 0.951 . S
C3387 C3388 1.366 . S
C3387 C3389 1.388 . S
C3388 C3387 1.366 . S
C3388 C3392 1.385 . S
C3389 H3364 0.951 . S
C3389 C3387 1.388 . S
C3389 C3390 1.366 . S
C3390 C3389 1.366 . S
C3390 C3391 1.414 . S
C3390 C3393 1.499 . S
C3391 H3365 0.950 . S
C3391 C3390 1.414 . S
C3391 C3392 1.374 . S
C3392 H3366 0.950 . S
C3392 C3388 1.385 . S
C3392 C3391 1.374 . S
C3393 C3390 1.499 . S
C3393 C3394 1.373 . S
C3393 C3395 1.389 . S
C3394 H3367 0.950 . S
C3394 C3380 1.377 . S
C3394 C3393 1.373 . S
C3395 C3379 1.377 . S
C3395 C3393 1.389 . S
C3395 C3396 1.524 . S
C3396 C3395 1.524 . S
C3396 C3397 1.397 . S
C3396 C3401 1.363 . S
C3397 H3368 0.950 . S
C3397 C3396 1.397 . S
C3397 C3398 1.334 . S
C3398 H3369 0.950 . S
C3398 C3397 1.334 . S
C3398 C3399 1.287 . S
C3399 C3398 1.287 . S
C3399 C3400 1.524 . S
C3399 H3402 0.999 . S
C3400 H3370 0.950 . S
C3400 C3399 1.524 . S
C3400 C3401 1.415 . S
C3401 H3371 0.950 . S
C3401 C3396 1.363 . S
C3401 C3400 1.415 . S
H3402 C3399 0.999 . S
H3403 C3384 0.913 . S
H3404 C3422 0.951 . S
H3405 C3424 0.951 . S
H3406 C3426 0.950 . S
H3407 C3427 0.950 . S
H3408 C3429 0.950 . S
H3409 C3432 0.950 . S
H3410 C3433 0.950 . S
H3411 C3435 0.950 . S
H3412 C3436 0.950 . S
H3413 C3437 0.951 . S
H3414 C3439 0.951 . S
H3415 C3441 0.950 . S
H3416 C3442 0.950 . S
H3417 C3444 0.950 . S
H3418 C3447 0.950 . S
H3419 C3448 0.950 . S
H3420 C3450 0.950 . S
H3421 C3451 0.950 . S
C3422 H3404 0.951 . S
C3422 C3423 1.366 . S
C3422 C3424 1.388 . S
C3423 C3422 1.366 . S
C3423 C3427 1.385 . S
C3424 H3405 0.951 . S
C3424 C3422 1.388 . S
C3424 C3425 1.366 . S
C3425 C3424 1.366 . S
C3425 C3426 1.414 . S
C3425 C3428 1.499 . S
C3426 H3406 0.950 . S
C3426 C3425 1.414 . S
C3426 C3427 1.374 . S
C3427 H3407 0.950 . S
C3427 C3423 1.385 . S
C3427 C3426 1.374 . S
C3428 C3425 1.499 . S
C3428 C3429 1.373 . S
C3428 C3430 1.389 . S
C3429 H3408 0.950 . S
C3429 C3428 1.373 . S
C3429 C3445 1.377 . S
C3430 C3428 1.389 . S
C3430 C3431 1.524 . S
C3430 C3444 1.377 . S
C3431 C3430 1.524 . S
C3431 C3432 1.397 . S
C3431 C3436 1.363 . S
C3432 H3409 0.950 . S
C3432 C3431 1.397 . S
C3432 C3433 1.334 . S
C3433 H3410 0.950 . S
C3433 C3432 1.334 . S
C3433 C3434 1.287 . S
C3434 C3433 1.287 . S
C3434 C3435 1.524 . S
C3434 H3453 0.913 . S
C3435 H3411 0.950 . S
C3435 C3434 1.524 . S
C3435 C3436 1.415 . S
C3436 H3412 0.950 . S
C3436 C3431 1.363 . S
C3436 C3435 1.415 . S
C3437 H3413 0.951 . S
C3437 C3438 1.366 . S
C3437 C3439 1.388 . S
C3438 C3437 1.366 . S
C3438 C3442 1.385 . S
C3439 H3414 0.951 . S
C3439 C3437 1.388 . S
C3439 C3440 1.366 . S
C3440 C3439 1.366 . S
C3440 C3441 1.414 . S
C3440 C3443 1.499 . S
C3441 H3415 0.950 . S
C3441 C3440 1.414 . S
C3441 C3442 1.374 . S
C3442 H3416 0.950 . S
C3442 C3438 1.385 . S
C3442 C3441 1.374 . S
C3443 C3440 1.499 . S
C3443 C3444 1.373 . S
C3443 C3445 1.389 . S
C3444 H3417 0.950 . S
C3444 C3430 1.377 . S
C3444 C3443 1.373 . S
C3445 C3429 1.377 . S
C3445 C3443 1.389 . S
C3445 C3446 1.524 . S
C3446 C3445 1.524 . S
C3446 C3447 1.397 . S
C3446 C3451 1.363 . S
C3447 H3418 0.950 . S
C3447 C3446 1.397 . S
C3447 C3448 1.334 . S
C3448 H3419 0.950 . S
C3448 C3447 1.334 . S
C3448 C3449 1.287 . S
C3449 C3448 1.287 . S
C3449 C3450 1.524 . S
C3449 H3452 0.999 . S
C3450 H3420 0.950 . S
C3450 C3449 1.524 . S
C3450 C3451 1.415 . S
C3451 H3421 0.950 . S
C3451 C3446 1.363 . S
C3451 C3450 1.415 . S
H3452 C3449 0.999 . S
H3453 C3434 0.913 . S
H3454 C3472 0.951 . S
H3455 C3474 0.951 . S
H3456 C3476 0.950 . S
H3457 C3477 0.950 . S
H3458 C3479 0.950 . S
H3459 C3482 0.950 . S
H3460 C3483 0.950 . S
H3461 C3485 0.950 . S
H3462 C3486 0.950 . S
H3463 C3487 0.951 . S
H3464 C3489 0.951 . S
H3465 C3491 0.950 . S
H3466 C3492 0.950 . S
H3467 C3494 0.950 . S
H3468 C3497 0.950 . S
H3469 C3498 0.950 . S
H3470 C3500 0.950 . S
H3471 C3501 0.950 . S
C3472 H3454 0.951 . S
C3472 C3473 1.366 . S
C3472 C3474 1.388 . S
C3473 C3472 1.366 . S
C3473 C3477 1.385 . S
C3474 H3455 0.951 . S
C3474 C3472 1.388 . S
C3474 C3475 1.366 . S
C3475 C3474 1.366 . S
C3475 C3476 1.414 . S
C3475 C3478 1.499 . S
C3476 H3456 0.950 . S
C3476 C3475 1.414 . S
C3476 C3477 1.374 . S
C3477 H3457 0.950 . S
C3477 C3473 1.385 . S
C3477 C3476 1.374 . S
C3478 C3475 1.499 . S
C3478 C3479 1.373 . S
C3478 C3480 1.389 . S
C3479 H3458 0.950 . S
C3479 C3478 1.373 . S
C3479 C3495 1.377 . S
C3480 C3478 1.389 . S
C3480 C3481 1.524 . S
C3480 C3494 1.377 . S
C3481 C3480 1.524 . S
C3481 C3482 1.397 . S
C3481 C3486 1.363 . S
C3482 H3459 0.950 . S
C3482 C3481 1.397 . S
C3482 C3483 1.334 . S
C3483 H3460 0.950 . S
C3483 C3482 1.334 . S
C3483 C3484 1.287 . S
C3484 C3483 1.287 . S
C3484 C3485 1.524 . S
C3484 H3503 0.913 . S
C3485 H3461 0.950 . S
C3485 C3484 1.524 . S
C3485 C3486 1.415 . S
C3486 H3462 0.950 . S
C3486 C3481 1.363 . S
C3486 C3485 1.415 . S
C3487 H3463 0.951 . S
C3487 C3488 1.366 . S
C3487 C3489 1.388 . S
C3488 C3487 1.366 . S
C3488 C3492 1.385 . S
C3489 H3464 0.951 . S
C3489 C3487 1.388 . S
C3489 C3490 1.366 . S
C3490 C3489 1.366 . S
C3490 C3491 1.414 . S
C3490 C3493 1.499 . S
C3491 H3465 0.950 . S
C3491 C3490 1.414 . S
C3491 C3492 1.374 . S
C3492 H3466 0.950 . S
C3492 C3488 1.385 . S
C3492 C3491 1.374 . S
C3493 C3490 1.499 . S
C3493 C3494 1.373 . S
C3493 C3495 1.389 . S
C3494 H3467 0.950 . S
C3494 C3480 1.377 . S
C3494 C3493 1.373 . S
C3495 C3479 1.377 . S
C3495 C3493 1.389 . S
C3495 C3496 1.524 . S
C3496 C3495 1.524 . S
C3496 C3497 1.397 . S
C3496 C3501 1.363 . S
C3497 H3468 0.950 . S
C3497 C3496 1.397 . S
C3497 C3498 1.334 . S
C3498 H3469 0.950 . S
C3498 C3497 1.334 . S
C3498 C3499 1.287 . S
C3499 C3498 1.287 . S
C3499 C3500 1.524 . S
C3499 H3502 0.999 . S
C3500 H3470 0.950 . S
C3500 C3499 1.524 . S
C3500 C3501 1.415 . S
C3501 H3471 0.950 . S
C3501 C3496 1.363 . S
C3501 C3500 1.415 . S
H3502 C3499 0.999 . S
H3503 C3484 0.913 . S
H3504 C3522 0.951 . S
H3505 C3524 0.951 . S
H3506 C3526 0.950 . S
H3507 C3527 0.950 . S
H3508 C3529 0.950 . S
H3509 C3532 0.950 . S
H3510 C3533 0.950 . S
H3511 C3535 0.950 . S
H3512 C3536 0.950 . S
H3513 C3537 0.951 . S
H3514 C3539 0.951 . S
H3515 C3541 0.950 . S
H3516 C3542 0.950 . S
H3517 C3544 0.950 . S
H3518 C3547 0.950 . S
H3519 C3548 0.950 . S
H3520 C3550 0.950 . S
H3521 C3551 0.950 . S
C3522 H3504 0.951 . S
C3522 C3523 1.366 . S
C3522 C3524 1.388 . S
C3523 C3522 1.366 . S
C3523 C3527 1.385 . S
C3524 H3505 0.951 . S
C3524 C3522 1.388 . S
C3524 C3525 1.366 . S
C3525 C3524 1.366 . S
C3525 C3526 1.414 . S
C3525 C3528 1.499 . S
C3526 H3506 0.950 . S
C3526 C3525 1.414 . S
C3526 C3527 1.374 . S
C3527 H3507 0.950 . S
C3527 C3523 1.385 . S
C3527 C3526 1.374 . S
C3528 C3525 1.499 . S
C3528 C3529 1.373 . S
C3528 C3530 1.389 . S
C3529 H3508 0.950 . S
C3529 C3528 1.373 . S
C3529 C3545 1.377 . S
C3530 C3528 1.389 . S
C3530 C3531 1.524 . S
C3530 C3544 1.377 . S
C3531 C3530 1.524 . S
C3531 C3532 1.397 . S
C3531 C3536 1.363 . S
C3532 H3509 0.950 . S
C3532 C3531 1.397 . S
C3532 C3533 1.334 . S
C3533 H3510 0.950 . S
C3533 C3532 1.334 . S
C3533 C3534 1.287 . S
C3534 C3533 1.287 . S
C3534 C3535 1.524 . S
C3534 H3553 0.913 . S
C3535 H3511 0.950 . S
C3535 C3534 1.524 . S
C3535 C3536 1.415 . S
C3536 H3512 0.950 . S
C3536 C3531 1.363 . S
C3536 C3535 1.415 . S
C3537 H3513 0.951 . S
C3537 C3538 1.366 . S
C3537 C3539 1.388 . S
C3538 C3537 1.366 . S
C3538 C3542 1.385 . S
C3539 H3514 0.951 . S
C3539 C3537 1.388 . S
C3539 C3540 1.366 . S
C3540 C3539 1.366 . S
C3540 C3541 1.414 . S
C3540 C3543 1.499 . S
C3541 H3515 0.950 . S
C3541 C3540 1.414 . S
C3541 C3542 1.374 . S
C3542 H3516 0.950 . S
C3542 C3538 1.385 . S
C3542 C3541 1.374 . S
C3543 C3540 1.499 . S
C3543 C3544 1.373 . S
C3543 C3545 1.389 . S
C3544 H3517 0.950 . S
C3544 C3530 1.377 . S
C3544 C3543 1.373 . S
C3545 C3529 1.377 . S
C3545 C3543 1.389 . S
C3545 C3546 1.524 . S
C3546 C3545 1.524 . S
C3546 C3547 1.397 . S
C3546 C3551 1.363 . S
C3547 H3518 0.950 . S
C3547 C3546 1.397 . S
C3547 C3548 1.334 . S
C3548 H3519 0.950 . S
C3548 C3547 1.334 . S
C3548 C3549 1.287 . S
C3549 C3548 1.287 . S
C3549 C3550 1.524 . S
C3549 H3552 0.999 . S
C3550 H3520 0.950 . S
C3550 C3549 1.524 . S
C3550 C3551 1.415 . S
C3551 H3521 0.950 . S
C3551 C3546 1.363 . S
C3551 C3550 1.415 . S
H3552 C3549 0.999 . S
H3553 C3534 0.913 . S
H3554 C3572 0.951 . S
H3555 C3574 0.951 . S
H3556 C3576 0.950 . S
H3557 C3577 0.950 . S
H3558 C3579 0.950 . S
H3559 C3582 0.950 . S
H3560 C3583 0.950 . S
H3561 C3585 0.950 . S
H3562 C3586 0.950 . S
H3563 C3587 0.951 . S
H3564 C3589 0.951 . S
H3565 C3591 0.950 . S
H3566 C3592 0.950 . S
H3567 C3594 0.950 . S
H3568 C3597 0.950 . S
H3569 C3598 0.950 . S
H3570 C3600 0.950 . S
H3571 C3601 0.950 . S
C3572 H3554 0.951 . S
C3572 C3573 1.366 . S
C3572 C3574 1.388 . S
C3573 C3572 1.366 . S
C3573 C3577 1.385 . S
C3574 H3555 0.951 . S
C3574 C3572 1.388 . S
C3574 C3575 1.366 . S
C3575 C3574 1.366 . S
C3575 C3576 1.414 . S
C3575 C3578 1.499 . S
C3576 H3556 0.950 . S
C3576 C3575 1.414 . S
C3576 C3577 1.374 . S
C3577 H3557 0.950 . S
C3577 C3573 1.385 . S
C3577 C3576 1.374 . S
C3578 C3575 1.499 . S
C3578 C3579 1.373 . S
C3578 C3580 1.389 . S
C3579 H3558 0.950 . S
C3579 C3578 1.373 . S
C3579 C3595 1.377 . S
C3580 C3578 1.389 . S
C3580 C3581 1.524 . S
C3580 C3594 1.377 . S
C3581 C3580 1.524 . S
C3581 C3582 1.397 . S
C3581 C3586 1.363 . S
C3582 H3559 0.950 . S
C3582 C3581 1.397 . S
C3582 C3583 1.334 . S
C3583 H3560 0.950 . S
C3583 C3582 1.334 . S
C3583 C3584 1.287 . S
C3584 C3583 1.287 . S
C3584 C3585 1.524 . S
C3584 H3603 0.913 . S
C3585 H3561 0.950 . S
C3585 C3584 1.524 . S
C3585 C3586 1.415 . S
C3586 H3562 0.950 . S
C3586 C3581 1.363 . S
C3586 C3585 1.415 . S
C3587 H3563 0.951 . S
C3587 C3588 1.366 . S
C3587 C3589 1.388 . S
C3588 C3587 1.366 . S
C3588 C3592 1.385 . S
C3589 H3564 0.951 . S
C3589 C3587 1.388 . S
C3589 C3590 1.366 . S
C3590 C3589 1.366 . S
C3590 C3591 1.414 . S
C3590 C3593 1.499 . S
C3591 H3565 0.950 . S
C3591 C3590 1.414 . S
C3591 C3592 1.374 . S
C3592 H3566 0.950 . S
C3592 C3588 1.385 . S
C3592 C3591 1.374 . S
C3593 C3590 1.499 . S
C3593 C3594 1.373 . S
C3593 C3595 1.389 . S
C3594 H3567 0.950 . S
C3594 C3580 1.377 . S
C3594 C3593 1.373 . S
C3595 C3579 1.377 . S
C3595 C3593 1.389 . S
C3595 C3596 1.524 . S
C3596 C3595 1.524 . S
C3596 C3597 1.397 . S
C3596 C3601 1.363 . S
C3597 H3568 0.950 . S
C3597 C3596 1.397 . S
C3597 C3598 1.334 . S
C3598 H3569 0.950 . S
C3598 C3597 1.334 . S
C3598 C3599 1.287 . S
C3599 C3598 1.287 . S
C3599 C3600 1.524 . S
C3599 H3602 0.999 . S
C3600 H3570 0.950 . S
C3600 C3599 1.524 . S
C3600 C3601 1.415 . S
C3601 H3571 0.950 . S
C3601 C3596 1.363 . S
C3601 C3600 1.415 . S
H3602 C3599 0.999 . S
H3603 C3584 0.913 . S
H3604 C3622 0.951 . S
H3605 C3624 0.951 . S
H3606 C3626 0.950 . S
H3607 C3627 0.950 . S
H3608 C3629 0.950 . S
H3609 C3632 0.950 . S
H3610 C3633 0.950 . S
H3611 C3635 0.950 . S
H3612 C3636 0.950 . S
H3613 C3637 0.951 . S
H3614 C3639 0.951 . S
H3615 C3641 0.950 . S
H3616 C3642 0.950 . S
H3617 C3644 0.950 . S
H3618 C3647 0.950 . S
H3619 C3648 0.950 . S
H3620 C3650 0.950 . S
H3621 C3651 0.950 . S
C3622 H3604 0.951 . S
C3622 C3623 1.366 . S
C3622 C3624 1.388 . S
C3623 C3622 1.366 . S
C3623 C3627 1.385 . S
C3624 H3605 0.951 . S
C3624 C3622 1.388 . S
C3624 C3625 1.366 . S
C3625 C3624 1.366 . S
C3625 C3626 1.414 . S
C3625 C3628 1.499 . S
C3626 H3606 0.950 . S
C3626 C3625 1.414 . S
C3626 C3627 1.374 . S
C3627 H3607 0.950 . S
C3627 C3623 1.385 . S
C3627 C3626 1.374 . S
C3628 C3625 1.499 . S
C3628 C3629 1.373 . S
C3628 C3630 1.389 . S
C3629 H3608 0.950 . S
C3629 C3628 1.373 . S
C3629 C3645 1.377 . S
C3630 C3628 1.389 . S
C3630 C3631 1.524 . S
C3630 C3644 1.377 . S
C3631 C3630 1.524 . S
C3631 C3632 1.397 . S
C3631 C3636 1.363 . S
C3632 H3609 0.950 . S
C3632 C3631 1.397 . S
C3632 C3633 1.334 . S
C3633 H3610 0.950 . S
C3633 C3632 1.334 . S
C3633 C3634 1.287 . S
C3634 C3633 1.287 . S
C3634 C3635 1.524 . S
C3634 H3653 0.913 . S
C3635 H3611 0.950 . S
C3635 C3634 1.524 . S
C3635 C3636 1.415 . S
C3636 H3612 0.950 . S
C3636 C3631 1.363 . S
C3636 C3635 1.415 . S
C3637 H3613 0.951 . S
C3637 C3638 1.366 . S
C3637 C3639 1.388 . S
C3638 C3637 1.366 . S
C3638 C3642 1.385 . S
C3639 H3614 0.951 . S
C3639 C3637 1.388 . S
C3639 C3640 1.366 . S
C3640 C3639 1.366 . S
C3640 C3641 1.414 . S
C3640 C3643 1.499 . S
C3641 H3615 0.950 . S
C3641 C3640 1.414 . S
C3641 C3642 1.374 . S
C3642 H3616 0.950 . S
C3642 C3638 1.385 . S
C3642 C3641 1.374 . S
C3643 C3640 1.499 . S
C3643 C3644 1.373 . S
C3643 C3645 1.389 . S
C3644 H3617 0.950 . S
C3644 C3630 1.377 . S
C3644 C3643 1.373 . S
C3645 C3629 1.377 . S
C3645 C3643 1.389 . S
C3645 C3646 1.524 . S
C3646 C3645 1.524 . S
C3646 C3647 1.397 . S
C3646 C3651 1.363 . S
C3647 H3618 0.950 . S
C3647 C3646 1.397 . S
C3647 C3648 1.334 . S
C3648 H3619 0.950 . S
C3648 C3647 1.334 . S
C3648 C3649 1.287 . S
C3649 C3648 1.287 . S
C3649 C3650 1.524 . S
C3649 H3652 0.999 . S
C3650 H3620 0.950 . S
C3650 C3649 1.524 . S
C3650 C3651 1.415 . S
C3651 H3621 0.950 . S
C3651 C3646 1.363 . S
C3651 C3650 1.415 . S
H3652 C3649 0.999 . S
H3653 C3634 0.913 . S
H3654 C3672 0.951 . S
H3655 C3674 0.951 . S
H3656 C3676 0.950 . S
H3657 C3677 0.950 . S
H3658 C3679 0.950 . S
H3659 C3682 0.950 . S
H3660 C3683 0.950 . S
H3661 C3685 0.950 . S
H3662 C3686 0.950 . S
H3663 C3687 0.951 . S
H3664 C3689 0.951 . S
H3665 C3691 0.950 . S
H3666 C3692 0.950 . S
H3667 C3694 0.950 . S
H3668 C3697 0.950 . S
H3669 C3698 0.950 . S
H3670 C3700 0.950 . S
H3671 C3701 0.950 . S
C3672 H3654 0.951 . S
C3672 C3673 1.366 . S
C3672 C3674 1.388 . S
C3673 C3672 1.366 . S
C3673 C3677 1.385 . S
C3674 H3655 0.951 . S
C3674 C3672 1.388 . S
C3674 C3675 1.366 . S
C3675 C3674 1.366 . S
C3675 C3676 1.414 . S
C3675 C3678 1.499 . S
C3676 H3656 0.950 . S
C3676 C3675 1.414 . S
C3676 C3677 1.374 . S
C3677 H3657 0.950 . S
C3677 C3673 1.385 . S
C3677 C3676 1.374 . S
C3678 C3675 1.499 . S
C3678 C3679 1.373 . S
C3678 C3680 1.389 . S
C3679 H3658 0.950 . S
C3679 C3678 1.373 . S
C3679 C3695 1.377 . S
C3680 C3678 1.389 . S
C3680 C3681 1.524 . S
C3680 C3694 1.377 . S
C3681 C3680 1.524 . S
C3681 C3682 1.397 . S
C3681 C3686 1.363 . S
C3682 H3659 0.950 . S
C3682 C3681 1.397 . S
C3682 C3683 1.334 . S
C3683 H3660 0.950 . S
C3683 C3682 1.334 . S
C3683 C3684 1.287 . S
C3684 C3683 1.287 . S
C3684 C3685 1.524 . S
C3684 H3703 0.913 . S
C3685 H3661 0.950 . S
C3685 C3684 1.524 . S
C3685 C3686 1.415 . S
C3686 H3662 0.950 . S
C3686 C3681 1.363 . S
C3686 C3685 1.415 . S
C3687 H3663 0.951 . S
C3687 C3688 1.366 . S
C3687 C3689 1.388 . S
C3688 C3687 1.366 . S
C3688 C3692 1.385 . S
C3689 H3664 0.951 . S
C3689 C3687 1.388 . S
C3689 C3690 1.366 . S
C3690 C3689 1.366 . S
C3690 C3691 1.414 . S
C3690 C3693 1.499 . S
C3691 H3665 0.950 . S
C3691 C3690 1.414 . S
C3691 C3692 1.374 . S
C3692 H3666 0.950 . S
C3692 C3688 1.385 . S
C3692 C3691 1.374 . S
C3693 C3690 1.499 . S
C3693 C3694 1.373 . S
C3693 C3695 1.389 . S
C3694 H3667 0.950 . S
C3694 C3680 1.377 . S
C3694 C3693 1.373 . S
C3695 C3679 1.377 . S
C3695 C3693 1.389 . S
C3695 C3696 1.524 . S
C3696 C3695 1.524 . S
C3696 C3697 1.397 . S
C3696 C3701 1.363 . S
C3697 H3668 0.950 . S
C3697 C3696 1.397 . S
C3697 C3698 1.334 . S
C3698 H3669 0.950 . S
C3698 C3697 1.334 . S
C3698 C3699 1.287 . S
C3699 C3698 1.287 . S
C3699 C3700 1.524 . S
C3699 H3702 0.999 . S
C3700 H3670 0.950 . S
C3700 C3699 1.524 . S
C3700 C3701 1.415 . S
C3701 H3671 0.950 . S
C3701 C3696 1.363 . S
C3701 C3700 1.415 . S
H3702 C3699 0.999 . S
H3703 C3684 0.913 . S
H3704 C3722 0.951 . S
H3705 C3724 0.951 . S
H3706 C3726 0.950 . S
H3707 C3727 0.950 . S
H3708 C3729 0.950 . S
H3709 C3732 0.950 . S
H3710 C3733 0.950 . S
H3711 C3735 0.950 . S
H3712 C3736 0.950 . S
H3713 C3737 0.951 . S
H3714 C3739 0.951 . S
H3715 C3741 0.950 . S
H3716 C3742 0.950 . S
H3717 C3744 0.950 . S
H3718 C3747 0.950 . S
H3719 C3748 0.950 . S
H3720 C3750 0.950 . S
H3721 C3751 0.950 . S
C3722 H3704 0.951 . S
C3722 C3723 1.366 . S
C3722 C3724 1.388 . S
C3723 C3722 1.366 . S
C3723 C3727 1.385 . S
C3724 H3705 0.951 . S
C3724 C3722 1.388 . S
C3724 C3725 1.366 . S
C3725 C3724 1.366 . S
C3725 C3726 1.414 . S
C3725 C3728 1.499 . S
C3726 H3706 0.950 . S
C3726 C3725 1.414 . S
C3726 C3727 1.374 . S
C3727 H3707 0.950 . S
C3727 C3723 1.385 . S
C3727 C3726 1.374 . S
C3728 C3725 1.499 . S
C3728 C3729 1.373 . S
C3728 C3730 1.389 . S
C3729 H3708 0.950 . S
C3729 C3728 1.373 . S
C3729 C3745 1.377 . S
C3730 C3728 1.389 . S
C3730 C3731 1.524 . S
C3730 C3744 1.377 . S
C3731 C3730 1.524 . S
C3731 C3732 1.397 . S
C3731 C3736 1.363 . S
C3732 H3709 0.950 . S
C3732 C3731 1.397 . S
C3732 C3733 1.334 . S
C3733 H3710 0.950 . S
C3733 C3732 1.334 . S
C3733 C3734 1.287 . S
C3734 C3733 1.287 . S
C3734 C3735 1.524 . S
C3734 H3753 0.913 . S
C3735 H3711 0.950 . S
C3735 C3734 1.524 . S
C3735 C3736 1.415 . S
C3736 H3712 0.950 . S
C3736 C3731 1.363 . S
C3736 C3735 1.415 . S
C3737 H3713 0.951 . S
C3737 C3738 1.366 . S
C3737 C3739 1.388 . S
C3738 C3737 1.366 . S
C3738 C3742 1.385 . S
C3739 H3714 0.951 . S
C3739 C3737 1.388 . S
C3739 C3740 1.366 . S
C3740 C3739 1.366 . S
C3740 C3741 1.414 . S
C3740 C3743 1.499 . S
C3741 H3715 0.950 . S
C3741 C3740 1.414 . S
C3741 C3742 1.374 . S
C3742 H3716 0.950 . S
C3742 C3738 1.385 . S
C3742 C3741 1.374 . S
C3743 C3740 1.499 . S
C3743 C3744 1.373 . S
C3743 C3745 1.389 . S
C3744 H3717 0.950 . S
C3744 C3730 1.377 . S
C3744 C3743 1.373 . S
C3745 C3729 1.377 . S
C3745 C3743 1.389 . S
C3745 C3746 1.524 . S
C3746 C3745 1.524 . S
C3746 C3747 1.397 1_554 S
C3746 C3751 1.363 . S
C3747 H3718 0.950 . S
C3747 C3746 1.397 1_556 S
C3747 C3748 1.334 . S
C3748 H3719 0.950 . S
C3748 C3747 1.334 . S
C3748 C3749 1.287 . S
C3749 C3748 1.287 . S
C3749 C3750 1.524 1_556 S
C3749 H3752 0.999 . S
C3750 H3720 0.950 . S
C3750 C3749 1.524 1_554 S
C3750 C3751 1.415 . S
C3751 H3721 0.950 . S
C3751 C3746 1.363 . S
C3751 C3750 1.415 . S
H3752 C3749 0.999 . S
H3753 C3734 0.913 . S
H3754 C3772 0.951 . S
H3755 C3774 0.951 . S
H3756 C3776 0.950 . S
H3757 C3777 0.950 . S
H3758 C3779 0.950 . S
H3759 C3782 0.950 . S
H3760 C3783 0.950 . S
H3761 C3785 0.950 . S
H3762 C3786 0.950 . S
H3763 C3787 0.951 . S
H3764 C3789 0.951 . S
H3765 C3791 0.950 . S
H3766 C3792 0.950 . S
H3767 C3794 0.950 . S
H3768 C3797 0.950 . S
H3769 C3798 0.950 . S
H3770 C3800 0.950 . S
H3771 C3801 0.950 . S
C3772 H3754 0.951 . S
C3772 C3773 1.366 . S
C3772 C3774 1.388 . S
C3773 C3772 1.366 . S
C3773 C3777 1.385 . S
C3774 H3755 0.951 . S
C3774 C3772 1.388 . S
C3774 C3775 1.366 . S
C3775 C3774 1.366 . S
C3775 C3776 1.414 . S
C3775 C3778 1.499 . S
C3776 H3756 0.950 . S
C3776 C3775 1.414 . S
C3776 C3777 1.374 . S
C3777 H3757 0.950 . S
C3777 C3773 1.385 . S
C3777 C3776 1.374 . S
C3778 C3775 1.499 . S
C3778 C3779 1.373 . S
C3778 C3780 1.389 . S
C3779 H3758 0.950 . S
C3779 C3778 1.373 . S
C3779 C3795 1.377 . S
C3780 C3778 1.389 . S
C3780 C3781 1.524 . S
C3780 C3794 1.377 . S
C3781 C3780 1.524 . S
C3781 C3782 1.397 . S
C3781 C3786 1.363 . S
C3782 H3759 0.950 . S
C3782 C3781 1.397 . S
C3782 C3783 1.334 . S
C3783 H3760 0.950 . S
C3783 C3782 1.334 . S
C3783 C3784 1.287 . S
C3784 C3783 1.287 . S
C3784 C3785 1.524 . S
C3784 H3803 0.913 . S
C3785 H3761 0.950 . S
C3785 C3784 1.524 . S
C3785 C3786 1.415 . S
C3786 H3762 0.950 . S
C3786 C3781 1.363 . S
C3786 C3785 1.415 . S
C3787 H3763 0.951 . S
C3787 C3788 1.366 . S
C3787 C3789 1.388 . S
C3788 C3787 1.366 . S
C3788 C3792 1.385 . S
C3789 H3764 0.951 . S
C3789 C3787 1.388 . S
C3789 C3790 1.366 . S
C3790 C3789 1.366 . S
C3790 C3791 1.414 . S
C3790 C3793 1.499 . S
C3791 H3765 0.950 . S
C3791 C3790 1.414 . S
C3791 C3792 1.374 . S
C3792 H3766 0.950 . S
C3792 C3788 1.385 . S
C3792 C3791 1.374 . S
C3793 C3790 1.499 . S
C3793 C3794 1.373 . S
C3793 C3795 1.389 . S
C3794 H3767 0.950 . S
C3794 C3780 1.377 . S
C3794 C3793 1.373 . S
C3795 C3779 1.377 . S
C3795 C3793 1.389 . S
C3795 C3796 1.524 . S
C3796 C3795 1.524 . S
C3796 C3797 1.397 . S
C3796 C3801 1.363 1_554 S
C3797 H3768 0.950 . S
C3797 C3796 1.397 . S
C3797 C3798 1.334 . S
C3798 H3769 0.950 . S
C3798 C3797 1.334 . S
C3798 C3799 1.287 1_554 S
C3799 C3798 1.287 1_556 S
C3799 C3800 1.524 . S
C3799 H3802 0.999 . S
C3800 H3770 0.950 . S
C3800 C3799 1.524 . S
C3800 C3801 1.415 . S
C3801 H3771 0.950 . S
C3801 C3796 1.363 1_556 S
C3801 C3800 1.415 . S
H3802 C3799 0.999 . S
H3803 C3784 0.913 . S
H3804 C3822 0.951 . S
H3805 C3824 0.951 . S
H3806 C3826 0.950 . S
H3807 C3827 0.950 . S
H3808 C3829 0.950 . S
H3809 C3832 0.950 . S
H3810 C3833 0.950 . S
H3811 C3835 0.950 . S
H3812 C3836 0.950 . S
H3813 C3837 0.951 . S
H3814 C3839 0.951 . S
H3815 C3841 0.950 . S
H3816 C3842 0.950 . S
H3817 C3844 0.950 . S
H3818 C3847 0.950 . S
H3819 C3848 0.950 . S
H3820 C3850 0.950 . S
H3821 C3851 0.950 . S
C3822 H3804 0.951 . S
C3822 C3823 1.366 . S
C3822 C3824 1.388 . S
C3823 C3822 1.366 . S
C3823 C3827 1.385 . S
C3824 H3805 0.951 . S
C3824 C3822 1.388 . S
C3824 C3825 1.366 . S
C3825 C3824 1.366 . S
C3825 C3826 1.414 . S
C3825 C3828 1.499 . S
C3826 H3806 0.950 . S
C3826 C3825 1.414 . S
C3826 C3827 1.374 . S
C3827 H3807 0.950 . S
C3827 C3823 1.385 . S
C3827 C3826 1.374 . S
C3828 C3825 1.499 . S
C3828 C3829 1.373 . S
C3828 C3830 1.389 . S
C3829 H3808 0.950 . S
C3829 C3828 1.373 . S
C3829 C3845 1.377 . S
C3830 C3828 1.389 . S
C3830 C3831 1.524 . S
C3830 C3844 1.377 . S
C3831 C3830 1.524 . S
C3831 C3832 1.397 . S
C3831 C3836 1.363 . S
C3832 H3809 0.950 . S
C3832 C3831 1.397 . S
C3832 C3833 1.334 . S
C3833 H3810 0.950 . S
C3833 C3832 1.334 . S
C3833 C3834 1.287 . S
C3834 C3833 1.287 . S
C3834 C3835 1.524 . S
C3834 H3853 0.913 . S
C3835 H3811 0.950 . S
C3835 C3834 1.524 . S
C3835 C3836 1.415 . S
C3836 H3812 0.950 . S
C3836 C3831 1.363 . S
C3836 C3835 1.415 . S
C3837 H3813 0.951 . S
C3837 C3838 1.366 . S
C3837 C3839 1.388 . S
C3838 C3837 1.366 . S
C3838 C3842 1.385 . S
C3839 H3814 0.951 . S
C3839 C3837 1.388 . S
C3839 C3840 1.366 . S
C3840 C3839 1.366 . S
C3840 C3841 1.414 . S
C3840 C3843 1.499 . S
C3841 H3815 0.950 . S
C3841 C3840 1.414 . S
C3841 C3842 1.374 . S
C3842 H3816 0.950 . S
C3842 C3838 1.385 . S
C3842 C3841 1.374 . S
C3843 C3840 1.499 . S
C3843 C3844 1.373 . S
C3843 C3845 1.389 . S
C3844 H3817 0.950 . S
C3844 C3830 1.377 . S
C3844 C3843 1.373 . S
C3845 C3829 1.377 . S
C3845 C3843 1.389 . S
C3845 C3846 1.524 . S
C3846 C3845 1.524 . S
C3846 C3847 1.397 . S
C3846 C3851 1.363 . S
C3847 H3818 0.950 . S
C3847 C3846 1.397 . S
C3847 C3848 1.334 . S
C3848 H3819 0.950 . S
C3848 C3847 1.334 . S
C3848 C3849 1.287 . S
C3849 C3848 1.287 . S
C3849 C3850 1.524 . S
C3849 H3852 0.999 . S
C3850 H3820 0.950 . S
C3850 C3849 1.524 . S
C3850 C3851 1.415 . S
C3851 H3821 0.950 . S
C3851 C3846 1.363 . S
C3851 C3850 1.415 . S
H3852 C3849 0.999 . S
H3853 C3834 0.913 . S
H3854 C3872 0.951 . S
H3855 C3874 0.951 . S
H3856 C3876 0.950 . S
H3857 C3877 0.950 . S
H3858 C3879 0.950 . S
H3859 C3882 0.950 . S
H3860 C3883 0.950 . S
H3861 C3885 0.950 . S
H3862 C3886 0.950 . S
H3863 C3887 0.951 . S
H3864 C3889 0.951 . S
H3865 C3891 0.950 . S
H3866 C3892 0.950 . S
H3867 C3894 0.950 . S
H3868 C3897 0.950 . S
H3869 C3898 0.950 . S
H3870 C3900 0.950 . S
H3871 C3901 0.950 . S
C3872 H3854 0.951 . S
C3872 C3873 1.366 . S
C3872 C3874 1.388 . S
C3873 C3872 1.366 . S
C3873 C3877 1.385 . S
C3874 H3855 0.951 . S
C3874 C3872 1.388 . S
C3874 C3875 1.366 . S
C3875 C3874 1.366 . S
C3875 C3876 1.414 . S
C3875 C3878 1.499 . S
C3876 H3856 0.950 . S
C3876 C3875 1.414 . S
C3876 C3877 1.374 . S
C3877 H3857 0.950 . S
C3877 C3873 1.385 . S
C3877 C3876 1.374 . S
C3878 C3875 1.499 . S
C3878 C3879 1.373 . S
C3878 C3880 1.389 . S
C3879 H3858 0.950 . S
C3879 C3878 1.373 . S
C3879 C3895 1.377 . S
C3880 C3878 1.389 . S
C3880 C3881 1.524 . S
C3880 C3894 1.377 . S
C3881 C3880 1.524 . S
C3881 C3882 1.397 1_556 S
C3881 C3886 1.363 . S
C3882 H3859 0.950 . S
C3882 C3881 1.397 1_554 S
C3882 C3883 1.334 . S
C3883 H3860 0.950 . S
C3883 C3882 1.334 . S
C3883 C3884 1.287 . S
C3884 C3883 1.287 . S
C3884 C3885 1.524 1_554 S
C3884 H3903 0.913 . S
C3885 H3861 0.950 . S
C3885 C3884 1.524 1_556 S
C3885 C3886 1.415 . S
C3886 H3862 0.950 . S
C3886 C3881 1.363 . S
C3886 C3885 1.415 . S
C3887 H3863 0.951 . S
C3887 C3888 1.366 . S
C3887 C3889 1.388 . S
C3888 C3887 1.366 . S
C3888 C3892 1.385 . S
C3889 H3864 0.951 . S
C3889 C3887 1.388 . S
C3889 C3890 1.366 . S
C3890 C3889 1.366 . S
C3890 C3891 1.414 . S
C3890 C3893 1.499 . S
C3891 H3865 0.950 . S
C3891 C3890 1.414 . S
C3891 C3892 1.374 . S
C3892 H3866 0.950 . S
C3892 C3888 1.385 . S
C3892 C3891 1.374 . S
C3893 C3890 1.499 . S
C3893 C3894 1.373 . S
C3893 C3895 1.389 . S
C3894 H3867 0.950 . S
C3894 C3880 1.377 . S
C3894 C3893 1.373 . S
C3895 C3879 1.377 . S
C3895 C3893 1.389 . S
C3895 C3896 1.524 . S
C3896 C3895 1.524 . S
C3896 C3897 1.397 . S
C3896 C3901 1.363 . S
C3897 H3868 0.950 . S
C3897 C3896 1.397 . S
C3897 C3898 1.334 . S
C3898 H3869 0.950 . S
C3898 C3897 1.334 . S
C3898 C3899 1.287 . S
C3899 C3898 1.287 . S
C3899 C3900 1.524 . S
C3899 H3902 0.999 . S
C3900 H3870 0.950 . S
C3900 C3899 1.524 . S
C3900 C3901 1.415 . S
C3901 H3871 0.950 . S
C3901 C3896 1.363 . S
C3901 C3900 1.415 . S
H3902 C3899 0.999 . S
H3903 C3884 0.913 . S
H3904 C3922 0.951 . S
H3905 C3924 0.951 . S
H3906 C3926 0.950 . S
H3907 C3927 0.950 . S
H3908 C3929 0.950 . S
H3909 C3932 0.950 . S
H3910 C3933 0.950 . S
H3911 C3935 0.950 . S
H3912 C3936 0.950 . S
H3913 C3937 0.951 . S
H3914 C3939 0.951 . S
H3915 C3941 0.950 . S
H3916 C3942 0.950 . S
H3917 C3944 0.950 . S
H3918 C3947 0.950 . S
H3919 C3948 0.950 1_554 S
H3920 C3950 0.950 . S
H3921 C3951 0.950 . S
C3922 H3904 0.951 . S
C3922 C3923 1.366 . S
C3922 C3924 1.388 . S
C3923 C3922 1.366 . S
C3923 C3927 1.385 . S
C3924 H3905 0.951 . S
C3924 C3922 1.388 . S
C3924 C3925 1.366 . S
C3925 C3924 1.366 . S
C3925 C3926 1.414 . S
C3925 C3928 1.499 . S
C3926 H3906 0.950 . S
C3926 C3925 1.414 . S
C3926 C3927 1.374 . S
C3927 H3907 0.950 . S
C3927 C3923 1.385 . S
C3927 C3926 1.374 . S
C3928 C3925 1.499 . S
C3928 C3929 1.373 . S
C3928 C3930 1.389 . S
C3929 H3908 0.950 . S
C3929 C3928 1.373 . S
C3929 C3945 1.377 . S
C3930 C3928 1.389 . S
C3930 C3931 1.524 . S
C3930 C3944 1.377 . S
C3931 C3930 1.524 . S
C3931 C3932 1.397 . S
C3931 C3936 1.363 . S
C3932 H3909 0.950 . S
C3932 C3931 1.397 . S
C3932 C3933 1.334 . S
C3933 H3910 0.950 . S
C3933 C3932 1.334 . S
C3933 C3934 1.287 . S
C3934 C3933 1.287 . S
C3934 C3935 1.524 . S
C3934 H3953 0.913 . S
C3935 H3911 0.950 . S
C3935 C3934 1.524 . S
C3935 C3936 1.415 . S
C3936 H3912 0.950 . S
C3936 C3931 1.363 . S
C3936 C3935 1.415 . S
C3937 H3913 0.951 . S
C3937 C3938 1.366 . S
C3937 C3939 1.388 . S
C3938 C3937 1.366 . S
C3938 C3942 1.385 . S
C3939 H3914 0.951 . S
C3939 C3937 1.388 . S
C3939 C3940 1.366 . S
C3940 C3939 1.366 . S
C3940 C3941 1.414 . S
C3940 C3943 1.499 . S
C3941 H3915 0.950 . S
C3941 C3940 1.414 . S
C3941 C3942 1.374 . S
C3942 H3916 0.950 . S
C3942 C3938 1.385 . S
C3942 C3941 1.374 . S
C3943 C3940 1.499 . S
C3943 C3944 1.373 . S
C3943 C3945 1.389 . S
C3944 H3917 0.950 . S
C3944 C3930 1.377 . S
C3944 C3943 1.373 . S
C3945 C3929 1.377 . S
C3945 C3943 1.389 . S
C3945 C3946 1.524 . S
C3946 C3945 1.524 . S
C3946 C3947 1.397 . S
C3946 C3951 1.363 . S
C3947 H3918 0.950 . S
C3947 C3946 1.397 . S
C3947 C3948 1.334 . S
C3948 H3919 0.950 1_556 S
C3948 C3947 1.334 . S
C3948 C3949 1.287 . S
C3949 C3948 1.287 . S
C3949 C3950 1.524 . S
C3949 H3952 0.999 . S
C3950 H3920 0.950 . S
C3950 C3949 1.524 . S
C3950 C3951 1.415 . S
C3951 H3921 0.950 . S
C3951 C3946 1.363 . S
C3951 C3950 1.415 . S
H3952 C3949 0.999 . S
H3953 C3934 0.913 . S
H3954 C3972 0.951 . S
H3955 C3974 0.951 . S
H3956 C3976 0.950 . S
H3957 C3977 0.950 . S
H3958 C3979 0.950 . S
H3959 C3982 0.950 . S
H3960 C3983 0.950 . S
H3961 C3985 0.950 . S
H3962 C3986 0.950 . S
H3963 C3987 0.951 . S
H3964 C3989 0.951 . S
H3965 C3991 0.950 . S
H3966 C3992 0.950 . S
H3967 C3994 0.950 . S
H3968 C3997 0.950 . S
H3969 C3998 0.950 . S
H3970 C4000 0.950 . S
H3971 C4001 0.950 . S
C3972 H3954 0.951 . S
C3972 C3973 1.366 . S
C3972 C3974 1.388 . S
C3973 C3972 1.366 . S
C3973 C3977 1.385 . S
C3974 H3955 0.951 . S
C3974 C3972 1.388 . S
C3974 C3975 1.366 . S
C3975 C3974 1.366 . S
C3975 C3976 1.414 . S
C3975 C3978 1.499 . S
C3976 H3956 0.950 . S
C3976 C3975 1.414 . S
C3976 C3977 1.374 . S
C3977 H3957 0.950 . S
C3977 C3973 1.385 . S
C3977 C3976 1.374 . S
C3978 C3975 1.499 . S
C3978 C3979 1.373 . S
C3978 C3980 1.389 . S
C3979 H3958 0.950 . S
C3979 C3978 1.373 . S
C3979 C3995 1.377 . S
C3980 C3978 1.389 . S
C3980 C3981 1.524 . S
C3980 C3994 1.377 . S
C3981 C3980 1.524 . S
C3981 C3982 1.397 . S
C3981 C3986 1.363 . S
C3982 H3959 0.950 . S
C3982 C3981 1.397 . S
C3982 C3983 1.334 . S
C3983 H3960 0.950 . S
C3983 C3982 1.334 . S
C3983 C3984 1.287 . S
C3984 C3983 1.287 . S
C3984 C3985 1.524 . S
C3984 H4003 0.913 . S
C3985 H3961 0.950 . S
C3985 C3984 1.524 . S
C3985 C3986 1.415 . S
C3986 H3962 0.950 . S
C3986 C3981 1.363 . S
C3986 C3985 1.415 . S
C3987 H3963 0.951 . S
C3987 C3988 1.366 . S
C3987 C3989 1.388 . S
C3988 C3987 1.366 . S
C3988 C3992 1.385 . S
C3989 H3964 0.951 . S
C3989 C3987 1.388 . S
C3989 C3990 1.366 . S
C3990 C3989 1.366 . S
C3990 C3991 1.414 . S
C3990 C3993 1.499 . S
C3991 H3965 0.950 . S
C3991 C3990 1.414 . S
C3991 C3992 1.374 . S
C3992 H3966 0.950 . S
C3992 C3988 1.385 . S
C3992 C3991 1.374 . S
C3993 C3990 1.499 . S
C3993 C3994 1.373 . S
C3993 C3995 1.389 . S
C3994 H3967 0.950 . S
C3994 C3980 1.377 . S
C3994 C3993 1.373 . S
C3995 C3979 1.377 . S
C3995 C3993 1.389 . S
C3995 C3996 1.524 . S
C3996 C3995 1.524 . S
C3996 C3997 1.397 . S
C3996 C4001 1.363 . S
C3997 H3968 0.950 . S
C3997 C3996 1.397 . S
C3997 C3998 1.334 . S
C3998 H3969 0.950 . S
C3998 C3997 1.334 . S
C3998 C3999 1.287 . S
C3999 C3998 1.287 . S
C3999 C4000 1.524 . S
C3999 H4002 0.999 . S
C4000 H3970 0.950 . S
C4000 C3999 1.524 . S
C4000 C4001 1.415 . S
C4001 H3971 0.950 . S
C4001 C3996 1.363 . S
C4001 C4000 1.415 . S
H4002 C3999 0.999 . S
H4003 C3984 0.913 . S
H4004 C4022 0.951 . S
H4005 C4024 0.951 . S
H4006 C4026 0.950 . S
H4007 C4027 0.950 . S
H4008 C4029 0.950 . S
H4009 C4032 0.950 . S
H4010 C4033 0.950 . S
H4011 C4035 0.950 . S
H4012 C4036 0.950 . S
H4013 C4037 0.951 . S
H4014 C4039 0.951 . S
H4015 C4041 0.950 . S
H4016 C4042 0.950 . S
H4017 C4044 0.950 . S
H4018 C4047 0.950 . S
H4019 C4048 0.950 . S
H4020 C4050 0.950 . S
H4021 C4051 0.950 . S
C4022 H4004 0.951 . S
C4022 C4023 1.366 . S
C4022 C4024 1.388 . S
C4023 C4022 1.366 . S
C4023 C4027 1.385 . S
C4024 H4005 0.951 . S
C4024 C4022 1.388 . S
C4024 C4025 1.366 . S
C4025 C4024 1.366 . S
C4025 C4026 1.414 . S
C4025 C4028 1.499 . S
C4026 H4006 0.950 . S
C4026 C4025 1.414 . S
C4026 C4027 1.374 . S
C4027 H4007 0.950 . S
C4027 C4023 1.385 . S
C4027 C4026 1.374 . S
C4028 C4025 1.499 . S
C4028 C4029 1.373 . S
C4028 C4030 1.389 . S
C4029 H4008 0.950 . S
C4029 C4028 1.373 . S
C4029 C4045 1.377 . S
C4030 C4028 1.389 . S
C4030 C4031 1.524 . S
C4030 C4044 1.377 . S
C4031 C4030 1.524 . S
C4031 C4032 1.397 . S
C4031 C4036 1.363 . S
C4032 H4009 0.950 . S
C4032 C4031 1.397 . S
C4032 C4033 1.334 . S
C4033 H4010 0.950 . S
C4033 C4032 1.334 . S
C4033 C4034 1.287 . S
C4034 C4033 1.287 . S
C4034 C4035 1.524 . S
C4034 H4053 0.913 . S
C4035 H4011 0.950 . S
C4035 C4034 1.524 . S
C4035 C4036 1.415 . S
C4036 H4012 0.950 . S
C4036 C4031 1.363 . S
C4036 C4035 1.415 . S
C4037 H4013 0.951 . S
C4037 C4038 1.366 . S
C4037 C4039 1.388 . S
C4038 C4037 1.366 . S
C4038 C4042 1.385 . S
C4039 H4014 0.951 . S
C4039 C4037 1.388 . S
C4039 C4040 1.366 . S
C4040 C4039 1.366 . S
C4040 C4041 1.414 . S
C4040 C4043 1.499 . S
C4041 H4015 0.950 . S
C4041 C4040 1.414 . S
C4041 C4042 1.374 . S
C4042 H4016 0.950 . S
C4042 C4038 1.385 . S
C4042 C4041 1.374 . S
C4043 C4040 1.499 . S
C4043 C4044 1.373 . S
C4043 C4045 1.389 . S
C4044 H4017 0.950 . S
C4044 C4030 1.377 . S
C4044 C4043 1.373 . S
C4045 C4029 1.377 . S
C4045 C4043 1.389 . S
C4045 C4046 1.524 . S
C4046 C4045 1.524 . S
C4046 C4047 1.397 . S
C4046 C4051 1.363 . S
C4047 H4018 0.950 . S
C4047 C4046 1.397 . S
C4047 C4048 1.334 . S
C4048 H4019 0.950 . S
C4048 C4047 1.334 . S
C4048 C4049 1.287 . S
C4049 C4048 1.287 . S
C4049 C4050 1.524 . S
C4049 H4052 0.999 . S
C4050 H4020 0.950 . S
C4050 C4049 1.524 . S
C4050 C4051 1.415 . S
C4051 H4021 0.950 . S
C4051 C4046 1.363 . S
C4051 C4050 1.415 . S
H4052 C4049 0.999 . S
H4053 C4034 0.913 . S
H4054 C4072 0.951 . S
H4055 C4074 0.951 . S
H4056 C4076 0.950 . S
H4057 C4077 0.950 . S
H4058 C4079 0.950 . S
H4059 C4082 0.950 . S
H4060 C4083 0.950 . S
H4061 C4085 0.950 . S
H4062 C4086 0.950 . S
H4063 C4087 0.951 . S
H4064 C4089 0.951 . S
H4065 C4091 0.950 . S
H4066 C4092 0.950 . S
H4067 C4094 0.950 . S
H4068 C4097 0.950 . S
H4069 C4098 0.950 . S
H4070 C4100 0.950 . S
H4071 C4101 0.950 . S
C4072 H4054 0.951 . S
C4072 C4073 1.366 . S
C4072 C4074 1.388 . S
C4073 C4072 1.366 . S
C4073 C4077 1.385 . S
C4074 H4055 0.951 . S
C4074 C4072 1.388 . S
C4074 C4075 1.366 . S
C4075 C4074 1.366 . S
C4075 C4076 1.414 . S
C4075 C4078 1.499 . S
C4076 H4056 0.950 . S
C4076 C4075 1.414 . S
C4076 C4077 1.374 . S
C4077 H4057 0.950 . S
C4077 C4073 1.385 . S
C4077 C4076 1.374 . S
C4078 C4075 1.499 . S
C4078 C4079 1.373 . S
C4078 C4080 1.389 . S
C4079 H4058 0.950 . S
C4079 C4078 1.373 . S
C4079 C4095 1.377 . S
C4080 C4078 1.389 . S
C4080 C4081 1.524 . S
C4080 C4094 1.377 . S
C4081 C4080 1.524 . S
C4081 C4082 1.397 . S
C4081 C4086 1.363 . S
C4082 H4059 0.950 . S
C4082 C4081 1.397 . S
C4082 C4083 1.334 . S
C4083 H4060 0.950 . S
C4083 C4082 1.334 . S
C4083 C4084 1.287 . S
C4084 C4083 1.287 . S
C4084 C4085 1.524 . S
C4084 H4103 0.913 . S
C4085 H4061 0.950 . S
C4085 C4084 1.524 . S
C4085 C4086 1.415 . S
C4086 H4062 0.950 . S
C4086 C4081 1.363 . S
C4086 C4085 1.415 . S
C4087 H4063 0.951 . S
C4087 C4088 1.366 . S
C4087 C4089 1.388 . S
C4088 C4087 1.366 . S
C4088 C4092 1.385 . S
C4089 H4064 0.951 . S
C4089 C4087 1.388 . S
C4089 C4090 1.366 . S
C4090 C4089 1.366 . S
C4090 C4091 1.414 . S
C4090 C4093 1.499 . S
C4091 H4065 0.950 . S
C4091 C4090 1.414 . S
C4091 C4092 1.374 . S
C4092 H4066 0.950 . S
C4092 C4088 1.385 . S
C4092 C4091 1.374 . S
C4093 C4090 1.499 . S
C4093 C4094 1.373 . S
C4093 C4095 1.389 . S
C4094 H4067 0.950 . S
C4094 C4080 1.377 . S
C4094 C4093 1.373 . S
C4095 C4079 1.377 . S
C4095 C4093 1.389 . S
C4095 C4096 1.524 . S
C4096 C4095 1.524 . S
C4096 C4097 1.397 . S
C4096 C4101 1.363 . S
C4097 H4068 0.950 . S
C4097 C4096 1.397 . S
C4097 C4098 1.334 . S
C4098 H4069 0.950 . S
C4098 C4097 1.334 . S
C4098 C4099 1.287 . S
C4099 C4098 1.287 . S
C4099 C4100 1.524 . S
C4099 H4102 0.999 . S
C4100 H4070 0.950 . S
C4100 C4099 1.524 . S
C4100 C4101 1.415 . S
C4101 H4071 0.950 . S
C4101 C4096 1.363 . S
C4101 C4100 1.415 . S
H4102 C4099 0.999 . S
H4103 C4084 0.913 . S
C523 C78 1.504 . S
C538 C8 1.504 . S
C573 C50 1.504 . S
C588 C22 1.504 . S
C623 C36 1.505 . S
C638 C64 1.505 . S
C673 C92 1.504 . S
C688 C162 1.504 . S
C723 C106 1.504 . S
C738 C134 1.504 . S
C773 C148 1.505 . S
C788 C120 1.504 . S
C823 C176 1.504 . S
C838 C246 1.504 1_556 S
C873 C190 1.504 . S
C888 C218 1.504 1_556 S
C923 C204 1.505 . S
C938 C232 1.505 1_556 S
C973 C330 1.504 . S
C988 C260 1.504 1_556 S
C1023 C274 1.504 1_556 S
C1038 C302 1.504 . S
C1073 C316 1.505 . S
C1088 C288 1.505 1_556 S
C1123 C414 1.504 . S
C1138 C344 1.504 1_554 S
C1173 C386 1.504 . S
C1188 C358 1.504 1_554 S
C1223 C400 1.505 . S
C1238 C372 1.505 1_554 S
C1273 C428 1.504 . S
C1288 C498 1.504 1_554 S
C1323 C442 1.504 . S
C1338 C470 1.504 1_554 S
C1373 C456 1.505 . S
C1388 C484 1.504 1_554 S
C1423 C77 1.527 . S
C1438 C7 1.527 . S
C1473 C21 1.527 . S
C1488 C49 1.527 . S
C1523 C63 1.527 . S
C1538 C35 1.527 . S
C1573 C91 1.527 . S
C1588 C161 1.527 . S
C1623 C105 1.527 . S
C1638 C133 1.527 . S
C1673 C147 1.528 . S
C1688 C119 1.528 . S
C1723 C175 1.526 . S
C1738 C245 1.526 . S
C1773 C217 1.527 . S
C1788 C189 1.527 . S
C1823 C231 1.528 . S
C1838 C203 1.528 . S
C1873 C259 1.527 . S
C1888 C329 1.527 . S
C1923 C273 1.527 . S
C1938 C301 1.527 . S
C1973 C315 1.527 . S
C1988 C287 1.527 . S
C2023 C413 1.528 . S
C2038 C343 1.528 . S
C2073 C357 1.527 . S
C2088 C385 1.527 . S
C2123 C371 1.527 . S
C2138 C399 1.527 . S
C2173 C497 1.527 . S
C2188 C427 1.527 . S
C2223 C469 1.527 . S
C2238 C441 1.527 . S
C2273 C483 1.527 . S
C2288 C455 1.527 . S
C2323 C233 1.686 . S
C2338 C9 1.686 . S
C2373 C247 1.686 . S
C2388 C23 1.686 . S
C2423 C219 1.686 . S
C2438 C37 1.687 . S
C2473 C51 1.686 . S
C2488 C373 1.687 . S
C2523 C65 1.687 . S
C2538 C345 1.686 . S
C2573 C79 1.686 . S
C2588 C359 1.686 . S
C2623 C93 1.687 . S
C2638 C485 1.686 . S
C2673 C107 1.686 . S
C2688 C499 1.686 . S
C2723 C121 1.686 . S
C2738 C471 1.686 . S
C2773 C135 1.686 . S
C2788 C289 1.686 . S
C2823 C261 1.686 . S
C2838 C149 1.687 . S
C2873 C275 1.686 . S
C2888 C163 1.686 . S
C2923 C401 1.686 . S
C2938 C177 1.686 . S
C2973 C191 1.686 . S
C2988 C415 1.686 . S
C3023 C205 1.686 . S
C3038 C387 1.686 . S
C3073 C303 1.687 . S
C3088 C457 1.687 . S
C3123 C317 1.686 . S
C3138 C429 1.686 . S
C3173 C443 1.686 . S
C3188 C331 1.686 . S
C3223 C3 1.242 . S
C3238 C143 1.242 . S
C3273 C157 1.241 . S
C3288 C17 1.241 . S
C3323 C129 1.242 . S
C3338 C31 1.242 . S
C3373 C45 1.242 . S
C3388 C115 1.242 . S
C3423 C59 1.242 . S
C3438 C87 1.242 . S
C3473 C73 1.241 . S
C3488 C101 1.241 . S
C3523 C171 1.242 . S
C3538 C311 1.242 . S
C3573 C325 1.241 . S
C3588 C185 1.241 . S
C3623 C297 1.242 . S
C3638 C199 1.242 . S
C3673 C213 1.242 . S
C3688 C283 1.242 . S
C3723 C227 1.242 . S
C3738 C255 1.242 . S
C3773 C269 1.241 . S
C3788 C241 1.241 . S
C3823 C339 1.242 . S
C3838 C479 1.242 . S
C3873 C493 1.241 . S
C3888 C353 1.241 . S
C3923 C367 1.242 . S
C3938 C465 1.242 . S
C3973 C381 1.242 . S
C3988 C451 1.242 . S
C4023 C423 1.242 . S
C4038 C395 1.242 . S
C4073 C409 1.241 . S
C4088 C437 1.241 . S
