# Generated by pormake.
# Topology sma, (6)-cn, num edge types: 1
# Building blocks:
#     Node 0, Type 0, BuildingBlock: UKALOJ_clean_sbu_0, # of connection points: 6
#     Node 1, Type 0, BuildingBlock: UKALOJ_clean_sbu_0, # of connection points: 6
#     Node 2, Type 0, BuildingBlock: UKALOJ_clean_sbu_0, # of connection points: 6
#     Edge 3, Type (0, 0), BuildingBlock: FUNLAD_clean_linker_1, # of connection points: 2
#     Edge 4, Type (0, 0), BuildingBlock: FUNLAD_clean_linker_1, # of connection points: 2
#     Edge 5, Type (0, 0), BuildingBlock: FUNLAD_clean_linker_1, # of connection points: 2
#     Edge 6, Type (0, 0), BuildingBlock: FUNLAD_clean_linker_1, # of connection points: 2
#     Edge 7, Type (0, 0), BuildingBlock: FUNLAD_clean_linker_1, # of connection points: 2
#     Edge 8, Type (0, 0), BuildingBlock: FUNLAD_clean_linker_1, # of connection points: 2
#     Edge 9, Type (0, 0), BuildingBlock: FUNLAD_clean_linker_1, # of connection points: 2
#     Edge 10, Type (0, 0), BuildingBlock: FUNLAD_clean_linker_1, # of connection points: 2
#     Edge 11, Type (0, 0), BuildingBlock: FUNLAD_clean_linker_1, # of connection points: 2
# Relax obj value: 0.557
# Max RMSD: 0.347
# Mean RMSD: 0.347
data_MOF--net-sma--node1-UKALOJ_clean_sbu_0--edge1-FUNLAD_clean_linker_1
_symmetry_space_group_name_H-M    P1
_symmetry_Int_Tables_number       1
_symmetry_cell_setting            triclinic
loop_
_symmetry_equiv_pos_as_xyz
'x, y, z'
_cell_length_a     27.010548
_cell_length_b     27.425311
_cell_length_c     19.174882
_cell_angle_alpha  89.368395
_cell_angle_beta   88.963291
_cell_angle_gamma 119.95859
loop_
_atom_site_label
_atom_site_type_symbol
_atom_site_fract_x
_atom_site_fract_y
_atom_site_fract_z
_atom_type_partial_charge
Zn0 Zn 1.0457 0.54844 0.09107 0.0
O1 O 0.11773 0.63569 0.08746 0.0
C2 C 0.13417 0.51464 0.07201 0.0
Zn3 Zn 0.06845 0.52808 0.1889 0.0
C4 C 0.13914 0.65041 0.14762 0.0
O5 O 0.12307 0.61332 0.1956 0.0
C6 C 0.96991 0.42702 0.15336 0.0
O7 O 0.99596 0.53931 0.23144 0.0
O8 O 0.99776 0.57862 0.13106 0.0
N9 N 0.09523 0.52023 0.28399 0.0
C10 C 0.06658 0.49605 0.34407 0.0
C11 C 0.15547 0.53679 0.36524 0.0
N12 N 0.15051 0.54497 0.29692 0.0
N13 N 0.10323 0.50591 0.39565 0.0
C14 C 1.04712 0.57837 0.93594 0.0
C15 C 0.95897 0.52885 0.91197 0.0
N16 N 1.0182 0.55412 -0.00406 0.0
N17 N 0.96339 0.52364 0.98115 0.0
N18 N 1.01096 0.56344 0.88277 0.0
H19 H 0.12478 0.65597 0.91606 0.0
H20 H 0.12502 0.59545 0.88221 0.0
H21 H 0.13289 0.60833 0.97387 0.0
C22 C 0.11109 0.61115 0.92728 0.0
C23 C 1.00305 0.46772 0.35436 0.0
H24 H 0.98159 0.45946 0.30413 0.0
H25 H 0.99203 0.49495 0.38566 0.0
H26 H 0.98714 0.42729 0.38368 0.0
O27 O 1.01412 0.44259 0.18869 0.0
O28 O 0.97055 0.46105 0.10659 0.0
C29 C 0.97759 0.56476 0.19226 0.0
O30 O 0.09521 0.51941 0.04303 0.0
O31 O 0.13769 0.51826 0.13829 0.0
Zn32 Zn 0.54138 0.04075 0.54685 0.0
O33 O 0.62934 0.11717 0.55374 0.0
C34 C 0.54125 0.12637 0.46371 0.0
Zn35 Zn 0.57257 0.03409 0.44805 0.0
C36 C 0.66872 0.12174 0.51139 0.0
O37 O 0.65699 0.08223 0.47007 0.0
C38 C 0.44645 0.95978 0.46437 0.0
O39 O 0.57529 0.9584 0.48247 0.0
O40 O 0.56639 0.98538 0.58639 0.0
N41 N 0.59806 0.02913 0.34977 0.0
C42 C 0.57618 0.98802 0.30266 0.0
C43 C 0.64651 0.05945 0.25317 0.0
N44 N 0.64238 0.07316 0.31923 0.0
N45 N 0.60528 1.00614 0.24131 0.0
C46 C 0.54545 0.05916 0.70417 0.0
C47 C 0.45946 0.03733 0.72961 0.0
N48 N 0.51734 0.04825 0.64414 0.0
N49 N 0.46403 0.03513 0.65977 0.0
N50 N 0.51016 0.05259 0.75814 0.0
H51 H 0.63239 0.11335 0.73126 0.0
H52 H 0.62413 0.06619 0.66189 0.0
H53 H 0.6058 0.04034 0.75078 0.0
C54 C 0.60539 0.07023 0.71157 0.0
C55 C 0.52534 0.93057 0.3155 0.0
H56 H 0.51767 0.91948 0.37183 0.0
H57 H 0.53189 0.89865 0.28825 0.0
H58 H 0.48711 0.92939 0.29351 0.0
O59 O 0.48732 0.98574 0.42051 0.0
O60 O 0.45632 0.96934 0.52906 0.0
C61 C 0.57374 0.95186 0.54872 0.0
O62 O 0.51411 0.09331 0.51411 0.0
O63 O 0.57125 0.114 0.42288 0.0
Zn64 Zn 0.54407 0.51227 0.88619 0.0
O65 O 0.5388 0.43203 0.86115 0.0
C66 C 0.67027 0.56257 0.89537 0.0
Zn67 Zn 0.58628 0.55553 0.78932 0.0
C68 C 0.54829 0.43035 0.79597 0.0
O69 O 0.56483 0.47447 0.75891 0.0
C70 C 0.57933 0.63954 0.86103 0.0
O71 O 0.50054 0.54188 0.76029 0.0
O72 O 0.46426 0.48177 0.84765 0.0
N73 N 0.62252 0.5809 0.69174 0.0
C74 C 0.59992 0.58095 0.62976 0.0
C75 C 0.68184 0.58985 0.60875 0.0
N76 N 0.67369 0.58707 0.67852 0.0
N77 N 0.63578 0.58528 0.5771 0.0
C78 C 0.51497 0.46195 0.03674 0.0
C79 C 0.44581 0.4748 0.06526 0.0
N80 N 0.5037 0.48408 0.98053 0.0
N81 N 0.4601 0.49122 -0.00201 0.0
N82 N 0.47979 0.45647 0.09084 0.0
H83 H 0.56453 0.42982 0.98653 0.0
H84 H 0.5478 0.4107 0.07831 0.0
H85 H 0.60054 0.48106 0.05163 0.0
C86 C 0.55927 0.44444 0.03824 0.0
C87 C 0.54469 0.58043 0.62076 0.0
H88 H 0.50846 0.5368 0.62802 0.0
H89 H 0.54262 0.59636 0.5681 0.0
H90 H 0.54073 0.6078 0.65983 0.0
O91 O 0.60832 0.63505 0.81185 0.0
O92 O 0.54897 0.59643 0.90112 0.0
C93 C 0.45698 0.50656 0.79685 0.0
O94 O 0.62421 0.541 0.93156 0.0
O95 O 0.66853 0.57121 0.83005 0.0
H96 H 0.17778 0.5283 0.97082 0.0
C97 C 0.17795 0.51442 0.02415 0.0
H98 H 0.21906 0.48656 0.09267 0.0
H99 H 0.30024 0.49043 0.75195 0.0
H100 H 0.20017 0.42557 0.73107 0.0
H101 H 0.12834 0.39296 0.82755 0.0
H102 H 0.15552 0.42759 0.94442 0.0
C103 C 0.21722 0.49982 0.03967 0.0
C104 C 0.26199 0.50697 0.98548 0.0
C105 C 0.24633 0.48283 0.91834 0.0
C106 C 0.28867 0.49747 0.86391 0.0
C107 C 0.27052 0.47767 0.79602 0.0
C108 C 0.21313 0.44083 0.78318 0.0
C109 C 0.17262 0.42285 0.83734 0.0
C110 C 0.18874 0.44347 0.90412 0.0
H111 H 0.36463 0.45928 0.80185 0.0
C112 C 0.40015 0.50205 0.79529 0.0
H113 H 0.43035 0.58604 0.81985 0.0
H114 H 0.30839 0.55919 0.10768 0.0
H115 H 0.40878 0.61522 0.13217 0.0
H116 H 0.48243 0.6323 0.04229 0.0
H117 H 0.45598 0.59435 0.92758 0.0
C118 C 0.39374 0.54369 0.8231 0.0
C119 C 0.34766 0.53164 0.87791 0.0
C120 C 0.36349 0.5529 0.94648 0.0
C121 C 0.32086 0.5414 -0.00051 0.0
C122 C 0.33853 0.56529 0.06599 0.0
C123 C 0.39619 0.59776 0.08088 0.0
C124 C 0.43761 0.6075 0.03028 0.0
C125 C 0.42171 0.58555 0.96407 0.0
H126 H 0.75415 0.19906 0.52624 0.0
C127 C 0.71935 0.177 0.49073 0.0
H128 H 0.68762 0.17018 0.38979 0.0
H129 H 0.88266 0.41848 0.29384 0.0
H130 H 0.84528 0.45407 0.38359 0.0
H131 H 0.7767 0.39015 0.47404 0.0
H132 H 0.74333 0.28979 0.47383 0.0
C133 C 0.72384 0.19402 0.42289 0.0
C134 C 0.77731 0.23563 0.38358 0.0
C135 C 0.79594 0.29393 0.38352 0.0
C136 C 0.83719 0.33121 0.33239 0.0
C137 C 0.85349 0.38887 0.33289 0.0
C138 C 0.83176 0.40967 0.3836 0.0
C139 C 0.79274 0.37358 0.4342 0.0
C140 C 0.77413 0.31619 0.43371 0.0
H141 H 0.87574 0.36648 0.15438 0.0
C142 C 0.91546 0.37692 0.17945 0.0
H143 H 0.95398 0.36179 0.26589 0.0
H144 H 0.75491 0.12748 0.37111 0.0
H145 H 0.79481 0.09244 0.28391 0.0
H146 H 0.8658 0.15679 0.19573 0.0
H147 H 0.8969 0.25663 0.19377 0.0
C148 C 0.91415 0.35095 0.24081 0.0
C149 C 0.86128 0.31061 0.28221 0.0
C150 C 0.84318 0.25242 0.28301 0.0
C151 C 0.80152 0.21513 0.33348 0.0
C152 C 0.78511 0.15737 0.33295 0.0
C153 C 0.8081 0.13679 0.28358 0.0
C154 C 0.84817 0.17304 0.23404 0.0
C155 C 0.86583 0.23024 0.23368 0.0
H156 H 0.59229 0.88103 0.55307 0.0
C157 C 0.57855 0.90551 0.58355 0.0
H158 H 0.5518 0.91867 0.68231 0.0
H159 H 0.51307 0.66191 0.73824 0.0
H160 H 0.44709 0.63181 0.64311 0.0
H161 H 0.43561 0.70096 0.5722 0.0
H162 H 0.49066 0.80059 0.59533 0.0
C163 C 0.56545 0.89366 0.65271 0.0
C164 C 0.57196 0.85055 0.69443 0.0
C165 C 0.53826 0.79212 0.68139 0.0
C166 C 0.54388 0.75191 0.72352 0.0
C167 C 0.51062 0.69413 0.70812 0.0
C168 C 0.4723 0.67624 0.65383 0.0
C169 C 0.4659 0.71518 0.61387 0.0
C170 C 0.49815 0.77241 0.62744 0.0
H171 H 0.53576 0.68841 0.88698 0.0
C172 C 0.57144 0.68968 0.85834 0.0
H173 H 0.63654 0.7316 0.78073 0.0
H174 H 0.639 0.95825 0.73965 0.0
H175 H 0.70008 0.98681 0.83958 0.0
H176 H 0.70854 0.91678 0.91246 0.0
H177 H 0.65498 0.8172 0.8862 0.0
C178 C 0.60079 0.7306 0.80896 0.0
C179 C 0.58252 0.76976 0.77942 0.0
C180 C 0.61339 0.82762 0.79508 0.0
C181 C 0.60812 0.86796 0.75296 0.0
C182 C 0.64046 0.92556 0.77004 0.0
C183 C 0.67605 0.94265 0.82712 0.0
C184 C 0.68094 0.90324 0.86807 0.0
C185 C 0.65022 0.84636 0.85232 0.0
H186 H 0.76233 0.61999 0.91378 0.0
C187 C 0.72512 0.58079 0.93118 0.0
H188 H 0.68989 0.51216 0.00173 0.0
H189 H 0.97475 0.64478 0.05519 0.0
H190 H 0.99066 0.65512 0.93087 0.0
H191 H 0.90969 0.61701 0.85147 0.0
H192 H 0.81262 0.57287 0.89673 0.0
C193 C 0.728 0.55143 0.98691 0.0
C194 C 0.7786 0.57025 0.03384 0.0
C195 C 0.8348 0.58897 0.00682 0.0
C196 C 0.8812 0.6055 0.05315 0.0
C197 C 0.9374 0.6298 0.02384 0.0
C198 C 0.94737 0.63593 0.95199 0.0
C199 C 0.90184 0.61486 0.9073 0.0
C200 C 0.84615 0.5906 0.93413 0.0
H201 H 0.88653 0.52672 0.21869 0.0
C202 C 0.92454 0.56689 0.20636 0.0
H203 H 0.95846 0.64842 0.16515 0.0
H204 H 0.68039 0.54669 0.10615 0.0
H205 H 0.66408 0.53566 0.23136 0.0
H206 H 0.74144 0.55128 0.30987 0.0
H207 H 0.83639 0.57965 0.2637 0.0
C208 C 0.91943 0.60835 0.17398 0.0
C209 C 0.87076 0.5964 0.12674 0.0
C210 C 0.81481 0.57732 0.1538 0.0
C211 C 0.76939 0.56618 0.10781 0.0
C212 C 0.71538 0.55212 0.13766 0.0
C213 C 0.70561 0.54648 0.20966 0.0
C214 C 0.74929 0.55549 0.25396 0.0
C215 C 0.80347 0.5713 0.2267 0.0
H216 H 0.35891 0.88495 0.47525 0.0
C217 C 0.39027 0.91598 0.43864 0.0
H218 H 0.41099 0.94425 0.33357 0.0
H219 H 0.24582 0.67472 0.27481 0.0
H220 H 0.31334 0.6602 0.34041 0.0
H221 H 0.39154 0.73851 0.40195 0.0
H222 H 0.40199 0.83127 0.39945 0.0
C223 C 0.38065 0.91141 0.36928 0.0
C224 C 0.33126 0.86268 0.33615 0.0
C225 C 0.32665 0.80875 0.33683 0.0
C226 C 0.28236 0.76384 0.29976 0.0
C227 C 0.27834 0.71027 0.30221 0.0
C228 C 0.31708 0.70139 0.3393 0.0
C229 C 0.36104 0.74545 0.37399 0.0
C230 C 0.36623 0.79859 0.37257 0.0
H231 H 0.21069 0.73792 0.12367 0.0
C232 C 0.18337 0.70878 0.16471 0.0
H233 H 0.16388 0.69304 0.2727 0.0
H234 H 0.32932 0.96092 0.3205 0.0
H235 H 0.26342 0.97584 0.25147 0.0
H236 H 0.18745 0.89811 0.18659 0.0
H237 H 0.17715 0.80495 0.1898 0.0
C238 C 0.19205 0.72304 0.23274 0.0
C239 C 0.24355 0.77293 0.26031 0.0
C240 C 0.24932 0.82715 0.25762 0.0
C241 C 0.29319 0.87201 0.2954 0.0
C242 C 0.29732 0.92554 0.29234 0.0
C243 C 0.25958 0.93462 0.25319 0.0
C244 C 0.21677 0.89083 0.21669 0.0
C245 C 0.21133 0.83758 0.21892 0.0
H246 H 0.54417 0.34698 0.79279 0.0
C247 C 0.54296 0.37953 0.76138 0.0
H248 H 0.5379 0.40868 0.66107 0.0
H249 H 0.63301 0.29851 0.45921 0.0
H250 H 0.69487 0.39864 0.4351 0.0
H251 H 0.69131 0.46894 0.51079 0.0
H252 H 0.62475 0.44017 0.60921 0.0
C253 C 0.53979 0.37568 0.69075 0.0
C254 C 0.54379 0.33188 0.64816 0.0
C255 C 0.5849 0.34943 0.59192 0.0
C256 C 0.58841 0.30884 0.54912 0.0
C257 C 0.62914 0.32766 0.49333 0.0
C258 C 0.665 0.3849 0.47915 0.0
C259 C 0.66276 0.42451 0.52155 0.0
C260 C 0.62382 0.40729 0.57771 0.0
H261 H 0.53487 0.20146 0.42962 0.0
C262 C 0.54972 0.18403 0.46981 0.0
H263 H 0.57845 0.18781 0.57193 0.0
H264 H 0.45098 0.28276 0.73878 0.0
H265 H 0.38658 0.18303 0.75827 0.0
H266 H 0.39716 0.11311 0.68961 0.0
H267 H 0.47144 0.14277 0.59982 0.0
C268 C 0.56502 0.20794 0.5333 0.0
C269 C 0.55194 0.25067 0.56309 0.0
C270 C 0.5091 0.23315 0.61686 0.0
C271 C 0.50423 0.27356 0.65835 0.0
C272 C 0.45873 0.25423 0.70833 0.0
C273 C 0.42091 0.19694 0.71955 0.0
C274 C 0.42679 0.15758 0.68082 0.0
C275 C 0.46997 0.17521 0.62977 0.0
H276 H 0.06852 0.60734 0.79462 0.0
C277 C 1.02665 0.57247 0.81015 0.0
H278 H 0.95685 0.49568 0.77947 0.0
H279 H 0.11703 0.62471 0.49104 0.0
H280 H 0.08406 0.69181 0.50322 0.0
H281 H 1.02343 0.68611 0.60436 0.0
H282 H 0.99544 0.61305 0.69389 0.0
C283 C 0.99691 0.53285 0.76385 0.0
C284 C 1.02619 0.53193 0.69843 0.0
C285 C 1.04175 0.57462 0.64659 0.0
C286 C 0.07612 0.57748 0.58818 0.0
C287 C 0.09095 0.62043 0.53672 0.0
C288 C 0.07228 0.65928 0.54301 0.0
C289 C 1.03822 0.65612 0.59998 0.0
C290 C 1.02282 0.61425 0.65122 0.0
H291 H 1.04603 0.46366 0.48459 0.0
C292 C 0.0888 0.49658 0.46857 0.0
H293 H 0.16212 0.57066 0.49911 0.0
H294 H 1.00357 0.44441 0.78914 0.0
H295 H 1.03543 0.37662 0.77596 0.0
H296 H 0.09565 0.38208 0.67449 0.0
H297 H 0.12388 0.45545 0.58519 0.0
C298 C 0.12115 0.53478 0.51503 0.0
C299 C 0.09371 0.53689 0.58138 0.0
C300 C 0.07826 0.49429 0.63323 0.0
C301 C 1.04405 0.49151 0.69178 0.0
C302 C 1.0293 0.44854 0.74318 0.0
C303 C 1.04746 0.40935 0.7364 0.0
C304 C 0.08124 0.41235 0.67921 0.0
C305 C 0.09681 0.45439 0.62817 0.0
H306 H 0.54234 0.94577 0.17159 0.0
C307 C 0.58486 0.98246 0.1743 0.0
H308 H 0.65142 0.05029 0.11743 0.0
H309 H 0.48769 0.91602 0.85379 0.0
H310 H 0.51826 0.84714 0.86994 0.0
H311 H 0.57424 0.85054 0.97194 0.0
H312 H 0.60088 0.92355 0.05785 0.0
C313 C 0.60993 1.01226 0.11561 0.0
C314 C 0.57389 1.0073 0.05611 0.0
C315 C 0.55828 0.96401 0.00734 0.0
C316 C 0.52563 0.96182 0.94904 0.0
C317 C 0.51209 0.91937 0.89942 0.0
C318 C 0.52936 0.87959 0.90807 0.0
C319 C 0.5609 0.88151 0.9655 0.0
C320 C 0.57572 0.92343 0.0145 0.0
H321 H 0.56441 0.08303 0.84767 0.0
C322 C 0.52218 0.05225 0.8302 0.0
H323 H 0.44726 0.97501 0.85385 0.0
H324 H 0.59193 0.09261 0.14477 0.0
H325 H 0.55611 0.15736 0.13228 0.0
H326 H 0.49671 0.15124 0.03278 0.0
H327 H 0.47315 0.08017 0.94505 0.0
C328 C 0.48722 1.00902 0.87259 0.0
C329 C 0.50874 1.00281 0.94046 0.0
C330 C 0.52057 0.04331 0.99214 0.0
C331 C 0.55397 0.04617 0.04966 0.0
C332 C 0.56655 0.08818 0.09982 0.0
C333 C 0.54617 0.12568 0.09337 0.0
C334 C 0.51281 0.12229 0.03735 0.0
C335 C 0.49995 0.08161 0.98719 0.0
H336 H 0.6594 0.59738 0.46636 0.0
C337 C 0.62459 0.5749 0.50438 0.0
H338 H 0.54064 0.50749 0.52181 0.0
H339 H 0.55425 0.58068 0.18503 0.0
H340 H 0.57028 0.67065 0.22557 0.0
H341 H 0.58067 0.69202 0.35088 0.0
H342 H 0.57571 0.6238 0.43603 0.0
C343 C 0.5736 0.53388 0.4835 0.0
C344 C 0.56235 0.51968 0.40901 0.0
C345 C 0.56434 0.55993 0.36026 0.0
C346 C 0.55686 0.54709 0.28844 0.0
C347 C 0.5596 0.58812 0.24041 0.0
C348 C 0.56858 0.63995 0.26295 0.0
C349 C 0.57454 0.652 0.33344 0.0
C350 C 0.57219 0.61257 0.38177 0.0
H351 H 0.44953 0.43206 0.19844 0.0
C352 C 0.48713 0.45142 0.16385 0.0
H353 H 0.57593 0.50673 0.15695 0.0
H354 H 0.54957 0.43075 0.49019 0.0
H355 H 0.52769 0.33879 0.44983 0.0
H356 H 0.51663 0.31742 0.32469 0.0
H357 H 0.52512 0.38735 0.23914 0.0
C358 C 0.53903 0.48146 0.19092 0.0
C359 C 0.54569 0.49354 0.26608 0.0
C360 C 0.54145 0.45254 0.31492 0.0
C361 C 0.54924 0.46542 0.3868 0.0
C362 C 0.54433 0.42349 0.43483 0.0
C363 C 0.53208 0.37056 0.41237 0.0
C364 C 0.52556 0.35842 0.3419 0.0
C365 C 0.53034 0.39884 0.29342 0.0
loop_
_geom_bond_atom_site_label_1
_geom_bond_atom_site_label_2
_geom_bond_distance
_geom_bond_site_symmetry_2
_ccdc_geom_bond_type
Zn0 O1 2.055 . S
Zn0 O8 2.046 1_455 S
Zn0 N16 2.036 1_454 S
Zn0 O28 2.053 1_455 S
Zn0 O30 2.066 . S
O1 Zn0 2.055 . S
O1 C4 1.259 . S
C2 O30 1.256 . S
C2 O31 1.244 . S
Zn3 O5 2.046 . S
Zn3 O7 2.055 1_455 S
Zn3 N9 2.036 . S
Zn3 O27 2.066 1_455 S
Zn3 O31 2.053 . S
C4 O1 1.259 . S
C4 O5 1.254 . S
O5 Zn3 2.046 . S
O5 C4 1.254 . S
C6 O27 1.256 . S
C6 O28 1.244 . S
O7 Zn3 2.055 1_655 S
O7 C29 1.259 . S
O8 Zn0 2.046 1_655 S
O8 C29 1.254 . S
N9 Zn3 2.036 . S
N9 C10 1.298 1_455 S
N9 N12 1.398 . S
C10 N9 1.298 1_655 S
C10 N13 1.367 1_655 S
C10 C23 1.481 . S
C11 N12 1.299 . S
C11 N13 1.379 . S
N12 N9 1.398 . S
N12 C11 1.299 . S
N13 C10 1.367 1_455 S
N13 C11 1.379 . S
C14 N16 1.298 1_455 S
C14 N18 1.367 . S
C14 C22 1.481 . S
C15 N17 1.299 . S
C15 N18 1.379 1_655 S
N16 Zn0 2.036 1_656 S
N16 C14 1.298 1_655 S
N16 N17 1.398 . S
N17 C15 1.299 . S
N17 N16 1.398 . S
N18 C14 1.367 . S
N18 C15 1.379 1_455 S
H19 C22 0.980 . S
H20 C22 0.981 . S
H21 C22 0.981 . S
C22 C14 1.481 . S
C22 H19 0.980 . S
C22 H20 0.981 . S
C22 H21 0.981 . S
C23 C10 1.481 . S
C23 H24 0.980 . S
C23 H25 0.981 . S
C23 H26 0.981 . S
H24 C23 0.980 . S
H25 C23 0.981 . S
H26 C23 0.981 . S
O27 Zn3 2.066 1_655 S
O27 C6 1.256 . S
O28 Zn0 2.053 1_655 S
O28 C6 1.244 . S
C29 O7 1.259 . S
C29 O8 1.254 . S
O30 Zn0 2.066 . S
O30 C2 1.256 . S
O31 C2 1.244 . S
O31 Zn3 2.053 . S
Zn32 O33 2.055 . S
Zn32 O40 2.046 1_545 S
Zn32 N48 2.036 1_545 S
Zn32 O60 2.053 1_545 S
Zn32 O62 2.066 . S
O33 Zn32 2.055 . S
O33 C36 1.259 . S
C34 O62 1.256 . S
C34 O63 1.244 . S
Zn35 O37 2.046 . S
Zn35 O39 2.055 1_545 S
Zn35 N41 2.036 . S
Zn35 O59 2.066 1_545 S
Zn35 O63 2.053 . S
C36 O33 1.259 . S
C36 O37 1.254 . S
O37 Zn35 2.046 . S
O37 C36 1.254 . S
C38 O59 1.256 . S
C38 O60 1.244 . S
O39 Zn35 2.055 1_565 S
O39 C61 1.259 . S
O40 Zn32 2.046 1_565 S
O40 C61 1.254 . S
N41 Zn35 2.036 . S
N41 C42 1.298 1_545 S
N41 N44 1.398 . S
C42 N41 1.298 1_565 S
C42 N45 1.367 1_565 S
C42 C55 1.481 . S
C43 N44 1.299 . S
C43 N45 1.379 . S
N44 N41 1.398 . S
N44 C43 1.299 . S
N45 C42 1.367 1_545 S
N45 C43 1.379 . S
C46 N48 1.298 1_545 S
C46 N50 1.367 . S
C46 C54 1.481 . S
C47 N49 1.299 . S
C47 N50 1.379 1_565 S
N48 Zn32 2.036 1_565 S
N48 C46 1.298 1_565 S
N48 N49 1.398 . S
N49 C47 1.299 . S
N49 N48 1.398 . S
N50 C46 1.367 . S
N50 C47 1.379 1_545 S
H51 C54 0.980 . S
H52 C54 0.981 . S
H53 C54 0.981 . S
C54 C46 1.481 . S
C54 H51 0.980 . S
C54 H52 0.981 . S
C54 H53 0.981 . S
C55 C42 1.481 . S
C55 H56 0.980 . S
C55 H57 0.981 . S
C55 H58 0.981 . S
H56 C55 0.980 . S
H57 C55 0.981 . S
H58 C55 0.981 . S
O59 Zn35 2.066 1_565 S
O59 C38 1.256 . S
O60 Zn32 2.053 1_565 S
O60 C38 1.244 . S
C61 O39 1.259 . S
C61 O40 1.254 . S
O62 Zn32 2.066 . S
O62 C34 1.256 . S
O63 C34 1.244 . S
O63 Zn35 2.053 . S
Zn64 O65 2.055 . S
Zn64 O72 2.046 . S
Zn64 N80 2.036 1_556 S
Zn64 O92 2.053 . S
Zn64 O94 2.066 . S
O65 Zn64 2.055 . S
O65 C68 1.259 . S
C66 O94 1.256 . S
C66 O95 1.244 . S
Zn67 O69 2.046 . S
Zn67 O71 2.055 . S
Zn67 N73 2.036 . S
Zn67 O91 2.066 . S
Zn67 O95 2.053 . S
C68 O65 1.259 . S
C68 O69 1.254 . S
O69 Zn67 2.046 . S
O69 C68 1.254 . S
C70 O91 1.256 . S
C70 O92 1.244 . S
O71 Zn67 2.055 . S
O71 C93 1.259 . S
O72 Zn64 2.046 . S
O72 C93 1.254 . S
N73 Zn67 2.036 . S
N73 C74 1.298 . S
N73 N76 1.398 . S
C74 N73 1.298 . S
C74 N77 1.367 . S
C74 C87 1.481 . S
C75 N76 1.299 . S
C75 N77 1.379 . S
N76 N73 1.398 . S
N76 C75 1.299 . S
N77 C74 1.367 . S
N77 C75 1.379 . S
C78 N80 1.298 . S
C78 N82 1.367 . S
C78 C86 1.481 . S
C79 N81 1.299 . S
C79 N82 1.379 . S
N80 Zn64 2.036 1_554 S
N80 C78 1.298 . S
N80 N81 1.398 . S
N81 C79 1.299 . S
N81 N80 1.398 . S
N82 C78 1.367 . S
N82 C79 1.379 . S
H83 C86 0.980 . S
H84 C86 0.981 . S
H85 C86 0.981 . S
C86 C78 1.481 . S
C86 H83 0.980 . S
C86 H84 0.981 . S
C86 H85 0.981 . S
C87 C74 1.481 . S
C87 H88 0.980 . S
C87 H89 0.981 . S
C87 H90 0.981 . S
H88 C87 0.980 . S
H89 C87 0.981 . S
H90 C87 0.981 . S
O91 Zn67 2.066 . S
O91 C70 1.256 . S
O92 Zn64 2.053 . S
O92 C70 1.244 . S
C93 O71 1.259 . S
C93 O72 1.254 . S
O94 Zn64 2.066 . S
O94 C66 1.256 . S
O95 C66 1.244 . S
O95 Zn67 2.053 . S
H96 C97 0.951 . S
C97 H96 0.951 . S
C97 C103 1.265 . S
H98 C103 0.950 . S
H99 C107 0.949 . S
H100 C108 0.950 . S
H101 C109 0.951 . S
H102 C110 0.951 . S
C103 C97 1.265 . S
C103 H98 0.950 . S
C103 C104 1.478 . S
C104 C103 1.478 . S
C104 C105 1.397 . S
C104 C121 1.394 . S
C105 C104 1.397 . S
C105 C106 1.438 1_554 S
C105 C110 1.429 . S
C106 C105 1.438 1_556 S
C106 C107 1.428 . S
C106 C119 1.394 . S
C107 H99 0.949 . S
C107 C106 1.428 . S
C107 C108 1.345 . S
C108 H100 0.950 . S
C108 C107 1.345 . S
C108 C109 1.424 1_556 S
C109 H101 0.951 . S
C109 C108 1.424 1_554 S
C109 C110 1.347 . S
C110 H102 0.951 . S
C110 C105 1.429 . S
C110 C109 1.347 . S
H111 C112 0.951 . S
C112 H111 0.951 . S
C112 C118 1.265 . S
H113 C118 0.950 . S
H114 C122 0.949 . S
H115 C123 0.950 . S
H116 C124 0.951 . S
H117 C125 0.951 . S
C118 C112 1.265 . S
C118 H113 0.950 . S
C118 C119 1.478 . S
C119 C106 1.394 . S
C119 C118 1.478 . S
C119 C120 1.397 . S
C120 C119 1.397 . S
C120 C121 1.438 1_556 S
C120 C125 1.429 . S
C121 C104 1.394 . S
C121 C120 1.438 1_554 S
C121 C122 1.428 . S
C122 H114 0.949 . S
C122 C121 1.428 . S
C122 C123 1.345 1_554 S
C123 H115 0.950 . S
C123 C122 1.345 1_556 S
C123 C124 1.424 . S
C124 H116 0.951 . S
C124 C123 1.424 . S
C124 C125 1.347 . S
C125 H117 0.951 . S
C125 C120 1.429 . S
C125 C124 1.347 . S
H126 C127 0.951 . S
C127 H126 0.951 . S
C127 C133 1.265 . S
H128 C133 0.950 . S
H129 C137 0.949 . S
H130 C138 0.950 . S
H131 C139 0.951 . S
H132 C140 0.951 . S
C133 C127 1.265 . S
C133 H128 0.950 . S
C133 C134 1.478 . S
C134 C133 1.478 . S
C134 C135 1.397 . S
C134 C151 1.394 . S
C135 C134 1.397 . S
C135 C136 1.438 . S
C135 C140 1.429 . S
C136 C135 1.438 . S
C136 C137 1.428 . S
C136 C149 1.394 . S
C137 H129 0.949 . S
C137 C136 1.428 . S
C137 C138 1.345 . S
C138 H130 0.950 . S
C138 C137 1.345 . S
C138 C139 1.424 . S
C139 H131 0.951 . S
C139 C138 1.424 . S
C139 C140 1.347 . S
C140 H132 0.951 . S
C140 C135 1.429 . S
C140 C139 1.347 . S
H141 C142 0.951 . S
C142 H141 0.951 . S
C142 C148 1.265 . S
H143 C148 0.950 . S
H144 C152 0.949 . S
H145 C153 0.950 . S
H146 C154 0.951 . S
H147 C155 0.951 . S
C148 C142 1.265 . S
C148 H143 0.950 . S
C148 C149 1.478 . S
C149 C136 1.394 . S
C149 C148 1.478 . S
C149 C150 1.397 . S
C150 C149 1.397 . S
C150 C151 1.438 . S
C150 C155 1.429 . S
C151 C134 1.394 . S
C151 C150 1.438 . S
C151 C152 1.428 . S
C152 H144 0.949 . S
C152 C151 1.428 . S
C152 C153 1.345 . S
C153 H145 0.950 . S
C153 C152 1.345 . S
C153 C154 1.424 . S
C154 H146 0.951 . S
C154 C153 1.424 . S
C154 C155 1.347 . S
C155 H147 0.951 . S
C155 C150 1.429 . S
C155 C154 1.347 . S
H156 C157 0.951 . S
C157 H156 0.951 . S
C157 C163 1.265 . S
H158 C163 0.950 . S
H159 C167 0.949 . S
H160 C168 0.950 . S
H161 C169 0.951 . S
H162 C170 0.951 . S
C163 C157 1.265 . S
C163 H158 0.950 . S
C163 C164 1.478 . S
C164 C163 1.478 . S
C164 C165 1.397 . S
C164 C181 1.394 . S
C165 C164 1.397 . S
C165 C166 1.438 . S
C165 C170 1.429 . S
C166 C165 1.438 . S
C166 C167 1.428 . S
C166 C179 1.394 . S
C167 H159 0.949 . S
C167 C166 1.428 . S
C167 C168 1.345 . S
C168 H160 0.950 . S
C168 C167 1.345 . S
C168 C169 1.424 . S
C169 H161 0.951 . S
C169 C168 1.424 . S
C169 C170 1.347 . S
C170 H162 0.951 . S
C170 C165 1.429 . S
C170 C169 1.347 . S
H171 C172 0.951 . S
C172 H171 0.951 . S
C172 C178 1.265 . S
H173 C178 0.950 . S
H174 C182 0.949 . S
H175 C183 0.950 . S
H176 C184 0.951 . S
H177 C185 0.951 . S
C178 C172 1.265 . S
C178 H173 0.950 . S
C178 C179 1.478 . S
C179 C166 1.394 . S
C179 C178 1.478 . S
C179 C180 1.397 . S
C180 C179 1.397 . S
C180 C181 1.438 . S
C180 C185 1.429 . S
C181 C164 1.394 . S
C181 C180 1.438 . S
C181 C182 1.428 . S
C182 H174 0.949 . S
C182 C181 1.428 . S
C182 C183 1.345 . S
C183 H175 0.950 . S
C183 C182 1.345 . S
C183 C184 1.424 . S
C184 H176 0.951 . S
C184 C183 1.424 . S
C184 C185 1.347 . S
C185 H177 0.951 . S
C185 C180 1.429 . S
C185 C184 1.347 . S
H186 C187 0.951 . S
C187 H186 0.951 . S
C187 C193 1.265 . S
H188 C193 0.950 . S
H189 C197 0.949 1_554 S
H190 C198 0.950 . S
H191 C199 0.951 . S
H192 C200 0.951 . S
C193 C187 1.265 . S
C193 H188 0.950 . S
C193 C194 1.478 . S
C194 C193 1.478 . S
C194 C195 1.397 . S
C194 C211 1.394 1_556 S
C195 C194 1.397 . S
C195 C196 1.438 1_556 S
C195 C200 1.429 . S
C196 C195 1.438 1_554 S
C196 C197 1.428 1_554 S
C196 C209 1.394 . S
C197 H189 0.949 1_556 S
C197 C196 1.428 1_556 S
C197 C198 1.345 . S
C198 H190 0.950 . S
C198 C197 1.345 . S
C198 C199 1.424 . S
C199 H191 0.951 . S
C199 C198 1.424 . S
C199 C200 1.347 . S
C200 H192 0.951 . S
C200 C195 1.429 . S
C200 C199 1.347 . S
H201 C202 0.951 . S
C202 H201 0.951 . S
C202 C208 1.265 . S
H203 C208 0.950 . S
H204 C212 0.949 1_556 S
H205 C213 0.950 . S
H206 C214 0.951 . S
H207 C215 0.951 . S
C208 C202 1.265 . S
C208 H203 0.950 . S
C208 C209 1.478 . S
C209 C196 1.394 . S
C209 C208 1.478 . S
C209 C210 1.397 . S
C210 C209 1.397 . S
C210 C211 1.438 . S
C210 C215 1.429 . S
C211 C194 1.394 1_554 S
C211 C210 1.438 . S
C211 C212 1.428 . S
C212 H204 0.949 1_554 S
C212 C211 1.428 . S
C212 C213 1.345 . S
C213 H205 0.950 . S
C213 C212 1.345 . S
C213 C214 1.424 . S
C214 H206 0.951 . S
C214 C213 1.424 . S
C214 C215 1.347 . S
C215 H207 0.951 . S
C215 C210 1.429 . S
C215 C214 1.347 . S
H216 C217 0.951 . S
C217 H216 0.951 . S
C217 C223 1.265 . S
H218 C223 0.950 . S
H219 C227 0.949 . S
H220 C228 0.950 . S
H221 C229 0.951 . S
H222 C230 0.951 . S
C223 C217 1.265 . S
C223 H218 0.950 . S
C223 C224 1.478 . S
C224 C223 1.478 . S
C224 C225 1.397 . S
C224 C241 1.394 . S
C225 C224 1.397 . S
C225 C226 1.438 . S
C225 C230 1.429 . S
C226 C225 1.438 . S
C226 C227 1.428 . S
C226 C239 1.394 . S
C227 H219 0.949 . S
C227 C226 1.428 . S
C227 C228 1.345 . S
C228 H220 0.950 . S
C228 C227 1.345 . S
C228 C229 1.424 . S
C229 H221 0.951 . S
C229 C228 1.424 . S
C229 C230 1.347 . S
C230 H222 0.951 . S
C230 C225 1.429 . S
C230 C229 1.347 . S
H231 C232 0.951 . S
C232 H231 0.951 . S
C232 C238 1.265 . S
H233 C238 0.950 . S
H234 C242 0.949 . S
H235 C243 0.950 . S
H236 C244 0.951 . S
H237 C245 0.951 . S
C238 C232 1.265 . S
C238 H233 0.950 . S
C238 C239 1.478 . S
C239 C226 1.394 . S
C239 C238 1.478 . S
C239 C240 1.397 . S
C240 C239 1.397 . S
C240 C241 1.438 . S
C240 C245 1.429 . S
C241 C224 1.394 . S
C241 C240 1.438 . S
C241 C242 1.428 . S
C242 H234 0.949 . S
C242 C241 1.428 . S
C242 C243 1.345 . S
C243 H235 0.950 . S
C243 C242 1.345 . S
C243 C244 1.424 . S
C244 H236 0.951 . S
C244 C243 1.424 . S
C244 C245 1.347 . S
C245 H237 0.951 . S
C245 C240 1.429 . S
C245 C244 1.347 . S
H246 C247 0.951 . S
C247 H246 0.951 . S
C247 C253 1.265 . S
H248 C253 0.950 . S
H249 C257 0.949 . S
H250 C258 0.950 . S
H251 C259 0.951 . S
H252 C260 0.951 . S
C253 C247 1.265 . S
C253 H248 0.950 . S
C253 C254 1.478 . S
C254 C253 1.478 . S
C254 C255 1.397 . S
C254 C271 1.394 . S
C255 C254 1.397 . S
C255 C256 1.438 . S
C255 C260 1.429 . S
C256 C255 1.438 . S
C256 C257 1.428 . S
C256 C269 1.394 . S
C257 H249 0.949 . S
C257 C256 1.428 . S
C257 C258 1.345 . S
C258 H250 0.950 . S
C258 C257 1.345 . S
C258 C259 1.424 . S
C259 H251 0.951 . S
C259 C258 1.424 . S
C259 C260 1.347 . S
C260 H252 0.951 . S
C260 C255 1.429 . S
C260 C259 1.347 . S
H261 C262 0.951 . S
C262 H261 0.951 . S
C262 C268 1.265 . S
H263 C268 0.950 . S
H264 C272 0.949 . S
H265 C273 0.950 . S
H266 C274 0.951 . S
H267 C275 0.951 . S
C268 C262 1.265 . S
C268 H263 0.950 . S
C268 C269 1.478 . S
C269 C256 1.394 . S
C269 C268 1.478 . S
C269 C270 1.397 . S
C270 C269 1.397 . S
C270 C271 1.438 . S
C270 C275 1.429 . S
C271 C254 1.394 . S
C271 C270 1.438 . S
C271 C272 1.428 . S
C272 H264 0.949 . S
C272 C271 1.428 . S
C272 C273 1.345 . S
C273 H265 0.950 . S
C273 C272 1.345 . S
C273 C274 1.424 . S
C274 H266 0.951 . S
C274 C273 1.424 . S
C274 C275 1.347 . S
C275 H267 0.951 . S
C275 C270 1.429 . S
C275 C274 1.347 . S
H276 C277 0.951 . S
C277 H276 0.951 . S
C277 C283 1.265 . S
H278 C283 0.950 1_655 S
H279 C287 0.949 . S
H280 C288 0.950 . S
H281 C289 0.951 . S
H282 C290 0.951 . S
C283 C277 1.265 . S
C283 H278 0.950 1_455 S
C283 C284 1.478 . S
C284 C283 1.478 . S
C284 C285 1.397 . S
C284 C301 1.394 . S
C285 C284 1.397 . S
C285 C286 1.438 . S
C285 C290 1.429 . S
C286 C285 1.438 . S
C286 C287 1.428 . S
C286 C299 1.394 . S
C287 H279 0.949 . S
C287 C286 1.428 . S
C287 C288 1.345 . S
C288 H280 0.950 . S
C288 C287 1.345 . S
C288 C289 1.424 . S
C289 H281 0.951 . S
C289 C288 1.424 . S
C289 C290 1.347 . S
C290 H282 0.951 . S
C290 C285 1.429 . S
C290 C289 1.347 . S
H291 C292 0.951 . S
C292 H291 0.951 . S
C292 C298 1.265 1_655 S
H293 C298 0.950 . S
H294 C302 0.949 . S
H295 C303 0.950 . S
H296 C304 0.951 . S
H297 C305 0.951 . S
C298 C292 1.265 1_455 S
C298 H293 0.950 . S
C298 C299 1.478 . S
C299 C286 1.394 . S
C299 C298 1.478 . S
C299 C300 1.397 . S
C300 C299 1.397 . S
C300 C301 1.438 . S
C300 C305 1.429 1_455 S
C301 C284 1.394 . S
C301 C300 1.438 . S
C301 C302 1.428 1_455 S
C302 H294 0.949 . S
C302 C301 1.428 1_655 S
C302 C303 1.345 . S
C303 H295 0.950 . S
C303 C302 1.345 . S
C303 C304 1.424 . S
C304 H296 0.951 . S
C304 C303 1.424 . S
C304 C305 1.347 . S
C305 H297 0.951 . S
C305 C300 1.429 1_655 S
C305 C304 1.347 . S
H306 C307 0.951 . S
C307 H306 0.951 . S
C307 C313 1.265 . S
H308 C313 0.950 . S
H309 C317 0.949 . S
H310 C318 0.950 . S
H311 C319 0.951 1_554 S
H312 C320 0.951 . S
C313 C307 1.265 . S
C313 H308 0.950 . S
C313 C314 1.479 1_565 S
C314 C313 1.479 1_545 S
C314 C315 1.398 1_545 S
C314 C331 1.393 . S
C315 C314 1.398 1_565 S
C315 C316 1.438 1_554 S
C315 C320 1.429 . S
C316 C315 1.438 1_556 S
C316 C317 1.428 . S
C316 C329 1.394 1_565 S
C317 H309 0.949 . S
C317 C316 1.428 . S
C317 C318 1.345 . S
C318 H310 0.950 . S
C318 C317 1.345 . S
C318 C319 1.424 . S
C319 H311 0.951 1_556 S
C319 C318 1.424 . S
C319 C320 1.347 1_556 S
C320 H312 0.951 . S
C320 C315 1.429 . S
C320 C319 1.347 1_554 S
H321 C322 0.951 . S
C322 H321 0.951 . S
C322 C328 1.265 . S
H323 C328 0.950 . S
H324 C332 0.949 . S
H325 C333 0.950 . S
H326 C334 0.951 1_556 S
H327 C335 0.951 . S
C328 C322 1.265 . S
C328 H323 0.950 . S
C328 C329 1.478 . S
C329 C316 1.394 1_545 S
C329 C328 1.478 . S
C329 C330 1.397 . S
C330 C329 1.397 . S
C330 C331 1.438 1_556 S
C330 C335 1.429 . S
C331 C314 1.393 . S
C331 C330 1.438 1_554 S
C331 C332 1.428 . S
C332 H324 0.949 . S
C332 C331 1.428 . S
C332 C333 1.345 . S
C333 H325 0.950 . S
C333 C332 1.345 . S
C333 C334 1.424 . S
C334 H326 0.951 1_554 S
C334 C333 1.424 . S
C334 C335 1.347 1_554 S
C335 H327 0.951 . S
C335 C330 1.429 . S
C335 C334 1.347 1_556 S
H336 C337 0.951 . S
C337 H336 0.951 . S
C337 C343 1.265 . S
H338 C343 0.950 . S
H339 C347 0.949 . S
H340 C348 0.950 . S
H341 C349 0.951 . S
H342 C350 0.951 . S
C343 C337 1.265 . S
C343 H338 0.950 . S
C343 C344 1.478 . S
C344 C343 1.478 . S
C344 C345 1.397 . S
C344 C361 1.394 . S
C345 C344 1.397 . S
C345 C346 1.438 . S
C345 C350 1.429 . S
C346 C345 1.438 . S
C346 C347 1.428 . S
C346 C359 1.394 . S
C347 H339 0.949 . S
C347 C346 1.428 . S
C347 C348 1.345 . S
C348 H340 0.950 . S
C348 C347 1.345 . S
C348 C349 1.424 . S
C349 H341 0.951 . S
C349 C348 1.424 . S
C349 C350 1.347 . S
C350 H342 0.951 . S
C350 C345 1.429 . S
C350 C349 1.347 . S
H351 C352 0.951 . S
C352 H351 0.951 . S
C352 C358 1.265 . S
H353 C358 0.950 . S
H354 C362 0.949 . S
H355 C363 0.950 . S
H356 C364 0.951 . S
H357 C365 0.951 . S
C358 C352 1.265 . S
C358 H353 0.950 . S
C358 C359 1.478 . S
C359 C346 1.394 . S
C359 C358 1.478 . S
C359 C360 1.397 . S
C360 C359 1.397 . S
C360 C361 1.438 . S
C360 C365 1.429 . S
C361 C344 1.394 . S
C361 C360 1.438 . S
C361 C362 1.428 . S
C362 H354 0.949 . S
C362 C361 1.428 . S
C362 C363 1.345 . S
C363 H355 0.950 . S
C363 C362 1.345 . S
C363 C364 1.424 . S
C364 H356 0.951 . S
C364 C363 1.424 . S
C364 C365 1.347 . S
C365 H357 0.951 . S
C365 C360 1.429 . S
C365 C364 1.347 . S
C97 C2 1.865 . S
C112 C93 1.840 . S
C127 C36 1.913 . S
C142 C6 1.921 . S
C157 C61 1.890 . S
C172 C70 1.898 . S
C187 C66 1.874 . S
C202 C29 1.844 . S
C217 C38 1.923 . S
C232 C4 1.892 . S
C247 C68 1.919 . S
C262 C34 1.943 . S
C277 N18 0.653 . S
C292 N13 0.630 1_655 S
C307 N45 0.564 1_565 S
C322 N50 0.517 . S
C337 N77 0.371 . S
C352 N82 0.333 . S
