# Generated by pormake.
# Topology wjc, (7)-cn, num edge types: 1
# Building blocks:
#     Node 0, Type 0, BuildingBlock: NUHQUE_clean_sbu_2, # of connection points: 7
#     Node 1, Type 0, BuildingBlock: NUHQUE_clean_sbu_2, # of connection points: 7
#     Node 2, Type 0, BuildingBlock: NUHQUE_clean_sbu_2, # of connection points: 7
#     Node 3, Type 0, BuildingBlock: NUHQUE_clean_sbu_2, # of connection points: 7
#     Node 4, Type 0, BuildingBlock: NUHQUE_clean_sbu_2, # of connection points: 7
#     Node 5, Type 0, BuildingBlock: NUHQUE_clean_sbu_2, # of connection points: 7
#     Node 6, Type 0, BuildingBlock: NUHQUE_clean_sbu_2, # of connection points: 7
#     Node 7, Type 0, BuildingBlock: NUHQUE_clean_sbu_2, # of connection points: 7
#     Node 8, Type 0, BuildingBlock: NUHQUE_clean_sbu_2, # of connection points: 7
#     Node 9, Type 0, BuildingBlock: NUHQUE_clean_sbu_2, # of connection points: 7
#     Node 10, Type 0, BuildingBlock: NUHQUE_clean_sbu_2, # of connection points: 7
#     Node 11, Type 0, BuildingBlock: NUHQUE_clean_sbu_2, # of connection points: 7
#     Node 12, Type 0, BuildingBlock: NUHQUE_clean_sbu_2, # of connection points: 7
#     Node 13, Type 0, BuildingBlock: NUHQUE_clean_sbu_2, # of connection points: 7
#     Node 14, Type 0, BuildingBlock: NUHQUE_clean_sbu_2, # of connection points: 7
#     Node 15, Type 0, BuildingBlock: NUHQUE_clean_sbu_2, # of connection points: 7
#     Node 16, Type 0, BuildingBlock: NUHQUE_clean_sbu_2, # of connection points: 7
#     Node 17, Type 0, BuildingBlock: NUHQUE_clean_sbu_2, # of connection points: 7
#     Node 18, Type 0, BuildingBlock: NUHQUE_clean_sbu_2, # of connection points: 7
#     Node 19, Type 0, BuildingBlock: NUHQUE_clean_sbu_2, # of connection points: 7
#     Node 20, Type 0, BuildingBlock: NUHQUE_clean_sbu_2, # of connection points: 7
#     Node 21, Type 0, BuildingBlock: NUHQUE_clean_sbu_2, # of connection points: 7
#     Node 22, Type 0, BuildingBlock: NUHQUE_clean_sbu_2, # of connection points: 7
#     Node 23, Type 0, BuildingBlock: NUHQUE_clean_sbu_2, # of connection points: 7
#     Edge 24, Type (0, 0), None
#     Edge 25, Type (0, 0), None
#     Edge 26, Type (0, 0), None
#     Edge 27, Type (0, 0), None
#     Edge 28, Type (0, 0), None
#     Edge 29, Type (0, 0), None
#     Edge 30, Type (0, 0), None
#     Edge 31, Type (0, 0), None
#     Edge 32, Type (0, 0), None
#     Edge 33, Type (0, 0), None
#     Edge 34, Type (0, 0), None
#     Edge 35, Type (0, 0), None
#     Edge 36, Type (0, 0), None
#     Edge 37, Type (0, 0), None
#     Edge 38, Type (0, 0), None
#     Edge 39, Type (0, 0), None
#     Edge 40, Type (0, 0), None
#     Edge 41, Type (0, 0), None
#     Edge 42, Type (0, 0), None
#     Edge 43, Type (0, 0), None
#     Edge 44, Type (0, 0), None
#     Edge 45, Type (0, 0), None
#     Edge 46, Type (0, 0), None
#     Edge 47, Type (0, 0), None
#     Edge 48, Type (0, 0), None
#     Edge 49, Type (0, 0), None
#     Edge 50, Type (0, 0), None
#     Edge 51, Type (0, 0), None
#     Edge 52, Type (0, 0), None
#     Edge 53, Type (0, 0), None
#     Edge 54, Type (0, 0), None
#     Edge 55, Type (0, 0), None
#     Edge 56, Type (0, 0), None
#     Edge 57, Type (0, 0), None
#     Edge 58, Type (0, 0), None
#     Edge 59, Type (0, 0), None
#     Edge 60, Type (0, 0), None
#     Edge 61, Type (0, 0), None
#     Edge 62, Type (0, 0), None
#     Edge 63, Type (0, 0), None
#     Edge 64, Type (0, 0), None
#     Edge 65, Type (0, 0), None
#     Edge 66, Type (0, 0), None
#     Edge 67, Type (0, 0), None
#     Edge 68, Type (0, 0), None
#     Edge 69, Type (0, 0), None
#     Edge 70, Type (0, 0), None
#     Edge 71, Type (0, 0), None
#     Edge 72, Type (0, 0), None
#     Edge 73, Type (0, 0), None
#     Edge 74, Type (0, 0), None
#     Edge 75, Type (0, 0), None
#     Edge 76, Type (0, 0), None
#     Edge 77, Type (0, 0), None
#     Edge 78, Type (0, 0), None
#     Edge 79, Type (0, 0), None
#     Edge 80, Type (0, 0), None
#     Edge 81, Type (0, 0), None
#     Edge 82, Type (0, 0), None
#     Edge 83, Type (0, 0), None
#     Edge 84, Type (0, 0), None
#     Edge 85, Type (0, 0), None
#     Edge 86, Type (0, 0), None
#     Edge 87, Type (0, 0), None
#     Edge 88, Type (0, 0), None
#     Edge 89, Type (0, 0), None
#     Edge 90, Type (0, 0), None
#     Edge 91, Type (0, 0), None
#     Edge 92, Type (0, 0), None
#     Edge 93, Type (0, 0), None
#     Edge 94, Type (0, 0), None
#     Edge 95, Type (0, 0), None
#     Edge 96, Type (0, 0), None
#     Edge 97, Type (0, 0), None
#     Edge 98, Type (0, 0), None
#     Edge 99, Type (0, 0), None
#     Edge 100, Type (0, 0), None
#     Edge 101, Type (0, 0), None
#     Edge 102, Type (0, 0), None
#     Edge 103, Type (0, 0), None
#     Edge 104, Type (0, 0), None
#     Edge 105, Type (0, 0), None
#     Edge 106, Type (0, 0), None
#     Edge 107, Type (0, 0), None
# Relax obj value: 0.264
# Max RMSD: 0.217
# Mean RMSD: 0.217
data_MOF--net-wjc--node1-NUHQUE_clean_sbu_2--edge1-none
_symmetry_space_group_name_H-M    P1
_symmetry_Int_Tables_number       1
_symmetry_cell_setting            triclinic
loop_
_symmetry_equiv_pos_as_xyz
'x, y, z'
_cell_length_a     29.314488
_cell_length_b     29.362505
_cell_length_c     24.874581
_cell_angle_alpha  89.542556
_cell_angle_beta   90.276571
_cell_angle_gamma 120.4268
loop_
_atom_site_label
_atom_site_type_symbol
_atom_site_fract_x
_atom_site_fract_y
_atom_site_fract_z
_atom_type_partial_charge
O0 O 0.48162 0.33603 0.05813 0.0
Tb1 Tb 0.41356 0.26205 0.08218 0.0
Eu2 Eu 0.38554 0.10075 0.12846 0.0
C3 C 0.5223 0.36104 0.0904 0.0
O4 O 0.52882 0.33486 0.12983 0.0
C5 C 0.40156 0.20228 0.18928 0.0
O6 O 0.32625 0.01436 0.13948 0.0
C7 C 0.47886 0.11911 0.15655 0.0
C8 C 0.29469 0.98473 0.10082 0.0
O9 O 0.29309 1.00612 0.05487 0.0
C10 C 0.39137 0.15612 0.02676 0.0
C11 C 0.51249 0.09557 0.14963 0.0
C12 C 0.56717 0.12945 0.14493 0.0
C13 C 0.59982 0.10936 0.13187 0.0
C14 C 0.57775 0.05486 0.12404 0.0
C15 C 0.52343 0.01917 0.13271 0.0
C16 C 0.49094 0.0406 0.1452 0.0
O17 O 0.42447 0.24959 0.16646 0.0
O18 O 0.36588 0.16038 0.16289 0.0
O19 O 0.35525 0.2756 0.12011 0.0
O20 O 0.34995 0.26218 0.03548 0.0
C21 C 0.32961 0.27323 0.0765 0.0
O22 O 0.3786 0.10778 0.03881 0.0
O23 O 0.40922 0.18836 0.0673 0.0
O24 O 0.43696 0.09387 0.18751 0.0
O25 O 0.46996 0.1386 0.11272 0.0
H26 H 0.58416 0.17166 0.15006 0.0
H27 H 0.60382 0.04063 0.11243 0.0
H28 H 0.449 0.0152 0.1521 0.0
O29 O 0.1761 0.49608 0.13009 0.0
Tb30 Tb 0.18588 0.4286 0.11704 0.0
Eu31 Eu 0.26441 0.37624 0.12406 0.0
C32 C 0.14793 0.49441 0.17187 0.0
O33 O 0.13341 0.45582 0.20697 0.0
C34 C 0.20943 0.39196 0.22124 0.0
O35 O 0.28694 0.31364 0.11862 0.0
C36 C 0.35148 0.4656 0.14184 0.0
C37 C 0.29547 0.29607 0.07352 0.0
O38 O 0.28595 0.31099 0.027 0.0
C39 C 0.23121 0.4072 0.0141 0.0
C40 C 0.40644 0.50008 0.12201 0.0
C41 C 0.4266 0.55471 0.11692 0.0
C42 C 0.47974 0.58889 0.1028 0.0
C43 C 0.51293 0.56806 0.09359 0.0
C44 C 0.49475 0.51409 0.10148 0.0
C45 C 0.44089 0.48024 0.11476 0.0
O46 O 0.22046 0.43557 0.19594 0.0
O47 O 0.20861 0.35333 0.19445 0.0
O48 O 0.10185 0.39749 0.10356 0.0
O49 O 0.12755 0.3432 0.12181 0.0
C50 C 0.08657 0.34817 0.11175 0.0
O51 O 0.2343 0.36911 0.03898 0.0
O52 O 0.22736 0.44363 0.04086 0.0
O53 O 0.34039 0.42038 0.16381 0.0
O54 O 0.31219 0.46238 0.11318 0.0
H55 H 0.40131 0.57081 0.12545 0.0
H56 H 0.55403 0.59461 0.08325 0.0
H57 H 0.42621 0.43875 0.12236 0.0
O58 O 0.68382 0.1362 0.09181 0.0
Tb59 Tb 0.76489 0.15609 0.10382 0.0
Eu60 Eu 0.90642 0.2685 0.11225 0.0
C61 C 0.65755 0.14416 0.12949 0.0
O62 O 0.68291 0.17313 0.1713 0.0
C63 C 0.83303 0.1938 0.20296 0.0
O64 O 0.99516 0.32142 0.11188 0.0
C65 C 0.86974 0.33279 0.11952 0.0
C66 C 0.03063 0.30662 0.11352 0.0
O67 O 0.01625 0.25653 0.11789 0.0
C68 C 0.84029 0.21431 0.00892 0.0
C69 C 0.89296 0.38943 0.13123 0.0
C70 C 0.85982 0.4102 0.13966 0.0
C71 C 0.88143 0.46277 0.15564 0.0
C72 C 0.93623 0.49466 0.16343 0.0
C73 C 0.97053 0.47551 0.15285 0.0
C74 C 0.94806 0.42229 0.13671 0.0
O75 O 0.79792 0.19995 0.17627 0.0
O76 O 0.87981 0.21028 0.18151 0.0
O77 O 0.7245 0.07714 0.13708 0.0
O78 O 0.78771 0.0978 0.08203 0.0
C79 C 0.75151 0.06018 0.11191 0.0
O80 O 0.87986 0.21835 0.03772 0.0
O81 O 0.79446 0.20123 0.03051 0.0
O82 O 0.87053 0.30414 0.15964 0.0
O83 O 0.88308 0.32083 0.07379 0.0
H84 H 0.81737 0.38537 0.13471 0.0
H85 H 0.95196 0.53481 0.17717 0.0
H86 H 0.97303 0.40601 0.12778 0.0
O87 O 0.54486 0.67669 0.07492 0.0
Tb88 Tb 0.60691 0.75474 0.09917 0.0
Eu89 Eu 0.64433 0.88466 0.13155 0.0
C90 C 0.50346 0.64686 0.10513 0.0
O91 O 0.49265 0.6679 0.14595 0.0
C92 C 0.63092 0.80181 0.20936 0.0
O93 O 0.6933 0.97256 0.14026 0.0
C94 C 0.54727 0.86043 0.15099 0.0
C95 C 0.73475 1.00419 0.11093 0.0
O96 O 0.75335 0.98525 0.07508 0.0
C97 C 0.63157 0.84307 0.01118 0.0
C98 C 0.51298 0.88313 0.14106 0.0
C99 C 0.45826 0.84934 0.13535 0.0
C100 C 0.42533 0.87016 0.12526 0.0
C101 C 0.44731 0.92513 0.12092 0.0
C102 C 0.50154 0.96026 0.1304 0.0
C103 C 0.53409 0.93823 0.14004 0.0
O104 O 0.58986 0.77168 0.17916 0.0
O105 O 0.67088 0.84306 0.18733 0.0
O106 O 0.63773 0.70363 0.11939 0.0
O107 O 0.69167 0.78051 0.08925 0.0
C108 C 0.68658 0.73605 0.10672 0.0
O109 O 0.66139 0.88133 0.04454 0.0
O110 O 0.60076 0.79343 0.02638 0.0
O111 O 0.5867 0.88646 0.1845 0.0
O112 O 0.56042 0.84243 0.1092 0.0
H113 H 0.44133 0.80694 0.1388 0.0
H114 H 0.42117 0.94011 0.11193 0.0
H115 H 0.57579 0.96339 0.1484 0.0
O116 O 0.83549 0.50409 0.12017 0.0
Tb117 Tb 0.82959 0.57452 0.12764 0.0
Eu118 Eu 0.75241 0.62764 0.14028 0.0
C119 C 0.84821 0.48636 0.16295 0.0
O120 O 0.84912 0.50696 0.20978 0.0
C121 C 0.81173 0.61077 0.23357 0.0
O122 O 0.71359 0.67713 0.13779 0.0
C123 C 0.67103 0.53328 0.15252 0.0
C124 C 0.727 0.72076 0.11068 0.0
O125 O 0.77094 0.74474 0.08269 0.0
C126 C 0.78705 0.60548 0.02702 0.0
C127 C 0.61752 0.50255 0.12868 0.0
C128 C 0.59786 0.44941 0.11594 0.0
C129 C 0.54689 0.4188 0.09464 0.0
C130 C 0.5155 0.44179 0.08556 0.0
C131 C 0.53273 0.49389 0.10125 0.0
C132 C 0.58465 0.52446 0.12182 0.0
O133 O 0.7966 0.56704 0.20709 0.0
O134 O 0.81076 0.64989 0.20872 0.0
O135 O 0.91335 0.60399 0.13901 0.0
O136 O 0.88933 0.65876 0.11654 0.0
C137 C 0.92953 0.65306 0.12838 0.0
O138 O 0.7832 0.64141 0.05498 0.0
O139 O 0.79132 0.56735 0.05045 0.0
O140 O 0.68001 0.57354 0.18247 0.0
O141 O 0.7112 0.54323 0.12158 0.0
H142 H 0.62179 0.43152 0.12383 0.0
H143 H 0.47599 0.41783 0.06938 0.0
H144 H 0.59883 0.56456 0.13479 0.0
O145 O 0.34052 0.84654 0.08885 0.0
Tb146 Tb 0.26169 0.83207 0.10517 0.0
Eu147 Eu 0.10673 0.72533 0.13207 0.0
C148 C 0.36731 0.83596 0.12421 0.0
O149 O 0.34294 0.80667 0.16644 0.0
C150 C 0.1987 0.8061 0.20781 0.0
O151 O 0.01916 0.68044 0.14649 0.0
C152 C 0.13588 0.65502 0.13523 0.0
C153 C 0.98558 0.69343 0.12692 0.0
O154 O 1.00234 0.73796 0.10048 0.0
C155 C 0.16903 0.78235 0.02884 0.0
C156 C 0.10981 0.59771 0.1456 0.0
C157 C 0.14094 0.57475 0.15529 0.0
C158 C 0.11692 0.52092 0.16782 0.0
C159 C 0.0616 0.48998 0.1707 0.0
C160 C 0.02939 0.51111 0.15729 0.0
C161 C 0.05424 0.56578 0.14563 0.0
O162 O 0.22782 0.79227 0.18031 0.0
O163 O 0.15009 0.79113 0.19226 0.0
O164 O 0.28157 0.90535 0.14558 0.0
O165 O 0.25639 0.89558 0.06409 0.0
C166 C 0.27311 0.92778 0.10468 0.0
O167 O 0.12448 0.76901 0.05336 0.0
O168 O 0.20388 0.77337 0.05213 0.0
O169 O 0.13921 0.684 0.17652 0.0
O170 O 0.12258 0.66959 0.09068 0.0
H171 H 0.1837 0.59868 0.15315 0.0
H172 H 0.04375 0.44855 0.18117 0.0
H173 H 0.03086 0.58363 0.13515 0.0
O174 O 0.67965 0.52489 0.42399 0.0
Tb175 Tb 0.75378 0.59283 0.40045 0.0
Eu176 Eu 0.91628 0.62739 0.35731 0.0
C177 C 0.65352 0.48559 0.39075 0.0
O178 O 0.67864 0.47992 0.35014 0.0
C179 C 0.81324 0.60979 0.29237 0.0
O180 O 1.00318 0.677 0.33866 0.0
C181 C 0.88943 0.52899 0.3448 0.0
C182 C 0.03611 0.71957 0.36566 0.0
O183 O 0.01818 0.7393 0.40138 0.0
C184 C 0.86011 0.62696 0.45557 0.0
C185 C 0.91619 0.49859 0.33627 0.0
C186 C 0.88593 0.44437 0.3255 0.0
C187 C 0.91096 0.41562 0.31433 0.0
C188 C 0.96641 0.44131 0.31389 0.0
C189 C 0.99753 0.49468 0.3284 0.0
C190 C 0.97168 0.52331 0.33883 0.0
O191 O 0.76676 0.58355 0.31652 0.0
O192 O 0.85597 0.64574 0.3183 0.0
O193 O 0.74181 0.65349 0.36491 0.0
O194 O 0.75319 0.65408 0.44976 0.0
C195 C 0.74353 0.67685 0.40964 0.0
O196 O 0.90979 0.64684 0.44345 0.0
O197 O 0.82707 0.59749 0.41856 0.0
O198 O 0.893 0.5603 0.30504 0.0
O199 O 0.89567 0.55088 0.39215 0.0
H200 H 0.84309 0.42466 0.32558 0.0
H201 H 0.98513 0.41869 0.30427 0.0
H202 H 0.99412 0.56447 0.35022 0.0
O203 O 0.18774 0.68415 0.37392 0.0
Tb204 Tb 0.193 0.76028 0.36638 0.0
Eu205 Eu 0.27678 0.89625 0.35052 0.0
C206 C 0.17715 0.65528 0.33048 0.0
O207 O 0.17747 0.67659 0.2838 0.0
C208 C 0.21229 0.81874 0.26412 0.0
O209 O 0.32266 0.98479 0.3535 0.0
C210 C 0.3505 0.87424 0.33 0.0
C211 C 0.30562 0.01838 0.35522 0.0
O212 O 0.25494 1.00237 0.35635 0.0
C213 C 0.2377 0.8362 0.46398 0.0
C214 C 0.40832 0.89894 0.33653 0.0
C215 C 0.43031 0.86643 0.33727 0.0
C216 C 0.48483 0.88845 0.34238 0.0
C217 C 0.51782 0.94339 0.34722 0.0
C218 C 0.49761 0.97803 0.34309 0.0
C219 C 0.44178 0.95435 0.33816 0.0
O220 O 0.23067 0.79292 0.29064 0.0
O221 O 0.21351 0.85936 0.28706 0.0
O222 O 0.11039 0.70815 0.34484 0.0
O223 O 0.13145 0.78023 0.38374 0.0
C224 C 0.09262 0.73738 0.36301 0.0
O225 O 0.24376 0.87689 0.43523 0.0
O226 O 0.23294 0.79336 0.44184 0.0
O227 O 0.33464 0.89738 0.29563 0.0
O228 O 0.32143 0.85779 0.37368 0.0
H229 H 0.40504 0.82401 0.33323 0.0
H230 H 0.5595 0.95818 0.35276 0.0
H231 H 0.42337 0.97801 0.33391 0.0
O232 O 0.49102 0.15755 0.37026 0.0
Tb233 Tb 0.42695 0.17298 0.35537 0.0
Eu234 Eu 0.38317 0.26043 0.33921 0.0
C235 C 0.52356 0.16098 0.33224 0.0
O236 O 0.5242 0.18316 0.28601 0.0
C237 C 0.39977 0.20063 0.24769 0.0
O238 O 0.33244 0.29766 0.33794 0.0
C239 C 0.47858 0.34075 0.32966 0.0
C240 C 0.29137 0.28581 0.36843 0.0
O241 O 0.27208 0.24521 0.40146 0.0
C242 C 0.39938 0.22134 0.45233 0.0
C243 C 0.51064 0.39364 0.35393 0.0
C244 C 0.56386 0.41196 0.36587 0.0
C245 C 0.59583 0.46244 0.38722 0.0
C246 C 0.57418 0.49474 0.39724 0.0
C247 C 0.52193 0.47885 0.38251 0.0
C248 C 0.49002 0.42739 0.36163 0.0
O249 O 0.44084 0.20752 0.27549 0.0
O250 O 0.36124 0.20274 0.27177 0.0
O251 O 0.39613 0.08903 0.35114 0.0
O252 O 0.34101 0.11553 0.35903 0.0
C253 C 0.34654 0.07426 0.35499 0.0
O254 O 0.36549 0.22818 0.42361 0.0
O255 O 0.43605 0.21432 0.43015 0.0
O256 O 0.43892 0.33359 0.29913 0.0
O257 O 0.46725 0.29974 0.36029 0.0
H258 H 0.58076 0.38739 0.35728 0.0
H259 H 0.59924 0.53382 0.41362 0.0
H260 H 0.44982 0.41416 0.34912 0.0
O261 O 0.34028 0.4663 0.40966 0.0
Tb262 Tb 0.26106 0.40698 0.38531 0.0
Eu263 Eu 0.12184 0.37818 0.3688 0.0
C264 C 0.37004 0.50975 0.38208 0.0
O265 O 0.34886 0.52381 0.3435 0.0
C266 C 0.20137 0.38819 0.27939 0.0
O267 O 0.03337 0.3399 0.3624 0.0
C268 C 0.15738 0.47949 0.37153 0.0
C269 C 0.999 0.29003 0.37284 0.0
O270 O 0.01476 0.25632 0.38352 0.0
C271 C 0.17757 0.37868 0.47491 0.0
C272 C 0.13387 0.51251 0.35962 0.0
C273 C 0.16655 0.56721 0.35282 0.0
C274 C 0.14468 0.59776 0.33618 0.0
C275 C 0.09018 0.57364 0.32612 0.0
C276 C 0.05627 0.51932 0.33512 0.0
C277 C 0.07894 0.48901 0.35192 0.0
O278 O 0.23697 0.42612 0.30975 0.0
O279 O 0.15398 0.35495 0.29843 0.0
O280 O 0.30595 0.37336 0.35357 0.0
O281 O 0.2359 0.32298 0.39797 0.0
C282 C 0.2759 0.32589 0.37191 0.0
O283 O 0.14258 0.34571 0.44066 0.0
O284 O 0.22553 0.4136 0.45894 0.0
O285 O 0.1625 0.45548 0.32991 0.0
O286 O 0.13925 0.44868 0.41402 0.0
H287 H 0.20882 0.58577 0.35948 0.0
H288 H 0.07437 0.59785 0.31184 0.0
H289 H 0.05424 0.44709 0.3596 0.0
O290 O 0.85139 0.32908 0.34928 0.0
Tb291 Tb 0.84348 0.25214 0.36237 0.0
Eu292 Eu 0.75204 0.11567 0.34693 0.0
C293 C 0.88073 0.35783 0.30866 0.0
O294 O 0.89726 0.33586 0.27396 0.0
C295 C 0.82815 0.19156 0.26108 0.0
O296 O 0.70444 0.0265 0.35133 0.0
C297 C 0.68096 0.13956 0.31844 0.0
C298 C 0.7202 0.9928 0.36294 0.0
O299 O 0.76974 0.00915 0.37506 0.0
C300 C 0.78491 0.17755 0.45915 0.0
C301 C 0.62329 0.11593 0.32618 0.0
C302 C 0.6016 0.14876 0.32655 0.0
C303 C 0.54758 0.12748 0.336 0.0
C304 C 0.51488 0.07282 0.34489 0.0
C305 C 0.53453 0.03778 0.34078 0.0
C306 C 0.58977 0.06084 0.33184 0.0
O307 O 0.81467 0.22328 0.28314 0.0
O308 O 0.81933 0.14889 0.28735 0.0
O309 O 0.92688 0.30772 0.37626 0.0
O310 O 0.90252 0.22667 0.36636 0.0
C311 C 0.9429 0.27403 0.37347 0.0
O312 O 0.77863 0.13533 0.43386 0.0
O313 O 0.79485 0.22109 0.43359 0.0
O314 O 0.69561 0.11292 0.28814 0.0
O315 O 0.71093 0.15933 0.36114 0.0
H316 H 0.62678 0.1909 0.31984 0.0
H317 H 0.4737 0.05832 0.35334 0.0
H318 H 0.60773 0.03683 0.32792 0.0
O319 O 0.534 0.85068 0.37911 0.0
Tb320 Tb 0.59934 0.83695 0.36763 0.0
Eu321 Eu 0.64382 0.74706 0.36594 0.0
C322 C 0.50882 0.85526 0.33759 0.0
O323 O 0.51839 0.84418 0.28943 0.0
C324 C 0.6271 0.79896 0.26768 0.0
O325 O 0.70433 0.72187 0.3695 0.0
C326 C 0.55178 0.66245 0.35027 0.0
C327 C 0.72147 0.71141 0.41408 0.0
O328 O 0.70675 0.71968 0.46099 0.0
C329 C 0.6213 0.79132 0.47212 0.0
C330 C 0.5172 0.60673 0.36778 0.0
C331 C 0.46254 0.58671 0.37255 0.0
C332 C 0.42806 0.53314 0.38453 0.0
C333 C 0.4486 0.49944 0.39218 0.0
C334 C 0.50253 0.51745 0.38421 0.0
C335 C 0.53679 0.57178 0.37296 0.0
O336 O 0.58595 0.79566 0.29189 0.0
O337 O 0.66642 0.80294 0.29627 0.0
O338 O 0.63062 0.9202 0.35106 0.0
O339 O 0.68433 0.89617 0.37761 0.0
C340 C 0.67946 0.93645 0.36326 0.0
O341 O 0.65581 0.7821 0.44847 0.0
O342 O 0.58624 0.79775 0.44507 0.0
O343 O 0.59487 0.6735 0.32398 0.0
O344 O 0.55855 0.70037 0.3829 0.0
H345 H 0.44667 0.61252 0.36547 0.0
H346 H 0.42178 0.45813 0.40139 0.0
H347 H 0.57833 0.58663 0.36541 0.0
O348 O 0.53682 0.67862 0.92516 0.0
Tb349 Tb 0.60497 0.7526 0.90123 0.0
Eu350 Eu 0.63258 0.91347 0.85453 0.0
C351 C 0.49613 0.65374 0.89287 0.0
O352 O 0.48962 0.68009 0.8536 0.0
C353 C 0.61726 0.81208 0.79384 0.0
O354 O 0.69184 0.99981 0.84327 0.0
C355 C 0.53935 0.89518 0.82616 0.0
C356 C 0.72344 0.02959 0.88183 0.0
O357 O 0.72513 0.00837 0.92787 0.0
C358 C 0.62676 0.85858 0.95645 0.0
C359 C 0.50563 0.91861 0.83344 0.0
C360 C 0.45098 0.88464 0.83829 0.0
C361 C 0.41829 0.90462 0.85158 0.0
C362 C 0.4403 0.95911 0.85952 0.0
C363 C 0.49455 0.99488 0.85069 0.0
C364 C 0.52709 0.97356 0.83795 0.0
O365 O 0.59409 0.76488 0.81692 0.0
O366 O 0.65276 0.85415 0.82014 0.0
O367 O 0.66313 0.73906 0.86296 0.0
O368 O 0.66867 0.75232 0.94763 0.0
C369 C 0.68888 0.74135 0.90644 0.0
O370 O 0.63929 0.90683 0.94429 0.0
O371 O 0.60949 0.82641 0.91584 0.0
O372 O 0.58143 0.92084 0.79552 0.0
O373 O 0.54801 0.87512 0.8697 0.0
H374 H 0.43404 0.84245 0.83307 0.0
H375 H 0.41423 0.97327 0.87132 0.0
H376 H 0.569 0.99904 0.83089 0.0
O377 O 0.84193 0.51847 0.85202 0.0
Tb378 Tb 0.83233 0.58608 0.86492 0.0
Eu379 Eu 0.75397 0.63849 0.85796 0.0
C380 C 0.86984 0.5199 0.81012 0.0
O381 O 0.88423 0.55835 0.77488 0.0
C382 C 0.80892 0.62273 0.76071 0.0
O383 O 0.73147 0.70108 0.86383 0.0
C384 C 0.66681 0.54915 0.84035 0.0
C385 C 0.72306 0.71853 0.90909 0.0
O386 O 0.73271 0.7035 0.95548 0.0
C387 C 0.78709 0.60747 0.96791 0.0
C388 C 0.61191 0.51469 0.86036 0.0
C389 C 0.59175 0.46006 0.86555 0.0
C390 C 0.53865 0.4259 0.87984 0.0
C391 C 0.50547 0.44675 0.88907 0.0
C392 C 0.52365 0.50071 0.88112 0.0
C393 C 0.57748 0.53454 0.8677 0.0
O394 O 0.79772 0.5791 0.78605 0.0
O395 O 0.80967 0.66137 0.78744 0.0
O396 O 0.91644 0.61713 0.87778 0.0
O397 O 0.89064 0.67151 0.86048 0.0
C398 C 0.93168 0.66649 0.86999 0.0
O399 O 0.78415 0.64563 0.94301 0.0
O400 O 0.79096 0.57104 0.94116 0.0
O401 O 0.67786 0.59437 0.81842 0.0
O402 O 0.70619 0.55235 0.86886 0.0
H403 H 0.61701 0.44394 0.85696 0.0
H404 H 0.46439 0.42023 0.89949 0.0
H405 H 0.59213 0.57603 0.86007 0.0
O406 O 0.33419 0.87844 0.89103 0.0
Tb407 Tb 0.25312 0.85829 0.87848 0.0
Eu408 Eu 0.11185 0.7461 0.86915 0.0
C409 C 0.36055 0.86978 0.85401 0.0
O410 O 0.33527 0.8399 0.81269 0.0
C411 C 0.18584 0.82104 0.77874 0.0
O412 O 0.02309 0.69325 0.86892 0.0
C413 C 0.14825 0.68155 0.86206 0.0
C414 C 0.98762 0.70808 0.86822 0.0
O415 O 1.00199 0.75823 0.86506 0.0
C416 C 0.17746 0.79973 0.97298 0.0
C417 C 0.12493 0.6249 0.85025 0.0
C418 C 0.15801 0.60405 0.84182 0.0
C419 C 0.13632 0.55145 0.8259 0.0
C420 C 0.08151 0.51961 0.81817 0.0
C421 C 0.04727 0.53881 0.82878 0.0
C422 C 0.06981 0.59207 0.84484 0.0
O423 O 0.22083 0.81489 0.80566 0.0
O424 O 0.13896 0.80455 0.79998 0.0
O425 O 0.29323 0.93741 0.84564 0.0
O426 O 0.22998 0.91622 0.90078 0.0
C427 C 0.2661 0.95409 0.87106 0.0
O428 O 0.13783 0.79558 0.94418 0.0
O429 O 0.2232 0.81256 0.95135 0.0
O430 O 0.14782 0.71039 0.82194 0.0
O431 O 0.13475 0.69347 0.9077 0.0
H432 H 0.20046 0.62884 0.84676 0.0
H433 H 0.06573 0.47944 0.80447 0.0
H434 H 0.04489 0.6084 0.8538 0.0
O435 O 0.47365 0.33813 0.90803 0.0
Tb436 Tb 0.4115 0.26003 0.88397 0.0
Eu437 Eu 0.37328 0.1297 0.85205 0.0
C438 C 0.51492 0.36792 0.87763 0.0
O439 O 0.52554 0.3468 0.83675 0.0
C440 C 0.38762 0.21267 0.77388 0.0
O441 O 0.32404 0.04185 0.84305 0.0
C442 C 0.47028 0.15346 0.83296 0.0
C443 C 0.28275 0.01005 0.87247 0.0
O444 O 0.26436 0.02877 0.9088 0.0
C445 C 0.38629 0.17171 0.97215 0.0
C446 C 0.50464 0.13081 0.84282 0.0
C447 C 0.55939 0.16468 0.84819 0.0
C448 C 0.59245 0.14395 0.85791 0.0
C449 C 0.57058 0.089 0.86226 0.0
C450 C 0.51632 0.05378 0.85308 0.0
C451 C 0.48362 0.07572 0.84379 0.0
O452 O 0.42862 0.24271 0.80418 0.0
O453 O 0.34741 0.17162 0.79588 0.0
O454 O 0.38082 0.31114 0.86323 0.0
O455 O 0.32678 0.23447 0.89377 0.0
C456 C 0.33196 0.27887 0.87597 0.0
O457 O 0.35608 0.1335 0.93891 0.0
O458 O 0.41745 0.22125 0.95681 0.0
O459 O 0.43084 0.12742 0.79949 0.0
O460 O 0.45715 0.17153 0.8747 0.0
H461 H 0.57624 0.20705 0.84469 0.0
H462 H 0.59684 0.07409 0.871 0.0
H463 H 0.44189 0.05051 0.83562 0.0
O464 O 0.18256 0.51042 0.86142 0.0
Tb465 Tb 0.18846 0.43994 0.85429 0.0
Eu466 Eu 0.26622 0.38727 0.84187 0.0
C467 C 0.16947 0.52777 0.81859 0.0
O468 O 0.16815 0.50673 0.77192 0.0
C469 C 0.2068 0.40383 0.7484 0.0
O470 O 0.3051 0.33784 0.84459 0.0
C471 C 0.34753 0.48172 0.8299 0.0
C472 C 0.29162 0.29425 0.87183 0.0
O473 O 0.24763 0.27036 0.89976 0.0
C474 C 0.23115 0.40915 0.95498 0.0
C475 C 0.40098 0.51238 0.85391 0.0
C476 C 0.42061 0.56547 0.8669 0.0
C477 C 0.47154 0.596 0.88835 0.0
C478 C 0.50291 0.57296 0.89731 0.0
C479 C 0.48569 0.52093 0.88142 0.0
C480 C 0.43383 0.49043 0.86072 0.0
O481 O 0.22155 0.4475 0.77485 0.0
O482 O 0.20797 0.36485 0.77332 0.0
O483 O 0.10466 0.41055 0.84333 0.0
O484 O 0.12872 0.35563 0.86494 0.0
C485 C 0.08849 0.36141 0.85353 0.0
O486 O 0.23516 0.37332 0.92705 0.0
O487 O 0.22668 0.44717 0.93154 0.0
O488 O 0.33865 0.44157 0.79984 0.0
O489 O 0.30727 0.47164 0.86076 0.0
H490 H 0.3967 0.5834 0.85908 0.0
H491 H 0.54241 0.59685 0.91356 0.0
H492 H 0.41968 0.45038 0.84762 0.0
O493 O 0.6775 0.16767 0.89366 0.0
Tb494 Tb 0.75627 0.18218 0.87691 0.0
Eu495 Eu 0.91121 0.28909 0.85001 0.0
C496 C 0.65047 0.1782 0.85856 0.0
O497 O 0.67454 0.20744 0.81621 0.0
C498 C 0.81931 0.208 0.77418 0.0
O499 O 0.99882 0.33416 0.83573 0.0
C500 C 0.88192 0.3593 0.8467 0.0
C501 C 0.03243 0.32102 0.85488 0.0
O502 O 0.0157 0.27621 0.88077 0.0
C503 C 0.8489 0.23203 0.95316 0.0
C504 C 0.90797 0.4166 0.8363 0.0
C505 C 0.87684 0.43956 0.82669 0.0
C506 C 0.90084 0.49339 0.81413 0.0
C507 C 0.95615 0.52433 0.81116 0.0
C508 C 0.98839 0.50321 0.82448 0.0
C509 C 0.96355 0.44855 0.83618 0.0
O510 O 0.78995 0.22165 0.80155 0.0
O511 O 0.86792 0.22314 0.78991 0.0
O512 O 0.73621 0.10871 0.83681 0.0
O513 O 0.76187 0.11891 0.91815 0.0
C514 C 0.74494 0.08651 0.87773 0.0
O515 O 0.89351 0.24547 0.92874 0.0
O516 O 0.81408 0.241 0.92983 0.0
O517 O 0.87866 0.3303 0.80545 0.0
O518 O 0.89518 0.34475 0.8913 0.0
H519 H 0.83407 0.41564 0.8289 0.0
H520 H 0.97399 0.56575 0.80066 0.0
H521 H 0.98694 0.4307 0.84662 0.0
O522 O 0.33988 0.48976 0.5586 0.0
Tb523 Tb 0.26564 0.4218 0.58188 0.0
Eu524 Eu 0.10273 0.38694 0.62421 0.0
C525 C 0.36607 0.52882 0.59208 0.0
O526 O 0.34097 0.53431 0.63283 0.0
C527 C 0.20563 0.40483 0.68959 0.0
O528 O 0.01589 0.33736 0.64317 0.0
C529 C 0.12961 0.48543 0.63594 0.0
C530 C 0.98291 0.29466 0.61636 0.0
O531 O 1.00079 0.27485 0.58068 0.0
C532 C 0.15943 0.38736 0.52633 0.0
C533 C 0.10287 0.51579 0.64488 0.0
C534 C 0.13317 0.56995 0.65591 0.0
C535 C 0.10818 0.59865 0.66749 0.0
C536 C 0.05272 0.57296 0.6681 0.0
C537 C 0.02155 0.51966 0.65333 0.0
C538 C 0.04738 0.49108 0.64248 0.0
O539 O 0.25225 0.43102 0.66572 0.0
O540 O 0.16309 0.36883 0.66347 0.0
O541 O 0.27769 0.36124 0.61761 0.0
O542 O 0.26647 0.36057 0.53273 0.0
C543 C 0.27613 0.33788 0.57293 0.0
O544 O 0.10969 0.3673 0.53831 0.0
O545 O 0.19237 0.41705 0.5633 0.0
O546 O 0.1269 0.45464 0.67584 0.0
O547 O 0.12251 0.463 0.58877 0.0
H548 H 0.17601 0.58965 0.6557 0.0
H549 H 0.03403 0.59554 0.67804 0.0
H550 H 0.02492 0.44999 0.63088 0.0
O551 O 0.83155 0.33029 0.60772 0.0
Tb552 Tb 0.82605 0.25407 0.61545 0.0
Eu553 Eu 0.74157 0.11772 0.63119 0.0
C554 C 0.84187 0.35909 0.65118 0.0
O555 O 0.84122 0.3377 0.69791 0.0
C556 C 0.80603 0.1955 0.71778 0.0
O557 O 0.69554 0.02913 0.62911 0.0
C558 C 0.66821 0.14058 0.65052 0.0
C559 C 0.71266 0.9956 0.62746 0.0
O560 O 0.76337 0.01174 0.62604 0.0
C561 C 0.78148 0.17796 0.51802 0.0
C562 C 0.61025 0.11552 0.64538 0.0
C563 C 0.58793 0.14773 0.646 0.0
C564 C 0.5332 0.12521 0.6438 0.0
C565 C 0.50037 0.0702 0.64027 0.0
C566 C 0.52103 0.03583 0.64186 0.0
C567 C 0.57711 0.06004 0.64412 0.0
O568 O 0.78806 0.22159 0.69109 0.0
O569 O 0.80463 0.15473 0.69493 0.0
O570 O 0.90863 0.30609 0.63719 0.0
O571 O 0.88757 0.23401 0.59829 0.0
C572 C 0.9264 0.27683 0.61907 0.0
O573 O 0.77559 0.13738 0.54688 0.0
O574 O 0.78606 0.22076 0.54006 0.0
O575 O 0.68494 0.11914 0.68599 0.0
O576 O 0.69614 0.15481 0.60608 0.0
H577 H 0.61308 0.19023 0.64933 0.0
H578 H 0.45852 0.05539 0.63737 0.0
H579 H 0.59617 0.03689 0.64644 0.0
O580 O 0.52696 0.85508 0.6139 0.0
Tb581 Tb 0.59185 0.8407 0.62772 0.0
Eu582 Eu 0.63635 0.75391 0.64391 0.0
C583 C 0.49593 0.85303 0.65294 0.0
O584 O 0.49757 0.83306 0.6998 0.0
C585 C 0.61924 0.81339 0.73544 0.0
O586 O 0.68741 0.71703 0.64485 0.0
C587 C 0.54108 0.67332 0.65338 0.0
C588 C 0.72801 0.72863 0.61371 0.0
O589 O 0.74673 0.76891 0.5803 0.0
C590 C 0.61983 0.7928 0.53075 0.0
C591 C 0.50899 0.62053 0.62892 0.0
C592 C 0.45578 0.6023 0.61703 0.0
C593 C 0.42374 0.55186 0.5956 0.0
C594 C 0.4453 0.5195 0.58548 0.0
C595 C 0.49757 0.53534 0.6001 0.0
C596 C 0.52955 0.58675 0.62105 0.0
O597 O 0.57812 0.80607 0.7075 0.0
O598 O 0.65791 0.81133 0.71159 0.0
O599 O 0.62222 0.92464 0.63122 0.0
O600 O 0.67771 0.89852 0.62439 0.0
C601 C 0.67189 0.93966 0.62782 0.0
O602 O 0.65387 0.7862 0.55951 0.0
O603 O 0.583 0.79955 0.55288 0.0
O604 O 0.58088 0.68043 0.68365 0.0
O605 O 0.55221 0.71445 0.62303 0.0
H606 H 0.43893 0.62688 0.62573 0.0
H607 H 0.42018 0.48043 0.56911 0.0
H608 H 0.56975 0.5999 0.63349 0.0
O609 O 0.67906 0.54803 0.57207 0.0
Tb610 Tb 0.75823 0.6074 0.59644 0.0
Eu611 Eu 0.89726 0.63646 0.61391 0.0
C612 C 0.64944 0.50448 0.59957 0.0
O613 O 0.67081 0.49039 0.63793 0.0
C614 C 0.81729 0.62651 0.70259 0.0
O615 O 0.98573 0.67466 0.6203 0.0
C616 C 0.86155 0.53508 0.6118 0.0
C617 C 0.02013 0.72438 0.60924 0.0
O618 O 1.00439 0.758 0.5979 0.0
C619 C 0.84209 0.63559 0.50711 0.0
C620 C 0.8851 0.50201 0.62311 0.0
C621 C 0.85245 0.44727 0.6296 0.0
C622 C 0.87437 0.41662 0.64563 0.0
C623 C 0.9289 0.44066 0.65545 0.0
C624 C 0.9628 0.49505 0.64679 0.0
C625 C 0.94006 0.52546 0.63054 0.0
O626 O 0.78209 0.58837 0.67216 0.0
O627 O 0.86466 0.65996 0.68367 0.0
O628 O 0.71341 0.64103 0.62834 0.0
O629 O 0.78328 0.69137 0.58369 0.0
C630 C 0.74339 0.6885 0.60995 0.0
O631 O 0.87717 0.6686 0.5413 0.0
O632 O 0.79408 0.60075 0.52305 0.0
O633 O 0.85739 0.55953 0.65357 0.0
O634 O 0.87887 0.56551 0.56898 0.0
H635 H 0.81014 0.42877 0.62319 0.0
H636 H 0.94474 0.41636 0.66932 0.0
H637 H 0.96473 0.56743 0.6231 0.0
O638 O 0.1678 0.68524 0.63274 0.0
Tb639 Tb 0.17562 0.76215 0.61967 0.0
Eu640 Eu 0.2678 0.89881 0.6348 0.0
C641 C 0.13845 0.65643 0.67333 0.0
O642 O 0.12193 0.67834 0.70811 0.0
C643 C 0.19101 0.82327 0.72062 0.0
O644 O 0.31645 0.98799 0.6294 0.0
C645 C 0.33777 0.87343 0.66336 0.0
C646 C 0.30058 0.02202 0.62009 0.0
O647 O 0.25047 1.00601 0.61161 0.0
C648 C 0.23426 0.83652 0.52284 0.0
C649 C 0.39556 0.89722 0.65674 0.0
C650 C 0.41753 0.86465 0.65714 0.0
C651 C 0.47178 0.88634 0.64908 0.0
C652 C 0.5045 0.94114 0.64117 0.0
C653 C 0.48442 0.97592 0.64405 0.0
C654 C 0.42886 0.95232 0.65127 0.0
O655 O 0.20436 0.79134 0.69883 0.0
O656 O 0.20038 0.86611 0.69428 0.0
O657 O 0.09213 0.70651 0.60626 0.0
O658 O 0.11665 0.7877 0.61519 0.0
C659 C 0.0762 0.74029 0.60859 0.0
O660 O 0.24044 0.87872 0.54813 0.0
O661 O 0.2242 0.79296 0.54838 0.0
O662 O 0.32261 0.89927 0.69425 0.0
O663 O 0.3088 0.85519 0.61983 0.0
H664 H 0.39239 0.82242 0.66334 0.0
H665 H 0.54593 0.95575 0.63432 0.0
H666 H 0.41016 0.97571 0.65376 0.0
O667 O 0.4887 0.16785 0.60718 0.0
Tb668 Tb 0.42102 0.17842 0.6157 0.0
Eu669 Eu 0.37565 0.26745 0.61702 0.0
C670 C 0.50884 0.15792 0.64982 0.0
O671 O 0.49207 0.16133 0.69759 0.0
C672 C 0.39173 0.21534 0.71557 0.0
O673 O 0.31545 0.29306 0.61327 0.0
C674 C 0.4679 0.35185 0.6325 0.0
C675 C 0.29824 0.30335 0.56864 0.0
O676 O 0.31277 0.29479 0.52177 0.0
C677 C 0.39813 0.22303 0.51096 0.0
C678 C 0.50238 0.40752 0.6148 0.0
C679 C 0.55701 0.42753 0.60966 0.0
C680 C 0.59141 0.48106 0.59743 0.0
C681 C 0.57081 0.51472 0.58992 0.0
C682 C 0.51694 0.49673 0.59824 0.0
C683 C 0.48274 0.44244 0.60971 0.0
O684 O 0.43319 0.21898 0.69174 0.0
O685 O 0.35264 0.2115 0.68667 0.0
O686 O 0.39085 0.09464 0.6282 0.0
O687 O 0.3358 0.11886 0.60812 0.0
C688 C 0.34146 0.07837 0.61906 0.0
O689 O 0.36352 0.23214 0.53463 0.0
O690 O 0.43345 0.21701 0.53796 0.0
O691 O 0.42497 0.34089 0.65907 0.0
O692 O 0.46087 0.31388 0.59981 0.0
H693 H 0.57292 0.40174 0.61664 0.0
H694 H 0.59755 0.55601 0.58055 0.0
H695 H 0.44124 0.42763 0.61749 0.0
loop_
_geom_bond_atom_site_label_1
_geom_bond_atom_site_label_2
_geom_bond_distance
_geom_bond_site_symmetry_2
_ccdc_geom_bond_type
O0 Tb1 2.292 . S
O0 C3 1.255 . S
Tb1 O0 2.292 . S
Tb1 O17 2.326 . S
Tb1 O19 2.500 . S
Tb1 O20 2.473 . S
Tb1 O23 2.324 . S
Eu2 O6 2.299 . S
Eu2 C7 2.852 . S
Eu2 O18 2.324 . S
Eu2 O22 2.326 . S
Eu2 O24 2.500 . S
Eu2 O25 2.473 . S
C3 O0 1.255 . S
C3 O4 1.247 . S
O4 C3 1.247 . S
C5 O17 1.242 . S
C5 O18 1.258 . S
O6 Eu2 2.299 . S
O6 C8 1.256 1_545 S
C7 Eu2 2.852 . S
C7 C11 1.503 . S
C7 O24 1.273 . S
C7 O25 1.257 . S
C8 O6 1.256 1_565 S
C8 O9 1.247 1_565 S
O9 C8 1.247 1_545 S
C10 O22 1.242 . S
C10 O23 1.258 . S
C11 C7 1.503 . S
C11 C12 1.379 . S
C11 C16 1.392 . S
C12 C11 1.379 . S
C12 C13 1.404 . S
C12 H26 0.929 . S
C13 C12 1.404 . S
C13 C14 1.389 . S
C14 C13 1.389 . S
C14 C15 1.399 . S
C14 H27 0.931 . S
C15 C14 1.399 . S
C15 C16 1.390 . S
C16 C11 1.392 . S
C16 C15 1.390 . S
C16 H28 0.939 . S
O17 Tb1 2.326 . S
O17 C5 1.242 . S
O18 Eu2 2.324 . S
O18 C5 1.258 . S
O19 Tb1 2.500 . S
O19 C21 1.273 . S
O20 Tb1 2.473 . S
O20 C21 1.257 . S
C21 O19 1.273 . S
C21 O20 1.257 . S
O22 Eu2 2.326 . S
O22 C10 1.242 . S
O23 Tb1 2.324 . S
O23 C10 1.258 . S
O24 Eu2 2.500 . S
O24 C7 1.273 . S
O25 Eu2 2.473 . S
O25 C7 1.257 . S
H26 C12 0.929 . S
H27 C14 0.931 . S
H28 C16 0.939 . S
O29 Tb30 2.292 . S
O29 C32 1.255 . S
Tb30 O29 2.292 . S
Tb30 O46 2.326 . S
Tb30 O48 2.500 . S
Tb30 O49 2.473 . S
Tb30 O52 2.324 . S
Eu31 O35 2.292 . S
Eu31 C36 2.852 . S
Eu31 O47 2.324 . S
Eu31 O51 2.326 . S
Eu31 O53 2.500 . S
Eu31 O54 2.473 . S
C32 O29 1.255 . S
C32 O33 1.247 . S
O33 C32 1.247 . S
C34 O46 1.242 . S
C34 O47 1.258 . S
O35 Eu31 2.292 . S
O35 C37 1.255 . S
C36 Eu31 2.852 . S
C36 C40 1.503 . S
C36 O53 1.273 . S
C36 O54 1.257 . S
C37 O35 1.255 . S
C37 O38 1.247 . S
O38 C37 1.247 . S
C39 O51 1.242 . S
C39 O52 1.258 . S
C40 C36 1.503 . S
C40 C41 1.379 . S
C40 C45 1.392 . S
C41 C40 1.379 . S
C41 C42 1.404 . S
C41 H55 0.929 . S
C42 C41 1.404 . S
C42 C43 1.389 . S
C43 C42 1.389 . S
C43 C44 1.399 . S
C43 H56 0.931 . S
C44 C43 1.399 . S
C44 C45 1.390 . S
C45 C40 1.392 . S
C45 C44 1.390 . S
C45 H57 0.929 . S
O46 Tb30 2.326 . S
O46 C34 1.242 . S
O47 Eu31 2.324 . S
O47 C34 1.258 . S
O48 Tb30 2.500 . S
O48 C50 1.273 . S
O49 Tb30 2.473 . S
O49 C50 1.257 . S
C50 O48 1.273 . S
C50 O49 1.257 . S
O51 Eu31 2.326 . S
O51 C39 1.242 . S
O52 Tb30 2.324 . S
O52 C39 1.258 . S
O53 Eu31 2.500 . S
O53 C36 1.273 . S
O54 Eu31 2.473 . S
O54 C36 1.257 . S
H55 C41 0.929 . S
H56 C43 0.931 . S
H57 C45 0.929 . S
O58 Tb59 2.292 . S
O58 C61 1.255 . S
Tb59 O58 2.292 . S
Tb59 O75 2.326 . S
Tb59 O77 2.500 . S
Tb59 O78 2.473 . S
Tb59 O81 2.324 . S
Eu60 O64 2.302 . S
Eu60 C65 2.852 . S
Eu60 O76 2.324 . S
Eu60 O80 2.326 . S
Eu60 O82 2.500 . S
Eu60 O83 2.473 . S
C61 O58 1.255 . S
C61 O62 1.247 . S
O62 C61 1.247 . S
C63 O75 1.242 . S
C63 O76 1.258 . S
O64 Eu60 2.302 . S
O64 C66 1.248 1_655 S
C65 Eu60 2.852 . S
C65 C69 1.503 . S
C65 O82 1.273 . S
C65 O83 1.257 . S
C66 O64 1.248 1_455 S
C66 O67 1.247 1_455 S
O67 C66 1.247 1_655 S
C68 O80 1.242 . S
C68 O81 1.258 . S
C69 C65 1.503 . S
C69 C70 1.379 . S
C69 C74 1.392 . S
C70 C69 1.379 . S
C70 C71 1.404 . S
C70 H84 0.929 . S
C71 C70 1.404 . S
C71 C72 1.389 . S
C72 C71 1.389 . S
C72 C73 1.399 . S
C72 H85 0.931 . S
C73 C72 1.399 . S
C73 C74 1.390 . S
C74 C69 1.392 . S
C74 C73 1.390 . S
C74 H86 0.950 . S
O75 Tb59 2.326 . S
O75 C63 1.242 . S
O76 Eu60 2.324 . S
O76 C63 1.258 . S
O77 Tb59 2.500 . S
O77 C79 1.273 . S
O78 Tb59 2.473 . S
O78 C79 1.257 . S
C79 O77 1.273 . S
C79 O78 1.257 . S
O80 Eu60 2.326 . S
O80 C68 1.242 . S
O81 Tb59 2.324 . S
O81 C68 1.258 . S
O82 Eu60 2.500 . S
O82 C65 1.273 . S
O83 Eu60 2.473 . S
O83 C65 1.257 . S
H84 C70 0.929 . S
H85 C72 0.931 . S
H86 C74 0.950 . S
O87 Tb88 2.292 . S
O87 C90 1.255 . S
Tb88 O87 2.292 . S
Tb88 O104 2.326 . S
Tb88 O106 2.500 . S
Tb88 O107 2.473 . S
Tb88 O110 2.324 . S
Eu89 O93 2.299 . S
Eu89 C94 2.852 . S
Eu89 O105 2.324 . S
Eu89 O109 2.326 . S
Eu89 O111 2.500 . S
Eu89 O112 2.473 . S
C90 O87 1.255 . S
C90 O91 1.247 . S
O91 C90 1.247 . S
C92 O104 1.242 . S
C92 O105 1.258 . S
O93 Eu89 2.299 . S
O93 C95 1.256 1_565 S
C94 Eu89 2.852 . S
C94 C98 1.503 . S
C94 O111 1.273 . S
C94 O112 1.257 . S
C95 O93 1.256 1_545 S
C95 O96 1.247 1_545 S
O96 C95 1.247 1_565 S
C97 O109 1.242 . S
C97 O110 1.258 . S
C98 C94 1.503 . S
C98 C99 1.379 . S
C98 C103 1.392 . S
C99 C98 1.379 . S
C99 C100 1.404 . S
C99 H113 0.929 . S
C100 C99 1.404 . S
C100 C101 1.389 . S
C101 C100 1.389 . S
C101 C102 1.399 . S
C101 H114 0.931 . S
C102 C101 1.399 . S
C102 C103 1.390 . S
C103 C98 1.392 . S
C103 C102 1.390 . S
C103 H115 0.939 . S
O104 Tb88 2.326 . S
O104 C92 1.242 . S
O105 Eu89 2.324 . S
O105 C92 1.258 . S
O106 Tb88 2.500 . S
O106 C108 1.273 . S
O107 Tb88 2.473 . S
O107 C108 1.257 . S
C108 O106 1.273 . S
C108 O107 1.257 . S
O109 Eu89 2.326 . S
O109 C97 1.242 . S
O110 Tb88 2.324 . S
O110 C97 1.258 . S
O111 Eu89 2.500 . S
O111 C94 1.273 . S
O112 Eu89 2.473 . S
O112 C94 1.257 . S
H113 C99 0.929 . S
H114 C101 0.931 . S
H115 C103 0.939 . S
O116 Tb117 2.292 . S
O116 C119 1.255 . S
Tb117 O116 2.292 . S
Tb117 O133 2.326 . S
Tb117 O135 2.500 . S
Tb117 O136 2.473 . S
Tb117 O139 2.324 . S
Eu118 O122 2.292 . S
Eu118 C123 2.852 . S
Eu118 O134 2.324 . S
Eu118 O138 2.326 . S
Eu118 O140 2.500 . S
Eu118 O141 2.473 . S
C119 O116 1.255 . S
C119 O120 1.247 . S
O120 C119 1.247 . S
C121 O133 1.242 . S
C121 O134 1.258 . S
O122 Eu118 2.292 . S
O122 C124 1.255 . S
C123 Eu118 2.852 . S
C123 C127 1.503 . S
C123 O140 1.273 . S
C123 O141 1.257 . S
C124 O122 1.255 . S
C124 O125 1.247 . S
O125 C124 1.247 . S
C126 O138 1.242 . S
C126 O139 1.258 . S
C127 C123 1.503 . S
C127 C128 1.379 . S
C127 C132 1.392 . S
C128 C127 1.379 . S
C128 C129 1.404 . S
C128 H142 0.929 . S
C129 C128 1.404 . S
C129 C130 1.389 . S
C130 C129 1.389 . S
C130 C131 1.399 . S
C130 H143 0.931 . S
C131 C130 1.399 . S
C131 C132 1.390 . S
C132 C127 1.392 . S
C132 C131 1.390 . S
C132 H144 0.929 . S
O133 Tb117 2.326 . S
O133 C121 1.242 . S
O134 Eu118 2.324 . S
O134 C121 1.258 . S
O135 Tb117 2.500 . S
O135 C137 1.273 . S
O136 Tb117 2.473 . S
O136 C137 1.257 . S
C137 O135 1.273 . S
C137 O136 1.257 . S
O138 Eu118 2.326 . S
O138 C126 1.242 . S
O139 Tb117 2.324 . S
O139 C126 1.258 . S
O140 Eu118 2.500 . S
O140 C123 1.273 . S
O141 Eu118 2.473 . S
O141 C123 1.257 . S
H142 C128 0.929 . S
H143 C130 0.931 . S
H144 C132 0.929 . S
O145 Tb146 2.292 . S
O145 C148 1.255 . S
Tb146 O145 2.292 . S
Tb146 O162 2.326 . S
Tb146 O164 2.500 . S
Tb146 O165 2.473 . S
Tb146 O168 2.324 . S
Eu147 O151 2.302 . S
Eu147 C152 2.852 . S
Eu147 O163 2.324 . S
Eu147 O167 2.326 . S
Eu147 O169 2.500 . S
Eu147 O170 2.473 . S
C148 O145 1.255 . S
C148 O149 1.247 . S
O149 C148 1.247 . S
C150 O162 1.242 . S
C150 O163 1.258 . S
O151 Eu147 2.302 . S
O151 C153 1.248 1_455 S
C152 Eu147 2.852 . S
C152 C156 1.503 . S
C152 O169 1.273 . S
C152 O170 1.257 . S
C153 O151 1.248 1_655 S
C153 O154 1.247 1_655 S
O154 C153 1.247 1_455 S
C155 O167 1.242 . S
C155 O168 1.258 . S
C156 C152 1.503 . S
C156 C157 1.379 . S
C156 C161 1.392 . S
C157 C156 1.379 . S
C157 C158 1.404 . S
C157 H171 0.929 . S
C158 C157 1.404 . S
C158 C159 1.389 . S
C159 C158 1.389 . S
C159 C160 1.399 . S
C159 H172 0.931 . S
C160 C159 1.399 . S
C160 C161 1.390 . S
C161 C156 1.392 . S
C161 C160 1.390 . S
C161 H173 0.950 . S
O162 Tb146 2.326 . S
O162 C150 1.242 . S
O163 Eu147 2.324 . S
O163 C150 1.258 . S
O164 Tb146 2.500 . S
O164 C166 1.273 . S
O165 Tb146 2.473 . S
O165 C166 1.257 . S
C166 O164 1.273 . S
C166 O165 1.257 . S
O167 Eu147 2.326 . S
O167 C155 1.242 . S
O168 Tb146 2.324 . S
O168 C155 1.258 . S
O169 Eu147 2.500 . S
O169 C152 1.273 . S
O170 Eu147 2.473 . S
O170 C152 1.257 . S
H171 C157 0.929 . S
H172 C159 0.931 . S
H173 C161 0.950 . S
O174 Tb175 2.292 . S
O174 C177 1.255 . S
Tb175 O174 2.292 . S
Tb175 O191 2.326 . S
Tb175 O193 2.500 . S
Tb175 O194 2.473 . S
Tb175 O197 2.324 . S
Eu176 O180 2.299 . S
Eu176 C181 2.852 . S
Eu176 O192 2.324 . S
Eu176 O196 2.326 . S
Eu176 O198 2.500 . S
Eu176 O199 2.473 . S
C177 O174 1.255 . S
C177 O178 1.247 . S
O178 C177 1.247 . S
C179 O191 1.242 . S
C179 O192 1.258 . S
O180 Eu176 2.299 . S
O180 C182 1.256 1_655 S
C181 Eu176 2.852 . S
C181 C185 1.503 . S
C181 O198 1.273 . S
C181 O199 1.257 . S
C182 O180 1.256 1_455 S
C182 O183 1.247 1_455 S
O183 C182 1.247 1_655 S
C184 O196 1.242 . S
C184 O197 1.258 . S
C185 C181 1.503 . S
C185 C186 1.379 . S
C185 C190 1.392 . S
C186 C185 1.379 . S
C186 C187 1.404 . S
C186 H200 0.929 . S
C187 C186 1.404 . S
C187 C188 1.389 . S
C188 C187 1.389 . S
C188 C189 1.399 . S
C188 H201 0.931 . S
C189 C188 1.399 . S
C189 C190 1.390 . S
C190 C185 1.392 . S
C190 C189 1.390 . S
C190 H202 0.939 . S
O191 Tb175 2.326 . S
O191 C179 1.242 . S
O192 Eu176 2.324 . S
O192 C179 1.258 . S
O193 Tb175 2.500 . S
O193 C195 1.273 . S
O194 Tb175 2.473 . S
O194 C195 1.257 . S
C195 O193 1.273 . S
C195 O194 1.257 . S
O196 Eu176 2.326 . S
O196 C184 1.242 . S
O197 Tb175 2.324 . S
O197 C184 1.258 . S
O198 Eu176 2.500 . S
O198 C181 1.273 . S
O199 Eu176 2.473 . S
O199 C181 1.257 . S
H200 C186 0.929 . S
H201 C188 0.931 . S
H202 C190 0.939 . S
O203 Tb204 2.292 . S
O203 C206 1.255 . S
Tb204 O203 2.292 . S
Tb204 O220 2.326 . S
Tb204 O222 2.500 . S
Tb204 O223 2.473 . S
Tb204 O226 2.324 . S
Eu205 O209 2.302 . S
Eu205 C210 2.852 . S
Eu205 O221 2.324 . S
Eu205 O225 2.326 . S
Eu205 O227 2.500 . S
Eu205 O228 2.473 . S
C206 O203 1.255 . S
C206 O207 1.247 . S
O207 C206 1.247 . S
C208 O220 1.242 . S
C208 O221 1.258 . S
O209 Eu205 2.302 . S
O209 C211 1.248 1_565 S
C210 Eu205 2.852 . S
C210 C214 1.503 . S
C210 O227 1.273 . S
C210 O228 1.257 . S
C211 O209 1.248 1_545 S
C211 O212 1.247 1_545 S
O212 C211 1.247 1_565 S
C213 O225 1.242 . S
C213 O226 1.258 . S
C214 C210 1.503 . S
C214 C215 1.379 . S
C214 C219 1.392 . S
C215 C214 1.379 . S
C215 C216 1.404 . S
C215 H229 0.929 . S
C216 C215 1.404 . S
C216 C217 1.389 . S
C217 C216 1.389 . S
C217 C218 1.399 . S
C217 H230 0.931 . S
C218 C217 1.399 . S
C218 C219 1.390 . S
C219 C214 1.392 . S
C219 C218 1.390 . S
C219 H231 0.950 . S
O220 Tb204 2.326 . S
O220 C208 1.242 . S
O221 Eu205 2.324 . S
O221 C208 1.258 . S
O222 Tb204 2.500 . S
O222 C224 1.273 . S
O223 Tb204 2.473 . S
O223 C224 1.257 . S
C224 O222 1.273 . S
C224 O223 1.257 . S
O225 Eu205 2.326 . S
O225 C213 1.242 . S
O226 Tb204 2.324 . S
O226 C213 1.258 . S
O227 Eu205 2.500 . S
O227 C210 1.273 . S
O228 Eu205 2.473 . S
O228 C210 1.257 . S
H229 C215 0.929 . S
H230 C217 0.931 . S
H231 C219 0.950 . S
O232 Tb233 2.292 . S
O232 C235 1.255 . S
Tb233 O232 2.292 . S
Tb233 O249 2.326 . S
Tb233 O251 2.500 . S
Tb233 O252 2.473 . S
Tb233 O255 2.324 . S
Eu234 O238 2.292 . S
Eu234 C239 2.852 . S
Eu234 O250 2.324 . S
Eu234 O254 2.326 . S
Eu234 O256 2.500 . S
Eu234 O257 2.473 . S
C235 O232 1.255 . S
C235 O236 1.247 . S
O236 C235 1.247 . S
C237 O249 1.242 . S
C237 O250 1.258 . S
O238 Eu234 2.292 . S
O238 C240 1.255 . S
C239 Eu234 2.852 . S
C239 C243 1.503 . S
C239 O256 1.273 . S
C239 O257 1.257 . S
C240 O238 1.255 . S
C240 O241 1.247 . S
O241 C240 1.247 . S
C242 O254 1.242 . S
C242 O255 1.258 . S
C243 C239 1.503 . S
C243 C244 1.379 . S
C243 C248 1.392 . S
C244 C243 1.379 . S
C244 C245 1.404 . S
C244 H258 0.929 . S
C245 C244 1.404 . S
C245 C246 1.389 . S
C246 C245 1.389 . S
C246 C247 1.399 . S
C246 H259 0.931 . S
C247 C246 1.399 . S
C247 C248 1.390 . S
C248 C243 1.392 . S
C248 C247 1.390 . S
C248 H260 0.929 . S
O249 Tb233 2.326 . S
O249 C237 1.242 . S
O250 Eu234 2.324 . S
O250 C237 1.258 . S
O251 Tb233 2.500 . S
O251 C253 1.273 . S
O252 Tb233 2.473 . S
O252 C253 1.257 . S
C253 O251 1.273 . S
C253 O252 1.257 . S
O254 Eu234 2.326 . S
O254 C242 1.242 . S
O255 Tb233 2.324 . S
O255 C242 1.258 . S
O256 Eu234 2.500 . S
O256 C239 1.273 . S
O257 Eu234 2.473 . S
O257 C239 1.257 . S
H258 C244 0.929 . S
H259 C246 0.931 . S
H260 C248 0.929 . S
O261 Tb262 2.292 . S
O261 C264 1.255 . S
Tb262 O261 2.292 . S
Tb262 O278 2.326 . S
Tb262 O280 2.500 . S
Tb262 O281 2.473 . S
Tb262 O284 2.324 . S
Eu263 O267 2.299 . S
Eu263 C268 2.852 . S
Eu263 O279 2.324 . S
Eu263 O283 2.326 . S
Eu263 O285 2.500 . S
Eu263 O286 2.473 . S
C264 O261 1.255 . S
C264 O265 1.247 . S
O265 C264 1.247 . S
C266 O278 1.242 . S
C266 O279 1.258 . S
O267 Eu263 2.299 . S
O267 C269 1.256 1_455 S
C268 Eu263 2.852 . S
C268 C272 1.503 . S
C268 O285 1.273 . S
C268 O286 1.257 . S
C269 O267 1.256 1_655 S
C269 O270 1.247 1_655 S
O270 C269 1.247 1_455 S
C271 O283 1.242 . S
C271 O284 1.258 . S
C272 C268 1.503 . S
C272 C273 1.379 . S
C272 C277 1.392 . S
C273 C272 1.379 . S
C273 C274 1.404 . S
C273 H287 0.929 . S
C274 C273 1.404 . S
C274 C275 1.389 . S
C275 C274 1.389 . S
C275 C276 1.399 . S
C275 H288 0.931 . S
C276 C275 1.399 . S
C276 C277 1.390 . S
C277 C272 1.392 . S
C277 C276 1.390 . S
C277 H289 0.939 . S
O278 Tb262 2.326 . S
O278 C266 1.242 . S
O279 Eu263 2.324 . S
O279 C266 1.258 . S
O280 Tb262 2.500 . S
O280 C282 1.273 . S
O281 Tb262 2.473 . S
O281 C282 1.257 . S
C282 O280 1.273 . S
C282 O281 1.257 . S
O283 Eu263 2.326 . S
O283 C271 1.242 . S
O284 Tb262 2.324 . S
O284 C271 1.258 . S
O285 Eu263 2.500 . S
O285 C268 1.273 . S
O286 Eu263 2.473 . S
O286 C268 1.257 . S
H287 C273 0.929 . S
H288 C275 0.931 . S
H289 C277 0.939 . S
O290 Tb291 2.292 . S
O290 C293 1.255 . S
Tb291 O290 2.292 . S
Tb291 O307 2.326 . S
Tb291 O309 2.500 . S
Tb291 O310 2.473 . S
Tb291 O313 2.324 . S
Eu292 O296 2.302 . S
Eu292 C297 2.852 . S
Eu292 O308 2.324 . S
Eu292 O312 2.326 . S
Eu292 O314 2.500 . S
Eu292 O315 2.473 . S
C293 O290 1.255 . S
C293 O294 1.247 . S
O294 C293 1.247 . S
C295 O307 1.242 . S
C295 O308 1.258 . S
O296 Eu292 2.302 . S
O296 C298 1.248 1_545 S
C297 Eu292 2.852 . S
C297 C301 1.503 . S
C297 O314 1.273 . S
C297 O315 1.257 . S
C298 O296 1.248 1_565 S
C298 O299 1.247 1_565 S
O299 C298 1.247 1_545 S
C300 O312 1.242 . S
C300 O313 1.258 . S
C301 C297 1.503 . S
C301 C302 1.379 . S
C301 C306 1.392 . S
C302 C301 1.379 . S
C302 C303 1.404 . S
C302 H316 0.929 . S
C303 C302 1.404 . S
C303 C304 1.389 . S
C304 C303 1.389 . S
C304 C305 1.399 . S
C304 H317 0.931 . S
C305 C304 1.399 . S
C305 C306 1.390 . S
C306 C301 1.392 . S
C306 C305 1.390 . S
C306 H318 0.950 . S
O307 Tb291 2.326 . S
O307 C295 1.242 . S
O308 Eu292 2.324 . S
O308 C295 1.258 . S
O309 Tb291 2.500 . S
O309 C311 1.273 . S
O310 Tb291 2.473 . S
O310 C311 1.257 . S
C311 O309 1.273 . S
C311 O310 1.257 . S
O312 Eu292 2.326 . S
O312 C300 1.242 . S
O313 Tb291 2.324 . S
O313 C300 1.258 . S
O314 Eu292 2.500 . S
O314 C297 1.273 . S
O315 Eu292 2.473 . S
O315 C297 1.257 . S
H316 C302 0.929 . S
H317 C304 0.931 . S
H318 C306 0.950 . S
O319 Tb320 2.292 . S
O319 C322 1.255 . S
Tb320 O319 2.292 . S
Tb320 O336 2.326 . S
Tb320 O338 2.500 . S
Tb320 O339 2.473 . S
Tb320 O342 2.324 . S
Eu321 O325 2.292 . S
Eu321 C326 2.852 . S
Eu321 O337 2.324 . S
Eu321 O341 2.326 . S
Eu321 O343 2.500 . S
Eu321 O344 2.473 . S
C322 O319 1.255 . S
C322 O323 1.247 . S
O323 C322 1.247 . S
C324 O336 1.242 . S
C324 O337 1.258 . S
O325 Eu321 2.292 . S
O325 C327 1.255 . S
C326 Eu321 2.852 . S
C326 C330 1.503 . S
C326 O343 1.273 . S
C326 O344 1.257 . S
C327 O325 1.255 . S
C327 O328 1.247 . S
O328 C327 1.247 . S
C329 O341 1.242 . S
C329 O342 1.258 . S
C330 C326 1.503 . S
C330 C331 1.379 . S
C330 C335 1.392 . S
C331 C330 1.379 . S
C331 C332 1.404 . S
C331 H345 0.929 . S
C332 C331 1.404 . S
C332 C333 1.389 . S
C333 C332 1.389 . S
C333 C334 1.399 . S
C333 H346 0.931 . S
C334 C333 1.399 . S
C334 C335 1.390 . S
C335 C330 1.392 . S
C335 C334 1.390 . S
C335 H347 0.929 . S
O336 Tb320 2.326 . S
O336 C324 1.242 . S
O337 Eu321 2.324 . S
O337 C324 1.258 . S
O338 Tb320 2.500 . S
O338 C340 1.273 . S
O339 Tb320 2.473 . S
O339 C340 1.257 . S
C340 O338 1.273 . S
C340 O339 1.257 . S
O341 Eu321 2.326 . S
O341 C329 1.242 . S
O342 Tb320 2.324 . S
O342 C329 1.258 . S
O343 Eu321 2.500 . S
O343 C326 1.273 . S
O344 Eu321 2.473 . S
O344 C326 1.257 . S
H345 C331 0.929 . S
H346 C333 0.931 . S
H347 C335 0.929 . S
O348 Tb349 2.292 . S
O348 C351 1.255 . S
Tb349 O348 2.292 . S
Tb349 O365 2.326 . S
Tb349 O367 2.500 . S
Tb349 O368 2.473 . S
Tb349 O371 2.324 . S
Eu350 O354 2.299 . S
Eu350 C355 2.852 . S
Eu350 O366 2.324 . S
Eu350 O370 2.326 . S
Eu350 O372 2.500 . S
Eu350 O373 2.473 . S
C351 O348 1.255 . S
C351 O352 1.247 . S
O352 C351 1.247 . S
C353 O365 1.242 . S
C353 O366 1.258 . S
O354 Eu350 2.299 . S
O354 C356 1.256 1_565 S
C355 Eu350 2.852 . S
C355 C359 1.503 . S
C355 O372 1.273 . S
C355 O373 1.257 . S
C356 O354 1.256 1_545 S
C356 O357 1.247 1_545 S
O357 C356 1.247 1_565 S
C358 O370 1.242 . S
C358 O371 1.258 . S
C359 C355 1.503 . S
C359 C360 1.379 . S
C359 C364 1.392 . S
C360 C359 1.379 . S
C360 C361 1.404 . S
C360 H374 0.929 . S
C361 C360 1.404 . S
C361 C362 1.389 . S
C362 C361 1.389 . S
C362 C363 1.399 . S
C362 H375 0.931 . S
C363 C362 1.399 . S
C363 C364 1.390 . S
C364 C359 1.392 . S
C364 C363 1.390 . S
C364 H376 0.939 . S
O365 Tb349 2.326 . S
O365 C353 1.242 . S
O366 Eu350 2.324 . S
O366 C353 1.258 . S
O367 Tb349 2.500 . S
O367 C369 1.273 . S
O368 Tb349 2.473 . S
O368 C369 1.257 . S
C369 O367 1.273 . S
C369 O368 1.257 . S
O370 Eu350 2.326 . S
O370 C358 1.242 . S
O371 Tb349 2.324 . S
O371 C358 1.258 . S
O372 Eu350 2.500 . S
O372 C355 1.273 . S
O373 Eu350 2.473 . S
O373 C355 1.257 . S
H374 C360 0.929 . S
H375 C362 0.931 . S
H376 C364 0.939 . S
O377 Tb378 2.292 . S
O377 C380 1.255 . S
Tb378 O377 2.292 . S
Tb378 O394 2.326 . S
Tb378 O396 2.500 . S
Tb378 O397 2.473 . S
Tb378 O400 2.324 . S
Eu379 O383 2.292 . S
Eu379 C384 2.852 . S
Eu379 O395 2.324 . S
Eu379 O399 2.326 . S
Eu379 O401 2.500 . S
Eu379 O402 2.473 . S
C380 O377 1.255 . S
C380 O381 1.247 . S
O381 C380 1.247 . S
C382 O394 1.242 . S
C382 O395 1.258 . S
O383 Eu379 2.292 . S
O383 C385 1.255 . S
C384 Eu379 2.852 . S
C384 C388 1.503 . S
C384 O401 1.273 . S
C384 O402 1.257 . S
C385 O383 1.255 . S
C385 O386 1.247 . S
O386 C385 1.247 . S
C387 O399 1.242 . S
C387 O400 1.258 . S
C388 C384 1.503 . S
C388 C389 1.379 . S
C388 C393 1.392 . S
C389 C388 1.379 . S
C389 C390 1.404 . S
C389 H403 0.929 . S
C390 C389 1.404 . S
C390 C391 1.389 . S
C391 C390 1.389 . S
C391 C392 1.399 . S
C391 H404 0.931 . S
C392 C391 1.399 . S
C392 C393 1.390 . S
C393 C388 1.392 . S
C393 C392 1.390 . S
C393 H405 0.929 . S
O394 Tb378 2.326 . S
O394 C382 1.242 . S
O395 Eu379 2.324 . S
O395 C382 1.258 . S
O396 Tb378 2.500 . S
O396 C398 1.273 . S
O397 Tb378 2.473 . S
O397 C398 1.257 . S
C398 O396 1.273 . S
C398 O397 1.257 . S
O399 Eu379 2.326 . S
O399 C387 1.242 . S
O400 Tb378 2.324 . S
O400 C387 1.258 . S
O401 Eu379 2.500 . S
O401 C384 1.273 . S
O402 Eu379 2.473 . S
O402 C384 1.257 . S
H403 C389 0.929 . S
H404 C391 0.931 . S
H405 C393 0.929 . S
O406 Tb407 2.292 . S
O406 C409 1.255 . S
Tb407 O406 2.292 . S
Tb407 O423 2.326 . S
Tb407 O425 2.500 . S
Tb407 O426 2.473 . S
Tb407 O429 2.324 . S
Eu408 O412 2.302 . S
Eu408 C413 2.852 . S
Eu408 O424 2.324 . S
Eu408 O428 2.326 . S
Eu408 O430 2.500 . S
Eu408 O431 2.473 . S
C409 O406 1.255 . S
C409 O410 1.247 . S
O410 C409 1.247 . S
C411 O423 1.242 . S
C411 O424 1.258 . S
O412 Eu408 2.302 . S
O412 C414 1.248 1_455 S
C413 Eu408 2.852 . S
C413 C417 1.503 . S
C413 O430 1.273 . S
C413 O431 1.257 . S
C414 O412 1.248 1_655 S
C414 O415 1.247 1_655 S
O415 C414 1.247 1_455 S
C416 O428 1.242 . S
C416 O429 1.258 . S
C417 C413 1.503 . S
C417 C418 1.379 . S
C417 C422 1.392 . S
C418 C417 1.379 . S
C418 C419 1.404 . S
C418 H432 0.929 . S
C419 C418 1.404 . S
C419 C420 1.389 . S
C420 C419 1.389 . S
C420 C421 1.399 . S
C420 H433 0.931 . S
C421 C420 1.399 . S
C421 C422 1.390 . S
C422 C417 1.392 . S
C422 C421 1.390 . S
C422 H434 0.950 . S
O423 Tb407 2.326 . S
O423 C411 1.242 . S
O424 Eu408 2.324 . S
O424 C411 1.258 . S
O425 Tb407 2.500 . S
O425 C427 1.273 . S
O426 Tb407 2.473 . S
O426 C427 1.257 . S
C427 O425 1.273 . S
C427 O426 1.257 . S
O428 Eu408 2.326 . S
O428 C416 1.242 . S
O429 Tb407 2.324 . S
O429 C416 1.258 . S
O430 Eu408 2.500 . S
O430 C413 1.273 . S
O431 Eu408 2.473 . S
O431 C413 1.257 . S
H432 C418 0.929 . S
H433 C420 0.931 . S
H434 C422 0.950 . S
O435 Tb436 2.292 . S
O435 C438 1.255 . S
Tb436 O435 2.292 . S
Tb436 O452 2.326 . S
Tb436 O454 2.500 . S
Tb436 O455 2.473 . S
Tb436 O458 2.324 . S
Eu437 O441 2.299 . S
Eu437 C442 2.852 . S
Eu437 O453 2.324 . S
Eu437 O457 2.326 . S
Eu437 O459 2.500 . S
Eu437 O460 2.473 . S
C438 O435 1.255 . S
C438 O439 1.247 . S
O439 C438 1.247 . S
C440 O452 1.242 . S
C440 O453 1.258 . S
O441 Eu437 2.299 . S
O441 C443 1.256 1_545 S
C442 Eu437 2.852 . S
C442 C446 1.503 . S
C442 O459 1.273 . S
C442 O460 1.257 . S
C443 O441 1.256 1_565 S
C443 O444 1.247 1_565 S
O444 C443 1.247 1_545 S
C445 O457 1.242 . S
C445 O458 1.258 . S
C446 C442 1.503 . S
C446 C447 1.379 . S
C446 C451 1.392 . S
C447 C446 1.379 . S
C447 C448 1.404 . S
C447 H461 0.929 . S
C448 C447 1.404 . S
C448 C449 1.389 . S
C449 C448 1.389 . S
C449 C450 1.399 . S
C449 H462 0.931 . S
C450 C449 1.399 . S
C450 C451 1.390 . S
C451 C446 1.392 . S
C451 C450 1.390 . S
C451 H463 0.939 . S
O452 Tb436 2.326 . S
O452 C440 1.242 . S
O453 Eu437 2.324 . S
O453 C440 1.258 . S
O454 Tb436 2.500 . S
O454 C456 1.273 . S
O455 Tb436 2.473 . S
O455 C456 1.257 . S
C456 O454 1.273 . S
C456 O455 1.257 . S
O457 Eu437 2.326 . S
O457 C445 1.242 . S
O458 Tb436 2.324 . S
O458 C445 1.258 . S
O459 Eu437 2.500 . S
O459 C442 1.273 . S
O460 Eu437 2.473 . S
O460 C442 1.257 . S
H461 C447 0.929 . S
H462 C449 0.931 . S
H463 C451 0.939 . S
O464 Tb465 2.292 . S
O464 C467 1.255 . S
Tb465 O464 2.292 . S
Tb465 O481 2.326 . S
Tb465 O483 2.500 . S
Tb465 O484 2.473 . S
Tb465 O487 2.324 . S
Eu466 O470 2.292 . S
Eu466 C471 2.852 . S
Eu466 O482 2.324 . S
Eu466 O486 2.326 . S
Eu466 O488 2.500 . S
Eu466 O489 2.473 . S
C467 O464 1.255 . S
C467 O468 1.247 . S
O468 C467 1.247 . S
C469 O481 1.242 . S
C469 O482 1.258 . S
O470 Eu466 2.292 . S
O470 C472 1.255 . S
C471 Eu466 2.852 . S
C471 C475 1.503 . S
C471 O488 1.273 . S
C471 O489 1.257 . S
C472 O470 1.255 . S
C472 O473 1.247 . S
O473 C472 1.247 . S
C474 O486 1.242 . S
C474 O487 1.258 . S
C475 C471 1.503 . S
C475 C476 1.379 . S
C475 C480 1.392 . S
C476 C475 1.379 . S
C476 C477 1.404 . S
C476 H490 0.929 . S
C477 C476 1.404 . S
C477 C478 1.389 . S
C478 C477 1.389 . S
C478 C479 1.399 . S
C478 H491 0.931 . S
C479 C478 1.399 . S
C479 C480 1.390 . S
C480 C475 1.392 . S
C480 C479 1.390 . S
C480 H492 0.929 . S
O481 Tb465 2.326 . S
O481 C469 1.242 . S
O482 Eu466 2.324 . S
O482 C469 1.258 . S
O483 Tb465 2.500 . S
O483 C485 1.273 . S
O484 Tb465 2.473 . S
O484 C485 1.257 . S
C485 O483 1.273 . S
C485 O484 1.257 . S
O486 Eu466 2.326 . S
O486 C474 1.242 . S
O487 Tb465 2.324 . S
O487 C474 1.258 . S
O488 Eu466 2.500 . S
O488 C471 1.273 . S
O489 Eu466 2.473 . S
O489 C471 1.257 . S
H490 C476 0.929 . S
H491 C478 0.931 . S
H492 C480 0.929 . S
O493 Tb494 2.292 . S
O493 C496 1.255 . S
Tb494 O493 2.292 . S
Tb494 O510 2.326 . S
Tb494 O512 2.500 . S
Tb494 O513 2.473 . S
Tb494 O516 2.324 . S
Eu495 O499 2.302 . S
Eu495 C500 2.852 . S
Eu495 O511 2.324 . S
Eu495 O515 2.326 . S
Eu495 O517 2.500 . S
Eu495 O518 2.473 . S
C496 O493 1.255 . S
C496 O497 1.247 . S
O497 C496 1.247 . S
C498 O510 1.242 . S
C498 O511 1.258 . S
O499 Eu495 2.302 . S
O499 C501 1.248 1_655 S
C500 Eu495 2.852 . S
C500 C504 1.503 . S
C500 O517 1.273 . S
C500 O518 1.257 . S
C501 O499 1.248 1_455 S
C501 O502 1.247 1_455 S
O502 C501 1.247 1_655 S
C503 O515 1.242 . S
C503 O516 1.258 . S
C504 C500 1.503 . S
C504 C505 1.379 . S
C504 C509 1.392 . S
C505 C504 1.379 . S
C505 C506 1.404 . S
C505 H519 0.929 . S
C506 C505 1.404 . S
C506 C507 1.389 . S
C507 C506 1.389 . S
C507 C508 1.399 . S
C507 H520 0.931 . S
C508 C507 1.399 . S
C508 C509 1.390 . S
C509 C504 1.392 . S
C509 C508 1.390 . S
C509 H521 0.950 . S
O510 Tb494 2.326 . S
O510 C498 1.242 . S
O511 Eu495 2.324 . S
O511 C498 1.258 . S
O512 Tb494 2.500 . S
O512 C514 1.273 . S
O513 Tb494 2.473 . S
O513 C514 1.257 . S
C514 O512 1.273 . S
C514 O513 1.257 . S
O515 Eu495 2.326 . S
O515 C503 1.242 . S
O516 Tb494 2.324 . S
O516 C503 1.258 . S
O517 Eu495 2.500 . S
O517 C500 1.273 . S
O518 Eu495 2.473 . S
O518 C500 1.257 . S
H519 C505 0.929 . S
H520 C507 0.931 . S
H521 C509 0.950 . S
O522 Tb523 2.292 . S
O522 C525 1.255 . S
Tb523 O522 2.292 . S
Tb523 O539 2.326 . S
Tb523 O541 2.500 . S
Tb523 O542 2.473 . S
Tb523 O545 2.324 . S
Eu524 O528 2.299 . S
Eu524 C529 2.852 . S
Eu524 O540 2.324 . S
Eu524 O544 2.326 . S
Eu524 O546 2.500 . S
Eu524 O547 2.473 . S
C525 O522 1.255 . S
C525 O526 1.247 . S
O526 C525 1.247 . S
C527 O539 1.242 . S
C527 O540 1.258 . S
O528 Eu524 2.299 . S
O528 C530 1.256 1_455 S
C529 Eu524 2.852 . S
C529 C533 1.503 . S
C529 O546 1.273 . S
C529 O547 1.257 . S
C530 O528 1.256 1_655 S
C530 O531 1.247 1_655 S
O531 C530 1.247 1_455 S
C532 O544 1.242 . S
C532 O545 1.258 . S
C533 C529 1.503 . S
C533 C534 1.379 . S
C533 C538 1.392 . S
C534 C533 1.379 . S
C534 C535 1.404 . S
C534 H548 0.929 . S
C535 C534 1.404 . S
C535 C536 1.389 . S
C536 C535 1.389 . S
C536 C537 1.399 . S
C536 H549 0.931 . S
C537 C536 1.399 . S
C537 C538 1.390 . S
C538 C533 1.392 . S
C538 C537 1.390 . S
C538 H550 0.939 . S
O539 Tb523 2.326 . S
O539 C527 1.242 . S
O540 Eu524 2.324 . S
O540 C527 1.258 . S
O541 Tb523 2.500 . S
O541 C543 1.273 . S
O542 Tb523 2.473 . S
O542 C543 1.257 . S
C543 O541 1.273 . S
C543 O542 1.257 . S
O544 Eu524 2.326 . S
O544 C532 1.242 . S
O545 Tb523 2.324 . S
O545 C532 1.258 . S
O546 Eu524 2.500 . S
O546 C529 1.273 . S
O547 Eu524 2.473 . S
O547 C529 1.257 . S
H548 C534 0.929 . S
H549 C536 0.931 . S
H550 C538 0.939 . S
O551 Tb552 2.292 . S
O551 C554 1.255 . S
Tb552 O551 2.292 . S
Tb552 O568 2.326 . S
Tb552 O570 2.500 . S
Tb552 O571 2.473 . S
Tb552 O574 2.324 . S
Eu553 O557 2.302 . S
Eu553 C558 2.852 . S
Eu553 O569 2.324 . S
Eu553 O573 2.326 . S
Eu553 O575 2.500 . S
Eu553 O576 2.473 . S
C554 O551 1.255 . S
C554 O555 1.247 . S
O555 C554 1.247 . S
C556 O568 1.242 . S
C556 O569 1.258 . S
O557 Eu553 2.302 . S
O557 C559 1.248 1_545 S
C558 Eu553 2.852 . S
C558 C562 1.503 . S
C558 O575 1.273 . S
C558 O576 1.257 . S
C559 O557 1.248 1_565 S
C559 O560 1.247 1_565 S
O560 C559 1.247 1_545 S
C561 O573 1.242 . S
C561 O574 1.258 . S
C562 C558 1.503 . S
C562 C563 1.379 . S
C562 C567 1.392 . S
C563 C562 1.379 . S
C563 C564 1.404 . S
C563 H577 0.929 . S
C564 C563 1.404 . S
C564 C565 1.389 . S
C565 C564 1.389 . S
C565 C566 1.399 . S
C565 H578 0.931 . S
C566 C565 1.399 . S
C566 C567 1.390 . S
C567 C562 1.392 . S
C567 C566 1.390 . S
C567 H579 0.950 . S
O568 Tb552 2.326 . S
O568 C556 1.242 . S
O569 Eu553 2.324 . S
O569 C556 1.258 . S
O570 Tb552 2.500 . S
O570 C572 1.273 . S
O571 Tb552 2.473 . S
O571 C572 1.257 . S
C572 O570 1.273 . S
C572 O571 1.257 . S
O573 Eu553 2.326 . S
O573 C561 1.242 . S
O574 Tb552 2.324 . S
O574 C561 1.258 . S
O575 Eu553 2.500 . S
O575 C558 1.273 . S
O576 Eu553 2.473 . S
O576 C558 1.257 . S
H577 C563 0.929 . S
H578 C565 0.931 . S
H579 C567 0.950 . S
O580 Tb581 2.292 . S
O580 C583 1.255 . S
Tb581 O580 2.292 . S
Tb581 O597 2.326 . S
Tb581 O599 2.500 . S
Tb581 O600 2.473 . S
Tb581 O603 2.324 . S
Eu582 O586 2.292 . S
Eu582 C587 2.852 . S
Eu582 O598 2.324 . S
Eu582 O602 2.326 . S
Eu582 O604 2.500 . S
Eu582 O605 2.473 . S
C583 O580 1.255 . S
C583 O584 1.247 . S
O584 C583 1.247 . S
C585 O597 1.242 . S
C585 O598 1.258 . S
O586 Eu582 2.292 . S
O586 C588 1.255 . S
C587 Eu582 2.852 . S
C587 C591 1.503 . S
C587 O604 1.273 . S
C587 O605 1.257 . S
C588 O586 1.255 . S
C588 O589 1.247 . S
O589 C588 1.247 . S
C590 O602 1.242 . S
C590 O603 1.258 . S
C591 C587 1.503 . S
C591 C592 1.379 . S
C591 C596 1.392 . S
C592 C591 1.379 . S
C592 C593 1.404 . S
C592 H606 0.929 . S
C593 C592 1.404 . S
C593 C594 1.389 . S
C594 C593 1.389 . S
C594 C595 1.399 . S
C594 H607 0.931 . S
C595 C594 1.399 . S
C595 C596 1.390 . S
C596 C591 1.392 . S
C596 C595 1.390 . S
C596 H608 0.929 . S
O597 Tb581 2.326 . S
O597 C585 1.242 . S
O598 Eu582 2.324 . S
O598 C585 1.258 . S
O599 Tb581 2.500 . S
O599 C601 1.273 . S
O600 Tb581 2.473 . S
O600 C601 1.257 . S
C601 O599 1.273 . S
C601 O600 1.257 . S
O602 Eu582 2.326 . S
O602 C590 1.242 . S
O603 Tb581 2.324 . S
O603 C590 1.258 . S
O604 Eu582 2.500 . S
O604 C587 1.273 . S
O605 Eu582 2.473 . S
O605 C587 1.257 . S
H606 C592 0.929 . S
H607 C594 0.931 . S
H608 C596 0.929 . S
O609 Tb610 2.292 . S
O609 C612 1.255 . S
Tb610 O609 2.292 . S
Tb610 O626 2.326 . S
Tb610 O628 2.500 . S
Tb610 O629 2.473 . S
Tb610 O632 2.324 . S
Eu611 O615 2.299 . S
Eu611 C616 2.852 . S
Eu611 O627 2.324 . S
Eu611 O631 2.326 . S
Eu611 O633 2.500 . S
Eu611 O634 2.473 . S
C612 O609 1.255 . S
C612 O613 1.247 . S
O613 C612 1.247 . S
C614 O626 1.242 . S
C614 O627 1.258 . S
O615 Eu611 2.299 . S
O615 C617 1.256 1_655 S
C616 Eu611 2.852 . S
C616 C620 1.503 . S
C616 O633 1.273 . S
C616 O634 1.257 . S
C617 O615 1.256 1_455 S
C617 O618 1.247 1_455 S
O618 C617 1.247 1_655 S
C619 O631 1.242 . S
C619 O632 1.258 . S
C620 C616 1.503 . S
C620 C621 1.379 . S
C620 C625 1.392 . S
C621 C620 1.379 . S
C621 C622 1.404 . S
C621 H635 0.929 . S
C622 C621 1.404 . S
C622 C623 1.389 . S
C623 C622 1.389 . S
C623 C624 1.399 . S
C623 H636 0.931 . S
C624 C623 1.399 . S
C624 C625 1.390 . S
C625 C620 1.392 . S
C625 C624 1.390 . S
C625 H637 0.939 . S
O626 Tb610 2.326 . S
O626 C614 1.242 . S
O627 Eu611 2.324 . S
O627 C614 1.258 . S
O628 Tb610 2.500 . S
O628 C630 1.273 . S
O629 Tb610 2.473 . S
O629 C630 1.257 . S
C630 O628 1.273 . S
C630 O629 1.257 . S
O631 Eu611 2.326 . S
O631 C619 1.242 . S
O632 Tb610 2.324 . S
O632 C619 1.258 . S
O633 Eu611 2.500 . S
O633 C616 1.273 . S
O634 Eu611 2.473 . S
O634 C616 1.257 . S
H635 C621 0.929 . S
H636 C623 0.931 . S
H637 C625 0.939 . S
O638 Tb639 2.292 . S
O638 C641 1.255 . S
Tb639 O638 2.292 . S
Tb639 O655 2.326 . S
Tb639 O657 2.500 . S
Tb639 O658 2.473 . S
Tb639 O661 2.324 . S
Eu640 O644 2.302 . S
Eu640 C645 2.852 . S
Eu640 O656 2.324 . S
Eu640 O660 2.326 . S
Eu640 O662 2.500 . S
Eu640 O663 2.473 . S
C641 O638 1.255 . S
C641 O642 1.247 . S
O642 C641 1.247 . S
C643 O655 1.242 . S
C643 O656 1.258 . S
O644 Eu640 2.302 . S
O644 C646 1.248 1_565 S
C645 Eu640 2.852 . S
C645 C649 1.503 . S
C645 O662 1.273 . S
C645 O663 1.257 . S
C646 O644 1.248 1_545 S
C646 O647 1.247 1_545 S
O647 C646 1.247 1_565 S
C648 O660 1.242 . S
C648 O661 1.258 . S
C649 C645 1.503 . S
C649 C650 1.379 . S
C649 C654 1.392 . S
C650 C649 1.379 . S
C650 C651 1.404 . S
C650 H664 0.929 . S
C651 C650 1.404 . S
C651 C652 1.389 . S
C652 C651 1.389 . S
C652 C653 1.399 . S
C652 H665 0.931 . S
C653 C652 1.399 . S
C653 C654 1.390 . S
C654 C649 1.392 . S
C654 C653 1.390 . S
C654 H666 0.950 . S
O655 Tb639 2.326 . S
O655 C643 1.242 . S
O656 Eu640 2.324 . S
O656 C643 1.258 . S
O657 Tb639 2.500 . S
O657 C659 1.273 . S
O658 Tb639 2.473 . S
O658 C659 1.257 . S
C659 O657 1.273 . S
C659 O658 1.257 . S
O660 Eu640 2.326 . S
O660 C648 1.242 . S
O661 Tb639 2.324 . S
O661 C648 1.258 . S
O662 Eu640 2.500 . S
O662 C645 1.273 . S
O663 Eu640 2.473 . S
O663 C645 1.257 . S
H664 C650 0.929 . S
H665 C652 0.931 . S
H666 C654 0.950 . S
O667 Tb668 2.292 . S
O667 C670 1.255 . S
Tb668 O667 2.292 . S
Tb668 O684 2.326 . S
Tb668 O686 2.500 . S
Tb668 O687 2.473 . S
Tb668 O690 2.324 . S
Eu669 O673 2.292 . S
Eu669 C674 2.852 . S
Eu669 O685 2.324 . S
Eu669 O689 2.326 . S
Eu669 O691 2.500 . S
Eu669 O692 2.473 . S
C670 O667 1.255 . S
C670 O671 1.247 . S
O671 C670 1.247 . S
C672 O684 1.242 . S
C672 O685 1.258 . S
O673 Eu669 2.292 . S
O673 C675 1.255 . S
C674 Eu669 2.852 . S
C674 C678 1.503 . S
C674 O691 1.273 . S
C674 O692 1.257 . S
C675 O673 1.255 . S
C675 O676 1.247 . S
O676 C675 1.247 . S
C677 O689 1.242 . S
C677 O690 1.258 . S
C678 C674 1.503 . S
C678 C679 1.379 . S
C678 C683 1.392 . S
C679 C678 1.379 . S
C679 C680 1.404 . S
C679 H693 0.929 . S
C680 C679 1.404 . S
C680 C681 1.389 . S
C681 C680 1.389 . S
C681 C682 1.399 . S
C681 H694 0.931 . S
C682 C681 1.399 . S
C682 C683 1.390 . S
C683 C678 1.392 . S
C683 C682 1.390 . S
C683 H695 0.929 . S
O684 Tb668 2.326 . S
O684 C672 1.242 . S
O685 Eu669 2.324 . S
O685 C672 1.258 . S
O686 Tb668 2.500 . S
O686 C688 1.273 . S
O687 Tb668 2.473 . S
O687 C688 1.257 . S
C688 O686 1.273 . S
C688 O687 1.257 . S
O689 Eu669 2.326 . S
O689 C677 1.242 . S
O690 Tb668 2.324 . S
O690 C677 1.258 . S
O691 Eu669 2.500 . S
O691 C674 1.273 . S
O692 Eu669 2.473 . S
O692 C674 1.257 . S
H693 C679 0.929 . S
H694 C681 0.931 . S
H695 C683 0.929 . S
C8 C166 1.710 . S
C37 C21 1.711 . S
C66 C50 1.711 . S
C79 C95 1.710 . S
C124 C108 1.710 . S
C153 C137 1.711 . S
C224 C182 1.710 . S
C253 C211 1.711 . S
C282 C240 1.710 . S
C269 C311 1.710 . S
C340 C298 1.711 . S
C327 C195 1.710 . S
C514 C356 1.710 . S
C369 C385 1.711 . S
C414 C398 1.711 . S
C443 C427 1.710 . S
C472 C456 1.710 . S
C501 C485 1.711 . S
C572 C530 1.710 . S
C601 C559 1.711 . S
C588 C630 1.710 . S
C617 C659 1.710 . S
C646 C688 1.711 . S
C543 C675 1.710 . S
C10 C445 1.555 1_554 S
C39 C474 1.555 1_554 S
C68 C503 1.555 1_554 S
C358 C97 1.555 1_556 S
C126 C387 1.555 1_554 S
C155 C416 1.555 1_554 S
C619 C184 1.555 . S
C648 C213 1.555 . S
C677 C242 1.555 . S
C532 C271 1.555 . S
C300 C561 1.555 . S
C329 C590 1.555 . S
C5 C237 1.968 . S
C34 C266 1.969 . S
C63 C295 1.968 . S
C92 C324 1.969 . S
C121 C179 1.968 . S
C150 C208 1.968 . S
C585 C353 1.968 . S
C382 C614 1.969 . S
C643 C411 1.968 . S
C440 C672 1.969 . S
C469 C527 1.968 . S
C498 C556 1.968 . S
C15 C102 1.659 1_545 S
C131 C44 1.659 . S
C73 C160 1.659 1_655 S
C276 C189 1.659 1_455 S
C305 C218 1.659 1_545 S
C247 C334 1.659 . S
C450 C363 1.659 1_545 S
C479 C392 1.659 . S
C421 C508 1.659 1_455 S
C624 C537 1.659 1_655 S
C566 C653 1.659 1_545 S
C682 C595 1.659 . S
C61 C13 2.587 . S
C42 C90 2.586 . S
C119 C71 2.586 . S
C148 C100 2.587 . S
C129 C3 2.586 . S
C158 C32 2.586 . S
C187 C293 2.587 . S
C322 C216 2.586 . S
C177 C245 2.586 . S
C274 C206 2.587 . S
C303 C235 2.586 . S
C332 C264 2.586 . S
C361 C409 2.587 . S
C390 C438 2.586 . S
C419 C467 2.586 . S
C496 C448 2.587 . S
C477 C351 2.586 . S
C380 C506 2.586 . S
C535 C641 2.587 . S
C670 C564 2.586 . S
C593 C525 2.586 . S
C554 C622 2.587 . S
C583 C651 2.586 . S
C680 C612 2.586 . S
