# Generated by pormake.
# Topology ukd, (4)-cn, num edge types: 1
# Building blocks:
#     Node 0, Type 0, BuildingBlock: TATPOV_clean_sbu_0, # of connection points: 4
#     Node 1, Type 0, BuildingBlock: TATPOV_clean_sbu_0, # of connection points: 4
#     Node 2, Type 0, BuildingBlock: TATPOV_clean_sbu_0, # of connection points: 4
#     Node 3, Type 0, BuildingBlock: TATPOV_clean_sbu_0, # of connection points: 4
#     Node 4, Type 0, BuildingBlock: TATPOV_clean_sbu_0, # of connection points: 4
#     Node 5, Type 0, BuildingBlock: TATPOV_clean_sbu_0, # of connection points: 4
#     Node 6, Type 0, BuildingBlock: TATPOV_clean_sbu_0, # of connection points: 4
#     Node 7, Type 0, BuildingBlock: TATPOV_clean_sbu_0, # of connection points: 4
#     Node 8, Type 0, BuildingBlock: TATPOV_clean_sbu_0, # of connection points: 4
#     Node 9, Type 0, BuildingBlock: TATPOV_clean_sbu_0, # of connection points: 4
#     Node 10, Type 0, BuildingBlock: TATPOV_clean_sbu_0, # of connection points: 4
#     Node 11, Type 0, BuildingBlock: TATPOV_clean_sbu_0, # of connection points: 4
#     Node 12, Type 0, BuildingBlock: TATPOV_clean_sbu_0, # of connection points: 4
#     Node 13, Type 0, BuildingBlock: TATPOV_clean_sbu_0, # of connection points: 4
#     Node 14, Type 0, BuildingBlock: TATPOV_clean_sbu_0, # of connection points: 4
#     Node 15, Type 0, BuildingBlock: TATPOV_clean_sbu_0, # of connection points: 4
#     Node 16, Type 0, BuildingBlock: TATPOV_clean_sbu_0, # of connection points: 4
#     Node 17, Type 0, BuildingBlock: TATPOV_clean_sbu_0, # of connection points: 4
#     Node 18, Type 0, BuildingBlock: TATPOV_clean_sbu_0, # of connection points: 4
#     Node 19, Type 0, BuildingBlock: TATPOV_clean_sbu_0, # of connection points: 4
#     Node 20, Type 0, BuildingBlock: TATPOV_clean_sbu_0, # of connection points: 4
#     Node 21, Type 0, BuildingBlock: TATPOV_clean_sbu_0, # of connection points: 4
#     Node 22, Type 0, BuildingBlock: TATPOV_clean_sbu_0, # of connection points: 4
#     Node 23, Type 0, BuildingBlock: TATPOV_clean_sbu_0, # of connection points: 4
#     Node 24, Type 0, BuildingBlock: TATPOV_clean_sbu_0, # of connection points: 4
#     Node 25, Type 0, BuildingBlock: TATPOV_clean_sbu_0, # of connection points: 4
#     Node 26, Type 0, BuildingBlock: TATPOV_clean_sbu_0, # of connection points: 4
#     Node 27, Type 0, BuildingBlock: TATPOV_clean_sbu_0, # of connection points: 4
#     Node 28, Type 0, BuildingBlock: TATPOV_clean_sbu_0, # of connection points: 4
#     Node 29, Type 0, BuildingBlock: TATPOV_clean_sbu_0, # of connection points: 4
#     Node 30, Type 0, BuildingBlock: TATPOV_clean_sbu_0, # of connection points: 4
#     Node 31, Type 0, BuildingBlock: TATPOV_clean_sbu_0, # of connection points: 4
#     Edge 32, Type (0, 0), BuildingBlock: CIFDUS_clean_linker_0, # of connection points: 2
#     Edge 33, Type (0, 0), BuildingBlock: CIFDUS_clean_linker_0, # of connection points: 2
#     Edge 34, Type (0, 0), BuildingBlock: CIFDUS_clean_linker_0, # of connection points: 2
#     Edge 35, Type (0, 0), BuildingBlock: CIFDUS_clean_linker_0, # of connection points: 2
#     Edge 36, Type (0, 0), BuildingBlock: CIFDUS_clean_linker_0, # of connection points: 2
#     Edge 37, Type (0, 0), BuildingBlock: CIFDUS_clean_linker_0, # of connection points: 2
#     Edge 38, Type (0, 0), BuildingBlock: CIFDUS_clean_linker_0, # of connection points: 2
#     Edge 39, Type (0, 0), BuildingBlock: CIFDUS_clean_linker_0, # of connection points: 2
#     Edge 40, Type (0, 0), BuildingBlock: CIFDUS_clean_linker_0, # of connection points: 2
#     Edge 41, Type (0, 0), BuildingBlock: CIFDUS_clean_linker_0, # of connection points: 2
#     Edge 42, Type (0, 0), BuildingBlock: CIFDUS_clean_linker_0, # of connection points: 2
#     Edge 43, Type (0, 0), BuildingBlock: CIFDUS_clean_linker_0, # of connection points: 2
#     Edge 44, Type (0, 0), BuildingBlock: CIFDUS_clean_linker_0, # of connection points: 2
#     Edge 45, Type (0, 0), BuildingBlock: CIFDUS_clean_linker_0, # of connection points: 2
#     Edge 46, Type (0, 0), BuildingBlock: CIFDUS_clean_linker_0, # of connection points: 2
#     Edge 47, Type (0, 0), BuildingBlock: CIFDUS_clean_linker_0, # of connection points: 2
#     Edge 48, Type (0, 0), BuildingBlock: CIFDUS_clean_linker_0, # of connection points: 2
#     Edge 49, Type (0, 0), BuildingBlock: CIFDUS_clean_linker_0, # of connection points: 2
#     Edge 50, Type (0, 0), BuildingBlock: CIFDUS_clean_linker_0, # of connection points: 2
#     Edge 51, Type (0, 0), BuildingBlock: CIFDUS_clean_linker_0, # of connection points: 2
#     Edge 52, Type (0, 0), BuildingBlock: CIFDUS_clean_linker_0, # of connection points: 2
#     Edge 53, Type (0, 0), BuildingBlock: CIFDUS_clean_linker_0, # of connection points: 2
#     Edge 54, Type (0, 0), BuildingBlock: CIFDUS_clean_linker_0, # of connection points: 2
#     Edge 55, Type (0, 0), BuildingBlock: CIFDUS_clean_linker_0, # of connection points: 2
#     Edge 56, Type (0, 0), BuildingBlock: CIFDUS_clean_linker_0, # of connection points: 2
#     Edge 57, Type (0, 0), BuildingBlock: CIFDUS_clean_linker_0, # of connection points: 2
#     Edge 58, Type (0, 0), BuildingBlock: CIFDUS_clean_linker_0, # of connection points: 2
#     Edge 59, Type (0, 0), BuildingBlock: CIFDUS_clean_linker_0, # of connection points: 2
#     Edge 60, Type (0, 0), BuildingBlock: CIFDUS_clean_linker_0, # of connection points: 2
#     Edge 61, Type (0, 0), BuildingBlock: CIFDUS_clean_linker_0, # of connection points: 2
#     Edge 62, Type (0, 0), BuildingBlock: CIFDUS_clean_linker_0, # of connection points: 2
#     Edge 63, Type (0, 0), BuildingBlock: CIFDUS_clean_linker_0, # of connection points: 2
#     Edge 64, Type (0, 0), BuildingBlock: CIFDUS_clean_linker_0, # of connection points: 2
#     Edge 65, Type (0, 0), BuildingBlock: CIFDUS_clean_linker_0, # of connection points: 2
#     Edge 66, Type (0, 0), BuildingBlock: CIFDUS_clean_linker_0, # of connection points: 2
#     Edge 67, Type (0, 0), BuildingBlock: CIFDUS_clean_linker_0, # of connection points: 2
#     Edge 68, Type (0, 0), BuildingBlock: CIFDUS_clean_linker_0, # of connection points: 2
#     Edge 69, Type (0, 0), BuildingBlock: CIFDUS_clean_linker_0, # of connection points: 2
#     Edge 70, Type (0, 0), BuildingBlock: CIFDUS_clean_linker_0, # of connection points: 2
#     Edge 71, Type (0, 0), BuildingBlock: CIFDUS_clean_linker_0, # of connection points: 2
#     Edge 72, Type (0, 0), BuildingBlock: CIFDUS_clean_linker_0, # of connection points: 2
#     Edge 73, Type (0, 0), BuildingBlock: CIFDUS_clean_linker_0, # of connection points: 2
#     Edge 74, Type (0, 0), BuildingBlock: CIFDUS_clean_linker_0, # of connection points: 2
#     Edge 75, Type (0, 0), BuildingBlock: CIFDUS_clean_linker_0, # of connection points: 2
#     Edge 76, Type (0, 0), BuildingBlock: CIFDUS_clean_linker_0, # of connection points: 2
#     Edge 77, Type (0, 0), BuildingBlock: CIFDUS_clean_linker_0, # of connection points: 2
#     Edge 78, Type (0, 0), BuildingBlock: CIFDUS_clean_linker_0, # of connection points: 2
#     Edge 79, Type (0, 0), BuildingBlock: CIFDUS_clean_linker_0, # of connection points: 2
#     Edge 80, Type (0, 0), BuildingBlock: CIFDUS_clean_linker_0, # of connection points: 2
#     Edge 81, Type (0, 0), BuildingBlock: CIFDUS_clean_linker_0, # of connection points: 2
#     Edge 82, Type (0, 0), BuildingBlock: CIFDUS_clean_linker_0, # of connection points: 2
#     Edge 83, Type (0, 0), BuildingBlock: CIFDUS_clean_linker_0, # of connection points: 2
#     Edge 84, Type (0, 0), BuildingBlock: CIFDUS_clean_linker_0, # of connection points: 2
#     Edge 85, Type (0, 0), BuildingBlock: CIFDUS_clean_linker_0, # of connection points: 2
#     Edge 86, Type (0, 0), BuildingBlock: CIFDUS_clean_linker_0, # of connection points: 2
#     Edge 87, Type (0, 0), BuildingBlock: CIFDUS_clean_linker_0, # of connection points: 2
#     Edge 88, Type (0, 0), BuildingBlock: CIFDUS_clean_linker_0, # of connection points: 2
#     Edge 89, Type (0, 0), BuildingBlock: CIFDUS_clean_linker_0, # of connection points: 2
#     Edge 90, Type (0, 0), BuildingBlock: CIFDUS_clean_linker_0, # of connection points: 2
#     Edge 91, Type (0, 0), BuildingBlock: CIFDUS_clean_linker_0, # of connection points: 2
#     Edge 92, Type (0, 0), BuildingBlock: CIFDUS_clean_linker_0, # of connection points: 2
#     Edge 93, Type (0, 0), BuildingBlock: CIFDUS_clean_linker_0, # of connection points: 2
#     Edge 94, Type (0, 0), BuildingBlock: CIFDUS_clean_linker_0, # of connection points: 2
#     Edge 95, Type (0, 0), BuildingBlock: CIFDUS_clean_linker_0, # of connection points: 2
# Relax obj value: 0.128
# Max RMSD: 0.186
# Mean RMSD: 0.178
data_MOF--net-ukd--node1-TATPOV_clean_sbu_0--edge1-CIFDUS_clean_linker_0
_symmetry_space_group_name_H-M    P1
_symmetry_Int_Tables_number       1
_symmetry_cell_setting            triclinic
loop_
_symmetry_equiv_pos_as_xyz
'x, y, z'
_cell_length_a     38.182907
_cell_length_b     37.398364
_cell_length_c     67.953202
_cell_angle_alpha  89.888152
_cell_angle_beta   89.87829
_cell_angle_gamma 90.087351
loop_
_atom_site_label
_atom_site_type_symbol
_atom_site_fract_x
_atom_site_fract_y
_atom_site_fract_z
_atom_type_partial_charge
Zn0 Zn 0.12501 0.22633 0.31324 0.0
Zn1 Zn 0.18351 0.2005 0.33113 0.0
O2 O 0.14962 0.1585 0.3339 0.0
O3 O 0.10225 0.17782 0.31884 0.0
O4 O 0.23 0.18093 0.33947 0.0
O5 O 0.14985 0.2362 0.28756 0.0
O6 O 0.19632 0.21679 0.3033 0.0
C7 C 0.11823 0.15347 0.32824 0.0
C8 C 0.14834 0.26476 0.34875 0.0
O9 O 0.17182 0.24078 0.35011 0.0
O10 O 0.12675 0.26465 0.33458 0.0
C11 C 0.24099 0.17083 0.3562 0.0
O12 O 0.2202 0.17268 0.37159 0.0
C13 C 0.18234 0.22974 0.28786 0.0
Zn14 Zn 0.12241 0.99277 0.63101 0.0
Zn15 Zn 0.08805 -0.00179 0.59671 0.0
O16 O 0.04949 -0.00131 0.61732 0.0
O17 O 0.07599 0.99053 0.64562 0.0
O18 O 0.05993 0.00469 0.57243 0.0
O19 O 0.14452 0.04079 0.6255 0.0
O20 O 0.1219 0.04069 0.59568 0.0
C21 C 0.04802 0.99447 0.63586 0.0
C22 C 0.13283 0.93294 0.60417 0.0
O23 O 0.11023 0.9492 0.59378 0.0
O24 O 0.14386 0.94666 0.62006 0.0
C25 C 0.04327 0.97979 0.56385 0.0
O26 O 0.04556 0.9468 0.57039 0.0
C27 C 0.14128 0.05499 0.60868 0.0
Zn28 Zn 0.37234 0.78173 0.80784 0.0
Zn29 Zn 0.31078 0.79654 0.82633 0.0
O30 O 0.34093 0.84014 0.83256 0.0
O31 O 0.3909 0.82975 0.81744 0.0
O32 O 0.26417 0.80925 0.83775 0.0
O33 O 0.34794 0.77744 0.78177 0.0
O34 O 0.29846 0.7877 0.79744 0.0
C35 C 0.37192 0.84976 0.82806 0.0
C36 C 0.35088 0.73076 0.83839 0.0
O37 O 0.32529 0.75183 0.84123 0.0
O38 O 0.37356 0.73727 0.82521 0.0
C39 C 0.2594 0.81807 0.8556 0.0
O40 O 0.28615 0.81827 0.86773 0.0
C41 C 0.31495 0.78053 0.78163 0.0
Zn42 Zn 0.39187 0.99529 0.14801 0.0
Zn43 Zn 0.39967 0.99627 0.10876 0.0
O44 O 0.4492 0.99435 0.11978 0.0
O45 O 0.4445 0.99525 0.15196 0.0
O46 O 0.41136 0.99502 0.08013 0.0
O47 O 0.36514 0.94918 0.14564 0.0
O48 O 0.36665 0.95338 0.11332 0.0
C49 C 0.46348 0.99471 0.13665 0.0
C50 C 0.36346 0.05842 0.12846 0.0
O51 O 0.37641 0.04451 0.11303 0.0
O52 O 0.36552 0.04245 0.1449 0.0
C53 C 0.42206 0.02253 0.07085 0.0
O54 O 0.42204 0.05383 0.07958 0.0
C55 C 0.35614 0.93758 0.1289 0.0
Zn56 Zn 0.06739 0.78062 0.19133 0.0
Zn57 Zn 0.13302 0.7954 0.17713 0.0
O58 O 0.10645 0.84268 0.17475 0.0
O59 O 0.05449 0.83306 0.18779 0.0
O60 O 0.18208 0.8088 0.1697 0.0
O61 O 0.08824 0.76256 0.21733 0.0
O62 O 0.13979 0.7747 0.2044 0.0
C63 C 0.07622 0.85406 0.17962 0.0
C64 C 0.08914 0.74243 0.15501 0.0
O65 O 0.11833 0.75832 0.15711 0.0
O66 O 0.0642 0.74777 0.16706 0.0
C67 C 0.19208 0.81679 0.1524 0.0
O68 O 0.16941 0.81584 0.13789 0.0
C69 C 0.12134 0.76282 0.21859 0.0
Zn70 Zn 0.42807 0.9791 0.34797 0.0
Zn71 Zn 0.44359 0.9757 0.38574 0.0
O72 O 0.4902 0.97217 0.3703 0.0
O73 O 0.47795 0.97935 0.339 0.0
O74 O 0.46275 0.97871 0.41316 0.0
O75 O 0.40241 0.02515 0.35175 0.0
O76 O 0.41298 0.02124 0.3835 0.0
C77 C 0.50026 0.97451 0.35245 0.0
C78 C 0.39968 0.91659 0.36888 0.0
O79 O 0.4137 0.93021 0.38413 0.0
O80 O 0.40283 0.93189 0.35229 0.0
C81 C 0.4721 0.95293 0.42418 0.0
O82 O 0.46656 0.91981 0.41859 0.0
C83 C 0.39886 0.03734 0.36899 0.0
Zn84 Zn 0.39732 0.21581 0.66834 0.0
Zn85 Zn 0.33633 0.21956 0.64718 0.0
O86 O 0.35704 0.17171 0.6397 0.0
O87 O 0.40289 0.16419 0.65877 0.0
O88 O 0.28862 0.21729 0.63537 0.0
O89 O 0.37114 0.22712 0.694 0.0
O90 O 0.32375 0.22591 0.67573 0.0
C91 C 0.3825 0.15259 0.64551 0.0
C92 C 0.39366 0.27047 0.63655 0.0
O93 O 0.36198 0.26071 0.63439 0.0
O94 O 0.41306 0.2556 0.64933 0.0
C95 C 0.28223 0.2036 0.61868 0.0
O96 O 0.30853 0.19532 0.60706 0.0
C97 C 0.33813 0.22892 0.69247 0.0
Zn98 Zn 0.06275 0.9944 0.8379 0.0
Zn99 Zn 0.0563 -0.00233 0.87657 0.0
O100 O 0.00555 0.00473 0.8669 0.0
O101 O 0.01139 0.00413 0.83471 0.0
O102 O 0.05205 0.99492 0.90593 0.0
O103 O 0.08013 0.94409 0.8383 0.0
O104 O 0.08186 0.95019 0.87046 0.0
C105 C 0.99214 0.00722 0.84979 0.0
C106 C 0.10309 0.05148 0.85637 0.0
O107 O 0.08736 0.04157 0.87199 0.0
O108 O 0.09798 0.03507 0.84031 0.0
C109 C 0.02936 0.01037 0.91666 0.0
O110 O 0.0056 0.03091 0.90847 0.0
C111 C 0.08846 0.93202 0.85503 0.0
Zn112 Zn 0.86966 0.82009 0.67291 0.0
Zn113 Zn 0.8138 0.84176 0.65454 0.0
O114 O 0.85016 0.88309 0.65164 0.0
O115 O 0.89344 0.86692 0.67099 0.0
O116 O 0.77144 0.86238 0.64094 0.0
O117 O 0.84237 0.80882 0.69709 0.0
O118 O 0.79552 0.83051 0.68253 0.0
C119 C 0.87951 0.88979 0.6598 0.0
C120 C 0.85245 0.77556 0.64029 0.0
O121 O 0.82516 0.79508 0.63972 0.0
O122 O 0.8767 0.78215 0.6524 0.0
C123 C 0.77023 0.86667 0.62239 0.0
O124 O 0.79681 0.85603 0.61159 0.0
C125 C 0.81018 0.81662 0.69755 0.0
Zn126 Zn 0.96437 0.0609 0.42829 0.0
Zn127 Zn 0.94681 -0.00191 0.41412 0.0
O128 O 0.90744 0.03272 0.40599 0.0
O129 O 0.92035 0.08449 0.41945 0.0
O130 O 0.92493 0.95129 0.40621 0.0
O131 O 0.96769 0.04327 0.45551 0.0
O132 O 0.95697 0.9896 0.44382 0.0
C133 C 0.90008 0.06539 0.4092 0.0
C134 C 0.01167 0.03353 0.39808 0.0
O135 O 0.99063 0.00711 0.39697 0.0
O136 O 0.00636 0.05851 0.41028 0.0
C137 C 0.92696 0.93661 0.38941 0.0
O138 O 0.94727 0.95086 0.37587 0.0
C139 C 0.96407 0.01007 0.45826 0.0
Zn140 Zn 0.63011 0.18 0.16851 0.0
Zn141 Zn 0.69115 0.15201 0.15954 0.0
O142 O 0.65589 0.10967 0.15704 0.0
O143 O 0.60682 0.13272 0.16848 0.0
O144 O 0.73727 0.12862 0.15279 0.0
O145 O 0.6491 0.19824 0.19405 0.0
O146 O 0.69877 0.17065 0.18762 0.0
C147 C 0.62397 0.10622 0.16225 0.0
C148 C 0.66146 0.21484 0.13584 0.0
O149 O 0.68715 0.19488 0.14053 0.0
O150 O 0.63219 0.21115 0.14439 0.0
C151 C 0.74579 0.12109 0.13518 0.0
O152 O 0.72438 0.12964 0.12081 0.0
C153 C 0.67982 0.18953 0.19905 0.0
Zn154 Zn 0.50627 0.91939 0.93651 0.0
Zn155 Zn 0.52642 0.98376 0.92742 0.0
O156 O 0.56351 0.94956 0.91589 0.0
O157 O 0.54803 0.89536 0.92497 0.0
O158 O 0.55065 0.03124 0.92327 0.0
O159 O 0.50382 0.92763 0.965 0.0
O160 O 0.51465 0.98384 0.95751 0.0
C161 C 0.56887 0.91596 0.91597 0.0
C162 C 0.46052 0.95689 0.90894 0.0
O163 O 0.48319 0.98191 0.90952 0.0
O164 O 0.46407 0.92914 0.91946 0.0
C165 C 0.56059 0.0407 0.90616 0.0
O166 O 0.55155 0.02098 0.89101 0.0
C167 C 0.50716 0.95981 0.97024 0.0
Zn168 Zn 0.83631 0.2072 0.83204 0.0
Zn169 Zn 0.77639 0.19187 0.84793 0.0
O170 O 0.80782 0.14728 0.85329 0.0
O171 O 0.85341 0.15737 0.83417 0.0
O172 O 0.72876 0.17451 0.85675 0.0
O173 O 0.81561 0.22401 0.80669 0.0
O174 O 0.76554 0.20567 0.81914 0.0
C175 C 0.83659 0.13698 0.84562 0.0
C176 C 0.81879 0.25247 0.86483 0.0
O177 O 0.78903 0.23707 0.86377 0.0
O178 O 0.84392 0.24236 0.85402 0.0
C179 C 0.71858 0.16741 0.87414 0.0
O180 O 0.73975 0.1735 0.88898 0.0
C181 C 0.78302 0.21911 0.80492 0.0
Zn182 Zn 0.54235 0.08993 0.54796 0.0
Zn183 Zn 0.57553 0.0345 0.56258 0.0
O184 O 0.60206 0.07981 0.57177 0.0
O185 O 0.57689 0.1261 0.55771 0.0
O186 O 0.60697 0.99515 0.57272 0.0
O187 O 0.54526 0.07227 0.52063 0.0
O188 O 0.56773 0.02273 0.53278 0.0
C189 C 0.60014 0.11346 0.56893 0.0
C190 C 0.50378 0.05015 0.5782 0.0
O191 O 0.53113 0.03086 0.57912 0.0
O192 O 0.50186 0.07542 0.56577 0.0
C193 C 0.6102 0.99166 0.59125 0.0
O194 O 0.59204 0.01271 0.60288 0.0
C195 C 0.55631 0.04079 0.51817 0.0
Zn196 Zn 0.67104 0.7983 0.30651 0.0
Zn197 Zn 0.71804 0.79784 0.33414 0.0
O198 O 0.68748 0.84272 0.33982 0.0
O199 O 0.65095 0.84479 0.31487 0.0
O200 O 0.75983 0.80576 0.35157 0.0
O201 O 0.7042 0.79651 0.28419 0.0
O202 O 0.74385 0.79234 0.30741 0.0
C203 C 0.66262 0.85812 0.33062 0.0
C204 C 0.66799 0.73641 0.33311 0.0
O205 O 0.6935 0.75092 0.34221 0.0
O206 O 0.65468 0.75159 0.3182 0.0
C207 C 0.75882 0.81837 0.36889 0.0
O208 O 0.72832 0.82305 0.37749 0.0
C209 C 0.73575 0.79238 0.28922 0.0
Zn210 Zn 0.01907 0.93868 0.06474 0.0
Zn211 Zn 0.96327 0.97418 0.07244 0.0
O212 O 0.94372 0.92337 0.07571 0.0
O213 O 0.9935 0.89402 0.07362 0.0
O214 O 0.92177 0.00591 0.0785 0.0
O215 O 0.02082 0.95293 0.03673 0.0
O216 O 0.97647 0.98819 0.04355 0.0
C217 C 0.96087 0.89427 0.07705 0.0
C218 C 0.03075 0.97862 0.09796 0.0
O219 O -0.00207 0.98312 0.09547 0.0
O220 O 0.04862 0.96422 0.08446 0.0
C221 C 0.91094 0.01047 0.09603 0.0
O222 O 0.92729 0.99436 0.11054 0.0
C223 C -0.00076 0.97656 0.03135 0.0
Zn224 Zn 0.62601 0.73548 0.80885 0.0
Zn225 Zn 0.69077 0.71927 0.82393 0.0
O226 O 0.66337 0.6732 0.82714 0.0
O227 O 0.61093 0.684 0.81523 0.0
O228 O 0.73899 0.7048 0.83218 0.0
O229 O 0.64736 0.74867 0.78243 0.0
O230 O 0.69843 0.73857 0.7963 0.0
C231 C 0.6324 0.66278 0.82337 0.0
C232 C 0.6489 0.7766 0.84367 0.0
O233 O 0.6757 0.75654 0.84356 0.0
O234 O 0.62541 0.77363 0.83058 0.0
C235 C 0.74686 0.69807 0.84996 0.0
O236 O 0.723 0.70227 0.86372 0.0
C237 C 0.68049 0.74881 0.78157 0.0
Zn238 Zn 0.59656 0.4697 0.13545 0.0
Zn239 Zn 0.58623 0.47956 0.0971 0.0
O240 O 0.53612 0.48058 0.10781 0.0
O241 O 0.54392 0.46997 0.13934 0.0
O242 O 0.57912 0.48803 0.06845 0.0
O243 O 0.62325 0.51583 0.13728 0.0
O244 O 0.61965 0.52065 0.10504 0.0
C245 C 0.52356 0.4755 0.12495 0.0
C246 C 0.62038 0.41094 0.11134 0.0
O247 O 0.60639 0.4292 0.09767 0.0
O248 O 0.62157 0.423 0.12874 0.0
C249 C 0.55814 0.46906 0.05838 0.0
O250 O 0.54073 0.44303 0.06699 0.0
C251 C 0.63081 0.5322 0.12152 0.0
Zn252 Zn 0.83315 0.26927 0.32284 0.0
Zn253 Zn 0.76701 0.2792 0.33623 0.0
O254 O 0.79332 0.32438 0.34425 0.0
O255 O 0.84664 0.3188 0.33236 0.0
O256 O 0.71786 0.29164 0.3439 0.0
O257 O 0.81659 0.26126 0.29528 0.0
O258 O 0.76299 0.26661 0.3069 0.0
C259 C 0.82406 0.33675 0.34177 0.0
C260 C 0.80817 0.21863 0.35308 0.0
O261 O 0.78023 0.23702 0.35341 0.0
O262 O 0.83318 0.2266 0.34156 0.0
C263 C 0.71104 0.30187 0.36131 0.0
O264 O 0.7361 0.3015 0.37453 0.0
C265 C 0.78383 0.26035 0.29263 0.0
Zn266 Zn 0.9286 0.5129 0.65059 0.0
Zn267 Zn 0.92733 0.5122 0.61125 0.0
O268 O 0.97922 0.51476 0.61841 0.0
O269 O 0.98168 0.51667 0.65065 0.0
O270 O 0.93162 0.50781 0.5821 0.0
O271 O 0.90455 0.4649 0.65159 0.0
O272 O 0.89807 0.46816 0.61946 0.0
C273 C 0.9971 0.51693 0.63413 0.0
C274 C 0.89164 0.57293 0.63194 0.0
O275 O 0.90211 0.55922 0.61587 0.0
O276 O 0.89848 0.55797 0.64827 0.0
C277 C 0.94106 0.53361 0.57108 0.0
O278 O 0.94508 0.56566 0.57863 0.0
C279 C 0.89215 0.45236 0.63578 0.0
Zn280 Zn 0.60621 0.2918 0.68879 0.0
Zn281 Zn 0.67038 0.31025 0.67367 0.0
O282 O 0.64039 0.35498 0.67007 0.0
O283 O 0.58795 0.34122 0.68122 0.0
O284 O 0.7175 0.32686 0.66367 0.0
O285 O 0.62809 0.28303 0.71544 0.0
O286 O 0.67949 0.29462 0.70212 0.0
C287 C 0.60873 0.36369 0.67347 0.0
C288 C 0.63161 0.2471 0.65627 0.0
O289 O 0.65727 0.26882 0.65563 0.0
O290 O 0.6075 0.25081 0.66897 0.0
C291 C 0.74647 0.31558 0.67044 0.0
O292 O 0.74645 0.29086 0.68419 0.0
C293 C 0.6611 0.28496 0.71687 0.0
Zn294 Zn 0.92276 0.4944 0.83512 0.0
Zn295 Zn 0.93438 0.50229 0.87351 0.0
O296 O 0.98314 0.48964 0.86292 0.0
O297 O 0.97339 0.48021 0.83148 0.0
O298 O 0.94251 0.51133 0.90214 0.0
O299 O 0.90814 0.54563 0.83221 0.0
O300 O 0.91139 0.54936 0.86445 0.0
C301 C 0.99425 0.48074 0.84595 0.0
C302 C 0.88253 0.44611 0.86002 0.0
O303 O 0.90082 0.45972 0.87373 0.0
O304 O 0.88589 0.45716 0.84247 0.0
C305 C 0.96447 0.49458 0.91272 0.0
O306 O 0.98392 0.46948 0.90479 0.0
C307 C 0.90344 0.56316 0.84789 0.0
Zn308 Zn 0.90061 0.6844 0.17915 0.0
Zn309 Zn 0.84202 0.68251 0.15571 0.0
O310 O 0.86133 0.63189 0.15693 0.0
O311 O 0.9073 0.63046 0.17629 0.0
O312 O 0.79694 0.67397 0.14142 0.0
O313 O 0.87096 0.70557 0.2013 0.0
O314 O 0.82579 0.70444 0.18124 0.0
C315 C 0.88578 0.61441 0.16521 0.0
C316 C 0.90192 0.72856 0.14258 0.0
O317 O 0.87093 0.71736 0.13949 0.0
O318 O 0.91892 0.718 0.15756 0.0
C319 C 0.79581 0.65842 0.12482 0.0
O320 O 0.82526 0.65179 0.11548 0.0
C321 C 0.83903 0.71228 0.19783 0.0
Zn322 Zn 0.51948 0.49179 0.33411 0.0
Zn323 Zn 0.52835 0.50352 0.37278 0.0
O324 O 0.47577 0.5108 0.368 0.0
O325 O 0.46792 0.50206 0.33632 0.0
O326 O 0.53268 0.50946 0.40207 0.0
O327 O 0.53861 0.44188 0.33687 0.0
O328 O 0.54919 0.45358 0.36801 0.0
C329 C 0.45571 0.5101 0.35306 0.0
C330 C 0.5655 0.55186 0.34358 0.0
O331 O 0.55841 0.54392 0.36138 0.0
O332 O 0.5527 0.53347 0.32967 0.0
C333 C 0.51276 0.5296 0.41217 0.0
O334 O 0.48847 0.54846 0.40328 0.0
C335 C 0.55107 0.43249 0.35333 0.0
Zn336 Zn 0.34692 0.30693 0.1718 0.0
Zn337 Zn 0.29486 0.32895 0.15076 0.0
O338 O 0.33123 0.37063 0.14958 0.0
O339 O 0.3687 0.35519 0.17263 0.0
O340 O 0.25335 0.34604 0.13496 0.0
O341 O 0.31487 0.29174 0.19354 0.0
O342 O 0.27202 0.31831 0.17771 0.0
C343 C 0.35785 0.37775 0.16021 0.0
C344 C 0.33732 0.26379 0.13822 0.0
O345 O 0.30935 0.28217 0.13708 0.0
O346 O 0.36031 0.27127 0.15094 0.0
C347 C 0.25306 0.37297 0.12351 0.0
O348 O 0.2819 0.39162 0.12095 0.0
C349 C 0.28321 0.30149 0.19276 0.0
Zn350 Zn 0.48735 0.57248 0.9238 0.0
Zn351 Zn 0.45421 0.51588 0.9104 0.0
O352 O 0.41979 0.55783 0.90809 0.0
O353 O 0.44497 0.60407 0.92215 0.0
O354 O 0.4242 0.47459 0.90136 0.0
O355 O 0.50022 0.54846 0.94848 0.0
O356 O 0.47191 0.50065 0.93828 0.0
C357 C 0.41908 0.59053 0.91329 0.0
C358 C 0.51612 0.54504 0.88746 0.0
O359 O 0.49186 0.52173 0.88881 0.0
O360 O 0.51972 0.56875 0.90058 0.0
C361 C 0.41072 0.47735 0.88434 0.0
O362 O 0.41838 0.50555 0.87358 0.0
C363 C 0.49027 0.51663 0.95127 0.0
Zn364 Zn 0.17229 0.70094 0.6575 0.0
Zn365 Zn 0.2281 0.67498 0.64095 0.0
O366 O 0.19317 0.63185 0.64051 0.0
O367 O 0.15107 0.65261 0.65955 0.0
O368 O 0.27337 0.65643 0.62948 0.0
O369 O 0.19965 0.71979 0.68035 0.0
O370 O 0.24479 0.6906 0.66835 0.0
C371 C 0.16459 0.62723 0.64996 0.0
C372 C 0.18887 0.73815 0.62258 0.0
O373 O 0.21645 0.71916 0.62392 0.0
O374 O 0.16345 0.73277 0.6342 0.0
C375 C 0.27697 0.63271 0.61626 0.0
O376 O 0.249 0.61798 0.60847 0.0
C377 C 0.23112 0.70968 0.68184 0.0
Zn378 Zn 0.99531 0.41112 0.43409 0.0
Zn379 Zn 0.01543 0.47567 0.42321 0.0
O380 O 0.05444 0.44194 0.4134 0.0
O381 O 0.03882 0.3883 0.42349 0.0
O382 O 0.03559 0.52377 0.41583 0.0
O383 O 0.99263 0.42426 0.4621 0.0
O384 O 0.00564 0.47945 0.4534 0.0
C385 C 0.06022 0.40846 0.41455 0.0
C386 C 0.9495 0.44442 0.40559 0.0
O387 O 0.97187 0.46967 0.40589 0.0
O388 O 0.95305 0.41742 0.41669 0.0
C389 C 0.03702 0.53287 0.3978 0.0
O390 O 0.02326 0.51159 0.38453 0.0
C391 C -0.00252 0.45661 0.46666 0.0
Zn392 Zn 0.3291 0.69856 0.31776 0.0
Zn393 Zn 0.24205 0.68673 0.35023 0.0
O394 O 0.2688 0.63978 0.35717 0.0
O395 O 0.30079 0.67104 0.33791 0.0
O396 O 0.19303 0.6778 0.35989 0.0
O397 O 0.28828 0.70256 0.29872 0.0
O398 O 0.24118 0.69577 0.31884 0.0
C399 C 0.29618 0.64171 0.34682 0.0
C400 C 0.29217 0.73581 0.35384 0.0
O401 O 0.2645 0.73122 0.36386 0.0
O402 O 0.2992 0.71132 0.34163 0.0
C403 C 0.18806 0.67366 0.37825 0.0
O404 O 0.2142 0.67975 0.39034 0.0
C405 C 0.25503 0.70092 0.30163 0.0
Zn406 Zn 0.97322 0.5483 0.06303 0.0
Zn407 Zn 0.03501 0.52368 0.06816 0.0
O408 O 0.04363 0.57662 0.07443 0.0
O409 O 0.98937 0.5961 0.07342 0.0
O410 O 0.0824 0.50151 0.07257 0.0
O411 O 0.97264 0.53877 0.03451 0.0
O412 O 0.02319 0.51189 0.03885 0.0
C413 C 0.02145 0.6016 0.07706 0.0
C414 C 0.97231 0.50107 0.09438 0.0
O415 O 0.00508 0.50336 0.09098 0.0
O416 O 0.95105 0.514 0.08202 0.0
C417 C 0.08549 0.46895 0.07764 0.0
O418 O 0.05721 0.44907 0.07924 0.0
C419 C -0.00205 0.52102 0.02762 0.0
Zn420 Zn 0.16548 0.28346 0.8076 0.0
Zn421 Zn 0.21338 0.30947 0.83053 0.0
O422 O 0.1752 0.3491 0.82856 0.0
O423 O 0.13952 0.32925 0.80566 0.0
O424 O 0.25157 0.33512 0.84532 0.0
O425 O 0.19963 0.27074 0.78672 0.0
O426 O 0.24002 0.29622 0.80491 0.0
C427 C 0.1487 0.3536 0.81743 0.0
C428 C 0.17305 0.24369 0.84356 0.0
O429 O 0.19879 0.2647 0.84669 0.0
O430 O 0.15408 0.24744 0.82846 0.0
C431 C 0.26547 0.32876 0.86194 0.0
O432 O 0.25443 0.30151 0.8725 0.0
C433 C 0.2311 0.28021 0.78915 0.0
Zn434 Zn 0.56255 0.45226 0.56018 0.0
Zn435 Zn 0.50376 0.48616 0.56542 0.0
O436 O 0.48736 0.43491 0.56918 0.0
O437 O 0.53789 0.40679 0.56915 0.0
O438 O 0.45846 0.51323 0.56932 0.0
O439 O 0.56605 0.46563 0.53195 0.0
O440 O 0.51936 0.49881 0.53685 0.0
C441 C 0.50501 0.40645 0.57175 0.0
C442 C 0.56715 0.4945 0.59346 0.0
O443 O 0.5346 0.49758 0.58962 0.0
O444 O 0.58738 0.48103 0.58072 0.0
C445 C 0.45471 0.54075 0.58006 0.0
O446 O 0.48218 0.55434 0.58896 0.0
C447 C 0.54376 0.48769 0.52554 0.0
H448 H 0.09627 0.3478 0.42248 0.0
H449 H 0.0846 0.4313 0.37912 0.0
H450 H 0.11557 0.39497 0.35487 0.0
H451 H 0.13592 0.33535 0.3446 0.0
H452 H 0.14965 0.25259 0.38811 0.0
H453 H 0.12827 0.29283 0.41384 0.0
C454 C 0.1015 0.3584 0.40789 0.0
C455 C 0.08773 0.3918 0.40244 0.0
C456 C 0.11912 0.33729 0.39401 0.0
C457 C 0.09496 0.4056 0.38362 0.0
C458 C 0.11232 0.38469 0.36969 0.0
C459 C 0.13501 0.32656 0.35982 0.0
C460 C 0.14364 0.2911 0.36454 0.0
C461 C 0.12296 0.34987 0.37448 0.0
C462 C 0.14297 0.27986 0.38424 0.0
C463 C 0.13057 0.30276 0.3989 0.0
H464 H 0.98415 0.99163 0.61823 0.0
H465 H 0.03471 0.98199 0.67481 0.0
H466 H 0.98201 0.95475 0.68852 0.0
H467 H 0.92737 0.92254 0.6825 0.0
H468 H 0.87819 0.9283 0.62551 0.0
H469 H 0.92421 0.96898 0.61399 0.0
C470 C 0.98339 0.98443 0.63369 0.0
C471 C 0.0137 0.98786 0.64533 0.0
C472 C 0.95339 0.96767 0.64132 0.0
C473 C 0.012 0.97901 0.66542 0.0
C474 C 0.98191 0.96329 0.67326 0.0
C475 C 0.92628 0.93345 0.6677 0.0
C476 C 0.90007 0.92186 0.65469 0.0
C477 C 0.95332 0.9557 0.66105 0.0
C478 C 0.89833 0.93668 0.63572 0.0
C479 C 0.92481 0.95965 0.6291 0.0
H480 H 0.39302 0.58562 0.87692 0.0
H481 H 0.39045 0.65107 0.92903 0.0
H482 H 0.36266 0.6995 0.9104 0.0
H483 H 0.34906 0.72647 0.87809 0.0
H484 H 0.3619 0.66352 0.82553 0.0
H485 H 0.37569 0.61077 0.84535 0.0
C486 C 0.38521 0.61001 0.88435 0.0
C487 C 0.39343 0.61483 0.90429 0.0
C488 C 0.37189 0.63847 0.87326 0.0
C489 C 0.38405 0.64684 0.91368 0.0
C490 C 0.36857 0.67459 0.90299 0.0
C491 C 0.35421 0.70093 0.87112 0.0
C492 C 0.35465 0.69855 0.85052 0.0
C493 C 0.36392 0.67128 0.88259 0.0
C494 C 0.36173 0.66571 0.84143 0.0
C495 C 0.36954 0.63565 0.85274 0.0
H496 H 0.50222 0.00036 0.16999 0.0
H497 H 0.51053 0.00444 0.10666 0.0
H498 H 0.56782 0.03284 0.10924 0.0
H499 H 0.60821 0.06903 0.12939 0.0
H500 H 0.5966 0.06904 0.19243 0.0
H501 H 0.54869 0.02594 0.19017 0.0
C502 C 0.51696 0.00653 0.15675 0.0
C503 C 0.50161 0.00131 0.1382 0.0
C504 C 0.54934 0.02399 0.15832 0.0
C505 C 0.52141 0.0088 0.12117 0.0
C506 C 0.55417 0.02524 0.12262 0.0
C507 C 0.59612 0.05824 0.1426 0.0
C508 C 0.6056 0.07191 0.16103 0.0
C509 C 0.56741 0.03485 0.14109 0.0
C510 C 0.58957 0.05853 0.17812 0.0
C511 C 0.56199 0.03422 0.17681 0.0
H512 H 0.03083 0.73361 0.13345 0.0
H513 H 0.13683 0.69625 0.13937 0.0
H514 H 0.12668 0.65135 0.11375 0.0
H515 H 0.0856 0.61926 0.09204 0.0
H516 H 0.97986 0.65857 0.08573 0.0
H517 H 0.99219 0.70661 0.10868 0.0
C518 C 0.0516 0.71565 0.12903 0.0
C519 C 0.08414 0.71753 0.13848 0.0
C520 C 0.04568 0.69041 0.11418 0.0
C521 C 0.11141 0.69495 0.13235 0.0
C522 C 0.1056 0.66932 0.11774 0.0
C523 C 0.06546 0.63876 0.09538 0.0
C524 C 0.03168 0.63485 0.08738 0.0
C525 C 0.07257 0.66632 0.10884 0.0
C526 C 0.00601 0.6606 0.09178 0.0
C527 C 0.01293 0.68806 0.10505 0.0
H528 H 0.55165 0.94684 0.37585 0.0
H529 H 0.53113 0.98318 0.31661 0.0
H530 H 0.58514 0.95554 0.30525 0.0
H531 H 0.63104 0.91131 0.31085 0.0
H532 H 0.65091 0.87246 0.36952 0.0
H533 H 0.6049 0.91152 0.3825 0.0
C534 C 0.55947 0.94954 0.36056 0.0
C535 C 0.53688 0.96619 0.34699 0.0
C536 C 0.59026 0.93277 0.35399 0.0
C537 C 0.54764 0.96986 0.32729 0.0
C538 C 0.57852 0.954 0.32075 0.0
C539 C 0.62593 0.91219 0.32656 0.0
C540 C 0.64369 0.88867 0.33918 0.0
C541 C 0.59895 0.93384 0.33376 0.0
C542 C 0.6374 0.89032 0.35953 0.0
C543 C 0.61085 0.91236 0.36691 0.0
H544 H 0.46087 0.27576 0.62445 0.0
H545 H 0.35952 0.32525 0.61831 0.0
H546 H 0.38448 0.37013 0.59604 0.0
H547 H 0.43571 0.39674 0.57969 0.0
H548 H 0.53668 0.34576 0.58518 0.0
H549 H 0.511 0.29944 0.60596 0.0
C550 C 0.44431 0.29649 0.61829 0.0
C551 C 0.4086 0.29768 0.62324 0.0
C552 C 0.45865 0.3216 0.60522 0.0
C553 C 0.38718 0.32406 0.61481 0.0
C554 C 0.40141 0.34961 0.60206 0.0
C555 C 0.45202 0.3752 0.58516 0.0
C556 C 0.48814 0.37495 0.58098 0.0
C557 C 0.43717 0.34877 0.59728 0.0
C558 C 0.50881 0.34669 0.58813 0.0
C559 C 0.49422 0.3203 0.60017 0.0
H560 H 0.94664 0.03164 0.87788 0.0
H561 H 0.95488 0.00875 0.81575 0.0
H562 H 0.9012 0.04172 0.80956 0.0
H563 H 0.85982 0.0872 0.82071 0.0
H564 H 0.85165 0.11219 0.88235 0.0
H565 H 0.8968 0.06765 0.88995 0.0
C566 C 0.93616 0.03302 0.86308 0.0
C567 C 0.95534 0.01867 0.84723 0.0
C568 C 0.90545 0.0527 0.85951 0.0
C569 C 0.94111 0.02025 0.82817 0.0
C570 C 0.91039 0.03915 0.82458 0.0
C571 C 0.86704 0.08179 0.83587 0.0
C572 C 0.85291 0.10283 0.85096 0.0
C573 C 0.89349 0.05703 0.83997 0.0
C574 C 0.86219 0.09595 0.87056 0.0
C575 C 0.8883 0.07086 0.87484 0.0
H576 H 0.90442 0.6297 0.60819 0.0
H577 H 0.83867 0.59361 0.65594 0.0
H578 H 0.8141 0.6536 0.65932 0.0
H579 H 0.81847 0.71764 0.65234 0.0
H580 H 0.89076 0.75553 0.60832 0.0
H581 H 0.90514 0.69371 0.59933 0.0
C582 C 0.88415 0.63494 0.61901 0.0
C583 C 0.87338 0.60755 0.63188 0.0
C584 C 0.87143 0.66988 0.62148 0.0
C585 C 0.84746 0.61451 0.64602 0.0
C586 C 0.83343 0.64873 0.64794 0.0
C587 C 0.83632 0.71214 0.64026 0.0
C588 C 0.85305 0.74063 0.63065 0.0
C589 C 0.84614 0.67683 0.63624 0.0
C590 C 0.87712 0.73371 0.61554 0.0
C591 C 0.88562 0.69846 0.61062 0.0
H592 H 0.13643 0.10711 0.35729 0.0
H593 H 0.05567 0.12826 0.3145 0.0
H594 H 0.01763 0.08416 0.33028 0.0
H595 H 0.00329 0.04917 0.35991 0.0
H596 H 0.0815 0.03418 0.40467 0.0
H597 H 0.12492 0.06522 0.38431 0.0
C598 C 0.11087 0.1014 0.35109 0.0
C599 C 0.09869 0.12141 0.33494 0.0
C600 C 0.08861 0.07705 0.36072 0.0
C601 C 0.0655 0.11362 0.32709 0.0
C602 C 0.04369 0.08842 0.33613 0.0
C603 C 0.0303 0.05134 0.36471 0.0
C604 C 0.03955 0.03909 0.38353 0.0
C605 C 0.05436 0.07124 0.35347 0.0
C606 C 0.07418 0.04295 0.39004 0.0
C607 C 0.0988 0.06112 0.37852 0.0
H608 H 0.67921 0.37652 0.12316 0.0
H609 H 0.58222 0.36157 0.0919 0.0
H610 H 0.58982 0.29672 0.09316 0.0
H611 H 0.61823 0.24517 0.10911 0.0
H612 H 0.71673 0.25983 0.13888 0.0
H613 H 0.71518 0.3238 0.13164 0.0
C614 C 0.66037 0.35897 0.11614 0.0
C615 C 0.62994 0.37344 0.10778 0.0
C616 C 0.66516 0.32176 0.1167 0.0
C617 C 0.60579 0.35079 0.09847 0.0
C618 C 0.61003 0.31375 0.09928 0.0
C619 C 0.64003 0.2622 0.11323 0.0
C620 C 0.66727 0.2481 0.1247 0.0
C621 C 0.63879 0.29897 0.10917 0.0
C622 C 0.69553 0.27017 0.12995 0.0
C623 C 0.6944 0.30685 0.12608 0.0
H624 H 0.47305 0.9553 0.87025 0.0
H625 H 0.39022 0.95072 0.91324 0.0
H626 H 0.35136 0.92259 0.88923 0.0
H627 H 0.34642 0.88697 0.85919 0.0
H628 H 0.43259 0.88425 0.81801 0.0
H629 H 0.46456 0.92768 0.83786 0.0
C630 C 0.44592 0.94971 0.87396 0.0
C631 C 0.4342 0.95525 0.8933 0.0
C632 C 0.42477 0.9311 0.86055 0.0
C633 C 0.39944 0.94704 0.89829 0.0
C634 C 0.37748 0.93047 0.88466 0.0
C635 C 0.37179 0.89659 0.85427 0.0
C636 C 0.38742 0.88183 0.83737 0.0
C637 C 0.39064 0.92036 0.8662 0.0
C638 C 0.42023 0.89472 0.83115 0.0
C639 C 0.43856 0.91956 0.84251 0.0
H640 H 0.89236 0.39296 0.8866 0.0
H641 H 0.82084 0.43063 0.84217 0.0
H642 H 0.78743 0.37501 0.84451 0.0
H643 H 0.78588 0.31202 0.85422 0.0
H644 H 0.86334 0.27111 0.89423 0.0
H645 H 0.88634 0.33157 0.89933 0.0
C646 C 0.86892 0.38925 0.87784 0.0
C647 C 0.85917 0.41554 0.8641 0.0
C648 C 0.85092 0.35647 0.87855 0.0
C649 C 0.82899 0.41047 0.85266 0.0
C650 C 0.80989 0.37872 0.85402 0.0
C651 C 0.80667 0.31676 0.86478 0.0
C652 C 0.8226 0.28757 0.87413 0.0
C653 C 0.82152 0.35097 0.86626 0.0
C654 C 0.85035 0.29349 0.88722 0.0
C655 C 0.86384 0.32793 0.88984 0.0
H656 H 0.43412 0.1041 0.65332 0.0
H657 H 0.35244 0.1288 0.61159 0.0
H658 H 0.37976 0.09009 0.58735 0.0
H659 H 0.43429 0.0627 0.57562 0.0
H660 H 0.51625 0.03813 0.61697 0.0
H661 H 0.48096 0.06226 0.64383 0.0
C662 C 0.4217 0.10013 0.63915 0.0
C663 C 0.39214 0.12048 0.63402 0.0
C664 C 0.43785 0.07814 0.62508 0.0
C665 C 0.37576 0.11423 0.6158 0.0
C666 C 0.39144 0.09215 0.60184 0.0
C667 C 0.44371 0.06125 0.59066 0.0
C668 C 0.47797 0.04955 0.59431 0.0
C669 C 0.42365 0.07596 0.60591 0.0
C670 C 0.48992 0.04723 0.61382 0.0
C671 C 0.46993 0.06149 0.62915 0.0
H672 H 0.64004 0.68791 0.30893 0.0
H673 H 0.66518 0.7055 0.36997 0.0
H674 H 0.63663 0.64863 0.37877 0.0
H675 H 0.60128 0.59576 0.36894 0.0
H676 H 0.57826 0.57958 0.30732 0.0
H677 H 0.60941 0.63414 0.29896 0.0
C678 C 0.63936 0.67931 0.3242 0.0
C679 C 0.65413 0.70101 0.33884 0.0
C680 C 0.62321 0.64691 0.32902 0.0
C681 C 0.65382 0.6892 0.35846 0.0
C682 C 0.6374 0.65682 0.36347 0.0
C683 C 0.6033 0.60408 0.35368 0.0
C684 C 0.58707 0.58368 0.33882 0.0
C685 C 0.62148 0.63572 0.34887 0.0
C686 C 0.59026 0.59471 0.3191 0.0
C687 C 0.60805 0.626 0.31426 0.0
H688 H 0.11517 0.9051 0.16108 0.0
H689 H 0.01056 0.88306 0.18213 0.0
H690 H 0.98763 0.93136 0.16182 0.0
H691 H 0.99546 0.96733 0.132 0.0
H692 H 0.0993 0.98479 0.10881 0.0
H693 H 0.12445 0.95241 0.13657 0.0
C694 C 0.08749 0.91151 0.16169 0.0
C695 C 0.06447 0.88962 0.17257 0.0
C696 C 0.07426 0.93855 0.14943 0.0
C697 C 0.02882 0.89891 0.17355 0.0
C698 C 0.01561 0.92653 0.16187 0.0
C699 C 0.02369 0.96559 0.1335 0.0
C700 C 0.04544 0.97742 0.11806 0.0
C701 C 0.03777 0.94485 0.1488 0.0
C702 C 0.08197 0.97534 0.12036 0.0
C703 C 0.09634 0.95632 0.13609 0.0
H704 H 0.63269 0.84671 0.84121 0.0
H705 H 0.65349 0.76183 0.8825 0.0
H706 H 0.63537 0.80024 0.90982 0.0
H707 H 0.60547 0.8548 0.92099 0.0
H708 H 0.58761 0.94088 0.87993 0.0
H709 H 0.61388 0.90571 0.8535 0.0
C710 C 0.63379 0.83703 0.85626 0.0
C711 C 0.64363 0.80156 0.86 0.0
C712 C 0.62402 0.85944 0.87184 0.0
C713 C 0.64571 0.78913 0.87944 0.0
C714 C 0.63531 0.811 0.895 0.0
C715 C 0.6084 0.8662 0.90638 0.0
C716 C 0.59429 0.90003 0.90228 0.0
C717 C 0.62332 0.84578 0.89128 0.0
C718 C 0.5984 0.91485 0.88341 0.0
C719 C 0.613 0.89459 0.86824 0.0
H720 H 0.48757 0.47579 0.1593 0.0
H721 H 0.47404 0.46279 0.0967 0.0
H722 H 0.41563 0.43786 0.10213 0.0
H723 H 0.37459 0.40796 0.12505 0.0
H724 H 0.39114 0.41746 0.18756 0.0
H725 H 0.44153 0.45626 0.18183 0.0
C726 C 0.47151 0.46832 0.14681 0.0
C727 C 0.48545 0.47025 0.12769 0.0
C728 C 0.43848 0.45304 0.15006 0.0
C729 C 0.46407 0.46119 0.11162 0.0
C730 C 0.43071 0.4467 0.11471 0.0
C731 C 0.38847 0.41972 0.13736 0.0
C732 C 0.37962 0.40962 0.15667 0.0
C733 C 0.41845 0.44074 0.13393 0.0
C734 C 0.39783 0.42471 0.17256 0.0
C735 C 0.42676 0.44667 0.1693 0.0
H736 H 0.86084 0.12158 0.42098 0.0
H737 H 0.87752 0.04949 0.3724 0.0
H738 H 0.84546 0.08965 0.35054 0.0
H739 H 0.82314 0.15036 0.34421 0.0
H740 H 0.80476 0.22174 0.3928 0.0
H741 H 0.82679 0.17665 0.41587 0.0
C742 C 0.85644 0.11422 0.40574 0.0
C743 C 0.87196 0.08313 0.39815 0.0
C744 C 0.83828 0.13755 0.39326 0.0
C745 C 0.86582 0.07341 0.37851 0.0
C746 C 0.84783 0.09653 0.36596 0.0
C747 C 0.82311 0.15547 0.35992 0.0
C748 C 0.813 0.18911 0.36695 0.0
C749 C 0.83557 0.12944 0.37299 0.0
C750 C 0.81258 0.19581 0.38724 0.0
C751 C 0.82532 0.17018 0.40035 0.0
H752 H 0.13937 0.59363 0.61769 0.0
H753 H 0.14374 0.58771 0.68093 0.0
H754 H 0.09462 0.54587 0.68133 0.0
H755 H 0.04334 0.52207 0.66434 0.0
H756 H 0.03599 0.53147 0.60117 0.0
H757 H 0.0934 0.5601 0.60001 0.0
C758 C 0.13044 0.58185 0.63142 0.0
C759 C 0.14493 0.5935 0.64925 0.0
C760 C 0.10102 0.55915 0.63158 0.0
C761 C 0.13289 0.57881 0.66705 0.0
C762 C 0.10459 0.55523 0.66729 0.0
C763 C 0.05463 0.52958 0.65026 0.0
C764 C 0.03497 0.52546 0.63296 0.0
C765 C 0.08723 0.54691 0.64974 0.0
C766 C 0.0503 0.53479 0.61479 0.0
C767 C 0.08314 0.55133 0.6141 0.0
H768 H 0.60413 0.1069 0.60799 0.0
H769 H 0.63293 0.17645 0.56 0.0
H770 H 0.64951 0.22339 0.58341 0.0
H771 H 0.64862 0.2469 0.61741 0.0
H772 H 0.6108 0.17957 0.66447 0.0
H773 H 0.60473 0.12949 0.64169 0.0
C774 C 0.61512 0.13195 0.60272 0.0
C775 C 0.61806 0.13813 0.58241 0.0
C776 C 0.62215 0.15944 0.61614 0.0
C777 C 0.63106 0.17107 0.57564 0.0
C778 C 0.64014 0.19795 0.589 0.0
C779 C 0.63948 0.22109 0.62263 0.0
C780 C 0.63006 0.21677 0.6425 0.0
C781 C 0.63466 0.19284 0.60926 0.0
C782 C 0.61787 0.18345 0.64916 0.0
C783 C 0.61453 0.15483 0.63618 0.0
H784 H 0.1336 0.3924 0.85024 0.0
H785 H 0.1133 0.38568 0.78793 0.0
H786 H 0.06672 0.42983 0.79093 0.0
H787 H 0.02618 0.46262 0.81182 0.0
H788 H 0.04296 0.46657 0.87457 0.0
H789 H 0.09678 0.4319 0.87082 0.0
C790 C 0.11955 0.40141 0.83729 0.0
C791 C 0.1265 0.38565 0.81894 0.0
C792 C 0.09185 0.42591 0.83925 0.0
C793 C 0.10806 0.39725 0.80225 0.0
C794 C 0.08139 0.4224 0.80396 0.0
C795 C 0.04187 0.45646 0.82467 0.0
C796 C 0.03017 0.46657 0.84347 0.0
C797 C 0.07211 0.4357 0.82249 0.0
C798 C 0.05116 0.45882 0.85992 0.0
C799 C 0.08188 0.43883 0.85781 0.0
H800 H 0.99309 0.84104 0.09653 0.0
H801 H 0.89122 0.87576 0.077 0.0
H802 H 0.86396 0.82509 0.0942 0.0
H803 H 0.86909 0.77346 0.1168 0.0
H804 H 0.97084 0.74414 0.13899 0.0
H805 H -0.00172 0.79007 0.11862 0.0
C806 C 0.96495 0.83723 0.09572 0.0
C807 C 0.9442 0.86189 0.08537 0.0
C808 C 0.94949 0.80912 0.10625 0.0
C809 C 0.90773 0.857 0.08483 0.0
C810 C 0.89217 0.82814 0.0947 0.0
C811 C 0.89729 0.77689 0.11697 0.0
C812 C 0.91803 0.75516 0.12923 0.0
C813 C 0.91276 0.80439 0.10577 0.0
C814 C 0.95444 0.76037 0.12958 0.0
C815 C 0.97011 0.78665 0.11797 0.0
H816 H 0.41724 0.53797 0.32364 0.0
H817 H 0.41488 0.51691 0.38608 0.0
H818 H 0.3612 0.55223 0.38924 0.0
H819 H 0.31965 0.59573 0.3748 0.0
H820 H 0.32802 0.62215 0.31319 0.0
H821 H 0.37444 0.57798 0.30905 0.0
C822 C 0.40456 0.54035 0.33789 0.0
C823 C 0.41999 0.52489 0.3546 0.0
C824 C 0.37498 0.56213 0.33974 0.0
C825 C 0.40347 0.52863 0.37299 0.0
C826 C 0.37292 0.54898 0.37482 0.0
C827 C 0.3313 0.59116 0.36046 0.0
C828 C 0.32071 0.61193 0.34431 0.0
C829 C 0.35914 0.56687 0.35839 0.0
C830 C 0.33609 0.60642 0.3258 0.0
C831 C 0.36256 0.58123 0.32344 0.0
H832 H 0.38908 0.11545 0.10873 0.0
H833 H 0.305 0.08202 0.14702 0.0
H834 H 0.28459 0.14383 0.14959 0.0
H835 H 0.29606 0.20776 0.14499 0.0
H836 H 0.38591 0.24189 0.11148 0.0
H837 H 0.39847 0.17967 0.10249 0.0
C838 C 0.36585 0.12176 0.11726 0.0
C839 C 0.34844 0.09453 0.12767 0.0
C840 C 0.35548 0.15752 0.1195 0.0
C841 C 0.31876 0.10279 0.13897 0.0
C842 C 0.30715 0.13803 0.14044 0.0
C843 C 0.31763 0.20148 0.13515 0.0
C844 C 0.33969 0.22898 0.12851 0.0
C845 C 0.32599 0.1657 0.1313 0.0
C846 C 0.36834 0.2209 0.11639 0.0
C847 C 0.37567 0.1854 0.11146 0.0
H848 H 0.58615 0.54837 0.88396 0.0
H849 H 0.49044 0.55534 0.85084 0.0
H850 H 0.52064 0.589 0.82493 0.0
H851 H 0.5706 0.62803 0.81621 0.0
H852 H 0.66632 0.62028 0.84971 0.0
H853 H 0.64014 0.5747 0.87062 0.0
C854 C 0.57244 0.5558 0.87059 0.0
C855 C 0.53628 0.54977 0.86924 0.0
C856 C 0.58979 0.57577 0.85606 0.0
C857 C 0.51845 0.55952 0.85201 0.0
C858 C 0.5356 0.57927 0.83737 0.0
C859 C 0.58604 0.61563 0.82773 0.0
C860 C 0.61994 0.62846 0.83178 0.0
C861 C 0.57072 0.58943 0.83989 0.0
C862 C 0.63992 0.61149 0.84646 0.0
C863 C 0.62494 0.58542 0.85853 0.0
H864 H 0.13533 0.76705 0.60203 0.0
H865 H 0.2424 0.78538 0.61926 0.0
H866 H 0.236 0.84921 0.61246 0.0
H867 H 0.19598 0.90056 0.60843 0.0
H868 H 0.08964 0.88187 0.58983 0.0
H869 H 0.09974 0.81741 0.59007 0.0
C870 C 0.15762 0.78488 0.6035 0.0
C871 C 0.18908 0.77182 0.61136 0.0
C872 C 0.15362 0.82154 0.59974 0.0
C873 C 0.21794 0.79491 0.61315 0.0
C874 C 0.21414 0.8315 0.60953 0.0
C875 C 0.17541 0.88231 0.60391 0.0
C876 C 0.14198 0.89567 0.59952 0.0
C877 C 0.18151 0.84529 0.6039 0.0
C878 C 0.11557 0.87205 0.59337 0.0
C879 C 0.12126 0.8352 0.59361 0.0
H880 H 0.88096 0.4291 0.40978 0.0
H881 H 0.96032 0.45257 0.36651 0.0
H882 H 0.92427 0.42547 0.3408 0.0
H883 H 0.87683 0.38301 0.33284 0.0
H884 H 0.79692 0.3609 0.3762 0.0
H885 H 0.82599 0.40031 0.39957 0.0
C886 C 0.88954 0.42964 0.39455 0.0
C887 C 0.92318 0.44224 0.38995 0.0
C888 C 0.8689 0.41363 0.37998 0.0
C889 C 0.93432 0.44305 0.37027 0.0
C890 C 0.91394 0.42712 0.35564 0.0
C891 C 0.86526 0.38776 0.34719 0.0
C892 C 0.8354 0.36839 0.35301 0.0
C893 C 0.88218 0.41042 0.36061 0.0
C894 C 0.82014 0.37524 0.37146 0.0
C895 C 0.83687 0.39759 0.3849 0.0
H896 H 0.30416 0.78079 0.38485 0.0
H897 H 0.3264 0.7653 0.32317 0.0
H898 H 0.36167 0.8195 0.32256 0.0
H899 H 0.38619 0.87111 0.33923 0.0
H900 H 0.36767 0.88664 0.40125 0.0
H901 H 0.33131 0.83246 0.40216 0.0
C902 C 0.31669 0.78951 0.37133 0.0
C903 C 0.31269 0.7692 0.35408 0.0
C904 C 0.33772 0.8205 0.37116 0.0
C905 C 0.32931 0.78037 0.33666 0.0
C906 C 0.34943 0.8114 0.33627 0.0
C907 C 0.37421 0.86271 0.35298 0.0
C908 C 0.37937 0.88296 0.3701 0.0
C909 C 0.35386 0.83158 0.3534 0.0
C910 C 0.3641 0.87141 0.38786 0.0
C911 C 0.34321 0.84056 0.38835 0.0
H912 H 0.90527 0.49235 0.10703 0.0
H913 H 0.01111 0.50216 0.12832 0.0
H914 H 0.99018 0.53328 0.15747 0.0
H915 H 0.94537 0.57506 0.16975 0.0
H916 H 0.84063 0.56997 0.14613 0.0
H917 H 0.8573 0.51982 0.12538 0.0
C918 C 0.9236 0.49979 0.11851 0.0
C919 C 0.95979 0.49705 0.11493 0.0
C920 C 0.9116 0.52 0.13452 0.0
C921 C 0.98311 0.50516 0.13031 0.0
C922 C 0.97119 0.52361 0.1469 0.0
C923 C 0.92585 0.5621 0.16064 0.0
C924 C 0.89225 0.57716 0.15885 0.0
C925 C 0.936 0.53413 0.14808 0.0
C926 C 0.86702 0.55957 0.14731 0.0
C927 C 0.87654 0.53087 0.13538 0.0
H928 H 0.19994 0.18046 0.83487 0.0
H929 H 0.13178 0.2336 0.87589 0.0
H930 H 0.1071 0.17582 0.88615 0.0
H931 H 0.09748 0.11182 0.87856 0.0
H932 H 0.16116 0.06124 0.83414 0.0
H933 H 0.19525 0.11598 0.83011 0.0
C934 C 0.18077 0.17906 0.84668 0.0
C935 C 0.16807 0.2108 0.85495 0.0
C936 C 0.16528 0.1462 0.85144 0.0
C937 C 0.14243 0.20922 0.86973 0.0
C938 C 0.12797 0.17627 0.87532 0.0
C939 C 0.11934 0.11268 0.86835 0.0
C940 C 0.1266 0.08281 0.85648 0.0
C941 C 0.13799 0.14479 0.86555 0.0
C942 C 0.15482 0.08415 0.84321 0.0
C943 C 0.17435 0.11538 0.84093 0.0
H944 H 0.5276 0.47679 0.62503 0.0
H945 H 0.63313 0.50421 0.608 0.0
H946 H 0.65607 0.4696 0.63559 0.0
H947 H 0.64636 0.41873 0.6578 0.0
H948 H 0.54071 0.38666 0.67228 0.0
H949 H 0.51767 0.43572 0.65253 0.0
C950 C 0.55555 0.47669 0.6279 0.0
C951 C 0.57871 0.49218 0.61416 0.0
C952 C 0.56859 0.45453 0.64288 0.0
C953 C 0.6148 0.49208 0.61823 0.0
C954 C 0.62795 0.47172 0.63381 0.0
C955 C 0.61829 0.42296 0.65704 0.0
C956 C 0.59529 0.39831 0.66597 0.0
C957 C 0.60517 0.45061 0.64516 0.0
C958 C 0.55904 0.40475 0.66523 0.0
C959 C 0.5458 0.43284 0.6539 0.0
H960 H 0.29878 0.26154 0.22472 0.0
H961 H 0.21373 0.31879 0.19726 0.0
H962 H 0.17444 0.30047 0.22397 0.0
H963 H 0.16465 0.2685 0.2553 0.0
H964 H 0.25059 0.21168 0.28225 0.0
H965 H 0.28906 0.22937 0.25534 0.0
C966 C 0.27168 0.27019 0.22454 0.0
C967 C 0.25928 0.29166 0.20905 0.0
C968 C 0.24934 0.25945 0.23978 0.0
C969 C 0.22401 0.30237 0.20905 0.0
C970 C 0.20151 0.29183 0.22428 0.0
C971 C 0.19172 0.25978 0.2552 0.0
C972 C 0.2047 0.23882 0.27079 0.0
C973 C 0.21392 0.27033 0.23973 0.0
C974 C 0.2399 0.22789 0.27049 0.0
C975 C 0.26198 0.23803 0.25512 0.0
H976 H 0.02343 0.93538 0.53408 0.0
H977 H 0.01494 0.04396 0.55504 0.0
H978 H 0.98462 0.06127 0.52508 0.0
H979 H 0.96652 0.0475 0.49187 0.0
H980 H 0.97799 0.94054 0.46907 0.0
H981 H 0.00033 0.92034 0.50103 0.0
C982 C 0.01448 0.96266 0.53213 0.0
C983 C 0.02183 0.9885 0.54655 0.0
C984 C -0.00227 0.97271 0.51458 0.0
C985 C 0.0101 0.02376 0.54396 0.0
C986 C 0.99267 0.03367 0.52688 0.0
C987 C 0.97355 0.01962 0.49389 0.0
C988 C 0.97123 0.99568 0.47807 0.0
C989 C 0.98731 0.00865 0.51191 0.0
C990 C 0.97974 0.95954 0.48104 0.0
C991 C 0.99273 0.94806 0.49925 0.0
H992 H 0.20884 0.74793 0.7133 0.0
H993 H 0.30056 0.69704 0.68884 0.0
H994 H 0.33511 0.71661 0.71705 0.0
H995 H 0.33884 0.74687 0.74895 0.0
H996 H 0.2466 0.79612 0.77377 0.0
H997 H 0.21272 0.77878 0.74489 0.0
C998 C 0.2364 0.74109 0.7141 0.0
C999 C 0.25206 0.72095 0.699 0.0
C1000 C 0.25603 0.75229 0.73034 0.0
C1001 C 0.2878 0.71237 0.7003 0.0
C1002 C 0.30761 0.72364 0.71639 0.0
C1003 C 0.31142 0.75417 0.74795 0.0
C1004 C 0.29527 0.77281 0.76346 0.0
C1005 C 0.29195 0.74352 0.73151 0.0
C1006 C 0.25963 0.78174 0.76204 0.0
C1007 C 0.24023 0.77177 0.74556 0.0
H1008 H 0.45341 0.9634 0.05712 0.0
H1009 H 0.42928 0.07241 0.04153 0.0
H1010 H 0.4571 0.06405 0.00927 0.0
H1011 H 0.48514 0.02403 0.98486 0.0
H1012 H 0.50949 0.91545 0.00165 0.0
H1013 H 0.48538 0.92566 0.03428 0.0
C1014 C 0.45408 0.98532 0.04663 0.0
C1015 C 0.43874 0.0182 0.05145 0.0
C1016 C 0.47049 0.98049 0.02843 0.0
C1017 C 0.44064 0.04669 0.03798 0.0
C1018 C 0.4566 0.04195 0.0196 0.0
C1019 C 0.48578 0.00292 -0.00418 0.0
C1020 C 0.49874 0.96895 0.9908 0.0
C1021 C 0.47132 0.00878 0.01459 0.0
C1022 C 0.49933 0.94174 0.0051 0.0
C1023 C 0.48542 0.94747 0.02374 0.0
H1024 H 0.18457 0.7163 0.30074 0.0
H1025 H 0.2746 0.69896 0.26327 0.0
H1026 H 0.24062 0.71529 0.23457 0.0
H1027 H 0.18716 0.73802 0.22015 0.0
H1028 H 0.09585 0.75524 0.25633 0.0
H1029 H 0.12845 0.73517 0.28545 0.0
C1030 C 0.19658 0.71568 0.28627 0.0
C1031 C 0.2323 0.70688 0.28429 0.0
C1032 C 0.17681 0.72534 0.2696 0.0
C1033 C 0.24737 0.7061 0.26537 0.0
C1034 C 0.22796 0.71543 0.24887 0.0
C1035 C 0.17428 0.73738 0.2344 0.0
C1036 C 0.13936 0.7486 0.23616 0.0
C1037 C 0.19298 0.72579 0.25087 0.0
C1038 C 0.12283 0.74688 0.25464 0.0
C1039 C 0.14148 0.73548 0.27127 0.0
H1040 H 0.50999 0.01189 0.43198 0.0
H1041 H 0.47787 0.91123 0.4573 0.0
H1042 H 0.50649 0.9272 0.48839 0.0
H1043 H 0.53518 0.97306 0.50929 0.0
H1044 H 0.56559 0.07374 0.48326 0.0
H1045 H 0.54395 0.05411 0.45134 0.0
C1046 C 0.50932 0.99335 0.44428 0.0
C1047 C 0.49123 0.9608 0.44254 0.0
C1048 C 0.52583 0.00263 0.46191 0.0
C1049 C 0.49135 0.93665 0.4584 0.0
C1050 C 0.50772 0.94576 0.47614 0.0
C1051 C 0.538 0.99013 0.49646 0.0
C1052 C 0.55183 0.02479 0.49855 0.0
C1053 C 0.52442 0.97906 0.4782 0.0
C1054 C 0.55494 0.04697 0.48194 0.0
C1055 C 0.54234 0.03589 0.46374 0.0
H1056 H 0.21848 0.24683 0.75484 0.0
H1057 H 0.3018 0.29546 0.7883 0.0
H1058 H 0.34331 0.28222 0.76169 0.0
H1059 H 0.35514 0.25814 0.72824 0.0
H1060 H 0.26981 0.2113 0.69548 0.0
H1061 H 0.22998 0.22236 0.72264 0.0
C1062 C 0.24571 0.25459 0.75643 0.0
C1063 C 0.25695 0.27226 0.77351 0.0
C1064 C 0.26912 0.24714 0.74118 0.0
C1065 C 0.29242 0.28193 0.77526 0.0
C1066 C 0.31615 0.27433 0.76006 0.0
C1067 C 0.3279 0.25015 0.72718 0.0
C1068 C 0.31544 0.23411 0.70983 0.0
C1069 C 0.30473 0.25709 0.74287 0.0
C1070 C 0.28003 0.22401 0.70858 0.0
C1071 C 0.25717 0.23027 0.72412 0.0
H1072 H 0.98155 0.03298 0.94406 0.0
H1073 H 0.07747 0.97287 0.93757 0.0
H1074 H 0.07704 0.95891 0.97248 0.0
H1075 H 0.04886 0.96148 0.00438 0.0
H1076 H 0.95259 0.02028 0.01191 0.0
H1077 H 0.95398 0.03735 0.97703 0.0
C1078 C 0.00244 0.01702 0.95033 0.0
C1079 C 0.02938 0.00384 0.93814 0.0
C1080 C 0.002 0.00881 0.97055 0.0
C1081 C 0.05628 0.98322 0.94652 0.0
C1082 C 0.05612 0.9752 0.96651 0.0
C1083 C 0.02812 0.97814 -0.0015 0.0
C1084 C 0.00051 0.98936 0.01073 0.0
C1085 C 0.02896 0.9875 0.97858 0.0
C1086 C 0.97413 0.01122 0.00281 0.0
C1087 C 0.97488 0.02089 0.98287 0.0
H1088 H 0.73924 0.80923 0.70101 0.0
H1089 H 0.83572 0.80242 0.73389 0.0
H1090 H 0.80391 0.78074 0.76255 0.0
H1091 H 0.74969 0.76163 0.77791 0.0
H1092 H 0.65242 0.76764 0.7458 0.0
H1093 H 0.68368 0.79156 0.71713 0.0
C1094 C 0.75316 0.80342 0.71454 0.0
C1095 C 0.78978 0.80732 0.71529 0.0
C1096 C 0.73472 0.79043 0.73099 0.0
C1097 C 0.80755 0.79946 0.73287 0.0
C1098 C 0.78943 0.78698 0.74927 0.0
C1099 C 0.7352 0.76803 0.76464 0.0
C1100 C 0.69883 0.76259 0.76395 0.0
C1101 C 0.75317 0.78188 0.74839 0.0
C1102 C 0.6805 0.77142 0.74668 0.0
C1103 C 0.69833 0.78517 0.73031 0.0
H1104 H 0.7481 0.19715 0.20915 0.0
H1105 H 0.64289 0.21262 0.23084 0.0
H1106 H 0.6658 0.23735 0.26142 0.0
H1107 H 0.71556 0.25419 0.28204 0.0
H1108 H 0.82088 0.24 0.2601 0.0
H1109 H 0.79798 0.21565 0.22946 0.0
C1110 C 0.73023 0.20569 0.22064 0.0
C1111 C 0.69392 0.20284 0.21783 0.0
C1112 C 0.74354 0.22045 0.23804 0.0
C1113 C 0.67101 0.21452 0.23269 0.0
C1114 C 0.68405 0.22872 0.25016 0.0
C1115 C 0.73353 0.24602 0.27051 0.0
C1116 C 0.76985 0.24884 0.27341 0.0
C1117 C 0.72025 0.23189 0.25297 0.0
C1118 C 0.79276 0.23817 0.25828 0.0
C1119 C 0.77972 0.22407 0.24077 0.0
H1120 H 0.71285 0.22486 0.79863 0.0
H1121 H 0.81327 0.24093 0.77057 0.0
H1122 H 0.78439 0.264 0.74124 0.0
H1123 H 0.73094 0.27975 0.72361 0.0
H1124 H 0.63031 0.26379 0.7514 0.0
H1125 H 0.65911 0.24096 0.7809 0.0
C1126 C 0.72841 0.23317 0.78605 0.0
C1127 C 0.76516 0.23105 0.78679 0.0
C1128 C 0.71167 0.24675 0.76926 0.0
C1129 C 0.78494 0.24223 0.77041 0.0
C1130 C 0.76847 0.25552 0.75363 0.0
C1131 C 0.71524 0.27147 0.73612 0.0
C1132 C 0.67852 0.2735 0.73525 0.0
C1133 C 0.73189 0.25804 0.75293 0.0
C1134 C 0.65864 0.26257 0.75165 0.0
C1135 C 0.67507 0.24937 0.76851 0.0
H1136 H 0.72437 0.7855 0.25026 0.0
H1137 H 0.80562 0.77709 0.29411 0.0
H1138 H 0.84567 0.75264 0.26938 0.0
H1139 H 0.85583 0.72947 0.2358 0.0
H1140 H 0.77244 0.73604 0.19302 0.0
H1141 H 0.73494 0.76507 0.21701 0.0
C1142 C 0.75096 0.77875 0.25445 0.0
C1143 C 0.76189 0.78291 0.27404 0.0
C1144 C 0.77333 0.76385 0.24041 0.0
C1145 C 0.79651 0.77411 0.27912 0.0
C1146 C 0.81934 0.75992 0.26502 0.0
C1147 C 0.82949 0.73734 0.23174 0.0
C1148 C 0.81693 0.73025 0.21268 0.0
C1149 C 0.80774 0.7539 0.24571 0.0
C1150 C 0.78276 0.7408 0.20762 0.0
C1151 C 0.76126 0.75756 0.2213 0.0
H1152 H 0.50907 0.4408 0.03357 0.0
H1153 H 0.59397 0.51723 0.0362 0.0
H1154 H 0.58177 0.53613 0.0027 0.0
H1155 H 0.54504 0.53426 0.97377 0.0
H1156 H 0.45915 0.45951 0.97021 0.0
H1157 H 0.4741 0.43612 0.00296 0.0
C1158 C 0.52506 0.46135 0.02673 0.0
C1159 C 0.55213 0.47787 0.03747 0.0
C1160 C 0.51772 0.47242 0.00739 0.0
C1161 C 0.57275 0.50432 0.02838 0.0
C1162 C 0.56584 0.51517 0.0092 0.0
C1163 C 0.52956 0.51273 0.98009 0.0
C1164 C 0.5007 0.49899 0.96978 0.0
C1165 C 0.53802 0.49992 -0.00123 0.0
C1166 C 0.48143 0.47059 0.97795 0.0
C1167 C 0.48988 0.45739 -0.00332 0.0
H1168 H 0.98508 0.52366 0.48143 0.0
H1169 H 0.99605 0.41279 0.49832 0.0
H1170 H 0.97909 0.42705 0.5318 0.0
H1171 H 0.9587 0.46977 0.55596 0.0
H1172 H 0.94844 0.58116 0.5405 0.0
H1173 H 0.96735 0.5679 0.50675 0.0
C1174 C 0.98419 0.5028 0.49253 0.0
C1175 C 0.99151 0.46718 0.48731 0.0
C1176 C 0.97408 0.51111 0.51192 0.0
C1177 C 0.9902 0.44038 0.50185 0.0
C1178 C 0.98043 0.44844 0.52103 0.0
C1179 C 0.96037 0.4912 0.54521 0.0
C1180 C 0.95171 0.52627 0.5506 0.0
C1181 C 0.9717 0.48351 0.52612 0.0
C1182 C 0.95475 0.55384 0.53661 0.0
C1183 C 0.96563 0.54629 0.51736 0.0
H1184 H 0.95351 0.54641 0.0003 0.0
H1185 H 0.04185 0.47566 0.00727 0.0
H1186 H 0.03947 0.46107 0.97209 0.0
H1187 H 0.01147 0.46832 0.93944 0.0
H1188 H 0.9236 0.54027 0.93357 0.0
H1189 H 0.92674 0.55442 0.96838 0.0
C1190 C 0.9723 0.52768 -0.00577 0.0
C1191 C -0.0023 0.51197 0.00643 0.0
C1192 C 0.97085 0.51965 0.97419 0.0
C1193 C 0.022 0.48809 -0.00181 0.0
C1194 C 0.02061 0.47974 0.9781 0.0
C1195 C 0.99304 0.48708 0.9458 0.0
C1196 C 0.96728 0.50311 0.93389 0.0
C1197 C 0.99503 0.49532 0.96596 0.0
C1198 C 0.9437 0.52751 0.94234 0.0
C1199 C 0.94542 0.53564 0.96228 0.0
H1200 H 0.56543 0.50274 0.43424 0.0
H1201 H 0.46566 0.55615 0.43883 0.0
H1202 H 0.46752 0.55047 0.47468 0.0
H1203 H 0.49555 0.52605 0.50453 0.0
H1204 H 0.59532 0.47252 0.49923 0.0
H1205 H 0.59539 0.48283 0.46392 0.0
C1206 C 0.54417 0.51337 0.44307 0.0
C1207 C 0.51529 0.52945 0.43387 0.0
C1208 C 0.54532 0.50989 0.46359 0.0
C1209 C 0.48818 0.54351 0.44555 0.0
C1210 C 0.48916 0.54019 0.46605 0.0
C1211 C 0.51749 0.51706 0.49568 0.0
C1212 C 0.54515 0.49818 0.50454 0.0
C1213 C 0.51732 0.52281 0.47521 0.0
C1214 C 0.57347 0.48682 0.49283 0.0
C1215 C 0.57358 0.49266 0.47259 0.0
H1216 H 0.27027 0.13592 0.38765 0.0
H1217 H 0.29049 0.16766 0.3275 0.0
H1218 H 0.34414 0.13288 0.32728 0.0
H1219 H 0.38125 0.08779 0.34249 0.0
H1220 H 0.36173 0.05431 0.40227 0.0
H1221 H 0.31248 0.09605 0.40447 0.0
C1222 C 0.2867 0.13564 0.37461 0.0
C1223 C 0.27591 0.15381 0.3575 0.0
C1224 C 0.31762 0.11519 0.37447 0.0
C1225 C 0.29775 0.15347 0.34079 0.0
C1226 C 0.32853 0.1336 0.34063 0.0
C1227 C 0.3666 0.09007 0.35613 0.0
C1228 C 0.37473 0.06767 0.37208 0.0
C1229 C 0.33808 0.11347 0.35713 0.0
C1230 C 0.35593 0.07128 0.38976 0.0
C1231 C 0.32757 0.09491 0.39096 0.0
H1232 H 0.14713 0.11398 0.63084 0.0
H1233 H 0.18179 0.06696 0.57638 0.0
H1234 H 0.22614 0.114 0.57259 0.0
H1235 H 0.26096 0.16194 0.58798 0.0
H1236 H 0.22471 0.20917 0.6423 0.0
H1237 H 0.17432 0.16937 0.64257 0.0
C1238 C 0.16391 0.11466 0.61792 0.0
C1239 C 0.16191 0.08704 0.60408 0.0
C1240 C 0.18908 0.14166 0.61588 0.0
C1241 C 0.18318 0.08811 0.58723 0.0
C1242 C 0.20858 0.11483 0.58514 0.0
C1243 C 0.24154 0.16422 0.59959 0.0
C1244 C 0.24724 0.1877 0.61541 0.0
C1245 C 0.21271 0.14086 0.59982 0.0
C1246 C 0.22143 0.19081 0.63013 0.0
C1247 C 0.19263 0.16792 0.63038 0.0
H1248 H 0.19859 0.81529 0.83529 0.0
H1249 H 0.24341 0.85455 0.88936 0.0
H1250 H 0.19016 0.88872 0.89598 0.0
H1251 H 0.13542 0.915 0.88351 0.0
H1252 H 0.09301 0.87825 0.8283 0.0
H1253 H 0.14041 0.83498 0.82523 0.0
C1254 C 0.19654 0.83087 0.84869 0.0
C1255 C 0.22519 0.83302 0.86159 0.0
C1256 C 0.16629 0.85106 0.85214 0.0
C1257 C 0.22186 0.85276 0.87907 0.0
C1258 C 0.19145 0.87241 0.88283 0.0
C1259 C 0.13599 0.89677 0.87112 0.0
C1260 C 0.11106 0.90011 0.85602 0.0
C1261 C 0.1641 0.87288 0.86906 0.0
C1262 C 0.11216 0.87642 0.84001 0.0
C1263 C 0.13934 0.85181 0.83818 0.0
H1264 H 0.21975 0.84594 0.11888 0.0
H1265 H 0.24502 0.81939 0.1791 0.0
H1266 H 0.30085 0.85032 0.176 0.0
H1267 H 0.33885 0.89106 0.15779 0.0
H1268 H 0.31367 0.91971 0.09794 0.0
H1269 H 0.26193 0.88108 0.09915 0.0
C1270 C 0.2377 0.84646 0.13122 0.0
C1271 C 0.22787 0.83096 0.14931 0.0
C1272 C 0.26975 0.86477 0.12945 0.0
C1273 C 0.25163 0.83156 0.16509 0.0
C1274 C 0.28362 0.84924 0.16335 0.0
C1275 C 0.32238 0.88843 0.14488 0.0
C1276 C 0.32975 0.90868 0.12792 0.0
C1277 C 0.29239 0.86691 0.14584 0.0
C1278 C 0.3085 0.9045 0.11121 0.0
C1279 C 0.27875 0.88264 0.11195 0.0
H1280 H 0.7152 0.89819 0.64098 0.0
H1281 H 0.75841 0.87872 0.58324 0.0
H1282 H 0.71154 0.91391 0.56836 0.0
H1283 H 0.65998 0.95285 0.57189 0.0
H1284 H 0.6181 0.97349 0.62983 0.0
H1285 H 0.66262 0.93508 0.64441 0.0
C1286 C 0.71427 0.90138 0.62512 0.0
C1287 C 0.74043 0.88592 0.61328 0.0
C1288 C 0.68751 0.92201 0.61668 0.0
C1289 C 0.73873 0.8904 0.59275 0.0
C1290 C 0.71193 0.91057 0.58421 0.0
C1291 C 0.6604 0.9487 0.58769 0.0
C1292 C 0.63578 0.96619 0.59973 0.0
C1293 C 0.68643 0.92689 0.59605 0.0
C1294 C 0.6368 0.96054 0.62019 0.0
C1295 C 0.66228 0.93857 0.62857 0.0
H1296 H 0.87296 0.9111 0.41156 0.0
H1297 H 0.92515 0.8968 0.3557 0.0
H1298 H 0.87957 0.85491 0.34546 0.0
H1299 H 0.82188 0.82783 0.35093 0.0
H1300 H 0.76784 0.84528 0.40595 0.0
H1301 H 0.8175 0.88009 0.41806 0.0
C1302 C 0.87472 0.89844 0.39725 0.0
C1303 C 0.90231 0.9074 0.38433 0.0
C1304 C 0.84795 0.87511 0.39126 0.0
C1305 C 0.9041 0.89064 0.36587 0.0
C1306 C 0.878 0.86671 0.35999 0.0
C1307 C 0.82113 0.8387 0.36571 0.0
C1308 C 0.79097 0.8342 0.37745 0.0
C1309 C 0.84932 0.85956 0.37235 0.0
C1310 C 0.79057 0.84852 0.39655 0.0
C1311 C 0.81894 0.86853 0.40346 0.0
H1312 H 0.77321 0.10386 0.09937 0.0
H1313 H 0.79238 0.09389 0.16174 0.0
H1314 H 0.84521 0.0593 0.15511 0.0
H1315 H 0.88527 0.03064 0.13169 0.0
H1316 H 0.86658 0.04106 0.06931 0.0
H1317 H 0.81435 0.07672 0.0759 0.0
C1318 C 0.78897 0.09422 0.11152 0.0
C1319 C 0.77868 0.10139 0.13103 0.0
C1320 C 0.81941 0.07433 0.10762 0.0
C1321 C 0.79959 0.0888 0.14658 0.0
C1322 C 0.82982 0.06893 0.14281 0.0
C1323 C 0.86982 0.04073 0.11952 0.0
C1324 C 0.87981 0.033 0.10004 0.0
C1325 C 0.83985 0.06133 0.1234 0.0
C1326 C 0.85955 0.04654 0.08446 0.0
C1327 C 0.82962 0.06693 0.08821 0.0
H1328 H 0.58366 0.07027 0.87193 0.0
H1329 H 0.59635 0.07655 0.93492 0.0
H1330 H 0.64499 0.11834 0.93068 0.0
H1331 H 0.68729 0.14897 0.90896 0.0
H1332 H 0.67395 0.14265 0.84597 0.0
H1333 H 0.62223 0.10532 0.8504 0.0
C1334 C 0.59677 0.08109 0.88475 0.0
C1335 C 0.58655 0.06993 0.90369 0.0
C1336 C 0.62488 0.10496 0.88222 0.0
C1337 C 0.60367 0.08455 0.92015 0.0
C1338 C 0.63164 0.10836 0.91774 0.0
C1339 C 0.67287 0.13975 0.89621 0.0
C1340 C 0.68487 0.14832 0.87717 0.0
C1341 C 0.64302 0.11811 0.89883 0.0
C1342 C 0.66557 0.13636 0.86082 0.0
C1343 C 0.63594 0.1149 0.86331 0.0
H1344 H 0.80054 0.68533 0.82477 0.0
H1345 H 0.76863 0.67053 0.88523 0.0
H1346 H 0.81897 0.63166 0.8909 0.0
H1347 H 0.86636 0.59477 0.87724 0.0
H1348 H 0.89547 0.60698 0.81618 0.0
H1349 H 0.8523 0.65446 0.8123 0.0
C1350 C 0.80484 0.67408 0.83929 0.0
C1351 C 0.78046 0.68023 0.85444 0.0
C1352 C 0.83327 0.65108 0.8423 0.0
C1353 C 0.78677 0.6659 0.87323 0.0
C1354 C 0.81551 0.64356 0.87648 0.0
C1355 C 0.86389 0.60847 0.86323 0.0
C1356 C 0.88372 0.59706 0.84695 0.0
C1357 C 0.83814 0.63489 0.86091 0.0
C1358 C 0.88021 0.61502 0.82888 0.0
C1359 C 0.85544 0.64207 0.82662 0.0
H1360 H 0.73533 0.65325 0.14554 0.0
H1361 H 0.7826 0.62337 0.09022 0.0
H1362 H 0.7324 0.58494 0.08291 0.0
H1363 H 0.67905 0.55369 0.09441 0.0
H1364 H 0.63562 0.58013 0.15119 0.0
H1365 H 0.68014 0.62622 0.15568 0.0
C1366 C 0.73445 0.6389 0.13169 0.0
C1367 C 0.76289 0.6409 0.11855 0.0
C1368 C 0.70627 0.61587 0.12795 0.0
C1369 C 0.76117 0.62212 0.10067 0.0
C1370 C 0.73253 0.60001 0.09651 0.0
C1371 C 0.67899 0.57011 0.10755 0.0
C1372 C 0.65432 0.56345 0.12251 0.0
C1373 C 0.70552 0.59572 0.11037 0.0
C1374 C 0.6546 0.58461 0.13957 0.0
C1375 C 0.68004 0.61093 0.14215 0.0
H1376 H 0.65419 0.30618 0.33753 0.0
H1377 H 0.69272 0.33908 0.39438 0.0
H1378 H 0.64268 0.37898 0.39832 0.0
H1379 H 0.59327 0.41102 0.38338 0.0
H1380 H 0.5565 0.37962 0.32588 0.0
H1381 H 0.60023 0.33231 0.32462 0.0
C1382 C 0.65136 0.32162 0.35094 0.0
C1383 C 0.67753 0.3202 0.36545 0.0
C1384 C 0.62297 0.34506 0.35293 0.0
C1385 C 0.67316 0.33993 0.38287 0.0
C1386 C 0.6446 0.3629 0.38511 0.0
C1387 C 0.59429 0.39335 0.37076 0.0
C1388 C 0.57207 0.39934 0.35459 0.0
C1389 C 0.62011 0.36669 0.36989 0.0
C1390 C 0.5736 0.37597 0.33842 0.0
C1391 C 0.59869 0.34894 0.33765 0.0
H1392 H 0.88718 0.40204 0.66444 0.0
H1393 H 0.84037 0.43565 0.60973 0.0
H1394 H 0.79195 0.39384 0.61489 0.0
H1395 H 0.75962 0.35303 0.63691 0.0
H1396 H 0.80729 0.31849 0.69123 0.0
H1397 H 0.85879 0.35516 0.68419 0.0
C1398 C 0.86668 0.39976 0.65349 0.0
C1399 C 0.8671 0.42224 0.63687 0.0
C1400 C 0.83889 0.37579 0.65658 0.0
C1401 C 0.84065 0.41866 0.62266 0.0
C1402 C 0.8128 0.39495 0.62567 0.0
C1403 C 0.7815 0.35322 0.64707 0.0
C1404 C 0.77945 0.33355 0.6647 0.0
C1405 C 0.81111 0.37424 0.64289 0.0
C1406 C 0.80817 0.33351 0.67759 0.0
C1407 C 0.83758 0.35458 0.67362 0.0
H1408 H 0.09963 0.40409 0.0939 0.0
H1409 H 0.14933 0.5016 0.0742 0.0
H1410 H 0.20591 0.47965 0.08567 0.0
H1411 H 0.24075 0.43414 0.10284 0.0
H1412 H 0.19054 0.33744 0.12337 0.0
H1413 H 0.1348 0.3577 0.10994 0.0
C1414 C 0.12286 0.42045 0.09195 0.0
C1415 C 0.12016 0.45451 0.08327 0.0
C1416 C 0.15526 0.40789 0.09882 0.0
C1417 C 0.15059 0.47533 0.08091 0.0
C1418 C 0.18299 0.46282 0.08748 0.0
C1419 C 0.2177 0.41735 0.10425 0.0
C1420 C 0.21986 0.38439 0.11419 0.0
C1421 C 0.18555 0.42935 0.0967 0.0
C1422 C 0.18965 0.36303 0.11589 0.0
C1423 C 0.15771 0.37458 0.10821 0.0
H1424 H 0.38385 0.4194 0.90393 0.0
H1425 H 0.37952 0.47567 0.84842 0.0
H1426 H 0.33487 0.43444 0.83669 0.0
H1427 H 0.29597 0.38374 0.8423 0.0
H1428 H 0.29921 0.32686 0.89761 0.0
H1429 H 0.34541 0.36701 0.90926 0.0
C1430 C 0.37329 0.4225 0.88923 0.0
C1431 C 0.38503 0.45071 0.87711 0.0
C1432 C 0.34731 0.39871 0.88255 0.0
C1433 C 0.37099 0.45432 0.8581 0.0
C1434 C 0.34538 0.43075 0.85136 0.0
C1435 C 0.30672 0.37999 0.85693 0.0
C1436 C 0.29396 0.35238 0.86909 0.0
C1437 C 0.33315 0.40309 0.8635 0.0
C1438 C 0.30845 0.34793 0.88794 0.0
C1439 C 0.33488 0.37089 0.89461 0.0
H1440 H 0.43701 0.59691 0.60349 0.0
H1441 H 0.39251 0.51788 0.56461 0.0
H1442 H 0.33379 0.53998 0.57184 0.0
H1443 H 0.29477 0.58033 0.59016 0.0
H1444 H 0.33953 0.65887 0.62928 0.0
H1445 H 0.39824 0.6384 0.62093 0.0
C1446 C 0.41451 0.58462 0.5965 0.0
C1447 C 0.41927 0.55568 0.58358 0.0
C1448 C 0.38073 0.5973 0.60081 0.0
C1449 C 0.38972 0.54016 0.57464 0.0
C1450 C 0.35605 0.55275 0.57879 0.0
C1451 C 0.31735 0.59309 0.59679 0.0
C1452 C 0.3126 0.62101 0.6104 0.0
C1453 C 0.3512 0.58108 0.59201 0.0
C1454 C 0.34227 0.63724 0.61881 0.0
C1455 C 0.37595 0.62556 0.61406 0.0
H1456 H 0.07694 0.57646 0.42079 0.0
H1457 H 0.0447 0.55962 0.36065 0.0
H1458 H 0.0857 0.60549 0.34953 0.0
H1459 H 0.13527 0.64519 0.35641 0.0
H1460 H 0.16932 0.66021 0.41638 0.0
H1461 H 0.12268 0.62074 0.42801 0.0
C1462 C 0.07848 0.58317 0.40528 0.0
C1463 C 0.05808 0.56424 0.39156 0.0
C1464 C 0.10261 0.60915 0.39891 0.0
C1465 C 0.06032 0.57348 0.37153 0.0
C1466 C 0.08381 0.59971 0.36513 0.0
C1467 C 0.13215 0.64038 0.37206 0.0
C1468 C 0.15608 0.65531 0.38547 0.0
C1469 C 0.1058 0.61696 0.37862 0.0
C1470 C 0.15148 0.64884 0.4057 0.0
C1471 C 0.12487 0.62615 0.41237 0.0
loop_
_geom_bond_atom_site_label_1
_geom_bond_atom_site_label_2
_geom_bond_distance
_geom_bond_site_symmetry_2
_ccdc_geom_bond_type
Zn0 O3 2.031 . S
Zn0 O5 2.049 . S
Zn0 O10 2.067 . S
Zn1 O2 1.962 . S
Zn1 O4 1.986 . S
Zn1 O6 1.996 . S
Zn1 O9 1.943 . S
O2 Zn1 1.962 . S
O2 C7 1.254 . S
O3 Zn0 2.031 . S
O3 C7 1.269 . S
O4 Zn1 1.986 . S
O4 C11 1.262 . S
O5 Zn0 2.049 . S
O5 C13 1.260 . S
O6 Zn1 1.996 . S
O6 C13 1.257 . S
C7 O2 1.254 . S
C7 O3 1.269 . S
C8 O9 1.249 . S
C8 O10 1.270 . S
O9 Zn1 1.943 . S
O9 C8 1.249 . S
O10 Zn0 2.067 . S
O10 C8 1.270 . S
C11 O4 1.262 . S
C11 O12 1.232 . S
O12 C11 1.232 . S
C13 O5 1.260 . S
C13 O6 1.257 . S
Zn14 O17 2.031 . S
Zn14 O19 2.049 1_565 S
Zn14 O24 2.067 . S
Zn15 O16 1.962 1_455 S
Zn15 O18 1.986 . S
Zn15 O20 1.996 1_565 S
Zn15 O23 1.943 . S
O16 Zn15 1.962 1_655 S
O16 C21 1.254 . S
O17 Zn14 2.031 . S
O17 C21 1.269 1_455 S
O18 Zn15 1.986 . S
O18 C25 1.262 . S
O19 Zn14 2.049 1_545 S
O19 C27 1.260 . S
O20 Zn15 1.996 1_545 S
O20 C27 1.257 . S
C21 O16 1.254 . S
C21 O17 1.269 1_655 S
C22 O23 1.249 . S
C22 O24 1.270 . S
O23 Zn15 1.943 . S
O23 C22 1.249 . S
O24 Zn14 2.067 . S
O24 C22 1.270 . S
C25 O18 1.262 . S
C25 O26 1.232 . S
O26 C25 1.232 . S
C27 O19 1.260 . S
C27 O20 1.257 . S
Zn28 O31 2.031 . S
Zn28 O33 2.049 . S
Zn28 O38 2.067 . S
Zn29 O30 1.962 . S
Zn29 O32 1.986 . S
Zn29 O34 1.996 . S
Zn29 O37 1.943 . S
O30 Zn29 1.962 . S
O30 C35 1.254 . S
O31 Zn28 2.031 . S
O31 C35 1.269 . S
O32 Zn29 1.986 . S
O32 C39 1.262 . S
O33 Zn28 2.049 . S
O33 C41 1.260 . S
O34 Zn29 1.996 . S
O34 C41 1.257 . S
C35 O30 1.254 . S
C35 O31 1.269 . S
C36 O37 1.249 . S
C36 O38 1.270 . S
O37 Zn29 1.943 . S
O37 C36 1.249 . S
O38 Zn28 2.067 . S
O38 C36 1.270 . S
C39 O32 1.262 . S
C39 O40 1.232 . S
O40 C39 1.232 . S
C41 O33 1.260 . S
C41 O34 1.257 . S
Zn42 O45 2.031 . S
Zn42 O47 2.049 1_545 S
Zn42 O52 2.067 . S
Zn43 O44 1.962 . S
Zn43 O46 1.986 . S
Zn43 O48 1.996 1_545 S
Zn43 O51 1.943 . S
O44 Zn43 1.962 . S
O44 C49 1.254 . S
O45 Zn42 2.031 . S
O45 C49 1.269 . S
O46 Zn43 1.986 . S
O46 C53 1.262 . S
O47 Zn42 2.049 1_565 S
O47 C55 1.260 . S
O48 Zn43 1.996 1_565 S
O48 C55 1.257 . S
C49 O44 1.254 . S
C49 O45 1.269 . S
C50 O51 1.249 . S
C50 O52 1.270 . S
O51 Zn43 1.943 . S
O51 C50 1.249 . S
O52 Zn42 2.067 . S
O52 C50 1.270 . S
C53 O46 1.262 . S
C53 O54 1.232 . S
O54 C53 1.232 . S
C55 O47 1.260 . S
C55 O48 1.257 . S
Zn56 O59 2.031 . S
Zn56 O61 2.049 . S
Zn56 O66 2.067 . S
Zn57 O58 1.962 . S
Zn57 O60 1.986 . S
Zn57 O62 1.996 . S
Zn57 O65 1.943 . S
O58 Zn57 1.962 . S
O58 C63 1.254 . S
O59 Zn56 2.031 . S
O59 C63 1.269 . S
O60 Zn57 1.986 . S
O60 C67 1.262 . S
O61 Zn56 2.049 . S
O61 C69 1.260 . S
O62 Zn57 1.996 . S
O62 C69 1.257 . S
C63 O58 1.254 . S
C63 O59 1.269 . S
C64 O65 1.249 . S
C64 O66 1.270 . S
O65 Zn57 1.943 . S
O65 C64 1.249 . S
O66 Zn56 2.067 . S
O66 C64 1.270 . S
C67 O60 1.262 . S
C67 O68 1.232 . S
O68 C67 1.232 . S
C69 O61 1.260 . S
C69 O62 1.257 . S
Zn70 O73 2.031 . S
Zn70 O75 2.049 1_565 S
Zn70 O80 2.067 . S
Zn71 O72 1.962 . S
Zn71 O74 1.986 . S
Zn71 O76 1.996 1_565 S
Zn71 O79 1.943 . S
O72 Zn71 1.962 . S
O72 C77 1.254 . S
O73 Zn70 2.031 . S
O73 C77 1.269 . S
O74 Zn71 1.986 . S
O74 C81 1.262 . S
O75 Zn70 2.049 1_545 S
O75 C83 1.260 . S
O76 Zn71 1.996 1_545 S
O76 C83 1.257 . S
C77 O72 1.254 . S
C77 O73 1.269 . S
C78 O79 1.249 . S
C78 O80 1.270 . S
O79 Zn71 1.943 . S
O79 C78 1.249 . S
O80 Zn70 2.067 . S
O80 C78 1.270 . S
C81 O74 1.262 . S
C81 O82 1.232 . S
O82 C81 1.232 . S
C83 O75 1.260 . S
C83 O76 1.257 . S
Zn84 O87 2.031 . S
Zn84 O89 2.049 . S
Zn84 O94 2.067 . S
Zn85 O86 1.962 . S
Zn85 O88 1.986 . S
Zn85 O90 1.996 . S
Zn85 O93 1.943 . S
O86 Zn85 1.962 . S
O86 C91 1.254 . S
O87 Zn84 2.031 . S
O87 C91 1.269 . S
O88 Zn85 1.986 . S
O88 C95 1.262 . S
O89 Zn84 2.049 . S
O89 C97 1.260 . S
O90 Zn85 1.996 . S
O90 C97 1.257 . S
C91 O86 1.254 . S
C91 O87 1.269 . S
C92 O93 1.249 . S
C92 O94 1.270 . S
O93 Zn85 1.943 . S
O93 C92 1.249 . S
O94 Zn84 2.067 . S
O94 C92 1.270 . S
C95 O88 1.262 . S
C95 O96 1.232 . S
O96 C95 1.232 . S
C97 O89 1.260 . S
C97 O90 1.257 . S
Zn98 O101 2.031 . S
Zn98 O103 2.049 1_545 S
Zn98 O108 2.067 . S
Zn99 O100 1.962 1_455 S
Zn99 O102 1.986 . S
Zn99 O104 1.996 1_545 S
Zn99 O107 1.943 . S
O100 Zn99 1.962 1_655 S
O100 C105 1.254 . S
O101 Zn98 2.031 . S
O101 C105 1.269 1_455 S
O102 Zn99 1.986 . S
O102 C109 1.262 . S
O103 Zn98 2.049 1_565 S
O103 C111 1.260 . S
O104 Zn99 1.996 1_565 S
O104 C111 1.257 . S
C105 O100 1.254 . S
C105 O101 1.269 1_655 S
C106 O107 1.249 . S
C106 O108 1.270 . S
O107 Zn99 1.943 . S
O107 C106 1.249 . S
O108 Zn98 2.067 . S
O108 C106 1.270 . S
C109 O102 1.262 . S
C109 O110 1.232 . S
O110 C109 1.232 . S
C111 O103 1.260 . S
C111 O104 1.257 . S
Zn112 O115 2.031 . S
Zn112 O117 2.049 . S
Zn112 O122 2.067 . S
Zn113 O114 1.962 . S
Zn113 O116 1.986 . S
Zn113 O118 1.996 . S
Zn113 O121 1.943 . S
O114 Zn113 1.962 . S
O114 C119 1.254 . S
O115 Zn112 2.031 . S
O115 C119 1.269 . S
O116 Zn113 1.986 . S
O116 C123 1.262 . S
O117 Zn112 2.049 . S
O117 C125 1.260 . S
O118 Zn113 1.996 . S
O118 C125 1.257 . S
C119 O114 1.254 . S
C119 O115 1.269 . S
C120 O121 1.249 . S
C120 O122 1.270 . S
O121 Zn113 1.943 . S
O121 C120 1.249 . S
O122 Zn112 2.067 . S
O122 C120 1.270 . S
C123 O116 1.262 . S
C123 O124 1.232 . S
O124 C123 1.232 . S
C125 O117 1.260 . S
C125 O118 1.257 . S
Zn126 O129 2.031 . S
Zn126 O131 2.049 . S
Zn126 O136 2.067 1_655 S
Zn127 O128 1.962 . S
Zn127 O130 1.986 1_545 S
Zn127 O132 1.996 . S
Zn127 O135 1.943 . S
O128 Zn127 1.962 . S
O128 C133 1.254 . S
O129 Zn126 2.031 . S
O129 C133 1.269 . S
O130 Zn127 1.986 1_565 S
O130 C137 1.262 . S
O131 Zn126 2.049 . S
O131 C139 1.260 . S
O132 Zn127 1.996 . S
O132 C139 1.257 . S
C133 O128 1.254 . S
C133 O129 1.269 . S
C134 O135 1.249 1_455 S
C134 O136 1.270 . S
O135 Zn127 1.943 . S
O135 C134 1.249 1_655 S
O136 Zn126 2.067 1_455 S
O136 C134 1.270 . S
C137 O130 1.262 . S
C137 O138 1.232 . S
O138 C137 1.232 . S
C139 O131 1.260 . S
C139 O132 1.257 . S
Zn140 O143 2.031 . S
Zn140 O145 2.049 . S
Zn140 O150 2.067 . S
Zn141 O142 1.962 . S
Zn141 O144 1.986 . S
Zn141 O146 1.996 . S
Zn141 O149 1.943 . S
O142 Zn141 1.962 . S
O142 C147 1.254 . S
O143 Zn140 2.031 . S
O143 C147 1.269 . S
O144 Zn141 1.986 . S
O144 C151 1.262 . S
O145 Zn140 2.049 . S
O145 C153 1.260 . S
O146 Zn141 1.996 . S
O146 C153 1.257 . S
C147 O142 1.254 . S
C147 O143 1.269 . S
C148 O149 1.249 . S
C148 O150 1.270 . S
O149 Zn141 1.943 . S
O149 C148 1.249 . S
O150 Zn140 2.067 . S
O150 C148 1.270 . S
C151 O144 1.262 . S
C151 O152 1.232 . S
O152 C151 1.232 . S
C153 O145 1.260 . S
C153 O146 1.257 . S
Zn154 O157 2.031 . S
Zn154 O159 2.049 . S
Zn154 O164 2.067 . S
Zn155 O156 1.962 . S
Zn155 O158 1.986 1_565 S
Zn155 O160 1.996 . S
Zn155 O163 1.943 . S
O156 Zn155 1.962 . S
O156 C161 1.254 . S
O157 Zn154 2.031 . S
O157 C161 1.269 . S
O158 Zn155 1.986 1_545 S
O158 C165 1.262 . S
O159 Zn154 2.049 . S
O159 C167 1.260 . S
O160 Zn155 1.996 . S
O160 C167 1.257 . S
C161 O156 1.254 . S
C161 O157 1.269 . S
C162 O163 1.249 . S
C162 O164 1.270 . S
O163 Zn155 1.943 . S
O163 C162 1.249 . S
O164 Zn154 2.067 . S
O164 C162 1.270 . S
C165 O158 1.262 . S
C165 O166 1.232 . S
O166 C165 1.232 . S
C167 O159 1.260 . S
C167 O160 1.257 . S
Zn168 O171 2.031 . S
Zn168 O173 2.049 . S
Zn168 O178 2.067 . S
Zn169 O170 1.962 . S
Zn169 O172 1.986 . S
Zn169 O174 1.996 . S
Zn169 O177 1.943 . S
O170 Zn169 1.962 . S
O170 C175 1.254 . S
O171 Zn168 2.031 . S
O171 C175 1.269 . S
O172 Zn169 1.986 . S
O172 C179 1.262 . S
O173 Zn168 2.049 . S
O173 C181 1.260 . S
O174 Zn169 1.996 . S
O174 C181 1.257 . S
C175 O170 1.254 . S
C175 O171 1.269 . S
C176 O177 1.249 . S
C176 O178 1.270 . S
O177 Zn169 1.943 . S
O177 C176 1.249 . S
O178 Zn168 2.067 . S
O178 C176 1.270 . S
C179 O172 1.262 . S
C179 O180 1.232 . S
O180 C179 1.232 . S
C181 O173 1.260 . S
C181 O174 1.257 . S
Zn182 O185 2.031 . S
Zn182 O187 2.049 . S
Zn182 O192 2.067 . S
Zn183 O184 1.962 . S
Zn183 O186 1.986 1_545 S
Zn183 O188 1.996 . S
Zn183 O191 1.943 . S
O184 Zn183 1.962 . S
O184 C189 1.254 . S
O185 Zn182 2.031 . S
O185 C189 1.269 . S
O186 Zn183 1.986 1_565 S
O186 C193 1.262 . S
O187 Zn182 2.049 . S
O187 C195 1.260 . S
O188 Zn183 1.996 . S
O188 C195 1.257 . S
C189 O184 1.254 . S
C189 O185 1.269 . S
C190 O191 1.249 . S
C190 O192 1.270 . S
O191 Zn183 1.943 . S
O191 C190 1.249 . S
O192 Zn182 2.067 . S
O192 C190 1.270 . S
C193 O186 1.262 . S
C193 O194 1.232 . S
O194 C193 1.232 . S
C195 O187 1.260 . S
C195 O188 1.257 . S
Zn196 O199 2.031 . S
Zn196 O201 2.049 . S
Zn196 O206 2.067 . S
Zn197 O198 1.962 . S
Zn197 O200 1.986 . S
Zn197 O202 1.996 . S
Zn197 O205 1.943 . S
O198 Zn197 1.962 . S
O198 C203 1.254 . S
O199 Zn196 2.031 . S
O199 C203 1.269 . S
O200 Zn197 1.986 . S
O200 C207 1.262 . S
O201 Zn196 2.049 . S
O201 C209 1.260 . S
O202 Zn197 1.996 . S
O202 C209 1.257 . S
C203 O198 1.254 . S
C203 O199 1.269 . S
C204 O205 1.249 . S
C204 O206 1.270 . S
O205 Zn197 1.943 . S
O205 C204 1.249 . S
O206 Zn196 2.067 . S
O206 C204 1.270 . S
C207 O200 1.262 . S
C207 O208 1.232 . S
O208 C207 1.232 . S
C209 O201 1.260 . S
C209 O202 1.257 . S
Zn210 O213 2.031 . S
Zn210 O215 2.049 . S
Zn210 O220 2.067 1_655 S
Zn211 O212 1.962 . S
Zn211 O214 1.986 1_565 S
Zn211 O216 1.996 . S
Zn211 O219 1.943 . S
O212 Zn211 1.962 . S
O212 C217 1.254 . S
O213 Zn210 2.031 . S
O213 C217 1.269 . S
O214 Zn211 1.986 1_545 S
O214 C221 1.262 . S
O215 Zn210 2.049 . S
O215 C223 1.260 . S
O216 Zn211 1.996 . S
O216 C223 1.257 . S
C217 O212 1.254 . S
C217 O213 1.269 . S
C218 O219 1.249 1_455 S
C218 O220 1.270 . S
O219 Zn211 1.943 . S
O219 C218 1.249 1_655 S
O220 Zn210 2.067 1_455 S
O220 C218 1.270 . S
C221 O214 1.262 . S
C221 O222 1.232 . S
O222 C221 1.232 . S
C223 O215 1.260 . S
C223 O216 1.257 . S
Zn224 O227 2.031 . S
Zn224 O229 2.049 . S
Zn224 O234 2.067 . S
Zn225 O226 1.962 . S
Zn225 O228 1.986 . S
Zn225 O230 1.996 . S
Zn225 O233 1.943 . S
O226 Zn225 1.962 . S
O226 C231 1.254 . S
O227 Zn224 2.031 . S
O227 C231 1.269 . S
O228 Zn225 1.986 . S
O228 C235 1.262 . S
O229 Zn224 2.049 . S
O229 C237 1.260 . S
O230 Zn225 1.996 . S
O230 C237 1.257 . S
C231 O226 1.254 . S
C231 O227 1.269 . S
C232 O233 1.249 . S
C232 O234 1.270 . S
O233 Zn225 1.943 . S
O233 C232 1.249 . S
O234 Zn224 2.067 . S
O234 C232 1.270 . S
C235 O228 1.262 . S
C235 O236 1.232 . S
O236 C235 1.232 . S
C237 O229 1.260 . S
C237 O230 1.257 . S
Zn238 O241 2.031 . S
Zn238 O243 2.049 . S
Zn238 O248 2.067 . S
Zn239 O240 1.962 . S
Zn239 O242 1.986 . S
Zn239 O244 1.996 . S
Zn239 O247 1.943 . S
O240 Zn239 1.962 . S
O240 C245 1.254 . S
O241 Zn238 2.031 . S
O241 C245 1.269 . S
O242 Zn239 1.986 . S
O242 C249 1.262 . S
O243 Zn238 2.049 . S
O243 C251 1.260 . S
O244 Zn239 1.996 . S
O244 C251 1.257 . S
C245 O240 1.254 . S
C245 O241 1.269 . S
C246 O247 1.249 . S
C246 O248 1.270 . S
O247 Zn239 1.943 . S
O247 C246 1.249 . S
O248 Zn238 2.067 . S
O248 C246 1.270 . S
C249 O242 1.262 . S
C249 O250 1.232 . S
O250 C249 1.232 . S
C251 O243 1.260 . S
C251 O244 1.257 . S
Zn252 O255 2.031 . S
Zn252 O257 2.049 . S
Zn252 O262 2.067 . S
Zn253 O254 1.962 . S
Zn253 O256 1.986 . S
Zn253 O258 1.996 . S
Zn253 O261 1.943 . S
O254 Zn253 1.962 . S
O254 C259 1.254 . S
O255 Zn252 2.031 . S
O255 C259 1.269 . S
O256 Zn253 1.986 . S
O256 C263 1.262 . S
O257 Zn252 2.049 . S
O257 C265 1.260 . S
O258 Zn253 1.996 . S
O258 C265 1.257 . S
C259 O254 1.254 . S
C259 O255 1.269 . S
C260 O261 1.249 . S
C260 O262 1.270 . S
O261 Zn253 1.943 . S
O261 C260 1.249 . S
O262 Zn252 2.067 . S
O262 C260 1.270 . S
C263 O256 1.262 . S
C263 O264 1.232 . S
O264 C263 1.232 . S
C265 O257 1.260 . S
C265 O258 1.257 . S
Zn266 O269 2.031 . S
Zn266 O271 2.049 . S
Zn266 O276 2.067 . S
Zn267 O268 1.962 1_655 S
Zn267 O270 1.986 . S
Zn267 O272 1.996 . S
Zn267 O275 1.943 . S
O268 Zn267 1.962 1_455 S
O268 C273 1.254 . S
O269 Zn266 2.031 . S
O269 C273 1.269 1_655 S
O270 Zn267 1.986 . S
O270 C277 1.262 . S
O271 Zn266 2.049 . S
O271 C279 1.260 . S
O272 Zn267 1.996 . S
O272 C279 1.257 . S
C273 O268 1.254 . S
C273 O269 1.269 1_455 S
C274 O275 1.249 . S
C274 O276 1.270 . S
O275 Zn267 1.943 . S
O275 C274 1.249 . S
O276 Zn266 2.067 . S
O276 C274 1.270 . S
C277 O270 1.262 . S
C277 O278 1.232 . S
O278 C277 1.232 . S
C279 O271 1.260 . S
C279 O272 1.257 . S
Zn280 O283 2.031 . S
Zn280 O285 2.049 . S
Zn280 O290 2.067 . S
Zn281 O282 1.962 . S
Zn281 O284 1.986 . S
Zn281 O286 1.996 . S
Zn281 O289 1.943 . S
O282 Zn281 1.962 . S
O282 C287 1.254 . S
O283 Zn280 2.031 . S
O283 C287 1.269 . S
O284 Zn281 1.986 . S
O284 C291 1.262 . S
O285 Zn280 2.049 . S
O285 C293 1.260 . S
O286 Zn281 1.996 . S
O286 C293 1.257 . S
C287 O282 1.254 . S
C287 O283 1.269 . S
C288 O289 1.249 . S
C288 O290 1.270 . S
O289 Zn281 1.943 . S
O289 C288 1.249 . S
O290 Zn280 2.067 . S
O290 C288 1.270 . S
C291 O284 1.262 . S
C291 O292 1.232 . S
O292 C291 1.232 . S
C293 O285 1.260 . S
C293 O286 1.257 . S
Zn294 O297 2.031 . S
Zn294 O299 2.049 . S
Zn294 O304 2.067 . S
Zn295 O296 1.962 1_655 S
Zn295 O298 1.986 . S
Zn295 O300 1.996 . S
Zn295 O303 1.943 . S
O296 Zn295 1.962 1_455 S
O296 C301 1.254 . S
O297 Zn294 2.031 . S
O297 C301 1.269 1_655 S
O298 Zn295 1.986 . S
O298 C305 1.262 . S
O299 Zn294 2.049 . S
O299 C307 1.260 . S
O300 Zn295 1.996 . S
O300 C307 1.257 . S
C301 O296 1.254 . S
C301 O297 1.269 1_455 S
C302 O303 1.249 . S
C302 O304 1.270 . S
O303 Zn295 1.943 . S
O303 C302 1.249 . S
O304 Zn294 2.067 . S
O304 C302 1.270 . S
C305 O298 1.262 . S
C305 O306 1.232 . S
O306 C305 1.232 . S
C307 O299 1.260 . S
C307 O300 1.257 . S
Zn308 O311 2.031 . S
Zn308 O313 2.049 . S
Zn308 O318 2.067 . S
Zn309 O310 1.962 . S
Zn309 O312 1.986 . S
Zn309 O314 1.996 . S
Zn309 O317 1.943 . S
O310 Zn309 1.962 . S
O310 C315 1.254 . S
O311 Zn308 2.031 . S
O311 C315 1.269 . S
O312 Zn309 1.986 . S
O312 C319 1.262 . S
O313 Zn308 2.049 . S
O313 C321 1.260 . S
O314 Zn309 1.996 . S
O314 C321 1.257 . S
C315 O310 1.254 . S
C315 O311 1.269 . S
C316 O317 1.249 . S
C316 O318 1.270 . S
O317 Zn309 1.943 . S
O317 C316 1.249 . S
O318 Zn308 2.067 . S
O318 C316 1.270 . S
C319 O312 1.262 . S
C319 O320 1.232 . S
O320 C319 1.232 . S
C321 O313 1.260 . S
C321 O314 1.257 . S
Zn322 O325 2.031 . S
Zn322 O327 2.049 . S
Zn322 O332 2.067 . S
Zn323 O324 1.962 . S
Zn323 O326 1.986 . S
Zn323 O328 1.996 . S
Zn323 O331 1.943 . S
O324 Zn323 1.962 . S
O324 C329 1.254 . S
O325 Zn322 2.031 . S
O325 C329 1.269 . S
O326 Zn323 1.986 . S
O326 C333 1.262 . S
O327 Zn322 2.049 . S
O327 C335 1.260 . S
O328 Zn323 1.996 . S
O328 C335 1.257 . S
C329 O324 1.254 . S
C329 O325 1.269 . S
C330 O331 1.249 . S
C330 O332 1.270 . S
O331 Zn323 1.943 . S
O331 C330 1.249 . S
O332 Zn322 2.067 . S
O332 C330 1.270 . S
C333 O326 1.262 . S
C333 O334 1.232 . S
O334 C333 1.232 . S
C335 O327 1.260 . S
C335 O328 1.257 . S
Zn336 O339 2.031 . S
Zn336 O341 2.049 . S
Zn336 O346 2.067 . S
Zn337 O338 1.962 . S
Zn337 O340 1.986 . S
Zn337 O342 1.996 . S
Zn337 O345 1.943 . S
O338 Zn337 1.962 . S
O338 C343 1.254 . S
O339 Zn336 2.031 . S
O339 C343 1.269 . S
O340 Zn337 1.986 . S
O340 C347 1.262 . S
O341 Zn336 2.049 . S
O341 C349 1.260 . S
O342 Zn337 1.996 . S
O342 C349 1.257 . S
C343 O338 1.254 . S
C343 O339 1.269 . S
C344 O345 1.249 . S
C344 O346 1.270 . S
O345 Zn337 1.943 . S
O345 C344 1.249 . S
O346 Zn336 2.067 . S
O346 C344 1.270 . S
C347 O340 1.262 . S
C347 O348 1.232 . S
O348 C347 1.232 . S
C349 O341 1.260 . S
C349 O342 1.257 . S
Zn350 O353 2.031 . S
Zn350 O355 2.049 . S
Zn350 O360 2.067 . S
Zn351 O352 1.962 . S
Zn351 O354 1.986 . S
Zn351 O356 1.996 . S
Zn351 O359 1.943 . S
O352 Zn351 1.962 . S
O352 C357 1.254 . S
O353 Zn350 2.031 . S
O353 C357 1.269 . S
O354 Zn351 1.986 . S
O354 C361 1.262 . S
O355 Zn350 2.049 . S
O355 C363 1.260 . S
O356 Zn351 1.996 . S
O356 C363 1.257 . S
C357 O352 1.254 . S
C357 O353 1.269 . S
C358 O359 1.249 . S
C358 O360 1.270 . S
O359 Zn351 1.943 . S
O359 C358 1.249 . S
O360 Zn350 2.067 . S
O360 C358 1.270 . S
C361 O354 1.262 . S
C361 O362 1.232 . S
O362 C361 1.232 . S
C363 O355 1.260 . S
C363 O356 1.257 . S
Zn364 O367 2.031 . S
Zn364 O369 2.049 . S
Zn364 O374 2.067 . S
Zn365 O366 1.962 . S
Zn365 O368 1.986 . S
Zn365 O370 1.996 . S
Zn365 O373 1.943 . S
O366 Zn365 1.962 . S
O366 C371 1.254 . S
O367 Zn364 2.031 . S
O367 C371 1.269 . S
O368 Zn365 1.986 . S
O368 C375 1.262 . S
O369 Zn364 2.049 . S
O369 C377 1.260 . S
O370 Zn365 1.996 . S
O370 C377 1.257 . S
C371 O366 1.254 . S
C371 O367 1.269 . S
C372 O373 1.249 . S
C372 O374 1.270 . S
O373 Zn365 1.943 . S
O373 C372 1.249 . S
O374 Zn364 2.067 . S
O374 C372 1.270 . S
C375 O368 1.262 . S
C375 O376 1.232 . S
O376 C375 1.232 . S
C377 O369 1.260 . S
C377 O370 1.257 . S
Zn378 O381 2.031 . S
Zn378 O383 2.049 . S
Zn378 O388 2.067 1_455 S
Zn379 O380 1.962 . S
Zn379 O382 1.986 . S
Zn379 O384 1.996 . S
Zn379 O387 1.943 . S
O380 Zn379 1.962 . S
O380 C385 1.254 . S
O381 Zn378 2.031 . S
O381 C385 1.269 . S
O382 Zn379 1.986 . S
O382 C389 1.262 . S
O383 Zn378 2.049 . S
O383 C391 1.260 . S
O384 Zn379 1.996 . S
O384 C391 1.257 . S
C385 O380 1.254 . S
C385 O381 1.269 . S
C386 O387 1.249 1_655 S
C386 O388 1.270 . S
O387 Zn379 1.943 . S
O387 C386 1.249 1_455 S
O388 Zn378 2.067 1_655 S
O388 C386 1.270 . S
C389 O382 1.262 . S
C389 O390 1.232 . S
O390 C389 1.232 . S
C391 O383 1.260 . S
C391 O384 1.257 . S
Zn392 O395 2.031 . S
Zn392 O397 2.049 . S
Zn392 O402 2.067 . S
Zn393 O394 1.962 . S
Zn393 O396 1.986 . S
Zn393 O398 1.996 . S
Zn393 O401 1.943 . S
O394 Zn393 1.962 . S
O394 C399 1.254 . S
O395 Zn392 2.031 . S
O395 C399 1.269 . S
O396 Zn393 1.986 . S
O396 C403 1.262 . S
O397 Zn392 2.049 . S
O397 C405 1.260 . S
O398 Zn393 1.996 . S
O398 C405 1.257 . S
C399 O394 1.254 . S
C399 O395 1.269 . S
C400 O401 1.249 . S
C400 O402 1.270 . S
O401 Zn393 1.943 . S
O401 C400 1.249 . S
O402 Zn392 2.067 . S
O402 C400 1.270 . S
C403 O396 1.262 . S
C403 O404 1.232 . S
O404 C403 1.232 . S
C405 O397 1.260 . S
C405 O398 1.257 . S
Zn406 O409 2.031 . S
Zn406 O411 2.049 . S
Zn406 O416 2.067 1_455 S
Zn407 O408 1.962 . S
Zn407 O410 1.986 . S
Zn407 O412 1.996 . S
Zn407 O415 1.943 . S
O408 Zn407 1.962 . S
O408 C413 1.254 . S
O409 Zn406 2.031 . S
O409 C413 1.269 . S
O410 Zn407 1.986 . S
O410 C417 1.262 . S
O411 Zn406 2.049 . S
O411 C419 1.260 . S
O412 Zn407 1.996 . S
O412 C419 1.257 . S
C413 O408 1.254 . S
C413 O409 1.269 . S
C414 O415 1.249 1_655 S
C414 O416 1.270 . S
O415 Zn407 1.943 . S
O415 C414 1.249 1_455 S
O416 Zn406 2.067 1_655 S
O416 C414 1.270 . S
C417 O410 1.262 . S
C417 O418 1.232 . S
O418 C417 1.232 . S
C419 O411 1.260 . S
C419 O412 1.257 . S
Zn420 O423 2.031 . S
Zn420 O425 2.049 . S
Zn420 O430 2.067 . S
Zn421 O422 1.962 . S
Zn421 O424 1.986 . S
Zn421 O426 1.996 . S
Zn421 O429 1.943 . S
O422 Zn421 1.962 . S
O422 C427 1.254 . S
O423 Zn420 2.031 . S
O423 C427 1.269 . S
O424 Zn421 1.986 . S
O424 C431 1.262 . S
O425 Zn420 2.049 . S
O425 C433 1.260 . S
O426 Zn421 1.996 . S
O426 C433 1.257 . S
C427 O422 1.254 . S
C427 O423 1.269 . S
C428 O429 1.249 . S
C428 O430 1.270 . S
O429 Zn421 1.943 . S
O429 C428 1.249 . S
O430 Zn420 2.067 . S
O430 C428 1.270 . S
C431 O424 1.262 . S
C431 O432 1.232 . S
O432 C431 1.232 . S
C433 O425 1.260 . S
C433 O426 1.257 . S
Zn434 O437 2.031 . S
Zn434 O439 2.049 . S
Zn434 O444 2.067 . S
Zn435 O436 1.962 . S
Zn435 O438 1.986 . S
Zn435 O440 1.996 . S
Zn435 O443 1.943 . S
O436 Zn435 1.962 . S
O436 C441 1.254 . S
O437 Zn434 2.031 . S
O437 C441 1.269 . S
O438 Zn435 1.986 . S
O438 C445 1.262 . S
O439 Zn434 2.049 . S
O439 C447 1.260 . S
O440 Zn435 1.996 . S
O440 C447 1.257 . S
C441 O436 1.254 . S
C441 O437 1.269 . S
C442 O443 1.249 . S
C442 O444 1.270 . S
O443 Zn435 1.943 . S
O443 C442 1.249 . S
O444 Zn434 2.067 . S
O444 C442 1.270 . S
C445 O438 1.262 . S
C445 O446 1.232 . S
O446 C445 1.232 . S
C447 O439 1.260 . S
C447 O440 1.257 . S
H448 C454 0.930 . S
H449 C457 0.930 . S
H450 C458 0.930 . S
H451 C459 0.930 . S
H452 C462 0.930 . S
H453 C463 0.930 . S
C454 H448 0.930 . S
C454 C455 1.355 . S
C454 C456 1.415 . S
C455 C454 1.355 . S
C455 C457 1.419 . S
C456 C454 1.415 . S
C456 C461 1.425 . S
C456 C463 1.409 . S
C457 H449 0.930 . S
C457 C455 1.419 . S
C457 C458 1.362 . S
C458 H450 0.930 . S
C458 C457 1.362 . S
C458 C461 1.409 . S
C459 H451 0.930 . S
C459 C460 1.355 . S
C459 C461 1.415 . S
C460 C459 1.355 . S
C460 C462 1.419 . S
C461 C456 1.425 . S
C461 C458 1.409 . S
C461 C459 1.415 . S
C462 H452 0.930 . S
C462 C460 1.419 . S
C462 C463 1.362 . S
C463 H453 0.930 . S
C463 C456 1.409 . S
C463 C462 1.362 . S
H464 C470 0.930 . S
H465 C473 0.930 1_455 S
H466 C474 0.930 . S
H467 C475 0.930 . S
H468 C478 0.930 . S
H469 C479 0.930 . S
C470 H464 0.930 . S
C470 C471 1.355 . S
C470 C472 1.415 . S
C471 C470 1.355 . S
C471 C473 1.419 . S
C472 C470 1.415 . S
C472 C477 1.425 . S
C472 C479 1.409 . S
C473 H465 0.930 1_655 S
C473 C471 1.419 . S
C473 C474 1.362 . S
C474 H466 0.930 . S
C474 C473 1.362 . S
C474 C477 1.409 . S
C475 H467 0.930 . S
C475 C476 1.355 . S
C475 C477 1.415 . S
C476 C475 1.355 . S
C476 C478 1.419 . S
C477 C472 1.425 . S
C477 C474 1.409 . S
C477 C475 1.415 . S
C478 H468 0.930 . S
C478 C476 1.419 . S
C478 C479 1.362 . S
C479 H469 0.930 . S
C479 C472 1.409 . S
C479 C478 1.362 . S
H480 C486 0.930 . S
H481 C489 0.930 . S
H482 C490 0.930 . S
H483 C491 0.930 . S
H484 C494 0.930 . S
H485 C495 0.930 . S
C486 H480 0.930 . S
C486 C487 1.355 . S
C486 C488 1.415 . S
C487 C486 1.355 . S
C487 C489 1.419 . S
C488 C486 1.415 . S
C488 C493 1.425 . S
C488 C495 1.409 . S
C489 H481 0.930 . S
C489 C487 1.419 . S
C489 C490 1.362 . S
C490 H482 0.930 . S
C490 C489 1.362 . S
C490 C493 1.409 . S
C491 H483 0.930 . S
C491 C492 1.355 . S
C491 C493 1.415 . S
C492 C491 1.355 . S
C492 C494 1.419 . S
C493 C488 1.425 . S
C493 C490 1.409 . S
C493 C491 1.415 . S
C494 H484 0.930 . S
C494 C492 1.419 . S
C494 C495 1.362 . S
C495 H485 0.930 . S
C495 C488 1.409 . S
C495 C494 1.362 . S
H496 C502 0.930 . S
H497 C505 0.930 . S
H498 C506 0.930 . S
H499 C507 0.930 . S
H500 C510 0.930 . S
H501 C511 0.930 . S
C502 H496 0.930 . S
C502 C503 1.355 . S
C502 C504 1.415 . S
C503 C502 1.355 . S
C503 C505 1.419 . S
C504 C502 1.415 . S
C504 C509 1.425 . S
C504 C511 1.409 . S
C505 H497 0.930 . S
C505 C503 1.419 . S
C505 C506 1.362 . S
C506 H498 0.930 . S
C506 C505 1.362 . S
C506 C509 1.409 . S
C507 H499 0.930 . S
C507 C508 1.355 . S
C507 C509 1.415 . S
C508 C507 1.355 . S
C508 C510 1.419 . S
C509 C504 1.425 . S
C509 C506 1.409 . S
C509 C507 1.415 . S
C510 H500 0.930 . S
C510 C508 1.419 . S
C510 C511 1.362 . S
C511 H501 0.930 . S
C511 C504 1.409 . S
C511 C510 1.362 . S
H512 C518 0.930 . S
H513 C521 0.930 . S
H514 C522 0.930 . S
H515 C523 0.930 . S
H516 C526 0.930 . S
H517 C527 0.930 . S
C518 H512 0.930 . S
C518 C519 1.355 . S
C518 C520 1.415 . S
C519 C518 1.355 . S
C519 C521 1.419 . S
C520 C518 1.415 . S
C520 C525 1.425 . S
C520 C527 1.409 . S
C521 H513 0.930 . S
C521 C519 1.419 . S
C521 C522 1.362 . S
C522 H514 0.930 . S
C522 C521 1.362 . S
C522 C525 1.409 . S
C523 H515 0.930 . S
C523 C524 1.355 . S
C523 C525 1.415 . S
C524 C523 1.355 . S
C524 C526 1.419 . S
C525 C520 1.425 . S
C525 C522 1.409 . S
C525 C523 1.415 . S
C526 H516 0.930 . S
C526 C524 1.419 . S
C526 C527 1.362 . S
C527 H517 0.930 . S
C527 C520 1.409 . S
C527 C526 1.362 . S
H528 C534 0.930 . S
H529 C537 0.930 . S
H530 C538 0.930 . S
H531 C539 0.930 . S
H532 C542 0.930 . S
H533 C543 0.930 . S
C534 H528 0.930 . S
C534 C535 1.355 . S
C534 C536 1.415 . S
C535 C534 1.355 . S
C535 C537 1.419 . S
C536 C534 1.415 . S
C536 C541 1.425 . S
C536 C543 1.409 . S
C537 H529 0.930 . S
C537 C535 1.419 . S
C537 C538 1.362 . S
C538 H530 0.930 . S
C538 C537 1.362 . S
C538 C541 1.409 . S
C539 H531 0.930 . S
C539 C540 1.355 . S
C539 C541 1.415 . S
C540 C539 1.355 . S
C540 C542 1.419 . S
C541 C536 1.425 . S
C541 C538 1.409 . S
C541 C539 1.415 . S
C542 H532 0.930 . S
C542 C540 1.419 . S
C542 C543 1.362 . S
C543 H533 0.930 . S
C543 C536 1.409 . S
C543 C542 1.362 . S
H544 C550 0.930 . S
H545 C553 0.930 . S
H546 C554 0.930 . S
H547 C555 0.930 . S
H548 C558 0.930 . S
H549 C559 0.930 . S
C550 H544 0.930 . S
C550 C551 1.355 . S
C550 C552 1.415 . S
C551 C550 1.355 . S
C551 C553 1.419 . S
C552 C550 1.415 . S
C552 C557 1.425 . S
C552 C559 1.409 . S
C553 H545 0.930 . S
C553 C551 1.419 . S
C553 C554 1.362 . S
C554 H546 0.930 . S
C554 C553 1.362 . S
C554 C557 1.409 . S
C555 H547 0.930 . S
C555 C556 1.355 . S
C555 C557 1.415 . S
C556 C555 1.355 . S
C556 C558 1.419 . S
C557 C552 1.425 . S
C557 C554 1.409 . S
C557 C555 1.415 . S
C558 H548 0.930 . S
C558 C556 1.419 . S
C558 C559 1.362 . S
C559 H549 0.930 . S
C559 C552 1.409 . S
C559 C558 1.362 . S
H560 C566 0.930 . S
H561 C569 0.930 . S
H562 C570 0.930 . S
H563 C571 0.930 . S
H564 C574 0.930 . S
H565 C575 0.930 . S
C566 H560 0.930 . S
C566 C567 1.355 . S
C566 C568 1.415 . S
C567 C566 1.355 . S
C567 C569 1.419 . S
C568 C566 1.415 . S
C568 C573 1.425 . S
C568 C575 1.409 . S
C569 H561 0.930 . S
C569 C567 1.419 . S
C569 C570 1.362 . S
C570 H562 0.930 . S
C570 C569 1.362 . S
C570 C573 1.409 . S
C571 H563 0.930 . S
C571 C572 1.355 . S
C571 C573 1.415 . S
C572 C571 1.355 . S
C572 C574 1.419 . S
C573 C568 1.425 . S
C573 C570 1.409 . S
C573 C571 1.415 . S
C574 H564 0.930 . S
C574 C572 1.419 . S
C574 C575 1.362 . S
C575 H565 0.930 . S
C575 C568 1.409 . S
C575 C574 1.362 . S
H576 C582 0.930 . S
H577 C585 0.930 . S
H578 C586 0.930 . S
H579 C587 0.930 . S
H580 C590 0.930 . S
H581 C591 0.930 . S
C582 H576 0.930 . S
C582 C583 1.355 . S
C582 C584 1.415 . S
C583 C582 1.355 . S
C583 C585 1.419 . S
C584 C582 1.415 . S
C584 C589 1.425 . S
C584 C591 1.409 . S
C585 H577 0.930 . S
C585 C583 1.419 . S
C585 C586 1.362 . S
C586 H578 0.930 . S
C586 C585 1.362 . S
C586 C589 1.409 . S
C587 H579 0.930 . S
C587 C588 1.355 . S
C587 C589 1.415 . S
C588 C587 1.355 . S
C588 C590 1.419 . S
C589 C584 1.425 . S
C589 C586 1.409 . S
C589 C587 1.415 . S
C590 H580 0.930 . S
C590 C588 1.419 . S
C590 C591 1.362 . S
C591 H581 0.930 . S
C591 C584 1.409 . S
C591 C590 1.362 . S
H592 C598 0.930 . S
H593 C601 0.930 . S
H594 C602 0.930 . S
H595 C603 0.930 . S
H596 C606 0.930 . S
H597 C607 0.930 . S
C598 H592 0.930 . S
C598 C599 1.355 . S
C598 C600 1.415 . S
C599 C598 1.355 . S
C599 C601 1.419 . S
C600 C598 1.415 . S
C600 C605 1.425 . S
C600 C607 1.409 . S
C601 H593 0.930 . S
C601 C599 1.419 . S
C601 C602 1.362 . S
C602 H594 0.930 . S
C602 C601 1.362 . S
C602 C605 1.409 . S
C603 H595 0.930 . S
C603 C604 1.355 . S
C603 C605 1.415 . S
C604 C603 1.355 . S
C604 C606 1.419 . S
C605 C600 1.425 . S
C605 C602 1.409 . S
C605 C603 1.415 . S
C606 H596 0.930 . S
C606 C604 1.419 . S
C606 C607 1.362 . S
C607 H597 0.930 . S
C607 C600 1.409 . S
C607 C606 1.362 . S
H608 C614 0.930 . S
H609 C617 0.930 . S
H610 C618 0.930 . S
H611 C619 0.930 . S
H612 C622 0.930 . S
H613 C623 0.930 . S
C614 H608 0.930 . S
C614 C615 1.355 . S
C614 C616 1.415 . S
C615 C614 1.355 . S
C615 C617 1.419 . S
C616 C614 1.415 . S
C616 C621 1.425 . S
C616 C623 1.409 . S
C617 H609 0.930 . S
C617 C615 1.419 . S
C617 C618 1.362 . S
C618 H610 0.930 . S
C618 C617 1.362 . S
C618 C621 1.409 . S
C619 H611 0.930 . S
C619 C620 1.355 . S
C619 C621 1.415 . S
C620 C619 1.355 . S
C620 C622 1.419 . S
C621 C616 1.425 . S
C621 C618 1.409 . S
C621 C619 1.415 . S
C622 H612 0.930 . S
C622 C620 1.419 . S
C622 C623 1.362 . S
C623 H613 0.930 . S
C623 C616 1.409 . S
C623 C622 1.362 . S
H624 C630 0.930 . S
H625 C633 0.930 . S
H626 C634 0.930 . S
H627 C635 0.930 . S
H628 C638 0.930 . S
H629 C639 0.930 . S
C630 H624 0.930 . S
C630 C631 1.355 . S
C630 C632 1.415 . S
C631 C630 1.355 . S
C631 C633 1.419 . S
C632 C630 1.415 . S
C632 C637 1.425 . S
C632 C639 1.409 . S
C633 H625 0.930 . S
C633 C631 1.419 . S
C633 C634 1.362 . S
C634 H626 0.930 . S
C634 C633 1.362 . S
C634 C637 1.409 . S
C635 H627 0.930 . S
C635 C636 1.355 . S
C635 C637 1.415 . S
C636 C635 1.355 . S
C636 C638 1.419 . S
C637 C632 1.425 . S
C637 C634 1.409 . S
C637 C635 1.415 . S
C638 H628 0.930 . S
C638 C636 1.419 . S
C638 C639 1.362 . S
C639 H629 0.930 . S
C639 C632 1.409 . S
C639 C638 1.362 . S
H640 C646 0.930 . S
H641 C649 0.930 . S
H642 C650 0.930 . S
H643 C651 0.930 . S
H644 C654 0.930 . S
H645 C655 0.930 . S
C646 H640 0.930 . S
C646 C647 1.355 . S
C646 C648 1.415 . S
C647 C646 1.355 . S
C647 C649 1.419 . S
C648 C646 1.415 . S
C648 C653 1.425 . S
C648 C655 1.409 . S
C649 H641 0.930 . S
C649 C647 1.419 . S
C649 C650 1.362 . S
C650 H642 0.930 . S
C650 C649 1.362 . S
C650 C653 1.409 . S
C651 H643 0.930 . S
C651 C652 1.355 . S
C651 C653 1.415 . S
C652 C651 1.355 . S
C652 C654 1.419 . S
C653 C648 1.425 . S
C653 C650 1.409 . S
C653 C651 1.415 . S
C654 H644 0.930 . S
C654 C652 1.419 . S
C654 C655 1.362 . S
C655 H645 0.930 . S
C655 C648 1.409 . S
C655 C654 1.362 . S
H656 C662 0.930 . S
H657 C665 0.930 . S
H658 C666 0.930 . S
H659 C667 0.930 . S
H660 C670 0.930 . S
H661 C671 0.930 . S
C662 H656 0.930 . S
C662 C663 1.355 . S
C662 C664 1.415 . S
C663 C662 1.355 . S
C663 C665 1.419 . S
C664 C662 1.415 . S
C664 C669 1.425 . S
C664 C671 1.409 . S
C665 H657 0.930 . S
C665 C663 1.419 . S
C665 C666 1.362 . S
C666 H658 0.930 . S
C666 C665 1.362 . S
C666 C669 1.409 . S
C667 H659 0.930 . S
C667 C668 1.355 . S
C667 C669 1.415 . S
C668 C667 1.355 . S
C668 C670 1.419 . S
C669 C664 1.425 . S
C669 C666 1.409 . S
C669 C667 1.415 . S
C670 H660 0.930 . S
C670 C668 1.419 . S
C670 C671 1.362 . S
C671 H661 0.930 . S
C671 C664 1.409 . S
C671 C670 1.362 . S
H672 C678 0.930 . S
H673 C681 0.930 . S
H674 C682 0.930 . S
H675 C683 0.930 . S
H676 C686 0.930 . S
H677 C687 0.930 . S
C678 H672 0.930 . S
C678 C679 1.355 . S
C678 C680 1.415 . S
C679 C678 1.355 . S
C679 C681 1.419 . S
C680 C678 1.415 . S
C680 C685 1.425 . S
C680 C687 1.409 . S
C681 H673 0.930 . S
C681 C679 1.419 . S
C681 C682 1.362 . S
C682 H674 0.930 . S
C682 C681 1.362 . S
C682 C685 1.409 . S
C683 H675 0.930 . S
C683 C684 1.355 . S
C683 C685 1.415 . S
C684 C683 1.355 . S
C684 C686 1.419 . S
C685 C680 1.425 . S
C685 C682 1.409 . S
C685 C683 1.415 . S
C686 H676 0.930 . S
C686 C684 1.419 . S
C686 C687 1.362 . S
C687 H677 0.930 . S
C687 C680 1.409 . S
C687 C686 1.362 . S
H688 C694 0.930 . S
H689 C697 0.930 . S
H690 C698 0.930 . S
H691 C699 0.930 . S
H692 C702 0.930 . S
H693 C703 0.930 . S
C694 H688 0.930 . S
C694 C695 1.355 . S
C694 C696 1.415 . S
C695 C694 1.355 . S
C695 C697 1.419 . S
C696 C694 1.415 . S
C696 C701 1.425 . S
C696 C703 1.409 . S
C697 H689 0.930 . S
C697 C695 1.419 . S
C697 C698 1.362 . S
C698 H690 0.930 . S
C698 C697 1.362 . S
C698 C701 1.409 . S
C699 H691 0.930 . S
C699 C700 1.355 . S
C699 C701 1.415 . S
C700 C699 1.355 . S
C700 C702 1.419 . S
C701 C696 1.425 . S
C701 C698 1.409 . S
C701 C699 1.415 . S
C702 H692 0.930 . S
C702 C700 1.419 . S
C702 C703 1.362 . S
C703 H693 0.930 . S
C703 C696 1.409 . S
C703 C702 1.362 . S
H704 C710 0.930 . S
H705 C713 0.930 . S
H706 C714 0.930 . S
H707 C715 0.930 . S
H708 C718 0.930 . S
H709 C719 0.930 . S
C710 H704 0.930 . S
C710 C711 1.355 . S
C710 C712 1.415 . S
C711 C710 1.355 . S
C711 C713 1.419 . S
C712 C710 1.415 . S
C712 C717 1.425 . S
C712 C719 1.409 . S
C713 H705 0.930 . S
C713 C711 1.419 . S
C713 C714 1.362 . S
C714 H706 0.930 . S
C714 C713 1.362 . S
C714 C717 1.409 . S
C715 H707 0.930 . S
C715 C716 1.355 . S
C715 C717 1.415 . S
C716 C715 1.355 . S
C716 C718 1.419 . S
C717 C712 1.425 . S
C717 C714 1.409 . S
C717 C715 1.415 . S
C718 H708 0.930 . S
C718 C716 1.419 . S
C718 C719 1.362 . S
C719 H709 0.930 . S
C719 C712 1.409 . S
C719 C718 1.362 . S
H720 C726 0.930 . S
H721 C729 0.930 . S
H722 C730 0.930 . S
H723 C731 0.930 . S
H724 C734 0.930 . S
H725 C735 0.930 . S
C726 H720 0.930 . S
C726 C727 1.355 . S
C726 C728 1.415 . S
C727 C726 1.355 . S
C727 C729 1.419 . S
C728 C726 1.415 . S
C728 C733 1.425 . S
C728 C735 1.409 . S
C729 H721 0.930 . S
C729 C727 1.419 . S
C729 C730 1.362 . S
C730 H722 0.930 . S
C730 C729 1.362 . S
C730 C733 1.409 . S
C731 H723 0.930 . S
C731 C732 1.355 . S
C731 C733 1.415 . S
C732 C731 1.355 . S
C732 C734 1.419 . S
C733 C728 1.425 . S
C733 C730 1.409 . S
C733 C731 1.415 . S
C734 H724 0.930 . S
C734 C732 1.419 . S
C734 C735 1.362 . S
C735 H725 0.930 . S
C735 C728 1.409 . S
C735 C734 1.362 . S
H736 C742 0.930 . S
H737 C745 0.930 . S
H738 C746 0.930 . S
H739 C747 0.930 . S
H740 C750 0.930 . S
H741 C751 0.930 . S
C742 H736 0.930 . S
C742 C743 1.355 . S
C742 C744 1.415 . S
C743 C742 1.355 . S
C743 C745 1.419 . S
C744 C742 1.415 . S
C744 C749 1.425 . S
C744 C751 1.409 . S
C745 H737 0.930 . S
C745 C743 1.419 . S
C745 C746 1.362 . S
C746 H738 0.930 . S
C746 C745 1.362 . S
C746 C749 1.409 . S
C747 H739 0.930 . S
C747 C748 1.355 . S
C747 C749 1.415 . S
C748 C747 1.355 . S
C748 C750 1.419 . S
C749 C744 1.425 . S
C749 C746 1.409 . S
C749 C747 1.415 . S
C750 H740 0.930 . S
C750 C748 1.419 . S
C750 C751 1.362 . S
C751 H741 0.930 . S
C751 C744 1.409 . S
C751 C750 1.362 . S
H752 C758 0.930 . S
H753 C761 0.930 . S
H754 C762 0.930 . S
H755 C763 0.930 . S
H756 C766 0.930 . S
H757 C767 0.930 . S
C758 H752 0.930 . S
C758 C759 1.355 . S
C758 C760 1.415 . S
C759 C758 1.355 . S
C759 C761 1.419 . S
C760 C758 1.415 . S
C760 C765 1.425 . S
C760 C767 1.409 . S
C761 H753 0.930 . S
C761 C759 1.419 . S
C761 C762 1.362 . S
C762 H754 0.930 . S
C762 C761 1.362 . S
C762 C765 1.409 . S
C763 H755 0.930 . S
C763 C764 1.355 . S
C763 C765 1.415 . S
C764 C763 1.355 . S
C764 C766 1.419 . S
C765 C760 1.425 . S
C765 C762 1.409 . S
C765 C763 1.415 . S
C766 H756 0.930 . S
C766 C764 1.419 . S
C766 C767 1.362 . S
C767 H757 0.930 . S
C767 C760 1.409 . S
C767 C766 1.362 . S
H768 C774 0.930 . S
H769 C777 0.930 . S
H770 C778 0.930 . S
H771 C779 0.930 . S
H772 C782 0.930 . S
H773 C783 0.930 . S
C774 H768 0.930 . S
C774 C775 1.355 . S
C774 C776 1.415 . S
C775 C774 1.355 . S
C775 C777 1.419 . S
C776 C774 1.415 . S
C776 C781 1.425 . S
C776 C783 1.409 . S
C777 H769 0.930 . S
C777 C775 1.419 . S
C777 C778 1.362 . S
C778 H770 0.930 . S
C778 C777 1.362 . S
C778 C781 1.409 . S
C779 H771 0.930 . S
C779 C780 1.355 . S
C779 C781 1.415 . S
C780 C779 1.355 . S
C780 C782 1.419 . S
C781 C776 1.425 . S
C781 C778 1.409 . S
C781 C779 1.415 . S
C782 H772 0.930 . S
C782 C780 1.419 . S
C782 C783 1.362 . S
C783 H773 0.930 . S
C783 C776 1.409 . S
C783 C782 1.362 . S
H784 C790 0.930 . S
H785 C793 0.930 . S
H786 C794 0.930 . S
H787 C795 0.930 . S
H788 C798 0.930 . S
H789 C799 0.930 . S
C790 H784 0.930 . S
C790 C791 1.355 . S
C790 C792 1.415 . S
C791 C790 1.355 . S
C791 C793 1.419 . S
C792 C790 1.415 . S
C792 C797 1.425 . S
C792 C799 1.409 . S
C793 H785 0.930 . S
C793 C791 1.419 . S
C793 C794 1.362 . S
C794 H786 0.930 . S
C794 C793 1.362 . S
C794 C797 1.409 . S
C795 H787 0.930 . S
C795 C796 1.355 . S
C795 C797 1.415 . S
C796 C795 1.355 . S
C796 C798 1.419 . S
C797 C792 1.425 . S
C797 C794 1.409 . S
C797 C795 1.415 . S
C798 H788 0.930 . S
C798 C796 1.419 . S
C798 C799 1.362 . S
C799 H789 0.930 . S
C799 C792 1.409 . S
C799 C798 1.362 . S
H800 C806 0.930 . S
H801 C809 0.930 . S
H802 C810 0.930 . S
H803 C811 0.930 . S
H804 C814 0.930 . S
H805 C815 0.930 . S
C806 H800 0.930 . S
C806 C807 1.355 . S
C806 C808 1.415 . S
C807 C806 1.355 . S
C807 C809 1.419 . S
C808 C806 1.415 . S
C808 C813 1.425 . S
C808 C815 1.409 . S
C809 H801 0.930 . S
C809 C807 1.419 . S
C809 C810 1.362 . S
C810 H802 0.930 . S
C810 C809 1.362 . S
C810 C813 1.409 . S
C811 H803 0.930 . S
C811 C812 1.355 . S
C811 C813 1.415 . S
C812 C811 1.355 . S
C812 C814 1.419 . S
C813 C808 1.425 . S
C813 C810 1.409 . S
C813 C811 1.415 . S
C814 H804 0.930 . S
C814 C812 1.419 . S
C814 C815 1.362 . S
C815 H805 0.930 . S
C815 C808 1.409 . S
C815 C814 1.362 . S
H816 C822 0.930 . S
H817 C825 0.930 . S
H818 C826 0.930 . S
H819 C827 0.930 . S
H820 C830 0.930 . S
H821 C831 0.930 . S
C822 H816 0.930 . S
C822 C823 1.355 . S
C822 C824 1.415 . S
C823 C822 1.355 . S
C823 C825 1.419 . S
C824 C822 1.415 . S
C824 C829 1.425 . S
C824 C831 1.409 . S
C825 H817 0.930 . S
C825 C823 1.419 . S
C825 C826 1.362 . S
C826 H818 0.930 . S
C826 C825 1.362 . S
C826 C829 1.409 . S
C827 H819 0.930 . S
C827 C828 1.355 . S
C827 C829 1.415 . S
C828 C827 1.355 . S
C828 C830 1.419 . S
C829 C824 1.425 . S
C829 C826 1.409 . S
C829 C827 1.415 . S
C830 H820 0.930 . S
C830 C828 1.419 . S
C830 C831 1.362 . S
C831 H821 0.930 . S
C831 C824 1.409 . S
C831 C830 1.362 . S
H832 C838 0.930 . S
H833 C841 0.930 . S
H834 C842 0.930 . S
H835 C843 0.930 . S
H836 C846 0.930 . S
H837 C847 0.930 . S
C838 H832 0.930 . S
C838 C839 1.355 . S
C838 C840 1.415 . S
C839 C838 1.355 . S
C839 C841 1.419 . S
C840 C838 1.415 . S
C840 C845 1.425 . S
C840 C847 1.409 . S
C841 H833 0.930 . S
C841 C839 1.419 . S
C841 C842 1.362 . S
C842 H834 0.930 . S
C842 C841 1.362 . S
C842 C845 1.409 . S
C843 H835 0.930 . S
C843 C844 1.355 . S
C843 C845 1.415 . S
C844 C843 1.355 . S
C844 C846 1.419 . S
C845 C840 1.425 . S
C845 C842 1.409 . S
C845 C843 1.415 . S
C846 H836 0.930 . S
C846 C844 1.419 . S
C846 C847 1.362 . S
C847 H837 0.930 . S
C847 C840 1.409 . S
C847 C846 1.362 . S
H848 C854 0.930 . S
H849 C857 0.930 . S
H850 C858 0.930 . S
H851 C859 0.930 . S
H852 C862 0.930 . S
H853 C863 0.930 . S
C854 H848 0.930 . S
C854 C855 1.355 . S
C854 C856 1.415 . S
C855 C854 1.355 . S
C855 C857 1.419 . S
C856 C854 1.415 . S
C856 C861 1.425 . S
C856 C863 1.409 . S
C857 H849 0.930 . S
C857 C855 1.419 . S
C857 C858 1.362 . S
C858 H850 0.930 . S
C858 C857 1.362 . S
C858 C861 1.409 . S
C859 H851 0.930 . S
C859 C860 1.355 . S
C859 C861 1.415 . S
C860 C859 1.355 . S
C860 C862 1.419 . S
C861 C856 1.425 . S
C861 C858 1.409 . S
C861 C859 1.415 . S
C862 H852 0.930 . S
C862 C860 1.419 . S
C862 C863 1.362 . S
C863 H853 0.930 . S
C863 C856 1.409 . S
C863 C862 1.362 . S
H864 C870 0.930 . S
H865 C873 0.930 . S
H866 C874 0.930 . S
H867 C875 0.930 . S
H868 C878 0.930 . S
H869 C879 0.930 . S
C870 H864 0.930 . S
C870 C871 1.355 . S
C870 C872 1.415 . S
C871 C870 1.355 . S
C871 C873 1.419 . S
C872 C870 1.415 . S
C872 C877 1.425 . S
C872 C879 1.409 . S
C873 H865 0.930 . S
C873 C871 1.419 . S
C873 C874 1.362 . S
C874 H866 0.930 . S
C874 C873 1.362 . S
C874 C877 1.409 . S
C875 H867 0.930 . S
C875 C876 1.355 . S
C875 C877 1.415 . S
C876 C875 1.355 . S
C876 C878 1.419 . S
C877 C872 1.425 . S
C877 C874 1.409 . S
C877 C875 1.415 . S
C878 H868 0.930 . S
C878 C876 1.419 . S
C878 C879 1.362 . S
C879 H869 0.930 . S
C879 C872 1.409 . S
C879 C878 1.362 . S
H880 C886 0.930 . S
H881 C889 0.930 . S
H882 C890 0.930 . S
H883 C891 0.930 . S
H884 C894 0.930 . S
H885 C895 0.930 . S
C886 H880 0.930 . S
C886 C887 1.355 . S
C886 C888 1.415 . S
C887 C886 1.355 . S
C887 C889 1.419 . S
C888 C886 1.415 . S
C888 C893 1.425 . S
C888 C895 1.409 . S
C889 H881 0.930 . S
C889 C887 1.419 . S
C889 C890 1.362 . S
C890 H882 0.930 . S
C890 C889 1.362 . S
C890 C893 1.409 . S
C891 H883 0.930 . S
C891 C892 1.355 . S
C891 C893 1.415 . S
C892 C891 1.355 . S
C892 C894 1.419 . S
C893 C888 1.425 . S
C893 C890 1.409 . S
C893 C891 1.415 . S
C894 H884 0.930 . S
C894 C892 1.419 . S
C894 C895 1.362 . S
C895 H885 0.930 . S
C895 C888 1.409 . S
C895 C894 1.362 . S
H896 C902 0.930 . S
H897 C905 0.930 . S
H898 C906 0.930 . S
H899 C907 0.930 . S
H900 C910 0.930 . S
H901 C911 0.930 . S
C902 H896 0.930 . S
C902 C903 1.355 . S
C902 C904 1.415 . S
C903 C902 1.355 . S
C903 C905 1.419 . S
C904 C902 1.415 . S
C904 C909 1.425 . S
C904 C911 1.409 . S
C905 H897 0.930 . S
C905 C903 1.419 . S
C905 C906 1.362 . S
C906 H898 0.930 . S
C906 C905 1.362 . S
C906 C909 1.409 . S
C907 H899 0.930 . S
C907 C908 1.355 . S
C907 C909 1.415 . S
C908 C907 1.355 . S
C908 C910 1.419 . S
C909 C904 1.425 . S
C909 C906 1.409 . S
C909 C907 1.415 . S
C910 H900 0.930 . S
C910 C908 1.419 . S
C910 C911 1.362 . S
C911 H901 0.930 . S
C911 C904 1.409 . S
C911 C910 1.362 . S
H912 C918 0.930 . S
H913 C921 0.930 1_455 S
H914 C922 0.930 . S
H915 C923 0.930 . S
H916 C926 0.930 . S
H917 C927 0.930 . S
C918 H912 0.930 . S
C918 C919 1.355 . S
C918 C920 1.415 . S
C919 C918 1.355 . S
C919 C921 1.419 . S
C920 C918 1.415 . S
C920 C925 1.425 . S
C920 C927 1.409 . S
C921 H913 0.930 1_655 S
C921 C919 1.419 . S
C921 C922 1.362 . S
C922 H914 0.930 . S
C922 C921 1.362 . S
C922 C925 1.409 . S
C923 H915 0.930 . S
C923 C924 1.355 . S
C923 C925 1.415 . S
C924 C923 1.355 . S
C924 C926 1.419 . S
C925 C920 1.425 . S
C925 C922 1.409 . S
C925 C923 1.415 . S
C926 H916 0.930 . S
C926 C924 1.419 . S
C926 C927 1.362 . S
C927 H917 0.930 . S
C927 C920 1.409 . S
C927 C926 1.362 . S
H928 C934 0.930 . S
H929 C937 0.930 . S
H930 C938 0.930 . S
H931 C939 0.930 . S
H932 C942 0.930 . S
H933 C943 0.930 . S
C934 H928 0.930 . S
C934 C935 1.355 . S
C934 C936 1.415 . S
C935 C934 1.355 . S
C935 C937 1.419 . S
C936 C934 1.415 . S
C936 C941 1.425 . S
C936 C943 1.409 . S
C937 H929 0.930 . S
C937 C935 1.419 . S
C937 C938 1.362 . S
C938 H930 0.930 . S
C938 C937 1.362 . S
C938 C941 1.409 . S
C939 H931 0.930 . S
C939 C940 1.355 . S
C939 C941 1.415 . S
C940 C939 1.355 . S
C940 C942 1.419 . S
C941 C936 1.425 . S
C941 C938 1.409 . S
C941 C939 1.415 . S
C942 H932 0.930 . S
C942 C940 1.419 . S
C942 C943 1.362 . S
C943 H933 0.930 . S
C943 C936 1.409 . S
C943 C942 1.362 . S
H944 C950 0.930 . S
H945 C953 0.930 . S
H946 C954 0.930 . S
H947 C955 0.930 . S
H948 C958 0.930 . S
H949 C959 0.930 . S
C950 H944 0.930 . S
C950 C951 1.355 . S
C950 C952 1.415 . S
C951 C950 1.355 . S
C951 C953 1.419 . S
C952 C950 1.415 . S
C952 C957 1.425 . S
C952 C959 1.409 . S
C953 H945 0.930 . S
C953 C951 1.419 . S
C953 C954 1.362 . S
C954 H946 0.930 . S
C954 C953 1.362 . S
C954 C957 1.409 . S
C955 H947 0.930 . S
C955 C956 1.355 . S
C955 C957 1.415 . S
C956 C955 1.355 . S
C956 C958 1.419 . S
C957 C952 1.425 . S
C957 C954 1.409 . S
C957 C955 1.415 . S
C958 H948 0.930 . S
C958 C956 1.419 . S
C958 C959 1.362 . S
C959 H949 0.930 . S
C959 C952 1.409 . S
C959 C958 1.362 . S
H960 C966 0.930 . S
H961 C969 0.930 . S
H962 C970 0.930 . S
H963 C971 0.930 . S
H964 C974 0.930 . S
H965 C975 0.930 . S
C966 H960 0.930 . S
C966 C967 1.355 . S
C966 C968 1.415 . S
C967 C966 1.355 . S
C967 C969 1.419 . S
C968 C966 1.415 . S
C968 C973 1.425 . S
C968 C975 1.409 . S
C969 H961 0.930 . S
C969 C967 1.419 . S
C969 C970 1.362 . S
C970 H962 0.930 . S
C970 C969 1.362 . S
C970 C973 1.409 . S
C971 H963 0.930 . S
C971 C972 1.355 . S
C971 C973 1.415 . S
C972 C971 1.355 . S
C972 C974 1.419 . S
C973 C968 1.425 . S
C973 C970 1.409 . S
C973 C971 1.415 . S
C974 H964 0.930 . S
C974 C972 1.419 . S
C974 C975 1.362 . S
C975 H965 0.930 . S
C975 C968 1.409 . S
C975 C974 1.362 . S
H976 C982 0.930 . S
H977 C985 0.930 . S
H978 C986 0.930 . S
H979 C987 0.930 . S
H980 C990 0.930 . S
H981 C991 0.930 . S
C982 H976 0.930 . S
C982 C983 1.355 . S
C982 C984 1.415 . S
C983 C982 1.355 . S
C983 C985 1.419 1_565 S
C984 C982 1.415 . S
C984 C989 1.424 1_465 S
C984 C991 1.409 1_455 S
C985 H977 0.930 . S
C985 C983 1.419 1_545 S
C985 C986 1.362 . S
C986 H978 0.930 . S
C986 C985 1.362 . S
C986 C989 1.406 1_455 S
C987 H979 0.930 . S
C987 C988 1.355 . S
C987 C989 1.419 . S
C988 C987 1.355 . S
C988 C990 1.419 1_545 S
C989 C984 1.424 1_645 S
C989 C986 1.406 1_655 S
C989 C987 1.419 . S
C990 H980 0.930 . S
C990 C988 1.419 1_565 S
C990 C991 1.362 . S
C991 H981 0.930 . S
C991 C984 1.409 1_655 S
C991 C990 1.362 . S
H992 C998 0.930 . S
H993 C1001 0.930 . S
H994 C1002 0.930 . S
H995 C1003 0.930 . S
H996 C1006 0.930 . S
H997 C1007 0.930 . S
C998 H992 0.930 . S
C998 C999 1.355 . S
C998 C1000 1.415 . S
C999 C998 1.355 . S
C999 C1001 1.419 . S
C1000 C998 1.415 . S
C1000 C1005 1.425 . S
C1000 C1007 1.409 . S
C1001 H993 0.930 . S
C1001 C999 1.419 . S
C1001 C1002 1.362 . S
C1002 H994 0.930 . S
C1002 C1001 1.362 . S
C1002 C1005 1.409 . S
C1003 H995 0.930 . S
C1003 C1004 1.355 . S
C1003 C1005 1.415 . S
C1004 C1003 1.355 . S
C1004 C1006 1.419 . S
C1005 C1000 1.425 . S
C1005 C1002 1.409 . S
C1005 C1003 1.415 . S
C1006 H996 0.930 . S
C1006 C1004 1.419 . S
C1006 C1007 1.362 . S
C1007 H997 0.930 . S
C1007 C1000 1.409 . S
C1007 C1006 1.362 . S
H1008 C1014 0.930 . S
H1009 C1017 0.930 . S
H1010 C1018 0.933 1_556 S
H1011 C1019 0.930 . S
H1012 C1022 0.930 . S
H1013 C1023 0.929 . S
C1014 H1008 0.930 . S
C1014 C1015 1.355 1_565 S
C1014 C1016 1.415 . S
C1015 C1014 1.355 1_545 S
C1015 C1017 1.419 . S
C1016 C1014 1.415 . S
C1016 C1021 1.425 1_564 S
C1016 C1023 1.409 1_554 S
C1017 H1009 0.930 . S
C1017 C1015 1.419 . S
C1017 C1018 1.357 . S
C1018 H1010 0.933 1_554 S
C1018 C1017 1.357 . S
C1018 C1021 1.412 1_554 S
C1019 H1011 0.930 . S
C1019 C1020 1.355 1_545 S
C1019 C1021 1.415 . S
C1020 C1019 1.355 1_565 S
C1020 C1022 1.419 . S
C1021 C1016 1.425 1_546 S
C1021 C1018 1.412 1_556 S
C1021 C1019 1.415 . S
C1022 H1012 0.930 . S
C1022 C1020 1.419 . S
C1022 C1023 1.362 . S
C1023 H1013 0.929 . S
C1023 C1016 1.409 1_556 S
C1023 C1022 1.362 . S
H1024 C1030 0.930 . S
H1025 C1033 0.930 . S
H1026 C1034 0.930 . S
H1027 C1035 0.930 . S
H1028 C1038 0.930 . S
H1029 C1039 0.930 . S
C1030 H1024 0.930 . S
C1030 C1031 1.355 . S
C1030 C1032 1.415 . S
C1031 C1030 1.355 . S
C1031 C1033 1.419 . S
C1032 C1030 1.415 . S
C1032 C1037 1.425 . S
C1032 C1039 1.409 . S
C1033 H1025 0.930 . S
C1033 C1031 1.419 . S
C1033 C1034 1.362 . S
C1034 H1026 0.930 . S
C1034 C1033 1.362 . S
C1034 C1037 1.409 . S
C1035 H1027 0.930 . S
C1035 C1036 1.355 . S
C1035 C1037 1.415 . S
C1036 C1035 1.355 . S
C1036 C1038 1.419 . S
C1037 C1032 1.425 . S
C1037 C1034 1.409 . S
C1037 C1035 1.415 . S
C1038 H1028 0.930 . S
C1038 C1036 1.419 . S
C1038 C1039 1.362 . S
C1039 H1029 0.930 . S
C1039 C1032 1.409 . S
C1039 C1038 1.362 . S
H1040 C1046 0.930 . S
H1041 C1049 0.930 . S
H1042 C1050 0.930 . S
H1043 C1051 0.930 . S
H1044 C1054 0.930 . S
H1045 C1055 0.930 . S
C1046 H1040 0.930 . S
C1046 C1047 1.355 1_545 S
C1046 C1048 1.415 . S
C1047 C1046 1.355 1_565 S
C1047 C1049 1.419 . S
C1048 C1046 1.415 . S
C1048 C1053 1.425 1_545 S
C1048 C1055 1.409 . S
C1049 H1041 0.930 . S
C1049 C1047 1.419 . S
C1049 C1050 1.362 . S
C1050 H1042 0.930 . S
C1050 C1049 1.362 . S
C1050 C1053 1.409 . S
C1051 H1043 0.930 . S
C1051 C1052 1.355 1_565 S
C1051 C1053 1.415 . S
C1052 C1051 1.355 1_545 S
C1052 C1054 1.419 . S
C1053 C1048 1.425 1_565 S
C1053 C1050 1.409 . S
C1053 C1051 1.415 . S
C1054 H1044 0.930 . S
C1054 C1052 1.419 . S
C1054 C1055 1.362 . S
C1055 H1045 0.930 . S
C1055 C1048 1.409 . S
C1055 C1054 1.362 . S
H1056 C1062 0.930 . S
H1057 C1065 0.930 . S
H1058 C1066 0.930 . S
H1059 C1067 0.930 . S
H1060 C1070 0.930 . S
H1061 C1071 0.930 . S
C1062 H1056 0.930 . S
C1062 C1063 1.355 . S
C1062 C1064 1.415 . S
C1063 C1062 1.355 . S
C1063 C1065 1.419 . S
C1064 C1062 1.415 . S
C1064 C1069 1.425 . S
C1064 C1071 1.409 . S
C1065 H1057 0.930 . S
C1065 C1063 1.419 . S
C1065 C1066 1.362 . S
C1066 H1058 0.930 . S
C1066 C1065 1.362 . S
C1066 C1069 1.409 . S
C1067 H1059 0.930 . S
C1067 C1068 1.355 . S
C1067 C1069 1.415 . S
C1068 C1067 1.355 . S
C1068 C1070 1.419 . S
C1069 C1064 1.425 . S
C1069 C1066 1.409 . S
C1069 C1067 1.415 . S
C1070 H1060 0.930 . S
C1070 C1068 1.419 . S
C1070 C1071 1.362 . S
C1071 H1061 0.930 . S
C1071 C1064 1.409 . S
C1071 C1070 1.362 . S
H1072 C1078 0.930 . S
H1073 C1081 0.930 1_655 S
H1074 C1082 0.930 . S
H1075 C1083 0.930 . S
H1076 C1086 0.932 . S
H1077 C1087 0.930 . S
C1078 H1072 0.930 . S
C1078 C1079 1.355 . S
C1078 C1080 1.415 1_556 S
C1079 C1078 1.355 . S
C1079 C1081 1.419 1_545 S
C1080 C1078 1.415 1_554 S
C1080 C1085 1.425 1_445 S
C1080 C1087 1.409 . S
C1081 H1073 0.930 1_455 S
C1081 C1079 1.419 1_565 S
C1081 C1082 1.362 1_455 S
C1082 H1074 0.930 . S
C1082 C1081 1.362 1_655 S
C1082 C1085 1.409 1_556 S
C1083 H1075 0.930 . S
C1083 C1084 1.355 . S
C1083 C1085 1.415 . S
C1084 C1083 1.355 . S
C1084 C1086 1.411 1_665 S
C1085 C1080 1.425 1_665 S
C1085 C1082 1.409 1_554 S
C1085 C1083 1.415 . S
C1086 H1076 0.932 . S
C1086 C1084 1.411 1_445 S
C1086 C1087 1.368 . S
C1087 H1077 0.930 . S
C1087 C1080 1.409 . S
C1087 C1086 1.368 . S
H1088 C1094 0.930 . S
H1089 C1097 0.930 . S
H1090 C1098 0.930 . S
H1091 C1099 0.930 . S
H1092 C1102 0.930 . S
H1093 C1103 0.930 . S
C1094 H1088 0.930 . S
C1094 C1095 1.355 . S
C1094 C1096 1.415 . S
C1095 C1094 1.355 . S
C1095 C1097 1.419 . S
C1096 C1094 1.415 . S
C1096 C1101 1.425 . S
C1096 C1103 1.409 . S
C1097 H1089 0.930 . S
C1097 C1095 1.419 . S
C1097 C1098 1.362 . S
C1098 H1090 0.930 . S
C1098 C1097 1.362 . S
C1098 C1101 1.409 . S
C1099 H1091 0.930 . S
C1099 C1100 1.355 . S
C1099 C1101 1.415 . S
C1100 C1099 1.355 . S
C1100 C1102 1.419 . S
C1101 C1096 1.425 . S
C1101 C1098 1.409 . S
C1101 C1099 1.415 . S
C1102 H1092 0.930 . S
C1102 C1100 1.419 . S
C1102 C1103 1.362 . S
C1103 H1093 0.930 . S
C1103 C1096 1.409 . S
C1103 C1102 1.362 . S
H1104 C1110 0.930 . S
H1105 C1113 0.930 . S
H1106 C1114 0.930 . S
H1107 C1115 0.930 . S
H1108 C1118 0.930 . S
H1109 C1119 0.930 . S
C1110 H1104 0.930 . S
C1110 C1111 1.355 . S
C1110 C1112 1.415 . S
C1111 C1110 1.355 . S
C1111 C1113 1.419 . S
C1112 C1110 1.415 . S
C1112 C1117 1.425 . S
C1112 C1119 1.409 . S
C1113 H1105 0.930 . S
C1113 C1111 1.419 . S
C1113 C1114 1.362 . S
C1114 H1106 0.930 . S
C1114 C1113 1.362 . S
C1114 C1117 1.409 . S
C1115 H1107 0.930 . S
C1115 C1116 1.355 . S
C1115 C1117 1.415 . S
C1116 C1115 1.355 . S
C1116 C1118 1.419 . S
C1117 C1112 1.425 . S
C1117 C1114 1.409 . S
C1117 C1115 1.415 . S
C1118 H1108 0.930 . S
C1118 C1116 1.419 . S
C1118 C1119 1.362 . S
C1119 H1109 0.930 . S
C1119 C1112 1.409 . S
C1119 C1118 1.362 . S
H1120 C1126 0.930 . S
H1121 C1129 0.930 . S
H1122 C1130 0.930 . S
H1123 C1131 0.930 . S
H1124 C1134 0.930 . S
H1125 C1135 0.930 . S
C1126 H1120 0.930 . S
C1126 C1127 1.355 . S
C1126 C1128 1.415 . S
C1127 C1126 1.355 . S
C1127 C1129 1.419 . S
C1128 C1126 1.415 . S
C1128 C1133 1.425 . S
C1128 C1135 1.409 . S
C1129 H1121 0.930 . S
C1129 C1127 1.419 . S
C1129 C1130 1.362 . S
C1130 H1122 0.930 . S
C1130 C1129 1.362 . S
C1130 C1133 1.409 . S
C1131 H1123 0.930 . S
C1131 C1132 1.355 . S
C1131 C1133 1.415 . S
C1132 C1131 1.355 . S
C1132 C1134 1.419 . S
C1133 C1128 1.425 . S
C1133 C1130 1.409 . S
C1133 C1131 1.415 . S
C1134 H1124 0.930 . S
C1134 C1132 1.419 . S
C1134 C1135 1.362 . S
C1135 H1125 0.930 . S
C1135 C1128 1.409 . S
C1135 C1134 1.362 . S
H1136 C1142 0.930 . S
H1137 C1145 0.930 . S
H1138 C1146 0.930 . S
H1139 C1147 0.930 . S
H1140 C1150 0.930 . S
H1141 C1151 0.930 . S
C1142 H1136 0.930 . S
C1142 C1143 1.355 . S
C1142 C1144 1.415 . S
C1143 C1142 1.355 . S
C1143 C1145 1.419 . S
C1144 C1142 1.415 . S
C1144 C1149 1.425 . S
C1144 C1151 1.409 . S
C1145 H1137 0.930 . S
C1145 C1143 1.419 . S
C1145 C1146 1.362 . S
C1146 H1138 0.930 . S
C1146 C1145 1.362 . S
C1146 C1149 1.409 . S
C1147 H1139 0.930 . S
C1147 C1148 1.355 . S
C1147 C1149 1.415 . S
C1148 C1147 1.355 . S
C1148 C1150 1.419 . S
C1149 C1144 1.425 . S
C1149 C1146 1.409 . S
C1149 C1147 1.415 . S
C1150 H1140 0.930 . S
C1150 C1148 1.419 . S
C1150 C1151 1.362 . S
C1151 H1141 0.930 . S
C1151 C1144 1.409 . S
C1151 C1150 1.362 . S
H1152 C1158 0.930 . S
H1153 C1161 0.930 . S
H1154 C1162 0.930 . S
H1155 C1163 0.930 . S
H1156 C1166 0.930 . S
H1157 C1167 0.930 1_554 S
C1158 H1152 0.930 . S
C1158 C1159 1.355 . S
C1158 C1160 1.415 . S
C1159 C1158 1.355 . S
C1159 C1161 1.419 . S
C1160 C1158 1.415 . S
C1160 C1165 1.425 1_554 S
C1160 C1167 1.409 1_554 S
C1161 H1153 0.930 . S
C1161 C1159 1.419 . S
C1161 C1162 1.362 1_554 S
C1162 H1154 0.930 . S
C1162 C1161 1.362 1_556 S
C1162 C1165 1.409 . S
C1163 H1155 0.930 . S
C1163 C1164 1.355 . S
C1163 C1165 1.415 . S
C1164 C1163 1.355 . S
C1164 C1166 1.419 . S
C1165 C1160 1.425 1_556 S
C1165 C1162 1.409 . S
C1165 C1163 1.415 . S
C1166 H1156 0.930 . S
C1166 C1164 1.419 . S
C1166 C1167 1.362 . S
C1167 H1157 0.930 1_556 S
C1167 C1160 1.409 1_556 S
C1167 C1166 1.362 . S
H1168 C1174 0.930 . S
H1169 C1177 0.930 . S
H1170 C1178 0.935 . S
H1171 C1179 0.930 . S
H1172 C1182 0.930 . S
H1173 C1183 0.930 . S
C1174 H1168 0.930 . S
C1174 C1175 1.355 . S
C1174 C1176 1.415 . S
C1175 C1174 1.355 . S
C1175 C1177 1.419 . S
C1176 C1174 1.415 . S
C1176 C1181 1.425 1_455 S
C1176 C1183 1.409 1_455 S
C1177 H1169 0.930 . S
C1177 C1175 1.419 . S
C1177 C1178 1.362 . S
C1178 H1170 0.935 . S
C1178 C1177 1.362 . S
C1178 C1181 1.409 1_455 S
C1179 H1171 0.930 . S
C1179 C1180 1.355 . S
C1179 C1181 1.415 . S
C1180 C1179 1.355 . S
C1180 C1182 1.419 . S
C1181 C1176 1.425 1_655 S
C1181 C1178 1.409 1_655 S
C1181 C1179 1.415 . S
C1182 H1172 0.930 . S
C1182 C1180 1.419 . S
C1182 C1183 1.362 . S
C1183 H1173 0.930 . S
C1183 C1176 1.409 1_655 S
C1183 C1182 1.362 . S
H1184 C1190 0.930 . S
H1185 C1193 0.930 . S
H1186 C1194 0.930 . S
H1187 C1195 0.930 . S
H1188 C1198 0.930 . S
H1189 C1199 0.930 . S
C1190 H1184 0.930 . S
C1190 C1191 1.355 . S
C1190 C1192 1.415 . S
C1191 C1190 1.355 . S
C1191 C1193 1.419 1_455 S
C1192 C1190 1.415 . S
C1192 C1197 1.425 1_455 S
C1192 C1199 1.409 1_554 S
C1193 H1185 0.930 . S
C1193 C1191 1.419 1_655 S
C1193 C1194 1.362 . S
C1194 H1186 0.930 . S
C1194 C1193 1.362 . S
C1194 C1197 1.409 . S
C1195 H1187 0.930 . S
C1195 C1196 1.355 . S
C1195 C1197 1.415 1_556 S
C1196 C1195 1.355 . S
C1196 C1198 1.419 1_655 S
C1197 C1192 1.425 1_655 S
C1197 C1194 1.409 . S
C1197 C1195 1.415 1_554 S
C1198 H1188 0.930 . S
C1198 C1196 1.419 1_455 S
C1198 C1199 1.362 . S
C1199 H1189 0.930 . S
C1199 C1192 1.409 1_556 S
C1199 C1198 1.362 . S
H1200 C1206 0.930 . S
H1201 C1209 0.930 . S
H1202 C1210 0.930 . S
H1203 C1211 0.930 . S
H1204 C1214 0.930 . S
H1205 C1215 0.930 . S
C1206 H1200 0.930 . S
C1206 C1207 1.355 . S
C1206 C1208 1.415 . S
C1207 C1206 1.355 . S
C1207 C1209 1.419 . S
C1208 C1206 1.415 . S
C1208 C1213 1.425 . S
C1208 C1215 1.409 . S
C1209 H1201 0.930 . S
C1209 C1207 1.419 . S
C1209 C1210 1.362 . S
C1210 H1202 0.930 . S
C1210 C1209 1.362 . S
C1210 C1213 1.409 . S
C1211 H1203 0.930 . S
C1211 C1212 1.355 . S
C1211 C1213 1.415 . S
C1212 C1211 1.355 . S
C1212 C1214 1.419 . S
C1213 C1208 1.425 . S
C1213 C1210 1.409 . S
C1213 C1211 1.415 . S
C1214 H1204 0.930 . S
C1214 C1212 1.419 . S
C1214 C1215 1.362 . S
C1215 H1205 0.930 . S
C1215 C1208 1.409 . S
C1215 C1214 1.362 . S
H1216 C1222 0.930 . S
H1217 C1225 0.930 . S
H1218 C1226 0.930 . S
H1219 C1227 0.930 . S
H1220 C1230 0.954 . S
H1221 C1231 0.930 . S
C1222 H1216 0.930 . S
C1222 C1223 1.355 . S
C1222 C1224 1.415 . S
C1223 C1222 1.355 . S
C1223 C1225 1.419 . S
C1224 C1222 1.415 . S
C1224 C1229 1.425 . S
C1224 C1231 1.409 . S
C1225 H1217 0.930 . S
C1225 C1223 1.419 . S
C1225 C1226 1.362 . S
C1226 H1218 0.930 . S
C1226 C1225 1.362 . S
C1226 C1229 1.409 . S
C1227 H1219 0.930 . S
C1227 C1228 1.355 . S
C1227 C1229 1.415 . S
C1228 C1227 1.355 . S
C1228 C1230 1.419 . S
C1229 C1224 1.425 . S
C1229 C1226 1.409 . S
C1229 C1227 1.415 . S
C1230 H1220 0.954 . S
C1230 C1228 1.419 . S
C1230 C1231 1.362 . S
C1231 H1221 0.930 . S
C1231 C1224 1.409 . S
C1231 C1230 1.362 . S
H1232 C1238 0.930 . S
H1233 C1241 0.930 . S
H1234 C1242 0.930 . S
H1235 C1243 0.930 . S
H1236 C1246 0.930 . S
H1237 C1247 0.930 . S
C1238 H1232 0.930 . S
C1238 C1239 1.355 . S
C1238 C1240 1.415 . S
C1239 C1238 1.355 . S
C1239 C1241 1.419 . S
C1240 C1238 1.415 . S
C1240 C1245 1.425 . S
C1240 C1247 1.409 . S
C1241 H1233 0.930 . S
C1241 C1239 1.419 . S
C1241 C1242 1.362 . S
C1242 H1234 0.930 . S
C1242 C1241 1.362 . S
C1242 C1245 1.409 . S
C1243 H1235 0.930 . S
C1243 C1244 1.355 . S
C1243 C1245 1.415 . S
C1244 C1243 1.355 . S
C1244 C1246 1.419 . S
C1245 C1240 1.425 . S
C1245 C1242 1.409 . S
C1245 C1243 1.415 . S
C1246 H1236 0.930 . S
C1246 C1244 1.419 . S
C1246 C1247 1.362 . S
C1247 H1237 0.930 . S
C1247 C1240 1.409 . S
C1247 C1246 1.362 . S
H1248 C1254 0.930 . S
H1249 C1257 0.930 . S
H1250 C1258 0.930 . S
H1251 C1259 0.930 . S
H1252 C1262 0.930 1_545 S
H1253 C1263 0.930 . S
C1254 H1248 0.930 . S
C1254 C1255 1.355 . S
C1254 C1256 1.415 . S
C1255 C1254 1.355 . S
C1255 C1257 1.419 . S
C1256 C1254 1.415 . S
C1256 C1261 1.425 . S
C1256 C1263 1.409 . S
C1257 H1249 0.930 . S
C1257 C1255 1.419 . S
C1257 C1258 1.362 . S
C1258 H1250 0.930 . S
C1258 C1257 1.362 . S
C1258 C1261 1.409 . S
C1259 H1251 0.930 . S
C1259 C1260 1.355 . S
C1259 C1261 1.415 . S
C1260 C1259 1.355 . S
C1260 C1262 1.419 . S
C1261 C1256 1.425 . S
C1261 C1258 1.409 . S
C1261 C1259 1.415 . S
C1262 H1252 0.930 1_565 S
C1262 C1260 1.419 . S
C1262 C1263 1.362 . S
C1263 H1253 0.930 . S
C1263 C1256 1.409 . S
C1263 C1262 1.362 . S
H1264 C1270 0.930 . S
H1265 C1273 0.930 . S
H1266 C1274 0.930 . S
H1267 C1275 0.930 . S
H1268 C1278 0.930 . S
H1269 C1279 0.930 . S
C1270 H1264 0.930 . S
C1270 C1271 1.355 . S
C1270 C1272 1.415 . S
C1271 C1270 1.355 . S
C1271 C1273 1.419 . S
C1272 C1270 1.415 . S
C1272 C1277 1.425 . S
C1272 C1279 1.409 . S
C1273 H1265 0.930 . S
C1273 C1271 1.419 . S
C1273 C1274 1.362 . S
C1274 H1266 0.930 . S
C1274 C1273 1.362 . S
C1274 C1277 1.409 . S
C1275 H1267 0.930 . S
C1275 C1276 1.355 . S
C1275 C1277 1.415 . S
C1276 C1275 1.355 . S
C1276 C1278 1.419 . S
C1277 C1272 1.425 . S
C1277 C1274 1.409 . S
C1277 C1275 1.415 . S
C1278 H1268 0.930 . S
C1278 C1276 1.419 . S
C1278 C1279 1.362 . S
C1279 H1269 0.930 . S
C1279 C1272 1.409 . S
C1279 C1278 1.362 . S
H1280 C1286 0.930 . S
H1281 C1289 0.930 . S
H1282 C1290 0.930 . S
H1283 C1291 0.930 . S
H1284 C1294 0.930 . S
H1285 C1295 0.930 . S
C1286 H1280 0.930 . S
C1286 C1287 1.355 . S
C1286 C1288 1.415 . S
C1287 C1286 1.355 . S
C1287 C1289 1.419 . S
C1288 C1286 1.415 . S
C1288 C1293 1.425 . S
C1288 C1295 1.409 . S
C1289 H1281 0.930 . S
C1289 C1287 1.419 . S
C1289 C1290 1.362 . S
C1290 H1282 0.930 . S
C1290 C1289 1.362 . S
C1290 C1293 1.409 . S
C1291 H1283 0.930 . S
C1291 C1292 1.355 . S
C1291 C1293 1.415 . S
C1292 C1291 1.355 . S
C1292 C1294 1.419 . S
C1293 C1288 1.425 . S
C1293 C1290 1.409 . S
C1293 C1291 1.415 . S
C1294 H1284 0.930 . S
C1294 C1292 1.419 . S
C1294 C1295 1.362 . S
C1295 H1285 0.930 . S
C1295 C1288 1.409 . S
C1295 C1294 1.362 . S
H1296 C1302 0.930 . S
H1297 C1305 0.930 . S
H1298 C1306 0.930 . S
H1299 C1307 0.930 . S
H1300 C1310 0.930 . S
H1301 C1311 0.930 . S
C1302 H1296 0.930 . S
C1302 C1303 1.355 . S
C1302 C1304 1.415 . S
C1303 C1302 1.355 . S
C1303 C1305 1.419 . S
C1304 C1302 1.415 . S
C1304 C1309 1.425 . S
C1304 C1311 1.409 . S
C1305 H1297 0.930 . S
C1305 C1303 1.419 . S
C1305 C1306 1.362 . S
C1306 H1298 0.930 . S
C1306 C1305 1.362 . S
C1306 C1309 1.409 . S
C1307 H1299 0.930 . S
C1307 C1308 1.355 . S
C1307 C1309 1.415 . S
C1308 C1307 1.355 . S
C1308 C1310 1.419 . S
C1309 C1304 1.425 . S
C1309 C1306 1.409 . S
C1309 C1307 1.415 . S
C1310 H1300 0.930 . S
C1310 C1308 1.419 . S
C1310 C1311 1.362 . S
C1311 H1301 0.930 . S
C1311 C1304 1.409 . S
C1311 C1310 1.362 . S
H1312 C1318 0.930 . S
H1313 C1321 0.930 . S
H1314 C1322 0.930 . S
H1315 C1323 0.930 . S
H1316 C1326 0.930 . S
H1317 C1327 0.930 . S
C1318 H1312 0.930 . S
C1318 C1319 1.355 . S
C1318 C1320 1.415 . S
C1319 C1318 1.355 . S
C1319 C1321 1.419 . S
C1320 C1318 1.415 . S
C1320 C1325 1.425 . S
C1320 C1327 1.409 . S
C1321 H1313 0.930 . S
C1321 C1319 1.419 . S
C1321 C1322 1.362 . S
C1322 H1314 0.930 . S
C1322 C1321 1.362 . S
C1322 C1325 1.409 . S
C1323 H1315 0.930 . S
C1323 C1324 1.355 . S
C1323 C1325 1.415 . S
C1324 C1323 1.355 . S
C1324 C1326 1.419 . S
C1325 C1320 1.425 . S
C1325 C1322 1.409 . S
C1325 C1323 1.415 . S
C1326 H1316 0.930 . S
C1326 C1324 1.419 . S
C1326 C1327 1.362 . S
C1327 H1317 0.930 . S
C1327 C1320 1.409 . S
C1327 C1326 1.362 . S
H1328 C1334 0.930 . S
H1329 C1337 0.930 . S
H1330 C1338 0.930 . S
H1331 C1339 0.930 . S
H1332 C1342 0.930 . S
H1333 C1343 0.930 . S
C1334 H1328 0.930 . S
C1334 C1335 1.355 . S
C1334 C1336 1.415 . S
C1335 C1334 1.355 . S
C1335 C1337 1.419 . S
C1336 C1334 1.415 . S
C1336 C1341 1.425 . S
C1336 C1343 1.409 . S
C1337 H1329 0.930 . S
C1337 C1335 1.419 . S
C1337 C1338 1.362 . S
C1338 H1330 0.930 . S
C1338 C1337 1.362 . S
C1338 C1341 1.409 . S
C1339 H1331 0.930 . S
C1339 C1340 1.355 . S
C1339 C1341 1.415 . S
C1340 C1339 1.355 . S
C1340 C1342 1.419 . S
C1341 C1336 1.425 . S
C1341 C1338 1.409 . S
C1341 C1339 1.415 . S
C1342 H1332 0.930 . S
C1342 C1340 1.419 . S
C1342 C1343 1.362 . S
C1343 H1333 0.930 . S
C1343 C1336 1.409 . S
C1343 C1342 1.362 . S
H1344 C1350 0.930 . S
H1345 C1353 0.930 . S
H1346 C1354 0.930 . S
H1347 C1355 0.930 . S
H1348 C1358 0.930 . S
H1349 C1359 0.930 . S
C1350 H1344 0.930 . S
C1350 C1351 1.355 . S
C1350 C1352 1.415 . S
C1351 C1350 1.355 . S
C1351 C1353 1.419 . S
C1352 C1350 1.415 . S
C1352 C1357 1.425 . S
C1352 C1359 1.409 . S
C1353 H1345 0.930 . S
C1353 C1351 1.419 . S
C1353 C1354 1.362 . S
C1354 H1346 0.930 . S
C1354 C1353 1.362 . S
C1354 C1357 1.409 . S
C1355 H1347 0.930 . S
C1355 C1356 1.355 . S
C1355 C1357 1.415 . S
C1356 C1355 1.355 . S
C1356 C1358 1.419 . S
C1357 C1352 1.425 . S
C1357 C1354 1.409 . S
C1357 C1355 1.415 . S
C1358 H1348 0.930 . S
C1358 C1356 1.419 . S
C1358 C1359 1.362 . S
C1359 H1349 0.930 . S
C1359 C1352 1.409 . S
C1359 C1358 1.362 . S
H1360 C1366 0.930 . S
H1361 C1369 0.930 . S
H1362 C1370 0.930 . S
H1363 C1371 0.930 . S
H1364 C1374 0.930 . S
H1365 C1375 0.930 . S
C1366 H1360 0.930 . S
C1366 C1367 1.355 . S
C1366 C1368 1.415 . S
C1367 C1366 1.355 . S
C1367 C1369 1.419 . S
C1368 C1366 1.415 . S
C1368 C1373 1.425 . S
C1368 C1375 1.409 . S
C1369 H1361 0.930 . S
C1369 C1367 1.419 . S
C1369 C1370 1.362 . S
C1370 H1362 0.930 . S
C1370 C1369 1.362 . S
C1370 C1373 1.409 . S
C1371 H1363 0.930 . S
C1371 C1372 1.355 . S
C1371 C1373 1.415 . S
C1372 C1371 1.355 . S
C1372 C1374 1.419 . S
C1373 C1368 1.425 . S
C1373 C1370 1.409 . S
C1373 C1371 1.415 . S
C1374 H1364 0.930 . S
C1374 C1372 1.419 . S
C1374 C1375 1.362 . S
C1375 H1365 0.930 . S
C1375 C1368 1.409 . S
C1375 C1374 1.362 . S
H1376 C1382 0.930 . S
H1377 C1385 0.930 . S
H1378 C1386 0.930 . S
H1379 C1387 0.930 . S
H1380 C1390 0.930 . S
H1381 C1391 0.930 . S
C1382 H1376 0.930 . S
C1382 C1383 1.355 . S
C1382 C1384 1.415 . S
C1383 C1382 1.355 . S
C1383 C1385 1.419 . S
C1384 C1382 1.415 . S
C1384 C1389 1.425 . S
C1384 C1391 1.409 . S
C1385 H1377 0.930 . S
C1385 C1383 1.419 . S
C1385 C1386 1.362 . S
C1386 H1378 0.930 . S
C1386 C1385 1.362 . S
C1386 C1389 1.409 . S
C1387 H1379 0.930 . S
C1387 C1388 1.355 . S
C1387 C1389 1.415 . S
C1388 C1387 1.355 . S
C1388 C1390 1.419 . S
C1389 C1384 1.425 . S
C1389 C1386 1.409 . S
C1389 C1387 1.415 . S
C1390 H1380 0.930 . S
C1390 C1388 1.419 . S
C1390 C1391 1.362 . S
C1391 H1381 0.930 . S
C1391 C1384 1.409 . S
C1391 C1390 1.362 . S
H1392 C1398 0.930 . S
H1393 C1401 0.930 . S
H1394 C1402 0.930 . S
H1395 C1403 0.930 . S
H1396 C1406 0.930 . S
H1397 C1407 0.930 . S
C1398 H1392 0.930 . S
C1398 C1399 1.355 . S
C1398 C1400 1.415 . S
C1399 C1398 1.355 . S
C1399 C1401 1.419 . S
C1400 C1398 1.415 . S
C1400 C1405 1.425 . S
C1400 C1407 1.409 . S
C1401 H1393 0.930 . S
C1401 C1399 1.419 . S
C1401 C1402 1.362 . S
C1402 H1394 0.930 . S
C1402 C1401 1.362 . S
C1402 C1405 1.409 . S
C1403 H1395 0.930 . S
C1403 C1404 1.355 . S
C1403 C1405 1.415 . S
C1404 C1403 1.355 . S
C1404 C1406 1.419 . S
C1405 C1400 1.425 . S
C1405 C1402 1.409 . S
C1405 C1403 1.415 . S
C1406 H1396 0.930 . S
C1406 C1404 1.419 . S
C1406 C1407 1.362 . S
C1407 H1397 0.930 . S
C1407 C1400 1.409 . S
C1407 C1406 1.362 . S
H1408 C1414 0.930 . S
H1409 C1417 0.930 . S
H1410 C1418 0.930 . S
H1411 C1419 0.930 . S
H1412 C1422 0.930 . S
H1413 C1423 0.930 . S
C1414 H1408 0.930 . S
C1414 C1415 1.355 . S
C1414 C1416 1.415 . S
C1415 C1414 1.355 . S
C1415 C1417 1.419 . S
C1416 C1414 1.415 . S
C1416 C1421 1.425 . S
C1416 C1423 1.409 . S
C1417 H1409 0.930 . S
C1417 C1415 1.419 . S
C1417 C1418 1.362 . S
C1418 H1410 0.930 . S
C1418 C1417 1.362 . S
C1418 C1421 1.409 . S
C1419 H1411 0.930 . S
C1419 C1420 1.355 . S
C1419 C1421 1.415 . S
C1420 C1419 1.355 . S
C1420 C1422 1.419 . S
C1421 C1416 1.425 . S
C1421 C1418 1.409 . S
C1421 C1419 1.415 . S
C1422 H1412 0.930 . S
C1422 C1420 1.419 . S
C1422 C1423 1.362 . S
C1423 H1413 0.930 . S
C1423 C1416 1.409 . S
C1423 C1422 1.362 . S
H1424 C1430 0.930 . S
H1425 C1433 0.930 . S
H1426 C1434 0.930 . S
H1427 C1435 0.930 . S
H1428 C1438 0.930 . S
H1429 C1439 0.930 . S
C1430 H1424 0.930 . S
C1430 C1431 1.355 . S
C1430 C1432 1.415 . S
C1431 C1430 1.355 . S
C1431 C1433 1.419 . S
C1432 C1430 1.415 . S
C1432 C1437 1.425 . S
C1432 C1439 1.409 . S
C1433 H1425 0.930 . S
C1433 C1431 1.419 . S
C1433 C1434 1.362 . S
C1434 H1426 0.930 . S
C1434 C1433 1.362 . S
C1434 C1437 1.409 . S
C1435 H1427 0.930 . S
C1435 C1436 1.355 . S
C1435 C1437 1.415 . S
C1436 C1435 1.355 . S
C1436 C1438 1.419 . S
C1437 C1432 1.425 . S
C1437 C1434 1.409 . S
C1437 C1435 1.415 . S
C1438 H1428 0.930 . S
C1438 C1436 1.419 . S
C1438 C1439 1.362 . S
C1439 H1429 0.930 . S
C1439 C1432 1.409 . S
C1439 C1438 1.362 . S
H1440 C1446 0.930 . S
H1441 C1449 0.930 . S
H1442 C1450 0.930 . S
H1443 C1451 0.930 . S
H1444 C1454 0.930 . S
H1445 C1455 0.930 . S
C1446 H1440 0.930 . S
C1446 C1447 1.355 . S
C1446 C1448 1.415 . S
C1447 C1446 1.355 . S
C1447 C1449 1.419 . S
C1448 C1446 1.415 . S
C1448 C1453 1.425 . S
C1448 C1455 1.409 . S
C1449 H1441 0.930 . S
C1449 C1447 1.419 . S
C1449 C1450 1.362 . S
C1450 H1442 0.930 . S
C1450 C1449 1.362 . S
C1450 C1453 1.409 . S
C1451 H1443 0.930 . S
C1451 C1452 1.355 . S
C1451 C1453 1.415 . S
C1452 C1451 1.355 . S
C1452 C1454 1.419 . S
C1453 C1448 1.425 . S
C1453 C1450 1.409 . S
C1453 C1451 1.415 . S
C1454 H1444 0.930 . S
C1454 C1452 1.419 . S
C1454 C1455 1.362 . S
C1455 H1445 0.930 . S
C1455 C1448 1.409 . S
C1455 C1454 1.362 . S
H1456 C1462 0.930 . S
H1457 C1465 0.930 . S
H1458 C1466 0.930 . S
H1459 C1467 0.930 . S
H1460 C1470 0.930 . S
H1461 C1471 0.930 . S
C1462 H1456 0.930 . S
C1462 C1463 1.355 . S
C1462 C1464 1.415 . S
C1463 C1462 1.355 . S
C1463 C1465 1.419 . S
C1464 C1462 1.415 . S
C1464 C1469 1.425 . S
C1464 C1471 1.409 . S
C1465 H1457 0.930 . S
C1465 C1463 1.419 . S
C1465 C1466 1.362 . S
C1466 H1458 0.930 . S
C1466 C1465 1.362 . S
C1466 C1469 1.409 . S
C1467 H1459 0.930 . S
C1467 C1468 1.355 . S
C1467 C1469 1.415 . S
C1468 C1467 1.355 . S
C1468 C1470 1.419 . S
C1469 C1464 1.425 . S
C1469 C1466 1.409 . S
C1469 C1467 1.415 . S
C1470 H1460 0.930 . S
C1470 C1468 1.419 . S
C1470 C1471 1.362 . S
C1471 H1461 0.930 . S
C1471 C1464 1.409 . S
C1471 C1470 1.362 . S
C455 C385 1.378 . S
C460 C8 1.281 . S
C471 C21 1.232 . S
C476 C119 1.271 . S
C487 C357 1.376 . S
C492 C36 1.337 . S
C503 C49 1.233 . S
C508 C147 1.270 . S
C519 C64 1.291 . S
C524 C413 1.375 . S
C535 C77 1.240 . S
C540 C203 1.271 . S
C551 C92 1.327 . S
C556 C441 1.376 . S
C567 C105 1.274 . S
C572 C175 1.271 . S
C583 C274 1.223 . S
C588 C120 1.240 . S
C599 C7 1.227 . S
C604 C134 1.120 . S
C615 C246 1.306 . S
C620 C148 1.244 . S
C631 C162 1.157 . S
C636 C35 1.219 . S
C647 C302 1.268 . S
C652 C176 1.206 . S
C663 C91 1.225 . S
C668 C190 1.210 . S
C679 C204 1.218 . S
C684 C330 1.244 . S
C695 C63 1.219 . S
C700 C218 1.171 . S
C711 C232 1.345 . S
C716 C161 1.377 . S
C727 C245 1.232 . S
C732 C343 1.271 . S
C743 C133 1.379 . S
C748 C260 1.300 . S
C759 C371 1.270 . S
C764 C273 1.274 . S
C775 C189 1.375 . S
C780 C288 1.307 . S
C791 C427 1.270 . S
C796 C301 1.280 . S
C807 C217 1.377 . S
C812 C316 1.266 . S
C823 C329 1.279 . S
C828 C399 1.270 . S
C839 C50 1.225 . S
C844 C344 1.300 . S
C855 C358 1.157 . S
C860 C231 1.228 . S
C871 C372 1.236 . S
C876 C22 1.307 . S
C887 C386 1.216 . S
C892 C259 1.223 . S
C903 C400 1.215 . S
C908 C78 1.301 . S
C919 C414 1.132 . S
C924 C315 1.228 . S
C935 C428 1.268 . S
C940 C106 1.211 . S
C951 C442 1.212 . S
C956 C287 1.221 . S
C967 C349 1.371 . S
C972 C13 1.366 . S
C983 C25 1.508 . S
C988 C139 1.471 . S
C999 C377 1.437 . S
C1004 C41 1.434 . S
C1015 C53 1.489 . S
C1020 C167 1.375 . S
C1031 C405 1.359 . S
C1036 C69 1.356 . S
C1047 C81 1.501 . S
C1052 C195 1.384 . S
C1063 C433 1.427 . S
C1068 C97 1.425 . S
C1079 C109 1.491 . S
C1084 C223 1.459 . S
C1095 C125 1.398 . S
C1100 C237 1.395 . S
C1111 C153 1.363 . S
C1116 C265 1.360 . S
C1127 C181 1.341 . S
C1132 C293 1.337 . S
C1143 C209 1.435 . S
C1148 C321 1.432 . S
C1159 C249 1.523 . S
C1164 C363 1.439 . S
C1175 C391 1.387 . S
C1180 C277 1.504 . S
C1191 C419 1.404 . S
C1196 C305 1.471 . S
C1207 C333 1.477 . S
C1212 C447 1.378 . S
C1223 C11 1.269 . S
C1228 C83 1.173 . S
C1239 C27 1.205 . S
C1244 C95 1.261 . S
C1255 C39 1.267 . S
C1260 C111 1.161 . S
C1271 C67 1.212 . S
C1276 C55 1.251 . S
C1287 C123 1.250 . S
C1292 C193 1.296 . S
C1303 C137 1.298 . S
C1308 C207 1.247 . S
C1319 C151 1.278 . S
C1324 C221 1.248 . S
C1335 C165 1.287 . S
C1340 C179 1.233 . S
C1351 C235 1.211 . S
C1356 C307 1.250 . S
C1367 C319 1.267 . S
C1372 C251 1.159 . S
C1383 C263 1.262 . S
C1388 C335 1.154 . S
C1399 C279 1.185 . S
C1404 C291 1.267 . S
C1415 C417 1.248 . S
C1420 C347 1.299 . S
C1431 C361 1.259 . S
C1436 C431 1.293 . S
C1447 C445 1.242 . S
C1452 C375 1.297 . S
C1463 C389 1.302 . S
C1468 C403 1.231 . S
