# Generated by pormake.
# Topology unu, (4)-cn, num edge types: 1
# Building blocks:
#     Node 0, Type 0, BuildingBlock: CEKHIL_clean_sbu_0, # of connection points: 4
#     Node 1, Type 0, BuildingBlock: CEKHIL_clean_sbu_0, # of connection points: 4
#     Node 2, Type 0, BuildingBlock: CEKHIL_clean_sbu_0, # of connection points: 4
#     Node 3, Type 0, BuildingBlock: CEKHIL_clean_sbu_0, # of connection points: 4
#     Node 4, Type 0, BuildingBlock: CEKHIL_clean_sbu_0, # of connection points: 4
#     Node 5, Type 0, BuildingBlock: CEKHIL_clean_sbu_0, # of connection points: 4
#     Node 6, Type 0, BuildingBlock: CEKHIL_clean_sbu_0, # of connection points: 4
#     Node 7, Type 0, BuildingBlock: CEKHIL_clean_sbu_0, # of connection points: 4
#     Node 8, Type 0, BuildingBlock: CEKHIL_clean_sbu_0, # of connection points: 4
#     Node 9, Type 0, BuildingBlock: CEKHIL_clean_sbu_0, # of connection points: 4
#     Node 10, Type 0, BuildingBlock: CEKHIL_clean_sbu_0, # of connection points: 4
#     Node 11, Type 0, BuildingBlock: CEKHIL_clean_sbu_0, # of connection points: 4
#     Node 12, Type 0, BuildingBlock: CEKHIL_clean_sbu_0, # of connection points: 4
#     Node 13, Type 0, BuildingBlock: CEKHIL_clean_sbu_0, # of connection points: 4
#     Node 14, Type 0, BuildingBlock: CEKHIL_clean_sbu_0, # of connection points: 4
#     Node 15, Type 0, BuildingBlock: CEKHIL_clean_sbu_0, # of connection points: 4
#     Node 16, Type 0, BuildingBlock: CEKHIL_clean_sbu_0, # of connection points: 4
#     Node 17, Type 0, BuildingBlock: CEKHIL_clean_sbu_0, # of connection points: 4
#     Node 18, Type 0, BuildingBlock: CEKHIL_clean_sbu_0, # of connection points: 4
#     Node 19, Type 0, BuildingBlock: CEKHIL_clean_sbu_0, # of connection points: 4
#     Node 20, Type 0, BuildingBlock: CEKHIL_clean_sbu_0, # of connection points: 4
#     Node 21, Type 0, BuildingBlock: CEKHIL_clean_sbu_0, # of connection points: 4
#     Node 22, Type 0, BuildingBlock: CEKHIL_clean_sbu_0, # of connection points: 4
#     Node 23, Type 0, BuildingBlock: CEKHIL_clean_sbu_0, # of connection points: 4
#     Node 24, Type 0, BuildingBlock: CEKHIL_clean_sbu_0, # of connection points: 4
#     Node 25, Type 0, BuildingBlock: CEKHIL_clean_sbu_0, # of connection points: 4
#     Node 26, Type 0, BuildingBlock: CEKHIL_clean_sbu_0, # of connection points: 4
#     Node 27, Type 0, BuildingBlock: CEKHIL_clean_sbu_0, # of connection points: 4
#     Node 28, Type 0, BuildingBlock: CEKHIL_clean_sbu_0, # of connection points: 4
#     Node 29, Type 0, BuildingBlock: CEKHIL_clean_sbu_0, # of connection points: 4
#     Node 30, Type 0, BuildingBlock: CEKHIL_clean_sbu_0, # of connection points: 4
#     Node 31, Type 0, BuildingBlock: CEKHIL_clean_sbu_0, # of connection points: 4
#     Node 32, Type 0, BuildingBlock: CEKHIL_clean_sbu_0, # of connection points: 4
#     Node 33, Type 0, BuildingBlock: CEKHIL_clean_sbu_0, # of connection points: 4
#     Node 34, Type 0, BuildingBlock: CEKHIL_clean_sbu_0, # of connection points: 4
#     Node 35, Type 0, BuildingBlock: CEKHIL_clean_sbu_0, # of connection points: 4
#     Edge 36, Type (0, 0), BuildingBlock: MIFKUJ_clean_linker_0, # of connection points: 2
#     Edge 37, Type (0, 0), BuildingBlock: MIFKUJ_clean_linker_0, # of connection points: 2
#     Edge 38, Type (0, 0), BuildingBlock: MIFKUJ_clean_linker_0, # of connection points: 2
#     Edge 39, Type (0, 0), BuildingBlock: MIFKUJ_clean_linker_0, # of connection points: 2
#     Edge 40, Type (0, 0), BuildingBlock: MIFKUJ_clean_linker_0, # of connection points: 2
#     Edge 41, Type (0, 0), BuildingBlock: MIFKUJ_clean_linker_0, # of connection points: 2
#     Edge 42, Type (0, 0), BuildingBlock: MIFKUJ_clean_linker_0, # of connection points: 2
#     Edge 43, Type (0, 0), BuildingBlock: MIFKUJ_clean_linker_0, # of connection points: 2
#     Edge 44, Type (0, 0), BuildingBlock: MIFKUJ_clean_linker_0, # of connection points: 2
#     Edge 45, Type (0, 0), BuildingBlock: MIFKUJ_clean_linker_0, # of connection points: 2
#     Edge 46, Type (0, 0), BuildingBlock: MIFKUJ_clean_linker_0, # of connection points: 2
#     Edge 47, Type (0, 0), BuildingBlock: MIFKUJ_clean_linker_0, # of connection points: 2
#     Edge 48, Type (0, 0), BuildingBlock: MIFKUJ_clean_linker_0, # of connection points: 2
#     Edge 49, Type (0, 0), BuildingBlock: MIFKUJ_clean_linker_0, # of connection points: 2
#     Edge 50, Type (0, 0), BuildingBlock: MIFKUJ_clean_linker_0, # of connection points: 2
#     Edge 51, Type (0, 0), BuildingBlock: MIFKUJ_clean_linker_0, # of connection points: 2
#     Edge 52, Type (0, 0), BuildingBlock: MIFKUJ_clean_linker_0, # of connection points: 2
#     Edge 53, Type (0, 0), BuildingBlock: MIFKUJ_clean_linker_0, # of connection points: 2
#     Edge 54, Type (0, 0), BuildingBlock: MIFKUJ_clean_linker_0, # of connection points: 2
#     Edge 55, Type (0, 0), BuildingBlock: MIFKUJ_clean_linker_0, # of connection points: 2
#     Edge 56, Type (0, 0), BuildingBlock: MIFKUJ_clean_linker_0, # of connection points: 2
#     Edge 57, Type (0, 0), BuildingBlock: MIFKUJ_clean_linker_0, # of connection points: 2
#     Edge 58, Type (0, 0), BuildingBlock: MIFKUJ_clean_linker_0, # of connection points: 2
#     Edge 59, Type (0, 0), BuildingBlock: MIFKUJ_clean_linker_0, # of connection points: 2
#     Edge 60, Type (0, 0), BuildingBlock: MIFKUJ_clean_linker_0, # of connection points: 2
#     Edge 61, Type (0, 0), BuildingBlock: MIFKUJ_clean_linker_0, # of connection points: 2
#     Edge 62, Type (0, 0), BuildingBlock: MIFKUJ_clean_linker_0, # of connection points: 2
#     Edge 63, Type (0, 0), BuildingBlock: MIFKUJ_clean_linker_0, # of connection points: 2
#     Edge 64, Type (0, 0), BuildingBlock: MIFKUJ_clean_linker_0, # of connection points: 2
#     Edge 65, Type (0, 0), BuildingBlock: MIFKUJ_clean_linker_0, # of connection points: 2
#     Edge 66, Type (0, 0), BuildingBlock: MIFKUJ_clean_linker_0, # of connection points: 2
#     Edge 67, Type (0, 0), BuildingBlock: MIFKUJ_clean_linker_0, # of connection points: 2
#     Edge 68, Type (0, 0), BuildingBlock: MIFKUJ_clean_linker_0, # of connection points: 2
#     Edge 69, Type (0, 0), BuildingBlock: MIFKUJ_clean_linker_0, # of connection points: 2
#     Edge 70, Type (0, 0), BuildingBlock: MIFKUJ_clean_linker_0, # of connection points: 2
#     Edge 71, Type (0, 0), BuildingBlock: MIFKUJ_clean_linker_0, # of connection points: 2
#     Edge 72, Type (0, 0), BuildingBlock: MIFKUJ_clean_linker_0, # of connection points: 2
#     Edge 73, Type (0, 0), BuildingBlock: MIFKUJ_clean_linker_0, # of connection points: 2
#     Edge 74, Type (0, 0), BuildingBlock: MIFKUJ_clean_linker_0, # of connection points: 2
#     Edge 75, Type (0, 0), BuildingBlock: MIFKUJ_clean_linker_0, # of connection points: 2
#     Edge 76, Type (0, 0), BuildingBlock: MIFKUJ_clean_linker_0, # of connection points: 2
#     Edge 77, Type (0, 0), BuildingBlock: MIFKUJ_clean_linker_0, # of connection points: 2
#     Edge 78, Type (0, 0), BuildingBlock: MIFKUJ_clean_linker_0, # of connection points: 2
#     Edge 79, Type (0, 0), BuildingBlock: MIFKUJ_clean_linker_0, # of connection points: 2
#     Edge 80, Type (0, 0), BuildingBlock: MIFKUJ_clean_linker_0, # of connection points: 2
#     Edge 81, Type (0, 0), BuildingBlock: MIFKUJ_clean_linker_0, # of connection points: 2
#     Edge 82, Type (0, 0), BuildingBlock: MIFKUJ_clean_linker_0, # of connection points: 2
#     Edge 83, Type (0, 0), BuildingBlock: MIFKUJ_clean_linker_0, # of connection points: 2
#     Edge 84, Type (0, 0), BuildingBlock: MIFKUJ_clean_linker_0, # of connection points: 2
#     Edge 85, Type (0, 0), BuildingBlock: MIFKUJ_clean_linker_0, # of connection points: 2
#     Edge 86, Type (0, 0), BuildingBlock: MIFKUJ_clean_linker_0, # of connection points: 2
#     Edge 87, Type (0, 0), BuildingBlock: MIFKUJ_clean_linker_0, # of connection points: 2
#     Edge 88, Type (0, 0), BuildingBlock: MIFKUJ_clean_linker_0, # of connection points: 2
#     Edge 89, Type (0, 0), BuildingBlock: MIFKUJ_clean_linker_0, # of connection points: 2
#     Edge 90, Type (0, 0), BuildingBlock: MIFKUJ_clean_linker_0, # of connection points: 2
#     Edge 91, Type (0, 0), BuildingBlock: MIFKUJ_clean_linker_0, # of connection points: 2
#     Edge 92, Type (0, 0), BuildingBlock: MIFKUJ_clean_linker_0, # of connection points: 2
#     Edge 93, Type (0, 0), BuildingBlock: MIFKUJ_clean_linker_0, # of connection points: 2
#     Edge 94, Type (0, 0), BuildingBlock: MIFKUJ_clean_linker_0, # of connection points: 2
#     Edge 95, Type (0, 0), BuildingBlock: MIFKUJ_clean_linker_0, # of connection points: 2
#     Edge 96, Type (0, 0), BuildingBlock: MIFKUJ_clean_linker_0, # of connection points: 2
#     Edge 97, Type (0, 0), BuildingBlock: MIFKUJ_clean_linker_0, # of connection points: 2
#     Edge 98, Type (0, 0), BuildingBlock: MIFKUJ_clean_linker_0, # of connection points: 2
#     Edge 99, Type (0, 0), BuildingBlock: MIFKUJ_clean_linker_0, # of connection points: 2
#     Edge 100, Type (0, 0), BuildingBlock: MIFKUJ_clean_linker_0, # of connection points: 2
#     Edge 101, Type (0, 0), BuildingBlock: MIFKUJ_clean_linker_0, # of connection points: 2
#     Edge 102, Type (0, 0), BuildingBlock: MIFKUJ_clean_linker_0, # of connection points: 2
#     Edge 103, Type (0, 0), BuildingBlock: MIFKUJ_clean_linker_0, # of connection points: 2
#     Edge 104, Type (0, 0), BuildingBlock: MIFKUJ_clean_linker_0, # of connection points: 2
#     Edge 105, Type (0, 0), BuildingBlock: MIFKUJ_clean_linker_0, # of connection points: 2
#     Edge 106, Type (0, 0), BuildingBlock: MIFKUJ_clean_linker_0, # of connection points: 2
#     Edge 107, Type (0, 0), BuildingBlock: MIFKUJ_clean_linker_0, # of connection points: 2
# Relax obj value: 0.188
# Max RMSD: 0.232
# Mean RMSD: 0.232
data_MOF--net-unu--node1-CEKHIL_clean_sbu_0--edge1-MIFKUJ_clean_linker_0
_symmetry_space_group_name_H-M    P1
_symmetry_Int_Tables_number       1
_symmetry_cell_setting            triclinic
loop_
_symmetry_equiv_pos_as_xyz
'x, y, z'
_cell_length_a     56.367869
_cell_length_b     56.347791
_cell_length_c     129.1768
_cell_angle_alpha  89.978962
_cell_angle_beta   90.00883
_cell_angle_gamma 119.99784
loop_
_atom_site_label
_atom_site_type_symbol
_atom_site_fract_x
_atom_site_fract_y
_atom_site_fract_z
_atom_type_partial_charge
Co0 Co 0.20812 0.0283 0.11485 0.0
O1 O 0.23171 0.01304 0.11385 0.0
O2 O 0.23802 0.05011 0.10546 0.0
C3 C 0.16818 0.98886 0.11303 0.0
O4 O 0.18743 0.04935 0.11391 0.0
Co5 Co 0.16742 0.01174 0.13326 0.0
O6 O 0.15038 0.02754 0.12419 0.0
C7 C 0.22571 0.05214 0.1366 0.0
C8 C 0.24635 0.03281 0.10748 0.0
C9 C 0.16399 0.045 0.11716 0.0
O10 O 0.2302 0.05148 0.12688 0.0
O11 O 0.20235 0.03677 0.14083 0.0
O12 O 0.18253 0.00175 0.10493 0.0
O13 O 0.17986 0.99848 0.12186 0.0
Co14 Co 0.97401 0.1817 0.11637 0.0
O15 O 0.98468 0.21943 0.11454 0.0
O16 O 0.94925 0.18473 0.10671 0.0
C17 C 0.01557 0.18577 0.11464 0.0
O18 O 0.95777 0.14015 0.11645 0.0
Co19 Co 0.99607 0.16663 0.13589 0.0
O20 O 0.97972 0.13056 0.12892 0.0
C21 C 0.95025 0.17697 0.13815 0.0
C22 C 0.96404 0.21101 0.10829 0.0
C23 C 0.96286 0.12328 0.1214 0.0
O24 O 0.94981 0.17925 0.12827 0.0
O25 O 0.96832 0.17363 0.14289 0.0
O26 O 0.00148 0.18468 0.10652 0.0
O27 O 0.0059 0.18842 0.12337 0.0
Co28 Co 0.81809 0.78961 0.11763 0.0
O29 O 0.77895 0.77019 0.11711 0.0
O30 O 0.80532 0.75842 0.10838 0.0
C31 C 0.82447 0.83213 0.11577 0.0
O32 O 0.85949 0.80592 0.11626 0.0
Co33 Co 0.84535 0.82878 0.1364 0.0
O34 O 0.87934 0.83801 0.12877 0.0
C35 C 0.8217 0.7696 0.13937 0.0
C36 C 0.78076 0.75341 0.11074 0.0
C37 C 0.88069 0.82504 0.12092 0.0
O38 O 0.817 0.76612 0.12959 0.0
O39 O 0.83111 0.79289 0.14381 0.0
O40 O 0.81999 0.81666 0.10772 0.0
O41 O 0.82126 0.82013 0.12461 0.0
Co42 Co 0.02919 0.20685 0.3807 0.0
O43 O 0.01314 0.22982 0.37995 0.0
O44 O 0.04724 0.23685 0.39042 0.0
C45 C 0.98982 0.16642 0.38132 0.0
O46 O 0.05024 0.18682 0.38369 0.0
Co47 Co 0.01954 0.1662 0.36275 0.0
O48 O 0.03276 0.14984 0.37326 0.0
C49 C 0.05995 0.22478 0.3601 0.0
C50 C 0.03033 0.24459 0.38712 0.0
C51 C 0.04746 0.1636 0.38092 0.0
O52 O 0.05612 0.22919 0.36956 0.0
O53 O 0.04624 0.20136 0.35571 0.0
O54 O -0.00039 0.18105 0.38965 0.0
O55 O 0.00229 0.17813 0.37282 0.0
Co56 Co 0.78825 0.81735 0.38428 0.0
O57 O 0.76231 0.78006 0.38767 0.0
O58 O 0.76152 0.8164 0.39394 0.0
C59 C 0.82668 0.81493 0.38617 0.0
O60 O 0.8123 0.85876 0.38274 0.0
Co61 Co 0.82374 0.82963 0.3645 0.0
O62 O 0.84366 0.86707 0.37038 0.0
C63 C 0.76692 0.81777 0.36246 0.0
C64 C 0.75063 0.78992 0.39353 0.0
C65 C 0.83388 0.8752 0.37755 0.0
O66 O 0.76456 0.81598 0.37237 0.0
O67 O 0.78855 0.82192 0.35767 0.0
O68 O 0.81445 0.81783 0.39419 0.0
O69 O 0.81334 0.80985 0.37753 0.0
Co70 Co 0.17735 0.96848 0.38373 0.0
O71 O 0.21603 0.98347 0.38494 0.0
O72 O 0.18513 0.94535 0.39266 0.0
C73 C 0.17703 0.00771 0.38637 0.0
O74 O 0.13551 0.94783 0.38427 0.0
Co75 Co 0.15593 0.98804 0.36538 0.0
O76 O 0.12209 0.97107 0.37389 0.0
C77 C 0.17218 0.94674 0.36158 0.0
C78 C 0.21085 0.96294 0.3909 0.0
C79 C 0.11708 0.95291 0.38077 0.0
O80 O 0.1766 0.94656 0.37133 0.0
O81 O 0.16533 0.96311 0.35745 0.0
O82 O 0.17776 0.99356 0.39417 0.0
O83 O 0.17987 -0.00044 0.37733 0.0
Co84 Co 0.79002 0.97401 0.88366 0.0
O85 O 0.76721 0.99014 0.88408 0.0
O86 O 0.75879 0.95265 0.89264 0.0
C87 C 0.83015 0.01307 0.88583 0.0
O88 O 0.81012 0.95244 0.88521 0.0
Co89 Co 0.83179 0.98963 0.86571 0.0
O90 O 0.84814 0.97448 0.87542 0.0
C91 C 0.7739 0.94891 0.86197 0.0
C92 C 0.75148 0.97061 0.89036 0.0
C93 C 0.834 0.95707 0.88238 0.0
O94 O 0.76875 0.95074 0.87153 0.0
O95 O 0.79762 0.96361 0.85791 0.0
O96 O 0.81488 0.00038 0.89376 0.0
O97 O 0.81925 0.00355 0.87687 0.0
Co98 Co 0.02836 0.82207 0.88261 0.0
O99 O 0.01175 0.78306 0.88282 0.0
O100 O 0.04835 0.81138 0.89197 0.0
C101 C 0.98934 0.8235 0.88415 0.0
O102 O 0.05012 0.86359 0.88449 0.0
Co103 Co 0.01526 0.84965 0.86442 0.0
O104 O 0.03008 0.8809 0.87424 0.0
C105 C 0.05547 0.8315 0.86128 0.0
C106 C 0.03034 0.7863 0.88947 0.0
C107 C 0.04634 0.88329 0.88154 0.0
O108 O 0.05283 0.82436 0.87085 0.0
O109 O 0.04126 0.84079 0.85699 0.0
O110 O 0.00108 0.8204 0.89228 0.0
O111 O -0.00022 0.82252 0.87535 0.0
Co112 Co 0.17915 0.21305 0.8828 0.0
O113 O 0.21817 0.23481 0.88278 0.0
O114 O 0.19078 0.24453 0.89185 0.0
C115 C 0.17641 0.17213 0.88475 0.0
O116 O 0.13769 0.1939 0.8848 0.0
Co117 Co 0.15139 0.17212 0.86471 0.0
O118 O 0.12059 0.15619 0.87475 0.0
C119 C 0.17082 0.2305 0.8612 0.0
C120 C 0.21562 0.25109 0.88918 0.0
C121 C 0.11813 0.17015 0.88201 0.0
O122 O 0.1771 0.2349 0.87085 0.0
O123 O 0.16179 0.20698 0.85697 0.0
O124 O 0.18029 0.18767 0.89274 0.0
O125 O 0.17791 0.18328 0.87584 0.0
Co126 Co 0.96665 0.79026 0.61522 0.0
O127 O 0.98131 0.7662 0.61678 0.0
O128 O 0.9473 0.75889 0.60619 0.0
C129 C 0.0069 0.82966 0.61387 0.0
O130 O 0.94667 0.81091 0.61149 0.0
Co131 Co 0.97841 0.83462 0.63187 0.0
O132 O 0.9662 0.85012 0.62065 0.0
C133 C 0.93603 0.7772 0.63583 0.0
C134 C 0.96343 0.75068 0.60993 0.0
C135 C 0.95058 0.83503 0.61342 0.0
O136 O 0.93987 0.77051 0.62672 0.0
O137 O 0.95005 0.80144 0.63954 0.0
O138 O 0.99631 0.81392 0.60585 0.0
O139 O 0.9945 0.81966 0.62256 0.0
Co140 Co 0.20924 0.17752 0.61366 0.0
O141 O 0.23289 0.21569 0.61093 0.0
O142 O 0.23793 0.18221 0.60418 0.0
C143 C 0.16913 0.17622 0.61154 0.0
O144 O 0.18812 0.13586 0.61466 0.0
Co145 Co 0.17223 0.16129 0.63319 0.0
O146 O 0.15713 0.12378 0.62751 0.0
C147 C 0.23063 0.17989 0.63567 0.0
C148 C 0.24669 0.20831 0.60505 0.0
C149 C 0.16795 0.11773 0.62005 0.0
O150 O 0.23285 0.18006 0.62577 0.0
O151 O 0.20854 0.17511 0.64026 0.0
O152 O 0.18259 0.17517 0.60357 0.0
O153 O 0.1819 0.18165 0.6203 0.0
Co154 Co 0.82063 0.02765 0.61452 0.0
O155 O 0.78209 0.01478 0.614 0.0
O156 O 0.81402 0.05219 0.60609 0.0
C157 C 0.81842 0.98748 0.6112 0.0
O158 O 0.86215 0.04663 0.61321 0.0
Co159 Co 0.84348 0.00596 0.63165 0.0
O160 O 0.87634 0.02238 0.62259 0.0
C161 C 0.83016 0.04886 0.63682 0.0
C162 C 0.78824 0.03574 0.60813 0.0
C163 C 0.88069 0.04096 0.616 0.0
O164 O 0.82417 0.04964 0.62727 0.0
O165 O 0.83679 0.0317 0.64033 0.0
O166 O 0.81751 0.00232 0.60369 0.0
O167 O 0.8173 0.99565 0.62045 0.0
Co168 Co 0.87471 0.36279 0.45176 0.0
O169 O 0.90002 0.34942 0.4511 0.0
O170 O 0.90168 0.38225 0.44112 0.0
C171 C 0.83573 0.32193 0.45209 0.0
O172 O 0.85149 0.38102 0.45012 0.0
Co173 Co 0.83946 0.35087 0.47171 0.0
O174 O 0.82375 0.37026 0.46404 0.0
C175 C 0.89751 0.39314 0.47224 0.0
C176 C 0.91194 0.36687 0.44365 0.0
C177 C 0.83242 0.3819 0.4553 0.0
O178 O 0.89863 0.39097 0.46236 0.0
O179 O 0.87643 0.37708 0.47762 0.0
O180 O 0.84826 0.33213 0.4434 0.0
O181 O 0.84895 0.33486 0.46032 0.0
Co182 Co 0.63545 0.51341 0.44883 0.0
O183 O 0.65464 0.55233 0.44722 0.0
O184 O 0.61435 0.52415 0.44013 0.0
C185 C 0.67077 0.50649 0.44592 0.0
O186 O 0.61051 0.47197 0.44866 0.0
Co187 Co 0.65191 0.48961 0.46743 0.0
O188 O 0.62611 0.45426 0.46079 0.0
C189 C 0.61738 0.51387 0.47124 0.0
C190 C 0.6342 0.54916 0.4416 0.0
C191 C 0.60994 0.45158 0.4534 0.0
O192 O 0.61626 0.51677 0.46141 0.0
O193 O 0.63219 0.50511 0.47538 0.0
O194 O 0.65769 0.50942 0.43819 0.0
O195 O 0.66463 0.51168 0.45496 0.0
Co196 Co 0.48678 0.12644 0.44836 0.0
O197 O 0.44791 0.10475 0.44728 0.0
O198 O 0.47685 0.09483 0.43948 0.0
C199 C 0.48914 0.16704 0.44573 0.0
O200 O 0.52867 0.14586 0.44769 0.0
Co201 Co 0.51035 0.1678 0.46663 0.0
O202 O 0.54354 0.18319 0.45783 0.0
C203 C 0.49202 0.1097 0.47047 0.0
C204 C 0.4516 0.08862 0.44121 0.0
C205 C 0.54778 0.16928 0.45104 0.0
O206 O 0.48652 0.10475 0.46078 0.0
O207 O 0.50052 0.13335 0.47451 0.0
O208 O 0.48734 0.15172 0.43792 0.0
O209 O 0.48629 0.15596 0.45475 0.0
Co210 Co 0.69931 0.5433 0.7178 0.0
O211 O 0.68933 0.57024 0.72105 0.0
O212 O 0.72588 0.57003 0.72732 0.0
C213 C 0.65823 0.50575 0.7201 0.0
O214 O 0.71484 0.51768 0.71612 0.0
Co215 Co 0.67337 0.50887 0.69794 0.0
O216 O 0.69085 0.48823 0.70328 0.0
C217 C 0.71768 0.56539 0.69585 0.0
C218 C 0.71092 0.58166 0.72687 0.0
C219 C 0.7086 0.49637 0.71053 0.0
O220 O 0.72142 0.56599 0.70567 0.0
O221 O 0.69761 0.54538 0.6912 0.0
O222 O 0.6739 0.51805 0.72798 0.0
O223 O 0.66595 0.51888 0.71141 0.0
Co224 Co 0.45429 0.15674 0.7172 0.0
O225 O 0.42949 0.11807 0.71739 0.0
O226 O 0.4242 0.14826 0.7266 0.0
C227 C 0.49296 0.15467 0.71884 0.0
O228 O 0.47653 0.19826 0.71895 0.0
Co229 Co 0.49588 0.1816 0.69905 0.0
O230 O 0.51337 0.2136 0.70852 0.0
C231 C 0.43837 0.16674 0.6957 0.0
C232 C 0.41521 0.12278 0.72408 0.0
C233 C 0.50013 0.21723 0.71576 0.0
O234 O 0.43353 0.16098 0.70538 0.0
O235 O 0.46143 0.17348 0.69145 0.0
O236 O 0.4785 0.1528 0.72694 0.0
O237 O 0.48205 0.15467 0.71003 0.0
Co238 Co 0.83119 0.28491 0.71787 0.0
O239 O 0.86981 0.30976 0.71913 0.0
O240 O 0.84691 0.27029 0.72751 0.0
C241 C 0.81702 0.31584 0.71918 0.0
O242 O 0.79132 0.25467 0.71866 0.0
Co243 Co 0.80179 0.29047 0.69838 0.0
O244 O 0.76917 0.25995 0.70508 0.0
C245 C 0.8351 0.26426 0.69629 0.0
C246 C 0.87021 0.29223 0.72555 0.0
C247 C 0.7696 0.24746 0.71326 0.0
O248 O 0.83803 0.26535 0.70618 0.0
O249 O 0.82338 0.27547 0.69149 0.0
O250 O 0.82306 0.30678 0.72744 0.0
O251 O 0.8233 0.30884 0.71052 0.0
Co252 Co 0.45643 0.3025 0.21517 0.0
O253 O 0.43056 0.31513 0.21477 0.0
O254 O 0.42696 0.28148 0.22481 0.0
C255 C 0.49471 0.34381 0.21616 0.0
O256 O 0.47966 0.28456 0.21771 0.0
Co257 Co 0.49771 0.31707 0.19706 0.0
O258 O 0.51628 0.30528 0.20716 0.0
C259 C 0.44051 0.27325 0.19423 0.0
C260 C 0.41693 0.29668 0.22174 0.0
C261 C 0.50354 0.28955 0.21474 0.0
O262 O 0.43579 0.27565 0.20379 0.0
O263 O 0.46354 0.28889 0.18983 0.0
O264 O 0.48026 0.33234 0.2244 0.0
O265 O 0.48379 0.33158 0.20752 0.0
Co266 Co 0.69784 0.15485 0.21504 0.0
O267 O 0.68087 0.11602 0.21699 0.0
O268 O 0.71957 0.1468 0.22449 0.0
C269 C 0.66039 0.15866 0.21716 0.0
O270 O 0.72064 0.19654 0.21501 0.0
Co271 Co 0.68089 0.17638 0.19592 0.0
O272 O 0.70486 0.21259 0.20235 0.0
C273 C 0.71911 0.15586 0.19308 0.0
C274 C 0.70104 0.1212 0.22317 0.0
C275 C 0.72066 0.2163 0.20999 0.0
O276 O 0.71917 0.15265 0.20293 0.0
O277 O 0.70372 0.1634 0.18859 0.0
O278 O 0.67374 0.15749 0.22514 0.0
O279 O 0.66782 0.15391 0.20828 0.0
Co280 Co 0.84272 0.54064 0.2172 0.0
O281 O 0.88107 0.56632 0.21852 0.0
O282 O 0.84812 0.57011 0.22642 0.0
C283 C 0.84471 0.50207 0.21946 0.0
O284 O 0.80098 0.51741 0.21761 0.0
Co285 Co 0.82373 0.50055 0.19847 0.0
O286 O 0.78849 0.48322 0.20608 0.0
C287 C 0.83691 0.55745 0.19518 0.0
C288 C 0.87412 0.58009 0.22462 0.0
C289 C 0.78278 0.49498 0.2133 0.0
O290 O 0.84074 0.56171 0.20497 0.0
O291 O 0.83154 0.53483 0.19088 0.0
O292 O 0.84485 0.51626 0.2274 0.0
O293 O 0.84709 0.51355 0.21055 0.0
Co294 Co 0.63148 0.12321 0.94987 0.0
O295 O 0.64797 0.10082 0.94896 0.0
O296 O 0.60981 0.09203 0.94086 0.0
C297 C 0.67 0.16355 0.94747 0.0
O298 O 0.6096 0.14312 0.94892 0.0
Co299 Co 0.64836 0.16417 0.96816 0.0
O300 O 0.632 0.18051 0.95903 0.0
C301 C 0.60877 0.10602 0.97185 0.0
C302 C 0.62818 0.08503 0.9428 0.0
C303 C 0.61429 0.16677 0.9521 0.0
O304 O 0.6093 0.10152 0.96212 0.0
O305 O 0.62405 0.12948 0.97601 0.0
O306 O 0.65678 0.14837 0.93959 0.0
O307 O 0.66143 0.15243 0.95646 0.0
Co308 Co 0.87456 0.51159 0.95162 0.0
O309 O 0.89615 0.55076 0.95121 0.0
O310 O 0.90408 0.52268 0.94172 0.0
C311 C 0.83305 0.50823 0.951 0.0
O312 O 0.85584 0.47021 0.94979 0.0
Co313 Co 0.83695 0.48416 0.97076 0.0
O314 O 0.82466 0.45023 0.96257 0.0
C315 C 0.89599 0.50493 0.97259 0.0
C316 C 0.91103 0.54769 0.94427 0.0
C317 C 0.83645 0.44906 0.95433 0.0
O318 O 0.89863 0.51017 0.96284 0.0
O319 O 0.87342 0.49663 0.97746 0.0
O320 O 0.84712 0.51219 0.94257 0.0
O321 O 0.84593 0.50999 0.95951 0.0
Co322 Co 0.48414 0.36487 0.94547 0.0
O323 O 0.44736 0.35276 0.94111 0.0
O324 O 0.48409 0.39072 0.93559 0.0
C325 C 0.48271 0.32436 0.94396 0.0
O326 O 0.52524 0.38293 0.94803 0.0
Co327 Co 0.4931 0.34142 0.96591 0.0
O328 O 0.53202 0.36162 0.96152 0.0
C329 C 0.47803 0.38416 0.96699 0.0
C330 C 0.45767 0.37451 0.93535 0.0
C331 C 0.54104 0.37908 0.95416 0.0
O332 O 0.48028 0.38643 0.9571 0.0
O333 O 0.48017 0.36576 0.97205 0.0
O334 O 0.48679 0.33965 0.93588 0.0
O335 O 0.47617 0.33235 0.95233 0.0
Co336 Co 0.54511 0.69123 0.7862 0.0
O337 O 0.56629 0.67327 0.78724 0.0
O338 O 0.57719 0.70962 0.77743 0.0
C339 C 0.50362 0.65378 0.78415 0.0
O340 O 0.5274 0.7144 0.78309 0.0
Co341 Co 0.50242 0.68088 0.80342 0.0
O342 O 0.48934 0.69747 0.79296 0.0
C343 C 0.56074 0.71913 0.80746 0.0
C344 C 0.58319 0.69142 0.78074 0.0
C345 C 0.50443 0.71256 0.78562 0.0
O346 O 0.56618 0.7159 0.79808 0.0
O347 O 0.53666 0.70583 0.81136 0.0
O348 O 0.52018 0.66406 0.77633 0.0
O349 O 0.51415 0.66403 0.79309 0.0
Co350 Co 0.30689 0.84361 0.78567 0.0
O351 O 0.32538 0.88278 0.78546 0.0
O352 O 0.28798 0.85591 0.77644 0.0
C353 C 0.34406 0.83888 0.78379 0.0
O354 O 0.28317 0.8021 0.78397 0.0
Co355 Co 0.31908 0.81622 0.80424 0.0
O356 O 0.30007 0.78364 0.79519 0.0
C357 C 0.2813 0.83718 0.80724 0.0
C358 C 0.30682 0.88062 0.779 0.0
C359 C 0.28445 0.78149 0.78766 0.0
O360 O 0.28347 0.84305 0.79754 0.0
O361 O 0.29518 0.82775 0.81168 0.0
O362 O 0.33289 0.84339 0.7758 0.0
O363 O 0.33477 0.84119 0.79267 0.0
Co364 Co 0.15368 0.46003 0.78073 0.0
O365 O 0.1155 0.43332 0.77968 0.0
O366 O 0.14873 0.43169 0.77104 0.0
C367 C 0.14952 0.49758 0.77915 0.0
O368 O 0.1952 0.48454 0.77977 0.0
Co369 Co 0.17422 0.49978 0.79946 0.0
O370 O 0.2069 0.52024 0.79049 0.0
C371 C 0.16197 0.44286 0.80231 0.0
C372 C 0.12273 0.42086 0.77305 0.0
C373 C 0.21253 0.50852 0.78324 0.0
O374 O 0.15766 0.43894 0.79253 0.0
O375 O 0.16719 0.46527 0.80678 0.0
O376 O 0.14933 0.48395 0.77102 0.0
O377 O 0.14881 0.48622 0.78795 0.0
Co378 Co 0.36472 0.87081 0.0507 0.0
O379 O 0.3492 0.89413 0.05162 0.0
O380 O 0.38645 0.90098 0.06005 0.0
C381 C 0.32569 0.8305 0.05264 0.0
O382 O 0.38589 0.85015 0.05153 0.0
Co383 Co 0.34794 0.83156 0.03177 0.0
O384 O 0.36662 0.81583 0.03989 0.0
C385 C 0.38756 0.88989 0.02884 0.0
C386 C 0.36908 0.90913 0.05789 0.0
C387 C 0.38311 0.82811 0.04735 0.0
O388 O 0.3878 0.89313 0.03869 0.0
O389 O 0.37152 0.86714 0.02435 0.0
O390 O 0.33835 0.84525 0.06068 0.0
O391 O 0.33498 0.84227 0.04378 0.0
Co392 Co 0.12581 0.48255 0.04942 0.0
O393 O 0.10221 0.44391 0.05108 0.0
O394 O 0.09587 0.47566 0.05863 0.0
C395 C 0.16611 0.48414 0.05171 0.0
O396 O 0.14679 0.52436 0.04947 0.0
Co397 Co 0.16443 0.5018 0.03025 0.0
O398 O 0.17924 0.53793 0.0371 0.0
C399 C 0.10655 0.4846 0.02736 0.0
C400 C 0.08744 0.4498 0.05708 0.0
C401 C 0.1677 0.54312 0.04456 0.0
O402 O 0.10348 0.48225 0.03723 0.0
O403 O 0.12896 0.49019 0.02284 0.0
O404 O 0.1514 0.48298 0.05963 0.0
O405 O 0.15411 0.48014 0.04281 0.0
Co406 Co 0.51406 0.63598 0.04749 0.0
O407 O 0.55165 0.64527 0.04783 0.0
O408 O 0.51834 0.61114 0.05667 0.0
C409 C 0.5207 0.67854 0.04964 0.0
O410 O 0.47306 0.62133 0.04905 0.0
Co411 Co 0.49504 0.65839 0.0292 0.0
O412 O 0.46166 0.64465 0.03786 0.0
C413 C 0.5027 0.6112 0.02569 0.0
C414 C 0.54426 0.62526 0.05434 0.0
C415 C 0.45579 0.62771 0.0453 0.0
O416 O 0.50709 0.61066 0.03543 0.0
O417 O 0.49969 0.63005 0.02144 0.0
O418 O 0.52108 0.66451 0.05754 0.0
O419 O 0.5202 0.66796 0.04069 0.0
Co420 Co 0.12515 0.63859 0.55205 0.0
O421 O 0.10002 0.65149 0.55437 0.0
O422 O 0.09619 0.6137 0.5613 0.0
C423 C 0.16413 0.67854 0.55457 0.0
O424 O 0.14808 0.61983 0.55135 0.0
Co425 Co 0.16342 0.66164 0.53288 0.0
O426 O 0.1808 0.64215 0.53932 0.0
C427 C 0.10612 0.61899 0.52983 0.0
C428 C 0.08649 0.63025 0.56026 0.0
C429 C 0.16982 0.62418 0.54645 0.0
O430 O 0.10308 0.61698 0.53971 0.0
O431 O 0.12813 0.63715 0.52543 0.0
O432 O 0.1503 0.6636 0.56241 0.0
O433 O 0.15203 0.67077 0.54569 0.0
Co434 Co 0.36337 0.48915 0.54873 0.0
O435 O 0.34952 0.45045 0.54779 0.0
O436 O 0.3829 0.47859 0.55829 0.0
C437 C 0.32264 0.48745 0.54947 0.0
O438 O 0.38218 0.53008 0.55194 0.0
Co439 Co 0.35131 0.51893 0.53099 0.0
O440 O 0.36258 0.54785 0.5417 0.0
C441 C 0.39434 0.50439 0.52814 0.0
C442 C 0.36715 0.45376 0.55491 0.0
C443 C 0.37762 0.54951 0.54934 0.0
O444 O 0.39095 0.49593 0.53756 0.0
O445 O 0.37943 0.5128 0.52381 0.0
O446 O 0.33304 0.4831 0.55773 0.0
O447 O 0.33547 0.48931 0.54094 0.0
Co448 Co 0.51103 0.87952 0.54826 0.0
O449 O 0.55018 0.90076 0.54925 0.0
O450 O 0.5214 0.91047 0.55735 0.0
C451 C 0.50627 0.83778 0.55058 0.0
O452 O 0.4695 0.86164 0.54927 0.0
Co453 Co 0.48551 0.83914 0.52973 0.0
O454 O 0.45067 0.82919 0.53686 0.0
C455 C 0.50691 0.89784 0.52628 0.0
C456 C 0.54656 0.91679 0.55544 0.0
C457 C 0.4487 0.84215 0.54459 0.0
O458 O 0.51171 0.90207 0.53603 0.0
O459 O 0.49816 0.87438 0.52205 0.0
O460 O 0.50972 0.85346 0.55847 0.0
O461 O 0.50967 0.84928 0.5416 0.0
Co462 Co 0.30322 0.45886 0.28136 0.0
O463 O 0.31993 0.4365 0.28033 0.0
O464 O 0.28174 0.42818 0.2723 0.0
C465 C 0.34148 0.49976 0.27912 0.0
O466 O 0.28048 0.47768 0.28039 0.0
Co467 Co 0.31889 0.50047 0.29943 0.0
O468 O 0.30114 0.5155 0.29035 0.0
C469 C 0.28063 0.44185 0.30331 0.0
C470 C 0.29992 0.42094 0.27417 0.0
C471 C 0.28374 0.50082 0.28347 0.0
O472 O 0.28125 0.43689 0.29363 0.0
O473 O 0.29526 0.46566 0.30731 0.0
O474 O 0.32862 0.4846 0.27118 0.0
O475 O 0.33267 0.4884 0.28806 0.0
Co476 Co 0.53826 0.84681 0.28661 0.0
O477 O 0.56112 0.88588 0.28636 0.0
O478 O 0.56884 0.85697 0.2773 0.0
C479 C 0.49758 0.84482 0.28478 0.0
O480 O 0.51842 0.80524 0.28493 0.0
Co481 Co 0.49757 0.82091 0.30507 0.0
O482 O 0.48532 0.78674 0.29711 0.0
C483 C 0.5556 0.83798 0.30815 0.0
C484 C 0.5764 0.88215 0.27981 0.0
C485 C 0.49797 0.78458 0.28931 0.0
O486 O 0.56017 0.84449 0.29851 0.0
O487 O 0.53234 0.82979 0.31247 0.0
O488 O 0.51288 0.84838 0.27676 0.0
O489 O 0.50901 0.84647 0.29364 0.0
Co490 Co 0.14677 0.69246 0.28378 0.0
O491 O 0.10835 0.6782 0.28196 0.0
O492 O 0.14062 0.71496 0.27392 0.0
C493 C 0.14656 0.65258 0.28237 0.0
O494 O 0.18868 0.71205 0.28388 0.0
Co495 Co 0.16405 0.67365 0.30367 0.0
O496 O 0.20047 0.69336 0.29696 0.0
C497 C 0.14871 0.71609 0.30539 0.0
C498 C 0.11463 0.69815 0.27555 0.0
C499 C 0.20665 0.70948 0.28922 0.0
O500 O 0.14699 0.71618 0.29547 0.0
O501 O 0.15327 0.69907 0.31033 0.0
O502 O 0.14633 0.66569 0.27413 0.0
O503 O 0.14299 0.66197 0.291 0.0
H504 H 0.22257 0.06958 0.15608 0.0
H505 H 0.2595 0.10642 0.16604 0.0
H506 H 0.31691 0.1183 0.14176 0.0
H507 H 0.28018 0.08151 0.13173 0.0
H508 H 0.33765 0.11996 0.16147 0.0
H509 H 0.29277 0.16017 0.14289 0.0
H510 H 0.25329 0.1643 0.13713 0.0
H511 H 0.23636 0.17544 0.1686 0.0
H512 H 0.27552 0.17093 0.17457 0.0
H513 H 0.44447 0.25313 0.17538 0.0
H514 H 0.40806 0.21466 0.16583 0.0
H515 H 0.35023 0.20393 0.18979 0.0
H516 H 0.38638 0.24235 0.19938 0.0
H517 H 0.32966 0.20141 0.1703 0.0
H518 H 0.37529 0.16194 0.18883 0.0
H519 H 0.41447 0.15715 0.1945 0.0
H520 H 0.43005 0.14456 0.16302 0.0
H521 H 0.39124 0.14974 0.15713 0.0
C522 C 0.24309 0.07979 0.1529 0.0
C523 C 0.24837 0.0727 0.14307 0.0
C524 C 0.26414 0.10092 0.15858 0.0
C525 C 0.29082 0.11524 0.15457 0.0
C526 C 0.29641 0.10752 0.14496 0.0
C527 C 0.27536 0.08656 0.13923 0.0
C528 C 0.31274 0.1389 0.16023 0.0
C529 C 0.3361 0.13793 0.1633 0.0
C530 C 0.31038 0.16206 0.16275 0.0
C531 C 0.28689 0.1649 0.15919 0.0
C532 C 0.28048 0.16325 0.14859 0.0
C533 C 0.25819 0.1657 0.14529 0.0
C534 C 0.24227 0.17004 0.1525 0.0
C535 C 0.24867 0.17202 0.16303 0.0
C536 C 0.27092 0.16953 0.16638 0.0
C537 C 0.42399 0.24271 0.17859 0.0
C538 C 0.41838 0.25078 0.18816 0.0
C539 C 0.40325 0.22064 0.17315 0.0
C540 C 0.37655 0.20631 0.17716 0.0
C541 C 0.37074 0.21469 0.18658 0.0
C542 C 0.39146 0.2366 0.19206 0.0
C543 C 0.35463 0.18251 0.17156 0.0
C544 C 0.33124 0.18345 0.16848 0.0
C545 C 0.357 0.15935 0.16901 0.0
C546 C 0.38053 0.15652 0.17253 0.0
C547 C 0.38725 0.15845 0.1831 0.0
C548 C 0.40936 0.15561 0.18635 0.0
C549 C 0.42476 0.15061 0.17912 0.0
C550 C 0.41812 0.14847 0.16861 0.0
C551 C 0.39607 0.15135 0.16531 0.0
H552 H 0.44174 0.14824 0.18165 0.0
H553 H 0.22502 0.17195 0.14992 0.0
H554 H 0.73391 0.17144 0.17293 0.0
H555 H 0.77218 0.17298 0.16353 0.0
H556 H 0.7894 0.13603 0.18958 0.0
H557 H 0.7515 0.1349 0.19913 0.0
H558 H 0.8346 0.18022 0.18322 0.0
H559 H 0.76194 0.10056 0.16674 0.0
H560 H 0.7182 0.07394 0.15742 0.0
H561 H 0.74967 0.13058 0.13201 0.0
H562 H 0.79348 0.15775 0.14124 0.0
H563 H 0.93462 0.15891 0.15803 0.0
H564 H 0.89467 0.15408 0.16729 0.0
H565 H 0.87492 0.18915 0.14129 0.0
H566 H 0.9144 0.1934 0.13187 0.0
H567 H 0.8307 0.14498 0.14771 0.0
H568 H 0.90254 0.22527 0.16416 0.0
H569 H 0.94627 0.2527 0.1734 0.0
H570 H 0.91635 0.19584 0.19877 0.0
H571 H 0.87255 0.16787 0.18961 0.0
C572 C 0.7455 0.16318 0.17661 0.0
C573 C 0.73966 0.15314 0.18681 0.0
C574 C 0.76739 0.16404 0.1712 0.0
C575 C 0.78362 0.15453 0.17583 0.0
C576 C 0.77722 0.14358 0.18587 0.0
C577 C 0.75546 0.14286 0.1913 0.0
C578 C 0.80828 0.15758 0.17048 0.0
C579 C 0.83368 0.17211 0.17552 0.0
C580 C 0.80721 0.14774 0.16032 0.0
C581 C 0.78092 0.13132 0.15472 0.0
C582 C 0.75947 0.10745 0.1592 0.0
C583 C 0.73467 0.09224 0.15392 0.0
C584 C 0.73114 0.1006 0.14414 0.0
C585 C 0.75243 0.12414 0.13959 0.0
C586 C 0.77726 0.13944 0.14484 0.0
C587 C 0.92199 0.16592 0.15432 0.0
C588 C 0.92772 0.17653 0.1442 0.0
C589 C 0.89915 0.16317 0.15964 0.0
C590 C 0.88188 0.17142 0.15501 0.0
C591 C 0.88789 0.18255 0.14499 0.0
C592 C 0.91054 0.18505 0.13964 0.0
C593 C 0.85702 0.16763 0.16045 0.0
C594 C 0.8316 0.153 0.15543 0.0
C595 C 0.85808 0.17749 0.17062 0.0
C596 C 0.88436 0.19434 0.17615 0.0
C597 C 0.90536 0.21851 0.17167 0.0
C598 C 0.93015 0.23417 0.1769 0.0
C599 C 0.93411 0.22598 0.18665 0.0
C600 C 0.91326 0.20214 0.19121 0.0
C601 C 0.88845 0.18639 0.18601 0.0
H602 H 0.95332 0.23813 0.19069 0.0
H603 H 0.71192 0.0888 0.14007 0.0
H604 H 0.85766 0.6114 0.20014 0.0
H605 H 0.85315 0.64598 0.19035 0.0
H606 H 0.81049 0.58713 0.16611 0.0
H607 H 0.81552 0.55254 0.17574 0.0
H608 H 0.84471 0.6357 0.15806 0.0
H609 H 0.77576 0.60247 0.18445 0.0
H610 H 0.75804 0.59081 0.20229 0.0
H611 H 0.80772 0.675 0.21131 0.0
H612 H 0.82616 0.68713 0.19358 0.0
H613 H 0.79611 0.71554 0.13369 0.0
H614 H 0.79571 0.67771 0.14309 0.0
H615 H 0.84004 0.73237 0.16826 0.0
H616 H 0.84 0.77017 0.15905 0.0
H617 H 0.80212 0.68369 0.17547 0.0
H618 H 0.8729 0.71607 0.14928 0.0
H619 H 0.89076 0.72756 0.13145 0.0
H620 H 0.83684 0.64439 0.12203 0.0
H621 H 0.81841 0.6325 0.13978 0.0
C622 C 0.84751 0.60584 0.19268 0.0
C623 C 0.83676 0.57913 0.18876 0.0
C624 C 0.84482 0.6256 0.18712 0.0
C625 C 0.83091 0.61895 0.17761 0.0
C626 C 0.82115 0.59266 0.17347 0.0
C627 C 0.82409 0.57292 0.17898 0.0
C628 C 0.82614 0.63929 0.1721 0.0
C629 C 0.83503 0.6459 0.16182 0.0
C630 C 0.81383 0.65286 0.17705 0.0
C631 C 0.80251 0.64567 0.1877 0.0
C632 C 0.78304 0.61848 0.19025 0.0
C633 C 0.77285 0.61178 0.20034 0.0
C634 C 0.78175 0.63214 0.20793 0.0
C635 C 0.80085 0.65925 0.20543 0.0
C636 C 0.81117 0.66605 0.19536 0.0
C637 C 0.80549 0.71947 0.14129 0.0
C638 C 0.81833 0.74598 0.14557 0.0
C639 C 0.80535 0.69784 0.14662 0.0
C640 C 0.81837 0.70236 0.15627 0.0
C641 C 0.82998 0.72845 0.1608 0.0
C642 C 0.82994 0.75005 0.15551 0.0
C643 C 0.82099 0.68033 0.16148 0.0
C644 C 0.81166 0.67337 0.1717 0.0
C645 C 0.83283 0.66638 0.15647 0.0
C646 C 0.8441 0.67347 0.14583 0.0
C647 C 0.86474 0.70028 0.14338 0.0
C648 C 0.87498 0.70686 0.1333 0.0
C649 C 0.86489 0.68674 0.1256 0.0
C650 C 0.8446 0.65997 0.12799 0.0
C651 C 0.83427 0.65329 0.13806 0.0
H652 H 0.87284 0.69187 0.1178 0.0
H653 H 0.77383 0.6269 0.21573 0.0
H654 H 0.08178 0.22221 0.34148 0.0
H655 H 0.12032 0.25949 0.33233 0.0
H656 H 0.12717 0.31619 0.35615 0.0
H657 H 0.08857 0.2791 0.36537 0.0
H658 H 0.13142 0.33702 0.33645 0.0
H659 H 0.17055 0.29313 0.35623 0.0
H660 H 0.17496 0.25415 0.36248 0.0
H661 H 0.19053 0.23808 0.33147 0.0
H662 H 0.18578 0.27673 0.32501 0.0
H663 H 0.26286 0.44542 0.32268 0.0
H664 H 0.22645 0.40847 0.33278 0.0
H665 H 0.21666 0.35027 0.30912 0.0
H666 H 0.25302 0.38701 0.29895 0.0
H667 H 0.21452 0.33063 0.32915 0.0
H668 H 0.17412 0.37346 0.30931 0.0
H669 H 0.16945 0.41219 0.30295 0.0
H670 H 0.15595 0.42993 0.33401 0.0
H671 H 0.16099 0.39154 0.34058 0.0
C672 C 0.0913 0.24263 0.34475 0.0
C673 C 0.08213 0.24762 0.35419 0.0
C674 C 0.11343 0.26387 0.33953 0.0
C675 C 0.12676 0.29048 0.34364 0.0
C676 C 0.11719 0.29574 0.35288 0.0
C677 C 0.09517 0.27449 0.35815 0.0
C678 C 0.15093 0.31277 0.33834 0.0
C679 C 0.14975 0.33582 0.33498 0.0
C680 C 0.17458 0.31087 0.33626 0.0
C681 C 0.17754 0.28767 0.34012 0.0
C682 C 0.17468 0.28114 0.35073 0.0
C683 C 0.17727 0.25913 0.35431 0.0
C684 C 0.18296 0.24362 0.34737 0.0
C685 C 0.18609 0.25011 0.33683 0.0
C686 C 0.18347 0.27207 0.33321 0.0
C687 C 0.25325 0.42472 0.31967 0.0
C688 C 0.26073 0.41921 0.30996 0.0
C689 C 0.23237 0.40366 0.32544 0.0
C690 C 0.2187 0.37675 0.32163 0.0
C691 C 0.22693 0.37094 0.31218 0.0
C692 C 0.24765 0.392 0.30636 0.0
C693 C 0.19498 0.35485 0.32726 0.0
C694 C 0.19623 0.33186 0.33066 0.0
C695 C 0.17137 0.35678 0.32937 0.0
C696 C 0.16826 0.37983 0.32545 0.0
C697 C 0.17041 0.38578 0.3148 0.0
C698 C 0.16766 0.40764 0.31115 0.0
C699 C 0.16249 0.42357 0.31808 0.0
C700 C 0.16001 0.41761 0.32866 0.0
C701 C 0.16281 0.3958 0.33234 0.0
H702 H 0.16035 0.44048 0.31524 0.0
H703 H 0.18503 0.22664 0.35016 0.0
H704 H 0.77024 0.84314 0.34409 0.0
H705 H 0.73356 0.84635 0.3352 0.0
H706 H 0.67582 0.79434 0.35836 0.0
H707 H 0.71256 0.79159 0.36747 0.0
H708 H 0.65728 0.78114 0.33693 0.0
H709 H 0.69244 0.85418 0.36111 0.0
H710 H 0.72432 0.89586 0.37074 0.0
H711 H 0.74892 0.94175 0.34238 0.0
H712 H 0.71738 0.90021 0.33255 0.0
H713 H 0.55057 0.81075 0.32626 0.0
H714 H 0.58625 0.80652 0.3354 0.0
H715 H 0.64605 0.85996 0.31309 0.0
H716 H 0.61046 0.86416 0.3038 0.0
H717 H 0.66275 0.87165 0.33435 0.0
H718 H 0.62297 0.79526 0.31054 0.0
H719 H 0.58444 0.75415 0.30267 0.0
H720 H 0.56426 0.71398 0.33224 0.0
H721 H 0.60244 0.75499 0.34032 0.0
C722 C 0.74967 0.8321 0.34722 0.0
C723 C 0.74425 0.81709 0.35647 0.0
C724 C 0.72881 0.83411 0.34218 0.0
C725 C 0.70211 0.82073 0.34618 0.0
C726 C 0.69635 0.80484 0.35518 0.0
C727 C 0.71733 0.80331 0.36036 0.0
C728 C 0.68036 0.82386 0.34105 0.0
C729 C 0.65832 0.80086 0.33644 0.0
C730 C 0.68188 0.84963 0.34038 0.0
C731 C 0.70278 0.87399 0.34608 0.0
C732 C 0.70506 0.87301 0.3569 0.0
C733 C 0.72292 0.89666 0.3624 0.0
C734 C 0.7385 0.92145 0.35718 0.0
C735 C 0.73673 0.92254 0.34642 0.0
C736 C 0.71889 0.89894 0.34088 0.0
C737 C 0.57136 0.82189 0.32335 0.0
C738 C 0.57767 0.83779 0.31429 0.0
C739 C 0.59166 0.81927 0.32855 0.0
C740 C 0.61864 0.83266 0.32483 0.0
C741 C 0.62527 0.84936 0.31602 0.0
C742 C 0.60492 0.85172 0.31074 0.0
C743 C 0.63994 0.82909 0.3301 0.0
C744 C 0.66188 0.85199 0.33476 0.0
C745 C 0.63805 0.80315 0.33095 0.0
C746 C 0.6154 0.77831 0.32606 0.0
C747 C 0.6102 0.77774 0.31538 0.0
C748 C 0.58844 0.75444 0.31088 0.0
C749 C 0.57186 0.73152 0.31696 0.0
C750 C 0.5771 0.73178 0.32755 0.0
C751 C 0.59881 0.75503 0.33209 0.0
H752 H 0.55495 0.71356 0.31349 0.0
H753 H 0.75176 0.93988 0.36148 0.0
H754 H 0.16248 0.938 0.34067 0.0
H755 H 0.15908 0.89978 0.33052 0.0
H756 H 0.17925 0.86867 0.35762 0.0
H757 H 0.18337 0.90695 0.36775 0.0
H758 H 0.20425 0.86358 0.34123 0.0
H759 H 0.1123 0.84271 0.34944 0.0
H760 H 0.07345 0.85124 0.34982 0.0
H761 H 0.07318 0.85386 0.3166 0.0
H762 H 0.1123 0.84571 0.31602 0.0
H763 H 0.15641 0.7269 0.32621 0.0
H764 H 0.15986 0.7665 0.33532 0.0
H765 H 0.14266 0.79527 0.30691 0.0
H766 H 0.13873 0.75561 0.29776 0.0
H767 H 0.1167 0.80249 0.32322 0.0
H768 H 0.20786 0.82183 0.31509 0.0
H769 H 0.24632 0.81269 0.31482 0.0
H770 H 0.24774 0.81252 0.34805 0.0
H771 H 0.20901 0.82128 0.34852 0.0
C772 C 0.16653 0.92323 0.34445 0.0
C773 C 0.17297 0.92549 0.35506 0.0
C774 C 0.1644 0.90129 0.33865 0.0
C775 C 0.16839 0.88109 0.34337 0.0
C776 C 0.17596 0.88394 0.35383 0.0
C777 C 0.17825 0.90589 0.35961 0.0
C778 C 0.16393 0.85647 0.33756 0.0
C779 C 0.18501 0.85009 0.33738 0.0
C780 C 0.13901 0.83914 0.33236 0.0
C781 C 0.11541 0.8439 0.33269 0.0
C782 C 0.10408 0.84531 0.34222 0.0
C783 C 0.082 0.85004 0.34247 0.0
C784 C 0.0709 0.85317 0.33324 0.0
C785 C 0.08183 0.85148 0.32374 0.0
C786 C 0.10394 0.84679 0.32345 0.0
C787 C 0.153 0.74143 0.32191 0.0
C788 C 0.14758 0.73817 0.31122 0.0
C789 C 0.15513 0.76414 0.32712 0.0
C790 C 0.15204 0.78408 0.32174 0.0
C791 C 0.14528 0.78021 0.3112 0.0
C792 C 0.14311 0.75751 0.30598 0.0
C793 C 0.15691 0.8095 0.327 0.0
C794 C 0.13595 0.81604 0.32705 0.0
C795 C 0.18192 0.82696 0.33211 0.0
C796 C 0.20538 0.82197 0.33184 0.0
C797 C 0.21625 0.81966 0.32234 0.0
C798 C 0.23811 0.81457 0.32215 0.0
C799 C 0.24942 0.81196 0.33141 0.0
C800 C 0.23894 0.81452 0.34088 0.0
C801 C 0.21705 0.81957 0.34112 0.0
H802 H 0.26634 0.80801 0.33125 0.0
H803 H 0.0538 0.85683 0.33345 0.0
H804 H 0.55663 0.74099 0.82587 0.0
H805 H 0.59315 0.77994 0.83516 0.0
H806 H 0.65191 0.78532 0.81254 0.0
H807 H 0.61564 0.74635 0.80322 0.0
H808 H 0.6718 0.79253 0.83247 0.0
H809 H 0.62717 0.82728 0.81062 0.0
H810 H 0.58778 0.82965 0.80354 0.0
H811 H 0.57007 0.8487 0.83373 0.0
H812 H 0.60913 0.84602 0.84102 0.0
H813 H 0.77829 0.92762 0.84346 0.0
H814 H 0.74196 0.88854 0.83413 0.0
H815 H 0.68301 0.88216 0.85686 0.0
H816 H 0.71908 0.92114 0.86624 0.0
H817 H 0.66332 0.87552 0.8368 0.0
H818 H 0.70783 0.84069 0.85867 0.0
H819 H 0.74709 0.83815 0.86579 0.0
H820 H 0.76496 0.81915 0.83562 0.0
H821 H 0.72603 0.82201 0.82828 0.0
C822 C 0.57736 0.75019 0.82294 0.0
C823 C 0.58314 0.74065 0.81375 0.0
C824 C 0.59818 0.77254 0.82822 0.0
C825 C 0.62513 0.78572 0.82444 0.0
C826 C 0.63121 0.77549 0.81555 0.0
C827 C 0.61041 0.75326 0.81023 0.0
C828 C 0.64681 0.81078 0.82952 0.0
C829 C 0.67013 0.8108 0.83331 0.0
C830 C 0.64433 0.83441 0.83075 0.0
C831 C 0.6209 0.83615 0.82639 0.0
C832 C 0.61474 0.83174 0.81576 0.0
C833 C 0.59249 0.83318 0.81171 0.0
C834 C 0.57638 0.83925 0.81819 0.0
C835 C 0.58254 0.84396 0.82873 0.0
C836 C 0.60473 0.84249 0.83282 0.0
C837 C 0.75754 0.91817 0.8464 0.0
C838 C 0.75163 0.92742 0.85563 0.0
C839 C 0.73685 0.89574 0.84109 0.0
C840 C 0.7099 0.88229 0.84489 0.0
C841 C 0.7037 0.89222 0.85383 0.0
C842 C 0.72438 0.91446 0.85919 0.0
C843 C 0.68832 0.85727 0.83976 0.0
C844 C 0.66501 0.85726 0.83595 0.0
C845 C 0.69081 0.83365 0.83851 0.0
C846 C 0.71421 0.83189 0.8429 0.0
C847 C 0.72029 0.83623 0.85353 0.0
C848 C 0.74245 0.83469 0.85761 0.0
C849 C 0.75856 0.82858 0.85115 0.0
C850 C 0.75249 0.82394 0.84061 0.0
C851 C 0.73038 0.82551 0.83648 0.0
H852 H 0.7757 0.82738 0.85433 0.0
H853 H 0.55918 0.84036 0.81503 0.0
H854 H 0.07473 0.85297 0.84199 0.0
H855 H 0.1133 0.85454 0.83275 0.0
H856 H 0.124 0.80919 0.85745 0.0
H857 H 0.08585 0.80792 0.86683 0.0
H858 H 0.17177 0.85225 0.8522 0.0
H859 H 0.09607 0.77926 0.83395 0.0
H860 H 0.05277 0.75776 0.82411 0.0
H861 H 0.09049 0.81824 0.80018 0.0
H862 H 0.13394 0.84032 0.80995 0.0
H863 H 0.26224 0.81762 0.82673 0.0
H864 H 0.22441 0.81786 0.83584 0.0
H865 H 0.21495 0.86265 0.81061 0.0
H866 H 0.25239 0.86208 0.80136 0.0
H867 H 0.16682 0.82085 0.81599 0.0
H868 H 0.24269 0.89348 0.83404 0.0
H869 H 0.28605 0.91514 0.84383 0.0
H870 H 0.24819 0.85575 0.86811 0.0
H871 H 0.20468 0.83349 0.85839 0.0
C872 C 0.08506 0.84305 0.84541 0.0
C873 C 0.07715 0.83034 0.85517 0.0
C874 C 0.10712 0.84394 0.84011 0.0
C875 C 0.12147 0.83186 0.84439 0.0
C876 C 0.1133 0.81873 0.85402 0.0
C877 C 0.09138 0.81795 0.85935 0.0
C878 C 0.14557 0.83362 0.839 0.0
C879 C 0.17061 0.84505 0.84433 0.0
C880 C 0.14424 0.82493 0.82863 0.0
C881 C 0.11817 0.81159 0.82273 0.0
C882 C 0.09507 0.78809 0.82663 0.0
C883 C 0.07052 0.77578 0.82106 0.0
C884 C 0.06886 0.78667 0.81154 0.0
C885 C 0.09179 0.80985 0.80756 0.0
C886 C 0.11639 0.82225 0.8131 0.0
C887 C 0.25239 0.82786 0.82317 0.0
C888 C 0.26037 0.83979 0.8133 0.0
C889 C 0.23075 0.82801 0.8284 0.0
C890 C 0.21692 0.84041 0.82394 0.0
C891 C 0.22526 0.85288 0.8142 0.0
C892 C 0.24676 0.85261 0.80893 0.0
C893 C 0.19302 0.83938 0.82921 0.0
C894 C 0.16802 0.8281 0.82386 0.0
C895 C 0.19439 0.84824 0.83955 0.0
C896 C 0.22049 0.86168 0.84544 0.0
C897 C 0.24366 0.88492 0.84143 0.0
C898 C 0.26826 0.89732 0.84698 0.0
C899 C 0.26989 0.88679 0.85657 0.0
C900 C 0.2469 0.86387 0.86066 0.0
C901 C 0.22226 0.85137 0.85515 0.0
H902 H 0.28895 0.89642 0.86085 0.0
H903 H 0.04983 0.77712 0.80724 0.0
H904 H 0.16237 0.23158 0.84029 0.0
H905 H 0.16233 0.26852 0.83035 0.0
H906 H 0.18304 0.3181 0.85792 0.0
H907 H 0.18316 0.28146 0.86792 0.0
H908 H 0.14003 0.31649 0.84742 0.0
H909 H 0.23044 0.33374 0.83988 0.0
H910 H 0.26523 0.32227 0.83415 0.0
H911 H 0.22818 0.30111 0.80402 0.0
H912 H 0.19292 0.31209 0.80963 0.0
H913 H 0.17104 0.44251 0.82321 0.0
H914 H 0.17308 0.40673 0.8332 0.0
H915 H 0.155 0.35739 0.80566 0.0
H916 H 0.15311 0.39301 0.79558 0.0
H917 H 0.1972 0.35925 0.81628 0.0
H918 H 0.10645 0.34155 0.82391 0.0
H919 H 0.07159 0.35286 0.8297 0.0
H920 H 0.10923 0.37475 0.85972 0.0
H921 H 0.14456 0.36392 0.85405 0.0
C922 C 0.16715 0.25041 0.84423 0.0
C923 C 0.17272 0.25345 0.85492 0.0
C924 C 0.16717 0.27153 0.83853 0.0
C925 C 0.17272 0.29606 0.8434 0.0
C926 C 0.17864 0.29931 0.85402 0.0
C927 C 0.1788 0.27833 0.85971 0.0
C928 C 0.17147 0.318 0.83751 0.0
C929 C 0.1528 0.32613 0.8407 0.0
C930 C 0.18771 0.3301 0.82861 0.0
C931 C 0.20887 0.32346 0.82521 0.0
C932 C 0.22956 0.3264 0.83206 0.0
C933 C 0.2494 0.32004 0.82883 0.0
C934 C 0.24887 0.31089 0.81874 0.0
C935 C 0.22854 0.30816 0.81185 0.0
C936 C 0.20864 0.31447 0.81504 0.0
C937 C 0.16733 0.424 0.81927 0.0
C938 C 0.16191 0.42072 0.80857 0.0
C939 C 0.16846 0.40353 0.82501 0.0
C940 C 0.16407 0.37933 0.82018 0.0
C941 C 0.15852 0.37592 0.80953 0.0
C942 C 0.15735 0.39632 0.80379 0.0
C943 C 0.16569 0.35771 0.82617 0.0
C944 C 0.18444 0.34963 0.82301 0.0
C945 C 0.14952 0.34566 0.8351 0.0
C946 C 0.12832 0.3522 0.83852 0.0
C947 C 0.10743 0.349 0.83172 0.0
C948 C 0.08756 0.35528 0.83498 0.0
C949 C 0.08824 0.36459 0.84506 0.0
C950 C 0.10876 0.36758 0.85191 0.0
C951 C 0.1287 0.36135 0.84868 0.0
H952 H 0.07283 0.36943 0.84758 0.0
H953 H 0.26425 0.30598 0.81625 0.0
H954 H 0.71106 0.58981 0.6786 0.0
H955 H 0.74719 0.62734 0.6685 0.0
H956 H 0.80834 0.6274 0.68869 0.0
H957 H 0.7723 0.59158 0.69917 0.0
H958 H 0.82397 0.67569 0.68487 0.0
H959 H 0.79072 0.59661 0.66289 0.0
H960 H 0.75622 0.55658 0.6531 0.0
H961 H 0.73763 0.60893 0.63485 0.0
H962 H 0.77182 0.64924 0.64462 0.0
H963 H 0.91454 0.72184 0.63474 0.0
H964 H 0.87718 0.68661 0.64505 0.0
H965 H 0.86857 0.74919 0.66102 0.0
H966 H 0.90678 0.78453 0.65107 0.0
H967 H 0.82646 0.67005 0.64661 0.0
H968 H 0.84531 0.73008 0.68517 0.0
H969 H 0.88398 0.76584 0.69518 0.0
H970 H 0.93885 0.7439 0.68067 0.0
H971 H 0.90048 0.7078 0.67068 0.0
C972 C 0.73225 0.59804 0.68087 0.0
C973 C 0.73897 0.58792 0.68964 0.0
C974 C 0.75291 0.61933 0.67506 0.0
C975 C 0.78066 0.63001 0.6777 0.0
C976 C 0.78719 0.61976 0.6865 0.0
C977 C 0.76657 0.5992 0.69247 0.0
C978 C 0.80308 0.65178 0.67137 0.0
C979 C 0.82443 0.67438 0.6765 0.0
C980 C 0.80412 0.65006 0.66045 0.0
C981 C 0.78361 0.62588 0.65455 0.0
C982 C 0.77915 0.59955 0.65683 0.0
C983 C 0.75967 0.57682 0.65128 0.0
C984 C 0.74469 0.5802 0.64338 0.0
C985 C 0.74922 0.60633 0.64098 0.0
C986 C 0.76865 0.62913 0.64652 0.0
C987 C 0.90479 0.72807 0.64051 0.0
C988 C 0.91375 0.75594 0.64218 0.0
C989 C 0.88335 0.70792 0.64636 0.0
C990 C 0.87019 0.71519 0.65391 0.0
C991 C 0.87879 0.74304 0.65544 0.0
C992 C 0.90061 0.76323 0.64973 0.0
C993 C 0.84744 0.69362 0.66014 0.0
C994 C 0.82594 0.67126 0.65498 0.0
C995 C 0.84689 0.69489 0.67107 0.0
C996 C 0.87007 0.71646 0.67709 0.0
C997 C 0.86562 0.73285 0.68414 0.0
C998 C 0.88748 0.75318 0.6898 0.0
C999 C 0.91387 0.75721 0.68853 0.0
C1000 C 0.91843 0.74084 0.68161 0.0
C1001 C 0.89664 0.72046 0.67594 0.0
H1002 H 0.93076 0.77297 0.69292 0.0
H1003 H 0.72961 0.56258 0.63909 0.0
H1004 H 0.43566 0.16909 0.67453 0.0
H1005 H 0.40092 0.17241 0.66431 0.0
H1006 H 0.35801 0.16985 0.69233 0.0
H1007 H 0.39202 0.16563 0.70255 0.0
H1008 H 0.32285 0.13939 0.67828 0.0
H1009 H 0.4005 0.23104 0.67894 0.0
H1010 H 0.44886 0.26642 0.67631 0.0
H1011 H 0.44173 0.2476 0.64386 0.0
H1012 H 0.39341 0.21187 0.64631 0.0
H1013 H 0.23593 0.18301 0.65684 0.0
H1014 H 0.27237 0.18313 0.66713 0.0
H1015 H 0.31418 0.1832 0.63915 0.0
H1016 H 0.27837 0.18384 0.62881 0.0
H1017 H 0.35003 0.21543 0.65322 0.0
H1018 H 0.27271 0.12342 0.65264 0.0
H1019 H 0.22437 0.08798 0.65524 0.0
H1020 H 0.23103 0.10755 0.68762 0.0
H1021 H 0.27933 0.14337 0.68518 0.0
C1022 C 0.41875 0.16908 0.67851 0.0
C1023 C 0.4167 0.16718 0.68937 0.0
C1024 C 0.39899 0.17116 0.67267 0.0
C1025 C 0.37713 0.17191 0.67757 0.0
C1026 C 0.37472 0.16939 0.68838 0.0
C1027 C 0.39423 0.16697 0.69421 0.0
C1028 C 0.35669 0.17534 0.6715 0.0
C1029 C 0.32881 0.15624 0.67291 0.0
C1030 C 0.36444 0.19699 0.66432 0.0
C1031 C 0.39342 0.21862 0.66283 0.0
C1032 C 0.4093 0.23434 0.67125 0.0
C1033 C 0.43669 0.25447 0.6698 0.0
C1034 C 0.44838 0.25921 0.65993 0.0
C1035 C 0.43267 0.24389 0.6515 0.0
C1036 C 0.40527 0.22372 0.65291 0.0
C1037 C 0.25303 0.18339 0.65287 0.0
C1038 C 0.25401 0.1831 0.64199 0.0
C1039 C 0.27378 0.18332 0.65876 0.0
C1040 C 0.29569 0.18257 0.6539 0.0
C1041 C 0.2974 0.18363 0.64307 0.0
C1042 C 0.27682 0.18393 0.63717 0.0
C1043 C 0.31625 0.17955 0.66004 0.0
C1044 C 0.34412 0.19866 0.65863 0.0
C1045 C 0.30851 0.15792 0.66722 0.0
C1046 C 0.27954 0.13624 0.66871 0.0
C1047 C 0.26381 0.12028 0.6603 0.0
C1048 C 0.23643 0.10011 0.66174 0.0
C1049 C 0.22462 0.09556 0.67158 0.0
C1050 C 0.2402 0.11112 0.68 0.0
C1051 C 0.26758 0.13134 0.67859 0.0
H1052 H 0.20342 0.07994 0.67268 0.0
H1053 H 0.46959 0.27479 0.65882 0.0
H1054 H 0.83165 0.25552 0.67532 0.0
H1055 H 0.83674 0.2206 0.66605 0.0
H1056 H 0.86096 0.198 0.69436 0.0
H1057 H 0.85578 0.23272 0.70376 0.0
H1058 H 0.87792 0.20797 0.66298 0.0
H1059 H 0.82714 0.12736 0.69503 0.0
H1060 H 0.79661 0.11766 0.71006 0.0
H1061 H 0.75981 0.1597 0.69534 0.0
H1062 H 0.78982 0.16926 0.68016 0.0
H1063 H 0.843 0.05604 0.65755 0.0
H1064 H 0.84916 0.0941 0.66856 0.0
H1065 H 0.82653 0.12811 0.64306 0.0
H1066 H 0.82033 0.09043 0.63202 0.0
H1067 H 0.81375 0.11261 0.67431 0.0
H1068 H 0.86853 0.19718 0.64305 0.0
H1069 H 0.89903 0.20652 0.62805 0.0
H1070 H 0.92829 0.15592 0.6412 0.0
H1071 H 0.89831 0.14662 0.65636 0.0
C1072 C 0.83853 0.24349 0.67957 0.0
C1073 C 0.84288 0.24669 0.69033 0.0
C1074 C 0.84151 0.22359 0.67424 0.0
C1075 C 0.84876 0.20644 0.67956 0.0
C1076 C 0.85495 0.21079 0.69015 0.0
C1077 C 0.85203 0.23072 0.69549 0.0
C1078 C 0.84746 0.1826 0.67419 0.0
C1079 C 0.86383 0.18712 0.66541 0.0
C1080 C 0.82953 0.15542 0.67755 0.0
C1081 C 0.81096 0.1493 0.68653 0.0
C1082 C 0.81246 0.13443 0.69499 0.0
C1083 C 0.79525 0.12897 0.70353 0.0
C1084 C 0.77636 0.13815 0.70367 0.0
C1085 C 0.77453 0.15269 0.69524 0.0
C1086 C 0.79164 0.15815 0.68667 0.0
C1087 C 0.8391 0.07148 0.6543 0.0
C1088 C 0.83134 0.07021 0.64386 0.0
C1089 C 0.84265 0.09321 0.66061 0.0
C1090 C 0.83877 0.11412 0.65656 0.0
C1091 C 0.83011 0.11242 0.64627 0.0
C1092 C 0.82644 0.09072 0.63999 0.0
C1093 C 0.84387 0.13797 0.66299 0.0
C1094 C 0.82817 0.13345 0.67195 0.0
C1095 C 0.86248 0.16513 0.65982 0.0
C1096 C 0.88096 0.17102 0.6508 0.0
C1097 C 0.88158 0.18816 0.64277 0.0
C1098 C 0.89876 0.19343 0.63423 0.0
C1099 C 0.91553 0.18176 0.63366 0.0
C1100 C 0.91523 0.16487 0.64164 0.0
C1101 C 0.89811 0.15957 0.6502 0.0
H1102 H 0.9288 0.18584 0.62704 0.0
H1103 H 0.76309 0.13394 0.7103 0.0
H1104 H 0.1012 0.6176 0.50863 0.0
H1105 H 0.06651 0.5803 0.49805 0.0
H1106 H 0.02651 0.53507 0.5257 0.0
H1107 H 0.06078 0.57209 0.53633 0.0
H1108 H 0.03653 0.50439 0.51124 0.0
H1109 H 0.99755 0.56327 0.51258 0.0
H1110 H 0.9975 0.60673 0.51044 0.0
H1111 H 0.01337 0.60669 0.47793 0.0
H1112 H 0.0139 0.56338 0.47991 0.0
H1113 H 0.90772 0.40019 0.49306 0.0
H1114 H 0.94504 0.43957 0.50182 0.0
H1115 H 0.97768 0.47799 0.47234 0.0
H1116 H 0.94046 0.43861 0.46346 0.0
H1117 H 0.97386 0.5131 0.48655 0.0
H1118 H 0.01048 0.45316 0.48492 0.0
H1119 H 0.0108 0.40983 0.48695 0.0
H1120 H 0.00012 0.41206 0.51978 0.0
H1121 H -0.00068 0.45523 0.51793 0.0
C1122 C 0.08486 0.59986 0.51247 0.0
C1123 C 0.08386 0.59787 0.52334 0.0
C1124 C 0.06506 0.57859 0.50641 0.0
C1125 C 0.04403 0.55493 0.51111 0.0
C1126 C 0.04266 0.55312 0.52193 0.0
C1127 C 0.06223 0.57442 0.52799 0.0
C1128 C 0.0239 0.53158 0.50479 0.0
C1129 C 0.02262 0.5062 0.50592 0.0
C1130 C 0.0064 0.53424 0.49763 0.0
C1131 C 0.00609 0.56026 0.49642 0.0
C1132 C 0.0013 0.57266 0.50499 0.0
C1133 C 0.00113 0.59724 0.50381 0.0
C1134 C 0.00552 0.60951 0.49406 0.0
C1135 C 0.01002 0.59718 0.48548 0.0
C1136 C 0.01024 0.57262 0.48663 0.0
C1137 C 0.92291 0.4169 0.48841 0.0
C1138 C 0.92107 0.4162 0.47755 0.0
C1139 C 0.94427 0.43937 0.49344 0.0
C1140 C 0.96415 0.46163 0.48772 0.0
C1141 C 0.96252 0.46099 0.47688 0.0
C1142 C 0.94131 0.43839 0.47183 0.0
C1143 C 0.9862 0.48579 0.49312 0.0
C1144 C 0.98789 0.51133 0.49182 0.0
C1145 C 0.00416 0.48331 0.50011 0.0
C1146 C 0.00457 0.45731 0.50127 0.0
C1147 C 0.00794 0.44429 0.49257 0.0
C1148 C 0.00826 0.41978 0.49369 0.0
C1149 C 0.00541 0.40816 0.50349 0.0
C1150 C 0.00229 0.42106 0.51219 0.0
C1151 C 0.00193 0.44557 0.51111 0.0
H1152 H 0.00569 0.38918 0.50434 0.0
H1153 H 0.00537 0.62853 0.49316 0.0
H1154 H 0.4293 0.4864 0.53413 0.0
H1155 H 0.46871 0.49059 0.5247 0.0
H1156 H 0.45155 0.5296 0.49935 0.0
H1157 H 0.41182 0.52518 0.50865 0.0
H1158 H 0.46403 0.49227 0.49248 0.0
H1159 H 0.50277 0.56719 0.51656 0.0
H1160 H 0.511 0.58892 0.53375 0.0
H1161 H 0.54621 0.54102 0.54431 0.0
H1162 H 0.53783 0.51871 0.52722 0.0
H1163 H 0.58813 0.53884 0.46597 0.0
H1164 H 0.55237 0.5404 0.47606 0.0
H1165 H 0.56776 0.5004 0.50153 0.0
H1166 H 0.60395 0.49912 0.49156 0.0
H1167 H 0.55667 0.53935 0.50832 0.0
H1168 H 0.51661 0.46342 0.48459 0.0
H1169 H 0.5083 0.44129 0.46747 0.0
H1170 H 0.47529 0.49071 0.45639 0.0
H1171 H 0.48378 0.51342 0.47342 0.0
C1172 C 0.43379 0.49581 0.52654 0.0
C1173 C 0.4174 0.50558 0.52218 0.0
C1174 C 0.45645 0.49831 0.52118 0.0
C1175 C 0.46332 0.51082 0.5114 0.0
C1176 C 0.44667 0.51998 0.50691 0.0
C1177 C 0.42395 0.51743 0.51225 0.0
C1178 C 0.48781 0.51422 0.50582 0.0
C1179 C 0.48434 0.50293 0.49589 0.0
C1180 C 0.51422 0.52758 0.51037 0.0
C1181 C 0.51944 0.5411 0.52063 0.0
C1182 C 0.51208 0.56114 0.52257 0.0
C1183 C 0.5168 0.57359 0.53229 0.0
C1184 C 0.52906 0.56631 0.54012 0.0
C1185 C 0.53669 0.54662 0.53824 0.0
C1186 C 0.53198 0.53408 0.52853 0.0
C1187 C 0.58422 0.53069 0.47377 0.0
C1188 C 0.59869 0.51851 0.4779 0.0
C1189 C 0.5637 0.53154 0.47951 0.0
C1190 C 0.55702 0.51996 0.48945 0.0
C1191 C 0.5725 0.5093 0.49385 0.0
C1192 C 0.59318 0.50859 0.48812 0.0
C1193 C 0.53285 0.51746 0.49499 0.0
C1194 C 0.53636 0.52883 0.50491 0.0
C1195 C 0.50643 0.50411 0.49045 0.0
C1196 C 0.50108 0.4903 0.48024 0.0
C1197 C 0.50775 0.4697 0.47848 0.0
C1198 C 0.50299 0.45704 0.4688 0.0
C1199 C 0.49134 0.46464 0.46084 0.0
C1200 C 0.48435 0.48487 0.46256 0.0
C1201 C 0.48912 0.49763 0.47223 0.0
H1202 H 0.48767 0.45482 0.45335 0.0
H1203 H 0.5327 0.57597 0.54765 0.0
H1204 H 0.51705 0.1145 0.48911 0.0
H1205 H 0.51971 0.07845 0.49868 0.0
H1206 H 0.46709 0.01876 0.47617 0.0
H1207 H 0.46443 0.05467 0.46648 0.0
H1208 H 0.45467 0.00038 0.49691 0.0
H1209 H 0.53142 0.0419 0.47381 0.0
H1210 H 0.5724 0.08014 0.46578 0.0
H1211 H 0.61281 0.1014 0.4953 0.0
H1212 H 0.57184 0.06352 0.50354 0.0
H1213 H 0.48369 0.89448 0.50737 0.0
H1214 H 0.48194 0.93121 0.49797 0.0
H1215 H 0.53284 0.98932 0.52123 0.0
H1216 H 0.53456 0.95265 0.53077 0.0
H1217 H 0.54631 0.00872 0.50026 0.0
H1218 H 0.46918 0.96662 0.5233 0.0
H1219 H 0.4282 0.92789 0.53112 0.0
H1220 H 0.38848 0.90731 0.50146 0.0
H1221 H 0.42945 0.94568 0.49343 0.0
C1222 C 0.50566 0.09364 0.48628 0.0
C1223 C 0.49063 0.08748 0.477 0.0
C1224 C 0.50734 0.07312 0.49172 0.0
C1225 C 0.49385 0.04607 0.48805 0.0
C1226 C 0.47771 0.03956 0.4791 0.0
C1227 C 0.47627 0.06012 0.47357 0.0
C1228 C 0.49758 0.02482 0.49328 0.0
C1229 C 0.47464 0.00203 0.49755 0.0
C1230 C 0.52375 0.02729 0.49424 0.0
C1231 C 0.54843 0.05008 0.48931 0.0
C1232 C 0.54893 0.0549 0.47861 0.0
C1233 C 0.57218 0.07647 0.47401 0.0
C1234 C 0.59516 0.09324 0.48003 0.0
C1235 C 0.59496 0.08842 0.49065 0.0
C1236 C 0.57173 0.0669 0.49529 0.0
C1237 C 0.49493 0.91514 0.51041 0.0
C1238 C 0.50913 0.92062 0.51986 0.0
C1239 C 0.49378 0.93605 0.50505 0.0
C1240 C 0.507 0.96283 0.50899 0.0
C1241 C 0.52244 0.96872 0.5181 0.0
C1242 C 0.52334 0.94774 0.52355 0.0
C1243 C 0.5034 0.98431 0.50389 0.0
C1244 C 0.52637 0.00712 0.49964 0.0
C1245 C 0.47725 0.98183 0.50293 0.0
C1246 C 0.45251 0.95883 0.50774 0.0
C1247 C 0.45181 0.95368 0.51842 0.0
C1248 C 0.42857 0.93182 0.5229 0.0
C1249 C 0.40578 0.91509 0.51678 0.0
C1250 C 0.40617 0.92025 0.50618 0.0
C1251 C 0.4294 0.94206 0.50166 0.0
H1252 H 0.38779 0.89818 0.52026 0.0
H1253 H 0.61315 0.10993 0.47646 0.0
H1254 H 0.39976 0.89027 0.00824 0.0
H1255 H 0.43679 0.92774 0.99854 0.0
H1256 H 0.45889 0.97955 0.02553 0.0
H1257 H 0.42181 0.94248 0.03526 0.0
H1258 H 0.46213 0.00761 0.00789 0.0
H1259 H 0.49154 0.94602 0.01992 0.0
H1260 H 0.48785 0.90091 0.022 0.0
H1261 H 0.49501 0.89529 0.9891 0.0
H1262 H 0.49763 0.94001 0.98679 0.0
H1263 H 0.59605 0.10748 0.99229 0.0
H1264 H 0.55865 0.07094 0.00221 0.0
H1265 H 0.53684 0.01697 0.97587 0.0
H1266 H 0.57431 0.05301 0.96597 0.0
H1267 H 0.53362 0.99027 0.99341 0.0
H1268 H 0.50218 0.05055 0.98124 0.0
H1269 H 0.50431 0.09504 0.97898 0.0
H1270 H 0.50139 0.10306 0.01194 0.0
H1271 H 0.49963 0.05877 0.0144 0.0
C1272 C 0.41225 0.90973 0.01209 0.0
C1273 C 0.40799 0.91322 0.02257 0.0
C1274 C 0.43346 0.93109 0.00653 0.0
C1275 C 0.45082 0.95625 0.01137 0.0
C1276 C 0.44578 0.96025 0.02167 0.0
C1277 C 0.42463 0.93894 0.02723 0.0
C1278 C 0.47517 0.97791 0.00592 0.0
C1279 C 0.47792 0.00393 0.00482 0.0
C1280 C 0.49555 0.97293 0.00179 0.0
C1281 C 0.49449 0.94626 0.00317 0.0
C1282 C 0.49208 0.93507 0.01311 0.0
C1283 C 0.4902 0.90955 0.01433 0.0
C1284 C 0.49129 0.89524 0.00569 0.0
C1285 C 0.49416 0.9064 0.9958 0.0
C1286 C 0.49576 0.9318 0.99452 0.0
C1287 C 0.58353 0.08775 0.98864 0.0
C1288 C 0.58809 0.08331 0.97829 0.0
C1289 C 0.56205 0.06694 0.9943 0.0
C1290 C 0.54469 0.04141 0.9897 0.0
C1291 C 0.54992 0.03656 0.97955 0.0
C1292 C 0.57135 0.05727 0.97389 0.0
C1293 C 0.52052 0.01995 0.99532 0.0
C1294 C 0.51784 0.99396 0.99647 0.0
C1295 C 0.50018 0.02495 0.99947 0.0
C1296 C 0.50106 0.05149 0.99801 0.0
C1297 C 0.5022 0.0619 0.98801 0.0
C1298 C 0.50331 0.08706 0.98669 0.0
C1299 C 0.50306 0.1019 0.99531 0.0
C1300 C 0.50162 0.09156 0.00527 0.0
C1301 C 0.50055 0.06643 0.00663 0.0
H1302 H 0.50392 0.12138 0.99428 0.0
H1303 H 0.48993 0.87552 0.00665 0.0
H1304 H 0.90104 0.49998 0.99348 0.0
H1305 H 0.93763 0.49701 0.00244 0.0
H1306 H 0.97987 0.50818 0.97342 0.0
H1307 H 0.94386 0.51189 0.96445 0.0
H1308 H 0.95243 0.45961 0.00025 0.0
H1309 H 0.04817 0.5376 0.97738 0.0
H1310 H 0.06505 0.58128 0.968 0.0
H1311 H 0.0142 0.60081 0.98672 0.0
H1312 H 0.99729 0.55744 0.9963 0.0
H1313 H 0.10369 0.48852 0.00623 0.0
H1314 H 0.06762 0.49036 0.99633 0.0
H1315 H 0.02252 0.48032 0.02453 0.0
H1316 H 0.0578 0.47768 0.03441 0.0
H1317 H 0.05161 0.52732 0.9975 0.0
H1318 H 0.9553 0.44919 0.02019 0.0
H1319 H 0.93895 0.40598 0.02986 0.0
H1320 H 0.99116 0.38702 0.01173 0.0
H1321 H 0.00758 0.42993 0.00188 0.0
C1322 C 0.91831 0.50222 0.98902 0.0
C1323 C 0.91947 0.50617 0.97824 0.0
C1324 C 0.93915 0.5004 0.99415 0.0
C1325 C 0.96154 0.50246 0.98861 0.0
C1326 C 0.96304 0.50696 0.97789 0.0
C1327 C 0.94235 0.50903 0.97276 0.0
C1328 C 0.98264 0.49863 0.99399 0.0
C1329 C 0.9741 0.47459 -0.00023 0.0
C1330 C 0.01096 0.51778 0.99309 0.0
C1331 C 0.02127 0.54413 0.98748 0.0
C1332 C 0.04068 0.55127 0.97952 0.0
C1333 C 0.05023 0.57596 0.97416 0.0
C1334 C 0.04063 0.59376 0.97674 0.0
C1335 C 0.02154 0.58696 0.98471 0.0
C1336 C 0.01193 0.5623 0.99009 0.0
C1337 C 0.08588 0.48625 0.0103 0.0
C1338 C 0.0837 0.48294 0.02112 0.0
C1339 C 0.06535 0.48743 0.00464 0.0
C1340 C 0.04228 0.48527 0.00968 0.0
C1341 C 0.03986 0.48151 0.02044 0.0
C1342 C 0.06019 0.48011 0.02609 0.0
C1343 C 0.02138 0.48839 0.00382 0.0
C1344 C 0.02995 0.51228 0.99795 0.0
C1345 C 0.99308 0.46912 0.00465 0.0
C1346 C 0.98282 0.4429 0.01035 0.0
C1347 C 0.96317 0.43572 0.01823 0.0
C1348 C 0.95392 0.4113 0.02375 0.0
C1349 C 0.96406 0.39381 0.02143 0.0
C1350 C 0.98339 0.40064 0.01355 0.0
C1351 C 0.9927 0.42502 0.008 0.0
H1352 H 0.95692 0.37495 0.02572 0.0
H1353 H 0.04803 0.61285 0.97257 0.0
H1354 H 0.482 0.43126 0.95937 0.0
H1355 H 0.4834 0.46893 0.96915 0.0
H1356 H 0.46944 0.42335 0.99748 0.0
H1357 H 0.46828 0.38543 0.98778 0.0
H1358 H 0.439 0.45213 0.99544 0.0
H1359 H 0.53099 0.46788 0.99282 0.0
H1360 H 0.57126 0.47232 0.98356 0.0
H1361 H 0.57656 0.53922 0.96578 0.0
H1362 H 0.53601 0.53487 0.97484 0.0
H1363 H 0.49016 0.56024 0.03227 0.0
H1364 H 0.48251 0.52109 0.02171 0.0
H1365 H 0.49978 0.57002 0.99409 0.0
H1366 H 0.50711 0.60937 0.0046 0.0
H1367 H 0.52754 0.53976 0.9953 0.0
H1368 H 0.43742 0.52593 0.99802 0.0
H1369 H 0.39539 0.52045 0.00613 0.0
H1370 H 0.38543 0.45031 0.02295 0.0
H1371 H 0.4277 0.45563 0.01507 0.0
C1372 C 0.47887 0.42898 0.96767 0.0
C1373 C 0.47529 0.40535 0.9728 0.0
C1374 C 0.47974 0.4506 0.97324 0.0
C1375 C 0.47685 0.44899 0.98403 0.0
C1376 C 0.4718 0.42495 0.98915 0.0
C1377 C 0.47121 0.40335 0.98359 0.0
C1378 C 0.48063 0.47304 0.98999 0.0
C1379 C 0.45843 0.47119 0.99555 0.0
C1380 C 0.50581 0.49808 0.98984 0.0
C1381 C 0.53028 0.50084 0.98442 0.0
C1382 C 0.54058 0.48337 0.98687 0.0
C1383 C 0.56349 0.4859 0.98167 0.0
C1384 C 0.57641 0.50599 0.97406 0.0
C1385 C 0.5665 0.52364 0.97166 0.0
C1386 C 0.54356 0.52116 0.97683 0.0
C1387 C 0.49247 0.56278 0.02395 0.0
C1388 C 0.49932 0.58796 0.01927 0.0
C1389 C 0.48788 0.54031 0.01793 0.0
C1390 C 0.49036 0.54265 0.00714 0.0
C1391 C 0.49768 0.56784 0.00242 0.0
C1392 C 0.50184 0.59025 0.00843 0.0
C1393 C 0.48592 0.51886 0.00083 0.0
C1394 C 0.50807 0.52074 0.99521 0.0
C1395 C 0.46065 0.49391 0.00089 0.0
C1396 C 0.43591 0.49136 0.00602 0.0
C1397 C 0.42652 0.50958 0.00356 0.0
C1398 C 0.40258 0.50643 0.00808 0.0
C1399 C 0.38772 0.485 0.01502 0.0
C1400 C 0.39694 0.46686 0.01755 0.0
C1401 C 0.42089 0.46994 0.01306 0.0
H1402 H 0.369 0.48239 0.0184 0.0
H1403 H 0.59415 0.50792 0.97005 0.0
H1404 H 0.27895 0.01454 0.11519 0.0
H1405 H 0.31322 0.00855 0.10582 0.0
H1406 H 0.30157 0.04688 0.0789 0.0
H1407 H 0.2675 0.05349 0.08837 0.0
H1408 H 0.28984 0.99213 0.07624 0.0
H1409 H 0.3624 0.0768 0.08881 0.0
H1410 H 0.38937 0.11196 0.10187 0.0
H1411 H 0.40705 0.05542 0.11758 0.0
H1412 H 0.37982 0.01974 0.10471 0.0
H1413 H 0.36262 0.9472 0.04769 0.0
H1414 H 0.35505 0.98254 0.0553 0.0
H1415 H 0.36986 0.96098 0.08572 0.0
H1416 H 0.37889 0.92641 0.078 0.0
H1417 H 0.38465 0.01483 0.085 0.0
H1418 H 0.30587 0.92892 0.07573 0.0
H1419 H 0.27651 0.89071 0.06407 0.0
H1420 H 0.26742 0.94637 0.04396 0.0
H1421 H 0.29711 0.985 0.05544 0.0
C1422 C 0.28425 0.02238 0.10737 0.0
C1423 C 0.27046 0.03422 0.10245 0.0
C1424 C 0.30398 0.01914 0.10206 0.0
C1425 C 0.30996 0.02735 0.09169 0.0
C1426 C 0.29735 0.04063 0.08693 0.0
C1427 C 0.27793 0.04437 0.09233 0.0
C1428 C 0.32545 0.01762 0.08548 0.0
C1429 C 0.31087 0.99772 0.07793 0.0
C1430 C 0.35245 0.02411 0.08804 0.0
C1431 C 0.36889 0.0455 0.09581 0.0
C1432 C 0.37183 0.07176 0.0951 0.0
C1433 C 0.38722 0.09182 0.10246 0.0
C1434 C 0.39988 0.08592 0.11056 0.0
C1435 C 0.39722 0.05996 0.1113 0.0
C1436 C 0.38185 0.03982 0.10396 0.0
C1437 C 0.36513 0.95066 0.05597 0.0
C1438 C 0.37098 0.93402 0.06231 0.0
C1439 C 0.36077 0.97079 0.06031 0.0
C1440 C 0.36112 0.97385 0.0711 0.0
C1441 C 0.36936 0.95887 0.07738 0.0
C1442 C 0.37446 0.93912 0.07298 0.0
C1443 C 0.34893 0.98933 0.0758 0.0
C1444 C 0.36392 0.0099 0.08312 0.0
C1445 C 0.32196 0.98307 0.07325 0.0
C1446 C 0.30398 0.95988 0.06636 0.0
C1447 C 0.29778 0.93303 0.06878 0.0
C1448 C 0.28106 0.9113 0.06221 0.0
C1449 C 0.27018 0.91612 0.05326 0.0
C1450 C 0.27593 0.94268 0.05088 0.0
C1451 C 0.29269 0.9645 0.05741 0.0
H1452 H 0.25723 0.89927 0.04818 0.0
H1453 H 0.41179 0.10148 0.11625 0.0
H1454 H 0.05644 0.39792 0.05009 0.0
H1455 H 0.02019 0.35893 0.05931 0.0
H1456 H 0.0264 0.41205 0.08449 0.0
H1457 H 0.06283 0.45152 0.07515 0.0
H1458 H 0.03482 0.37007 0.09033 0.0
H1459 H 0.9671 0.37847 0.07177 0.0
H1460 H 0.94473 0.38501 0.05651 0.0
H1461 H 0.9336 0.3102 0.04331 0.0
H1462 H 0.95632 0.30341 0.0584 0.0
H1463 H 0.95872 0.25096 0.11751 0.0
H1464 H 0.96353 0.29211 0.10917 0.0
H1465 H 0.96538 0.25897 0.07926 0.0
H1466 H 0.95909 0.21707 0.08762 0.0
H1467 H 0.94563 0.29461 0.0777 0.0
H1468 H 0.02365 0.29382 0.09304 0.0
H1469 H 0.04878 0.28704 0.1073 0.0
H1470 H 0.04337 0.34817 0.12534 0.0
H1471 H 0.01781 0.35499 0.11122 0.0
C1472 C 0.04968 0.40143 0.05749 0.0
C1473 C 0.06262 0.42763 0.06198 0.0
C1474 C 0.02874 0.37916 0.0627 0.0
C1475 C 0.02047 0.3826 0.07256 0.0
C1476 C 0.03237 0.40903 0.07685 0.0
C1477 C 0.05314 0.43151 0.07153 0.0
C1478 C 0.00302 0.35802 0.0789 0.0
C1479 C 0.01487 0.35394 0.08776 0.0
C1480 C 0.97744 0.33665 0.07533 0.0
C1481 C 0.96355 0.34048 0.06623 0.0
C1482 C 0.96007 0.36349 0.06558 0.0
C1483 C 0.94729 0.36724 0.05696 0.0
C1484 C 0.93776 0.34804 0.04894 0.0
C1485 C 0.94097 0.32505 0.04953 0.0
C1486 C 0.95376 0.32121 0.05813 0.0
C1487 C 0.95896 0.25204 0.10913 0.0
C1488 C 0.95877 0.23115 0.10316 0.0
C1489 C 0.96177 0.27554 0.10437 0.0
C1490 C 0.96558 0.27892 0.09362 0.0
C1491 C 0.96256 0.25682 0.08757 0.0
C1492 C 0.95902 0.23293 0.09234 0.0
C1493 C 0.97773 0.3067 0.089 0.0
C1494 C 0.96508 0.31118 0.08045 0.0
C1495 C 0.00291 0.32848 0.09271 0.0
C1496 C 0.01855 0.32466 0.10114 0.0
C1497 C 0.02769 0.30569 0.10008 0.0
C1498 C 0.042 0.30184 0.10813 0.0
C1499 C 0.04759 0.31711 0.11723 0.0
C1500 C 0.03896 0.33631 0.11829 0.0
C1501 C 0.02455 0.34017 0.11027 0.0
H1502 H 0.05868 0.31411 0.12346 0.0
H1503 H 0.92784 0.35096 0.04228 0.0
H1504 H 0.54089 0.60167 0.07325 0.0
H1505 H 0.58015 0.60935 0.08391 0.0
H1506 H 0.6343 0.64881 0.05812 0.0
H1507 H 0.59546 0.64133 0.04748 0.0
H1508 H 0.63991 0.60973 0.08068 0.0
H1509 H 0.66193 0.71265 0.06695 0.0
H1510 H 0.6375 0.73529 0.05992 0.0
H1511 H 0.56895 0.68641 0.07976 0.0
H1512 H 0.59321 0.66387 0.08701 0.0
H1513 H 0.77611 0.71913 0.0947 0.0
H1514 H 0.73349 0.68481 0.08629 0.0
H1515 H 0.68649 0.70147 0.10848 0.0
H1516 H 0.72854 0.73557 0.1168 0.0
H1517 H 0.67468 0.70782 0.08883 0.0
H1518 H 0.68368 0.64106 0.10875 0.0
H1519 H 0.70689 0.61683 0.1153 0.0
H1520 H 0.71231 0.59197 0.08438 0.0
H1521 H 0.68949 0.61642 0.07762 0.0
C1522 C 0.56099 0.61079 0.06973 0.0
C1523 C 0.5653 0.62147 0.05963 0.0
C1524 C 0.58336 0.615 0.0758 0.0
C1525 C 0.61004 0.62978 0.07179 0.0
C1526 C 0.61383 0.63726 0.06132 0.0
C1527 C 0.59163 0.63321 0.05529 0.0
C1528 C 0.6336 0.64413 0.07885 0.0
C1529 C 0.64757 0.63111 0.08255 0.0
C1530 C 0.64329 0.67191 0.08129 0.0
C1531 C 0.62927 0.68651 0.07745 0.0
C1532 C 0.64175 0.70695 0.06986 0.0
C1533 C 0.62792 0.71972 0.06583 0.0
C1534 C 0.60165 0.71224 0.06937 0.0
C1535 C 0.58926 0.69215 0.07701 0.0
C1536 C 0.60305 0.6794 0.08109 0.0
C1537 C 0.75665 0.71508 0.09787 0.0
C1538 C 0.75566 0.73032 0.1063 0.0
C1539 C 0.73235 0.69541 0.09309 0.0
C1540 C 0.70686 0.69069 0.09676 0.0
C1541 C 0.70594 0.70489 0.1055 0.0
C1542 C 0.73004 0.72445 0.11023 0.0
C1543 C 0.68133 0.67356 0.09086 0.0
C1544 C 0.66705 0.68631 0.08719 0.0
C1545 C 0.67138 0.64552 0.08862 0.0
C1546 C 0.68512 0.63082 0.09266 0.0
C1547 C 0.69006 0.63065 0.10333 0.0
C1548 C 0.70309 0.61683 0.10709 0.0
C1549 C 0.71114 0.60294 0.10026 0.0
C1550 C 0.7061 0.60278 0.08966 0.0
C1551 C 0.69309 0.6166 0.08586 0.0
H1552 H 0.72122 0.59223 0.10319 0.0
H1553 H 0.59092 0.72202 0.06619 0.0
H1554 H 0.92766 0.38384 0.42376 0.0
H1555 H 0.9585 0.37502 0.41315 0.0
H1556 H 0.97803 0.34187 0.43978 0.0
H1557 H 0.94683 0.35004 0.45037 0.0
H1558 H 0.02396 0.37363 0.42434 0.0
H1559 H 0.92976 0.29791 0.42795 0.0
H1560 H 0.8797 0.27852 0.42722 0.0
H1561 H 0.88558 0.30126 0.39518 0.0
H1562 H 0.93581 0.32124 0.3958 0.0
H1563 H 0.04807 0.26775 0.40622 0.0
H1564 H 0.03774 0.30037 0.41474 0.0
H1565 H -0.00032 0.3068 0.38669 0.0
H1566 H 0.00906 0.27355 0.37832 0.0
H1567 H 0.96595 0.29428 0.4017 0.0
H1568 H 0.0594 0.36203 0.397 0.0
H1569 H 0.10956 0.38241 0.39761 0.0
H1570 H 0.10666 0.37653 0.43078 0.0
H1571 H 0.05639 0.35572 0.43036 0.0
C1572 C 0.93915 0.37543 0.42741 0.0
C1573 C 0.93462 0.36725 0.43783 0.0
C1574 C 0.95679 0.37049 0.42136 0.0
C1575 C 0.97041 0.35774 0.42571 0.0
C1576 C 0.96781 0.35187 0.43632 0.0
C1577 C 0.94982 0.35633 0.44233 0.0
C1578 C 0.9831 0.346 0.41896 0.0
C1579 C 0.01145 0.35627 0.41937 0.0
C1580 C 0.96668 0.32371 0.41239 0.0
C1581 C 0.93651 0.31136 0.41196 0.0
C1582 C 0.92039 0.29899 0.42078 0.0
C1583 C 0.892 0.28786 0.42038 0.0
C1584 C 0.87947 0.28874 0.41117 0.0
C1585 C 0.89532 0.30066 0.40232 0.0
C1586 C 0.92374 0.31189 0.4027 0.0
C1587 C 0.03807 0.27665 0.40182 0.0
C1588 C 0.02905 0.26792 0.39167 0.0
C1589 C 0.03229 0.2954 0.40667 0.0
C1590 C 0.0179 0.30607 0.40136 0.0
C1591 C 0.01063 0.29873 0.39097 0.0
C1592 C 0.01601 0.27973 0.38619 0.0
C1593 C 0.00719 0.32181 0.40695 0.0
C1594 C 0.9789 0.31204 0.40643 0.0
C1595 C 0.02382 0.34463 0.41334 0.0
C1596 C 0.05406 0.35709 0.41364 0.0
C1597 C 0.06941 0.36485 0.40442 0.0
C1598 C 0.09788 0.37653 0.40474 0.0
C1599 C 0.11128 0.3807 0.41423 0.0
C1600 C 0.09624 0.37326 0.42343 0.0
C1601 C 0.06776 0.36155 0.42316 0.0
H1602 H 0.13333 0.38975 0.41445 0.0
H1603 H 0.85748 0.28011 0.41087 0.0
H1604 H 0.67002 0.60232 0.44593 0.0
H1605 H 0.67245 0.6428 0.43834 0.0
H1606 H 0.60058 0.59207 0.42 0.0
H1607 H 0.59815 0.55082 0.42759 0.0
H1608 H 0.64174 0.62997 0.40842 0.0
H1609 H 0.59713 0.63322 0.43869 0.0
H1610 H 0.58657 0.62975 0.45733 0.0
H1611 H 0.66698 0.69735 0.46352 0.0
H1612 H 0.67823 0.701 0.44495 0.0
H1613 H 0.69762 0.76182 0.38732 0.0
H1614 H 0.66024 0.7221 0.39616 0.0
H1615 H 0.71406 0.73494 0.42198 0.0
H1616 H 0.75081 0.77509 0.41331 0.0
H1617 H 0.66257 0.71301 0.42866 0.0
H1618 H 0.70973 0.69516 0.39992 0.0
H1619 H 0.72249 0.69771 0.3815 0.0
H1620 H 0.63754 0.65666 0.37288 0.0
H1621 H 0.62434 0.65414 0.39126 0.0
C1622 C 0.65449 0.59961 0.44036 0.0
C1623 C 0.63398 0.57334 0.43731 0.0
C1624 C 0.65572 0.62288 0.43611 0.0
C1625 C 0.63638 0.62053 0.42875 0.0
C1626 C 0.61552 0.59432 0.42576 0.0
C1627 C 0.61419 0.57083 0.43008 0.0
C1628 C 0.64043 0.64567 0.42348 0.0
C1629 C 0.64534 0.64791 0.41279 0.0
C1630 C 0.64524 0.66914 0.42918 0.0
C1631 C 0.63851 0.6674 0.44038 0.0
C1632 C 0.61262 0.6473 0.44402 0.0
C1633 C 0.60651 0.6453 0.45458 0.0
C1634 C 0.62608 0.66333 0.4616 0.0
C1635 C 0.65181 0.68344 0.45807 0.0
C1636 C 0.65804 0.68553 0.44752 0.0
C1637 C 0.70091 0.75668 0.39507 0.0
C1638 C 0.72678 0.77133 0.39973 0.0
C1639 C 0.6797 0.73396 0.40008 0.0
C1640 C 0.6845 0.7252 0.40964 0.0
C1641 C 0.7098 0.74129 0.41462 0.0
C1642 C 0.73081 0.7642 0.40968 0.0
C1643 C 0.66544 0.69745 0.41378 0.0
C1644 C 0.65773 0.69478 0.42424 0.0
C1645 C 0.65815 0.67354 0.4079 0.0
C1646 C 0.66609 0.67474 0.39691 0.0
C1647 C 0.69381 0.68677 0.39408 0.0
C1648 C 0.70111 0.68822 0.38366 0.0
C1649 C 0.68084 0.67742 0.37603 0.0
C1650 C 0.65321 0.66507 0.3788 0.0
C1651 C 0.64581 0.66362 0.38921 0.0
H1652 H 0.68653 0.67858 0.36796 0.0
H1653 H 0.62132 0.66172 0.46978 0.0
H1654 H 0.4459 0.03996 0.43369 0.0
H1655 H 0.40382 0.00113 0.42646 0.0
H1656 H 0.36208 0.04728 0.43027 0.0
H1657 H 0.40293 0.08483 0.43773 0.0
H1658 H 0.32976 0.99815 0.43632 0.0
H1659 H 0.39144 0.03997 0.4061 0.0
H1660 H 0.43318 0.05153 0.3961 0.0
H1661 H 0.41175 0.96689 0.39616 0.0
H1662 H 0.36999 0.95492 0.40623 0.0
H1663 H 0.26457 0.99394 0.38619 0.0
H1664 H 0.30334 0.99685 0.39536 0.0
H1665 H 0.24867 0.9301 0.41523 0.0
H1666 H 0.20914 0.92769 0.40615 0.0
H1667 H 0.32689 0.96887 0.39995 0.0
H1668 H 0.27652 0.9443 0.43937 0.0
H1669 H 0.23613 0.94032 0.44848 0.0
H1670 H 0.23704 0.00194 0.42863 0.0
H1671 H 0.27755 0.00641 0.4195 0.0
C1672 C 0.42763 0.04159 0.43295 0.0
C1673 C 0.4276 0.06531 0.43632 0.0
C1674 C 0.40363 0.01945 0.42885 0.0
C1675 C 0.3796 0.02112 0.42788 0.0
C1676 C 0.38003 0.0451 0.4311 0.0
C1677 C 0.40356 0.06674 0.43532 0.0
C1678 C 0.35386 0.99899 0.42321 0.0
C1679 C 0.32914 0.99122 0.42843 0.0
C1680 C 0.35283 0.9894 0.41301 0.0
C1681 C 0.37788 0.99663 0.40701 0.0
C1682 C 0.39576 0.02389 0.40402 0.0
C1683 C 0.41938 0.0305 0.39834 0.0
C1684 C 0.42517 0.00997 0.39553 0.0
C1685 C 0.40729 0.98277 0.39837 0.0
C1686 C 0.38366 0.97607 0.40406 0.0
C1687 C 0.26063 0.97958 0.39243 0.0
C1688 C 0.23375 0.96098 0.3956 0.0
C1689 C 0.28295 0.98106 0.39761 0.0
C1690 C 0.27906 0.96394 0.40609 0.0
C1691 C 0.25221 0.94379 0.4088 0.0
C1692 C 0.22965 0.94241 0.40361 0.0
C1693 C 0.30314 0.97048 0.41273 0.0
C1694 C 0.32742 0.97473 0.40798 0.0
C1695 C 0.30396 0.97786 0.42325 0.0
C1696 C 0.2797 0.97535 0.42868 0.0
C1697 C 0.26804 0.95695 0.43697 0.0
C1698 C 0.24517 0.95463 0.44213 0.0
C1699 C 0.23395 0.97078 0.43911 0.0
C1700 C 0.24567 0.98937 0.43094 0.0
C1701 C 0.26857 0.9918 0.42577 0.0
H1702 H 0.21624 0.96894 0.44311 0.0
H1703 H 0.44346 0.01512 0.39113 0.0
H1704 H 0.73897 0.01097 0.8894 0.0
H1705 H 0.70166 0.01304 0.89773 0.0
H1706 H 0.67037 0.931 0.90955 0.0
H1707 H 0.70908 0.92935 0.9015 0.0
H1708 H 0.64983 0.98917 0.89679 0.0
H1709 H 0.63849 0.92659 0.93259 0.0
H1710 H 0.66319 0.90852 0.94272 0.0
H1711 H 0.74014 0.97758 0.93366 0.0
H1712 H 0.71584 0.9961 0.92356 0.0
H1713 H 0.58865 0.04465 0.93035 0.0
H1714 H 0.59155 0.00726 0.9217 0.0
H1715 H 0.67088 0.03543 0.93562 0.0
H1716 H 0.66756 0.07134 0.94448 0.0
H1717 H 0.64666 0.98349 0.93509 0.0
H1718 H 0.65948 0.05539 0.90989 0.0
H1719 H 0.64305 0.08182 0.89996 0.0
H1720 H 0.57611 0.00705 0.88808 0.0
H1721 H 0.59209 0.98022 0.89802 0.0
C1722 C 0.72412 0.99321 0.89371 0.0
C1723 C 0.72717 0.97011 0.89489 0.0
C1724 C 0.70254 0.99432 0.89841 0.0
C1725 C 0.68312 0.97224 0.90433 0.0
C1726 C 0.68528 0.94847 0.90515 0.0
C1727 C 0.70736 0.94753 0.90055 0.0
C1728 C 0.66263 0.97599 0.91029 0.0
C1729 C 0.64868 0.98742 0.90516 0.0
C1730 C 0.6606 0.97333 0.9212 0.0
C1731 C 0.67538 0.96244 0.92722 0.0
C1732 C 0.66067 0.93786 0.93277 0.0
C1733 C 0.67459 0.92756 0.9385 0.0
C1734 C 0.70322 0.94183 0.9388 0.0
C1735 C 0.71798 0.96649 0.93339 0.0
C1736 C 0.70415 0.97688 0.92766 0.0
C1737 C 0.60645 0.04247 0.93165 0.0
C1738 C 0.62798 0.0611 0.93802 0.0
C1739 C 0.60811 0.02115 0.9267 0.0
C1740 C 0.63156 0.01857 0.92792 0.0
C1741 C 0.65243 0.03665 0.9346 0.0
C1742 C 0.65061 0.05747 0.93961 0.0
C1743 C 0.63648 -0.00069 0.92165 0.0
C1744 C 0.64681 0.98425 0.92669 0.0
C1745 C 0.63636 -0.0002 0.91069 0.0
C1746 C 0.62671 0.01585 0.90478 0.0
C1747 C 0.64117 0.04463 0.9052 0.0
C1748 C 0.63196 0.05966 0.89957 0.0
C1749 C 0.60849 0.04612 0.89343 0.0
C1750 C 0.59423 0.01751 0.89287 0.0
C1751 C 0.60334 0.00238 0.8985 0.0
H1752 H 0.6014 0.05778 0.88907 0.0
H1753 H 0.71395 0.93382 0.94323 0.0
H1754 H 0.92254 0.60031 0.94564 0.0
H1755 H 0.95758 0.63997 0.9365 0.0
H1756 H 0.98782 0.59022 0.92286 0.0
H1757 H 0.95152 0.54974 0.93174 0.0
H1758 H 0.00974 0.66883 0.93582 0.0
H1759 H 0.01326 0.61611 0.89888 0.0
H1760 H 0.9862 0.57299 0.88917 0.0
H1761 H 0.91178 0.56531 0.90136 0.0
H1762 H 0.93844 0.60849 0.91106 0.0
H1763 H 0.06973 0.78375 0.90136 0.0
H1764 H 0.06559 0.74298 0.91005 0.0
H1765 H 0.98413 0.69433 0.89745 0.0
H1766 H 0.98873 0.73404 0.88847 0.0
H1767 H 0.00588 0.66458 0.89749 0.0
H1768 H 0.00082 0.72712 0.92325 0.0
H1769 H 0.0208 0.77066 0.93295 0.0
H1770 H 0.08683 0.75908 0.94317 0.0
H1771 H 0.0673 0.71557 0.93345 0.0
C1772 C 0.93672 0.59774 0.94076 0.0
C1773 C 0.93405 0.57183 0.9393 0.0
C1774 C 0.95697 0.62056 0.93558 0.0
C1775 C 0.97533 0.61818 0.92891 0.0
C1776 C 0.97365 0.59254 0.92784 0.0
C1777 C 0.95294 0.56944 0.93291 0.0
C1778 C 0.99418 0.64228 0.92252 0.0
C1779 C 0.00927 0.66784 0.92742 0.0
C1780 C 0.99404 0.64113 0.91157 0.0
C1781 C 0.97784 0.61522 0.9058 0.0
C1782 C 0.99113 0.60517 0.89948 0.0
C1783 C 0.97587 0.58075 0.89398 0.0
C1784 C 0.9473 0.56635 0.89468 0.0
C1785 C 0.93391 0.57641 0.90086 0.0
C1786 C 0.94908 0.60083 0.90636 0.0
C1787 C 0.05116 0.7642 0.90037 0.0
C1788 C 0.02949 0.76212 0.8943 0.0
C1789 C 0.04877 0.74094 0.90534 0.0
C1790 C 0.0244 0.71552 0.90452 0.0
C1791 C 0.00326 0.71351 0.89818 0.0
C1792 C 0.00584 0.73641 0.89308 0.0
C1793 C 0.01914 0.69122 0.9108 0.0
C1794 C 0.0072 0.66556 0.90587 0.0
C1795 C 0.02115 0.69231 0.92173 0.0
C1796 C 0.03284 0.71838 0.92754 0.0
C1797 C 0.01968 0.73398 0.92753 0.0
C1798 C 0.0309 0.75861 0.93303 0.0
C1799 C 0.05513 0.76768 0.93864 0.0
C1800 C 0.06812 0.75208 0.9388 0.0
C1801 C 0.05699 0.72744 0.9333 0.0
H1802 H 0.06379 0.78676 0.9429 0.0
H1803 H 0.93552 0.54745 0.89042 0.0
H1804 H 0.43638 0.40758 0.93913 0.0
H1805 H 0.39704 0.40581 0.93011 0.0
H1806 H 0.39796 0.34867 0.90809 0.0
H1807 H 0.43709 0.35063 0.91704 0.0
H1808 H 0.38203 0.3831 0.89904 0.0
H1809 H 0.36172 0.32653 0.93111 0.0
H1810 H 0.36559 0.32323 0.95003 0.0
H1811 H 0.33265 0.37659 0.95481 0.0
H1812 H 0.32886 0.38037 0.9359 0.0
H1813 H 0.26822 0.26589 0.88506 0.0
H1814 H 0.3095 0.30418 0.89192 0.0
H1815 H 0.26135 0.33082 0.9091 0.0
H1816 H 0.21913 0.29138 0.90236 0.0
H1817 H 0.29956 0.3314 0.92103 0.0
H1818 H 0.30289 0.37072 0.88872 0.0
H1819 H 0.29833 0.37295 0.86982 0.0
H1820 H 0.36278 0.3545 0.86511 0.0
H1821 H 0.36747 0.3517 0.88396 0.0
C1822 C 0.42874 0.39558 0.93211 0.0
C1823 C 0.43966 0.37943 0.92864 0.0
C1824 C 0.40626 0.39445 0.92701 0.0
C1825 C 0.39444 0.37693 0.91848 0.0
C1826 C 0.40684 0.36247 0.9146 0.0
C1827 C 0.42915 0.36355 0.9197 0.0
C1828 C 0.36703 0.36988 0.91448 0.0
C1829 C 0.36391 0.37211 0.90382 0.0
C1830 C 0.34342 0.35666 0.92082 0.0
C1831 C 0.34526 0.35394 0.93214 0.0
C1832 C 0.35538 0.3376 0.93621 0.0
C1833 C 0.35757 0.33566 0.94693 0.0
C1834 C 0.34943 0.34975 0.95362 0.0
C1835 C 0.33899 0.36573 0.94962 0.0
C1836 C 0.33682 0.36778 0.93891 0.0
C1837 C 0.2662 0.27995 0.89021 0.0
C1838 C 0.24033 0.27557 0.89316 0.0
C1839 C 0.28998 0.30214 0.89405 0.0
C1840 C 0.28867 0.32091 0.90081 0.0
C1841 C 0.26286 0.3168 0.90377 0.0
C1842 C 0.2388 0.29428 0.89994 0.0
C1843 C 0.31452 0.34288 0.90542 0.0
C1844 C 0.31741 0.34351 0.91622 0.0
C1845 C 0.33789 0.35896 0.89919 0.0
C1846 C 0.33557 0.36108 0.8878 0.0
C1847 C 0.31606 0.36706 0.88366 0.0
C1848 C 0.31343 0.36841 0.87295 0.0
C1849 C 0.33027 0.3639 0.86627 0.0
C1850 C 0.3498 0.35807 0.87029 0.0
C1851 C 0.35251 0.35668 0.881 0.0
H1852 H 0.32817 0.36491 0.85797 0.0
H1853 H 0.35117 0.34824 0.96191 0.0
H1854 H 0.97244 0.71548 0.62126 0.0
H1855 H 0.97989 0.67898 0.61473 0.0
H1856 H 0.96294 0.69474 0.58368 0.0
H1857 H 0.95374 0.73008 0.59033 0.0
H1858 H 0.94811 0.64285 0.58522 0.0
H1859 H 0.02951 0.7279 0.59442 0.0
H1860 H 0.05964 0.76548 0.60619 0.0
H1861 H 0.0642 0.70774 0.62662 0.0
H1862 H 0.0338 0.66977 0.61501 0.0
H1863 H 0.05061 0.64542 0.55365 0.0
H1864 H 0.0163 0.64894 0.56395 0.0
H1865 H 0.03357 0.6116 0.58985 0.0
H1866 H 0.06795 0.60766 0.57942 0.0
H1867 H 0.04237 0.66357 0.59378 0.0
H1868 H 0.96984 0.58038 0.58049 0.0
H1869 H 0.94267 0.54619 0.56715 0.0
H1870 H 0.92459 0.60378 0.55255 0.0
H1871 H 0.95199 0.63849 0.5657 0.0
C1872 C 0.96962 0.7106 0.61308 0.0
C1873 C 0.96292 0.72573 0.60625 0.0
C1874 C 0.97395 0.68983 0.60935 0.0
C1875 C 0.97284 0.68469 0.59867 0.0
C1876 C 0.96408 0.69841 0.59194 0.0
C1877 C 0.95891 0.71865 0.59573 0.0
C1878 C 0.98407 0.66783 0.59438 0.0
C1879 C 0.9687 0.64732 0.58708 0.0
C1880 C 0.01076 0.67322 0.59698 0.0
C1881 C 0.02914 0.69601 0.60393 0.0
C1882 C 0.03682 0.72323 0.60145 0.0
C1883 C 0.05395 0.74458 0.60809 0.0
C1884 C 0.06375 0.73899 0.61717 0.0
C1885 C 0.05653 0.71203 0.6196 0.0
C1886 C 0.03936 0.69059 0.613 0.0
C1887 C 0.0465 0.63719 0.56144 0.0
C1888 C 0.06201 0.6265 0.56579 0.0
C1889 C 0.02672 0.63901 0.5673 0.0
C1890 C 0.02229 0.63044 0.57766 0.0
C1891 C 0.03655 0.61813 0.58184 0.0
C1892 C 0.05612 0.61586 0.57589 0.0
C1893 C 0.00673 0.63909 0.58441 0.0
C1894 C 0.02141 0.65833 0.59215 0.0
C1895 C 0.97975 0.63296 0.582 0.0
C1896 C 0.96308 0.6121 0.57409 0.0
C1897 C 0.96023 0.58584 0.5744 0.0
C1898 C 0.94476 0.56634 0.56687 0.0
C1899 C 0.93193 0.57281 0.55901 0.0
C1900 C 0.93452 0.59879 0.55866 0.0
C1901 C 0.94998 0.61837 0.56616 0.0
H1902 H 0.91997 0.5577 0.55319 0.0
H1903 H 0.07701 0.75555 0.6223 0.0
H1904 H 0.29197 0.24932 0.61384 0.0
H1905 H 0.3269 0.2909 0.60524 0.0
H1906 H 0.28935 0.25735 0.57568 0.0
H1907 H 0.25528 0.21504 0.58429 0.0
H1908 H 0.34352 0.29223 0.57326 0.0
H1909 H 0.26803 0.29353 0.59041 0.0
H1910 H 0.23813 0.28781 0.60526 0.0
H1911 H 0.30737 0.34876 0.62225 0.0
H1912 H 0.33775 0.35454 0.60753 0.0
H1913 H 0.3433 0.40222 0.54701 0.0
H1914 H 0.3371 0.36097 0.55558 0.0
H1915 H 0.3852 0.40952 0.58148 0.0
H1916 H 0.39147 0.45112 0.5729 0.0
H1917 H 0.33447 0.36953 0.58705 0.0
H1918 H 0.40771 0.37438 0.56712 0.0
H1919 H 0.43454 0.37968 0.55135 0.0
H1920 H 0.36667 0.30744 0.5384 0.0
H1921 H 0.33926 0.30191 0.55402 0.0
C1922 C 0.29195 0.25048 0.60547 0.0
C1923 C 0.27111 0.22927 0.59968 0.0
C1924 C 0.31177 0.27423 0.60056 0.0
C1925 C 0.31026 0.27754 0.58985 0.0
C1926 C 0.29086 0.25529 0.58395 0.0
C1927 C 0.27141 0.23116 0.58886 0.0
C1928 C 0.32567 0.30521 0.58513 0.0
C1929 C 0.3416 0.30918 0.57625 0.0
C1930 C 0.32345 0.32744 0.58912 0.0
C1931 C 0.30519 0.32423 0.59793 0.0
C1932 C 0.27689 0.30559 0.59734 0.0
C1933 C 0.25986 0.30234 0.60573 0.0
C1934 C 0.27085 0.31786 0.61471 0.0
C1935 C 0.29889 0.33671 0.6153 0.0
C1936 C 0.31603 0.33998 0.60694 0.0
C1937 C 0.35308 0.40423 0.55443 0.0
C1938 C 0.36761 0.42984 0.55935 0.0
C1939 C 0.34972 0.38063 0.55928 0.0
C1940 C 0.36081 0.38217 0.56915 0.0
C1941 C 0.37661 0.40793 0.57384 0.0
C1942 C 0.38017 0.43165 0.56894 0.0
C1943 C 0.35221 0.35665 0.5751 0.0
C1944 C 0.3372 0.35293 0.58419 0.0
C1945 C 0.35491 0.33467 0.57116 0.0
C1946 C 0.37136 0.33782 0.56174 0.0
C1947 C 0.39842 0.35973 0.56088 0.0
C1948 C 0.41375 0.36275 0.55197 0.0
C1949 C 0.40231 0.34393 0.54387 0.0
C1950 C 0.37552 0.322 0.54468 0.0
C1951 C 0.36009 0.31889 0.55357 0.0
H1952 H 0.41421 0.34631 0.53698 0.0
H1953 H 0.25764 0.31532 0.6212 0.0
H1954 H 0.78257 0.04499 0.5879 0.0
H1955 H 0.74055 0.0378 0.57959 0.0
H1956 H 0.70266 0.0271 0.60961 0.0
H1957 H 0.74404 0.03215 0.6178 0.0
H1958 H 0.67182 0.98686 0.59922 0.0
H1959 H 0.71468 0.08145 0.59124 0.0
H1960 H 0.75063 0.12668 0.58505 0.0
H1961 H 0.74372 0.09422 0.55443 0.0
H1962 H 0.70799 0.04868 0.56046 0.0
H1963 H 0.54701 0.94449 0.57292 0.0
H1964 H 0.58757 0.97834 0.58249 0.0
H1965 H 0.63981 0.97568 0.55867 0.0
H1966 H 0.59959 0.94183 0.54917 0.0
H1967 H 0.65951 0.02939 0.56758 0.0
H1968 H 0.62473 0.93353 0.57764 0.0
H1969 H 0.58848 0.88861 0.58401 0.0
H1970 H 0.58031 0.92664 0.61154 0.0
H1971 H 0.61629 0.97186 0.60524 0.0
C1972 C 0.76551 0.04196 0.5927 0.0
C1973 C 0.76631 0.039 0.60345 0.0
C1974 C 0.74148 0.03801 0.58796 0.0
C1975 C 0.71823 0.03196 0.59395 0.0
C1976 C 0.72012 0.0315 0.60479 0.0
C1977 C 0.74378 0.03452 0.60948 0.0
C1978 C 0.69103 0.02173 0.58893 0.0
C1979 C 0.66909 0.99682 0.59251 0.0
C1980 C 0.68724 0.03418 0.58002 0.0
C1981 C 0.7087 0.06157 0.57633 0.0
C1982 C 0.72094 0.08389 0.5832 0.0
C1983 C 0.74127 0.1096 0.57972 0.0
C1984 C 0.74947 0.11331 0.56936 0.0
C1985 C 0.73733 0.09132 0.56245 0.0
C1986 C 0.71699 0.06556 0.5659 0.0
C1987 C 0.56713 0.95163 0.56963 0.0
C1988 C 0.57023 0.94027 0.5604 0.0
C1989 C 0.59023 0.97097 0.57507 0.0
C1990 C 0.61663 0.97936 0.57129 0.0
C1991 C 0.61961 0.96956 0.56169 0.0
C1992 C 0.59662 0.95003 0.55633 0.0
C1993 C 0.64107 0.99484 0.5779 0.0
C1994 C 0.66236 0.02034 0.57454 0.0
C1995 C 0.64432 0.98324 0.58711 0.0
C1996 C 0.6229 0.95606 0.59092 0.0
C1997 C 0.61504 0.93232 0.58501 0.0
C1998 C 0.59458 0.90681 0.58861 0.0
C1999 C 0.58203 0.90479 0.59816 0.0
C2000 C 0.59 0.92825 0.60414 0.0
C2001 C 0.61041 0.95382 0.60056 0.0
H2002 H 0.5662 0.88502 0.60094 0.0
H2003 H 0.76522 0.13323 0.56667 0.0
H2004 H 0.72754 0.59187 0.74702 0.0
H2005 H 0.72116 0.62276 0.75862 0.0
H2006 H 0.69887 0.65525 0.73251 0.0
H2007 H 0.70465 0.62415 0.72099 0.0
H2008 H 0.725 0.69411 0.74975 0.0
H2009 H 0.65021 0.60182 0.7415 0.0
H2010 H 0.63079 0.55178 0.74028 0.0
H2011 H 0.6447 0.54816 0.77279 0.0
H2012 H 0.66471 0.59832 0.77414 0.0
H2013 H 0.61273 0.71296 0.76295 0.0
H2014 H 0.64843 0.70475 0.756 0.0
H2015 H 0.64459 0.66006 0.7837 0.0
H2016 H 0.60832 0.66732 0.79045 0.0
H2017 H 0.63866 0.63034 0.76794 0.0
H2018 H 0.70289 0.72256 0.77679 0.0
H2019 H 0.7224 0.77262 0.77762 0.0
H2020 H 0.72882 0.77759 0.74448 0.0
H2021 H 0.70897 0.72749 0.74343 0.0
C2022 C 0.72252 0.60651 0.74373 0.0
C2023 C 0.71623 0.60552 0.73318 0.0
C2024 C 0.71889 0.62413 0.75034 0.0
C2025 C 0.70929 0.64106 0.7464 0.0
C2026 C 0.70638 0.64244 0.73569 0.0
C2027 C 0.70951 0.62454 0.72913 0.0
C2028 C 0.69613 0.65201 0.75332 0.0
C2029 C 0.70621 0.68034 0.75381 0.0
C2030 C 0.67177 0.63394 0.75864 0.0
C2031 C 0.65925 0.60378 0.75789 0.0
C2032 C 0.6493 0.59035 0.74837 0.0
C2033 C 0.63819 0.56199 0.74765 0.0
C2034 C 0.63659 0.54681 0.75645 0.0
C2035 C 0.64602 0.55996 0.76598 0.0
C2036 C 0.65727 0.58835 0.76672 0.0
C2037 C 0.61992 0.70185 0.76762 0.0
C2038 C 0.60754 0.69045 0.77716 0.0
C2039 C 0.64047 0.69732 0.76368 0.0
C2040 C 0.64931 0.68181 0.76934 0.0
C2041 C 0.63805 0.67194 0.77917 0.0
C2042 C 0.61728 0.67607 0.78301 0.0
C2043 C 0.66741 0.67276 0.76452 0.0
C2044 C 0.65793 0.6445 0.76425 0.0
C2045 C 0.69227 0.69103 0.75945 0.0
C2046 C 0.70424 0.7212 0.76003 0.0
C2047 C 0.70826 0.73428 0.76967 0.0
C2048 C 0.71942 0.76268 0.77018 0.0
C2049 C 0.7268 0.77827 0.76111 0.0
C2050 C 0.72308 0.76549 0.7515 0.0
C2051 C 0.71191 0.73709 0.75094 0.0
H2052 H 0.73544 0.80025 0.76153 0.0
H2053 H 0.62797 0.52485 0.75588 0.0
H2054 H 0.39098 0.12244 0.74257 0.0
H2055 H 0.36045 0.08149 0.75275 0.0
H2056 H 0.35643 0.03006 0.72734 0.0
H2057 H 0.38659 0.07051 0.71717 0.0
H2058 H 0.30484 0.02106 0.74796 0.0
H2059 H 0.39146 0.0023 0.73852 0.0
H2060 H 0.44016 0.02798 0.73337 0.0
H2061 H 0.45192 0.09656 0.75173 0.0
H2062 H 0.40343 0.07107 0.75712 0.0
H2063 H 0.27965 0.88526 0.76208 0.0
H2064 H 0.28805 0.92805 0.75375 0.0
H2065 H 0.34549 0.97471 0.77788 0.0
H2066 H 0.33747 0.93249 0.78611 0.0
H2067 H 0.36821 0.9886 0.75897 0.0
H2068 H 0.28639 0.97498 0.77574 0.0
H2069 H 0.23744 0.94979 0.78041 0.0
H2070 H 0.2154 0.94633 0.7484 0.0
H2071 H 0.26424 0.97116 0.74351 0.0
C2072 C 0.38267 0.10243 0.73903 0.0
C2073 C 0.39155 0.09958 0.72918 0.0
C2074 C 0.36513 0.07909 0.74482 0.0
C2075 C 0.35638 0.05287 0.74078 0.0
C2076 C 0.36293 0.05016 0.73055 0.0
C2077 C 0.38038 0.07332 0.7248 0.0
C2078 C 0.34633 0.02895 0.74773 0.0
C2079 C 0.31857 0.01392 0.75046 0.0
C2080 C 0.36439 0.01986 0.75096 0.0
C2081 C 0.39383 0.03489 0.74814 0.0
C2082 C 0.40452 0.02279 0.74151 0.0
C2083 C 0.43206 0.03731 0.73854 0.0
C2084 C 0.44911 0.06392 0.7422 0.0
C2085 C 0.43868 0.07599 0.74888 0.0
C2086 C 0.41118 0.06152 0.75189 0.0
C2087 C 0.29364 0.90466 0.76569 0.0
C2088 C 0.30823 0.90556 0.77465 0.0
C2089 C 0.29834 0.92906 0.76096 0.0
C2090 C 0.31749 0.95455 0.76519 0.0
C2091 C 0.33075 0.95529 0.77446 0.0
C2092 C 0.32618 0.93109 0.77914 0.0
C2093 C 0.32651 0.9804 0.7594 0.0
C2094 C 0.35429 0.99572 0.75669 0.0
C2095 C 0.30838 0.98967 0.75634 0.0
C2096 C 0.279 0.9747 0.75925 0.0
C2097 C 0.27111 0.96862 0.76968 0.0
C2098 C 0.24338 0.95445 0.77238 0.0
C2099 C 0.22332 0.9464 0.76471 0.0
C2100 C 0.23096 0.95255 0.75433 0.0
C2101 C 0.25867 0.96669 0.7516 0.0
H2102 H 0.20185 0.93545 0.76681 0.0
H2103 H 0.4704 0.07516 0.73987 0.0
H2104 H 0.87805 0.26207 0.74047 0.0
H2105 H 0.92173 0.27187 0.74833 0.0
H2106 H 0.96459 0.34302 0.72876 0.0
H2107 H 0.9214 0.33342 0.72091 0.0
H2108 H 0.99169 0.3133 0.73042 0.0
H2109 H 0.9468 0.34919 0.75318 0.0
H2110 H 0.90872 0.34345 0.76432 0.0
H2111 H 0.9177 0.28561 0.78316 0.0
H2112 H 0.95565 0.29081 0.77204 0.0
H2113 H 0.11114 0.41818 0.75271 0.0
H2114 H 0.06886 0.38431 0.74435 0.0
H2115 H 0.04449 0.33604 0.77242 0.0
H2116 H 0.08597 0.37141 0.78099 0.0
H2117 H 0.00566 0.3413 0.76731 0.0
H2118 H 0.05752 0.31321 0.74733 0.0
H2119 H 0.09541 0.31758 0.73644 0.0
H2120 H 0.0737 0.35646 0.71264 0.0
H2121 H 0.03592 0.35271 0.72343 0.0
C2122 C 0.89683 0.27969 0.73782 0.0
C2123 C 0.89628 0.29713 0.73015 0.0
C2124 C 0.92173 0.28522 0.74229 0.0
C2125 C 0.94636 0.30821 0.73913 0.0
C2126 C 0.94585 0.32509 0.73127 0.0
C2127 C 0.92108 0.31969 0.72685 0.0
C2128 C 0.97264 0.31623 0.74441 0.0
C2129 C 0.99491 0.31938 0.7385 0.0
C2130 C 0.97644 0.32305 0.75504 0.0
C2131 C 0.95379 0.32014 0.76172 0.0
C2132 C 0.94051 0.33512 0.75966 0.0
C2133 C 0.91898 0.33199 0.76597 0.0
C2134 C 0.91073 0.31411 0.77442 0.0
C2135 C 0.92406 0.2994 0.7766 0.0
C2136 C 0.94558 0.30244 0.7703 0.0
C2137 C 0.09712 0.39984 0.75694 0.0
C2138 C 0.10169 0.39709 0.76741 0.0
C2139 C 0.07295 0.38031 0.75215 0.0
C2140 C 0.05335 0.35722 0.75767 0.0
C2141 C 0.05911 0.35361 0.76797 0.0
C2142 C 0.08287 0.37364 0.77285 0.0
C2143 C 0.02549 0.33945 0.75325 0.0
C2144 C 0.00272 0.33448 0.75932 0.0
C2145 C 0.02126 0.33056 0.7428 0.0
C2146 C 0.04389 0.33273 0.73622 0.0
C2147 C 0.0609 0.32283 0.7398 0.0
C2148 C 0.08236 0.32518 0.73364 0.0
C2149 C 0.08697 0.3373 0.72386 0.0
C2150 C 0.07009 0.34705 0.72021 0.0
C2151 C 0.0486 0.34475 0.72634 0.0
H2152 H 0.10361 0.33913 0.7191 0.0
H2153 H 0.89406 0.31171 0.7793 0.0
H2154 H 0.40145 0.288 0.24196 0.0
H2155 H 0.36686 0.29594 0.25005 0.0
H2156 H 0.34163 0.30819 0.21987 0.0
H2157 H 0.37756 0.30215 0.21189 0.0
H2158 H 0.35166 0.34857 0.23044 0.0
H2159 H 0.29754 0.254 0.23763 0.0
H2160 H 0.28641 0.20792 0.24347 0.0
H2161 H 0.31043 0.23798 0.27446 0.0
H2162 H 0.3221 0.28435 0.26878 0.0
H2163 H 0.27183 0.39388 0.25674 0.0
H2164 H 0.27676 0.35903 0.24712 0.0
H2165 H 0.33062 0.35908 0.27085 0.0
H2166 H 0.32606 0.39397 0.2804 0.0
H2167 H 0.2949 0.30568 0.26165 0.0
H2168 H 0.35906 0.40157 0.25221 0.0
H2169 H 0.36927 0.44724 0.24613 0.0
H2170 H 0.32286 0.41135 0.21843 0.0
H2171 H 0.31207 0.3654 0.22445 0.0
C2172 C 0.38796 0.29163 0.23707 0.0
C2173 C 0.3922 0.29475 0.22635 0.0
C2174 C 0.36801 0.29598 0.24169 0.0
C2175 C 0.35143 0.30263 0.23559 0.0
C2176 C 0.35423 0.30333 0.22477 0.0
C2177 C 0.3747 0.29982 0.2202 0.0
C2178 C 0.33466 0.31321 0.24051 0.0
C2179 C 0.33854 0.33856 0.23705 0.0
C2180 C 0.31781 0.30062 0.24927 0.0
C2181 C 0.31083 0.27274 0.25276 0.0
C2182 C 0.30064 0.25085 0.24568 0.0
C2183 C 0.2942 0.22466 0.24896 0.0
C2184 C 0.29774 0.22004 0.25933 0.0
C2185 C 0.30769 0.24159 0.26643 0.0
C2186 C 0.31417 0.26783 0.26319 0.0
C2187 C 0.28418 0.38596 0.26001 0.0
C2188 C 0.29894 0.3969 0.26921 0.0
C2189 C 0.2869 0.36602 0.25453 0.0
C2190 C 0.30415 0.35663 0.25827 0.0
C2191 C 0.31712 0.36599 0.26787 0.0
C2192 C 0.31471 0.38611 0.27326 0.0
C2193 C 0.31243 0.34077 0.25157 0.0
C2194 C 0.3072 0.3148 0.25478 0.0
C2195 C 0.32776 0.35248 0.24248 0.0
C2196 C 0.33449 0.38009 0.23883 0.0
C2197 C 0.35088 0.40343 0.24486 0.0
C2198 C 0.35679 0.42934 0.24143 0.0
C2199 C 0.34665 0.43218 0.23191 0.0
C2200 C 0.33065 0.40911 0.22581 0.0
C2201 C 0.32463 0.38314 0.22923 0.0
H2202 H 0.35125 0.45226 0.22926 0.0
H2203 H 0.29275 0.19974 0.26186 0.0
H2204 H 0.5977 0.8865 0.26043 0.0
H2205 H 0.6313 0.92886 0.25182 0.0
H2206 H 0.64303 0.97351 0.2803 0.0
H2207 H 0.60854 0.93155 0.28872 0.0
H2208 H 0.63177 0.99719 0.26625 0.0
H2209 H 0.69532 0.96533 0.26821 0.0
H2210 H 0.7127 0.93316 0.26638 0.0
H2211 H 0.70172 0.93147 0.23344 0.0
H2212 H 0.6839 0.96334 0.23508 0.0
H2213 H 0.72207 0.1229 0.24238 0.0
H2214 H 0.71346 0.08323 0.25302 0.0
H2215 H 0.6723 0.02937 0.22731 0.0
H2216 H 0.68016 0.06871 0.21676 0.0
H2217 H 0.70539 0.01369 0.2413 0.0
H2218 H 0.63304 0.03796 0.24078 0.0
H2219 H 0.61679 0.07103 0.24274 0.0
H2220 H 0.64682 0.08746 0.27399 0.0
H2221 H 0.66366 0.05476 0.27213 0.0
C2222 C 0.60799 0.90527 0.26488 0.0
C2223 C 0.60038 0.90592 0.27518 0.0
C2224 C 0.62732 0.92948 0.25998 0.0
C2225 C 0.63979 0.95451 0.2654 0.0
C2226 C 0.63358 0.95458 0.27592 0.0
C2227 C 0.61389 0.93059 0.28073 0.0
C2228 C 0.65615 0.98096 0.25984 0.0
C2229 C 0.64835 0.00092 0.26103 0.0
C2230 C 0.67745 0.98585 0.25281 0.0
C2231 C 0.68806 0.96658 0.25178 0.0
C2232 C 0.69639 0.95793 0.26058 0.0
C2233 C 0.70636 0.93978 0.25958 0.0
C2234 C 0.70826 0.93023 0.24981 0.0
C2235 C 0.70023 0.93887 0.24101 0.0
C2236 C 0.69022 0.95701 0.24197 0.0
C2237 C 0.71193 0.10267 0.23893 0.0
C2238 C 0.70146 0.09872 0.22882 0.0
C2239 C 0.70709 0.08009 0.24499 0.0
C2240 C 0.69222 0.05345 0.24092 0.0
C2241 C 0.68397 0.04979 0.23054 0.0
C2242 C 0.68827 0.07223 0.22457 0.0
C2243 C 0.68088 0.02936 0.24785 0.0
C2244 C 0.68933 0.00992 0.2468 0.0
C2245 C 0.66032 0.02489 0.25511 0.0
C2246 C 0.64991 0.04424 0.25627 0.0
C2247 C 0.63639 0.04882 0.24803 0.0
C2248 C 0.62704 0.06745 0.24913 0.0
C2249 C 0.63086 0.08141 0.25847 0.0
C2250 C 0.64395 0.07668 0.26675 0.0
C2251 C 0.6534 0.05811 0.26568 0.0
H2252 H 0.6236 0.09583 0.25931 0.0
H2253 H 0.716 0.91619 0.24905 0.0
H2254 H 0.91384 0.62445 0.21476 0.0
H2255 H 0.9558 0.66132 0.22249 0.0
H2256 H 0.92576 0.62768 0.25286 0.0
H2257 H 0.88301 0.59186 0.24513 0.0
H2258 H 0.95882 0.68115 0.25444 0.0
H2259 H 0.96335 0.60657 0.23718 0.0
H2260 H 0.9587 0.57757 0.22213 0.0
H2261 H 0.01653 0.64873 0.20514 0.0
H2262 H 0.02124 0.67816 0.22006 0.0
H2263 H 0.0622 0.67622 0.28192 0.0
H2264 H 0.02362 0.6729 0.27234 0.0
H2265 H 0.07793 0.72153 0.24769 0.0
H2266 H 0.11709 0.72479 0.25736 0.0
H2267 H 0.03709 0.67359 0.24082 0.0
H2268 H 0.04134 0.74527 0.26125 0.0
H2269 H 0.046 0.77136 0.27717 0.0
H2270 H 0.97218 0.70362 0.28924 0.0
H2271 H 0.96726 0.67693 0.27347 0.0
C2272 C 0.91587 0.62565 0.22312 0.0
C2273 C 0.89548 0.60544 0.22939 0.0
C2274 C 0.93987 0.64657 0.22752 0.0
C2275 C 0.94434 0.64677 0.23823 0.0
C2276 C 0.92288 0.6279 0.24458 0.0
C2277 C 0.89847 0.60743 0.24018 0.0
C2278 C 0.97231 0.66364 0.24262 0.0
C2279 C 0.97599 0.6796 0.25147 0.0
C2280 C 0.99498 0.66226 0.23858 0.0
C2281 C 0.9924 0.64456 0.22967 0.0
C2282 C 0.97497 0.61601 0.23021 0.0
C2283 C 0.97232 0.59951 0.22171 0.0
C2284 C 0.98725 0.61131 0.21267 0.0
C2285 C 0.00493 0.63963 0.21213 0.0
C2286 C 0.0076 0.65622 0.22061 0.0
C2287 C 0.0661 0.68671 0.27455 0.0
C2288 C 0.09261 0.70052 0.27032 0.0
C2289 C 0.044 0.68505 0.26912 0.0
C2290 C 0.04785 0.69719 0.25933 0.0
C2291 C 0.07454 0.71219 0.25528 0.0
C2292 C 0.09686 0.71406 0.26079 0.0
C2293 C 0.02346 0.69037 0.25288 0.0
C2294 C 0.02032 0.67608 0.24363 0.0
C2295 C 0.00129 0.693 0.25667 0.0
C2296 C 0.00397 0.70906 0.26616 0.0
C2297 C 0.02616 0.73586 0.26732 0.0
C2298 C 0.02885 0.75077 0.27632 0.0
C2299 C 0.0094 0.73915 0.28421 0.0
C2300 C 0.98721 0.71261 0.28311 0.0
C2301 C 0.98443 0.6976 0.27413 0.0
H2302 H 0.01153 0.75072 0.29118 0.0
H2303 H 0.98517 0.59851 0.2061 0.0
H2304 H 0.05042 0.18876 0.12997 0.0
H2305 H 0.08332 0.17244 0.12924 0.0
H2306 H 0.06162 0.14907 0.0973 0.0
H2307 H 0.02978 0.16636 0.09788 0.0
H2308 H 0.0731 0.12358 0.12702 0.0
H2309 H 0.11088 0.14541 0.08419 0.0
H2310 H 0.12301 0.18137 0.07101 0.0
H2311 H 0.14075 0.24085 0.09493 0.0
H2312 H 0.12911 0.20536 0.10826 0.0
H2313 H 0.11114 0.02946 0.11303 0.0
H2314 H 0.09165 0.05943 0.11107 0.0
H2315 H 0.1729 0.13022 0.11157 0.0
H2316 H 0.1925 0.10008 0.11341 0.0
H2317 H 0.13857 0.13811 0.09872 0.0
H2318 H 0.13869 0.11086 0.13364 0.0
H2319 H 0.13031 0.07877 0.14801 0.0
H2320 H 0.04393 0.03764 0.14181 0.0
H2321 H 0.05182 0.06932 0.12732 0.0
C2322 C 0.05315 0.18066 0.12275 0.0
C2323 C 0.03756 0.17883 0.11399 0.0
C2324 C 0.07188 0.17128 0.12233 0.0
C2325 C 0.07518 0.15969 0.11319 0.0
C2326 C 0.06004 0.1585 0.10438 0.0
C2327 C 0.04164 0.16824 0.10474 0.0
C2328 C 0.09227 0.1464 0.11313 0.0
C2329 C 0.08754 0.12701 0.12086 0.0
C2330 C 0.11151 0.15105 0.10519 0.0
C2331 C 0.11891 0.17264 0.09722 0.0
C2332 C 0.11751 0.16619 0.08664 0.0
C2333 C 0.12427 0.18649 0.07915 0.0
C2334 C 0.13258 0.21336 0.08213 0.0
C2335 C 0.13423 0.22001 0.09263 0.0
C2336 C 0.12751 0.1998 0.10015 0.0
C2337 C 0.12481 0.05139 0.11254 0.0
C2338 C 0.15321 0.06256 0.11356 0.0
C2339 C 0.11371 0.06848 0.11141 0.0
C2340 C 0.13081 0.09706 0.11145 0.0
C2341 C 0.15936 0.10822 0.11159 0.0
C2342 C 0.17052 0.09102 0.11261 0.0
C2343 C 0.11864 0.11497 0.11242 0.0
C2344 C 0.12428 0.13506 0.10489 0.0
C2345 C 0.10076 0.11158 0.12069 0.0
C2346 C 0.09587 0.09238 0.12937 0.0
C2347 C 0.11792 0.09486 0.1353 0.0
C2348 C 0.11326 0.07677 0.14347 0.0
C2349 C 0.0866 0.05623 0.14583 0.0
C2350 C 0.06456 0.05362 0.13999 0.0
C2351 C 0.06911 0.07166 0.13181 0.0
H2352 H 0.08302 0.04241 0.15222 0.0
H2353 H 0.13778 0.22904 0.07632 0.0
H2354 H 0.93629 0.09842 0.10321 0.0
H2355 H 0.91257 0.04912 0.09924 0.0
H2356 H 0.93135 0.03268 0.1299 0.0
H2357 H 0.95551 0.08124 0.13373 0.0
H2358 H 0.94089 0.00411 0.11672 0.0
H2359 H 0.86632 0.02326 0.12227 0.0
H2360 H 0.83966 0.04603 0.11835 0.0
H2361 H 0.82571 0.01416 0.08738 0.0
H2362 H 0.85256 0.99145 0.09109 0.0
H2363 H 0.84518 0.87047 0.13111 0.0
H2364 H 0.86794 0.92025 0.12919 0.0
H2365 H 0.85248 0.91117 0.09633 0.0
H2366 H 0.82987 0.86122 0.09816 0.0
H2367 H 0.8429 0.95212 0.10659 0.0
H2368 H 0.91231 0.92768 0.10219 0.0
H2369 H 0.93641 0.90282 0.10682 0.0
H2370 H 0.95892 0.94391 0.13618 0.0
H2371 H 0.9347 0.9689 0.13176 0.0
C2372 C 0.9353 0.0842 0.10907 0.0
C2373 C 0.9479 0.09377 0.11875 0.0
C2374 C 0.92171 0.05606 0.10681 0.0
C2375 C 0.9201 0.03714 0.11429 0.0
C2376 C 0.93252 0.04681 0.12395 0.0
C2377 C 0.94632 0.07469 0.12614 0.0
C2378 C 0.90556 0.00715 0.11232 0.0
C2379 C 0.91945 0.99282 0.11452 0.0
C2380 C 0.87782 0.99233 0.10912 0.0
C2381 C 0.86171 0.00596 0.10691 0.0
C2382 C 0.85773 0.02129 0.1146 0.0
C2383 C 0.84256 0.03415 0.11242 0.0
C2384 C 0.83108 0.03162 0.10261 0.0
C2385 C 0.83467 0.01615 0.09497 0.0
C2386 C 0.84985 0.00328 0.0971 0.0
C2387 C 0.84637 0.87901 0.1235 0.0
C2388 C 0.83592 0.86199 0.11478 0.0
C2389 C 0.85939 0.90743 0.12241 0.0
C2390 C 0.86201 0.91928 0.11261 0.0
C2391 C 0.85062 0.90234 0.10395 0.0
C2392 C 0.83782 0.87388 0.10501 0.0
C2393 C 0.87798 0.9494 0.11146 0.0
C2394 C 0.86446 0.96359 0.10861 0.0
C2395 C 0.90603 0.96417 0.11412 0.0
C2396 C 0.92151 0.95 0.11667 0.0
C2397 C 0.9223 0.93134 0.10965 0.0
C2398 C 0.93598 0.91721 0.11224 0.0
C2399 C 0.94903 0.92164 0.12182 0.0
C2400 C 0.94873 0.94046 0.12878 0.0
C2401 C 0.93508 0.95466 0.12622 0.0
H2402 H 0.95935 0.91048 0.12384 0.0
H2403 H 0.81933 0.04158 0.10094 0.0
H2404 H 0.90443 0.84261 0.10184 0.0
H2405 H 0.95394 0.8656 0.09822 0.0
H2406 H 0.96836 0.8469 0.12918 0.0
H2407 H 0.91943 0.82474 0.13283 0.0
H2408 H 0.99548 0.90036 0.12561 0.0
H2409 H 0.98113 0.81912 0.10782 0.0
H2410 H 0.96087 0.78242 0.09473 0.0
H2411 H 0.99289 0.8424 0.07042 0.0
H2412 H 0.01304 0.8795 0.08337 0.0
H2413 H 0.13604 0.95402 0.12814 0.0
H2414 H 0.08689 0.9216 0.12739 0.0
H2415 H 0.085 0.94427 0.09561 0.0
H2416 H 0.13451 0.97607 0.09621 0.0
H2417 H 0.05131 0.89053 0.09812 0.0
H2418 H 0.06475 0.97189 0.11551 0.0
H2419 H 0.08414 0.00906 0.1285 0.0
H2420 H 0.05261 0.94979 0.15302 0.0
H2421 H 0.03296 0.91229 0.14024 0.0
C2422 C 0.9182 0.84262 0.1077 0.0
C2423 C 0.90838 0.83208 0.11761 0.0
C2424 C 0.94642 0.85576 0.10564 0.0
C2425 C 0.96485 0.85814 0.11347 0.0
C2426 C 0.95456 0.8455 0.12307 0.0
C2427 C 0.92663 0.83277 0.12514 0.0
C2428 C 0.99479 0.87683 0.11236 0.0
C2429 C 0.00764 0.89805 0.11962 0.0
C2430 C 0.01058 0.87439 0.10436 0.0
C2431 C 0.9983 0.85211 0.09657 0.0
C2432 C 0.9836 0.82451 0.09969 0.0
C2433 C 0.9722 0.80363 0.09229 0.0
C2434 C 0.97551 0.81008 0.08175 0.0
C2435 C 0.99029 0.83743 0.07859 0.0
C2436 C 0.00172 0.85839 0.08595 0.0
C2437 C 0.1252 0.95188 0.12096 0.0
C2438 C 0.13901 0.96768 0.11226 0.0
C2439 C 0.0971 0.93345 0.12055 0.0
C2440 C 0.08214 0.93097 0.11151 0.0
C2441 C 0.09609 0.94594 0.10268 0.0
C2442 C 0.12435 0.96412 0.10304 0.0
C2443 C 0.05184 0.91363 0.11151 0.0
C2444 C 0.03897 0.89293 0.10402 0.0
C2445 C 0.03576 0.91666 0.11923 0.0
C2446 C 0.04759 0.93927 0.12692 0.0
C2447 C 0.06209 0.96679 0.12368 0.0
C2448 C 0.07309 0.98791 0.13099 0.0
C2449 C 0.06977 0.98176 0.14155 0.0
C2450 C 0.05522 0.95451 0.14484 0.0
C2451 C 0.04407 0.93332 0.13756 0.0
H2452 H 0.07844 0.99809 0.14721 0.0
H2453 H 0.96669 0.79388 0.07604 0.0
H2454 H 0.10169 0.19207 0.38591 0.0
H2455 H 0.1306 0.17207 0.39008 0.0
H2456 H 0.0588 0.09169 0.39129 0.0
H2457 H 0.03012 0.11135 0.38663 0.0
H2458 H 0.11071 0.11111 0.40748 0.0
H2459 H 0.07781 0.09738 0.37046 0.0
H2460 H 0.07305 0.11802 0.3543 0.0
H2461 H 0.15944 0.17563 0.3544 0.0
H2462 H 0.16455 0.1556 0.37068 0.0
H2463 H 0.13585 0.00353 0.39833 0.0
H2464 H 0.11978 0.03628 0.39992 0.0
H2465 H 0.18455 0.09198 0.37949 0.0
H2466 H 0.19895 0.0578 0.37718 0.0
H2467 H 0.14443 0.09429 0.37434 0.0
H2468 H 0.18166 0.10178 0.40768 0.0
H2469 H 0.19099 0.0871 0.42443 0.0
H2470 H 0.10605 0.0504 0.43268 0.0
H2471 H 0.0961 0.06452 0.41592 0.0
C2472 C 0.09207 0.17028 0.38743 0.0
C2473 C 0.06377 0.15315 0.38599 0.0
C2474 C 0.10855 0.15892 0.38979 0.0
C2475 C 0.09672 0.13048 0.39101 0.0
C2476 C 0.0682 0.11371 0.39047 0.0
C2477 C 0.05188 0.12492 0.38781 0.0
C2478 C 0.1139 0.11753 0.39103 0.0
C2479 C 0.11822 0.10735 0.40029 0.0
C2480 C 0.12452 0.11374 0.38169 0.0
C2481 C 0.1215 0.12521 0.3718 0.0
C2482 C 0.09573 0.11457 0.36706 0.0
C2483 C 0.09297 0.12615 0.35789 0.0
C2484 C 0.11592 0.1482 0.35334 0.0
C2485 C 0.14168 0.15863 0.35794 0.0
C2486 C 0.14451 0.14718 0.36714 0.0
C2487 C 0.14671 0.02289 0.39425 0.0
C2488 C 0.16868 0.02838 0.38769 0.0
C2489 C 0.13774 0.0418 0.39525 0.0
C2490 C 0.15137 0.06716 0.39008 0.0
C2491 C 0.17366 0.0727 0.3836 0.0
C2492 C 0.18196 0.05326 0.3823 0.0
C2493 C 0.14103 0.08684 0.39085 0.0
C2494 C 0.13776 0.09834 0.38167 0.0
C2495 C 0.13228 0.09259 0.40037 0.0
C2496 C 0.13812 0.08409 0.4105 0.0
C2497 C 0.16493 0.09043 0.41304 0.0
C2498 C 0.17034 0.08223 0.42254 0.0
C2499 C 0.14913 0.06779 0.42961 0.0
C2500 C 0.12247 0.06159 0.4272 0.0
C2501 C 0.11694 0.06973 0.4177 0.0
H2502 H 0.15335 0.06145 0.43696 0.0
H2503 H 0.11375 0.15715 0.34624 0.0
H2504 H 0.95839 0.13789 0.3979 0.0
H2505 H 0.92649 0.08853 0.39904 0.0
H2506 H 0.94372 0.07927 0.3672 0.0
H2507 H 0.97443 0.12857 0.36589 0.0
H2508 H 0.89233 0.04815 0.37048 0.0
H2509 H 0.97455 0.06541 0.38927 0.0
H2510 H 0.00957 0.08599 0.40301 0.0
H2511 H 0.94684 0.05185 0.42625 0.0
H2512 H 0.91143 0.03107 0.41267 0.0
H2513 H 0.86925 0.91608 0.36485 0.0
H2514 H 0.89139 0.96519 0.36761 0.0
H2515 H 0.85064 0.95175 0.39708 0.0
H2516 H 0.82879 0.90193 0.39451 0.0
H2517 H 0.90663 0.99354 0.39734 0.0
H2518 H 0.82635 0.96701 0.3774 0.0
H2519 H 0.79478 0.94251 0.3631 0.0
H2520 H 0.85579 0.99432 0.34105 0.0
H2521 H 0.88854 0.01799 0.35522 0.0
C2522 C 0.95512 0.12531 0.39112 0.0
C2523 C 0.96906 0.13704 0.38183 0.0
C2524 C 0.93705 0.09709 0.39181 0.0
C2525 C 0.93309 0.08006 0.38327 0.0
C2526 C 0.94644 0.09194 0.37391 0.0
C2527 C 0.96409 0.12015 0.37317 0.0
C2528 C 0.91551 0.04982 0.384 0.0
C2529 C 0.89558 0.03623 0.37633 0.0
C2530 C 0.91905 0.03423 0.39184 0.0
C2531 C 0.94034 0.04699 0.39996 0.0
C2532 C 0.96823 0.06248 0.39731 0.0
C2533 C 0.98814 0.07413 0.40506 0.0
C2534 C 0.98042 0.07037 0.41547 0.0
C2535 C 0.95278 0.05482 0.41817 0.0
C2536 C 0.93279 0.04306 0.41046 0.0
C2537 C 0.86533 0.92339 0.37203 0.0
C2538 C 0.84742 0.90503 0.3795 0.0
C2539 C 0.87783 0.95155 0.37354 0.0
C2540 C 0.87241 0.96206 0.38249 0.0
C2541 C 0.855 0.94394 0.39011 0.0
C2542 C 0.84244 0.91556 0.3886 0.0
C2543 C 0.88446 0.99205 0.38357 0.0
C2544 C 0.90313 0.00553 0.3916 0.0
C2545 C 0.88007 0.00756 0.37597 0.0
C2546 C 0.86002 0.99422 0.36741 0.0
C2547 C 0.83317 0.9731 0.36951 0.0
C2548 C 0.81502 0.95932 0.36141 0.0
C2549 C 0.8231 0.96702 0.35116 0.0
C2550 C 0.8495 0.98841 0.349 0.0
C2551 C 0.86795 0.00192 0.35707 0.0
H2552 H 0.80894 0.95635 0.34491 0.0
H2553 H 0.99588 0.07941 0.42145 0.0
H2554 H 0.07931 0.96906 0.38187 0.0
H2555 H 0.0301 0.94033 0.38438 0.0
H2556 H 0.03998 0.87006 0.38945 0.0
H2557 H 0.08974 0.89908 0.38708 0.0
H2558 H 0.99796 0.89993 0.37186 0.0
H2559 H 0.9828 0.82283 0.40415 0.0
H2560 H 0.00585 0.82032 0.42002 0.0
H2561 H 0.04343 0.90744 0.42391 0.0
H2562 H 0.02033 0.9104 0.40816 0.0
H2563 H 0.85634 0.80543 0.37164 0.0
H2564 H 0.9056 0.82163 0.37196 0.0
H2565 H 0.91183 0.85829 0.40191 0.0
H2566 H 0.86265 0.841 0.40184 0.0
H2567 H 0.94608 0.84062 0.40149 0.0
H2568 H 0.9251 0.89532 0.37812 0.0
H2569 H 0.90275 0.9029 0.36309 0.0
H2570 H 0.93845 0.86884 0.34288 0.0
H2571 H 0.96102 0.86097 0.35781 0.0
C2572 C 0.07109 0.94757 0.38368 0.0
C2573 C 0.0883 0.93622 0.38416 0.0
C2574 C 0.04295 0.93116 0.38509 0.0
C2575 C 0.0313 0.90299 0.38697 0.0
C2576 C 0.04855 0.89178 0.38804 0.0
C2577 C 0.07695 0.90836 0.38671 0.0
C2578 C 0.00101 0.88546 0.38697 0.0
C2579 C 0.98666 0.88683 0.37833 0.0
C2580 C 0.98623 0.86838 0.39539 0.0
C2581 C 0.00012 0.86685 0.4049 0.0
C2582 C 0.99595 0.84143 0.40841 0.0
C2583 C 0.00902 0.83994 0.41738 0.0
C2584 C 0.02618 0.86372 0.42295 0.0
C2585 C 0.03024 0.88905 0.41957 0.0
C2586 C 0.0172 0.89065 0.41061 0.0
C2587 C 0.86821 0.81656 0.37835 0.0
C2588 C 0.85572 0.82216 0.38666 0.0
C2589 C 0.89636 0.82591 0.37852 0.0
C2590 C 0.91261 0.84171 0.38687 0.0
C2591 C 0.89984 0.84617 0.39538 0.0
C2592 C 0.87168 0.83637 0.3953 0.0
C2593 C 0.94304 0.8556 0.38647 0.0
C2594 C 0.95743 0.85341 0.39497 0.0
C2595 C 0.958 0.87257 0.37804 0.0
C2596 C 0.94447 0.87728 0.36907 0.0
C2597 C 0.92805 0.88931 0.37047 0.0
C2598 C 0.91536 0.89367 0.36198 0.0
C2599 C 0.91903 0.88623 0.35204 0.0
C2600 C 0.93555 0.87452 0.35058 0.0
C2601 C 0.94834 0.87015 0.35905 0.0
H2602 H 0.90915 0.88962 0.34548 0.0
H2603 H 0.03628 0.86252 0.42989 0.0
H2604 H 0.88626 0.9744 0.88804 0.0
H2605 H 0.90745 0.94604 0.89023 0.0
H2606 H 0.82816 0.8731 0.88761 0.0
H2607 H 0.80679 0.90164 0.88548 0.0
H2608 H 0.86276 0.8658 0.90103 0.0
H2609 H 0.86394 0.89562 0.86647 0.0
H2610 H 0.87193 0.92725 0.85197 0.0
H2611 H 0.95784 0.97177 0.85906 0.0
H2612 H 0.95032 0.94057 0.87369 0.0
H2613 H 0.95594 0.82347 0.86888 0.0
H2614 H 0.92255 0.83902 0.8701 0.0
H2615 H 0.94226 0.85776 0.90246 0.0
H2616 H 0.97474 0.84116 0.90135 0.0
H2617 H 0.93159 0.88686 0.87336 0.0
H2618 H 0.89043 0.85804 0.91561 0.0
H2619 H 0.87829 0.82048 0.92806 0.0
H2620 H 0.86461 0.76498 0.90302 0.0
H2621 H 0.87629 0.80208 0.89041 0.0
C2622 C 0.87331 0.95231 0.88818 0.0
C2623 C 0.84503 0.94012 0.88644 0.0
C2624 C 0.88539 0.93614 0.88943 0.0
C2625 C 0.86943 0.9075 0.88883 0.0
C2626 C 0.84082 0.89519 0.88805 0.0
C2627 C 0.82864 0.91146 0.88687 0.0
C2628 C 0.88311 0.89098 0.88777 0.0
C2629 C 0.87782 0.87032 0.895 0.0
C2630 C 0.90204 0.89627 0.87969 0.0
C2631 C 0.90653 0.91584 0.8712 0.0
C2632 C 0.88449 0.91234 0.86501 0.0
C2633 C 0.88894 0.93013 0.85675 0.0
C2634 C 0.9154 0.95139 0.85457 0.0
C2635 C 0.93739 0.95519 0.86073 0.0
C2636 C 0.93304 0.93746 0.86901 0.0
C2637 C 0.9528 0.83052 0.87628 0.0
C2638 C 0.9679 0.83113 0.88501 0.0
C2639 C 0.93374 0.83941 0.87698 0.0
C2640 C 0.92967 0.84939 0.88639 0.0
C2641 C 0.94449 0.84958 0.89517 0.0
C2642 C 0.96322 0.84027 0.89451 0.0
C2643 C 0.91193 0.86196 0.88678 0.0
C2644 C 0.91649 0.88207 0.8794 0.0
C2645 C 0.8918 0.85547 0.89454 0.0
C2646 C 0.88449 0.83294 0.90207 0.0
C2647 C 0.88472 0.8378 0.91276 0.0
C2648 C 0.87794 0.81659 0.91985 0.0
C2649 C 0.87077 0.79039 0.91634 0.0
C2650 C 0.87028 0.78531 0.90573 0.0
C2651 C 0.87702 0.80644 0.89861 0.0
H2652 H 0.86554 0.774 0.92184 0.0
H2653 H 0.91887 0.96483 0.84806 0.0
H2654 H 0.10085 0.91743 0.87928 0.0
H2655 H 0.12553 0.96684 0.88245 0.0
H2656 H 0.05321 0.96024 0.89679 0.0
H2657 H 0.02818 0.91109 0.89297 0.0
H2658 H 0.06901 0.99703 0.88356 0.0
H2659 H 0.11673 0.98038 0.91022 0.0
H2660 H 0.14329 0.96177 0.91859 0.0
H2661 H 0.20941 0.00618 0.89723 0.0
H2662 H 0.1831 0.02478 0.88864 0.0
H2663 H 0.14565 0.13943 0.90055 0.0
H2664 H 0.12521 0.08958 0.90197 0.0
H2665 H 0.16335 0.08837 0.8732 0.0
H2666 H 0.18291 0.13819 0.87149 0.0
H2667 H 0.16498 0.05679 0.89505 0.0
H2668 H 0.11107 0.07046 0.86816 0.0
H2669 H 0.08246 0.08887 0.86159 0.0
H2670 H 0.02457 0.04822 0.88609 0.0
H2671 H 0.05357 0.03069 0.89311 0.0
C2672 C 0.09064 0.92651 0.88342 0.0
C2673 C 0.06284 0.91069 0.886 0.0
C2674 C 0.10472 0.95476 0.88525 0.0
C2675 C 0.09134 0.96744 0.88991 0.0
C2676 C 0.064 0.95107 0.89314 0.0
C2677 C 0.04976 0.92299 0.89106 0.0
C2678 C 0.10458 0.99787 0.89022 0.0
C2679 C 0.08985 0.00995 0.88627 0.0
C2680 C 0.13191 0.01499 0.89361 0.0
C2681 C 0.14782 0.00379 0.89873 0.0
C2682 C 0.13684 0.98601 0.90725 0.0
C2683 C 0.15187 0.97549 0.91204 0.0
C2684 C 0.17799 0.98274 0.90843 0.0
C2685 C 0.18916 0.00057 0.90002 0.0
C2686 C 0.17421 0.01113 0.89519 0.0
C2687 C 0.14986 0.12855 0.89457 0.0
C2688 C 0.16589 0.14253 0.88592 0.0
C2689 C 0.13814 0.10015 0.89539 0.0
C2690 C 0.14281 0.08548 0.88769 0.0
C2691 C 0.15957 0.09949 0.87921 0.0
C2692 C 0.17065 0.12781 0.87823 0.0
C2693 C 0.12939 0.05536 0.88833 0.0
C2694 C 0.14409 0.04355 0.89246 0.0
C2695 C 0.1018 0.03843 0.88536 0.0
C2696 C 0.08486 0.04978 0.8813 0.0
C2697 C 0.09264 0.06604 0.87231 0.0
C2698 C 0.07628 0.07624 0.86848 0.0
C2699 C 0.05178 0.06985 0.87345 0.0
C2700 C 0.04364 0.05331 0.88228 0.0
C2701 C 0.06011 0.04337 0.88622 0.0
H2702 H 0.03908 0.07765 0.87045 0.0
H2703 H 0.1896 0.97458 0.91215 0.0
H2704 H 0.08776 0.19497 0.88537 0.0
H2705 H 0.03831 0.17133 0.88902 0.0
H2706 H 0.03826 0.09536 0.8931 0.0
H2707 H 0.08718 0.11856 0.88906 0.0
H2708 H 0.00403 0.09209 0.87789 0.0
H2709 H 0.02354 0.12361 0.91302 0.0
H2710 H 0.04402 0.15786 0.92697 0.0
H2711 H 0.00013 0.19727 0.91632 0.0
H2712 H 0.97967 0.16347 0.9022 0.0
H2713 H 0.86146 0.02502 0.90322 0.0
H2714 H 0.9109 0.05574 0.90468 0.0
H2715 H 0.91396 0.07962 0.87275 0.0
H2716 H 0.86466 0.048 0.87112 0.0
H2717 H 0.94667 0.10918 0.9025 0.0
H2718 H 0.9705 0.08841 0.86169 0.0
H2719 H 0.949 0.05382 0.84789 0.0
H2720 H 0.9075 0.99093 0.87069 0.0
H2721 H 0.92879 0.02518 0.88468 0.0
C2722 C 0.07725 0.17341 0.88737 0.0
C2723 C 0.09099 0.15842 0.88685 0.0
C2724 C 0.04907 0.15993 0.88944 0.0
C2725 C 0.03461 0.13148 0.89116 0.0
C2726 C 0.049 0.11718 0.89159 0.0
C2727 C 0.07689 0.13045 0.88936 0.0
C2728 C 0.00426 0.11584 0.89101 0.0
C2729 C 0.99153 0.09581 0.88331 0.0
C2730 C 0.98797 0.12078 0.89802 0.0
C2731 C 0.00029 0.14116 0.90649 0.0
C2732 C 0.01846 0.13973 0.91359 0.0
C2733 C 0.03002 0.15903 0.92154 0.0
C2734 C 0.02344 0.17977 0.92251 0.0
C2735 C 0.00524 0.18122 0.91555 0.0
C2736 C 0.99363 0.16197 0.90757 0.0
C2737 C 0.87264 0.03702 0.89653 0.0
C2738 C 0.85932 0.03392 0.88701 0.0
C2739 C 0.90088 0.05465 0.8974 0.0
C2740 C 0.91622 0.06963 0.88878 0.0
C2741 C 0.90262 0.0678 0.87944 0.0
C2742 C 0.87447 0.04981 0.87852 0.0
C2743 C 0.94657 0.08548 0.88938 0.0
C2744 C 0.95926 0.10553 0.89711 0.0
C2745 C 0.963 0.08047 0.88244 0.0
C2746 C 0.95103 0.05939 0.8742 0.0
C2747 C 0.95692 0.06717 0.86377 0.0
C2748 C 0.9447 0.04766 0.85592 0.0
C2749 C 0.92672 0.02027 0.85843 0.0
C2750 C 0.92124 0.01222 0.8688 0.0
C2751 C 0.93336 0.03166 0.87668 0.0
H2752 H 0.91699 0.00534 0.85234 0.0
H2753 H 0.0324 0.19469 0.92868 0.0
H2754 H 0.86053 0.99383 0.59933 0.0
H2755 H 0.87699 0.96162 0.59695 0.0
H2756 H 0.81032 0.9021 0.61579 0.0
H2757 H 0.79555 0.93571 0.61898 0.0
H2758 H 0.85028 0.89934 0.62096 0.0
H2759 H 0.81637 0.89782 0.58729 0.0
H2760 H 0.80906 0.91595 0.57096 0.0
H2761 H 0.89498 0.95447 0.56412 0.0
H2762 H 0.90289 0.9369 0.58047 0.0
H2763 H 0.89595 0.80571 0.60939 0.0
H2764 H 0.86631 0.82489 0.60539 0.0
H2765 H 0.93752 0.9051 0.60202 0.0
H2766 H 0.96712 0.88624 0.60634 0.0
H2767 H 0.88727 0.88858 0.58752 0.0
H2768 H 0.9178 0.89513 0.62408 0.0
H2769 H 0.92197 0.87268 0.63983 0.0
H2770 H 0.83497 0.81784 0.63994 0.0
H2771 H 0.83041 0.83973 0.62408 0.0
C2772 C 0.84933 0.97375 0.60289 0.0
C2773 C 0.82674 0.96701 0.60927 0.0
C2774 C 0.85853 0.95516 0.60142 0.0
C2775 C 0.84448 0.92891 0.60591 0.0
C2776 C 0.82152 0.9221 0.61219 0.0
C2777 C 0.813 0.94119 0.614 0.0
C2778 C 0.85507 0.90954 0.60467 0.0
C2779 C 0.85761 0.89656 0.61355 0.0
C2780 C 0.86488 0.90564 0.59504 0.0
C2781 C 0.86023 0.91613 0.58515 0.0
C2782 C 0.83373 0.91027 0.58233 0.0
C2783 C 0.82948 0.92044 0.57307 0.0
C2784 C 0.85154 0.93637 0.56652 0.0
C2785 C 0.8779 0.94212 0.56921 0.0
C2786 C 0.88228 0.93201 0.57846 0.0
C2787 C 0.90526 0.82722 0.6074 0.0
C2788 C 0.93372 0.8446 0.6082 0.0
C2789 C 0.88834 0.83812 0.60514 0.0
C2790 C 0.89982 0.86637 0.60345 0.0
C2791 C 0.92837 0.88323 0.60324 0.0
C2792 C 0.94521 0.87248 0.60574 0.0
C2793 C 0.88255 0.87922 0.60377 0.0
C2794 C 0.87903 0.89099 0.59478 0.0
C2795 C 0.8711 0.8814 0.61319 0.0
C2796 C 0.87381 0.86884 0.62287 0.0
C2797 C 0.89961 0.87817 0.62744 0.0
C2798 C 0.90204 0.86556 0.63638 0.0
C2799 C 0.87876 0.84379 0.64087 0.0
C2800 C 0.85299 0.83467 0.63645 0.0
C2801 C 0.85047 0.84716 0.62749 0.0
H2802 H 0.88068 0.83403 0.64779 0.0
H2803 H 0.84821 0.94424 0.55935 0.0
H2804 H 0.16635 0.0938 0.60136 0.0
H2805 H 0.14491 0.04443 0.59771 0.0
H2806 H 0.12359 0.02663 0.62996 0.0
H2807 H 0.14437 0.07547 0.63361 0.0
H2808 H 0.14617 0.99594 0.62072 0.0
H2809 H 0.07751 0.02298 0.61465 0.0
H2810 H 0.06013 0.05023 0.60594 0.0
H2811 H 0.06658 0.01871 0.57647 0.0
H2812 H 0.0845 0.99165 0.58499 0.0
H2813 H 0.03285 0.86625 0.62941 0.0
H2814 H 0.06643 0.91491 0.62781 0.0
H2815 H 0.06374 0.90738 0.59454 0.0
H2816 H 0.02985 0.8585 0.59608 0.0
H2817 H 0.05936 0.95105 0.60074 0.0
H2818 H 0.12004 0.9175 0.60707 0.0
H2819 H 0.13782 0.89045 0.61563 0.0
H2820 H 0.14756 0.93394 0.64404 0.0
H2821 H 0.12945 0.961 0.6357 0.0
C2822 C 0.1573 0.07929 0.60766 0.0
C2823 C 0.15684 0.0884 0.61775 0.0
C2824 C 0.14507 0.0512 0.60557 0.0
C2825 C 0.13272 0.032 0.61358 0.0
C2826 C 0.13312 0.04116 0.62369 0.0
C2827 C 0.14482 0.06905 0.62574 0.0
C2828 C 0.11794 0.00221 0.61152 0.0
C2829 C 0.12721 0.98604 0.61634 0.0
C2830 C 0.0937 0.98952 0.60554 0.0
C2831 C 0.0827 0.00559 0.60044 0.0
C2832 C 0.07549 0.02207 0.6063 0.0
C2833 C 0.0655 0.03744 0.6014 0.0
C2834 C 0.06234 0.03625 0.59066 0.0
C2835 C 0.06911 0.01965 0.58479 0.0
C2836 C 0.07919 0.0043 0.58965 0.0
C2837 C 0.0396 0.87485 0.62175 0.0
C2838 C 0.02876 0.85856 0.61287 0.0
C2839 C 0.05889 0.90265 0.62085 0.0
C2840 C 0.0678 0.91471 0.61106 0.0
C2841 C 0.05721 0.89844 0.60217 0.0
C2842 C 0.03795 0.87054 0.60307 0.0
C2843 C 0.08711 0.94459 0.61023 0.0
C2844 C 0.07868 0.96083 0.60489 0.0
C2845 C 0.11224 0.95736 0.61569 0.0
C2846 C 0.12322 0.94119 0.62077 0.0
C2847 C 0.12578 0.92117 0.61517 0.0
C2848 C 0.13595 0.90585 0.61997 0.0
C2849 C 0.14378 0.91045 0.63037 0.0
C2850 C 0.14149 0.93041 0.63598 0.0
C2851 C 0.13131 0.94577 0.63121 0.0
H2852 H 0.15166 0.89857 0.63408 0.0
H2853 H 0.05455 0.0481 0.58688 0.0
H2854 H 0.13071 0.12752 0.60394 0.0
H2855 H 0.08146 0.10967 0.60282 0.0
H2856 H 0.09227 0.18513 0.61583 0.0
H2857 H 0.14152 0.20192 0.61778 0.0
H2858 H 0.04977 0.14812 0.62342 0.0
H2859 H 0.07806 0.16601 0.58852 0.0
H2860 H 0.1015 0.16587 0.57243 0.0
H2861 H 0.05294 0.07814 0.57101 0.0
H2862 H 0.02948 0.07769 0.58719 0.0
H2863 H 0.90779 0.09576 0.61175 0.0
H2864 H 0.95707 0.12484 0.60839 0.0
H2865 H 0.96617 0.05327 0.60828 0.0
H2866 H 0.91722 0.02425 0.61185 0.0
H2867 H 0.99794 0.09637 0.59235 0.0
H2868 H 0.97682 0.08305 0.62987 0.0
H2869 H 0.95217 0.08666 0.64502 0.0
H2870 H 0.98707 0.17294 0.63955 0.0
H2871 H 0.01172 0.16974 0.62429 0.0
C2872 C 0.12245 0.14022 0.60655 0.0
C2873 C 0.13964 0.16608 0.61087 0.0
C2874 C 0.09435 0.13018 0.6058 0.0
C2875 C 0.08305 0.14637 0.6089 0.0
C2876 C 0.10039 0.17227 0.6133 0.0
C2877 C 0.12847 0.18191 0.6144 0.0
C2878 C 0.05304 0.13562 0.60792 0.0
C2879 C 0.03868 0.13742 0.6165 0.0
C2880 C 0.0382 0.1217 0.5989 0.0
C2881 C 0.05211 0.12182 0.58911 0.0
C2882 C 0.07248 0.14666 0.58481 0.0
C2883 C 0.08577 0.14669 0.57567 0.0
C2884 C 0.07875 0.12201 0.57071 0.0
C2885 C 0.05836 0.09724 0.57487 0.0
C2886 C 0.04503 0.09709 0.58402 0.0
C2887 C 0.92023 0.08623 0.61075 0.0
C2888 C 0.90887 0.05785 0.61213 0.0
C2889 C 0.9483 0.10283 0.60886 0.0
C2890 C 0.96513 0.09112 0.60814 0.0
C2891 C 0.95343 0.0626 0.60879 0.0
C2892 C 0.92556 0.04611 0.61088 0.0
C2893 C 0.99525 0.10843 0.60788 0.0
C2894 C 0.00945 0.10775 0.5991 0.0
C2895 C 0.01 0.12411 0.61656 0.0
C2896 C 0.9959 0.12612 0.62591 0.0
C2897 C 0.97915 0.10276 0.63188 0.0
C2898 C 0.96519 0.10473 0.64049 0.0
C2899 C 0.96801 0.13001 0.64324 0.0
C2900 C 0.9849 0.15338 0.63741 0.0
C2901 C -0.00111 0.15151 0.6288 0.0
H2902 H 0.95713 0.13148 0.64989 0.0
H2903 H 0.08907 0.12207 0.56364 0.0
H2904 H 0.70861 0.50831 0.45947 0.0
H2905 H 0.73836 0.48859 0.45721 0.0
H2906 H 0.70302 0.45812 0.42712 0.0
H2907 H 0.67353 0.47827 0.42925 0.0
H2908 H 0.70686 0.41897 0.44002 0.0
H2909 H 0.7633 0.50833 0.42672 0.0
H2910 H 0.78575 0.55872 0.42624 0.0
H2911 H 0.82989 0.56403 0.45405 0.0
H2912 H 0.80737 0.51361 0.45479 0.0
H2913 H 0.81189 0.3803 0.43593 0.0
H2914 H 0.78606 0.4029 0.43044 0.0
H2915 H 0.8002 0.44173 0.46035 0.0
H2916 H 0.82505 0.41876 0.4659 0.0
H2917 H 0.80789 0.47688 0.44284 0.0
H2918 H 0.74479 0.38647 0.45705 0.0
H2919 H 0.72155 0.33602 0.45734 0.0
H2920 H 0.6891 0.33275 0.42696 0.0
H2921 H 0.71273 0.38328 0.42639 0.0
C2922 C 0.70731 0.49755 0.45236 0.0
C2923 C 0.68899 0.49501 0.44451 0.0
C2924 C 0.72431 0.48636 0.45106 0.0
C2925 C 0.72301 0.47216 0.44196 0.0
C2926 C 0.7044 0.46917 0.43417 0.0
C2927 C 0.68771 0.48079 0.43538 0.0
C2928 C 0.74097 0.4602 0.44076 0.0
C2929 C 0.72899 0.4316 0.44035 0.0
C2930 C 0.76979 0.47678 0.44124 0.0
C2931 C 0.78348 0.50715 0.44085 0.0
C2932 C 0.77762 0.52022 0.43279 0.0
C2933 C 0.79039 0.54879 0.43246 0.0
C2934 C 0.8092 0.56456 0.44012 0.0
C2935 C 0.81531 0.55178 0.44812 0.0
C2936 C 0.80257 0.5232 0.44849 0.0
C2937 C 0.80978 0.39405 0.44121 0.0
C2938 C 0.82029 0.39787 0.45132 0.0
C2939 C 0.79502 0.4068 0.43811 0.0
C2940 C 0.79124 0.42388 0.44503 0.0
C2941 C 0.80297 0.42868 0.45491 0.0
C2942 C 0.81706 0.41552 0.45808 0.0
C2943 C 0.77374 0.43565 0.44241 0.0
C2944 C 0.78581 0.46427 0.44216 0.0
C2945 C 0.74502 0.41905 0.44125 0.0
C2946 C 0.731 0.38869 0.44159 0.0
C2947 C 0.73307 0.37503 0.45036 0.0
C2948 C 0.71975 0.34641 0.45059 0.0
C2949 C 0.70399 0.33118 0.44215 0.0
C2950 C 0.70144 0.34457 0.43348 0.0
C2951 C 0.71483 0.3732 0.43319 0.0
H2952 H 0.69366 0.30902 0.44235 0.0
H2953 H 0.81907 0.58669 0.43985 0.0
H2954 H 0.49196 0.20256 0.46063 0.0
H2955 H 0.50604 0.25093 0.45853 0.0
H2956 H 0.51746 0.2453 0.42578 0.0
H2957 H 0.5034 0.19679 0.42783 0.0
H2958 H 0.56112 0.2898 0.43469 0.0
H2959 H 0.4648 0.25178 0.43329 0.0
H2960 H 0.41672 0.22236 0.43863 0.0
H2961 H 0.43379 0.26465 0.46771 0.0
H2962 H 0.4821 0.29407 0.46263 0.0
H2963 H 0.59558 0.43107 0.43378 0.0
H2964 H 0.56827 0.38232 0.42898 0.0
H2965 H 0.55265 0.36055 0.46129 0.0
H2966 H 0.58016 0.40877 0.46607 0.0
H2967 H 0.50654 0.33001 0.44823 0.0
H2968 H 0.60412 0.36026 0.45076 0.0
H2969 H 0.65264 0.38892 0.44577 0.0
H2970 H 0.63269 0.36051 0.41441 0.0
H2971 H 0.58395 0.332 0.4192 0.0
C2972 C 0.49726 0.21156 0.45297 0.0
C2973 C 0.49653 0.19592 0.44439 0.0
C2974 C 0.50517 0.23915 0.45177 0.0
C2975 C 0.51247 0.25159 0.44197 0.0
C2976 C 0.51175 0.23602 0.43339 0.0
C2977 C 0.50367 0.20834 0.43457 0.0
C2978 C 0.52212 0.28119 0.4409 0.0
C2979 C 0.54893 0.29858 0.43739 0.0
C2980 C 0.50625 0.29258 0.44449 0.0
C2981 C 0.47715 0.27506 0.44759 0.0
C2982 C 0.45836 0.25469 0.44086 0.0
C2983 C 0.43105 0.23803 0.44383 0.0
C2984 C 0.42221 0.24161 0.45351 0.0
C2985 C 0.44067 0.26191 0.46022 0.0
C2986 C 0.46801 0.27861 0.45729 0.0
C2987 C 0.58572 0.41583 0.4398 0.0
C2988 C 0.58996 0.42346 0.45028 0.0
C2989 C 0.57028 0.38811 0.43707 0.0
C2990 C 0.55862 0.36795 0.4448 0.0
C2991 C 0.56143 0.37583 0.45522 0.0
C2992 C 0.57721 0.40331 0.45794 0.0
C2993 C 0.54571 0.33848 0.44233 0.0
C2994 C 0.51834 0.32115 0.44522 0.0
C2995 C 0.56106 0.32713 0.43817 0.0
C2996 C 0.59034 0.34435 0.4353 0.0
C2997 C 0.61003 0.36036 0.44278 0.0
C2998 C 0.63759 0.37653 0.43999 0.0
C2999 C 0.64572 0.37662 0.42977 0.0
C3000 C 0.62634 0.36049 0.42232 0.0
C3001 C 0.59875 0.34434 0.42506 0.0
H3002 H 0.66705 0.38912 0.42762 0.0
H3003 H 0.40106 0.22869 0.4558 0.0
H3004 H 0.79524 0.31561 0.46528 0.0
H3005 H 0.74642 0.28324 0.46364 0.0
H3006 H 0.76257 0.24454 0.43785 0.0
H3007 H 0.81128 0.27887 0.43889 0.0
H3008 H 0.72241 0.24781 0.43282 0.0
H3009 H 0.74017 0.21422 0.46398 0.0
H3010 H 0.75811 0.21635 0.48158 0.0
H3011 H 0.70709 0.24676 0.49333 0.0
H3012 H 0.6891 0.24514 0.47579 0.0
H3013 H 0.57325 0.14104 0.44447 0.0
H3014 H 0.62306 0.15988 0.44269 0.0
H3015 H 0.63668 0.24088 0.44893 0.0
H3016 H 0.58752 0.22259 0.45056 0.0
H3017 H 0.66073 0.20594 0.46294 0.0
H3018 H 0.65413 0.24869 0.42952 0.0
H3019 H 0.63578 0.24296 0.41177 0.0
H3020 H 0.66537 0.18785 0.40467 0.0
H3021 H 0.68357 0.19304 0.42243 0.0
C3022 C 0.78839 0.30002 0.45935 0.0
C3023 C 0.80696 0.2997 0.45222 0.0
C3024 C 0.76041 0.28123 0.45846 0.0
C3025 C 0.75057 0.26085 0.45075 0.0
C3026 C 0.76944 0.25997 0.44387 0.0
C3027 C 0.79729 0.27946 0.4445 0.0
C3028 C 0.72056 0.24185 0.44942 0.0
C3029 C 0.70916 0.23827 0.43944 0.0
C3030 C 0.70284 0.22898 0.45795 0.0
C3031 C 0.71336 0.22964 0.46855 0.0
C3032 C 0.73285 0.22145 0.47031 0.0
C3033 C 0.74303 0.22257 0.48028 0.0
C3034 C 0.73376 0.2317 0.48857 0.0
C3035 C 0.71424 0.23967 0.48691 0.0
C3036 C 0.704 0.2386 0.47696 0.0
C3037 C 0.58686 0.16295 0.44513 0.0
C3038 C 0.57654 0.1803 0.44775 0.0
C3039 C 0.61523 0.17363 0.44417 0.0
C3040 C 0.63335 0.20171 0.44571 0.0
C3041 C 0.62294 0.21917 0.4477 0.0
C3042 C 0.59484 0.20863 0.44864 0.0
C3043 C 0.6632 0.21292 0.44652 0.0
C3044 C 0.67439 0.21502 0.45639 0.0
C3045 C 0.68071 0.22391 0.43792 0.0
C3046 C 0.66982 0.22093 0.4273 0.0
C3047 C 0.65643 0.23513 0.4242 0.0
C3048 C 0.64614 0.23204 0.41414 0.0
C3049 C 0.64931 0.21496 0.40711 0.0
C3050 C 0.66286 0.20101 0.41012 0.0
C3051 C 0.67316 0.20401 0.42018 0.0
H3052 H 0.64134 0.21261 0.39932 0.0
H3053 H 0.7417 0.23259 0.49628 0.0
H3054 H 0.73585 0.4951 0.72806 0.0
H3055 H 0.75421 0.46443 0.73148 0.0
H3056 H 0.73005 0.43025 0.70083 0.0
H3057 H 0.71145 0.46016 0.69745 0.0
H3058 H 0.71262 0.39098 0.71505 0.0
H3059 H 0.79787 0.47498 0.70762 0.0
H3060 H 0.83277 0.52337 0.71056 0.0
H3061 H 0.84456 0.50432 0.74165 0.0
H3062 H 0.80947 0.45587 0.73894 0.0
H3063 H 0.78987 0.32566 0.70372 0.0
H3064 H 0.76839 0.35417 0.7046 0.0
H3065 H 0.79179 0.37186 0.73668 0.0
H3066 H 0.81274 0.34285 0.73592 0.0
H3067 H 0.80814 0.41867 0.72466 0.0
H3068 H 0.72514 0.33734 0.73304 0.0
H3069 H 0.68461 0.29092 0.73262 0.0
H3070 H 0.66648 0.30489 0.70169 0.0
H3071 H 0.70675 0.3515 0.70197 0.0
C3072 C 0.73478 0.48125 0.72202 0.0
C3073 C 0.72202 0.47995 0.71251 0.0
C3074 C 0.74529 0.46378 0.72398 0.0
C3075 C 0.74349 0.44504 0.7164 0.0
C3076 C 0.7315 0.44438 0.70682 0.0
C3077 C 0.72087 0.46156 0.7049 0.0
C3078 C 0.75267 0.42495 0.71844 0.0
C3079 C 0.73363 0.39708 0.71701 0.0
C3080 C 0.77969 0.4328 0.72152 0.0
C3081 C 0.80084 0.46188 0.72312 0.0
C3082 C 0.80775 0.48116 0.71511 0.0
C3083 C 0.8276 0.50859 0.71673 0.0
C3084 C 0.84082 0.51693 0.72629 0.0
C3085 C 0.83428 0.49784 0.73425 0.0
C3086 C 0.81443 0.4704 0.73268 0.0
C3087 C 0.79027 0.33547 0.71097 0.0
C3088 C 0.80319 0.33224 0.71972 0.0
C3089 C 0.77778 0.35155 0.71149 0.0
C3090 C 0.77841 0.36503 0.72072 0.0
C3091 C 0.79098 0.36153 0.7295 0.0
C3092 C 0.80299 0.34502 0.72904 0.0
C3093 C 0.76828 0.38477 0.72085 0.0
C3094 C 0.78713 0.41257 0.72272 0.0
C3095 C 0.74097 0.37688 0.71826 0.0
C3096 C 0.71909 0.3478 0.7175 0.0
C3097 C 0.71277 0.33035 0.72609 0.0
C3098 C 0.68962 0.30416 0.72593 0.0
C3099 C 0.67281 0.29509 0.71717 0.0
C3100 C 0.67937 0.31203 0.70849 0.0
C3101 C 0.70233 0.33834 0.70866 0.0
H3102 H 0.65488 0.27483 0.71707 0.0
H3103 H 0.85618 0.53817 0.72753 0.0
H3104 H 0.55336 0.25343 0.72001 0.0
H3105 H 0.57368 0.30266 0.72323 0.0
H3106 H 0.49336 0.29426 0.72269 0.0
H3107 H 0.47275 0.24466 0.71982 0.0
H3108 H 0.54235 0.33362 0.70694 0.0
H3109 H 0.51375 0.31193 0.74281 0.0
H3110 H 0.51045 0.28905 0.75946 0.0
H3111 H 0.59819 0.32988 0.7614 0.0
H3112 H 0.602 0.35268 0.74468 0.0
H3113 H 0.60733 0.47883 0.71124 0.0
H3114 H 0.57364 0.42974 0.71263 0.0
H3115 H 0.63102 0.41793 0.731 0.0
H3116 H 0.6634 0.46694 0.73029 0.0
H3117 H 0.58559 0.38772 0.73865 0.0
H3118 H 0.61759 0.40279 0.7034 0.0
H3119 H 0.62663 0.42375 0.68603 0.0
H3120 H 0.54067 0.39375 0.6818 0.0
H3121 H 0.53117 0.3729 0.69921 0.0
C3122 C 0.54 0.26198 0.72089 0.0
C3123 C 0.51153 0.24536 0.71971 0.0
C3124 C 0.5516 0.29002 0.72271 0.0
C3125 C 0.53496 0.30193 0.72317 0.0
C3126 C 0.50643 0.28528 0.72241 0.0
C3127 C 0.49472 0.25703 0.72084 0.0
C3128 C 0.54791 0.33206 0.72335 0.0
C3129 C 0.5513 0.34562 0.7139 0.0
C3130 C 0.56041 0.34737 0.73236 0.0
C3131 C 0.55814 0.33384 0.74245 0.0
C3132 C 0.53233 0.31583 0.74674 0.0
C3133 C 0.53037 0.30293 0.75621 0.0
C3134 C 0.55409 0.30796 0.76148 0.0
C3135 C 0.57983 0.32598 0.75731 0.0
C3136 C 0.58189 0.33893 0.74785 0.0
C3137 C 0.61246 0.46561 0.71562 0.0
C3138 C 0.63774 0.47646 0.7207 0.0
C3139 C 0.59335 0.43758 0.71637 0.0
C3140 C 0.59982 0.41986 0.72181 0.0
C3141 C 0.62526 0.43099 0.72684 0.0
C3142 C 0.64385 0.45901 0.7264 0.0
C3143 C 0.5807 0.3897 0.72214 0.0
C3144 C 0.57624 0.37601 0.73168 0.0
C3145 C 0.56806 0.37415 0.71311 0.0
C3146 C 0.57371 0.38659 0.70264 0.0
C3147 C 0.60064 0.40083 0.69879 0.0
C3148 C 0.60585 0.41266 0.68894 0.0
C3149 C 0.58424 0.41016 0.68283 0.0
C3150 C 0.55738 0.39573 0.68655 0.0
C3151 C 0.55208 0.38389 0.6964 0.0
H3152 H 0.58831 0.41934 0.6752 0.0
H3153 H 0.55253 0.29795 0.7688 0.0
H3154 H 0.73069 0.20794 0.70131 0.0
H3155 H 0.68214 0.18123 0.70554 0.0
H3156 H 0.6998 0.20959 0.73711 0.0
H3157 H 0.74882 0.23629 0.73291 0.0
H3158 H 0.64544 0.15284 0.73189 0.0
H3159 H 0.69784 0.25052 0.72486 0.0
H3160 H 0.73362 0.28928 0.715 0.0
H3161 H 0.68668 0.25775 0.68712 0.0
H3162 H 0.65123 0.2179 0.69674 0.0
H3163 H 0.52146 0.15913 0.73651 0.0
H3164 H 0.56864 0.16844 0.73793 0.0
H3165 H 0.57474 0.16923 0.70462 0.0
H3166 H 0.52779 0.16041 0.70315 0.0
H3167 H 0.61826 0.21227 0.71291 0.0
H3168 H 0.56694 0.11477 0.71927 0.0
H3169 H 0.53267 0.07305 0.72832 0.0
H3170 H 0.57652 0.10359 0.75688 0.0
H3171 H 0.61085 0.14571 0.74804 0.0
C3172 C 0.72436 0.20745 0.70927 0.0
C3173 C 0.7432 0.22463 0.71674 0.0
C3174 C 0.69667 0.19198 0.7117 0.0
C3175 C 0.68746 0.19398 0.72156 0.0
C3176 C 0.70662 0.20783 0.72945 0.0
C3177 C 0.73457 0.22321 0.72704 0.0
C3178 C 0.65923 0.18895 0.72252 0.0
C3179 C 0.63944 0.16598 0.72792 0.0
C3180 C 0.65161 0.20611 0.71721 0.0
C3181 C 0.67208 0.23091 0.71151 0.0
C3182 C 0.69538 0.25151 0.71659 0.0
C3183 C 0.71566 0.27368 0.71104 0.0
C3184 C 0.71254 0.27592 0.70042 0.0
C3185 C 0.68912 0.25596 0.69534 0.0
C3186 C 0.66897 0.2335 0.70084 0.0
C3187 C 0.53283 0.16116 0.72949 0.0
C3188 C 0.52097 0.15906 0.71971 0.0
C3189 C 0.55974 0.16637 0.73032 0.0
C3190 C 0.57514 0.16932 0.72138 0.0
C3191 C 0.56322 0.16704 0.71161 0.0
C3192 C 0.53638 0.16193 0.71078 0.0
C3193 C 0.60397 0.17568 0.72212 0.0
C3194 C 0.62408 0.19917 0.71703 0.0
C3195 C 0.61174 0.15898 0.72772 0.0
C3196 C 0.5913 0.13352 0.73301 0.0
C3197 C 0.56917 0.11268 0.7275 0.0
C3198 C 0.54974 0.08895 0.73259 0.0
C3199 C 0.55237 0.0857 0.74317 0.0
C3200 C 0.57449 0.10615 0.74869 0.0
C3201 C 0.59394 0.12995 0.74364 0.0
H3202 H 0.5373 0.06732 0.7471 0.0
H3203 H 0.72816 0.29323 0.69615 0.0
H3204 H 0.67194 0.20715 0.22547 0.0
H3205 H 0.64119 0.22566 0.22743 0.0
H3206 H 0.57549 0.15205 0.21374 0.0
H3207 H 0.60719 0.13467 0.21101 0.0
H3208 H 0.57105 0.19017 0.20685 0.0
H3209 H 0.5827 0.16898 0.24118 0.0
H3210 H 0.60692 0.16806 0.25692 0.0
H3211 H 0.64367 0.25533 0.25991 0.0
H3212 H 0.61982 0.25682 0.24415 0.0
H3213 H 0.47794 0.23579 0.2205 0.0
H3214 H 0.50029 0.20874 0.22405 0.0
H3215 H 0.57933 0.28232 0.22285 0.0
H3216 H 0.55724 0.30918 0.2189 0.0
H3217 H 0.57009 0.23791 0.23899 0.0
H3218 H 0.56062 0.25484 0.20195 0.0
H3219 H 0.53186 0.25158 0.18701 0.0
H3220 H 0.4843 0.1643 0.19094 0.0
H3221 H 0.51233 0.16718 0.20605 0.0
C3222 C 0.65092 0.19506 0.22286 0.0
C3223 C 0.64172 0.16956 0.21813 0.0
C3224 C 0.63323 0.20546 0.22409 0.0
C3225 C 0.60565 0.18996 0.22104 0.0
C3226 C 0.59658 0.16441 0.21623 0.0
C3227 C 0.6146 0.15445 0.21466 0.0
C3228 C 0.58671 0.20098 0.22244 0.0
C3229 C 0.57054 0.20003 0.21399 0.0
C3230 C 0.58571 0.2139 0.23175 0.0
C3231 C 0.59976 0.21305 0.24136 0.0
C3232 C 0.5961 0.18801 0.24514 0.0
C3233 C 0.60972 0.18738 0.25409 0.0
C3234 C 0.62691 0.21163 0.25939 0.0
C3235 C 0.63039 0.23656 0.25579 0.0
C3236 C 0.61679 0.2373 0.24685 0.0
C3237 C 0.50001 0.24624 0.22133 0.0
C3238 C 0.51595 0.27449 0.2194 0.0
C3239 C 0.51271 0.23081 0.22334 0.0
C3240 C 0.5414 0.24361 0.22367 0.0
C3241 C 0.55716 0.27215 0.22267 0.0
C3242 C 0.54455 0.28743 0.22039 0.0
C3243 C 0.55527 0.22727 0.22341 0.0
C3244 C 0.57045 0.22742 0.23201 0.0
C3245 C 0.55476 0.21286 0.21439 0.0
C3246 C 0.5383 0.21126 0.2052 0.0
C3247 C 0.54383 0.235 0.19969 0.0
C3248 C 0.52766 0.23322 0.19118 0.0
C3249 C 0.50613 0.20776 0.18805 0.0
C3250 C 0.50083 0.18403 0.19339 0.0
C3251 C 0.51684 0.18573 0.20193 0.0
H3252 H 0.49362 0.2064 0.18147 0.0
H3253 H 0.63746 0.2111 0.26631 0.0
H3254 H 0.73559 0.23739 0.22953 0.0
H3255 H 0.76329 0.28618 0.2342 0.0
H3256 H 0.77659 0.30766 0.20183 0.0
H3257 H 0.74856 0.25937 0.19715 0.0
H3258 H 0.82447 0.33757 0.21511 0.0
H3259 H 0.72787 0.31063 0.21201 0.0
H3260 H 0.67919 0.28142 0.21666 0.0
H3261 H 0.69797 0.30607 0.24843 0.0
H3262 H 0.74693 0.33511 0.24399 0.0
H3263 H 0.8439 0.46814 0.20424 0.0
H3264 H 0.82909 0.41944 0.20571 0.0
H3265 H 0.81487 0.42198 0.2384 0.0
H3266 H 0.82965 0.47078 0.23698 0.0
H3267 H 0.77143 0.37928 0.22884 0.0
H3268 H 0.86709 0.41425 0.23104 0.0
H3269 H 0.9158 0.44268 0.22633 0.0
H3270 H 0.89979 0.40294 0.19673 0.0
H3271 H 0.85088 0.37453 0.20119 0.0
C3272 C 0.74488 0.25257 0.22345 0.0
C3273 C 0.73989 0.2448 0.21299 0.0
C3274 C 0.76061 0.28031 0.22612 0.0
C3275 C 0.77192 0.30039 0.21834 0.0
C3276 C 0.76814 0.29243 0.20792 0.0
C3277 C 0.752 0.26491 0.20527 0.0
C3278 C 0.78543 0.32989 0.22085 0.0
C3279 C 0.813 0.34678 0.21814 0.0
C3280 C 0.7705 0.34165 0.22504 0.0
C3281 C 0.74107 0.32475 0.22769 0.0
C3282 C 0.72165 0.30966 0.22 0.0
C3283 C 0.69402 0.29317 0.22259 0.0
C3284 C 0.68553 0.29185 0.23283 0.0
C3285 C 0.70462 0.30709 0.24051 0.0
C3286 C 0.73231 0.32357 0.23795 0.0
C3287 C 0.83793 0.45842 0.21176 0.0
C3288 C 0.83795 0.47326 0.22049 0.0
C3289 C 0.82958 0.43061 0.21261 0.0
C3290 C 0.8211 0.41715 0.22219 0.0
C3291 C 0.82142 0.43201 0.23095 0.0
C3292 C 0.82995 0.45988 0.23012 0.0
C3293 C 0.81045 0.38723 0.22284 0.0
C3294 C 0.78329 0.37019 0.22609 0.0
C3295 C 0.82583 0.37536 0.21918 0.0
C3296 C 0.85525 0.39236 0.21644 0.0
C3297 C 0.8739 0.41171 0.22349 0.0
C3298 C 0.90156 0.4278 0.22088 0.0
C3299 C 0.91087 0.42465 0.21123 0.0
C3300 C 0.89254 0.40536 0.2042 0.0
C3301 C 0.86485 0.38923 0.20677 0.0
H3302 H 0.9323 0.43712 0.20922 0.0
H3303 H 0.66415 0.27909 0.23481 0.0
H3304 H 0.73913 0.45143 0.20423 0.0
H3305 H 0.6908 0.43391 0.20748 0.0
H3306 H 0.71059 0.49284 0.23195 0.0
H3307 H 0.75976 0.51127 0.22864 0.0
H3308 H 0.66447 0.42822 0.23451 0.0
H3309 H 0.69094 0.51167 0.21558 0.0
H3310 H 0.71574 0.54523 0.20175 0.0
H3311 H 0.67291 0.48331 0.17873 0.0
H3312 H 0.64807 0.44925 0.19243 0.0
H3313 H 0.52053 0.37536 0.23302 0.0
H3314 H 0.56929 0.40879 0.23486 0.0
H3315 H 0.58269 0.39483 0.20309 0.0
H3316 H 0.53387 0.36255 0.20107 0.0
H3317 H 0.61348 0.44604 0.20716 0.0
H3318 H 0.59361 0.36186 0.22494 0.0
H3319 H 0.57067 0.32524 0.23799 0.0
H3320 H 0.60193 0.38508 0.26232 0.0
H3321 H 0.62489 0.42208 0.24943 0.0
C3322 C 0.73348 0.46071 0.21038 0.0
C3323 C 0.75348 0.48297 0.21613 0.0
C3324 C 0.70575 0.4506 0.21221 0.0
C3325 C 0.69727 0.46224 0.21988 0.0
C3326 C 0.71691 0.4837 0.22597 0.0
C3327 C 0.74492 0.49417 0.22406 0.0
C3328 C 0.66768 0.45208 0.22104 0.0
C3329 C 0.65321 0.43265 0.22874 0.0
C3330 C 0.65322 0.45741 0.21332 0.0
C3331 C 0.66778 0.47789 0.20504 0.0
C3332 C 0.68696 0.50516 0.20757 0.0
C3333 C 0.701 0.52429 0.19975 0.0
C3334 C 0.69597 0.51641 0.18937 0.0
C3335 C 0.67679 0.48939 0.18678 0.0
C3336 C 0.66268 0.47018 0.19457 0.0
C3337 C 0.53385 0.37974 0.22639 0.0
C3338 C 0.52346 0.3661 0.21693 0.0
C3339 C 0.56174 0.39872 0.22748 0.0
C3340 C 0.57983 0.40389 0.21919 0.0
C3341 C 0.56921 0.39116 0.20961 0.0
C3342 C 0.54127 0.37259 0.20847 0.0
C3343 C 0.60993 0.4215 0.22051 0.0
C3344 C 0.62453 0.44218 0.21318 0.0
C3345 C 0.62449 0.41699 0.22851 0.0
C3346 C 0.61067 0.39473 0.23623 0.0
C3347 C 0.59542 0.3672 0.23307 0.0
C3348 C 0.58245 0.34639 0.24043 0.0
C3349 C 0.58475 0.35285 0.25096 0.0
C3350 C 0.60011 0.38012 0.25416 0.0
C3351 C 0.61313 0.40101 0.24684 0.0
H3352 H 0.57469 0.3367 0.25664 0.0
H3353 H 0.70689 0.53125 0.18333 0.0
H3354 H 0.559 0.14061 0.94855 0.0
H3355 H 0.5314 0.16267 0.94566 0.0
H3356 H 0.60538 0.2415 0.94393 0.0
H3357 H 0.63268 0.21969 0.94721 0.0
H3358 H 0.57322 0.24453 0.95701 0.0
H3359 H 0.5627 0.20933 0.92255 0.0
H3360 H 0.55076 0.17408 0.9091 0.0
H3361 H 0.46738 0.13176 0.91969 0.0
H3362 H 0.47892 0.16658 0.9333 0.0
H3363 H 0.50079 0.30721 0.92762 0.0
H3364 H 0.51691 0.27427 0.92784 0.0
H3365 H 0.49458 0.25724 0.96005 0.0
H3366 H 0.47889 0.29069 0.95995 0.0
H3367 H 0.49821 0.22103 0.93184 0.0
H3368 H 0.54765 0.25512 0.97258 0.0
H3369 H 0.56491 0.29539 0.98408 0.0
H3370 H 0.5793 0.34732 0.95773 0.0
H3371 H 0.56255 0.3077 0.94614 0.0
C3372 C 0.56926 0.16254 0.94729 0.0
C3373 C 0.59787 0.17854 0.94816 0.0
C3374 C 0.55352 0.17515 0.94565 0.0
C3375 C 0.56629 0.20381 0.94465 0.0
C3376 C 0.59502 0.21943 0.94481 0.0
C3377 C 0.61061 0.20696 0.94663 0.0
C3378 C 0.5501 0.21805 0.94436 0.0
C3379 C 0.55673 0.23921 0.95153 0.0
C3380 C 0.52873 0.21139 0.93716 0.0
C3381 C 0.52175 0.19039 0.92901 0.0
C3382 C 0.54188 0.19237 0.92207 0.0
C3383 C 0.53517 0.1725 0.9144 0.0
C3384 C 0.50835 0.15065 0.91356 0.0
C3385 C 0.48816 0.14866 0.92036 0.0
C3386 C 0.49477 0.16847 0.92805 0.0
C3387 C 0.49894 0.29618 0.93473 0.0
C3388 C 0.48896 0.30182 0.94382 0.0
C3389 C 0.50797 0.27718 0.93481 0.0
C3390 C 0.50722 0.2635 0.94398 0.0
C3391 C 0.49561 0.2678 0.95291 0.0
C3392 C 0.48669 0.28693 0.95285 0.0
C3393 C 0.52149 0.2474 0.94446 0.0
C3394 C 0.51446 0.22594 0.9374 0.0
C3395 C 0.54317 0.2543 0.95153 0.0
C3396 C 0.55339 0.27834 0.95851 0.0
C3397 C 0.55449 0.27518 0.96926 0.0
C3398 C 0.56418 0.29793 0.97581 0.0
C3399 C 0.57294 0.32394 0.97167 0.0
C3400 C 0.5721 0.32723 0.96099 0.0
C3401 C 0.56254 0.30462 0.95442 0.0
H3402 H 0.58054 0.34156 0.97673 0.0
H3403 H 0.50319 0.13529 0.90762 0.0
H3404 H 0.80503 0.42576 0.93733 0.0
H3405 H 0.78115 0.37671 0.93298 0.0
H3406 H 0.82294 0.36201 0.95799 0.0
H3407 H 0.84639 0.41085 0.96242 0.0
H3408 H 0.81427 0.32791 0.94065 0.0
H3409 H 0.7662 0.3548 0.96373 0.0
H3410 H 0.74692 0.38311 0.96976 0.0
H3411 H 0.69333 0.35837 0.94342 0.0
H3412 H 0.71275 0.33023 0.9371 0.0
H3413 H 0.70968 0.19646 0.96118 0.0
H3414 H 0.74292 0.24552 0.95925 0.0
H3415 H 0.70938 0.24541 0.92925 0.0
H3416 H 0.67673 0.19627 0.93096 0.0
H3417 H 0.71446 0.28663 0.94709 0.0
H3418 H 0.76265 0.25316 0.92593 0.0
H3419 H 0.78307 0.2241 0.92257 0.0
H3420 H 0.8369 0.25989 0.94857 0.0
H3421 H 0.81647 0.28886 0.95218 0.0
C3422 C 0.80972 0.4121 0.94163 0.0
C3423 C 0.82749 0.42175 0.95014 0.0
C3424 C 0.7961 0.38419 0.93918 0.0
C3425 C 0.80024 0.3658 0.94521 0.0
C3426 C 0.81964 0.3759 0.95321 0.0
C3427 C 0.83294 0.40369 0.95575 0.0
C3428 C 0.78159 0.33591 0.94424 0.0
C3429 C 0.79244 0.31886 0.94201 0.0
C3430 C 0.75318 0.32415 0.94614 0.0
C3431 C 0.74123 0.3408 0.94986 0.0
C3432 C 0.75052 0.35563 0.95916 0.0
C3433 C 0.73956 0.37159 0.96263 0.0
C3434 C 0.71904 0.37261 0.95694 0.0
C3435 C 0.70933 0.3576 0.94778 0.0
C3436 C 0.72032 0.34165 0.94424 0.0
C3437 C 0.70966 0.20687 0.95414 0.0
C3438 C 0.69079 0.19265 0.9462 0.0
C3439 C 0.72863 0.23476 0.95303 0.0
C3440 C 0.72859 0.24883 0.94408 0.0
C3441 C 0.70977 0.23471 0.93616 0.0
C3442 C 0.69123 0.20672 0.93715 0.0
C3443 C 0.74705 0.27869 0.94333 0.0
C3444 C 0.73616 0.29572 0.94542 0.0
C3445 C 0.77545 0.29027 0.94157 0.0
C3446 C 0.78781 0.27295 0.93939 0.0
C3447 C 0.77863 0.25461 0.931 0.0
C3448 C 0.79026 0.23821 0.92903 0.0
C3449 C 0.81121 0.24009 0.93537 0.0
C3450 C 0.82064 0.25843 0.94367 0.0
C3451 C 0.80906 0.27486 0.94568 0.0
H3452 H 0.8202 0.22738 0.93383 0.0
H3453 H 0.71066 0.38498 0.95969 0.0
H3454 H 0.8026 0.50714 0.93438 0.0
H3455 H 0.75291 0.48835 0.9337 0.0
H3456 H 0.74704 0.46884 0.96622 0.0
H3457 H 0.79664 0.48787 0.967 0.0
H3458 H 0.71158 0.42477 0.95341 0.0
H3459 H 0.739 0.51998 0.95885 0.0
H3460 H 0.76418 0.56927 0.95466 0.0
H3461 H 0.72434 0.55262 0.92506 0.0
H3462 H 0.6992 0.50315 0.92902 0.0
H3463 H 0.58004 0.39018 0.96871 0.0
H3464 H 0.6295 0.41383 0.96639 0.0
H3465 H 0.62005 0.42947 0.9344 0.0
H3466 H 0.57002 0.40538 0.93664 0.0
H3467 H 0.66291 0.47501 0.94457 0.0
H3468 H 0.64021 0.38198 0.93748 0.0
H3469 H 0.61823 0.33189 0.93985 0.0
H3470 H 0.64916 0.3438 0.97093 0.0
H3471 H 0.67147 0.39397 0.96869 0.0
C3472 C 0.79074 0.49913 0.94141 0.0
C3473 C 0.80347 0.49889 0.95074 0.0
C3474 C 0.76241 0.4885 0.94101 0.0
C3475 C 0.74638 0.47731 0.94991 0.0
C3476 C 0.75911 0.47745 0.95927 0.0
C3477 C 0.78744 0.48835 0.9597 0.0
C3478 C 0.71616 0.46387 0.9494 0.0
C3479 C 0.70093 0.43581 0.95161 0.0
C3480 C 0.70239 0.4781 0.94655 0.0
C3481 C 0.71746 0.50783 0.94418 0.0
C3482 C 0.73581 0.5268 0.95141 0.0
C3483 C 0.75003 0.55478 0.94908 0.0
C3484 C 0.74593 0.56407 0.93959 0.0
C3485 C 0.72753 0.54539 0.93241 0.0
C3486 C 0.71328 0.51738 0.93469 0.0
C3487 C 0.58839 0.39864 0.96116 0.0
C3488 C 0.57109 0.39552 0.9528 0.0
C3489 C 0.61668 0.41208 0.95985 0.0
C3490 C 0.62837 0.42289 0.95018 0.0
C3491 C 0.61134 0.421 0.9419 0.0
C3492 C 0.58284 0.40734 0.9432 0.0
C3493 C 0.65841 0.43604 0.9489 0.0
C3494 C 0.67359 0.46395 0.94632 0.0
C3495 C 0.67229 0.42166 0.95126 0.0
C3496 C 0.65747 0.39162 0.95292 0.0
C3497 C 0.64214 0.37387 0.94483 0.0
C3498 C 0.62982 0.3455 0.94613 0.0
C3499 C 0.6325 0.33468 0.95551 0.0
C3500 C 0.64724 0.35221 0.96365 0.0
C3501 C 0.65975 0.3806 0.96237 0.0
H3502 H 0.62294 0.31271 0.95649 0.0
H3503 H 0.75695 0.58574 0.93781 0.0
H3504 H 0.3683 0.8359 0.766 0.0
H3505 H 0.39788 0.81613 0.7636 0.0
H3506 H 0.39269 0.79815 0.79625 0.0
H3507 H 0.36308 0.81802 0.79873 0.0
H3508 H 0.44775 0.8293 0.77149 0.0
H3509 H 0.38885 0.73836 0.79943 0.0
H3510 H 0.34159 0.70518 0.80482 0.0
H3511 H 0.31103 0.71607 0.7758 0.0
H3512 H 0.35798 0.74953 0.77033 0.0
H3513 H 0.5246 0.76685 0.78834 0.0
H3514 H 0.50016 0.79157 0.78455 0.0
H3515 H 0.43835 0.72093 0.76807 0.0
H3516 H 0.46233 0.69597 0.77225 0.0
H3517 H 0.41566 0.73361 0.78245 0.0
H3518 H 0.47955 0.78454 0.75598 0.0
H3519 H 0.52486 0.81306 0.74795 0.0
H3520 H 0.54302 0.8773 0.76983 0.0
H3521 H 0.49795 0.84901 0.77808 0.0
C3522 C 0.37358 0.82788 0.77269 0.0
C3523 C 0.36333 0.82846 0.78256 0.0
C3524 C 0.39052 0.81663 0.7713 0.0
C3525 C 0.39729 0.80546 0.77972 0.0
C3526 C 0.38745 0.80639 0.78962 0.0
C3527 C 0.37067 0.81788 0.79104 0.0
C3528 C 0.4145 0.79268 0.77815 0.0
C3529 C 0.44081 0.80837 0.77387 0.0
C3530 C 0.40519 0.7652 0.78099 0.0
C3531 C 0.37682 0.74663 0.78454 0.0
C3532 C 0.37197 0.73383 0.79426 0.0
C3533 C 0.34525 0.71497 0.79732 0.0
C3534 C 0.3233 0.70855 0.79067 0.0
C3535 C 0.328 0.72115 0.78098 0.0
C3536 C 0.35463 0.74023 0.77792 0.0
C3537 C 0.50644 0.75716 0.78353 0.0
C3538 C 0.49536 0.72977 0.78047 0.0
C3539 C 0.49244 0.77124 0.78137 0.0
C3540 C 0.46735 0.75812 0.77603 0.0
C3541 C 0.45763 0.73147 0.7722 0.0
C3542 C 0.47141 0.7173 0.7745 0.0
C3543 C 0.44926 0.77026 0.77592 0.0
C3544 C 0.42275 0.75451 0.77998 0.0
C3545 C 0.45827 0.79743 0.77263 0.0
C3546 C 0.48542 0.81454 0.7677 0.0
C3547 C 0.49328 0.80465 0.75913 0.0
C3548 C 0.51891 0.8208 0.75453 0.0
C3549 C 0.53683 0.84695 0.75839 0.0
C3550 C 0.52913 0.85703 0.76685 0.0
C3551 C 0.50352 0.84096 0.77148 0.0
H3552 H 0.55666 0.85943 0.75481 0.0
H3553 H 0.30267 0.69375 0.79303 0.0
H3554 H 0.29129 0.73768 0.79017 0.0
H3555 H 0.26106 0.69066 0.78481 0.0
H3556 H 0.20659 0.71404 0.77062 0.0
H3557 H 0.23729 0.76197 0.77592 0.0
H3558 H 0.18131 0.66724 0.78466 0.0
H3559 H 0.23822 0.69638 0.75479 0.0
H3560 H 0.28185 0.7202 0.74522 0.0
H3561 H 0.30845 0.66879 0.7596 0.0
H3562 H 0.26519 0.64497 0.7694 0.0
H3563 H 0.15217 0.52504 0.76146 0.0
H3564 H 0.16636 0.57349 0.75963 0.0
H3565 H 0.1742 0.58309 0.79281 0.0
H3566 H 0.15955 0.53447 0.7947 0.0
H3567 H 0.21482 0.61469 0.76464 0.0
H3568 H 0.16541 0.63518 0.8005 0.0
H3569 H 0.12245 0.61164 0.8105 0.0
H3570 H 0.08008 0.56379 0.7838 0.0
H3571 H 0.12268 0.58731 0.77359 0.0
C3572 C 0.27313 0.73307 0.78577 0.0
C3573 C 0.26678 0.75363 0.78344 0.0
C3574 C 0.2559 0.70615 0.7827 0.0
C3575 C 0.23181 0.69898 0.77725 0.0
C3576 C 0.22527 0.71932 0.77477 0.0
C3577 C 0.24284 0.74662 0.77776 0.0
C3578 C 0.21323 0.66974 0.7748 0.0
C3579 C 0.18829 0.65569 0.78014 0.0
C3580 C 0.2224 0.65485 0.76882 0.0
C3581 C 0.2484 0.6689 0.76285 0.0
C3582 C 0.25342 0.69024 0.75596 0.0
C3583 C 0.2781 0.70375 0.75049 0.0
C3584 C 0.2979 0.69602 0.7518 0.0
C3585 C 0.29305 0.67471 0.75857 0.0
C3586 C 0.26843 0.66118 0.76408 0.0
C3587 C 0.15646 0.53736 0.76838 0.0
C3588 C 0.1549 0.526 0.77823 0.0
C3589 C 0.16458 0.56505 0.76732 0.0
C3590 C 0.1712 0.58191 0.77607 0.0
C3591 C 0.16874 0.57039 0.78595 0.0
C3592 C 0.16051 0.54262 0.78702 0.0
C3593 C 0.1833 0.61196 0.77485 0.0
C3594 C 0.20723 0.62614 0.7689 0.0
C3595 C 0.17317 0.6269 0.78026 0.0
C3596 C 0.14731 0.61295 0.78629 0.0
C3597 C 0.14689 0.61978 0.79674 0.0
C3598 C 0.12261 0.6064 0.80245 0.0
C3599 C 0.09856 0.5862 0.79779 0.0
C3600 C 0.09873 0.57939 0.7874 0.0
C3601 C 0.12296 0.59271 0.78165 0.0
H3602 H 0.07979 0.57585 0.80223 0.0
H3603 H 0.31701 0.70652 0.74757 0.0
H3604 H 0.4755 0.641 0.76592 0.0
H3605 H 0.42587 0.61678 0.76353 0.0
H3606 H 0.41462 0.60285 0.79648 0.0
H3607 H 0.46431 0.62785 0.79894 0.0
H3608 H 0.38547 0.5676 0.7667 0.0
H3609 H 0.36037 0.60628 0.80466 0.0
H3610 H 0.38098 0.64711 0.81591 0.0
H3611 H 0.42926 0.69674 0.79048 0.0
H3612 H 0.40884 0.65626 0.77902 0.0
H3613 H 0.24505 0.48621 0.78015 0.0
H3614 H 0.29475 0.51118 0.77774 0.0
H3615 H 0.29366 0.58712 0.77539 0.0
H3616 H 0.24427 0.56228 0.77849 0.0
H3617 H 0.32988 0.59505 0.78793 0.0
H3618 H 0.31058 0.55603 0.75433 0.0
H3619 H 0.28973 0.51997 0.74103 0.0
H3620 H 0.33024 0.47945 0.75399 0.0
H3621 H 0.35105 0.51507 0.76747 0.0
C3622 C 0.46246 0.63255 0.77265 0.0
C3623 C 0.47377 0.63642 0.78263 0.0
C3624 C 0.43408 0.61871 0.77127 0.0
C3625 C 0.41649 0.60838 0.77983 0.0
C3626 C 0.42778 0.61118 0.78977 0.0
C3627 C 0.45617 0.62528 0.79116 0.0
C3628 C 0.38637 0.59523 0.77842 0.0
C3629 C 0.37326 0.5736 0.77132 0.0
C3630 C 0.37053 0.60368 0.78417 0.0
C3631 C 0.38322 0.62814 0.79101 0.0
C3632 C 0.37537 0.6259 0.80146 0.0
C3633 C 0.38704 0.64899 0.80787 0.0
C3634 C 0.40649 0.67447 0.80391 0.0
C3635 C 0.41431 0.67694 0.79352 0.0
C3636 C 0.40274 0.65392 0.78708 0.0
C3637 C 0.25542 0.50814 0.77885 0.0
C3638 C 0.241 0.52241 0.77951 0.0
C3639 C 0.28384 0.52244 0.77745 0.0
C3640 C 0.29814 0.55115 0.77635 0.0
C3641 C 0.28327 0.56507 0.77632 0.0
C3642 C 0.25504 0.55088 0.77802 0.0
C3643 C 0.32865 0.56692 0.77633 0.0
C3644 C 0.34194 0.58907 0.78321 0.0
C3645 C 0.34465 0.55962 0.77006 0.0
C3646 C 0.33221 0.53813 0.76197 0.0
C3647 C 0.31489 0.53933 0.7544 0.0
C3648 C 0.3031 0.51898 0.74681 0.0
C3649 C 0.30861 0.4974 0.74668 0.0
C3650 C 0.32597 0.49617 0.75411 0.0
C3651 C 0.3378 0.51646 0.76171 0.0
H3652 H 0.29947 0.48167 0.7408 0.0
H3653 H 0.41546 0.69233 0.80887 0.0
H3654 H 0.43247 0.85407 0.05774 0.0
H3655 H 0.46297 0.83545 0.06128 0.0
H3656 H 0.40353 0.7583 0.0478 0.0
H3657 H 0.37309 0.77626 0.04445 0.0
H3658 H 0.42577 0.75198 0.06604 0.0
H3659 H 0.45496 0.80436 0.03365 0.0
H3660 H 0.47414 0.84633 0.02306 0.0
H3661 H 0.54664 0.88327 0.04189 0.0
H3662 H 0.52765 0.84162 0.0527 0.0
H3663 H 0.50878 0.70534 0.03469 0.0
H3664 H 0.49242 0.73768 0.03734 0.0
H3665 H 0.50425 0.73609 0.07028 0.0
H3666 H 0.52009 0.70326 0.0677 0.0
H3667 H 0.51164 0.78793 0.04573 0.0
H3668 H 0.45011 0.73832 0.08232 0.0
H3669 H 0.43015 0.69492 0.0921 0.0
H3670 H 0.42065 0.65063 0.06397 0.0
H3671 H 0.44022 0.6937 0.05396 0.0
C3672 C 0.42575 0.83298 0.05573 0.0
C3673 C 0.40044 0.81669 0.05077 0.0
C3674 C 0.44323 0.82246 0.0577 0.0
C3675 C 0.43545 0.7955 0.05479 0.0
C3676 C 0.40984 0.77907 0.05017 0.0
C3677 C 0.39252 0.78948 0.04821 0.0
C3678 C 0.45401 0.78418 0.05595 0.0
C3679 C 0.44483 0.76011 0.06176 0.0
C3680 C 0.47884 0.7948 0.05037 0.0
C3681 C 0.48973 0.82006 0.04407 0.0
C3682 C 0.47482 0.82157 0.03562 0.0
C3683 C 0.48571 0.84527 0.02955 0.0
C3684 C 0.5116 0.86747 0.0318 0.0
C3685 C 0.52658 0.86608 0.04016 0.0
C3686 C 0.51576 0.84246 0.04626 0.0
C3687 C 0.50829 0.71217 0.04248 0.0
C3688 C 0.51528 0.70143 0.05099 0.0
C3689 C 0.49902 0.73074 0.04399 0.0
C3690 C 0.49668 0.73893 0.05403 0.0
C3691 C 0.50545 0.72967 0.06248 0.0
C3692 C 0.51455 0.71097 0.06099 0.0
C3693 C 0.48298 0.7553 0.05558 0.0
C3694 C 0.49307 0.78027 0.05029 0.0
C3695 C 0.45887 0.74544 0.06161 0.0
C3696 C 0.44697 0.71929 0.06743 0.0
C3697 C 0.44373 0.7193 0.07822 0.0
C3698 C 0.43248 0.69477 0.08379 0.0
C3699 C 0.42424 0.67005 0.07864 0.0
C3700 C 0.42715 0.66982 0.06791 0.0
C3701 C 0.43834 0.69428 0.06229 0.0
H3702 H 0.41555 0.65107 0.08297 0.0
H3703 H 0.52017 0.88571 0.02704 0.0
H3704 H 0.16059 0.56497 0.06264 0.0
H3705 H 0.18305 0.61387 0.06733 0.0
H3706 H 0.22287 0.63547 0.03755 0.0
H3707 H 0.20062 0.58739 0.03277 0.0
H3708 H 0.25812 0.65679 0.05631 0.0
H3709 H 0.17445 0.64605 0.03999 0.0
H3710 H 0.12431 0.62592 0.03902 0.0
H3711 H 0.12365 0.65521 0.06965 0.0
H3712 H 0.17378 0.67518 0.07084 0.0
H3713 H 0.30846 0.79085 0.03778 0.0
H3714 H 0.27826 0.74151 0.0401 0.0
H3715 H 0.26552 0.75444 0.07202 0.0
H3716 H 0.29667 0.8039 0.06989 0.0
H3717 H 0.21513 0.71508 0.05727 0.0
H3718 H 0.2972 0.73064 0.07342 0.0
H3719 H 0.34642 0.74807 0.07621 0.0
H3720 H 0.34985 0.70812 0.04843 0.0
H3721 H 0.30067 0.69085 0.04534 0.0
C3722 C 0.17389 0.58021 0.05707 0.0
C3723 C 0.17911 0.57227 0.04739 0.0
C3724 C 0.18667 0.60803 0.05976 0.0
C3725 C 0.20471 0.62808 0.0528 0.0
C3726 C 0.20915 0.62021 0.04305 0.0
C3727 C 0.19642 0.59267 0.04035 0.0
C3728 C 0.22026 0.65737 0.05559 0.0
C3729 C 0.24875 0.66956 0.05657 0.0
C3730 C 0.20782 0.67371 0.05631 0.0
C3731 C 0.17776 0.66175 0.05556 0.0
C3732 C 0.16357 0.64793 0.04656 0.0
C3733 C 0.13517 0.63662 0.04596 0.0
C3734 C 0.12079 0.63919 0.05428 0.0
C3735 C 0.1348 0.65317 0.06321 0.0
C3736 C 0.1632 0.66449 0.06385 0.0
C3737 C 0.29914 0.78327 0.04528 0.0
C3738 C 0.30508 0.80118 0.05367 0.0
C3739 C 0.28194 0.75511 0.04659 0.0
C3740 C 0.26993 0.74449 0.05625 0.0
C3741 C 0.27475 0.76236 0.06453 0.0
C3742 C 0.29251 0.79052 0.06329 0.0
C3743 C 0.25308 0.71454 0.05758 0.0
C3744 C 0.22445 0.70225 0.05731 0.0
C3745 C 0.26533 0.69797 0.0577 0.0
C3746 C 0.29528 0.70973 0.05908 0.0
C3747 C 0.30853 0.72602 0.06778 0.0
C3748 C 0.3364 0.73573 0.06946 0.0
C3749 C 0.3512 0.7291 0.06253 0.0
C3750 C 0.3383 0.71314 0.05381 0.0
C3751 C 0.31044 0.70341 0.05209 0.0
H3752 H 0.37264 0.73624 0.06395 0.0
H3753 H 0.0988 0.63043 0.0538 0.0
H3754 H 0.43133 0.58508 0.05922 0.0
H3755 H 0.38251 0.55872 0.06365 0.0
H3756 H 0.36695 0.61186 0.04429 0.0
H3757 H 0.41523 0.63833 0.03996 0.0
H3758 H 0.33664 0.59841 0.06167 0.0
H3759 H 0.36055 0.55214 0.03507 0.0
H3760 H 0.38692 0.53067 0.02901 0.0
H3761 H 0.35311 0.47143 0.05354 0.0
H3762 H 0.32695 0.49293 0.05986 0.0
H3763 H 0.20289 0.4919 0.03641 0.0
H3764 H 0.25275 0.51368 0.03811 0.0
H3765 H 0.24608 0.5215 0.07104 0.0
H3766 H 0.19635 0.49983 0.06942 0.0
H3767 H 0.28776 0.50202 0.0494 0.0
H3768 H 0.29874 0.58496 0.07794 0.0
H3769 H 0.27478 0.60969 0.08315 0.0
H3770 H 0.23985 0.5981 0.05279 0.0
H3771 H 0.26345 0.57334 0.0474 0.0
C3772 C 0.41756 0.59139 0.05604 0.0
C3773 C 0.42718 0.61359 0.04911 0.0
C3774 C 0.38969 0.57629 0.05857 0.0
C3775 C 0.3711 0.58315 0.05419 0.0
C3776 C 0.38092 0.60617 0.04775 0.0
C3777 C 0.40859 0.62117 0.04521 0.0
C3778 C 0.34112 0.56539 0.05547 0.0
C3779 C 0.32597 0.57719 0.05915 0.0
C3780 C 0.3272 0.53781 0.05206 0.0
C3781 C 0.34206 0.5243 0.048 0.0
C3782 C 0.35883 0.53459 0.03919 0.0
C3783 C 0.37376 0.52245 0.03572 0.0
C3784 C 0.37177 0.49976 0.04092 0.0
C3785 C 0.35469 0.48905 0.04954 0.0
C3786 C 0.33982 0.50121 0.05308 0.0
C3787 C 0.21203 0.49792 0.04403 0.0
C3788 C 0.19575 0.49432 0.05277 0.0
C3789 C 0.24048 0.51029 0.04499 0.0
C3790 C 0.25307 0.51941 0.05469 0.0
C3791 C 0.23676 0.51483 0.06348 0.0
C3792 C 0.20835 0.50239 0.06253 0.0
C3793 C 0.28332 0.5352 0.05547 0.0
C3794 C 0.29846 0.523 0.05217 0.0
C3795 C 0.29727 0.56254 0.05912 0.0
C3796 C 0.28256 0.57699 0.06232 0.0
C3797 C 0.28584 0.58764 0.07239 0.0
C3798 C 0.27229 0.60163 0.07538 0.0
C3799 C 0.25559 0.6053 0.06832 0.0
C3800 C 0.25249 0.59502 0.05827 0.0
C3801 C 0.26589 0.58093 0.05526 0.0
H3802 H 0.24517 0.61619 0.07062 0.0
H3803 H 0.38345 0.49046 0.03826 0.0
H3804 H 0.1598 0.58885 0.56282 0.0
H3805 H 0.17967 0.55911 0.56555 0.0
H3806 H 0.22679 0.59025 0.53752 0.0
H3807 H 0.20766 0.61994 0.53478 0.0
H3808 H 0.19544 0.5311 0.53935 0.0
H3809 H 0.25902 0.61376 0.55868 0.0
H3810 H 0.27008 0.64786 0.57254 0.0
H3811 H 0.23885 0.58377 0.59533 0.0
H3812 H 0.22732 0.54927 0.58158 0.0
H3813 H 0.30553 0.50887 0.53422 0.0
H3814 H 0.27338 0.52558 0.53578 0.0
H3815 H 0.25765 0.49858 0.56759 0.0
H3816 H 0.29109 0.48304 0.56621 0.0
H3817 H 0.26401 0.54704 0.56654 0.0
H3818 H 0.20874 0.46521 0.54775 0.0
H3819 H 0.1971 0.43041 0.53415 0.0
H3820 H 0.20955 0.48983 0.51081 0.0
H3821 H 0.22164 0.5251 0.52426 0.0
C3822 C 0.17448 0.5894 0.55727 0.0
C3823 C 0.1821 0.60678 0.54858 0.0
C3824 C 0.18578 0.57245 0.55885 0.0
C3825 C 0.20453 0.57247 0.55169 0.0
C3826 C 0.21222 0.58986 0.54309 0.0
C3827 C 0.20131 0.60694 0.54158 0.0
C3828 C 0.21632 0.55439 0.55289 0.0
C3829 C 0.21039 0.53443 0.5453 0.0
C3830 C 0.23502 0.55819 0.56087 0.0
C3831 C 0.24198 0.57894 0.56911 0.0
C3832 C 0.25427 0.60693 0.56664 0.0
C3833 C 0.26069 0.62633 0.57447 0.0
C3834 C 0.25507 0.61798 0.5848 0.0
C3835 C 0.24312 0.59021 0.58732 0.0
C3836 C 0.23666 0.57073 0.57952 0.0
C3837 C 0.29507 0.50624 0.54153 0.0
C3838 C 0.30087 0.49469 0.5501 0.0
C3839 C 0.27647 0.51562 0.54239 0.0
C3840 C 0.26265 0.51291 0.55175 0.0
C3841 C 0.26798 0.50082 0.56028 0.0
C3842 C 0.28699 0.49185 0.55947 0.0
C3843 C 0.24396 0.52426 0.55272 0.0
C3844 C 0.24853 0.54297 0.56073 0.0
C3845 C 0.22371 0.51906 0.54516 0.0
C3846 C 0.21619 0.49784 0.53703 0.0
C3847 C 0.20913 0.4709 0.53972 0.0
C3848 C 0.20244 0.45108 0.53203 0.0
C3849 C 0.2026 0.45791 0.52162 0.0
C3850 C 0.20941 0.48456 0.51888 0.0
C3851 C 0.21613 0.50446 0.52653 0.0
H3852 H 0.19744 0.44254 0.51568 0.0
H3853 H 0.26006 0.63302 0.59086 0.0
H3854 H 0.35615 0.5763 0.55957 0.0
H3855 H 0.37983 0.62541 0.56347 0.0
H3856 H 0.45597 0.63275 0.55301 0.0
H3857 H 0.43253 0.58331 0.54979 0.0
H3858 H 0.4668 0.67044 0.56694 0.0
H3859 H 0.41042 0.63944 0.53597 0.0
H3860 H 0.36688 0.61123 0.52668 0.0
H3861 H 0.32871 0.6471 0.54464 0.0
H3862 H 0.37194 0.67521 0.55412 0.0
H3863 H 0.49216 0.79916 0.53542 0.0
H3864 H 0.47175 0.74961 0.53767 0.0
H3865 H 0.47468 0.75969 0.57084 0.0
H3866 H 0.49535 0.80921 0.56865 0.0
H3867 H 0.42396 0.71365 0.54643 0.0
H3868 H 0.48437 0.70942 0.58187 0.0
H3869 H 0.52995 0.73685 0.58987 0.0
H3870 H 0.56448 0.7717 0.56028 0.0
H3871 H 0.51921 0.74422 0.55208 0.0
C3872 C 0.37816 0.5883 0.55856 0.0
C3873 C 0.39265 0.57629 0.55441 0.0
C3874 C 0.39163 0.61635 0.56067 0.0
C3875 C 0.4195 0.63294 0.55819 0.0
C3876 C 0.43444 0.62044 0.55492 0.0
C3877 C 0.42109 0.59221 0.5531 0.0
C3878 C 0.43212 0.66321 0.55761 0.0
C3879 C 0.45735 0.6799 0.56252 0.0
C3880 C 0.42009 0.67563 0.55168 0.0
C3881 C 0.39433 0.65931 0.54578 0.0
C3882 C 0.39272 0.64127 0.53793 0.0
C3883 C 0.36809 0.62527 0.53265 0.0
C3884 C 0.34503 0.62735 0.53507 0.0
C3885 C 0.34658 0.64551 0.54276 0.0
C3886 C 0.37115 0.66151 0.54809 0.0
C3887 C 0.48868 0.79084 0.54319 0.0
C3888 C 0.49542 0.80807 0.55185 0.0
C3889 C 0.4769 0.76254 0.54446 0.0
C3890 C 0.47183 0.75099 0.55442 0.0
C3891 C 0.47873 0.76819 0.56309 0.0
C3892 C 0.49049 0.79648 0.56182 0.0
C3893 C 0.45872 0.72087 0.5557 0.0
C3894 C 0.43333 0.70424 0.55094 0.0
C3895 C 0.47094 0.70857 0.56156 0.0
C3896 C 0.49833 0.72499 0.56639 0.0
C3897 C 0.50171 0.72288 0.57707 0.0
C3898 C 0.52749 0.73844 0.58164 0.0
C3899 C 0.55008 0.75609 0.57559 0.0
C3900 C 0.54695 0.75812 0.56496 0.0
C3901 C 0.52122 0.74259 0.56035 0.0
H3902 H 0.57001 0.76813 0.57915 0.0
H3903 H 0.32597 0.6149 0.53099 0.0
H3904 H 0.42852 0.8306 0.5643 0.0
H3905 H 0.37992 0.80887 0.56932 0.0
H3906 H 0.35824 0.81388 0.53769 0.0
H3907 H 0.40637 0.83477 0.53265 0.0
H3908 H 0.3277 0.825 0.55327 0.0
H3909 H 0.35642 0.75891 0.54389 0.0
H3910 H 0.38668 0.73928 0.54601 0.0
H3911 H 0.36202 0.72061 0.5778 0.0
H3912 H 0.33192 0.74052 0.57589 0.0
H3913 H 0.19683 0.71571 0.54 0.0
H3914 H 0.24562 0.74963 0.54156 0.0
H3915 H 0.24561 0.72369 0.57298 0.0
H3916 H 0.19682 0.68994 0.57152 0.0
H3917 H 0.28771 0.72607 0.56125 0.0
H3918 H 0.25191 0.78372 0.56971 0.0
H3919 H 0.2229 0.80479 0.56802 0.0
H3920 H 0.26086 0.84028 0.53891 0.0
H3921 H 0.28984 0.81905 0.54034 0.0
C3922 C 0.41336 0.82764 0.55852 0.0
C3923 C 0.42091 0.8341 0.5481 0.0
C3924 C 0.38573 0.81525 0.56137 0.0
C3925 C 0.36561 0.80975 0.55385 0.0
C3926 C 0.3735 0.81807 0.5436 0.0
C3927 C 0.4009 0.82984 0.54072 0.0
C3928 C 0.33617 0.79237 0.55622 0.0
C3929 C 0.31886 0.80338 0.55504 0.0
C3930 C 0.3249 0.76435 0.55875 0.0
C3931 C 0.34224 0.75154 0.55979 0.0
C3932 C 0.35759 0.75077 0.55134 0.0
C3933 C 0.3747 0.73959 0.5525 0.0
C3934 C 0.3764 0.72888 0.56205 0.0
C3935 C 0.36077 0.72904 0.57042 0.0
C3936 C 0.34368 0.74025 0.56931 0.0
C3937 C 0.20717 0.71746 0.54727 0.0
C3938 C 0.19304 0.70024 0.55564 0.0
C3939 C 0.23498 0.73687 0.54816 0.0
C3940 C 0.24914 0.73924 0.55741 0.0
C3941 C 0.23501 0.72221 0.5658 0.0
C3942 C 0.20714 0.70303 0.56495 0.0
C3943 C 0.279 0.75852 0.55806 0.0
C3944 C 0.29643 0.7478 0.55974 0.0
C3945 C 0.29036 0.78684 0.55604 0.0
C3946 C 0.2729 0.79958 0.55509 0.0
C3947 C 0.25391 0.7958 0.56289 0.0
C3948 C 0.2375 0.80782 0.56199 0.0
C3949 C 0.23999 0.82381 0.55335 0.0
C3950 C 0.25894 0.82786 0.5456 0.0
C3951 C 0.27538 0.81586 0.54645 0.0
H3952 H 0.22729 0.83312 0.55267 0.0
H3953 H 0.38982 0.72044 0.56296 0.0
H3954 H 0.29774 0.54788 0.27342 0.0
H3955 H 0.26895 0.5689 0.27119 0.0
H3956 H 0.19982 0.49615 0.28363 0.0
H3957 H 0.22847 0.4749 0.28556 0.0
H3958 H 0.18418 0.52114 0.26888 0.0
H3959 H 0.24116 0.54699 0.29947 0.0
H3960 H 0.28504 0.56507 0.30878 0.0
H3961 H 0.31622 0.64207 0.293 0.0
H3962 H 0.27273 0.62423 0.28342 0.0
H3963 H 0.15466 0.62587 0.29846 0.0
H3964 H 0.17233 0.59409 0.29749 0.0
H3965 H 0.17494 0.60034 0.26417 0.0
H3966 H 0.157 0.63174 0.26508 0.0
H3967 H 0.22122 0.60577 0.29007 0.0
H3968 H 0.16746 0.54122 0.25372 0.0
H3969 H 0.12329 0.52279 0.24459 0.0
H3970 H 0.08367 0.52216 0.27305 0.0
H3971 H 0.12751 0.54023 0.28238 0.0
C3972 C 0.2762 0.53626 0.27538 0.0
C3973 C 0.26522 0.5101 0.27973 0.0
C3974 C 0.25985 0.54818 0.27413 0.0
C3975 C 0.23253 0.53435 0.27751 0.0
C3976 C 0.22091 0.50721 0.28103 0.0
C3977 C 0.23721 0.49509 0.28211 0.0
C3978 C 0.21736 0.54937 0.27861 0.0
C3979 C 0.19224 0.53967 0.27349 0.0
C3980 C 0.22773 0.5733 0.28478 0.0
C3981 C 0.25376 0.58418 0.29067 0.0
C3982 C 0.25744 0.56771 0.29794 0.0
C3983 C 0.28225 0.57792 0.30326 0.0
C3984 C 0.30342 0.60469 0.30147 0.0
C3985 C 0.29979 0.62135 0.29439 0.0
C3986 C 0.27508 0.61118 0.28899 0.0
C3987 C 0.1586 0.62012 0.29093 0.0
C3988 C 0.15453 0.63133 0.28185 0.0
C3989 C 0.16874 0.60203 0.29039 0.0
C3990 C 0.17479 0.59473 0.28076 0.0
C3991 C 0.17002 0.60534 0.27167 0.0
C3992 C 0.15989 0.6234 0.27222 0.0
C3993 C 0.18812 0.5778 0.28024 0.0
C3994 C 0.21303 0.58721 0.28547 0.0
C3995 C 0.17744 0.5536 0.27422 0.0
C3996 C 0.15084 0.5423 0.26873 0.0
C3997 C 0.1493 0.53702 0.25804 0.0
C3998 C 0.12432 0.52666 0.25283 0.0
C3999 C 0.1007 0.52138 0.25823 0.0
C4000 C 0.102 0.52635 0.26887 0.0
C4001 C 0.12692 0.53669 0.27412 0.0
H4002 H 0.08139 0.51339 0.25418 0.0
H4003 H 0.32262 0.61254 0.30559 0.0
H4004 H 0.48071 0.73971 0.30124 0.0
H4005 H 0.46257 0.69244 0.29571 0.0
H4006 H 0.47628 0.71838 0.26379 0.0
H4007 H 0.49529 0.76641 0.26936 0.0
H4008 H 0.4209 0.67572 0.26944 0.0
H4009 H 0.51216 0.6935 0.27141 0.0
H4010 H 0.55827 0.71157 0.27886 0.0
H4011 H 0.52388 0.65871 0.3052 0.0
H4012 H 0.47747 0.64062 0.29801 0.0
H4013 H 0.35728 0.53057 0.26143 0.0
H4014 H 0.39 0.57971 0.25986 0.0
H4015 H 0.40472 0.58431 0.29277 0.0
H4016 H 0.37218 0.53527 0.29438 0.0
H4017 H 0.45228 0.61278 0.28204 0.0
H4018 H 0.36451 0.61074 0.28356 0.0
H4019 H 0.3175 0.59744 0.27823 0.0
H4020 H 0.3448 0.62164 0.24696 0.0
H4021 H 0.3922 0.63569 0.25219 0.0
C4022 C 0.48023 0.73544 0.29304 0.0
C4023 C 0.48926 0.75661 0.28571 0.0
C4024 C 0.47006 0.70847 0.2899 0.0
C4025 C 0.46838 0.70202 0.27936 0.0
C4026 C 0.47773 0.7231 0.27197 0.0
C4027 C 0.48855 0.75039 0.27514 0.0
C4028 C 0.45415 0.67285 0.27632 0.0
C4029 C 0.42815 0.66197 0.27184 0.0
C4030 C 0.46336 0.65502 0.27977 0.0
C4031 C 0.49126 0.66574 0.28416 0.0
C4032 C 0.51437 0.68585 0.27883 0.0
C4033 C 0.54059 0.69608 0.283 0.0
C4034 C 0.544 0.68627 0.29249 0.0
C4035 C 0.5212 0.66623 0.29783 0.0
C4036 C 0.49493 0.65596 0.2937 0.0
C4037 C 0.36763 0.54204 0.26832 0.0
C4038 C 0.36217 0.52909 0.27804 0.0
C4039 C 0.38621 0.57012 0.26741 0.0
C4040 C 0.39968 0.58569 0.27621 0.0
C4041 C 0.39462 0.57267 0.28588 0.0
C4042 C 0.37597 0.54466 0.2868 0.0
C4043 C 0.4187 0.61566 0.27545 0.0
C4044 C 0.44549 0.62658 0.27926 0.0
C4045 C 0.41017 0.63362 0.27152 0.0
C4046 C 0.38167 0.62382 0.26822 0.0
C4047 C 0.36039 0.61295 0.27553 0.0
C4048 C 0.33374 0.60548 0.27254 0.0
C4049 C 0.32809 0.60849 0.26224 0.0
C4050 C 0.34917 0.6192 0.25492 0.0
C4051 C 0.37595 0.62706 0.2579 0.0
H4052 H 0.30742 0.60266 0.25994 0.0
H4053 H 0.56432 0.69421 0.2957 0.0
H4054 H 0.45928 0.82829 0.30013 0.0
H4055 H 0.40964 0.80658 0.29811 0.0
H4056 H 0.41913 0.81641 0.26499 0.0
H4057 H 0.46892 0.83817 0.26694 0.0
H4058 H 0.37886 0.82732 0.27296 0.0
H4059 H 0.40187 0.75696 0.27372 0.0
H4060 H 0.42495 0.73254 0.28022 0.0
H4061 H 0.38172 0.71703 0.30905 0.0
H4062 H 0.35869 0.74174 0.30278 0.0
H4063 H 0.23148 0.73066 0.27035 0.0
H4064 H 0.28105 0.7548 0.26669 0.0
H4065 H 0.29737 0.75049 0.29907 0.0
H4066 H 0.24863 0.72627 0.30268 0.0
H4067 H 0.32482 0.73356 0.28748 0.0
H4068 H 0.30703 0.8104 0.28687 0.0
H4069 H 0.28508 0.83551 0.27992 0.0
H4070 H 0.31863 0.83764 0.24986 0.0
H4071 H 0.34052 0.81227 0.25662 0.0
C4072 C 0.45086 0.82613 0.29243 0.0
C4073 C 0.46796 0.83469 0.28369 0.0
C4074 C 0.42251 0.81368 0.29128 0.0
C4075 C 0.41076 0.80959 0.28138 0.0
C4076 C 0.42783 0.81933 0.27268 0.0
C4077 C 0.45623 0.83168 0.27382 0.0
C4078 C 0.3806 0.7938 0.28021 0.0
C4079 C 0.36697 0.80664 0.27597 0.0
C4080 C 0.36523 0.76675 0.28404 0.0
C4081 C 0.37866 0.75139 0.2878 0.0
C4082 C 0.3974 0.7485 0.28147 0.0
C4083 C 0.41048 0.7346 0.28511 0.0
C4084 C 0.40485 0.7233 0.29505 0.0
C4085 C 0.38607 0.7258 0.30135 0.0
C4086 C 0.37296 0.73973 0.29775 0.0
C4087 C 0.24576 0.73516 0.27666 0.0
C4088 C 0.23617 0.7263 0.28677 0.0
C4089 C 0.27402 0.7489 0.27458 0.0
C4090 C 0.29293 0.75428 0.28261 0.0
C4091 C 0.28323 0.74625 0.29272 0.0
C4092 C 0.25528 0.73241 0.29477 0.0
C4093 C 0.32289 0.76759 0.28075 0.0
C4094 C 0.3366 0.7541 0.28433 0.0
C4095 C 0.33824 0.7939 0.27623 0.0
C4096 C 0.32511 0.80917 0.27222 0.0
C4097 C 0.30954 0.81604 0.27876 0.0
C4098 C 0.29715 0.83036 0.27486 0.0
C4099 C 0.30038 0.83809 0.26444 0.0
C4100 C 0.31609 0.83159 0.25792 0.0
C4101 C 0.3285 0.81727 0.26178 0.0
H4102 H 0.29078 0.84917 0.26144 0.0
H4103 H 0.41502 0.71256 0.29786 0.0
loop_
_geom_bond_atom_site_label_1
_geom_bond_atom_site_label_2
_geom_bond_distance
_geom_bond_site_symmetry_2
_ccdc_geom_bond_type
Co0 O1 2.216 . S
Co0 O2 2.091 . S
Co0 O4 2.004 . S
Co0 O10 2.021 . S
Co0 O12 2.137 . S
Co0 O13 2.244 . S
O1 Co0 2.216 . S
O1 C8 1.247 . S
O2 Co0 2.091 . S
O2 C8 1.261 . S
C3 O12 1.247 . S
C3 O13 1.272 . S
O4 Co0 2.004 . S
O4 C9 1.259 . S
Co5 O6 2.061 . S
Co5 O11 2.052 . S
Co5 O13 2.135 . S
O6 Co5 2.061 . S
O6 C9 1.235 . S
C7 O10 1.238 . S
C7 O11 1.241 . S
C8 O1 1.247 . S
C8 O2 1.261 . S
C9 O4 1.259 . S
C9 O6 1.235 . S
O10 Co0 2.021 . S
O10 C7 1.238 . S
O11 Co5 2.052 . S
O11 C7 1.241 . S
O12 Co0 2.137 . S
O12 C3 1.247 . S
O13 Co0 2.244 . S
O13 C3 1.272 . S
O13 Co5 2.135 . S
Co14 O15 2.216 . S
Co14 O16 2.091 . S
Co14 O18 2.004 . S
Co14 O24 2.021 . S
Co14 O26 2.137 . S
Co14 O27 2.244 . S
O15 Co14 2.216 . S
O15 C22 1.247 . S
O16 Co14 2.091 . S
O16 C22 1.261 . S
C17 O26 1.247 . S
C17 O27 1.272 . S
O18 Co14 2.004 . S
O18 C23 1.259 . S
Co19 O20 2.061 . S
Co19 O25 2.052 . S
Co19 O27 2.135 . S
O20 Co19 2.061 . S
O20 C23 1.235 . S
C21 O24 1.238 . S
C21 O25 1.241 . S
C22 O15 1.247 . S
C22 O16 1.261 . S
C23 O18 1.259 . S
C23 O20 1.235 . S
O24 Co14 2.021 . S
O24 C21 1.238 . S
O25 Co19 2.052 . S
O25 C21 1.241 . S
O26 Co14 2.137 . S
O26 C17 1.247 . S
O27 Co14 2.244 . S
O27 C17 1.272 . S
O27 Co19 2.135 . S
Co28 O29 2.216 . S
Co28 O30 2.091 . S
Co28 O32 2.004 . S
Co28 O38 2.021 . S
Co28 O40 2.137 . S
Co28 O41 2.244 . S
O29 Co28 2.216 . S
O29 C36 1.247 . S
O30 Co28 2.091 . S
O30 C36 1.261 . S
C31 O40 1.247 . S
C31 O41 1.272 . S
O32 Co28 2.004 . S
O32 C37 1.259 . S
Co33 O34 2.061 . S
Co33 O39 2.052 . S
Co33 O41 2.135 . S
O34 Co33 2.061 . S
O34 C37 1.235 . S
C35 O38 1.238 . S
C35 O39 1.241 . S
C36 O29 1.247 . S
C36 O30 1.261 . S
C37 O32 1.259 . S
C37 O34 1.235 . S
O38 Co28 2.021 . S
O38 C35 1.238 . S
O39 Co33 2.052 . S
O39 C35 1.241 . S
O40 Co28 2.137 . S
O40 C31 1.247 . S
O41 Co28 2.244 . S
O41 C31 1.272 . S
O41 Co33 2.135 . S
Co42 O43 2.216 . S
Co42 O44 2.091 . S
Co42 O46 2.004 . S
Co42 O52 2.021 . S
Co42 O54 2.137 . S
Co42 O55 2.244 . S
O43 Co42 2.216 . S
O43 C50 1.247 . S
O44 Co42 2.091 . S
O44 C50 1.261 . S
C45 O54 1.247 . S
C45 O55 1.272 . S
O46 Co42 2.004 . S
O46 C51 1.259 . S
Co47 O48 2.061 . S
Co47 O53 2.052 . S
Co47 O55 2.135 . S
O48 Co47 2.061 . S
O48 C51 1.235 . S
C49 O52 1.238 . S
C49 O53 1.241 . S
C50 O43 1.247 . S
C50 O44 1.261 . S
C51 O46 1.259 . S
C51 O48 1.235 . S
O52 Co42 2.021 . S
O52 C49 1.238 . S
O53 Co47 2.052 . S
O53 C49 1.241 . S
O54 Co42 2.137 . S
O54 C45 1.247 . S
O55 Co42 2.244 . S
O55 C45 1.272 . S
O55 Co47 2.135 . S
Co56 O57 2.216 . S
Co56 O58 2.091 . S
Co56 O60 2.004 . S
Co56 O66 2.021 . S
Co56 O68 2.137 . S
Co56 O69 2.244 . S
O57 Co56 2.216 . S
O57 C64 1.247 . S
O58 Co56 2.091 . S
O58 C64 1.261 . S
C59 O68 1.247 . S
C59 O69 1.272 . S
O60 Co56 2.004 . S
O60 C65 1.259 . S
Co61 O62 2.061 . S
Co61 O67 2.052 . S
Co61 O69 2.135 . S
O62 Co61 2.061 . S
O62 C65 1.235 . S
C63 O66 1.238 . S
C63 O67 1.241 . S
C64 O57 1.247 . S
C64 O58 1.261 . S
C65 O60 1.259 . S
C65 O62 1.235 . S
O66 Co56 2.021 . S
O66 C63 1.238 . S
O67 Co61 2.052 . S
O67 C63 1.241 . S
O68 Co56 2.137 . S
O68 C59 1.247 . S
O69 Co56 2.244 . S
O69 C59 1.272 . S
O69 Co61 2.135 . S
Co70 O71 2.216 . S
Co70 O72 2.091 . S
Co70 O74 2.004 . S
Co70 O80 2.021 . S
Co70 O82 2.137 . S
Co70 O83 2.244 . S
O71 Co70 2.216 . S
O71 C78 1.247 . S
O72 Co70 2.091 . S
O72 C78 1.261 . S
C73 O82 1.247 . S
C73 O83 1.272 . S
O74 Co70 2.004 . S
O74 C79 1.259 . S
Co75 O76 2.061 . S
Co75 O81 2.052 . S
Co75 O83 2.135 . S
O76 Co75 2.061 . S
O76 C79 1.235 . S
C77 O80 1.238 . S
C77 O81 1.241 . S
C78 O71 1.247 . S
C78 O72 1.261 . S
C79 O74 1.259 . S
C79 O76 1.235 . S
O80 Co70 2.021 . S
O80 C77 1.238 . S
O81 Co75 2.052 . S
O81 C77 1.241 . S
O82 Co70 2.137 . S
O82 C73 1.247 . S
O83 Co70 2.244 . S
O83 C73 1.272 . S
O83 Co75 2.135 . S
Co84 O85 2.216 . S
Co84 O86 2.091 . S
Co84 O88 2.004 . S
Co84 O94 2.021 . S
Co84 O96 2.137 . S
Co84 O97 2.244 . S
O85 Co84 2.216 . S
O85 C92 1.247 . S
O86 Co84 2.091 . S
O86 C92 1.261 . S
C87 O96 1.247 . S
C87 O97 1.272 . S
O88 Co84 2.004 . S
O88 C93 1.259 . S
Co89 O90 2.061 . S
Co89 O95 2.052 . S
Co89 O97 2.135 . S
O90 Co89 2.061 . S
O90 C93 1.235 . S
C91 O94 1.238 . S
C91 O95 1.241 . S
C92 O85 1.247 . S
C92 O86 1.261 . S
C93 O88 1.259 . S
C93 O90 1.235 . S
O94 Co84 2.021 . S
O94 C91 1.238 . S
O95 Co89 2.052 . S
O95 C91 1.241 . S
O96 Co84 2.137 . S
O96 C87 1.247 . S
O97 Co84 2.244 . S
O97 C87 1.272 . S
O97 Co89 2.135 . S
Co98 O99 2.216 . S
Co98 O100 2.091 . S
Co98 O102 2.004 . S
Co98 O108 2.021 . S
Co98 O110 2.137 . S
Co98 O111 2.244 . S
O99 Co98 2.216 . S
O99 C106 1.247 . S
O100 Co98 2.091 . S
O100 C106 1.261 . S
C101 O110 1.247 . S
C101 O111 1.272 . S
O102 Co98 2.004 . S
O102 C107 1.259 . S
Co103 O104 2.061 . S
Co103 O109 2.052 . S
Co103 O111 2.135 . S
O104 Co103 2.061 . S
O104 C107 1.235 . S
C105 O108 1.238 . S
C105 O109 1.241 . S
C106 O99 1.247 . S
C106 O100 1.261 . S
C107 O102 1.259 . S
C107 O104 1.235 . S
O108 Co98 2.021 . S
O108 C105 1.238 . S
O109 Co103 2.052 . S
O109 C105 1.241 . S
O110 Co98 2.137 . S
O110 C101 1.247 . S
O111 Co98 2.244 . S
O111 C101 1.272 . S
O111 Co103 2.135 . S
Co112 O113 2.216 . S
Co112 O114 2.091 . S
Co112 O116 2.004 . S
Co112 O122 2.021 . S
Co112 O124 2.137 . S
Co112 O125 2.244 . S
O113 Co112 2.216 . S
O113 C120 1.247 . S
O114 Co112 2.091 . S
O114 C120 1.261 . S
C115 O124 1.247 . S
C115 O125 1.272 . S
O116 Co112 2.004 . S
O116 C121 1.259 . S
Co117 O118 2.061 . S
Co117 O123 2.052 . S
Co117 O125 2.135 . S
O118 Co117 2.061 . S
O118 C121 1.235 . S
C119 O122 1.238 . S
C119 O123 1.241 . S
C120 O113 1.247 . S
C120 O114 1.261 . S
C121 O116 1.259 . S
C121 O118 1.235 . S
O122 Co112 2.021 . S
O122 C119 1.238 . S
O123 Co117 2.052 . S
O123 C119 1.241 . S
O124 Co112 2.137 . S
O124 C115 1.247 . S
O125 Co112 2.244 . S
O125 C115 1.272 . S
O125 Co117 2.135 . S
Co126 O127 2.216 . S
Co126 O128 2.091 . S
Co126 O130 2.004 . S
Co126 O136 2.021 . S
Co126 O138 2.137 . S
Co126 O139 2.244 . S
O127 Co126 2.216 . S
O127 C134 1.247 . S
O128 Co126 2.091 . S
O128 C134 1.261 . S
C129 O138 1.247 . S
C129 O139 1.272 . S
O130 Co126 2.004 . S
O130 C135 1.259 . S
Co131 O132 2.061 . S
Co131 O137 2.052 . S
Co131 O139 2.135 . S
O132 Co131 2.061 . S
O132 C135 1.235 . S
C133 O136 1.238 . S
C133 O137 1.241 . S
C134 O127 1.247 . S
C134 O128 1.261 . S
C135 O130 1.259 . S
C135 O132 1.235 . S
O136 Co126 2.021 . S
O136 C133 1.238 . S
O137 Co131 2.052 . S
O137 C133 1.241 . S
O138 Co126 2.137 . S
O138 C129 1.247 . S
O139 Co126 2.244 . S
O139 C129 1.272 . S
O139 Co131 2.135 . S
Co140 O141 2.216 . S
Co140 O142 2.091 . S
Co140 O144 2.004 . S
Co140 O150 2.021 . S
Co140 O152 2.137 . S
Co140 O153 2.244 . S
O141 Co140 2.216 . S
O141 C148 1.247 . S
O142 Co140 2.091 . S
O142 C148 1.261 . S
C143 O152 1.247 . S
C143 O153 1.272 . S
O144 Co140 2.004 . S
O144 C149 1.259 . S
Co145 O146 2.061 . S
Co145 O151 2.052 . S
Co145 O153 2.135 . S
O146 Co145 2.061 . S
O146 C149 1.235 . S
C147 O150 1.238 . S
C147 O151 1.241 . S
C148 O141 1.247 . S
C148 O142 1.261 . S
C149 O144 1.259 . S
C149 O146 1.235 . S
O150 Co140 2.021 . S
O150 C147 1.238 . S
O151 Co145 2.052 . S
O151 C147 1.241 . S
O152 Co140 2.137 . S
O152 C143 1.247 . S
O153 Co140 2.244 . S
O153 C143 1.272 . S
O153 Co145 2.135 . S
Co154 O155 2.216 . S
Co154 O156 2.091 . S
Co154 O158 2.004 . S
Co154 O164 2.021 . S
Co154 O166 2.137 . S
Co154 O167 2.244 . S
O155 Co154 2.216 . S
O155 C162 1.247 . S
O156 Co154 2.091 . S
O156 C162 1.261 . S
C157 O166 1.247 . S
C157 O167 1.272 . S
O158 Co154 2.004 . S
O158 C163 1.259 . S
Co159 O160 2.061 . S
Co159 O165 2.052 . S
Co159 O167 2.135 . S
O160 Co159 2.061 . S
O160 C163 1.235 . S
C161 O164 1.238 . S
C161 O165 1.241 . S
C162 O155 1.247 . S
C162 O156 1.261 . S
C163 O158 1.259 . S
C163 O160 1.235 . S
O164 Co154 2.021 . S
O164 C161 1.238 . S
O165 Co159 2.052 . S
O165 C161 1.241 . S
O166 Co154 2.137 . S
O166 C157 1.247 . S
O167 Co154 2.244 . S
O167 C157 1.272 . S
O167 Co159 2.135 . S
Co168 O169 2.216 . S
Co168 O170 2.091 . S
Co168 O172 2.004 . S
Co168 O178 2.021 . S
Co168 O180 2.137 . S
Co168 O181 2.244 . S
O169 Co168 2.216 . S
O169 C176 1.247 . S
O170 Co168 2.091 . S
O170 C176 1.261 . S
C171 O180 1.247 . S
C171 O181 1.272 . S
O172 Co168 2.004 . S
O172 C177 1.259 . S
Co173 O174 2.061 . S
Co173 O179 2.052 . S
Co173 O181 2.135 . S
O174 Co173 2.061 . S
O174 C177 1.235 . S
C175 O178 1.238 . S
C175 O179 1.241 . S
C176 O169 1.247 . S
C176 O170 1.261 . S
C177 O172 1.259 . S
C177 O174 1.235 . S
O178 Co168 2.021 . S
O178 C175 1.238 . S
O179 Co173 2.052 . S
O179 C175 1.241 . S
O180 Co168 2.137 . S
O180 C171 1.247 . S
O181 Co168 2.244 . S
O181 C171 1.272 . S
O181 Co173 2.135 . S
Co182 O183 2.216 . S
Co182 O184 2.091 . S
Co182 O186 2.004 . S
Co182 O192 2.021 . S
Co182 O194 2.137 . S
Co182 O195 2.244 . S
O183 Co182 2.216 . S
O183 C190 1.247 . S
O184 Co182 2.091 . S
O184 C190 1.261 . S
C185 O194 1.247 . S
C185 O195 1.272 . S
O186 Co182 2.004 . S
O186 C191 1.259 . S
Co187 O188 2.061 . S
Co187 O193 2.052 . S
Co187 O195 2.135 . S
O188 Co187 2.061 . S
O188 C191 1.235 . S
C189 O192 1.238 . S
C189 O193 1.241 . S
C190 O183 1.247 . S
C190 O184 1.261 . S
C191 O186 1.259 . S
C191 O188 1.235 . S
O192 Co182 2.021 . S
O192 C189 1.238 . S
O193 Co187 2.052 . S
O193 C189 1.241 . S
O194 Co182 2.137 . S
O194 C185 1.247 . S
O195 Co182 2.244 . S
O195 C185 1.272 . S
O195 Co187 2.135 . S
Co196 O197 2.216 . S
Co196 O198 2.091 . S
Co196 O200 2.004 . S
Co196 O206 2.021 . S
Co196 O208 2.137 . S
Co196 O209 2.244 . S
O197 Co196 2.216 . S
O197 C204 1.247 . S
O198 Co196 2.091 . S
O198 C204 1.261 . S
C199 O208 1.247 . S
C199 O209 1.272 . S
O200 Co196 2.004 . S
O200 C205 1.259 . S
Co201 O202 2.061 . S
Co201 O207 2.052 . S
Co201 O209 2.135 . S
O202 Co201 2.061 . S
O202 C205 1.235 . S
C203 O206 1.238 . S
C203 O207 1.241 . S
C204 O197 1.247 . S
C204 O198 1.261 . S
C205 O200 1.259 . S
C205 O202 1.235 . S
O206 Co196 2.021 . S
O206 C203 1.238 . S
O207 Co201 2.052 . S
O207 C203 1.241 . S
O208 Co196 2.137 . S
O208 C199 1.247 . S
O209 Co196 2.244 . S
O209 C199 1.272 . S
O209 Co201 2.135 . S
Co210 O211 2.216 . S
Co210 O212 2.091 . S
Co210 O214 2.004 . S
Co210 O220 2.021 . S
Co210 O222 2.137 . S
Co210 O223 2.244 . S
O211 Co210 2.216 . S
O211 C218 1.247 . S
O212 Co210 2.091 . S
O212 C218 1.261 . S
C213 O222 1.247 . S
C213 O223 1.272 . S
O214 Co210 2.004 . S
O214 C219 1.259 . S
Co215 O216 2.061 . S
Co215 O221 2.052 . S
Co215 O223 2.135 . S
O216 Co215 2.061 . S
O216 C219 1.235 . S
C217 O220 1.238 . S
C217 O221 1.241 . S
C218 O211 1.247 . S
C218 O212 1.261 . S
C219 O214 1.259 . S
C219 O216 1.235 . S
O220 Co210 2.021 . S
O220 C217 1.238 . S
O221 Co215 2.052 . S
O221 C217 1.241 . S
O222 Co210 2.137 . S
O222 C213 1.247 . S
O223 Co210 2.244 . S
O223 C213 1.272 . S
O223 Co215 2.135 . S
Co224 O225 2.216 . S
Co224 O226 2.091 . S
Co224 O228 2.004 . S
Co224 O234 2.021 . S
Co224 O236 2.137 . S
Co224 O237 2.244 . S
O225 Co224 2.216 . S
O225 C232 1.247 . S
O226 Co224 2.091 . S
O226 C232 1.261 . S
C227 O236 1.247 . S
C227 O237 1.272 . S
O228 Co224 2.004 . S
O228 C233 1.259 . S
Co229 O230 2.061 . S
Co229 O235 2.052 . S
Co229 O237 2.135 . S
O230 Co229 2.061 . S
O230 C233 1.235 . S
C231 O234 1.238 . S
C231 O235 1.241 . S
C232 O225 1.247 . S
C232 O226 1.261 . S
C233 O228 1.259 . S
C233 O230 1.235 . S
O234 Co224 2.021 . S
O234 C231 1.238 . S
O235 Co229 2.052 . S
O235 C231 1.241 . S
O236 Co224 2.137 . S
O236 C227 1.247 . S
O237 Co224 2.244 . S
O237 C227 1.272 . S
O237 Co229 2.135 . S
Co238 O239 2.216 . S
Co238 O240 2.091 . S
Co238 O242 2.004 . S
Co238 O248 2.021 . S
Co238 O250 2.137 . S
Co238 O251 2.244 . S
O239 Co238 2.216 . S
O239 C246 1.247 . S
O240 Co238 2.091 . S
O240 C246 1.261 . S
C241 O250 1.247 . S
C241 O251 1.272 . S
O242 Co238 2.004 . S
O242 C247 1.259 . S
Co243 O244 2.061 . S
Co243 O249 2.052 . S
Co243 O251 2.135 . S
O244 Co243 2.061 . S
O244 C247 1.235 . S
C245 O248 1.238 . S
C245 O249 1.241 . S
C246 O239 1.247 . S
C246 O240 1.261 . S
C247 O242 1.259 . S
C247 O244 1.235 . S
O248 Co238 2.021 . S
O248 C245 1.238 . S
O249 Co243 2.052 . S
O249 C245 1.241 . S
O250 Co238 2.137 . S
O250 C241 1.247 . S
O251 Co238 2.244 . S
O251 C241 1.272 . S
O251 Co243 2.135 . S
Co252 O253 2.216 . S
Co252 O254 2.091 . S
Co252 O256 2.004 . S
Co252 O262 2.021 . S
Co252 O264 2.137 . S
Co252 O265 2.244 . S
O253 Co252 2.216 . S
O253 C260 1.247 . S
O254 Co252 2.091 . S
O254 C260 1.261 . S
C255 O264 1.247 . S
C255 O265 1.272 . S
O256 Co252 2.004 . S
O256 C261 1.259 . S
Co257 O258 2.061 . S
Co257 O263 2.052 . S
Co257 O265 2.135 . S
O258 Co257 2.061 . S
O258 C261 1.235 . S
C259 O262 1.238 . S
C259 O263 1.241 . S
C260 O253 1.247 . S
C260 O254 1.261 . S
C261 O256 1.259 . S
C261 O258 1.235 . S
O262 Co252 2.021 . S
O262 C259 1.238 . S
O263 Co257 2.052 . S
O263 C259 1.241 . S
O264 Co252 2.137 . S
O264 C255 1.247 . S
O265 Co252 2.244 . S
O265 C255 1.272 . S
O265 Co257 2.135 . S
Co266 O267 2.216 . S
Co266 O268 2.091 . S
Co266 O270 2.004 . S
Co266 O276 2.021 . S
Co266 O278 2.137 . S
Co266 O279 2.244 . S
O267 Co266 2.216 . S
O267 C274 1.247 . S
O268 Co266 2.091 . S
O268 C274 1.261 . S
C269 O278 1.247 . S
C269 O279 1.272 . S
O270 Co266 2.004 . S
O270 C275 1.259 . S
Co271 O272 2.061 . S
Co271 O277 2.052 . S
Co271 O279 2.135 . S
O272 Co271 2.061 . S
O272 C275 1.235 . S
C273 O276 1.238 . S
C273 O277 1.241 . S
C274 O267 1.247 . S
C274 O268 1.261 . S
C275 O270 1.259 . S
C275 O272 1.235 . S
O276 Co266 2.021 . S
O276 C273 1.238 . S
O277 Co271 2.052 . S
O277 C273 1.241 . S
O278 Co266 2.137 . S
O278 C269 1.247 . S
O279 Co266 2.244 . S
O279 C269 1.272 . S
O279 Co271 2.135 . S
Co280 O281 2.216 . S
Co280 O282 2.091 . S
Co280 O284 2.004 . S
Co280 O290 2.021 . S
Co280 O292 2.137 . S
Co280 O293 2.244 . S
O281 Co280 2.216 . S
O281 C288 1.247 . S
O282 Co280 2.091 . S
O282 C288 1.261 . S
C283 O292 1.247 . S
C283 O293 1.272 . S
O284 Co280 2.004 . S
O284 C289 1.259 . S
Co285 O286 2.061 . S
Co285 O291 2.052 . S
Co285 O293 2.135 . S
O286 Co285 2.061 . S
O286 C289 1.235 . S
C287 O290 1.238 . S
C287 O291 1.241 . S
C288 O281 1.247 . S
C288 O282 1.261 . S
C289 O284 1.259 . S
C289 O286 1.235 . S
O290 Co280 2.021 . S
O290 C287 1.238 . S
O291 Co285 2.052 . S
O291 C287 1.241 . S
O292 Co280 2.137 . S
O292 C283 1.247 . S
O293 Co280 2.244 . S
O293 C283 1.272 . S
O293 Co285 2.135 . S
Co294 O295 2.216 . S
Co294 O296 2.091 . S
Co294 O298 2.004 . S
Co294 O304 2.021 . S
Co294 O306 2.137 . S
Co294 O307 2.244 . S
O295 Co294 2.216 . S
O295 C302 1.247 . S
O296 Co294 2.091 . S
O296 C302 1.261 . S
C297 O306 1.247 . S
C297 O307 1.272 . S
O298 Co294 2.004 . S
O298 C303 1.259 . S
Co299 O300 2.061 . S
Co299 O305 2.052 . S
Co299 O307 2.135 . S
O300 Co299 2.061 . S
O300 C303 1.235 . S
C301 O304 1.238 . S
C301 O305 1.241 . S
C302 O295 1.247 . S
C302 O296 1.261 . S
C303 O298 1.259 . S
C303 O300 1.235 . S
O304 Co294 2.021 . S
O304 C301 1.238 . S
O305 Co299 2.052 . S
O305 C301 1.241 . S
O306 Co294 2.137 . S
O306 C297 1.247 . S
O307 Co294 2.244 . S
O307 C297 1.272 . S
O307 Co299 2.135 . S
Co308 O309 2.216 . S
Co308 O310 2.091 . S
Co308 O312 2.004 . S
Co308 O318 2.021 . S
Co308 O320 2.137 . S
Co308 O321 2.244 . S
O309 Co308 2.216 . S
O309 C316 1.247 . S
O310 Co308 2.091 . S
O310 C316 1.261 . S
C311 O320 1.247 . S
C311 O321 1.272 . S
O312 Co308 2.004 . S
O312 C317 1.259 . S
Co313 O314 2.061 . S
Co313 O319 2.052 . S
Co313 O321 2.135 . S
O314 Co313 2.061 . S
O314 C317 1.235 . S
C315 O318 1.238 . S
C315 O319 1.241 . S
C316 O309 1.247 . S
C316 O310 1.261 . S
C317 O312 1.259 . S
C317 O314 1.235 . S
O318 Co308 2.021 . S
O318 C315 1.238 . S
O319 Co313 2.052 . S
O319 C315 1.241 . S
O320 Co308 2.137 . S
O320 C311 1.247 . S
O321 Co308 2.244 . S
O321 C311 1.272 . S
O321 Co313 2.135 . S
Co322 O323 2.216 . S
Co322 O324 2.091 . S
Co322 O326 2.004 . S
Co322 O332 2.021 . S
Co322 O334 2.137 . S
Co322 O335 2.244 . S
O323 Co322 2.216 . S
O323 C330 1.247 . S
O324 Co322 2.091 . S
O324 C330 1.261 . S
C325 O334 1.247 . S
C325 O335 1.272 . S
O326 Co322 2.004 . S
O326 C331 1.259 . S
Co327 O328 2.061 . S
Co327 O333 2.052 . S
Co327 O335 2.135 . S
O328 Co327 2.061 . S
O328 C331 1.235 . S
C329 O332 1.238 . S
C329 O333 1.241 . S
C330 O323 1.247 . S
C330 O324 1.261 . S
C331 O326 1.259 . S
C331 O328 1.235 . S
O332 Co322 2.021 . S
O332 C329 1.238 . S
O333 Co327 2.052 . S
O333 C329 1.241 . S
O334 Co322 2.137 . S
O334 C325 1.247 . S
O335 Co322 2.244 . S
O335 C325 1.272 . S
O335 Co327 2.135 . S
Co336 O337 2.216 . S
Co336 O338 2.091 . S
Co336 O340 2.004 . S
Co336 O346 2.021 . S
Co336 O348 2.137 . S
Co336 O349 2.244 . S
O337 Co336 2.216 . S
O337 C344 1.247 . S
O338 Co336 2.091 . S
O338 C344 1.261 . S
C339 O348 1.247 . S
C339 O349 1.272 . S
O340 Co336 2.004 . S
O340 C345 1.259 . S
Co341 O342 2.061 . S
Co341 O347 2.052 . S
Co341 O349 2.135 . S
O342 Co341 2.061 . S
O342 C345 1.235 . S
C343 O346 1.238 . S
C343 O347 1.241 . S
C344 O337 1.247 . S
C344 O338 1.261 . S
C345 O340 1.259 . S
C345 O342 1.235 . S
O346 Co336 2.021 . S
O346 C343 1.238 . S
O347 Co341 2.052 . S
O347 C343 1.241 . S
O348 Co336 2.137 . S
O348 C339 1.247 . S
O349 Co336 2.244 . S
O349 C339 1.272 . S
O349 Co341 2.135 . S
Co350 O351 2.216 . S
Co350 O352 2.091 . S
Co350 O354 2.004 . S
Co350 O360 2.021 . S
Co350 O362 2.137 . S
Co350 O363 2.244 . S
O351 Co350 2.216 . S
O351 C358 1.247 . S
O352 Co350 2.091 . S
O352 C358 1.261 . S
C353 O362 1.247 . S
C353 O363 1.272 . S
O354 Co350 2.004 . S
O354 C359 1.259 . S
Co355 O356 2.061 . S
Co355 O361 2.052 . S
Co355 O363 2.135 . S
O356 Co355 2.061 . S
O356 C359 1.235 . S
C357 O360 1.238 . S
C357 O361 1.241 . S
C358 O351 1.247 . S
C358 O352 1.261 . S
C359 O354 1.259 . S
C359 O356 1.235 . S
O360 Co350 2.021 . S
O360 C357 1.238 . S
O361 Co355 2.052 . S
O361 C357 1.241 . S
O362 Co350 2.137 . S
O362 C353 1.247 . S
O363 Co350 2.244 . S
O363 C353 1.272 . S
O363 Co355 2.135 . S
Co364 O365 2.216 . S
Co364 O366 2.091 . S
Co364 O368 2.004 . S
Co364 O374 2.021 . S
Co364 O376 2.137 . S
Co364 O377 2.244 . S
O365 Co364 2.216 . S
O365 C372 1.247 . S
O366 Co364 2.091 . S
O366 C372 1.261 . S
C367 O376 1.247 . S
C367 O377 1.272 . S
O368 Co364 2.004 . S
O368 C373 1.259 . S
Co369 O370 2.061 . S
Co369 O375 2.052 . S
Co369 O377 2.135 . S
O370 Co369 2.061 . S
O370 C373 1.235 . S
C371 O374 1.238 . S
C371 O375 1.241 . S
C372 O365 1.247 . S
C372 O366 1.261 . S
C373 O368 1.259 . S
C373 O370 1.235 . S
O374 Co364 2.021 . S
O374 C371 1.238 . S
O375 Co369 2.052 . S
O375 C371 1.241 . S
O376 Co364 2.137 . S
O376 C367 1.247 . S
O377 Co364 2.244 . S
O377 C367 1.272 . S
O377 Co369 2.135 . S
Co378 O379 2.216 . S
Co378 O380 2.091 . S
Co378 O382 2.004 . S
Co378 O388 2.021 . S
Co378 O390 2.137 . S
Co378 O391 2.244 . S
O379 Co378 2.216 . S
O379 C386 1.247 . S
O380 Co378 2.091 . S
O380 C386 1.261 . S
C381 O390 1.247 . S
C381 O391 1.272 . S
O382 Co378 2.004 . S
O382 C387 1.259 . S
Co383 O384 2.061 . S
Co383 O389 2.052 . S
Co383 O391 2.135 . S
O384 Co383 2.061 . S
O384 C387 1.235 . S
C385 O388 1.238 . S
C385 O389 1.241 . S
C386 O379 1.247 . S
C386 O380 1.261 . S
C387 O382 1.259 . S
C387 O384 1.235 . S
O388 Co378 2.021 . S
O388 C385 1.238 . S
O389 Co383 2.052 . S
O389 C385 1.241 . S
O390 Co378 2.137 . S
O390 C381 1.247 . S
O391 Co378 2.244 . S
O391 C381 1.272 . S
O391 Co383 2.135 . S
Co392 O393 2.216 . S
Co392 O394 2.091 . S
Co392 O396 2.004 . S
Co392 O402 2.021 . S
Co392 O404 2.137 . S
Co392 O405 2.244 . S
O393 Co392 2.216 . S
O393 C400 1.247 . S
O394 Co392 2.091 . S
O394 C400 1.261 . S
C395 O404 1.247 . S
C395 O405 1.272 . S
O396 Co392 2.004 . S
O396 C401 1.259 . S
Co397 O398 2.061 . S
Co397 O403 2.052 . S
Co397 O405 2.135 . S
O398 Co397 2.061 . S
O398 C401 1.235 . S
C399 O402 1.238 . S
C399 O403 1.241 . S
C400 O393 1.247 . S
C400 O394 1.261 . S
C401 O396 1.259 . S
C401 O398 1.235 . S
O402 Co392 2.021 . S
O402 C399 1.238 . S
O403 Co397 2.052 . S
O403 C399 1.241 . S
O404 Co392 2.137 . S
O404 C395 1.247 . S
O405 Co392 2.244 . S
O405 C395 1.272 . S
O405 Co397 2.135 . S
Co406 O407 2.216 . S
Co406 O408 2.091 . S
Co406 O410 2.004 . S
Co406 O416 2.021 . S
Co406 O418 2.137 . S
Co406 O419 2.244 . S
O407 Co406 2.216 . S
O407 C414 1.247 . S
O408 Co406 2.091 . S
O408 C414 1.261 . S
C409 O418 1.247 . S
C409 O419 1.272 . S
O410 Co406 2.004 . S
O410 C415 1.259 . S
Co411 O412 2.061 . S
Co411 O417 2.052 . S
Co411 O419 2.135 . S
O412 Co411 2.061 . S
O412 C415 1.235 . S
C413 O416 1.238 . S
C413 O417 1.241 . S
C414 O407 1.247 . S
C414 O408 1.261 . S
C415 O410 1.259 . S
C415 O412 1.235 . S
O416 Co406 2.021 . S
O416 C413 1.238 . S
O417 Co411 2.052 . S
O417 C413 1.241 . S
O418 Co406 2.137 . S
O418 C409 1.247 . S
O419 Co406 2.244 . S
O419 C409 1.272 . S
O419 Co411 2.135 . S
Co420 O421 2.216 . S
Co420 O422 2.091 . S
Co420 O424 2.004 . S
Co420 O430 2.021 . S
Co420 O432 2.137 . S
Co420 O433 2.244 . S
O421 Co420 2.216 . S
O421 C428 1.247 . S
O422 Co420 2.091 . S
O422 C428 1.261 . S
C423 O432 1.247 . S
C423 O433 1.272 . S
O424 Co420 2.004 . S
O424 C429 1.259 . S
Co425 O426 2.061 . S
Co425 O431 2.052 . S
Co425 O433 2.135 . S
O426 Co425 2.061 . S
O426 C429 1.235 . S
C427 O430 1.238 . S
C427 O431 1.241 . S
C428 O421 1.247 . S
C428 O422 1.261 . S
C429 O424 1.259 . S
C429 O426 1.235 . S
O430 Co420 2.021 . S
O430 C427 1.238 . S
O431 Co425 2.052 . S
O431 C427 1.241 . S
O432 Co420 2.137 . S
O432 C423 1.247 . S
O433 Co420 2.244 . S
O433 C423 1.272 . S
O433 Co425 2.135 . S
Co434 O435 2.216 . S
Co434 O436 2.091 . S
Co434 O438 2.004 . S
Co434 O444 2.021 . S
Co434 O446 2.137 . S
Co434 O447 2.244 . S
O435 Co434 2.216 . S
O435 C442 1.247 . S
O436 Co434 2.091 . S
O436 C442 1.261 . S
C437 O446 1.247 . S
C437 O447 1.272 . S
O438 Co434 2.004 . S
O438 C443 1.259 . S
Co439 O440 2.061 . S
Co439 O445 2.052 . S
Co439 O447 2.135 . S
O440 Co439 2.061 . S
O440 C443 1.235 . S
C441 O444 1.238 . S
C441 O445 1.241 . S
C442 O435 1.247 . S
C442 O436 1.261 . S
C443 O438 1.259 . S
C443 O440 1.235 . S
O444 Co434 2.021 . S
O444 C441 1.238 . S
O445 Co439 2.052 . S
O445 C441 1.241 . S
O446 Co434 2.137 . S
O446 C437 1.247 . S
O447 Co434 2.244 . S
O447 C437 1.272 . S
O447 Co439 2.135 . S
Co448 O449 2.216 . S
Co448 O450 2.091 . S
Co448 O452 2.004 . S
Co448 O458 2.021 . S
Co448 O460 2.137 . S
Co448 O461 2.244 . S
O449 Co448 2.216 . S
O449 C456 1.247 . S
O450 Co448 2.091 . S
O450 C456 1.261 . S
C451 O460 1.247 . S
C451 O461 1.272 . S
O452 Co448 2.004 . S
O452 C457 1.259 . S
Co453 O454 2.061 . S
Co453 O459 2.052 . S
Co453 O461 2.135 . S
O454 Co453 2.061 . S
O454 C457 1.235 . S
C455 O458 1.238 . S
C455 O459 1.241 . S
C456 O449 1.247 . S
C456 O450 1.261 . S
C457 O452 1.259 . S
C457 O454 1.235 . S
O458 Co448 2.021 . S
O458 C455 1.238 . S
O459 Co453 2.052 . S
O459 C455 1.241 . S
O460 Co448 2.137 . S
O460 C451 1.247 . S
O461 Co448 2.244 . S
O461 C451 1.272 . S
O461 Co453 2.135 . S
Co462 O463 2.216 . S
Co462 O464 2.091 . S
Co462 O466 2.004 . S
Co462 O472 2.021 . S
Co462 O474 2.137 . S
Co462 O475 2.244 . S
O463 Co462 2.216 . S
O463 C470 1.247 . S
O464 Co462 2.091 . S
O464 C470 1.261 . S
C465 O474 1.247 . S
C465 O475 1.272 . S
O466 Co462 2.004 . S
O466 C471 1.259 . S
Co467 O468 2.061 . S
Co467 O473 2.052 . S
Co467 O475 2.135 . S
O468 Co467 2.061 . S
O468 C471 1.235 . S
C469 O472 1.238 . S
C469 O473 1.241 . S
C470 O463 1.247 . S
C470 O464 1.261 . S
C471 O466 1.259 . S
C471 O468 1.235 . S
O472 Co462 2.021 . S
O472 C469 1.238 . S
O473 Co467 2.052 . S
O473 C469 1.241 . S
O474 Co462 2.137 . S
O474 C465 1.247 . S
O475 Co462 2.244 . S
O475 C465 1.272 . S
O475 Co467 2.135 . S
Co476 O477 2.216 . S
Co476 O478 2.091 . S
Co476 O480 2.004 . S
Co476 O486 2.021 . S
Co476 O488 2.137 . S
Co476 O489 2.244 . S
O477 Co476 2.216 . S
O477 C484 1.247 . S
O478 Co476 2.091 . S
O478 C484 1.261 . S
C479 O488 1.247 . S
C479 O489 1.272 . S
O480 Co476 2.004 . S
O480 C485 1.259 . S
Co481 O482 2.061 . S
Co481 O487 2.052 . S
Co481 O489 2.135 . S
O482 Co481 2.061 . S
O482 C485 1.235 . S
C483 O486 1.238 . S
C483 O487 1.241 . S
C484 O477 1.247 . S
C484 O478 1.261 . S
C485 O480 1.259 . S
C485 O482 1.235 . S
O486 Co476 2.021 . S
O486 C483 1.238 . S
O487 Co481 2.052 . S
O487 C483 1.241 . S
O488 Co476 2.137 . S
O488 C479 1.247 . S
O489 Co476 2.244 . S
O489 C479 1.272 . S
O489 Co481 2.135 . S
Co490 O491 2.216 . S
Co490 O492 2.091 . S
Co490 O494 2.004 . S
Co490 O500 2.021 . S
Co490 O502 2.137 . S
Co490 O503 2.244 . S
O491 Co490 2.216 . S
O491 C498 1.247 . S
O492 Co490 2.091 . S
O492 C498 1.261 . S
C493 O502 1.247 . S
C493 O503 1.272 . S
O494 Co490 2.004 . S
O494 C499 1.259 . S
Co495 O496 2.061 . S
Co495 O501 2.052 . S
Co495 O503 2.135 . S
O496 Co495 2.061 . S
O496 C499 1.235 . S
C497 O500 1.238 . S
C497 O501 1.241 . S
C498 O491 1.247 . S
C498 O492 1.261 . S
C499 O494 1.259 . S
C499 O496 1.235 . S
O500 Co490 2.021 . S
O500 C497 1.238 . S
O501 Co495 2.052 . S
O501 C497 1.241 . S
O502 Co490 2.137 . S
O502 C493 1.247 . S
O503 Co490 2.244 . S
O503 C493 1.272 . S
O503 Co495 2.135 . S
H504 C522 0.951 . S
H505 C524 0.951 . S
H506 C526 0.950 . S
H507 C527 0.950 . S
H508 C529 0.950 . S
H509 C532 0.950 . S
H510 C533 0.950 . S
H511 C535 0.950 . S
H512 C536 0.950 . S
H513 C537 0.951 . S
H514 C539 0.951 . S
H515 C541 0.950 . S
H516 C542 0.950 . S
H517 C544 0.950 . S
H518 C547 0.950 . S
H519 C548 0.950 . S
H520 C550 0.950 . S
H521 C551 0.950 . S
C522 H504 0.951 . S
C522 C523 1.366 . S
C522 C524 1.388 . S
C523 C522 1.366 . S
C523 C527 1.385 . S
C524 H505 0.951 . S
C524 C522 1.388 . S
C524 C525 1.366 . S
C525 C524 1.366 . S
C525 C526 1.414 . S
C525 C528 1.499 . S
C526 H506 0.950 . S
C526 C525 1.414 . S
C526 C527 1.374 . S
C527 H507 0.950 . S
C527 C523 1.385 . S
C527 C526 1.374 . S
C528 C525 1.499 . S
C528 C529 1.373 . S
C528 C530 1.389 . S
C529 H508 0.950 . S
C529 C528 1.373 . S
C529 C545 1.377 . S
C530 C528 1.389 . S
C530 C531 1.524 . S
C530 C544 1.377 . S
C531 C530 1.524 . S
C531 C532 1.397 . S
C531 C536 1.363 . S
C532 H509 0.950 . S
C532 C531 1.397 . S
C532 C533 1.334 . S
C533 H510 0.950 . S
C533 C532 1.334 . S
C533 C534 1.287 . S
C534 C533 1.287 . S
C534 C535 1.524 . S
C534 H553 0.913 . S
C535 H511 0.950 . S
C535 C534 1.524 . S
C535 C536 1.415 . S
C536 H512 0.950 . S
C536 C531 1.363 . S
C536 C535 1.415 . S
C537 H513 0.951 . S
C537 C538 1.366 . S
C537 C539 1.388 . S
C538 C537 1.366 . S
C538 C542 1.385 . S
C539 H514 0.951 . S
C539 C537 1.388 . S
C539 C540 1.366 . S
C540 C539 1.366 . S
C540 C541 1.414 . S
C540 C543 1.499 . S
C541 H515 0.950 . S
C541 C540 1.414 . S
C541 C542 1.374 . S
C542 H516 0.950 . S
C542 C538 1.385 . S
C542 C541 1.374 . S
C543 C540 1.499 . S
C543 C544 1.373 . S
C543 C545 1.389 . S
C544 H517 0.950 . S
C544 C530 1.377 . S
C544 C543 1.373 . S
C545 C529 1.377 . S
C545 C543 1.389 . S
C545 C546 1.524 . S
C546 C545 1.524 . S
C546 C547 1.397 . S
C546 C551 1.363 . S
C547 H518 0.950 . S
C547 C546 1.397 . S
C547 C548 1.334 . S
C548 H519 0.950 . S
C548 C547 1.334 . S
C548 C549 1.287 . S
C549 C548 1.287 . S
C549 C550 1.524 . S
C549 H552 0.999 . S
C550 H520 0.950 . S
C550 C549 1.524 . S
C550 C551 1.415 . S
C551 H521 0.950 . S
C551 C546 1.363 . S
C551 C550 1.415 . S
H552 C549 0.999 . S
H553 C534 0.913 . S
H554 C572 0.951 . S
H555 C574 0.951 . S
H556 C576 0.950 . S
H557 C577 0.950 . S
H558 C579 0.950 . S
H559 C582 0.950 . S
H560 C583 0.950 . S
H561 C585 0.950 . S
H562 C586 0.950 . S
H563 C587 0.951 . S
H564 C589 0.951 . S
H565 C591 0.950 . S
H566 C592 0.950 . S
H567 C594 0.950 . S
H568 C597 0.950 . S
H569 C598 0.950 . S
H570 C600 0.950 . S
H571 C601 0.950 . S
C572 H554 0.951 . S
C572 C573 1.366 . S
C572 C574 1.388 . S
C573 C572 1.366 . S
C573 C577 1.385 . S
C574 H555 0.951 . S
C574 C572 1.388 . S
C574 C575 1.366 . S
C575 C574 1.366 . S
C575 C576 1.414 . S
C575 C578 1.499 . S
C576 H556 0.950 . S
C576 C575 1.414 . S
C576 C577 1.374 . S
C577 H557 0.950 . S
C577 C573 1.385 . S
C577 C576 1.374 . S
C578 C575 1.499 . S
C578 C579 1.373 . S
C578 C580 1.389 . S
C579 H558 0.950 . S
C579 C578 1.373 . S
C579 C595 1.377 . S
C580 C578 1.389 . S
C580 C581 1.524 . S
C580 C594 1.377 . S
C581 C580 1.524 . S
C581 C582 1.397 . S
C581 C586 1.363 . S
C582 H559 0.950 . S
C582 C581 1.397 . S
C582 C583 1.334 . S
C583 H560 0.950 . S
C583 C582 1.334 . S
C583 C584 1.287 . S
C584 C583 1.287 . S
C584 C585 1.524 . S
C584 H603 0.913 . S
C585 H561 0.950 . S
C585 C584 1.524 . S
C585 C586 1.415 . S
C586 H562 0.950 . S
C586 C581 1.363 . S
C586 C585 1.415 . S
C587 H563 0.951 . S
C587 C588 1.366 . S
C587 C589 1.388 . S
C588 C587 1.366 . S
C588 C592 1.385 . S
C589 H564 0.951 . S
C589 C587 1.388 . S
C589 C590 1.366 . S
C590 C589 1.366 . S
C590 C591 1.414 . S
C590 C593 1.499 . S
C591 H565 0.950 . S
C591 C590 1.414 . S
C591 C592 1.374 . S
C592 H566 0.950 . S
C592 C588 1.385 . S
C592 C591 1.374 . S
C593 C590 1.499 . S
C593 C594 1.373 . S
C593 C595 1.389 . S
C594 H567 0.950 . S
C594 C580 1.377 . S
C594 C593 1.373 . S
C595 C579 1.377 . S
C595 C593 1.389 . S
C595 C596 1.524 . S
C596 C595 1.524 . S
C596 C597 1.397 . S
C596 C601 1.363 . S
C597 H568 0.950 . S
C597 C596 1.397 . S
C597 C598 1.334 . S
C598 H569 0.950 . S
C598 C597 1.334 . S
C598 C599 1.287 . S
C599 C598 1.287 . S
C599 C600 1.524 . S
C599 H602 0.999 . S
C600 H570 0.950 . S
C600 C599 1.524 . S
C600 C601 1.415 . S
C601 H571 0.950 . S
C601 C596 1.363 . S
C601 C600 1.415 . S
H602 C599 0.999 . S
H603 C584 0.913 . S
H604 C622 0.951 . S
H605 C624 0.951 . S
H606 C626 0.950 . S
H607 C627 0.950 . S
H608 C629 0.950 . S
H609 C632 0.950 . S
H610 C633 0.950 . S
H611 C635 0.950 . S
H612 C636 0.950 . S
H613 C637 0.951 . S
H614 C639 0.951 . S
H615 C641 0.950 . S
H616 C642 0.950 . S
H617 C644 0.950 . S
H618 C647 0.950 . S
H619 C648 0.950 . S
H620 C650 0.950 . S
H621 C651 0.950 . S
C622 H604 0.951 . S
C622 C623 1.366 . S
C622 C624 1.388 . S
C623 C622 1.366 . S
C623 C627 1.385 . S
C624 H605 0.951 . S
C624 C622 1.388 . S
C624 C625 1.366 . S
C625 C624 1.366 . S
C625 C626 1.414 . S
C625 C628 1.499 . S
C626 H606 0.950 . S
C626 C625 1.414 . S
C626 C627 1.374 . S
C627 H607 0.950 . S
C627 C623 1.385 . S
C627 C626 1.374 . S
C628 C625 1.499 . S
C628 C629 1.373 . S
C628 C630 1.389 . S
C629 H608 0.950 . S
C629 C628 1.373 . S
C629 C645 1.377 . S
C630 C628 1.389 . S
C630 C631 1.524 . S
C630 C644 1.377 . S
C631 C630 1.524 . S
C631 C632 1.397 . S
C631 C636 1.363 . S
C632 H609 0.950 . S
C632 C631 1.397 . S
C632 C633 1.334 . S
C633 H610 0.950 . S
C633 C632 1.334 . S
C633 C634 1.287 . S
C634 C633 1.287 . S
C634 C635 1.524 . S
C634 H653 0.913 . S
C635 H611 0.950 . S
C635 C634 1.524 . S
C635 C636 1.415 . S
C636 H612 0.950 . S
C636 C631 1.363 . S
C636 C635 1.415 . S
C637 H613 0.951 . S
C637 C638 1.366 . S
C637 C639 1.388 . S
C638 C637 1.366 . S
C638 C642 1.385 . S
C639 H614 0.951 . S
C639 C637 1.388 . S
C639 C640 1.366 . S
C640 C639 1.366 . S
C640 C641 1.414 . S
C640 C643 1.499 . S
C641 H615 0.950 . S
C641 C640 1.414 . S
C641 C642 1.374 . S
C642 H616 0.950 . S
C642 C638 1.385 . S
C642 C641 1.374 . S
C643 C640 1.499 . S
C643 C644 1.373 . S
C643 C645 1.389 . S
C644 H617 0.950 . S
C644 C630 1.377 . S
C644 C643 1.373 . S
C645 C629 1.377 . S
C645 C643 1.389 . S
C645 C646 1.524 . S
C646 C645 1.524 . S
C646 C647 1.397 . S
C646 C651 1.363 . S
C647 H618 0.950 . S
C647 C646 1.397 . S
C647 C648 1.334 . S
C648 H619 0.950 . S
C648 C647 1.334 . S
C648 C649 1.287 . S
C649 C648 1.287 . S
C649 C650 1.524 . S
C649 H652 0.999 . S
C650 H620 0.950 . S
C650 C649 1.524 . S
C650 C651 1.415 . S
C651 H621 0.950 . S
C651 C646 1.363 . S
C651 C650 1.415 . S
H652 C649 0.999 . S
H653 C634 0.913 . S
H654 C672 0.951 . S
H655 C674 0.951 . S
H656 C676 0.950 . S
H657 C677 0.950 . S
H658 C679 0.950 . S
H659 C682 0.950 . S
H660 C683 0.950 . S
H661 C685 0.950 . S
H662 C686 0.950 . S
H663 C687 0.951 . S
H664 C689 0.951 . S
H665 C691 0.950 . S
H666 C692 0.950 . S
H667 C694 0.950 . S
H668 C697 0.950 . S
H669 C698 0.950 . S
H670 C700 0.950 . S
H671 C701 0.950 . S
C672 H654 0.951 . S
C672 C673 1.366 . S
C672 C674 1.388 . S
C673 C672 1.366 . S
C673 C677 1.385 . S
C674 H655 0.951 . S
C674 C672 1.388 . S
C674 C675 1.366 . S
C675 C674 1.366 . S
C675 C676 1.414 . S
C675 C678 1.499 . S
C676 H656 0.950 . S
C676 C675 1.414 . S
C676 C677 1.374 . S
C677 H657 0.950 . S
C677 C673 1.385 . S
C677 C676 1.374 . S
C678 C675 1.499 . S
C678 C679 1.373 . S
C678 C680 1.389 . S
C679 H658 0.950 . S
C679 C678 1.373 . S
C679 C695 1.377 . S
C680 C678 1.389 . S
C680 C681 1.524 . S
C680 C694 1.377 . S
C681 C680 1.524 . S
C681 C682 1.397 . S
C681 C686 1.363 . S
C682 H659 0.950 . S
C682 C681 1.397 . S
C682 C683 1.334 . S
C683 H660 0.950 . S
C683 C682 1.334 . S
C683 C684 1.287 . S
C684 C683 1.287 . S
C684 C685 1.524 . S
C684 H703 0.913 . S
C685 H661 0.950 . S
C685 C684 1.524 . S
C685 C686 1.415 . S
C686 H662 0.950 . S
C686 C681 1.363 . S
C686 C685 1.415 . S
C687 H663 0.951 . S
C687 C688 1.366 . S
C687 C689 1.388 . S
C688 C687 1.366 . S
C688 C692 1.385 . S
C689 H664 0.951 . S
C689 C687 1.388 . S
C689 C690 1.366 . S
C690 C689 1.366 . S
C690 C691 1.414 . S
C690 C693 1.499 . S
C691 H665 0.950 . S
C691 C690 1.414 . S
C691 C692 1.374 . S
C692 H666 0.950 . S
C692 C688 1.385 . S
C692 C691 1.374 . S
C693 C690 1.499 . S
C693 C694 1.373 . S
C693 C695 1.389 . S
C694 H667 0.950 . S
C694 C680 1.377 . S
C694 C693 1.373 . S
C695 C679 1.377 . S
C695 C693 1.389 . S
C695 C696 1.524 . S
C696 C695 1.524 . S
C696 C697 1.397 . S
C696 C701 1.363 . S
C697 H668 0.950 . S
C697 C696 1.397 . S
C697 C698 1.334 . S
C698 H669 0.950 . S
C698 C697 1.334 . S
C698 C699 1.287 . S
C699 C698 1.287 . S
C699 C700 1.524 . S
C699 H702 0.999 . S
C700 H670 0.950 . S
C700 C699 1.524 . S
C700 C701 1.415 . S
C701 H671 0.950 . S
C701 C696 1.363 . S
C701 C700 1.415 . S
H702 C699 0.999 . S
H703 C684 0.913 . S
H704 C722 0.951 . S
H705 C724 0.951 . S
H706 C726 0.950 . S
H707 C727 0.950 . S
H708 C729 0.950 . S
H709 C732 0.950 . S
H710 C733 0.950 . S
H711 C735 0.950 . S
H712 C736 0.950 . S
H713 C737 0.951 . S
H714 C739 0.951 . S
H715 C741 0.950 . S
H716 C742 0.950 . S
H717 C744 0.950 . S
H718 C747 0.950 . S
H719 C748 0.950 . S
H720 C750 0.950 . S
H721 C751 0.950 . S
C722 H704 0.951 . S
C722 C723 1.366 . S
C722 C724 1.388 . S
C723 C722 1.366 . S
C723 C727 1.385 . S
C724 H705 0.951 . S
C724 C722 1.388 . S
C724 C725 1.366 . S
C725 C724 1.366 . S
C725 C726 1.414 . S
C725 C728 1.499 . S
C726 H706 0.950 . S
C726 C725 1.414 . S
C726 C727 1.374 . S
C727 H707 0.950 . S
C727 C723 1.385 . S
C727 C726 1.374 . S
C728 C725 1.499 . S
C728 C729 1.373 . S
C728 C730 1.389 . S
C729 H708 0.950 . S
C729 C728 1.373 . S
C729 C745 1.377 . S
C730 C728 1.389 . S
C730 C731 1.524 . S
C730 C744 1.377 . S
C731 C730 1.524 . S
C731 C732 1.397 . S
C731 C736 1.363 . S
C732 H709 0.950 . S
C732 C731 1.397 . S
C732 C733 1.334 . S
C733 H710 0.950 . S
C733 C732 1.334 . S
C733 C734 1.287 . S
C734 C733 1.287 . S
C734 C735 1.524 . S
C734 H753 0.913 . S
C735 H711 0.950 . S
C735 C734 1.524 . S
C735 C736 1.415 . S
C736 H712 0.950 . S
C736 C731 1.363 . S
C736 C735 1.415 . S
C737 H713 0.951 . S
C737 C738 1.366 . S
C737 C739 1.388 . S
C738 C737 1.366 . S
C738 C742 1.385 . S
C739 H714 0.951 . S
C739 C737 1.388 . S
C739 C740 1.366 . S
C740 C739 1.366 . S
C740 C741 1.414 . S
C740 C743 1.499 . S
C741 H715 0.950 . S
C741 C740 1.414 . S
C741 C742 1.374 . S
C742 H716 0.950 . S
C742 C738 1.385 . S
C742 C741 1.374 . S
C743 C740 1.499 . S
C743 C744 1.373 . S
C743 C745 1.389 . S
C744 H717 0.950 . S
C744 C730 1.377 . S
C744 C743 1.373 . S
C745 C729 1.377 . S
C745 C743 1.389 . S
C745 C746 1.524 . S
C746 C745 1.524 . S
C746 C747 1.397 . S
C746 C751 1.363 . S
C747 H718 0.950 . S
C747 C746 1.397 . S
C747 C748 1.334 . S
C748 H719 0.950 . S
C748 C747 1.334 . S
C748 C749 1.287 . S
C749 C748 1.287 . S
C749 C750 1.524 . S
C749 H752 0.999 . S
C750 H720 0.950 . S
C750 C749 1.524 . S
C750 C751 1.415 . S
C751 H721 0.950 . S
C751 C746 1.363 . S
C751 C750 1.415 . S
H752 C749 0.999 . S
H753 C734 0.913 . S
H754 C772 0.951 . S
H755 C774 0.951 . S
H756 C776 0.950 . S
H757 C777 0.950 . S
H758 C779 0.950 . S
H759 C782 0.950 . S
H760 C783 0.950 . S
H761 C785 0.950 . S
H762 C786 0.950 . S
H763 C787 0.951 . S
H764 C789 0.951 . S
H765 C791 0.950 . S
H766 C792 0.950 . S
H767 C794 0.950 . S
H768 C797 0.950 . S
H769 C798 0.950 . S
H770 C800 0.950 . S
H771 C801 0.950 . S
C772 H754 0.951 . S
C772 C773 1.366 . S
C772 C774 1.388 . S
C773 C772 1.366 . S
C773 C777 1.385 . S
C774 H755 0.951 . S
C774 C772 1.388 . S
C774 C775 1.366 . S
C775 C774 1.366 . S
C775 C776 1.414 . S
C775 C778 1.499 . S
C776 H756 0.950 . S
C776 C775 1.414 . S
C776 C777 1.374 . S
C777 H757 0.950 . S
C777 C773 1.385 . S
C777 C776 1.374 . S
C778 C775 1.499 . S
C778 C779 1.373 . S
C778 C780 1.389 . S
C779 H758 0.950 . S
C779 C778 1.373 . S
C779 C795 1.377 . S
C780 C778 1.389 . S
C780 C781 1.524 . S
C780 C794 1.377 . S
C781 C780 1.524 . S
C781 C782 1.397 . S
C781 C786 1.363 . S
C782 H759 0.950 . S
C782 C781 1.397 . S
C782 C783 1.334 . S
C783 H760 0.950 . S
C783 C782 1.334 . S
C783 C784 1.287 . S
C784 C783 1.287 . S
C784 C785 1.524 . S
C784 H803 0.913 . S
C785 H761 0.950 . S
C785 C784 1.524 . S
C785 C786 1.415 . S
C786 H762 0.950 . S
C786 C781 1.363 . S
C786 C785 1.415 . S
C787 H763 0.951 . S
C787 C788 1.366 . S
C787 C789 1.388 . S
C788 C787 1.366 . S
C788 C792 1.385 . S
C789 H764 0.951 . S
C789 C787 1.388 . S
C789 C790 1.366 . S
C790 C789 1.366 . S
C790 C791 1.414 . S
C790 C793 1.499 . S
C791 H765 0.950 . S
C791 C790 1.414 . S
C791 C792 1.374 . S
C792 H766 0.950 . S
C792 C788 1.385 . S
C792 C791 1.374 . S
C793 C790 1.499 . S
C793 C794 1.373 . S
C793 C795 1.389 . S
C794 H767 0.950 . S
C794 C780 1.377 . S
C794 C793 1.373 . S
C795 C779 1.377 . S
C795 C793 1.389 . S
C795 C796 1.524 . S
C796 C795 1.524 . S
C796 C797 1.397 . S
C796 C801 1.363 . S
C797 H768 0.950 . S
C797 C796 1.397 . S
C797 C798 1.334 . S
C798 H769 0.950 . S
C798 C797 1.334 . S
C798 C799 1.287 . S
C799 C798 1.287 . S
C799 C800 1.524 . S
C799 H802 0.999 . S
C800 H770 0.950 . S
C800 C799 1.524 . S
C800 C801 1.415 . S
C801 H771 0.950 . S
C801 C796 1.363 . S
C801 C800 1.415 . S
H802 C799 0.999 . S
H803 C784 0.913 . S
H804 C822 0.951 . S
H805 C824 0.951 . S
H806 C826 0.950 . S
H807 C827 0.950 . S
H808 C829 0.950 . S
H809 C832 0.950 . S
H810 C833 0.950 . S
H811 C835 0.950 . S
H812 C836 0.950 . S
H813 C837 0.951 . S
H814 C839 0.951 . S
H815 C841 0.950 . S
H816 C842 0.950 . S
H817 C844 0.950 . S
H818 C847 0.950 . S
H819 C848 0.950 . S
H820 C850 0.950 . S
H821 C851 0.950 . S
C822 H804 0.951 . S
C822 C823 1.366 . S
C822 C824 1.388 . S
C823 C822 1.366 . S
C823 C827 1.385 . S
C824 H805 0.951 . S
C824 C822 1.388 . S
C824 C825 1.366 . S
C825 C824 1.366 . S
C825 C826 1.414 . S
C825 C828 1.499 . S
C826 H806 0.950 . S
C826 C825 1.414 . S
C826 C827 1.374 . S
C827 H807 0.950 . S
C827 C823 1.385 . S
C827 C826 1.374 . S
C828 C825 1.499 . S
C828 C829 1.373 . S
C828 C830 1.389 . S
C829 H808 0.950 . S
C829 C828 1.373 . S
C829 C845 1.377 . S
C830 C828 1.389 . S
C830 C831 1.524 . S
C830 C844 1.377 . S
C831 C830 1.524 . S
C831 C832 1.397 . S
C831 C836 1.363 . S
C832 H809 0.950 . S
C832 C831 1.397 . S
C832 C833 1.334 . S
C833 H810 0.950 . S
C833 C832 1.334 . S
C833 C834 1.287 . S
C834 C833 1.287 . S
C834 C835 1.524 . S
C834 H853 0.913 . S
C835 H811 0.950 . S
C835 C834 1.524 . S
C835 C836 1.415 . S
C836 H812 0.950 . S
C836 C831 1.363 . S
C836 C835 1.415 . S
C837 H813 0.951 . S
C837 C838 1.366 . S
C837 C839 1.388 . S
C838 C837 1.366 . S
C838 C842 1.385 . S
C839 H814 0.951 . S
C839 C837 1.388 . S
C839 C840 1.366 . S
C840 C839 1.366 . S
C840 C841 1.414 . S
C840 C843 1.499 . S
C841 H815 0.950 . S
C841 C840 1.414 . S
C841 C842 1.374 . S
C842 H816 0.950 . S
C842 C838 1.385 . S
C842 C841 1.374 . S
C843 C840 1.499 . S
C843 C844 1.373 . S
C843 C845 1.389 . S
C844 H817 0.950 . S
C844 C830 1.377 . S
C844 C843 1.373 . S
C845 C829 1.377 . S
C845 C843 1.389 . S
C845 C846 1.524 . S
C846 C845 1.524 . S
C846 C847 1.397 . S
C846 C851 1.363 . S
C847 H818 0.950 . S
C847 C846 1.397 . S
C847 C848 1.334 . S
C848 H819 0.950 . S
C848 C847 1.334 . S
C848 C849 1.287 . S
C849 C848 1.287 . S
C849 C850 1.524 . S
C849 H852 0.999 . S
C850 H820 0.950 . S
C850 C849 1.524 . S
C850 C851 1.415 . S
C851 H821 0.950 . S
C851 C846 1.363 . S
C851 C850 1.415 . S
H852 C849 0.999 . S
H853 C834 0.913 . S
H854 C872 0.951 . S
H855 C874 0.951 . S
H856 C876 0.950 . S
H857 C877 0.950 . S
H858 C879 0.950 . S
H859 C882 0.950 . S
H860 C883 0.950 . S
H861 C885 0.950 . S
H862 C886 0.950 . S
H863 C887 0.951 . S
H864 C889 0.951 . S
H865 C891 0.950 . S
H866 C892 0.950 . S
H867 C894 0.950 . S
H868 C897 0.950 . S
H869 C898 0.950 . S
H870 C900 0.950 . S
H871 C901 0.950 . S
C872 H854 0.951 . S
C872 C873 1.366 . S
C872 C874 1.388 . S
C873 C872 1.366 . S
C873 C877 1.385 . S
C874 H855 0.951 . S
C874 C872 1.388 . S
C874 C875 1.366 . S
C875 C874 1.366 . S
C875 C876 1.414 . S
C875 C878 1.499 . S
C876 H856 0.950 . S
C876 C875 1.414 . S
C876 C877 1.374 . S
C877 H857 0.950 . S
C877 C873 1.385 . S
C877 C876 1.374 . S
C878 C875 1.499 . S
C878 C879 1.373 . S
C878 C880 1.389 . S
C879 H858 0.950 . S
C879 C878 1.373 . S
C879 C895 1.377 . S
C880 C878 1.389 . S
C880 C881 1.524 . S
C880 C894 1.377 . S
C881 C880 1.524 . S
C881 C882 1.397 . S
C881 C886 1.363 . S
C882 H859 0.950 . S
C882 C881 1.397 . S
C882 C883 1.334 . S
C883 H860 0.950 . S
C883 C882 1.334 . S
C883 C884 1.287 . S
C884 C883 1.287 . S
C884 C885 1.524 . S
C884 H903 0.913 . S
C885 H861 0.950 . S
C885 C884 1.524 . S
C885 C886 1.415 . S
C886 H862 0.950 . S
C886 C881 1.363 . S
C886 C885 1.415 . S
C887 H863 0.951 . S
C887 C888 1.366 . S
C887 C889 1.388 . S
C888 C887 1.366 . S
C888 C892 1.385 . S
C889 H864 0.951 . S
C889 C887 1.388 . S
C889 C890 1.366 . S
C890 C889 1.366 . S
C890 C891 1.414 . S
C890 C893 1.499 . S
C891 H865 0.950 . S
C891 C890 1.414 . S
C891 C892 1.374 . S
C892 H866 0.950 . S
C892 C888 1.385 . S
C892 C891 1.374 . S
C893 C890 1.499 . S
C893 C894 1.373 . S
C893 C895 1.389 . S
C894 H867 0.950 . S
C894 C880 1.377 . S
C894 C893 1.373 . S
C895 C879 1.377 . S
C895 C893 1.389 . S
C895 C896 1.524 . S
C896 C895 1.524 . S
C896 C897 1.397 . S
C896 C901 1.363 . S
C897 H868 0.950 . S
C897 C896 1.397 . S
C897 C898 1.334 . S
C898 H869 0.950 . S
C898 C897 1.334 . S
C898 C899 1.287 . S
C899 C898 1.287 . S
C899 C900 1.524 . S
C899 H902 0.999 . S
C900 H870 0.950 . S
C900 C899 1.524 . S
C900 C901 1.415 . S
C901 H871 0.950 . S
C901 C896 1.363 . S
C901 C900 1.415 . S
H902 C899 0.999 . S
H903 C884 0.913 . S
H904 C922 0.951 . S
H905 C924 0.951 . S
H906 C926 0.950 . S
H907 C927 0.950 . S
H908 C929 0.950 . S
H909 C932 0.950 . S
H910 C933 0.950 . S
H911 C935 0.950 . S
H912 C936 0.950 . S
H913 C937 0.951 . S
H914 C939 0.951 . S
H915 C941 0.950 . S
H916 C942 0.950 . S
H917 C944 0.950 . S
H918 C947 0.950 . S
H919 C948 0.950 . S
H920 C950 0.950 . S
H921 C951 0.950 . S
C922 H904 0.951 . S
C922 C923 1.366 . S
C922 C924 1.388 . S
C923 C922 1.366 . S
C923 C927 1.385 . S
C924 H905 0.951 . S
C924 C922 1.388 . S
C924 C925 1.366 . S
C925 C924 1.366 . S
C925 C926 1.414 . S
C925 C928 1.499 . S
C926 H906 0.950 . S
C926 C925 1.414 . S
C926 C927 1.374 . S
C927 H907 0.950 . S
C927 C923 1.385 . S
C927 C926 1.374 . S
C928 C925 1.499 . S
C928 C929 1.373 . S
C928 C930 1.389 . S
C929 H908 0.950 . S
C929 C928 1.373 . S
C929 C945 1.377 . S
C930 C928 1.389 . S
C930 C931 1.524 . S
C930 C944 1.377 . S
C931 C930 1.524 . S
C931 C932 1.397 . S
C931 C936 1.363 . S
C932 H909 0.950 . S
C932 C931 1.397 . S
C932 C933 1.334 . S
C933 H910 0.950 . S
C933 C932 1.334 . S
C933 C934 1.287 . S
C934 C933 1.287 . S
C934 C935 1.524 . S
C934 H953 0.913 . S
C935 H911 0.950 . S
C935 C934 1.524 . S
C935 C936 1.415 . S
C936 H912 0.950 . S
C936 C931 1.363 . S
C936 C935 1.415 . S
C937 H913 0.951 . S
C937 C938 1.366 . S
C937 C939 1.388 . S
C938 C937 1.366 . S
C938 C942 1.385 . S
C939 H914 0.951 . S
C939 C937 1.388 . S
C939 C940 1.366 . S
C940 C939 1.366 . S
C940 C941 1.414 . S
C940 C943 1.499 . S
C941 H915 0.950 . S
C941 C940 1.414 . S
C941 C942 1.374 . S
C942 H916 0.950 . S
C942 C938 1.385 . S
C942 C941 1.374 . S
C943 C940 1.499 . S
C943 C944 1.373 . S
C943 C945 1.389 . S
C944 H917 0.950 . S
C944 C930 1.377 . S
C944 C943 1.373 . S
C945 C929 1.377 . S
C945 C943 1.389 . S
C945 C946 1.524 . S
C946 C945 1.524 . S
C946 C947 1.397 . S
C946 C951 1.363 . S
C947 H918 0.950 . S
C947 C946 1.397 . S
C947 C948 1.334 . S
C948 H919 0.950 . S
C948 C947 1.334 . S
C948 C949 1.287 . S
C949 C948 1.287 . S
C949 C950 1.524 . S
C949 H952 0.999 . S
C950 H920 0.950 . S
C950 C949 1.524 . S
C950 C951 1.415 . S
C951 H921 0.950 . S
C951 C946 1.363 . S
C951 C950 1.415 . S
H952 C949 0.999 . S
H953 C934 0.913 . S
H954 C972 0.951 . S
H955 C974 0.951 . S
H956 C976 0.950 . S
H957 C977 0.950 . S
H958 C979 0.950 . S
H959 C982 0.950 . S
H960 C983 0.950 . S
H961 C985 0.950 . S
H962 C986 0.950 . S
H963 C987 0.951 . S
H964 C989 0.951 . S
H965 C991 0.950 . S
H966 C992 0.950 . S
H967 C994 0.950 . S
H968 C997 0.950 . S
H969 C998 0.950 . S
H970 C1000 0.950 . S
H971 C1001 0.950 . S
C972 H954 0.951 . S
C972 C973 1.366 . S
C972 C974 1.388 . S
C973 C972 1.366 . S
C973 C977 1.385 . S
C974 H955 0.951 . S
C974 C972 1.388 . S
C974 C975 1.366 . S
C975 C974 1.366 . S
C975 C976 1.414 . S
C975 C978 1.499 . S
C976 H956 0.950 . S
C976 C975 1.414 . S
C976 C977 1.374 . S
C977 H957 0.950 . S
C977 C973 1.385 . S
C977 C976 1.374 . S
C978 C975 1.499 . S
C978 C979 1.373 . S
C978 C980 1.389 . S
C979 H958 0.950 . S
C979 C978 1.373 . S
C979 C995 1.377 . S
C980 C978 1.389 . S
C980 C981 1.524 . S
C980 C994 1.377 . S
C981 C980 1.524 . S
C981 C982 1.397 . S
C981 C986 1.363 . S
C982 H959 0.950 . S
C982 C981 1.397 . S
C982 C983 1.334 . S
C983 H960 0.950 . S
C983 C982 1.334 . S
C983 C984 1.287 . S
C984 C983 1.287 . S
C984 C985 1.524 . S
C984 H1003 0.913 . S
C985 H961 0.950 . S
C985 C984 1.524 . S
C985 C986 1.415 . S
C986 H962 0.950 . S
C986 C981 1.363 . S
C986 C985 1.415 . S
C987 H963 0.951 . S
C987 C988 1.366 . S
C987 C989 1.388 . S
C988 C987 1.366 . S
C988 C992 1.385 . S
C989 H964 0.951 . S
C989 C987 1.388 . S
C989 C990 1.366 . S
C990 C989 1.366 . S
C990 C991 1.414 . S
C990 C993 1.499 . S
C991 H965 0.950 . S
C991 C990 1.414 . S
C991 C992 1.374 . S
C992 H966 0.950 . S
C992 C988 1.385 . S
C992 C991 1.374 . S
C993 C990 1.499 . S
C993 C994 1.373 . S
C993 C995 1.389 . S
C994 H967 0.950 . S
C994 C980 1.377 . S
C994 C993 1.373 . S
C995 C979 1.377 . S
C995 C993 1.389 . S
C995 C996 1.524 . S
C996 C995 1.524 . S
C996 C997 1.397 . S
C996 C1001 1.363 . S
C997 H968 0.950 . S
C997 C996 1.397 . S
C997 C998 1.334 . S
C998 H969 0.950 . S
C998 C997 1.334 . S
C998 C999 1.287 . S
C999 C998 1.287 . S
C999 C1000 1.524 . S
C999 H1002 0.999 . S
C1000 H970 0.950 . S
C1000 C999 1.524 . S
C1000 C1001 1.415 . S
C1001 H971 0.950 . S
C1001 C996 1.363 . S
C1001 C1000 1.415 . S
H1002 C999 0.999 . S
H1003 C984 0.913 . S
H1004 C1022 0.951 . S
H1005 C1024 0.951 . S
H1006 C1026 0.950 . S
H1007 C1027 0.950 . S
H1008 C1029 0.950 . S
H1009 C1032 0.950 . S
H1010 C1033 0.950 . S
H1011 C1035 0.950 . S
H1012 C1036 0.950 . S
H1013 C1037 0.951 . S
H1014 C1039 0.951 . S
H1015 C1041 0.950 . S
H1016 C1042 0.950 . S
H1017 C1044 0.950 . S
H1018 C1047 0.950 . S
H1019 C1048 0.950 . S
H1020 C1050 0.950 . S
H1021 C1051 0.950 . S
C1022 H1004 0.951 . S
C1022 C1023 1.366 . S
C1022 C1024 1.388 . S
C1023 C1022 1.366 . S
C1023 C1027 1.385 . S
C1024 H1005 0.951 . S
C1024 C1022 1.388 . S
C1024 C1025 1.366 . S
C1025 C1024 1.366 . S
C1025 C1026 1.414 . S
C1025 C1028 1.499 . S
C1026 H1006 0.950 . S
C1026 C1025 1.414 . S
C1026 C1027 1.374 . S
C1027 H1007 0.950 . S
C1027 C1023 1.385 . S
C1027 C1026 1.374 . S
C1028 C1025 1.499 . S
C1028 C1029 1.373 . S
C1028 C1030 1.389 . S
C1029 H1008 0.950 . S
C1029 C1028 1.373 . S
C1029 C1045 1.377 . S
C1030 C1028 1.389 . S
C1030 C1031 1.524 . S
C1030 C1044 1.377 . S
C1031 C1030 1.524 . S
C1031 C1032 1.397 . S
C1031 C1036 1.363 . S
C1032 H1009 0.950 . S
C1032 C1031 1.397 . S
C1032 C1033 1.334 . S
C1033 H1010 0.950 . S
C1033 C1032 1.334 . S
C1033 C1034 1.287 . S
C1034 C1033 1.287 . S
C1034 C1035 1.524 . S
C1034 H1053 0.913 . S
C1035 H1011 0.950 . S
C1035 C1034 1.524 . S
C1035 C1036 1.415 . S
C1036 H1012 0.950 . S
C1036 C1031 1.363 . S
C1036 C1035 1.415 . S
C1037 H1013 0.951 . S
C1037 C1038 1.366 . S
C1037 C1039 1.388 . S
C1038 C1037 1.366 . S
C1038 C1042 1.385 . S
C1039 H1014 0.951 . S
C1039 C1037 1.388 . S
C1039 C1040 1.366 . S
C1040 C1039 1.366 . S
C1040 C1041 1.414 . S
C1040 C1043 1.499 . S
C1041 H1015 0.950 . S
C1041 C1040 1.414 . S
C1041 C1042 1.374 . S
C1042 H1016 0.950 . S
C1042 C1038 1.385 . S
C1042 C1041 1.374 . S
C1043 C1040 1.499 . S
C1043 C1044 1.373 . S
C1043 C1045 1.389 . S
C1044 H1017 0.950 . S
C1044 C1030 1.377 . S
C1044 C1043 1.373 . S
C1045 C1029 1.377 . S
C1045 C1043 1.389 . S
C1045 C1046 1.524 . S
C1046 C1045 1.524 . S
C1046 C1047 1.397 . S
C1046 C1051 1.363 . S
C1047 H1018 0.950 . S
C1047 C1046 1.397 . S
C1047 C1048 1.334 . S
C1048 H1019 0.950 . S
C1048 C1047 1.334 . S
C1048 C1049 1.287 . S
C1049 C1048 1.287 . S
C1049 C1050 1.524 . S
C1049 H1052 0.999 . S
C1050 H1020 0.950 . S
C1050 C1049 1.524 . S
C1050 C1051 1.415 . S
C1051 H1021 0.950 . S
C1051 C1046 1.363 . S
C1051 C1050 1.415 . S
H1052 C1049 0.999 . S
H1053 C1034 0.913 . S
H1054 C1072 0.951 . S
H1055 C1074 0.951 . S
H1056 C1076 0.950 . S
H1057 C1077 0.950 . S
H1058 C1079 0.950 . S
H1059 C1082 0.950 . S
H1060 C1083 0.950 . S
H1061 C1085 0.950 . S
H1062 C1086 0.950 . S
H1063 C1087 0.951 . S
H1064 C1089 0.951 . S
H1065 C1091 0.950 . S
H1066 C1092 0.950 . S
H1067 C1094 0.950 . S
H1068 C1097 0.950 . S
H1069 C1098 0.950 . S
H1070 C1100 0.950 . S
H1071 C1101 0.950 . S
C1072 H1054 0.951 . S
C1072 C1073 1.366 . S
C1072 C1074 1.388 . S
C1073 C1072 1.366 . S
C1073 C1077 1.385 . S
C1074 H1055 0.951 . S
C1074 C1072 1.388 . S
C1074 C1075 1.366 . S
C1075 C1074 1.366 . S
C1075 C1076 1.414 . S
C1075 C1078 1.499 . S
C1076 H1056 0.950 . S
C1076 C1075 1.414 . S
C1076 C1077 1.374 . S
C1077 H1057 0.950 . S
C1077 C1073 1.385 . S
C1077 C1076 1.374 . S
C1078 C1075 1.499 . S
C1078 C1079 1.373 . S
C1078 C1080 1.389 . S
C1079 H1058 0.950 . S
C1079 C1078 1.373 . S
C1079 C1095 1.377 . S
C1080 C1078 1.389 . S
C1080 C1081 1.524 . S
C1080 C1094 1.377 . S
C1081 C1080 1.524 . S
C1081 C1082 1.397 . S
C1081 C1086 1.363 . S
C1082 H1059 0.950 . S
C1082 C1081 1.397 . S
C1082 C1083 1.334 . S
C1083 H1060 0.950 . S
C1083 C1082 1.334 . S
C1083 C1084 1.287 . S
C1084 C1083 1.287 . S
C1084 C1085 1.524 . S
C1084 H1103 0.913 . S
C1085 H1061 0.950 . S
C1085 C1084 1.524 . S
C1085 C1086 1.415 . S
C1086 H1062 0.950 . S
C1086 C1081 1.363 . S
C1086 C1085 1.415 . S
C1087 H1063 0.951 . S
C1087 C1088 1.366 . S
C1087 C1089 1.388 . S
C1088 C1087 1.366 . S
C1088 C1092 1.385 . S
C1089 H1064 0.951 . S
C1089 C1087 1.388 . S
C1089 C1090 1.366 . S
C1090 C1089 1.366 . S
C1090 C1091 1.414 . S
C1090 C1093 1.499 . S
C1091 H1065 0.950 . S
C1091 C1090 1.414 . S
C1091 C1092 1.374 . S
C1092 H1066 0.950 . S
C1092 C1088 1.385 . S
C1092 C1091 1.374 . S
C1093 C1090 1.499 . S
C1093 C1094 1.373 . S
C1093 C1095 1.389 . S
C1094 H1067 0.950 . S
C1094 C1080 1.377 . S
C1094 C1093 1.373 . S
C1095 C1079 1.377 . S
C1095 C1093 1.389 . S
C1095 C1096 1.524 . S
C1096 C1095 1.524 . S
C1096 C1097 1.397 . S
C1096 C1101 1.363 . S
C1097 H1068 0.950 . S
C1097 C1096 1.397 . S
C1097 C1098 1.334 . S
C1098 H1069 0.950 . S
C1098 C1097 1.334 . S
C1098 C1099 1.287 . S
C1099 C1098 1.287 . S
C1099 C1100 1.524 . S
C1099 H1102 0.999 . S
C1100 H1070 0.950 . S
C1100 C1099 1.524 . S
C1100 C1101 1.415 . S
C1101 H1071 0.950 . S
C1101 C1096 1.363 . S
C1101 C1100 1.415 . S
H1102 C1099 0.999 . S
H1103 C1084 0.913 . S
H1104 C1122 0.951 . S
H1105 C1124 0.951 . S
H1106 C1126 0.950 . S
H1107 C1127 0.950 . S
H1108 C1129 0.950 . S
H1109 C1132 0.950 . S
H1110 C1133 0.950 . S
H1111 C1135 0.950 . S
H1112 C1136 0.950 . S
H1113 C1137 0.951 . S
H1114 C1139 0.951 . S
H1115 C1141 0.950 . S
H1116 C1142 0.950 . S
H1117 C1144 0.950 . S
H1118 C1147 0.950 . S
H1119 C1148 0.950 . S
H1120 C1150 0.950 . S
H1121 C1151 0.950 . S
C1122 H1104 0.951 . S
C1122 C1123 1.366 . S
C1122 C1124 1.388 . S
C1123 C1122 1.366 . S
C1123 C1127 1.385 . S
C1124 H1105 0.951 . S
C1124 C1122 1.388 . S
C1124 C1125 1.366 . S
C1125 C1124 1.366 . S
C1125 C1126 1.414 . S
C1125 C1128 1.499 . S
C1126 H1106 0.950 . S
C1126 C1125 1.414 . S
C1126 C1127 1.374 . S
C1127 H1107 0.950 . S
C1127 C1123 1.385 . S
C1127 C1126 1.374 . S
C1128 C1125 1.499 . S
C1128 C1129 1.373 . S
C1128 C1130 1.389 1_455 S
C1129 H1108 0.950 . S
C1129 C1128 1.373 . S
C1129 C1145 1.377 . S
C1130 C1128 1.389 1_655 S
C1130 C1131 1.524 . S
C1130 C1144 1.377 . S
C1131 C1130 1.524 . S
C1131 C1132 1.397 . S
C1131 C1136 1.363 . S
C1132 H1109 0.950 . S
C1132 C1131 1.397 . S
C1132 C1133 1.334 . S
C1133 H1110 0.950 . S
C1133 C1132 1.334 . S
C1133 C1134 1.287 . S
C1134 C1133 1.287 . S
C1134 C1135 1.524 . S
C1134 H1153 0.913 . S
C1135 H1111 0.950 . S
C1135 C1134 1.524 . S
C1135 C1136 1.415 . S
C1136 H1112 0.950 . S
C1136 C1131 1.363 . S
C1136 C1135 1.415 . S
C1137 H1113 0.951 . S
C1137 C1138 1.366 . S
C1137 C1139 1.388 . S
C1138 C1137 1.366 . S
C1138 C1142 1.385 . S
C1139 H1114 0.951 . S
C1139 C1137 1.388 . S
C1139 C1140 1.366 . S
C1140 C1139 1.366 . S
C1140 C1141 1.414 . S
C1140 C1143 1.499 . S
C1141 H1115 0.950 . S
C1141 C1140 1.414 . S
C1141 C1142 1.374 . S
C1142 H1116 0.950 . S
C1142 C1138 1.385 . S
C1142 C1141 1.374 . S
C1143 C1140 1.499 . S
C1143 C1144 1.373 . S
C1143 C1145 1.389 1_655 S
C1144 H1117 0.950 . S
C1144 C1130 1.377 . S
C1144 C1143 1.373 . S
C1145 C1129 1.377 . S
C1145 C1143 1.389 1_455 S
C1145 C1146 1.524 . S
C1146 C1145 1.524 . S
C1146 C1147 1.397 . S
C1146 C1151 1.363 . S
C1147 H1118 0.950 . S
C1147 C1146 1.397 . S
C1147 C1148 1.334 . S
C1148 H1119 0.950 . S
C1148 C1147 1.334 . S
C1148 C1149 1.287 . S
C1149 C1148 1.287 . S
C1149 C1150 1.524 . S
C1149 H1152 0.999 . S
C1150 H1120 0.950 . S
C1150 C1149 1.524 . S
C1150 C1151 1.415 . S
C1151 H1121 0.950 . S
C1151 C1146 1.363 . S
C1151 C1150 1.415 . S
H1152 C1149 0.999 . S
H1153 C1134 0.913 . S
H1154 C1172 0.951 . S
H1155 C1174 0.951 . S
H1156 C1176 0.950 . S
H1157 C1177 0.950 . S
H1158 C1179 0.950 . S
H1159 C1182 0.950 . S
H1160 C1183 0.950 . S
H1161 C1185 0.950 . S
H1162 C1186 0.950 . S
H1163 C1187 0.951 . S
H1164 C1189 0.951 . S
H1165 C1191 0.950 . S
H1166 C1192 0.950 . S
H1167 C1194 0.950 . S
H1168 C1197 0.950 . S
H1169 C1198 0.950 . S
H1170 C1200 0.950 . S
H1171 C1201 0.950 . S
C1172 H1154 0.951 . S
C1172 C1173 1.366 . S
C1172 C1174 1.388 . S
C1173 C1172 1.366 . S
C1173 C1177 1.385 . S
C1174 H1155 0.951 . S
C1174 C1172 1.388 . S
C1174 C1175 1.366 . S
C1175 C1174 1.366 . S
C1175 C1176 1.414 . S
C1175 C1178 1.499 . S
C1176 H1156 0.950 . S
C1176 C1175 1.414 . S
C1176 C1177 1.374 . S
C1177 H1157 0.950 . S
C1177 C1173 1.385 . S
C1177 C1176 1.374 . S
C1178 C1175 1.499 . S
C1178 C1179 1.373 . S
C1178 C1180 1.389 . S
C1179 H1158 0.950 . S
C1179 C1178 1.373 . S
C1179 C1195 1.377 . S
C1180 C1178 1.389 . S
C1180 C1181 1.524 . S
C1180 C1194 1.377 . S
C1181 C1180 1.524 . S
C1181 C1182 1.397 . S
C1181 C1186 1.363 . S
C1182 H1159 0.950 . S
C1182 C1181 1.397 . S
C1182 C1183 1.334 . S
C1183 H1160 0.950 . S
C1183 C1182 1.334 . S
C1183 C1184 1.287 . S
C1184 C1183 1.287 . S
C1184 C1185 1.524 . S
C1184 H1203 0.913 . S
C1185 H1161 0.950 . S
C1185 C1184 1.524 . S
C1185 C1186 1.415 . S
C1186 H1162 0.950 . S
C1186 C1181 1.363 . S
C1186 C1185 1.415 . S
C1187 H1163 0.951 . S
C1187 C1188 1.366 . S
C1187 C1189 1.388 . S
C1188 C1187 1.366 . S
C1188 C1192 1.385 . S
C1189 H1164 0.951 . S
C1189 C1187 1.388 . S
C1189 C1190 1.366 . S
C1190 C1189 1.366 . S
C1190 C1191 1.414 . S
C1190 C1193 1.499 . S
C1191 H1165 0.950 . S
C1191 C1190 1.414 . S
C1191 C1192 1.374 . S
C1192 H1166 0.950 . S
C1192 C1188 1.385 . S
C1192 C1191 1.374 . S
C1193 C1190 1.499 . S
C1193 C1194 1.373 . S
C1193 C1195 1.389 . S
C1194 H1167 0.950 . S
C1194 C1180 1.377 . S
C1194 C1193 1.373 . S
C1195 C1179 1.377 . S
C1195 C1193 1.389 . S
C1195 C1196 1.524 . S
C1196 C1195 1.524 . S
C1196 C1197 1.397 . S
C1196 C1201 1.363 . S
C1197 H1168 0.950 . S
C1197 C1196 1.397 . S
C1197 C1198 1.334 . S
C1198 H1169 0.950 . S
C1198 C1197 1.334 . S
C1198 C1199 1.287 . S
C1199 C1198 1.287 . S
C1199 C1200 1.524 . S
C1199 H1202 0.999 . S
C1200 H1170 0.950 . S
C1200 C1199 1.524 . S
C1200 C1201 1.415 . S
C1201 H1171 0.950 . S
C1201 C1196 1.363 . S
C1201 C1200 1.415 . S
H1202 C1199 0.999 . S
H1203 C1184 0.913 . S
H1204 C1222 0.951 . S
H1205 C1224 0.951 . S
H1206 C1226 0.950 . S
H1207 C1227 0.950 . S
H1208 C1229 0.950 . S
H1209 C1232 0.950 1_565 S
H1210 C1233 0.950 . S
H1211 C1235 0.950 . S
H1212 C1236 0.950 . S
H1213 C1237 0.951 . S
H1214 C1239 0.951 . S
H1215 C1241 0.950 . S
H1216 C1242 0.950 . S
H1217 C1244 0.950 . S
H1218 C1247 0.950 1_545 S
H1219 C1248 0.950 . S
H1220 C1250 0.950 . S
H1221 C1251 0.950 . S
C1222 H1204 0.951 . S
C1222 C1223 1.366 . S
C1222 C1224 1.388 . S
C1223 C1222 1.366 . S
C1223 C1227 1.385 . S
C1224 H1205 0.951 . S
C1224 C1222 1.388 . S
C1224 C1225 1.366 . S
C1225 C1224 1.366 . S
C1225 C1226 1.414 . S
C1225 C1228 1.499 . S
C1226 H1206 0.950 . S
C1226 C1225 1.414 . S
C1226 C1227 1.374 . S
C1227 H1207 0.950 . S
C1227 C1223 1.385 . S
C1227 C1226 1.374 . S
C1228 C1225 1.499 . S
C1228 C1229 1.373 . S
C1228 C1230 1.389 . S
C1229 H1208 0.950 . S
C1229 C1228 1.373 . S
C1229 C1245 1.377 1_545 S
C1230 C1228 1.389 . S
C1230 C1231 1.524 . S
C1230 C1244 1.377 1_545 S
C1231 C1230 1.524 . S
C1231 C1232 1.397 . S
C1231 C1236 1.363 . S
C1232 H1209 0.950 1_545 S
C1232 C1231 1.397 . S
C1232 C1233 1.334 . S
C1233 H1210 0.950 . S
C1233 C1232 1.334 . S
C1233 C1234 1.287 . S
C1234 C1233 1.287 . S
C1234 C1235 1.524 . S
C1234 H1253 0.913 . S
C1235 H1211 0.950 . S
C1235 C1234 1.524 . S
C1235 C1236 1.415 . S
C1236 H1212 0.950 . S
C1236 C1231 1.363 . S
C1236 C1235 1.415 . S
C1237 H1213 0.951 . S
C1237 C1238 1.366 . S
C1237 C1239 1.388 . S
C1238 C1237 1.366 . S
C1238 C1242 1.385 . S
C1239 H1214 0.951 . S
C1239 C1237 1.388 . S
C1239 C1240 1.366 . S
C1240 C1239 1.366 . S
C1240 C1241 1.414 . S
C1240 C1243 1.499 . S
C1241 H1215 0.950 . S
C1241 C1240 1.414 . S
C1241 C1242 1.374 . S
C1242 H1216 0.950 . S
C1242 C1238 1.385 . S
C1242 C1241 1.374 . S
C1243 C1240 1.499 . S
C1243 C1244 1.373 . S
C1243 C1245 1.389 . S
C1244 H1217 0.950 . S
C1244 C1230 1.377 1_565 S
C1244 C1243 1.373 . S
C1245 C1229 1.377 1_565 S
C1245 C1243 1.389 . S
C1245 C1246 1.524 . S
C1246 C1245 1.524 . S
C1246 C1247 1.397 . S
C1246 C1251 1.363 . S
C1247 H1218 0.950 1_565 S
C1247 C1246 1.397 . S
C1247 C1248 1.334 . S
C1248 H1219 0.950 . S
C1248 C1247 1.334 . S
C1248 C1249 1.287 . S
C1249 C1248 1.287 . S
C1249 C1250 1.524 . S
C1249 H1252 0.999 . S
C1250 H1220 0.950 . S
C1250 C1249 1.524 . S
C1250 C1251 1.415 . S
C1251 H1221 0.950 . S
C1251 C1246 1.363 . S
C1251 C1250 1.415 . S
H1252 C1249 0.999 . S
H1253 C1234 0.913 . S
H1254 C1272 0.951 . S
H1255 C1274 0.951 . S
H1256 C1276 0.950 . S
H1257 C1277 0.950 . S
H1258 C1279 0.950 . S
H1259 C1282 0.950 . S
H1260 C1283 0.950 . S
H1261 C1285 0.950 . S
H1262 C1286 0.950 . S
H1263 C1287 0.951 . S
H1264 C1289 0.951 . S
H1265 C1291 0.950 . S
H1266 C1292 0.950 . S
H1267 C1294 0.950 . S
H1268 C1297 0.950 . S
H1269 C1298 0.950 . S
H1270 C1300 0.950 . S
H1271 C1301 0.950 . S
C1272 H1254 0.951 . S
C1272 C1273 1.366 . S
C1272 C1274 1.388 . S
C1273 C1272 1.366 . S
C1273 C1277 1.385 . S
C1274 H1255 0.951 . S
C1274 C1272 1.388 . S
C1274 C1275 1.366 . S
C1275 C1274 1.366 . S
C1275 C1276 1.414 . S
C1275 C1278 1.499 . S
C1276 H1256 0.950 . S
C1276 C1275 1.414 . S
C1276 C1277 1.374 . S
C1277 H1257 0.950 . S
C1277 C1273 1.385 . S
C1277 C1276 1.374 . S
C1278 C1275 1.499 . S
C1278 C1279 1.373 1_565 S
C1278 C1280 1.325 1_554 S
C1279 H1258 0.950 . S
C1279 C1278 1.373 1_545 S
C1279 C1295 1.437 . S
C1280 C1278 1.325 1_556 S
C1280 C1281 1.534 . S
C1280 C1294 1.437 . S
C1281 C1280 1.534 . S
C1281 C1282 1.397 1_556 S
C1281 C1286 1.363 . S
C1282 H1259 0.950 . S
C1282 C1281 1.397 1_554 S
C1282 C1283 1.334 . S
C1283 H1260 0.950 . S
C1283 C1282 1.334 . S
C1283 C1284 1.287 1_554 S
C1284 C1283 1.287 1_556 S
C1284 C1285 1.524 . S
C1284 H1303 0.913 . S
C1285 H1261 0.950 . S
C1285 C1284 1.524 . S
C1285 C1286 1.415 . S
C1286 H1262 0.950 . S
C1286 C1281 1.363 . S
C1286 C1285 1.415 . S
C1287 H1263 0.951 . S
C1287 C1288 1.366 . S
C1287 C1289 1.388 . S
C1288 C1287 1.366 . S
C1288 C1292 1.385 . S
C1289 H1264 0.951 . S
C1289 C1287 1.388 . S
C1289 C1290 1.366 . S
C1290 C1289 1.366 . S
C1290 C1291 1.414 . S
C1290 C1293 1.499 . S
C1291 H1265 0.950 . S
C1291 C1290 1.414 . S
C1291 C1292 1.374 . S
C1292 H1266 0.950 . S
C1292 C1288 1.385 . S
C1292 C1291 1.374 . S
C1293 C1290 1.499 . S
C1293 C1294 1.373 1_545 S
C1293 C1295 1.325 1_556 S
C1294 H1267 0.950 . S
C1294 C1280 1.437 . S
C1294 C1293 1.373 1_565 S
C1295 C1279 1.437 . S
C1295 C1293 1.325 1_554 S
C1295 C1296 1.534 . S
C1296 C1295 1.534 . S
C1296 C1297 1.397 1_554 S
C1296 C1301 1.363 . S
C1297 H1268 0.950 . S
C1297 C1296 1.397 1_556 S
C1297 C1298 1.334 . S
C1298 H1269 0.950 . S
C1298 C1297 1.334 . S
C1298 C1299 1.287 1_556 S
C1299 C1298 1.287 1_554 S
C1299 C1300 1.524 . S
C1299 H1302 0.999 . S
C1300 H1270 0.950 . S
C1300 C1299 1.524 . S
C1300 C1301 1.415 . S
C1301 H1271 0.950 . S
C1301 C1296 1.363 . S
C1301 C1300 1.415 . S
H1302 C1299 0.999 . S
H1303 C1284 0.913 . S
H1304 C1322 0.951 . S
H1305 C1324 0.951 . S
H1306 C1326 0.950 . S
H1307 C1327 0.950 . S
H1308 C1329 0.960 . S
H1309 C1332 0.950 . S
H1310 C1333 0.950 . S
H1311 C1335 0.950 . S
H1312 C1336 0.950 . S
H1313 C1337 0.951 . S
H1314 C1339 0.951 . S
H1315 C1341 0.950 . S
H1316 C1342 0.950 . S
H1317 C1344 0.960 . S
H1318 C1347 0.950 . S
H1319 C1348 0.950 . S
H1320 C1350 0.950 . S
H1321 C1351 0.950 . S
C1322 H1304 0.951 . S
C1322 C1323 1.366 . S
C1322 C1324 1.388 . S
C1323 C1322 1.366 . S
C1323 C1327 1.385 . S
C1324 H1305 0.951 . S
C1324 C1322 1.388 . S
C1324 C1325 1.366 . S
C1325 C1324 1.366 . S
C1325 C1326 1.414 . S
C1325 C1328 1.499 . S
C1326 H1306 0.950 . S
C1326 C1325 1.414 . S
C1326 C1327 1.374 . S
C1327 H1307 0.950 . S
C1327 C1323 1.385 . S
C1327 C1326 1.374 . S
C1328 C1325 1.499 . S
C1328 C1329 1.435 . S
C1328 C1330 1.389 1_655 S
C1329 H1308 0.960 . S
C1329 C1328 1.435 . S
C1329 C1345 1.312 1_556 S
C1330 C1328 1.389 1_455 S
C1330 C1331 1.524 . S
C1330 C1344 1.312 1_556 S
C1331 C1330 1.524 . S
C1331 C1332 1.397 . S
C1331 C1336 1.363 . S
C1332 H1309 0.950 . S
C1332 C1331 1.397 . S
C1332 C1333 1.334 . S
C1333 H1310 0.950 . S
C1333 C1332 1.334 . S
C1333 C1334 1.287 . S
C1334 C1333 1.287 . S
C1334 C1335 1.524 . S
C1334 H1353 0.913 . S
C1335 H1311 0.950 . S
C1335 C1334 1.524 . S
C1335 C1336 1.415 . S
C1336 H1312 0.950 . S
C1336 C1331 1.363 . S
C1336 C1335 1.415 . S
C1337 H1313 0.951 . S
C1337 C1338 1.366 . S
C1337 C1339 1.388 . S
C1338 C1337 1.366 . S
C1338 C1342 1.385 . S
C1339 H1314 0.951 . S
C1339 C1337 1.388 . S
C1339 C1340 1.366 . S
C1340 C1339 1.366 . S
C1340 C1341 1.414 . S
C1340 C1343 1.499 . S
C1341 H1315 0.950 . S
C1341 C1340 1.414 . S
C1341 C1342 1.374 . S
C1342 H1316 0.950 . S
C1342 C1338 1.385 . S
C1342 C1341 1.374 . S
C1343 C1340 1.499 . S
C1343 C1344 1.435 . S
C1343 C1345 1.389 1_455 S
C1344 H1317 0.960 . S
C1344 C1330 1.312 1_554 S
C1344 C1343 1.435 . S
C1345 C1329 1.312 1_554 S
C1345 C1343 1.389 1_655 S
C1345 C1346 1.524 . S
C1346 C1345 1.524 . S
C1346 C1347 1.397 . S
C1346 C1351 1.363 . S
C1347 H1318 0.950 . S
C1347 C1346 1.397 . S
C1347 C1348 1.334 . S
C1348 H1319 0.950 . S
C1348 C1347 1.334 . S
C1348 C1349 1.287 . S
C1349 C1348 1.287 . S
C1349 C1350 1.524 . S
C1349 H1352 0.999 . S
C1350 H1320 0.950 . S
C1350 C1349 1.524 . S
C1350 C1351 1.415 . S
C1351 H1321 0.950 . S
C1351 C1346 1.363 . S
C1351 C1350 1.415 . S
H1352 C1349 0.999 . S
H1353 C1334 0.913 . S
H1354 C1372 0.951 . S
H1355 C1374 0.951 . S
H1356 C1376 0.950 . S
H1357 C1377 0.950 . S
H1358 C1379 0.950 . S
H1359 C1382 0.950 . S
H1360 C1383 0.950 . S
H1361 C1385 0.968 . S
H1362 C1386 0.950 . S
H1363 C1387 0.951 . S
H1364 C1389 0.951 . S
H1365 C1391 0.950 . S
H1366 C1392 0.950 . S
H1367 C1394 0.950 . S
H1368 C1397 0.950 . S
H1369 C1398 0.950 . S
H1370 C1400 0.968 . S
H1371 C1401 0.950 . S
C1372 H1354 0.951 . S
C1372 C1373 1.366 . S
C1372 C1374 1.388 . S
C1373 C1372 1.366 . S
C1373 C1377 1.385 . S
C1374 H1355 0.951 . S
C1374 C1372 1.388 . S
C1374 C1375 1.366 . S
C1375 C1374 1.366 . S
C1375 C1376 1.414 . S
C1375 C1378 1.499 . S
C1376 H1356 0.950 . S
C1376 C1375 1.414 . S
C1376 C1377 1.374 . S
C1377 H1357 0.950 . S
C1377 C1373 1.385 . S
C1377 C1376 1.374 . S
C1378 C1375 1.499 . S
C1378 C1379 1.373 . S
C1378 C1380 1.448 . S
C1379 H1358 0.950 . S
C1379 C1378 1.373 . S
C1379 C1395 1.315 1_556 S
C1380 C1378 1.448 . S
C1380 C1381 1.524 . S
C1380 C1394 1.315 1_556 S
C1381 C1380 1.524 . S
C1381 C1382 1.384 1_556 S
C1381 C1386 1.372 . S
C1382 H1359 0.950 . S
C1382 C1381 1.384 1_554 S
C1382 C1383 1.334 . S
C1383 H1360 0.950 . S
C1383 C1382 1.334 . S
C1383 C1384 1.287 . S
C1384 C1383 1.287 . S
C1384 C1385 1.507 1_554 S
C1384 H1403 0.913 . S
C1385 H1361 0.968 . S
C1385 C1384 1.507 1_556 S
C1385 C1386 1.425 . S
C1386 H1362 0.950 . S
C1386 C1381 1.372 . S
C1386 C1385 1.425 . S
C1387 H1363 0.951 . S
C1387 C1388 1.366 . S
C1387 C1389 1.388 . S
C1388 C1387 1.366 . S
C1388 C1392 1.385 . S
C1389 H1364 0.951 . S
C1389 C1387 1.388 . S
C1389 C1390 1.366 . S
C1390 C1389 1.366 . S
C1390 C1391 1.414 . S
C1390 C1393 1.499 . S
C1391 H1365 0.950 . S
C1391 C1390 1.414 . S
C1391 C1392 1.374 . S
C1392 H1366 0.950 . S
C1392 C1388 1.385 . S
C1392 C1391 1.374 . S
C1393 C1390 1.499 . S
C1393 C1394 1.373 . S
C1393 C1395 1.448 . S
C1394 H1367 0.950 . S
C1394 C1380 1.315 1_554 S
C1394 C1393 1.373 . S
C1395 C1379 1.315 1_554 S
C1395 C1393 1.448 . S
C1395 C1396 1.524 . S
C1396 C1395 1.524 . S
C1396 C1397 1.384 1_554 S
C1396 C1401 1.372 . S
C1397 H1368 0.950 . S
C1397 C1396 1.384 1_556 S
C1397 C1398 1.334 . S
C1398 H1369 0.950 . S
C1398 C1397 1.334 . S
C1398 C1399 1.287 . S
C1399 C1398 1.287 . S
C1399 C1400 1.507 1_556 S
C1399 H1402 0.999 . S
C1400 H1370 0.968 . S
C1400 C1399 1.507 1_554 S
C1400 C1401 1.425 . S
C1401 H1371 0.950 . S
C1401 C1396 1.372 . S
C1401 C1400 1.425 . S
H1402 C1399 0.999 . S
H1403 C1384 0.913 . S
H1404 C1422 0.951 . S
H1405 C1424 0.951 . S
H1406 C1426 0.950 1_565 S
H1407 C1427 0.950 . S
H1408 C1429 0.950 . S
H1409 C1432 0.950 . S
H1410 C1433 0.950 . S
H1411 C1435 0.950 . S
H1412 C1436 0.950 . S
H1413 C1437 0.951 . S
H1414 C1439 0.951 . S
H1415 C1441 0.950 . S
H1416 C1442 0.950 . S
H1417 C1444 0.950 . S
H1418 C1447 0.950 . S
H1419 C1448 0.950 . S
H1420 C1450 0.950 . S
H1421 C1451 0.950 . S
C1422 H1404 0.951 . S
C1422 C1423 1.366 . S
C1422 C1424 1.388 . S
C1423 C1422 1.366 . S
C1423 C1427 1.385 . S
C1424 H1405 0.951 . S
C1424 C1422 1.388 . S
C1424 C1425 1.353 1_545 S
C1425 C1424 1.353 1_565 S
C1425 C1426 1.389 1_565 S
C1425 C1428 1.538 . S
C1426 H1406 0.950 1_545 S
C1426 C1425 1.389 1_545 S
C1426 C1427 1.374 . S
C1427 H1407 0.950 . S
C1427 C1423 1.385 . S
C1427 C1426 1.374 . S
C1428 C1425 1.538 . S
C1428 C1429 1.373 . S
C1428 C1430 1.389 . S
C1429 H1408 0.950 . S
C1429 C1428 1.373 . S
C1429 C1445 1.377 . S
C1430 C1428 1.389 . S
C1430 C1431 1.524 1_565 S
C1430 C1444 1.377 . S
C1431 C1430 1.524 1_545 S
C1431 C1432 1.397 . S
C1431 C1436 1.363 . S
C1432 H1409 0.950 . S
C1432 C1431 1.397 . S
C1432 C1433 1.334 . S
C1433 H1410 0.950 . S
C1433 C1432 1.334 . S
C1433 C1434 1.287 . S
C1434 C1433 1.287 . S
C1434 C1435 1.524 . S
C1434 H1453 0.913 . S
C1435 H1411 0.950 . S
C1435 C1434 1.524 . S
C1435 C1436 1.415 . S
C1436 H1412 0.950 . S
C1436 C1431 1.363 . S
C1436 C1435 1.415 . S
C1437 H1413 0.951 . S
C1437 C1438 1.366 . S
C1437 C1439 1.388 . S
C1438 C1437 1.366 . S
C1438 C1442 1.385 . S
C1439 H1414 0.951 . S
C1439 C1437 1.388 . S
C1439 C1440 1.366 . S
C1440 C1439 1.366 . S
C1440 C1441 1.414 . S
C1440 C1443 1.499 . S
C1441 H1415 0.950 . S
C1441 C1440 1.414 . S
C1441 C1442 1.374 . S
C1442 H1416 0.950 . S
C1442 C1438 1.385 . S
C1442 C1441 1.374 . S
C1443 C1440 1.499 . S
C1443 C1444 1.373 . S
C1443 C1445 1.389 . S
C1444 H1417 0.950 . S
C1444 C1430 1.377 . S
C1444 C1443 1.373 . S
C1445 C1429 1.377 . S
C1445 C1443 1.389 . S
C1445 C1446 1.524 . S
C1446 C1445 1.524 . S
C1446 C1447 1.397 . S
C1446 C1451 1.363 . S
C1447 H1418 0.950 . S
C1447 C1446 1.397 . S
C1447 C1448 1.334 . S
C1448 H1419 0.950 . S
C1448 C1447 1.334 . S
C1448 C1449 1.287 . S
C1449 C1448 1.287 . S
C1449 C1450 1.524 . S
C1449 H1452 0.999 . S
C1450 H1420 0.950 . S
C1450 C1449 1.524 . S
C1450 C1451 1.415 . S
C1451 H1421 0.950 . S
C1451 C1446 1.363 . S
C1451 C1450 1.415 . S
H1452 C1449 0.999 . S
H1453 C1434 0.913 . S
H1454 C1472 0.951 . S
H1455 C1474 0.951 . S
H1456 C1476 0.950 . S
H1457 C1477 0.950 . S
H1458 C1479 0.950 . S
H1459 C1482 0.950 1_455 S
H1460 C1483 0.950 . S
H1461 C1485 0.950 . S
H1462 C1486 0.950 . S
H1463 C1487 0.951 . S
H1464 C1489 0.951 . S
H1465 C1491 0.950 . S
H1466 C1492 0.950 . S
H1467 C1494 0.950 1_655 S
H1468 C1497 0.950 . S
H1469 C1498 0.950 . S
H1470 C1500 0.950 . S
H1471 C1501 0.950 . S
C1472 H1454 0.951 . S
C1472 C1473 1.366 . S
C1472 C1474 1.388 . S
C1473 C1472 1.366 . S
C1473 C1477 1.385 . S
C1474 H1455 0.951 . S
C1474 C1472 1.388 . S
C1474 C1475 1.366 . S
C1475 C1474 1.366 . S
C1475 C1476 1.414 . S
C1475 C1478 1.499 . S
C1476 H1456 0.950 . S
C1476 C1475 1.414 . S
C1476 C1477 1.374 . S
C1477 H1457 0.950 . S
C1477 C1473 1.385 . S
C1477 C1476 1.374 . S
C1478 C1475 1.499 . S
C1478 C1479 1.373 . S
C1478 C1480 1.389 . S
C1479 H1458 0.950 . S
C1479 C1478 1.373 . S
C1479 C1495 1.377 . S
C1480 C1478 1.389 . S
C1480 C1481 1.523 . S
C1480 C1494 1.377 . S
C1481 C1480 1.523 . S
C1481 C1482 1.398 1_455 S
C1481 C1486 1.363 1_455 S
C1482 H1459 0.950 1_655 S
C1482 C1481 1.398 1_655 S
C1482 C1483 1.334 . S
C1483 H1460 0.950 . S
C1483 C1482 1.334 . S
C1483 C1484 1.287 . S
C1484 C1483 1.287 . S
C1484 C1485 1.524 . S
C1484 H1503 0.913 . S
C1485 H1461 0.950 . S
C1485 C1484 1.524 . S
C1485 C1486 1.415 . S
C1486 H1462 0.950 . S
C1486 C1481 1.363 1_655 S
C1486 C1485 1.415 . S
C1487 H1463 0.951 . S
C1487 C1488 1.366 . S
C1487 C1489 1.388 1_655 S
C1488 C1487 1.366 . S
C1488 C1492 1.385 . S
C1489 H1464 0.951 . S
C1489 C1487 1.388 1_455 S
C1489 C1490 1.366 . S
C1490 C1489 1.366 . S
C1490 C1491 1.414 1_455 S
C1490 C1493 1.499 . S
C1491 H1465 0.950 . S
C1491 C1490 1.414 1_655 S
C1491 C1492 1.374 . S
C1492 H1466 0.950 . S
C1492 C1488 1.385 . S
C1492 C1491 1.374 . S
C1493 C1490 1.499 . S
C1493 C1494 1.373 . S
C1493 C1495 1.389 . S
C1494 H1467 0.950 1_455 S
C1494 C1480 1.377 . S
C1494 C1493 1.373 . S
C1495 C1479 1.377 . S
C1495 C1493 1.389 . S
C1495 C1496 1.524 . S
C1496 C1495 1.524 . S
C1496 C1497 1.397 . S
C1496 C1501 1.363 . S
C1497 H1468 0.950 . S
C1497 C1496 1.397 . S
C1497 C1498 1.334 . S
C1498 H1469 0.950 . S
C1498 C1497 1.334 . S
C1498 C1499 1.287 . S
C1499 C1498 1.287 . S
C1499 C1500 1.524 . S
C1499 H1502 0.999 . S
C1500 H1470 0.950 . S
C1500 C1499 1.524 . S
C1500 C1501 1.415 . S
C1501 H1471 0.950 . S
C1501 C1496 1.363 . S
C1501 C1500 1.415 . S
H1502 C1499 0.999 . S
H1503 C1484 0.913 . S
H1504 C1522 0.951 . S
H1505 C1524 0.951 . S
H1506 C1526 0.950 . S
H1507 C1527 0.950 . S
H1508 C1529 0.950 . S
H1509 C1532 0.950 . S
H1510 C1533 0.950 . S
H1511 C1535 0.950 . S
H1512 C1536 0.950 . S
H1513 C1537 0.951 . S
H1514 C1539 0.951 . S
H1515 C1541 0.950 . S
H1516 C1542 0.950 . S
H1517 C1544 0.950 . S
H1518 C1547 0.950 . S
H1519 C1548 0.950 . S
H1520 C1550 0.950 . S
H1521 C1551 0.950 . S
C1522 H1504 0.951 . S
C1522 C1523 1.366 . S
C1522 C1524 1.388 . S
C1523 C1522 1.366 . S
C1523 C1527 1.385 . S
C1524 H1505 0.951 . S
C1524 C1522 1.388 . S
C1524 C1525 1.366 . S
C1525 C1524 1.366 . S
C1525 C1526 1.414 . S
C1525 C1528 1.499 . S
C1526 H1506 0.950 . S
C1526 C1525 1.414 . S
C1526 C1527 1.374 . S
C1527 H1507 0.950 . S
C1527 C1523 1.385 . S
C1527 C1526 1.374 . S
C1528 C1525 1.499 . S
C1528 C1529 1.373 . S
C1528 C1530 1.389 . S
C1529 H1508 0.950 . S
C1529 C1528 1.373 . S
C1529 C1545 1.377 . S
C1530 C1528 1.389 . S
C1530 C1531 1.524 . S
C1530 C1544 1.377 . S
C1531 C1530 1.524 . S
C1531 C1532 1.397 . S
C1531 C1536 1.363 . S
C1532 H1509 0.950 . S
C1532 C1531 1.397 . S
C1532 C1533 1.334 . S
C1533 H1510 0.950 . S
C1533 C1532 1.334 . S
C1533 C1534 1.287 . S
C1534 C1533 1.287 . S
C1534 C1535 1.524 . S
C1534 H1553 0.913 . S
C1535 H1511 0.950 . S
C1535 C1534 1.524 . S
C1535 C1536 1.415 . S
C1536 H1512 0.950 . S
C1536 C1531 1.363 . S
C1536 C1535 1.415 . S
C1537 H1513 0.951 . S
C1537 C1538 1.366 . S
C1537 C1539 1.388 . S
C1538 C1537 1.366 . S
C1538 C1542 1.385 . S
C1539 H1514 0.951 . S
C1539 C1537 1.388 . S
C1539 C1540 1.366 . S
C1540 C1539 1.366 . S
C1540 C1541 1.414 . S
C1540 C1543 1.499 . S
C1541 H1515 0.950 . S
C1541 C1540 1.414 . S
C1541 C1542 1.374 . S
C1542 H1516 0.950 . S
C1542 C1538 1.385 . S
C1542 C1541 1.374 . S
C1543 C1540 1.499 . S
C1543 C1544 1.373 . S
C1543 C1545 1.389 . S
C1544 H1517 0.950 . S
C1544 C1530 1.377 . S
C1544 C1543 1.373 . S
C1545 C1529 1.377 . S
C1545 C1543 1.389 . S
C1545 C1546 1.524 . S
C1546 C1545 1.524 . S
C1546 C1547 1.397 . S
C1546 C1551 1.363 . S
C1547 H1518 0.950 . S
C1547 C1546 1.397 . S
C1547 C1548 1.334 . S
C1548 H1519 0.950 . S
C1548 C1547 1.334 . S
C1548 C1549 1.287 . S
C1549 C1548 1.287 . S
C1549 C1550 1.524 . S
C1549 H1552 0.999 . S
C1550 H1520 0.950 . S
C1550 C1549 1.524 . S
C1550 C1551 1.415 . S
C1551 H1521 0.950 . S
C1551 C1546 1.363 . S
C1551 C1550 1.415 . S
H1552 C1549 0.999 . S
H1553 C1534 0.913 . S
H1554 C1572 0.951 . S
H1555 C1574 0.951 . S
H1556 C1576 0.950 . S
H1557 C1577 0.950 . S
H1558 C1579 0.950 . S
H1559 C1582 0.950 . S
H1560 C1583 0.950 . S
H1561 C1585 0.950 . S
H1562 C1586 0.950 . S
H1563 C1587 0.951 . S
H1564 C1589 0.951 . S
H1565 C1591 0.950 . S
H1566 C1592 0.948 1_655 S
H1567 C1594 0.950 . S
H1568 C1597 0.950 . S
H1569 C1598 0.950 . S
H1570 C1600 0.950 . S
H1571 C1601 0.950 . S
C1572 H1554 0.951 . S
C1572 C1573 1.366 . S
C1572 C1574 1.388 . S
C1573 C1572 1.366 . S
C1573 C1577 1.385 . S
C1574 H1555 0.951 . S
C1574 C1572 1.388 . S
C1574 C1575 1.366 . S
C1575 C1574 1.366 . S
C1575 C1576 1.414 . S
C1575 C1578 1.499 . S
C1576 H1556 0.950 . S
C1576 C1575 1.414 . S
C1576 C1577 1.374 . S
C1577 H1557 0.950 . S
C1577 C1573 1.385 . S
C1577 C1576 1.374 . S
C1578 C1575 1.499 . S
C1578 C1579 1.373 . S
C1578 C1580 1.389 . S
C1579 H1558 0.950 . S
C1579 C1578 1.373 . S
C1579 C1595 1.377 . S
C1580 C1578 1.389 . S
C1580 C1581 1.524 . S
C1580 C1594 1.377 . S
C1581 C1580 1.524 . S
C1581 C1582 1.397 . S
C1581 C1586 1.363 . S
C1582 H1559 0.950 . S
C1582 C1581 1.397 . S
C1582 C1583 1.334 . S
C1583 H1560 0.950 . S
C1583 C1582 1.334 . S
C1583 C1584 1.287 . S
C1584 C1583 1.287 . S
C1584 C1585 1.524 . S
C1584 H1603 0.913 . S
C1585 H1561 0.950 . S
C1585 C1584 1.524 . S
C1585 C1586 1.415 . S
C1586 H1562 0.950 . S
C1586 C1581 1.363 . S
C1586 C1585 1.415 . S
C1587 H1563 0.951 . S
C1587 C1588 1.366 . S
C1587 C1589 1.388 . S
C1588 C1587 1.366 . S
C1588 C1592 1.423 . S
C1589 H1564 0.951 . S
C1589 C1587 1.388 . S
C1589 C1590 1.366 1_455 S
C1590 C1589 1.366 1_655 S
C1590 C1591 1.414 . S
C1590 C1593 1.499 . S
C1591 H1565 0.950 . S
C1591 C1590 1.414 . S
C1591 C1592 1.339 1_655 S
C1592 H1566 0.948 1_455 S
C1592 C1588 1.423 . S
C1592 C1591 1.339 1_455 S
C1593 C1590 1.499 . S
C1593 C1594 1.373 . S
C1593 C1595 1.389 . S
C1594 H1567 0.950 . S
C1594 C1580 1.377 . S
C1594 C1593 1.373 . S
C1595 C1579 1.377 . S
C1595 C1593 1.389 . S
C1595 C1596 1.524 1_655 S
C1596 C1595 1.524 1_455 S
C1596 C1597 1.397 . S
C1596 C1601 1.363 . S
C1597 H1568 0.950 . S
C1597 C1596 1.397 . S
C1597 C1598 1.334 . S
C1598 H1569 0.950 . S
C1598 C1597 1.334 . S
C1598 C1599 1.287 . S
C1599 C1598 1.287 . S
C1599 C1600 1.524 . S
C1599 H1602 0.999 . S
C1600 H1570 0.950 . S
C1600 C1599 1.524 . S
C1600 C1601 1.415 . S
C1601 H1571 0.950 . S
C1601 C1596 1.363 . S
C1601 C1600 1.415 . S
H1602 C1599 0.999 . S
H1603 C1584 0.913 . S
H1604 C1622 0.951 . S
H1605 C1624 0.951 . S
H1606 C1626 0.950 . S
H1607 C1627 0.950 . S
H1608 C1629 0.950 . S
H1609 C1632 0.950 . S
H1610 C1633 0.950 . S
H1611 C1635 0.950 . S
H1612 C1636 0.950 . S
H1613 C1637 0.951 . S
H1614 C1639 0.951 . S
H1615 C1641 0.950 . S
H1616 C1642 0.950 . S
H1617 C1644 0.950 . S
H1618 C1647 0.950 . S
H1619 C1648 0.950 . S
H1620 C1650 0.950 . S
H1621 C1651 0.950 . S
C1622 H1604 0.951 . S
C1622 C1623 1.366 . S
C1622 C1624 1.388 . S
C1623 C1622 1.366 . S
C1623 C1627 1.385 . S
C1624 H1605 0.951 . S
C1624 C1622 1.388 . S
C1624 C1625 1.366 . S
C1625 C1624 1.366 . S
C1625 C1626 1.414 . S
C1625 C1628 1.499 . S
C1626 H1606 0.950 . S
C1626 C1625 1.414 . S
C1626 C1627 1.374 . S
C1627 H1607 0.950 . S
C1627 C1623 1.385 . S
C1627 C1626 1.374 . S
C1628 C1625 1.499 . S
C1628 C1629 1.373 . S
C1628 C1630 1.389 . S
C1629 H1608 0.950 . S
C1629 C1628 1.373 . S
C1629 C1645 1.377 . S
C1630 C1628 1.389 . S
C1630 C1631 1.524 . S
C1630 C1644 1.377 . S
C1631 C1630 1.524 . S
C1631 C1632 1.397 . S
C1631 C1636 1.363 . S
C1632 H1609 0.950 . S
C1632 C1631 1.397 . S
C1632 C1633 1.334 . S
C1633 H1610 0.950 . S
C1633 C1632 1.334 . S
C1633 C1634 1.287 . S
C1634 C1633 1.287 . S
C1634 C1635 1.524 . S
C1634 H1653 0.913 . S
C1635 H1611 0.950 . S
C1635 C1634 1.524 . S
C1635 C1636 1.415 . S
C1636 H1612 0.950 . S
C1636 C1631 1.363 . S
C1636 C1635 1.415 . S
C1637 H1613 0.951 . S
C1637 C1638 1.366 . S
C1637 C1639 1.388 . S
C1638 C1637 1.366 . S
C1638 C1642 1.385 . S
C1639 H1614 0.951 . S
C1639 C1637 1.388 . S
C1639 C1640 1.366 . S
C1640 C1639 1.366 . S
C1640 C1641 1.414 . S
C1640 C1643 1.499 . S
C1641 H1615 0.950 . S
C1641 C1640 1.414 . S
C1641 C1642 1.374 . S
C1642 H1616 0.950 . S
C1642 C1638 1.385 . S
C1642 C1641 1.374 . S
C1643 C1640 1.499 . S
C1643 C1644 1.373 . S
C1643 C1645 1.389 . S
C1644 H1617 0.950 . S
C1644 C1630 1.377 . S
C1644 C1643 1.373 . S
C1645 C1629 1.377 . S
C1645 C1643 1.389 . S
C1645 C1646 1.524 . S
C1646 C1645 1.524 . S
C1646 C1647 1.397 . S
C1646 C1651 1.363 . S
C1647 H1618 0.950 . S
C1647 C1646 1.397 . S
C1647 C1648 1.334 . S
C1648 H1619 0.950 . S
C1648 C1647 1.334 . S
C1648 C1649 1.287 . S
C1649 C1648 1.287 . S
C1649 C1650 1.524 . S
C1649 H1652 0.999 . S
C1650 H1620 0.950 . S
C1650 C1649 1.524 . S
C1650 C1651 1.415 . S
C1651 H1621 0.950 . S
C1651 C1646 1.363 . S
C1651 C1650 1.415 . S
H1652 C1649 0.999 . S
H1653 C1634 0.913 . S
H1654 C1672 0.951 . S
H1655 C1674 0.951 . S
H1656 C1676 0.950 . S
H1657 C1677 0.950 . S
H1658 C1679 0.950 . S
H1659 C1682 0.950 . S
H1660 C1683 0.950 . S
H1661 C1685 0.950 . S
H1662 C1686 0.950 . S
H1663 C1687 0.951 . S
H1664 C1689 0.951 . S
H1665 C1691 0.950 . S
H1666 C1692 0.950 . S
H1667 C1694 0.950 1_565 S
H1668 C1697 0.931 1_565 S
H1669 C1698 0.950 . S
H1670 C1700 0.950 . S
H1671 C1701 0.950 . S
C1672 H1654 0.951 . S
C1672 C1673 1.366 . S
C1672 C1674 1.388 . S
C1673 C1672 1.366 . S
C1673 C1677 1.385 . S
C1674 H1655 0.951 . S
C1674 C1672 1.388 . S
C1674 C1675 1.366 . S
C1675 C1674 1.366 . S
C1675 C1676 1.414 . S
C1675 C1678 1.499 . S
C1676 H1656 0.950 . S
C1676 C1675 1.414 . S
C1676 C1677 1.374 . S
C1677 H1657 0.950 . S
C1677 C1673 1.385 . S
C1677 C1676 1.374 . S
C1678 C1675 1.499 . S
C1678 C1679 1.373 . S
C1678 C1680 1.389 . S
C1679 H1658 0.950 . S
C1679 C1678 1.373 . S
C1679 C1695 1.377 . S
C1680 C1678 1.389 . S
C1680 C1681 1.524 . S
C1680 C1694 1.377 . S
C1681 C1680 1.524 . S
C1681 C1682 1.397 . S
C1681 C1686 1.363 1_545 S
C1682 H1659 0.950 . S
C1682 C1681 1.397 . S
C1682 C1683 1.334 . S
C1683 H1660 0.950 . S
C1683 C1682 1.334 . S
C1683 C1684 1.287 . S
C1684 C1683 1.287 . S
C1684 C1685 1.524 1_545 S
C1684 H1703 0.913 . S
C1685 H1661 0.950 . S
C1685 C1684 1.524 1_565 S
C1685 C1686 1.415 . S
C1686 H1662 0.950 . S
C1686 C1681 1.363 1_565 S
C1686 C1685 1.415 . S
C1687 H1663 0.951 . S
C1687 C1688 1.366 1_545 S
C1687 C1689 1.388 . S
C1688 C1687 1.366 1_565 S
C1688 C1692 1.385 . S
C1689 H1664 0.951 . S
C1689 C1687 1.388 . S
C1689 C1690 1.366 . S
C1690 C1689 1.366 . S
C1690 C1691 1.414 1_545 S
C1690 C1693 1.499 . S
C1691 H1665 0.950 . S
C1691 C1690 1.414 1_565 S
C1691 C1692 1.374 . S
C1692 H1666 0.950 . S
C1692 C1688 1.385 . S
C1692 C1691 1.374 . S
C1693 C1690 1.499 . S
C1693 C1694 1.373 . S
C1693 C1695 1.389 . S
C1694 H1667 0.950 1_545 S
C1694 C1680 1.377 . S
C1694 C1693 1.373 . S
C1695 C1679 1.377 . S
C1695 C1693 1.389 . S
C1695 C1696 1.524 . S
C1696 C1695 1.524 . S
C1696 C1697 1.397 . S
C1696 C1701 1.363 . S
C1697 H1668 0.931 1_545 S
C1697 C1696 1.397 . S
C1697 C1698 1.334 . S
C1698 H1669 0.950 . S
C1698 C1697 1.334 . S
C1698 C1699 1.287 . S
C1699 C1698 1.287 . S
C1699 C1700 1.524 . S
C1699 H1702 0.999 . S
C1700 H1670 0.950 . S
C1700 C1699 1.524 . S
C1700 C1701 1.415 . S
C1701 H1671 0.950 . S
C1701 C1696 1.363 . S
C1701 C1700 1.415 . S
H1702 C1699 0.999 . S
H1703 C1684 0.913 . S
H1704 C1722 0.951 . S
H1705 C1724 0.951 . S
H1706 C1726 0.950 . S
H1707 C1727 0.950 . S
H1708 C1729 0.950 . S
H1709 C1732 0.950 . S
H1710 C1733 0.950 . S
H1711 C1735 0.950 . S
H1712 C1736 0.950 . S
H1713 C1737 0.951 . S
H1714 C1739 0.951 . S
H1715 C1741 0.950 . S
H1716 C1742 0.950 . S
H1717 C1744 0.950 . S
H1718 C1747 0.950 . S
H1719 C1748 0.950 . S
H1720 C1750 0.950 . S
H1721 C1751 0.948 1_565 S
C1722 H1704 0.951 . S
C1722 C1723 1.368 1_545 S
C1722 C1724 1.385 . S
C1723 C1722 1.368 1_565 S
C1723 C1727 1.385 . S
C1724 H1705 0.951 . S
C1724 C1722 1.385 . S
C1724 C1725 1.366 . S
C1725 C1724 1.366 . S
C1725 C1726 1.414 1_545 S
C1725 C1728 1.499 . S
C1726 H1706 0.950 . S
C1726 C1725 1.414 1_565 S
C1726 C1727 1.374 . S
C1727 H1707 0.950 . S
C1727 C1723 1.385 . S
C1727 C1726 1.374 . S
C1728 C1725 1.499 . S
C1728 C1729 1.373 . S
C1728 C1730 1.389 . S
C1729 H1708 0.950 . S
C1729 C1728 1.373 . S
C1729 C1745 1.377 . S
C1730 C1728 1.389 . S
C1730 C1731 1.524 . S
C1730 C1744 1.377 . S
C1731 C1730 1.524 . S
C1731 C1732 1.397 1_545 S
C1731 C1736 1.363 . S
C1732 H1709 0.950 . S
C1732 C1731 1.397 1_565 S
C1732 C1733 1.334 . S
C1733 H1710 0.950 . S
C1733 C1732 1.334 . S
C1733 C1734 1.287 1_565 S
C1734 C1733 1.287 1_545 S
C1734 C1735 1.524 . S
C1734 H1753 0.913 . S
C1735 H1711 0.950 . S
C1735 C1734 1.524 . S
C1735 C1736 1.415 . S
C1736 H1712 0.950 . S
C1736 C1731 1.363 . S
C1736 C1735 1.415 . S
C1737 H1713 0.951 . S
C1737 C1738 1.366 . S
C1737 C1739 1.388 . S
C1738 C1737 1.366 . S
C1738 C1742 1.385 . S
C1739 H1714 0.951 . S
C1739 C1737 1.388 . S
C1739 C1740 1.366 . S
C1740 C1739 1.366 . S
C1740 C1741 1.414 . S
C1740 C1743 1.499 . S
C1741 H1715 0.950 . S
C1741 C1740 1.414 . S
C1741 C1742 1.374 . S
C1742 H1716 0.950 . S
C1742 C1738 1.385 . S
C1742 C1741 1.374 . S
C1743 C1740 1.499 . S
C1743 C1744 1.373 . S
C1743 C1745 1.389 . S
C1744 H1717 0.950 . S
C1744 C1730 1.377 . S
C1744 C1743 1.373 . S
C1745 C1729 1.377 . S
C1745 C1743 1.389 . S
C1745 C1746 1.524 . S
C1746 C1745 1.524 . S
C1746 C1747 1.397 . S
C1746 C1751 1.363 . S
C1747 H1718 0.950 . S
C1747 C1746 1.397 . S
C1747 C1748 1.334 . S
C1748 H1719 0.950 . S
C1748 C1747 1.334 . S
C1748 C1749 1.287 . S
C1749 C1748 1.287 . S
C1749 C1750 1.524 . S
C1749 H1752 0.999 . S
C1750 H1720 0.950 . S
C1750 C1749 1.524 . S
C1750 C1751 1.415 . S
C1751 H1721 0.948 1_545 S
C1751 C1746 1.363 . S
C1751 C1750 1.415 . S
H1752 C1749 0.999 . S
H1753 C1734 0.913 . S
H1754 C1772 0.951 . S
H1755 C1774 0.951 . S
H1756 C1776 0.950 . S
H1757 C1777 0.950 . S
H1758 C1779 0.950 . S
H1759 C1782 0.950 . S
H1760 C1783 0.950 . S
H1761 C1785 0.950 . S
H1762 C1786 0.950 . S
H1763 C1787 0.951 . S
H1764 C1789 0.951 . S
H1765 C1791 0.950 . S
H1766 C1792 0.950 . S
H1767 C1794 0.950 . S
H1768 C1797 0.950 1_655 S
H1769 C1798 0.950 . S
H1770 C1800 0.950 . S
H1771 C1801 0.950 . S
C1772 H1754 0.951 . S
C1772 C1773 1.366 . S
C1772 C1774 1.388 . S
C1773 C1772 1.366 . S
C1773 C1777 1.385 . S
C1774 H1755 0.951 . S
C1774 C1772 1.388 . S
C1774 C1775 1.366 . S
C1775 C1774 1.366 . S
C1775 C1776 1.414 . S
C1775 C1778 1.499 . S
C1776 H1756 0.950 . S
C1776 C1775 1.414 . S
C1776 C1777 1.374 . S
C1777 H1757 0.950 . S
C1777 C1773 1.385 . S
C1777 C1776 1.374 . S
C1778 C1775 1.499 . S
C1778 C1779 1.373 . S
C1778 C1780 1.389 . S
C1779 H1758 0.950 . S
C1779 C1778 1.373 . S
C1779 C1795 1.377 . S
C1780 C1778 1.389 . S
C1780 C1781 1.524 . S
C1780 C1794 1.377 . S
C1781 C1780 1.524 . S
C1781 C1782 1.397 . S
C1781 C1786 1.363 . S
C1782 H1759 0.950 . S
C1782 C1781 1.397 . S
C1782 C1783 1.334 . S
C1783 H1760 0.950 . S
C1783 C1782 1.334 . S
C1783 C1784 1.287 . S
C1784 C1783 1.287 . S
C1784 C1785 1.524 . S
C1784 H1803 0.913 . S
C1785 H1761 0.950 . S
C1785 C1784 1.524 . S
C1785 C1786 1.415 . S
C1786 H1762 0.950 . S
C1786 C1781 1.363 . S
C1786 C1785 1.415 . S
C1787 H1763 0.951 . S
C1787 C1788 1.366 . S
C1787 C1789 1.388 . S
C1788 C1787 1.366 . S
C1788 C1792 1.385 1_455 S
C1789 H1764 0.951 . S
C1789 C1787 1.388 . S
C1789 C1790 1.366 1_455 S
C1790 C1789 1.366 1_655 S
C1790 C1791 1.414 . S
C1790 C1793 1.499 . S
C1791 H1765 0.950 . S
C1791 C1790 1.414 . S
C1791 C1792 1.374 . S
C1792 H1766 0.950 . S
C1792 C1788 1.385 1_655 S
C1792 C1791 1.374 . S
C1793 C1790 1.499 . S
C1793 C1794 1.373 . S
C1793 C1795 1.389 . S
C1794 H1767 0.950 . S
C1794 C1780 1.377 . S
C1794 C1793 1.373 . S
C1795 C1779 1.377 . S
C1795 C1793 1.389 . S
C1795 C1796 1.524 1_655 S
C1796 C1795 1.524 1_455 S
C1796 C1797 1.397 . S
C1796 C1801 1.363 . S
C1797 H1768 0.950 1_455 S
C1797 C1796 1.397 . S
C1797 C1798 1.334 . S
C1798 H1769 0.950 . S
C1798 C1797 1.334 . S
C1798 C1799 1.287 . S
C1799 C1798 1.287 . S
C1799 C1800 1.524 . S
C1799 H1802 0.999 . S
C1800 H1770 0.950 . S
C1800 C1799 1.524 . S
C1800 C1801 1.415 . S
C1801 H1771 0.950 . S
C1801 C1796 1.363 . S
C1801 C1800 1.415 . S
H1802 C1799 0.999 . S
H1803 C1784 0.913 . S
H1804 C1822 0.951 . S
H1805 C1824 0.951 . S
H1806 C1826 0.950 . S
H1807 C1827 0.950 . S
H1808 C1829 0.950 . S
H1809 C1832 0.950 . S
H1810 C1833 0.950 . S
H1811 C1835 0.950 . S
H1812 C1836 0.950 . S
H1813 C1837 0.951 . S
H1814 C1839 0.951 . S
H1815 C1841 0.950 . S
H1816 C1842 0.950 . S
H1817 C1844 0.950 . S
H1818 C1847 0.950 . S
H1819 C1848 0.950 . S
H1820 C1850 0.950 . S
H1821 C1851 0.950 . S
C1822 H1804 0.951 . S
C1822 C1823 1.366 . S
C1822 C1824 1.388 . S
C1823 C1822 1.366 . S
C1823 C1827 1.385 . S
C1824 H1805 0.951 . S
C1824 C1822 1.388 . S
C1824 C1825 1.366 . S
C1825 C1824 1.366 . S
C1825 C1826 1.414 . S
C1825 C1828 1.499 . S
C1826 H1806 0.950 . S
C1826 C1825 1.414 . S
C1826 C1827 1.374 . S
C1827 H1807 0.950 . S
C1827 C1823 1.385 . S
C1827 C1826 1.374 . S
C1828 C1825 1.499 . S
C1828 C1829 1.373 . S
C1828 C1830 1.389 . S
C1829 H1808 0.950 . S
C1829 C1828 1.373 . S
C1829 C1845 1.377 . S
C1830 C1828 1.389 . S
C1830 C1831 1.524 . S
C1830 C1844 1.377 . S
C1831 C1830 1.524 . S
C1831 C1832 1.397 . S
C1831 C1836 1.363 . S
C1832 H1809 0.950 . S
C1832 C1831 1.397 . S
C1832 C1833 1.334 . S
C1833 H1810 0.950 . S
C1833 C1832 1.334 . S
C1833 C1834 1.287 . S
C1834 C1833 1.287 . S
C1834 C1835 1.524 . S
C1834 H1853 0.913 . S
C1835 H1811 0.950 . S
C1835 C1834 1.524 . S
C1835 C1836 1.415 . S
C1836 H1812 0.950 . S
C1836 C1831 1.363 . S
C1836 C1835 1.415 . S
C1837 H1813 0.951 . S
C1837 C1838 1.366 . S
C1837 C1839 1.388 . S
C1838 C1837 1.366 . S
C1838 C1842 1.385 . S
C1839 H1814 0.951 . S
C1839 C1837 1.388 . S
C1839 C1840 1.366 . S
C1840 C1839 1.366 . S
C1840 C1841 1.414 . S
C1840 C1843 1.499 . S
C1841 H1815 0.950 . S
C1841 C1840 1.414 . S
C1841 C1842 1.374 . S
C1842 H1816 0.950 . S
C1842 C1838 1.385 . S
C1842 C1841 1.374 . S
C1843 C1840 1.499 . S
C1843 C1844 1.373 . S
C1843 C1845 1.389 . S
C1844 H1817 0.950 . S
C1844 C1830 1.377 . S
C1844 C1843 1.373 . S
C1845 C1829 1.377 . S
C1845 C1843 1.389 . S
C1845 C1846 1.524 . S
C1846 C1845 1.524 . S
C1846 C1847 1.397 . S
C1846 C1851 1.363 . S
C1847 H1818 0.950 . S
C1847 C1846 1.397 . S
C1847 C1848 1.334 . S
C1848 H1819 0.950 . S
C1848 C1847 1.334 . S
C1848 C1849 1.287 . S
C1849 C1848 1.287 . S
C1849 C1850 1.524 . S
C1849 H1852 0.999 . S
C1850 H1820 0.950 . S
C1850 C1849 1.524 . S
C1850 C1851 1.415 . S
C1851 H1821 0.950 . S
C1851 C1846 1.363 . S
C1851 C1850 1.415 . S
H1852 C1849 0.999 . S
H1853 C1834 0.913 . S
H1854 C1872 0.951 . S
H1855 C1874 0.951 1_455 S
H1856 C1876 0.950 . S
H1857 C1877 0.950 . S
H1858 C1879 0.950 1_655 S
H1859 C1882 0.950 . S
H1860 C1883 0.950 . S
H1861 C1885 0.950 . S
H1862 C1886 0.950 . S
H1863 C1887 0.951 . S
H1864 C1889 0.951 . S
H1865 C1891 0.950 . S
H1866 C1892 0.950 . S
H1867 C1894 0.950 . S
H1868 C1897 0.930 1_455 S
H1869 C1898 0.950 . S
H1870 C1900 0.950 . S
H1871 C1901 0.950 . S
C1872 H1854 0.951 . S
C1872 C1873 1.366 . S
C1872 C1874 1.388 . S
C1873 C1872 1.366 . S
C1873 C1877 1.385 . S
C1874 H1855 0.951 1_655 S
C1874 C1872 1.388 . S
C1874 C1875 1.366 1_655 S
C1875 C1874 1.366 1_455 S
C1875 C1876 1.414 1_455 S
C1875 C1878 1.499 . S
C1876 H1856 0.950 . S
C1876 C1875 1.414 1_655 S
C1876 C1877 1.374 . S
C1877 H1857 0.950 . S
C1877 C1873 1.385 . S
C1877 C1876 1.374 . S
C1878 C1875 1.499 . S
C1878 C1879 1.373 . S
C1878 C1880 1.389 . S
C1879 H1858 0.950 1_455 S
C1879 C1878 1.373 . S
C1879 C1895 1.377 . S
C1880 C1878 1.389 . S
C1880 C1881 1.524 . S
C1880 C1894 1.377 . S
C1881 C1880 1.524 . S
C1881 C1882 1.397 . S
C1881 C1886 1.363 . S
C1882 H1859 0.950 . S
C1882 C1881 1.397 . S
C1882 C1883 1.334 . S
C1883 H1860 0.950 . S
C1883 C1882 1.334 . S
C1883 C1884 1.287 . S
C1884 C1883 1.287 . S
C1884 C1885 1.524 . S
C1884 H1903 0.913 . S
C1885 H1861 0.950 . S
C1885 C1884 1.524 . S
C1885 C1886 1.415 . S
C1886 H1862 0.950 . S
C1886 C1881 1.363 . S
C1886 C1885 1.415 . S
C1887 H1863 0.951 . S
C1887 C1888 1.366 . S
C1887 C1889 1.388 . S
C1888 C1887 1.366 . S
C1888 C1892 1.385 . S
C1889 H1864 0.951 . S
C1889 C1887 1.388 . S
C1889 C1890 1.366 . S
C1890 C1889 1.366 . S
C1890 C1891 1.414 . S
C1890 C1893 1.499 . S
C1891 H1865 0.950 . S
C1891 C1890 1.414 . S
C1891 C1892 1.374 . S
C1892 H1866 0.950 . S
C1892 C1888 1.385 . S
C1892 C1891 1.374 . S
C1893 C1890 1.499 . S
C1893 C1894 1.373 . S
C1893 C1895 1.389 . S
C1894 H1867 0.950 . S
C1894 C1880 1.377 . S
C1894 C1893 1.373 . S
C1895 C1879 1.377 . S
C1895 C1893 1.389 . S
C1895 C1896 1.524 . S
C1896 C1895 1.524 . S
C1896 C1897 1.397 1_455 S
C1896 C1901 1.363 1_455 S
C1897 H1868 0.930 1_655 S
C1897 C1896 1.397 1_655 S
C1897 C1898 1.334 . S
C1898 H1869 0.950 . S
C1898 C1897 1.334 . S
C1898 C1899 1.287 . S
C1899 C1898 1.287 . S
C1899 C1900 1.524 . S
C1899 H1902 0.999 . S
C1900 H1870 0.950 . S
C1900 C1899 1.524 . S
C1900 C1901 1.415 . S
C1901 H1871 0.950 . S
C1901 C1896 1.363 1_655 S
C1901 C1900 1.415 . S
H1902 C1899 0.999 . S
H1903 C1884 0.913 . S
H1904 C1922 0.951 . S
H1905 C1924 0.951 . S
H1906 C1926 0.950 . S
H1907 C1927 0.950 . S
H1908 C1929 0.950 . S
H1909 C1932 0.950 . S
H1910 C1933 0.950 . S
H1911 C1935 0.950 . S
H1912 C1936 0.950 . S
H1913 C1937 0.951 . S
H1914 C1939 0.951 . S
H1915 C1941 0.950 . S
H1916 C1942 0.950 . S
H1917 C1944 0.950 . S
H1918 C1947 0.950 . S
H1919 C1948 0.950 . S
H1920 C1950 0.950 . S
H1921 C1951 0.950 . S
C1922 H1904 0.951 . S
C1922 C1923 1.366 . S
C1922 C1924 1.388 . S
C1923 C1922 1.366 . S
C1923 C1927 1.385 . S
C1924 H1905 0.951 . S
C1924 C1922 1.388 . S
C1924 C1925 1.366 . S
C1925 C1924 1.366 . S
C1925 C1926 1.414 . S
C1925 C1928 1.499 . S
C1926 H1906 0.950 . S
C1926 C1925 1.414 . S
C1926 C1927 1.374 . S
C1927 H1907 0.950 . S
C1927 C1923 1.385 . S
C1927 C1926 1.374 . S
C1928 C1925 1.499 . S
C1928 C1929 1.373 . S
C1928 C1930 1.389 . S
C1929 H1908 0.950 . S
C1929 C1928 1.373 . S
C1929 C1945 1.377 . S
C1930 C1928 1.389 . S
C1930 C1931 1.524 . S
C1930 C1944 1.377 . S
C1931 C1930 1.524 . S
C1931 C1932 1.397 . S
C1931 C1936 1.363 . S
C1932 H1909 0.950 . S
C1932 C1931 1.397 . S
C1932 C1933 1.334 . S
C1933 H1910 0.950 . S
C1933 C1932 1.334 . S
C1933 C1934 1.287 . S
C1934 C1933 1.287 . S
C1934 C1935 1.524 . S
C1934 H1953 0.913 . S
C1935 H1911 0.950 . S
C1935 C1934 1.524 . S
C1935 C1936 1.415 . S
C1936 H1912 0.950 . S
C1936 C1931 1.363 . S
C1936 C1935 1.415 . S
C1937 H1913 0.951 . S
C1937 C1938 1.366 . S
C1937 C1939 1.388 . S
C1938 C1937 1.366 . S
C1938 C1942 1.385 . S
C1939 H1914 0.951 . S
C1939 C1937 1.388 . S
C1939 C1940 1.366 . S
C1940 C1939 1.366 . S
C1940 C1941 1.414 . S
C1940 C1943 1.499 . S
C1941 H1915 0.950 . S
C1941 C1940 1.414 . S
C1941 C1942 1.374 . S
C1942 H1916 0.950 . S
C1942 C1938 1.385 . S
C1942 C1941 1.374 . S
C1943 C1940 1.499 . S
C1943 C1944 1.373 . S
C1943 C1945 1.389 . S
C1944 H1917 0.950 . S
C1944 C1930 1.377 . S
C1944 C1943 1.373 . S
C1945 C1929 1.377 . S
C1945 C1943 1.389 . S
C1945 C1946 1.524 . S
C1946 C1945 1.524 . S
C1946 C1947 1.397 . S
C1946 C1951 1.363 . S
C1947 H1918 0.950 . S
C1947 C1946 1.397 . S
C1947 C1948 1.334 . S
C1948 H1919 0.950 . S
C1948 C1947 1.334 . S
C1948 C1949 1.287 . S
C1949 C1948 1.287 . S
C1949 C1950 1.524 . S
C1949 H1952 0.999 . S
C1950 H1920 0.950 . S
C1950 C1949 1.524 . S
C1950 C1951 1.415 . S
C1951 H1921 0.950 . S
C1951 C1946 1.363 . S
C1951 C1950 1.415 . S
H1952 C1949 0.999 . S
H1953 C1934 0.913 . S
H1954 C1972 0.951 . S
H1955 C1974 0.951 . S
H1956 C1976 0.950 . S
H1957 C1977 0.950 . S
H1958 C1979 0.950 . S
H1959 C1982 0.950 . S
H1960 C1983 0.950 . S
H1961 C1985 0.950 . S
H1962 C1986 0.950 1_565 S
H1963 C1987 0.951 . S
H1964 C1989 0.951 . S
H1965 C1991 0.950 . S
H1966 C1992 0.950 . S
H1967 C1994 0.950 . S
H1968 C1997 0.950 . S
H1969 C1998 0.950 . S
H1970 C2000 0.950 . S
H1971 C2001 0.950 . S
C1972 H1954 0.951 . S
C1972 C1973 1.366 . S
C1972 C1974 1.388 1_545 S
C1973 C1972 1.366 . S
C1973 C1977 1.385 . S
C1974 H1955 0.951 . S
C1974 C1972 1.388 1_565 S
C1974 C1975 1.366 . S
C1975 C1974 1.366 . S
C1975 C1976 1.414 1_565 S
C1975 C1978 1.499 . S
C1976 H1956 0.950 . S
C1976 C1975 1.414 1_545 S
C1976 C1977 1.374 . S
C1977 H1957 0.950 . S
C1977 C1973 1.385 . S
C1977 C1976 1.374 . S
C1978 C1975 1.499 . S
C1978 C1979 1.373 . S
C1978 C1980 1.389 . S
C1979 H1958 0.950 . S
C1979 C1978 1.373 . S
C1979 C1995 1.377 . S
C1980 C1978 1.389 . S
C1980 C1981 1.524 1_565 S
C1980 C1994 1.377 . S
C1981 C1980 1.524 1_545 S
C1981 C1982 1.397 . S
C1981 C1986 1.363 . S
C1982 H1959 0.950 . S
C1982 C1981 1.397 . S
C1982 C1983 1.334 . S
C1983 H1960 0.950 . S
C1983 C1982 1.334 . S
C1983 C1984 1.287 . S
C1984 C1983 1.287 . S
C1984 C1985 1.524 . S
C1984 H2003 0.913 . S
C1985 H1961 0.950 . S
C1985 C1984 1.524 . S
C1985 C1986 1.415 . S
C1986 H1962 0.950 1_545 S
C1986 C1981 1.363 . S
C1986 C1985 1.415 . S
C1987 H1963 0.951 . S
C1987 C1988 1.366 . S
C1987 C1989 1.388 . S
C1988 C1987 1.366 . S
C1988 C1992 1.385 . S
C1989 H1964 0.951 . S
C1989 C1987 1.388 . S
C1989 C1990 1.366 . S
C1990 C1989 1.366 . S
C1990 C1991 1.414 . S
C1990 C1993 1.499 . S
C1991 H1965 0.950 . S
C1991 C1990 1.414 . S
C1991 C1992 1.374 . S
C1992 H1966 0.950 . S
C1992 C1988 1.385 . S
C1992 C1991 1.374 . S
C1993 C1990 1.499 . S
C1993 C1994 1.373 . S
C1993 C1995 1.389 . S
C1994 H1967 0.950 . S
C1994 C1980 1.377 . S
C1994 C1993 1.373 . S
C1995 C1979 1.377 . S
C1995 C1993 1.389 . S
C1995 C1996 1.524 . S
C1996 C1995 1.524 . S
C1996 C1997 1.397 . S
C1996 C2001 1.363 . S
C1997 H1968 0.950 . S
C1997 C1996 1.397 . S
C1997 C1998 1.334 . S
C1998 H1969 0.950 . S
C1998 C1997 1.334 . S
C1998 C1999 1.287 . S
C1999 C1998 1.287 . S
C1999 C2000 1.524 . S
C1999 H2002 0.999 . S
C2000 H1970 0.950 . S
C2000 C1999 1.524 . S
C2000 C2001 1.415 . S
C2001 H1971 0.950 . S
C2001 C1996 1.363 . S
C2001 C2000 1.415 . S
H2002 C1999 0.999 . S
H2003 C1984 0.913 . S
H2004 C2022 0.951 . S
H2005 C2024 0.951 . S
H2006 C2026 0.950 . S
H2007 C2027 0.950 . S
H2008 C2029 0.950 . S
H2009 C2032 0.950 . S
H2010 C2033 0.950 . S
H2011 C2035 0.950 . S
H2012 C2036 0.950 . S
H2013 C2037 0.951 . S
H2014 C2039 0.951 . S
H2015 C2041 0.950 . S
H2016 C2042 0.950 . S
H2017 C2044 0.950 . S
H2018 C2047 0.950 . S
H2019 C2048 0.950 . S
H2020 C2050 0.950 . S
H2021 C2051 0.950 . S
C2022 H2004 0.951 . S
C2022 C2023 1.366 . S
C2022 C2024 1.388 . S
C2023 C2022 1.366 . S
C2023 C2027 1.385 . S
C2024 H2005 0.951 . S
C2024 C2022 1.388 . S
C2024 C2025 1.366 . S
C2025 C2024 1.366 . S
C2025 C2026 1.414 . S
C2025 C2028 1.499 . S
C2026 H2006 0.950 . S
C2026 C2025 1.414 . S
C2026 C2027 1.374 . S
C2027 H2007 0.950 . S
C2027 C2023 1.385 . S
C2027 C2026 1.374 . S
C2028 C2025 1.499 . S
C2028 C2029 1.373 . S
C2028 C2030 1.389 . S
C2029 H2008 0.950 . S
C2029 C2028 1.373 . S
C2029 C2045 1.377 . S
C2030 C2028 1.389 . S
C2030 C2031 1.524 . S
C2030 C2044 1.377 . S
C2031 C2030 1.524 . S
C2031 C2032 1.397 . S
C2031 C2036 1.363 . S
C2032 H2009 0.950 . S
C2032 C2031 1.397 . S
C2032 C2033 1.334 . S
C2033 H2010 0.950 . S
C2033 C2032 1.334 . S
C2033 C2034 1.287 . S
C2034 C2033 1.287 . S
C2034 C2035 1.524 . S
C2034 H2053 0.913 . S
C2035 H2011 0.950 . S
C2035 C2034 1.524 . S
C2035 C2036 1.415 . S
C2036 H2012 0.950 . S
C2036 C2031 1.363 . S
C2036 C2035 1.415 . S
C2037 H2013 0.951 . S
C2037 C2038 1.366 . S
C2037 C2039 1.388 . S
C2038 C2037 1.366 . S
C2038 C2042 1.385 . S
C2039 H2014 0.951 . S
C2039 C2037 1.388 . S
C2039 C2040 1.366 . S
C2040 C2039 1.366 . S
C2040 C2041 1.414 . S
C2040 C2043 1.499 . S
C2041 H2015 0.950 . S
C2041 C2040 1.414 . S
C2041 C2042 1.374 . S
C2042 H2016 0.950 . S
C2042 C2038 1.385 . S
C2042 C2041 1.374 . S
C2043 C2040 1.499 . S
C2043 C2044 1.373 . S
C2043 C2045 1.389 . S
C2044 H2017 0.950 . S
C2044 C2030 1.377 . S
C2044 C2043 1.373 . S
C2045 C2029 1.377 . S
C2045 C2043 1.389 . S
C2045 C2046 1.524 . S
C2046 C2045 1.524 . S
C2046 C2047 1.397 . S
C2046 C2051 1.363 . S
C2047 H2018 0.950 . S
C2047 C2046 1.397 . S
C2047 C2048 1.334 . S
C2048 H2019 0.950 . S
C2048 C2047 1.334 . S
C2048 C2049 1.287 . S
C2049 C2048 1.287 . S
C2049 C2050 1.524 . S
C2049 H2052 0.999 . S
C2050 H2020 0.950 . S
C2050 C2049 1.524 . S
C2050 C2051 1.415 . S
C2051 H2021 0.950 . S
C2051 C2046 1.363 . S
C2051 C2050 1.415 . S
H2052 C2049 0.999 . S
H2053 C2034 0.913 . S
H2054 C2072 0.951 . S
H2055 C2074 0.951 . S
H2056 C2076 0.950 . S
H2057 C2077 0.950 . S
H2058 C2079 0.950 . S
H2059 C2082 0.950 . S
H2060 C2083 0.950 . S
H2061 C2085 0.950 . S
H2062 C2086 0.950 . S
H2063 C2087 0.951 . S
H2064 C2089 0.951 . S
H2065 C2091 0.950 . S
H2066 C2092 0.950 . S
H2067 C2094 0.950 . S
H2068 C2097 0.950 . S
H2069 C2098 0.950 . S
H2070 C2100 0.950 . S
H2071 C2101 0.950 . S
C2072 H2054 0.951 . S
C2072 C2073 1.366 . S
C2072 C2074 1.388 . S
C2073 C2072 1.366 . S
C2073 C2077 1.385 . S
C2074 H2055 0.951 . S
C2074 C2072 1.388 . S
C2074 C2075 1.366 . S
C2075 C2074 1.366 . S
C2075 C2076 1.414 . S
C2075 C2078 1.499 . S
C2076 H2056 0.950 . S
C2076 C2075 1.414 . S
C2076 C2077 1.374 . S
C2077 H2057 0.950 . S
C2077 C2073 1.385 . S
C2077 C2076 1.374 . S
C2078 C2075 1.499 . S
C2078 C2079 1.373 . S
C2078 C2080 1.389 . S
C2079 H2058 0.950 . S
C2079 C2078 1.373 . S
C2079 C2095 1.377 1_545 S
C2080 C2078 1.389 . S
C2080 C2081 1.524 . S
C2080 C2094 1.377 1_545 S
C2081 C2080 1.524 . S
C2081 C2082 1.397 . S
C2081 C2086 1.363 . S
C2082 H2059 0.950 . S
C2082 C2081 1.397 . S
C2082 C2083 1.334 . S
C2083 H2060 0.950 . S
C2083 C2082 1.334 . S
C2083 C2084 1.287 . S
C2084 C2083 1.287 . S
C2084 C2085 1.524 . S
C2084 H2103 0.913 . S
C2085 H2061 0.950 . S
C2085 C2084 1.524 . S
C2085 C2086 1.415 . S
C2086 H2062 0.950 . S
C2086 C2081 1.363 . S
C2086 C2085 1.415 . S
C2087 H2063 0.951 . S
C2087 C2088 1.366 . S
C2087 C2089 1.388 . S
C2088 C2087 1.366 . S
C2088 C2092 1.385 . S
C2089 H2064 0.951 . S
C2089 C2087 1.388 . S
C2089 C2090 1.366 . S
C2090 C2089 1.366 . S
C2090 C2091 1.414 . S
C2090 C2093 1.499 . S
C2091 H2065 0.950 . S
C2091 C2090 1.414 . S
C2091 C2092 1.374 . S
C2092 H2066 0.950 . S
C2092 C2088 1.385 . S
C2092 C2091 1.374 . S
C2093 C2090 1.499 . S
C2093 C2094 1.373 . S
C2093 C2095 1.389 . S
C2094 H2067 0.950 . S
C2094 C2080 1.377 1_565 S
C2094 C2093 1.373 . S
C2095 C2079 1.377 1_565 S
C2095 C2093 1.389 . S
C2095 C2096 1.524 . S
C2096 C2095 1.524 . S
C2096 C2097 1.397 . S
C2096 C2101 1.363 . S
C2097 H2068 0.950 . S
C2097 C2096 1.397 . S
C2097 C2098 1.334 . S
C2098 H2069 0.950 . S
C2098 C2097 1.334 . S
C2098 C2099 1.287 . S
C2099 C2098 1.287 . S
C2099 C2100 1.524 . S
C2099 H2102 0.999 . S
C2100 H2070 0.950 . S
C2100 C2099 1.524 . S
C2100 C2101 1.415 . S
C2101 H2071 0.950 . S
C2101 C2096 1.363 . S
C2101 C2100 1.415 . S
H2102 C2099 0.999 . S
H2103 C2084 0.913 . S
H2104 C2122 0.951 . S
H2105 C2124 0.951 . S
H2106 C2126 0.950 . S
H2107 C2127 0.950 . S
H2108 C2129 0.950 . S
H2109 C2132 0.950 . S
H2110 C2133 0.950 . S
H2111 C2135 0.950 . S
H2112 C2136 0.950 . S
H2113 C2137 0.951 . S
H2114 C2139 0.951 . S
H2115 C2141 0.950 . S
H2116 C2142 0.950 . S
H2117 C2144 0.950 . S
H2118 C2147 0.950 . S
H2119 C2148 0.950 . S
H2120 C2150 0.950 . S
H2121 C2151 0.950 . S
C2122 H2104 0.951 . S
C2122 C2123 1.366 . S
C2122 C2124 1.388 . S
C2123 C2122 1.366 . S
C2123 C2127 1.385 . S
C2124 H2105 0.951 . S
C2124 C2122 1.388 . S
C2124 C2125 1.366 . S
C2125 C2124 1.366 . S
C2125 C2126 1.414 . S
C2125 C2128 1.499 . S
C2126 H2106 0.950 . S
C2126 C2125 1.414 . S
C2126 C2127 1.374 . S
C2127 H2107 0.950 . S
C2127 C2123 1.385 . S
C2127 C2126 1.374 . S
C2128 C2125 1.499 . S
C2128 C2129 1.373 . S
C2128 C2130 1.389 . S
C2129 H2108 0.950 . S
C2129 C2128 1.373 . S
C2129 C2145 1.377 1_655 S
C2130 C2128 1.389 . S
C2130 C2131 1.524 . S
C2130 C2144 1.377 1_655 S
C2131 C2130 1.524 . S
C2131 C2132 1.397 . S
C2131 C2136 1.363 . S
C2132 H2109 0.950 . S
C2132 C2131 1.397 . S
C2132 C2133 1.334 . S
C2133 H2110 0.950 . S
C2133 C2132 1.334 . S
C2133 C2134 1.287 . S
C2134 C2133 1.287 . S
C2134 C2135 1.524 . S
C2134 H2153 0.913 . S
C2135 H2111 0.950 . S
C2135 C2134 1.524 . S
C2135 C2136 1.415 . S
C2136 H2112 0.950 . S
C2136 C2131 1.363 . S
C2136 C2135 1.415 . S
C2137 H2113 0.951 . S
C2137 C2138 1.366 . S
C2137 C2139 1.388 . S
C2138 C2137 1.366 . S
C2138 C2142 1.385 . S
C2139 H2114 0.951 . S
C2139 C2137 1.388 . S
C2139 C2140 1.366 . S
C2140 C2139 1.366 . S
C2140 C2141 1.414 . S
C2140 C2143 1.499 . S
C2141 H2115 0.950 . S
C2141 C2140 1.414 . S
C2141 C2142 1.374 . S
C2142 H2116 0.950 . S
C2142 C2138 1.385 . S
C2142 C2141 1.374 . S
C2143 C2140 1.499 . S
C2143 C2144 1.373 . S
C2143 C2145 1.389 . S
C2144 H2117 0.950 . S
C2144 C2130 1.377 1_455 S
C2144 C2143 1.373 . S
C2145 C2129 1.377 1_455 S
C2145 C2143 1.389 . S
C2145 C2146 1.524 . S
C2146 C2145 1.524 . S
C2146 C2147 1.397 . S
C2146 C2151 1.363 . S
C2147 H2118 0.950 . S
C2147 C2146 1.397 . S
C2147 C2148 1.334 . S
C2148 H2119 0.950 . S
C2148 C2147 1.334 . S
C2148 C2149 1.287 . S
C2149 C2148 1.287 . S
C2149 C2150 1.524 . S
C2149 H2152 0.999 . S
C2150 H2120 0.950 . S
C2150 C2149 1.524 . S
C2150 C2151 1.415 . S
C2151 H2121 0.950 . S
C2151 C2146 1.363 . S
C2151 C2150 1.415 . S
H2152 C2149 0.999 . S
H2153 C2134 0.913 . S
H2154 C2172 0.951 . S
H2155 C2174 0.951 . S
H2156 C2176 0.950 . S
H2157 C2177 0.950 . S
H2158 C2179 0.950 . S
H2159 C2182 0.950 . S
H2160 C2183 0.950 . S
H2161 C2185 0.950 . S
H2162 C2186 0.950 . S
H2163 C2187 0.951 . S
H2164 C2189 0.951 . S
H2165 C2191 0.950 . S
H2166 C2192 0.950 . S
H2167 C2194 0.950 . S
H2168 C2197 0.950 . S
H2169 C2198 0.950 . S
H2170 C2200 0.950 . S
H2171 C2201 0.950 . S
C2172 H2154 0.951 . S
C2172 C2173 1.366 . S
C2172 C2174 1.388 . S
C2173 C2172 1.366 . S
C2173 C2177 1.385 . S
C2174 H2155 0.951 . S
C2174 C2172 1.388 . S
C2174 C2175 1.366 . S
C2175 C2174 1.366 . S
C2175 C2176 1.414 . S
C2175 C2178 1.499 . S
C2176 H2156 0.950 . S
C2176 C2175 1.414 . S
C2176 C2177 1.374 . S
C2177 H2157 0.950 . S
C2177 C2173 1.385 . S
C2177 C2176 1.374 . S
C2178 C2175 1.499 . S
C2178 C2179 1.373 . S
C2178 C2180 1.389 . S
C2179 H2158 0.950 . S
C2179 C2178 1.373 . S
C2179 C2195 1.377 . S
C2180 C2178 1.389 . S
C2180 C2181 1.524 . S
C2180 C2194 1.377 . S
C2181 C2180 1.524 . S
C2181 C2182 1.397 . S
C2181 C2186 1.363 . S
C2182 H2159 0.950 . S
C2182 C2181 1.397 . S
C2182 C2183 1.334 . S
C2183 H2160 0.950 . S
C2183 C2182 1.334 . S
C2183 C2184 1.287 . S
C2184 C2183 1.287 . S
C2184 C2185 1.524 . S
C2184 H2203 0.913 . S
C2185 H2161 0.950 . S
C2185 C2184 1.524 . S
C2185 C2186 1.415 . S
C2186 H2162 0.950 . S
C2186 C2181 1.363 . S
C2186 C2185 1.415 . S
C2187 H2163 0.951 . S
C2187 C2188 1.366 . S
C2187 C2189 1.388 . S
C2188 C2187 1.366 . S
C2188 C2192 1.385 . S
C2189 H2164 0.951 . S
C2189 C2187 1.388 . S
C2189 C2190 1.366 . S
C2190 C2189 1.366 . S
C2190 C2191 1.414 . S
C2190 C2193 1.499 . S
C2191 H2165 0.950 . S
C2191 C2190 1.414 . S
C2191 C2192 1.374 . S
C2192 H2166 0.950 . S
C2192 C2188 1.385 . S
C2192 C2191 1.374 . S
C2193 C2190 1.499 . S
C2193 C2194 1.373 . S
C2193 C2195 1.389 . S
C2194 H2167 0.950 . S
C2194 C2180 1.377 . S
C2194 C2193 1.373 . S
C2195 C2179 1.377 . S
C2195 C2193 1.389 . S
C2195 C2196 1.524 . S
C2196 C2195 1.524 . S
C2196 C2197 1.397 . S
C2196 C2201 1.363 . S
C2197 H2168 0.950 . S
C2197 C2196 1.397 . S
C2197 C2198 1.334 . S
C2198 H2169 0.950 . S
C2198 C2197 1.334 . S
C2198 C2199 1.287 . S
C2199 C2198 1.287 . S
C2199 C2200 1.524 . S
C2199 H2202 0.999 . S
C2200 H2170 0.950 . S
C2200 C2199 1.524 . S
C2200 C2201 1.415 . S
C2201 H2171 0.950 . S
C2201 C2196 1.363 . S
C2201 C2200 1.415 . S
H2202 C2199 0.999 . S
H2203 C2184 0.913 . S
H2204 C2222 0.951 . S
H2205 C2224 0.951 . S
H2206 C2226 0.950 . S
H2207 C2227 0.950 . S
H2208 C2229 0.950 . S
H2209 C2232 0.950 . S
H2210 C2233 0.950 . S
H2211 C2235 0.950 . S
H2212 C2236 0.950 . S
H2213 C2237 0.951 . S
H2214 C2239 0.951 . S
H2215 C2241 0.950 . S
H2216 C2242 0.950 . S
H2217 C2244 0.950 . S
H2218 C2247 0.950 . S
H2219 C2248 0.950 . S
H2220 C2250 0.950 . S
H2221 C2251 0.950 . S
C2222 H2204 0.951 . S
C2222 C2223 1.366 . S
C2222 C2224 1.388 . S
C2223 C2222 1.366 . S
C2223 C2227 1.385 . S
C2224 H2205 0.951 . S
C2224 C2222 1.388 . S
C2224 C2225 1.366 . S
C2225 C2224 1.366 . S
C2225 C2226 1.414 . S
C2225 C2228 1.499 . S
C2226 H2206 0.950 . S
C2226 C2225 1.414 . S
C2226 C2227 1.374 . S
C2227 H2207 0.950 . S
C2227 C2223 1.385 . S
C2227 C2226 1.374 . S
C2228 C2225 1.499 . S
C2228 C2229 1.373 . S
C2228 C2230 1.389 . S
C2229 H2208 0.950 . S
C2229 C2228 1.373 . S
C2229 C2245 1.377 1_565 S
C2230 C2228 1.389 . S
C2230 C2231 1.524 . S
C2230 C2244 1.377 1_565 S
C2231 C2230 1.524 . S
C2231 C2232 1.397 . S
C2231 C2236 1.363 . S
C2232 H2209 0.950 . S
C2232 C2231 1.397 . S
C2232 C2233 1.334 . S
C2233 H2210 0.950 . S
C2233 C2232 1.334 . S
C2233 C2234 1.287 . S
C2234 C2233 1.287 . S
C2234 C2235 1.524 . S
C2234 H2253 0.913 . S
C2235 H2211 0.950 . S
C2235 C2234 1.524 . S
C2235 C2236 1.415 . S
C2236 H2212 0.950 . S
C2236 C2231 1.363 . S
C2236 C2235 1.415 . S
C2237 H2213 0.951 . S
C2237 C2238 1.366 . S
C2237 C2239 1.388 . S
C2238 C2237 1.366 . S
C2238 C2242 1.385 . S
C2239 H2214 0.951 . S
C2239 C2237 1.388 . S
C2239 C2240 1.366 . S
C2240 C2239 1.366 . S
C2240 C2241 1.414 . S
C2240 C2243 1.499 . S
C2241 H2215 0.950 . S
C2241 C2240 1.414 . S
C2241 C2242 1.374 . S
C2242 H2216 0.950 . S
C2242 C2238 1.385 . S
C2242 C2241 1.374 . S
C2243 C2240 1.499 . S
C2243 C2244 1.373 . S
C2243 C2245 1.389 . S
C2244 H2217 0.950 . S
C2244 C2230 1.377 1_545 S
C2244 C2243 1.373 . S
C2245 C2229 1.377 1_545 S
C2245 C2243 1.389 . S
C2245 C2246 1.524 . S
C2246 C2245 1.524 . S
C2246 C2247 1.397 . S
C2246 C2251 1.363 . S
C2247 H2218 0.950 . S
C2247 C2246 1.397 . S
C2247 C2248 1.334 . S
C2248 H2219 0.950 . S
C2248 C2247 1.334 . S
C2248 C2249 1.287 . S
C2249 C2248 1.287 . S
C2249 C2250 1.524 . S
C2249 H2252 0.999 . S
C2250 H2220 0.950 . S
C2250 C2249 1.524 . S
C2250 C2251 1.415 . S
C2251 H2221 0.950 . S
C2251 C2246 1.363 . S
C2251 C2250 1.415 . S
H2252 C2249 0.999 . S
H2253 C2234 0.913 . S
H2254 C2272 0.951 . S
H2255 C2274 0.951 . S
H2256 C2276 0.950 . S
H2257 C2277 0.950 . S
H2258 C2279 0.950 . S
H2259 C2282 0.950 . S
H2260 C2283 0.950 . S
H2261 C2285 0.950 . S
H2262 C2286 0.950 . S
H2263 C2287 0.951 . S
H2264 C2289 0.951 . S
H2265 C2291 0.950 . S
H2266 C2292 0.950 . S
H2267 C2294 0.950 . S
H2268 C2297 0.950 . S
H2269 C2298 0.950 . S
H2270 C2300 0.950 . S
H2271 C2301 0.950 . S
C2272 H2254 0.951 . S
C2272 C2273 1.366 . S
C2272 C2274 1.388 . S
C2273 C2272 1.366 . S
C2273 C2277 1.385 . S
C2274 H2255 0.951 . S
C2274 C2272 1.388 . S
C2274 C2275 1.366 . S
C2275 C2274 1.366 . S
C2275 C2276 1.414 . S
C2275 C2278 1.499 . S
C2276 H2256 0.950 . S
C2276 C2275 1.414 . S
C2276 C2277 1.374 . S
C2277 H2257 0.950 . S
C2277 C2273 1.385 . S
C2277 C2276 1.374 . S
C2278 C2275 1.499 . S
C2278 C2279 1.373 . S
C2278 C2280 1.389 . S
C2279 H2258 0.950 . S
C2279 C2278 1.373 . S
C2279 C2295 1.377 1_655 S
C2280 C2278 1.389 . S
C2280 C2281 1.524 . S
C2280 C2294 1.377 1_655 S
C2281 C2280 1.524 . S
C2281 C2282 1.397 . S
C2281 C2286 1.363 1_655 S
C2282 H2259 0.950 . S
C2282 C2281 1.397 . S
C2282 C2283 1.334 . S
C2283 H2260 0.950 . S
C2283 C2282 1.334 . S
C2283 C2284 1.287 . S
C2284 C2283 1.287 . S
C2284 C2285 1.524 1_655 S
C2284 H2303 0.913 . S
C2285 H2261 0.950 . S
C2285 C2284 1.524 1_455 S
C2285 C2286 1.415 . S
C2286 H2262 0.950 . S
C2286 C2281 1.363 1_455 S
C2286 C2285 1.415 . S
C2287 H2263 0.951 . S
C2287 C2288 1.366 . S
C2287 C2289 1.388 . S
C2288 C2287 1.366 . S
C2288 C2292 1.385 . S
C2289 H2264 0.951 . S
C2289 C2287 1.388 . S
C2289 C2290 1.366 . S
C2290 C2289 1.366 . S
C2290 C2291 1.414 . S
C2290 C2293 1.499 . S
C2291 H2265 0.950 . S
C2291 C2290 1.414 . S
C2291 C2292 1.374 . S
C2292 H2266 0.950 . S
C2292 C2288 1.385 . S
C2292 C2291 1.374 . S
C2293 C2290 1.499 . S
C2293 C2294 1.373 . S
C2293 C2295 1.389 . S
C2294 H2267 0.950 . S
C2294 C2280 1.377 1_455 S
C2294 C2293 1.373 . S
C2295 C2279 1.377 1_455 S
C2295 C2293 1.389 . S
C2295 C2296 1.524 . S
C2296 C2295 1.524 . S
C2296 C2297 1.397 . S
C2296 C2301 1.363 1_455 S
C2297 H2268 0.950 . S
C2297 C2296 1.397 . S
C2297 C2298 1.334 . S
C2298 H2269 0.950 . S
C2298 C2297 1.334 . S
C2298 C2299 1.287 . S
C2299 C2298 1.287 . S
C2299 C2300 1.524 1_455 S
C2299 H2302 0.999 . S
C2300 H2270 0.950 . S
C2300 C2299 1.524 1_655 S
C2300 C2301 1.415 . S
C2301 H2271 0.950 . S
C2301 C2296 1.363 1_655 S
C2301 C2300 1.415 . S
H2302 C2299 0.999 . S
H2303 C2284 0.913 . S
H2304 C2322 0.951 . S
H2305 C2324 0.951 . S
H2306 C2326 0.950 . S
H2307 C2327 0.920 1_655 S
H2308 C2329 0.950 . S
H2309 C2332 0.950 . S
H2310 C2333 0.950 . S
H2311 C2335 0.950 . S
H2312 C2336 0.950 . S
H2313 C2337 0.951 . S
H2314 C2339 0.951 . S
H2315 C2341 0.950 . S
H2316 C2342 0.950 . S
H2317 C2344 0.950 . S
H2318 C2347 0.950 . S
H2319 C2348 0.950 . S
H2320 C2350 0.950 . S
H2321 C2351 0.950 . S
C2322 H2304 0.951 . S
C2322 C2323 1.366 . S
C2322 C2324 1.388 . S
C2323 C2322 1.366 . S
C2323 C2327 1.374 . S
C2324 H2305 0.951 . S
C2324 C2322 1.388 . S
C2324 C2325 1.366 . S
C2325 C2324 1.366 . S
C2325 C2326 1.414 . S
C2325 C2328 1.499 . S
C2326 H2306 0.950 . S
C2326 C2325 1.414 . S
C2326 C2327 1.415 . S
C2327 H2307 0.920 1_455 S
C2327 C2323 1.374 . S
C2327 C2326 1.415 . S
C2328 C2325 1.499 . S
C2328 C2329 1.373 . S
C2328 C2330 1.389 . S
C2329 H2308 0.950 . S
C2329 C2328 1.373 . S
C2329 C2345 1.377 . S
C2330 C2328 1.389 . S
C2330 C2331 1.524 . S
C2330 C2344 1.377 . S
C2331 C2330 1.524 . S
C2331 C2332 1.397 . S
C2331 C2336 1.363 . S
C2332 H2309 0.950 . S
C2332 C2331 1.397 . S
C2332 C2333 1.334 . S
C2333 H2310 0.950 . S
C2333 C2332 1.334 . S
C2333 C2334 1.287 . S
C2334 C2333 1.287 . S
C2334 C2335 1.524 . S
C2334 H2353 0.913 . S
C2335 H2311 0.950 . S
C2335 C2334 1.524 . S
C2335 C2336 1.415 . S
C2336 H2312 0.950 . S
C2336 C2331 1.363 . S
C2336 C2335 1.415 . S
C2337 H2313 0.951 . S
C2337 C2338 1.366 . S
C2337 C2339 1.388 . S
C2338 C2337 1.366 . S
C2338 C2342 1.385 . S
C2339 H2314 0.951 . S
C2339 C2337 1.388 . S
C2339 C2340 1.366 . S
C2340 C2339 1.366 . S
C2340 C2341 1.414 . S
C2340 C2343 1.499 . S
C2341 H2315 0.950 . S
C2341 C2340 1.414 . S
C2341 C2342 1.374 . S
C2342 H2316 0.950 . S
C2342 C2338 1.385 . S
C2342 C2341 1.374 . S
C2343 C2340 1.499 . S
C2343 C2344 1.373 . S
C2343 C2345 1.389 . S
C2344 H2317 0.950 . S
C2344 C2330 1.377 . S
C2344 C2343 1.373 . S
C2345 C2329 1.377 . S
C2345 C2343 1.389 . S
C2345 C2346 1.524 . S
C2346 C2345 1.524 . S
C2346 C2347 1.397 . S
C2346 C2351 1.363 . S
C2347 H2318 0.950 . S
C2347 C2346 1.397 . S
C2347 C2348 1.334 . S
C2348 H2319 0.950 . S
C2348 C2347 1.334 . S
C2348 C2349 1.287 . S
C2349 C2348 1.287 . S
C2349 C2350 1.524 . S
C2349 H2352 0.999 . S
C2350 H2320 0.950 . S
C2350 C2349 1.524 . S
C2350 C2351 1.415 . S
C2351 H2321 0.950 . S
C2351 C2346 1.363 . S
C2351 C2350 1.415 . S
H2352 C2349 0.999 . S
H2353 C2334 0.913 . S
H2354 C2372 0.951 . S
H2355 C2374 0.951 . S
H2356 C2376 0.950 . S
H2357 C2377 0.950 . S
H2358 C2379 0.950 1_545 S
H2359 C2382 0.950 . S
H2360 C2383 0.950 1_545 S
H2361 C2385 0.950 . S
H2362 C2386 0.950 . S
H2363 C2387 0.951 . S
H2364 C2389 0.951 . S
H2365 C2391 0.950 . S
H2366 C2392 0.950 . S
H2367 C2394 0.950 . S
H2368 C2397 0.950 . S
H2369 C2398 0.950 . S
H2370 C2400 0.950 . S
H2371 C2401 0.950 . S
C2372 H2354 0.951 . S
C2372 C2373 1.366 . S
C2372 C2374 1.388 . S
C2373 C2372 1.366 . S
C2373 C2377 1.385 . S
C2374 H2355 0.951 . S
C2374 C2372 1.388 . S
C2374 C2375 1.366 . S
C2375 C2374 1.366 . S
C2375 C2376 1.414 . S
C2375 C2378 1.499 1_545 S
C2376 H2356 0.950 . S
C2376 C2375 1.414 . S
C2376 C2377 1.374 . S
C2377 H2357 0.950 . S
C2377 C2373 1.385 . S
C2377 C2376 1.374 . S
C2378 C2375 1.499 1_565 S
C2378 C2379 1.373 . S
C2378 C2380 1.389 . S
C2379 H2358 0.950 1_565 S
C2379 C2378 1.373 . S
C2379 C2395 1.377 . S
C2380 C2378 1.389 . S
C2380 C2381 1.524 . S
C2380 C2394 1.377 . S
C2381 C2380 1.524 . S
C2381 C2382 1.397 . S
C2381 C2386 1.363 . S
C2382 H2359 0.950 . S
C2382 C2381 1.397 . S
C2382 C2383 1.334 . S
C2383 H2360 0.950 1_565 S
C2383 C2382 1.334 . S
C2383 C2384 1.287 . S
C2384 C2383 1.287 . S
C2384 C2385 1.524 . S
C2384 H2403 0.913 . S
C2385 H2361 0.950 . S
C2385 C2384 1.524 . S
C2385 C2386 1.415 . S
C2386 H2362 0.950 . S
C2386 C2381 1.363 . S
C2386 C2385 1.415 . S
C2387 H2363 0.951 . S
C2387 C2388 1.366 . S
C2387 C2389 1.388 . S
C2388 C2387 1.366 . S
C2388 C2392 1.385 . S
C2389 H2364 0.951 . S
C2389 C2387 1.388 . S
C2389 C2390 1.366 . S
C2390 C2389 1.366 . S
C2390 C2391 1.414 . S
C2390 C2393 1.499 . S
C2391 H2365 0.950 . S
C2391 C2390 1.414 . S
C2391 C2392 1.374 . S
C2392 H2366 0.950 . S
C2392 C2388 1.385 . S
C2392 C2391 1.374 . S
C2393 C2390 1.499 . S
C2393 C2394 1.373 . S
C2393 C2395 1.389 . S
C2394 H2367 0.950 . S
C2394 C2380 1.377 . S
C2394 C2393 1.373 . S
C2395 C2379 1.377 . S
C2395 C2393 1.389 . S
C2395 C2396 1.524 . S
C2396 C2395 1.524 . S
C2396 C2397 1.397 . S
C2396 C2401 1.363 . S
C2397 H2368 0.950 . S
C2397 C2396 1.397 . S
C2397 C2398 1.334 . S
C2398 H2369 0.950 . S
C2398 C2397 1.334 . S
C2398 C2399 1.287 . S
C2399 C2398 1.287 . S
C2399 C2400 1.524 . S
C2399 H2402 0.999 . S
C2400 H2370 0.950 . S
C2400 C2399 1.524 . S
C2400 C2401 1.415 . S
C2401 H2371 0.950 . S
C2401 C2396 1.363 . S
C2401 C2400 1.415 . S
H2402 C2399 0.999 . S
H2403 C2384 0.913 . S
H2404 C2422 0.951 . S
H2405 C2424 0.951 . S
H2406 C2426 0.950 . S
H2407 C2427 0.950 . S
H2408 C2429 0.950 1_655 S
H2409 C2432 0.950 . S
H2410 C2433 0.950 1_655 S
H2411 C2435 0.950 . S
H2412 C2436 0.950 . S
H2413 C2437 0.951 . S
H2414 C2439 0.951 . S
H2415 C2441 0.950 . S
H2416 C2442 0.950 . S
H2417 C2444 0.950 . S
H2418 C2447 0.950 . S
H2419 C2448 0.950 . S
H2420 C2450 0.950 . S
H2421 C2451 0.950 . S
C2422 H2404 0.951 . S
C2422 C2423 1.366 . S
C2422 C2424 1.388 . S
C2423 C2422 1.366 . S
C2423 C2427 1.385 . S
C2424 H2405 0.951 . S
C2424 C2422 1.388 . S
C2424 C2425 1.366 . S
C2425 C2424 1.366 . S
C2425 C2426 1.414 . S
C2425 C2428 1.499 1_655 S
C2426 H2406 0.950 . S
C2426 C2425 1.414 . S
C2426 C2427 1.374 . S
C2427 H2407 0.950 . S
C2427 C2423 1.385 . S
C2427 C2426 1.374 . S
C2428 C2425 1.499 1_455 S
C2428 C2429 1.373 . S
C2428 C2430 1.389 . S
C2429 H2408 0.950 1_455 S
C2429 C2428 1.373 . S
C2429 C2445 1.377 . S
C2430 C2428 1.389 . S
C2430 C2431 1.524 . S
C2430 C2444 1.377 . S
C2431 C2430 1.524 . S
C2431 C2432 1.397 . S
C2431 C2436 1.363 . S
C2432 H2409 0.950 . S
C2432 C2431 1.397 . S
C2432 C2433 1.334 . S
C2433 H2410 0.950 1_455 S
C2433 C2432 1.334 . S
C2433 C2434 1.287 . S
C2434 C2433 1.287 . S
C2434 C2435 1.524 . S
C2434 H2453 0.913 . S
C2435 H2411 0.950 . S
C2435 C2434 1.524 . S
C2435 C2436 1.415 . S
C2436 H2412 0.950 . S
C2436 C2431 1.363 . S
C2436 C2435 1.415 . S
C2437 H2413 0.951 . S
C2437 C2438 1.366 . S
C2437 C2439 1.388 . S
C2438 C2437 1.366 . S
C2438 C2442 1.385 . S
C2439 H2414 0.951 . S
C2439 C2437 1.388 . S
C2439 C2440 1.366 . S
C2440 C2439 1.366 . S
C2440 C2441 1.414 . S
C2440 C2443 1.499 . S
C2441 H2415 0.950 . S
C2441 C2440 1.414 . S
C2441 C2442 1.374 . S
C2442 H2416 0.950 . S
C2442 C2438 1.385 . S
C2442 C2441 1.374 . S
C2443 C2440 1.499 . S
C2443 C2444 1.373 . S
C2443 C2445 1.389 . S
C2444 H2417 0.950 . S
C2444 C2430 1.377 . S
C2444 C2443 1.373 . S
C2445 C2429 1.377 . S
C2445 C2443 1.389 . S
C2445 C2446 1.524 . S
C2446 C2445 1.524 . S
C2446 C2447 1.397 . S
C2446 C2451 1.363 . S
C2447 H2418 0.950 . S
C2447 C2446 1.397 . S
C2447 C2448 1.334 1_565 S
C2448 H2419 0.950 . S
C2448 C2447 1.334 1_545 S
C2448 C2449 1.287 . S
C2449 C2448 1.287 . S
C2449 C2450 1.524 1_545 S
C2449 H2452 0.999 . S
C2450 H2420 0.950 . S
C2450 C2449 1.524 1_565 S
C2450 C2451 1.415 . S
C2451 H2421 0.950 . S
C2451 C2446 1.363 . S
C2451 C2450 1.415 . S
H2452 C2449 0.999 . S
H2453 C2434 0.913 . S
H2454 C2472 0.951 . S
H2455 C2474 0.951 . S
H2456 C2476 0.950 . S
H2457 C2477 0.950 . S
H2458 C2479 0.950 . S
H2459 C2482 0.950 . S
H2460 C2483 0.950 . S
H2461 C2485 0.950 . S
H2462 C2486 0.950 . S
H2463 C2487 0.951 1_565 S
H2464 C2489 0.951 . S
H2465 C2491 0.950 . S
H2466 C2492 0.950 . S
H2467 C2494 0.950 . S
H2468 C2497 0.950 . S
H2469 C2498 0.950 . S
H2470 C2500 0.950 . S
H2471 C2501 0.950 . S
C2472 H2454 0.951 . S
C2472 C2473 1.366 . S
C2472 C2474 1.388 . S
C2473 C2472 1.366 . S
C2473 C2477 1.385 . S
C2474 H2455 0.951 . S
C2474 C2472 1.388 . S
C2474 C2475 1.366 . S
C2475 C2474 1.366 . S
C2475 C2476 1.414 . S
C2475 C2478 1.499 . S
C2476 H2456 0.950 . S
C2476 C2475 1.414 . S
C2476 C2477 1.374 . S
C2477 H2457 0.950 . S
C2477 C2473 1.385 . S
C2477 C2476 1.374 . S
C2478 C2475 1.499 . S
C2478 C2479 1.373 . S
C2478 C2480 1.389 . S
C2479 H2458 0.950 . S
C2479 C2478 1.373 . S
C2479 C2495 1.377 . S
C2480 C2478 1.389 . S
C2480 C2481 1.524 . S
C2480 C2494 1.377 . S
C2481 C2480 1.524 . S
C2481 C2482 1.397 . S
C2481 C2486 1.363 . S
C2482 H2459 0.950 . S
C2482 C2481 1.397 . S
C2482 C2483 1.334 . S
C2483 H2460 0.950 . S
C2483 C2482 1.334 . S
C2483 C2484 1.287 . S
C2484 C2483 1.287 . S
C2484 C2485 1.524 . S
C2484 H2503 0.913 . S
C2485 H2461 0.950 . S
C2485 C2484 1.524 . S
C2485 C2486 1.415 . S
C2486 H2462 0.950 . S
C2486 C2481 1.363 . S
C2486 C2485 1.415 . S
C2487 H2463 0.951 1_545 S
C2487 C2488 1.366 . S
C2487 C2489 1.388 . S
C2488 C2487 1.366 . S
C2488 C2492 1.385 . S
C2489 H2464 0.951 . S
C2489 C2487 1.388 . S
C2489 C2490 1.366 . S
C2490 C2489 1.366 . S
C2490 C2491 1.414 . S
C2490 C2493 1.499 . S
C2491 H2465 0.950 . S
C2491 C2490 1.414 . S
C2491 C2492 1.374 . S
C2492 H2466 0.950 . S
C2492 C2488 1.385 . S
C2492 C2491 1.374 . S
C2493 C2490 1.499 . S
C2493 C2494 1.373 . S
C2493 C2495 1.389 . S
C2494 H2467 0.950 . S
C2494 C2480 1.377 . S
C2494 C2493 1.373 . S
C2495 C2479 1.377 . S
C2495 C2493 1.389 . S
C2495 C2496 1.524 . S
C2496 C2495 1.524 . S
C2496 C2497 1.397 . S
C2496 C2501 1.363 . S
C2497 H2468 0.950 . S
C2497 C2496 1.397 . S
C2497 C2498 1.334 . S
C2498 H2469 0.950 . S
C2498 C2497 1.334 . S
C2498 C2499 1.287 . S
C2499 C2498 1.287 . S
C2499 C2500 1.524 . S
C2499 H2502 0.999 . S
C2500 H2470 0.950 . S
C2500 C2499 1.524 . S
C2500 C2501 1.415 . S
C2501 H2471 0.950 . S
C2501 C2496 1.363 . S
C2501 C2500 1.415 . S
H2502 C2499 0.999 . S
H2503 C2484 0.913 . S
H2504 C2522 0.951 . S
H2505 C2524 0.951 . S
H2506 C2526 0.950 . S
H2507 C2527 0.950 1_455 S
H2508 C2529 0.950 . S
H2509 C2532 0.950 . S
H2510 C2533 0.950 1_455 S
H2511 C2535 0.950 . S
H2512 C2536 0.950 . S
H2513 C2537 0.951 . S
H2514 C2539 0.951 . S
H2515 C2541 0.950 . S
H2516 C2542 0.950 . S
H2517 C2544 0.950 . S
H2518 C2547 0.950 . S
H2519 C2548 0.950 . S
H2520 C2550 0.950 . S
H2521 C2551 0.950 . S
C2522 H2504 0.951 . S
C2522 C2523 1.366 . S
C2522 C2524 1.388 . S
C2523 C2522 1.366 . S
C2523 C2527 1.385 . S
C2524 H2505 0.951 . S
C2524 C2522 1.388 . S
C2524 C2525 1.366 . S
C2525 C2524 1.366 . S
C2525 C2526 1.414 . S
C2525 C2528 1.499 . S
C2526 H2506 0.950 . S
C2526 C2525 1.414 . S
C2526 C2527 1.374 . S
C2527 H2507 0.950 1_655 S
C2527 C2523 1.385 . S
C2527 C2526 1.374 . S
C2528 C2525 1.499 . S
C2528 C2529 1.373 . S
C2528 C2530 1.389 . S
C2529 H2508 0.950 . S
C2529 C2528 1.373 . S
C2529 C2545 1.377 . S
C2530 C2528 1.389 . S
C2530 C2531 1.524 . S
C2530 C2544 1.377 . S
C2531 C2530 1.524 . S
C2531 C2532 1.397 . S
C2531 C2536 1.363 . S
C2532 H2509 0.950 . S
C2532 C2531 1.397 . S
C2532 C2533 1.334 . S
C2533 H2510 0.950 1_655 S
C2533 C2532 1.334 . S
C2533 C2534 1.287 . S
C2534 C2533 1.287 . S
C2534 C2535 1.524 . S
C2534 H2553 0.913 . S
C2535 H2511 0.950 . S
C2535 C2534 1.524 . S
C2535 C2536 1.415 . S
C2536 H2512 0.950 . S
C2536 C2531 1.363 . S
C2536 C2535 1.415 . S
C2537 H2513 0.951 . S
C2537 C2538 1.366 . S
C2537 C2539 1.388 . S
C2538 C2537 1.366 . S
C2538 C2542 1.385 . S
C2539 H2514 0.951 . S
C2539 C2537 1.388 . S
C2539 C2540 1.366 . S
C2540 C2539 1.366 . S
C2540 C2541 1.414 . S
C2540 C2543 1.499 1_565 S
C2541 H2515 0.950 . S
C2541 C2540 1.414 . S
C2541 C2542 1.374 . S
C2542 H2516 0.950 . S
C2542 C2538 1.385 . S
C2542 C2541 1.374 . S
C2543 C2540 1.499 1_545 S
C2543 C2544 1.373 . S
C2543 C2545 1.389 . S
C2544 H2517 0.950 . S
C2544 C2530 1.377 . S
C2544 C2543 1.373 . S
C2545 C2529 1.377 . S
C2545 C2543 1.389 . S
C2545 C2546 1.524 . S
C2546 C2545 1.524 . S
C2546 C2547 1.397 1_545 S
C2546 C2551 1.363 . S
C2547 H2518 0.950 . S
C2547 C2546 1.397 1_565 S
C2547 C2548 1.334 . S
C2548 H2519 0.950 . S
C2548 C2547 1.334 . S
C2548 C2549 1.287 . S
C2549 C2548 1.287 . S
C2549 C2550 1.524 . S
C2549 H2552 0.999 . S
C2550 H2520 0.950 . S
C2550 C2549 1.524 . S
C2550 C2551 1.415 1_565 S
C2551 H2521 0.950 . S
C2551 C2546 1.363 . S
C2551 C2550 1.415 1_545 S
H2552 C2549 0.999 . S
H2553 C2534 0.913 . S
H2554 C2572 0.951 . S
H2555 C2574 0.951 . S
H2556 C2576 0.950 . S
H2557 C2577 0.950 . S
H2558 C2579 0.950 . S
H2559 C2582 0.950 . S
H2560 C2583 0.950 . S
H2561 C2585 0.950 . S
H2562 C2586 0.950 . S
H2563 C2587 0.951 . S
H2564 C2589 0.951 . S
H2565 C2591 0.950 . S
H2566 C2592 0.950 . S
H2567 C2594 0.950 . S
H2568 C2597 0.950 . S
H2569 C2598 0.950 . S
H2570 C2600 0.950 . S
H2571 C2601 0.950 . S
C2572 H2554 0.951 . S
C2572 C2573 1.366 . S
C2572 C2574 1.388 . S
C2573 C2572 1.366 . S
C2573 C2577 1.385 . S
C2574 H2555 0.951 . S
C2574 C2572 1.388 . S
C2574 C2575 1.366 . S
C2575 C2574 1.366 . S
C2575 C2576 1.414 . S
C2575 C2578 1.499 1_455 S
C2576 H2556 0.950 . S
C2576 C2575 1.414 . S
C2576 C2577 1.374 . S
C2577 H2557 0.950 . S
C2577 C2573 1.385 . S
C2577 C2576 1.374 . S
C2578 C2575 1.499 1_655 S
C2578 C2579 1.373 . S
C2578 C2580 1.389 . S
C2579 H2558 0.950 . S
C2579 C2578 1.373 . S
C2579 C2595 1.377 . S
C2580 C2578 1.389 . S
C2580 C2581 1.524 . S
C2580 C2594 1.377 . S
C2581 C2580 1.524 . S
C2581 C2582 1.397 . S
C2581 C2586 1.363 . S
C2582 H2559 0.950 . S
C2582 C2581 1.397 . S
C2582 C2583 1.334 1_655 S
C2583 H2560 0.950 . S
C2583 C2582 1.334 1_455 S
C2583 C2584 1.287 . S
C2584 C2583 1.287 . S
C2584 C2585 1.524 1_455 S
C2584 H2603 0.913 . S
C2585 H2561 0.950 . S
C2585 C2584 1.524 1_655 S
C2585 C2586 1.415 . S
C2586 H2562 0.950 . S
C2586 C2581 1.363 . S
C2586 C2585 1.415 . S
C2587 H2563 0.951 . S
C2587 C2588 1.366 . S
C2587 C2589 1.388 . S
C2588 C2587 1.366 . S
C2588 C2592 1.385 . S
C2589 H2564 0.951 . S
C2589 C2587 1.388 . S
C2589 C2590 1.366 . S
C2590 C2589 1.366 . S
C2590 C2591 1.414 . S
C2590 C2593 1.499 . S
C2591 H2565 0.950 . S
C2591 C2590 1.414 . S
C2591 C2592 1.374 . S
C2592 H2566 0.950 . S
C2592 C2588 1.385 . S
C2592 C2591 1.374 . S
C2593 C2590 1.499 . S
C2593 C2594 1.373 . S
C2593 C2595 1.389 . S
C2594 H2567 0.950 . S
C2594 C2580 1.377 . S
C2594 C2593 1.373 . S
C2595 C2579 1.377 . S
C2595 C2593 1.389 . S
C2595 C2596 1.524 . S
C2596 C2595 1.524 . S
C2596 C2597 1.397 . S
C2596 C2601 1.363 . S
C2597 H2568 0.950 . S
C2597 C2596 1.397 . S
C2597 C2598 1.334 . S
C2598 H2569 0.950 . S
C2598 C2597 1.334 . S
C2598 C2599 1.287 . S
C2599 C2598 1.287 . S
C2599 C2600 1.524 . S
C2599 H2602 0.999 . S
C2600 H2570 0.950 . S
C2600 C2599 1.524 . S
C2600 C2601 1.415 . S
C2601 H2571 0.950 . S
C2601 C2596 1.363 . S
C2601 C2600 1.415 . S
H2602 C2599 0.999 . S
H2603 C2584 0.913 . S
H2604 C2622 0.951 . S
H2605 C2624 0.951 . S
H2606 C2626 0.950 . S
H2607 C2627 0.950 . S
H2608 C2629 0.950 . S
H2609 C2632 0.950 . S
H2610 C2633 0.950 . S
H2611 C2635 0.950 . S
H2612 C2636 0.950 . S
H2613 C2637 0.951 . S
H2614 C2639 0.951 . S
H2615 C2641 0.950 . S
H2616 C2642 0.937 1_455 S
H2617 C2644 0.950 . S
H2618 C2647 0.950 . S
H2619 C2648 0.950 . S
H2620 C2650 0.950 . S
H2621 C2651 0.950 . S
C2622 H2604 0.951 . S
C2622 C2623 1.366 . S
C2622 C2624 1.388 . S
C2623 C2622 1.366 . S
C2623 C2627 1.385 . S
C2624 H2605 0.951 . S
C2624 C2622 1.388 . S
C2624 C2625 1.366 . S
C2625 C2624 1.366 . S
C2625 C2626 1.414 . S
C2625 C2628 1.499 . S
C2626 H2606 0.950 . S
C2626 C2625 1.414 . S
C2626 C2627 1.374 . S
C2627 H2607 0.950 . S
C2627 C2623 1.385 . S
C2627 C2626 1.374 . S
C2628 C2625 1.499 . S
C2628 C2629 1.373 . S
C2628 C2630 1.389 . S
C2629 H2608 0.950 . S
C2629 C2628 1.373 . S
C2629 C2645 1.377 . S
C2630 C2628 1.389 . S
C2630 C2631 1.524 . S
C2630 C2644 1.377 . S
C2631 C2630 1.524 . S
C2631 C2632 1.397 . S
C2631 C2636 1.363 . S
C2632 H2609 0.950 . S
C2632 C2631 1.397 . S
C2632 C2633 1.334 . S
C2633 H2610 0.950 . S
C2633 C2632 1.334 . S
C2633 C2634 1.287 . S
C2634 C2633 1.287 . S
C2634 C2635 1.524 . S
C2634 H2653 0.913 . S
C2635 H2611 0.950 . S
C2635 C2634 1.524 . S
C2635 C2636 1.415 . S
C2636 H2612 0.950 . S
C2636 C2631 1.363 . S
C2636 C2635 1.415 . S
C2637 H2613 0.951 . S
C2637 C2638 1.366 . S
C2637 C2639 1.388 . S
C2638 C2637 1.366 . S
C2638 C2642 1.380 . S
C2639 H2614 0.951 . S
C2639 C2637 1.388 . S
C2639 C2640 1.366 . S
C2640 C2639 1.366 . S
C2640 C2641 1.414 . S
C2640 C2643 1.499 . S
C2641 H2615 0.950 . S
C2641 C2640 1.414 . S
C2641 C2642 1.391 . S
C2642 H2616 0.937 1_655 S
C2642 C2638 1.380 . S
C2642 C2641 1.391 . S
C2643 C2640 1.499 . S
C2643 C2644 1.373 . S
C2643 C2645 1.389 . S
C2644 H2617 0.950 . S
C2644 C2630 1.377 . S
C2644 C2643 1.373 . S
C2645 C2629 1.377 . S
C2645 C2643 1.389 . S
C2645 C2646 1.524 . S
C2646 C2645 1.524 . S
C2646 C2647 1.397 . S
C2646 C2651 1.363 . S
C2647 H2618 0.950 . S
C2647 C2646 1.397 . S
C2647 C2648 1.334 . S
C2648 H2619 0.950 . S
C2648 C2647 1.334 . S
C2648 C2649 1.287 . S
C2649 C2648 1.287 . S
C2649 C2650 1.524 . S
C2649 H2652 0.999 . S
C2650 H2620 0.950 . S
C2650 C2649 1.524 . S
C2650 C2651 1.415 . S
C2651 H2621 0.950 . S
C2651 C2646 1.363 . S
C2651 C2650 1.415 . S
H2652 C2649 0.999 . S
H2653 C2634 0.913 . S
H2654 C2672 0.951 . S
H2655 C2674 0.951 . S
H2656 C2676 0.950 . S
H2657 C2677 0.950 . S
H2658 C2679 0.950 1_565 S
H2659 C2682 0.950 1_565 S
H2660 C2683 0.967 . S
H2661 C2685 0.950 . S
H2662 C2686 0.950 . S
H2663 C2687 0.951 . S
H2664 C2689 0.951 . S
H2665 C2691 0.950 . S
H2666 C2692 0.950 . S
H2667 C2694 0.950 . S
H2668 C2697 0.950 . S
H2669 C2698 0.950 . S
H2670 C2700 0.950 . S
H2671 C2701 0.950 . S
C2672 H2654 0.951 . S
C2672 C2673 1.366 . S
C2672 C2674 1.388 . S
C2673 C2672 1.366 . S
C2673 C2677 1.385 . S
C2674 H2655 0.951 . S
C2674 C2672 1.388 . S
C2674 C2675 1.366 . S
C2675 C2674 1.366 . S
C2675 C2676 1.414 . S
C2675 C2678 1.499 1_565 S
C2676 H2656 0.950 . S
C2676 C2675 1.414 . S
C2676 C2677 1.374 . S
C2677 H2657 0.950 . S
C2677 C2673 1.385 . S
C2677 C2676 1.374 . S
C2678 C2675 1.499 1_545 S
C2678 C2679 1.373 . S
C2678 C2680 1.389 . S
C2679 H2658 0.950 1_545 S
C2679 C2678 1.373 . S
C2679 C2695 1.377 . S
C2680 C2678 1.389 . S
C2680 C2681 1.524 . S
C2680 C2694 1.377 . S
C2681 C2680 1.524 . S
C2681 C2682 1.397 . S
C2681 C2686 1.363 . S
C2682 H2659 0.950 1_545 S
C2682 C2681 1.397 . S
C2682 C2683 1.318 1_545 S
C2683 H2660 0.967 . S
C2683 C2682 1.318 1_565 S
C2683 C2684 1.287 1_565 S
C2684 C2683 1.287 1_545 S
C2684 C2685 1.524 . S
C2684 H2703 0.913 . S
C2685 H2661 0.950 . S
C2685 C2684 1.524 . S
C2685 C2686 1.415 . S
C2686 H2662 0.950 . S
C2686 C2681 1.363 . S
C2686 C2685 1.415 . S
C2687 H2663 0.951 . S
C2687 C2688 1.366 . S
C2687 C2689 1.388 . S
C2688 C2687 1.366 . S
C2688 C2692 1.385 . S
C2689 H2664 0.951 . S
C2689 C2687 1.388 . S
C2689 C2690 1.366 . S
C2690 C2689 1.366 . S
C2690 C2691 1.414 . S
C2690 C2693 1.499 . S
C2691 H2665 0.950 . S
C2691 C2690 1.414 . S
C2691 C2692 1.374 . S
C2692 H2666 0.950 . S
C2692 C2688 1.385 . S
C2692 C2691 1.374 . S
C2693 C2690 1.499 . S
C2693 C2694 1.373 . S
C2693 C2695 1.389 . S
C2694 H2667 0.950 . S
C2694 C2680 1.377 . S
C2694 C2693 1.373 . S
C2695 C2679 1.377 . S
C2695 C2693 1.389 . S
C2695 C2696 1.524 . S
C2696 C2695 1.524 . S
C2696 C2697 1.397 . S
C2696 C2701 1.363 . S
C2697 H2668 0.950 . S
C2697 C2696 1.397 . S
C2697 C2698 1.334 . S
C2698 H2669 0.950 . S
C2698 C2697 1.334 . S
C2698 C2699 1.287 . S
C2699 C2698 1.287 . S
C2699 C2700 1.524 . S
C2699 H2702 0.999 . S
C2700 H2670 0.950 . S
C2700 C2699 1.524 . S
C2700 C2701 1.415 . S
C2701 H2671 0.950 . S
C2701 C2696 1.363 . S
C2701 C2700 1.415 . S
H2702 C2699 0.999 . S
H2703 C2684 0.913 . S
H2704 C2722 0.951 . S
H2705 C2724 0.951 . S
H2706 C2726 0.950 . S
H2707 C2727 0.950 . S
H2708 C2729 0.950 1_455 S
H2709 C2732 0.950 1_455 S
H2710 C2733 0.960 . S
H2711 C2735 0.950 . S
H2712 C2736 0.950 . S
H2713 C2737 0.912 1_565 S
H2714 C2739 0.951 . S
H2715 C2741 0.950 . S
H2716 C2742 0.950 . S
H2717 C2744 0.950 . S
H2718 C2747 0.950 . S
H2719 C2748 0.950 . S
H2720 C2750 0.963 . S
H2721 C2751 0.950 . S
C2722 H2704 0.951 . S
C2722 C2723 1.366 . S
C2722 C2724 1.388 . S
C2723 C2722 1.366 . S
C2723 C2727 1.385 . S
C2724 H2705 0.951 . S
C2724 C2722 1.388 . S
C2724 C2725 1.366 . S
C2725 C2724 1.366 . S
C2725 C2726 1.414 . S
C2725 C2728 1.499 1_455 S
C2726 H2706 0.950 . S
C2726 C2725 1.414 . S
C2726 C2727 1.374 . S
C2727 H2707 0.950 . S
C2727 C2723 1.385 . S
C2727 C2726 1.374 . S
C2728 C2725 1.499 1_655 S
C2728 C2729 1.373 . S
C2728 C2730 1.389 . S
C2729 H2708 0.950 1_655 S
C2729 C2728 1.373 . S
C2729 C2745 1.377 . S
C2730 C2728 1.389 . S
C2730 C2731 1.524 . S
C2730 C2744 1.377 . S
C2731 C2730 1.524 . S
C2731 C2732 1.397 . S
C2731 C2736 1.363 . S
C2732 H2709 0.950 1_655 S
C2732 C2731 1.397 . S
C2732 C2733 1.337 1_655 S
C2733 H2710 0.960 . S
C2733 C2732 1.337 1_455 S
C2733 C2734 1.274 1_455 S
C2734 C2733 1.274 1_655 S
C2734 C2735 1.524 . S
C2734 H2753 0.913 . S
C2735 H2711 0.950 . S
C2735 C2734 1.524 . S
C2735 C2736 1.415 . S
C2736 H2712 0.950 . S
C2736 C2731 1.363 . S
C2736 C2735 1.415 . S
C2737 H2713 0.912 1_545 S
C2737 C2738 1.394 . S
C2737 C2739 1.400 . S
C2738 C2737 1.394 . S
C2738 C2742 1.385 . S
C2739 H2714 0.951 . S
C2739 C2737 1.400 . S
C2739 C2740 1.366 . S
C2740 C2739 1.366 . S
C2740 C2741 1.414 . S
C2740 C2743 1.499 . S
C2741 H2715 0.950 . S
C2741 C2740 1.414 . S
C2741 C2742 1.374 . S
C2742 H2716 0.950 . S
C2742 C2738 1.385 . S
C2742 C2741 1.374 . S
C2743 C2740 1.499 . S
C2743 C2744 1.373 . S
C2743 C2745 1.389 . S
C2744 H2717 0.950 . S
C2744 C2730 1.377 . S
C2744 C2743 1.373 . S
C2745 C2729 1.377 . S
C2745 C2743 1.389 . S
C2745 C2746 1.524 . S
C2746 C2745 1.524 . S
C2746 C2747 1.397 . S
C2746 C2751 1.363 . S
C2747 H2718 0.950 . S
C2747 C2746 1.397 . S
C2747 C2748 1.334 . S
C2748 H2719 0.950 . S
C2748 C2747 1.334 . S
C2748 C2749 1.287 . S
C2749 C2748 1.287 . S
C2749 C2750 1.524 . S
C2749 H2752 0.999 1_545 S
C2750 H2720 0.963 . S
C2750 C2749 1.524 . S
C2750 C2751 1.415 . S
C2751 H2721 0.950 . S
C2751 C2746 1.363 . S
C2751 C2750 1.415 . S
H2752 C2749 0.999 1_565 S
H2753 C2734 0.913 . S
H2754 C2772 0.929 1_545 S
H2755 C2774 0.951 . S
H2756 C2776 0.950 . S
H2757 C2777 0.950 . S
H2758 C2779 0.950 . S
H2759 C2782 0.950 . S
H2760 C2783 0.950 . S
H2761 C2785 0.950 . S
H2762 C2786 0.950 . S
H2763 C2787 0.951 . S
H2764 C2789 0.951 . S
H2765 C2791 0.950 . S
H2766 C2792 0.950 . S
H2767 C2794 0.950 . S
H2768 C2797 0.950 . S
H2769 C2798 0.950 . S
H2770 C2800 0.950 . S
H2771 C2801 0.950 . S
C2772 H2754 0.929 1_565 S
C2772 C2773 1.357 . S
C2772 C2774 1.419 . S
C2773 C2772 1.357 . S
C2773 C2777 1.385 . S
C2774 H2755 0.951 . S
C2774 C2772 1.419 . S
C2774 C2775 1.366 . S
C2775 C2774 1.366 . S
C2775 C2776 1.414 . S
C2775 C2778 1.499 . S
C2776 H2756 0.950 . S
C2776 C2775 1.414 . S
C2776 C2777 1.374 . S
C2777 H2757 0.950 . S
C2777 C2773 1.385 . S
C2777 C2776 1.374 . S
C2778 C2775 1.499 . S
C2778 C2779 1.373 . S
C2778 C2780 1.389 . S
C2779 H2758 0.950 . S
C2779 C2778 1.373 . S
C2779 C2795 1.377 . S
C2780 C2778 1.389 . S
C2780 C2781 1.524 . S
C2780 C2794 1.377 . S
C2781 C2780 1.524 . S
C2781 C2782 1.397 . S
C2781 C2786 1.363 . S
C2782 H2759 0.950 . S
C2782 C2781 1.397 . S
C2782 C2783 1.334 . S
C2783 H2760 0.950 . S
C2783 C2782 1.334 . S
C2783 C2784 1.287 . S
C2784 C2783 1.287 . S
C2784 C2785 1.524 . S
C2784 H2803 0.913 . S
C2785 H2761 0.950 . S
C2785 C2784 1.524 . S
C2785 C2786 1.415 . S
C2786 H2762 0.950 . S
C2786 C2781 1.363 . S
C2786 C2785 1.415 . S
C2787 H2763 0.951 . S
C2787 C2788 1.366 . S
C2787 C2789 1.388 . S
C2788 C2787 1.366 . S
C2788 C2792 1.385 . S
C2789 H2764 0.951 . S
C2789 C2787 1.388 . S
C2789 C2790 1.366 . S
C2790 C2789 1.366 . S
C2790 C2791 1.414 . S
C2790 C2793 1.499 . S
C2791 H2765 0.950 . S
C2791 C2790 1.414 . S
C2791 C2792 1.374 . S
C2792 H2766 0.950 . S
C2792 C2788 1.385 . S
C2792 C2791 1.374 . S
C2793 C2790 1.499 . S
C2793 C2794 1.373 . S
C2793 C2795 1.389 . S
C2794 H2767 0.950 . S
C2794 C2780 1.377 . S
C2794 C2793 1.373 . S
C2795 C2779 1.377 . S
C2795 C2793 1.389 . S
C2795 C2796 1.524 . S
C2796 C2795 1.524 . S
C2796 C2797 1.397 . S
C2796 C2801 1.363 . S
C2797 H2768 0.950 . S
C2797 C2796 1.397 . S
C2797 C2798 1.334 . S
C2798 H2769 0.950 . S
C2798 C2797 1.334 . S
C2798 C2799 1.287 . S
C2799 C2798 1.287 . S
C2799 C2800 1.524 . S
C2799 H2802 0.999 . S
C2800 H2770 0.950 . S
C2800 C2799 1.524 . S
C2800 C2801 1.415 . S
C2801 H2771 0.950 . S
C2801 C2796 1.363 . S
C2801 C2800 1.415 . S
H2802 C2799 0.999 . S
H2803 C2784 0.913 . S
H2804 C2822 0.951 . S
H2805 C2824 0.951 . S
H2806 C2826 0.950 . S
H2807 C2827 0.950 . S
H2808 C2829 0.950 . S
H2809 C2832 0.950 . S
H2810 C2833 0.950 . S
H2811 C2835 0.950 . S
H2812 C2836 0.950 1_565 S
H2813 C2837 0.951 . S
H2814 C2839 0.951 . S
H2815 C2841 0.950 . S
H2816 C2842 0.950 1_655 S
H2817 C2844 0.950 . S
H2818 C2847 0.950 . S
H2819 C2848 0.950 . S
H2820 C2850 0.950 . S
H2821 C2851 0.950 . S
C2822 H2804 0.951 . S
C2822 C2823 1.366 . S
C2822 C2824 1.388 . S
C2823 C2822 1.366 . S
C2823 C2827 1.385 . S
C2824 H2805 0.951 . S
C2824 C2822 1.388 . S
C2824 C2825 1.366 . S
C2825 C2824 1.366 . S
C2825 C2826 1.414 . S
C2825 C2828 1.499 1_545 S
C2826 H2806 0.950 . S
C2826 C2825 1.414 . S
C2826 C2827 1.374 . S
C2827 H2807 0.950 . S
C2827 C2823 1.385 . S
C2827 C2826 1.374 . S
C2828 C2825 1.499 1_565 S
C2828 C2829 1.373 . S
C2828 C2830 1.389 . S
C2829 H2808 0.950 . S
C2829 C2828 1.373 . S
C2829 C2845 1.377 . S
C2830 C2828 1.389 . S
C2830 C2831 1.524 1_565 S
C2830 C2844 1.377 . S
C2831 C2830 1.524 1_545 S
C2831 C2832 1.397 . S
C2831 C2836 1.363 . S
C2832 H2809 0.950 . S
C2832 C2831 1.397 . S
C2832 C2833 1.334 . S
C2833 H2810 0.950 . S
C2833 C2832 1.334 . S
C2833 C2834 1.287 . S
C2834 C2833 1.287 . S
C2834 C2835 1.524 . S
C2834 H2853 0.913 . S
C2835 H2811 0.950 . S
C2835 C2834 1.524 . S
C2835 C2836 1.415 . S
C2836 H2812 0.950 1_545 S
C2836 C2831 1.363 . S
C2836 C2835 1.415 . S
C2837 H2813 0.951 . S
C2837 C2838 1.366 . S
C2837 C2839 1.388 . S
C2838 C2837 1.366 . S
C2838 C2842 1.385 . S
C2839 H2814 0.951 . S
C2839 C2837 1.388 . S
C2839 C2840 1.366 . S
C2840 C2839 1.366 . S
C2840 C2841 1.414 . S
C2840 C2843 1.499 . S
C2841 H2815 0.950 . S
C2841 C2840 1.414 . S
C2841 C2842 1.374 . S
C2842 H2816 0.950 1_455 S
C2842 C2838 1.385 . S
C2842 C2841 1.374 . S
C2843 C2840 1.499 . S
C2843 C2844 1.373 . S
C2843 C2845 1.389 . S
C2844 H2817 0.950 . S
C2844 C2830 1.377 . S
C2844 C2843 1.373 . S
C2845 C2829 1.377 . S
C2845 C2843 1.389 . S
C2845 C2846 1.524 . S
C2846 C2845 1.524 . S
C2846 C2847 1.397 . S
C2846 C2851 1.363 . S
C2847 H2818 0.950 . S
C2847 C2846 1.397 . S
C2847 C2848 1.334 . S
C2848 H2819 0.950 . S
C2848 C2847 1.334 . S
C2848 C2849 1.287 . S
C2849 C2848 1.287 . S
C2849 C2850 1.524 . S
C2849 H2852 0.999 . S
C2850 H2820 0.950 . S
C2850 C2849 1.524 . S
C2850 C2851 1.415 . S
C2851 H2821 0.950 . S
C2851 C2846 1.363 . S
C2851 C2850 1.415 . S
H2852 C2849 0.999 . S
H2853 C2834 0.913 . S
H2854 C2872 0.951 . S
H2855 C2874 0.951 . S
H2856 C2876 0.950 . S
H2857 C2877 0.950 . S
H2858 C2879 0.950 . S
H2859 C2882 0.950 . S
H2860 C2883 0.950 . S
H2861 C2885 0.950 . S
H2862 C2886 0.950 . S
H2863 C2887 0.951 . S
H2864 C2889 0.951 . S
H2865 C2891 0.950 . S
H2866 C2892 0.950 . S
H2867 C2894 0.950 . S
H2868 C2897 0.950 . S
H2869 C2898 0.950 . S
H2870 C2900 0.950 . S
H2871 C2901 0.950 . S
C2872 H2854 0.951 . S
C2872 C2873 1.366 . S
C2872 C2874 1.388 . S
C2873 C2872 1.366 . S
C2873 C2877 1.385 . S
C2874 H2855 0.951 . S
C2874 C2872 1.388 . S
C2874 C2875 1.366 . S
C2875 C2874 1.366 . S
C2875 C2876 1.414 . S
C2875 C2878 1.499 . S
C2876 H2856 0.950 . S
C2876 C2875 1.414 . S
C2876 C2877 1.374 . S
C2877 H2857 0.950 . S
C2877 C2873 1.385 . S
C2877 C2876 1.374 . S
C2878 C2875 1.499 . S
C2878 C2879 1.373 . S
C2878 C2880 1.389 . S
C2879 H2858 0.950 . S
C2879 C2878 1.373 . S
C2879 C2895 1.377 . S
C2880 C2878 1.389 . S
C2880 C2881 1.524 . S
C2880 C2894 1.377 . S
C2881 C2880 1.524 . S
C2881 C2882 1.397 . S
C2881 C2886 1.363 . S
C2882 H2859 0.950 . S
C2882 C2881 1.397 . S
C2882 C2883 1.334 . S
C2883 H2860 0.950 . S
C2883 C2882 1.334 . S
C2883 C2884 1.287 . S
C2884 C2883 1.287 . S
C2884 C2885 1.524 . S
C2884 H2903 0.913 . S
C2885 H2861 0.950 . S
C2885 C2884 1.524 . S
C2885 C2886 1.415 . S
C2886 H2862 0.950 . S
C2886 C2881 1.363 . S
C2886 C2885 1.415 . S
C2887 H2863 0.951 . S
C2887 C2888 1.366 . S
C2887 C2889 1.388 . S
C2888 C2887 1.366 . S
C2888 C2892 1.385 . S
C2889 H2864 0.951 . S
C2889 C2887 1.388 . S
C2889 C2890 1.366 . S
C2890 C2889 1.366 . S
C2890 C2891 1.414 . S
C2890 C2893 1.499 1_655 S
C2891 H2865 0.950 . S
C2891 C2890 1.414 . S
C2891 C2892 1.374 . S
C2892 H2866 0.950 . S
C2892 C2888 1.385 . S
C2892 C2891 1.374 . S
C2893 C2890 1.499 1_455 S
C2893 C2894 1.373 . S
C2893 C2895 1.389 . S
C2894 H2867 0.950 . S
C2894 C2880 1.377 . S
C2894 C2893 1.373 . S
C2895 C2879 1.377 . S
C2895 C2893 1.389 . S
C2895 C2896 1.524 . S
C2896 C2895 1.524 . S
C2896 C2897 1.397 1_455 S
C2896 C2901 1.363 . S
C2897 H2868 0.950 . S
C2897 C2896 1.397 1_655 S
C2897 C2898 1.334 . S
C2898 H2869 0.950 . S
C2898 C2897 1.334 . S
C2898 C2899 1.287 . S
C2899 C2898 1.287 . S
C2899 C2900 1.524 1_655 S
C2899 H2902 0.999 . S
C2900 H2870 0.950 . S
C2900 C2899 1.524 1_455 S
C2900 C2901 1.415 . S
C2901 H2871 0.950 . S
C2901 C2896 1.363 . S
C2901 C2900 1.415 . S
H2902 C2899 0.999 . S
H2903 C2884 0.913 . S
H2904 C2922 0.951 . S
H2905 C2924 0.951 . S
H2906 C2926 0.950 . S
H2907 C2927 0.950 . S
H2908 C2929 0.950 . S
H2909 C2932 0.950 . S
H2910 C2933 0.950 . S
H2911 C2935 0.950 . S
H2912 C2936 0.950 . S
H2913 C2937 0.951 . S
H2914 C2939 0.951 . S
H2915 C2941 0.950 . S
H2916 C2942 0.950 . S
H2917 C2944 0.950 . S
H2918 C2947 0.950 . S
H2919 C2948 0.950 . S
H2920 C2950 0.950 . S
H2921 C2951 0.950 . S
C2922 H2904 0.951 . S
C2922 C2923 1.366 . S
C2922 C2924 1.388 . S
C2923 C2922 1.366 . S
C2923 C2927 1.385 . S
C2924 H2905 0.951 . S
C2924 C2922 1.388 . S
C2924 C2925 1.366 . S
C2925 C2924 1.366 . S
C2925 C2926 1.414 . S
C2925 C2928 1.499 . S
C2926 H2906 0.950 . S
C2926 C2925 1.414 . S
C2926 C2927 1.374 . S
C2927 H2907 0.950 . S
C2927 C2923 1.385 . S
C2927 C2926 1.374 . S
C2928 C2925 1.499 . S
C2928 C2929 1.373 . S
C2928 C2930 1.389 . S
C2929 H2908 0.950 . S
C2929 C2928 1.373 . S
C2929 C2945 1.377 . S
C2930 C2928 1.389 . S
C2930 C2931 1.524 . S
C2930 C2944 1.377 . S
C2931 C2930 1.524 . S
C2931 C2932 1.397 . S
C2931 C2936 1.363 . S
C2932 H2909 0.950 . S
C2932 C2931 1.397 . S
C2932 C2933 1.334 . S
C2933 H2910 0.950 . S
C2933 C2932 1.334 . S
C2933 C2934 1.287 . S
C2934 C2933 1.287 . S
C2934 C2935 1.524 . S
C2934 H2953 0.913 . S
C2935 H2911 0.950 . S
C2935 C2934 1.524 . S
C2935 C2936 1.415 . S
C2936 H2912 0.950 . S
C2936 C2931 1.363 . S
C2936 C2935 1.415 . S
C2937 H2913 0.951 . S
C2937 C2938 1.366 . S
C2937 C2939 1.388 . S
C2938 C2937 1.366 . S
C2938 C2942 1.385 . S
C2939 H2914 0.951 . S
C2939 C2937 1.388 . S
C2939 C2940 1.366 . S
C2940 C2939 1.366 . S
C2940 C2941 1.414 . S
C2940 C2943 1.499 . S
C2941 H2915 0.950 . S
C2941 C2940 1.414 . S
C2941 C2942 1.374 . S
C2942 H2916 0.950 . S
C2942 C2938 1.385 . S
C2942 C2941 1.374 . S
C2943 C2940 1.499 . S
C2943 C2944 1.373 . S
C2943 C2945 1.389 . S
C2944 H2917 0.950 . S
C2944 C2930 1.377 . S
C2944 C2943 1.373 . S
C2945 C2929 1.377 . S
C2945 C2943 1.389 . S
C2945 C2946 1.524 . S
C2946 C2945 1.524 . S
C2946 C2947 1.397 . S
C2946 C2951 1.363 . S
C2947 H2918 0.950 . S
C2947 C2946 1.397 . S
C2947 C2948 1.334 . S
C2948 H2919 0.950 . S
C2948 C2947 1.334 . S
C2948 C2949 1.287 . S
C2949 C2948 1.287 . S
C2949 C2950 1.524 . S
C2949 H2952 0.999 . S
C2950 H2920 0.950 . S
C2950 C2949 1.524 . S
C2950 C2951 1.415 . S
C2951 H2921 0.950 . S
C2951 C2946 1.363 . S
C2951 C2950 1.415 . S
H2952 C2949 0.999 . S
H2953 C2934 0.913 . S
H2954 C2972 0.951 . S
H2955 C2974 0.951 . S
H2956 C2976 0.950 . S
H2957 C2977 0.950 . S
H2958 C2979 0.950 . S
H2959 C2982 0.950 . S
H2960 C2983 0.950 . S
H2961 C2985 0.950 . S
H2962 C2986 0.950 . S
H2963 C2987 0.951 . S
H2964 C2989 0.951 . S
H2965 C2991 0.950 . S
H2966 C2992 0.950 . S
H2967 C2994 0.950 . S
H2968 C2997 0.950 . S
H2969 C2998 0.950 . S
H2970 C3000 0.950 . S
H2971 C3001 0.950 . S
C2972 H2954 0.951 . S
C2972 C2973 1.366 . S
C2972 C2974 1.388 . S
C2973 C2972 1.366 . S
C2973 C2977 1.385 . S
C2974 H2955 0.951 . S
C2974 C2972 1.388 . S
C2974 C2975 1.366 . S
C2975 C2974 1.366 . S
C2975 C2976 1.414 . S
C2975 C2978 1.499 . S
C2976 H2956 0.950 . S
C2976 C2975 1.414 . S
C2976 C2977 1.374 . S
C2977 H2957 0.950 . S
C2977 C2973 1.385 . S
C2977 C2976 1.374 . S
C2978 C2975 1.499 . S
C2978 C2979 1.373 . S
C2978 C2980 1.389 . S
C2979 H2958 0.950 . S
C2979 C2978 1.373 . S
C2979 C2995 1.377 . S
C2980 C2978 1.389 . S
C2980 C2981 1.524 . S
C2980 C2994 1.377 . S
C2981 C2980 1.524 . S
C2981 C2982 1.397 . S
C2981 C2986 1.363 . S
C2982 H2959 0.950 . S
C2982 C2981 1.397 . S
C2982 C2983 1.334 . S
C2983 H2960 0.950 . S
C2983 C2982 1.334 . S
C2983 C2984 1.287 . S
C2984 C2983 1.287 . S
C2984 C2985 1.524 . S
C2984 H3003 0.913 . S
C2985 H2961 0.950 . S
C2985 C2984 1.524 . S
C2985 C2986 1.415 . S
C2986 H2962 0.950 . S
C2986 C2981 1.363 . S
C2986 C2985 1.415 . S
C2987 H2963 0.951 . S
C2987 C2988 1.366 . S
C2987 C2989 1.388 . S
C2988 C2987 1.366 . S
C2988 C2992 1.385 . S
C2989 H2964 0.951 . S
C2989 C2987 1.388 . S
C2989 C2990 1.366 . S
C2990 C2989 1.366 . S
C2990 C2991 1.414 . S
C2990 C2993 1.499 . S
C2991 H2965 0.950 . S
C2991 C2990 1.414 . S
C2991 C2992 1.374 . S
C2992 H2966 0.950 . S
C2992 C2988 1.385 . S
C2992 C2991 1.374 . S
C2993 C2990 1.499 . S
C2993 C2994 1.373 . S
C2993 C2995 1.389 . S
C2994 H2967 0.950 . S
C2994 C2980 1.377 . S
C2994 C2993 1.373 . S
C2995 C2979 1.377 . S
C2995 C2993 1.389 . S
C2995 C2996 1.524 . S
C2996 C2995 1.524 . S
C2996 C2997 1.397 . S
C2996 C3001 1.363 . S
C2997 H2968 0.950 . S
C2997 C2996 1.397 . S
C2997 C2998 1.334 . S
C2998 H2969 0.950 . S
C2998 C2997 1.334 . S
C2998 C2999 1.287 . S
C2999 C2998 1.287 . S
C2999 C3000 1.524 . S
C2999 H3002 0.999 . S
C3000 H2970 0.950 . S
C3000 C2999 1.524 . S
C3000 C3001 1.415 . S
C3001 H2971 0.950 . S
C3001 C2996 1.363 . S
C3001 C3000 1.415 . S
H3002 C2999 0.999 . S
H3003 C2984 0.913 . S
H3004 C3022 0.951 . S
H3005 C3024 0.951 . S
H3006 C3026 0.950 . S
H3007 C3027 0.950 . S
H3008 C3029 0.950 . S
H3009 C3032 0.950 . S
H3010 C3033 0.950 . S
H3011 C3035 0.950 . S
H3012 C3036 0.950 . S
H3013 C3037 0.951 . S
H3014 C3039 0.951 . S
H3015 C3041 0.950 . S
H3016 C3042 0.950 . S
H3017 C3044 0.950 . S
H3018 C3047 0.950 . S
H3019 C3048 0.950 . S
H3020 C3050 0.950 . S
H3021 C3051 0.950 . S
C3022 H3004 0.951 . S
C3022 C3023 1.366 . S
C3022 C3024 1.388 . S
C3023 C3022 1.366 . S
C3023 C3027 1.385 . S
C3024 H3005 0.951 . S
C3024 C3022 1.388 . S
C3024 C3025 1.366 . S
C3025 C3024 1.366 . S
C3025 C3026 1.414 . S
C3025 C3028 1.499 . S
C3026 H3006 0.950 . S
C3026 C3025 1.414 . S
C3026 C3027 1.374 . S
C3027 H3007 0.950 . S
C3027 C3023 1.385 . S
C3027 C3026 1.374 . S
C3028 C3025 1.499 . S
C3028 C3029 1.373 . S
C3028 C3030 1.389 . S
C3029 H3008 0.950 . S
C3029 C3028 1.373 . S
C3029 C3045 1.377 . S
C3030 C3028 1.389 . S
C3030 C3031 1.524 . S
C3030 C3044 1.377 . S
C3031 C3030 1.524 . S
C3031 C3032 1.397 . S
C3031 C3036 1.363 . S
C3032 H3009 0.950 . S
C3032 C3031 1.397 . S
C3032 C3033 1.334 . S
C3033 H3010 0.950 . S
C3033 C3032 1.334 . S
C3033 C3034 1.287 . S
C3034 C3033 1.287 . S
C3034 C3035 1.524 . S
C3034 H3053 0.913 . S
C3035 H3011 0.950 . S
C3035 C3034 1.524 . S
C3035 C3036 1.415 . S
C3036 H3012 0.950 . S
C3036 C3031 1.363 . S
C3036 C3035 1.415 . S
C3037 H3013 0.951 . S
C3037 C3038 1.366 . S
C3037 C3039 1.388 . S
C3038 C3037 1.366 . S
C3038 C3042 1.385 . S
C3039 H3014 0.951 . S
C3039 C3037 1.388 . S
C3039 C3040 1.366 . S
C3040 C3039 1.366 . S
C3040 C3041 1.414 . S
C3040 C3043 1.499 . S
C3041 H3015 0.950 . S
C3041 C3040 1.414 . S
C3041 C3042 1.374 . S
C3042 H3016 0.950 . S
C3042 C3038 1.385 . S
C3042 C3041 1.374 . S
C3043 C3040 1.499 . S
C3043 C3044 1.373 . S
C3043 C3045 1.389 . S
C3044 H3017 0.950 . S
C3044 C3030 1.377 . S
C3044 C3043 1.373 . S
C3045 C3029 1.377 . S
C3045 C3043 1.389 . S
C3045 C3046 1.524 . S
C3046 C3045 1.524 . S
C3046 C3047 1.397 . S
C3046 C3051 1.363 . S
C3047 H3018 0.950 . S
C3047 C3046 1.397 . S
C3047 C3048 1.334 . S
C3048 H3019 0.950 . S
C3048 C3047 1.334 . S
C3048 C3049 1.287 . S
C3049 C3048 1.287 . S
C3049 C3050 1.524 . S
C3049 H3052 0.999 . S
C3050 H3020 0.950 . S
C3050 C3049 1.524 . S
C3050 C3051 1.415 . S
C3051 H3021 0.950 . S
C3051 C3046 1.363 . S
C3051 C3050 1.415 . S
H3052 C3049 0.999 . S
H3053 C3034 0.913 . S
H3054 C3072 0.951 . S
H3055 C3074 0.951 . S
H3056 C3076 0.950 . S
H3057 C3077 0.950 . S
H3058 C3079 0.950 . S
H3059 C3082 0.950 . S
H3060 C3083 0.950 . S
H3061 C3085 0.950 . S
H3062 C3086 0.950 . S
H3063 C3087 0.951 . S
H3064 C3089 0.951 . S
H3065 C3091 0.950 . S
H3066 C3092 0.950 . S
H3067 C3094 0.950 . S
H3068 C3097 0.950 . S
H3069 C3098 0.950 . S
H3070 C3100 0.950 . S
H3071 C3101 0.950 . S
C3072 H3054 0.951 . S
C3072 C3073 1.366 . S
C3072 C3074 1.388 . S
C3073 C3072 1.366 . S
C3073 C3077 1.385 . S
C3074 H3055 0.951 . S
C3074 C3072 1.388 . S
C3074 C3075 1.366 . S
C3075 C3074 1.366 . S
C3075 C3076 1.414 . S
C3075 C3078 1.499 . S
C3076 H3056 0.950 . S
C3076 C3075 1.414 . S
C3076 C3077 1.374 . S
C3077 H3057 0.950 . S
C3077 C3073 1.385 . S
C3077 C3076 1.374 . S
C3078 C3075 1.499 . S
C3078 C3079 1.373 . S
C3078 C3080 1.389 . S
C3079 H3058 0.950 . S
C3079 C3078 1.373 . S
C3079 C3095 1.377 . S
C3080 C3078 1.389 . S
C3080 C3081 1.524 . S
C3080 C3094 1.377 . S
C3081 C3080 1.524 . S
C3081 C3082 1.397 . S
C3081 C3086 1.363 . S
C3082 H3059 0.950 . S
C3082 C3081 1.397 . S
C3082 C3083 1.334 . S
C3083 H3060 0.950 . S
C3083 C3082 1.334 . S
C3083 C3084 1.287 . S
C3084 C3083 1.287 . S
C3084 C3085 1.524 . S
C3084 H3103 0.913 . S
C3085 H3061 0.950 . S
C3085 C3084 1.524 . S
C3085 C3086 1.415 . S
C3086 H3062 0.950 . S
C3086 C3081 1.363 . S
C3086 C3085 1.415 . S
C3087 H3063 0.951 . S
C3087 C3088 1.366 . S
C3087 C3089 1.388 . S
C3088 C3087 1.366 . S
C3088 C3092 1.385 . S
C3089 H3064 0.951 . S
C3089 C3087 1.388 . S
C3089 C3090 1.366 . S
C3090 C3089 1.366 . S
C3090 C3091 1.414 . S
C3090 C3093 1.499 . S
C3091 H3065 0.950 . S
C3091 C3090 1.414 . S
C3091 C3092 1.374 . S
C3092 H3066 0.950 . S
C3092 C3088 1.385 . S
C3092 C3091 1.374 . S
C3093 C3090 1.499 . S
C3093 C3094 1.373 . S
C3093 C3095 1.389 . S
C3094 H3067 0.950 . S
C3094 C3080 1.377 . S
C3094 C3093 1.373 . S
C3095 C3079 1.377 . S
C3095 C3093 1.389 . S
C3095 C3096 1.524 . S
C3096 C3095 1.524 . S
C3096 C3097 1.397 . S
C3096 C3101 1.363 . S
C3097 H3068 0.950 . S
C3097 C3096 1.397 . S
C3097 C3098 1.334 . S
C3098 H3069 0.950 . S
C3098 C3097 1.334 . S
C3098 C3099 1.287 . S
C3099 C3098 1.287 . S
C3099 C3100 1.524 . S
C3099 H3102 0.999 . S
C3100 H3070 0.950 . S
C3100 C3099 1.524 . S
C3100 C3101 1.415 . S
C3101 H3071 0.950 . S
C3101 C3096 1.363 . S
C3101 C3100 1.415 . S
H3102 C3099 0.999 . S
H3103 C3084 0.913 . S
H3104 C3122 0.951 . S
H3105 C3124 0.951 . S
H3106 C3126 0.950 . S
H3107 C3127 0.950 . S
H3108 C3129 0.950 . S
H3109 C3132 0.950 . S
H3110 C3133 0.950 . S
H3111 C3135 0.950 . S
H3112 C3136 0.950 . S
H3113 C3137 0.951 . S
H3114 C3139 0.951 . S
H3115 C3141 0.950 . S
H3116 C3142 0.950 . S
H3117 C3144 0.950 . S
H3118 C3147 0.950 . S
H3119 C3148 0.950 . S
H3120 C3150 0.950 . S
H3121 C3151 0.950 . S
C3122 H3104 0.951 . S
C3122 C3123 1.366 . S
C3122 C3124 1.388 . S
C3123 C3122 1.366 . S
C3123 C3127 1.385 . S
C3124 H3105 0.951 . S
C3124 C3122 1.388 . S
C3124 C3125 1.366 . S
C3125 C3124 1.366 . S
C3125 C3126 1.414 . S
C3125 C3128 1.499 . S
C3126 H3106 0.950 . S
C3126 C3125 1.414 . S
C3126 C3127 1.374 . S
C3127 H3107 0.950 . S
C3127 C3123 1.385 . S
C3127 C3126 1.374 . S
C3128 C3125 1.499 . S
C3128 C3129 1.373 . S
C3128 C3130 1.389 . S
C3129 H3108 0.950 . S
C3129 C3128 1.373 . S
C3129 C3145 1.377 . S
C3130 C3128 1.389 . S
C3130 C3131 1.524 . S
C3130 C3144 1.377 . S
C3131 C3130 1.524 . S
C3131 C3132 1.397 . S
C3131 C3136 1.363 . S
C3132 H3109 0.950 . S
C3132 C3131 1.397 . S
C3132 C3133 1.334 . S
C3133 H3110 0.950 . S
C3133 C3132 1.334 . S
C3133 C3134 1.287 . S
C3134 C3133 1.287 . S
C3134 C3135 1.524 . S
C3134 H3153 0.913 . S
C3135 H3111 0.950 . S
C3135 C3134 1.524 . S
C3135 C3136 1.415 . S
C3136 H3112 0.950 . S
C3136 C3131 1.363 . S
C3136 C3135 1.415 . S
C3137 H3113 0.951 . S
C3137 C3138 1.366 . S
C3137 C3139 1.388 . S
C3138 C3137 1.366 . S
C3138 C3142 1.385 . S
C3139 H3114 0.951 . S
C3139 C3137 1.388 . S
C3139 C3140 1.366 . S
C3140 C3139 1.366 . S
C3140 C3141 1.414 . S
C3140 C3143 1.499 . S
C3141 H3115 0.950 . S
C3141 C3140 1.414 . S
C3141 C3142 1.374 . S
C3142 H3116 0.950 . S
C3142 C3138 1.385 . S
C3142 C3141 1.374 . S
C3143 C3140 1.499 . S
C3143 C3144 1.373 . S
C3143 C3145 1.389 . S
C3144 H3117 0.950 . S
C3144 C3130 1.377 . S
C3144 C3143 1.373 . S
C3145 C3129 1.377 . S
C3145 C3143 1.389 . S
C3145 C3146 1.524 . S
C3146 C3145 1.524 . S
C3146 C3147 1.397 . S
C3146 C3151 1.363 . S
C3147 H3118 0.950 . S
C3147 C3146 1.397 . S
C3147 C3148 1.334 . S
C3148 H3119 0.950 . S
C3148 C3147 1.334 . S
C3148 C3149 1.287 . S
C3149 C3148 1.287 . S
C3149 C3150 1.524 . S
C3149 H3152 0.999 . S
C3150 H3120 0.950 . S
C3150 C3149 1.524 . S
C3150 C3151 1.415 . S
C3151 H3121 0.950 . S
C3151 C3146 1.363 . S
C3151 C3150 1.415 . S
H3152 C3149 0.999 . S
H3153 C3134 0.913 . S
H3154 C3172 0.951 . S
H3155 C3174 0.951 . S
H3156 C3176 0.950 . S
H3157 C3177 0.950 . S
H3158 C3179 0.950 . S
H3159 C3182 0.950 . S
H3160 C3183 0.950 . S
H3161 C3185 0.950 . S
H3162 C3186 0.950 . S
H3163 C3187 0.951 . S
H3164 C3189 0.951 . S
H3165 C3191 0.950 . S
H3166 C3192 0.950 . S
H3167 C3194 0.950 . S
H3168 C3197 0.950 . S
H3169 C3198 0.950 . S
H3170 C3200 0.950 . S
H3171 C3201 0.950 . S
C3172 H3154 0.951 . S
C3172 C3173 1.366 . S
C3172 C3174 1.388 . S
C3173 C3172 1.366 . S
C3173 C3177 1.385 . S
C3174 H3155 0.951 . S
C3174 C3172 1.388 . S
C3174 C3175 1.366 . S
C3175 C3174 1.366 . S
C3175 C3176 1.414 . S
C3175 C3178 1.499 . S
C3176 H3156 0.950 . S
C3176 C3175 1.414 . S
C3176 C3177 1.374 . S
C3177 H3157 0.950 . S
C3177 C3173 1.385 . S
C3177 C3176 1.374 . S
C3178 C3175 1.499 . S
C3178 C3179 1.373 . S
C3178 C3180 1.389 . S
C3179 H3158 0.950 . S
C3179 C3178 1.373 . S
C3179 C3195 1.377 . S
C3180 C3178 1.389 . S
C3180 C3181 1.524 . S
C3180 C3194 1.377 . S
C3181 C3180 1.524 . S
C3181 C3182 1.397 . S
C3181 C3186 1.363 . S
C3182 H3159 0.950 . S
C3182 C3181 1.397 . S
C3182 C3183 1.334 . S
C3183 H3160 0.950 . S
C3183 C3182 1.334 . S
C3183 C3184 1.287 . S
C3184 C3183 1.287 . S
C3184 C3185 1.524 . S
C3184 H3203 0.913 . S
C3185 H3161 0.950 . S
C3185 C3184 1.524 . S
C3185 C3186 1.415 . S
C3186 H3162 0.950 . S
C3186 C3181 1.363 . S
C3186 C3185 1.415 . S
C3187 H3163 0.951 . S
C3187 C3188 1.366 . S
C3187 C3189 1.388 . S
C3188 C3187 1.366 . S
C3188 C3192 1.385 . S
C3189 H3164 0.951 . S
C3189 C3187 1.388 . S
C3189 C3190 1.366 . S
C3190 C3189 1.366 . S
C3190 C3191 1.414 . S
C3190 C3193 1.499 . S
C3191 H3165 0.950 . S
C3191 C3190 1.414 . S
C3191 C3192 1.374 . S
C3192 H3166 0.950 . S
C3192 C3188 1.385 . S
C3192 C3191 1.374 . S
C3193 C3190 1.499 . S
C3193 C3194 1.373 . S
C3193 C3195 1.389 . S
C3194 H3167 0.950 . S
C3194 C3180 1.377 . S
C3194 C3193 1.373 . S
C3195 C3179 1.377 . S
C3195 C3193 1.389 . S
C3195 C3196 1.524 . S
C3196 C3195 1.524 . S
C3196 C3197 1.397 . S
C3196 C3201 1.363 . S
C3197 H3168 0.950 . S
C3197 C3196 1.397 . S
C3197 C3198 1.334 . S
C3198 H3169 0.950 . S
C3198 C3197 1.334 . S
C3198 C3199 1.287 . S
C3199 C3198 1.287 . S
C3199 C3200 1.524 . S
C3199 H3202 0.999 . S
C3200 H3170 0.950 . S
C3200 C3199 1.524 . S
C3200 C3201 1.415 . S
C3201 H3171 0.950 . S
C3201 C3196 1.363 . S
C3201 C3200 1.415 . S
H3202 C3199 0.999 . S
H3203 C3184 0.913 . S
H3204 C3222 0.951 . S
H3205 C3224 0.951 . S
H3206 C3226 0.950 . S
H3207 C3227 0.950 . S
H3208 C3229 0.950 . S
H3209 C3232 0.950 . S
H3210 C3233 0.950 . S
H3211 C3235 0.950 . S
H3212 C3236 0.950 . S
H3213 C3237 0.951 . S
H3214 C3239 0.951 . S
H3215 C3241 0.950 . S
H3216 C3242 0.950 . S
H3217 C3244 0.950 . S
H3218 C3247 0.950 . S
H3219 C3248 0.950 . S
H3220 C3250 0.950 . S
H3221 C3251 0.950 . S
C3222 H3204 0.951 . S
C3222 C3223 1.366 . S
C3222 C3224 1.388 . S
C3223 C3222 1.366 . S
C3223 C3227 1.385 . S
C3224 H3205 0.951 . S
C3224 C3222 1.388 . S
C3224 C3225 1.366 . S
C3225 C3224 1.366 . S
C3225 C3226 1.414 . S
C3225 C3228 1.499 . S
C3226 H3206 0.950 . S
C3226 C3225 1.414 . S
C3226 C3227 1.374 . S
C3227 H3207 0.950 . S
C3227 C3223 1.385 . S
C3227 C3226 1.374 . S
C3228 C3225 1.499 . S
C3228 C3229 1.373 . S
C3228 C3230 1.389 . S
C3229 H3208 0.950 . S
C3229 C3228 1.373 . S
C3229 C3245 1.377 . S
C3230 C3228 1.389 . S
C3230 C3231 1.524 . S
C3230 C3244 1.377 . S
C3231 C3230 1.524 . S
C3231 C3232 1.397 . S
C3231 C3236 1.363 . S
C3232 H3209 0.950 . S
C3232 C3231 1.397 . S
C3232 C3233 1.334 . S
C3233 H3210 0.950 . S
C3233 C3232 1.334 . S
C3233 C3234 1.287 . S
C3234 C3233 1.287 . S
C3234 C3235 1.524 . S
C3234 H3253 0.913 . S
C3235 H3211 0.950 . S
C3235 C3234 1.524 . S
C3235 C3236 1.415 . S
C3236 H3212 0.950 . S
C3236 C3231 1.363 . S
C3236 C3235 1.415 . S
C3237 H3213 0.951 . S
C3237 C3238 1.366 . S
C3237 C3239 1.388 . S
C3238 C3237 1.366 . S
C3238 C3242 1.385 . S
C3239 H3214 0.951 . S
C3239 C3237 1.388 . S
C3239 C3240 1.366 . S
C3240 C3239 1.366 . S
C3240 C3241 1.414 . S
C3240 C3243 1.499 . S
C3241 H3215 0.950 . S
C3241 C3240 1.414 . S
C3241 C3242 1.374 . S
C3242 H3216 0.950 . S
C3242 C3238 1.385 . S
C3242 C3241 1.374 . S
C3243 C3240 1.499 . S
C3243 C3244 1.373 . S
C3243 C3245 1.389 . S
C3244 H3217 0.950 . S
C3244 C3230 1.377 . S
C3244 C3243 1.373 . S
C3245 C3229 1.377 . S
C3245 C3243 1.389 . S
C3245 C3246 1.524 . S
C3246 C3245 1.524 . S
C3246 C3247 1.397 . S
C3246 C3251 1.363 . S
C3247 H3218 0.950 . S
C3247 C3246 1.397 . S
C3247 C3248 1.334 . S
C3248 H3219 0.950 . S
C3248 C3247 1.334 . S
C3248 C3249 1.287 . S
C3249 C3248 1.287 . S
C3249 C3250 1.524 . S
C3249 H3252 0.999 . S
C3250 H3220 0.950 . S
C3250 C3249 1.524 . S
C3250 C3251 1.415 . S
C3251 H3221 0.950 . S
C3251 C3246 1.363 . S
C3251 C3250 1.415 . S
H3252 C3249 0.999 . S
H3253 C3234 0.913 . S
H3254 C3272 0.951 . S
H3255 C3274 0.951 . S
H3256 C3276 0.950 . S
H3257 C3277 0.950 . S
H3258 C3279 0.950 . S
H3259 C3282 0.950 . S
H3260 C3283 0.950 . S
H3261 C3285 0.950 . S
H3262 C3286 0.950 . S
H3263 C3287 0.951 . S
H3264 C3289 0.951 . S
H3265 C3291 0.950 . S
H3266 C3292 0.950 . S
H3267 C3294 0.950 . S
H3268 C3297 0.950 . S
H3269 C3298 0.950 . S
H3270 C3300 0.950 . S
H3271 C3301 0.950 . S
C3272 H3254 0.951 . S
C3272 C3273 1.366 . S
C3272 C3274 1.388 . S
C3273 C3272 1.366 . S
C3273 C3277 1.385 . S
C3274 H3255 0.951 . S
C3274 C3272 1.388 . S
C3274 C3275 1.366 . S
C3275 C3274 1.366 . S
C3275 C3276 1.414 . S
C3275 C3278 1.499 . S
C3276 H3256 0.950 . S
C3276 C3275 1.414 . S
C3276 C3277 1.374 . S
C3277 H3257 0.950 . S
C3277 C3273 1.385 . S
C3277 C3276 1.374 . S
C3278 C3275 1.499 . S
C3278 C3279 1.373 . S
C3278 C3280 1.389 . S
C3279 H3258 0.950 . S
C3279 C3278 1.373 . S
C3279 C3295 1.377 . S
C3280 C3278 1.389 . S
C3280 C3281 1.524 . S
C3280 C3294 1.377 . S
C3281 C3280 1.524 . S
C3281 C3282 1.397 . S
C3281 C3286 1.363 . S
C3282 H3259 0.950 . S
C3282 C3281 1.397 . S
C3282 C3283 1.334 . S
C3283 H3260 0.950 . S
C3283 C3282 1.334 . S
C3283 C3284 1.287 . S
C3284 C3283 1.287 . S
C3284 C3285 1.524 . S
C3284 H3303 0.913 . S
C3285 H3261 0.950 . S
C3285 C3284 1.524 . S
C3285 C3286 1.415 . S
C3286 H3262 0.950 . S
C3286 C3281 1.363 . S
C3286 C3285 1.415 . S
C3287 H3263 0.951 . S
C3287 C3288 1.366 . S
C3287 C3289 1.388 . S
C3288 C3287 1.366 . S
C3288 C3292 1.385 . S
C3289 H3264 0.951 . S
C3289 C3287 1.388 . S
C3289 C3290 1.366 . S
C3290 C3289 1.366 . S
C3290 C3291 1.414 . S
C3290 C3293 1.499 . S
C3291 H3265 0.950 . S
C3291 C3290 1.414 . S
C3291 C3292 1.374 . S
C3292 H3266 0.950 . S
C3292 C3288 1.385 . S
C3292 C3291 1.374 . S
C3293 C3290 1.499 . S
C3293 C3294 1.373 . S
C3293 C3295 1.389 . S
C3294 H3267 0.950 . S
C3294 C3280 1.377 . S
C3294 C3293 1.373 . S
C3295 C3279 1.377 . S
C3295 C3293 1.389 . S
C3295 C3296 1.524 . S
C3296 C3295 1.524 . S
C3296 C3297 1.397 . S
C3296 C3301 1.363 . S
C3297 H3268 0.950 . S
C3297 C3296 1.397 . S
C3297 C3298 1.334 . S
C3298 H3269 0.950 . S
C3298 C3297 1.334 . S
C3298 C3299 1.287 . S
C3299 C3298 1.287 . S
C3299 C3300 1.524 . S
C3299 H3302 0.999 . S
C3300 H3270 0.950 . S
C3300 C3299 1.524 . S
C3300 C3301 1.415 . S
C3301 H3271 0.950 . S
C3301 C3296 1.363 . S
C3301 C3300 1.415 . S
H3302 C3299 0.999 . S
H3303 C3284 0.913 . S
H3304 C3322 0.951 . S
H3305 C3324 0.951 . S
H3306 C3326 0.950 . S
H3307 C3327 0.950 . S
H3308 C3329 0.950 . S
H3309 C3332 0.950 . S
H3310 C3333 0.950 . S
H3311 C3335 0.950 . S
H3312 C3336 0.950 . S
H3313 C3337 0.951 . S
H3314 C3339 0.951 . S
H3315 C3341 0.950 . S
H3316 C3342 0.950 . S
H3317 C3344 0.950 . S
H3318 C3347 0.950 . S
H3319 C3348 0.950 . S
H3320 C3350 0.950 . S
H3321 C3351 0.950 . S
C3322 H3304 0.951 . S
C3322 C3323 1.366 . S
C3322 C3324 1.388 . S
C3323 C3322 1.366 . S
C3323 C3327 1.385 . S
C3324 H3305 0.951 . S
C3324 C3322 1.388 . S
C3324 C3325 1.366 . S
C3325 C3324 1.366 . S
C3325 C3326 1.414 . S
C3325 C3328 1.499 . S
C3326 H3306 0.950 . S
C3326 C3325 1.414 . S
C3326 C3327 1.374 . S
C3327 H3307 0.950 . S
C3327 C3323 1.385 . S
C3327 C3326 1.374 . S
C3328 C3325 1.499 . S
C3328 C3329 1.373 . S
C3328 C3330 1.389 . S
C3329 H3308 0.950 . S
C3329 C3328 1.373 . S
C3329 C3345 1.377 . S
C3330 C3328 1.389 . S
C3330 C3331 1.524 . S
C3330 C3344 1.377 . S
C3331 C3330 1.524 . S
C3331 C3332 1.397 . S
C3331 C3336 1.363 . S
C3332 H3309 0.950 . S
C3332 C3331 1.397 . S
C3332 C3333 1.334 . S
C3333 H3310 0.950 . S
C3333 C3332 1.334 . S
C3333 C3334 1.287 . S
C3334 C3333 1.287 . S
C3334 C3335 1.524 . S
C3334 H3353 0.913 . S
C3335 H3311 0.950 . S
C3335 C3334 1.524 . S
C3335 C3336 1.415 . S
C3336 H3312 0.950 . S
C3336 C3331 1.363 . S
C3336 C3335 1.415 . S
C3337 H3313 0.951 . S
C3337 C3338 1.366 . S
C3337 C3339 1.388 . S
C3338 C3337 1.366 . S
C3338 C3342 1.385 . S
C3339 H3314 0.951 . S
C3339 C3337 1.388 . S
C3339 C3340 1.366 . S
C3340 C3339 1.366 . S
C3340 C3341 1.414 . S
C3340 C3343 1.499 . S
C3341 H3315 0.950 . S
C3341 C3340 1.414 . S
C3341 C3342 1.374 . S
C3342 H3316 0.950 . S
C3342 C3338 1.385 . S
C3342 C3341 1.374 . S
C3343 C3340 1.499 . S
C3343 C3344 1.373 . S
C3343 C3345 1.389 . S
C3344 H3317 0.950 . S
C3344 C3330 1.377 . S
C3344 C3343 1.373 . S
C3345 C3329 1.377 . S
C3345 C3343 1.389 . S
C3345 C3346 1.524 . S
C3346 C3345 1.524 . S
C3346 C3347 1.397 . S
C3346 C3351 1.363 . S
C3347 H3318 0.950 . S
C3347 C3346 1.397 . S
C3347 C3348 1.334 . S
C3348 H3319 0.950 . S
C3348 C3347 1.334 . S
C3348 C3349 1.287 . S
C3349 C3348 1.287 . S
C3349 C3350 1.524 . S
C3349 H3352 0.999 . S
C3350 H3320 0.950 . S
C3350 C3349 1.524 . S
C3350 C3351 1.415 . S
C3351 H3321 0.950 . S
C3351 C3346 1.363 . S
C3351 C3350 1.415 . S
H3352 C3349 0.999 . S
H3353 C3334 0.913 . S
H3354 C3372 0.951 . S
H3355 C3374 0.951 . S
H3356 C3376 0.950 . S
H3357 C3377 0.950 . S
H3358 C3379 0.950 . S
H3359 C3382 0.950 . S
H3360 C3383 0.950 . S
H3361 C3385 0.950 . S
H3362 C3386 0.950 . S
H3363 C3387 0.951 . S
H3364 C3389 0.951 . S
H3365 C3391 0.950 . S
H3366 C3392 0.950 . S
H3367 C3394 0.950 . S
H3368 C3397 0.950 . S
H3369 C3398 0.950 . S
H3370 C3400 0.950 . S
H3371 C3401 0.950 . S
C3372 H3354 0.951 . S
C3372 C3373 1.366 . S
C3372 C3374 1.388 . S
C3373 C3372 1.366 . S
C3373 C3377 1.385 . S
C3374 H3355 0.951 . S
C3374 C3372 1.388 . S
C3374 C3375 1.366 . S
C3375 C3374 1.366 . S
C3375 C3376 1.414 . S
C3375 C3378 1.499 . S
C3376 H3356 0.950 . S
C3376 C3375 1.414 . S
C3376 C3377 1.374 . S
C3377 H3357 0.950 . S
C3377 C3373 1.385 . S
C3377 C3376 1.374 . S
C3378 C3375 1.499 . S
C3378 C3379 1.373 . S
C3378 C3380 1.389 . S
C3379 H3358 0.950 . S
C3379 C3378 1.373 . S
C3379 C3395 1.377 . S
C3380 C3378 1.389 . S
C3380 C3381 1.524 . S
C3380 C3394 1.377 . S
C3381 C3380 1.524 . S
C3381 C3382 1.397 . S
C3381 C3386 1.363 . S
C3382 H3359 0.950 . S
C3382 C3381 1.397 . S
C3382 C3383 1.334 . S
C3383 H3360 0.950 . S
C3383 C3382 1.334 . S
C3383 C3384 1.287 . S
C3384 C3383 1.287 . S
C3384 C3385 1.524 . S
C3384 H3403 0.913 . S
C3385 H3361 0.950 . S
C3385 C3384 1.524 . S
C3385 C3386 1.415 . S
C3386 H3362 0.950 . S
C3386 C3381 1.363 . S
C3386 C3385 1.415 . S
C3387 H3363 0.951 . S
C3387 C3388 1.366 . S
C3387 C3389 1.388 . S
C3388 C3387 1.366 . S
C3388 C3392 1.385 . S
C3389 H3364 0.951 . S
C3389 C3387 1.388 . S
C3389 C3390 1.366 . S
C3390 C3389 1.366 . S
C3390 C3391 1.414 . S
C3390 C3393 1.499 . S
C3391 H3365 0.950 . S
C3391 C3390 1.414 . S
C3391 C3392 1.374 . S
C3392 H3366 0.950 . S
C3392 C3388 1.385 . S
C3392 C3391 1.374 . S
C3393 C3390 1.499 . S
C3393 C3394 1.373 . S
C3393 C3395 1.389 . S
C3394 H3367 0.950 . S
C3394 C3380 1.377 . S
C3394 C3393 1.373 . S
C3395 C3379 1.377 . S
C3395 C3393 1.389 . S
C3395 C3396 1.524 . S
C3396 C3395 1.524 . S
C3396 C3397 1.397 . S
C3396 C3401 1.363 . S
C3397 H3368 0.950 . S
C3397 C3396 1.397 . S
C3397 C3398 1.334 . S
C3398 H3369 0.950 . S
C3398 C3397 1.334 . S
C3398 C3399 1.287 . S
C3399 C3398 1.287 . S
C3399 C3400 1.524 . S
C3399 H3402 0.999 . S
C3400 H3370 0.950 . S
C3400 C3399 1.524 . S
C3400 C3401 1.415 . S
C3401 H3371 0.950 . S
C3401 C3396 1.363 . S
C3401 C3400 1.415 . S
H3402 C3399 0.999 . S
H3403 C3384 0.913 . S
H3404 C3422 0.951 . S
H3405 C3424 0.951 . S
H3406 C3426 0.950 . S
H3407 C3427 0.950 . S
H3408 C3429 0.950 . S
H3409 C3432 0.950 . S
H3410 C3433 0.950 . S
H3411 C3435 0.950 . S
H3412 C3436 0.950 . S
H3413 C3437 0.951 . S
H3414 C3439 0.951 . S
H3415 C3441 0.950 . S
H3416 C3442 0.950 . S
H3417 C3444 0.950 . S
H3418 C3447 0.950 . S
H3419 C3448 0.950 . S
H3420 C3450 0.950 . S
H3421 C3451 0.950 . S
C3422 H3404 0.951 . S
C3422 C3423 1.366 . S
C3422 C3424 1.388 . S
C3423 C3422 1.366 . S
C3423 C3427 1.385 . S
C3424 H3405 0.951 . S
C3424 C3422 1.388 . S
C3424 C3425 1.366 . S
C3425 C3424 1.366 . S
C3425 C3426 1.414 . S
C3425 C3428 1.499 . S
C3426 H3406 0.950 . S
C3426 C3425 1.414 . S
C3426 C3427 1.374 . S
C3427 H3407 0.950 . S
C3427 C3423 1.385 . S
C3427 C3426 1.374 . S
C3428 C3425 1.499 . S
C3428 C3429 1.373 . S
C3428 C3430 1.389 . S
C3429 H3408 0.950 . S
C3429 C3428 1.373 . S
C3429 C3445 1.377 . S
C3430 C3428 1.389 . S
C3430 C3431 1.524 . S
C3430 C3444 1.377 . S
C3431 C3430 1.524 . S
C3431 C3432 1.397 . S
C3431 C3436 1.363 . S
C3432 H3409 0.950 . S
C3432 C3431 1.397 . S
C3432 C3433 1.334 . S
C3433 H3410 0.950 . S
C3433 C3432 1.334 . S
C3433 C3434 1.287 . S
C3434 C3433 1.287 . S
C3434 C3435 1.524 . S
C3434 H3453 0.913 . S
C3435 H3411 0.950 . S
C3435 C3434 1.524 . S
C3435 C3436 1.415 . S
C3436 H3412 0.950 . S
C3436 C3431 1.363 . S
C3436 C3435 1.415 . S
C3437 H3413 0.951 . S
C3437 C3438 1.366 . S
C3437 C3439 1.388 . S
C3438 C3437 1.366 . S
C3438 C3442 1.385 . S
C3439 H3414 0.951 . S
C3439 C3437 1.388 . S
C3439 C3440 1.366 . S
C3440 C3439 1.366 . S
C3440 C3441 1.414 . S
C3440 C3443 1.499 . S
C3441 H3415 0.950 . S
C3441 C3440 1.414 . S
C3441 C3442 1.374 . S
C3442 H3416 0.950 . S
C3442 C3438 1.385 . S
C3442 C3441 1.374 . S
C3443 C3440 1.499 . S
C3443 C3444 1.373 . S
C3443 C3445 1.389 . S
C3444 H3417 0.950 . S
C3444 C3430 1.377 . S
C3444 C3443 1.373 . S
C3445 C3429 1.377 . S
C3445 C3443 1.389 . S
C3445 C3446 1.524 . S
C3446 C3445 1.524 . S
C3446 C3447 1.397 . S
C3446 C3451 1.363 . S
C3447 H3418 0.950 . S
C3447 C3446 1.397 . S
C3447 C3448 1.334 . S
C3448 H3419 0.950 . S
C3448 C3447 1.334 . S
C3448 C3449 1.287 . S
C3449 C3448 1.287 . S
C3449 C3450 1.524 . S
C3449 H3452 0.999 . S
C3450 H3420 0.950 . S
C3450 C3449 1.524 . S
C3450 C3451 1.415 . S
C3451 H3421 0.950 . S
C3451 C3446 1.363 . S
C3451 C3450 1.415 . S
H3452 C3449 0.999 . S
H3453 C3434 0.913 . S
H3454 C3472 0.951 . S
H3455 C3474 0.951 . S
H3456 C3476 0.950 . S
H3457 C3477 0.950 . S
H3458 C3479 0.950 . S
H3459 C3482 0.950 . S
H3460 C3483 0.950 . S
H3461 C3485 0.950 . S
H3462 C3486 0.950 . S
H3463 C3487 0.951 . S
H3464 C3489 0.951 . S
H3465 C3491 0.950 . S
H3466 C3492 0.950 . S
H3467 C3494 0.950 . S
H3468 C3497 0.950 . S
H3469 C3498 0.950 . S
H3470 C3500 0.950 . S
H3471 C3501 0.950 . S
C3472 H3454 0.951 . S
C3472 C3473 1.366 . S
C3472 C3474 1.388 . S
C3473 C3472 1.366 . S
C3473 C3477 1.385 . S
C3474 H3455 0.951 . S
C3474 C3472 1.388 . S
C3474 C3475 1.366 . S
C3475 C3474 1.366 . S
C3475 C3476 1.414 . S
C3475 C3478 1.499 . S
C3476 H3456 0.950 . S
C3476 C3475 1.414 . S
C3476 C3477 1.374 . S
C3477 H3457 0.950 . S
C3477 C3473 1.385 . S
C3477 C3476 1.374 . S
C3478 C3475 1.499 . S
C3478 C3479 1.373 . S
C3478 C3480 1.389 . S
C3479 H3458 0.950 . S
C3479 C3478 1.373 . S
C3479 C3495 1.377 . S
C3480 C3478 1.389 . S
C3480 C3481 1.524 . S
C3480 C3494 1.377 . S
C3481 C3480 1.524 . S
C3481 C3482 1.397 . S
C3481 C3486 1.363 . S
C3482 H3459 0.950 . S
C3482 C3481 1.397 . S
C3482 C3483 1.334 . S
C3483 H3460 0.950 . S
C3483 C3482 1.334 . S
C3483 C3484 1.287 . S
C3484 C3483 1.287 . S
C3484 C3485 1.524 . S
C3484 H3503 0.913 . S
C3485 H3461 0.950 . S
C3485 C3484 1.524 . S
C3485 C3486 1.415 . S
C3486 H3462 0.950 . S
C3486 C3481 1.363 . S
C3486 C3485 1.415 . S
C3487 H3463 0.951 . S
C3487 C3488 1.366 . S
C3487 C3489 1.388 . S
C3488 C3487 1.366 . S
C3488 C3492 1.385 . S
C3489 H3464 0.951 . S
C3489 C3487 1.388 . S
C3489 C3490 1.366 . S
C3490 C3489 1.366 . S
C3490 C3491 1.414 . S
C3490 C3493 1.499 . S
C3491 H3465 0.950 . S
C3491 C3490 1.414 . S
C3491 C3492 1.374 . S
C3492 H3466 0.950 . S
C3492 C3488 1.385 . S
C3492 C3491 1.374 . S
C3493 C3490 1.499 . S
C3493 C3494 1.373 . S
C3493 C3495 1.389 . S
C3494 H3467 0.950 . S
C3494 C3480 1.377 . S
C3494 C3493 1.373 . S
C3495 C3479 1.377 . S
C3495 C3493 1.389 . S
C3495 C3496 1.524 . S
C3496 C3495 1.524 . S
C3496 C3497 1.397 . S
C3496 C3501 1.363 . S
C3497 H3468 0.950 . S
C3497 C3496 1.397 . S
C3497 C3498 1.334 . S
C3498 H3469 0.950 . S
C3498 C3497 1.334 . S
C3498 C3499 1.287 . S
C3499 C3498 1.287 . S
C3499 C3500 1.524 . S
C3499 H3502 0.999 . S
C3500 H3470 0.950 . S
C3500 C3499 1.524 . S
C3500 C3501 1.415 . S
C3501 H3471 0.950 . S
C3501 C3496 1.363 . S
C3501 C3500 1.415 . S
H3502 C3499 0.999 . S
H3503 C3484 0.913 . S
H3504 C3522 0.951 . S
H3505 C3524 0.951 . S
H3506 C3526 0.950 . S
H3507 C3527 0.950 . S
H3508 C3529 0.950 . S
H3509 C3532 0.950 . S
H3510 C3533 0.950 . S
H3511 C3535 0.950 . S
H3512 C3536 0.950 . S
H3513 C3537 0.951 . S
H3514 C3539 0.951 . S
H3515 C3541 0.950 . S
H3516 C3542 0.950 . S
H3517 C3544 0.950 . S
H3518 C3547 0.950 . S
H3519 C3548 0.950 . S
H3520 C3550 0.950 . S
H3521 C3551 0.950 . S
C3522 H3504 0.951 . S
C3522 C3523 1.366 . S
C3522 C3524 1.388 . S
C3523 C3522 1.366 . S
C3523 C3527 1.385 . S
C3524 H3505 0.951 . S
C3524 C3522 1.388 . S
C3524 C3525 1.366 . S
C3525 C3524 1.366 . S
C3525 C3526 1.414 . S
C3525 C3528 1.499 . S
C3526 H3506 0.950 . S
C3526 C3525 1.414 . S
C3526 C3527 1.374 . S
C3527 H3507 0.950 . S
C3527 C3523 1.385 . S
C3527 C3526 1.374 . S
C3528 C3525 1.499 . S
C3528 C3529 1.373 . S
C3528 C3530 1.389 . S
C3529 H3508 0.950 . S
C3529 C3528 1.373 . S
C3529 C3545 1.377 . S
C3530 C3528 1.389 . S
C3530 C3531 1.524 . S
C3530 C3544 1.377 . S
C3531 C3530 1.524 . S
C3531 C3532 1.397 . S
C3531 C3536 1.363 . S
C3532 H3509 0.950 . S
C3532 C3531 1.397 . S
C3532 C3533 1.334 . S
C3533 H3510 0.950 . S
C3533 C3532 1.334 . S
C3533 C3534 1.287 . S
C3534 C3533 1.287 . S
C3534 C3535 1.524 . S
C3534 H3553 0.913 . S
C3535 H3511 0.950 . S
C3535 C3534 1.524 . S
C3535 C3536 1.415 . S
C3536 H3512 0.950 . S
C3536 C3531 1.363 . S
C3536 C3535 1.415 . S
C3537 H3513 0.951 . S
C3537 C3538 1.366 . S
C3537 C3539 1.388 . S
C3538 C3537 1.366 . S
C3538 C3542 1.385 . S
C3539 H3514 0.951 . S
C3539 C3537 1.388 . S
C3539 C3540 1.366 . S
C3540 C3539 1.366 . S
C3540 C3541 1.414 . S
C3540 C3543 1.499 . S
C3541 H3515 0.950 . S
C3541 C3540 1.414 . S
C3541 C3542 1.374 . S
C3542 H3516 0.950 . S
C3542 C3538 1.385 . S
C3542 C3541 1.374 . S
C3543 C3540 1.499 . S
C3543 C3544 1.373 . S
C3543 C3545 1.389 . S
C3544 H3517 0.950 . S
C3544 C3530 1.377 . S
C3544 C3543 1.373 . S
C3545 C3529 1.377 . S
C3545 C3543 1.389 . S
C3545 C3546 1.524 . S
C3546 C3545 1.524 . S
C3546 C3547 1.397 . S
C3546 C3551 1.363 . S
C3547 H3518 0.950 . S
C3547 C3546 1.397 . S
C3547 C3548 1.334 . S
C3548 H3519 0.950 . S
C3548 C3547 1.334 . S
C3548 C3549 1.287 . S
C3549 C3548 1.287 . S
C3549 C3550 1.524 . S
C3549 H3552 0.999 . S
C3550 H3520 0.950 . S
C3550 C3549 1.524 . S
C3550 C3551 1.415 . S
C3551 H3521 0.950 . S
C3551 C3546 1.363 . S
C3551 C3550 1.415 . S
H3552 C3549 0.999 . S
H3553 C3534 0.913 . S
H3554 C3572 0.951 . S
H3555 C3574 0.951 . S
H3556 C3576 0.950 . S
H3557 C3577 0.950 . S
H3558 C3579 0.950 . S
H3559 C3582 0.950 . S
H3560 C3583 0.950 . S
H3561 C3585 0.950 . S
H3562 C3586 0.950 . S
H3563 C3587 0.951 . S
H3564 C3589 0.951 . S
H3565 C3591 0.950 . S
H3566 C3592 0.950 . S
H3567 C3594 0.950 . S
H3568 C3597 0.950 . S
H3569 C3598 0.950 . S
H3570 C3600 0.950 . S
H3571 C3601 0.950 . S
C3572 H3554 0.951 . S
C3572 C3573 1.366 . S
C3572 C3574 1.388 . S
C3573 C3572 1.366 . S
C3573 C3577 1.385 . S
C3574 H3555 0.951 . S
C3574 C3572 1.388 . S
C3574 C3575 1.366 . S
C3575 C3574 1.366 . S
C3575 C3576 1.414 . S
C3575 C3578 1.499 . S
C3576 H3556 0.950 . S
C3576 C3575 1.414 . S
C3576 C3577 1.374 . S
C3577 H3557 0.950 . S
C3577 C3573 1.385 . S
C3577 C3576 1.374 . S
C3578 C3575 1.499 . S
C3578 C3579 1.373 . S
C3578 C3580 1.389 . S
C3579 H3558 0.950 . S
C3579 C3578 1.373 . S
C3579 C3595 1.377 . S
C3580 C3578 1.389 . S
C3580 C3581 1.524 . S
C3580 C3594 1.377 . S
C3581 C3580 1.524 . S
C3581 C3582 1.397 . S
C3581 C3586 1.363 . S
C3582 H3559 0.950 . S
C3582 C3581 1.397 . S
C3582 C3583 1.334 . S
C3583 H3560 0.950 . S
C3583 C3582 1.334 . S
C3583 C3584 1.287 . S
C3584 C3583 1.287 . S
C3584 C3585 1.524 . S
C3584 H3603 0.913 . S
C3585 H3561 0.950 . S
C3585 C3584 1.524 . S
C3585 C3586 1.415 . S
C3586 H3562 0.950 . S
C3586 C3581 1.363 . S
C3586 C3585 1.415 . S
C3587 H3563 0.951 . S
C3587 C3588 1.366 . S
C3587 C3589 1.388 . S
C3588 C3587 1.366 . S
C3588 C3592 1.385 . S
C3589 H3564 0.951 . S
C3589 C3587 1.388 . S
C3589 C3590 1.366 . S
C3590 C3589 1.366 . S
C3590 C3591 1.414 . S
C3590 C3593 1.499 . S
C3591 H3565 0.950 . S
C3591 C3590 1.414 . S
C3591 C3592 1.374 . S
C3592 H3566 0.950 . S
C3592 C3588 1.385 . S
C3592 C3591 1.374 . S
C3593 C3590 1.499 . S
C3593 C3594 1.373 . S
C3593 C3595 1.389 . S
C3594 H3567 0.950 . S
C3594 C3580 1.377 . S
C3594 C3593 1.373 . S
C3595 C3579 1.377 . S
C3595 C3593 1.389 . S
C3595 C3596 1.524 . S
C3596 C3595 1.524 . S
C3596 C3597 1.397 . S
C3596 C3601 1.363 . S
C3597 H3568 0.950 . S
C3597 C3596 1.397 . S
C3597 C3598 1.334 . S
C3598 H3569 0.950 . S
C3598 C3597 1.334 . S
C3598 C3599 1.287 . S
C3599 C3598 1.287 . S
C3599 C3600 1.524 . S
C3599 H3602 0.999 . S
C3600 H3570 0.950 . S
C3600 C3599 1.524 . S
C3600 C3601 1.415 . S
C3601 H3571 0.950 . S
C3601 C3596 1.363 . S
C3601 C3600 1.415 . S
H3602 C3599 0.999 . S
H3603 C3584 0.913 . S
H3604 C3622 0.951 . S
H3605 C3624 0.951 . S
H3606 C3626 0.950 . S
H3607 C3627 0.950 . S
H3608 C3629 0.950 . S
H3609 C3632 0.950 . S
H3610 C3633 0.950 . S
H3611 C3635 0.950 . S
H3612 C3636 0.950 . S
H3613 C3637 0.951 . S
H3614 C3639 0.951 . S
H3615 C3641 0.950 . S
H3616 C3642 0.950 . S
H3617 C3644 0.950 . S
H3618 C3647 0.950 . S
H3619 C3648 0.950 . S
H3620 C3650 0.950 . S
H3621 C3651 0.950 . S
C3622 H3604 0.951 . S
C3622 C3623 1.366 . S
C3622 C3624 1.388 . S
C3623 C3622 1.366 . S
C3623 C3627 1.385 . S
C3624 H3605 0.951 . S
C3624 C3622 1.388 . S
C3624 C3625 1.366 . S
C3625 C3624 1.366 . S
C3625 C3626 1.414 . S
C3625 C3628 1.499 . S
C3626 H3606 0.950 . S
C3626 C3625 1.414 . S
C3626 C3627 1.374 . S
C3627 H3607 0.950 . S
C3627 C3623 1.385 . S
C3627 C3626 1.374 . S
C3628 C3625 1.499 . S
C3628 C3629 1.373 . S
C3628 C3630 1.389 . S
C3629 H3608 0.950 . S
C3629 C3628 1.373 . S
C3629 C3645 1.377 . S
C3630 C3628 1.389 . S
C3630 C3631 1.524 . S
C3630 C3644 1.377 . S
C3631 C3630 1.524 . S
C3631 C3632 1.397 . S
C3631 C3636 1.363 . S
C3632 H3609 0.950 . S
C3632 C3631 1.397 . S
C3632 C3633 1.334 . S
C3633 H3610 0.950 . S
C3633 C3632 1.334 . S
C3633 C3634 1.287 . S
C3634 C3633 1.287 . S
C3634 C3635 1.524 . S
C3634 H3653 0.913 . S
C3635 H3611 0.950 . S
C3635 C3634 1.524 . S
C3635 C3636 1.415 . S
C3636 H3612 0.950 . S
C3636 C3631 1.363 . S
C3636 C3635 1.415 . S
C3637 H3613 0.951 . S
C3637 C3638 1.366 . S
C3637 C3639 1.388 . S
C3638 C3637 1.366 . S
C3638 C3642 1.385 . S
C3639 H3614 0.951 . S
C3639 C3637 1.388 . S
C3639 C3640 1.366 . S
C3640 C3639 1.366 . S
C3640 C3641 1.414 . S
C3640 C3643 1.499 . S
C3641 H3615 0.950 . S
C3641 C3640 1.414 . S
C3641 C3642 1.374 . S
C3642 H3616 0.950 . S
C3642 C3638 1.385 . S
C3642 C3641 1.374 . S
C3643 C3640 1.499 . S
C3643 C3644 1.373 . S
C3643 C3645 1.389 . S
C3644 H3617 0.950 . S
C3644 C3630 1.377 . S
C3644 C3643 1.373 . S
C3645 C3629 1.377 . S
C3645 C3643 1.389 . S
C3645 C3646 1.524 . S
C3646 C3645 1.524 . S
C3646 C3647 1.397 . S
C3646 C3651 1.363 . S
C3647 H3618 0.950 . S
C3647 C3646 1.397 . S
C3647 C3648 1.334 . S
C3648 H3619 0.950 . S
C3648 C3647 1.334 . S
C3648 C3649 1.287 . S
C3649 C3648 1.287 . S
C3649 C3650 1.524 . S
C3649 H3652 0.999 . S
C3650 H3620 0.950 . S
C3650 C3649 1.524 . S
C3650 C3651 1.415 . S
C3651 H3621 0.950 . S
C3651 C3646 1.363 . S
C3651 C3650 1.415 . S
H3652 C3649 0.999 . S
H3653 C3634 0.913 . S
H3654 C3672 0.951 . S
H3655 C3674 0.951 . S
H3656 C3676 0.950 . S
H3657 C3677 0.950 . S
H3658 C3679 0.950 . S
H3659 C3682 0.950 . S
H3660 C3683 0.950 . S
H3661 C3685 0.950 . S
H3662 C3686 0.950 . S
H3663 C3687 0.951 . S
H3664 C3689 0.951 . S
H3665 C3691 0.950 . S
H3666 C3692 0.950 . S
H3667 C3694 0.950 . S
H3668 C3697 0.950 . S
H3669 C3698 0.950 . S
H3670 C3700 0.950 . S
H3671 C3701 0.950 . S
C3672 H3654 0.951 . S
C3672 C3673 1.366 . S
C3672 C3674 1.388 . S
C3673 C3672 1.366 . S
C3673 C3677 1.385 . S
C3674 H3655 0.951 . S
C3674 C3672 1.388 . S
C3674 C3675 1.366 . S
C3675 C3674 1.366 . S
C3675 C3676 1.414 . S
C3675 C3678 1.499 . S
C3676 H3656 0.950 . S
C3676 C3675 1.414 . S
C3676 C3677 1.374 . S
C3677 H3657 0.950 . S
C3677 C3673 1.385 . S
C3677 C3676 1.374 . S
C3678 C3675 1.499 . S
C3678 C3679 1.373 . S
C3678 C3680 1.389 . S
C3679 H3658 0.950 . S
C3679 C3678 1.373 . S
C3679 C3695 1.377 . S
C3680 C3678 1.389 . S
C3680 C3681 1.524 . S
C3680 C3694 1.377 . S
C3681 C3680 1.524 . S
C3681 C3682 1.397 . S
C3681 C3686 1.363 . S
C3682 H3659 0.950 . S
C3682 C3681 1.397 . S
C3682 C3683 1.334 . S
C3683 H3660 0.950 . S
C3683 C3682 1.334 . S
C3683 C3684 1.287 . S
C3684 C3683 1.287 . S
C3684 C3685 1.524 . S
C3684 H3703 0.913 . S
C3685 H3661 0.950 . S
C3685 C3684 1.524 . S
C3685 C3686 1.415 . S
C3686 H3662 0.950 . S
C3686 C3681 1.363 . S
C3686 C3685 1.415 . S
C3687 H3663 0.951 . S
C3687 C3688 1.366 . S
C3687 C3689 1.388 . S
C3688 C3687 1.366 . S
C3688 C3692 1.385 . S
C3689 H3664 0.951 . S
C3689 C3687 1.388 . S
C3689 C3690 1.366 . S
C3690 C3689 1.366 . S
C3690 C3691 1.414 . S
C3690 C3693 1.499 . S
C3691 H3665 0.950 . S
C3691 C3690 1.414 . S
C3691 C3692 1.374 . S
C3692 H3666 0.950 . S
C3692 C3688 1.385 . S
C3692 C3691 1.374 . S
C3693 C3690 1.499 . S
C3693 C3694 1.373 . S
C3693 C3695 1.389 . S
C3694 H3667 0.950 . S
C3694 C3680 1.377 . S
C3694 C3693 1.373 . S
C3695 C3679 1.377 . S
C3695 C3693 1.389 . S
C3695 C3696 1.524 . S
C3696 C3695 1.524 . S
C3696 C3697 1.397 . S
C3696 C3701 1.363 . S
C3697 H3668 0.950 . S
C3697 C3696 1.397 . S
C3697 C3698 1.334 . S
C3698 H3669 0.950 . S
C3698 C3697 1.334 . S
C3698 C3699 1.287 . S
C3699 C3698 1.287 . S
C3699 C3700 1.524 . S
C3699 H3702 0.999 . S
C3700 H3670 0.950 . S
C3700 C3699 1.524 . S
C3700 C3701 1.415 . S
C3701 H3671 0.950 . S
C3701 C3696 1.363 . S
C3701 C3700 1.415 . S
H3702 C3699 0.999 . S
H3703 C3684 0.913 . S
H3704 C3722 0.951 . S
H3705 C3724 0.951 . S
H3706 C3726 0.950 . S
H3707 C3727 0.950 . S
H3708 C3729 0.950 . S
H3709 C3732 0.950 . S
H3710 C3733 0.950 . S
H3711 C3735 0.950 . S
H3712 C3736 0.950 . S
H3713 C3737 0.951 . S
H3714 C3739 0.951 . S
H3715 C3741 0.950 . S
H3716 C3742 0.950 . S
H3717 C3744 0.950 . S
H3718 C3747 0.950 . S
H3719 C3748 0.950 . S
H3720 C3750 0.950 . S
H3721 C3751 0.950 . S
C3722 H3704 0.951 . S
C3722 C3723 1.366 . S
C3722 C3724 1.388 . S
C3723 C3722 1.366 . S
C3723 C3727 1.385 . S
C3724 H3705 0.951 . S
C3724 C3722 1.388 . S
C3724 C3725 1.366 . S
C3725 C3724 1.366 . S
C3725 C3726 1.414 . S
C3725 C3728 1.499 . S
C3726 H3706 0.950 . S
C3726 C3725 1.414 . S
C3726 C3727 1.374 . S
C3727 H3707 0.950 . S
C3727 C3723 1.385 . S
C3727 C3726 1.374 . S
C3728 C3725 1.499 . S
C3728 C3729 1.373 . S
C3728 C3730 1.389 . S
C3729 H3708 0.950 . S
C3729 C3728 1.373 . S
C3729 C3745 1.377 . S
C3730 C3728 1.389 . S
C3730 C3731 1.524 . S
C3730 C3744 1.377 . S
C3731 C3730 1.524 . S
C3731 C3732 1.397 . S
C3731 C3736 1.363 . S
C3732 H3709 0.950 . S
C3732 C3731 1.397 . S
C3732 C3733 1.334 . S
C3733 H3710 0.950 . S
C3733 C3732 1.334 . S
C3733 C3734 1.287 . S
C3734 C3733 1.287 . S
C3734 C3735 1.524 . S
C3734 H3753 0.913 . S
C3735 H3711 0.950 . S
C3735 C3734 1.524 . S
C3735 C3736 1.415 . S
C3736 H3712 0.950 . S
C3736 C3731 1.363 . S
C3736 C3735 1.415 . S
C3737 H3713 0.951 . S
C3737 C3738 1.366 . S
C3737 C3739 1.388 . S
C3738 C3737 1.366 . S
C3738 C3742 1.385 . S
C3739 H3714 0.951 . S
C3739 C3737 1.388 . S
C3739 C3740 1.366 . S
C3740 C3739 1.366 . S
C3740 C3741 1.414 . S
C3740 C3743 1.499 . S
C3741 H3715 0.950 . S
C3741 C3740 1.414 . S
C3741 C3742 1.374 . S
C3742 H3716 0.950 . S
C3742 C3738 1.385 . S
C3742 C3741 1.374 . S
C3743 C3740 1.499 . S
C3743 C3744 1.373 . S
C3743 C3745 1.389 . S
C3744 H3717 0.950 . S
C3744 C3730 1.377 . S
C3744 C3743 1.373 . S
C3745 C3729 1.377 . S
C3745 C3743 1.389 . S
C3745 C3746 1.524 . S
C3746 C3745 1.524 . S
C3746 C3747 1.397 . S
C3746 C3751 1.363 . S
C3747 H3718 0.950 . S
C3747 C3746 1.397 . S
C3747 C3748 1.334 . S
C3748 H3719 0.950 . S
C3748 C3747 1.334 . S
C3748 C3749 1.287 . S
C3749 C3748 1.287 . S
C3749 C3750 1.524 . S
C3749 H3752 0.999 . S
C3750 H3720 0.950 . S
C3750 C3749 1.524 . S
C3750 C3751 1.415 . S
C3751 H3721 0.950 . S
C3751 C3746 1.363 . S
C3751 C3750 1.415 . S
H3752 C3749 0.999 . S
H3753 C3734 0.913 . S
H3754 C3772 0.951 . S
H3755 C3774 0.951 . S
H3756 C3776 0.950 . S
H3757 C3777 0.950 . S
H3758 C3779 0.950 . S
H3759 C3782 0.950 . S
H3760 C3783 0.950 . S
H3761 C3785 0.950 . S
H3762 C3786 0.950 . S
H3763 C3787 0.951 . S
H3764 C3789 0.951 . S
H3765 C3791 0.950 . S
H3766 C3792 0.950 . S
H3767 C3794 0.950 . S
H3768 C3797 0.950 . S
H3769 C3798 0.950 . S
H3770 C3800 0.950 . S
H3771 C3801 0.950 . S
C3772 H3754 0.951 . S
C3772 C3773 1.366 . S
C3772 C3774 1.388 . S
C3773 C3772 1.366 . S
C3773 C3777 1.385 . S
C3774 H3755 0.951 . S
C3774 C3772 1.388 . S
C3774 C3775 1.366 . S
C3775 C3774 1.366 . S
C3775 C3776 1.414 . S
C3775 C3778 1.499 . S
C3776 H3756 0.950 . S
C3776 C3775 1.414 . S
C3776 C3777 1.374 . S
C3777 H3757 0.950 . S
C3777 C3773 1.385 . S
C3777 C3776 1.374 . S
C3778 C3775 1.499 . S
C3778 C3779 1.373 . S
C3778 C3780 1.389 . S
C3779 H3758 0.950 . S
C3779 C3778 1.373 . S
C3779 C3795 1.377 . S
C3780 C3778 1.389 . S
C3780 C3781 1.524 . S
C3780 C3794 1.377 . S
C3781 C3780 1.524 . S
C3781 C3782 1.397 . S
C3781 C3786 1.363 . S
C3782 H3759 0.950 . S
C3782 C3781 1.397 . S
C3782 C3783 1.334 . S
C3783 H3760 0.950 . S
C3783 C3782 1.334 . S
C3783 C3784 1.287 . S
C3784 C3783 1.287 . S
C3784 C3785 1.524 . S
C3784 H3803 0.913 . S
C3785 H3761 0.950 . S
C3785 C3784 1.524 . S
C3785 C3786 1.415 . S
C3786 H3762 0.950 . S
C3786 C3781 1.363 . S
C3786 C3785 1.415 . S
C3787 H3763 0.951 . S
C3787 C3788 1.366 . S
C3787 C3789 1.388 . S
C3788 C3787 1.366 . S
C3788 C3792 1.385 . S
C3789 H3764 0.951 . S
C3789 C3787 1.388 . S
C3789 C3790 1.366 . S
C3790 C3789 1.366 . S
C3790 C3791 1.414 . S
C3790 C3793 1.499 . S
C3791 H3765 0.950 . S
C3791 C3790 1.414 . S
C3791 C3792 1.374 . S
C3792 H3766 0.950 . S
C3792 C3788 1.385 . S
C3792 C3791 1.374 . S
C3793 C3790 1.499 . S
C3793 C3794 1.373 . S
C3793 C3795 1.389 . S
C3794 H3767 0.950 . S
C3794 C3780 1.377 . S
C3794 C3793 1.373 . S
C3795 C3779 1.377 . S
C3795 C3793 1.389 . S
C3795 C3796 1.524 . S
C3796 C3795 1.524 . S
C3796 C3797 1.397 . S
C3796 C3801 1.363 . S
C3797 H3768 0.950 . S
C3797 C3796 1.397 . S
C3797 C3798 1.334 . S
C3798 H3769 0.950 . S
C3798 C3797 1.334 . S
C3798 C3799 1.287 . S
C3799 C3798 1.287 . S
C3799 C3800 1.524 . S
C3799 H3802 0.999 . S
C3800 H3770 0.950 . S
C3800 C3799 1.524 . S
C3800 C3801 1.415 . S
C3801 H3771 0.950 . S
C3801 C3796 1.363 . S
C3801 C3800 1.415 . S
H3802 C3799 0.999 . S
H3803 C3784 0.913 . S
H3804 C3822 0.951 . S
H3805 C3824 0.951 . S
H3806 C3826 0.950 . S
H3807 C3827 0.950 . S
H3808 C3829 0.950 . S
H3809 C3832 0.950 . S
H3810 C3833 0.950 . S
H3811 C3835 0.950 . S
H3812 C3836 0.950 . S
H3813 C3837 0.951 . S
H3814 C3839 0.951 . S
H3815 C3841 0.950 . S
H3816 C3842 0.950 . S
H3817 C3844 0.950 . S
H3818 C3847 0.950 . S
H3819 C3848 0.950 . S
H3820 C3850 0.950 . S
H3821 C3851 0.950 . S
C3822 H3804 0.951 . S
C3822 C3823 1.366 . S
C3822 C3824 1.388 . S
C3823 C3822 1.366 . S
C3823 C3827 1.385 . S
C3824 H3805 0.951 . S
C3824 C3822 1.388 . S
C3824 C3825 1.366 . S
C3825 C3824 1.366 . S
C3825 C3826 1.414 . S
C3825 C3828 1.499 . S
C3826 H3806 0.950 . S
C3826 C3825 1.414 . S
C3826 C3827 1.374 . S
C3827 H3807 0.950 . S
C3827 C3823 1.385 . S
C3827 C3826 1.374 . S
C3828 C3825 1.499 . S
C3828 C3829 1.373 . S
C3828 C3830 1.389 . S
C3829 H3808 0.950 . S
C3829 C3828 1.373 . S
C3829 C3845 1.377 . S
C3830 C3828 1.389 . S
C3830 C3831 1.524 . S
C3830 C3844 1.377 . S
C3831 C3830 1.524 . S
C3831 C3832 1.397 . S
C3831 C3836 1.363 . S
C3832 H3809 0.950 . S
C3832 C3831 1.397 . S
C3832 C3833 1.334 . S
C3833 H3810 0.950 . S
C3833 C3832 1.334 . S
C3833 C3834 1.287 . S
C3834 C3833 1.287 . S
C3834 C3835 1.524 . S
C3834 H3853 0.913 . S
C3835 H3811 0.950 . S
C3835 C3834 1.524 . S
C3835 C3836 1.415 . S
C3836 H3812 0.950 . S
C3836 C3831 1.363 . S
C3836 C3835 1.415 . S
C3837 H3813 0.951 . S
C3837 C3838 1.366 . S
C3837 C3839 1.388 . S
C3838 C3837 1.366 . S
C3838 C3842 1.385 . S
C3839 H3814 0.951 . S
C3839 C3837 1.388 . S
C3839 C3840 1.366 . S
C3840 C3839 1.366 . S
C3840 C3841 1.414 . S
C3840 C3843 1.499 . S
C3841 H3815 0.950 . S
C3841 C3840 1.414 . S
C3841 C3842 1.374 . S
C3842 H3816 0.950 . S
C3842 C3838 1.385 . S
C3842 C3841 1.374 . S
C3843 C3840 1.499 . S
C3843 C3844 1.373 . S
C3843 C3845 1.389 . S
C3844 H3817 0.950 . S
C3844 C3830 1.377 . S
C3844 C3843 1.373 . S
C3845 C3829 1.377 . S
C3845 C3843 1.389 . S
C3845 C3846 1.524 . S
C3846 C3845 1.524 . S
C3846 C3847 1.397 . S
C3846 C3851 1.363 . S
C3847 H3818 0.950 . S
C3847 C3846 1.397 . S
C3847 C3848 1.334 . S
C3848 H3819 0.950 . S
C3848 C3847 1.334 . S
C3848 C3849 1.287 . S
C3849 C3848 1.287 . S
C3849 C3850 1.524 . S
C3849 H3852 0.999 . S
C3850 H3820 0.950 . S
C3850 C3849 1.524 . S
C3850 C3851 1.415 . S
C3851 H3821 0.950 . S
C3851 C3846 1.363 . S
C3851 C3850 1.415 . S
H3852 C3849 0.999 . S
H3853 C3834 0.913 . S
H3854 C3872 0.951 . S
H3855 C3874 0.951 . S
H3856 C3876 0.950 . S
H3857 C3877 0.950 . S
H3858 C3879 0.950 . S
H3859 C3882 0.950 . S
H3860 C3883 0.950 . S
H3861 C3885 0.950 . S
H3862 C3886 0.950 . S
H3863 C3887 0.951 . S
H3864 C3889 0.951 . S
H3865 C3891 0.950 . S
H3866 C3892 0.950 . S
H3867 C3894 0.950 . S
H3868 C3897 0.950 . S
H3869 C3898 0.950 . S
H3870 C3900 0.950 . S
H3871 C3901 0.950 . S
C3872 H3854 0.951 . S
C3872 C3873 1.366 . S
C3872 C3874 1.388 . S
C3873 C3872 1.366 . S
C3873 C3877 1.385 . S
C3874 H3855 0.951 . S
C3874 C3872 1.388 . S
C3874 C3875 1.366 . S
C3875 C3874 1.366 . S
C3875 C3876 1.414 . S
C3875 C3878 1.499 . S
C3876 H3856 0.950 . S
C3876 C3875 1.414 . S
C3876 C3877 1.374 . S
C3877 H3857 0.950 . S
C3877 C3873 1.385 . S
C3877 C3876 1.374 . S
C3878 C3875 1.499 . S
C3878 C3879 1.373 . S
C3878 C3880 1.389 . S
C3879 H3858 0.950 . S
C3879 C3878 1.373 . S
C3879 C3895 1.377 . S
C3880 C3878 1.389 . S
C3880 C3881 1.524 . S
C3880 C3894 1.377 . S
C3881 C3880 1.524 . S
C3881 C3882 1.397 . S
C3881 C3886 1.363 . S
C3882 H3859 0.950 . S
C3882 C3881 1.397 . S
C3882 C3883 1.334 . S
C3883 H3860 0.950 . S
C3883 C3882 1.334 . S
C3883 C3884 1.287 . S
C3884 C3883 1.287 . S
C3884 C3885 1.524 . S
C3884 H3903 0.913 . S
C3885 H3861 0.950 . S
C3885 C3884 1.524 . S
C3885 C3886 1.415 . S
C3886 H3862 0.950 . S
C3886 C3881 1.363 . S
C3886 C3885 1.415 . S
C3887 H3863 0.951 . S
C3887 C3888 1.366 . S
C3887 C3889 1.388 . S
C3888 C3887 1.366 . S
C3888 C3892 1.385 . S
C3889 H3864 0.951 . S
C3889 C3887 1.388 . S
C3889 C3890 1.366 . S
C3890 C3889 1.366 . S
C3890 C3891 1.414 . S
C3890 C3893 1.499 . S
C3891 H3865 0.950 . S
C3891 C3890 1.414 . S
C3891 C3892 1.374 . S
C3892 H3866 0.950 . S
C3892 C3888 1.385 . S
C3892 C3891 1.374 . S
C3893 C3890 1.499 . S
C3893 C3894 1.373 . S
C3893 C3895 1.389 . S
C3894 H3867 0.950 . S
C3894 C3880 1.377 . S
C3894 C3893 1.373 . S
C3895 C3879 1.377 . S
C3895 C3893 1.389 . S
C3895 C3896 1.524 . S
C3896 C3895 1.524 . S
C3896 C3897 1.397 . S
C3896 C3901 1.363 . S
C3897 H3868 0.950 . S
C3897 C3896 1.397 . S
C3897 C3898 1.334 . S
C3898 H3869 0.950 . S
C3898 C3897 1.334 . S
C3898 C3899 1.287 . S
C3899 C3898 1.287 . S
C3899 C3900 1.524 . S
C3899 H3902 0.999 . S
C3900 H3870 0.950 . S
C3900 C3899 1.524 . S
C3900 C3901 1.415 . S
C3901 H3871 0.950 . S
C3901 C3896 1.363 . S
C3901 C3900 1.415 . S
H3902 C3899 0.999 . S
H3903 C3884 0.913 . S
H3904 C3922 0.951 . S
H3905 C3924 0.951 . S
H3906 C3926 0.950 . S
H3907 C3927 0.950 . S
H3908 C3929 0.950 . S
H3909 C3932 0.950 . S
H3910 C3933 0.950 . S
H3911 C3935 0.950 . S
H3912 C3936 0.950 . S
H3913 C3937 0.951 . S
H3914 C3939 0.951 . S
H3915 C3941 0.950 . S
H3916 C3942 0.950 . S
H3917 C3944 0.950 . S
H3918 C3947 0.950 . S
H3919 C3948 0.950 . S
H3920 C3950 0.950 . S
H3921 C3951 0.950 . S
C3922 H3904 0.951 . S
C3922 C3923 1.366 . S
C3922 C3924 1.388 . S
C3923 C3922 1.366 . S
C3923 C3927 1.385 . S
C3924 H3905 0.951 . S
C3924 C3922 1.388 . S
C3924 C3925 1.366 . S
C3925 C3924 1.366 . S
C3925 C3926 1.414 . S
C3925 C3928 1.499 . S
C3926 H3906 0.950 . S
C3926 C3925 1.414 . S
C3926 C3927 1.374 . S
C3927 H3907 0.950 . S
C3927 C3923 1.385 . S
C3927 C3926 1.374 . S
C3928 C3925 1.499 . S
C3928 C3929 1.373 . S
C3928 C3930 1.389 . S
C3929 H3908 0.950 . S
C3929 C3928 1.373 . S
C3929 C3945 1.377 . S
C3930 C3928 1.389 . S
C3930 C3931 1.524 . S
C3930 C3944 1.377 . S
C3931 C3930 1.524 . S
C3931 C3932 1.397 . S
C3931 C3936 1.363 . S
C3932 H3909 0.950 . S
C3932 C3931 1.397 . S
C3932 C3933 1.334 . S
C3933 H3910 0.950 . S
C3933 C3932 1.334 . S
C3933 C3934 1.287 . S
C3934 C3933 1.287 . S
C3934 C3935 1.524 . S
C3934 H3953 0.913 . S
C3935 H3911 0.950 . S
C3935 C3934 1.524 . S
C3935 C3936 1.415 . S
C3936 H3912 0.950 . S
C3936 C3931 1.363 . S
C3936 C3935 1.415 . S
C3937 H3913 0.951 . S
C3937 C3938 1.366 . S
C3937 C3939 1.388 . S
C3938 C3937 1.366 . S
C3938 C3942 1.385 . S
C3939 H3914 0.951 . S
C3939 C3937 1.388 . S
C3939 C3940 1.366 . S
C3940 C3939 1.366 . S
C3940 C3941 1.414 . S
C3940 C3943 1.499 . S
C3941 H3915 0.950 . S
C3941 C3940 1.414 . S
C3941 C3942 1.374 . S
C3942 H3916 0.950 . S
C3942 C3938 1.385 . S
C3942 C3941 1.374 . S
C3943 C3940 1.499 . S
C3943 C3944 1.373 . S
C3943 C3945 1.389 . S
C3944 H3917 0.950 . S
C3944 C3930 1.377 . S
C3944 C3943 1.373 . S
C3945 C3929 1.377 . S
C3945 C3943 1.389 . S
C3945 C3946 1.524 . S
C3946 C3945 1.524 . S
C3946 C3947 1.397 . S
C3946 C3951 1.363 . S
C3947 H3918 0.950 . S
C3947 C3946 1.397 . S
C3947 C3948 1.334 . S
C3948 H3919 0.950 . S
C3948 C3947 1.334 . S
C3948 C3949 1.287 . S
C3949 C3948 1.287 . S
C3949 C3950 1.524 . S
C3949 H3952 0.999 . S
C3950 H3920 0.950 . S
C3950 C3949 1.524 . S
C3950 C3951 1.415 . S
C3951 H3921 0.950 . S
C3951 C3946 1.363 . S
C3951 C3950 1.415 . S
H3952 C3949 0.999 . S
H3953 C3934 0.913 . S
H3954 C3972 0.951 . S
H3955 C3974 0.951 . S
H3956 C3976 0.950 . S
H3957 C3977 0.950 . S
H3958 C3979 0.950 . S
H3959 C3982 0.950 . S
H3960 C3983 0.950 . S
H3961 C3985 0.950 . S
H3962 C3986 0.950 . S
H3963 C3987 0.951 . S
H3964 C3989 0.951 . S
H3965 C3991 0.950 . S
H3966 C3992 0.950 . S
H3967 C3994 0.950 . S
H3968 C3997 0.950 . S
H3969 C3998 0.950 . S
H3970 C4000 0.950 . S
H3971 C4001 0.950 . S
C3972 H3954 0.951 . S
C3972 C3973 1.366 . S
C3972 C3974 1.388 . S
C3973 C3972 1.366 . S
C3973 C3977 1.385 . S
C3974 H3955 0.951 . S
C3974 C3972 1.388 . S
C3974 C3975 1.366 . S
C3975 C3974 1.366 . S
C3975 C3976 1.414 . S
C3975 C3978 1.499 . S
C3976 H3956 0.950 . S
C3976 C3975 1.414 . S
C3976 C3977 1.374 . S
C3977 H3957 0.950 . S
C3977 C3973 1.385 . S
C3977 C3976 1.374 . S
C3978 C3975 1.499 . S
C3978 C3979 1.373 . S
C3978 C3980 1.389 . S
C3979 H3958 0.950 . S
C3979 C3978 1.373 . S
C3979 C3995 1.377 . S
C3980 C3978 1.389 . S
C3980 C3981 1.524 . S
C3980 C3994 1.377 . S
C3981 C3980 1.524 . S
C3981 C3982 1.397 . S
C3981 C3986 1.363 . S
C3982 H3959 0.950 . S
C3982 C3981 1.397 . S
C3982 C3983 1.334 . S
C3983 H3960 0.950 . S
C3983 C3982 1.334 . S
C3983 C3984 1.287 . S
C3984 C3983 1.287 . S
C3984 C3985 1.524 . S
C3984 H4003 0.913 . S
C3985 H3961 0.950 . S
C3985 C3984 1.524 . S
C3985 C3986 1.415 . S
C3986 H3962 0.950 . S
C3986 C3981 1.363 . S
C3986 C3985 1.415 . S
C3987 H3963 0.951 . S
C3987 C3988 1.366 . S
C3987 C3989 1.388 . S
C3988 C3987 1.366 . S
C3988 C3992 1.385 . S
C3989 H3964 0.951 . S
C3989 C3987 1.388 . S
C3989 C3990 1.366 . S
C3990 C3989 1.366 . S
C3990 C3991 1.414 . S
C3990 C3993 1.499 . S
C3991 H3965 0.950 . S
C3991 C3990 1.414 . S
C3991 C3992 1.374 . S
C3992 H3966 0.950 . S
C3992 C3988 1.385 . S
C3992 C3991 1.374 . S
C3993 C3990 1.499 . S
C3993 C3994 1.373 . S
C3993 C3995 1.389 . S
C3994 H3967 0.950 . S
C3994 C3980 1.377 . S
C3994 C3993 1.373 . S
C3995 C3979 1.377 . S
C3995 C3993 1.389 . S
C3995 C3996 1.524 . S
C3996 C3995 1.524 . S
C3996 C3997 1.397 . S
C3996 C4001 1.363 . S
C3997 H3968 0.950 . S
C3997 C3996 1.397 . S
C3997 C3998 1.334 . S
C3998 H3969 0.950 . S
C3998 C3997 1.334 . S
C3998 C3999 1.287 . S
C3999 C3998 1.287 . S
C3999 C4000 1.524 . S
C3999 H4002 0.999 . S
C4000 H3970 0.950 . S
C4000 C3999 1.524 . S
C4000 C4001 1.415 . S
C4001 H3971 0.950 . S
C4001 C3996 1.363 . S
C4001 C4000 1.415 . S
H4002 C3999 0.999 . S
H4003 C3984 0.913 . S
H4004 C4022 0.951 . S
H4005 C4024 0.951 . S
H4006 C4026 0.950 . S
H4007 C4027 0.950 . S
H4008 C4029 0.950 . S
H4009 C4032 0.950 . S
H4010 C4033 0.950 . S
H4011 C4035 0.950 . S
H4012 C4036 0.950 . S
H4013 C4037 0.951 . S
H4014 C4039 0.951 . S
H4015 C4041 0.950 . S
H4016 C4042 0.950 . S
H4017 C4044 0.950 . S
H4018 C4047 0.950 . S
H4019 C4048 0.950 . S
H4020 C4050 0.950 . S
H4021 C4051 0.950 . S
C4022 H4004 0.951 . S
C4022 C4023 1.366 . S
C4022 C4024 1.388 . S
C4023 C4022 1.366 . S
C4023 C4027 1.385 . S
C4024 H4005 0.951 . S
C4024 C4022 1.388 . S
C4024 C4025 1.366 . S
C4025 C4024 1.366 . S
C4025 C4026 1.414 . S
C4025 C4028 1.499 . S
C4026 H4006 0.950 . S
C4026 C4025 1.414 . S
C4026 C4027 1.374 . S
C4027 H4007 0.950 . S
C4027 C4023 1.385 . S
C4027 C4026 1.374 . S
C4028 C4025 1.499 . S
C4028 C4029 1.373 . S
C4028 C4030 1.389 . S
C4029 H4008 0.950 . S
C4029 C4028 1.373 . S
C4029 C4045 1.377 . S
C4030 C4028 1.389 . S
C4030 C4031 1.524 . S
C4030 C4044 1.377 . S
C4031 C4030 1.524 . S
C4031 C4032 1.397 . S
C4031 C4036 1.363 . S
C4032 H4009 0.950 . S
C4032 C4031 1.397 . S
C4032 C4033 1.334 . S
C4033 H4010 0.950 . S
C4033 C4032 1.334 . S
C4033 C4034 1.287 . S
C4034 C4033 1.287 . S
C4034 C4035 1.524 . S
C4034 H4053 0.913 . S
C4035 H4011 0.950 . S
C4035 C4034 1.524 . S
C4035 C4036 1.415 . S
C4036 H4012 0.950 . S
C4036 C4031 1.363 . S
C4036 C4035 1.415 . S
C4037 H4013 0.951 . S
C4037 C4038 1.366 . S
C4037 C4039 1.388 . S
C4038 C4037 1.366 . S
C4038 C4042 1.385 . S
C4039 H4014 0.951 . S
C4039 C4037 1.388 . S
C4039 C4040 1.366 . S
C4040 C4039 1.366 . S
C4040 C4041 1.414 . S
C4040 C4043 1.499 . S
C4041 H4015 0.950 . S
C4041 C4040 1.414 . S
C4041 C4042 1.374 . S
C4042 H4016 0.950 . S
C4042 C4038 1.385 . S
C4042 C4041 1.374 . S
C4043 C4040 1.499 . S
C4043 C4044 1.373 . S
C4043 C4045 1.389 . S
C4044 H4017 0.950 . S
C4044 C4030 1.377 . S
C4044 C4043 1.373 . S
C4045 C4029 1.377 . S
C4045 C4043 1.389 . S
C4045 C4046 1.524 . S
C4046 C4045 1.524 . S
C4046 C4047 1.397 . S
C4046 C4051 1.363 . S
C4047 H4018 0.950 . S
C4047 C4046 1.397 . S
C4047 C4048 1.334 . S
C4048 H4019 0.950 . S
C4048 C4047 1.334 . S
C4048 C4049 1.287 . S
C4049 C4048 1.287 . S
C4049 C4050 1.524 . S
C4049 H4052 0.999 . S
C4050 H4020 0.950 . S
C4050 C4049 1.524 . S
C4050 C4051 1.415 . S
C4051 H4021 0.950 . S
C4051 C4046 1.363 . S
C4051 C4050 1.415 . S
H4052 C4049 0.999 . S
H4053 C4034 0.913 . S
H4054 C4072 0.951 . S
H4055 C4074 0.951 . S
H4056 C4076 0.950 . S
H4057 C4077 0.950 . S
H4058 C4079 0.950 . S
H4059 C4082 0.950 . S
H4060 C4083 0.950 . S
H4061 C4085 0.950 . S
H4062 C4086 0.950 . S
H4063 C4087 0.951 . S
H4064 C4089 0.951 . S
H4065 C4091 0.950 . S
H4066 C4092 0.950 . S
H4067 C4094 0.950 . S
H4068 C4097 0.950 . S
H4069 C4098 0.950 . S
H4070 C4100 0.950 . S
H4071 C4101 0.950 . S
C4072 H4054 0.951 . S
C4072 C4073 1.366 . S
C4072 C4074 1.388 . S
C4073 C4072 1.366 . S
C4073 C4077 1.385 . S
C4074 H4055 0.951 . S
C4074 C4072 1.388 . S
C4074 C4075 1.366 . S
C4075 C4074 1.366 . S
C4075 C4076 1.414 . S
C4075 C4078 1.499 . S
C4076 H4056 0.950 . S
C4076 C4075 1.414 . S
C4076 C4077 1.374 . S
C4077 H4057 0.950 . S
C4077 C4073 1.385 . S
C4077 C4076 1.374 . S
C4078 C4075 1.499 . S
C4078 C4079 1.373 . S
C4078 C4080 1.389 . S
C4079 H4058 0.950 . S
C4079 C4078 1.373 . S
C4079 C4095 1.377 . S
C4080 C4078 1.389 . S
C4080 C4081 1.524 . S
C4080 C4094 1.377 . S
C4081 C4080 1.524 . S
C4081 C4082 1.397 . S
C4081 C4086 1.363 . S
C4082 H4059 0.950 . S
C4082 C4081 1.397 . S
C4082 C4083 1.334 . S
C4083 H4060 0.950 . S
C4083 C4082 1.334 . S
C4083 C4084 1.287 . S
C4084 C4083 1.287 . S
C4084 C4085 1.524 . S
C4084 H4103 0.913 . S
C4085 H4061 0.950 . S
C4085 C4084 1.524 . S
C4085 C4086 1.415 . S
C4086 H4062 0.950 . S
C4086 C4081 1.363 . S
C4086 C4085 1.415 . S
C4087 H4063 0.951 . S
C4087 C4088 1.366 . S
C4087 C4089 1.388 . S
C4088 C4087 1.366 . S
C4088 C4092 1.385 . S
C4089 H4064 0.951 . S
C4089 C4087 1.388 . S
C4089 C4090 1.366 . S
C4090 C4089 1.366 . S
C4090 C4091 1.414 . S
C4090 C4093 1.499 . S
C4091 H4065 0.950 . S
C4091 C4090 1.414 . S
C4091 C4092 1.374 . S
C4092 H4066 0.950 . S
C4092 C4088 1.385 . S
C4092 C4091 1.374 . S
C4093 C4090 1.499 . S
C4093 C4094 1.373 . S
C4093 C4095 1.389 . S
C4094 H4067 0.950 . S
C4094 C4080 1.377 . S
C4094 C4093 1.373 . S
C4095 C4079 1.377 . S
C4095 C4093 1.389 . S
C4095 C4096 1.524 . S
C4096 C4095 1.524 . S
C4096 C4097 1.397 . S
C4096 C4101 1.363 . S
C4097 H4068 0.950 . S
C4097 C4096 1.397 . S
C4097 C4098 1.334 . S
C4098 H4069 0.950 . S
C4098 C4097 1.334 . S
C4098 C4099 1.287 . S
C4099 C4098 1.287 . S
C4099 C4100 1.524 . S
C4099 H4102 0.999 . S
C4100 H4070 0.950 . S
C4100 C4099 1.524 . S
C4100 C4101 1.415 . S
C4101 H4071 0.950 . S
C4101 C4096 1.363 . S
C4101 C4100 1.415 . S
H4102 C4099 0.999 . S
H4103 C4084 0.913 . S
C523 C7 1.386 . S
C538 C259 1.386 . S
C573 C273 1.386 . S
C588 C21 1.386 . S
C623 C287 1.386 . S
C638 C35 1.386 . S
C673 C49 1.386 . S
C688 C469 1.386 . S
C723 C63 1.386 . S
C738 C483 1.386 . S
C773 C77 1.387 . S
C788 C497 1.387 . S
C823 C343 1.386 . S
C838 C91 1.386 . S
C873 C105 1.386 . S
C888 C357 1.386 . S
C923 C119 1.386 . S
C938 C371 1.386 . S
C973 C217 1.386 . S
C988 C133 1.386 . S
C1023 C231 1.387 . S
C1038 C147 1.387 . S
C1073 C245 1.386 . S
C1088 C161 1.386 . S
C1123 C427 1.386 . S
C1138 C175 1.386 . S
C1173 C441 1.386 . S
C1188 C189 1.386 . S
C1223 C203 1.386 . S
C1238 C455 1.386 . S
C1273 C385 1.386 . S
C1288 C301 1.386 . S
C1323 C315 1.386 . S
C1338 C399 1.386 . S
C1373 C329 1.387 . S
C1388 C413 1.387 . S
C1423 C8 1.356 . S
C1438 C386 1.357 . S
C1473 C400 1.357 . S
C1488 C22 1.357 . S
C1523 C414 1.357 . S
C1538 C36 1.357 . S
C1573 C176 1.357 . S
C1588 C50 1.356 . S
C1623 C190 1.357 . S
C1638 C64 1.357 . S
C1673 C204 1.357 . S
C1688 C78 1.357 . S
C1723 C92 1.356 . S
C1738 C302 1.356 . S
C1773 C316 1.357 . S
C1788 C106 1.357 . S
C1823 C330 1.357 . S
C1838 C120 1.357 . S
C1873 C134 1.357 . S
C1888 C428 1.356 . S
C1923 C148 1.357 . S
C1938 C442 1.357 . S
C1973 C162 1.356 . S
C1988 C456 1.357 . S
C2023 C218 1.357 . S
C2038 C344 1.356 . S
C2073 C232 1.357 . S
C2088 C358 1.357 . S
C2123 C246 1.357 . S
C2138 C372 1.357 . S
C2173 C260 1.356 . S
C2188 C470 1.357 . S
C2223 C484 1.357 . S
C2238 C274 1.357 . S
C2273 C288 1.357 . S
C2288 C498 1.357 . S
C2323 C17 0.870 1_455 S
C2338 C9 0.848 . S
C2373 C23 0.846 . S
C2388 C31 0.870 . S
C2423 C37 0.845 . S
C2438 C3 0.870 1_565 S
C2473 C51 0.848 . S
C2488 C73 0.870 1_545 S
C2523 C45 0.871 1_655 S
C2538 C65 0.847 . S
C2573 C79 0.845 . S
C2588 C59 0.870 . S
C2623 C93 0.848 . S
C2638 C101 0.870 1_655 S
C2673 C107 0.845 . S
C2688 C115 0.870 . S
C2723 C121 0.845 . S
C2738 C87 0.870 1_545 S
C2773 C157 0.870 1_565 S
C2788 C135 0.847 . S
C2823 C149 0.848 . S
C2838 C129 0.870 1_455 S
C2873 C143 0.871 . S
C2888 C163 0.848 . S
C2923 C185 0.870 . S
C2938 C177 0.848 . S
C2973 C199 0.870 . S
C2988 C191 0.848 . S
C3023 C171 0.869 . S
C3038 C205 0.846 . S
C3073 C219 0.845 . S
C3088 C241 0.870 . S
C3123 C233 0.846 . S
C3138 C213 0.869 . S
C3173 C247 0.848 . S
C3188 C227 0.870 . S
C3223 C269 0.870 . S
C3238 C261 0.848 . S
C3273 C275 0.848 . S
C3288 C283 0.870 . S
C3323 C289 0.848 . S
C3338 C255 0.871 . S
C3373 C303 0.845 . S
C3388 C325 0.869 . S
C3423 C317 0.848 . S
C3438 C297 0.870 . S
C3473 C311 0.870 . S
C3488 C331 0.848 . S
C3523 C353 0.870 . S
C3538 C345 0.845 . S
C3573 C359 0.846 . S
C3588 C367 0.869 . S
C3623 C339 0.870 . S
C3638 C373 0.845 . S
C3673 C387 0.847 . S
C3688 C409 0.871 . S
C3723 C401 0.846 . S
C3738 C381 0.871 . S
C3773 C415 0.847 . S
C3788 C395 0.871 . S
C3823 C429 0.846 . S
C3838 C437 0.869 . S
C3873 C443 0.848 . S
C3888 C451 0.870 . S
C3923 C457 0.848 . S
C3938 C423 0.870 . S
C3973 C471 0.848 . S
C3988 C493 0.870 . S
C4023 C485 0.846 . S
C4038 C465 0.871 . S
C4073 C479 0.870 . S
C4088 C499 0.845 . S
