# Generated by pormake.
# Topology usf, (4)-cn, num edge types: 1
# Building blocks:
#     Node 0, Type 0, BuildingBlock: MUDLON_clean_sbu_0, # of connection points: 4
#     Node 1, Type 0, BuildingBlock: MUDLON_clean_sbu_0, # of connection points: 4
#     Node 2, Type 0, BuildingBlock: MUDLON_clean_sbu_0, # of connection points: 4
#     Node 3, Type 0, BuildingBlock: MUDLON_clean_sbu_0, # of connection points: 4
#     Node 4, Type 0, BuildingBlock: MUDLON_clean_sbu_0, # of connection points: 4
#     Node 5, Type 0, BuildingBlock: MUDLON_clean_sbu_0, # of connection points: 4
#     Node 6, Type 0, BuildingBlock: MUDLON_clean_sbu_0, # of connection points: 4
#     Node 7, Type 0, BuildingBlock: MUDLON_clean_sbu_0, # of connection points: 4
#     Node 8, Type 0, BuildingBlock: MUDLON_clean_sbu_0, # of connection points: 4
#     Node 9, Type 0, BuildingBlock: MUDLON_clean_sbu_0, # of connection points: 4
#     Node 10, Type 0, BuildingBlock: MUDLON_clean_sbu_0, # of connection points: 4
#     Node 11, Type 0, BuildingBlock: MUDLON_clean_sbu_0, # of connection points: 4
#     Node 12, Type 0, BuildingBlock: MUDLON_clean_sbu_0, # of connection points: 4
#     Node 13, Type 0, BuildingBlock: MUDLON_clean_sbu_0, # of connection points: 4
#     Node 14, Type 0, BuildingBlock: MUDLON_clean_sbu_0, # of connection points: 4
#     Node 15, Type 0, BuildingBlock: MUDLON_clean_sbu_0, # of connection points: 4
#     Node 16, Type 0, BuildingBlock: MUDLON_clean_sbu_0, # of connection points: 4
#     Node 17, Type 0, BuildingBlock: MUDLON_clean_sbu_0, # of connection points: 4
#     Edge 18, Type (0, 0), BuildingBlock: TEMPAE_clean_linker_10, # of connection points: 2
#     Edge 19, Type (0, 0), BuildingBlock: TEMPAE_clean_linker_10, # of connection points: 2
#     Edge 20, Type (0, 0), BuildingBlock: TEMPAE_clean_linker_10, # of connection points: 2
#     Edge 21, Type (0, 0), BuildingBlock: TEMPAE_clean_linker_10, # of connection points: 2
#     Edge 22, Type (0, 0), BuildingBlock: TEMPAE_clean_linker_10, # of connection points: 2
#     Edge 23, Type (0, 0), BuildingBlock: TEMPAE_clean_linker_10, # of connection points: 2
#     Edge 24, Type (0, 0), BuildingBlock: TEMPAE_clean_linker_10, # of connection points: 2
#     Edge 25, Type (0, 0), BuildingBlock: TEMPAE_clean_linker_10, # of connection points: 2
#     Edge 26, Type (0, 0), BuildingBlock: TEMPAE_clean_linker_10, # of connection points: 2
#     Edge 27, Type (0, 0), BuildingBlock: TEMPAE_clean_linker_10, # of connection points: 2
#     Edge 28, Type (0, 0), BuildingBlock: TEMPAE_clean_linker_10, # of connection points: 2
#     Edge 29, Type (0, 0), BuildingBlock: TEMPAE_clean_linker_10, # of connection points: 2
#     Edge 30, Type (0, 0), BuildingBlock: TEMPAE_clean_linker_10, # of connection points: 2
#     Edge 31, Type (0, 0), BuildingBlock: TEMPAE_clean_linker_10, # of connection points: 2
#     Edge 32, Type (0, 0), BuildingBlock: TEMPAE_clean_linker_10, # of connection points: 2
#     Edge 33, Type (0, 0), BuildingBlock: TEMPAE_clean_linker_10, # of connection points: 2
#     Edge 34, Type (0, 0), BuildingBlock: TEMPAE_clean_linker_10, # of connection points: 2
#     Edge 35, Type (0, 0), BuildingBlock: TEMPAE_clean_linker_10, # of connection points: 2
#     Edge 36, Type (0, 0), BuildingBlock: TEMPAE_clean_linker_10, # of connection points: 2
#     Edge 37, Type (0, 0), BuildingBlock: TEMPAE_clean_linker_10, # of connection points: 2
#     Edge 38, Type (0, 0), BuildingBlock: TEMPAE_clean_linker_10, # of connection points: 2
#     Edge 39, Type (0, 0), BuildingBlock: TEMPAE_clean_linker_10, # of connection points: 2
#     Edge 40, Type (0, 0), BuildingBlock: TEMPAE_clean_linker_10, # of connection points: 2
#     Edge 41, Type (0, 0), BuildingBlock: TEMPAE_clean_linker_10, # of connection points: 2
#     Edge 42, Type (0, 0), BuildingBlock: TEMPAE_clean_linker_10, # of connection points: 2
#     Edge 43, Type (0, 0), BuildingBlock: TEMPAE_clean_linker_10, # of connection points: 2
#     Edge 44, Type (0, 0), BuildingBlock: TEMPAE_clean_linker_10, # of connection points: 2
#     Edge 45, Type (0, 0), BuildingBlock: TEMPAE_clean_linker_10, # of connection points: 2
#     Edge 46, Type (0, 0), BuildingBlock: TEMPAE_clean_linker_10, # of connection points: 2
#     Edge 47, Type (0, 0), BuildingBlock: TEMPAE_clean_linker_10, # of connection points: 2
#     Edge 48, Type (0, 0), BuildingBlock: TEMPAE_clean_linker_10, # of connection points: 2
#     Edge 49, Type (0, 0), BuildingBlock: TEMPAE_clean_linker_10, # of connection points: 2
#     Edge 50, Type (0, 0), BuildingBlock: TEMPAE_clean_linker_10, # of connection points: 2
#     Edge 51, Type (0, 0), BuildingBlock: TEMPAE_clean_linker_10, # of connection points: 2
#     Edge 52, Type (0, 0), BuildingBlock: TEMPAE_clean_linker_10, # of connection points: 2
#     Edge 53, Type (0, 0), BuildingBlock: TEMPAE_clean_linker_10, # of connection points: 2
# Relax obj value: 0.161
# Max RMSD: 0.154
# Mean RMSD: 0.149
data_MOF--net-usf--node1-MUDLON_clean_sbu_0--edge1-TEMPAE_clean_linker_10
_symmetry_space_group_name_H-M    P1
_symmetry_Int_Tables_number       1
_symmetry_cell_setting            triclinic
loop_
_symmetry_equiv_pos_as_xyz
'x, y, z'
_cell_length_a     49.871472
_cell_length_b     50.393091
_cell_length_c     29.506497
_cell_angle_alpha  90.138352
_cell_angle_beta   90.330759
_cell_angle_gamma 120.23185
loop_
_atom_site_label
_atom_site_type_symbol
_atom_site_fract_x
_atom_site_fract_y
_atom_site_fract_z
_atom_type_partial_charge
Mg0 Mg 0.0436 0.57549 0.05044 0.0
C1 C 0.04771 0.53173 0.98458 0.0
O2 O 0.05042 0.55328 0.95685 0.0
C3 C 0.98171 0.57514 0.06691 0.0
O4 O 0.97649 0.55443 0.0978 0.0
C5 C 0.07467 0.63029 0.98978 0.0
O6 O 0.05633 0.63762 0.01135 0.0
O7 O 0.0789 0.60938 0.00626 0.0
O8 O 0.04108 0.53304 0.02593 0.0
O9 O 0.05269 0.58037 0.12348 0.0
C10 C 0.03401 0.55686 0.14621 0.0
O11 O 1.01435 0.53171 0.1242 0.0
O12 O 1.00479 0.58392 0.04063 0.0
Mg13 Mg 0.55553 0.54626 0.98151 0.0
C14 C 0.59276 0.6076 0.93873 0.0
O15 O 0.56865 0.59306 0.91152 0.0
C16 C 0.52797 0.48827 0.02072 0.0
O17 O 0.5072 0.49314 1.00082 0.0
C18 C 0.53905 0.50585 0.8989 0.0
O19 O 0.55373 0.49578 0.92426 0.0
O20 O 0.53491 0.52721 0.91436 0.0
O21 O 0.59539 0.59294 0.97205 0.0
O22 O 0.5288 0.55031 0.03678 0.0
C23 C 0.54643 0.56294 0.07108 0.0
O24 O 0.57657 0.57817 0.06472 0.0
O25 O 0.55663 0.50837 0.01597 0.0
Mg26 Mg 0.5253 0.97831 0.05792 0.0
C27 C 0.55556 1.01612 0.97348 0.0
O28 O 0.5782 1.01177 0.98693 0.0
C29 C 0.52352 0.02265 0.13032 0.0
O30 O 0.53703 0.04385 0.09917 0.0
C31 C 0.47679 0.92599 0.99955 0.0
O32 O 0.49801 0.94142 0.96893 0.0
O33 O 0.48304 0.93445 0.0409 0.0
O34 O 0.53179 1.00677 0.99849 0.0
O35 O 0.56905 0.97862 0.07244 0.0
C36 C 0.58916 1.00319 0.09251 0.0
O37 O 0.58192 0.02441 0.10069 0.0
O38 O 0.5154 0.99494 0.12078 0.0
Mg39 Mg 0.50347 0.02905 0.54989 0.0
C40 C 0.50378 0.98074 0.48794 0.0
O41 O 0.495 0.9941 0.45794 0.0
C42 C 0.45192 0.02925 0.6046 0.0
O43 O 0.46484 0.0212 0.63652 0.0
C44 C 0.50705 0.05947 0.46145 0.0
O45 O 0.47865 0.05115 0.47389 0.0
O46 O 0.52494 0.05706 0.49002 0.0
O47 O 0.50365 0.98709 0.52977 0.0
O48 O 0.52998 0.04403 0.61361 0.0
C49 C 0.52728 0.02226 0.63866 0.0
O50 O 0.51171 0.99407 0.62271 0.0
O51 O 0.46083 0.03044 0.56386 0.0
Mg52 Mg 0.05663 0.58038 0.5709 0.0
C53 C 0.10521 0.621 0.50199 0.0
O54 O 0.08795 0.59761 0.47519 0.0
C55 C 0.03751 0.52293 0.62547 0.0
O56 O 1.02789 0.53758 0.65152 0.0
C57 C 1.02242 0.54859 0.48715 0.0
O58 O 1.02948 0.52893 0.50464 0.0
O59 O 1.0266 0.5713 0.51153 0.0
O60 O 0.10031 0.61801 0.5445 0.0
O61 O 0.04772 0.59868 0.63305 0.0
C62 C 0.06996 0.62296 0.65082 0.0
O63 O 0.09573 0.63855 0.62788 0.0
O64 O 0.05276 0.53622 0.58988 0.0
Mg65 Mg 0.51421 0.49209 0.49526 0.0
C66 C 0.44656 0.4666 0.52304 0.0
O67 O 0.4551 0.4555 0.55673 0.0
C68 C 0.58117 0.54332 0.5034 0.0
O69 O 0.58089 0.53455 0.46136 0.0
C70 C 0.51112 0.5065 0.40088 0.0
O71 O 0.50169 0.52203 0.42533 0.0
O72 O 0.52009 0.49006 0.42161 0.0
O73 O 0.46733 0.48615 0.4969 0.0
O74 O 0.51049 0.45717 0.5428 0.0
C75 C 0.53418 0.46309 0.56685 0.0
O76 O 0.56178 0.48102 0.54975 0.0
O77 O 0.5554 0.53256 0.52412 0.0
Mg78 Mg 0.72264 0.92761 0.37003 0.0
C79 C 0.67655 0.94604 0.39223 0.0
O80 O 0.70343 0.97175 0.39346 0.0
C81 C 0.7498 0.89597 0.32231 0.0
O82 O 0.77085 0.92526 0.32049 0.0
C83 C 0.76367 0.93018 0.44956 0.0
O84 O 0.76964 0.91351 0.42164 0.0
O85 O 0.74692 0.94104 0.43562 0.0
O86 O 0.67631 0.92133 0.38196 0.0
O87 O 0.74281 0.9585 0.31244 0.0
C88 C 0.72535 0.94739 0.27763 0.0
O89 O 0.69718 0.92402 0.28341 0.0
O90 O 0.72487 0.88796 0.34414 0.0
Mg91 Mg 0.25033 0.89592 0.3365 0.0
C92 C 0.25989 0.87003 0.24817 0.0
O93 O 0.24238 0.8436 0.26814 0.0
C94 C 0.25898 0.90709 0.43007 0.0
O95 O 0.23496 0.90908 0.41627 0.0
C96 C 0.2731 0.95975 0.32839 0.0
O97 O 0.29636 0.95464 0.3328 0.0
O98 O 0.24563 0.93665 0.32906 0.0
O99 O 0.2697 0.89474 0.27089 0.0
O100 O 0.21245 0.8496 0.35295 0.0
C101 C 0.22441 0.83371 0.36636 0.0
O102 O 0.25477 0.84644 0.36509 0.0
O103 O 0.27591 0.90467 0.40006 0.0
Mg104 Mg 0.15573 0.30546 0.4003 0.0
C105 C 0.16407 0.31552 0.30166 0.0
O106 O 0.18612 0.30971 0.31289 0.0
C107 C 0.10769 0.29966 0.4692 0.0
O108 O 0.08948 0.2748 0.44553 0.0
C109 C 0.12884 0.23774 0.36814 0.0
O110 O 0.15194 0.24849 0.33946 0.0
O111 O 0.12873 0.2553 0.39915 0.0
O112 O 0.14805 0.31802 0.33297 0.0
O113 O 0.20523 0.33106 0.41807 0.0
C114 C 0.22665 0.32451 0.41443 0.0
O115 O 0.22016 0.29787 0.3971 0.0
O116 O 0.13499 0.31781 0.45501 0.0
Mg117 Mg 0.15165 0.35016 0.8743 0.0
C118 C 0.12052 0.38507 0.88804 0.0
O119 O 0.09905 0.35585 0.88726 0.0
C120 C 0.19469 0.32646 0.8588 0.0
O121 O 0.17271 0.30547 0.88416 0.0
C122 C 0.12242 0.31692 0.96698 0.0
O123 O 0.09504 0.30196 0.94722 0.0
O124 O 0.14621 0.33467 0.94393 0.0
O125 O 0.14867 0.39206 0.88191 0.0
O126 O 0.11569 0.32416 0.82346 0.0
C127 C 0.11344 0.3014 0.80149 0.0
O128 O 0.12948 0.28876 0.81528 0.0
O129 O 0.19384 0.35079 0.84962 0.0
Mg130 Mg 0.74492 0.90316 0.8716 0.0
C131 C 0.75254 0.88722 0.77993 0.0
O132 O 0.72271 0.87051 0.78827 0.0
C133 C 0.77439 0.94665 0.95179 0.0
O134 O 0.77045 0.96487 0.92431 0.0
C135 C 0.75367 0.95776 0.82464 0.0
O136 O 0.77968 0.9574 0.82085 0.0
O137 O 0.73155 0.93648 0.84726 0.0
O138 O 0.77077 0.90207 0.81269 0.0
O139 O 0.71018 0.85462 0.88429 0.0
C140 C 0.72214 0.83746 0.88729 0.0
O141 O 0.75229 0.85017 0.88211 0.0
O142 O 0.76871 0.92053 0.93701 0.0
Mg143 Mg 0.20136 0.81088 0.83675 0.0
C144 C 0.22839 0.82393 0.74393 0.0
O145 O 0.2269 0.79764 0.75236 0.0
C146 C 0.19071 0.82884 0.92752 0.0
O147 O 0.16978 0.79946 0.927 0.0
C148 C 0.14021 0.76324 0.7888 0.0
O149 O 0.15899 0.7702 0.75421 0.0
O150 O 0.15174 0.77471 0.82766 0.0
O151 O 0.21866 0.83547 0.77345 0.0
O152 O 0.23955 0.805 0.86332 0.0
C153 C 0.26307 0.83212 0.86654 0.0
O154 O 0.26036 0.85482 0.84981 0.0
O155 O 0.20435 0.84143 0.89086 0.0
Mg156 Mg 0.38389 0.23149 0.74231 0.0
C157 C 0.34317 0.26113 0.73965 0.0
O158 O 0.36523 0.27965 0.71206 0.0
C159 C 0.39921 0.18711 0.70254 0.0
O160 O 0.4237 0.21437 0.69645 0.0
C161 C 0.42899 0.23582 0.81907 0.0
O162 O 0.4378 0.22222 0.78963 0.0
O163 O 0.40924 0.24345 0.80703 0.0
O164 O 0.34383 0.23791 0.75559 0.0
O165 O 0.40922 0.2591 0.68395 0.0
C166 C 0.39299 0.25044 0.64772 0.0
O167 O 0.36346 0.22946 0.65064 0.0
O168 O 0.37571 0.18559 0.72215 0.0
Mg169 Mg 0.90763 0.22935 0.69632 0.0
C170 C 0.90928 0.19239 0.61306 0.0
O171 O 0.89594 0.1686 0.64009 0.0
C172 C 0.92528 0.23878 0.79021 0.0
O173 O 0.90672 0.24985 0.78329 0.0
C174 C 0.94658 0.29576 0.68778 0.0
O175 O 0.96552 0.28486 0.6917 0.0
O176 O 0.91743 0.27683 0.68946 0.0
O177 O 0.91824 0.21911 0.62891 0.0
O178 O 0.86153 0.19075 0.71553 0.0
C179 C 0.86467 0.16962 0.73424 0.0
O180 O 0.89265 0.17332 0.73687 0.0
O181 O 0.9347 0.23065 0.75569 0.0
Mg182 Mg 0.85019 0.66624 0.68934 0.0
C183 C 0.86358 0.67641 0.5937 0.0
O184 O 0.87152 0.6561 0.60515 0.0
C185 C 0.81727 0.68304 0.75899 0.0
O186 O 0.79476 0.66926 0.72906 0.0
C187 C 0.79092 0.61064 0.64388 0.0
O188 O 0.80943 0.60912 0.61392 0.0
O189 O 0.80243 0.62747 0.67908 0.0
O190 O 0.85656 0.68922 0.62493 0.0
O191 O 0.89261 0.66379 0.70436 0.0
C192 C 0.91724 0.69012 0.70194 0.0
O193 O 0.91422 0.71354 0.68961 0.0
O194 O 0.84435 0.68855 0.74868 0.0
Mg195 Mg 0.8292 0.70537 0.17162 0.0
C196 C 0.80412 0.74765 0.17745 0.0
O197 O 0.78177 0.72371 0.15622 0.0
C198 C 0.88739 0.70049 0.16442 0.0
O199 O 0.8847 0.69892 0.20873 0.0
C200 C 0.80656 0.68502 0.26795 0.0
O201 O 0.78804 0.69578 0.25867 0.0
O202 O 0.82311 0.68337 0.23671 0.0
O203 O 0.82926 0.74788 0.18655 0.0
O204 O 0.79482 0.68208 0.11872 0.0
C205 C 0.79745 0.66326 0.09307 0.0
O206 O 0.81494 0.65214 0.10672 0.0
O207 O 0.86997 0.70716 0.14134 0.0
Mg208 Mg 0.42497 0.23454 0.23376 0.0
C209 C 0.43757 0.20745 0.15186 0.0
O210 O 0.41051 0.18429 0.1636 0.0
C211 C 0.45206 0.26748 0.32259 0.0
O212 O 0.4543 0.29043 0.29863 0.0
C213 C 0.42714 0.28102 0.16932 0.0
O214 O 0.41906 0.25768 0.14168 0.0
O215 O 0.427 0.27664 0.21176 0.0
O216 O 0.4519 0.22952 0.17988 0.0
O217 O 0.37945 0.19267 0.23524 0.0
C218 C 0.36461 0.18288 0.27214 0.0
O219 O 0.37484 0.20061 0.3083 0.0
O220 O 0.44329 0.24187 0.30284 0.0
Mg221 Mg 0.88068 0.11927 0.18927 0.0
C222 C 0.89067 0.13396 0.09042 0.0
O223 O 0.87477 0.10379 0.08957 0.0
C224 C 0.86682 0.13512 0.2825 0.0
O225 O 0.84029 0.1097 0.27525 0.0
C226 C 0.81607 0.09266 0.15532 0.0
O227 O 0.83031 0.12093 0.14003 0.0
O228 O 0.83157 0.08387 0.17909 0.0
O229 O 0.89674 0.14777 0.12856 0.0
O230 O 0.91536 0.10584 0.20013 0.0
C231 C 0.92066 0.09965 0.23982 0.0
O232 O 0.89949 0.09245 0.27111 0.0
O233 O 0.88675 0.1457 0.25095 0.0
C234 C 1.01521 0.57196 0.41591 0.0
C235 C 1.01906 0.54916 0.43709 0.0
C236 C 1.01663 0.57503 0.36838 0.0
C237 C 1.02269 0.55528 0.34157 0.0
C238 C 1.02598 0.53191 0.36275 0.0
C239 C 1.02371 0.52889 0.41 0.0
C240 C 1.01222 0.59974 0.34695 0.0
C241 C 0.03283 0.51056 0.33561 0.0
C242 C 1.00251 0.53982 0.2165 0.0
C243 C 1.03138 0.55833 0.19603 0.0
C244 C 0.99905 0.53999 0.26363 0.0
C245 C 1.02529 0.55846 0.29127 0.0
C246 C 0.05444 0.57775 0.27075 0.0
C247 C 0.05705 0.57777 0.22322 0.0
C248 C 0.9674 0.51977 0.28389 0.0
C249 C 0.0831 0.59736 0.2991 0.0
H250 H 1.01175 0.58781 0.43648 0.0
H251 H 1.02686 0.51125 0.42582 0.0
H252 H 0.03416 0.61712 0.33096 0.0
H253 H 0.9943 0.58974 0.31978 0.0
H254 H 1.0052 0.61154 0.37203 0.0
H255 H 0.03548 0.49404 0.35735 0.0
H256 H 1.01387 0.49736 0.31077 0.0
H257 H 0.05452 0.52411 0.31613 0.0
H258 H 0.98243 0.52518 0.19556 0.0
H259 H 0.07936 0.59218 0.20747 0.0
H260 H 0.96175 0.53319 0.30792 0.0
H261 H 0.96737 0.50094 0.30332 0.0
H262 H 0.94883 0.50943 0.25761 0.0
H263 H 0.07884 0.6117 0.32326 0.0
H264 H 0.1035 0.61263 0.27805 0.0
H265 H 0.08881 0.58235 0.31946 0.0
C266 C 0.52833 0.50046 0.32291 0.0
C267 C 0.51133 0.50923 0.35064 0.0
C268 C 0.53067 0.50624 0.27588 0.0
C269 C 0.51555 0.52097 0.25622 0.0
C270 C 0.49697 0.52821 0.28375 0.0
C271 C 0.49518 0.52236 0.33041 0.0
C272 C 0.55039 0.4978 0.24756 0.0
C273 C 0.48005 0.54345 0.26427 0.0
C274 C 0.55331 0.57222 0.15431 0.0
C275 C 0.53508 0.55382 0.11806 0.0
C276 C 0.54698 0.5618 0.19918 0.0
C277 C 0.52184 0.53203 0.20832 0.0
C278 C 0.50269 0.5136 0.17199 0.0
C279 C 0.50947 0.52478 0.12727 0.0
C280 C 0.56779 0.58245 0.23676 0.0
C281 C 0.47583 0.48163 0.18001 0.0
H282 H 0.5407 0.49013 0.33815 0.0
H283 H 0.48149 0.52875 0.3513 0.0
H284 H 0.53711 0.48424 0.21742 0.0
H285 H 0.57094 0.51901 0.23507 0.0
H286 H 0.55856 0.4843 0.26696 0.0
H287 H 0.46426 0.54496 0.28922 0.0
H288 H 0.49712 0.56704 0.25315 0.0
H289 H 0.46625 0.53061 0.23401 0.0
H290 H 0.57324 0.5946 0.14739 0.0
H291 H 0.49564 0.51016 0.09938 0.0
H292 H 0.57896 0.57113 0.25462 0.0
H293 H 0.55385 0.58651 0.26205 0.0
H294 H 0.58625 0.60502 0.22402 0.0
H295 H 0.48488 0.46625 0.18926 0.0
H296 H 0.4608 0.47196 0.14946 0.0
H297 H 0.46146 0.48157 0.20861 0.0
C298 C 0.50531 1.00852 0.21035 0.0
C299 C 0.52138 0.03132 0.17783 0.0
C300 C 0.5048 1.01616 0.25604 0.0
C301 C 0.52093 0.04739 0.2698 0.0
C302 C 0.53704 0.07055 0.23715 0.0
C303 C 0.53694 0.06226 0.19155 0.0
C304 C 0.48715 0.99073 0.28968 0.0
C305 C 0.5548 0.10406 0.25057 0.0
C306 C 0.49383 0.06386 0.38096 0.0
C307 C 0.51446 0.06265 0.41232 0.0
C308 C 0.49652 0.06033 0.33427 0.0
C309 C 0.52052 0.05558 0.31837 0.0
C310 C 0.54257 0.05621 0.34955 0.0
C311 C 0.53932 0.05979 0.39613 0.0
C312 C 0.47248 0.05975 0.30229 0.0
C313 C 0.56855 0.05126 0.33409 0.0
H314 H 0.49323 0.98456 0.20018 0.0
H315 H 0.54965 0.08006 0.16681 0.0
H316 H 0.50324 0.99114 0.31616 0.0
H317 H 0.46949 0.99428 0.30698 0.0
H318 H 0.47528 0.96766 0.27339 0.0
H319 H 0.56601 0.11931 0.22113 0.0
H320 H 0.53902 0.1107 0.26683 0.0
H321 H 0.57301 0.108 0.27588 0.0
H322 H 0.4746 0.06614 0.39306 0.0
H323 H 0.55529 0.05864 0.42001 0.0
H324 H 0.45804 0.03626 0.28808 0.0
H325 H 0.48385 0.07545 0.27342 0.0
H326 H 0.45696 0.06645 0.31937 0.0
H327 H 0.55885 0.02694 0.32364 0.0
H328 H 0.58605 0.05655 0.36131 0.0
H329 H 0.58035 0.06574 0.30425 0.0
C330 C 0.09574 0.65541 0.7195 0.0
C331 C 0.06962 0.63019 0.69963 0.0
C332 C 0.09847 0.65964 0.76672 0.0
C333 C 0.07452 0.63823 0.79488 0.0
C334 C 0.04716 0.614 0.77494 0.0
C335 C 0.04503 0.61023 0.72755 0.0
C336 C 0.12761 0.68625 0.78659 0.0
C337 C 1.02063 0.59134 0.80381 0.0
C338 C 0.09329 0.62362 0.91411 0.0
C339 C 0.08075 0.63773 0.94088 0.0
C340 C 0.09224 0.62443 0.86656 0.0
C341 C 0.07874 0.64011 0.84515 0.0
C342 C 0.06811 0.65621 0.87204 0.0
C343 C 0.06926 0.65485 0.91946 0.0
C344 C 0.10389 0.60693 0.83928 0.0
C345 C 0.05332 0.67311 0.85153 0.0
H346 H 0.11473 0.67128 0.6983 0.0
H347 H 1.02464 0.59088 0.71258 0.0
H348 H 0.12171 0.69806 0.81314 0.0
H349 H 0.14173 0.67754 0.80299 0.0
H350 H 0.14199 0.70321 0.76041 0.0
H351 H 1.00065 0.57421 0.78315 0.0
H352 H 1.02863 0.57897 0.82617 0.0
H353 H 1.01259 0.60374 0.82596 0.0
H354 H 0.10241 0.61047 0.93023 0.0
H355 H 0.05953 0.66592 0.93964 0.0
H356 H 0.12087 0.62217 0.81373 0.0
H357 H 0.08421 0.58783 0.82065 0.0
H358 H 0.11508 0.59716 0.8609 0.0
H359 H 0.06059 0.68006 0.8161 0.0
H360 H 0.05891 0.69381 0.87202 0.0
H361 H 1.02778 0.65783 0.85201 0.0
C362 C 0.55764 0.47283 0.64487 0.0
C363 C 0.53101 0.46001 0.61708 0.0
C364 C 0.55572 0.4764 0.6918 0.0
C365 C 0.52656 0.46736 0.71154 0.0
C366 C 0.49938 0.45237 0.68437 0.0
C367 C 0.50191 0.44861 0.63759 0.0
C368 C 0.58518 0.49139 0.71988 0.0
C369 C 0.46775 0.4417 0.70422 0.0
C370 C 0.52641 0.46529 0.84038 0.0
C371 C 0.5308 0.49432 0.85162 0.0
C372 C 0.52314 0.45542 0.79508 0.0
C373 C 0.52501 0.47533 0.75994 0.0
C374 C 0.52808 0.50415 0.77118 0.0
C375 C 0.53063 0.51318 0.81695 0.0
C376 C 0.51927 0.4243 0.78483 0.0
C377 C 0.53036 0.52615 0.73475 0.0
H378 H 0.58026 0.48143 0.6297 0.0
H379 H 0.4811 0.43804 0.61682 0.0
H380 H 0.59033 0.5146 0.73076 0.0
H381 H 0.58239 0.47797 0.75099 0.0
H382 H 0.60533 0.49358 0.70085 0.0
H383 H 0.44872 0.42747 0.67989 0.0
H384 H 0.4645 0.42817 0.73539 0.0
H385 H 0.46582 0.46195 0.71396 0.0
H386 H 0.52628 0.4505 0.8671 0.0
H387 H 0.53421 0.53569 0.8254 0.0
H388 H 0.54102 0.42724 0.77014 0.0
H389 H 0.50051 0.41179 0.75941 0.0
H390 H 0.51383 0.40995 0.81569 0.0
H391 H 0.55197 0.53386 0.71519 0.0
H392 H 0.53059 0.5467 0.74894 0.0
H393 H 0.51059 0.51448 0.71063 0.0
C394 C 0.58179 0.03727 0.89926 0.0
C395 C 0.55524 0.02621 0.92628 0.0
C396 C 0.58051 0.04186 0.8525 0.0
C397 C 0.55192 0.03496 0.83212 0.0
C398 C 0.52554 0.02573 0.85973 0.0
C399 C 0.52754 0.0216 0.90648 0.0
C400 C 0.60929 0.05214 0.82448 0.0
C401 C 0.49457 1.01805 0.83945 0.0
C402 C 0.54653 0.05538 0.70905 0.0
C403 C 0.53718 0.02729 0.68703 0.0
C404 C 0.55227 0.05864 0.75616 0.0
C405 C 0.54846 0.03319 0.78172 0.0
C406 C 0.54008 1.00517 0.7593 0.0
C407 C 0.53465 1.00262 0.7124 0.0
C408 C 0.56144 0.08895 0.77877 0.0
C409 C 0.53581 0.97744 0.78509 0.0
H410 H 0.60338 0.04119 0.91428 0.0
H411 H 0.50689 1.0131 0.927 0.0
H412 H 0.6068 0.03246 0.80413 0.0
H413 H 0.6124 0.07035 0.80044 0.0
H414 H 0.6305 0.06094 0.84591 0.0
H415 H 0.47736 1.01477 0.86582 0.0
H416 H 0.49725 0.03646 0.81617 0.0
H417 H 0.48518 0.99655 0.81923 0.0
H418 H 0.54846 0.07454 0.68977 0.0
H419 H 0.52762 0.98086 0.69576 0.0
H420 H 0.58239 0.09648 0.80031 0.0
H421 H 0.5425 0.08625 0.80129 0.0
H422 H 0.56621 0.10725 0.75379 0.0
H423 H 0.55725 0.98326 0.8044 0.0
H424 H 0.53011 0.95762 0.76242 0.0
H425 H 0.51682 0.97029 0.80997 0.0
C426 C 0.78885 0.92198 0.72004 0.0
C427 C 0.76261 0.89407 0.73209 0.0
C428 C 0.79458 0.93125 0.67441 0.0
C429 C 0.7736 0.91213 0.6402 0.0
C430 C 0.74813 0.88318 0.6521 0.0
C431 C 0.743 0.87455 0.69776 0.0
C432 C 0.82207 0.96221 0.66325 0.0
C433 C 0.72525 0.86193 0.61681 0.0
C434 C 0.7583 0.94186 0.5307 0.0
C435 C 0.77139 0.93124 0.49855 0.0
C436 C 0.76069 0.93769 0.57735 0.0
C437 C 0.7767 0.92267 0.59227 0.0
C438 C 0.79205 0.91414 0.56021 0.0
C439 C 0.78913 0.91842 0.51377 0.0
C440 C 0.7442 0.9474 0.61042 0.0
C441 C 0.8099 0.89869 0.57472 0.0
H442 H 0.80398 0.93734 0.74638 0.0
H443 H 0.72275 0.85291 0.7068 0.0
H444 H 0.83409 0.96075 0.63264 0.0
H445 H 0.81391 0.97858 0.65583 0.0
H446 H 0.839 0.97168 0.69179 0.0
H447 H 0.70758 0.8396 0.63134 0.0
H448 H 0.71309 0.873 0.60111 0.0
H449 H 0.73758 0.85739 0.58942 0.0
H450 H 0.74473 0.95198 0.51941 0.0
H451 H 0.79969 0.91048 0.4893 0.0
H452 H 0.75985 0.9606 0.63902 0.0
H453 H 0.72403 0.9267 0.62485 0.0
H454 H 0.7357 0.96168 0.59413 0.0
H455 H 0.82532 0.91102 0.60398 0.0
H456 H 0.82417 0.89759 0.54681 0.0
H457 H 0.79341 0.87491 0.5858 0.0
C458 C 0.23362 0.82072 0.66057 0.0
C459 C 0.23934 0.83877 0.69954 0.0
C460 C 0.2414 0.83416 0.61753 0.0
C461 C 0.25618 0.86653 0.61362 0.0
C462 C 0.2638 0.88496 0.65322 0.0
C463 C 0.25473 0.87081 0.69574 0.0
C464 C 0.23194 0.81356 0.57617 0.0
C465 C 0.2804 0.91956 0.65056 0.0
C466 C 0.28587 0.89787 0.49567 0.0
C467 C 0.26124 0.90086 0.47858 0.0
C468 C 0.28545 0.88817 0.54054 0.0
C469 C 0.2594 0.88051 0.56819 0.0
C470 C 0.23501 0.88441 0.55142 0.0
C471 C 0.23648 0.89496 0.50723 0.0
C472 C 0.31233 0.8852 0.55788 0.0
C473 C 0.20648 0.87596 0.57932 0.0
H474 H 0.22164 0.79591 0.66353 0.0
H475 H 0.25958 0.88479 0.72601 0.0
H476 H 0.21327 0.81493 0.55756 0.0
H477 H 0.25175 0.82121 0.55273 0.0
H478 H 0.22327 0.78918 0.58512 0.0
H479 H 0.28905 0.93057 0.68426 0.0
H480 H 0.30029 0.92814 0.627 0.0
H481 H 0.26432 0.92685 0.63709 0.0
H482 H 0.30512 0.90249 0.4738 0.0
H483 H 0.21728 0.89719 0.4945 0.0
H484 H 0.30495 0.86057 0.56168 0.0
H485 H 0.31987 0.89612 0.59182 0.0
H486 H 0.33245 0.89585 0.53461 0.0
H487 H 0.1946 0.85117 0.58779 0.0
H488 H 0.18968 0.88064 0.56132 0.0
H489 H 0.21316 0.88898 0.61172 0.0
C490 C 0.12219 0.32502 0.54538 0.0
C491 C 0.09965 0.30256 0.51663 0.0
C492 C 0.1179 0.32387 0.5924 0.0
C493 C 0.09015 0.29996 0.61119 0.0
C494 C 0.06603 0.27906 0.58204 0.0
C495 C 0.07114 0.28046 0.53505 0.0
C496 C 0.14423 0.34678 0.62216 0.0
C497 C 0.03571 0.25385 0.60053 0.0
C498 C 0.10594 0.27669 0.72549 0.0
C499 C 0.10014 0.29507 0.75493 0.0
C500 C 0.10063 0.27639 0.67872 0.0
C501 C 0.08874 0.29454 0.66097 0.0
C502 C 0.07985 0.31065 0.69097 0.0
C503 C 0.08584 0.3109 0.73765 0.0
C504 C 0.11031 0.2587 0.64801 0.0
C505 C 0.06605 0.32936 0.67356 0.0
H506 H 0.14415 0.34241 0.53152 0.0
H507 H 0.05337 0.26323 0.51309 0.0
H508 H 0.13564 0.35713 0.64723 0.0
H509 H 0.15424 0.33484 0.64135 0.0
H510 H 0.16304 0.36553 0.60225 0.0
H511 H 1.01715 0.24445 0.57416 0.0
H512 H 0.03889 0.23483 0.61288 0.0
H513 H 1.02792 0.26222 0.62958 0.0
H514 H 0.11668 0.26411 0.73846 0.0
H515 H 0.08083 0.32483 0.76023 0.0
H516 H 0.13072 0.27505 0.62789 0.0
H517 H 0.09137 0.24429 0.62378 0.0
H518 H 0.11657 0.24365 0.66726 0.0
H519 H 0.08443 0.35057 0.6574 0.0
H520 H 0.05564 0.33612 0.70125 0.0
H521 H 0.04798 0.31633 0.64744 0.0
C522 C 0.76989 0.97236 0.22284 0.0
C523 C 0.73785 0.95524 0.23092 0.0
C524 C 0.78165 0.97531 0.17864 0.0
C525 C 0.76085 0.96078 0.14181 0.0
C526 C 0.72848 0.94471 0.14969 0.0
C527 C 0.71746 0.94216 0.19395 0.0
C528 C 0.81631 0.99245 0.1719 0.0
C529 C 0.70531 0.92866 0.1117 0.0
C530 C 0.77875 0.98001 0.01761 0.0
C531 C 0.77833 0.95361 1.00122 0.0
C532 C 0.77554 0.9839 0.064 0.0
C533 C 0.77227 0.96109 0.09501 0.0
C534 C 0.77486 0.93589 0.07924 0.0
C535 C 0.77766 0.93233 0.03248 0.0
C536 C 0.77316 1.01119 0.07934 0.0
C537 C 0.77242 0.91149 0.11134 0.0
H538 H 0.78586 0.98235 0.2512 0.0
H539 H 0.69266 0.92897 0.1997 0.0
H540 H 0.82421 0.97565 0.16663 0.0
H541 H 0.82278 1.00715 0.14138 0.0
H542 H 0.82892 1.00703 0.20171 0.0
H543 H 0.68126 0.9217 0.12196 0.0
H544 H 0.71131 0.94357 0.08146 0.0
H545 H 0.70581 0.9077 0.10151 0.0
H546 H 0.77968 0.99686 0.99393 0.0
H547 H 0.77772 0.91204 0.02031 0.0
H548 H 0.78938 0.02291 0.10802 0.0
H549 H 0.74933 1.00325 0.09158 0.0
H550 H 0.77843 0.02806 0.05178 0.0
H551 H 0.7865 0.92211 0.1424 0.0
H552 H 0.78017 0.89651 0.09543 0.0
H553 H 0.74793 0.89688 0.1219 0.0
C554 C 0.18613 0.83616 0.00998 0.0
C555 C 0.20467 0.84369 0.9714 0.0
C556 C 0.19952 0.84518 0.05332 0.0
C557 C 0.23229 0.86123 0.05827 0.0
C558 C 0.25115 0.86993 0.01919 0.0
C559 C 0.23707 0.86137 0.97614 0.0
C560 C 0.17852 0.83615 0.09399 0.0
C561 C 0.28611 0.88622 0.02271 0.0
C562 C 0.26092 0.89573 0.17532 0.0
C563 C 0.26043 0.87103 0.19802 0.0
C564 C 0.25358 0.89369 0.12892 0.0
C565 C 0.24626 0.86661 0.10455 0.0
C566 C 0.24868 0.84288 0.12639 0.0
C567 C 0.25532 0.8452 0.17302 0.0
C568 C 0.25128 0.91949 0.10691 0.0
C569 C 0.24223 0.81412 0.1012 0.0
H570 H 0.16111 0.82239 0.00633 0.0
H571 H 0.25154 0.86675 0.94641 0.0
H572 H 0.18057 0.81859 0.11388 0.0
H573 H 0.1856 0.85632 0.11651 0.0
H574 H 0.15379 0.82658 0.08417 0.0
H575 H 0.29327 0.8693 0.03173 0.0
H576 H 0.2973 0.89707 0.99015 0.0
H577 H 0.29498 0.9041 0.04964 0.0
H578 H 0.26474 0.91575 0.19445 0.0
H579 H 0.25518 0.82617 0.19034 0.0
H580 H 0.22652 0.91182 0.09997 0.0
H581 H 0.26348 0.92563 0.07396 0.0
H582 H 0.26117 0.94035 0.12875 0.0
H583 H 0.21706 0.80015 0.09331 0.0
H584 H 0.24911 0.79984 0.12126 0.0
H585 H 0.25483 0.82007 0.06856 0.0
C586 C 0.10324 0.29177 0.04278 0.0
C587 C 0.12589 0.31576 0.01677 0.0
C588 C 0.10713 0.29079 0.08995 0.0
C589 C 0.13399 0.31469 0.11152 0.0
C590 C 0.15645 0.33933 0.0855 0.0
C591 C 0.15226 0.33942 0.03853 0.0
C592 C 0.08293 0.26389 0.11653 0.0
C593 C 0.18519 0.36549 0.10717 0.0
C594 C 0.13737 0.32749 0.23922 0.0
C595 C 0.15585 0.31529 0.25328 0.0
C596 C 0.12947 0.32694 0.19322 0.0
C597 C 0.13981 0.31333 0.16081 0.0
C598 C 0.15777 0.30029 0.17509 0.0
C599 C 0.1658 0.30169 0.221 0.0
C600 C 0.11075 0.34158 0.17915 0.0
C601 C 0.16891 0.28519 0.14176 0.0
H602 H 0.0828 0.27347 0.02617 0.0
H603 H 0.16971 0.3583 0.01883 0.0
H604 H 0.09343 0.25106 0.13168 0.0
H605 H 0.07443 0.2721 0.14488 0.0
H606 H 0.0628 0.24783 0.09511 0.0
H607 H 0.19939 0.38389 0.0826 0.0
H608 H 0.17865 0.3757 0.13532 0.0
H609 H 0.19978 0.35676 0.12185 0.0
H610 H 0.12952 0.33792 0.26405 0.0
H611 H 0.17968 0.29178 0.23166 0.0
H612 H 0.08984 0.32489 0.15976 0.0
H613 H 0.12478 0.36124 0.15643 0.0
H614 H 0.10333 0.34998 0.20866 0.0
H615 H 0.14907 0.26753 0.12153 0.0
H616 H 0.18069 0.27415 0.15878 0.0
H617 H 0.18541 0.30257 0.11773 0.0
C618 C 0.46776 0.2414 0.0869 0.0
C619 C 0.44565 0.21227 0.10299 0.0
C620 C 0.47033 0.24805 0.0403 0.0
C621 C 0.45028 0.22506 0.00909 0.0
C622 C 0.42948 0.19508 0.02491 0.0
C623 C 0.42755 0.18904 0.07154 0.0
C624 C 0.49306 0.28023 0.02497 0.0
C625 C 0.40765 0.16985 0.9929 0.0
C626 C 0.42289 0.24505 0.90092 0.0
C627 C 0.43814 0.23778 0.86755 0.0
C628 C 0.42781 0.24245 0.94722 0.0
C629 C 0.44877 0.23265 0.96063 0.0
C630 C 0.46578 0.22727 0.92723 0.0
C631 C 0.46012 0.2297 0.8811 0.0
C632 C 0.40923 0.24851 0.98171 0.0
C633 C 0.48895 0.21764 0.94017 0.0
H634 H 0.48185 0.2596 0.11082 0.0
H635 H 0.41054 0.16643 0.08352 0.0
H636 H 0.50461 0.27988 0.99314 0.0
H637 H 0.48044 0.29273 0.01812 0.0
H638 H 0.51111 0.29328 0.05119 0.0
H639 H 0.39436 0.14733 0.0101 0.0
H640 H 0.39092 0.17588 0.97805 0.0
H641 H 0.42072 0.16739 0.96449 0.0
H642 H 0.40597 0.25145 0.89092 0.0
H643 H 0.47229 0.22435 0.85563 0.0
H644 H 0.42481 0.26479 0.00805 0.0
H645 H 0.39294 0.22676 0.99898 0.0
H646 H 0.39563 0.2581 0.96606 0.0
H647 H 0.50481 0.23294 0.9672 0.0
H648 H 0.50301 0.21807 0.91082 0.0
H649 H 0.47655 0.19399 0.95391 0.0
C650 C 0.9118 0.2331 0.87219 0.0
C651 C 0.92826 0.22928 0.83673 0.0
C652 C 0.90907 0.21947 0.91454 0.0
C653 C 0.92379 0.20213 0.92228 0.0
C654 C 0.94231 0.19997 0.88779 0.0
C655 C 0.94408 0.21332 0.84519 0.0
C656 C 0.8887 0.222 0.94998 0.0
C657 C 0.95903 0.18235 0.89514 0.0
C658 C 0.9256 0.1813 0.04589 0.0
C659 C 0.90021 0.15127 0.04735 0.0
C660 C 0.93458 0.19769 0.00493 0.0
C661 C 0.91719 0.18401 0.96484 0.0
C662 C 0.89168 0.15358 0.96616 0.0
C663 C 0.88376 0.13749 0.00724 0.0
C664 C 0.96239 0.22975 0.00466 0.0
C665 C 0.87204 0.13835 0.9245 0.0
H666 H 0.89957 0.24548 0.86624 0.0
H667 H 0.95693 0.21032 0.81812 0.0
H668 H 0.86823 0.19897 0.95613 0.0
H669 H 0.90148 0.23032 0.98258 0.0
H670 H 0.88033 0.23779 0.93963 0.0
H671 H 0.97609 0.18675 0.86797 0.0
H672 H 0.97132 0.18853 0.92834 0.0
H673 H 0.94194 0.15738 0.89567 0.0
H674 H 0.93861 0.19191 0.07671 0.0
H675 H 0.86405 0.11432 0.00818 0.0
H676 H 0.9548 0.24661 0.99772 0.0
H677 H 0.97848 0.23194 0.97719 0.0
H678 H 0.97525 0.23591 0.03744 0.0
H679 H 0.86064 0.15129 0.91316 0.0
H680 H 0.85378 0.11416 0.93073 0.0
H681 H 0.8868 0.13871 0.8963 0.0
C682 C 0.79436 0.64276 0.01492 0.0
C683 C 0.78979 0.66204 0.04421 0.0
C684 C 0.79447 0.64631 0.96777 0.0
C685 C 0.79021 0.66992 0.94948 0.0
C686 C 0.78321 0.6879 0.97865 0.0
C687 C 0.78289 0.68361 0.02571 0.0
C688 C 0.80117 0.62607 0.93772 0.0
C689 C 0.77847 0.71327 0.96058 0.0
C690 C 0.83342 0.70031 0.83916 0.0
C691 C 0.80969 0.68466 0.80705 0.0
C692 C 0.827 0.69717 0.88573 0.0
C693 C 0.7962 0.67753 0.90052 0.0
C694 C 0.77188 0.66318 0.86826 0.0
C695 C 0.77889 0.66713 0.82187 0.0
C696 C 0.85349 0.71356 0.91913 0.0
C697 C 0.73878 0.64197 0.8826 0.0
H698 H 0.79945 0.62588 0.02889 0.0
H699 H 0.77926 0.69863 0.04801 0.0
H700 H 0.78429 0.61675 0.90917 0.0
H701 H 0.82466 0.63987 0.92299 0.0
H702 H 0.80027 0.60658 0.95659 0.0
H703 H 0.76826 0.72162 0.98638 0.0
H704 H 0.8012 0.73287 0.95022 0.0
H705 H 0.76318 0.70551 0.93017 0.0
H706 H 0.85722 0.7141 0.82797 0.0
H707 H 0.76036 0.65491 0.79733 0.0
H708 H 0.85755 0.69654 0.93703 0.0
H709 H 0.84761 0.72575 0.9451 0.0
H710 H 0.87539 0.73044 0.90235 0.0
H711 H 0.73665 0.62053 0.8964 0.0
H712 H 0.72214 0.63581 0.85389 0.0
H713 H 0.73209 0.65263 0.9099 0.0
C714 C 0.44483 0.24339 0.39919 0.0
C715 C 0.45314 0.26953 0.37287 0.0
C716 C 0.43988 0.24349 0.44601 0.0
C717 C 0.4433 0.27035 0.46702 0.0
C718 C 0.45395 0.29745 0.4413 0.0
C719 C 0.45878 0.29673 0.39456 0.0
C720 C 0.42885 0.21416 0.47229 0.0
C721 C 0.45807 0.32661 0.46238 0.0
C722 C 0.38818 0.25486 0.56448 0.0
C723 C 0.40725 0.2599 0.60241 0.0
C724 C 0.39998 0.25926 0.52042 0.0
C725 C 0.43167 0.26875 0.51396 0.0
C726 C 0.4514 0.27514 0.55214 0.0
C727 C 0.43897 0.27074 0.59604 0.0
C728 C 0.37818 0.25261 0.48072 0.0
C729 C 0.48528 0.28526 0.54663 0.0
H730 H 0.4406 0.22231 0.38288 0.0
H731 H 0.46547 0.31715 0.37466 0.0
H732 H 0.44211 0.21879 0.50449 0.0
H733 H 0.40406 0.20447 0.48113 0.0
H734 H 0.43117 0.1966 0.45262 0.0
H735 H 0.47079 0.34671 0.43977 0.0
H736 H 0.43494 0.32377 0.4695 0.0
H737 H 0.47078 0.33152 0.49512 0.0
H738 H 0.3637 0.24666 0.56918 0.0
H739 H 0.45378 0.27446 0.62523 0.0
H740 H 0.37605 0.2329 0.46086 0.0
H741 H 0.38757 0.27267 0.45777 0.0
H742 H 0.35462 0.24705 0.49156 0.0
H743 H 0.48744 0.26606 0.53225 0.0
H744 H 0.49817 0.2924 0.57937 0.0
H745 H 0.4964 0.30465 0.52253 0.0
C746 C 0.90655 0.16556 0.34237 0.0
C747 C 0.87528 0.14827 0.32893 0.0
C748 C 0.91485 0.17503 0.38768 0.0
C749 C 0.89134 0.16727 0.42028 0.0
C750 C 0.85977 0.1509 0.40646 0.0
C751 C 0.85212 0.14134 0.3611 0.0
C752 C 0.94877 0.192 0.40085 0.0
C753 C 0.83398 0.14286 0.43985 0.0
C754 C 0.9045 0.15985 0.54567 0.0
C755 C 0.90881 0.18761 0.56332 0.0
C756 C 0.90023 0.15355 0.4989 0.0
C757 C 0.89948 0.1752 0.46914 0.0
C758 C 0.90482 0.20368 0.48658 0.0
C759 C 0.90975 0.20967 0.53336 0.0
C760 C 0.89562 0.12333 0.48147 0.0
C761 C 0.90404 0.2273 0.45608 0.0
H762 H 0.92461 0.17066 0.31786 0.0
H763 H 0.82793 0.12807 0.35092 0.0
H764 H 0.95415 0.21095 0.42505 0.0
H765 H 0.95451 0.17585 0.41788 0.0
H766 H 0.96395 0.20171 0.37084 0.0
H767 H 0.81079 0.13194 0.42315 0.0
H768 H 0.83389 0.1268 0.4656 0.0
H769 H 0.83787 0.16382 0.45806 0.0
H770 H 0.90395 0.14279 0.56856 0.0
H771 H 0.91292 0.23114 0.54668 0.0
H772 H 0.91191 0.12736 0.45337 0.0
H773 H 0.87173 0.10919 0.46769 0.0
H774 H 0.89925 0.11004 0.50837 0.0
H775 H 0.92057 0.23298 0.42778 0.0
H776 H 0.90992 0.24882 0.47455 0.0
H777 H 0.88053 0.21772 0.44089 0.0
C778 C 0.84611 0.65281 0.51734 0.0
C779 C 0.8558 0.67838 0.5459 0.0
C780 C 0.83632 0.65282 0.47276 0.0
C781 C 0.83722 0.67946 0.45573 0.0
C782 C 0.84735 0.70555 0.4842 0.0
C783 C 0.85604 0.70452 0.52932 0.0
C784 C 0.82483 0.62422 0.44398 0.0
C785 C 0.84941 0.73466 0.46681 0.0
C786 C 0.84341 0.68846 0.32803 0.0
C787 C 0.81332 0.68137 0.31563 0.0
C788 C 0.85158 0.68851 0.37356 0.0
C789 C 0.82884 0.6803 0.40749 0.0
C790 C 0.79813 0.67224 0.39512 0.0
C791 C 0.79087 0.67343 0.3493 0.0
C792 C 0.88472 0.69789 0.3854 0.0
C793 C 0.77299 0.66229 0.43022 0.0
H794 H 0.84533 0.63231 0.53023 0.0
H795 H 0.8634 0.72424 0.55143 0.0
H796 H 0.80134 0.61698 0.43033 0.0
H797 H 0.84037 0.62907 0.4146 0.0
H798 H 0.82377 0.60481 0.46326 0.0
H799 H 0.858 0.753 0.49311 0.0
H800 H 0.86524 0.7433 0.43736 0.0
H801 H 0.82627 0.7299 0.45484 0.0
H802 H 0.861 0.69512 0.30221 0.0
H803 H 0.76762 0.66801 0.33975 0.0
H804 H 0.88553 0.67861 0.40208 0.0
H805 H 0.89438 0.71738 0.40982 0.0
H806 H 0.89987 0.70483 0.35513 0.0
H807 H 0.77081 0.64239 0.4494 0.0
H808 H 0.75006 0.65575 0.41487 0.0
H809 H 0.7792 0.68113 0.455 0.0
C810 C 0.05994 0.48973 0.99983 0.0
C811 C 0.05692 0.50928 0.96905 0.0
C812 C 0.07135 0.4705 0.98594 0.0
C813 C 0.07987 0.47067 0.94012 0.0
C814 C 0.07651 0.49007 0.90881 0.0
C815 C 0.06515 0.5091 0.92361 0.0
C816 C 0.07442 0.45008 0.02041 0.0
C817 C 0.08498 0.4908 0.85958 0.0
C818 C 0.13283 0.43831 0.91204 0.0
C819 C 0.11121 0.40827 0.89826 0.0
C820 C 0.12307 0.45904 0.92536 0.0
C821 C 0.091 0.44957 0.92457 0.0
C822 C 0.06927 0.41956 0.90944 0.0
C823 C 0.0796 0.39937 0.89665 0.0
C824 C 0.14699 0.49086 0.94117 0.0
C825 C 0.03495 0.40852 0.90746 0.0
H826 H 0.05389 0.4898 0.03503 0.0
H827 H 0.06305 0.52415 0.89948 0.0
H828 H 0.05983 0.42566 0.01007 0.0
H829 H 0.0988 0.45519 0.02196 0.0
H830 H 0.06738 0.45302 0.05486 0.0
H831 H 0.08165 0.50763 0.83971 0.0
H832 H 0.10956 0.49676 0.85679 0.0
H833 H 0.07054 0.46771 0.84407 0.0
H834 H 0.15724 0.44536 0.91354 0.0
H835 H 0.06265 0.37631 0.88573 0.0
H836 H 0.14259 0.49416 0.97699 0.0
H837 H 0.14512 0.50836 0.92082 0.0
H838 H 0.17103 0.49506 0.93855 0.0
H839 H 1.02643 0.40903 0.94192 0.0
H840 H 1.02114 0.38479 0.8937 0.0
H841 H 1.03065 0.42405 0.88596 0.0
C842 C 0.71674 0.78532 0.89087 0.0
C843 C 0.70329 0.80384 0.89632 0.0
C844 C 0.69992 0.75358 0.89927 0.0
C845 C 0.66882 0.73979 0.91406 0.0
C846 C 0.65517 0.75838 0.92029 0.0
C847 C 0.67247 0.79012 0.91104 0.0
C848 C 0.71533 0.73471 0.8915 0.0
C849 C 0.62221 0.74467 0.93656 0.0
C850 C 0.61471 0.65452 0.89041 0.0
C851 C 0.61429 0.6411 0.93225 0.0
C852 C 0.63253 0.68643 0.88405 0.0
C853 C 0.65017 0.70572 0.9206 0.0
C854 C 0.65023 0.69233 0.96285 0.0
C855 C 0.63248 0.66016 0.96808 0.0
C856 C 0.63227 0.69951 0.83815 0.0
C857 C 0.66854 0.71204 1.00277 0.0
H858 H 0.74051 0.79557 0.87942 0.0
H859 H 0.66194 0.80421 0.91569 0.0
H860 H 0.71469 0.72236 0.9229 0.0
H861 H 0.70247 0.7171 0.86494 0.0
H862 H 0.73988 0.74898 0.88083 0.0
H863 H 0.61549 0.76237 0.94205 0.0
H864 H 0.60602 0.72771 0.91135 0.0
H865 H 0.61926 0.73221 0.96878 0.0
H866 H 0.60086 0.64002 0.86243 0.0
H867 H 0.63208 0.65005 1.00063 0.0
H868 H 0.65629 0.71306 0.82516 0.0
H869 H 0.62301 0.71536 0.84115 0.0
H870 H 0.61795 0.68137 0.8129 0.0
H871 H 0.69351 0.72571 0.99415 0.0
H872 H 0.66603 0.69821 0.03339 0.0
H873 H 0.66069 0.72855 0.011 0.0
C874 C 0.3133 0.87075 0.90175 0.0
C875 C 0.29244 0.8398 0.8909 0.0
C876 C 0.34192 0.88002 0.92286 0.0
C877 C 0.35042 0.85789 0.9337 0.0
C878 C 0.32917 0.8264 0.92429 0.0
C879 C 0.30033 0.81767 0.90303 0.0
C880 C 0.36345 0.91381 0.93251 0.0
C881 C 0.33719 0.80207 0.93582 0.0
C882 C 0.43817 0.89519 0.93855 0.0
C883 C 0.44455 0.90304 0.98465 0.0
C884 C 0.40751 0.87823 0.92205 0.0
C885 C 0.38236 0.86866 0.95228 0.0
C886 C 0.38861 0.87441 0.99935 0.0
C887 C 0.41959 0.89156 0.01497 0.0
C888 C 0.40215 0.87278 0.87163 0.0
C889 C 0.36261 0.86452 0.03293 0.0
H890 H 0.30738 0.88813 0.89346 0.0
H891 H 0.28434 0.79371 0.89516 0.0
H892 H 0.36969 0.91748 0.96903 0.0
H893 H 0.38528 0.9222 0.91325 0.0
H894 H 0.35296 0.92798 0.92319 0.0
H895 H 0.3173 0.7785 0.93009 0.0
H896 H 0.35688 0.80517 0.91468 0.0
H897 H 0.34477 0.8044 0.97176 0.0
H898 H 0.45716 0.90362 0.91475 0.0
H899 H 0.42413 0.89728 0.05068 0.0
H900 H 0.39385 0.88785 0.85775 0.0
H901 H 0.38397 0.84868 0.86443 0.0
H902 H 0.42364 0.87777 0.85349 0.0
H903 H 0.35315 0.88025 0.03084 0.0
H904 H 0.37068 0.86505 0.06826 0.0
H905 H 0.34334 0.841 0.02502 0.0
C906 C 0.42833 0.04701 0.66353 0.0
C907 C 0.43316 0.04358 0.61753 0.0
C908 C 0.41694 0.06618 0.67739 0.0
C909 C 0.40982 0.08219 0.6445 0.0
C910 C 0.41187 0.07657 0.59788 0.0
C911 C 0.42365 0.05747 0.58493 0.0
C912 C 0.4153 0.07145 0.72744 0.0
C913 C 0.404 0.09265 0.56159 0.0
C914 C 0.37421 0.13019 0.68454 0.0
C915 C 0.40069 0.15951 0.6881 0.0
C916 C 0.37651 0.1047 0.66968 0.0
C917 C 0.40599 0.10862 0.65881 0.0
C918 C 0.43267 0.13816 0.6627 0.0
C919 C 0.42966 0.16307 0.67695 0.0
C920 C 0.34748 0.07367 0.6654 0.0
C921 C 0.46467 0.14355 0.65215 0.0
H922 H 0.43526 0.0362 0.68912 0.0
H923 H 0.42696 0.05481 0.54929 0.0
H924 H 0.4348 0.09448 0.73706 0.0
H925 H 0.39342 0.07102 0.73565 0.0
H926 H 0.41689 0.054 0.74841 0.0
H927 H 0.4012 0.08176 0.52778 0.0
H928 H 0.38232 0.09262 0.56996 0.0
H929 H 0.4229 0.11696 0.55951 0.0
H930 H 0.35172 0.12723 0.69283 0.0
H931 H 0.45036 0.18552 0.67974 0.0
H932 H 0.34918 0.05696 0.68788 0.0
H933 H 0.34501 0.06492 0.63017 0.0
H934 H 0.32628 0.07446 0.67426 0.0
H935 H 0.47003 0.12898 0.67417 0.0
H936 H 0.48309 0.1679 0.65717 0.0
H937 H 0.46548 0.13695 0.61651 0.0
C938 C 0.94111 0.34126 0.66589 0.0
C939 C 0.95975 0.32925 0.68002 0.0
C940 C 0.95423 0.37282 0.65645 0.0
C941 C 0.98669 0.3929 0.66169 0.0
C942 C 1.00548 0.38089 0.6765 0.0
C943 C 0.99184 0.34934 0.68527 0.0
C944 C 0.93339 0.38465 0.64052 0.0
C945 C 0.04007 0.40139 0.68316 0.0
C946 C 1.02581 0.47022 0.6009 0.0
C947 C 1.0272 0.49021 0.63521 0.0
C948 C 1.01266 0.43851 0.60896 0.0
C949 C 1.00101 0.42655 0.65253 0.0
C950 C 1.00327 0.44683 0.6876 0.0
C951 C 1.01609 0.47827 0.67844 0.0
C952 C 1.01062 0.4177 0.57059 0.0
C953 C 0.9918 0.43526 0.73477 0.0
H954 H 0.91636 0.32595 0.66151 0.0
H955 H 1.0065 0.3404 0.69636 0.0
H956 H 0.93486 0.40232 0.66454 0.0
H957 H 0.94123 0.39585 0.60705 0.0
H958 H 0.90874 0.3661 0.63748 0.0
H959 H 0.05143 0.38849 0.69497 0.0
H960 H 0.05094 0.41295 0.65089 0.0
H961 H 0.04479 0.41964 0.70837 0.0
H962 H 0.03406 0.47916 0.56731 0.0
H963 H 1.01715 0.49354 0.70523 0.0
H964 H 0.98597 0.40023 0.56392 0.0
H965 H 1.0228 0.40517 0.5801 0.0
H966 H 1.02089 0.43053 0.53882 0.0
H967 H 0.96654 0.41843 0.73368 0.0
H968 H 0.99599 0.45411 0.75858 0.0
H969 H 1.00352 0.42317 0.74836 0.0
C970 C 0.74594 0.61945 0.63777 0.0
C971 C 0.75822 0.60009 0.6307 0.0
C972 C 0.71686 0.61231 0.61969 0.0
C973 C 0.69904 0.58463 0.59498 0.0
C974 C 0.71077 0.56434 0.58944 0.0
C975 C 0.74048 0.57263 0.60648 0.0
C976 C 0.70582 0.63505 0.62538 0.0
C977 C 0.69215 0.5341 0.56476 0.0
C978 C 0.61224 0.55294 0.57521 0.0
C979 C 0.6112 0.55858 0.52884 0.0
C980 C 0.64065 0.5619 0.5975 0.0
C981 C 0.66884 0.57746 0.57317 0.0
C982 C 0.66803 0.58508 0.52715 0.0
C983 C 0.63927 0.57518 0.50545 0.0
C984 C 0.64015 0.5529 0.64631 0.0
C985 C 0.69752 0.60285 0.50033 0.0
H986 H 0.75983 0.6411 0.65541 0.0
H987 H 0.74993 0.55771 0.60065 0.0
H988 H 0.70363 0.64349 0.59164 0.0
H989 H 0.68251 0.62378 0.64102 0.0
H990 H 0.72192 0.65509 0.64669 0.0
H991 H 0.70323 0.51975 0.56676 0.0
H992 H 0.66849 0.52103 0.57918 0.0
H993 H 0.68957 0.5383 0.52854 0.0
H994 H 0.59072 0.53988 0.59357 0.0
H995 H 0.63873 0.57978 0.46968 0.0
H996 H 0.6591 0.57174 0.66626 0.0
H997 H 0.64372 0.53289 0.64769 0.0
H998 H 0.61769 0.54652 0.66256 0.0
H999 H 0.71444 0.62378 0.51924 0.0
H1000 H 0.69323 0.60977 0.46657 0.0
H1001 H 0.70844 0.58858 0.49522 0.0
C1002 C 0.92769 0.68484 0.16557 0.0
C1003 C 0.90476 0.68748 0.14171 0.0
C1004 C 0.94068 0.66798 0.14772 0.0
C1005 C 0.93 0.65275 0.10538 0.0
C1006 C 0.90779 0.65639 0.08024 0.0
C1007 C 0.89571 0.67401 0.09846 0.0
C1008 C 0.96491 0.6654 0.17516 0.0
C1009 C 0.89541 0.64023 0.03533 0.0
C1010 C 0.9791 0.62281 0.05188 0.0
C1011 C 0.96543 0.593 0.0697 0.0
C1012 C 0.9672 0.64223 0.06174 0.0
C1013 C 0.9406 0.6314 0.08933 0.0
C1014 C 0.92548 0.60063 0.10475 0.0
C1015 C 0.93824 0.58194 0.09515 0.0
C1016 C 0.98428 0.67492 0.04502 0.0
C1017 C 0.89661 0.58786 0.13328 0.0
H1018 H 0.93488 0.69527 0.1989 0.0
H1019 H 0.87786 0.67574 0.07986 0.0
H1020 H 0.95521 0.64145 0.1871 0.0
H1021 H 0.98531 0.6709 0.15385 0.0
H1022 H 0.97288 0.68094 0.20516 0.0
H1023 H 0.88023 0.64746 0.01823 0.0
H1024 H 0.91478 0.64473 0.01238 0.0
H1025 H 0.88179 0.61505 0.04081 0.0
H1026 H 1.00015 0.63167 0.03228 0.0
H1027 H 0.9274 0.5589 0.10882 0.0
H1028 H 0.9955 0.69075 0.07419 0.0
H1029 H 0.96791 0.68105 0.0292 0.0
H1030 H 1.00247 0.67882 0.02003 0.0
H1031 H 0.90254 0.5993 0.16698 0.0
H1032 H 0.88577 0.5627 0.13838 0.0
H1033 H 0.8793 0.5926 0.1172 0.0
C1034 C 0.44423 0.31715 0.10391 0.0
C1035 C 0.44209 0.31264 0.15094 0.0
C1036 C 0.46074 0.34673 0.08552 0.0
C1037 C 0.47561 0.37255 0.11482 0.0
C1038 C 0.47363 0.36823 0.16235 0.0
C1039 C 0.45679 0.33832 0.17986 0.0
C1040 C 0.46197 0.35032 0.03463 0.0
C1041 C 0.48919 0.3952 0.19465 0.0
C1042 C 0.53512 0.44745 0.05898 0.0
C1043 C 0.51677 0.4605 0.04902 0.0
C1044 C 0.52243 0.41921 0.08203 0.0
C1045 C 0.49086 0.40406 0.09546 0.0
C1046 C 0.47289 0.41809 0.08747 0.0
C1047 C 0.48603 0.446 0.06441 0.0
C1048 C 0.54238 0.40505 0.09055 0.0
C1049 C 0.43929 0.40299 0.10151 0.0
H1050 H 0.4332 0.29749 0.08126 0.0
H1051 H 0.45558 0.33507 0.21625 0.0
H1052 H 0.45079 0.36369 0.02446 0.0
H1053 H 0.48644 0.36332 0.02334 0.0
H1054 H 0.4501 0.32786 0.01655 0.0
H1055 H 0.48726 0.38787 0.23054 0.0
H1056 H 0.51411 0.4097 0.18621 0.0
H1057 H 0.47851 0.40981 0.19119 0.0
H1058 H 0.55892 0.45865 0.04739 0.0
H1059 H 0.47182 0.45624 0.05767 0.0
H1060 H 0.53365 0.38382 0.06987 0.0
H1061 H 0.541 0.39837 0.12663 0.0
H1062 H 0.56707 0.42091 0.08191 0.0
H1063 H 0.42548 0.38105 0.08268 0.0
H1064 H 0.42904 0.41775 0.0949 0.0
H1065 H 0.43704 0.39745 0.13814 0.0
C1066 C 0.76281 0.04857 0.17412 0.0
C1067 C 0.78251 0.07242 0.1451 0.0
C1068 C 0.73039 0.03226 0.16673 0.0
C1069 C 0.71758 0.0396 0.129 0.0
C1070 C 0.73772 0.06231 0.09816 0.0
C1071 C 0.76977 0.07855 0.1068 0.0
C1072 C 0.70973 1.00825 0.20038 0.0
C1073 C 0.7253 0.07077 0.05726 0.0
C1074 C 0.63338 0.99221 0.08781 0.0
C1075 C 0.62071 1.00935 0.10545 0.0
C1076 C 0.66454 1.00071 0.09705 0.0
C1077 C 0.68333 0.02686 0.12452 0.0
C1078 C 0.67005 0.0432 0.14414 0.0
C1079 C 0.63908 0.03427 0.13441 0.0
C1080 C 0.67772 0.98249 0.07603 0.0
C1081 C 0.68901 0.07117 0.1737 0.0
H1082 H 0.77255 0.04357 0.2036 0.0
H1083 H 0.78491 0.09659 0.08378 0.0
H1084 H 0.69421 1.01522 0.21666 0.0
H1085 H 0.69468 0.98612 0.18267 0.0
H1086 H 0.72322 1.00469 0.2273 0.0
H1087 H 0.74409 0.08674 0.03433 0.0
H1088 H 0.70903 0.04988 0.03775 0.0
H1089 H 0.71216 0.08196 0.06851 0.0
H1090 H 0.61937 0.97286 0.06559 0.0
H1091 H 0.62947 0.04747 0.14883 0.0
H1092 H 0.69066 0.97742 0.10192 0.0
H1093 H 0.69441 0.99626 0.04917 0.0
H1094 H 0.6594 0.96054 0.06085 0.0
H1095 H 0.70094 0.06588 0.20102 0.0
H1096 H 0.6746 0.07974 0.18945 0.0
H1097 H 0.70719 0.08989 0.15303 0.0
C1098 C 0.53669 0.95694 0.50412 0.0
C1099 C 0.52157 0.96589 0.47262 0.0
C1100 C 0.55882 0.94914 0.49016 0.0
C1101 C 0.56607 0.95028 0.44354 0.0
C1102 C 0.54923 0.95709 0.41135 0.0
C1103 C 0.52721 0.96475 0.42623 0.0
C1104 C 0.57607 0.94191 0.52568 0.0
C1105 C 0.55605 0.95857 0.36134 0.0
C1106 C 0.64963 0.97444 0.41539 0.0
C1107 C 0.64772 0.94645 0.40404 0.0
C1108 C 0.62327 0.97585 0.42794 0.0
C1109 C 0.59395 0.94859 0.42924 0.0
C1110 C 0.59166 0.92022 0.41735 0.0
C1111 C 0.61857 0.91946 0.40494 0.0
C1112 C 0.62692 1.00665 0.44019 0.0
C1113 C 0.56081 0.8907 0.418 0.0
H1114 H 0.53251 0.95762 0.54 0.0
H1115 H 0.51568 0.97151 0.40145 0.0
H1116 H 0.5772 0.92125 0.51583 0.0
H1117 H 0.60027 0.96136 0.52852 0.0
H1118 H 0.56507 0.93801 0.55951 0.0
H1119 H 0.53796 0.9595 0.34037 0.0
H1120 H 0.57869 0.97945 0.3544 0.0
H1121 H 0.55784 0.93841 0.35058 0.0
H1122 H 0.67193 0.99549 0.41479 0.0
H1123 H 0.61679 0.89773 0.39619 0.0
H1124 H 0.61915 1.00618 0.4755 0.0
H1125 H 0.61208 1.01161 0.41773 0.0
H1126 H 0.65129 0.02572 0.43727 0.0
H1127 H 0.55111 0.88642 0.4527 0.0
H1128 H 0.56275 0.87063 0.40703 0.0
H1129 H 0.54402 0.89261 0.39538 0.0
C1130 C 0.1267 0.65558 0.4348 0.0
C1131 C 0.12492 0.65198 0.48208 0.0
C1132 C 0.14191 0.68486 0.41505 0.0
C1133 C 0.15579 0.71133 0.44316 0.0
C1134 C 0.15463 0.70791 0.4909 0.0
C1135 C 0.13924 0.67831 0.50978 0.0
C1136 C 0.14283 0.68744 0.36403 0.0
C1137 C 0.16943 0.73556 0.52204 0.0
C1138 C 0.22078 0.78536 0.39423 0.0
C1139 C 0.2058 0.80198 0.38422 0.0
C1140 C 0.20476 0.75596 0.41318 0.0
C1141 C 0.17279 0.74256 0.42257 0.0
C1142 C 0.15731 0.75897 0.41222 0.0
C1143 C 0.174 0.78853 0.39307 0.0
C1144 C 0.2222 0.73931 0.42344 0.0
C1145 C 0.1232 0.74542 0.42182 0.0
H1146 H 0.1156 0.63547 0.413 0.0
H1147 H 0.13786 0.67585 0.5463 0.0
H1148 H 0.13139 0.70039 0.353 0.0
H1149 H 0.16724 0.70045 0.35245 0.0
H1150 H 0.13111 0.66464 0.34693 0.0
H1151 H 0.16631 0.72906 0.5584 0.0
H1152 H 0.19464 0.74955 0.51511 0.0
H1153 H 0.15925 0.75036 0.51558 0.0
H1154 H 0.24534 0.7954 0.38748 0.0
H1155 H 0.16227 0.80122 0.38566 0.0
H1156 H 0.21129 0.71698 0.40512 0.0
H1157 H 0.22098 0.73427 0.46019 0.0
H1158 H 0.247 0.75281 0.41366 0.0
H1159 H 0.10959 0.72317 0.40368 0.0
H1160 H 0.11447 0.76089 0.4114 0.0
H1161 H 0.11895 0.7407 0.45858 0.0
C1162 C 0.28297 0.34078 0.42617 0.0
C1163 C 0.25872 0.34712 0.43015 0.0
C1164 C 0.31321 0.36196 0.44138 0.0
C1165 C 0.31946 0.39021 0.46115 0.0
C1166 C 0.29514 0.39682 0.46503 0.0
C1167 C 0.26516 0.37528 0.44951 0.0
C1168 C 0.33847 0.35399 0.43657 0.0
C1169 C 0.30071 0.42657 0.48598 0.0
C1170 C 0.39054 0.42925 0.53854 0.0
C1171 C 0.41319 0.45089 0.50954 0.0
C1172 C 0.35977 0.41011 0.52371 0.0
C1173 C 0.3513 0.41248 0.47864 0.0
C1174 C 0.37366 0.43527 0.44985 0.0
C1175 C 0.40428 0.45426 0.46566 0.0
C1176 C 0.33664 0.38643 0.55577 0.0
C1177 C 0.36561 0.43867 0.40163 0.0
H1178 H 0.27834 0.31919 0.41126 0.0
H1179 H 0.24668 0.38052 0.4528 0.0
H1180 H 0.35795 0.37193 0.41666 0.0
H1181 H 0.34784 0.35336 0.47049 0.0
H1182 H 0.33005 0.33141 0.41963 0.0
H1183 H 0.27949 0.42852 0.48578 0.0
H1184 H 0.30884 0.42833 0.52153 0.0
H1185 H 0.31925 0.44636 0.46738 0.0
H1186 H 0.3971 0.4265 0.57253 0.0
H1187 H 0.42156 0.47076 0.44285 0.0
H1188 H 0.32954 0.36305 0.54304 0.0
H1189 H 0.31541 0.38826 0.55742 0.0
H1190 H 0.34624 0.38894 0.59059 0.0
H1191 H 0.35999 0.41768 0.38195 0.0
H1192 H 0.38493 0.4588 0.38458 0.0
H1193 H 0.34473 0.44113 0.40079 0.0
C1194 C 0.81553 0.79072 0.23143 0.0
C1195 C 0.79795 0.77154 0.19538 0.0
C1196 C 0.80736 0.81088 0.25188 0.0
C1197 C 0.78123 0.81211 0.23552 0.0
C1198 C 0.764 0.79347 0.19825 0.0
C1199 C 0.77246 0.77333 0.17883 0.0
C1200 C 0.82631 0.83041 0.29158 0.0
C1201 C 0.73632 0.79448 0.17928 0.0
C1202 C 0.74241 0.84306 0.31346 0.0
C1203 C 0.75595 0.87356 0.29903 0.0
C1204 C 0.75044 0.82274 0.29311 0.0
C1205 C 0.77207 0.83312 0.25709 0.0
C1206 C 0.78501 0.86365 0.2416 0.0
C1207 C 0.77695 0.88351 0.26292 0.0
C1208 C 0.73625 0.79035 0.31065 0.0
C1209 C 0.80754 0.87545 0.20263 0.0
H1210 H 0.83508 0.78928 0.24464 0.0
H1211 H 0.75881 0.75865 0.15086 0.0
H1212 H 0.83568 0.85506 0.28394 0.0
H1213 H 0.81131 0.82496 0.32179 0.0
H1214 H 0.84598 0.82683 0.30016 0.0
H1215 H 0.72592 0.77914 0.14934 0.0
H1216 H 0.71828 0.78748 0.20567 0.0
H1217 H 0.74323 0.81827 0.16924 0.0
H1218 H 0.72627 0.83536 0.34144 0.0
H1219 H 0.78717 0.90699 0.25119 0.0
H1220 H 0.75481 0.78614 0.32309 0.0
H1221 H 0.72383 0.77367 0.28282 0.0
H1222 H 0.7197 0.78578 0.33864 0.0
H1223 H 0.82808 0.87324 0.21065 0.0
H1224 H 0.81559 0.89988 0.19483 0.0
H1225 H 0.79642 0.86145 0.17179 0.0
C1226 C 0.32658 0.13835 0.31885 0.0
C1227 C 0.34068 0.14987 0.27682 0.0
C1228 C 0.30925 0.10657 0.32676 0.0
C1229 C 0.30603 0.08577 0.2919 0.0
C1230 C 0.31772 0.09721 0.24821 0.0
C1231 C 0.33485 0.12911 0.24116 0.0
C1232 C 0.29684 0.09544 0.37368 0.0
C1233 C 0.31471 0.07593 0.20994 0.0
C1234 C 0.31074 1.01588 0.32664 0.0
C1235 C 0.27998 0.99179 0.32147 0.0
C1236 C 0.31915 0.04636 0.31773 0.0
C1237 C 0.29626 0.05328 0.30327 0.0
C1238 C 0.26494 0.02927 0.299 0.0
C1239 C 0.25713 0.9987 0.30815 0.0
C1240 C 0.35282 0.07112 0.32306 0.0
C1241 C 0.23989 0.03578 0.2839 0.0
H1242 H 0.33054 0.15414 0.34651 0.0
H1243 H 0.34532 0.13769 0.20839 0.0
H1244 H 0.27324 0.07491 0.37196 0.0
H1245 H 0.31213 0.08869 0.39149 0.0
H1246 H 0.29595 0.11351 0.39414 0.0
H1247 H 0.32031 0.0877 0.17664 0.0
H1248 H 0.3309 0.06723 0.21606 0.0
H1249 H 0.29088 0.05578 0.20829 0.0
H1250 H 0.3286 1.01095 0.33728 0.0
H1251 H 0.23333 0.98025 0.30404 0.0
H1252 H 0.35495 0.08888 0.34746 0.0
H1253 H 0.36195 0.08262 0.29011 0.0
H1254 H 0.36765 0.06192 0.33524 0.0
H1255 H 0.24058 0.05443 0.30485 0.0
H1256 H 0.21637 1.01515 0.2861 0.0
H1257 H 0.24399 0.04382 0.24829 0.0
C1258 C 0.09878 0.18728 0.32674 0.0
C1259 C 0.09929 0.20936 0.35639 0.0
C1260 C 0.07057 0.16352 0.30879 0.0
C1261 C 0.04244 0.16264 0.31928 0.0
C1262 C 0.04275 0.18393 0.35101 0.0
C1263 C 0.07104 0.20659 0.36976 0.0
C1264 C 0.07112 0.14035 0.27691 0.0
C1265 C 1.01352 0.18441 0.36255 0.0
C1266 C 0.97736 0.13659 0.23286 0.0
C1267 C 0.95319 0.11088 0.25422 0.0
C1268 C 1.00711 0.1527 0.25245 0.0
C1269 C 1.01323 0.1422 0.29359 0.0
C1270 C 0.98974 0.11451 0.31287 0.0
C1271 C 0.95977 0.09954 0.29352 0.0
C1272 C 1.03109 0.18251 0.23119 0.0
C1273 C 0.99568 0.10167 0.35544 0.0
H1274 H 0.12049 0.18911 0.31649 0.0
H1275 H 0.0711 0.22353 0.39248 0.0
H1276 H 0.05124 0.117 0.28336 0.0
H1277 H 0.06907 0.14639 0.24145 0.0
H1278 H 0.09304 0.13982 0.28021 0.0
H1279 H 1.0176 0.20191 0.38882 0.0
H1280 H 1.00417 0.18949 0.33162 0.0
H1281 H 0.99545 0.16163 0.37495 0.0
H1282 H 0.97244 0.14569 0.2027 0.0
H1283 H 0.94122 0.0796 0.31007 0.0
H1284 H 0.05319 0.18266 0.22632 0.0
H1285 H 0.03601 0.20195 0.25417 0.0
H1286 H 1.0233 0.18656 0.19789 0.0
H1287 H 1.0191 0.10419 0.35488 0.0
H1288 H 0.97807 0.07703 0.35988 0.0
H1289 H 0.99468 0.11453 0.38532 0.0
C1290 C 0.3116 0.2865 0.72656 0.0
C1291 C 0.31984 0.26935 0.75489 0.0
C1292 C 0.29137 0.29656 0.74133 0.0
C1293 C 0.27979 0.29024 0.78614 0.0
C1294 C 0.28816 0.27302 0.81498 0.0
C1295 C 0.30768 0.2624 0.7988 0.0
C1296 C 0.28229 0.31386 0.70885 0.0
C1297 C 0.27696 0.26628 0.86327 0.0
C1298 C 0.24897 0.33941 0.83828 0.0
C1299 C 0.21687 0.31906 0.83687 0.0
C1300 C 0.2698 0.33041 0.82193 0.0
C1301 C 0.25817 0.30076 0.80242 0.0
C1302 C 0.22566 0.28075 0.79927 0.0
C1303 C 0.20553 0.28992 0.81724 0.0
C1304 C 0.30425 0.35221 0.82698 0.0
C1305 C 0.21207 0.24942 0.77738 0.0
H1306 H 0.3209 0.29195 0.69256 0.0
H1307 H 0.3143 0.24957 0.82111 0.0
H1308 H 0.25665 0.30184 0.70518 0.0
H1309 H 0.28991 0.33715 0.72243 0.0
H1310 H 0.29258 0.31618 0.67477 0.0
H1311 H 0.28661 0.25381 0.88198 0.0
H1312 H 0.28365 0.28806 0.8815 0.0
H1313 H 0.25127 0.25222 0.86376 0.0
H1314 H 0.25779 0.36182 0.85389 0.0
H1315 H 0.18068 0.27416 0.81593 0.0
H1316 H 0.31561 0.35672 0.79344 0.0
H1317 H 0.3146 0.34157 0.84847 0.0
H1318 H 0.30962 0.37447 0.84251 0.0
H1319 H 0.22183 0.2515 0.74301 0.0
H1320 H 0.18637 0.23761 0.77447 0.0
H1321 H 0.21836 0.23479 0.79758 0.0
C1322 C 0.8082 0.1273 0.7343 0.0
C1323 C 0.83844 0.14062 0.75201 0.0
C1324 C 0.78541 0.09705 0.74616 0.0
C1325 C 0.79331 0.07983 0.77582 0.0
C1326 C 0.82315 0.09426 0.7963 0.0
C1327 C 0.84509 0.12439 0.78444 0.0
C1328 C 0.75358 0.08304 0.72483 0.0
C1329 C 0.83284 0.07718 0.82839 0.0
C1330 C 0.74504 1.00255 0.83244 0.0
C1331 C 0.75295 0.98453 0.8057 0.0
C1332 C 0.75476 0.03315 0.82021 0.0
C1333 C 0.77299 0.0458 0.7808 0.0
C1334 C 0.77759 0.0263 0.75118 0.0
C1335 C 0.76754 0.99598 0.76405 0.0
C1336 C 0.74814 0.05269 0.85175 0.0
C1337 C 0.79657 0.03837 0.70861 0.0
H1338 H 0.80278 0.1398 0.70953 0.0
H1339 H 0.86819 0.13481 0.79922 0.0
H1340 H 0.75267 0.06987 0.69411 0.0
H1341 H 0.7354 0.06698 0.7484 0.0
H1342 H 0.74816 0.10102 0.71441 0.0
H1343 H 0.85681 0.09187 0.84171 0.0
H1344 H 0.81677 0.06831 0.85751 0.0
H1345 H 0.83169 0.05716 0.81072 0.0
H1346 H 0.73382 0.9938 0.86474 0.0
H1347 H 0.77346 0.98193 0.74318 0.0
H1348 H 0.74431 0.06942 0.83253 0.0
H1349 H 0.76833 0.06585 0.87473 0.0
H1350 H 0.72747 0.03837 0.87294 0.0
H1351 H 0.78932 0.05247 0.68901 0.0
H1352 H 0.79444 0.01954 0.68642 0.0
H1353 H 0.8214 0.05331 0.71797 0.0
C1354 C 0.08527 0.7475 0.81073 0.0
C1355 C 0.1059 0.74551 0.78063 0.0
C1356 C 0.05342 0.73426 0.79992 0.0
C1357 C 0.04174 0.71859 0.75802 0.0
C1358 C 0.06215 0.71491 0.72887 0.0
C1359 C 0.09386 0.72854 0.74032 0.0
C1360 C 0.03238 0.73781 0.8328 0.0
C1361 C 0.05073 0.69765 0.68457 0.0
C1362 C 0.95345 0.67359 0.73627 0.0
C1363 C 0.94886 0.69569 0.71422 0.0
C1364 C 0.98347 0.68028 0.75014 0.0
C1365 C 1.00956 0.70984 0.74208 0.0
C1366 C 1.005 0.73182 0.71879 0.0
C1367 C 0.97496 0.72453 0.70535 0.0
C1368 C 0.98678 0.65594 0.77488 0.0
C1369 C 0.03194 0.76338 0.70843 0.0
H1370 H 0.09417 0.76035 0.84207 0.0
H1371 H 0.10944 0.72648 0.717 0.0
H1372 H 1.02433 0.7528 0.81786 0.0
H1373 H 1.01153 0.71512 0.8393 0.0
H1374 H 0.04417 0.74797 0.86563 0.0
H1375 H 0.06887 0.69481 0.66728 0.0
H1376 H 1.03027 0.67457 0.69044 0.0
H1377 H 0.04324 0.71016 0.66163 0.0
H1378 H 0.93356 0.65129 0.74355 0.0
H1379 H 0.97195 0.74182 0.68805 0.0
H1380 H 0.96739 0.63254 0.76648 0.0
H1381 H 0.98621 0.65959 0.81186 0.0
H1382 H 1.00904 0.65702 0.767 0.0
H1383 H 0.04309 0.77565 0.74049 0.0
H1384 H 1.0247 0.77756 0.68883 0.0
H1385 H 0.04972 0.76135 0.68874 0.0
loop_
_geom_bond_atom_site_label_1
_geom_bond_atom_site_label_2
_geom_bond_distance
_geom_bond_site_symmetry_2
_ccdc_geom_bond_type
Mg0 O7 2.141 1_554 S
Mg0 O8 2.048 . S
Mg0 O9 2.048 . S
Mg0 O12 2.141 . S
C1 O2 1.313 . S
C1 O8 1.195 . S
O2 C1 1.313 . S
C3 O4 1.245 . S
C3 O12 1.289 1_655 S
O4 C3 1.245 . S
C5 O6 1.245 1_455 S
C5 O7 1.289 . S
O6 C5 1.245 1_655 S
O7 Mg0 2.141 1_556 S
O7 C5 1.289 . S
O8 Mg0 2.048 . S
O8 C1 1.195 . S
O9 Mg0 2.048 . S
O9 C10 1.195 . S
C10 O9 1.195 . S
C10 O11 1.313 . S
O11 C10 1.313 . S
O12 Mg0 2.141 . S
O12 C3 1.289 1_455 S
Mg13 O20 2.141 1_554 S
Mg13 O21 2.048 . S
Mg13 O22 2.048 . S
Mg13 O25 2.141 . S
C14 O15 1.313 . S
C14 O21 1.195 . S
O15 C14 1.313 . S
C16 O17 1.245 . S
C16 O25 1.289 . S
O17 C16 1.245 . S
C18 O19 1.245 . S
C18 O20 1.289 . S
O19 C18 1.245 . S
O20 Mg13 2.141 1_556 S
O20 C18 1.289 . S
O21 Mg13 2.048 . S
O21 C14 1.195 . S
O22 Mg13 2.048 . S
O22 C23 1.195 . S
C23 O22 1.195 . S
C23 O24 1.313 . S
O24 C23 1.313 . S
O25 Mg13 2.141 . S
O25 C16 1.289 . S
Mg26 O33 2.141 1_545 S
Mg26 O34 2.048 1_554 S
Mg26 O35 2.048 . S
Mg26 O38 2.141 . S
C27 O28 1.313 1_545 S
C27 O34 1.195 . S
O28 C27 1.313 1_565 S
C29 O30 1.245 . S
C29 O38 1.289 1_565 S
O30 C29 1.245 . S
C31 O32 1.245 . S
C31 O33 1.289 . S
O32 C31 1.245 . S
O33 Mg26 2.141 1_565 S
O33 C31 1.289 . S
O34 Mg26 2.048 1_556 S
O34 C27 1.195 . S
O35 Mg26 2.048 . S
O35 C36 1.195 . S
C36 O35 1.195 . S
C36 O37 1.313 . S
O37 C36 1.313 . S
O38 Mg26 2.141 . S
O38 C29 1.289 1_545 S
Mg39 O46 2.141 . S
Mg39 O47 2.048 . S
Mg39 O48 2.048 . S
Mg39 O51 2.141 . S
C40 O41 1.313 . S
C40 O47 1.195 1_565 S
O41 C40 1.313 . S
C42 O43 1.245 . S
C42 O51 1.289 . S
O43 C42 1.245 . S
C44 O45 1.245 1_545 S
C44 O46 1.289 . S
O45 C44 1.245 1_565 S
O46 Mg39 2.141 . S
O46 C44 1.289 . S
O47 Mg39 2.048 . S
O47 C40 1.195 1_545 S
O48 Mg39 2.048 . S
O48 C49 1.195 . S
C49 O48 1.195 . S
C49 O50 1.313 1_545 S
O50 C49 1.313 1_565 S
O51 Mg39 2.141 . S
O51 C42 1.289 . S
Mg52 O59 2.140 1_455 S
Mg52 O60 2.048 . S
Mg52 O61 2.048 . S
Mg52 O64 2.141 1_455 S
C53 O54 1.313 . S
C53 O60 1.195 . S
O54 C53 1.313 . S
C55 O56 1.245 1_655 S
C55 O64 1.289 . S
O56 C55 1.245 1_455 S
C57 O58 1.245 . S
C57 O59 1.261 1_455 S
O58 C57 1.245 . S
O59 Mg52 2.140 1_655 S
O59 C57 1.261 1_655 S
O60 Mg52 2.048 . S
O60 C53 1.195 . S
O61 Mg52 2.048 . S
O61 C62 1.195 . S
C62 O61 1.195 . S
C62 O63 1.313 . S
O63 C62 1.313 . S
O64 Mg52 2.141 1_655 S
O64 C55 1.289 . S
Mg65 O72 2.141 . S
Mg65 O73 2.048 . S
Mg65 O74 2.048 . S
Mg65 O77 2.141 . S
C66 O67 1.313 . S
C66 O73 1.195 . S
O67 C66 1.313 . S
C68 O69 1.245 . S
C68 O77 1.289 . S
O69 C68 1.245 . S
C70 O71 1.245 . S
C70 O72 1.289 . S
O71 C70 1.245 . S
O72 Mg65 2.141 . S
O72 C70 1.289 . S
O73 Mg65 2.048 . S
O73 C66 1.195 . S
O74 Mg65 2.048 . S
O74 C75 1.195 . S
C75 O74 1.195 . S
C75 O76 1.313 . S
O76 C75 1.313 . S
O77 Mg65 2.141 . S
O77 C68 1.289 . S
Mg78 O85 2.141 . S
Mg78 O86 2.048 . S
Mg78 O87 2.048 . S
Mg78 O90 2.141 . S
C79 O80 1.313 . S
C79 O86 1.195 . S
O80 C79 1.313 . S
C81 O82 1.245 . S
C81 O90 1.289 . S
O82 C81 1.245 . S
C83 O84 1.245 . S
C83 O85 1.289 . S
O84 C83 1.245 . S
O85 Mg78 2.141 . S
O85 C83 1.289 . S
O86 Mg78 2.048 . S
O86 C79 1.195 . S
O87 Mg78 2.048 . S
O87 C88 1.195 . S
C88 O87 1.195 . S
C88 O89 1.313 . S
O89 C88 1.313 . S
O90 Mg78 2.141 . S
O90 C81 1.289 . S
Mg91 O98 2.141 . S
Mg91 O99 2.048 . S
Mg91 O100 2.048 . S
Mg91 O103 2.141 . S
C92 O93 1.313 . S
C92 O99 1.195 . S
O93 C92 1.313 . S
C94 O95 1.245 . S
C94 O103 1.289 . S
O95 C94 1.245 . S
C96 O97 1.245 . S
C96 O98 1.289 . S
O97 C96 1.245 . S
O98 Mg91 2.141 . S
O98 C96 1.289 . S
O99 Mg91 2.048 . S
O99 C92 1.195 . S
O100 Mg91 2.048 . S
O100 C101 1.195 . S
C101 O100 1.195 . S
C101 O102 1.313 . S
O102 C101 1.313 . S
O103 Mg91 2.141 . S
O103 C94 1.289 . S
Mg104 O111 2.141 . S
Mg104 O112 2.048 . S
Mg104 O113 2.048 . S
Mg104 O116 2.141 . S
C105 O106 1.313 . S
C105 O112 1.195 . S
O106 C105 1.313 . S
C107 O108 1.245 . S
C107 O116 1.289 . S
O108 C107 1.245 . S
C109 O110 1.245 . S
C109 O111 1.289 . S
O110 C109 1.245 . S
O111 Mg104 2.141 . S
O111 C109 1.289 . S
O112 Mg104 2.048 . S
O112 C105 1.195 . S
O113 Mg104 2.048 . S
O113 C114 1.195 . S
C114 O113 1.195 . S
C114 O115 1.313 . S
O115 C114 1.313 . S
O116 Mg104 2.141 . S
O116 C107 1.289 . S
Mg117 O124 2.141 . S
Mg117 O125 2.048 . S
Mg117 O126 2.048 . S
Mg117 O129 2.141 . S
C118 O119 1.313 . S
C118 O125 1.195 . S
O119 C118 1.313 . S
C120 O121 1.245 . S
C120 O129 1.289 . S
O121 C120 1.245 . S
C122 O123 1.245 . S
C122 O124 1.289 . S
O123 C122 1.245 . S
O124 Mg117 2.141 . S
O124 C122 1.289 . S
O125 Mg117 2.048 . S
O125 C118 1.195 . S
O126 Mg117 2.048 . S
O126 C127 1.195 . S
C127 O126 1.195 . S
C127 O128 1.313 . S
O128 C127 1.313 . S
O129 Mg117 2.141 . S
O129 C120 1.289 . S
Mg130 O137 2.141 . S
Mg130 O138 2.048 . S
Mg130 O139 2.048 . S
Mg130 O142 2.141 . S
C131 O132 1.313 . S
C131 O138 1.195 . S
O132 C131 1.313 . S
C133 O134 1.245 . S
C133 O142 1.289 . S
O134 C133 1.245 . S
C135 O136 1.245 . S
C135 O137 1.289 . S
O136 C135 1.245 . S
O137 Mg130 2.141 . S
O137 C135 1.289 . S
O138 Mg130 2.048 . S
O138 C131 1.195 . S
O139 Mg130 2.048 . S
O139 C140 1.195 . S
C140 O139 1.195 . S
C140 O141 1.313 . S
O141 C140 1.313 . S
O142 Mg130 2.141 . S
O142 C133 1.289 . S
Mg143 O150 2.141 . S
Mg143 O151 2.048 . S
Mg143 O152 2.048 . S
Mg143 O155 2.141 . S
C144 O145 1.313 . S
C144 O151 1.195 . S
O145 C144 1.313 . S
C146 O147 1.245 . S
C146 O155 1.289 . S
O147 C146 1.245 . S
C148 O149 1.245 . S
C148 O150 1.289 . S
O149 C148 1.245 . S
O150 Mg143 2.141 . S
O150 C148 1.289 . S
O151 Mg143 2.048 . S
O151 C144 1.195 . S
O152 Mg143 2.048 . S
O152 C153 1.195 . S
C153 O152 1.195 . S
C153 O154 1.313 . S
O154 C153 1.313 . S
O155 Mg143 2.141 . S
O155 C146 1.289 . S
Mg156 O163 2.141 . S
Mg156 O164 2.048 . S
Mg156 O165 2.048 . S
Mg156 O168 2.141 . S
C157 O158 1.313 . S
C157 O164 1.195 . S
O158 C157 1.313 . S
C159 O160 1.245 . S
C159 O168 1.289 . S
O160 C159 1.245 . S
C161 O162 1.245 . S
C161 O163 1.289 . S
O162 C161 1.245 . S
O163 Mg156 2.141 . S
O163 C161 1.289 . S
O164 Mg156 2.048 . S
O164 C157 1.195 . S
O165 Mg156 2.048 . S
O165 C166 1.195 . S
C166 O165 1.195 . S
C166 O167 1.313 . S
O167 C166 1.313 . S
O168 Mg156 2.141 . S
O168 C159 1.289 . S
Mg169 O176 2.141 . S
Mg169 O177 2.048 . S
Mg169 O178 2.048 . S
Mg169 O181 2.141 . S
C170 O171 1.313 . S
C170 O177 1.195 . S
O171 C170 1.313 . S
C172 O173 1.245 . S
C172 O181 1.289 . S
O173 C172 1.245 . S
C174 O175 1.245 . S
C174 O176 1.289 . S
O175 C174 1.245 . S
O176 Mg169 2.141 . S
O176 C174 1.289 . S
O177 Mg169 2.048 . S
O177 C170 1.195 . S
O178 Mg169 2.048 . S
O178 C179 1.195 . S
C179 O178 1.195 . S
C179 O180 1.313 . S
O180 C179 1.313 . S
O181 Mg169 2.141 . S
O181 C172 1.289 . S
Mg182 O189 2.141 . S
Mg182 O190 2.048 . S
Mg182 O191 2.048 . S
Mg182 O194 2.141 . S
C183 O184 1.313 . S
C183 O190 1.195 . S
O184 C183 1.313 . S
C185 O186 1.245 . S
C185 O194 1.289 . S
O186 C185 1.245 . S
C187 O188 1.245 . S
C187 O189 1.289 . S
O188 C187 1.245 . S
O189 Mg182 2.141 . S
O189 C187 1.289 . S
O190 Mg182 2.048 . S
O190 C183 1.195 . S
O191 Mg182 2.048 . S
O191 C192 1.195 . S
C192 O191 1.195 . S
C192 O193 1.313 . S
O193 C192 1.313 . S
O194 Mg182 2.141 . S
O194 C185 1.289 . S
Mg195 O202 2.141 . S
Mg195 O203 2.048 . S
Mg195 O204 2.048 . S
Mg195 O207 2.141 . S
C196 O197 1.313 . S
C196 O203 1.195 . S
O197 C196 1.313 . S
C198 O199 1.245 . S
C198 O207 1.289 . S
O199 C198 1.245 . S
C200 O201 1.245 . S
C200 O202 1.289 . S
O201 C200 1.245 . S
O202 Mg195 2.141 . S
O202 C200 1.289 . S
O203 Mg195 2.048 . S
O203 C196 1.195 . S
O204 Mg195 2.048 . S
O204 C205 1.195 . S
C205 O204 1.195 . S
C205 O206 1.313 . S
O206 C205 1.313 . S
O207 Mg195 2.141 . S
O207 C198 1.289 . S
Mg208 O215 2.141 . S
Mg208 O216 2.048 . S
Mg208 O217 2.048 . S
Mg208 O220 2.141 . S
C209 O210 1.313 . S
C209 O216 1.195 . S
O210 C209 1.313 . S
C211 O212 1.245 . S
C211 O220 1.289 . S
O212 C211 1.245 . S
C213 O214 1.245 . S
C213 O215 1.289 . S
O214 C213 1.245 . S
O215 Mg208 2.141 . S
O215 C213 1.289 . S
O216 Mg208 2.048 . S
O216 C209 1.195 . S
O217 Mg208 2.048 . S
O217 C218 1.195 . S
C218 O217 1.195 . S
C218 O219 1.313 . S
O219 C218 1.313 . S
O220 Mg208 2.141 . S
O220 C211 1.289 . S
Mg221 O228 2.141 . S
Mg221 O229 2.048 . S
Mg221 O230 2.048 . S
Mg221 O233 2.141 . S
C222 O223 1.313 . S
C222 O229 1.195 . S
O223 C222 1.313 . S
C224 O225 1.245 . S
C224 O233 1.289 . S
O225 C224 1.245 . S
C226 O227 1.245 . S
C226 O228 1.289 . S
O227 C226 1.245 . S
O228 Mg221 2.141 . S
O228 C226 1.289 . S
O229 Mg221 2.048 . S
O229 C222 1.195 . S
O230 Mg221 2.048 . S
O230 C231 1.195 . S
C231 O230 1.195 . S
C231 O232 1.313 . S
O232 C231 1.313 . S
O233 Mg221 2.141 . S
O233 C224 1.289 . S
C234 C235 1.391 . S
C234 C236 1.394 . S
C234 H250 0.931 . S
C235 C234 1.391 . S
C235 C239 1.376 . S
C236 C234 1.394 . S
C236 C237 1.369 . S
C236 C240 1.531 . S
C237 C236 1.369 . S
C237 C238 1.410 . S
C237 C245 1.503 . S
C238 C237 1.410 . S
C238 C239 1.392 . S
C238 C241 1.511 . S
C239 C235 1.376 . S
C239 C238 1.392 . S
C239 H251 0.929 . S
C240 C236 1.531 . S
C240 H252 0.960 . S
C240 H253 0.954 1_455 S
C240 H254 0.960 . S
C241 C238 1.511 . S
C241 H255 0.961 . S
C241 H256 0.961 . S
C241 H257 0.961 . S
C242 C243 1.375 . S
C242 C244 1.363 1_455 S
C242 H258 0.926 1_455 S
C243 C242 1.375 . S
C243 C247 1.408 . S
C244 C242 1.363 1_655 S
C244 C245 1.367 1_655 S
C244 C248 1.527 . S
C245 C237 1.503 . S
C245 C244 1.367 1_455 S
C245 C246 1.403 . S
C246 C245 1.403 . S
C246 C247 1.404 . S
C246 C249 1.539 . S
C247 C243 1.408 . S
C247 C246 1.404 . S
C247 H259 0.930 . S
C248 C244 1.527 . S
C248 H260 0.956 . S
C248 H261 0.961 . S
C248 H262 0.961 . S
C249 C246 1.539 . S
C249 H263 0.958 . S
C249 H264 0.961 . S
C249 H265 0.960 . S
H250 C234 0.931 . S
H251 C239 0.929 . S
H252 C240 0.960 . S
H253 C240 0.954 1_655 S
H254 C240 0.960 . S
H255 C241 0.961 . S
H256 C241 0.961 . S
H257 C241 0.961 . S
H258 C242 0.926 1_655 S
H259 C247 0.930 . S
H260 C248 0.956 . S
H261 C248 0.961 . S
H262 C248 0.961 . S
H263 C249 0.958 . S
H264 C249 0.961 . S
H265 C249 0.960 . S
C266 C267 1.391 . S
C266 C268 1.394 . S
C266 H282 0.931 . S
C267 C266 1.391 . S
C267 C271 1.376 . S
C268 C266 1.394 . S
C268 C269 1.369 . S
C268 C272 1.531 . S
C269 C268 1.369 . S
C269 C270 1.410 . S
C269 C277 1.503 . S
C270 C269 1.410 . S
C270 C271 1.392 . S
C270 C273 1.511 . S
C271 C267 1.376 . S
C271 C270 1.392 . S
C271 H283 0.929 . S
C272 C268 1.531 . S
C272 H284 0.960 . S
C272 H285 0.962 . S
C272 H286 0.960 . S
C273 C270 1.511 . S
C273 H287 0.961 . S
C273 H288 0.961 . S
C273 H289 0.961 . S
C274 C275 1.370 . S
C274 C276 1.363 . S
C274 H290 0.931 . S
C275 C274 1.370 . S
C275 C279 1.408 . S
C276 C274 1.363 . S
C276 C277 1.370 . S
C276 C280 1.524 . S
C277 C269 1.503 . S
C277 C276 1.370 . S
C277 C278 1.403 . S
C278 C277 1.403 . S
C278 C279 1.404 . S
C278 C281 1.539 . S
C279 C275 1.408 . S
C279 C278 1.404 . S
C279 H291 0.930 . S
C280 C276 1.524 . S
C280 H292 0.956 . S
C280 H293 0.961 . S
C280 H294 0.961 . S
C281 C278 1.539 . S
C281 H295 0.958 . S
C281 H296 0.961 . S
C281 H297 0.960 . S
H282 C266 0.931 . S
H283 C271 0.929 . S
H284 C272 0.960 . S
H285 C272 0.962 . S
H286 C272 0.960 . S
H287 C273 0.961 . S
H288 C273 0.961 . S
H289 C273 0.961 . S
H290 C274 0.931 . S
H291 C279 0.930 . S
H292 C280 0.956 . S
H293 C280 0.961 . S
H294 C280 0.961 . S
H295 C281 0.958 . S
H296 C281 0.961 . S
H297 C281 0.960 . S
C298 C299 1.391 1_545 S
C298 C300 1.394 . S
C298 H314 0.937 . S
C299 C298 1.391 1_565 S
C299 C303 1.376 1_565 S
C300 C298 1.394 . S
C300 C301 1.369 . S
C300 C304 1.531 . S
C301 C300 1.369 . S
C301 C302 1.410 . S
C301 C309 1.503 . S
C302 C301 1.410 . S
C302 C303 1.392 . S
C302 C305 1.511 . S
C303 C299 1.376 1_545 S
C303 C302 1.392 . S
C303 H315 0.919 . S
C304 C300 1.531 . S
C304 H316 0.960 . S
C304 H317 0.962 1_545 S
C304 H318 0.960 . S
C305 C302 1.511 . S
C305 H319 0.961 . S
C305 H320 0.961 . S
C305 H321 0.961 . S
C306 C307 1.370 1_565 S
C306 C308 1.363 . S
C306 H322 0.931 . S
C307 C306 1.370 1_545 S
C307 C311 1.408 . S
C308 C306 1.363 . S
C308 C309 1.370 1_565 S
C308 C312 1.524 . S
C309 C301 1.503 . S
C309 C308 1.370 1_545 S
C309 C310 1.403 . S
C310 C309 1.403 . S
C310 C311 1.404 . S
C310 C313 1.539 . S
C311 C307 1.408 . S
C311 C310 1.404 . S
C311 H323 0.930 . S
C312 C308 1.524 . S
C312 H324 0.956 . S
C312 H325 0.961 . S
C312 H326 0.961 . S
C313 C310 1.539 . S
C313 H327 0.958 . S
C313 H328 0.961 . S
C313 H329 0.960 . S
H314 C298 0.937 . S
H315 C303 0.919 . S
H316 C304 0.960 . S
H317 C304 0.962 1_565 S
H318 C304 0.960 . S
H319 C305 0.961 . S
H320 C305 0.961 . S
H321 C305 0.961 . S
H322 C306 0.931 . S
H323 C311 0.930 . S
H324 C312 0.956 . S
H325 C312 0.961 . S
H326 C312 0.961 . S
H327 C313 0.958 . S
H328 C313 0.961 . S
H329 C313 0.960 . S
C330 C331 1.391 . S
C330 C332 1.394 . S
C330 H346 0.931 . S
C331 C330 1.391 . S
C331 C335 1.364 1_455 S
C332 C330 1.394 . S
C332 C333 1.369 . S
C332 C336 1.531 . S
C333 C332 1.369 . S
C333 C334 1.410 1_455 S
C333 C341 1.503 . S
C334 C333 1.410 1_655 S
C334 C335 1.396 . S
C334 C337 1.511 . S
C335 C331 1.364 1_655 S
C335 C334 1.396 . S
C335 H347 0.937 . S
C336 C332 1.531 . S
C336 H348 0.960 . S
C336 H349 0.962 . S
C336 H350 0.960 . S
C337 C334 1.511 . S
C337 H351 0.961 . S
C337 H352 0.961 . S
C337 H353 0.961 . S
C338 C339 1.370 . S
C338 C340 1.363 . S
C338 H354 0.931 . S
C339 C338 1.370 . S
C339 C343 1.393 1_455 S
C340 C338 1.363 . S
C340 C341 1.370 . S
C340 C344 1.524 . S
C341 C333 1.503 . S
C341 C340 1.370 . S
C341 C342 1.403 . S
C342 C341 1.403 . S
C342 C343 1.403 1_455 S
C342 C345 1.539 1_455 S
C343 C339 1.393 1_655 S
C343 C342 1.403 1_655 S
C343 H355 0.946 . S
C344 C340 1.524 . S
C344 H356 0.956 . S
C344 H357 0.961 . S
C344 H358 0.961 . S
C345 C342 1.539 1_655 S
C345 H359 0.958 . S
C345 H360 0.961 . S
C345 H361 0.960 . S
H346 C330 0.931 . S
H347 C335 0.937 . S
H348 C336 0.960 . S
H349 C336 0.962 . S
H350 C336 0.960 . S
H351 C337 0.961 . S
H352 C337 0.961 . S
H353 C337 0.961 . S
H354 C338 0.931 . S
H355 C343 0.946 . S
H356 C344 0.956 . S
H357 C344 0.961 . S
H358 C344 0.961 . S
H359 C345 0.958 . S
H360 C345 0.961 . S
H361 C345 0.960 . S
C362 C363 1.391 . S
C362 C364 1.394 . S
C362 H378 0.931 . S
C363 C362 1.391 . S
C363 C367 1.376 . S
C364 C362 1.394 . S
C364 C365 1.369 . S
C364 C368 1.531 . S
C365 C364 1.369 . S
C365 C366 1.410 . S
C365 C373 1.503 . S
C366 C365 1.410 . S
C366 C367 1.392 . S
C366 C369 1.511 . S
C367 C363 1.376 . S
C367 C366 1.392 . S
C367 H379 0.929 . S
C368 C364 1.531 . S
C368 H380 0.960 . S
C368 H381 0.962 . S
C368 H382 0.960 . S
C369 C366 1.511 . S
C369 H383 0.961 . S
C369 H384 0.961 . S
C369 H385 0.961 . S
C370 C371 1.370 . S
C370 C372 1.363 . S
C370 H386 0.931 . S
C371 C370 1.370 . S
C371 C375 1.408 . S
C372 C370 1.363 . S
C372 C373 1.370 . S
C372 C376 1.524 . S
C373 C365 1.503 . S
C373 C372 1.370 . S
C373 C374 1.403 . S
C374 C373 1.403 . S
C374 C375 1.404 . S
C374 C377 1.539 . S
C375 C371 1.408 . S
C375 C374 1.404 . S
C375 H387 0.930 . S
C376 C372 1.524 . S
C376 H388 0.956 . S
C376 H389 0.961 . S
C376 H390 0.961 . S
C377 C374 1.539 . S
C377 H391 0.958 . S
C377 H392 0.961 . S
C377 H393 0.960 . S
H378 C362 0.931 . S
H379 C367 0.929 . S
H380 C368 0.960 . S
H381 C368 0.962 . S
H382 C368 0.960 . S
H383 C369 0.961 . S
H384 C369 0.961 . S
H385 C369 0.961 . S
H386 C370 0.931 . S
H387 C375 0.930 . S
H388 C376 0.956 . S
H389 C376 0.961 . S
H390 C376 0.961 . S
H391 C377 0.958 . S
H392 C377 0.961 . S
H393 C377 0.960 . S
C394 C395 1.391 1_565 S
C394 C396 1.394 . S
C394 H410 0.931 . S
C395 C394 1.391 1_545 S
C395 C399 1.376 . S
C396 C394 1.394 . S
C396 C397 1.369 1_565 S
C396 C400 1.531 . S
C397 C396 1.369 1_545 S
C397 C398 1.410 . S
C397 C405 1.503 . S
C398 C397 1.410 . S
C398 C399 1.392 . S
C398 C401 1.511 . S
C399 C395 1.376 . S
C399 C398 1.392 . S
C399 H411 0.929 . S
C400 C396 1.531 . S
C400 H412 0.960 . S
C400 H413 0.962 . S
C400 H414 0.960 . S
C401 C398 1.511 . S
C401 H415 0.961 . S
C401 H416 0.961 . S
C401 H417 0.961 . S
C402 C403 1.370 . S
C402 C404 1.363 . S
C402 H418 0.931 . S
C403 C402 1.370 . S
C403 C407 1.408 1_545 S
C404 C402 1.363 . S
C404 C405 1.370 . S
C404 C408 1.524 . S
C405 C397 1.503 . S
C405 C404 1.370 . S
C405 C406 1.403 1_545 S
C406 C405 1.403 1_565 S
C406 C407 1.404 . S
C406 C409 1.539 . S
C407 C403 1.408 1_565 S
C407 C406 1.404 . S
C407 H419 0.930 . S
C408 C404 1.524 . S
C408 H420 0.956 . S
C408 H421 0.961 . S
C408 H422 0.961 . S
C409 C406 1.539 . S
C409 H423 0.958 . S
C409 H424 0.961 . S
C409 H425 0.960 . S
H410 C394 0.931 . S
H411 C399 0.929 . S
H412 C400 0.960 . S
H413 C400 0.962 . S
H414 C400 0.960 . S
H415 C401 0.961 . S
H416 C401 0.961 . S
H417 C401 0.961 . S
H418 C402 0.931 . S
H419 C407 0.930 . S
H420 C408 0.956 . S
H421 C408 0.961 . S
H422 C408 0.961 . S
H423 C409 0.958 . S
H424 C409 0.961 . S
H425 C409 0.960 . S
C426 C427 1.391 . S
C426 C428 1.394 . S
C426 H442 0.931 . S
C427 C426 1.391 . S
C427 C431 1.376 . S
C428 C426 1.394 . S
C428 C429 1.369 . S
C428 C432 1.531 . S
C429 C428 1.369 . S
C429 C430 1.410 . S
C429 C437 1.503 . S
C430 C429 1.410 . S
C430 C431 1.392 . S
C430 C433 1.511 . S
C431 C427 1.376 . S
C431 C430 1.392 . S
C431 H443 0.929 . S
C432 C428 1.531 . S
C432 H444 0.960 . S
C432 H445 0.962 . S
C432 H446 0.960 . S
C433 C430 1.511 . S
C433 H447 0.961 . S
C433 H448 0.961 . S
C433 H449 0.961 . S
C434 C435 1.370 . S
C434 C436 1.363 . S
C434 H450 0.931 . S
C435 C434 1.370 . S
C435 C439 1.408 . S
C436 C434 1.363 . S
C436 C437 1.370 . S
C436 C440 1.524 . S
C437 C429 1.503 . S
C437 C436 1.370 . S
C437 C438 1.403 . S
C438 C437 1.403 . S
C438 C439 1.404 . S
C438 C441 1.539 . S
C439 C435 1.408 . S
C439 C438 1.404 . S
C439 H451 0.930 . S
C440 C436 1.524 . S
C440 H452 0.956 . S
C440 H453 0.961 . S
C440 H454 0.961 . S
C441 C438 1.539 . S
C441 H455 0.958 . S
C441 H456 0.961 . S
C441 H457 0.960 . S
H442 C426 0.931 . S
H443 C431 0.929 . S
H444 C432 0.960 . S
H445 C432 0.962 . S
H446 C432 0.960 . S
H447 C433 0.961 . S
H448 C433 0.961 . S
H449 C433 0.961 . S
H450 C434 0.931 . S
H451 C439 0.930 . S
H452 C440 0.956 . S
H453 C440 0.961 . S
H454 C440 0.961 . S
H455 C441 0.958 . S
H456 C441 0.961 . S
H457 C441 0.960 . S
C458 C459 1.391 . S
C458 C460 1.394 . S
C458 H474 0.931 . S
C459 C458 1.391 . S
C459 C463 1.376 . S
C460 C458 1.394 . S
C460 C461 1.369 . S
C460 C464 1.531 . S
C461 C460 1.369 . S
C461 C462 1.410 . S
C461 C469 1.503 . S
C462 C461 1.410 . S
C462 C463 1.392 . S
C462 C465 1.511 . S
C463 C459 1.376 . S
C463 C462 1.392 . S
C463 H475 0.929 . S
C464 C460 1.531 . S
C464 H476 0.960 . S
C464 H477 0.962 . S
C464 H478 0.960 . S
C465 C462 1.511 . S
C465 H479 0.961 . S
C465 H480 0.961 . S
C465 H481 0.961 . S
C466 C467 1.370 . S
C466 C468 1.363 . S
C466 H482 0.931 . S
C467 C466 1.370 . S
C467 C471 1.408 . S
C468 C466 1.363 . S
C468 C469 1.370 . S
C468 C472 1.524 . S
C469 C461 1.503 . S
C469 C468 1.370 . S
C469 C470 1.403 . S
C470 C469 1.403 . S
C470 C471 1.404 . S
C470 C473 1.539 . S
C471 C467 1.408 . S
C471 C470 1.404 . S
C471 H483 0.930 . S
C472 C468 1.524 . S
C472 H484 0.956 . S
C472 H485 0.961 . S
C472 H486 0.961 . S
C473 C470 1.539 . S
C473 H487 0.958 . S
C473 H488 0.961 . S
C473 H489 0.960 . S
H474 C458 0.931 . S
H475 C463 0.929 . S
H476 C464 0.960 . S
H477 C464 0.962 . S
H478 C464 0.960 . S
H479 C465 0.961 . S
H480 C465 0.961 . S
H481 C465 0.961 . S
H482 C466 0.931 . S
H483 C471 0.930 . S
H484 C472 0.956 . S
H485 C472 0.961 . S
H486 C472 0.961 . S
H487 C473 0.958 . S
H488 C473 0.961 . S
H489 C473 0.960 . S
C490 C491 1.391 . S
C490 C492 1.394 . S
C490 H506 0.931 . S
C491 C490 1.391 . S
C491 C495 1.376 . S
C492 C490 1.394 . S
C492 C493 1.369 . S
C492 C496 1.531 . S
C493 C492 1.369 . S
C493 C494 1.410 . S
C493 C501 1.503 . S
C494 C493 1.410 . S
C494 C495 1.392 . S
C494 C497 1.511 . S
C495 C491 1.376 . S
C495 C494 1.392 . S
C495 H507 0.929 . S
C496 C492 1.531 . S
C496 H508 0.960 . S
C496 H509 0.962 . S
C496 H510 0.960 . S
C497 C494 1.511 . S
C497 H511 0.961 . S
C497 H512 0.961 . S
C497 H513 0.961 . S
C498 C499 1.370 . S
C498 C500 1.363 . S
C498 H514 0.931 . S
C499 C498 1.370 . S
C499 C503 1.408 . S
C500 C498 1.363 . S
C500 C501 1.370 . S
C500 C504 1.524 . S
C501 C493 1.503 . S
C501 C500 1.370 . S
C501 C502 1.403 . S
C502 C501 1.403 . S
C502 C503 1.404 . S
C502 C505 1.539 . S
C503 C499 1.408 . S
C503 C502 1.404 . S
C503 H515 0.930 . S
C504 C500 1.524 . S
C504 H516 0.956 . S
C504 H517 0.961 . S
C504 H518 0.961 . S
C505 C502 1.539 . S
C505 H519 0.958 . S
C505 H520 0.961 . S
C505 H521 0.960 . S
H506 C490 0.931 . S
H507 C495 0.929 . S
H508 C496 0.960 . S
H509 C496 0.962 . S
H510 C496 0.960 . S
H511 C497 0.961 . S
H512 C497 0.961 . S
H513 C497 0.961 . S
H514 C498 0.931 . S
H515 C503 0.930 . S
H516 C504 0.956 . S
H517 C504 0.961 . S
H518 C504 0.961 . S
H519 C505 0.958 . S
H520 C505 0.961 . S
H521 C505 0.960 . S
C522 C523 1.391 . S
C522 C524 1.394 . S
C522 H538 0.931 . S
C523 C522 1.391 . S
C523 C527 1.376 . S
C524 C522 1.394 . S
C524 C525 1.369 . S
C524 C528 1.531 . S
C525 C524 1.369 . S
C525 C526 1.410 . S
C525 C533 1.503 . S
C526 C525 1.410 . S
C526 C527 1.392 . S
C526 C529 1.511 . S
C527 C523 1.376 . S
C527 C526 1.392 . S
C527 H539 0.929 . S
C528 C524 1.531 . S
C528 H540 0.960 . S
C528 H541 0.962 . S
C528 H542 0.960 . S
C529 C526 1.511 . S
C529 H543 0.961 . S
C529 H544 0.961 . S
C529 H545 0.961 . S
C530 C531 1.370 . S
C530 C532 1.363 . S
C530 H546 0.931 . S
C531 C530 1.370 . S
C531 C535 1.408 . S
C532 C530 1.363 . S
C532 C533 1.370 . S
C532 C536 1.524 . S
C533 C525 1.503 . S
C533 C532 1.370 . S
C533 C534 1.403 . S
C534 C533 1.403 . S
C534 C535 1.404 . S
C534 C537 1.539 . S
C535 C531 1.408 . S
C535 C534 1.404 . S
C535 H547 0.930 . S
C536 C532 1.524 . S
C536 H548 0.956 . S
C536 H549 0.961 . S
C536 H550 0.961 . S
C537 C534 1.539 . S
C537 H551 0.958 . S
C537 H552 0.961 . S
C537 H553 0.960 . S
H538 C522 0.931 . S
H539 C527 0.929 . S
H540 C528 0.960 . S
H541 C528 0.962 . S
H542 C528 0.960 . S
H543 C529 0.961 . S
H544 C529 0.961 . S
H545 C529 0.961 . S
H546 C530 0.931 . S
H547 C535 0.930 . S
H548 C536 0.956 . S
H549 C536 0.961 . S
H550 C536 0.961 . S
H551 C537 0.958 . S
H552 C537 0.961 . S
H553 C537 0.960 . S
C554 C555 1.391 1_554 S
C554 C556 1.394 . S
C554 H570 0.931 . S
C555 C554 1.391 1_556 S
C555 C559 1.376 1_556 S
C556 C554 1.394 . S
C556 C557 1.369 . S
C556 C560 1.531 . S
C557 C556 1.369 . S
C557 C558 1.410 . S
C557 C565 1.503 . S
C558 C557 1.410 . S
C558 C559 1.392 . S
C558 C561 1.511 . S
C559 C555 1.376 1_554 S
C559 C558 1.392 . S
C559 H571 0.928 . S
C560 C556 1.531 . S
C560 H572 0.960 . S
C560 H573 0.962 . S
C560 H574 0.960 . S
C561 C558 1.511 . S
C561 H575 0.961 . S
C561 H576 0.961 . S
C561 H577 0.961 . S
C562 C563 1.370 . S
C562 C564 1.363 . S
C562 H578 0.931 . S
C563 C562 1.370 . S
C563 C567 1.408 . S
C564 C562 1.363 . S
C564 C565 1.370 . S
C564 C568 1.524 . S
C565 C557 1.503 . S
C565 C564 1.370 . S
C565 C566 1.403 . S
C566 C565 1.403 . S
C566 C567 1.404 . S
C566 C569 1.539 . S
C567 C563 1.408 . S
C567 C566 1.404 . S
C567 H579 0.930 . S
C568 C564 1.524 . S
C568 H580 0.956 . S
C568 H581 0.961 . S
C568 H582 0.961 . S
C569 C566 1.539 . S
C569 H583 0.958 . S
C569 H584 0.961 . S
C569 H585 0.960 . S
H570 C554 0.931 . S
H571 C559 0.928 . S
H572 C560 0.960 . S
H573 C560 0.962 . S
H574 C560 0.960 . S
H575 C561 0.961 . S
H576 C561 0.961 . S
H577 C561 0.961 . S
H578 C562 0.931 . S
H579 C567 0.930 . S
H580 C568 0.956 . S
H581 C568 0.961 . S
H582 C568 0.961 . S
H583 C569 0.958 . S
H584 C569 0.961 . S
H585 C569 0.960 . S
C586 C587 1.389 1_554 S
C586 C588 1.394 . S
C586 H602 0.931 . S
C587 C586 1.389 1_556 S
C587 C591 1.373 1_556 S
C588 C586 1.394 . S
C588 C589 1.369 . S
C588 C592 1.531 . S
C589 C588 1.369 . S
C589 C590 1.410 . S
C589 C597 1.503 . S
C590 C589 1.410 . S
C590 C591 1.392 . S
C590 C593 1.511 . S
C591 C587 1.373 1_554 S
C591 C590 1.392 . S
C591 H603 0.929 . S
C592 C588 1.531 . S
C592 H604 0.960 . S
C592 H605 0.962 . S
C592 H606 0.960 . S
C593 C590 1.511 . S
C593 H607 0.961 . S
C593 H608 0.961 . S
C593 H609 0.961 . S
C594 C595 1.370 . S
C594 C596 1.363 . S
C594 H610 0.931 . S
C595 C594 1.370 . S
C595 C599 1.408 . S
C596 C594 1.363 . S
C596 C597 1.370 . S
C596 C600 1.524 . S
C597 C589 1.503 . S
C597 C596 1.370 . S
C597 C598 1.403 . S
C598 C597 1.403 . S
C598 C599 1.404 . S
C598 C601 1.539 . S
C599 C595 1.408 . S
C599 C598 1.404 . S
C599 H611 0.930 . S
C600 C596 1.524 . S
C600 H612 0.956 . S
C600 H613 0.961 . S
C600 H614 0.961 . S
C601 C598 1.539 . S
C601 H615 0.958 . S
C601 H616 0.961 . S
C601 H617 0.960 . S
H602 C586 0.931 . S
H603 C591 0.929 . S
H604 C592 0.960 . S
H605 C592 0.962 . S
H606 C592 0.960 . S
H607 C593 0.961 . S
H608 C593 0.961 . S
H609 C593 0.961 . S
H610 C594 0.931 . S
H611 C599 0.930 . S
H612 C600 0.956 . S
H613 C600 0.961 . S
H614 C600 0.961 . S
H615 C601 0.958 . S
H616 C601 0.961 . S
H617 C601 0.960 . S
C618 C619 1.391 . S
C618 C620 1.394 . S
C618 H634 0.931 . S
C619 C618 1.391 . S
C619 C623 1.376 . S
C620 C618 1.394 . S
C620 C621 1.369 1_554 S
C620 C624 1.531 1_554 S
C621 C620 1.369 1_556 S
C621 C622 1.410 . S
C621 C629 1.503 . S
C622 C621 1.410 . S
C622 C623 1.392 1_556 S
C622 C625 1.511 . S
C623 C619 1.376 . S
C623 C622 1.392 1_554 S
C623 H635 0.929 . S
C624 C620 1.531 1_556 S
C624 H636 0.960 . S
C624 H637 0.962 . S
C624 H638 0.960 . S
C625 C622 1.511 . S
C625 H639 0.961 . S
C625 H640 0.961 . S
C625 H641 0.961 . S
C626 C627 1.370 . S
C626 C628 1.363 . S
C626 H642 0.931 . S
C627 C626 1.370 . S
C627 C631 1.408 . S
C628 C626 1.363 . S
C628 C629 1.370 . S
C628 C632 1.524 . S
C629 C621 1.503 . S
C629 C628 1.370 . S
C629 C630 1.403 . S
C630 C629 1.403 . S
C630 C631 1.404 . S
C630 C633 1.539 . S
C631 C627 1.408 . S
C631 C630 1.404 . S
C631 H643 0.930 . S
C632 C628 1.524 . S
C632 H644 0.956 . S
C632 H645 0.961 . S
C632 H646 0.961 . S
C633 C630 1.539 . S
C633 H647 0.958 . S
C633 H648 0.961 . S
C633 H649 0.960 . S
H634 C618 0.931 . S
H635 C623 0.929 . S
H636 C624 0.960 . S
H637 C624 0.962 . S
H638 C624 0.960 . S
H639 C625 0.961 . S
H640 C625 0.961 . S
H641 C625 0.961 . S
H642 C626 0.931 . S
H643 C631 0.930 . S
H644 C632 0.956 . S
H645 C632 0.961 . S
H646 C632 0.961 . S
H647 C633 0.958 . S
H648 C633 0.961 . S
H649 C633 0.960 . S
C650 C651 1.391 . S
C650 C652 1.394 . S
C650 H666 0.931 . S
C651 C650 1.391 . S
C651 C655 1.376 . S
C652 C650 1.394 . S
C652 C653 1.369 . S
C652 C656 1.531 . S
C653 C652 1.369 . S
C653 C654 1.410 . S
C653 C661 1.503 . S
C654 C653 1.410 . S
C654 C655 1.392 . S
C654 C657 1.511 . S
C655 C651 1.376 . S
C655 C654 1.392 . S
C655 H667 0.929 . S
C656 C652 1.531 . S
C656 H668 0.960 . S
C656 H669 0.962 . S
C656 H670 0.960 . S
C657 C654 1.511 . S
C657 H671 0.961 . S
C657 H672 0.961 . S
C657 H673 0.961 . S
C658 C659 1.370 . S
C658 C660 1.363 1_554 S
C658 H674 0.931 . S
C659 C658 1.370 . S
C659 C663 1.408 . S
C660 C658 1.363 1_556 S
C660 C661 1.370 . S
C660 C664 1.524 . S
C661 C653 1.503 . S
C661 C660 1.370 . S
C661 C662 1.403 . S
C662 C661 1.403 . S
C662 C663 1.404 1_556 S
C662 C665 1.539 . S
C663 C659 1.408 . S
C663 C662 1.404 1_554 S
C663 H675 0.930 . S
C664 C660 1.524 . S
C664 H676 0.956 . S
C664 H677 0.961 . S
C664 H678 0.961 . S
C665 C662 1.539 . S
C665 H679 0.958 . S
C665 H680 0.961 . S
C665 H681 0.960 . S
H666 C650 0.931 . S
H667 C655 0.929 . S
H668 C656 0.960 . S
H669 C656 0.962 . S
H670 C656 0.960 . S
H671 C657 0.961 . S
H672 C657 0.961 . S
H673 C657 0.961 . S
H674 C658 0.931 . S
H675 C663 0.930 . S
H676 C664 0.956 . S
H677 C664 0.961 . S
H678 C664 0.961 . S
H679 C665 0.958 . S
H680 C665 0.961 . S
H681 C665 0.960 . S
C682 C683 1.391 . S
C682 C684 1.394 . S
C682 H698 0.931 . S
C683 C682 1.391 . S
C683 C687 1.376 . S
C684 C682 1.394 . S
C684 C685 1.369 1_554 S
C684 C688 1.531 1_554 S
C685 C684 1.369 1_556 S
C685 C686 1.410 . S
C685 C693 1.503 . S
C686 C685 1.410 . S
C686 C687 1.392 1_556 S
C686 C689 1.511 . S
C687 C683 1.376 . S
C687 C686 1.392 1_554 S
C687 H699 0.929 . S
C688 C684 1.531 1_556 S
C688 H700 0.960 . S
C688 H701 0.962 . S
C688 H702 0.960 . S
C689 C686 1.511 . S
C689 H703 0.961 . S
C689 H704 0.961 . S
C689 H705 0.961 . S
C690 C691 1.370 . S
C690 C692 1.363 . S
C690 H706 0.931 . S
C691 C690 1.370 . S
C691 C695 1.408 . S
C692 C690 1.363 . S
C692 C693 1.370 . S
C692 C696 1.524 . S
C693 C685 1.503 . S
C693 C692 1.370 . S
C693 C694 1.403 . S
C694 C693 1.403 . S
C694 C695 1.404 . S
C694 C697 1.539 . S
C695 C691 1.408 . S
C695 C694 1.404 . S
C695 H707 0.930 . S
C696 C692 1.524 . S
C696 H708 0.956 . S
C696 H709 0.961 . S
C696 H710 0.961 . S
C697 C694 1.539 . S
C697 H711 0.958 . S
C697 H712 0.961 . S
C697 H713 0.960 . S
H698 C682 0.931 . S
H699 C687 0.929 . S
H700 C688 0.960 . S
H701 C688 0.962 . S
H702 C688 0.960 . S
H703 C689 0.961 . S
H704 C689 0.961 . S
H705 C689 0.961 . S
H706 C690 0.931 . S
H707 C695 0.930 . S
H708 C696 0.956 . S
H709 C696 0.961 . S
H710 C696 0.961 . S
H711 C697 0.958 . S
H712 C697 0.961 . S
H713 C697 0.960 . S
C714 C715 1.391 . S
C714 C716 1.394 . S
C714 H730 0.931 . S
C715 C714 1.391 . S
C715 C719 1.376 . S
C716 C714 1.394 . S
C716 C717 1.369 . S
C716 C720 1.531 . S
C717 C716 1.369 . S
C717 C718 1.410 . S
C717 C725 1.503 . S
C718 C717 1.410 . S
C718 C719 1.392 . S
C718 C721 1.511 . S
C719 C715 1.376 . S
C719 C718 1.392 . S
C719 H731 0.929 . S
C720 C716 1.531 . S
C720 H732 0.960 . S
C720 H733 0.962 . S
C720 H734 0.960 . S
C721 C718 1.511 . S
C721 H735 0.961 . S
C721 H736 0.961 . S
C721 H737 0.961 . S
C722 C723 1.370 . S
C722 C724 1.363 . S
C722 H738 0.931 . S
C723 C722 1.370 . S
C723 C727 1.408 . S
C724 C722 1.363 . S
C724 C725 1.370 . S
C724 C728 1.524 . S
C725 C717 1.503 . S
C725 C724 1.370 . S
C725 C726 1.403 . S
C726 C725 1.403 . S
C726 C727 1.404 . S
C726 C729 1.539 . S
C727 C723 1.408 . S
C727 C726 1.404 . S
C727 H739 0.930 . S
C728 C724 1.524 . S
C728 H740 0.956 . S
C728 H741 0.961 . S
C728 H742 0.961 . S
C729 C726 1.539 . S
C729 H743 0.958 . S
C729 H744 0.961 . S
C729 H745 0.960 . S
H730 C714 0.931 . S
H731 C719 0.929 . S
H732 C720 0.960 . S
H733 C720 0.962 . S
H734 C720 0.960 . S
H735 C721 0.961 . S
H736 C721 0.961 . S
H737 C721 0.961 . S
H738 C722 0.931 . S
H739 C727 0.930 . S
H740 C728 0.956 . S
H741 C728 0.961 . S
H742 C728 0.961 . S
H743 C729 0.958 . S
H744 C729 0.961 . S
H745 C729 0.960 . S
C746 C747 1.391 . S
C746 C748 1.394 . S
C746 H762 0.931 . S
C747 C746 1.391 . S
C747 C751 1.376 . S
C748 C746 1.394 . S
C748 C749 1.369 . S
C748 C752 1.531 . S
C749 C748 1.369 . S
C749 C750 1.410 . S
C749 C757 1.503 . S
C750 C749 1.410 . S
C750 C751 1.392 . S
C750 C753 1.511 . S
C751 C747 1.376 . S
C751 C750 1.392 . S
C751 H763 0.929 . S
C752 C748 1.531 . S
C752 H764 0.960 . S
C752 H765 0.962 . S
C752 H766 0.960 . S
C753 C750 1.511 . S
C753 H767 0.961 . S
C753 H768 0.961 . S
C753 H769 0.961 . S
C754 C755 1.370 . S
C754 C756 1.363 . S
C754 H770 0.931 . S
C755 C754 1.370 . S
C755 C759 1.408 . S
C756 C754 1.363 . S
C756 C757 1.370 . S
C756 C760 1.524 . S
C757 C749 1.503 . S
C757 C756 1.370 . S
C757 C758 1.403 . S
C758 C757 1.403 . S
C758 C759 1.404 . S
C758 C761 1.539 . S
C759 C755 1.408 . S
C759 C758 1.404 . S
C759 H771 0.930 . S
C760 C756 1.524 . S
C760 H772 0.956 . S
C760 H773 0.961 . S
C760 H774 0.961 . S
C761 C758 1.539 . S
C761 H775 0.958 . S
C761 H776 0.961 . S
C761 H777 0.960 . S
H762 C746 0.931 . S
H763 C751 0.929 . S
H764 C752 0.960 . S
H765 C752 0.962 . S
H766 C752 0.960 . S
H767 C753 0.961 . S
H768 C753 0.961 . S
H769 C753 0.961 . S
H770 C754 0.931 . S
H771 C759 0.930 . S
H772 C760 0.956 . S
H773 C760 0.961 . S
H774 C760 0.961 . S
H775 C761 0.958 . S
H776 C761 0.961 . S
H777 C761 0.960 . S
C778 C779 1.391 . S
C778 C780 1.394 . S
C778 H794 0.931 . S
C779 C778 1.391 . S
C779 C783 1.376 . S
C780 C778 1.394 . S
C780 C781 1.369 . S
C780 C784 1.531 . S
C781 C780 1.369 . S
C781 C782 1.410 . S
C781 C789 1.503 . S
C782 C781 1.410 . S
C782 C783 1.392 . S
C782 C785 1.511 . S
C783 C779 1.376 . S
C783 C782 1.392 . S
C783 H795 0.929 . S
C784 C780 1.531 . S
C784 H796 0.960 . S
C784 H797 0.962 . S
C784 H798 0.960 . S
C785 C782 1.511 . S
C785 H799 0.961 . S
C785 H800 0.961 . S
C785 H801 0.961 . S
C786 C787 1.370 . S
C786 C788 1.363 . S
C786 H802 0.931 . S
C787 C786 1.370 . S
C787 C791 1.408 . S
C788 C786 1.363 . S
C788 C789 1.370 . S
C788 C792 1.524 . S
C789 C781 1.503 . S
C789 C788 1.370 . S
C789 C790 1.403 . S
C790 C789 1.403 . S
C790 C791 1.404 . S
C790 C793 1.539 . S
C791 C787 1.408 . S
C791 C790 1.404 . S
C791 H803 0.930 . S
C792 C788 1.524 . S
C792 H804 0.956 . S
C792 H805 0.961 . S
C792 H806 0.961 . S
C793 C790 1.539 . S
C793 H807 0.958 . S
C793 H808 0.961 . S
C793 H809 0.960 . S
H794 C778 0.931 . S
H795 C783 0.929 . S
H796 C784 0.960 . S
H797 C784 0.962 . S
H798 C784 0.960 . S
H799 C785 0.961 . S
H800 C785 0.961 . S
H801 C785 0.961 . S
H802 C786 0.931 . S
H803 C791 0.930 . S
H804 C792 0.956 . S
H805 C792 0.961 . S
H806 C792 0.961 . S
H807 C793 0.958 . S
H808 C793 0.961 . S
H809 C793 0.960 . S
C810 C811 1.391 1_554 S
C810 C812 1.394 1_554 S
C810 H826 0.931 . S
C811 C810 1.391 1_556 S
C811 C815 1.376 . S
C812 C810 1.394 1_556 S
C812 C813 1.369 . S
C812 C816 1.531 1_556 S
C813 C812 1.369 . S
C813 C814 1.410 . S
C813 C821 1.503 . S
C814 C813 1.410 . S
C814 C815 1.392 . S
C814 C817 1.511 . S
C815 C811 1.376 . S
C815 C814 1.392 . S
C815 H827 0.929 . S
C816 C812 1.531 1_554 S
C816 H828 0.960 . S
C816 H829 0.962 1_554 S
C816 H830 0.960 . S
C817 C814 1.511 . S
C817 H831 0.961 . S
C817 H832 0.961 . S
C817 H833 0.961 . S
C818 C819 1.370 . S
C818 C820 1.363 . S
C818 H834 0.931 . S
C819 C818 1.370 . S
C819 C823 1.408 . S
C820 C818 1.363 . S
C820 C821 1.370 . S
C820 C824 1.524 . S
C821 C813 1.503 . S
C821 C820 1.370 . S
C821 C822 1.403 . S
C822 C821 1.403 . S
C822 C823 1.404 . S
C822 C825 1.539 . S
C823 C819 1.408 . S
C823 C822 1.404 . S
C823 H835 0.930 . S
C824 C820 1.524 . S
C824 H836 0.956 . S
C824 H837 0.961 . S
C824 H838 0.961 . S
C825 C822 1.539 . S
C825 H839 0.958 1_556 S
C825 H840 0.961 . S
C825 H841 0.960 . S
H826 C810 0.931 . S
H827 C815 0.929 . S
H828 C816 0.960 . S
H829 C816 0.962 1_556 S
H830 C816 0.960 . S
H831 C817 0.961 . S
H832 C817 0.961 . S
H833 C817 0.961 . S
H834 C818 0.931 . S
H835 C823 0.930 . S
H836 C824 0.956 . S
H837 C824 0.961 . S
H838 C824 0.961 . S
H839 C825 0.958 1_554 S
H840 C825 0.961 . S
H841 C825 0.960 . S
C842 C843 1.391 . S
C842 C844 1.394 . S
C842 H858 0.931 . S
C843 C842 1.391 . S
C843 C847 1.376 . S
C844 C842 1.394 . S
C844 C845 1.369 . S
C844 C848 1.531 . S
C845 C844 1.369 . S
C845 C846 1.410 . S
C845 C853 1.503 . S
C846 C845 1.410 . S
C846 C847 1.392 . S
C846 C849 1.511 . S
C847 C843 1.376 . S
C847 C846 1.392 . S
C847 H859 0.929 . S
C848 C844 1.531 . S
C848 H860 0.960 . S
C848 H861 0.962 . S
C848 H862 0.960 . S
C849 C846 1.511 . S
C849 H863 0.961 . S
C849 H864 0.961 . S
C849 H865 0.961 . S
C850 C851 1.370 1_554 S
C850 C852 1.363 1_554 S
C850 H866 0.931 . S
C851 C850 1.370 1_556 S
C851 C855 1.408 . S
C852 C850 1.363 1_556 S
C852 C853 1.370 . S
C852 C856 1.524 1_556 S
C853 C845 1.503 . S
C853 C852 1.370 . S
C853 C854 1.403 . S
C854 C853 1.403 . S
C854 C855 1.404 . S
C854 C857 1.539 . S
C855 C851 1.408 . S
C855 C854 1.404 . S
C855 H867 0.930 . S
C856 C852 1.524 1_554 S
C856 H868 0.956 . S
C856 H869 0.961 . S
C856 H870 0.961 . S
C857 C854 1.539 . S
C857 H871 0.958 . S
C857 H872 0.961 . S
C857 H873 0.960 . S
H858 C842 0.931 . S
H859 C847 0.929 . S
H860 C848 0.960 . S
H861 C848 0.962 . S
H862 C848 0.960 . S
H863 C849 0.961 . S
H864 C849 0.961 . S
H865 C849 0.961 . S
H866 C850 0.931 . S
H867 C855 0.930 . S
H868 C856 0.956 . S
H869 C856 0.961 . S
H870 C856 0.961 . S
H871 C857 0.958 . S
H872 C857 0.961 . S
H873 C857 0.960 . S
C874 C875 1.391 . S
C874 C876 1.394 . S
C874 H890 0.931 . S
C875 C874 1.391 . S
C875 C879 1.376 . S
C876 C874 1.394 . S
C876 C877 1.369 . S
C876 C880 1.531 . S
C877 C876 1.369 . S
C877 C878 1.410 . S
C877 C885 1.503 . S
C878 C877 1.410 . S
C878 C879 1.392 . S
C878 C881 1.511 1_556 S
C879 C875 1.376 . S
C879 C878 1.392 . S
C879 H891 0.929 . S
C880 C876 1.531 . S
C880 H892 0.960 . S
C880 H893 0.962 . S
C880 H894 0.960 . S
C881 C878 1.511 1_554 S
C881 H895 0.961 . S
C881 H896 0.961 . S
C881 H897 0.961 . S
C882 C883 1.370 . S
C882 C884 1.363 . S
C882 H898 0.931 . S
C883 C882 1.370 . S
C883 C887 1.408 . S
C884 C882 1.363 . S
C884 C885 1.370 . S
C884 C888 1.524 . S
C885 C877 1.503 . S
C885 C884 1.370 . S
C885 C886 1.403 . S
C886 C885 1.403 . S
C886 C887 1.404 . S
C886 C889 1.539 . S
C887 C883 1.408 . S
C887 C886 1.404 . S
C887 H899 0.930 1_556 S
C888 C884 1.524 . S
C888 H900 0.956 . S
C888 H901 0.961 . S
C888 H902 0.961 . S
C889 C886 1.539 . S
C889 H903 0.958 . S
C889 H904 0.976 . S
C889 H905 0.960 . S
H890 C874 0.931 . S
H891 C879 0.929 . S
H892 C880 0.960 . S
H893 C880 0.962 . S
H894 C880 0.960 . S
H895 C881 0.961 . S
H896 C881 0.961 . S
H897 C881 0.961 . S
H898 C882 0.931 . S
H899 C887 0.930 1_554 S
H900 C888 0.956 . S
H901 C888 0.961 . S
H902 C888 0.961 . S
H903 C889 0.958 . S
H904 C889 0.976 . S
H905 C889 0.960 . S
C906 C907 1.391 . S
C906 C908 1.394 . S
C906 H922 0.931 . S
C907 C906 1.391 . S
C907 C911 1.376 . S
C908 C906 1.394 . S
C908 C909 1.369 . S
C908 C912 1.531 . S
C909 C908 1.369 . S
C909 C910 1.410 . S
C909 C917 1.503 . S
C910 C909 1.410 . S
C910 C911 1.392 . S
C910 C913 1.511 . S
C911 C907 1.376 . S
C911 C910 1.392 . S
C911 H923 0.929 . S
C912 C908 1.531 . S
C912 H924 0.960 . S
C912 H925 0.962 . S
C912 H926 0.960 . S
C913 C910 1.511 . S
C913 H927 0.961 . S
C913 H928 0.961 . S
C913 H929 0.961 . S
C914 C915 1.370 . S
C914 C916 1.363 . S
C914 H930 0.931 . S
C915 C914 1.370 . S
C915 C919 1.408 . S
C916 C914 1.363 . S
C916 C917 1.370 . S
C916 C920 1.524 . S
C917 C909 1.503 . S
C917 C916 1.370 . S
C917 C918 1.403 . S
C918 C917 1.403 . S
C918 C919 1.404 . S
C918 C921 1.539 . S
C919 C915 1.408 . S
C919 C918 1.404 . S
C919 H931 0.930 . S
C920 C916 1.524 . S
C920 H932 0.956 . S
C920 H933 0.961 . S
C920 H934 0.961 . S
C921 C918 1.539 . S
C921 H935 0.958 . S
C921 H936 0.961 . S
C921 H937 0.960 . S
H922 C906 0.931 . S
H923 C911 0.929 . S
H924 C912 0.960 . S
H925 C912 0.962 . S
H926 C912 0.960 . S
H927 C913 0.961 . S
H928 C913 0.961 . S
H929 C913 0.961 . S
H930 C914 0.931 . S
H931 C919 0.930 . S
H932 C920 0.956 . S
H933 C920 0.961 . S
H934 C920 0.961 . S
H935 C921 0.958 . S
H936 C921 0.961 . S
H937 C921 0.960 . S
C938 C939 1.391 . S
C938 C940 1.394 . S
C938 H954 0.931 . S
C939 C938 1.391 . S
C939 C943 1.376 . S
C940 C938 1.394 . S
C940 C941 1.369 . S
C940 C944 1.531 . S
C941 C940 1.369 . S
C941 C942 1.410 . S
C941 C949 1.503 . S
C942 C941 1.410 . S
C942 C943 1.392 . S
C942 C945 1.511 . S
C943 C939 1.376 . S
C943 C942 1.392 . S
C943 H955 0.929 . S
C944 C940 1.531 . S
C944 H956 0.960 . S
C944 H957 0.962 . S
C944 H958 0.960 . S
C945 C942 1.511 . S
C945 H959 0.961 . S
C945 H960 0.961 . S
C945 H961 0.961 . S
C946 C947 1.370 . S
C946 C948 1.363 . S
C946 H962 0.931 . S
C947 C946 1.370 . S
C947 C951 1.408 . S
C948 C946 1.363 . S
C948 C949 1.370 . S
C948 C952 1.524 . S
C949 C941 1.503 . S
C949 C948 1.370 . S
C949 C950 1.403 . S
C950 C949 1.403 . S
C950 C951 1.404 . S
C950 C953 1.539 . S
C951 C947 1.408 . S
C951 C950 1.404 . S
C951 H963 0.930 1_655 S
C952 C948 1.524 . S
C952 H964 0.956 . S
C952 H965 0.961 . S
C952 H966 0.961 . S
C953 C950 1.539 . S
C953 H967 0.958 . S
C953 H968 0.961 1_655 S
C953 H969 0.960 . S
H954 C938 0.931 . S
H955 C943 0.929 . S
H956 C944 0.960 . S
H957 C944 0.962 . S
H958 C944 0.960 . S
H959 C945 0.961 . S
H960 C945 0.961 . S
H961 C945 0.961 . S
H962 C946 0.931 . S
H963 C951 0.930 1_455 S
H964 C952 0.956 . S
H965 C952 0.961 . S
H966 C952 0.961 . S
H967 C953 0.958 . S
H968 C953 0.961 1_455 S
H969 C953 0.960 . S
C970 C971 1.391 . S
C970 C972 1.394 . S
C970 H986 0.931 . S
C971 C970 1.391 . S
C971 C975 1.376 . S
C972 C970 1.394 . S
C972 C973 1.369 . S
C972 C976 1.531 . S
C973 C972 1.369 . S
C973 C974 1.410 . S
C973 C981 1.503 . S
C974 C973 1.410 . S
C974 C975 1.392 . S
C974 C977 1.511 . S
C975 C971 1.376 . S
C975 C974 1.392 . S
C975 H987 0.929 . S
C976 C972 1.531 . S
C976 H988 0.960 . S
C976 H989 0.962 . S
C976 H990 0.960 . S
C977 C974 1.511 . S
C977 H991 0.961 . S
C977 H992 0.961 . S
C977 H993 0.961 . S
C978 C979 1.370 . S
C978 C980 1.363 . S
C978 H994 0.931 . S
C979 C978 1.370 . S
C979 C983 1.408 . S
C980 C978 1.363 . S
C980 C981 1.370 . S
C980 C984 1.524 . S
C981 C973 1.503 . S
C981 C980 1.370 . S
C981 C982 1.403 . S
C982 C981 1.403 . S
C982 C983 1.404 . S
C982 C985 1.539 . S
C983 C979 1.408 . S
C983 C982 1.404 . S
C983 H995 0.930 . S
C984 C980 1.524 . S
C984 H996 0.956 . S
C984 H997 0.961 . S
C984 H998 0.961 . S
C985 C982 1.539 . S
C985 H999 0.958 . S
C985 H1000 0.961 . S
C985 H1001 0.960 . S
H986 C970 0.931 . S
H987 C975 0.929 . S
H988 C976 0.960 . S
H989 C976 0.962 . S
H990 C976 0.960 . S
H991 C977 0.961 . S
H992 C977 0.961 . S
H993 C977 0.961 . S
H994 C978 0.931 . S
H995 C983 0.930 . S
H996 C984 0.956 . S
H997 C984 0.961 . S
H998 C984 0.961 . S
H999 C985 0.958 . S
H1000 C985 0.961 . S
H1001 C985 0.960 . S
C1002 C1003 1.391 . S
C1002 C1004 1.394 . S
C1002 H1018 0.931 . S
C1003 C1002 1.391 . S
C1003 C1007 1.376 . S
C1004 C1002 1.394 . S
C1004 C1005 1.369 . S
C1004 C1008 1.531 . S
C1005 C1004 1.369 . S
C1005 C1006 1.410 . S
C1005 C1013 1.503 . S
C1006 C1005 1.410 . S
C1006 C1007 1.392 . S
C1006 C1009 1.511 . S
C1007 C1003 1.376 . S
C1007 C1006 1.392 . S
C1007 H1019 0.929 . S
C1008 C1004 1.531 . S
C1008 H1020 0.960 . S
C1008 H1021 0.962 . S
C1008 H1022 0.960 . S
C1009 C1006 1.511 . S
C1009 H1023 0.961 . S
C1009 H1024 0.961 . S
C1009 H1025 0.961 . S
C1010 C1011 1.370 . S
C1010 C1012 1.363 . S
C1010 H1026 0.931 . S
C1011 C1010 1.370 . S
C1011 C1015 1.408 . S
C1012 C1010 1.363 . S
C1012 C1013 1.370 . S
C1012 C1016 1.524 . S
C1013 C1005 1.503 . S
C1013 C1012 1.370 . S
C1013 C1014 1.403 . S
C1014 C1013 1.403 . S
C1014 C1015 1.404 . S
C1014 C1017 1.539 . S
C1015 C1011 1.408 . S
C1015 C1014 1.404 . S
C1015 H1027 0.930 . S
C1016 C1012 1.524 . S
C1016 H1028 0.956 . S
C1016 H1029 0.961 . S
C1016 H1030 0.961 . S
C1017 C1014 1.539 . S
C1017 H1031 0.958 . S
C1017 H1032 0.961 . S
C1017 H1033 0.960 . S
H1018 C1002 0.931 . S
H1019 C1007 0.929 . S
H1020 C1008 0.960 . S
H1021 C1008 0.962 . S
H1022 C1008 0.960 . S
H1023 C1009 0.961 . S
H1024 C1009 0.961 . S
H1025 C1009 0.961 . S
H1026 C1010 0.931 . S
H1027 C1015 0.930 . S
H1028 C1016 0.956 . S
H1029 C1016 0.961 . S
H1030 C1016 0.961 . S
H1031 C1017 0.958 . S
H1032 C1017 0.961 . S
H1033 C1017 0.960 . S
C1034 C1035 1.391 . S
C1034 C1036 1.394 . S
C1034 H1050 0.931 . S
C1035 C1034 1.391 . S
C1035 C1039 1.376 . S
C1036 C1034 1.394 . S
C1036 C1037 1.369 . S
C1036 C1040 1.531 . S
C1037 C1036 1.369 . S
C1037 C1038 1.410 . S
C1037 C1045 1.503 . S
C1038 C1037 1.410 . S
C1038 C1039 1.392 . S
C1038 C1041 1.511 . S
C1039 C1035 1.376 . S
C1039 C1038 1.392 . S
C1039 H1051 0.929 . S
C1040 C1036 1.531 . S
C1040 H1052 0.960 . S
C1040 H1053 0.962 . S
C1040 H1054 0.960 . S
C1041 C1038 1.511 . S
C1041 H1055 0.961 . S
C1041 H1056 0.961 . S
C1041 H1057 0.961 . S
C1042 C1043 1.370 . S
C1042 C1044 1.363 . S
C1042 H1058 0.931 . S
C1043 C1042 1.370 . S
C1043 C1047 1.408 . S
C1044 C1042 1.363 . S
C1044 C1045 1.370 . S
C1044 C1048 1.524 . S
C1045 C1037 1.503 . S
C1045 C1044 1.370 . S
C1045 C1046 1.403 . S
C1046 C1045 1.403 . S
C1046 C1047 1.404 . S
C1046 C1049 1.539 . S
C1047 C1043 1.408 . S
C1047 C1046 1.404 . S
C1047 H1059 0.930 . S
C1048 C1044 1.524 . S
C1048 H1060 0.956 . S
C1048 H1061 0.961 . S
C1048 H1062 0.961 . S
C1049 C1046 1.539 . S
C1049 H1063 0.958 . S
C1049 H1064 0.961 . S
C1049 H1065 0.960 . S
H1050 C1034 0.931 . S
H1051 C1039 0.929 . S
H1052 C1040 0.960 . S
H1053 C1040 0.962 . S
H1054 C1040 0.960 . S
H1055 C1041 0.961 . S
H1056 C1041 0.961 . S
H1057 C1041 0.961 . S
H1058 C1042 0.931 . S
H1059 C1047 0.930 . S
H1060 C1048 0.956 . S
H1061 C1048 0.961 . S
H1062 C1048 0.961 . S
H1063 C1049 0.958 . S
H1064 C1049 0.961 . S
H1065 C1049 0.960 . S
C1066 C1067 1.391 . S
C1066 C1068 1.394 . S
C1066 H1082 0.931 . S
C1067 C1066 1.391 . S
C1067 C1071 1.376 . S
C1068 C1066 1.394 . S
C1068 C1069 1.369 . S
C1068 C1072 1.531 . S
C1069 C1068 1.369 . S
C1069 C1070 1.410 . S
C1069 C1077 1.503 . S
C1070 C1069 1.410 . S
C1070 C1071 1.392 . S
C1070 C1073 1.511 . S
C1071 C1067 1.376 . S
C1071 C1070 1.392 . S
C1071 H1083 0.929 . S
C1072 C1068 1.531 . S
C1072 H1084 0.960 . S
C1072 H1085 0.962 . S
C1072 H1086 0.960 . S
C1073 C1070 1.511 . S
C1073 H1087 0.961 . S
C1073 H1088 0.961 . S
C1073 H1089 0.961 . S
C1074 C1075 1.370 . S
C1074 C1076 1.363 . S
C1074 H1090 0.931 . S
C1075 C1074 1.370 . S
C1075 C1079 1.408 . S
C1076 C1074 1.363 . S
C1076 C1077 1.370 . S
C1076 C1080 1.524 . S
C1077 C1069 1.503 . S
C1077 C1076 1.370 . S
C1077 C1078 1.403 . S
C1078 C1077 1.403 . S
C1078 C1079 1.404 . S
C1078 C1081 1.539 . S
C1079 C1075 1.408 . S
C1079 C1078 1.404 . S
C1079 H1091 0.930 1_554 S
C1080 C1076 1.524 . S
C1080 H1092 0.956 . S
C1080 H1093 0.961 . S
C1080 H1094 0.961 . S
C1081 C1078 1.539 . S
C1081 H1095 0.958 . S
C1081 H1096 0.961 1_554 S
C1081 H1097 0.960 . S
H1082 C1066 0.931 . S
H1083 C1071 0.929 . S
H1084 C1072 0.960 . S
H1085 C1072 0.962 . S
H1086 C1072 0.960 . S
H1087 C1073 0.961 . S
H1088 C1073 0.961 . S
H1089 C1073 0.961 . S
H1090 C1074 0.931 . S
H1091 C1079 0.930 1_556 S
H1092 C1080 0.956 . S
H1093 C1080 0.961 . S
H1094 C1080 0.961 . S
H1095 C1081 0.958 . S
H1096 C1081 0.961 1_556 S
H1097 C1081 0.960 . S
C1098 C1099 1.391 . S
C1098 C1100 1.394 . S
C1098 H1114 0.931 . S
C1099 C1098 1.391 . S
C1099 C1103 1.376 . S
C1100 C1098 1.394 . S
C1100 C1101 1.369 . S
C1100 C1104 1.531 . S
C1101 C1100 1.369 . S
C1101 C1102 1.410 . S
C1101 C1109 1.503 . S
C1102 C1101 1.410 . S
C1102 C1103 1.392 . S
C1102 C1105 1.511 . S
C1103 C1099 1.376 . S
C1103 C1102 1.392 . S
C1103 H1115 0.929 . S
C1104 C1100 1.531 . S
C1104 H1116 0.960 . S
C1104 H1117 0.962 . S
C1104 H1118 0.960 . S
C1105 C1102 1.511 . S
C1105 H1119 0.961 . S
C1105 H1120 0.961 . S
C1105 H1121 0.961 . S
C1106 C1107 1.370 . S
C1106 C1108 1.363 . S
C1106 H1122 0.931 . S
C1107 C1106 1.370 . S
C1107 C1111 1.408 . S
C1108 C1106 1.363 . S
C1108 C1109 1.370 . S
C1108 C1112 1.524 . S
C1109 C1101 1.503 . S
C1109 C1108 1.370 . S
C1109 C1110 1.403 . S
C1110 C1109 1.403 . S
C1110 C1111 1.404 . S
C1110 C1113 1.539 . S
C1111 C1107 1.408 . S
C1111 C1110 1.404 . S
C1111 H1123 0.930 . S
C1112 C1108 1.524 . S
C1112 H1124 0.956 . S
C1112 H1125 0.961 . S
C1112 H1126 0.961 . S
C1113 C1110 1.539 . S
C1113 H1127 0.958 . S
C1113 H1128 0.961 . S
C1113 H1129 0.960 . S
H1114 C1098 0.931 . S
H1115 C1103 0.929 . S
H1116 C1104 0.960 . S
H1117 C1104 0.962 . S
H1118 C1104 0.960 . S
H1119 C1105 0.961 . S
H1120 C1105 0.961 . S
H1121 C1105 0.961 . S
H1122 C1106 0.931 . S
H1123 C1111 0.930 . S
H1124 C1112 0.956 . S
H1125 C1112 0.961 . S
H1126 C1112 0.961 . S
H1127 C1113 0.958 . S
H1128 C1113 0.961 . S
H1129 C1113 0.960 . S
C1130 C1131 1.391 . S
C1130 C1132 1.394 . S
C1130 H1146 0.931 . S
C1131 C1130 1.391 . S
C1131 C1135 1.376 . S
C1132 C1130 1.394 . S
C1132 C1133 1.369 . S
C1132 C1136 1.531 . S
C1133 C1132 1.369 . S
C1133 C1134 1.410 . S
C1133 C1141 1.503 . S
C1134 C1133 1.410 . S
C1134 C1135 1.392 . S
C1134 C1137 1.511 . S
C1135 C1131 1.376 . S
C1135 C1134 1.392 . S
C1135 H1147 0.929 . S
C1136 C1132 1.531 . S
C1136 H1148 0.960 . S
C1136 H1149 0.962 . S
C1136 H1150 0.960 . S
C1137 C1134 1.511 . S
C1137 H1151 0.961 . S
C1137 H1152 0.961 . S
C1137 H1153 0.961 . S
C1138 C1139 1.370 . S
C1138 C1140 1.363 . S
C1138 H1154 0.931 . S
C1139 C1138 1.370 . S
C1139 C1143 1.408 . S
C1140 C1138 1.363 . S
C1140 C1141 1.370 . S
C1140 C1144 1.524 . S
C1141 C1133 1.503 . S
C1141 C1140 1.370 . S
C1141 C1142 1.403 . S
C1142 C1141 1.403 . S
C1142 C1143 1.404 . S
C1142 C1145 1.539 . S
C1143 C1139 1.408 . S
C1143 C1142 1.404 . S
C1143 H1155 0.930 . S
C1144 C1140 1.524 . S
C1144 H1156 0.956 . S
C1144 H1157 0.961 . S
C1144 H1158 0.961 . S
C1145 C1142 1.539 . S
C1145 H1159 0.958 . S
C1145 H1160 0.961 . S
C1145 H1161 0.960 . S
H1146 C1130 0.931 . S
H1147 C1135 0.929 . S
H1148 C1136 0.960 . S
H1149 C1136 0.962 . S
H1150 C1136 0.960 . S
H1151 C1137 0.961 . S
H1152 C1137 0.961 . S
H1153 C1137 0.961 . S
H1154 C1138 0.931 . S
H1155 C1143 0.930 . S
H1156 C1144 0.956 . S
H1157 C1144 0.961 . S
H1158 C1144 0.961 . S
H1159 C1145 0.958 . S
H1160 C1145 0.961 . S
H1161 C1145 0.960 . S
C1162 C1163 1.391 . S
C1162 C1164 1.394 . S
C1162 H1178 0.931 . S
C1163 C1162 1.391 . S
C1163 C1167 1.376 . S
C1164 C1162 1.394 . S
C1164 C1165 1.369 . S
C1164 C1168 1.531 . S
C1165 C1164 1.369 . S
C1165 C1166 1.410 . S
C1165 C1173 1.503 . S
C1166 C1165 1.410 . S
C1166 C1167 1.392 . S
C1166 C1169 1.511 . S
C1167 C1163 1.376 . S
C1167 C1166 1.392 . S
C1167 H1179 0.929 . S
C1168 C1164 1.531 . S
C1168 H1180 0.960 . S
C1168 H1181 0.962 . S
C1168 H1182 0.960 . S
C1169 C1166 1.511 . S
C1169 H1183 0.961 . S
C1169 H1184 0.961 . S
C1169 H1185 0.961 . S
C1170 C1171 1.370 . S
C1170 C1172 1.363 . S
C1170 H1186 0.931 . S
C1171 C1170 1.370 . S
C1171 C1175 1.408 . S
C1172 C1170 1.363 . S
C1172 C1173 1.370 . S
C1172 C1176 1.524 . S
C1173 C1165 1.503 . S
C1173 C1172 1.370 . S
C1173 C1174 1.403 . S
C1174 C1173 1.403 . S
C1174 C1175 1.404 . S
C1174 C1177 1.539 . S
C1175 C1171 1.408 . S
C1175 C1174 1.404 . S
C1175 H1187 0.930 . S
C1176 C1172 1.524 . S
C1176 H1188 0.956 . S
C1176 H1189 0.961 . S
C1176 H1190 0.961 . S
C1177 C1174 1.539 . S
C1177 H1191 0.958 . S
C1177 H1192 0.961 . S
C1177 H1193 0.960 . S
H1178 C1162 0.931 . S
H1179 C1167 0.929 . S
H1180 C1168 0.960 . S
H1181 C1168 0.962 . S
H1182 C1168 0.960 . S
H1183 C1169 0.961 . S
H1184 C1169 0.961 . S
H1185 C1169 0.961 . S
H1186 C1170 0.931 . S
H1187 C1175 0.930 . S
H1188 C1176 0.956 . S
H1189 C1176 0.961 . S
H1190 C1176 0.961 . S
H1191 C1177 0.958 . S
H1192 C1177 0.961 . S
H1193 C1177 0.960 . S
C1194 C1195 1.391 . S
C1194 C1196 1.394 . S
C1194 H1210 0.931 . S
C1195 C1194 1.391 . S
C1195 C1199 1.376 . S
C1196 C1194 1.394 . S
C1196 C1197 1.369 . S
C1196 C1200 1.531 . S
C1197 C1196 1.369 . S
C1197 C1198 1.410 . S
C1197 C1205 1.503 . S
C1198 C1197 1.410 . S
C1198 C1199 1.392 . S
C1198 C1201 1.511 . S
C1199 C1195 1.376 . S
C1199 C1198 1.392 . S
C1199 H1211 0.929 . S
C1200 C1196 1.531 . S
C1200 H1212 0.960 . S
C1200 H1213 0.962 . S
C1200 H1214 0.960 . S
C1201 C1198 1.511 . S
C1201 H1215 0.961 . S
C1201 H1216 0.961 . S
C1201 H1217 0.961 . S
C1202 C1203 1.370 . S
C1202 C1204 1.363 . S
C1202 H1218 0.931 . S
C1203 C1202 1.370 . S
C1203 C1207 1.408 . S
C1204 C1202 1.363 . S
C1204 C1205 1.370 . S
C1204 C1208 1.524 . S
C1205 C1197 1.503 . S
C1205 C1204 1.370 . S
C1205 C1206 1.403 . S
C1206 C1205 1.403 . S
C1206 C1207 1.404 . S
C1206 C1209 1.539 . S
C1207 C1203 1.408 . S
C1207 C1206 1.404 . S
C1207 H1219 0.930 . S
C1208 C1204 1.524 . S
C1208 H1220 0.956 . S
C1208 H1221 0.961 . S
C1208 H1222 0.961 . S
C1209 C1206 1.539 . S
C1209 H1223 0.958 . S
C1209 H1224 0.961 . S
C1209 H1225 0.960 . S
H1210 C1194 0.931 . S
H1211 C1199 0.929 . S
H1212 C1200 0.960 . S
H1213 C1200 0.962 . S
H1214 C1200 0.960 . S
H1215 C1201 0.961 . S
H1216 C1201 0.961 . S
H1217 C1201 0.961 . S
H1218 C1202 0.931 . S
H1219 C1207 0.930 . S
H1220 C1208 0.956 . S
H1221 C1208 0.961 . S
H1222 C1208 0.961 . S
H1223 C1209 0.958 . S
H1224 C1209 0.961 . S
H1225 C1209 0.960 . S
C1226 C1227 1.391 . S
C1226 C1228 1.394 . S
C1226 H1242 0.931 . S
C1227 C1226 1.391 . S
C1227 C1231 1.376 . S
C1228 C1226 1.394 . S
C1228 C1229 1.369 . S
C1228 C1232 1.531 . S
C1229 C1228 1.369 . S
C1229 C1230 1.410 . S
C1229 C1237 1.503 1_545 S
C1230 C1229 1.410 . S
C1230 C1231 1.392 . S
C1230 C1233 1.511 . S
C1231 C1227 1.376 . S
C1231 C1230 1.392 . S
C1231 H1243 0.929 . S
C1232 C1228 1.531 . S
C1232 H1244 0.960 . S
C1232 H1245 0.962 . S
C1232 H1246 0.960 . S
C1233 C1230 1.511 . S
C1233 H1247 0.961 . S
C1233 H1248 0.961 . S
C1233 H1249 0.961 . S
C1234 C1235 1.370 . S
C1234 C1236 1.363 . S
C1234 H1250 0.931 . S
C1235 C1234 1.370 . S
C1235 C1239 1.408 . S
C1236 C1234 1.363 . S
C1236 C1237 1.370 . S
C1236 C1240 1.524 1_565 S
C1237 C1229 1.503 1_565 S
C1237 C1236 1.370 . S
C1237 C1238 1.403 . S
C1238 C1237 1.403 . S
C1238 C1239 1.404 . S
C1238 C1241 1.539 . S
C1239 C1235 1.408 . S
C1239 C1238 1.404 . S
C1239 H1251 0.930 . S
C1240 C1236 1.524 1_545 S
C1240 H1252 0.956 . S
C1240 H1253 0.961 . S
C1240 H1254 0.961 . S
C1241 C1238 1.539 . S
C1241 H1255 0.958 . S
C1241 H1256 0.961 . S
C1241 H1257 0.960 . S
H1242 C1226 0.931 . S
H1243 C1231 0.929 . S
H1244 C1232 0.960 . S
H1245 C1232 0.962 . S
H1246 C1232 0.960 . S
H1247 C1233 0.961 . S
H1248 C1233 0.961 . S
H1249 C1233 0.961 . S
H1250 C1234 0.931 . S
H1251 C1239 0.930 . S
H1252 C1240 0.956 . S
H1253 C1240 0.961 . S
H1254 C1240 0.961 . S
H1255 C1241 0.958 . S
H1256 C1241 0.961 . S
H1257 C1241 0.960 . S
C1258 C1259 1.391 . S
C1258 C1260 1.394 . S
C1258 H1274 0.931 . S
C1259 C1258 1.391 . S
C1259 C1263 1.376 . S
C1260 C1258 1.394 . S
C1260 C1261 1.369 . S
C1260 C1264 1.531 . S
C1261 C1260 1.369 . S
C1261 C1262 1.410 . S
C1261 C1269 1.503 1_455 S
C1262 C1261 1.410 . S
C1262 C1263 1.392 . S
C1262 C1265 1.511 1_455 S
C1263 C1259 1.376 . S
C1263 C1262 1.392 . S
C1263 H1275 0.929 . S
C1264 C1260 1.531 . S
C1264 H1276 0.960 . S
C1264 H1277 0.962 . S
C1264 H1278 0.960 . S
C1265 C1262 1.511 1_655 S
C1265 H1279 0.961 1_655 S
C1265 H1280 0.961 . S
C1265 H1281 0.961 . S
C1266 C1267 1.370 . S
C1266 C1268 1.363 . S
C1266 H1282 0.931 . S
C1267 C1266 1.370 . S
C1267 C1271 1.408 . S
C1268 C1266 1.363 . S
C1268 C1269 1.370 . S
C1268 C1272 1.524 1_655 S
C1269 C1261 1.503 1_655 S
C1269 C1268 1.370 . S
C1269 C1270 1.403 . S
C1270 C1269 1.403 . S
C1270 C1271 1.404 . S
C1270 C1273 1.539 . S
C1271 C1267 1.408 . S
C1271 C1270 1.404 . S
C1271 H1283 0.930 . S
C1272 C1268 1.524 1_455 S
C1272 H1284 0.956 . S
C1272 H1285 0.961 . S
C1272 H1286 0.961 1_455 S
C1273 C1270 1.539 . S
C1273 H1287 0.958 . S
C1273 H1288 0.961 . S
C1273 H1289 0.960 . S
H1274 C1258 0.931 . S
H1275 C1263 0.929 . S
H1276 C1264 0.960 . S
H1277 C1264 0.962 . S
H1278 C1264 0.960 . S
H1279 C1265 0.961 1_455 S
H1280 C1265 0.961 . S
H1281 C1265 0.961 . S
H1282 C1266 0.931 . S
H1283 C1271 0.930 . S
H1284 C1272 0.956 . S
H1285 C1272 0.961 . S
H1286 C1272 0.961 1_655 S
H1287 C1273 0.958 . S
H1288 C1273 0.961 . S
H1289 C1273 0.960 . S
C1290 C1291 1.391 . S
C1290 C1292 1.394 . S
C1290 H1306 0.931 . S
C1291 C1290 1.391 . S
C1291 C1295 1.376 . S
C1292 C1290 1.394 . S
C1292 C1293 1.369 . S
C1292 C1296 1.531 . S
C1293 C1292 1.369 . S
C1293 C1294 1.410 . S
C1293 C1301 1.503 . S
C1294 C1293 1.410 . S
C1294 C1295 1.392 . S
C1294 C1297 1.511 . S
C1295 C1291 1.376 . S
C1295 C1294 1.392 . S
C1295 H1307 0.929 . S
C1296 C1292 1.531 . S
C1296 H1308 0.960 . S
C1296 H1309 0.962 . S
C1296 H1310 0.960 . S
C1297 C1294 1.511 . S
C1297 H1311 0.961 . S
C1297 H1312 0.961 . S
C1297 H1313 0.961 . S
C1298 C1299 1.370 . S
C1298 C1300 1.363 . S
C1298 H1314 0.931 . S
C1299 C1298 1.370 . S
C1299 C1303 1.408 . S
C1300 C1298 1.363 . S
C1300 C1301 1.370 . S
C1300 C1304 1.524 . S
C1301 C1293 1.503 . S
C1301 C1300 1.370 . S
C1301 C1302 1.403 . S
C1302 C1301 1.403 . S
C1302 C1303 1.404 . S
C1302 C1305 1.539 . S
C1303 C1299 1.408 . S
C1303 C1302 1.404 . S
C1303 H1315 0.930 . S
C1304 C1300 1.524 . S
C1304 H1316 0.956 . S
C1304 H1317 0.961 . S
C1304 H1318 0.961 . S
C1305 C1302 1.539 . S
C1305 H1319 0.958 . S
C1305 H1320 0.961 . S
C1305 H1321 0.960 . S
H1306 C1290 0.931 . S
H1307 C1295 0.929 . S
H1308 C1296 0.960 . S
H1309 C1296 0.962 . S
H1310 C1296 0.960 . S
H1311 C1297 0.961 . S
H1312 C1297 0.961 . S
H1313 C1297 0.961 . S
H1314 C1298 0.931 . S
H1315 C1303 0.930 . S
H1316 C1304 0.956 . S
H1317 C1304 0.961 . S
H1318 C1304 0.961 . S
H1319 C1305 0.958 . S
H1320 C1305 0.961 . S
H1321 C1305 0.960 . S
C1322 C1323 1.391 . S
C1322 C1324 1.394 . S
C1322 H1338 0.931 . S
C1323 C1322 1.391 . S
C1323 C1327 1.376 . S
C1324 C1322 1.394 . S
C1324 C1325 1.369 . S
C1324 C1328 1.531 . S
C1325 C1324 1.369 . S
C1325 C1326 1.410 . S
C1325 C1333 1.477 1_545 S
C1326 C1325 1.410 . S
C1326 C1327 1.392 . S
C1326 C1329 1.511 . S
C1327 C1323 1.376 . S
C1327 C1326 1.392 . S
C1327 H1339 0.929 . S
C1328 C1324 1.531 . S
C1328 H1340 0.960 1_545 S
C1328 H1341 0.962 . S
C1328 H1342 0.960 . S
C1329 C1326 1.511 . S
C1329 H1343 0.961 . S
C1329 H1344 0.961 . S
C1329 H1345 0.961 . S
C1330 C1331 1.370 . S
C1330 C1332 1.363 . S
C1330 H1346 0.931 . S
C1331 C1330 1.370 . S
C1331 C1335 1.408 . S
C1332 C1330 1.363 . S
C1332 C1333 1.363 . S
C1332 C1336 1.524 1_565 S
C1333 C1325 1.477 1_565 S
C1333 C1332 1.363 . S
C1333 C1334 1.437 . S
C1334 C1333 1.437 . S
C1334 C1335 1.404 . S
C1334 C1337 1.539 . S
C1335 C1331 1.408 . S
C1335 C1334 1.404 . S
C1335 H1347 0.930 . S
C1336 C1332 1.524 1_545 S
C1336 H1348 0.956 . S
C1336 H1349 0.961 . S
C1336 H1350 0.961 . S
C1337 C1334 1.539 . S
C1337 H1351 0.958 . S
C1337 H1352 0.961 . S
C1337 H1353 0.960 . S
H1338 C1322 0.931 . S
H1339 C1327 0.929 . S
H1340 C1328 0.960 1_565 S
H1341 C1328 0.962 . S
H1342 C1328 0.960 . S
H1343 C1329 0.961 . S
H1344 C1329 0.961 . S
H1345 C1329 0.961 . S
H1346 C1330 0.931 . S
H1347 C1335 0.930 . S
H1348 C1336 0.956 . S
H1349 C1336 0.961 . S
H1350 C1336 0.961 . S
H1351 C1337 0.958 . S
H1352 C1337 0.961 . S
H1353 C1337 0.960 . S
C1354 C1355 1.391 . S
C1354 C1356 1.394 . S
C1354 H1370 0.931 . S
C1355 C1354 1.391 . S
C1355 C1359 1.376 . S
C1356 C1354 1.394 . S
C1356 C1357 1.369 . S
C1356 C1360 1.531 . S
C1357 C1356 1.369 . S
C1357 C1358 1.410 . S
C1357 C1365 1.503 1_455 S
C1358 C1357 1.410 . S
C1358 C1359 1.392 . S
C1358 C1361 1.511 . S
C1359 C1355 1.376 . S
C1359 C1358 1.392 . S
C1359 H1371 0.929 . S
C1360 C1356 1.531 . S
C1360 H1372 0.960 . S
C1360 H1373 0.962 . S
C1360 H1374 0.960 . S
C1361 C1358 1.511 . S
C1361 H1375 0.961 . S
C1361 H1376 0.961 1_455 S
C1361 H1377 0.961 . S
C1362 C1363 1.370 . S
C1362 C1364 1.363 . S
C1362 H1378 0.931 . S
C1363 C1362 1.370 . S
C1363 C1367 1.408 . S
C1364 C1362 1.363 . S
C1364 C1365 1.370 . S
C1364 C1368 1.524 . S
C1365 C1357 1.503 1_655 S
C1365 C1364 1.370 . S
C1365 C1366 1.403 . S
C1366 C1365 1.403 . S
C1366 C1367 1.404 . S
C1366 C1369 1.539 1_655 S
C1367 C1363 1.408 . S
C1367 C1366 1.404 . S
C1367 H1379 0.930 . S
C1368 C1364 1.524 . S
C1368 H1380 0.956 . S
C1368 H1381 0.961 . S
C1368 H1382 0.961 . S
C1369 C1366 1.539 1_455 S
C1369 H1383 0.958 . S
C1369 H1384 0.961 . S
C1369 H1385 0.960 . S
H1370 C1354 0.931 . S
H1371 C1359 0.929 . S
H1372 C1360 0.960 . S
H1373 C1360 0.962 . S
H1374 C1360 0.960 . S
H1375 C1361 0.961 . S
H1376 C1361 0.961 1_655 S
H1377 C1361 0.961 . S
H1378 C1362 0.931 . S
H1379 C1367 0.930 . S
H1380 C1368 0.956 . S
H1381 C1368 0.961 . S
H1382 C1368 0.961 . S
H1383 C1369 0.958 . S
H1384 C1369 0.961 . S
H1385 C1369 0.960 . S
C235 C57 1.012 . S
C243 C10 1.054 . S
C267 C70 1.029 . S
C275 C23 1.051 . S
C299 C29 1.044 . S
C307 C44 1.046 . S
C331 C62 1.067 . S
C339 C5 1.057 . S
C363 C75 1.048 . S
C371 C18 1.054 . S
C395 C27 1.068 . S
C403 C49 1.075 . S
C427 C131 1.044 . S
C435 C83 1.023 . S
C459 C144 1.039 . S
C467 C94 1.034 . S
C491 C107 1.067 . S
C499 C127 1.056 . S
C523 C88 1.059 . S
C531 C133 1.063 1_554 S
C555 C146 1.034 . S
C563 C92 1.061 . S
C587 C122 1.047 . S
C595 C105 1.033 . S
C619 C209 1.041 . S
C627 C161 1.025 . S
C651 C172 1.025 . S
C659 C222 1.042 . S
C683 C205 1.034 . S
C691 C185 1.060 . S
C715 C211 1.076 . S
C723 C166 1.065 . S
C747 C224 1.080 . S
C755 C170 1.050 . S
C779 C183 1.031 . S
C787 C200 1.038 . S
C811 C1 1.554 1_556 S
C819 C118 1.555 . S
C843 C140 1.568 . S
C851 C14 1.552 1_556 S
C875 C153 1.557 . S
C883 C31 1.557 1_556 S
C907 C42 1.553 . S
C915 C159 1.558 . S
C939 C174 1.564 . S
C947 C55 1.546 . S
C971 C187 1.534 . S
C979 C68 1.560 . S
C1003 C198 1.545 . S
C1011 C3 1.540 . S
C1035 C213 1.562 . S
C1043 C16 1.543 . S
C1067 C226 1.546 . S
C1075 C36 1.573 . S
C1099 C40 1.566 . S
C1107 C79 1.567 . S
C1131 C53 1.555 . S
C1139 C101 1.563 . S
C1163 C114 1.563 . S
C1171 C66 1.560 . S
C1195 C196 1.565 . S
C1203 C81 1.551 . S
C1227 C218 1.562 . S
C1235 C96 1.543 . S
C1259 C109 1.548 . S
C1267 C231 1.555 . S
C1291 C157 1.553 . S
C1299 C120 1.544 . S
C1323 C179 1.572 . S
C1331 C135 1.556 . S
C1355 C148 1.529 . S
C1363 C192 1.556 . S
