# Generated by pormake.
# Topology zfo, (5)-cn, num edge types: 1
# Building blocks:
#     Node 0, Type 0, BuildingBlock: XOMCOT_clean_sbu_0, # of connection points: 5
#     Node 1, Type 0, BuildingBlock: XOMCOT_clean_sbu_0, # of connection points: 5
#     Node 2, Type 0, BuildingBlock: XOMCOT_clean_sbu_0, # of connection points: 5
#     Node 3, Type 0, BuildingBlock: XOMCOT_clean_sbu_0, # of connection points: 5
#     Node 4, Type 0, BuildingBlock: XOMCOT_clean_sbu_0, # of connection points: 5
#     Node 5, Type 0, BuildingBlock: XOMCOT_clean_sbu_0, # of connection points: 5
#     Node 6, Type 0, BuildingBlock: XOMCOT_clean_sbu_0, # of connection points: 5
#     Node 7, Type 0, BuildingBlock: XOMCOT_clean_sbu_0, # of connection points: 5
#     Node 8, Type 0, BuildingBlock: XOMCOT_clean_sbu_0, # of connection points: 5
#     Node 9, Type 0, BuildingBlock: XOMCOT_clean_sbu_0, # of connection points: 5
#     Node 10, Type 0, BuildingBlock: XOMCOT_clean_sbu_0, # of connection points: 5
#     Node 11, Type 0, BuildingBlock: XOMCOT_clean_sbu_0, # of connection points: 5
#     Node 12, Type 0, BuildingBlock: XOMCOT_clean_sbu_0, # of connection points: 5
#     Node 13, Type 0, BuildingBlock: XOMCOT_clean_sbu_0, # of connection points: 5
#     Node 14, Type 0, BuildingBlock: XOMCOT_clean_sbu_0, # of connection points: 5
#     Node 15, Type 0, BuildingBlock: XOMCOT_clean_sbu_0, # of connection points: 5
#     Edge 16, Type (0, 0), BuildingBlock: CIFDUS_clean_linker_0, # of connection points: 2
#     Edge 17, Type (0, 0), BuildingBlock: CIFDUS_clean_linker_0, # of connection points: 2
#     Edge 18, Type (0, 0), BuildingBlock: CIFDUS_clean_linker_0, # of connection points: 2
#     Edge 19, Type (0, 0), BuildingBlock: CIFDUS_clean_linker_0, # of connection points: 2
#     Edge 20, Type (0, 0), BuildingBlock: CIFDUS_clean_linker_0, # of connection points: 2
#     Edge 21, Type (0, 0), BuildingBlock: CIFDUS_clean_linker_0, # of connection points: 2
#     Edge 22, Type (0, 0), BuildingBlock: CIFDUS_clean_linker_0, # of connection points: 2
#     Edge 23, Type (0, 0), BuildingBlock: CIFDUS_clean_linker_0, # of connection points: 2
#     Edge 24, Type (0, 0), BuildingBlock: CIFDUS_clean_linker_0, # of connection points: 2
#     Edge 25, Type (0, 0), BuildingBlock: CIFDUS_clean_linker_0, # of connection points: 2
#     Edge 26, Type (0, 0), BuildingBlock: CIFDUS_clean_linker_0, # of connection points: 2
#     Edge 27, Type (0, 0), BuildingBlock: CIFDUS_clean_linker_0, # of connection points: 2
#     Edge 28, Type (0, 0), BuildingBlock: CIFDUS_clean_linker_0, # of connection points: 2
#     Edge 29, Type (0, 0), BuildingBlock: CIFDUS_clean_linker_0, # of connection points: 2
#     Edge 30, Type (0, 0), BuildingBlock: CIFDUS_clean_linker_0, # of connection points: 2
#     Edge 31, Type (0, 0), BuildingBlock: CIFDUS_clean_linker_0, # of connection points: 2
#     Edge 32, Type (0, 0), BuildingBlock: CIFDUS_clean_linker_0, # of connection points: 2
#     Edge 33, Type (0, 0), BuildingBlock: CIFDUS_clean_linker_0, # of connection points: 2
#     Edge 34, Type (0, 0), BuildingBlock: CIFDUS_clean_linker_0, # of connection points: 2
#     Edge 35, Type (0, 0), BuildingBlock: CIFDUS_clean_linker_0, # of connection points: 2
#     Edge 36, Type (0, 0), BuildingBlock: CIFDUS_clean_linker_0, # of connection points: 2
#     Edge 37, Type (0, 0), BuildingBlock: CIFDUS_clean_linker_0, # of connection points: 2
#     Edge 38, Type (0, 0), BuildingBlock: CIFDUS_clean_linker_0, # of connection points: 2
#     Edge 39, Type (0, 0), BuildingBlock: CIFDUS_clean_linker_0, # of connection points: 2
#     Edge 40, Type (0, 0), BuildingBlock: CIFDUS_clean_linker_0, # of connection points: 2
#     Edge 41, Type (0, 0), BuildingBlock: CIFDUS_clean_linker_0, # of connection points: 2
#     Edge 42, Type (0, 0), BuildingBlock: CIFDUS_clean_linker_0, # of connection points: 2
#     Edge 43, Type (0, 0), BuildingBlock: CIFDUS_clean_linker_0, # of connection points: 2
#     Edge 44, Type (0, 0), BuildingBlock: CIFDUS_clean_linker_0, # of connection points: 2
#     Edge 45, Type (0, 0), BuildingBlock: CIFDUS_clean_linker_0, # of connection points: 2
#     Edge 46, Type (0, 0), BuildingBlock: CIFDUS_clean_linker_0, # of connection points: 2
#     Edge 47, Type (0, 0), BuildingBlock: CIFDUS_clean_linker_0, # of connection points: 2
#     Edge 48, Type (0, 0), BuildingBlock: CIFDUS_clean_linker_0, # of connection points: 2
#     Edge 49, Type (0, 0), BuildingBlock: CIFDUS_clean_linker_0, # of connection points: 2
#     Edge 50, Type (0, 0), BuildingBlock: CIFDUS_clean_linker_0, # of connection points: 2
#     Edge 51, Type (0, 0), BuildingBlock: CIFDUS_clean_linker_0, # of connection points: 2
#     Edge 52, Type (0, 0), BuildingBlock: CIFDUS_clean_linker_0, # of connection points: 2
#     Edge 53, Type (0, 0), BuildingBlock: CIFDUS_clean_linker_0, # of connection points: 2
#     Edge 54, Type (0, 0), BuildingBlock: CIFDUS_clean_linker_0, # of connection points: 2
#     Edge 55, Type (0, 0), BuildingBlock: CIFDUS_clean_linker_0, # of connection points: 2
# Relax obj value: 0.188
# Max RMSD: 0.187
# Mean RMSD: 0.187
data_MOF--net-zfo--node1-XOMCOT_clean_sbu_0--edge1-CIFDUS_clean_linker_0
_symmetry_space_group_name_H-M    P1
_symmetry_Int_Tables_number       1
_symmetry_cell_setting            triclinic
loop_
_symmetry_equiv_pos_as_xyz
'x, y, z'
_cell_length_a     30.36997
_cell_length_b     30.388898
_cell_length_c     51.613756
_cell_angle_alpha  90.018289
_cell_angle_beta   89.892913
_cell_angle_gamma 89.877525
loop_
_atom_site_label
_atom_site_type_symbol
_atom_site_fract_x
_atom_site_fract_y
_atom_site_fract_z
_atom_type_partial_charge
Co0 Co 0.10516 0.21174 0.15863 0.0
C1 C 0.20211 0.20172 0.16486 0.0
C2 C 0.1695 0.13968 0.16894 0.0
C3 C 0.214 0.13338 0.17225 0.0
N4 N 0.1618 0.18263 0.16423 0.0
N5 N 0.2347 0.1724 0.16957 0.0
H6 H 0.20767 0.23633 0.16149 0.0
H7 H 0.14499 0.11413 0.16988 0.0
C8 C 0.05905 0.1299 0.17676 0.0
O9 O 0.05917 0.14562 0.20046 0.0
N10 N 0.04978 0.24201 0.15285 0.0
C11 C 0.0461 0.27779 0.13761 0.0
C12 C 1.00405 0.29396 0.13939 0.0
C13 C 0.00955 0.23669 0.16378 0.0
N14 N 0.98103 0.26838 0.15586 0.0
C15 C 0.14815 0.22864 0.11018 0.0
C16 C 0.08624 0.1874 0.07944 0.0
C17 C 0.12166 0.20904 0.06753 0.0
C18 C 0.15314 0.22944 0.08328 0.0
C19 C 0.0825 0.18737 0.10637 0.0
N20 N 0.11332 0.20768 0.12141 0.0
H21 H 0.17159 0.24621 0.12191 0.0
H22 H 0.05381 0.17234 0.11498 0.0
H23 H 0.07263 0.29172 0.12628 0.0
H24 H 1.00167 0.2113 0.17771 0.0
O25 O 0.13227 0.26795 0.1644 0.0
O26 O 0.10305 0.22667 0.19527 0.0
O27 O 0.07489 0.15274 0.15823 0.0
C28 C 0.124 0.2625 0.18885 0.0
H29 H 0.22964 0.10216 0.17638 0.0
H30 H 0.99126 0.32246 0.12928 0.0
H31 H 0.06122 0.17109 0.06803 0.0
H32 H 0.18052 0.24727 0.07489 0.0
Co33 Co 0.79867 0.09236 0.66185 0.0
C34 C 0.81405 0.18545 0.67768 0.0
C35 C 0.87154 0.15639 0.66059 0.0
C36 C 0.88021 0.19994 0.66583 0.0
N37 N 0.83009 0.1471 0.66818 0.0
N38 N 0.84391 0.21821 0.67647 0.0
H39 H 0.78082 0.19005 0.68459 0.0
H40 H 0.89332 0.13377 0.65067 0.0
C41 C 0.88331 0.05664 0.68266 0.0
O42 O 0.8732 0.07359 0.70531 0.0
N43 N 0.76709 0.03839 0.65532 0.0
C44 C 0.73549 0.03332 0.6373 0.0
C45 C 0.71866 0.99155 0.63927 0.0
C46 C 0.76867 0.99989 0.66835 0.0
N47 N 0.73942 0.97051 0.65877 0.0
C48 C 0.79513 0.1381 0.61355 0.0
C49 C 0.82999 0.07087 0.58364 0.0
C50 C 0.81669 0.10998 0.57155 0.0
C51 C 0.79958 0.1441 0.58685 0.0
C52 C 0.82567 0.06649 0.61044 0.0
N53 N 0.80812 0.09976 0.62498 0.0
H54 H 0.78074 0.16409 0.62511 0.0
H55 H 0.83521 0.03581 0.61943 0.0
H56 H 0.72492 0.05861 0.62394 0.0
H57 H 0.79053 0.99368 0.68449 0.0
O58 O 0.74306 0.12223 0.66482 0.0
O59 O 0.77835 0.09146 0.69769 0.0
O60 O 0.85589 0.05903 0.66401 0.0
C61 C 0.74397 0.11314 0.6894 0.0
H62 H 0.91008 0.21733 0.6608 0.0
H63 H 0.69221 0.97814 0.62769 0.0
H64 H 0.84339 0.04381 0.57243 0.0
H65 H 0.78848 0.17459 0.57815 0.0
Co66 Co 0.92155 0.80054 0.18339 0.0
C67 C 0.8268 0.81938 0.18114 0.0
C68 C 0.86123 0.86866 0.20294 0.0
C69 C 0.81669 0.87677 0.20474 0.0
N70 N 0.8674 0.83279 0.18808 0.0
N71 N 0.79507 0.84555 0.19118 0.0
H72 H 0.82072 0.79024 0.16965 0.0
H73 H 0.88705 0.88632 0.21289 0.0
C74 C 0.98302 0.8768 0.17061 0.0
O75 O 0.99778 0.85636 0.14989 0.0
N76 N 0.97593 0.76654 0.17944 0.0
C77 C 0.97762 0.72296 0.17427 0.0
C78 C 0.02006 0.70842 0.17613 0.0
C79 C 0.01802 0.77734 0.18547 0.0
N80 N 0.04562 0.74237 0.18332 0.0
C81 C 0.91367 0.76716 0.13138 0.0
C82 C 0.90624 0.84757 0.10679 0.0
C83 C 0.91084 0.80938 0.09183 0.0
C84 C 0.91326 0.76875 0.10438 0.0
C85 C 0.90737 0.84446 0.13391 0.0
N86 N 0.91417 0.80478 0.14582 0.0
H87 H 0.91355 0.73548 0.14052 0.0
H88 H 0.90404 0.87413 0.14529 0.0
H89 H 0.94975 0.70187 0.17074 0.0
H90 H 0.02805 0.80921 0.19258 0.0
O91 O 0.88928 0.74657 0.18989 0.0
O92 O 0.92183 0.78716 0.21991 0.0
O93 O 0.95479 0.85827 0.1854 0.0
C94 C 0.89825 0.75276 0.21428 0.0
H95 H 0.80141 0.90237 0.21627 0.0
H96 H 0.03106 0.67498 0.17283 0.0
H97 H 0.90323 0.8795 0.09764 0.0
H98 H 0.91522 0.73845 0.09336 0.0
Co99 Co 0.21626 0.92539 0.68049 0.0
C100 C 0.20197 0.83022 0.67665 0.0
C101 C 0.158 0.85953 0.70435 0.0
C102 C 0.1548 0.81433 0.70623 0.0
N103 N 0.18769 0.86933 0.68584 0.0
N104 N 0.18272 0.79601 0.68891 0.0
H105 H 0.22861 0.82694 0.66281 0.0
H106 H 0.14213 0.88339 0.71682 0.0
C107 C 0.13732 0.98455 0.67265 0.0
O108 O 0.15568 0.99983 0.65142 0.0
N109 N 0.24688 0.98167 0.67582 0.0
C110 C 0.28918 0.98579 0.66799 0.0
C111 C 0.30222 0.02868 0.67042 0.0
C112 C 0.23542 0.02281 0.68378 0.0
N113 N 0.26859 0.05208 0.68037 0.0
C114 C 0.24043 0.91896 0.62654 0.0
C115 C 0.15656 0.90569 0.60743 0.0
C116 C 0.19189 0.90772 0.58995 0.0
C117 C 0.23434 0.91364 0.59989 0.0
C118 C 0.16427 0.9104 0.63405 0.0
N119 N 0.20553 0.91942 0.64325 0.0
H120 H 0.27351 0.92153 0.63364 0.0
H121 H 0.13691 0.90679 0.64728 0.0
H122 H 0.31063 0.9592 0.66219 0.0
H123 H 0.20457 0.03096 0.69309 0.0
O124 O 0.2723 0.89521 0.68247 0.0
O125 O 0.23669 0.92347 0.71606 0.0
O126 O 0.15763 0.95621 0.68658 0.0
C127 C 0.27036 0.9012 0.7074 0.0
H128 H 0.13489 0.7964 0.72005 0.0
H129 H 0.33441 0.04157 0.66559 0.0
H130 H 0.12338 0.89974 0.60064 0.0
H131 H 0.26271 0.91453 0.58716 0.0
Co132 Co 0.58782 0.29174 0.82546 0.0
C133 C 0.68369 0.29988 0.8181 0.0
C134 C 0.64914 0.34743 0.79542 0.0
C135 C 0.69285 0.34775 0.78804 0.0
N136 N 0.64348 0.31819 0.8149 0.0
N137 N 0.71412 0.31724 0.80216 0.0
H138 H 0.69023 0.2715 0.82998 0.0
H139 H 0.62281 0.36476 0.78568 0.0
C140 C 0.56902 0.38809 0.82715 0.0
O141 O 0.60775 0.39214 0.8382 0.0
N142 N 0.53324 0.26357 0.83484 0.0
C143 C 0.52837 0.23443 0.85427 0.0
C144 C 0.48633 0.21801 0.85354 0.0
C145 C 0.49434 0.26409 0.82224 0.0
N146 N 0.46488 0.23656 0.83341 0.0
C147 C 0.6321 0.28828 0.87491 0.0
C148 C 0.56981 0.33598 0.90211 0.0
C149 C 0.60655 0.31956 0.9154 0.0
C150 C 0.6379 0.29536 0.90141 0.0
C151 C 0.56537 0.32822 0.87558 0.0
N152 N 0.59707 0.3059 0.862 0.0
H153 H 0.65482 0.26676 0.86525 0.0
H154 H 0.53544 0.33886 0.86619 0.0
H155 H 0.55408 0.22483 0.8676 0.0
H156 H 0.48803 0.2837 0.80513 0.0
O157 O 0.61573 0.23472 0.82463 0.0
O158 O 0.58423 0.26678 0.79087 0.0
O159 O 0.5555 0.34992 0.82005 0.0
C160 C 0.60695 0.23375 0.80002 0.0
H161 H 0.70712 0.36638 0.77225 0.0
H162 H 0.47313 0.19307 0.86632 0.0
H163 H 0.54378 0.35328 0.91228 0.0
H164 H 0.66643 0.2813 0.91089 0.0
Co165 Co 0.70802 0.59351 0.34369 0.0
C166 C 0.70215 0.68835 0.3307 0.0
C167 C 0.63797 0.66153 0.33756 0.0
C168 C 0.63365 0.7055 0.33146 0.0
N169 N 0.68103 0.65056 0.33683 0.0
N170 N 0.67411 0.72222 0.3272 0.0
H171 H 0.73743 0.69138 0.32876 0.0
H172 H 0.61129 0.63968 0.34255 0.0
C173 C 0.62273 0.5517 0.32846 0.0
O174 O 0.63646 0.5519 0.30433 0.0
N175 N 0.73626 0.53769 0.35083 0.0
C176 C 0.76789 0.53214 0.36883 0.0
C177 C 0.7835 0.48991 0.36741 0.0
C178 C 0.73381 0.49882 0.33814 0.0
N179 N 0.76225 0.4689 0.34816 0.0
C180 C 0.72919 0.64135 0.39 0.0
C181 C 0.68868 0.58369 0.42393 0.0
C182 C 0.71282 0.619 0.43406 0.0
C183 C 0.73255 0.64858 0.41672 0.0
C184 C 0.6861 0.57767 0.39721 0.0
N185 N 0.7066 0.60602 0.3806 0.0
H186 H 0.74596 0.66333 0.37686 0.0
H187 H 0.6693 0.5489 0.39 0.0
H188 H 0.77991 0.55757 0.38163 0.0
H189 H 0.7124 0.49284 0.32178 0.0
O190 O 0.7652 0.61713 0.33515 0.0
O191 O 0.7197 0.58664 0.30696 0.0
O192 O 0.64784 0.56588 0.34643 0.0
C193 C 0.75686 0.60665 0.31123 0.0
H194 H 0.60314 0.72395 0.33084 0.0
H195 H 0.80988 0.47621 0.37898 0.0
H196 H 0.67248 0.56031 0.43657 0.0
H197 H 0.7518 0.67607 0.42371 0.0
Co198 Co 0.42084 0.71372 0.84457 0.0
C199 C 0.32429 0.69705 0.8439 0.0
C200 C 0.35922 0.64979 0.82104 0.0
C201 C 0.31474 0.64276 0.81794 0.0
N202 N 0.3655 0.6828 0.83819 0.0
N203 N 0.29292 0.6728 0.83222 0.0
H204 H 0.31694 0.72633 0.85488 0.0
H205 H 0.38501 0.63351 0.81019 0.0
C206 C 0.44704 0.61878 0.84683 0.0
O207 O 0.41266 0.61259 0.86187 0.0
N208 N 0.47493 0.746 0.85003 0.0
C209 C 0.47849 0.78218 0.86495 0.0
C210 C 0.52088 0.79764 0.86339 0.0
C211 C 0.51538 0.73963 0.83965 0.0
N212 N 0.54407 0.771 0.8475 0.0
C213 C 0.38458 0.71878 0.89644 0.0
C214 C 0.45624 0.68165 0.92113 0.0
C215 C 0.42105 0.69721 0.93616 0.0
C216 C 0.38466 0.71549 0.92348 0.0
C217 C 0.45444 0.68476 0.89411 0.0
N218 N 0.41857 0.70252 0.88192 0.0
H219 H 0.35832 0.73687 0.88752 0.0
H220 H 0.48296 0.67464 0.88308 0.0
H221 H 0.45193 0.7964 0.87618 0.0
H222 H 0.52345 0.71324 0.82638 0.0
O223 O 0.38893 0.76882 0.84343 0.0
O224 O 0.41802 0.73538 0.80929 0.0
O225 O 0.45585 0.65744 0.83832 0.0
C226 C 0.3951 0.7682 0.81848 0.0
H227 H 0.29962 0.61917 0.80502 0.0
H228 H 0.53386 0.82602 0.87347 0.0
H229 H 0.4854 0.66812 0.93022 0.0
H230 H 0.35758 0.72947 0.93445 0.0
Co231 Co 0.29216 0.4158 0.33278 0.0
C232 C 0.31038 0.32124 0.33869 0.0
C233 C 0.36111 0.35286 0.31648 0.0
C234 C 0.36894 0.30813 0.31659 0.0
N235 N 0.32447 0.36097 0.33044 0.0
N236 N 0.33672 0.28834 0.33033 0.0
H237 H 0.28066 0.31642 0.34992 0.0
H238 H 0.37964 0.37734 0.30591 0.0
C239 C 0.36987 0.47694 0.3415 0.0
O240 O 0.35145 0.49226 0.36273 0.0
N241 N 0.25776 0.47063 0.33432 0.0
C242 C 0.21365 0.47228 0.33786 0.0
C243 C 0.19931 0.51475 0.33603 0.0
C244 C 0.26919 0.51306 0.32941 0.0
N245 N 0.234 0.54063 0.33062 0.0
C246 C 0.26315 0.421 0.38573 0.0
C247 C 0.34398 0.40485 0.4084 0.0
C248 C 0.3078 0.415 0.42416 0.0
C249 C 0.2669 0.42235 0.4126 0.0
C250 C 0.33892 0.40467 0.38143 0.0
N251 N 0.29923 0.41478 0.37035 0.0
H252 H 0.23096 0.42458 0.37747 0.0
H253 H 0.36722 0.39743 0.36942 0.0
H254 H 0.19244 0.44445 0.34143 0.0
H255 H 0.30187 0.52364 0.32408 0.0
O256 O 0.23839 0.38217 0.33027 0.0
O257 O 0.27557 0.40924 0.29687 0.0
O258 O 0.34951 0.44896 0.3274 0.0
C259 C 0.24234 0.38619 0.30528 0.0
H260 H 0.39505 0.2913 0.30624 0.0
H261 H 0.16569 0.52571 0.33874 0.0
H262 H 0.37599 0.39831 0.41681 0.0
H263 H 0.23794 0.42884 0.4243 0.0
Co264 Co 0.92091 0.79949 0.84568 0.0
C265 C 0.8243 0.81513 0.84226 0.0
C266 C 0.86044 0.86313 0.8207 0.0
C267 C 0.8161 0.87004 0.8166 0.0
N268 N 0.86572 0.82963 0.83762 0.0
N269 N 0.79353 0.83954 0.83006 0.0
H270 H 0.81644 0.78594 0.85311 0.0
H271 H 0.88698 0.88018 0.811 0.0
C272 C 0.94289 0.89489 0.85247 0.0
O273 O 0.90531 0.90026 0.86474 0.0
N274 N 0.97482 0.76804 0.85292 0.0
C275 C 0.9775 0.73124 0.86735 0.0
C276 C 0.02003 0.71582 0.86652 0.0
C277 C 0.01579 0.77474 0.84349 0.0
N278 N 0.04406 0.74305 0.8515 0.0
C279 C 0.87743 0.78302 0.89486 0.0
C280 C 0.93683 0.82919 0.92483 0.0
C281 C 0.90057 0.80965 0.93701 0.0
C282 C 0.87081 0.78596 0.92168 0.0
C283 C 0.94193 0.82577 0.89801 0.0
N284 N 0.9113 0.80476 0.88308 0.0
H285 H 0.85636 0.76164 0.88388 0.0
H286 H 0.97139 0.83921 0.88942 0.0
H287 H 0.95013 0.71626 0.87745 0.0
H288 H 0.0244 0.80132 0.83049 0.0
O289 O 0.89185 0.74398 0.83869 0.0
O290 O 0.92653 0.78507 0.80961 0.0
O291 O 0.95455 0.85679 0.84443 0.0
C292 C 0.90358 0.75006 0.81462 0.0
H293 H 0.80167 0.8942 0.80373 0.0
H294 H 0.03239 0.68679 0.87627 0.0
H295 H 0.96129 0.84691 0.93593 0.0
H296 H 0.84351 0.76851 0.93043 0.0
Co297 Co 0.20783 0.91765 0.34582 0.0
C298 C 0.19262 0.82262 0.33985 0.0
C299 C 0.14329 0.86078 0.32025 0.0
C300 C 0.13727 0.81705 0.31426 0.0
N301 N 0.17788 0.86414 0.33632 0.0
N302 N 0.16846 0.79297 0.32648 0.0
H303 H 0.22138 0.81469 0.35127 0.0
H304 H 0.12527 0.88834 0.31226 0.0
C305 C 0.13494 0.97805 0.3634 0.0
O306 O 0.16033 0.99094 0.38253 0.0
N307 N 0.2393 0.97152 0.35465 0.0
C308 C 0.278 0.97426 0.36737 0.0
C309 C 0.29307 0.01665 0.3664 0.0
C310 C 0.2322 0.0127 0.34539 0.0
N311 N 0.26452 0.04091 0.3525 0.0
C312 C 0.24144 0.88705 0.39487 0.0
C313 C 0.16272 0.88837 0.42162 0.0
C314 C 0.20177 0.88138 0.43558 0.0
C315 C 0.24134 0.87912 0.42153 0.0
C316 C 0.16452 0.89631 0.39489 0.0
N317 N 0.20404 0.89975 0.38229 0.0
H318 H 0.2719 0.88304 0.38442 0.0
H319 H 0.13395 0.89986 0.3845 0.0
H320 H 0.29626 0.9473 0.37548 0.0
H321 H 0.20507 0.02134 0.3328 0.0
O322 O 0.2632 0.8901 0.33649 0.0
O323 O 0.22082 0.92784 0.3096 0.0
O324 O 0.14897 0.94939 0.34721 0.0
C325 C 0.2561 0.90421 0.31306 0.0
H326 H 0.11305 0.80444 0.30085 0.0
H327 H 0.32344 0.02844 0.37483 0.0
H328 H 0.13099 0.88764 0.43121 0.0
H329 H 0.27237 0.87235 0.43102 0.0
Co330 Co 0.08515 0.21845 0.82217 0.0
C331 C 0.17971 0.19458 0.8284 0.0
C332 C 0.15117 0.16421 0.79505 0.0
C333 C 0.19612 0.15726 0.79437 0.0
N334 N 0.14081 0.18785 0.81642 0.0
N335 N 0.21369 0.17632 0.81548 0.0
H336 H 0.1844 0.21493 0.84515 0.0
H337 H 0.12796 0.15494 0.78016 0.0
C338 C 0.06616 0.12344 0.83029 0.0
O339 O 0.10535 0.12053 0.84087 0.0
N340 N 0.03115 0.25084 0.82713 0.0
C341 C 0.02811 0.28748 0.84177 0.0
C342 C 0.98842 0.3074 0.83714 0.0
C343 C 0.99312 0.24887 0.81367 0.0
N344 N 0.96662 0.28336 0.81943 0.0
C345 C 0.12026 0.24376 0.87219 0.0
C346 C 0.06093 0.19567 0.9012 0.0
C347 C 0.09236 0.22108 0.91405 0.0
C348 C 0.12236 0.24546 0.89927 0.0
C349 C 0.0603 0.19462 0.87427 0.0
N350 N 0.09111 0.21664 0.85991 0.0
H351 H 0.14106 0.26559 0.86114 0.0
H352 H 0.03325 0.17777 0.86521 0.0
H353 H 0.05399 0.30022 0.85398 0.0
H354 H 0.98607 0.22434 0.79904 0.0
O355 O 0.11468 0.27336 0.81468 0.0
O356 O 0.08253 0.23039 0.7856 0.0
O357 O 0.05208 0.16057 0.8219 0.0
C358 C 0.10463 0.26599 0.79053 0.0
H359 H 0.21457 0.14091 0.77919 0.0
H360 H 0.97674 0.33778 0.84574 0.0
H361 H 0.03633 0.17733 0.91189 0.0
H362 H 0.14593 0.26702 0.90853 0.0
Co363 Co 0.80566 0.09413 0.32522 0.0
C364 C 0.82214 0.1862 0.33667 0.0
C365 C 0.86356 0.16461 0.30544 0.0
C366 C 0.86578 0.21003 0.30707 0.0
N367 N 0.83604 0.1499 0.32404 0.0
N368 N 0.83974 0.22317 0.3268 0.0
H369 H 0.79647 0.18594 0.35126 0.0
H370 H 0.878 0.14427 0.29046 0.0
C371 C 0.87981 0.03447 0.3422 0.0
O372 O 0.85498 0.01989 0.36121 0.0
N373 N 0.77233 0.03888 0.32562 0.0
C374 C 0.72783 0.03715 0.32647 0.0
C375 C 0.71416 0.99469 0.32392 0.0
C376 C 0.78487 0.99645 0.32163 0.0
N377 N 0.74977 0.96892 0.3208 0.0
C378 C 0.76521 0.0929 0.37602 0.0
C379 C 0.84144 0.10882 0.40366 0.0
C380 C 0.8026 0.09922 0.41716 0.0
C381 C 0.76394 0.09229 0.40303 0.0
C382 C 0.84135 0.10852 0.37657 0.0
N383 N 0.80403 0.0982 0.36304 0.0
H384 H 0.73479 0.08926 0.3657 0.0
H385 H 0.87176 0.11535 0.36644 0.0
H386 H 0.70587 0.06494 0.3284 0.0
H387 H 0.81841 0.98586 0.31845 0.0
O388 O 0.75232 0.12612 0.31683 0.0
O389 O 0.79812 0.09654 0.28816 0.0
O390 O 0.8645 0.0622 0.32585 0.0
C391 C 0.76252 0.11923 0.29263 0.0
H392 H 0.88347 0.23176 0.29413 0.0
H393 H 0.68033 0.98358 0.3246 0.0
H394 H 0.87189 0.11508 0.41389 0.0
H395 H 0.73288 0.08655 0.41282 0.0
Co396 Co 0.42163 0.72114 0.18088 0.0
C397 C 0.32721 0.70212 0.18361 0.0
C398 C 0.3646 0.65551 0.20584 0.0
C399 C 0.32042 0.64823 0.21022 0.0
N400 N 0.36865 0.68921 0.18911 0.0
N401 N 0.29697 0.67785 0.19639 0.0
H402 H 0.3196 0.7298 0.17121 0.0
H403 H 0.39176 0.63906 0.21533 0.0
C404 C 0.48259 0.64544 0.16708 0.0
O405 O 0.49341 0.66477 0.14521 0.0
N406 N 0.47484 0.7549 0.17346 0.0
C407 C 0.47556 0.79769 0.16639 0.0
C408 C 0.51793 0.81272 0.16666 0.0
C409 C 0.51738 0.74526 0.17912 0.0
N410 N 0.54438 0.78 0.17485 0.0
C411 C 0.40775 0.7484 0.12769 0.0
C412 C 0.39471 0.66508 0.10771 0.0
C413 C 0.39798 0.70073 0.09061 0.0
C414 C 0.40347 0.74292 0.10095 0.0
C415 C 0.4001 0.672 0.13437 0.0
N416 N 0.40925 0.71299 0.14394 0.0
H417 H 0.40943 0.78126 0.13516 0.0
H418 H 0.39803 0.64407 0.14727 0.0
H419 H 0.44712 0.81817 0.16292 0.0
H420 H 0.5281 0.7146 0.18767 0.0
O421 O 0.38956 0.77548 0.18751 0.0
O422 O 0.4268 0.73733 0.2168 0.0
O423 O 0.456 0.66411 0.18287 0.0
C424 C 0.40164 0.77084 0.2116 0.0
H425 H 0.30682 0.62451 0.22365 0.0
H426 H 0.52816 0.84582 0.16186 0.0
H427 H 0.38935 0.63206 0.10049 0.0
H428 H 0.40409 0.77153 0.08844 0.0
Co429 Co 0.29772 0.42877 0.66767 0.0
C430 C 0.30979 0.33255 0.67742 0.0
C431 C 0.35303 0.37172 0.70053 0.0
C432 C 0.35726 0.32843 0.70804 0.0
N433 N 0.32427 0.37439 0.68067 0.0
N434 N 0.32983 0.30382 0.69357 0.0
H435 H 0.28343 0.32324 0.66467 0.0
H436 H 0.36824 0.39964 0.7099 0.0
C437 C 0.39423 0.44706 0.66582 0.0
O438 O 0.39959 0.40739 0.65616 0.0
N439 N 0.26967 0.4822 0.65561 0.0
C440 C 0.24175 0.48477 0.63539 0.0
C441 C 0.22865 0.52775 0.63241 0.0
C442 C 0.27237 0.52355 0.66515 0.0
N443 N 0.24773 0.55201 0.65111 0.0
C444 C 0.29034 0.37913 0.6199 0.0
C445 C 0.34006 0.43629 0.59029 0.0
C446 C 0.32037 0.40016 0.57821 0.0
C447 C 0.29555 0.37107 0.59336 0.0
C448 C 0.33435 0.44288 0.61679 0.0
N449 N 0.31072 0.4139 0.63157 0.0
H450 H 0.26746 0.35908 0.6305 0.0
H451 H 0.34698 0.47293 0.62503 0.0
H452 H 0.23161 0.45721 0.62358 0.0
H453 H 0.29212 0.53267 0.68173 0.0
O454 O 0.24055 0.40182 0.6714 0.0
O455 O 0.27552 0.43933 0.70199 0.0
O456 O 0.35557 0.46117 0.67131 0.0
C457 C 0.24161 0.41592 0.69525 0.0
H458 H 0.37736 0.31635 0.72382 0.0
H459 H 0.20621 0.54022 0.61786 0.0
H460 H 0.35868 0.46012 0.57918 0.0
H461 H 0.27822 0.34381 0.58454 0.0
Co462 Co 0.60554 0.31016 0.16066 0.0
C463 C 0.70105 0.32312 0.17147 0.0
C464 C 0.67132 0.38119 0.15568 0.0
C465 C 0.71607 0.38773 0.15745 0.0
N466 N 0.66164 0.34069 0.16461 0.0
N467 N 0.73491 0.35105 0.16724 0.0
H468 H 0.70536 0.28984 0.17828 0.0
H469 H 0.64811 0.40347 0.14674 0.0
C470 C 0.56843 0.39621 0.1767 0.0
O471 O 0.58159 0.3866 0.20025 0.0
N472 N 0.55091 0.27844 0.15593 0.0
C473 C 0.54809 0.24204 0.14118 0.0
C474 C 0.50618 0.22583 0.14264 0.0
C475 C 0.51034 0.28396 0.1664 0.0
N476 N 0.48233 0.25179 0.1586 0.0
C477 C 0.65018 0.2914 0.11291 0.0
C478 C 0.58624 0.32707 0.08099 0.0
C479 C 0.62345 0.30748 0.06971 0.0
C480 C 0.65578 0.28955 0.08603 0.0
C481 C 0.58189 0.32813 0.10786 0.0
N482 N 0.61367 0.31059 0.12343 0.0
H483 H 0.6749 0.27697 0.12533 0.0
H484 H 0.55216 0.34186 0.11609 0.0
H485 H 0.57501 0.22802 0.13017 0.0
H486 H 0.50187 0.3101 0.17976 0.0
O487 O 0.63368 0.25489 0.1691 0.0
O488 O 0.60266 0.2999 0.19758 0.0
O489 O 0.57397 0.3684 0.15845 0.0
C490 C 0.62394 0.26347 0.19316 0.0
H491 H 0.73352 0.41631 0.15036 0.0
H492 H 0.49411 0.19715 0.13247 0.0
H493 H 0.55994 0.34029 0.06916 0.0
H494 H 0.68506 0.27417 0.07812 0.0
Co495 Co 0.72037 0.59166 0.6798 0.0
C496 C 0.69688 0.68547 0.67053 0.0
C497 C 0.6656 0.66002 0.70452 0.0
C498 C 0.65912 0.70501 0.70383 0.0
N499 N 0.68958 0.64769 0.68364 0.0
N500 N 0.67877 0.72065 0.68235 0.0
H501 H 0.7176 0.68854 0.65376 0.0
H502 H 0.65585 0.63822 0.72006 0.0
C503 C 0.62507 0.57196 0.67147 0.0
O504 O 0.62136 0.61057 0.66027 0.0
N505 N 0.75291 0.53735 0.67643 0.0
C506 C 0.79327 0.53483 0.66569 0.0
C507 C 0.80804 0.49233 0.66734 0.0
C508 C 0.74333 0.49611 0.6844 0.0
N509 N 0.77686 0.46798 0.67915 0.0
C510 C 0.7504 0.62341 0.62983 0.0
C511 C 0.70123 0.56548 0.60059 0.0
C512 C 0.72849 0.59552 0.58782 0.0
C513 C 0.75345 0.62478 0.60273 0.0
C514 C 0.6988 0.56562 0.62753 0.0
N515 N 0.72141 0.59582 0.64195 0.0
H516 H 0.772 0.64411 0.64108 0.0
H517 H 0.68013 0.53974 0.63654 0.0
H518 H 0.81088 0.5622 0.65724 0.0
H519 H 0.71303 0.48702 0.69407 0.0
O520 O 0.77468 0.62182 0.68852 0.0
O521 O 0.72936 0.59047 0.71665 0.0
O522 O 0.66256 0.55858 0.67964 0.0
C523 C 0.76518 0.61266 0.71257 0.0
H524 H 0.64273 0.72485 0.71838 0.0
H525 H 0.83911 0.48005 0.65994 0.0
H526 H 0.6823 0.54145 0.58985 0.0
H527 H 0.77624 0.64736 0.59359 0.0
H528 H 0.02303 0.0701 0.21059 0.0
H529 H 0.06519 0.08478 0.13112 0.0
H530 H 0.04727 0.0081 0.12253 0.0
H531 H 0.01987 0.93622 0.13735 0.0
H532 H 0.97529 0.92171 0.21628 0.0
H533 H 0.99412 0.99835 0.22522 0.0
C534 C 0.02815 0.05662 0.19136 0.0
C535 C 0.04551 0.08353 0.1716 0.0
C536 C 0.01759 0.01217 0.18642 0.0
C537 C 0.05179 0.0652 0.14678 0.0
C538 C 0.04169 0.02112 0.14181 0.0
C539 C 0.01459 0.9497 0.15657 0.0
C540 C 0.99646 0.92297 0.17613 0.0
C541 C 0.02476 0.99419 0.16149 0.0
C542 C 0.98926 0.94137 0.20083 0.0
C543 C 0.99996 0.98531 0.20597 0.0
H544 H 0.07224 1.00744 0.63939 0.0
H545 H 0.09889 0.9889 0.72064 0.0
H546 H 0.02275 0.00928 0.73123 0.0
H547 H 0.94824 0.03315 0.71718 0.0
H548 H 0.92174 0.04628 0.63537 0.0
H549 H 0.99763 0.02697 0.62532 0.0
C550 C 0.06145 0.00812 0.65944 0.0
C551 C 0.09136 0.99727 0.67922 0.0
C552 C 0.01737 0.01863 0.66529 0.0
C553 C 0.07657 0.99734 0.70506 0.0
C554 C 0.033 0.00896 0.71111 0.0
C555 C 0.95903 0.03152 0.69716 0.0
C556 C 0.92903 0.04128 0.67712 0.0
C557 C 1.00301 0.0197 0.69137 0.0
C558 C 0.94373 0.03873 0.65126 0.0
C559 C 0.98735 0.0279 0.64544 0.0
H560 H 0.42209 0.53347 0.84161 0.0
H561 H 0.53523 0.61851 0.8363 0.0
H562 H 0.58271 0.55465 0.82822 0.0
H563 H 0.59257 0.47417 0.8254 0.0
H564 H 0.47895 0.38942 0.82847 0.0
H565 H 0.43102 0.4536 0.83431 0.0
C566 C 0.45714 0.538 0.83857 0.0
C567 C 0.47525 0.58061 0.83989 0.0
C568 C 0.48406 0.50118 0.83347 0.0
C569 C 0.52054 0.58608 0.83543 0.0
C570 C 0.54768 0.54955 0.83087 0.0
C571 C 0.55724 0.4698 0.82704 0.0
C572 C 0.53938 0.42702 0.82667 0.0
C573 C 0.5299 0.5069 0.83022 0.0
C574 C 0.49352 0.42194 0.82856 0.0
C575 C 0.46614 0.45863 0.83209 0.0
H576 H 0.56046 0.51565 0.29638 0.0
H577 H 0.58056 0.55961 0.37503 0.0
H578 H 0.50435 0.54217 0.38559 0.0
H579 H 0.4316 0.51443 0.37277 0.0
H580 H 0.41162 0.46781 0.29473 0.0
H581 H 0.48768 0.48652 0.28372 0.0
C582 C 0.54824 0.52131 0.31585 0.0
C583 C 0.57654 0.53897 0.33483 0.0
C584 C 0.50412 0.51095 0.32193 0.0
C585 C 0.55988 0.54593 0.35998 0.0
C586 C 0.5161 0.5361 0.36606 0.0
C587 C 0.44373 0.50865 0.35329 0.0
C588 C 0.41566 0.49003 0.33458 0.0
C589 C 0.48785 0.51871 0.34721 0.0
C590 C 0.43234 0.48219 0.30954 0.0
C591 C 0.47594 0.49283 0.30322 0.0
H592 H 0.08986 0.03779 0.83373 0.0
H593 H 0.97604 0.12273 0.83034 0.0
H594 H 0.92772 0.05943 0.83734 0.0
H595 H 0.91817 0.98015 0.84615 0.0
H596 H 0.03203 0.89507 0.84721 0.0
H597 H 0.08008 0.95823 0.83953 0.0
C598 C 0.05445 0.0424 0.83437 0.0
C599 C 0.03656 0.0849 0.8317 0.0
C600 C 0.02696 1.00589 0.83821 0.0
C601 C 0.99061 0.09033 0.83225 0.0
C602 C 0.963 0.05419 0.83642 0.0
C603 C 0.95353 0.97556 0.84477 0.0
C604 C 0.97164 0.93317 0.84757 0.0
C605 C 0.98086 0.0119 0.83977 0.0
C606 C 0.01738 0.92743 0.84521 0.0
C607 C 0.04484 0.9635 0.84083 0.0
H608 H 0.07956 0.984 0.32181 0.0
H609 H 0.08418 1.00036 0.40479 0.0
H610 H 1.00552 0.01704 0.40562 0.0
H611 H 0.93497 0.02648 0.38294 0.0
H612 H 0.9308 0.01725 0.2997 0.0
H613 H 0.00939 0.99821 0.29869 0.0
C614 C 0.06329 0.99141 0.34003 0.0
C615 C 0.08773 0.99087 0.36321 0.0
C616 C 0.01803 1.002 0.34031 0.0
C617 C 0.06629 1.00087 0.38665 0.0
C618 C 0.0212 0.01018 0.38717 0.0
C619 C 0.95129 0.01998 0.36461 0.0
C620 C 0.9271 0.02251 0.34145 0.0
C621 C 0.99669 0.01065 0.36416 0.0
C622 C 0.94877 0.01518 0.31777 0.0
C623 C 0.99367 1.00435 0.31721 0.0
H624 H 0.54176 0.45989 0.21068 0.0
H625 H 0.55798 0.43382 0.129 0.0
H626 H 0.53482 0.50882 0.11887 0.0
H627 H 0.51029 0.58237 0.13312 0.0
H628 H 0.49057 0.60726 0.2146 0.0
H629 H 0.51496 0.53258 0.22484 0.0
C630 C 0.54011 0.47054 0.19065 0.0
C631 C 0.5517 0.4411 0.17068 0.0
C632 C 0.52638 0.51376 0.1849 0.0
C633 C 0.54909 0.45556 0.14482 0.0
C634 C 0.53602 0.4986 0.13898 0.0
C635 C 0.51168 0.57153 0.15312 0.0
C636 C 0.49902 0.60054 0.17307 0.0
C637 C 0.52479 0.5281 0.15885 0.0
C638 C 0.50023 0.58567 0.19887 0.0
C639 C 0.51414 0.54292 0.20475 0.0
H640 H 0.48012 0.42321 0.67024 0.0
H641 H 0.39475 0.5368 0.66754 0.0
H642 H 0.4587 0.58542 0.66941 0.0
H643 H 0.53899 0.59564 0.67028 0.0
H644 H 0.62432 0.48223 0.67498 0.0
H645 H 0.56028 0.43355 0.67399 0.0
C646 C 0.47554 0.45862 0.67012 0.0
C647 C 0.43279 0.47638 0.66854 0.0
C648 C 0.51244 0.48638 0.67153 0.0
C649 C 0.42731 0.52231 0.66878 0.0
C650 C 0.46387 0.55013 0.66975 0.0
C651 C 0.54355 0.56025 0.67114 0.0
C652 C 0.58633 0.54255 0.67247 0.0
C653 C 0.50659 0.53252 0.67088 0.0
C654 C 0.59172 0.49668 0.67397 0.0
C655 C 0.55513 0.46883 0.67331 0.0
H656 H 0.05505 0.2254 0.03403 0.0
H657 H 0.19479 0.20008 0.03673 0.0
H658 H 0.19876 0.20434 0.98943 0.0
H659 H 0.1616 0.21224 0.9471 0.0
H660 H 0.0215 0.23563 0.94507 0.0
H661 H 0.0185 0.23471 0.9923 0.0
C662 C 0.08633 0.22036 0.02428 0.0
C663 C 0.12447 0.21201 0.03887 0.0
C664 C 0.08827 0.22246 0.99719 0.0
C665 C 0.16495 0.20672 0.02595 0.0
C666 C 0.16721 0.20899 0.99891 0.0
C667 C 0.13059 0.21758 0.95709 0.0
C668 C 0.09179 0.22366 0.9427 0.0
C669 C 0.12901 0.21656 0.98431 0.0
C670 C 0.0517 0.23029 0.95578 0.0
C671 C 0.04996 0.22987 0.98275 0.0
H672 H 0.83635 0.15637 0.45262 0.0
H673 H 0.76842 0.03247 0.44563 0.0
H674 H 0.7679 0.02428 0.49271 0.0
H675 H 0.78611 0.05256 0.53589 0.0
H676 H 0.85126 0.17776 0.54341 0.0
H677 H 0.85362 0.18536 0.49615 0.0
C678 C 0.82164 0.12756 0.46148 0.0
C679 C 0.80243 0.09507 0.44576 0.0
C680 C 0.82097 0.12334 0.48861 0.0
C681 C 0.78303 0.05808 0.4574 0.0
C682 C 0.78289 0.05329 0.48428 0.0
C683 C 0.80114 0.08131 0.52712 0.0
C684 C 0.81878 0.1144 0.54299 0.0
C685 C 0.80169 0.08571 0.50007 0.0
C686 C 0.83741 0.15192 0.5315 0.0
C687 C 0.83882 0.15621 0.50453 0.0
H688 H 0.96332 0.79817 0.97389 0.0
H689 H 0.82521 0.82694 0.96438 0.0
H690 H 0.81621 0.83172 0.01147 0.0
H691 H 0.84778 0.82661 0.0557 0.0
H692 H 0.98523 0.79502 0.06463 0.0
H693 H 0.99463 0.79317 0.01753 0.0
C694 C 0.93133 0.80592 0.98211 0.0
C695 C 0.89503 0.81239 0.96563 0.0
C696 C 0.92638 0.80829 0.00915 0.0
C697 C 0.85361 0.82152 0.97664 0.0
C698 C 0.8485 0.82447 1.00356 0.0
C699 C 0.87975 0.81978 0.04718 0.0
C700 C 0.91592 0.81135 0.06338 0.0
C701 C 0.88464 0.81783 0.02004 0.0
C702 C 0.95712 0.80185 0.05236 0.0
C703 C 0.96243 0.80067 0.02549 0.0
H704 H 0.14969 0.9251 0.47052 0.0
H705 H 0.25362 0.82813 0.46601 0.0
H706 H 0.25913 0.8273 0.51308 0.0
H707 H 0.23685 0.85637 0.55565 0.0
H708 H 0.13108 0.95087 0.56046 0.0
H709 H 0.12314 0.94947 0.51328 0.0
C710 C 0.173 0.90311 0.47976 0.0
C711 C 0.20163 0.87723 0.46447 0.0
C712 C 0.17572 0.90234 0.507 0.0
C713 C 0.23187 0.84932 0.47705 0.0
C714 C 0.2349 0.84857 0.50406 0.0
C715 C 0.21199 0.87656 0.54634 0.0
C716 C 0.18484 0.90397 0.56151 0.0
C717 C 0.20753 0.87547 0.51922 0.0
C718 C 0.15228 0.92938 0.54923 0.0
C719 C 0.14788 0.92875 0.52224 0.0
H720 H 0.60441 0.37063 0.03408 0.0
H721 H 0.65045 0.23672 0.04105 0.0
H722 H 0.65117 0.22934 0.99393 0.0
H723 H 0.63421 0.25931 0.95097 0.0
H724 H 0.58789 0.39317 0.94393 0.0
H725 H 0.59076 0.40177 0.99094 0.0
C726 C 0.61457 0.33981 0.02527 0.0
C727 C 0.62717 0.30423 0.04107 0.0
C728 C 0.61438 0.33561 0.99819 0.0
C729 C 0.641 0.26477 0.02936 0.0
C730 C 0.64109 0.2604 1.00241 0.0
C731 C 0.62545 0.29064 0.95964 0.0
C732 C 0.61072 0.3255 0.94389 0.0
C733 C 0.62733 0.29543 0.98666 0.0
C734 C 0.59874 0.36559 0.95559 0.0
C735 C 0.60059 0.37062 0.98246 0.0
H736 H 0.72247 0.66412 0.55385 0.0
H737 H 0.74213 0.52365 0.55764 0.0
H738 H 0.74085 0.51903 0.51047 0.0
H739 H 0.73073 0.55399 0.46836 0.0
H740 H 0.70883 0.69403 0.4637 0.0
H741 H 0.71523 0.69994 0.51089 0.0
C742 C 0.72703 0.63268 0.54425 0.0
C743 C 0.73199 0.59423 0.55916 0.0
C744 C 0.72569 0.63016 0.51701 0.0
C745 C 0.73766 0.5536 0.54656 0.0
C746 C 0.737 0.55093 0.51961 0.0
C747 C 0.72704 0.58581 0.47765 0.0
C748 C 0.71871 0.62341 0.46255 0.0
C749 C 0.73024 0.58883 0.50468 0.0
C750 C 0.71529 0.66456 0.47487 0.0
C751 C 0.71876 0.66792 0.50186 0.0
H752 H 0.45841 0.72666 0.05533 0.0
H753 H 0.33379 0.66023 0.06228 0.0
H754 H 0.32969 0.65289 0.01498 0.0
H755 H 0.36107 0.66736 0.97145 0.0
H756 H 0.48773 0.7303 0.96516 0.0
H757 H 0.49177 0.73688 0.0123 0.0
C758 C 0.43041 0.71056 0.04641 0.0
C759 C 0.39625 0.69435 0.06213 0.0
C760 C 0.42874 0.70582 0.01934 0.0
C761 C 0.36044 0.67293 0.05049 0.0
C762 C 0.35807 0.66886 0.02349 0.0
C763 C 0.38955 0.68233 0.98049 0.0
C764 C 0.42404 0.69838 0.96489 0.0
C765 C 0.39192 0.68546 0.00769 0.0
C766 C 0.46097 0.71739 0.97678 0.0
C767 C 0.46319 0.72136 1.00372 0.0
H768 H 0.30487 0.46338 0.5426 0.0
H769 H 0.33917 0.32624 0.54986 0.0
H770 H 0.34112 0.31901 0.50252 0.0
H771 H 0.33116 0.35184 0.45891 0.0
H772 H 0.29299 0.48806 0.45254 0.0
H773 H 0.29511 0.49589 0.49968 0.0
C774 C 0.3133 0.43203 0.53381 0.0
C775 C 0.32227 0.39548 0.54962 0.0
C776 C 0.31373 0.42809 0.50675 0.0
C777 C 0.33209 0.3548 0.53801 0.0
C778 C 0.33334 0.35072 0.511 0.0
C779 C 0.32382 0.38322 0.46798 0.0
C780 C 0.31222 0.41945 0.45251 0.0
C781 C 0.32403 0.38713 0.49515 0.0
C782 C 0.30207 0.45987 0.46425 0.0
C783 C 0.30321 0.4643 0.49112 0.0
H784 H 0.12121 0.2568 0.24177 0.0
H785 H 0.16872 0.3378 0.17898 0.0
H786 H 0.2076 0.38456 0.20953 0.0
H787 H 0.23282 0.39957 0.25367 0.0
H788 H 0.18558 0.3196 0.31685 0.0
H789 H 0.14186 0.27572 0.2867 0.0
C790 C 0.13954 0.28506 0.23485 0.0
C791 C 0.14224 0.29353 0.20812 0.0
C792 C 0.16222 0.31192 0.25259 0.0
C793 C 0.16617 0.33031 0.19945 0.0
C794 C 0.1886 0.35711 0.2169 0.0
C795 C 0.21262 0.3728 0.26086 0.0
C796 C 0.21261 0.36272 0.28738 0.0
C797 C 0.18761 0.34773 0.24344 0.0
C798 C 0.18605 0.32813 0.29647 0.0
C799 C 0.16116 0.30288 0.27923 0.0
H800 H 0.73837 0.10635 0.74225 0.0
H801 H 0.67332 0.16283 0.67578 0.0
H802 H 0.6223 0.20197 0.70399 0.0
H803 H 0.60011 0.22571 0.74757 0.0
H804 H 0.66474 0.16949 0.8142 0.0
H805 H 0.71117 0.12464 0.78604 0.0
C806 C 0.71263 0.12671 0.73396 0.0
C807 C 0.71003 0.13185 0.70694 0.0
C808 C 0.68322 0.14947 0.75036 0.0
C809 C 0.67634 0.15834 0.69652 0.0
C810 C 0.64707 0.1809 0.71264 0.0
C811 C 0.62374 0.20301 0.75593 0.0
C812 C 0.62895 0.20118 0.78295 0.0
C813 C 0.65076 0.17749 0.7396 0.0
C814 C 0.65986 0.17159 0.79346 0.0
C815 C 0.68672 0.14603 0.77735 0.0
H816 H 0.8282 0.65956 0.31512 0.0
H817 H 0.74686 0.59277 0.25914 0.0
H818 H 0.78577 0.62992 0.22384 0.0
H819 H 0.83869 0.68625 0.20916 0.0
H820 H 0.91753 0.75477 0.26572 0.0
H821 H 0.88383 0.71205 0.30045 0.0
C822 C 0.81943 0.6525 0.29519 0.0
C823 C 0.78462 0.62345 0.28979 0.0
C824 C 0.8412 0.67471 0.27507 0.0
C825 C 0.77357 0.61493 0.26384 0.0
C826 C 0.79566 0.63635 0.24364 0.0
C827 C 0.84886 0.69143 0.22906 0.0
C828 C 0.88045 0.72382 0.23484 0.0
C829 C 0.82887 0.66708 0.24906 0.0
C830 C 0.89317 0.73022 0.26073 0.0
C831 C 0.87391 0.70579 0.28063 0.0
H832 H 0.40388 0.77724 0.76614 0.0
H833 H 0.33615 0.8317 0.83239 0.0
H834 H 0.29372 0.88007 0.8041 0.0
H835 H 0.27195 0.90328 0.76025 0.0
H836 H 0.33947 0.84855 0.694 0.0
H837 H 0.38596 0.80449 0.7225 0.0
C838 C 0.38021 0.80005 0.7744 0.0
C839 C 0.37315 0.80066 0.80135 0.0
C840 C 0.35567 0.82774 0.75798 0.0
C841 C 0.34236 0.83052 0.81173 0.0
C842 C 0.31791 0.85815 0.79554 0.0
C843 C 0.29724 0.88218 0.75207 0.0
C844 C 0.30202 0.87915 0.72501 0.0
C845 C 0.32374 0.85655 0.7686 0.0
C846 C 0.33499 0.85157 0.71475 0.0
C847 C 0.36155 0.82618 0.73104 0.0
H848 H 0.84249 0.68493 0.81732 0.0
H849 H 0.92865 0.75241 0.76402 0.0
H850 H 0.89567 0.71327 0.72767 0.0
H851 H 0.83801 0.66466 0.71062 0.0
H852 H 0.75082 0.59843 0.76392 0.0
H853 H 0.78865 0.63198 0.80052 0.0
C854 C 0.85454 0.69049 0.7978 0.0
C855 C 0.88777 0.72167 0.79338 0.0
C856 C 0.83495 0.66837 0.77689 0.0
C857 C 0.90292 0.72869 0.76795 0.0
C858 C 0.88402 0.70641 0.74711 0.0
C859 C 0.82768 0.65716 0.73026 0.0
C860 C 0.79149 0.62937 0.73451 0.0
C861 C 0.84931 0.67693 0.75128 0.0
C862 C 0.7785 0.6199 0.76007 0.0
C863 C 0.80007 0.63912 0.78106 0.0
H864 H 0.33103 0.8554 0.31498 0.0
H865 H 0.24257 0.91916 0.26145 0.0
H866 H 0.28217 0.88639 0.22494 0.0
H867 H 0.338 0.83428 0.2084 0.0
H868 H 0.4254 0.76995 0.26235 0.0
H869 H 0.39044 0.80852 0.29835 0.0
C870 C 0.32078 0.86267 0.29532 0.0
C871 C 0.28375 0.88951 0.29099 0.0
C872 C 0.34339 0.84334 0.27442 0.0
C873 C 0.27098 0.89861 0.26537 0.0
C874 C 0.29351 0.87973 0.24445 0.0
C875 C 0.34985 0.82928 0.22799 0.0
C876 C 0.38412 0.79906 0.23265 0.0
C877 C 0.3292 0.85126 0.24875 0.0
C878 C 0.39897 0.79286 0.25818 0.0
C879 C 0.37893 0.81484 0.27884 0.0
H880 H 0.14907 0.34311 0.79492 0.0
H881 H 0.09551 0.25284 0.73867 0.0
H882 H 0.12877 0.29509 0.7036 0.0
H883 H 0.17938 0.35292 0.68932 0.0
H884 H 0.23469 0.44207 0.74559 0.0
H885 H 0.19375 0.40556 0.78014 0.0
C886 C 0.14423 0.33304 0.77497 0.0
C887 C 0.12032 0.29468 0.76942 0.0
C888 C 0.16377 0.35726 0.75488 0.0
C889 C 0.11401 0.28216 0.74347 0.0
C890 C 0.13306 0.30626 0.72338 0.0
C891 C 0.1817 0.365 0.70905 0.0
C892 C 0.21023 0.39991 0.71492 0.0
C893 C 0.15887 0.34324 0.7289 0.0
C894 C 0.21305 0.41509 0.74059 0.0
C895 C 0.18984 0.39409 0.76039 0.0
H896 H 0.69447 0.17729 0.29617 0.0
H897 H 0.77272 0.10442 0.24093 0.0
H898 H 0.73412 0.14019 0.20523 0.0
H899 H 0.68156 0.19545 0.18969 0.0
H900 H 0.60512 0.27053 0.24475 0.0
H901 H 0.63926 0.23032 0.2805 0.0
C902 C 0.70273 0.1689 0.27632 0.0
C903 C 0.73649 0.13834 0.27122 0.0
C904 C 0.6808 0.19006 0.25584 0.0
C905 C 0.74695 0.12794 0.24539 0.0
C906 C 0.72491 0.14839 0.22495 0.0
C907 C 0.6719 0.20261 0.20949 0.0
C908 C 0.64087 0.23593 0.21456 0.0
C909 C 0.69225 0.17997 0.22994 0.0
C910 C 0.62896 0.24504 0.24033 0.0
C911 C 0.64856 0.22214 0.26079 0.0
H912 H 0.44076 0.17418 0.16168 0.0
H913 H 0.42052 0.31376 0.17051 0.0
H914 H 0.34116 0.30147 0.17635 0.0
H915 H 0.27718 0.25088 0.17583 0.0
H916 H 0.29978 0.11178 0.16388 0.0
H917 H 0.37839 0.12426 0.16235 0.0
C918 C 0.41907 0.20206 0.16474 0.0
C919 C 0.43655 0.24492 0.16519 0.0
C920 C 0.37373 0.1948 0.16742 0.0
C921 C 0.408 0.28044 0.17008 0.0
C922 C 0.36258 0.2734 0.17321 0.0
C923 C 0.29912 0.22324 0.17276 0.0
C924 C 0.2818 0.18032 0.16988 0.0
C925 C 0.34493 0.2307 0.17135 0.0
C926 C 0.31141 0.14506 0.16646 0.0
C927 C 0.35671 0.15217 0.1654 0.0
H928 H 0.76647 0.26286 0.67579 0.0
H929 H 0.90564 0.27764 0.6902 0.0
H930 H 0.89592 0.35688 0.69515 0.0
H931 H 0.84927 0.42234 0.69153 0.0
H932 H 0.71053 0.40862 0.67645 0.0
H933 H 0.71828 0.32822 0.67662 0.0
C934 C 0.79458 0.28316 0.68052 0.0
C935 C 0.83695 0.26421 0.68222 0.0
C936 C 0.78876 0.32886 0.68324 0.0
C937 C 0.87292 0.29138 0.6882 0.0
C938 C 0.86734 0.33668 0.69117 0.0
C939 C 0.82069 0.40168 0.68845 0.0
C940 C 0.77954 0.42126 0.68355 0.0
C941 C 0.82566 0.35584 0.68805 0.0
C942 C 0.74252 0.39425 0.68026 0.0
C943 C 0.74707 0.34835 0.68013 0.0
H944 H 0.58927 0.85347 0.18688 0.0
H945 H 0.60524 0.71434 0.17318 0.0
H946 H 0.68526 0.722 0.17758 0.0
H947 H 0.75064 0.76922 0.18369 0.0
H948 H 0.73298 0.9089 0.19518 0.0
H949 H 0.65343 0.90003 0.19296 0.0
C950 C 0.6101 0.82477 0.18454 0.0
C951 C 0.59118 0.78346 0.1793 0.0
C952 C 0.65581 0.82961 0.18659 0.0
C953 C 0.61886 0.74648 0.17728 0.0
C954 C 0.66462 0.75094 0.1796 0.0
C955 C 0.72947 0.7978 0.18542 0.0
C956 C 0.74799 0.83979 0.1895 0.0
C957 C 0.6835 0.79251 0.18391 0.0
C958 C 0.7198 0.87622 0.19228 0.0
C959 C 0.67424 0.8712 0.19091 0.0
H960 H 0.22869 0.59391 0.69574 0.0
H961 H 0.25174 0.61406 0.61431 0.0
H962 H 0.23442 0.69238 0.61885 0.0
H963 H 0.20947 0.75447 0.64563 0.0
H964 H 0.18288 0.73419 0.7268 0.0
H965 H 0.20407 0.65682 0.72281 0.0
C966 C 0.23049 0.61578 0.67919 0.0
C967 C 0.24173 0.59858 0.65477 0.0
C968 C 0.21916 0.66057 0.68184 0.0
C969 C 0.24318 0.62683 0.63326 0.0
C970 C 0.23317 0.67148 0.63585 0.0
C971 C 0.20858 0.73315 0.66246 0.0
C972 C 0.19442 0.75011 0.68642 0.0
C973 C 0.22054 0.68862 0.65997 0.0
C974 C 0.19296 0.72189 0.70802 0.0
C975 C 0.20543 0.67767 0.7058 0.0
H976 H 0.89891 0.22834 0.81194 0.0
H977 H 0.93947 0.36329 0.80405 0.0
H978 H 0.8639 0.38548 0.79423 0.0
H979 H 0.7849 0.36782 0.79403 0.0
H980 H 0.74368 0.23342 0.80427 0.0
H981 H 0.82039 0.20942 0.80681 0.0
C982 C 0.89113 0.26231 0.8074 0.0
C983 C 0.92426 0.29426 0.80892 0.0
C984 C 0.84734 0.27497 0.80263 0.0
C985 C 0.9141 0.33835 0.80326 0.0
C986 C 0.87098 0.35102 0.79771 0.0
C987 C 0.79293 0.33325 0.79627 0.0
C988 C 0.75894 0.3026 0.79951 0.0
C989 C 0.83708 0.31987 0.79829 0.0
C990 C 0.76947 0.25777 0.80242 0.0
C991 C 0.81328 0.244 0.80376 0.0
H992 H 0.74857 0.76592 0.33996 0.0
H993 H 0.6249 0.77946 0.2997 0.0
H994 H 0.64102 0.85665 0.29087 0.0
H995 H 0.68716 0.9213 0.29755 0.0
H996 H 0.80888 0.9101 0.33977 0.0
H997 H 0.79782 0.83036 0.34384 0.0
C998 C 0.72546 0.78558 0.32893 0.0
C999 C 0.68525 0.76704 0.32077 0.0
C1000 C 0.73481 0.83019 0.32415 0.0
C1001 C 0.65556 0.79313 0.30666 0.0
C1002 C 0.66492 0.83717 0.30145 0.0
C1003 C 0.71142 0.90137 0.30753 0.0
C1004 C 0.74841 0.92163 0.31874 0.0
C1005 C 0.70393 0.85621 0.31059 0.0
C1006 C 0.7802 0.89525 0.33096 0.0
C1007 C 0.77357 0.8498 0.33353 0.0
H1008 H 0.08746 0.66715 0.84382 0.0
H1009 H 0.10426 0.80783 0.84541 0.0
H1010 H 0.18384 0.79876 0.8389 0.0
H1011 H 0.24903 0.75015 0.83488 0.0
H1012 H 0.23111 0.60954 0.8325 0.0
H1013 H 0.15151 0.61906 0.83717 0.0
C1014 C 0.10859 0.69579 0.84275 0.0
C1015 C 0.09017 0.73808 0.84541 0.0
C1016 C 0.15406 0.69024 0.83897 0.0
C1017 C 0.11772 0.77499 0.84337 0.0
C1018 C 0.16319 0.76975 0.83981 0.0
C1019 C 0.22763 0.72167 0.83548 0.0
C1020 C 0.24591 0.67911 0.83366 0.0
C1021 C 0.18181 0.72748 0.83797 0.0
C1022 C 0.21775 0.64253 0.83382 0.0
C1023 C 0.17231 0.64798 0.83658 0.0
H1024 H 0.25892 0.24538 0.33359 0.0
H1025 H 0.39966 0.22605 0.33391 0.0
H1026 H 0.38939 0.14692 0.33934 0.0
H1027 H 0.34082 0.08369 0.345 0.0
H1028 H 0.20002 0.10161 0.3453 0.0
H1029 H 0.20974 0.18088 0.33817 0.0
C1030 C 0.28729 0.22386 0.33509 0.0
C1031 C 0.33009 0.24167 0.33358 0.0
C1032 C 0.28108 0.17823 0.33812 0.0
C1033 C 0.36649 0.21319 0.33491 0.0
C1034 C 0.36061 0.16797 0.33808 0.0
C1035 C 0.3122 0.10491 0.34368 0.0
C1036 C 0.26972 0.08683 0.34603 0.0
C1037 C 0.31813 0.15021 0.33985 0.0
C1038 C 0.23301 0.11469 0.34348 0.0
C1039 C 0.23862 0.16001 0.3396 0.0
H1040 H 0.58776 0.84661 0.84009 0.0
H1041 H 0.60394 0.70579 0.84072 0.0
H1042 H 0.68364 0.71431 0.83458 0.0
H1043 H 0.74922 0.76247 0.83155 0.0
H1044 H 0.73187 0.90325 0.83003 0.0
H1045 H 0.65213 0.89429 0.83397 0.0
C1046 C 0.60878 0.81781 0.83882 0.0
C1047 C 0.59012 0.77564 0.84115 0.0
C1048 C 0.65434 0.82306 0.83527 0.0
C1049 C 0.61754 0.73854 0.83891 0.0
C1050 C 0.6631 0.74347 0.83558 0.0
C1051 C 0.7279 0.79111 0.83213 0.0
C1052 C 0.74643 0.83356 0.83081 0.0
C1053 C 0.68196 0.78562 0.83418 0.0
C1054 C 0.71837 0.87034 0.83096 0.0
C1055 C 0.67283 0.86521 0.83331 0.0
H1056 H 0.16535 0.5879 0.31321 0.0
H1057 H 0.29827 0.60022 0.34136 0.0
H1058 H 0.29056 0.68067 0.34164 0.0
H1059 H 0.24384 0.74703 0.33653 0.0
H1060 H 0.10904 0.73182 0.31137 0.0
H1061 H 0.11972 0.65299 0.30753 0.0
C1062 C 0.19267 0.60804 0.31956 0.0
C1063 C 0.23211 0.5879 0.32766 0.0
C1064 C 0.18751 0.65386 0.32039 0.0
C1065 C 0.2676 0.61478 0.33497 0.0
C1066 C 0.263 0.66077 0.33536 0.0
C1067 C 0.21662 0.72659 0.33042 0.0
C1068 C 0.17553 0.74594 0.32432 0.0
C1069 C 0.22271 0.68065 0.32864 0.0
C1070 C 0.14113 0.71847 0.31593 0.0
C1071 C 0.14711 0.67312 0.31383 0.0
H1072 H 0.39841 0.2109 0.86414 0.0
H1073 H 0.43086 0.2407 0.78472 0.0
H1074 H 0.35577 0.22179 0.77149 0.0
H1075 H 0.28014 0.19731 0.78295 0.0
H1076 H 0.24906 0.16917 0.86271 0.0
H1077 H 0.32473 0.18571 0.87537 0.0
C1078 C 0.38931 0.21282 0.84388 0.0
C1079 C 0.42036 0.22699 0.82546 0.0
C1080 C 0.34637 0.20176 0.83649 0.0
C1081 C 0.40755 0.2303 0.79935 0.0
C1082 C 0.3647 0.21914 0.79175 0.0
C1083 C 0.29036 0.19417 0.80298 0.0
C1084 C 0.25938 0.18178 0.82193 0.0
C1085 C 0.3338 0.20475 0.81018 0.0
C1086 C 0.27253 0.17864 0.84791 0.0
C1087 C 0.31564 0.18821 0.85512 0.0
H1088 H 0.81616 0.28994 0.29524 0.0
H1089 H 0.83487 0.2541 0.37518 0.0
H1090 H 0.81031 0.32716 0.38902 0.0
H1091 H 0.78365 0.40087 0.37842 0.0
H1092 H 0.76232 0.43763 0.29885 0.0
H1093 H 0.78657 0.36429 0.28464 0.0
C1094 C 0.81528 0.29859 0.31561 0.0
C1095 C 0.82787 0.2672 0.33425 0.0
C1096 C 0.80001 0.34038 0.32341 0.0
C1097 C 0.82558 0.27805 0.36063 0.0
C1098 C 0.81142 0.31963 0.3685 0.0
C1099 C 0.78434 0.3928 0.35796 0.0
C1100 C 0.77156 0.42464 0.33969 0.0
C1101 C 0.79848 0.35096 0.35008 0.0
C1102 C 0.7717 0.41353 0.31327 0.0
C1103 C 0.78598 0.37178 0.30517 0.0
H1104 H 0.09096 0.67187 0.20001 0.0
H1105 H 0.1059 0.8075 0.17724 0.0
H1106 H 0.18621 0.80014 0.1803 0.0
H1107 H 0.25195 0.7534 0.18685 0.0
H1108 H 0.23525 0.61659 0.20715 0.0
H1109 H 0.15564 0.62613 0.20744 0.0
C1110 C 0.11168 0.69984 0.19553 0.0
C1111 C 0.09242 0.74 0.18796 0.0
C1112 C 0.15751 0.695 0.19671 0.0
C1113 C 0.11985 0.77627 0.18313 0.0
C1114 C 0.16575 0.77191 0.18467 0.0
C1115 C 0.23097 0.72554 0.19108 0.0
C1116 C 0.24981 0.68414 0.19675 0.0
C1117 C 0.18495 0.73113 0.19092 0.0
C1118 C 0.22188 0.64881 0.20288 0.0
C1119 C 0.17627 0.65419 0.20295 0.0
H1120 H 0.25471 0.25835 0.68358 0.0
H1121 H 0.38976 0.24295 0.70786 0.0
H1122 H 0.38109 0.16325 0.70841 0.0
H1123 H 0.33724 0.09772 0.69883 0.0
H1124 H 0.20252 0.11135 0.67421 0.0
H1125 H 0.2086 0.19183 0.67727 0.0
C1126 C 0.28225 0.23754 0.6889 0.0
C1127 C 0.32311 0.25679 0.69532 0.0
C1128 C 0.27704 0.1914 0.68914 0.0
C1129 C 0.35803 0.22922 0.70288 0.0
C1130 C 0.35314 0.18355 0.70309 0.0
C1131 C 0.30913 0.11832 0.69426 0.0
C1132 C 0.26967 0.09866 0.68594 0.0
C1133 C 0.31312 0.16428 0.6958 0.0
C1134 C 0.23319 0.1257 0.68069 0.0
C1135 C 0.23684 0.17169 0.68222 0.0
H1136 H 0.77573 0.27086 0.16838 0.0
H1137 H 0.8007 0.41073 0.17103 0.0
H1138 H 0.87956 0.39692 0.1696 0.0
H1139 H 0.94143 0.34581 0.16447 0.0
H1140 H 0.91814 0.20617 0.16266 0.0
H1141 H 0.83866 0.2191 0.16779 0.0
C1142 C 0.7982 0.29842 0.16911 0.0
C1143 C 0.78171 0.34201 0.1693 0.0
C1144 C 0.84395 0.29024 0.16848 0.0
C1145 C 0.81198 0.37697 0.17018 0.0
C1146 C 0.85727 0.36911 0.16954 0.0
C1147 C 0.91893 0.3182 0.1654 0.0
C1148 C 0.93548 0.27512 0.16286 0.0
C1149 C 0.87356 0.326 0.16811 0.0
C1150 C 0.90615 0.23958 0.16463 0.0
C1151 C 0.86073 0.24706 0.16734 0.0
H1152 H 0.71262 0.90268 0.62953 0.0
H1153 H 0.74622 0.93872 0.70778 0.0
H1154 H 0.72773 0.86437 0.72264 0.0
H1155 H 0.70202 0.78854 0.71305 0.0
H1156 H 0.67118 0.75315 0.63436 0.0
H1157 H 0.68756 0.82805 0.61996 0.0
C1158 C 0.71556 0.89442 0.64987 0.0
C1159 C 0.73053 0.9263 0.66753 0.0
C1160 C 0.70494 0.85179 0.65818 0.0
C1161 C 0.73512 0.9147 0.69376 0.0
C1162 C 0.72423 0.8723 0.70228 0.0
C1163 C 0.69832 0.79765 0.69286 0.0
C1164 C 0.68497 0.76574 0.67475 0.0
C1165 C 0.70894 0.84057 0.68466 0.0
C1166 C 0.68125 0.77739 0.64854 0.0
C1167 C 0.69074 0.82007 0.64034 0.0
loop_
_geom_bond_atom_site_label_1
_geom_bond_atom_site_label_2
_geom_bond_distance
_geom_bond_site_symmetry_2
_ccdc_geom_bond_type
Co0 N4 2.148 . S
Co0 N10 2.128 1_455 S
Co0 N20 2.194 . S
Co0 O25 2.351 . S
Co0 O26 2.155 . S
Co0 O27 2.096 . S
C1 N4 1.301 . S
C1 N5 1.328 . S
C1 H6 0.930 . S
C2 C3 1.333 . S
C2 N4 1.317 . S
C2 H7 0.930 . S
C3 C2 1.333 . S
C3 N5 1.350 . S
C3 H29 0.931 . S
N4 Co0 2.148 . S
N4 C1 1.301 . S
N4 C2 1.317 . S
N5 C1 1.328 . S
N5 C3 1.350 . S
H6 C1 0.930 . S
H7 C2 0.930 . S
C8 O9 1.224 . S
C8 O27 1.247 . S
O9 C8 1.224 . S
N10 Co0 2.128 1_655 S
N10 C11 1.355 . S
N10 C13 1.311 . S
C11 N10 1.355 . S
C11 C12 1.363 . S
C11 H23 0.929 . S
C12 C11 1.363 . S
C12 N14 1.375 . S
C12 H30 0.931 . S
C13 N10 1.311 . S
C13 N14 1.347 . S
C13 H24 0.929 . S
N14 C12 1.375 . S
N14 C13 1.347 . S
C15 C18 1.365 . S
C15 N20 1.328 . S
C15 H21 0.929 . S
C16 C17 1.362 . S
C16 C19 1.378 . S
C16 H31 0.929 . S
C17 C16 1.362 . S
C17 C18 1.366 . S
C18 C15 1.365 . S
C18 C17 1.366 . S
C18 H32 0.930 . S
C19 C16 1.378 . S
C19 N20 1.315 . S
C19 H22 0.930 . S
N20 Co0 2.194 . S
N20 C15 1.328 . S
N20 C19 1.315 . S
H21 C15 0.929 . S
H22 C19 0.930 . S
H23 C11 0.929 . S
H24 C13 0.929 . S
O25 Co0 2.351 . S
O25 C28 1.244 . S
O26 Co0 2.155 . S
O26 C28 1.240 . S
O27 Co0 2.096 . S
O27 C8 1.247 . S
C28 O25 1.244 . S
C28 O26 1.240 . S
H29 C3 0.931 . S
H30 C12 0.931 . S
H31 C16 0.929 . S
H32 C18 0.930 . S
Co33 N37 2.148 . S
Co33 N43 2.128 1_545 S
Co33 N53 2.194 . S
Co33 O58 2.351 . S
Co33 O59 2.155 . S
Co33 O60 2.096 . S
C34 N37 1.301 . S
C34 N38 1.328 . S
C34 H39 0.930 . S
C35 C36 1.333 . S
C35 N37 1.317 . S
C35 H40 0.930 . S
C36 C35 1.333 . S
C36 N38 1.350 . S
C36 H62 0.931 . S
N37 Co33 2.148 . S
N37 C34 1.301 . S
N37 C35 1.317 . S
N38 C34 1.328 . S
N38 C36 1.350 . S
H39 C34 0.930 . S
H40 C35 0.930 . S
C41 O42 1.224 . S
C41 O60 1.247 . S
O42 C41 1.224 . S
N43 Co33 2.128 1_565 S
N43 C44 1.355 . S
N43 C46 1.311 . S
C44 N43 1.355 . S
C44 C45 1.363 . S
C44 H56 0.929 . S
C45 C44 1.363 . S
C45 N47 1.375 . S
C45 H63 0.931 . S
C46 N43 1.311 . S
C46 N47 1.347 . S
C46 H57 0.929 . S
N47 C45 1.375 . S
N47 C46 1.347 . S
C48 C51 1.365 . S
C48 N53 1.328 . S
C48 H54 0.929 . S
C49 C50 1.362 . S
C49 C52 1.378 . S
C49 H64 0.929 . S
C50 C49 1.362 . S
C50 C51 1.366 . S
C51 C48 1.365 . S
C51 C50 1.366 . S
C51 H65 0.930 . S
C52 C49 1.378 . S
C52 N53 1.315 . S
C52 H55 0.930 . S
N53 Co33 2.194 . S
N53 C48 1.328 . S
N53 C52 1.315 . S
H54 C48 0.929 . S
H55 C52 0.930 . S
H56 C44 0.929 . S
H57 C46 0.929 . S
O58 Co33 2.351 . S
O58 C61 1.244 . S
O59 Co33 2.155 . S
O59 C61 1.240 . S
O60 Co33 2.096 . S
O60 C41 1.247 . S
C61 O58 1.244 . S
C61 O59 1.240 . S
H62 C36 0.931 . S
H63 C45 0.931 . S
H64 C49 0.929 . S
H65 C51 0.930 . S
Co66 N70 2.148 . S
Co66 N76 2.128 1_655 S
Co66 N86 2.194 . S
Co66 O91 2.351 . S
Co66 O92 2.155 . S
Co66 O93 2.096 . S
C67 N70 1.301 . S
C67 N71 1.328 . S
C67 H72 0.930 . S
C68 C69 1.333 . S
C68 N70 1.317 . S
C68 H73 0.930 . S
C69 C68 1.333 . S
C69 N71 1.350 . S
C69 H95 0.931 . S
N70 Co66 2.148 . S
N70 C67 1.301 . S
N70 C68 1.317 . S
N71 C67 1.328 . S
N71 C69 1.350 . S
H72 C67 0.930 . S
H73 C68 0.930 . S
C74 O75 1.224 . S
C74 O93 1.247 . S
O75 C74 1.224 . S
N76 Co66 2.128 1_455 S
N76 C77 1.355 . S
N76 C79 1.311 . S
C77 N76 1.355 . S
C77 C78 1.363 . S
C77 H89 0.929 . S
C78 C77 1.363 . S
C78 N80 1.375 . S
C78 H96 0.931 . S
C79 N76 1.311 . S
C79 N80 1.347 . S
C79 H90 0.929 . S
N80 C78 1.375 . S
N80 C79 1.347 . S
C81 C84 1.365 . S
C81 N86 1.328 . S
C81 H87 0.929 . S
C82 C83 1.362 . S
C82 C85 1.378 . S
C82 H97 0.929 . S
C83 C82 1.362 . S
C83 C84 1.366 . S
C84 C81 1.365 . S
C84 C83 1.366 . S
C84 H98 0.930 . S
C85 C82 1.378 . S
C85 N86 1.315 . S
C85 H88 0.930 . S
N86 Co66 2.194 . S
N86 C81 1.328 . S
N86 C85 1.315 . S
H87 C81 0.929 . S
H88 C85 0.930 . S
H89 C77 0.929 . S
H90 C79 0.929 . S
O91 Co66 2.351 . S
O91 C94 1.244 . S
O92 Co66 2.155 . S
O92 C94 1.240 . S
O93 Co66 2.096 . S
O93 C74 1.247 . S
C94 O91 1.244 . S
C94 O92 1.240 . S
H95 C69 0.931 . S
H96 C78 0.931 . S
H97 C82 0.929 . S
H98 C84 0.930 . S
Co99 N103 2.148 . S
Co99 N109 2.128 1_565 S
Co99 N119 2.194 . S
Co99 O124 2.351 . S
Co99 O125 2.155 . S
Co99 O126 2.096 . S
C100 N103 1.301 . S
C100 N104 1.328 . S
C100 H105 0.930 . S
C101 C102 1.333 . S
C101 N103 1.317 . S
C101 H106 0.930 . S
C102 C101 1.333 . S
C102 N104 1.350 . S
C102 H128 0.931 . S
N103 Co99 2.148 . S
N103 C100 1.301 . S
N103 C101 1.317 . S
N104 C100 1.328 . S
N104 C102 1.350 . S
H105 C100 0.930 . S
H106 C101 0.930 . S
C107 O108 1.224 . S
C107 O126 1.247 . S
O108 C107 1.224 . S
N109 Co99 2.128 1_545 S
N109 C110 1.355 . S
N109 C112 1.311 . S
C110 N109 1.355 . S
C110 C111 1.363 . S
C110 H122 0.929 . S
C111 C110 1.363 . S
C111 N113 1.375 . S
C111 H129 0.931 . S
C112 N109 1.311 . S
C112 N113 1.347 . S
C112 H123 0.929 . S
N113 C111 1.375 . S
N113 C112 1.347 . S
C114 C117 1.365 . S
C114 N119 1.328 . S
C114 H120 0.929 . S
C115 C116 1.362 . S
C115 C118 1.378 . S
C115 H130 0.929 . S
C116 C115 1.362 . S
C116 C117 1.366 . S
C117 C114 1.365 . S
C117 C116 1.366 . S
C117 H131 0.930 . S
C118 C115 1.378 . S
C118 N119 1.315 . S
C118 H121 0.930 . S
N119 Co99 2.194 . S
N119 C114 1.328 . S
N119 C118 1.315 . S
H120 C114 0.929 . S
H121 C118 0.930 . S
H122 C110 0.929 . S
H123 C112 0.929 . S
O124 Co99 2.351 . S
O124 C127 1.244 . S
O125 Co99 2.155 . S
O125 C127 1.240 . S
O126 Co99 2.096 . S
O126 C107 1.247 . S
C127 O124 1.244 . S
C127 O125 1.240 . S
H128 C102 0.931 . S
H129 C111 0.931 . S
H130 C115 0.929 . S
H131 C117 0.930 . S
Co132 N136 2.148 . S
Co132 N142 2.128 . S
Co132 N152 2.194 . S
Co132 O157 2.351 . S
Co132 O158 2.155 . S
Co132 O159 2.096 . S
C133 N136 1.301 . S
C133 N137 1.328 . S
C133 H138 0.930 . S
C134 C135 1.333 . S
C134 N136 1.317 . S
C134 H139 0.930 . S
C135 C134 1.333 . S
C135 N137 1.350 . S
C135 H161 0.931 . S
N136 Co132 2.148 . S
N136 C133 1.301 . S
N136 C134 1.317 . S
N137 C133 1.328 . S
N137 C135 1.350 . S
H138 C133 0.930 . S
H139 C134 0.930 . S
C140 O141 1.224 . S
C140 O159 1.247 . S
O141 C140 1.224 . S
N142 Co132 2.128 . S
N142 C143 1.355 . S
N142 C145 1.311 . S
C143 N142 1.355 . S
C143 C144 1.363 . S
C143 H155 0.929 . S
C144 C143 1.363 . S
C144 N146 1.375 . S
C144 H162 0.931 . S
C145 N142 1.311 . S
C145 N146 1.347 . S
C145 H156 0.929 . S
N146 C144 1.375 . S
N146 C145 1.347 . S
C147 C150 1.365 . S
C147 N152 1.328 . S
C147 H153 0.929 . S
C148 C149 1.362 . S
C148 C151 1.378 . S
C148 H163 0.929 . S
C149 C148 1.362 . S
C149 C150 1.366 . S
C150 C147 1.365 . S
C150 C149 1.366 . S
C150 H164 0.930 . S
C151 C148 1.378 . S
C151 N152 1.315 . S
C151 H154 0.930 . S
N152 Co132 2.194 . S
N152 C147 1.328 . S
N152 C151 1.315 . S
H153 C147 0.929 . S
H154 C151 0.930 . S
H155 C143 0.929 . S
H156 C145 0.929 . S
O157 Co132 2.351 . S
O157 C160 1.244 . S
O158 Co132 2.155 . S
O158 C160 1.240 . S
O159 Co132 2.096 . S
O159 C140 1.247 . S
C160 O157 1.244 . S
C160 O158 1.240 . S
H161 C135 0.931 . S
H162 C144 0.931 . S
H163 C148 0.929 . S
H164 C150 0.930 . S
Co165 N169 2.148 . S
Co165 N175 2.128 . S
Co165 N185 2.194 . S
Co165 O190 2.351 . S
Co165 O191 2.155 . S
Co165 O192 2.096 . S
C166 N169 1.301 . S
C166 N170 1.328 . S
C166 H171 0.930 . S
C167 C168 1.333 . S
C167 N169 1.317 . S
C167 H172 0.930 . S
C168 C167 1.333 . S
C168 N170 1.350 . S
C168 H194 0.931 . S
N169 Co165 2.148 . S
N169 C166 1.301 . S
N169 C167 1.317 . S
N170 C166 1.328 . S
N170 C168 1.350 . S
H171 C166 0.930 . S
H172 C167 0.930 . S
C173 O174 1.224 . S
C173 O192 1.247 . S
O174 C173 1.224 . S
N175 Co165 2.128 . S
N175 C176 1.355 . S
N175 C178 1.311 . S
C176 N175 1.355 . S
C176 C177 1.363 . S
C176 H188 0.929 . S
C177 C176 1.363 . S
C177 N179 1.375 . S
C177 H195 0.931 . S
C178 N175 1.311 . S
C178 N179 1.347 . S
C178 H189 0.929 . S
N179 C177 1.375 . S
N179 C178 1.347 . S
C180 C183 1.365 . S
C180 N185 1.328 . S
C180 H186 0.929 . S
C181 C182 1.362 . S
C181 C184 1.378 . S
C181 H196 0.929 . S
C182 C181 1.362 . S
C182 C183 1.366 . S
C183 C180 1.365 . S
C183 C182 1.366 . S
C183 H197 0.930 . S
C184 C181 1.378 . S
C184 N185 1.315 . S
C184 H187 0.930 . S
N185 Co165 2.194 . S
N185 C180 1.328 . S
N185 C184 1.315 . S
H186 C180 0.929 . S
H187 C184 0.930 . S
H188 C176 0.929 . S
H189 C178 0.929 . S
O190 Co165 2.351 . S
O190 C193 1.244 . S
O191 Co165 2.155 . S
O191 C193 1.240 . S
O192 Co165 2.096 . S
O192 C173 1.247 . S
C193 O190 1.244 . S
C193 O191 1.240 . S
H194 C168 0.931 . S
H195 C177 0.931 . S
H196 C181 0.929 . S
H197 C183 0.930 . S
Co198 N202 2.148 . S
Co198 N208 2.128 . S
Co198 N218 2.194 . S
Co198 O223 2.351 . S
Co198 O224 2.155 . S
Co198 O225 2.096 . S
C199 N202 1.301 . S
C199 N203 1.328 . S
C199 H204 0.930 . S
C200 C201 1.333 . S
C200 N202 1.317 . S
C200 H205 0.930 . S
C201 C200 1.333 . S
C201 N203 1.350 . S
C201 H227 0.931 . S
N202 Co198 2.148 . S
N202 C199 1.301 . S
N202 C200 1.317 . S
N203 C199 1.328 . S
N203 C201 1.350 . S
H204 C199 0.930 . S
H205 C200 0.930 . S
C206 O207 1.224 . S
C206 O225 1.247 . S
O207 C206 1.224 . S
N208 Co198 2.128 . S
N208 C209 1.355 . S
N208 C211 1.311 . S
C209 N208 1.355 . S
C209 C210 1.363 . S
C209 H221 0.929 . S
C210 C209 1.363 . S
C210 N212 1.375 . S
C210 H228 0.931 . S
C211 N208 1.311 . S
C211 N212 1.347 . S
C211 H222 0.929 . S
N212 C210 1.375 . S
N212 C211 1.347 . S
C213 C216 1.365 . S
C213 N218 1.328 . S
C213 H219 0.929 . S
C214 C215 1.362 . S
C214 C217 1.378 . S
C214 H229 0.929 . S
C215 C214 1.362 . S
C215 C216 1.366 . S
C216 C213 1.365 . S
C216 C215 1.366 . S
C216 H230 0.930 . S
C217 C214 1.378 . S
C217 N218 1.315 . S
C217 H220 0.930 . S
N218 Co198 2.194 . S
N218 C213 1.328 . S
N218 C217 1.315 . S
H219 C213 0.929 . S
H220 C217 0.930 . S
H221 C209 0.929 . S
H222 C211 0.929 . S
O223 Co198 2.351 . S
O223 C226 1.244 . S
O224 Co198 2.155 . S
O224 C226 1.240 . S
O225 Co198 2.096 . S
O225 C206 1.247 . S
C226 O223 1.244 . S
C226 O224 1.240 . S
H227 C201 0.931 . S
H228 C210 0.931 . S
H229 C214 0.929 . S
H230 C216 0.930 . S
Co231 N235 2.148 . S
Co231 N241 2.128 . S
Co231 N251 2.194 . S
Co231 O256 2.351 . S
Co231 O257 2.155 . S
Co231 O258 2.096 . S
C232 N235 1.301 . S
C232 N236 1.328 . S
C232 H237 0.930 . S
C233 C234 1.333 . S
C233 N235 1.317 . S
C233 H238 0.930 . S
C234 C233 1.333 . S
C234 N236 1.350 . S
C234 H260 0.931 . S
N235 Co231 2.148 . S
N235 C232 1.301 . S
N235 C233 1.317 . S
N236 C232 1.328 . S
N236 C234 1.350 . S
H237 C232 0.930 . S
H238 C233 0.930 . S
C239 O240 1.224 . S
C239 O258 1.247 . S
O240 C239 1.224 . S
N241 Co231 2.128 . S
N241 C242 1.355 . S
N241 C244 1.311 . S
C242 N241 1.355 . S
C242 C243 1.363 . S
C242 H254 0.929 . S
C243 C242 1.363 . S
C243 N245 1.375 . S
C243 H261 0.931 . S
C244 N241 1.311 . S
C244 N245 1.347 . S
C244 H255 0.929 . S
N245 C243 1.375 . S
N245 C244 1.347 . S
C246 C249 1.365 . S
C246 N251 1.328 . S
C246 H252 0.929 . S
C247 C248 1.362 . S
C247 C250 1.378 . S
C247 H262 0.929 . S
C248 C247 1.362 . S
C248 C249 1.366 . S
C249 C246 1.365 . S
C249 C248 1.366 . S
C249 H263 0.930 . S
C250 C247 1.378 . S
C250 N251 1.315 . S
C250 H253 0.930 . S
N251 Co231 2.194 . S
N251 C246 1.328 . S
N251 C250 1.315 . S
H252 C246 0.929 . S
H253 C250 0.930 . S
H254 C242 0.929 . S
H255 C244 0.929 . S
O256 Co231 2.351 . S
O256 C259 1.244 . S
O257 Co231 2.155 . S
O257 C259 1.240 . S
O258 Co231 2.096 . S
O258 C239 1.247 . S
C259 O256 1.244 . S
C259 O257 1.240 . S
H260 C234 0.931 . S
H261 C243 0.931 . S
H262 C247 0.929 . S
H263 C249 0.930 . S
Co264 N268 2.148 . S
Co264 N274 2.128 1_655 S
Co264 N284 2.194 . S
Co264 O289 2.351 . S
Co264 O290 2.155 . S
Co264 O291 2.096 . S
C265 N268 1.301 . S
C265 N269 1.328 . S
C265 H270 0.930 . S
C266 C267 1.333 . S
C266 N268 1.317 . S
C266 H271 0.930 . S
C267 C266 1.333 . S
C267 N269 1.350 . S
C267 H293 0.931 . S
N268 Co264 2.148 . S
N268 C265 1.301 . S
N268 C266 1.317 . S
N269 C265 1.328 . S
N269 C267 1.350 . S
H270 C265 0.930 . S
H271 C266 0.930 . S
C272 O273 1.224 . S
C272 O291 1.247 . S
O273 C272 1.224 . S
N274 Co264 2.128 1_455 S
N274 C275 1.355 . S
N274 C277 1.311 . S
C275 N274 1.355 . S
C275 C276 1.363 . S
C275 H287 0.929 . S
C276 C275 1.363 . S
C276 N278 1.375 . S
C276 H294 0.931 . S
C277 N274 1.311 . S
C277 N278 1.347 . S
C277 H288 0.929 . S
N278 C276 1.375 . S
N278 C277 1.347 . S
C279 C282 1.365 . S
C279 N284 1.328 . S
C279 H285 0.929 . S
C280 C281 1.362 . S
C280 C283 1.378 . S
C280 H295 0.929 . S
C281 C280 1.362 . S
C281 C282 1.366 . S
C282 C279 1.365 . S
C282 C281 1.366 . S
C282 H296 0.930 . S
C283 C280 1.378 . S
C283 N284 1.315 . S
C283 H286 0.930 . S
N284 Co264 2.194 . S
N284 C279 1.328 . S
N284 C283 1.315 . S
H285 C279 0.929 . S
H286 C283 0.930 . S
H287 C275 0.929 . S
H288 C277 0.929 . S
O289 Co264 2.351 . S
O289 C292 1.244 . S
O290 Co264 2.155 . S
O290 C292 1.240 . S
O291 Co264 2.096 . S
O291 C272 1.247 . S
C292 O289 1.244 . S
C292 O290 1.240 . S
H293 C267 0.931 . S
H294 C276 0.931 . S
H295 C280 0.929 . S
H296 C282 0.930 . S
Co297 N301 2.148 . S
Co297 N307 2.128 1_565 S
Co297 N317 2.194 . S
Co297 O322 2.351 . S
Co297 O323 2.155 . S
Co297 O324 2.096 . S
C298 N301 1.301 . S
C298 N302 1.328 . S
C298 H303 0.930 . S
C299 C300 1.333 . S
C299 N301 1.317 . S
C299 H304 0.930 . S
C300 C299 1.333 . S
C300 N302 1.350 . S
C300 H326 0.931 . S
N301 Co297 2.148 . S
N301 C298 1.301 . S
N301 C299 1.317 . S
N302 C298 1.328 . S
N302 C300 1.350 . S
H303 C298 0.930 . S
H304 C299 0.930 . S
C305 O306 1.224 . S
C305 O324 1.247 . S
O306 C305 1.224 . S
N307 Co297 2.128 1_545 S
N307 C308 1.355 . S
N307 C310 1.311 . S
C308 N307 1.355 . S
C308 C309 1.363 . S
C308 H320 0.929 . S
C309 C308 1.363 . S
C309 N311 1.375 . S
C309 H327 0.931 . S
C310 N307 1.311 . S
C310 N311 1.347 . S
C310 H321 0.929 . S
N311 C309 1.375 . S
N311 C310 1.347 . S
C312 C315 1.365 . S
C312 N317 1.328 . S
C312 H318 0.929 . S
C313 C314 1.362 . S
C313 C316 1.378 . S
C313 H328 0.929 . S
C314 C313 1.362 . S
C314 C315 1.366 . S
C315 C312 1.365 . S
C315 C314 1.366 . S
C315 H329 0.930 . S
C316 C313 1.378 . S
C316 N317 1.315 . S
C316 H319 0.930 . S
N317 Co297 2.194 . S
N317 C312 1.328 . S
N317 C316 1.315 . S
H318 C312 0.929 . S
H319 C316 0.930 . S
H320 C308 0.929 . S
H321 C310 0.929 . S
O322 Co297 2.351 . S
O322 C325 1.244 . S
O323 Co297 2.155 . S
O323 C325 1.240 . S
O324 Co297 2.096 . S
O324 C305 1.247 . S
C325 O322 1.244 . S
C325 O323 1.240 . S
H326 C300 0.931 . S
H327 C309 0.931 . S
H328 C313 0.929 . S
H329 C315 0.930 . S
Co330 N334 2.148 . S
Co330 N340 2.128 1_455 S
Co330 N350 2.194 . S
Co330 O355 2.351 . S
Co330 O356 2.155 . S
Co330 O357 2.096 . S
C331 N334 1.301 . S
C331 N335 1.328 . S
C331 H336 0.930 . S
C332 C333 1.333 . S
C332 N334 1.317 . S
C332 H337 0.930 . S
C333 C332 1.333 . S
C333 N335 1.350 . S
C333 H359 0.931 . S
N334 Co330 2.148 . S
N334 C331 1.301 . S
N334 C332 1.317 . S
N335 C331 1.328 . S
N335 C333 1.350 . S
H336 C331 0.930 . S
H337 C332 0.930 . S
C338 O339 1.224 . S
C338 O357 1.247 . S
O339 C338 1.224 . S
N340 Co330 2.128 1_655 S
N340 C341 1.355 . S
N340 C343 1.311 . S
C341 N340 1.355 . S
C341 C342 1.363 . S
C341 H353 0.929 . S
C342 C341 1.363 . S
C342 N344 1.375 . S
C342 H360 0.931 . S
C343 N340 1.311 . S
C343 N344 1.347 . S
C343 H354 0.929 . S
N344 C342 1.375 . S
N344 C343 1.347 . S
C345 C348 1.365 . S
C345 N350 1.328 . S
C345 H351 0.929 . S
C346 C347 1.362 . S
C346 C349 1.378 . S
C346 H361 0.929 . S
C347 C346 1.362 . S
C347 C348 1.366 . S
C348 C345 1.365 . S
C348 C347 1.366 . S
C348 H362 0.930 . S
C349 C346 1.378 . S
C349 N350 1.315 . S
C349 H352 0.930 . S
N350 Co330 2.194 . S
N350 C345 1.328 . S
N350 C349 1.315 . S
H351 C345 0.929 . S
H352 C349 0.930 . S
H353 C341 0.929 . S
H354 C343 0.929 . S
O355 Co330 2.351 . S
O355 C358 1.244 . S
O356 Co330 2.155 . S
O356 C358 1.240 . S
O357 Co330 2.096 . S
O357 C338 1.247 . S
C358 O355 1.244 . S
C358 O356 1.240 . S
H359 C333 0.931 . S
H360 C342 0.931 . S
H361 C346 0.929 . S
H362 C348 0.930 . S
Co363 N367 2.148 . S
Co363 N373 2.128 1_545 S
Co363 N383 2.194 . S
Co363 O388 2.351 . S
Co363 O389 2.155 . S
Co363 O390 2.096 . S
C364 N367 1.301 . S
C364 N368 1.328 . S
C364 H369 0.930 . S
C365 C366 1.333 . S
C365 N367 1.317 . S
C365 H370 0.930 . S
C366 C365 1.333 . S
C366 N368 1.350 . S
C366 H392 0.931 . S
N367 Co363 2.148 . S
N367 C364 1.301 . S
N367 C365 1.317 . S
N368 C364 1.328 . S
N368 C366 1.350 . S
H369 C364 0.930 . S
H370 C365 0.930 . S
C371 O372 1.224 . S
C371 O390 1.247 . S
O372 C371 1.224 . S
N373 Co363 2.128 1_565 S
N373 C374 1.355 . S
N373 C376 1.311 . S
C374 N373 1.355 . S
C374 C375 1.363 . S
C374 H386 0.929 . S
C375 C374 1.363 . S
C375 N377 1.375 . S
C375 H393 0.931 . S
C376 N373 1.311 . S
C376 N377 1.347 . S
C376 H387 0.929 . S
N377 C375 1.375 . S
N377 C376 1.347 . S
C378 C381 1.365 . S
C378 N383 1.328 . S
C378 H384 0.929 . S
C379 C380 1.362 . S
C379 C382 1.378 . S
C379 H394 0.929 . S
C380 C379 1.362 . S
C380 C381 1.366 . S
C381 C378 1.365 . S
C381 C380 1.366 . S
C381 H395 0.930 . S
C382 C379 1.378 . S
C382 N383 1.315 . S
C382 H385 0.930 . S
N383 Co363 2.194 . S
N383 C378 1.328 . S
N383 C382 1.315 . S
H384 C378 0.929 . S
H385 C382 0.930 . S
H386 C374 0.929 . S
H387 C376 0.929 . S
O388 Co363 2.351 . S
O388 C391 1.244 . S
O389 Co363 2.155 . S
O389 C391 1.240 . S
O390 Co363 2.096 . S
O390 C371 1.247 . S
C391 O388 1.244 . S
C391 O389 1.240 . S
H392 C366 0.931 . S
H393 C375 0.931 . S
H394 C379 0.929 . S
H395 C381 0.930 . S
Co396 N400 2.148 . S
Co396 N406 2.128 . S
Co396 N416 2.194 . S
Co396 O421 2.351 . S
Co396 O422 2.155 . S
Co396 O423 2.096 . S
C397 N400 1.301 . S
C397 N401 1.328 . S
C397 H402 0.930 . S
C398 C399 1.333 . S
C398 N400 1.317 . S
C398 H403 0.930 . S
C399 C398 1.333 . S
C399 N401 1.350 . S
C399 H425 0.931 . S
N400 Co396 2.148 . S
N400 C397 1.301 . S
N400 C398 1.317 . S
N401 C397 1.328 . S
N401 C399 1.350 . S
H402 C397 0.930 . S
H403 C398 0.930 . S
C404 O405 1.224 . S
C404 O423 1.247 . S
O405 C404 1.224 . S
N406 Co396 2.128 . S
N406 C407 1.355 . S
N406 C409 1.311 . S
C407 N406 1.355 . S
C407 C408 1.363 . S
C407 H419 0.929 . S
C408 C407 1.363 . S
C408 N410 1.375 . S
C408 H426 0.931 . S
C409 N406 1.311 . S
C409 N410 1.347 . S
C409 H420 0.929 . S
N410 C408 1.375 . S
N410 C409 1.347 . S
C411 C414 1.365 . S
C411 N416 1.328 . S
C411 H417 0.929 . S
C412 C413 1.362 . S
C412 C415 1.378 . S
C412 H427 0.929 . S
C413 C412 1.362 . S
C413 C414 1.366 . S
C414 C411 1.365 . S
C414 C413 1.366 . S
C414 H428 0.930 . S
C415 C412 1.378 . S
C415 N416 1.315 . S
C415 H418 0.930 . S
N416 Co396 2.194 . S
N416 C411 1.328 . S
N416 C415 1.315 . S
H417 C411 0.929 . S
H418 C415 0.930 . S
H419 C407 0.929 . S
H420 C409 0.929 . S
O421 Co396 2.351 . S
O421 C424 1.244 . S
O422 Co396 2.155 . S
O422 C424 1.240 . S
O423 Co396 2.096 . S
O423 C404 1.247 . S
C424 O421 1.244 . S
C424 O422 1.240 . S
H425 C399 0.931 . S
H426 C408 0.931 . S
H427 C412 0.929 . S
H428 C414 0.930 . S
Co429 N433 2.148 . S
Co429 N439 2.128 . S
Co429 N449 2.194 . S
Co429 O454 2.351 . S
Co429 O455 2.155 . S
Co429 O456 2.096 . S
C430 N433 1.301 . S
C430 N434 1.328 . S
C430 H435 0.930 . S
C431 C432 1.333 . S
C431 N433 1.317 . S
C431 H436 0.930 . S
C432 C431 1.333 . S
C432 N434 1.350 . S
C432 H458 0.931 . S
N433 Co429 2.148 . S
N433 C430 1.301 . S
N433 C431 1.317 . S
N434 C430 1.328 . S
N434 C432 1.350 . S
H435 C430 0.930 . S
H436 C431 0.930 . S
C437 O438 1.224 . S
C437 O456 1.247 . S
O438 C437 1.224 . S
N439 Co429 2.128 . S
N439 C440 1.355 . S
N439 C442 1.311 . S
C440 N439 1.355 . S
C440 C441 1.363 . S
C440 H452 0.929 . S
C441 C440 1.363 . S
C441 N443 1.375 . S
C441 H459 0.931 . S
C442 N439 1.311 . S
C442 N443 1.347 . S
C442 H453 0.929 . S
N443 C441 1.375 . S
N443 C442 1.347 . S
C444 C447 1.365 . S
C444 N449 1.328 . S
C444 H450 0.929 . S
C445 C446 1.362 . S
C445 C448 1.378 . S
C445 H460 0.929 . S
C446 C445 1.362 . S
C446 C447 1.366 . S
C447 C444 1.365 . S
C447 C446 1.366 . S
C447 H461 0.930 . S
C448 C445 1.378 . S
C448 N449 1.315 . S
C448 H451 0.930 . S
N449 Co429 2.194 . S
N449 C444 1.328 . S
N449 C448 1.315 . S
H450 C444 0.929 . S
H451 C448 0.930 . S
H452 C440 0.929 . S
H453 C442 0.929 . S
O454 Co429 2.351 . S
O454 C457 1.244 . S
O455 Co429 2.155 . S
O455 C457 1.240 . S
O456 Co429 2.096 . S
O456 C437 1.247 . S
C457 O454 1.244 . S
C457 O455 1.240 . S
H458 C432 0.931 . S
H459 C441 0.931 . S
H460 C445 0.929 . S
H461 C447 0.930 . S
Co462 N466 2.148 . S
Co462 N472 2.128 . S
Co462 N482 2.194 . S
Co462 O487 2.351 . S
Co462 O488 2.155 . S
Co462 O489 2.096 . S
C463 N466 1.301 . S
C463 N467 1.328 . S
C463 H468 0.930 . S
C464 C465 1.333 . S
C464 N466 1.317 . S
C464 H469 0.930 . S
C465 C464 1.333 . S
C465 N467 1.350 . S
C465 H491 0.931 . S
N466 Co462 2.148 . S
N466 C463 1.301 . S
N466 C464 1.317 . S
N467 C463 1.328 . S
N467 C465 1.350 . S
H468 C463 0.930 . S
H469 C464 0.930 . S
C470 O471 1.224 . S
C470 O489 1.247 . S
O471 C470 1.224 . S
N472 Co462 2.128 . S
N472 C473 1.355 . S
N472 C475 1.311 . S
C473 N472 1.355 . S
C473 C474 1.363 . S
C473 H485 0.929 . S
C474 C473 1.363 . S
C474 N476 1.375 . S
C474 H492 0.931 . S
C475 N472 1.311 . S
C475 N476 1.347 . S
C475 H486 0.929 . S
N476 C474 1.375 . S
N476 C475 1.347 . S
C477 C480 1.365 . S
C477 N482 1.328 . S
C477 H483 0.929 . S
C478 C479 1.362 . S
C478 C481 1.378 . S
C478 H493 0.929 . S
C479 C478 1.362 . S
C479 C480 1.366 . S
C480 C477 1.365 . S
C480 C479 1.366 . S
C480 H494 0.930 . S
C481 C478 1.378 . S
C481 N482 1.315 . S
C481 H484 0.930 . S
N482 Co462 2.194 . S
N482 C477 1.328 . S
N482 C481 1.315 . S
H483 C477 0.929 . S
H484 C481 0.930 . S
H485 C473 0.929 . S
H486 C475 0.929 . S
O487 Co462 2.351 . S
O487 C490 1.244 . S
O488 Co462 2.155 . S
O488 C490 1.240 . S
O489 Co462 2.096 . S
O489 C470 1.247 . S
C490 O487 1.244 . S
C490 O488 1.240 . S
H491 C465 0.931 . S
H492 C474 0.931 . S
H493 C478 0.929 . S
H494 C480 0.930 . S
Co495 N499 2.148 . S
Co495 N505 2.128 . S
Co495 N515 2.194 . S
Co495 O520 2.351 . S
Co495 O521 2.155 . S
Co495 O522 2.096 . S
C496 N499 1.301 . S
C496 N500 1.328 . S
C496 H501 0.930 . S
C497 C498 1.333 . S
C497 N499 1.317 . S
C497 H502 0.930 . S
C498 C497 1.333 . S
C498 N500 1.350 . S
C498 H524 0.931 . S
N499 Co495 2.148 . S
N499 C496 1.301 . S
N499 C497 1.317 . S
N500 C496 1.328 . S
N500 C498 1.350 . S
H501 C496 0.930 . S
H502 C497 0.930 . S
C503 O504 1.224 . S
C503 O522 1.247 . S
O504 C503 1.224 . S
N505 Co495 2.128 . S
N505 C506 1.355 . S
N505 C508 1.311 . S
C506 N505 1.355 . S
C506 C507 1.363 . S
C506 H518 0.929 . S
C507 C506 1.363 . S
C507 N509 1.375 . S
C507 H525 0.931 . S
C508 N505 1.311 . S
C508 N509 1.347 . S
C508 H519 0.929 . S
N509 C507 1.375 . S
N509 C508 1.347 . S
C510 C513 1.365 . S
C510 N515 1.328 . S
C510 H516 0.929 . S
C511 C512 1.362 . S
C511 C514 1.378 . S
C511 H526 0.929 . S
C512 C511 1.362 . S
C512 C513 1.366 . S
C513 C510 1.365 . S
C513 C512 1.366 . S
C513 H527 0.930 . S
C514 C511 1.378 . S
C514 N515 1.315 . S
C514 H517 0.930 . S
N515 Co495 2.194 . S
N515 C510 1.328 . S
N515 C514 1.315 . S
H516 C510 0.929 . S
H517 C514 0.930 . S
H518 C506 0.929 . S
H519 C508 0.929 . S
O520 Co495 2.351 . S
O520 C523 1.244 . S
O521 Co495 2.155 . S
O521 C523 1.240 . S
O522 Co495 2.096 . S
O522 C503 1.247 . S
C523 O520 1.244 . S
C523 O521 1.240 . S
H524 C498 0.931 . S
H525 C507 0.931 . S
H526 C511 0.929 . S
H527 C513 0.930 . S
H528 C534 0.930 . S
H529 C537 0.930 . S
H530 C538 0.941 . S
H531 C539 0.930 . S
H532 C542 0.930 . S
H533 C543 0.941 . S
C534 H528 0.930 . S
C534 C535 1.355 1_655 S
C534 C536 1.415 . S
C535 C534 1.355 1_455 S
C535 C537 1.419 . S
C536 C534 1.415 . S
C536 C541 1.425 1_645 S
C536 C543 1.409 1_545 S
C537 H529 0.930 . S
C537 C535 1.419 . S
C537 C538 1.362 . S
C538 H530 0.941 . S
C538 C537 1.362 . S
C538 C541 1.409 1_545 S
C539 H531 0.930 . S
C539 C540 1.355 1_455 S
C539 C541 1.415 . S
C540 C539 1.355 1_655 S
C540 C542 1.419 . S
C541 C536 1.425 1_465 S
C541 C538 1.409 1_565 S
C541 C539 1.415 . S
C542 H532 0.930 . S
C542 C540 1.419 . S
C542 C543 1.362 . S
C543 H533 0.941 . S
C543 C536 1.409 1_565 S
C543 C542 1.362 . S
H544 C550 0.930 . S
H545 C553 0.930 . S
H546 C554 0.930 1_655 S
H547 C555 0.930 . S
H548 C558 0.930 . S
H549 C559 0.930 1_455 S
C550 H544 0.930 . S
C550 C551 1.355 1_545 S
C550 C552 1.415 . S
C551 C550 1.355 1_565 S
C551 C553 1.419 . S
C552 C550 1.415 . S
C552 C557 1.425 1_445 S
C552 C559 1.409 1_455 S
C553 H545 0.930 . S
C553 C551 1.419 . S
C553 C554 1.362 . S
C554 H546 0.930 1_455 S
C554 C553 1.362 . S
C554 C557 1.409 1_455 S
C555 H547 0.930 . S
C555 C556 1.355 1_565 S
C555 C557 1.415 . S
C556 C555 1.355 1_545 S
C556 C558 1.419 . S
C557 C552 1.425 1_665 S
C557 C554 1.409 1_655 S
C557 C555 1.415 . S
C558 H548 0.930 . S
C558 C556 1.419 . S
C558 C559 1.362 . S
C559 H549 0.930 1_655 S
C559 C552 1.409 1_655 S
C559 C558 1.362 . S
H560 C566 0.930 . S
H561 C569 0.930 . S
H562 C570 0.930 . S
H563 C571 0.930 . S
H564 C574 0.930 . S
H565 C575 0.930 . S
C566 H560 0.930 . S
C566 C567 1.355 . S
C566 C568 1.415 . S
C567 C566 1.355 . S
C567 C569 1.419 . S
C568 C566 1.415 . S
C568 C573 1.425 . S
C568 C575 1.409 . S
C569 H561 0.930 . S
C569 C567 1.419 . S
C569 C570 1.362 . S
C570 H562 0.930 . S
C570 C569 1.362 . S
C570 C573 1.409 . S
C571 H563 0.930 . S
C571 C572 1.355 . S
C571 C573 1.415 . S
C572 C571 1.355 . S
C572 C574 1.419 . S
C573 C568 1.425 . S
C573 C570 1.409 . S
C573 C571 1.415 . S
C574 H564 0.930 . S
C574 C572 1.419 . S
C574 C575 1.362 . S
C575 H565 0.930 . S
C575 C568 1.409 . S
C575 C574 1.362 . S
H576 C582 0.930 . S
H577 C585 0.930 . S
H578 C586 0.930 . S
H579 C587 0.930 . S
H580 C590 0.930 . S
H581 C591 0.930 . S
C582 H576 0.930 . S
C582 C583 1.355 . S
C582 C584 1.415 . S
C583 C582 1.355 . S
C583 C585 1.419 . S
C584 C582 1.415 . S
C584 C589 1.425 . S
C584 C591 1.409 . S
C585 H577 0.930 . S
C585 C583 1.419 . S
C585 C586 1.362 . S
C586 H578 0.930 . S
C586 C585 1.362 . S
C586 C589 1.409 . S
C587 H579 0.930 . S
C587 C588 1.355 . S
C587 C589 1.415 . S
C588 C587 1.355 . S
C588 C590 1.419 . S
C589 C584 1.425 . S
C589 C586 1.409 . S
C589 C587 1.415 . S
C590 H580 0.930 . S
C590 C588 1.419 . S
C590 C591 1.362 . S
C591 H581 0.930 . S
C591 C584 1.409 . S
C591 C590 1.362 . S
H592 C598 0.930 . S
H593 C601 0.930 . S
H594 C602 0.930 . S
H595 C603 0.930 . S
H596 C606 0.930 . S
H597 C607 0.930 . S
C598 H592 0.930 . S
C598 C599 1.355 . S
C598 C600 1.415 . S
C599 C598 1.355 . S
C599 C601 1.419 1_455 S
C600 C598 1.415 . S
C600 C605 1.425 1_445 S
C600 C607 1.409 1_545 S
C601 H593 0.930 . S
C601 C599 1.419 1_655 S
C601 C602 1.362 . S
C602 H594 0.930 . S
C602 C601 1.362 . S
C602 C605 1.409 1_545 S
C603 H595 0.930 . S
C603 C604 1.355 . S
C603 C605 1.415 . S
C604 C603 1.355 . S
C604 C606 1.419 1_655 S
C605 C600 1.425 1_665 S
C605 C602 1.409 1_565 S
C605 C603 1.415 . S
C606 H596 0.930 . S
C606 C604 1.419 1_455 S
C606 C607 1.362 . S
C607 H597 0.930 . S
C607 C600 1.409 1_565 S
C607 C606 1.362 . S
H608 C614 0.930 . S
H609 C617 0.930 . S
H610 C618 0.933 . S
H611 C619 0.930 . S
H612 C622 0.930 . S
H613 C623 0.933 . S
C614 H608 0.930 . S
C614 C615 1.355 . S
C614 C616 1.415 . S
C615 C614 1.355 . S
C615 C617 1.419 . S
C616 C614 1.415 . S
C616 C621 1.425 1_465 S
C616 C623 1.410 1_455 S
C617 H609 0.930 . S
C617 C615 1.419 . S
C617 C618 1.359 1_565 S
C618 H610 0.933 . S
C618 C617 1.359 1_545 S
C618 C621 1.410 1_455 S
C619 H611 0.930 . S
C619 C620 1.355 . S
C619 C621 1.415 . S
C620 C619 1.355 . S
C620 C622 1.419 . S
C621 C616 1.425 1_645 S
C621 C618 1.410 1_655 S
C621 C619 1.415 . S
C622 H612 0.930 . S
C622 C620 1.419 . S
C622 C623 1.359 1_545 S
C623 H613 0.933 . S
C623 C616 1.410 1_655 S
C623 C622 1.359 1_565 S
H624 C630 0.930 . S
H625 C633 0.930 . S
H626 C634 0.930 . S
H627 C635 0.930 . S
H628 C638 0.930 . S
H629 C639 0.930 . S
C630 H624 0.930 . S
C630 C631 1.355 . S
C630 C632 1.415 . S
C631 C630 1.355 . S
C631 C633 1.419 . S
C632 C630 1.415 . S
C632 C637 1.425 . S
C632 C639 1.409 . S
C633 H625 0.930 . S
C633 C631 1.419 . S
C633 C634 1.362 . S
C634 H626 0.930 . S
C634 C633 1.362 . S
C634 C637 1.409 . S
C635 H627 0.930 . S
C635 C636 1.355 . S
C635 C637 1.415 . S
C636 C635 1.355 . S
C636 C638 1.419 . S
C637 C632 1.425 . S
C637 C634 1.409 . S
C637 C635 1.415 . S
C638 H628 0.930 . S
C638 C636 1.419 . S
C638 C639 1.362 . S
C639 H629 0.930 . S
C639 C632 1.409 . S
C639 C638 1.362 . S
H640 C646 0.930 . S
H641 C649 0.930 . S
H642 C650 0.930 . S
H643 C651 0.930 . S
H644 C654 0.930 . S
H645 C655 0.930 . S
C646 H640 0.930 . S
C646 C647 1.355 . S
C646 C648 1.415 . S
C647 C646 1.355 . S
C647 C649 1.419 . S
C648 C646 1.415 . S
C648 C653 1.425 . S
C648 C655 1.409 . S
C649 H641 0.930 . S
C649 C647 1.419 . S
C649 C650 1.362 . S
C650 H642 0.930 . S
C650 C649 1.362 . S
C650 C653 1.409 . S
C651 H643 0.930 . S
C651 C652 1.355 . S
C651 C653 1.415 . S
C652 C651 1.355 . S
C652 C654 1.419 . S
C653 C648 1.425 . S
C653 C650 1.409 . S
C653 C651 1.415 . S
C654 H644 0.930 . S
C654 C652 1.419 . S
C654 C655 1.362 . S
C655 H645 0.930 . S
C655 C648 1.409 . S
C655 C654 1.362 . S
H656 C662 0.930 . S
H657 C665 0.930 . S
H658 C666 0.930 . S
H659 C667 0.930 . S
H660 C670 0.930 . S
H661 C671 0.930 . S
C662 H656 0.930 . S
C662 C663 1.355 . S
C662 C664 1.415 . S
C663 C662 1.355 . S
C663 C665 1.419 . S
C664 C662 1.415 . S
C664 C669 1.425 1_554 S
C664 C671 1.409 1_554 S
C665 H657 0.930 . S
C665 C663 1.419 . S
C665 C666 1.362 . S
C666 H658 0.930 . S
C666 C665 1.362 . S
C666 C669 1.409 1_554 S
C667 H659 0.930 . S
C667 C668 1.355 . S
C667 C669 1.415 . S
C668 C667 1.355 . S
C668 C670 1.419 . S
C669 C664 1.425 1_556 S
C669 C666 1.409 1_556 S
C669 C667 1.415 . S
C670 H660 0.930 . S
C670 C668 1.419 . S
C670 C671 1.362 . S
C671 H661 0.930 . S
C671 C664 1.409 1_556 S
C671 C670 1.362 . S
H672 C678 0.930 . S
H673 C681 0.930 1_565 S
H674 C682 0.930 1_565 S
H675 C683 0.930 . S
H676 C686 0.930 . S
H677 C687 0.930 . S
C678 H672 0.930 . S
C678 C679 1.355 . S
C678 C680 1.415 . S
C679 C678 1.355 . S
C679 C681 1.419 . S
C680 C678 1.415 . S
C680 C685 1.425 . S
C680 C687 1.409 . S
C681 H673 0.930 1_545 S
C681 C679 1.419 . S
C681 C682 1.362 . S
C682 H674 0.930 1_545 S
C682 C681 1.362 . S
C682 C685 1.409 . S
C683 H675 0.930 . S
C683 C684 1.355 . S
C683 C685 1.415 . S
C684 C683 1.355 . S
C684 C686 1.419 . S
C685 C680 1.425 . S
C685 C682 1.409 . S
C685 C683 1.415 . S
C686 H676 0.930 . S
C686 C684 1.419 . S
C686 C687 1.362 . S
C687 H677 0.930 . S
C687 C680 1.409 . S
C687 C686 1.362 . S
H688 C694 0.930 . S
H689 C697 0.930 . S
H690 C698 0.930 . S
H691 C699 0.930 . S
H692 C702 0.930 . S
H693 C703 0.930 . S
C694 H688 0.930 . S
C694 C695 1.355 . S
C694 C696 1.415 . S
C695 C694 1.355 . S
C695 C697 1.419 . S
C696 C694 1.415 . S
C696 C701 1.425 1_556 S
C696 C703 1.409 1_556 S
C697 H689 0.930 . S
C697 C695 1.419 . S
C697 C698 1.362 . S
C698 H690 0.930 . S
C698 C697 1.362 . S
C698 C701 1.409 1_556 S
C699 H691 0.930 . S
C699 C700 1.355 . S
C699 C701 1.415 . S
C700 C699 1.355 . S
C700 C702 1.419 . S
C701 C696 1.425 1_554 S
C701 C698 1.409 1_554 S
C701 C699 1.415 . S
C702 H692 0.930 . S
C702 C700 1.419 . S
C702 C703 1.362 . S
C703 H693 0.930 . S
C703 C696 1.409 1_554 S
C703 C702 1.362 . S
H704 C710 0.930 . S
H705 C713 0.930 . S
H706 C714 0.930 . S
H707 C715 0.930 . S
H708 C718 0.930 . S
H709 C719 0.930 . S
C710 H704 0.930 . S
C710 C711 1.355 . S
C710 C712 1.415 . S
C711 C710 1.355 . S
C711 C713 1.419 . S
C712 C710 1.415 . S
C712 C717 1.425 . S
C712 C719 1.409 . S
C713 H705 0.930 . S
C713 C711 1.419 . S
C713 C714 1.362 . S
C714 H706 0.930 . S
C714 C713 1.362 . S
C714 C717 1.409 . S
C715 H707 0.930 . S
C715 C716 1.355 . S
C715 C717 1.415 . S
C716 C715 1.355 . S
C716 C718 1.419 . S
C717 C712 1.425 . S
C717 C714 1.409 . S
C717 C715 1.415 . S
C718 H708 0.930 . S
C718 C716 1.419 . S
C718 C719 1.362 . S
C719 H709 0.930 . S
C719 C712 1.409 . S
C719 C718 1.362 . S
H720 C726 0.930 . S
H721 C729 0.930 . S
H722 C730 0.930 . S
H723 C731 0.930 . S
H724 C734 0.930 . S
H725 C735 0.930 . S
C726 H720 0.930 . S
C726 C727 1.355 . S
C726 C728 1.415 . S
C727 C726 1.355 . S
C727 C729 1.419 . S
C728 C726 1.415 . S
C728 C733 1.425 1_554 S
C728 C735 1.409 1_554 S
C729 H721 0.930 . S
C729 C727 1.419 . S
C729 C730 1.362 . S
C730 H722 0.930 . S
C730 C729 1.362 . S
C730 C733 1.409 1_554 S
C731 H723 0.930 . S
C731 C732 1.355 . S
C731 C733 1.415 . S
C732 C731 1.355 . S
C732 C734 1.419 . S
C733 C728 1.425 1_556 S
C733 C730 1.409 1_556 S
C733 C731 1.415 . S
C734 H724 0.930 . S
C734 C732 1.419 . S
C734 C735 1.362 . S
C735 H725 0.930 . S
C735 C728 1.409 1_556 S
C735 C734 1.362 . S
H736 C742 0.930 . S
H737 C745 0.930 . S
H738 C746 0.930 . S
H739 C747 0.930 . S
H740 C750 0.930 . S
H741 C751 0.930 . S
C742 H736 0.930 . S
C742 C743 1.355 . S
C742 C744 1.415 . S
C743 C742 1.355 . S
C743 C745 1.419 . S
C744 C742 1.415 . S
C744 C749 1.425 . S
C744 C751 1.409 . S
C745 H737 0.930 . S
C745 C743 1.419 . S
C745 C746 1.362 . S
C746 H738 0.930 . S
C746 C745 1.362 . S
C746 C749 1.409 . S
C747 H739 0.930 . S
C747 C748 1.355 . S
C747 C749 1.415 . S
C748 C747 1.355 . S
C748 C750 1.419 . S
C749 C744 1.425 . S
C749 C746 1.409 . S
C749 C747 1.415 . S
C750 H740 0.930 . S
C750 C748 1.419 . S
C750 C751 1.362 . S
C751 H741 0.930 . S
C751 C744 1.409 . S
C751 C750 1.362 . S
H752 C758 0.930 . S
H753 C761 0.930 . S
H754 C762 0.930 . S
H755 C763 0.930 . S
H756 C766 0.930 . S
H757 C767 0.930 . S
C758 H752 0.930 . S
C758 C759 1.355 . S
C758 C760 1.415 . S
C759 C758 1.355 . S
C759 C761 1.419 . S
C760 C758 1.415 . S
C760 C765 1.425 1_554 S
C760 C767 1.409 1_554 S
C761 H753 0.930 . S
C761 C759 1.419 . S
C761 C762 1.362 . S
C762 H754 0.930 . S
C762 C761 1.362 . S
C762 C765 1.409 1_554 S
C763 H755 0.930 . S
C763 C764 1.355 . S
C763 C765 1.415 . S
C764 C763 1.355 . S
C764 C766 1.419 . S
C765 C760 1.425 1_556 S
C765 C762 1.409 1_556 S
C765 C763 1.415 . S
C766 H756 0.930 . S
C766 C764 1.419 . S
C766 C767 1.362 . S
C767 H757 0.930 . S
C767 C760 1.409 1_556 S
C767 C766 1.362 . S
H768 C774 0.930 . S
H769 C777 0.930 . S
H770 C778 0.930 . S
H771 C779 0.930 . S
H772 C782 0.930 . S
H773 C783 0.930 . S
C774 H768 0.930 . S
C774 C775 1.355 . S
C774 C776 1.415 . S
C775 C774 1.355 . S
C775 C777 1.419 . S
C776 C774 1.415 . S
C776 C781 1.425 . S
C776 C783 1.409 . S
C777 H769 0.930 . S
C777 C775 1.419 . S
C777 C778 1.362 . S
C778 H770 0.930 . S
C778 C777 1.362 . S
C778 C781 1.409 . S
C779 H771 0.930 . S
C779 C780 1.355 . S
C779 C781 1.415 . S
C780 C779 1.355 . S
C780 C782 1.419 . S
C781 C776 1.425 . S
C781 C778 1.409 . S
C781 C779 1.415 . S
C782 H772 0.930 . S
C782 C780 1.419 . S
C782 C783 1.362 . S
C783 H773 0.930 . S
C783 C776 1.409 . S
C783 C782 1.362 . S
H784 C790 0.930 . S
H785 C793 0.930 . S
H786 C794 0.930 . S
H787 C795 0.930 . S
H788 C798 0.930 . S
H789 C799 0.930 . S
C790 H784 0.930 . S
C790 C791 1.355 . S
C790 C792 1.415 . S
C791 C790 1.355 . S
C791 C793 1.419 . S
C792 C790 1.415 . S
C792 C797 1.425 . S
C792 C799 1.409 . S
C793 H785 0.930 . S
C793 C791 1.419 . S
C793 C794 1.362 . S
C794 H786 0.930 . S
C794 C793 1.362 . S
C794 C797 1.409 . S
C795 H787 0.930 . S
C795 C796 1.355 . S
C795 C797 1.415 . S
C796 C795 1.355 . S
C796 C798 1.419 . S
C797 C792 1.425 . S
C797 C794 1.409 . S
C797 C795 1.415 . S
C798 H788 0.930 . S
C798 C796 1.419 . S
C798 C799 1.362 . S
C799 H789 0.930 . S
C799 C792 1.409 . S
C799 C798 1.362 . S
H800 C806 0.930 . S
H801 C809 0.930 . S
H802 C810 0.930 . S
H803 C811 0.930 . S
H804 C814 0.930 . S
H805 C815 0.930 . S
C806 H800 0.930 . S
C806 C807 1.355 . S
C806 C808 1.415 . S
C807 C806 1.355 . S
C807 C809 1.419 . S
C808 C806 1.415 . S
C808 C813 1.425 . S
C808 C815 1.409 . S
C809 H801 0.930 . S
C809 C807 1.419 . S
C809 C810 1.362 . S
C810 H802 0.930 . S
C810 C809 1.362 . S
C810 C813 1.409 . S
C811 H803 0.930 . S
C811 C812 1.355 . S
C811 C813 1.415 . S
C812 C811 1.355 . S
C812 C814 1.419 . S
C813 C808 1.425 . S
C813 C810 1.409 . S
C813 C811 1.415 . S
C814 H804 0.930 . S
C814 C812 1.419 . S
C814 C815 1.362 . S
C815 H805 0.930 . S
C815 C808 1.409 . S
C815 C814 1.362 . S
H816 C822 0.930 . S
H817 C825 0.930 . S
H818 C826 0.930 . S
H819 C827 0.930 . S
H820 C830 0.930 . S
H821 C831 0.930 . S
C822 H816 0.930 . S
C822 C823 1.355 . S
C822 C824 1.415 . S
C823 C822 1.355 . S
C823 C825 1.419 . S
C824 C822 1.415 . S
C824 C829 1.425 . S
C824 C831 1.409 . S
C825 H817 0.930 . S
C825 C823 1.419 . S
C825 C826 1.362 . S
C826 H818 0.930 . S
C826 C825 1.362 . S
C826 C829 1.409 . S
C827 H819 0.930 . S
C827 C828 1.355 . S
C827 C829 1.415 . S
C828 C827 1.355 . S
C828 C830 1.419 . S
C829 C824 1.425 . S
C829 C826 1.409 . S
C829 C827 1.415 . S
C830 H820 0.930 . S
C830 C828 1.419 . S
C830 C831 1.362 . S
C831 H821 0.930 . S
C831 C824 1.409 . S
C831 C830 1.362 . S
H832 C838 0.930 . S
H833 C841 0.930 . S
H834 C842 0.930 . S
H835 C843 0.930 . S
H836 C846 0.930 . S
H837 C847 0.930 . S
C838 H832 0.930 . S
C838 C839 1.355 . S
C838 C840 1.415 . S
C839 C838 1.355 . S
C839 C841 1.419 . S
C840 C838 1.415 . S
C840 C845 1.425 . S
C840 C847 1.409 . S
C841 H833 0.930 . S
C841 C839 1.419 . S
C841 C842 1.362 . S
C842 H834 0.930 . S
C842 C841 1.362 . S
C842 C845 1.409 . S
C843 H835 0.930 . S
C843 C844 1.355 . S
C843 C845 1.415 . S
C844 C843 1.355 . S
C844 C846 1.419 . S
C845 C840 1.425 . S
C845 C842 1.409 . S
C845 C843 1.415 . S
C846 H836 0.930 . S
C846 C844 1.419 . S
C846 C847 1.362 . S
C847 H837 0.930 . S
C847 C840 1.409 . S
C847 C846 1.362 . S
H848 C854 0.930 . S
H849 C857 0.930 . S
H850 C858 0.930 . S
H851 C859 0.930 . S
H852 C862 0.930 . S
H853 C863 0.930 . S
C854 H848 0.930 . S
C854 C855 1.355 . S
C854 C856 1.415 . S
C855 C854 1.355 . S
C855 C857 1.419 . S
C856 C854 1.415 . S
C856 C861 1.425 . S
C856 C863 1.409 . S
C857 H849 0.930 . S
C857 C855 1.419 . S
C857 C858 1.362 . S
C858 H850 0.930 . S
C858 C857 1.362 . S
C858 C861 1.409 . S
C859 H851 0.930 . S
C859 C860 1.355 . S
C859 C861 1.415 . S
C860 C859 1.355 . S
C860 C862 1.419 . S
C861 C856 1.425 . S
C861 C858 1.409 . S
C861 C859 1.415 . S
C862 H852 0.930 . S
C862 C860 1.419 . S
C862 C863 1.362 . S
C863 H853 0.930 . S
C863 C856 1.409 . S
C863 C862 1.362 . S
H864 C870 0.930 . S
H865 C873 0.930 . S
H866 C874 0.930 . S
H867 C875 0.930 . S
H868 C878 0.930 . S
H869 C879 0.930 . S
C870 H864 0.930 . S
C870 C871 1.355 . S
C870 C872 1.415 . S
C871 C870 1.355 . S
C871 C873 1.419 . S
C872 C870 1.415 . S
C872 C877 1.425 . S
C872 C879 1.409 . S
C873 H865 0.930 . S
C873 C871 1.419 . S
C873 C874 1.362 . S
C874 H866 0.930 . S
C874 C873 1.362 . S
C874 C877 1.409 . S
C875 H867 0.930 . S
C875 C876 1.355 . S
C875 C877 1.415 . S
C876 C875 1.355 . S
C876 C878 1.419 . S
C877 C872 1.425 . S
C877 C874 1.409 . S
C877 C875 1.415 . S
C878 H868 0.930 . S
C878 C876 1.419 . S
C878 C879 1.362 . S
C879 H869 0.930 . S
C879 C872 1.409 . S
C879 C878 1.362 . S
H880 C886 0.930 . S
H881 C889 0.930 . S
H882 C890 0.930 . S
H883 C891 0.930 . S
H884 C894 0.930 . S
H885 C895 0.930 . S
C886 H880 0.930 . S
C886 C887 1.355 . S
C886 C888 1.415 . S
C887 C886 1.355 . S
C887 C889 1.419 . S
C888 C886 1.415 . S
C888 C893 1.425 . S
C888 C895 1.409 . S
C889 H881 0.930 . S
C889 C887 1.419 . S
C889 C890 1.362 . S
C890 H882 0.930 . S
C890 C889 1.362 . S
C890 C893 1.409 . S
C891 H883 0.930 . S
C891 C892 1.355 . S
C891 C893 1.415 . S
C892 C891 1.355 . S
C892 C894 1.419 . S
C893 C888 1.425 . S
C893 C890 1.409 . S
C893 C891 1.415 . S
C894 H884 0.930 . S
C894 C892 1.419 . S
C894 C895 1.362 . S
C895 H885 0.930 . S
C895 C888 1.409 . S
C895 C894 1.362 . S
H896 C902 0.930 . S
H897 C905 0.930 . S
H898 C906 0.930 . S
H899 C907 0.930 . S
H900 C910 0.930 . S
H901 C911 0.930 . S
C902 H896 0.930 . S
C902 C903 1.355 . S
C902 C904 1.415 . S
C903 C902 1.355 . S
C903 C905 1.419 . S
C904 C902 1.415 . S
C904 C909 1.425 . S
C904 C911 1.409 . S
C905 H897 0.930 . S
C905 C903 1.419 . S
C905 C906 1.362 . S
C906 H898 0.930 . S
C906 C905 1.362 . S
C906 C909 1.409 . S
C907 H899 0.930 . S
C907 C908 1.355 . S
C907 C909 1.415 . S
C908 C907 1.355 . S
C908 C910 1.419 . S
C909 C904 1.425 . S
C909 C906 1.409 . S
C909 C907 1.415 . S
C910 H900 0.930 . S
C910 C908 1.419 . S
C910 C911 1.362 . S
C911 H901 0.930 . S
C911 C904 1.409 . S
C911 C910 1.362 . S
H912 C918 0.930 . S
H913 C921 0.930 . S
H914 C922 0.930 . S
H915 C923 0.930 . S
H916 C926 0.930 . S
H917 C927 0.930 . S
C918 H912 0.930 . S
C918 C919 1.355 . S
C918 C920 1.415 . S
C919 C918 1.355 . S
C919 C921 1.419 . S
C920 C918 1.415 . S
C920 C925 1.425 . S
C920 C927 1.409 . S
C921 H913 0.930 . S
C921 C919 1.419 . S
C921 C922 1.362 . S
C922 H914 0.930 . S
C922 C921 1.362 . S
C922 C925 1.409 . S
C923 H915 0.930 . S
C923 C924 1.355 . S
C923 C925 1.415 . S
C924 C923 1.355 . S
C924 C926 1.419 . S
C925 C920 1.425 . S
C925 C922 1.409 . S
C925 C923 1.415 . S
C926 H916 0.930 . S
C926 C924 1.419 . S
C926 C927 1.362 . S
C927 H917 0.930 . S
C927 C920 1.409 . S
C927 C926 1.362 . S
H928 C934 0.930 . S
H929 C937 0.930 . S
H930 C938 0.930 . S
H931 C939 0.930 . S
H932 C942 0.930 . S
H933 C943 0.930 . S
C934 H928 0.930 . S
C934 C935 1.355 . S
C934 C936 1.415 . S
C935 C934 1.355 . S
C935 C937 1.419 . S
C936 C934 1.415 . S
C936 C941 1.425 . S
C936 C943 1.409 . S
C937 H929 0.930 . S
C937 C935 1.419 . S
C937 C938 1.362 . S
C938 H930 0.930 . S
C938 C937 1.362 . S
C938 C941 1.409 . S
C939 H931 0.930 . S
C939 C940 1.355 . S
C939 C941 1.415 . S
C940 C939 1.355 . S
C940 C942 1.419 . S
C941 C936 1.425 . S
C941 C938 1.409 . S
C941 C939 1.415 . S
C942 H932 0.930 . S
C942 C940 1.419 . S
C942 C943 1.362 . S
C943 H933 0.930 . S
C943 C936 1.409 . S
C943 C942 1.362 . S
H944 C950 0.930 . S
H945 C953 0.930 . S
H946 C954 0.930 . S
H947 C955 0.930 . S
H948 C958 0.930 . S
H949 C959 0.930 . S
C950 H944 0.930 . S
C950 C951 1.355 . S
C950 C952 1.415 . S
C951 C950 1.355 . S
C951 C953 1.419 . S
C952 C950 1.415 . S
C952 C957 1.425 . S
C952 C959 1.409 . S
C953 H945 0.930 . S
C953 C951 1.419 . S
C953 C954 1.362 . S
C954 H946 0.930 . S
C954 C953 1.362 . S
C954 C957 1.409 . S
C955 H947 0.930 . S
C955 C956 1.355 . S
C955 C957 1.415 . S
C956 C955 1.355 . S
C956 C958 1.419 . S
C957 C952 1.425 . S
C957 C954 1.409 . S
C957 C955 1.415 . S
C958 H948 0.930 . S
C958 C956 1.419 . S
C958 C959 1.362 . S
C959 H949 0.930 . S
C959 C952 1.409 . S
C959 C958 1.362 . S
H960 C966 0.930 . S
H961 C969 0.930 . S
H962 C970 0.930 . S
H963 C971 0.930 . S
H964 C974 0.930 . S
H965 C975 0.930 . S
C966 H960 0.930 . S
C966 C967 1.355 . S
C966 C968 1.415 . S
C967 C966 1.355 . S
C967 C969 1.419 . S
C968 C966 1.415 . S
C968 C973 1.425 . S
C968 C975 1.409 . S
C969 H961 0.930 . S
C969 C967 1.419 . S
C969 C970 1.362 . S
C970 H962 0.930 . S
C970 C969 1.362 . S
C970 C973 1.409 . S
C971 H963 0.930 . S
C971 C972 1.355 . S
C971 C973 1.415 . S
C972 C971 1.355 . S
C972 C974 1.419 . S
C973 C968 1.425 . S
C973 C970 1.409 . S
C973 C971 1.415 . S
C974 H964 0.930 . S
C974 C972 1.419 . S
C974 C975 1.362 . S
C975 H965 0.930 . S
C975 C968 1.409 . S
C975 C974 1.362 . S
H976 C982 0.930 . S
H977 C985 0.930 . S
H978 C986 0.930 . S
H979 C987 0.930 . S
H980 C990 0.930 . S
H981 C991 0.930 . S
C982 H976 0.930 . S
C982 C983 1.355 . S
C982 C984 1.415 . S
C983 C982 1.355 . S
C983 C985 1.419 . S
C984 C982 1.415 . S
C984 C989 1.425 . S
C984 C991 1.409 . S
C985 H977 0.930 . S
C985 C983 1.419 . S
C985 C986 1.362 . S
C986 H978 0.930 . S
C986 C985 1.362 . S
C986 C989 1.409 . S
C987 H979 0.930 . S
C987 C988 1.355 . S
C987 C989 1.415 . S
C988 C987 1.355 . S
C988 C990 1.419 . S
C989 C984 1.425 . S
C989 C986 1.409 . S
C989 C987 1.415 . S
C990 H980 0.930 . S
C990 C988 1.419 . S
C990 C991 1.362 . S
C991 H981 0.930 . S
C991 C984 1.409 . S
C991 C990 1.362 . S
H992 C998 0.930 . S
H993 C1001 0.930 . S
H994 C1002 0.930 . S
H995 C1003 0.930 . S
H996 C1006 0.930 . S
H997 C1007 0.930 . S
C998 H992 0.930 . S
C998 C999 1.355 . S
C998 C1000 1.415 . S
C999 C998 1.355 . S
C999 C1001 1.419 . S
C1000 C998 1.415 . S
C1000 C1005 1.425 . S
C1000 C1007 1.409 . S
C1001 H993 0.930 . S
C1001 C999 1.419 . S
C1001 C1002 1.362 . S
C1002 H994 0.930 . S
C1002 C1001 1.362 . S
C1002 C1005 1.409 . S
C1003 H995 0.930 . S
C1003 C1004 1.355 . S
C1003 C1005 1.415 . S
C1004 C1003 1.355 . S
C1004 C1006 1.419 . S
C1005 C1000 1.425 . S
C1005 C1002 1.409 . S
C1005 C1003 1.415 . S
C1006 H996 0.930 . S
C1006 C1004 1.419 . S
C1006 C1007 1.362 . S
C1007 H997 0.930 . S
C1007 C1000 1.409 . S
C1007 C1006 1.362 . S
H1008 C1014 0.930 . S
H1009 C1017 0.930 . S
H1010 C1018 0.930 . S
H1011 C1019 0.930 . S
H1012 C1022 0.930 . S
H1013 C1023 0.930 . S
C1014 H1008 0.930 . S
C1014 C1015 1.355 . S
C1014 C1016 1.415 . S
C1015 C1014 1.355 . S
C1015 C1017 1.419 . S
C1016 C1014 1.415 . S
C1016 C1021 1.425 . S
C1016 C1023 1.409 . S
C1017 H1009 0.930 . S
C1017 C1015 1.419 . S
C1017 C1018 1.362 . S
C1018 H1010 0.930 . S
C1018 C1017 1.362 . S
C1018 C1021 1.409 . S
C1019 H1011 0.930 . S
C1019 C1020 1.355 . S
C1019 C1021 1.415 . S
C1020 C1019 1.355 . S
C1020 C1022 1.419 . S
C1021 C1016 1.425 . S
C1021 C1018 1.409 . S
C1021 C1019 1.415 . S
C1022 H1012 0.930 . S
C1022 C1020 1.419 . S
C1022 C1023 1.362 . S
C1023 H1013 0.930 . S
C1023 C1016 1.409 . S
C1023 C1022 1.362 . S
H1024 C1030 0.930 . S
H1025 C1033 0.930 . S
H1026 C1034 0.930 . S
H1027 C1035 0.930 . S
H1028 C1038 0.930 . S
H1029 C1039 0.930 . S
C1030 H1024 0.930 . S
C1030 C1031 1.355 . S
C1030 C1032 1.415 . S
C1031 C1030 1.355 . S
C1031 C1033 1.419 . S
C1032 C1030 1.415 . S
C1032 C1037 1.425 . S
C1032 C1039 1.409 . S
C1033 H1025 0.930 . S
C1033 C1031 1.419 . S
C1033 C1034 1.362 . S
C1034 H1026 0.930 . S
C1034 C1033 1.362 . S
C1034 C1037 1.409 . S
C1035 H1027 0.930 . S
C1035 C1036 1.355 . S
C1035 C1037 1.415 . S
C1036 C1035 1.355 . S
C1036 C1038 1.419 . S
C1037 C1032 1.425 . S
C1037 C1034 1.409 . S
C1037 C1035 1.415 . S
C1038 H1028 0.930 . S
C1038 C1036 1.419 . S
C1038 C1039 1.362 . S
C1039 H1029 0.930 . S
C1039 C1032 1.409 . S
C1039 C1038 1.362 . S
H1040 C1046 0.930 . S
H1041 C1049 0.930 . S
H1042 C1050 0.930 . S
H1043 C1051 0.930 . S
H1044 C1054 0.930 . S
H1045 C1055 0.930 . S
C1046 H1040 0.930 . S
C1046 C1047 1.355 . S
C1046 C1048 1.415 . S
C1047 C1046 1.355 . S
C1047 C1049 1.419 . S
C1048 C1046 1.415 . S
C1048 C1053 1.425 . S
C1048 C1055 1.409 . S
C1049 H1041 0.930 . S
C1049 C1047 1.419 . S
C1049 C1050 1.362 . S
C1050 H1042 0.930 . S
C1050 C1049 1.362 . S
C1050 C1053 1.409 . S
C1051 H1043 0.930 . S
C1051 C1052 1.355 . S
C1051 C1053 1.415 . S
C1052 C1051 1.355 . S
C1052 C1054 1.419 . S
C1053 C1048 1.425 . S
C1053 C1050 1.409 . S
C1053 C1051 1.415 . S
C1054 H1044 0.930 . S
C1054 C1052 1.419 . S
C1054 C1055 1.362 . S
C1055 H1045 0.930 . S
C1055 C1048 1.409 . S
C1055 C1054 1.362 . S
H1056 C1062 0.930 . S
H1057 C1065 0.930 . S
H1058 C1066 0.930 . S
H1059 C1067 0.930 . S
H1060 C1070 0.930 . S
H1061 C1071 0.930 . S
C1062 H1056 0.930 . S
C1062 C1063 1.355 . S
C1062 C1064 1.415 . S
C1063 C1062 1.355 . S
C1063 C1065 1.419 . S
C1064 C1062 1.415 . S
C1064 C1069 1.425 . S
C1064 C1071 1.409 . S
C1065 H1057 0.930 . S
C1065 C1063 1.419 . S
C1065 C1066 1.362 . S
C1066 H1058 0.930 . S
C1066 C1065 1.362 . S
C1066 C1069 1.409 . S
C1067 H1059 0.930 . S
C1067 C1068 1.355 . S
C1067 C1069 1.415 . S
C1068 C1067 1.355 . S
C1068 C1070 1.419 . S
C1069 C1064 1.425 . S
C1069 C1066 1.409 . S
C1069 C1067 1.415 . S
C1070 H1060 0.930 . S
C1070 C1068 1.419 . S
C1070 C1071 1.362 . S
C1071 H1061 0.930 . S
C1071 C1064 1.409 . S
C1071 C1070 1.362 . S
H1072 C1078 0.930 . S
H1073 C1081 0.930 . S
H1074 C1082 0.930 . S
H1075 C1083 0.930 . S
H1076 C1086 0.930 . S
H1077 C1087 0.930 . S
C1078 H1072 0.930 . S
C1078 C1079 1.355 . S
C1078 C1080 1.415 . S
C1079 C1078 1.355 . S
C1079 C1081 1.419 . S
C1080 C1078 1.415 . S
C1080 C1085 1.425 . S
C1080 C1087 1.409 . S
C1081 H1073 0.930 . S
C1081 C1079 1.419 . S
C1081 C1082 1.362 . S
C1082 H1074 0.930 . S
C1082 C1081 1.362 . S
C1082 C1085 1.409 . S
C1083 H1075 0.930 . S
C1083 C1084 1.355 . S
C1083 C1085 1.415 . S
C1084 C1083 1.355 . S
C1084 C1086 1.419 . S
C1085 C1080 1.425 . S
C1085 C1082 1.409 . S
C1085 C1083 1.415 . S
C1086 H1076 0.930 . S
C1086 C1084 1.419 . S
C1086 C1087 1.362 . S
C1087 H1077 0.930 . S
C1087 C1080 1.409 . S
C1087 C1086 1.362 . S
H1088 C1094 0.930 . S
H1089 C1097 0.930 . S
H1090 C1098 0.930 . S
H1091 C1099 0.930 . S
H1092 C1102 0.930 . S
H1093 C1103 0.930 . S
C1094 H1088 0.930 . S
C1094 C1095 1.355 . S
C1094 C1096 1.415 . S
C1095 C1094 1.355 . S
C1095 C1097 1.419 . S
C1096 C1094 1.415 . S
C1096 C1101 1.425 . S
C1096 C1103 1.409 . S
C1097 H1089 0.930 . S
C1097 C1095 1.419 . S
C1097 C1098 1.362 . S
C1098 H1090 0.930 . S
C1098 C1097 1.362 . S
C1098 C1101 1.409 . S
C1099 H1091 0.930 . S
C1099 C1100 1.355 . S
C1099 C1101 1.415 . S
C1100 C1099 1.355 . S
C1100 C1102 1.419 . S
C1101 C1096 1.425 . S
C1101 C1098 1.409 . S
C1101 C1099 1.415 . S
C1102 H1092 0.930 . S
C1102 C1100 1.419 . S
C1102 C1103 1.362 . S
C1103 H1093 0.930 . S
C1103 C1096 1.409 . S
C1103 C1102 1.362 . S
H1104 C1110 0.930 . S
H1105 C1113 0.930 . S
H1106 C1114 0.930 . S
H1107 C1115 0.930 . S
H1108 C1118 0.930 . S
H1109 C1119 0.930 . S
C1110 H1104 0.930 . S
C1110 C1111 1.355 . S
C1110 C1112 1.415 . S
C1111 C1110 1.355 . S
C1111 C1113 1.419 . S
C1112 C1110 1.415 . S
C1112 C1117 1.425 . S
C1112 C1119 1.409 . S
C1113 H1105 0.930 . S
C1113 C1111 1.419 . S
C1113 C1114 1.362 . S
C1114 H1106 0.930 . S
C1114 C1113 1.362 . S
C1114 C1117 1.409 . S
C1115 H1107 0.930 . S
C1115 C1116 1.355 . S
C1115 C1117 1.415 . S
C1116 C1115 1.355 . S
C1116 C1118 1.419 . S
C1117 C1112 1.425 . S
C1117 C1114 1.409 . S
C1117 C1115 1.415 . S
C1118 H1108 0.930 . S
C1118 C1116 1.419 . S
C1118 C1119 1.362 . S
C1119 H1109 0.930 . S
C1119 C1112 1.409 . S
C1119 C1118 1.362 . S
H1120 C1126 0.930 . S
H1121 C1129 0.930 . S
H1122 C1130 0.930 . S
H1123 C1131 0.930 . S
H1124 C1134 0.930 . S
H1125 C1135 0.930 . S
C1126 H1120 0.930 . S
C1126 C1127 1.355 . S
C1126 C1128 1.415 . S
C1127 C1126 1.355 . S
C1127 C1129 1.419 . S
C1128 C1126 1.415 . S
C1128 C1133 1.425 . S
C1128 C1135 1.409 . S
C1129 H1121 0.930 . S
C1129 C1127 1.419 . S
C1129 C1130 1.362 . S
C1130 H1122 0.930 . S
C1130 C1129 1.362 . S
C1130 C1133 1.409 . S
C1131 H1123 0.930 . S
C1131 C1132 1.355 . S
C1131 C1133 1.415 . S
C1132 C1131 1.355 . S
C1132 C1134 1.419 . S
C1133 C1128 1.425 . S
C1133 C1130 1.409 . S
C1133 C1131 1.415 . S
C1134 H1124 0.930 . S
C1134 C1132 1.419 . S
C1134 C1135 1.362 . S
C1135 H1125 0.930 . S
C1135 C1128 1.409 . S
C1135 C1134 1.362 . S
H1136 C1142 0.930 . S
H1137 C1145 0.930 . S
H1138 C1146 0.930 . S
H1139 C1147 0.930 . S
H1140 C1150 0.930 . S
H1141 C1151 0.930 . S
C1142 H1136 0.930 . S
C1142 C1143 1.355 . S
C1142 C1144 1.415 . S
C1143 C1142 1.355 . S
C1143 C1145 1.419 . S
C1144 C1142 1.415 . S
C1144 C1149 1.425 . S
C1144 C1151 1.409 . S
C1145 H1137 0.930 . S
C1145 C1143 1.419 . S
C1145 C1146 1.362 . S
C1146 H1138 0.930 . S
C1146 C1145 1.362 . S
C1146 C1149 1.409 . S
C1147 H1139 0.930 . S
C1147 C1148 1.355 . S
C1147 C1149 1.415 . S
C1148 C1147 1.355 . S
C1148 C1150 1.419 . S
C1149 C1144 1.425 . S
C1149 C1146 1.409 . S
C1149 C1147 1.415 . S
C1150 H1140 0.930 . S
C1150 C1148 1.419 . S
C1150 C1151 1.362 . S
C1151 H1141 0.930 . S
C1151 C1144 1.409 . S
C1151 C1150 1.362 . S
H1152 C1158 0.930 . S
H1153 C1161 0.930 . S
H1154 C1162 0.930 . S
H1155 C1163 0.930 . S
H1156 C1166 0.930 . S
H1157 C1167 0.930 . S
C1158 H1152 0.930 . S
C1158 C1159 1.355 . S
C1158 C1160 1.415 . S
C1159 C1158 1.355 . S
C1159 C1161 1.419 . S
C1160 C1158 1.415 . S
C1160 C1165 1.425 . S
C1160 C1167 1.409 . S
C1161 H1153 0.930 . S
C1161 C1159 1.419 . S
C1161 C1162 1.362 . S
C1162 H1154 0.930 . S
C1162 C1161 1.362 . S
C1162 C1165 1.409 . S
C1163 H1155 0.930 . S
C1163 C1164 1.355 . S
C1163 C1165 1.415 . S
C1164 C1163 1.355 . S
C1164 C1166 1.419 . S
C1165 C1160 1.425 . S
C1165 C1162 1.409 . S
C1165 C1163 1.415 . S
C1166 H1156 0.930 . S
C1166 C1164 1.419 . S
C1166 C1167 1.362 . S
C1167 H1157 0.930 . S
C1167 C1160 1.409 . S
C1167 C1166 1.362 . S
C535 C8 2.247 . S
C540 C74 2.261 . S
C551 C107 2.254 . S
C556 C41 2.254 . S
C567 C206 2.251 . S
C572 C140 2.257 . S
C583 C173 2.261 . S
C588 C239 2.246 . S
C599 C338 2.264 . S
C604 C272 2.244 . S
C615 C305 2.243 . S
C620 C371 2.265 . S
C631 C470 2.246 . S
C636 C404 2.262 . S
C647 C437 2.259 . S
C652 C503 2.250 . S
C663 C17 1.544 . S
C668 C347 1.540 . S
C679 C380 1.537 . S
C684 C50 1.547 . S
C695 C281 1.523 . S
C700 C83 1.561 . S
C711 C314 1.561 . S
C716 C116 1.523 . S
C727 C479 1.562 . S
C732 C149 1.522 . S
C743 C512 1.526 . S
C748 C182 1.558 . S
C759 C413 1.547 . S
C764 C215 1.538 . S
C775 C446 1.528 . S
C780 C248 1.556 . S
C791 C28 1.148 . S
C796 C259 1.102 . S
C807 C61 1.134 . S
C812 C160 1.117 . S
C823 C193 1.107 . S
C828 C94 1.144 . S
C839 C226 1.110 . S
C844 C127 1.141 . S
C855 C292 1.103 . S
C860 C523 1.146 . S
C871 C325 1.110 . S
C876 C424 1.140 . S
C887 C358 1.118 . S
C892 C457 1.132 . S
C903 C391 1.124 . S
C908 C490 1.126 . S
C919 N476 1.080 . S
C924 N5 1.056 . S
C935 N38 1.058 . S
C940 N509 1.084 . S
C951 N410 0.993 . S
C956 N71 1.068 . S
C967 N443 0.998 . S
C972 N104 1.064 . S
C983 N344 0.992 . S
C988 N137 1.085 . S
C999 N170 1.062 . S
C1004 N377 1.090 . S
C1015 N278 1.060 . S
C1020 N203 1.053 . S
C1031 N236 1.056 . S
C1036 N311 1.081 . S
C1047 N212 1.014 . S
C1052 N269 1.058 . S
C1063 N245 1.079 . S
C1068 N302 1.056 . S
C1079 N146 1.052 . S
C1084 N335 1.090 . S
C1095 N368 1.090 . S
C1100 N179 1.054 . S
C1111 N80 1.026 . S
C1116 N401 1.055 . S
C1127 N434 1.059 . S
C1132 N113 1.010 . S
C1143 N467 1.056 . S
C1148 N14 1.024 . S
C1159 N47 0.998 . S
C1164 N500 1.088 . S
