# Generated by pormake.
# Topology ftb, (5)-cn, num edge types: 1
# Building blocks:
#     Node 0, Type 0, BuildingBlock: XOMCOT_clean_sbu_0, # of connection points: 5
#     Node 1, Type 0, BuildingBlock: XOMCOT_clean_sbu_0, # of connection points: 5
#     Node 2, Type 0, BuildingBlock: XOMCOT_clean_sbu_0, # of connection points: 5
#     Node 3, Type 0, BuildingBlock: XOMCOT_clean_sbu_0, # of connection points: 5
#     Node 4, Type 0, BuildingBlock: XOMCOT_clean_sbu_0, # of connection points: 5
#     Node 5, Type 0, BuildingBlock: XOMCOT_clean_sbu_0, # of connection points: 5
#     Node 6, Type 0, BuildingBlock: XOMCOT_clean_sbu_0, # of connection points: 5
#     Node 7, Type 0, BuildingBlock: XOMCOT_clean_sbu_0, # of connection points: 5
#     Edge 8, Type (0, 0), BuildingBlock: XUDNAN_clean_linker_2, # of connection points: 2
#     Edge 9, Type (0, 0), BuildingBlock: XUDNAN_clean_linker_2, # of connection points: 2
#     Edge 10, Type (0, 0), BuildingBlock: XUDNAN_clean_linker_2, # of connection points: 2
#     Edge 11, Type (0, 0), BuildingBlock: XUDNAN_clean_linker_2, # of connection points: 2
#     Edge 12, Type (0, 0), BuildingBlock: XUDNAN_clean_linker_2, # of connection points: 2
#     Edge 13, Type (0, 0), BuildingBlock: XUDNAN_clean_linker_2, # of connection points: 2
#     Edge 14, Type (0, 0), BuildingBlock: XUDNAN_clean_linker_2, # of connection points: 2
#     Edge 15, Type (0, 0), BuildingBlock: XUDNAN_clean_linker_2, # of connection points: 2
#     Edge 16, Type (0, 0), BuildingBlock: XUDNAN_clean_linker_2, # of connection points: 2
#     Edge 17, Type (0, 0), BuildingBlock: XUDNAN_clean_linker_2, # of connection points: 2
#     Edge 18, Type (0, 0), BuildingBlock: XUDNAN_clean_linker_2, # of connection points: 2
#     Edge 19, Type (0, 0), BuildingBlock: XUDNAN_clean_linker_2, # of connection points: 2
#     Edge 20, Type (0, 0), BuildingBlock: XUDNAN_clean_linker_2, # of connection points: 2
#     Edge 21, Type (0, 0), BuildingBlock: XUDNAN_clean_linker_2, # of connection points: 2
#     Edge 22, Type (0, 0), BuildingBlock: XUDNAN_clean_linker_2, # of connection points: 2
#     Edge 23, Type (0, 0), BuildingBlock: XUDNAN_clean_linker_2, # of connection points: 2
#     Edge 24, Type (0, 0), BuildingBlock: XUDNAN_clean_linker_2, # of connection points: 2
#     Edge 25, Type (0, 0), BuildingBlock: XUDNAN_clean_linker_2, # of connection points: 2
#     Edge 26, Type (0, 0), BuildingBlock: XUDNAN_clean_linker_2, # of connection points: 2
#     Edge 27, Type (0, 0), BuildingBlock: XUDNAN_clean_linker_2, # of connection points: 2
# Relax obj value: 0.116
# Max RMSD: 0.196
# Mean RMSD: 0.196
data_MOF--net-ftb--node1-XOMCOT_clean_sbu_0--edge1-XUDNAN_clean_linker_2
_symmetry_space_group_name_H-M    P1
_symmetry_Int_Tables_number       1
_symmetry_cell_setting            triclinic
loop_
_symmetry_equiv_pos_as_xyz
'x, y, z'
_cell_length_a     55.785072
_cell_length_b     20.676267
_cell_length_c     29.246665
_cell_angle_alpha  89.986508
_cell_angle_beta   92.301205
_cell_angle_gamma 90.036413
loop_
_atom_site_label
_atom_site_type_symbol
_atom_site_fract_x
_atom_site_fract_y
_atom_site_fract_z
_atom_type_partial_charge
Co0 Co 0.31339 0.00284 0.02002 0.0
C1 C 0.31817 0.91883 0.93618 0.0
C2 C 0.28928 0.98642 0.92902 0.0
C3 C 0.28885 0.94728 0.89084 0.0
N4 N 0.3079 0.9696 0.95744 0.0
N5 N 0.30696 0.90435 0.89534 0.0
H6 H 0.33305 0.89148 0.95051 0.0
H7 H 0.27609 0.02259 0.93659 0.0
C8 C 0.32009 0.1176 0.95821 0.0
O9 O 0.32887 0.08146 0.92604 0.0
N10 N 0.31831 0.03419 0.08253 0.0
C11 C 0.32496 0.9968 0.11861 0.0
C12 C 0.32542 0.03379 0.15772 0.0
C13 C 0.31515 0.09411 0.10024 0.0
N14 N 0.31933 0.0949 0.14627 0.0
C15 C 0.3567 0.92732 0.0246 0.0
C16 C 0.3883 0.03009 0.02154 0.0
C17 C 0.39769 0.96742 0.02625 0.0
C18 C 0.38143 0.9156 0.02765 0.0
C19 C 0.36349 0.03959 0.01819 0.0
N20 N 0.34793 0.98846 0.01845 0.0
H21 H 0.34455 0.88701 0.02762 0.0
H22 H 0.35705 0.08866 0.01756 0.0
H23 H 0.32903 0.94577 0.11671 0.0
H24 H 0.30945 0.13582 0.08029 0.0
O25 O 0.30239 0.92006 0.04342 0.0
O26 O 0.27945 0.00501 0.02689 0.0
O27 O 0.31538 0.09401 0.99707 0.0
C28 C 0.28102 0.94596 0.04144 0.0
H29 H 0.27537 0.94808 0.86318 0.0
H30 H 0.33012 0.0172 0.19203 0.0
H31 H 0.39996 0.07199 0.02221 0.0
H32 H 0.38766 0.86624 0.03141 0.0
Co33 Co 0.65908 0.00203 0.0212 0.0
C34 C 0.66487 0.90268 0.09783 0.0
C35 C 0.65905 0.99853 0.12264 0.0
C36 C 0.66021 0.95696 0.15936 0.0
N37 N 0.6621 0.9652 0.08361 0.0
N38 N 0.66375 0.89629 0.14418 0.0
H39 H 0.66688 0.86244 0.0747 0.0
H40 H 0.6555 0.0497 0.12492 0.0
C41 C 0.65886 0.14884 0.03415 0.0
O42 O 0.64633 0.16139 0.99623 0.0
N43 N 0.65561 0.03774 0.95864 0.0
C44 C 0.63805 0.02122 0.92786 0.0
C45 C 0.64016 0.05743 0.88869 0.0
C46 C 0.66883 0.08259 0.93649 0.0
N47 N 0.65934 0.09697 0.89392 0.0
C48 C 0.61511 0.93273 0.02462 0.0
C49 C 0.58448 0.03685 0.03169 0.0
C50 C 0.57483 0.9742 0.03186 0.0
C51 C 0.59055 0.92179 0.02815 0.0
C52 C 0.60926 0.04568 0.02843 0.0
N53 N 0.6243 0.99397 0.02467 0.0
H54 H 0.62685 0.8915 0.02229 0.0
H55 H 0.61603 0.09412 0.02949 0.0
H56 H 0.62414 0.98611 0.93371 0.0
H57 H 0.68444 0.1062 0.95205 0.0
O58 O 0.66649 0.91867 0.9945 0.0
O59 O 0.69317 0.99378 0.01523 0.0
O60 O 0.66077 0.09112 0.04948 0.0
C61 C 0.68887 0.93662 0.99854 0.0
H62 H 0.65851 0.97092 0.19472 0.0
H63 H 0.62771 0.05656 0.85936 0.0
H64 H 0.57306 0.07877 0.03515 0.0
H65 H 0.58394 0.87252 0.02775 0.0
Co66 Co 0.31891 0.48987 0.52852 0.0
C67 C 0.31834 0.41907 0.43778 0.0
C68 C 0.28432 0.41476 0.46894 0.0
C69 C 0.28287 0.3793 0.42922 0.0
N70 N 0.30673 0.43892 0.47541 0.0
N71 N 0.30422 0.3818 0.40959 0.0
H72 H 0.33678 0.43054 0.43115 0.0
H73 H 0.26963 0.42215 0.49105 0.0
C74 C 0.31718 0.62922 0.4978 0.0
O75 O 0.33137 0.64793 0.53216 0.0
N76 N 0.3311 0.53928 0.58207 0.0
C77 C 0.3534 0.53401 0.60146 0.0
C78 C 0.35466 0.5678 0.64181 0.0
C79 C 0.31893 0.57606 0.61214 0.0
N80 N 0.33308 0.59428 0.64878 0.0
C81 C 0.361 0.41468 0.51716 0.0
C82 C 0.38981 0.51136 0.48409 0.0
C83 C 0.39993 0.45029 0.49322 0.0
C84 C 0.385 0.40142 0.50929 0.0
C85 C 0.36563 0.52272 0.49251 0.0
N86 N 0.35165 0.47499 0.5098 0.0
H87 H 0.34997 0.37639 0.52999 0.0
H88 H 0.3586 0.57038 0.48618 0.0
H89 H 0.36775 0.50494 0.58882 0.0
H90 H 0.29998 0.58691 0.60836 0.0
O91 O 0.31521 0.41598 0.56862 0.0
O92 O 0.28735 0.48998 0.55322 0.0
O93 O 0.31402 0.56919 0.48931 0.0
C94 C 0.29353 0.43689 0.57435 0.0
H95 H 0.26715 0.35414 0.41546 0.0
H96 H 0.37013 0.57075 0.66529 0.0
H97 H 0.40051 0.55035 0.4709 0.0
H98 H 0.39192 0.35364 0.51725 0.0
Co99 Co 0.65956 0.49275 0.5161 0.0
C100 C 0.66395 0.421 0.60691 0.0
C101 C 0.65224 0.51896 0.61483 0.0
C102 C 0.65441 0.49055 0.65741 0.0
N103 N 0.65843 0.47598 0.58266 0.0
N104 N 0.66173 0.42889 0.65273 0.0
H105 H 0.66993 0.37646 0.59169 0.0
H106 H 0.64649 0.56803 0.60842 0.0
C107 C 0.661 0.64028 0.53459 0.0
O108 O 0.64703 0.69077 0.53944 0.0
N109 N 0.66049 0.50824 0.44958 0.0
C110 C 0.65926 0.4608 0.41799 0.0
C111 C 0.66073 0.48725 0.37506 0.0
C112 C 0.66195 0.56383 0.42456 0.0
N113 N 0.66264 0.55212 0.3788 0.0
C114 C 0.61726 0.41421 0.52355 0.0
C115 C 0.58585 0.50296 0.48321 0.0
C116 C 0.57665 0.44478 0.4997 0.0
C117 C 0.59273 0.39959 0.51952 0.0
C118 C 0.6104 0.51542 0.48759 0.0
N119 N 0.6257 0.47203 0.50847 0.0
H120 H 0.62949 0.37932 0.53907 0.0
H121 H 0.61705 0.5602 0.47394 0.0
H122 H 0.65734 0.40991 0.4255 0.0
H123 H 0.66274 0.61177 0.43922 0.0
O124 O 0.67335 0.40765 0.50777 0.0
O125 O 0.69407 0.49709 0.52174 0.0
O126 O 0.65075 0.58617 0.5255 0.0
C127 C 0.69415 0.4355 0.51355 0.0
H128 H 0.65077 0.51367 0.68961 0.0
H129 H 0.66023 0.46036 0.3433 0.0
H130 H 0.57419 0.53847 0.46658 0.0
H131 H 0.58638 0.35392 0.53256 0.0
Co132 Co 0.826 0.97592 0.53166 0.0
C133 C 0.82314 0.89635 0.44463 0.0
C134 C 0.80998 0.99206 0.43263 0.0
C135 C 0.8076 0.95741 0.39229 0.0
N136 N 0.82029 0.95454 0.46578 0.0
N137 N 0.8158 0.89695 0.39974 0.0
H138 H 0.83017 0.8537 0.46175 0.0
H139 H 0.80333 0.04041 0.43718 0.0
C140 C 0.82331 0.11618 0.4983 0.0
O141 O 0.84222 0.11176 0.47314 0.0
N142 N 0.83127 0.99613 0.59688 0.0
C143 C 0.846 0.96256 0.62566 0.0
C144 C 0.8463 0.99115 0.66813 0.0
C145 C 0.82287 0.04561 0.62261 0.0
N146 N 0.83178 0.04343 0.66663 0.0
C147 C 0.87308 0.94307 0.50567 0.0
C148 C 0.89637 0.04804 0.54582 0.0
C149 C 0.90994 0.99619 0.53021 0.0
C150 C 0.89806 0.94417 0.50884 0.0
C151 C 0.87126 0.04471 0.54241 0.0
N152 N 0.85989 0.99227 0.52289 0.0
H153 H 0.86446 0.90001 0.4926 0.0
H154 H 0.86102 0.08235 0.55818 0.0
H155 H 0.85626 0.92064 0.61616 0.0
H156 H 0.81047 0.08208 0.60963 0.0
O157 O 0.82786 0.88436 0.54519 0.0
O158 O 0.7946 0.94362 0.54383 0.0
O159 O 0.81607 0.06799 0.52116 0.0
C160 C 0.80475 0.88745 0.54956 0.0
H161 H 0.79931 0.9746 0.36046 0.0
H162 H 0.85689 0.97513 0.69783 0.0
H163 H 0.90499 0.08849 0.56333 0.0
H164 H 0.90799 0.90291 0.49684 0.0
Co165 Co 0.16886 0.01383 0.51637 0.0
C166 C 0.16591 0.93306 0.60369 0.0
C167 C 0.20195 0.95573 0.58687 0.0
C168 C 0.20271 0.9166 0.62498 0.0
N169 N 0.17887 0.96571 0.57255 0.0
N170 N 0.18009 0.90256 0.63565 0.0
H171 H 0.1466 0.93191 0.60398 0.0
H172 H 0.21747 0.97558 0.57096 0.0
C173 C 0.17382 0.11186 0.59132 0.0
O174 O 0.16497 0.07043 0.62012 0.0
N175 N 0.15949 0.06025 0.46025 0.0
C176 C 0.13997 0.04806 0.43295 0.0
C177 C 0.14038 0.08741 0.39497 0.0
C178 C 0.17173 0.10648 0.43794 0.0
N179 N 0.16038 0.12414 0.39781 0.0
C180 C 0.12387 0.95113 0.52733 0.0
C181 C 0.09775 0.0603 0.54778 0.0
C182 C 0.08602 1.0003 0.54534 0.0
C183 C 0.09942 0.94538 0.53467 0.0
C184 C 0.12236 0.0639 0.54041 0.0
N185 N 0.13524 0.0094 0.53153 0.0
H186 H 0.13381 0.90832 0.51876 0.0
H187 H 0.13078 0.11088 0.54057 0.0
H188 H 0.12663 0.01159 0.43935 0.0
H189 H 0.18877 0.12587 0.4505 0.0
O190 O 0.17152 0.93437 0.48152 0.0
O191 O 0.2008 0.00519 0.49482 0.0
O192 O 0.17438 0.09876 0.54871 0.0
C193 C 0.19394 0.95022 0.47729 0.0
H194 H 0.21869 0.90079 0.64407 0.0
H195 H 0.12742 0.08679 0.36643 0.0
H196 H 0.08803 0.10409 0.55532 0.0
H197 H 0.09102 0.89831 0.53117 0.0
Co198 Co 0.82444 0.49913 0.01731 0.0
C199 C 0.82426 0.39889 0.94173 0.0
C200 C 0.80673 0.48658 0.92065 0.0
C201 C 0.80573 0.44378 0.88441 0.0
N202 N 0.81863 0.45916 0.95668 0.0
N203 N 0.81677 0.38833 0.89741 0.0
H204 H 0.83343 0.36316 0.96286 0.0
H205 H 0.79868 0.53398 0.92081 0.0
C206 C 0.82556 0.64374 1.0036 0.0
O207 O 0.8392 0.65403 0.04051 0.0
N208 N 0.83017 0.53736 0.07876 0.0
C209 C 0.84941 0.5245 0.10681 0.0
C210 C 0.84734 0.55685 0.14747 0.0
C211 C 0.81621 0.57685 0.10407 0.0
N212 N 0.82669 0.59038 0.14583 0.0
C213 C 0.86829 0.42736 0.01991 0.0
C214 C 0.89917 0.52841 1.0034 0.0
C215 C 0.90896 0.46758 1.01464 0.0
C216 C 0.89299 0.41635 0.02145 0.0
C217 C 0.8742 0.53721 1.00147 0.0
N218 N 0.85904 0.48745 1.01112 0.0
H219 H 0.85667 0.38752 0.02765 0.0
H220 H 0.86743 0.58466 0.9935 0.0
H221 H 0.86398 0.49253 0.09915 0.0
H222 H 0.79884 0.59506 0.09232 0.0
O223 O 0.81648 0.41805 0.04655 0.0
O224 O 0.79056 0.49543 0.02686 0.0
O225 O 0.82346 0.58691 0.98667 0.0
C226 C 0.79437 0.43844 0.04423 0.0
H227 H 0.79682 0.45236 0.85142 0.0
H228 H 0.85992 0.55504 0.17662 0.0
H229 H 0.91064 0.56967 0.99778 0.0
H230 H 0.89946 0.36798 0.02889 0.0
Co231 Co 0.16994 0.50575 1.01323 0.0
C232 C 0.17192 0.42646 0.1024 0.0
C233 C 0.19784 0.50267 0.0991 0.0
C234 C 0.20208 0.46937 0.13907 0.0
N235 N 0.1788 0.47693 0.0758 0.0
N236 N 0.18597 0.42105 0.14137 0.0
H237 H 0.15796 0.39237 0.09296 0.0
H238 H 0.20864 0.54187 0.08676 0.0
C239 C 0.16227 0.62069 0.07361 0.0
O240 O 0.15384 0.58364 0.10569 0.0
N241 N 0.16238 0.53519 0.95088 0.0
C242 C 0.1559 0.49738 0.91489 0.0
C243 C 0.15497 0.53457 0.87565 0.0
C244 C 0.165 0.59524 0.93299 0.0
N245 N 0.16062 0.59598 0.8871 0.0
C246 C 0.12739 0.42866 0.0236 0.0
C247 C 0.09532 0.53067 0.0196 0.0
C248 C 0.08636 0.46787 0.02472 0.0
C249 C 0.10278 0.41637 0.02645 0.0
C250 C 0.12 0.5408 0.01724 0.0
N251 N 0.13584 0.49044 0.02092 0.0
H252 H 0.13963 0.38831 0.02262 0.0
H253 H 0.12617 0.58934 1.01109 0.0
H254 H 0.15259 0.44593 0.91679 0.0
H255 H 0.17073 0.63717 0.95269 0.0
O256 O 0.17999 0.4222 0.99011 0.0
O257 O 0.20338 0.50807 1.00041 0.0
O258 O 0.16799 0.59735 0.03522 0.0
C259 C 0.20126 0.44812 0.9879 0.0
H260 H 0.21642 0.4791 0.16416 0.0
H261 H 0.15044 0.51787 0.8413 0.0
H262 H 0.08336 0.57192 0.01753 0.0
H263 H 0.09665 0.36683 0.02887 0.0
H264 H 0.2912 0.26077 0.38358 0.0
H265 H 0.3304 0.42944 0.34062 0.0
H266 H 0.33741 0.3763 0.26603 0.0
H267 H 0.32999 0.14316 0.33227 0.0
H268 H 0.30568 0.08866 0.31739 0.0
H269 H 0.30375 0.14106 0.36627 0.0
H270 H 0.26362 0.18675 0.33273 0.0
H271 H 0.2655 0.13521 0.28339 0.0
H272 H 0.26243 0.22138 0.27608 0.0
H273 H 0.33776 0.30463 0.19345 0.0
H274 H 0.33645 0.21675 0.13532 0.0
H275 H 0.29937 0.09358 0.22906 0.0
C276 C 0.30129 0.28645 0.35845 0.0
C277 C 0.31013 0.34945 0.36766 0.0
C278 C 0.32357 0.38113 0.33425 0.0
C279 C 0.32746 0.35142 0.29174 0.0
C280 C 0.31811 0.28953 0.28346 0.0
C281 C 0.3057 0.25705 0.31641 0.0
C282 C 0.2983 0.19005 0.30021 0.0
C283 C 0.31014 0.13765 0.33085 0.0
C284 C 0.27083 0.18297 0.29796 0.0
C285 C 0.30828 0.18973 0.25279 0.0
C286 C 0.31935 0.24779 0.24329 0.0
C287 C 0.32929 0.25891 0.20085 0.0
C288 C 0.32833 0.20904 0.16788 0.0
C289 C 0.3179 0.14846 0.1778 0.0
C290 C 0.30761 0.13928 0.22072 0.0
H291 H 0.64768 0.87873 0.23125 0.0
H292 H 0.684 0.78039 0.12263 0.0
H293 H 0.68817 0.68328 0.17163 0.0
H294 H 0.6841 0.81304 0.32529 0.0
H295 H 0.65946 0.80615 0.36302 0.0
H296 H 0.65902 0.86776 0.3194 0.0
H297 H 0.61808 0.82522 0.28731 0.0
H298 H 0.61834 0.76362 0.33089 0.0
H299 H 0.61509 0.74127 0.2714 0.0
H300 H 0.68884 0.59671 0.23311 0.0
H301 H 0.68492 0.52632 0.30017 0.0
H302 H 0.64836 0.67987 0.37054 0.0
C303 C 0.65672 0.83722 0.21757 0.0
C304 C 0.66558 0.83813 0.17249 0.0
C305 C 0.67683 0.78148 0.15644 0.0
C306 C 0.67942 0.726 0.18431 0.0
C307 C 0.67069 0.72727 0.22847 0.0
C308 C 0.6595 0.7814 0.24499 0.0
C309 C 0.65155 0.76998 0.29368 0.0
C310 C 0.66429 0.81704 0.32733 0.0
C311 C 0.62414 0.77534 0.29593 0.0
C312 C 0.65996 0.70077 0.30207 0.0
C313 C 0.67099 0.67731 0.26391 0.0
C314 C 0.68012 0.61468 0.26295 0.0
C315 C 0.67765 0.57476 0.30139 0.0
C316 C 0.66607 0.59671 0.34092 0.0
C317 C 0.6574 0.66132 0.34122 0.0
H318 H 0.30905 0.70932 0.65734 0.0
H319 H 0.34413 0.55485 0.73445 0.0
H320 H 0.33987 0.61619 0.80594 0.0
H321 H 0.33615 0.83827 0.71886 0.0
H322 H 0.31014 0.88997 0.71861 0.0
H323 H 0.31341 0.83178 0.67349 0.0
H324 H 0.27218 0.78156 0.69064 0.0
H325 H 0.26862 0.84032 0.73539 0.0
H326 H 0.26656 0.75525 0.74801 0.0
H327 H 0.33522 0.69685 0.86817 0.0
H328 H 0.32805 0.78963 0.91853 0.0
H329 H 0.296 0.89502 0.80312 0.0
C330 C 0.31519 0.68796 0.68952 0.0
C331 C 0.32685 0.62704 0.6904 0.0
C332 C 0.33518 0.6013 0.73304 0.0
C333 C 0.33284 0.63582 0.77384 0.0
C334 C 0.32203 0.69647 0.77185 0.0
C335 C 0.31305 0.72227 0.73099 0.0
C336 C 0.30316 0.7899 0.73874 0.0
C337 C 0.31652 0.84046 0.71076 0.0
C338 C 0.27601 0.79188 0.72751 0.0
C339 C 0.30856 0.79831 0.78992 0.0
C340 C 0.31933 0.74354 0.80821 0.0
C341 C 0.32664 0.73992 0.8543 0.0
C342 C 0.32269 0.79335 0.88268 0.0
C343 C 0.31151 0.85024 0.86517 0.0
C344 C 0.30436 0.85228 0.81793 0.0
H345 H 0.64976 0.29991 0.65893 0.0
H346 H 0.68496 0.45704 0.73297 0.0
H347 H 0.69083 0.38682 0.80083 0.0
H348 H 0.61754 0.24112 0.75268 0.0
H349 H 0.62026 0.15668 0.73851 0.0
H350 H 0.62091 0.21687 0.69407 0.0
H351 H 0.66186 0.17308 0.66927 0.0
H352 H 0.66129 0.11257 0.7136 0.0
H353 H 0.68647 0.16694 0.71092 0.0
H354 H 0.69101 0.30078 0.86305 0.0
H355 H 0.68405 0.20828 0.91444 0.0
H356 H 0.64836 0.10573 0.80148 0.0
C357 C 0.65917 0.31889 0.68911 0.0
C358 C 0.66708 0.3842 0.6903 0.0
C359 C 0.67876 0.40746 0.73106 0.0
C360 C 0.68223 0.36774 0.76986 0.0
C361 C 0.67385 0.3042 0.76803 0.0
C362 C 0.66255 0.27978 0.7287 0.0
C363 C 0.65397 0.2109 0.73697 0.0
C364 C 0.62654 0.20614 0.73015 0.0
C365 C 0.66665 0.16304 0.70584 0.0
C366 C 0.66185 0.20097 0.78706 0.0
C367 C 0.67354 0.25513 0.80418 0.0
C368 C 0.68198 0.25796 0.84984 0.0
C369 C 0.67807 0.20474 0.87888 0.0
C370 C 0.66563 0.14889 0.86262 0.0
C371 C 0.65778 0.14734 0.81562 0.0
H372 H 0.82288 0.17517 0.66671 0.0
H373 H 0.83066 0.00771 0.75541 0.0
H374 H 0.82741 0.0774 0.82298 0.0
H375 H 0.85714 0.2844 0.73832 0.0
H376 H 0.8382 0.35373 0.72732 0.0
H377 H 0.83996 0.29085 0.68496 0.0
H378 H 0.79387 0.2766 0.6843 0.0
H379 H 0.79194 0.33977 0.72646 0.0
H380 H 0.77943 0.26111 0.73727 0.0
H381 H 0.82543 0.16517 0.88213 0.0
H382 H 0.8226 0.26459 0.92818 0.0
H383 H 0.81568 0.37784 0.80333 0.0
C384 C 0.8235 0.15317 0.70031 0.0
C385 C 0.82726 0.08546 0.70538 0.0
C386 C 0.8282 0.05914 0.75027 0.0
C387 C 0.82627 0.09846 0.78909 0.0
C388 C 0.82323 0.1648 0.78313 0.0
C389 C 0.82161 0.19215 0.73993 0.0
C390 C 0.8187 0.26531 0.74372 0.0
C391 C 0.83975 0.30065 0.7223 0.0
C392 C 0.79455 0.28697 0.72163 0.0
C393 C 0.81919 0.27447 0.79558 0.0
C394 C 0.82183 0.2157 0.81754 0.0
C395 C 0.82327 0.2115 0.86525 0.0
C396 C 0.82182 0.26857 0.89128 0.0
C397 C 0.81889 0.3298 0.86994 0.0
C398 C 0.81761 0.33219 0.82116 0.0
H399 H 0.18523 0.60362 0.80908 0.0
H400 H 0.13789 0.71065 0.89488 0.0
H401 H 0.13653 0.80053 0.83838 0.0
H402 H 0.21982 0.745 0.77456 0.0
H403 H 0.22403 0.71418 0.7178 0.0
H404 H 0.22078 0.65897 0.76479 0.0
H405 H 0.18539 0.60333 0.72011 0.0
H406 H 0.18841 0.65907 0.67336 0.0
H407 H 0.16003 0.65111 0.70022 0.0
H408 H 0.13816 0.87531 0.76847 0.0
H409 H 0.14758 0.93561 0.69788 0.0
H410 H 0.1971 0.78473 0.66177 0.0
C411 C 0.17472 0.64627 0.81591 0.0
C412 C 0.16152 0.65033 0.85613 0.0
C413 C 0.14814 0.70696 0.86433 0.0
C414 C 0.14719 0.75791 0.83229 0.0
C415 C 0.16017 0.75216 0.7926 0.0
C416 C 0.17415 0.69832 0.7849 0.0
C417 C 0.18727 0.70521 0.74063 0.0
C418 C 0.21459 0.70589 0.75003 0.0
C419 C 0.17982 0.65148 0.70657 0.0
C420 C 0.17824 0.7708 0.72418 0.0
C421 C 0.16231 0.79672 0.75422 0.0
C422 C 0.15084 0.8557 0.7451 0.0
C423 C 0.15612 0.88945 0.70484 0.0
C424 C 0.17308 0.86493 0.6746 0.0
C425 C 0.18418 0.80472 0.68453 0.0
H426 H 0.8201 0.90222 0.30657 0.0
H427 H 0.80938 0.76941 0.41866 0.0
H428 H 0.80705 0.67835 0.36398 0.0
H429 H 0.78078 0.82063 0.22072 0.0
H430 H 0.80055 0.83654 0.17476 0.0
H431 H 0.79979 0.89122 0.22261 0.0
H432 H 0.84578 0.87709 0.23581 0.0
H433 H 0.84627 0.82192 0.18822 0.0
H434 H 0.85799 0.79697 0.24379 0.0
H435 H 0.8069 0.60056 0.29734 0.0
H436 H 0.81262 0.5412 0.22508 0.0
H437 H 0.82385 0.72197 0.1547 0.0
C438 C 0.81705 0.85404 0.31956 0.0
C439 C 0.81489 0.84337 0.36732 0.0
C440 C 0.81134 0.77917 0.38267 0.0
C441 C 0.80976 0.72706 0.35165 0.0
C442 C 0.81188 0.73927 0.30499 0.0
C443 C 0.81568 0.80112 0.28896 0.0
C444 C 0.81871 0.80032 0.23732 0.0
C445 C 0.79876 0.83949 0.2124 0.0
C446 C 0.84367 0.82556 0.22561 0.0
C447 C 0.81618 0.72834 0.22684 0.0
C448 C 0.81197 0.69423 0.26644 0.0
C449 C 0.80994 0.62696 0.26615 0.0
C450 C 0.81299 0.59356 0.22489 0.0
C451 C 0.81796 0.62685 0.18404 0.0
C452 C 0.81923 0.6954 0.18501 0.0
H453 H 0.13284 0.19114 0.33406 0.0
H454 H 0.20652 0.15681 0.38107 0.0
H455 H 0.22055 0.22609 0.31879 0.0
H456 H 0.14287 0.18973 0.21314 0.0
H457 H 0.12198 0.25408 0.19954 0.0
H458 H 0.11741 0.20255 0.24813 0.0
H459 H 0.11654 0.3027 0.30109 0.0
H460 H 0.12091 0.35458 0.25263 0.0
H461 H 0.14128 0.35891 0.30196 0.0
H462 H 0.2269 0.29552 0.25007 0.0
H463 H 0.22523 0.36899 0.18387 0.0
H464 H 0.14748 0.3615 0.18007 0.0
C465 C 0.15195 0.19784 0.3312 0.0
C466 C 0.16856 0.1679 0.36276 0.0
C467 C 0.19338 0.17928 0.35795 0.0
C468 C 0.20155 0.21816 0.3223 0.0
C469 C 0.18475 0.24585 0.29152 0.0
C470 C 0.16045 0.23688 0.29583 0.0
C471 C 0.1462 0.27376 0.25866 0.0
C472 C 0.13123 0.22723 0.22806 0.0
C473 C 0.13029 0.32556 0.27986 0.0
C474 C 0.16633 0.30444 0.23248 0.0
C475 C 0.18839 0.28728 0.25213 0.0
C476 C 0.20972 0.30952 0.23468 0.0
C477 C 0.20856 0.35153 0.19701 0.0
C478 C 0.18624 0.37173 0.17677 0.0
C479 C 0.16481 0.34669 0.19441 0.0
H480 H 0.53694 0.04 0.99008 0.0
H481 H 0.5535 0.88356 0.08513 0.0
H482 H 0.51023 0.86374 0.09306 0.0
H483 H 0.48539 0.10058 0.04719 0.0
H484 H 0.46874 0.11953 0.99481 0.0
H485 H 0.50105 0.12136 0.99649 0.0
H486 H 0.50127 0.0404 0.92889 0.0
H487 H 0.46897 0.03825 0.92705 0.0
H488 H 0.48581 0.9642 0.93342 0.0
H489 H 0.46513 0.86204 0.09178 0.0
H490 H 0.4215 0.87808 0.0811 0.0
H491 H 0.4341 0.03353 0.98497 0.0
C492 C 0.53147 0.00188 1.01281 0.0
C493 C 0.54867 0.9632 0.03688 0.0
C494 C 0.5407 0.91328 0.06586 0.0
C495 C 0.51615 0.90184 0.07078 0.0
C496 C 0.4997 0.94058 0.0464 0.0
C497 C 0.50699 0.98954 0.01794 0.0
C498 C 0.4856 0.02387 0.9954 0.0
C499 C 0.48517 0.09558 1.00932 0.0
C500 C 0.48541 0.01619 0.94309 0.0
C501 C 0.46516 0.98673 0.0158 0.0
C502 C 0.47368 0.93896 0.04517 0.0
C503 C 0.45824 0.89898 0.06857 0.0
C504 C 0.43341 0.90816 0.06193 0.0
C505 C 0.42414 0.9568 0.0319 0.0
C506 C 0.44043 0.99628 1.00849 0.0
H507 H 0.43775 0.5325 0.51335 0.0
H508 H 0.42136 0.33994 0.46169 0.0
H509 H 0.46466 0.31682 0.45861 0.0
H510 H 0.48909 0.56021 0.44294 0.0
H511 H 0.50551 0.60408 0.4873 0.0
H512 H 0.4732 0.60539 0.48486 0.0
H513 H 0.47303 0.56406 0.56851 0.0
H514 H 0.50532 0.56211 0.5711 0.0
H515 H 0.48855 0.49017 0.58365 0.0
H516 H 0.51005 0.31339 0.46384 0.0
H517 H 0.55381 0.33269 0.4725 0.0
H518 H 0.54021 0.52823 0.51855 0.0
C519 C 0.44318 0.48583 0.5006 0.0
C520 C 0.42602 0.438 0.48795 0.0
C521 C 0.43408 0.37713 0.47227 0.0
C522 C 0.45866 0.36359 0.47018 0.0
C523 C 0.47505 0.41151 0.48357 0.0
C524 C 0.46763 0.47161 0.49806 0.0
C525 C 0.48885 0.51465 0.51068 0.0
C526 C 0.48918 0.57462 0.47958 0.0
C527 C 0.48893 0.53385 0.5615 0.0
C528 C 0.50937 0.4693 0.50121 0.0
C529 C 0.50107 0.40991 0.4858 0.0
C530 C 0.51675 0.35984 0.47567 0.0
C531 C 0.54155 0.37106 0.48097 0.0
C532 C 0.55042 0.43199 0.49598 0.0
C533 C 0.534 0.48142 0.5064 0.0
H534 H 0.04936 0.08028 0.51388 0.0
H535 H 0.06366 0.90648 0.59371 0.0
H536 H 0.02024 0.89071 0.6017 0.0
H537 H -0.00256 0.13476 0.57842 0.0
H538 H 0.98146 0.16439 0.52788 0.0
H539 H 0.0138 0.16474 0.53089 0.0
H540 H 0.01422 0.09815 0.45592 0.0
H541 H 0.98193 0.09728 0.45279 0.0
H542 H -0.00166 0.02223 0.45235 0.0
H543 H 0.97579 0.88836 0.59607 0.0
H544 H 0.93235 0.90176 0.57937 0.0
H545 H 0.94599 0.07909 0.50562 0.0
C546 C 0.04336 0.03968 0.53385 0.0
C547 C 0.05993 0.99442 0.55303 0.0
C548 C 0.05132 0.94127 0.5782 0.0
C549 C 0.02669 0.93213 0.58319 0.0
C550 C 0.01085 0.97683 0.56314 0.0
C551 C 0.01876 0.02987 0.53928 0.0
C552 C -0.00222 0.06907 0.51959 0.0
C553 C -0.00239 0.13729 0.54046 0.0
C554 C -0.0019 0.07181 0.46705 0.0
C555 C 0.97688 0.029 0.53541 0.0
C556 C 0.98492 0.97611 0.56058 0.0
C557 C 0.96924 0.92995 0.5769 0.0
C558 C 0.94466 0.93778 0.5671 0.0
C559 C 0.93597 0.99145 0.54139 0.0
C560 C 0.95225 0.0381 0.52581 0.0
H561 H 0.94599 0.5246 0.96813 0.0
H562 H 0.93232 0.38947 0.07792 0.0
H563 H 0.97568 0.37182 0.08983 0.0
H564 H -0.00292 0.44206 0.92357 0.0
H565 H 0.01325 0.51543 0.91218 0.0
H566 H 0.98093 0.51573 0.91054 0.0
H567 H 0.98136 0.60836 0.9702 0.0
H568 H 0.01367 0.60844 0.97195 0.0
H569 H -0.00215 0.59809 0.02399 0.0
H570 H 0.02064 0.36898 0.09083 0.0
H571 H 0.06413 0.38535 0.08282 0.0
H572 H 0.04908 0.52495 0.97457 0.0
C573 C 0.95204 0.49149 0.99483 0.0
C574 C 0.93545 0.45774 0.02152 0.0
C575 C 0.9444 0.41467 0.05598 0.0
C576 C 0.9691 0.4046 0.06335 0.0
C577 C 0.98486 0.43828 0.03634 0.0
C578 C 0.97674 0.48116 1.00296 0.0
C579 C -0.0024 0.51255 0.97963 0.0
C580 C -0.00282 0.4954 0.92845 0.0
C581 C -0.00239 0.58623 0.98689 0.0
C582 C 0.01865 0.48082 1.00532 0.0
C583 C 0.01088 0.43778 0.03765 0.0
C584 C 0.02695 0.40252 0.06558 0.0
C585 C 0.05164 0.41187 0.0606 0.0
C586 C 0.0601 0.45643 0.02814 0.0
C587 C 0.04325 0.49103 1.00006 0.0
H588 H 0.20306 0.32409 0.95415 0.0
H589 H 0.24768 0.48923 0.99174 0.0
H590 H 0.28385 0.42654 0.97544 0.0
H591 H 0.23932 0.20748 1.00516 0.0
H592 H 0.23436 0.14689 0.9615 0.0
H593 H 0.21196 0.20758 0.97017 0.0
H594 H 0.2134 0.24054 0.88472 0.0
H595 H 0.23604 0.18007 0.87598 0.0
H596 H 0.24164 0.2633 0.86146 0.0
H597 H 0.31527 0.34109 0.96753 0.0
H598 H 0.33883 0.23927 0.9671 0.0
H599 H 0.27428 0.13291 0.92924 0.0
C600 C 0.22042 0.34739 0.95799 0.0
C601 C 0.22253 0.41149 0.97411 0.0
C602 C 0.24558 0.44019 0.9792 0.0
C603 C 0.26628 0.40508 0.96986 0.0
C604 C 0.26366 0.3416 0.95469 0.0
C605 C 0.24129 0.3132 0.94831 0.0
C606 C 0.2435 0.2428 0.93511 0.0
C607 C 0.23159 0.19863 0.97008 0.0
C608 C 0.23302 0.23101 0.88642 0.0
C609 C 0.27053 0.23542 0.93714 0.0
C610 C 0.28192 0.29305 0.94803 0.0
C611 C 0.30667 0.2961 0.95743 0.0
C612 C 0.31996 0.23837 0.95687 0.0
C613 C 0.30841 0.17913 0.94649 0.0
C614 C 0.28361 0.17808 0.93539 0.0
H615 H 0.81202 0.75263 0.04952 0.0
H616 H 0.79857 0.64651 0.92312 0.0
H617 H 0.76289 0.71383 0.90578 0.0
H618 H 0.75282 0.76561 0.07947 0.0
H619 H 0.75561 0.84596 0.10298 0.0
H620 H 0.78141 0.79382 0.10234 0.0
H621 H 0.80432 0.88202 0.05819 0.0
H622 H 0.77835 0.93379 0.05854 0.0
H623 H 0.79144 0.91316 1.0051 0.0
H624 H 0.72502 0.78027 0.90886 0.0
H625 H 0.69118 0.85288 0.92646 0.0
H626 H 0.73089 0.92113 0.04738 0.0
C627 C 0.80212 0.74498 0.01737 0.0
C628 C 0.80805 0.69377 0.98784 0.0
C629 C 0.79425 0.68477 0.94657 0.0
C630 C 0.77394 0.72292 0.93637 0.0
C631 C 0.76787 0.77072 0.96739 0.0
C632 C 0.78188 0.78294 1.00652 0.0
C633 C 0.77077 0.83493 0.03539 0.0
C634 C 0.7648 0.8085 0.08284 0.0
C635 C 0.7872 0.89452 0.03952 0.0
C636 C 0.74817 0.84931 1.00674 0.0
C637 C 0.74666 0.81128 0.96787 0.0
C638 C 0.72629 0.81155 0.93852 0.0
C639 C 0.70713 0.85244 0.94886 0.0
C640 C 0.70875 0.89313 0.98767 0.0
C641 C 0.72954 0.8916 0.01679 0.0
H642 H 0.20444 0.64461 0.11777 0.0
H643 H 0.14368 0.73747 0.04881 0.0
H644 H 0.16675 0.83954 0.04528 0.0
H645 H 0.23284 0.79184 0.17662 0.0
H646 H 0.26241 0.76404 0.16352 0.0
H647 H 0.23903 0.70636 0.17425 0.0
H648 H 0.24625 0.65227 0.09618 0.0
H649 H 0.26916 0.7104 0.08455 0.0
H650 H 0.24394 0.70025 0.04471 0.0
H651 H 0.19806 0.9231 0.03662 0.0
H652 H 0.2351 0.98238 0.0214 0.0
H653 H 0.27737 0.8302 0.08756 0.0
C654 C 0.19567 0.6875 0.10415 0.0
C655 C 0.17211 0.68447 0.08501 0.0
C656 C 0.16142 0.74014 0.06521 0.0
C657 C 0.17447 0.79797 0.06286 0.0
C658 C 0.19826 0.79844 0.07967 0.0
C659 C 0.20878 0.7446 0.10006 0.0
C660 C 0.23568 0.75324 0.1072 0.0
C661 C 0.24291 0.75394 0.15846 0.0
C662 C 0.24955 0.70096 0.08162 0.0
C663 C 0.23882 0.81925 0.08595 0.0
C664 C 0.21693 0.84511 0.07151 0.0
C665 C 0.21524 0.90385 0.04847 0.0
C666 C 0.23644 0.93699 0.03982 0.0
C667 C 0.25912 0.9108 0.05334 0.0
C668 C 0.26028 0.85139 0.07702 0.0
H669 H 0.66851 0.26968 1.00029 0.0
H670 H 0.68846 0.13736 0.11067 0.0
H671 H 0.72348 0.20512 0.13119 0.0
H672 H 0.72376 0.2944 0.96271 0.0
H673 H 0.72106 0.37943 0.94985 0.0
H674 H 0.69473 0.32931 0.94917 0.0
H675 H 0.67504 0.40336 1.00804 0.0
H676 H 0.70102 0.45531 1.0083 0.0
H677 H 0.69098 0.42213 0.06123 0.0
H678 H 0.76063 0.27255 0.12887 0.0
H679 H 0.79433 0.34502 0.11052 0.0
H680 H 0.74935 0.43766 1.00549 0.0
C681 C 0.67963 0.25638 0.03 0.0
C682 C 0.67566 0.19805 0.05375 0.0
C683 C 0.69101 0.1818 0.09188 0.0
C684 C 0.71103 0.22 0.10386 0.0
C685 C 0.71523 0.27512 0.07805 0.0
C686 C 0.69961 0.29436 0.0427 0.0
C687 C 0.70929 0.35264 0.018 0.0
C688 C 0.71241 0.33801 0.96694 0.0
C689 C 0.69312 0.41188 0.02429 0.0
C690 C 0.73327 0.36097 0.04347 0.0
C691 C 0.73635 0.31593 0.07811 0.0
C692 C 0.75815 0.30943 0.10285 0.0
C693 C 0.77722 0.35033 0.09206 0.0
C694 C 0.77419 0.39743 0.0573 0.0
C695 C 0.75186 0.40319 0.03317 0.0
H696 H 0.24152 0.94897 0.49951 0.0
H697 H 0.18626 0.8446 0.42158 0.0
H698 H 0.21565 0.75863 0.40529 0.0
H699 H 0.29488 0.89727 0.43468 0.0
H700 H 0.31298 0.88921 0.48683 0.0
H701 H 0.28949 0.94907 0.48277 0.0
H702 H 0.27067 0.90111 0.55503 0.0
H703 H 0.29399 0.84134 0.5593 0.0
H704 H 0.263 0.81644 0.55608 0.0
H705 H 0.24929 0.67804 0.40664 0.0
H706 H 0.28218 0.60512 0.43147 0.0
H707 H 0.3145 0.75979 0.51325 0.0
C708 C 0.23581 0.90928 0.4775 0.0
C709 C 0.21177 0.9039 0.46095 0.0
C710 C 0.20471 0.84994 0.43394 0.0
C711 C 0.22132 0.80114 0.42442 0.0
C712 C 0.24477 0.80693 0.44255 0.0
C713 C 0.25194 0.85963 0.46878 0.0
C714 C 0.27672 0.84974 0.49073 0.0
C715 C 0.29457 0.89927 0.47265 0.0
C716 C 0.27604 0.85227 0.54336 0.0
C717 C 0.28214 0.7823 0.47401 0.0
C718 C 0.26379 0.75911 0.44528 0.0
C719 C 0.2639 0.69606 0.42854 0.0
C720 C 0.28273 0.65496 0.44287 0.0
C721 C 0.301 0.67667 0.47437 0.0
C722 C 0.30104 0.7419 0.4887 0.0
H723 H 0.70061 0.30535 0.52219 0.0
H724 H 0.73863 0.48419 0.49749 0.0
H725 H 0.7763 0.42262 0.48928 0.0
H726 H 0.74832 0.23092 0.59031 0.0
H727 H 0.74191 0.15101 0.56844 0.0
H728 H 0.71818 0.20965 0.5714 0.0
H729 H 0.70819 0.19421 0.48467 0.0
H730 H 0.73198 0.13579 0.48144 0.0
H731 H 0.73146 0.20547 0.44437 0.0
H732 H 0.8097 0.33891 0.48063 0.0
H733 H 0.8361 0.24214 0.47935 0.0
H734 H 0.7758 0.12152 0.51397 0.0
C735 C 0.71686 0.33151 0.51498 0.0
C736 C 0.71676 0.39928 0.51014 0.0
C737 C 0.7384 0.43208 0.50133 0.0
C738 C 0.75983 0.39755 0.49646 0.0
C739 C 0.75931 0.33047 0.50115 0.0
C740 C 0.7384 0.29802 0.51081 0.0
C741 C 0.74261 0.22619 0.51569 0.0
C742 C 0.73745 0.20312 0.56435 0.0
C743 C 0.72767 0.1882 0.47937 0.0
C744 C 0.76908 0.22303 0.50683 0.0
C745 C 0.77848 0.28337 0.49809 0.0
C746 C 0.80255 0.29148 0.4878 0.0
C747 C 0.81738 0.23642 0.48695 0.0
C748 C 0.80806 0.17459 0.49696 0.0
C749 C 0.78358 0.16827 0.50678 0.0
H750 H 0.17593 0.23374 0.55624 0.0
H751 H 0.20593 0.10989 0.66336 0.0
H752 H 0.23771 0.19061 0.68061 0.0
H753 H 0.22728 0.28392 0.51287 0.0
H754 H 0.21894 0.36679 0.50175 0.0
H755 H 0.19616 0.30558 0.50358 0.0
H756 H 0.17472 0.36942 0.56634 0.0
H757 H 0.19734 0.43156 0.56431 0.0
H758 H 0.19126 0.39297 0.6179 0.0
H759 H 0.27154 0.26912 0.67079 0.0
H760 H 0.30096 0.34884 0.64363 0.0
H761 H 0.24578 0.43202 0.5532 0.0
C762 C 0.1886 0.2252 0.58464 0.0
C763 C 0.18847 0.16627 0.60882 0.0
C764 C 0.20554 0.1555 0.6451 0.0
C765 C 0.2237 0.20091 0.65497 0.0
C766 C 0.22397 0.25768 0.62927 0.0
C767 C 0.20635 0.27103 0.59593 0.0
C768 C 0.2116 0.33331 0.57108 0.0
C769 C 0.21362 0.32165 0.51929 0.0
C770 C 0.1926 0.38487 0.58049 0.0
C771 C 0.23563 0.35075 0.59362 0.0
C772 C 0.2426 0.30638 0.62691 0.0
C773 C 0.26591 0.30583 0.64627 0.0
C774 C 0.28253 0.35103 0.63061 0.0
C775 C 0.27554 0.39692 0.59682 0.0
C776 C 0.25154 0.39828 0.57971 0.0
H777 H 0.68257 0.71751 0.59762 0.0
H778 H 0.69799 0.59743 0.48143 0.0
H779 H 0.74018 0.62947 0.4878 0.0
H780 H 0.71172 0.84481 0.55349 0.0
H781 H 0.72236 0.87943 0.60713 0.0
H782 H 0.69578 0.83041 0.60495 0.0
H783 H 0.71456 0.755 0.66749 0.0
H784 H 0.74131 0.80413 0.66991 0.0
H785 H 0.74341 0.71853 0.65915 0.0
H786 H 0.77974 0.68458 0.50043 0.0
H787 H 0.80986 0.7722 0.50648 0.0
H788 H 0.76616 0.87322 0.60252 0.0
C789 C 0.69511 0.69557 0.57492 0.0
C790 C 0.68719 0.65019 0.54151 0.0
C791 C 0.70374 0.62702 0.51002 0.0
C792 C 0.72789 0.64592 0.51304 0.0
C793 C 0.73504 0.69093 0.5463 0.0
C794 C 0.71892 0.71676 0.57598 0.0
C795 C 0.72929 0.77538 0.60074 0.0
C796 C 0.71388 0.83605 0.59095 0.0
C797 C 0.73233 0.76246 0.65239 0.0
C798 C 0.75337 0.78006 0.57897 0.0
C799 C 0.75681 0.72911 0.54932 0.0
C800 C 0.77732 0.72441 0.52379 0.0
C801 C 0.79431 0.77431 0.52741 0.0
C802 C 0.7901 0.82916 0.55476 0.0
C803 C 0.76973 0.83131 0.58165 0.0
loop_
_geom_bond_atom_site_label_1
_geom_bond_atom_site_label_2
_geom_bond_distance
_geom_bond_site_symmetry_2
_ccdc_geom_bond_type
Co0 N4 2.148 1_554 S
Co0 N10 2.128 1_565 S
Co0 N20 2.196 . S
Co0 O25 2.351 . S
Co0 O26 2.155 . S
Co0 O27 2.096 1_564 S
C1 N4 1.301 . S
C1 N5 1.328 . S
C1 H6 0.930 . S
C2 C3 1.333 1_545 S
C2 N4 1.317 1_545 S
C2 H7 0.930 . S
C3 C2 1.333 1_565 S
C3 N5 1.350 . S
C3 H29 0.931 . S
N4 Co0 2.148 1_556 S
N4 C1 1.301 . S
N4 C2 1.317 1_565 S
N5 C1 1.328 . S
N5 C3 1.350 . S
H6 C1 0.930 . S
H7 C2 0.930 . S
C8 O9 1.224 . S
C8 O27 1.247 . S
O9 C8 1.224 . S
N10 Co0 2.128 1_545 S
N10 C11 1.355 . S
N10 C13 1.311 . S
C11 N10 1.355 . S
C11 C12 1.363 . S
C11 H23 0.929 1_545 S
C12 C11 1.363 . S
C12 N14 1.375 . S
C12 H30 0.931 . S
C13 N10 1.311 . S
C13 N14 1.347 . S
C13 H24 0.929 . S
N14 C12 1.375 . S
N14 C13 1.347 . S
C15 C18 1.365 . S
C15 N20 1.330 . S
C15 H21 0.929 . S
C16 C17 1.362 1_556 S
C16 C19 1.378 . S
C16 H31 0.929 . S
C17 C16 1.362 1_554 S
C17 C18 1.366 1_545 S
C18 C15 1.365 . S
C18 C17 1.366 1_565 S
C18 H32 0.930 . S
C19 C16 1.378 . S
C19 N20 1.312 1_546 S
C19 H22 0.930 . S
N20 Co0 2.196 . S
N20 C15 1.330 . S
N20 C19 1.312 1_564 S
H21 C15 0.929 . S
H22 C19 0.930 . S
H23 C11 0.929 1_565 S
H24 C13 0.929 . S
O25 Co0 2.351 . S
O25 C28 1.244 . S
O26 Co0 2.155 . S
O26 C28 1.240 . S
O27 Co0 2.096 1_546 S
O27 C8 1.247 . S
C28 O25 1.244 . S
C28 O26 1.240 . S
H29 C3 0.931 . S
H30 C12 0.931 . S
H31 C16 0.929 . S
H32 C18 0.930 . S
Co33 N37 2.148 . S
Co33 N43 2.128 1_564 S
Co33 N53 2.194 . S
Co33 O58 2.351 1_554 S
Co33 O59 2.155 1_554 S
Co33 O60 2.096 1_565 S
C34 N37 1.301 . S
C34 N38 1.328 . S
C34 H39 0.930 . S
C35 C36 1.333 1_545 S
C35 N37 1.317 1_545 S
C35 H40 0.930 . S
C36 C35 1.333 1_565 S
C36 N38 1.350 . S
C36 H62 0.931 . S
N37 Co33 2.148 . S
N37 C34 1.301 . S
N37 C35 1.317 1_565 S
N38 C34 1.328 . S
N38 C36 1.350 . S
H39 C34 0.930 . S
H40 C35 0.930 . S
C41 O42 1.224 . S
C41 O60 1.247 . S
O42 C41 1.224 . S
N43 Co33 2.128 1_546 S
N43 C44 1.355 . S
N43 C46 1.311 . S
C44 N43 1.355 . S
C44 C45 1.363 . S
C44 H56 0.929 1_545 S
C45 C44 1.363 . S
C45 N47 1.375 . S
C45 H63 0.931 . S
C46 N43 1.311 . S
C46 N47 1.347 . S
C46 H57 0.929 . S
N47 C45 1.375 . S
N47 C46 1.347 . S
C48 C51 1.365 . S
C48 N53 1.328 . S
C48 H54 0.929 . S
C49 C50 1.362 . S
C49 C52 1.378 . S
C49 H64 0.929 . S
C50 C49 1.362 . S
C50 C51 1.366 1_545 S
C51 C48 1.365 . S
C51 C50 1.366 1_565 S
C51 H65 0.930 . S
C52 C49 1.378 . S
C52 N53 1.315 1_545 S
C52 H55 0.930 . S
N53 Co33 2.194 . S
N53 C48 1.328 . S
N53 C52 1.315 1_565 S
H54 C48 0.929 . S
H55 C52 0.930 . S
H56 C44 0.929 1_565 S
H57 C46 0.929 . S
O58 Co33 2.351 1_556 S
O58 C61 1.244 . S
O59 Co33 2.155 1_556 S
O59 C61 1.240 . S
O60 Co33 2.096 1_545 S
O60 C41 1.247 . S
C61 O58 1.244 . S
C61 O59 1.240 . S
H62 C36 0.931 . S
H63 C45 0.931 . S
H64 C49 0.929 . S
H65 C51 0.930 . S
Co66 N70 2.148 . S
Co66 N76 2.128 . S
Co66 N86 2.194 . S
Co66 O91 2.351 . S
Co66 O92 2.155 . S
Co66 O93 2.096 . S
C67 N70 1.301 . S
C67 N71 1.328 . S
C67 H72 0.930 . S
C68 C69 1.333 . S
C68 N70 1.317 . S
C68 H73 0.930 . S
C69 C68 1.333 . S
C69 N71 1.350 . S
C69 H95 0.931 . S
N70 Co66 2.148 . S
N70 C67 1.301 . S
N70 C68 1.317 . S
N71 C67 1.328 . S
N71 C69 1.350 . S
H72 C67 0.930 . S
H73 C68 0.930 . S
C74 O75 1.224 . S
C74 O93 1.247 . S
O75 C74 1.224 . S
N76 Co66 2.128 . S
N76 C77 1.355 . S
N76 C79 1.311 . S
C77 N76 1.355 . S
C77 C78 1.363 . S
C77 H89 0.929 . S
C78 C77 1.363 . S
C78 N80 1.375 . S
C78 H96 0.931 . S
C79 N76 1.311 . S
C79 N80 1.347 . S
C79 H90 0.929 . S
N80 C78 1.375 . S
N80 C79 1.347 . S
C81 C84 1.365 . S
C81 N86 1.328 . S
C81 H87 0.929 . S
C82 C83 1.362 . S
C82 C85 1.378 . S
C82 H97 0.929 . S
C83 C82 1.362 . S
C83 C84 1.366 . S
C84 C81 1.365 . S
C84 C83 1.366 . S
C84 H98 0.930 . S
C85 C82 1.378 . S
C85 N86 1.315 . S
C85 H88 0.930 . S
N86 Co66 2.194 . S
N86 C81 1.328 . S
N86 C85 1.315 . S
H87 C81 0.929 . S
H88 C85 0.930 . S
H89 C77 0.929 . S
H90 C79 0.929 . S
O91 Co66 2.351 . S
O91 C94 1.244 . S
O92 Co66 2.155 . S
O92 C94 1.240 . S
O93 Co66 2.096 . S
O93 C74 1.247 . S
C94 O91 1.244 . S
C94 O92 1.240 . S
H95 C69 0.931 . S
H96 C78 0.931 . S
H97 C82 0.929 . S
H98 C84 0.930 . S
Co99 N103 2.148 . S
Co99 N109 2.128 . S
Co99 N119 2.194 . S
Co99 O124 2.351 . S
Co99 O125 2.155 . S
Co99 O126 2.096 . S
C100 N103 1.301 . S
C100 N104 1.328 . S
C100 H105 0.930 . S
C101 C102 1.333 . S
C101 N103 1.317 . S
C101 H106 0.930 . S
C102 C101 1.333 . S
C102 N104 1.350 . S
C102 H128 0.931 . S
N103 Co99 2.148 . S
N103 C100 1.301 . S
N103 C101 1.317 . S
N104 C100 1.328 . S
N104 C102 1.350 . S
H105 C100 0.930 . S
H106 C101 0.930 . S
C107 O108 1.224 . S
C107 O126 1.247 . S
O108 C107 1.224 . S
N109 Co99 2.128 . S
N109 C110 1.355 . S
N109 C112 1.311 . S
C110 N109 1.355 . S
C110 C111 1.363 . S
C110 H122 0.929 . S
C111 C110 1.363 . S
C111 N113 1.375 . S
C111 H129 0.931 . S
C112 N109 1.311 . S
C112 N113 1.347 . S
C112 H123 0.929 . S
N113 C111 1.375 . S
N113 C112 1.347 . S
C114 C117 1.365 . S
C114 N119 1.328 . S
C114 H120 0.929 . S
C115 C116 1.362 . S
C115 C118 1.378 . S
C115 H130 0.929 . S
C116 C115 1.362 . S
C116 C117 1.366 . S
C117 C114 1.365 . S
C117 C116 1.366 . S
C117 H131 0.930 . S
C118 C115 1.378 . S
C118 N119 1.315 . S
C118 H121 0.930 . S
N119 Co99 2.194 . S
N119 C114 1.328 . S
N119 C118 1.315 . S
H120 C114 0.929 . S
H121 C118 0.930 . S
H122 C110 0.929 . S
H123 C112 0.929 . S
O124 Co99 2.351 . S
O124 C127 1.244 . S
O125 Co99 2.155 . S
O125 C127 1.240 . S
O126 Co99 2.096 . S
O126 C107 1.247 . S
C127 O124 1.244 . S
C127 O125 1.240 . S
H128 C102 0.931 . S
H129 C111 0.931 . S
H130 C115 0.929 . S
H131 C117 0.930 . S
Co132 N136 2.148 . S
Co132 N142 2.128 1_565 S
Co132 N152 2.194 . S
Co132 O157 2.351 . S
Co132 O158 2.155 . S
Co132 O159 2.096 1_565 S
C133 N136 1.301 . S
C133 N137 1.328 . S
C133 H138 0.930 . S
C134 C135 1.333 1_545 S
C134 N136 1.317 1_545 S
C134 H139 0.930 . S
C135 C134 1.333 1_565 S
C135 N137 1.350 . S
C135 H161 0.931 . S
N136 Co132 2.148 . S
N136 C133 1.301 . S
N136 C134 1.317 1_565 S
N137 C133 1.328 . S
N137 C135 1.350 . S
H138 C133 0.930 . S
H139 C134 0.930 . S
C140 O141 1.224 . S
C140 O159 1.247 . S
O141 C140 1.224 . S
N142 Co132 2.128 1_545 S
N142 C143 1.355 . S
N142 C145 1.311 . S
C143 N142 1.355 . S
C143 C144 1.363 . S
C143 H155 0.929 1_545 S
C144 C143 1.363 . S
C144 N146 1.375 . S
C144 H162 0.931 . S
C145 N142 1.311 . S
C145 N146 1.347 . S
C145 H156 0.929 . S
N146 C144 1.375 . S
N146 C145 1.347 . S
C147 C150 1.365 . S
C147 N152 1.328 . S
C147 H153 0.929 . S
C148 C149 1.362 . S
C148 C151 1.378 . S
C148 H163 0.929 . S
C149 C148 1.362 . S
C149 C150 1.366 1_545 S
C150 C147 1.365 . S
C150 C149 1.366 1_565 S
C150 H164 0.930 . S
C151 C148 1.378 . S
C151 N152 1.315 1_545 S
C151 H154 0.930 . S
N152 Co132 2.194 . S
N152 C147 1.328 . S
N152 C151 1.315 1_565 S
H153 C147 0.929 . S
H154 C151 0.930 . S
H155 C143 0.929 1_565 S
H156 C145 0.929 . S
O157 Co132 2.351 . S
O157 C160 1.244 . S
O158 Co132 2.155 . S
O158 C160 1.240 . S
O159 Co132 2.096 1_545 S
O159 C140 1.247 . S
C160 O157 1.244 . S
C160 O158 1.240 . S
H161 C135 0.931 . S
H162 C144 0.931 . S
H163 C148 0.929 . S
H164 C150 0.930 . S
Co165 N169 2.148 . S
Co165 N175 2.128 1_565 S
Co165 N185 2.194 . S
Co165 O190 2.351 . S
Co165 O191 2.155 . S
Co165 O192 2.096 1_565 S
C166 N169 1.301 . S
C166 N170 1.328 . S
C166 H171 0.930 . S
C167 C168 1.333 1_545 S
C167 N169 1.317 1_545 S
C167 H172 0.930 . S
C168 C167 1.333 1_565 S
C168 N170 1.350 . S
C168 H194 0.931 . S
N169 Co165 2.148 . S
N169 C166 1.301 . S
N169 C167 1.317 1_565 S
N170 C166 1.328 . S
N170 C168 1.350 . S
H171 C166 0.930 . S
H172 C167 0.930 . S
C173 O174 1.224 . S
C173 O192 1.247 . S
O174 C173 1.224 . S
N175 Co165 2.128 1_545 S
N175 C176 1.355 . S
N175 C178 1.311 . S
C176 N175 1.355 . S
C176 C177 1.363 . S
C176 H188 0.929 1_545 S
C177 C176 1.363 . S
C177 N179 1.375 . S
C177 H195 0.931 . S
C178 N175 1.311 . S
C178 N179 1.347 . S
C178 H189 0.929 . S
N179 C177 1.375 . S
N179 C178 1.347 . S
C180 C183 1.365 . S
C180 N185 1.328 . S
C180 H186 0.929 . S
C181 C182 1.362 . S
C181 C184 1.378 . S
C181 H196 0.929 . S
C182 C181 1.362 . S
C182 C183 1.366 1_545 S
C183 C180 1.365 . S
C183 C182 1.366 1_565 S
C183 H197 0.930 . S
C184 C181 1.378 . S
C184 N185 1.315 1_545 S
C184 H187 0.930 . S
N185 Co165 2.194 . S
N185 C180 1.328 . S
N185 C184 1.315 1_565 S
H186 C180 0.929 . S
H187 C184 0.930 . S
H188 C176 0.929 1_565 S
H189 C178 0.929 . S
O190 Co165 2.351 . S
O190 C193 1.244 . S
O191 Co165 2.155 . S
O191 C193 1.240 . S
O192 Co165 2.096 1_545 S
O192 C173 1.247 . S
C193 O190 1.244 . S
C193 O191 1.240 . S
H194 C168 0.931 . S
H195 C177 0.931 . S
H196 C181 0.929 . S
H197 C183 0.930 . S
Co198 N202 2.148 1_554 S
Co198 N208 2.128 . S
Co198 N218 2.196 . S
Co198 O223 2.351 . S
Co198 O224 2.155 . S
Co198 O225 2.096 1_554 S
C199 N202 1.301 . S
C199 N203 1.328 . S
C199 H204 0.930 . S
C200 C201 1.333 . S
C200 N202 1.317 . S
C200 H205 0.930 . S
C201 C200 1.333 . S
C201 N203 1.350 . S
C201 H227 0.931 . S
N202 Co198 2.148 1_556 S
N202 C199 1.301 . S
N202 C200 1.317 . S
N203 C199 1.328 . S
N203 C201 1.350 . S
H204 C199 0.930 . S
H205 C200 0.930 . S
C206 O207 1.224 . S
C206 O225 1.247 . S
O207 C206 1.224 . S
N208 Co198 2.128 . S
N208 C209 1.355 . S
N208 C211 1.311 . S
C209 N208 1.355 . S
C209 C210 1.363 . S
C209 H221 0.929 . S
C210 C209 1.363 . S
C210 N212 1.375 . S
C210 H228 0.931 . S
C211 N208 1.311 . S
C211 N212 1.347 . S
C211 H222 0.929 . S
N212 C210 1.375 . S
N212 C211 1.347 . S
C213 C216 1.365 . S
C213 N218 1.331 . S
C213 H219 0.929 . S
C214 C215 1.362 1_556 S
C214 C217 1.378 . S
C214 H229 0.929 . S
C215 C214 1.362 1_554 S
C215 C216 1.366 . S
C216 C213 1.365 . S
C216 C215 1.366 . S
C216 H230 0.930 . S
C217 C214 1.378 . S
C217 N218 1.312 1_556 S
C217 H220 0.930 . S
N218 Co198 2.196 . S
N218 C213 1.331 . S
N218 C217 1.312 1_554 S
H219 C213 0.929 . S
H220 C217 0.930 . S
H221 C209 0.929 . S
H222 C211 0.929 . S
O223 Co198 2.351 . S
O223 C226 1.244 . S
O224 Co198 2.155 . S
O224 C226 1.240 . S
O225 Co198 2.096 1_556 S
O225 C206 1.247 . S
C226 O223 1.244 . S
C226 O224 1.240 . S
H227 C201 0.931 . S
H228 C210 0.931 . S
H229 C214 0.929 . S
H230 C216 0.930 . S
Co231 N235 2.148 . S
Co231 N241 2.128 1_554 S
Co231 N251 2.194 . S
Co231 O256 2.351 1_554 S
Co231 O257 2.155 1_554 S
Co231 O258 2.096 . S
C232 N235 1.301 . S
C232 N236 1.328 . S
C232 H237 0.930 . S
C233 C234 1.333 . S
C233 N235 1.317 . S
C233 H238 0.930 . S
C234 C233 1.333 . S
C234 N236 1.350 . S
C234 H260 0.931 . S
N235 Co231 2.148 . S
N235 C232 1.301 . S
N235 C233 1.317 . S
N236 C232 1.328 . S
N236 C234 1.350 . S
H237 C232 0.930 . S
H238 C233 0.930 . S
C239 O240 1.224 . S
C239 O258 1.247 . S
O240 C239 1.224 . S
N241 Co231 2.128 1_556 S
N241 C242 1.355 . S
N241 C244 1.311 . S
C242 N241 1.355 . S
C242 C243 1.363 . S
C242 H254 0.929 . S
C243 C242 1.363 . S
C243 N245 1.375 . S
C243 H261 0.931 . S
C244 N241 1.311 . S
C244 N245 1.347 . S
C244 H255 0.929 . S
N245 C243 1.375 . S
N245 C244 1.347 . S
C246 C249 1.365 . S
C246 N251 1.328 . S
C246 H252 0.929 . S
C247 C248 1.362 . S
C247 C250 1.378 . S
C247 H262 0.929 . S
C248 C247 1.362 . S
C248 C249 1.366 . S
C249 C246 1.365 . S
C249 C248 1.366 . S
C249 H263 0.930 . S
C250 C247 1.378 . S
C250 N251 1.315 . S
C250 H253 0.930 . S
N251 Co231 2.194 . S
N251 C246 1.328 . S
N251 C250 1.315 . S
H252 C246 0.929 . S
H253 C250 0.930 . S
H254 C242 0.929 . S
H255 C244 0.929 . S
O256 Co231 2.351 1_556 S
O256 C259 1.244 . S
O257 Co231 2.155 1_556 S
O257 C259 1.240 . S
O258 Co231 2.096 . S
O258 C239 1.247 . S
C259 O256 1.244 . S
C259 O257 1.240 . S
H260 C234 0.931 . S
H261 C243 0.931 . S
H262 C247 0.929 . S
H263 C249 0.930 . S
H264 C276 0.930 . S
H265 C278 0.930 . S
H266 C279 0.930 . S
H267 C283 0.959 . S
H268 C283 0.959 . S
H269 C283 0.961 . S
H270 C284 0.960 . S
H271 C284 0.961 . S
H272 C284 0.959 . S
H273 C287 0.929 . S
H274 C288 0.931 . S
H275 C290 0.930 . S
C276 H264 0.930 . S
C276 C277 1.399 . S
C276 C281 1.399 . S
C277 C276 1.399 . S
C277 C278 1.376 . S
C278 H265 0.930 . S
C278 C277 1.376 . S
C278 C279 1.388 . S
C279 H266 0.930 . S
C279 C278 1.388 . S
C279 C280 1.390 . S
C280 C279 1.390 . S
C280 C281 1.394 . S
C280 C286 1.465 . S
C281 C276 1.399 . S
C281 C280 1.394 . S
C281 C282 1.516 . S
C282 C281 1.516 . S
C282 C283 1.502 . S
C282 C284 1.561 . S
C282 C285 1.526 . S
C283 H267 0.959 . S
C283 H268 0.959 . S
C283 H269 0.961 . S
C283 C282 1.502 . S
C284 H270 0.960 . S
C284 H271 0.961 . S
C284 H272 0.959 . S
C284 C282 1.561 . S
C285 C282 1.526 . S
C285 C286 1.396 . S
C285 C290 1.390 . S
C286 C280 1.465 . S
C286 C285 1.396 . S
C286 C287 1.399 . S
C287 H273 0.929 . S
C287 C286 1.399 . S
C287 C288 1.385 . S
C288 H274 0.931 . S
C288 C287 1.385 . S
C288 C289 1.389 . S
C289 C288 1.389 . S
C289 C290 1.387 . S
C290 H275 0.930 . S
C290 C285 1.390 . S
C290 C289 1.387 . S
H291 C303 0.930 . S
H292 C305 0.930 . S
H293 C306 0.930 . S
H294 C310 0.959 . S
H295 C310 0.959 . S
H296 C310 0.961 . S
H297 C311 0.960 . S
H298 C311 0.961 . S
H299 C311 0.959 . S
H300 C314 0.929 . S
H301 C315 0.931 . S
H302 C317 0.930 . S
C303 H291 0.930 . S
C303 C304 1.399 . S
C303 C308 1.399 . S
C304 C303 1.399 . S
C304 C305 1.376 . S
C305 H292 0.930 . S
C305 C304 1.376 . S
C305 C306 1.388 . S
C306 H293 0.930 . S
C306 C305 1.388 . S
C306 C307 1.390 . S
C307 C306 1.390 . S
C307 C308 1.394 . S
C307 C313 1.465 . S
C308 C303 1.399 . S
C308 C307 1.394 . S
C308 C309 1.516 . S
C309 C308 1.516 . S
C309 C310 1.502 . S
C309 C311 1.561 . S
C309 C312 1.526 . S
C310 H294 0.959 . S
C310 H295 0.959 . S
C310 H296 0.961 . S
C310 C309 1.502 . S
C311 H297 0.960 . S
C311 H298 0.961 . S
C311 H299 0.959 . S
C311 C309 1.561 . S
C312 C309 1.526 . S
C312 C313 1.396 . S
C312 C317 1.390 . S
C313 C307 1.465 . S
C313 C312 1.396 . S
C313 C314 1.399 . S
C314 H300 0.929 . S
C314 C313 1.399 . S
C314 C315 1.385 . S
C315 H301 0.931 . S
C315 C314 1.385 . S
C315 C316 1.389 . S
C316 C315 1.389 . S
C316 C317 1.387 . S
C317 H302 0.930 . S
C317 C312 1.390 . S
C317 C316 1.387 . S
H318 C330 0.930 . S
H319 C332 0.930 . S
H320 C333 0.930 . S
H321 C337 0.959 . S
H322 C337 0.959 . S
H323 C337 0.961 . S
H324 C338 0.960 . S
H325 C338 0.961 . S
H326 C338 0.959 . S
H327 C341 0.929 . S
H328 C342 0.931 . S
H329 C344 0.930 . S
C330 H318 0.930 . S
C330 C331 1.399 . S
C330 C335 1.399 . S
C331 C330 1.399 . S
C331 C332 1.376 . S
C332 H319 0.930 . S
C332 C331 1.376 . S
C332 C333 1.388 . S
C333 H320 0.930 . S
C333 C332 1.388 . S
C333 C334 1.390 . S
C334 C333 1.390 . S
C334 C335 1.394 . S
C334 C340 1.465 . S
C335 C330 1.399 . S
C335 C334 1.394 . S
C335 C336 1.516 . S
C336 C335 1.516 . S
C336 C337 1.502 . S
C336 C338 1.561 . S
C336 C339 1.526 . S
C337 H321 0.959 . S
C337 H322 0.959 . S
C337 H323 0.961 . S
C337 C336 1.502 . S
C338 H324 0.960 . S
C338 H325 0.961 . S
C338 H326 0.959 . S
C338 C336 1.561 . S
C339 C336 1.526 . S
C339 C340 1.396 . S
C339 C344 1.390 . S
C340 C334 1.465 . S
C340 C339 1.396 . S
C340 C341 1.399 . S
C341 H327 0.929 . S
C341 C340 1.399 . S
C341 C342 1.385 . S
C342 H328 0.931 . S
C342 C341 1.385 . S
C342 C343 1.389 . S
C343 C342 1.389 . S
C343 C344 1.387 . S
C344 H329 0.930 . S
C344 C339 1.390 . S
C344 C343 1.387 . S
H345 C357 0.930 . S
H346 C359 0.930 . S
H347 C360 0.930 . S
H348 C364 0.959 . S
H349 C364 0.959 . S
H350 C364 0.961 . S
H351 C365 0.960 . S
H352 C365 0.961 . S
H353 C365 0.959 . S
H354 C368 0.929 . S
H355 C369 0.931 . S
H356 C371 0.930 . S
C357 H345 0.930 . S
C357 C358 1.399 . S
C357 C362 1.399 . S
C358 C357 1.399 . S
C358 C359 1.376 . S
C359 H346 0.930 . S
C359 C358 1.376 . S
C359 C360 1.388 . S
C360 H347 0.930 . S
C360 C359 1.388 . S
C360 C361 1.390 . S
C361 C360 1.390 . S
C361 C362 1.394 . S
C361 C367 1.465 . S
C362 C357 1.399 . S
C362 C361 1.394 . S
C362 C363 1.516 . S
C363 C362 1.516 . S
C363 C364 1.502 . S
C363 C365 1.561 . S
C363 C366 1.526 . S
C364 H348 0.959 . S
C364 H349 0.959 . S
C364 H350 0.961 . S
C364 C363 1.502 . S
C365 H351 0.960 . S
C365 H352 0.961 . S
C365 H353 0.959 . S
C365 C363 1.561 . S
C366 C363 1.526 . S
C366 C367 1.396 . S
C366 C371 1.390 . S
C367 C361 1.465 . S
C367 C366 1.396 . S
C367 C368 1.399 . S
C368 H354 0.929 . S
C368 C367 1.399 . S
C368 C369 1.385 . S
C369 H355 0.931 . S
C369 C368 1.385 . S
C369 C370 1.389 . S
C370 C369 1.389 . S
C370 C371 1.387 . S
C371 H356 0.930 . S
C371 C366 1.390 . S
C371 C370 1.387 . S
H372 C384 0.930 . S
H373 C386 0.930 . S
H374 C387 0.930 . S
H375 C391 0.959 . S
H376 C391 0.959 . S
H377 C391 0.961 . S
H378 C392 0.960 . S
H379 C392 0.961 . S
H380 C392 0.959 . S
H381 C395 0.929 . S
H382 C396 0.931 . S
H383 C398 0.930 . S
C384 H372 0.930 . S
C384 C385 1.399 . S
C384 C389 1.399 . S
C385 C384 1.399 . S
C385 C386 1.376 . S
C386 H373 0.930 . S
C386 C385 1.376 . S
C386 C387 1.388 . S
C387 H374 0.930 . S
C387 C386 1.388 . S
C387 C388 1.390 . S
C388 C387 1.390 . S
C388 C389 1.394 . S
C388 C394 1.465 . S
C389 C384 1.399 . S
C389 C388 1.394 . S
C389 C390 1.516 . S
C390 C389 1.516 . S
C390 C391 1.502 . S
C390 C392 1.561 . S
C390 C393 1.526 . S
C391 H375 0.959 . S
C391 H376 0.959 . S
C391 H377 0.961 . S
C391 C390 1.502 . S
C392 H378 0.960 . S
C392 H379 0.961 . S
C392 H380 0.959 . S
C392 C390 1.561 . S
C393 C390 1.526 . S
C393 C394 1.396 . S
C393 C398 1.390 . S
C394 C388 1.465 . S
C394 C393 1.396 . S
C394 C395 1.399 . S
C395 H381 0.929 . S
C395 C394 1.399 . S
C395 C396 1.385 . S
C396 H382 0.931 . S
C396 C395 1.385 . S
C396 C397 1.389 . S
C397 C396 1.389 . S
C397 C398 1.387 . S
C398 H383 0.930 . S
C398 C393 1.390 . S
C398 C397 1.387 . S
H399 C411 0.930 . S
H400 C413 0.930 . S
H401 C414 0.930 . S
H402 C418 0.959 . S
H403 C418 0.959 . S
H404 C418 0.961 . S
H405 C419 0.960 . S
H406 C419 0.961 . S
H407 C419 0.959 . S
H408 C422 0.929 . S
H409 C423 0.931 . S
H410 C425 0.930 . S
C411 H399 0.930 . S
C411 C412 1.399 . S
C411 C416 1.399 . S
C412 C411 1.399 . S
C412 C413 1.376 . S
C413 H400 0.930 . S
C413 C412 1.376 . S
C413 C414 1.388 . S
C414 H401 0.930 . S
C414 C413 1.388 . S
C414 C415 1.390 . S
C415 C414 1.390 . S
C415 C416 1.394 . S
C415 C421 1.465 . S
C416 C411 1.399 . S
C416 C415 1.394 . S
C416 C417 1.516 . S
C417 C416 1.516 . S
C417 C418 1.502 . S
C417 C419 1.561 . S
C417 C420 1.526 . S
C418 H402 0.959 . S
C418 H403 0.959 . S
C418 H404 0.961 . S
C418 C417 1.502 . S
C419 H405 0.960 . S
C419 H406 0.961 . S
C419 H407 0.959 . S
C419 C417 1.561 . S
C420 C417 1.526 . S
C420 C421 1.396 . S
C420 C425 1.390 . S
C421 C415 1.465 . S
C421 C420 1.396 . S
C421 C422 1.399 . S
C422 H408 0.929 . S
C422 C421 1.399 . S
C422 C423 1.385 . S
C423 H409 0.931 . S
C423 C422 1.385 . S
C423 C424 1.389 . S
C424 C423 1.389 . S
C424 C425 1.387 . S
C425 H410 0.930 . S
C425 C420 1.390 . S
C425 C424 1.387 . S
H426 C438 0.930 . S
H427 C440 0.930 . S
H428 C441 0.930 . S
H429 C445 0.959 . S
H430 C445 0.959 . S
H431 C445 0.961 . S
H432 C446 0.960 . S
H433 C446 0.961 . S
H434 C446 0.959 . S
H435 C449 0.929 . S
H436 C450 0.931 . S
H437 C452 0.930 . S
C438 H426 0.930 . S
C438 C439 1.399 . S
C438 C443 1.399 . S
C439 C438 1.399 . S
C439 C440 1.376 . S
C440 H427 0.930 . S
C440 C439 1.376 . S
C440 C441 1.388 . S
C441 H428 0.930 . S
C441 C440 1.388 . S
C441 C442 1.390 . S
C442 C441 1.390 . S
C442 C443 1.394 . S
C442 C448 1.465 . S
C443 C438 1.399 . S
C443 C442 1.394 . S
C443 C444 1.516 . S
C444 C443 1.516 . S
C444 C445 1.502 . S
C444 C446 1.561 . S
C444 C447 1.526 . S
C445 H429 0.959 . S
C445 H430 0.959 . S
C445 H431 0.961 . S
C445 C444 1.502 . S
C446 H432 0.960 . S
C446 H433 0.961 . S
C446 H434 0.959 . S
C446 C444 1.561 . S
C447 C444 1.526 . S
C447 C448 1.396 . S
C447 C452 1.390 . S
C448 C442 1.465 . S
C448 C447 1.396 . S
C448 C449 1.399 . S
C449 H435 0.929 . S
C449 C448 1.399 . S
C449 C450 1.385 . S
C450 H436 0.931 . S
C450 C449 1.385 . S
C450 C451 1.389 . S
C451 C450 1.389 . S
C451 C452 1.387 . S
C452 H437 0.930 . S
C452 C447 1.390 . S
C452 C451 1.387 . S
H453 C465 0.930 . S
H454 C467 0.930 . S
H455 C468 0.930 . S
H456 C472 0.959 . S
H457 C472 0.959 . S
H458 C472 0.961 . S
H459 C473 0.960 . S
H460 C473 0.961 . S
H461 C473 0.959 . S
H462 C476 0.929 . S
H463 C477 0.931 . S
H464 C479 0.930 . S
C465 H453 0.930 . S
C465 C466 1.399 . S
C465 C470 1.399 . S
C466 C465 1.399 . S
C466 C467 1.376 . S
C467 H454 0.930 . S
C467 C466 1.376 . S
C467 C468 1.388 . S
C468 H455 0.930 . S
C468 C467 1.388 . S
C468 C469 1.390 . S
C469 C468 1.390 . S
C469 C470 1.394 . S
C469 C475 1.465 . S
C470 C465 1.399 . S
C470 C469 1.394 . S
C470 C471 1.516 . S
C471 C470 1.516 . S
C471 C472 1.502 . S
C471 C473 1.561 . S
C471 C474 1.526 . S
C472 H456 0.959 . S
C472 H457 0.959 . S
C472 H458 0.961 . S
C472 C471 1.502 . S
C473 H459 0.960 . S
C473 H460 0.961 . S
C473 H461 0.959 . S
C473 C471 1.561 . S
C474 C471 1.526 . S
C474 C475 1.396 . S
C474 C479 1.390 . S
C475 C469 1.465 . S
C475 C474 1.396 . S
C475 C476 1.399 . S
C476 H462 0.929 . S
C476 C475 1.399 . S
C476 C477 1.385 . S
C477 H463 0.931 . S
C477 C476 1.385 . S
C477 C478 1.389 . S
C478 C477 1.389 . S
C478 C479 1.387 . S
C479 H464 0.930 . S
C479 C474 1.390 . S
C479 C478 1.387 . S
H480 C492 0.930 . S
H481 C494 0.930 . S
H482 C495 0.930 . S
H483 C499 0.959 . S
H484 C499 0.959 . S
H485 C499 0.961 . S
H486 C500 0.959 1_545 S
H487 C500 0.958 1_545 S
H488 C500 0.969 . S
H489 C503 0.929 . S
H490 C504 0.931 . S
H491 C506 0.930 . S
C492 H480 0.930 . S
C492 C493 1.399 1_546 S
C492 C497 1.399 . S
C493 C492 1.399 1_564 S
C493 C494 1.376 . S
C494 H481 0.930 . S
C494 C493 1.376 . S
C494 C495 1.388 . S
C495 H482 0.930 . S
C495 C494 1.388 . S
C495 C496 1.390 . S
C496 C495 1.390 . S
C496 C497 1.394 1_564 S
C496 C502 1.465 . S
C497 C492 1.399 . S
C497 C496 1.394 1_546 S
C497 C498 1.516 . S
C498 C497 1.516 . S
C498 C499 1.502 . S
C498 C500 1.556 1_545 S
C498 C501 1.526 . S
C499 H483 0.959 . S
C499 H484 0.959 . S
C499 H485 0.961 . S
C499 C498 1.502 . S
C500 H486 0.959 1_565 S
C500 H487 0.958 1_565 S
C500 H488 0.969 . S
C500 C498 1.556 1_565 S
C501 C498 1.526 . S
C501 C502 1.396 1_546 S
C501 C506 1.390 . S
C502 C496 1.465 . S
C502 C501 1.396 1_564 S
C502 C503 1.399 . S
C503 H489 0.929 . S
C503 C502 1.399 . S
C503 C504 1.385 . S
C504 H490 0.931 . S
C504 C503 1.385 . S
C504 C505 1.395 . S
C505 C504 1.395 . S
C505 C506 1.383 1_564 S
C506 H491 0.930 . S
C506 C501 1.390 . S
C506 C505 1.383 1_546 S
H507 C519 0.930 . S
H508 C521 0.930 . S
H509 C522 0.930 . S
H510 C526 0.959 . S
H511 C526 0.959 . S
H512 C526 0.961 . S
H513 C527 0.960 . S
H514 C527 0.961 . S
H515 C527 0.959 . S
H516 C530 0.929 . S
H517 C531 0.931 . S
H518 C533 0.930 . S
C519 H507 0.930 . S
C519 C520 1.399 . S
C519 C524 1.399 . S
C520 C519 1.399 . S
C520 C521 1.376 . S
C521 H508 0.930 . S
C521 C520 1.376 . S
C521 C522 1.388 . S
C522 H509 0.930 . S
C522 C521 1.388 . S
C522 C523 1.390 . S
C523 C522 1.390 . S
C523 C524 1.394 . S
C523 C529 1.465 . S
C524 C519 1.399 . S
C524 C523 1.394 . S
C524 C525 1.516 . S
C525 C524 1.516 . S
C525 C526 1.502 . S
C525 C527 1.561 . S
C525 C528 1.526 . S
C526 H510 0.959 . S
C526 H511 0.959 . S
C526 H512 0.961 . S
C526 C525 1.502 . S
C527 H513 0.960 . S
C527 H514 0.961 . S
C527 H515 0.959 . S
C527 C525 1.561 . S
C528 C525 1.526 . S
C528 C529 1.396 . S
C528 C533 1.390 . S
C529 C523 1.465 . S
C529 C528 1.396 . S
C529 C530 1.399 . S
C530 H516 0.929 . S
C530 C529 1.399 . S
C530 C531 1.385 . S
C531 H517 0.931 . S
C531 C530 1.385 . S
C531 C532 1.389 . S
C532 C531 1.389 . S
C532 C533 1.387 . S
C533 H518 0.930 . S
C533 C528 1.390 . S
C533 C532 1.387 . S
H534 C546 0.930 . S
H535 C548 0.930 . S
H536 C549 0.930 . S
H537 C553 0.959 . S
H538 C553 0.959 . S
H539 C553 0.961 1_455 S
H540 C554 0.960 1_455 S
H541 C554 0.962 . S
H542 C554 0.959 . S
H543 C557 0.929 . S
H544 C558 0.931 . S
H545 C560 0.930 . S
C546 H534 0.930 . S
C546 C547 1.399 1_545 S
C546 C551 1.399 . S
C547 C546 1.399 1_565 S
C547 C548 1.376 . S
C548 H535 0.930 . S
C548 C547 1.376 . S
C548 C549 1.388 . S
C549 H536 0.930 . S
C549 C548 1.388 . S
C549 C550 1.390 . S
C550 C549 1.390 . S
C550 C551 1.394 1_565 S
C550 C556 1.465 1_455 S
C551 C546 1.399 . S
C551 C550 1.394 1_545 S
C551 C552 1.482 1_455 S
C552 C551 1.482 1_655 S
C552 C553 1.503 . S
C552 C554 1.562 1_545 S
C552 C555 1.561 . S
C553 H537 0.959 . S
C553 H538 0.959 . S
C553 H539 0.961 1_655 S
C553 C552 1.503 . S
C554 H540 0.960 1_655 S
C554 H541 0.962 . S
C554 H542 0.959 . S
C554 C552 1.562 1_565 S
C555 C552 1.561 . S
C555 C556 1.396 1_545 S
C555 C560 1.390 . S
C556 C550 1.465 1_655 S
C556 C555 1.396 1_565 S
C556 C557 1.399 . S
C557 H543 0.929 . S
C557 C556 1.399 . S
C557 C558 1.385 . S
C558 H544 0.931 . S
C558 C557 1.385 . S
C558 C559 1.390 . S
C559 C558 1.390 . S
C559 C560 1.386 1_565 S
C560 H545 0.930 . S
C560 C555 1.390 . S
C560 C559 1.386 1_545 S
H561 C573 0.930 . S
H562 C575 0.930 . S
H563 C576 0.930 . S
H564 C580 0.956 1_455 S
H565 C580 0.922 1_455 S
H566 C580 1.001 . S
H567 C581 0.983 . S
H568 C581 0.940 1_455 S
H569 C581 0.957 1_455 S
H570 C584 0.929 . S
H571 C585 0.931 . S
H572 C587 0.930 . S
C573 H561 0.930 . S
C573 C574 1.399 1_556 S
C573 C578 1.399 . S
C574 C573 1.399 1_554 S
C574 C575 1.376 . S
C575 H562 0.930 . S
C575 C574 1.376 . S
C575 C576 1.388 . S
C576 H563 0.930 . S
C576 C575 1.388 . S
C576 C577 1.390 . S
C577 C576 1.390 . S
C577 C578 1.394 1_554 S
C577 C583 1.465 1_655 S
C578 C573 1.399 . S
C578 C577 1.394 1_556 S
C578 C579 1.540 . S
C579 C578 1.540 . S
C579 C580 1.502 . S
C579 C581 1.561 . S
C579 C582 1.503 1_655 S
C580 H564 0.956 1_655 S
C580 H565 0.922 1_655 S
C580 H566 1.001 . S
C580 C579 1.502 . S
C581 H567 0.983 . S
C581 H568 0.940 1_655 S
C581 H569 0.957 1_655 S
C581 C579 1.561 . S
C582 C579 1.503 1_455 S
C582 C583 1.396 1_556 S
C582 C587 1.390 . S
C583 C577 1.465 1_455 S
C583 C582 1.396 1_554 S
C583 C584 1.399 . S
C584 H570 0.929 . S
C584 C583 1.399 . S
C584 C585 1.385 . S
C585 H571 0.931 . S
C585 C584 1.385 . S
C585 C586 1.389 . S
C586 C585 1.389 . S
C586 C587 1.387 1_554 S
C587 H572 0.930 . S
C587 C582 1.390 . S
C587 C586 1.387 1_556 S
H588 C600 0.930 . S
H589 C602 0.930 . S
H590 C603 0.930 . S
H591 C607 0.959 . S
H592 C607 0.959 . S
H593 C607 0.961 . S
H594 C608 0.960 . S
H595 C608 0.961 . S
H596 C608 0.959 . S
H597 C611 0.929 . S
H598 C612 0.931 . S
H599 C614 0.930 . S
C600 H588 0.930 . S
C600 C601 1.399 . S
C600 C605 1.399 . S
C601 C600 1.399 . S
C601 C602 1.376 1_556 S
C602 H589 0.930 . S
C602 C601 1.376 1_554 S
C602 C603 1.388 . S
C603 H590 0.930 . S
C603 C602 1.388 . S
C603 C604 1.390 1_554 S
C604 C603 1.390 1_556 S
C604 C605 1.394 . S
C604 C610 1.465 . S
C605 C600 1.399 . S
C605 C604 1.394 . S
C605 C606 1.516 . S
C606 C605 1.516 . S
C606 C607 1.502 . S
C606 C608 1.561 . S
C606 C609 1.526 . S
C607 H591 0.959 . S
C607 H592 0.959 . S
C607 H593 0.961 . S
C607 C606 1.502 . S
C608 H594 0.960 . S
C608 H595 0.961 . S
C608 H596 0.959 . S
C608 C606 1.561 . S
C609 C606 1.526 . S
C609 C610 1.396 . S
C609 C614 1.390 . S
C610 C604 1.465 . S
C610 C609 1.396 . S
C610 C611 1.399 1_556 S
C611 H597 0.929 . S
C611 C610 1.399 1_554 S
C611 C612 1.385 . S
C612 H598 0.931 . S
C612 C611 1.385 . S
C612 C613 1.389 1_554 S
C613 C612 1.389 1_556 S
C613 C614 1.387 . S
C614 H599 0.930 . S
C614 C609 1.390 . S
C614 C613 1.387 . S
H615 C627 0.930 . S
H616 C629 0.930 . S
H617 C630 0.930 . S
H618 C634 0.959 . S
H619 C634 0.959 . S
H620 C634 0.961 . S
H621 C635 0.960 . S
H622 C635 0.961 . S
H623 C635 0.959 . S
H624 C638 0.929 . S
H625 C639 0.931 . S
H626 C641 0.930 . S
C627 H615 0.930 . S
C627 C628 1.399 1_554 S
C627 C632 1.399 . S
C628 C627 1.399 1_556 S
C628 C629 1.376 . S
C629 H616 0.930 . S
C629 C628 1.376 . S
C629 C630 1.388 . S
C630 H617 0.930 . S
C630 C629 1.388 . S
C630 C631 1.390 . S
C631 C630 1.390 . S
C631 C632 1.394 1_556 S
C631 C637 1.465 . S
C632 C627 1.399 . S
C632 C631 1.394 1_554 S
C632 C633 1.516 . S
C633 C632 1.516 . S
C633 C634 1.502 . S
C633 C635 1.561 . S
C633 C636 1.526 . S
C634 H618 0.959 . S
C634 H619 0.959 . S
C634 H620 0.961 . S
C634 C633 1.502 . S
C635 H621 0.960 . S
C635 H622 0.961 . S
C635 H623 0.959 . S
C635 C633 1.561 . S
C636 C633 1.526 . S
C636 C637 1.396 1_554 S
C636 C641 1.390 . S
C637 C631 1.465 . S
C637 C636 1.396 1_556 S
C637 C638 1.399 . S
C638 H624 0.929 . S
C638 C637 1.399 . S
C638 C639 1.385 . S
C639 H625 0.931 . S
C639 C638 1.385 . S
C639 C640 1.389 . S
C640 C639 1.389 . S
C640 C641 1.387 1_556 S
C641 H626 0.930 . S
C641 C636 1.390 . S
C641 C640 1.387 1_554 S
H642 C654 0.930 . S
H643 C656 0.930 . S
H644 C657 0.930 . S
H645 C661 0.959 . S
H646 C661 0.959 . S
H647 C661 0.961 . S
H648 C662 0.960 . S
H649 C662 0.961 . S
H650 C662 0.959 . S
H651 C665 0.929 . S
H652 C666 0.931 . S
H653 C668 0.930 . S
C654 H642 0.930 . S
C654 C655 1.399 . S
C654 C659 1.399 . S
C655 C654 1.399 . S
C655 C656 1.376 1_554 S
C656 H643 0.930 . S
C656 C655 1.376 1_556 S
C656 C657 1.388 . S
C657 H644 0.930 . S
C657 C656 1.388 . S
C657 C658 1.390 1_556 S
C658 C657 1.390 1_554 S
C658 C659 1.394 . S
C658 C664 1.465 . S
C659 C654 1.399 . S
C659 C658 1.394 . S
C659 C660 1.516 . S
C660 C659 1.516 . S
C660 C661 1.502 . S
C660 C662 1.561 . S
C660 C663 1.526 . S
C661 H645 0.959 . S
C661 H646 0.959 . S
C661 H647 0.961 . S
C661 C660 1.502 . S
C662 H648 0.960 . S
C662 H649 0.961 . S
C662 H650 0.959 . S
C662 C660 1.561 . S
C663 C660 1.526 . S
C663 C664 1.396 . S
C663 C668 1.390 . S
C664 C658 1.465 . S
C664 C663 1.396 . S
C664 C665 1.399 1_554 S
C665 H651 0.929 . S
C665 C664 1.399 1_556 S
C665 C666 1.385 . S
C666 H652 0.931 . S
C666 C665 1.385 . S
C666 C667 1.389 1_556 S
C667 C666 1.389 1_554 S
C667 C668 1.387 . S
C668 H653 0.930 . S
C668 C663 1.390 . S
C668 C667 1.387 . S
H669 C681 0.930 1_556 S
H670 C683 0.930 . S
H671 C684 0.930 . S
H672 C688 0.959 . S
H673 C688 0.959 . S
H674 C688 0.961 . S
H675 C689 0.954 1_556 S
H676 C689 0.961 1_556 S
H677 C689 0.959 . S
H678 C692 0.929 . S
H679 C693 0.931 . S
H680 C695 0.930 1_556 S
C681 H669 0.930 1_554 S
C681 C682 1.399 . S
C681 C686 1.399 . S
C682 C681 1.399 . S
C682 C683 1.376 . S
C683 H670 0.930 . S
C683 C682 1.376 . S
C683 C684 1.388 . S
C684 H671 0.930 . S
C684 C683 1.388 . S
C684 C685 1.390 . S
C685 C684 1.390 . S
C685 C686 1.394 . S
C685 C691 1.465 . S
C686 C681 1.399 . S
C686 C685 1.394 . S
C686 C687 1.516 1_554 S
C687 C686 1.516 1_556 S
C687 C688 1.502 . S
C687 C689 1.561 1_556 S
C687 C690 1.526 1_556 S
C688 H672 0.959 . S
C688 H673 0.959 . S
C688 H674 0.961 . S
C688 C687 1.502 . S
C689 H675 0.954 1_554 S
C689 H676 0.961 1_554 S
C689 H677 0.959 . S
C689 C687 1.561 1_554 S
C690 C687 1.526 1_554 S
C690 C691 1.396 . S
C690 C695 1.390 . S
C691 C685 1.465 . S
C691 C690 1.396 . S
C691 C692 1.399 . S
C692 H678 0.929 . S
C692 C691 1.399 . S
C692 C693 1.385 . S
C693 H679 0.931 . S
C693 C692 1.385 . S
C693 C694 1.389 . S
C694 C693 1.389 . S
C694 C695 1.387 . S
C695 H680 0.930 1_554 S
C695 C690 1.390 . S
C695 C694 1.387 . S
H696 C708 0.930 . S
H697 C710 0.930 . S
H698 C711 0.930 . S
H699 C715 0.959 . S
H700 C715 0.959 . S
H701 C715 0.961 . S
H702 C716 0.960 . S
H703 C716 0.961 . S
H704 C716 0.959 . S
H705 C719 0.929 . S
H706 C720 0.931 . S
H707 C722 0.930 . S
C708 H696 0.930 . S
C708 C709 1.399 . S
C708 C713 1.399 . S
C709 C708 1.399 . S
C709 C710 1.376 . S
C710 H697 0.930 . S
C710 C709 1.376 . S
C710 C711 1.388 . S
C711 H698 0.930 . S
C711 C710 1.388 . S
C711 C712 1.390 . S
C712 C711 1.390 . S
C712 C713 1.394 . S
C712 C718 1.465 . S
C713 C708 1.399 . S
C713 C712 1.394 . S
C713 C714 1.516 . S
C714 C713 1.516 . S
C714 C715 1.502 . S
C714 C716 1.561 . S
C714 C717 1.526 . S
C715 H699 0.959 . S
C715 H700 0.959 . S
C715 H701 0.961 . S
C715 C714 1.502 . S
C716 H702 0.960 . S
C716 H703 0.961 . S
C716 H704 0.959 . S
C716 C714 1.561 . S
C717 C714 1.526 . S
C717 C718 1.396 . S
C717 C722 1.390 . S
C718 C712 1.465 . S
C718 C717 1.396 . S
C718 C719 1.399 . S
C719 H705 0.929 . S
C719 C718 1.399 . S
C719 C720 1.385 . S
C720 H706 0.931 . S
C720 C719 1.385 . S
C720 C721 1.389 . S
C721 C720 1.389 . S
C721 C722 1.387 . S
C722 H707 0.930 . S
C722 C717 1.390 . S
C722 C721 1.387 . S
H723 C735 0.930 . S
H724 C737 0.930 . S
H725 C738 0.930 . S
H726 C742 0.959 . S
H727 C742 0.959 . S
H728 C742 0.961 . S
H729 C743 0.960 . S
H730 C743 0.961 . S
H731 C743 0.959 . S
H732 C746 0.929 . S
H733 C747 0.931 . S
H734 C749 0.930 . S
C735 H723 0.930 . S
C735 C736 1.399 . S
C735 C740 1.399 . S
C736 C735 1.399 . S
C736 C737 1.376 . S
C737 H724 0.930 . S
C737 C736 1.376 . S
C737 C738 1.388 . S
C738 H725 0.930 . S
C738 C737 1.388 . S
C738 C739 1.390 . S
C739 C738 1.390 . S
C739 C740 1.394 . S
C739 C745 1.465 . S
C740 C735 1.399 . S
C740 C739 1.394 . S
C740 C741 1.516 . S
C741 C740 1.516 . S
C741 C742 1.502 . S
C741 C743 1.561 . S
C741 C744 1.526 . S
C742 H726 0.959 . S
C742 H727 0.959 . S
C742 H728 0.961 . S
C742 C741 1.502 . S
C743 H729 0.960 . S
C743 H730 0.961 . S
C743 H731 0.959 . S
C743 C741 1.561 . S
C744 C741 1.526 . S
C744 C745 1.396 . S
C744 C749 1.390 . S
C745 C739 1.465 . S
C745 C744 1.396 . S
C745 C746 1.399 . S
C746 H732 0.929 . S
C746 C745 1.399 . S
C746 C747 1.385 . S
C747 H733 0.931 . S
C747 C746 1.385 . S
C747 C748 1.389 . S
C748 C747 1.389 . S
C748 C749 1.387 . S
C749 H734 0.930 . S
C749 C744 1.390 . S
C749 C748 1.387 . S
H750 C762 0.930 . S
H751 C764 0.930 . S
H752 C765 0.930 . S
H753 C769 0.959 . S
H754 C769 0.959 . S
H755 C769 0.961 . S
H756 C770 0.960 . S
H757 C770 0.961 . S
H758 C770 0.959 . S
H759 C773 0.929 . S
H760 C774 0.931 . S
H761 C776 0.930 . S
C762 H750 0.930 . S
C762 C763 1.399 . S
C762 C767 1.399 . S
C763 C762 1.399 . S
C763 C764 1.376 . S
C764 H751 0.930 . S
C764 C763 1.376 . S
C764 C765 1.388 . S
C765 H752 0.930 . S
C765 C764 1.388 . S
C765 C766 1.390 . S
C766 C765 1.390 . S
C766 C767 1.394 . S
C766 C772 1.465 . S
C767 C762 1.399 . S
C767 C766 1.394 . S
C767 C768 1.516 . S
C768 C767 1.516 . S
C768 C769 1.502 . S
C768 C770 1.561 . S
C768 C771 1.526 . S
C769 H753 0.959 . S
C769 H754 0.959 . S
C769 H755 0.961 . S
C769 C768 1.502 . S
C770 H756 0.960 . S
C770 H757 0.961 . S
C770 H758 0.959 . S
C770 C768 1.561 . S
C771 C768 1.526 . S
C771 C772 1.396 . S
C771 C776 1.390 . S
C772 C766 1.465 . S
C772 C771 1.396 . S
C772 C773 1.399 . S
C773 H759 0.929 . S
C773 C772 1.399 . S
C773 C774 1.385 . S
C774 H760 0.931 . S
C774 C773 1.385 . S
C774 C775 1.389 . S
C775 C774 1.389 . S
C775 C776 1.387 . S
C776 H761 0.930 . S
C776 C771 1.390 . S
C776 C775 1.387 . S
H777 C789 0.930 . S
H778 C791 0.930 . S
H779 C792 0.930 . S
H780 C796 0.959 . S
H781 C796 0.959 . S
H782 C796 0.961 . S
H783 C797 0.960 . S
H784 C797 0.961 . S
H785 C797 0.959 . S
H786 C800 0.929 . S
H787 C801 0.931 . S
H788 C803 0.930 . S
C789 H777 0.930 . S
C789 C790 1.399 . S
C789 C794 1.399 . S
C790 C789 1.399 . S
C790 C791 1.376 . S
C791 H778 0.930 . S
C791 C790 1.376 . S
C791 C792 1.388 . S
C792 H779 0.930 . S
C792 C791 1.388 . S
C792 C793 1.390 . S
C793 C792 1.390 . S
C793 C794 1.394 . S
C793 C799 1.465 . S
C794 C789 1.399 . S
C794 C793 1.394 . S
C794 C795 1.516 . S
C795 C794 1.516 . S
C795 C796 1.502 . S
C795 C797 1.561 . S
C795 C798 1.526 . S
C796 H780 0.959 . S
C796 H781 0.959 . S
C796 H782 0.961 . S
C796 C795 1.502 . S
C797 H783 0.960 . S
C797 H784 0.961 . S
C797 H785 0.959 . S
C797 C795 1.561 . S
C798 C795 1.526 . S
C798 C799 1.396 . S
C798 C803 1.390 . S
C799 C793 1.465 . S
C799 C798 1.396 . S
C799 C800 1.399 . S
C800 H786 0.929 . S
C800 C799 1.399 . S
C800 C801 1.385 . S
C801 H787 0.931 . S
C801 C800 1.385 . S
C801 C802 1.389 . S
C802 C801 1.389 . S
C802 C803 1.387 . S
C803 H788 0.930 . S
C803 C798 1.390 . S
C803 C802 1.387 . S
C277 N71 1.596 . S
C289 N14 1.581 . S
C304 N38 1.602 . S
C316 N113 1.581 . S
C331 N80 1.599 . S
C343 N5 1.588 . S
C358 N104 1.583 . S
C370 N47 1.598 . S
C385 N146 1.593 . S
C397 N203 1.593 . S
C412 N245 1.578 . S
C424 N170 1.598 . S
C439 N137 1.603 . S
C451 N212 1.578 . S
C466 N179 1.602 . S
C478 N236 1.586 . S
C493 C50 1.386 1_565 S
C505 C17 1.396 1_565 S
C520 C83 1.391 . S
C532 C116 1.389 . S
C547 C182 1.385 1_565 S
C559 C149 1.397 1_565 S
C574 C215 1.401 . S
C586 C248 1.386 . S
C601 C259 0.615 . S
C613 C8 0.698 . S
C628 C206 0.741 . S
C640 C61 0.702 . S
C655 C239 0.643 . S
C667 C28 0.653 . S
C682 C41 0.708 . S
C694 C226 0.743 . S
C709 C193 0.744 . S
C721 C74 0.709 . S
C736 C127 0.627 . S
C748 C140 0.670 . S
C763 C173 0.642 . S
C775 C94 0.747 . S
C790 C107 0.637 . S
C802 C160 0.744 . S
