# Generated by pormake.
# Topology qtz-e, (6)-cn, num edge types: 1
# Building blocks:
#     Node 0, Type 0, BuildingBlock: BETFEN_clean_sbu_0, # of connection points: 6
#     Node 1, Type 0, BuildingBlock: BETFEN_clean_sbu_0, # of connection points: 6
#     Node 2, Type 0, BuildingBlock: BETFEN_clean_sbu_0, # of connection points: 6
#     Node 3, Type 0, BuildingBlock: BETFEN_clean_sbu_0, # of connection points: 6
#     Node 4, Type 0, BuildingBlock: BETFEN_clean_sbu_0, # of connection points: 6
#     Node 5, Type 0, BuildingBlock: BETFEN_clean_sbu_0, # of connection points: 6
#     Edge 6, Type (0, 0), BuildingBlock: ZUJKAS_clean_linker_0, # of connection points: 2
#     Edge 7, Type (0, 0), BuildingBlock: ZUJKAS_clean_linker_0, # of connection points: 2
#     Edge 8, Type (0, 0), BuildingBlock: ZUJKAS_clean_linker_0, # of connection points: 2
#     Edge 9, Type (0, 0), BuildingBlock: ZUJKAS_clean_linker_0, # of connection points: 2
#     Edge 10, Type (0, 0), BuildingBlock: ZUJKAS_clean_linker_0, # of connection points: 2
#     Edge 11, Type (0, 0), BuildingBlock: ZUJKAS_clean_linker_0, # of connection points: 2
#     Edge 12, Type (0, 0), BuildingBlock: ZUJKAS_clean_linker_0, # of connection points: 2
#     Edge 13, Type (0, 0), BuildingBlock: ZUJKAS_clean_linker_0, # of connection points: 2
#     Edge 14, Type (0, 0), BuildingBlock: ZUJKAS_clean_linker_0, # of connection points: 2
#     Edge 15, Type (0, 0), BuildingBlock: ZUJKAS_clean_linker_0, # of connection points: 2
#     Edge 16, Type (0, 0), BuildingBlock: ZUJKAS_clean_linker_0, # of connection points: 2
#     Edge 17, Type (0, 0), BuildingBlock: ZUJKAS_clean_linker_0, # of connection points: 2
#     Edge 18, Type (0, 0), BuildingBlock: ZUJKAS_clean_linker_0, # of connection points: 2
#     Edge 19, Type (0, 0), BuildingBlock: ZUJKAS_clean_linker_0, # of connection points: 2
#     Edge 20, Type (0, 0), BuildingBlock: ZUJKAS_clean_linker_0, # of connection points: 2
#     Edge 21, Type (0, 0), BuildingBlock: ZUJKAS_clean_linker_0, # of connection points: 2
#     Edge 22, Type (0, 0), BuildingBlock: ZUJKAS_clean_linker_0, # of connection points: 2
#     Edge 23, Type (0, 0), BuildingBlock: ZUJKAS_clean_linker_0, # of connection points: 2
# Relax obj value: 0.166
# Max RMSD: 0.199
# Mean RMSD: 0.199
data_MOF--net-qtz-e--node1-BETFEN_clean_sbu_0--edge1-ZUJKAS_clean_linker_0
_symmetry_space_group_name_H-M    P1
_symmetry_Int_Tables_number       1
_symmetry_cell_setting            triclinic
loop_
_symmetry_equiv_pos_as_xyz
'x, y, z'
_cell_length_a     32.570085
_cell_length_b     32.484686
_cell_length_c     64.303584
_cell_angle_alpha  90.001244
_cell_angle_beta   89.897964
_cell_angle_gamma 119.9948
loop_
_atom_site_label
_atom_site_type_symbol
_atom_site_fract_x
_atom_site_fract_y
_atom_site_fract_z
_atom_type_partial_charge
Pr0 Pr 0.25544 0.45117 0.063 0.0
Pr1 Pr 0.2148 0.35578 0.08715 0.0
C2 C 0.30429 0.53691 0.04479 0.0
C3 C 0.31619 0.55389 0.02323 0.0
C4 C 0.32464 0.59929 0.01788 0.0
C5 C 0.33727 0.61601 0.99748 0.0
C6 C 0.34196 0.58762 0.98221 0.0
C7 C 0.33271 0.54182 0.9876 0.0
C8 C 0.31969 0.525 0.0079 0.0
C9 C 0.15802 0.38929 0.05773 0.0
C10 C 0.24378 0.35785 0.03843 0.0
C11 C 0.16517 0.27894 0.11155 0.0
C12 C 0.13731 0.26881 0.13082 0.0
C13 C 0.12689 0.22843 0.14258 0.0
C14 C 0.10394 0.22052 0.1618 0.0
C15 C 0.09133 0.25313 0.16969 0.0
C16 C 0.10122 0.29325 0.15765 0.0
C17 C 0.12386 0.30092 0.13835 0.0
C18 C 0.31349 0.40981 0.08506 0.0
C19 C 0.22715 0.45158 0.11233 0.0
O20 O 0.32416 0.51321 0.05183 0.0
O21 O 0.25969 0.51826 0.05018 0.0
O22 O 0.18086 0.39729 0.07441 0.0
O23 O 0.18634 0.41408 0.04268 0.0
O24 O 0.21165 0.33135 0.0525 0.0
O25 O 0.27205 0.40388 0.04129 0.0
O26 O 0.14742 0.28712 0.09482 0.0
O27 O 0.21072 0.308 0.11356 0.0
O28 O 0.28553 0.42511 0.08827 0.0
O29 O 0.29065 0.36373 0.08335 0.0
O30 O 0.24763 0.47778 0.09569 0.0
O31 O 0.21044 0.40519 0.1126 0.0
H32 H 0.32193 0.62195 0.02951 0.0
H33 H 0.34444 0.65153 0.99378 0.0
H34 H 0.33539 0.51893 0.97608 0.0
H35 H 0.31274 0.48957 0.01166 0.0
H36 H 0.13737 0.20348 0.13708 0.0
H37 H 0.09734 0.18958 0.17078 0.0
H38 H 0.09151 0.31875 0.16315 0.0
H39 H 0.1315 0.33228 0.12947 0.0
Pr40 Pr 0.72121 0.18913 0.48281 0.0
Pr41 Pr 0.77011 0.13984 0.45928 0.0
C42 C 0.65821 0.20371 0.50379 0.0
C43 C 0.64672 0.20591 0.52572 0.0
C44 C 0.68222 0.22348 0.54098 0.0
C45 C 0.67057 0.22414 0.56185 0.0
C46 C 0.62314 0.20674 0.56788 0.0
C47 C 0.58771 0.18886 0.55248 0.0
C48 C 0.59946 0.18856 0.5316 0.0
C49 C 0.81865 0.2407 0.48523 0.0
C50 C 0.73881 0.10741 0.50763 0.0
C51 C 0.82182 0.11408 0.43538 0.0
C52 C 0.84908 0.13034 0.41589 0.0
C53 C 0.8583 0.09905 0.40454 0.0
C54 C 0.88034 0.11231 0.38507 0.0
C55 C 0.89328 0.15709 0.37649 0.0
C56 C 0.8849 0.18881 0.38821 0.0
C57 C 0.86303 0.17552 0.40774 0.0
C58 C 0.67163 0.09658 0.45653 0.0
C59 C 0.75885 0.22516 0.43566 0.0
O60 O 0.64857 0.16178 0.49705 0.0
O61 O 0.69881 0.23841 0.49699 0.0
O62 O 0.79486 0.19564 0.48537 0.0
O63 O 0.79179 0.25961 0.48672 0.0
O64 O 0.76474 0.10632 0.49202 0.0
O65 O 0.7173 0.13279 0.50687 0.0
O66 O 0.83913 0.14175 0.4516 0.0
O67 O 0.77605 0.09571 0.43352 0.0
O68 O 0.70083 0.14006 0.45514 0.0
O69 O 0.69294 0.0721 0.45897 0.0
O70 O 0.72506 0.21779 0.44911 0.0
O71 O 0.78551 0.20536 0.43814 0.0
H72 H 0.71894 0.23661 0.53677 0.0
H73 H 0.69883 0.23868 0.57322 0.0
H74 H 0.55075 0.17437 0.55659 0.0
H75 H 0.57155 0.17432 0.52004 0.0
H76 H 0.84772 0.06399 0.41058 0.0
H77 H 0.88702 0.08732 0.3767 0.0
H78 H 0.89392 0.22337 0.38206 0.0
H79 H 0.85613 0.20011 0.41629 0.0
Pr80 Pr 0.51265 0.79169 0.72886 0.0
Pr81 Pr 0.61441 0.83008 0.74833 0.0
C82 C 0.43619 0.782 0.7086 0.0
C83 C 0.42546 0.78348 0.6866 0.0
C84 C 0.38366 0.78257 0.68079 0.0
C85 C 0.37378 0.78434 0.65976 0.0
C86 C 0.40578 0.7873 0.64427 0.0
C87 C 0.4478 0.78839 0.65029 0.0
C88 C 0.45742 0.78628 0.67127 0.0
C89 C 0.54255 0.7258 0.73131 0.0
C90 C 0.61115 0.85349 0.69924 0.0
C91 C 0.68946 0.83952 0.76994 0.0
C92 C 0.69803 0.82665 0.79084 0.0
C93 C 0.74015 0.85746 0.80125 0.0
C94 C 0.74825 0.84694 0.82139 0.0
C95 C 0.71428 0.80535 0.83158 0.0
C96 C 0.67207 0.77434 0.82103 0.0
C97 C 0.66405 0.78487 0.80083 0.0
C98 C 0.57798 0.89133 0.74868 0.0
C99 C 0.51647 0.76909 0.77767 0.0
O100 O 0.46869 0.82241 0.7165 0.0
O101 O 0.44091 0.74583 0.71417 0.0
O102 O 0.56883 0.76895 0.72634 0.0
O103 O 0.49835 0.71473 0.73249 0.0
O104 O 0.63837 0.85106 0.71386 0.0
O105 O 0.5653 0.83712 0.70214 0.0
O106 O 0.66528 0.80458 0.75695 0.0
O107 O 0.67786 0.87266 0.7692 0.0
O108 O 0.55566 0.84787 0.75282 0.0
O109 O 0.62282 0.90668 0.74553 0.0
O110 O 0.49169 0.77776 0.76387 0.0
O111 O 0.56084 0.78003 0.77404 0.0
H112 H 0.35861 0.78031 0.69248 0.0
H113 H 0.34077 0.78271 0.65565 0.0
H114 H 0.47351 0.79132 0.63881 0.0
H115 H 0.48983 0.78684 0.67556 0.0
H116 H 0.76663 0.89001 0.79386 0.0
H117 H 0.7808 0.87195 0.82914 0.0
H118 H 0.64538 0.74178 0.82832 0.0
H119 H 0.63126 0.76049 0.79307 0.0
Pr120 Pr 0.80371 0.54898 0.15092 0.0
Pr121 Pr 0.85435 0.64246 0.12485 0.0
C122 C 0.77198 0.46561 0.17074 0.0
C123 C 0.77198 0.45035 0.19239 0.0
C124 C 0.72969 0.4151 0.20147 0.0
C125 C 0.72933 0.40018 0.22193 0.0
C126 C 0.77139 0.42 0.23363 0.0
C127 C 0.81363 0.45553 0.22455 0.0
C128 C 0.8139 0.47074 0.2042 0.0
C129 C 0.7697 0.612 0.15764 0.0
C130 C 0.8886 0.64483 0.1724 0.0
C131 C 0.88019 0.71694 0.09903 0.0
C132 C 0.86189 0.72709 0.07996 0.0
C133 C 0.89273 0.76508 0.06723 0.0
C134 C 0.87749 0.77213 0.04792 0.0
C135 C 0.83114 0.74098 0.04086 0.0
C136 C 0.79987 0.70365 0.05402 0.0
C137 C 0.81513 0.69686 0.07341 0.0
C138 C 0.89742 0.58663 0.12507 0.0
C139 C 0.76313 0.54574 0.10373 0.0
O140 O 0.81325 0.48811 0.16138 0.0
O141 O 0.74461 0.48348 0.16668 0.0
O142 O 0.78186 0.60267 0.14052 0.0
O143 O 0.77528 0.58789 0.17241 0.0
O144 O 0.8802 0.67 0.15867 0.0
O145 O 0.87156 0.59879 0.1699 0.0
O146 O 0.8564 0.71124 0.11628 0.0
O147 O 0.89468 0.68622 0.09692 0.0
O148 O 0.85401 0.57212 0.12336 0.0
O149 O 0.92162 0.63271 0.12646 0.0
O150 O 0.7625 0.52 0.11976 0.0
O151 O 0.79214 0.5922 0.10272 0.0
H152 H 0.69695 0.39897 0.19269 0.0
H153 H 0.6963 0.3725 0.22846 0.0
H154 H 0.84645 0.47192 0.23326 0.0
H155 H 0.84701 0.49843 0.19773 0.0
H156 H 0.92898 0.78875 0.07203 0.0
H157 H 0.90227 0.8018 0.03844 0.0
H158 H 0.76409 0.67872 0.04908 0.0
H159 H 0.79084 0.66735 0.08307 0.0
Pr160 Pr 0.19147 0.74182 0.39301 0.0
Pr161 Pr 0.1313 0.77322 0.4192 0.0
C162 C 0.23285 0.69881 0.37336 0.0
C163 C 0.2394 0.68871 0.35177 0.0
C164 C 0.25837 0.65925 0.34766 0.0
C165 C 0.25989 0.64501 0.32731 0.0
C166 C 0.2423 0.65998 0.31073 0.0
C167 C 0.22458 0.69075 0.3149 0.0
C168 C 0.22301 0.70488 0.33528 0.0
C169 C 0.21964 0.83837 0.38968 0.0
C170 C 0.10617 0.75017 0.37022 0.0
C171 C 0.09775 0.81342 0.44585 0.0
C172 C 0.11434 0.84108 0.46523 0.0
C173 C 0.08128 0.84132 0.47912 0.0
C174 C 0.09595 0.86403 0.49838 0.0
C175 C 0.14404 0.88681 0.50418 0.0
C176 C 0.17719 0.887 0.49004 0.0
C177 C 0.16247 0.86438 0.47073 0.0
C178 C 0.09315 0.67538 0.41432 0.0
C179 C 0.22185 0.77024 0.44205 0.0
O180 O 0.18896 0.67625 0.37996 0.0
O181 O 0.25633 0.74335 0.37925 0.0
O182 O 0.20637 0.81363 0.40597 0.0
O183 O 0.21878 0.8126 0.37402 0.0
O184 O 0.10959 0.77966 0.38517 0.0
O185 O 0.12666 0.72404 0.37182 0.0
O186 O 0.1205 0.83432 0.42871 0.0
O187 O 0.08755 0.76913 0.44725 0.0
O188 O 0.13563 0.70515 0.41809 0.0
O189 O 0.06731 0.69553 0.41357 0.0
O190 O 0.22761 0.75016 0.42529 0.0
O191 O 0.19017 0.78423 0.44296 0.0
H192 H 0.27096 0.6463 0.36026 0.0
H193 H 0.27431 0.62182 0.32456 0.0
H194 H 0.21033 0.70248 0.30251 0.0
H195 H 0.20775 0.72729 0.33827 0.0
H196 H 0.04393 0.82307 0.47523 0.0
H197 H 0.06936 0.86256 0.50898 0.0
H198 H 0.21453 0.9046 0.49388 0.0
H199 H 0.18855 0.86448 0.46021 0.0
Pr200 Pr 0.45564 0.24105 0.82123 0.0
Pr201 Pr 0.36179 0.20203 0.79548 0.0
C202 C 0.53304 0.29432 0.84446 0.0
C203 C 0.54338 0.31126 0.86603 0.0
C204 C 0.58336 0.31497 0.87592 0.0
C205 C 0.59344 0.33052 0.8965 0.0
C206 C 0.56368 0.34272 0.9075 0.0
C207 C 0.52348 0.33877 0.89754 0.0
C208 C 0.51331 0.32298 0.87699 0.0
C209 C 0.40126 0.14286 0.82142 0.0
C210 C 0.35832 0.23321 0.84341 0.0
C211 C 0.28621 0.1569 0.76995 0.0
C212 C 0.27518 0.13104 0.75007 0.0
C213 C 0.23498 0.12289 0.73885 0.0
C214 C 0.2255 0.10085 0.71936 0.0
C215 C 0.25623 0.0867 0.71068 0.0
C216 C 0.2963 0.09452 0.72214 0.0
C217 C 0.30563 0.11645 0.74166 0.0
C218 C 0.42253 0.30017 0.7954 0.0
C219 C 0.45829 0.20795 0.7738 0.0
O220 O 0.51304 0.31237 0.83279 0.0
O221 O 0.51547 0.24865 0.84175 0.0
O222 O 0.38423 0.17037 0.82195 0.0
O223 O 0.44719 0.16599 0.82275 0.0
O224 O 0.33171 0.20649 0.82792 0.0
O225 O 0.40504 0.25331 0.84316 0.0
O226 O 0.29299 0.13648 0.78607 0.0
O227 O 0.31642 0.20245 0.76895 0.0
O228 O 0.43451 0.26921 0.79346 0.0
O229 O 0.37677 0.281 0.79712 0.0
O230 O 0.48458 0.23784 0.78852 0.0
O231 O 0.41142 0.18535 0.77463 0.0
H232 H 0.60686 0.30594 0.86769 0.0
H233 H 0.62496 0.33376 0.9037 0.0
H234 H 0.49968 0.34748 0.90569 0.0
H235 H 0.48202 0.31994 0.86967 0.0
H236 H 0.21126 0.13424 0.74502 0.0
H237 H 0.19471 0.096 0.71087 0.0
H238 H 0.32043 0.08361 0.71606 0.0
H239 H 0.33682 0.12244 0.7501 0.0
H240 H 0.21517 0.56904 0.29921 0.0
H241 H 0.21104 0.53839 0.26409 0.0
H242 H 0.25902 0.67808 0.23875 0.0
H243 H 0.26419 0.70937 0.27395 0.0
H244 H 0.15634 0.54265 0.22951 0.0
H245 H 0.35045 0.63604 0.21375 0.0
H246 H 0.32653 0.62855 0.23972 0.0
H247 H 0.32643 0.67219 0.22264 0.0
C248 C 0.22547 0.59342 0.2862 0.0
C249 C 0.24041 0.64174 0.28937 0.0
C250 C 0.2227 0.57576 0.26615 0.0
C251 C 0.23512 0.60607 0.24889 0.0
C252 C 0.24981 0.65426 0.25192 0.0
H253 H 0.25599 0.54578 0.11816 0.0
H254 H 0.2544 0.58468 0.15047 0.0
C255 C 0.25242 0.67197 0.272 0.0
C256 C 0.23223 0.58682 0.22776 0.0
H257 H 0.3 0.58861 0.18686 0.0
C258 C 0.18767 0.55277 0.22011 0.0
C259 C 0.27319 0.6004 0.21556 0.0
C260 C 0.32199 0.63605 0.2233 0.0
C261 C 0.18298 0.53163 0.20057 0.0
C262 C 0.2241 0.54417 0.18861 0.0
C263 C 0.26855 0.57904 0.19607 0.0
C264 C 0.22217 0.5201 0.16876 0.0
C265 C 0.13402 0.49634 0.19285 0.0
C266 C 0.20465 0.4709 0.16836 0.0
C267 C 0.20538 0.44852 0.14993 0.0
C268 C 0.22411 0.47501 0.13157 0.0
C269 C 0.2413 0.52428 0.13199 0.0
C270 C 0.24045 0.54661 0.15044 0.0
H271 H 0.10639 0.50159 0.20053 0.0
H272 H 0.13128 0.49917 0.17576 0.0
H273 H 0.12642 0.45981 0.19652 0.0
H274 H 0.1914 0.44991 0.18242 0.0
H275 H 0.19211 0.41059 0.15024 0.0
H276 H 0.4175 0.14302 0.74245 0.0
H277 H 0.4531 0.14155 0.70928 0.0
H278 H 0.58715 0.25878 0.72921 0.0
H279 H 0.55145 0.26137 0.76231 0.0
H280 H 0.55858 0.27444 0.69138 0.0
H281 H 0.54452 0.09695 0.69163 0.0
H282 H 0.49193 0.09687 0.70018 0.0
H283 H 0.54565 0.12808 0.71506 0.0
C284 C 0.45466 0.16822 0.73991 0.0
C285 C 0.48145 0.2027 0.75496 0.0
C286 C 0.47514 0.16694 0.72099 0.0
C287 C 0.52292 0.19975 0.71685 0.0
C288 C 0.55025 0.23302 0.73214 0.0
H289 H 0.66093 0.18774 0.60218 0.0
H290 H 0.64089 0.18946 0.63869 0.0
C291 C 0.52978 0.23436 0.75107 0.0
C292 C 0.5429 0.20228 0.69585 0.0
H293 H 0.55926 0.13615 0.65903 0.0
C294 C 0.55921 0.24438 0.68437 0.0
C295 C 0.54439 0.16335 0.68686 0.0
C296 C 0.53109 0.11881 0.69907 0.0
C297 C 0.57547 0.24803 0.66387 0.0
C298 C 0.57415 0.20803 0.65443 0.0
C299 C 0.55948 0.16652 0.66617 0.0
C300 C 0.58711 0.20825 0.6323 0.0
C301 C 0.59419 0.29483 0.65262 0.0
C302 C 0.56321 0.21779 0.61657 0.0
C303 C 0.57511 0.21763 0.59571 0.0
C304 C 0.61067 0.20714 0.59011 0.0
C305 C 0.63402 0.19685 0.60593 0.0
C306 C 0.62234 0.19742 0.62681 0.0
H307 H 0.60688 0.32498 0.66372 0.0
H308 H 0.62376 0.30148 0.64198 0.0
H309 H 0.56524 0.29418 0.64329 0.0
H310 H 0.53509 0.2251 0.6204 0.0
H311 H 0.55665 0.22612 0.58399 0.0
H312 H 0.40902 0.58247 0.95873 0.0
H313 H 0.4351 0.61293 0.92352 0.0
H314 H 0.33526 0.66346 0.92197 0.0
H315 H 0.30967 0.63381 0.9574 0.0
H316 H 0.38627 0.59003 0.88748 0.0
H317 H 0.45606 0.78108 0.90472 0.0
H318 H 0.44041 0.73715 0.92492 0.0
H319 H 0.3951 0.74369 0.91194 0.0
C320 C 0.3926 0.60003 0.95086 0.0
C321 C 0.35744 0.60595 0.96082 0.0
C322 C 0.40759 0.6175 0.93078 0.0
C323 C 0.38768 0.64114 0.92023 0.0
C324 C 0.35201 0.64645 0.93001 0.0
H325 H 0.43592 0.76079 0.79511 0.0
H326 H 0.40208 0.72772 0.82929 0.0
C327 C 0.33731 0.62938 0.95021 0.0
C328 C 0.40382 0.65932 0.89886 0.0
H329 H 0.45335 0.76015 0.86921 0.0
C330 C 0.40099 0.62724 0.8835 0.0
C331 C 0.42306 0.70792 0.89369 0.0
C332 C 0.42932 0.74457 0.90971 0.0
C333 C 0.41678 0.64241 0.86313 0.0
C334 C 0.43601 0.69091 0.85802 0.0
C335 C 0.43831 0.72292 0.87323 0.0
C336 C 0.45556 0.70946 0.83714 0.0
C337 C 0.4126 0.60651 0.84715 0.0
C338 C 0.49689 0.71023 0.83038 0.0
C339 C 0.5164 0.72925 0.81096 0.0
C340 C 0.49489 0.74782 0.79796 0.0
C341 C 0.45321 0.7466 0.80473 0.0
C342 C 0.4339 0.72785 0.82424 0.0
H343 H 0.38793 0.56946 0.85227 0.0
H344 H 0.40008 0.61276 0.83206 0.0
H345 H 0.44802 0.61025 0.84456 0.0
H346 H 0.51438 0.69666 0.84024 0.0
H347 H 0.54835 0.72937 0.80618 0.0
H348 H 0.7022 0.2594 0.42157 0.0
H349 H 0.70706 0.29709 0.38798 0.0
H350 H 0.83286 0.29103 0.37268 0.0
H351 H 0.82826 0.25324 0.40607 0.0
H352 H 0.78121 0.38148 0.36865 0.0
H353 H 0.73937 0.21735 0.32508 0.0
H354 H 0.72999 0.21744 0.35275 0.0
H355 H 0.78855 0.23788 0.34267 0.0
C356 C 0.73117 0.26645 0.41115 0.0
C357 C 0.76442 0.25257 0.4164 0.0
C358 C 0.73386 0.288 0.39196 0.0
C359 C 0.76974 0.29593 0.37769 0.0
C360 C 0.80427 0.28424 0.38329 0.0
H361 H 0.83499 0.39843 0.2508 0.0
H362 H 0.83518 0.3706 0.28617 0.0
C363 C 0.80159 0.26267 0.40242 0.0
C364 C 0.77008 0.3148 0.35667 0.0
H365 H 0.76027 0.28628 0.30509 0.0
C366 C 0.77647 0.36068 0.35474 0.0
C367 C 0.76376 0.28745 0.33858 0.0
C368 C 0.75461 0.23713 0.33977 0.0
C369 C 0.77764 0.38032 0.33511 0.0
C370 C 0.77157 0.35302 0.31705 0.0
C371 C 0.76505 0.30713 0.31899 0.0
C372 C 0.77197 0.37138 0.2959 0.0
C373 C 0.78635 0.43042 0.3338 0.0
C374 C 0.73609 0.38059 0.28962 0.0
C375 C 0.7358 0.39636 0.2694 0.0
C376 C 0.77151 0.40332 0.25513 0.0
C377 C 0.80737 0.39402 0.26151 0.0
C378 C 0.80743 0.37794 0.28167 0.0
H379 H 0.80054 0.45011 0.3486 0.0
H380 H 0.81165 0.45033 0.32106 0.0
H381 H 0.75244 0.42931 0.33037 0.0
H382 H 0.70801 0.37507 0.3003 0.0
H383 H 0.70788 0.40348 0.26497 0.0
H384 H 0.36626 0.83559 0.62615 0.0
H385 H 0.34542 0.83476 0.5896 0.0
H386 H 0.40241 0.74352 0.57507 0.0
H387 H 0.42152 0.74241 0.61173 0.0
H388 H 0.40208 0.86215 0.55365 0.0
H389 H 0.26719 0.66954 0.55266 0.0
H390 H 0.29163 0.70184 0.5765 0.0
H391 H 0.32541 0.68346 0.56088 0.0
C392 C 0.37393 0.81493 0.61523 0.0
C393 C 0.3951 0.78867 0.62191 0.0
C394 C 0.36244 0.8149 0.59433 0.0
C395 C 0.37184 0.78859 0.57972 0.0
C396 C 0.39419 0.76344 0.58618 0.0
H397 H 0.28004 0.73346 0.44963 0.0
H398 H 0.32416 0.74101 0.4816 0.0
C399 C 0.40551 0.76327 0.6071 0.0
C400 C 0.357 0.78665 0.55785 0.0
H401 H 0.28038 0.71156 0.52127 0.0
C402 C 0.37571 0.82921 0.5465 0.0
C403 C 0.32272 0.74355 0.54857 0.0
C404 C 0.30019 0.69701 0.56028 0.0
C405 C 0.36039 0.82991 0.5262 0.0
C406 C 0.3251 0.78705 0.5172 0.0
C407 C 0.3076 0.7443 0.52825 0.0
C408 C 0.3026 0.78621 0.49717 0.0
C409 C 0.38172 0.87649 0.51458 0.0
C410 C 0.27595 0.80909 0.49544 0.0
C411 C 0.25055 0.80462 0.47735 0.0
C412 C 0.25123 0.77706 0.46063 0.0
C413 C 0.27885 0.75501 0.46221 0.0
C414 C 0.30408 0.75928 0.48043 0.0
H415 H 0.41695 0.90274 0.52095 0.0
H416 H 0.38568 0.87135 0.49777 0.0
H417 H 0.358 0.89169 0.51611 0.0
H418 H 0.27361 0.82926 0.50836 0.0
H419 H 0.22976 0.82218 0.47667 0.0
H420 H 0.73402 0.58585 0.07428 0.0
H421 H 0.68857 0.5486 0.04288 0.0
H422 H 0.67669 0.41521 0.06109 0.0
H423 H 0.72124 0.45206 0.09283 0.0
H424 H 0.71755 0.51244 0.01271 0.0
H425 H 0.54331 0.37174 0.04204 0.0
H426 H 0.58547 0.4194 0.05834 0.0
H427 H 0.59197 0.36845 0.05327 0.0
C428 C 0.72129 0.54846 0.07172 0.0
C429 C 0.73156 0.52197 0.08591 0.0
C430 C 0.69511 0.52717 0.05382 0.0
C431 C 0.67886 0.47903 0.04972 0.0
C432 C 0.68788 0.45211 0.06416 0.0
H433 H 0.59221 0.30709 0.93929 0.0
H434 H 0.61656 0.34001 0.97434 0.0
C435 C 0.71363 0.4733 0.08223 0.0
C436 C 0.657 0.4585 0.02937 0.0
H437 H 0.56096 0.36561 1.00629 0.0
C438 C 0.68304 0.48069 0.01131 0.0
C439 C 0.61202 0.41698 0.02759 0.0
C440 C 0.58136 0.39302 0.04634 0.0
C441 C 0.66588 0.46186 0.99156 0.0
C442 C 0.6215 0.41985 0.98984 0.0
C443 C 0.59508 0.39781 0.00779 0.0
C444 C 0.60287 0.3979 0.9694 0.0
C445 C 0.69577 0.48624 0.97265 0.0
C446 C 0.58654 0.41933 0.95528 0.0
C447 C 0.57272 0.40073 0.93529 0.0
C448 C 0.57526 0.36053 0.92912 0.0
C449 C 0.59048 0.33845 0.94355 0.0
C450 C 0.60402 0.35693 0.96357 0.0
H451 H 0.73209 0.51469 0.97686 0.0
H452 H 0.69849 0.46003 0.96251 0.0
H453 H 0.67862 0.50247 0.9635 0.0
H454 H 0.58546 0.45102 0.9596 0.0
H455 H 0.56147 0.41867 0.92446 0.0
H456 H 0.37736 0.38027 0.09302 0.0
H457 H 0.45842 0.42965 0.10617 0.0
H458 H 0.44496 0.55465 0.1001 0.0
H459 H 0.36393 0.50561 0.08766 0.0
H460 H 0.539 0.50704 0.0906 0.0
H461 H 0.47589 0.55652 0.16146 0.0
H462 H 0.43632 0.50993 0.14408 0.0
H463 H 0.45782 0.57121 0.13755 0.0
C464 C 0.39205 0.41834 0.09423 0.0
C465 C 0.36441 0.43914 0.08951 0.0
C466 C 0.43816 0.44646 0.10178 0.0
C467 C 0.45706 0.49557 0.10461 0.0
C468 C 0.43052 0.51667 0.09858 0.0
H469 H 0.75612 0.66938 0.13157 0.0
H470 H 0.67784 0.6525 0.11991 0.0
C471 C 0.38445 0.48864 0.09126 0.0
C472 C 0.50392 0.52453 0.11446 0.0
H473 H 0.55903 0.59383 0.15679 0.0
C474 C 0.5435 0.52624 0.105 0.0
C475 C 0.50935 0.54903 0.1334 0.0
C476 C 0.46757 0.54633 0.14485 0.0
C477 C 0.58853 0.55152 0.11405 0.0
C478 C 0.59415 0.57679 0.1328 0.0
C479 C 0.55461 0.57529 0.14221 0.0
C480 C 0.63996 0.60018 0.14386 0.0
C481 C 0.62924 0.54923 0.10388 0.0
C482 C 0.64439 0.58045 0.16254 0.0
C483 C 0.68914 0.59088 0.16952 0.0
C484 C 0.7295 0.62055 0.15762 0.0
C485 C 0.72538 0.6461 0.1409 0.0
C486 C 0.6807 0.63605 0.13408 0.0
H487 H 0.61684 0.52052 0.09205 0.0
H488 H 0.65279 0.58348 0.09595 0.0
H489 H 0.65059 0.54317 0.11564 0.0
H490 H 0.61323 0.55315 0.17046 0.0
H491 H 0.6913 0.57085 0.18253 0.0
H492 H 0.00106 0.60452 0.41833 0.0
H493 H 0.97292 0.52038 0.42505 0.0
H494 H 0.1155 0.54569 0.41781 0.0
H495 H 0.14414 0.63019 0.41284 0.0
H496 H 0.97242 0.44833 0.40551 0.0
H497 H 0.0885 0.49371 0.47514 0.0
H498 H 0.0821 0.53793 0.46095 0.0
H499 H 0.11904 0.51584 0.45091 0.0
C500 C 0.02624 0.59197 0.41802 0.0
C501 C 0.07475 0.62381 0.41521 0.0
C502 C 0.0102 0.54392 0.42177 0.0
C503 C 0.04234 0.52692 0.42243 0.0
C504 C 0.09029 0.55817 0.41802 0.0
H505 H 0.86893 0.22622 0.45482 0.0
H506 H 0.93952 0.28933 0.43772 0.0
C507 C 0.10649 0.60637 0.41487 0.0
C508 C 0.02571 0.4775 0.42934 0.0
H509 H 0.0341 0.4137 0.46963 0.0
C510 C 0.98628 0.44047 0.41935 0.0
C511 C 0.04433 0.46743 0.4473 0.0
C512 C 0.08556 0.50577 0.45932 0.0
C513 C 0.96217 0.39459 0.42786 0.0
C514 C 0.9792 0.38522 0.44652 0.0
C515 C 0.02139 0.42107 0.45531 0.0
C516 C 0.94813 0.34365 0.45967 0.0
C517 C 0.91633 0.35805 0.41784 0.0
C518 C 0.93281 0.3521 0.47878 0.0
C519 C 0.89348 0.31576 0.48878 0.0
C520 C 0.8689 0.27043 0.47985 0.0
C521 C 0.88775 0.26043 0.46221 0.0
C522 C 0.92755 0.29687 0.45219 0.0
H523 H 0.90544 0.3732 0.40491 0.0
H524 H 0.92062 0.32872 0.41141 0.0
H525 H 0.88722 0.34274 0.42949 0.0
H526 H 0.94828 0.38782 0.48497 0.0
H527 H 0.87947 0.32433 0.50237 0.0
H528 H 0.34707 0.10457 0.78689 0.0
H529 H 0.34437 0.03851 0.76784 0.0
H530 H 0.40195 0.00474 0.82129 0.0
H531 H 0.40491 0.071 0.84008 0.0
H532 H 0.43478 0.05795 0.76233 0.0
H533 H 0.3313 0.87621 0.79341 0.0
H534 H 0.31495 0.92105 0.79816 0.0
H535 H 0.35839 0.91766 0.8143 0.0
C536 C 0.35591 0.08112 0.79503 0.0
C537 C 0.37648 0.09301 0.81484 0.0
C538 C 0.35462 0.04334 0.78407 0.0
C539 C 0.37325 0.0168 0.79306 0.0
C540 C 0.38671 0.02415 0.81407 0.0
H541 H 0.56359 0.92235 0.78508 0.0
H542 H 0.50818 0.95122 0.79147 0.0
C543 C 0.38851 0.06221 0.82485 0.0
C544 C 0.39257 0.9934 0.77973 0.0
H545 H 0.41107 0.89907 0.78013 0.0
C546 C 0.4285 0.0225 0.76562 0.0
C547 C 0.38447 0.94736 0.78408 0.0
C548 C 0.34478 0.91368 0.79818 0.0
C549 C 0.45998 0.00887 0.75763 0.0
C550 C 0.45441 0.96449 0.76348 0.0
C551 C 0.41565 0.93346 0.77593 0.0
C552 C 0.49125 0.95186 0.75897 0.0
C553 C 0.50126 0.04372 0.74452 0.0
C554 C 0.50136 0.94452 0.73852 0.0
C555 C 0.53384 0.92903 0.73488 0.0
C556 C 0.5563 0.92079 0.75163 0.0
C557 C 0.54755 0.92988 0.77196 0.0
C558 C 0.51541 0.94555 0.7756 0.0
H559 H 0.505 0.07963 0.74466 0.0
H560 H 0.53489 0.04679 0.75014 0.0
H561 H 0.49582 0.03087 0.72822 0.0
H562 H 0.48269 0.94874 0.72552 0.0
H563 H 0.53921 0.92073 0.71914 0.0
H564 H 0.49993 0.66916 0.7641 0.0
H565 H 0.51929 0.61435 0.78067 0.0
H566 H 0.64177 0.66255 0.74083 0.0
H567 H 0.62219 0.7189 0.72397 0.0
H568 H 0.58119 0.5678 0.73812 0.0
H569 H 0.6112 0.61132 0.82104 0.0
H570 H 0.56164 0.61699 0.81307 0.0
H571 H 0.61922 0.65517 0.80169 0.0
C572 C 0.53155 0.66887 0.75906 0.0
C573 C 0.55915 0.6975 0.74251 0.0
C574 C 0.54315 0.63807 0.76886 0.0
C575 C 0.58251 0.63486 0.76229 0.0
C576 C 0.61165 0.66505 0.74634 0.0
H577 H 0.51745 0.34274 0.78834 0.0
H578 H 0.57301 0.42753 0.78283 0.0
C579 C 0.60033 0.69682 0.73665 0.0
C580 C 0.58592 0.5934 0.76941 0.0
H581 H 0.5583 0.52449 0.81291 0.0
C582 C 0.57842 0.55881 0.7545 0.0
C583 C 0.58279 0.58185 0.79078 0.0
C584 C 0.59472 0.61868 0.8075 0.0
C585 C 0.56101 0.51134 0.76031 0.0
C586 C 0.55147 0.49869 0.78152 0.0
C587 C 0.56478 0.53427 0.79661 0.0
C588 C 0.52048 0.44868 0.78771 0.0
C589 C 0.54817 0.47425 0.7436 0.0
C590 C 0.47291 0.43293 0.79273 0.0
C591 C 0.44105 0.38461 0.79579 0.0
C592 C 0.45645 0.35148 0.79392 0.0
C593 C 0.5046 0.36759 0.78977 0.0
C594 C 0.53641 0.41591 0.78666 0.0
H595 H 0.55641 0.48994 0.72773 0.0
H596 H 0.56801 0.45513 0.7461 0.0
H597 H 0.50975 0.4477 0.74445 0.0
H598 H 0.46006 0.4579 0.79348 0.0
H599 H 0.40423 0.37312 0.79907 0.0
H600 H 0.09116 0.33333 0.0857 0.0
H601 H 0.02516 0.34375 0.09672 0.0
H602 H 0.05061 0.43681 0.04442 0.0
H603 H 0.11542 0.42524 0.03302 0.0
H604 H 0.05249 0.43167 0.10891 0.0
H605 H 0.90984 0.37907 0.05106 0.0
H606 H 0.95016 0.35608 0.05051 0.0
H607 H 0.96696 0.41303 0.0391 0.0
C608 C 0.08085 0.3538 0.07592 0.0
C609 C 0.10872 0.37909 0.05872 0.0
C610 C 0.04332 0.35996 0.08229 0.0
C611 C 0.0333 0.39149 0.07154 0.0
C612 C 0.05721 0.41183 0.05283 0.0
H613 H 0.99049 0.61226 0.11913 0.0
H614 H 0.02091 0.5601 0.1082 0.0
C615 C 0.09445 0.40524 0.04631 0.0
C616 C 0.0067 0.41147 0.08208 0.0
H617 H 0.92349 0.44412 0.07408 0.0
C618 C 0.02353 0.43344 0.10148 0.0
C619 C 0.96899 0.41382 0.07245 0.0
C620 C 0.94766 0.38877 0.05222 0.0
C621 C 0.00518 0.45955 0.11104 0.0
C622 C 0.96979 0.46467 0.1007 0.0
C623 C 0.95122 0.44075 0.08182 0.0
C624 C 0.95234 0.49567 0.10888 0.0
C625 C 0.02429 0.48184 0.13198 0.0
C626 C 0.90389 0.47673 0.11279 0.0
C627 C 0.88656 0.50639 0.11882 0.0
C628 C 0.91738 0.55557 0.12102 0.0
C629 C 0.96611 0.57444 0.11769 0.0
C630 C 0.98346 0.54467 0.11153 0.0
H631 H 0.03995 0.46312 0.14042 0.0
H632 H 0.05266 0.51931 0.12973 0.0
H633 H -0.00391 0.48154 0.14182 0.0
H634 H 0.87934 0.43908 0.11079 0.0
H635 H 0.84874 0.4909 0.12121 0.0
H636 H 0.22497 0.90024 0.41916 0.0
H637 H 0.29906 0.96763 0.43139 0.0
H638 H 0.37154 0.95468 0.37771 0.0
H639 H 0.2975 0.88864 0.36514 0.0
H640 H 0.36147 0.94292 0.44235 0.0
H641 H 0.45003 0.09416 0.38823 0.0
H642 H 0.3873 0.05196 0.38671 0.0
H643 H 0.4297 0.03947 0.37443 0.0
C644 C 0.2562 0.91369 0.40937 0.0
C645 C 0.25588 0.88882 0.39144 0.0
C646 C 0.29857 0.95201 0.41644 0.0
C647 C 0.34098 0.96579 0.40563 0.0
C648 C 0.33927 0.94516 0.38621 0.0
H649 H 0.60298 0.00377 0.45032 0.0
H650 H 0.52009 0.97474 0.44064 0.0
C651 C 0.29676 0.90718 0.37902 0.0
C652 C 0.38689 0.99226 0.41659 0.0
H653 H 0.50234 0.07744 0.40939 0.0
C654 C 0.39204 0.97316 0.43539 0.0
C655 C 0.42674 0.0317 0.40762 0.0
C656 C 0.42298 0.05574 0.38824 0.0
C657 C 0.43641 0.99069 0.44481 0.0
C658 C 0.47684 0.02751 0.43489 0.0
C659 C 0.47136 0.04855 0.41679 0.0
C660 C 0.52537 0.04385 0.44255 0.0
C661 C 0.43953 0.96906 0.4651 0.0
C662 C 0.55569 0.09217 0.44667 0.0
C663 C 0.60288 0.10872 0.45185 0.0
C664 C 0.62062 0.07724 0.45308 0.0
C665 C 0.59 0.02861 0.44961 0.0
C666 C 0.54269 0.01206 0.44421 0.0
H667 H 0.40549 0.95336 0.47381 0.0
H668 H 0.44729 0.94008 0.46185 0.0
H669 H 0.46813 0.99583 0.47515 0.0
H670 H 0.54309 0.11727 0.44544 0.0
H671 H 0.62574 0.14647 0.45442 0.0
H672 H 0.26658 0.17901 0.85754 0.0
H673 H 0.23278 0.19071 0.88979 0.0
H674 H 0.36618 0.31642 0.90326 0.0
H675 H 0.40004 0.3051 0.87143 0.0
H676 H 0.27985 0.20321 0.93353 0.0
H677 H 0.25644 0.35281 0.90684 0.0
H678 H 0.25705 0.30983 0.88915 0.0
H679 H 0.3116 0.3564 0.89972 0.0
C680 C 0.28849 0.20934 0.86731 0.0
C681 C 0.33606 0.241 0.86198 0.0
C682 C 0.26922 0.21583 0.88573 0.0
C683 C 0.29702 0.2545 0.89881 0.0
C684 C 0.34412 0.28649 0.89331 0.0
H685 H 0.31338 0.39974 0.00926 0.0
H686 H 0.31898 0.36822 0.97574 0.0
C687 C 0.36346 0.27979 0.87513 0.0
C688 C 0.27813 0.26157 0.91861 0.0
H689 H 0.25586 0.34119 0.94341 0.0
C690 C 0.27357 0.23272 0.9357 0.0
C691 C 0.27024 0.30021 0.92129 0.0
C692 C 0.27367 0.3315 0.90327 0.0
C693 C 0.26414 0.24334 0.95576 0.0
C694 C 0.25832 0.28335 0.95861 0.0
C695 C 0.26048 0.31064 0.94124 0.0
C696 C 0.25461 0.30052 0.97957 0.0
C697 C 0.26332 0.21342 0.97387 0.0
C698 C 0.21662 0.27279 0.99305 0.0
C699 C 0.21344 0.29069 0.01249 0.0
C700 C 0.24796 0.33679 0.01862 0.0
C701 C 0.28605 0.36413 1.00509 0.0
C702 C 0.28931 0.3462 0.98584 0.0
H703 H 0.27748 0.18974 0.96959 0.0
H704 H 0.28438 0.23628 0.98705 0.0
H705 H 0.22623 0.19082 0.97928 0.0
H706 H 0.18899 0.23774 0.9884 0.0
H707 H 0.18346 0.26888 0.02246 0.0
H708 H 0.86875 0.09989 0.34209 0.0
H709 H 0.90354 0.12024 0.30734 0.0
H710 H -0.00215 0.26413 0.32732 0.0
H711 H 0.96459 0.24358 0.36244 0.0
H712 H 0.90704 0.18615 0.27963 0.0
H713 H 0.08916 0.2283 0.30094 0.0
H714 H 0.03949 0.19824 0.31847 0.0
H715 H 0.06786 0.26157 0.31508 0.0
C716 C 0.89744 0.1357 0.33924 0.0
C717 C 0.9142 0.16993 0.3552 0.0
C718 C 0.917 0.14738 0.31928 0.0
C719 C 0.9538 0.1935 0.31478 0.0
C720 C 0.97013 0.22805 0.33052 0.0
H721 H 0.11197 0.3195 0.20019 0.0
H722 H 0.0773 0.30693 0.23508 0.0
C723 C 0.95067 0.21636 0.35055 0.0
C724 C 0.9744 0.20528 0.29349 0.0
H725 H 0.07716 0.2432 0.26608 0.0
C726 C 0.94423 0.1986 0.27667 0.0
C727 C 0.02297 0.22158 0.28964 0.0
C728 C 0.05675 0.22748 0.30694 0.0
C729 C 0.96131 0.20788 0.25613 0.0
C730 C 0.00972 0.22375 0.25229 0.0
C731 C 0.04006 0.2311 0.2691 0.0
C732 C 0.02934 0.23163 0.23088 0.0
C733 C 0.92751 0.20105 0.23871 0.0
C734 C 0.01398 0.19341 0.217 0.0
C735 C 0.03367 0.20045 0.19706 0.0
C736 C 0.06915 0.2459 0.19062 0.0
C737 C 0.08426 0.28418 0.20456 0.0
C738 C 0.06472 0.27703 0.22454 0.0
H739 H 0.89497 0.20023 0.24453 0.0
H740 H 0.94476 0.22984 0.22697 0.0
H741 H 0.91672 0.16672 0.23085 0.0
H742 H 0.98719 0.15794 0.22168 0.0
H743 H 0.02105 0.1703 0.18668 0.0
H744 H 0.56447 0.86017 0.66534 0.0
H745 H 0.59761 0.89956 0.63242 0.0
H746 H 0.73795 0.93841 0.65353 0.0
H747 H 0.70489 0.89874 0.68693 0.0
H748 H 0.73142 0.01418 0.63619 0.0
H749 H 0.6499 0.85842 0.5838 0.0
H750 H 0.60719 0.86097 0.60061 0.0
H751 H 0.65347 0.85289 0.6116 0.0
C752 C 0.60236 0.87647 0.66304 0.0
C753 C 0.63193 0.87594 0.67886 0.0
C754 C 0.62123 0.89883 0.64406 0.0
C755 C 0.67014 0.92119 0.64033 0.0
C756 C 0.7 0.92091 0.65601 0.0
H757 H 0.7703 0.04434 0.51534 0.0
H758 H 0.76103 -0.00012 0.54757 0.0
C759 C 0.68104 0.89821 0.67508 0.0
C760 C 0.68971 0.94729 0.6205 0.0
H761 H 0.67603 0.93474 0.56779 0.0
C762 C 0.72003 0.99671 0.62122 0.0
C763 C 0.67537 0.92446 0.60095 0.0
C764 C 0.64508 0.87118 0.59914 0.0
C765 C 0.73397 0.0242 0.60296 0.0
C766 C 0.71668 0.00174 0.58352 0.0
C767 C 0.68883 0.95202 0.58271 0.0
C768 C 0.72388 0.02946 0.56414 0.0
C769 C 0.76633 0.07723 0.60469 0.0
C770 C 0.70548 0.06022 0.56268 0.0
C771 C 0.71048 0.08539 0.54436 0.0
C772 C 0.73393 0.0803 0.52698 0.0
C773 C 0.75222 0.04925 0.52843 0.0
C774 C 0.74697 0.02382 0.54682 0.0
H775 H 0.78773 0.08681 0.61917 0.0
H776 H 0.7907 0.09143 0.59114 0.0
H777 H 0.74461 0.09481 0.60516 0.0
H778 H 0.68662 0.06434 0.57567 0.0
H779 H 0.69579 0.10882 0.54389 0.0
H780 H 0.79684 0.81688 0.84808 0.0
H781 H 0.81199 0.80343 0.88395 0.0
H782 H 0.66674 0.75735 0.90004 0.0
H783 H 0.65126 0.77076 0.86414 0.0
H784 H 0.80386 0.84658 0.91939 0.0
H785 H 0.68435 0.65108 0.92407 0.0
H786 H 0.70066 0.68282 0.89966 0.0
H787 H 0.65606 0.68367 0.91586 0.0
C788 C 0.76807 0.80387 0.85923 0.0
C789 C 0.72282 0.79492 0.85321 0.0
C790 C 0.77675 0.79602 0.87972 0.0
C791 C 0.7404 0.77885 0.89465 0.0
C792 C 0.69509 0.7696 0.88871 0.0
H793 H 0.74472 0.7284 0.02836 0.0
H794 H 0.7211 0.73764 0.99327 0.0
C795 C 0.68631 0.77733 0.86816 0.0
C796 C 0.75074 0.77268 0.91659 0.0
H797 H 0.72173 0.69054 0.95534 0.0
C798 C 0.78592 0.81243 0.92723 0.0
C799 C 0.72712 0.72817 0.92686 0.0
C800 C 0.69022 0.68386 0.91601 0.0
C801 C 0.79817 0.80893 0.94782 0.0
C802 C 0.7751 0.76432 0.95798 0.0
C803 C 0.73933 0.7247 0.94751 0.0
C804 C 0.78898 0.75791 0.9792 0.0
C805 C 0.83547 0.85312 0.95861 0.0
C806 C 0.83467 0.76543 0.98284 0.0
C807 C 0.84817 0.75987 1.00279 0.0
C808 C 0.81625 0.7466 0.0196 0.0
C809 C 0.77016 0.73837 0.01581 0.0
C810 C 0.75663 0.74381 0.99578 0.0
H811 H 0.84065 0.88597 0.95086 0.0
H812 H 0.82588 0.85371 0.97514 0.0
H813 H 0.86975 0.85358 0.95819 0.0
H814 H 0.85987 0.7753 0.97018 0.0
H815 H 0.88352 0.76536 1.00496 0.0
H816 H 0.07485 0.80974 0.35625 0.0
H817 H 0.0341 0.80388 0.32326 0.0
H818 H 0.03744 0.67641 0.30793 0.0
H819 H 0.07802 0.68192 0.34046 0.0
H820 H 0.07084 0.7955 0.28011 0.0
H821 H 0.89444 0.6451 0.30219 0.0
H822 H 0.93697 0.68441 0.32113 0.0
H823 H 0.94384 0.63799 0.30942 0.0
C824 C 0.06653 0.78029 0.3459 0.0
C825 C 0.07959 0.74625 0.35099 0.0
C826 C 0.04348 0.77714 0.32708 0.0
C827 C 0.0326 0.73955 0.31332 0.0
C828 C 0.04523 0.70544 0.31846 0.0
H829 H 0.92342 0.6069 0.20011 0.0
H830 H 0.95834 0.63808 0.23396 0.0
C831 C 0.06853 0.70876 0.33707 0.0
C832 C 0.009 0.73561 0.29323 0.0
H833 H 0.91059 0.65915 0.26581 0.0
C834 C 0.03537 0.76646 0.27699 0.0
C835 C 0.96281 0.69767 0.28935 0.0
C836 C 0.93258 0.66455 0.30647 0.0
C837 C 0.01785 0.75819 0.25653 0.0
C838 C 0.97273 0.71845 0.25245 0.0
C839 C 0.9453 0.68946 0.26898 0.0
C840 C 0.95529 0.70282 0.23104 0.0
C841 C 0.04874 0.79003 0.23924 0.0
C842 C 0.9428 0.72943 0.21797 0.0
C843 C 0.92287 0.71171 0.19839 0.0
C844 C 0.91485 0.66699 0.19177 0.0
C845 C 0.92883 0.64133 0.20472 0.0
C846 C 0.94877 0.65905 0.22412 0.0
H847 H 0.08512 0.8157 0.24466 0.0
H848 H 0.05118 0.76843 0.22642 0.0
H849 H 0.03263 0.81039 0.23281 0.0
H850 H 0.94709 0.76308 0.22315 0.0
H851 H 0.91218 0.73216 0.18882 0.0
H852 H 0.32043 0.10355 0.67949 0.0
H853 H 0.30462 0.06954 0.64447 0.0
H854 H 0.15548 0.98754 0.65877 0.0
H855 H 0.17106 0.02039 0.694 0.0
H856 H 0.19111 0.93537 0.63805 0.0
H857 H 0.24211 0.10559 0.59771 0.0
H858 H 0.2863 0.10716 0.6149 0.0
H859 H 0.23108 0.09781 0.62535 0.0
C860 C 0.28431 0.0779 0.67528 0.0
C861 C 0.24697 0.06491 0.68956 0.0
C862 C 0.27529 0.05888 0.65517 0.0
C863 C 0.22878 0.02658 0.6489 0.0
C864 C 0.1916 0.01269 0.66324 0.0
H865 H 0.11345 0.93999 0.5252 0.0
H866 H 0.13519 0.97311 0.56025 0.0
C867 C 0.20054 0.03175 0.68332 0.0
C868 C 0.21871 0.00727 0.6274 0.0
H869 H 0.22372 0.03918 0.57641 0.0
C870 C 0.19832 0.95803 0.62456 0.0
C871 C 0.22764 0.03687 0.60984 0.0
C872 C 0.2476 0.08976 0.612 0.0
C873 C 0.18684 0.93761 0.60462 0.0
C874 C 0.19654 0.96731 0.58703 0.0
C875 C 0.2167 0.01652 0.58989 0.0
C876 C 0.18439 0.94782 0.56559 0.0
C877 C 0.16334 0.8843 0.60261 0.0
C878 C 0.2054 0.92323 0.55679 0.0
C879 C 0.19285 0.904 0.53678 0.0
C880 C 0.15912 0.90912 0.52511 0.0
C881 C 0.13896 0.9347 0.53384 0.0
C882 C 0.15158 0.95394 0.55383 0.0
H883 H 0.14831 0.86604 0.61764 0.0
H884 H 0.13451 0.87076 0.59088 0.0
H885 H 0.18999 0.87472 0.5974 0.0
H886 H 0.23142 0.91875 0.56544 0.0
H887 H 0.20885 0.88426 0.53062 0.0
loop_
_geom_bond_atom_site_label_1
_geom_bond_atom_site_label_2
_geom_bond_distance
_geom_bond_site_symmetry_2
_ccdc_geom_bond_type
Pr0 C2 2.880 . S
Pr0 O20 2.562 . S
Pr0 O21 2.490 . S
Pr0 O22 2.695 . S
Pr0 O23 2.512 . S
Pr0 O25 2.437 . S
Pr0 O28 2.436 . S
Pr0 O30 2.438 . S
Pr1 C11 2.880 . S
Pr1 O22 2.436 . S
Pr1 O24 2.438 . S
Pr1 O26 2.562 . S
Pr1 O27 2.490 . S
Pr1 O28 2.695 . S
Pr1 O29 2.512 . S
Pr1 O31 2.437 . S
C2 Pr0 2.880 . S
C2 C3 1.452 1_554 S
C2 O20 1.254 . S
C2 O21 1.225 . S
C3 C2 1.452 1_556 S
C3 C4 1.417 . S
C3 C8 1.372 . S
C4 C3 1.417 . S
C4 C5 1.368 . S
C4 H32 0.929 . S
C5 C4 1.368 . S
C5 C6 1.386 . S
C5 H33 0.929 . S
C6 C5 1.386 . S
C6 C7 1.373 . S
C7 C6 1.373 . S
C7 C8 1.409 . S
C7 H34 0.931 . S
C8 C3 1.372 . S
C8 C7 1.409 . S
C8 H35 0.954 . S
C9 O22 1.270 . S
C9 O23 1.248 . S
C10 O24 1.267 . S
C10 O25 1.278 . S
C11 Pr1 2.880 . S
C11 C12 1.491 . S
C11 O26 1.254 . S
C11 O27 1.225 . S
C12 C11 1.491 . S
C12 C13 1.392 . S
C12 C17 1.356 . S
C13 C12 1.392 . S
C13 C14 1.368 . S
C13 H36 0.929 . S
C14 C13 1.368 . S
C14 C15 1.386 . S
C14 H37 0.929 . S
C15 C14 1.386 . S
C15 C16 1.373 . S
C16 C15 1.373 . S
C16 C17 1.409 . S
C16 H38 0.931 . S
C17 C12 1.356 . S
C17 C16 1.409 . S
C17 H39 0.930 . S
C18 O28 1.270 . S
C18 O29 1.248 . S
C19 O30 1.267 . S
C19 O31 1.278 . S
O20 Pr0 2.562 . S
O20 C2 1.254 . S
O21 Pr0 2.490 . S
O21 C2 1.225 . S
O22 Pr0 2.695 . S
O22 Pr1 2.436 . S
O22 C9 1.270 . S
O23 Pr0 2.512 . S
O23 C9 1.248 . S
O24 Pr1 2.438 . S
O24 C10 1.267 . S
O25 Pr0 2.437 . S
O25 C10 1.278 . S
O26 Pr1 2.562 . S
O26 C11 1.254 . S
O27 Pr1 2.490 . S
O27 C11 1.225 . S
O28 Pr0 2.436 . S
O28 Pr1 2.695 . S
O28 C18 1.270 . S
O29 Pr1 2.512 . S
O29 C18 1.248 . S
O30 Pr0 2.438 . S
O30 C19 1.267 . S
O31 Pr1 2.437 . S
O31 C19 1.278 . S
H32 C4 0.929 . S
H33 C5 0.929 . S
H34 C7 0.931 . S
H35 C8 0.954 . S
H36 C13 0.929 . S
H37 C14 0.929 . S
H38 C16 0.931 . S
H39 C17 0.930 . S
Pr40 C42 2.880 . S
Pr40 O60 2.562 . S
Pr40 O61 2.490 . S
Pr40 O62 2.695 . S
Pr40 O63 2.512 . S
Pr40 O65 2.437 . S
Pr40 O68 2.436 . S
Pr40 O70 2.438 . S
Pr41 C51 2.880 . S
Pr41 O62 2.436 . S
Pr41 O64 2.438 . S
Pr41 O66 2.562 . S
Pr41 O67 2.490 . S
Pr41 O68 2.695 . S
Pr41 O69 2.512 . S
Pr41 O71 2.437 . S
C42 Pr40 2.880 . S
C42 C43 1.491 . S
C42 O60 1.254 . S
C42 O61 1.225 . S
C43 C42 1.491 . S
C43 C44 1.392 . S
C43 C48 1.356 . S
C44 C43 1.392 . S
C44 C45 1.368 . S
C44 H72 0.929 . S
C45 C44 1.368 . S
C45 C46 1.386 . S
C45 H73 0.929 . S
C46 C45 1.386 . S
C46 C47 1.373 . S
C47 C46 1.373 . S
C47 C48 1.409 . S
C47 H74 0.931 . S
C48 C43 1.356 . S
C48 C47 1.409 . S
C48 H75 0.930 . S
C49 O62 1.270 . S
C49 O63 1.248 . S
C50 O64 1.267 . S
C50 O65 1.278 . S
C51 Pr41 2.880 . S
C51 C52 1.491 . S
C51 O66 1.254 . S
C51 O67 1.225 . S
C52 C51 1.491 . S
C52 C53 1.392 . S
C52 C57 1.356 . S
C53 C52 1.392 . S
C53 C54 1.368 . S
C53 H76 0.929 . S
C54 C53 1.368 . S
C54 C55 1.386 . S
C54 H77 0.929 . S
C55 C54 1.386 . S
C55 C56 1.373 . S
C56 C55 1.373 . S
C56 C57 1.409 . S
C56 H78 0.931 . S
C57 C52 1.356 . S
C57 C56 1.409 . S
C57 H79 0.930 . S
C58 O68 1.270 . S
C58 O69 1.248 . S
C59 O70 1.267 . S
C59 O71 1.278 . S
O60 Pr40 2.562 . S
O60 C42 1.254 . S
O61 Pr40 2.490 . S
O61 C42 1.225 . S
O62 Pr40 2.695 . S
O62 Pr41 2.436 . S
O62 C49 1.270 . S
O63 Pr40 2.512 . S
O63 C49 1.248 . S
O64 Pr41 2.438 . S
O64 C50 1.267 . S
O65 Pr40 2.437 . S
O65 C50 1.278 . S
O66 Pr41 2.562 . S
O66 C51 1.254 . S
O67 Pr41 2.490 . S
O67 C51 1.225 . S
O68 Pr40 2.436 . S
O68 Pr41 2.695 . S
O68 C58 1.270 . S
O69 Pr41 2.512 . S
O69 C58 1.248 . S
O70 Pr40 2.438 . S
O70 C59 1.267 . S
O71 Pr41 2.437 . S
O71 C59 1.278 . S
H72 C44 0.929 . S
H73 C45 0.929 . S
H74 C47 0.931 . S
H75 C48 0.930 . S
H76 C53 0.929 . S
H77 C54 0.929 . S
H78 C56 0.931 . S
H79 C57 0.930 . S
Pr80 C82 2.880 . S
Pr80 O100 2.562 . S
Pr80 O101 2.490 . S
Pr80 O102 2.695 . S
Pr80 O103 2.512 . S
Pr80 O105 2.437 . S
Pr80 O108 2.436 . S
Pr80 O110 2.438 . S
Pr81 C91 2.880 . S
Pr81 O102 2.436 . S
Pr81 O104 2.438 . S
Pr81 O106 2.562 . S
Pr81 O107 2.490 . S
Pr81 O108 2.695 . S
Pr81 O109 2.512 . S
Pr81 O111 2.437 . S
C82 Pr80 2.880 . S
C82 C83 1.491 . S
C82 O100 1.254 . S
C82 O101 1.225 . S
C83 C82 1.491 . S
C83 C84 1.392 . S
C83 C88 1.356 . S
C84 C83 1.392 . S
C84 C85 1.368 . S
C84 H112 0.929 . S
C85 C84 1.368 . S
C85 C86 1.386 . S
C85 H113 0.929 . S
C86 C85 1.386 . S
C86 C87 1.373 . S
C87 C86 1.373 . S
C87 C88 1.409 . S
C87 H114 0.931 . S
C88 C83 1.356 . S
C88 C87 1.409 . S
C88 H115 0.930 . S
C89 O102 1.270 . S
C89 O103 1.248 . S
C90 O104 1.267 . S
C90 O105 1.278 . S
C91 Pr81 2.880 . S
C91 C92 1.491 . S
C91 O106 1.254 . S
C91 O107 1.225 . S
C92 C91 1.491 . S
C92 C93 1.392 . S
C92 C97 1.356 . S
C93 C92 1.392 . S
C93 C94 1.368 . S
C93 H116 0.929 . S
C94 C93 1.368 . S
C94 C95 1.386 . S
C94 H117 0.929 . S
C95 C94 1.386 . S
C95 C96 1.373 . S
C96 C95 1.373 . S
C96 C97 1.409 . S
C96 H118 0.931 . S
C97 C92 1.356 . S
C97 C96 1.409 . S
C97 H119 0.930 . S
C98 O108 1.270 . S
C98 O109 1.248 . S
C99 O110 1.267 . S
C99 O111 1.278 . S
O100 Pr80 2.562 . S
O100 C82 1.254 . S
O101 Pr80 2.490 . S
O101 C82 1.225 . S
O102 Pr80 2.695 . S
O102 Pr81 2.436 . S
O102 C89 1.270 . S
O103 Pr80 2.512 . S
O103 C89 1.248 . S
O104 Pr81 2.438 . S
O104 C90 1.267 . S
O105 Pr80 2.437 . S
O105 C90 1.278 . S
O106 Pr81 2.562 . S
O106 C91 1.254 . S
O107 Pr81 2.490 . S
O107 C91 1.225 . S
O108 Pr80 2.436 . S
O108 Pr81 2.695 . S
O108 C98 1.270 . S
O109 Pr81 2.512 . S
O109 C98 1.248 . S
O110 Pr80 2.438 . S
O110 C99 1.267 . S
O111 Pr81 2.437 . S
O111 C99 1.278 . S
H112 C84 0.929 . S
H113 C85 0.929 . S
H114 C87 0.931 . S
H115 C88 0.930 . S
H116 C93 0.929 . S
H117 C94 0.929 . S
H118 C96 0.931 . S
H119 C97 0.930 . S
Pr120 C122 2.880 . S
Pr120 O140 2.562 . S
Pr120 O141 2.490 . S
Pr120 O142 2.695 . S
Pr120 O143 2.512 . S
Pr120 O145 2.437 . S
Pr120 O148 2.436 . S
Pr120 O150 2.438 . S
Pr121 C131 2.880 . S
Pr121 O142 2.436 . S
Pr121 O144 2.438 . S
Pr121 O146 2.562 . S
Pr121 O147 2.490 . S
Pr121 O148 2.695 . S
Pr121 O149 2.512 . S
Pr121 O151 2.437 . S
C122 Pr120 2.880 . S
C122 C123 1.491 . S
C122 O140 1.254 . S
C122 O141 1.225 . S
C123 C122 1.491 . S
C123 C124 1.392 . S
C123 C128 1.356 . S
C124 C123 1.392 . S
C124 C125 1.368 . S
C124 H152 0.929 . S
C125 C124 1.368 . S
C125 C126 1.386 . S
C125 H153 0.929 . S
C126 C125 1.386 . S
C126 C127 1.373 . S
C127 C126 1.373 . S
C127 C128 1.409 . S
C127 H154 0.931 . S
C128 C123 1.356 . S
C128 C127 1.409 . S
C128 H155 0.930 . S
C129 O142 1.270 . S
C129 O143 1.248 . S
C130 O144 1.267 . S
C130 O145 1.278 . S
C131 Pr121 2.880 . S
C131 C132 1.491 . S
C131 O146 1.254 . S
C131 O147 1.225 . S
C132 C131 1.491 . S
C132 C133 1.392 . S
C132 C137 1.356 . S
C133 C132 1.392 . S
C133 C134 1.368 . S
C133 H156 0.929 . S
C134 C133 1.368 . S
C134 C135 1.386 . S
C134 H157 0.929 . S
C135 C134 1.386 . S
C135 C136 1.373 . S
C136 C135 1.373 . S
C136 C137 1.409 . S
C136 H158 0.931 . S
C137 C132 1.356 . S
C137 C136 1.409 . S
C137 H159 0.930 . S
C138 O148 1.270 . S
C138 O149 1.248 . S
C139 O150 1.267 . S
C139 O151 1.278 . S
O140 Pr120 2.562 . S
O140 C122 1.254 . S
O141 Pr120 2.490 . S
O141 C122 1.225 . S
O142 Pr120 2.695 . S
O142 Pr121 2.436 . S
O142 C129 1.270 . S
O143 Pr120 2.512 . S
O143 C129 1.248 . S
O144 Pr121 2.438 . S
O144 C130 1.267 . S
O145 Pr120 2.437 . S
O145 C130 1.278 . S
O146 Pr121 2.562 . S
O146 C131 1.254 . S
O147 Pr121 2.490 . S
O147 C131 1.225 . S
O148 Pr120 2.436 . S
O148 Pr121 2.695 . S
O148 C138 1.270 . S
O149 Pr121 2.512 . S
O149 C138 1.248 . S
O150 Pr120 2.438 . S
O150 C139 1.267 . S
O151 Pr121 2.437 . S
O151 C139 1.278 . S
H152 C124 0.929 . S
H153 C125 0.929 . S
H154 C127 0.931 . S
H155 C128 0.930 . S
H156 C133 0.929 . S
H157 C134 0.929 . S
H158 C136 0.931 . S
H159 C137 0.930 . S
Pr160 C162 2.880 . S
Pr160 O180 2.562 . S
Pr160 O181 2.490 . S
Pr160 O182 2.695 . S
Pr160 O183 2.512 . S
Pr160 O185 2.437 . S
Pr160 O188 2.436 . S
Pr160 O190 2.438 . S
Pr161 C171 2.880 . S
Pr161 O182 2.436 . S
Pr161 O184 2.438 . S
Pr161 O186 2.562 . S
Pr161 O187 2.490 . S
Pr161 O188 2.695 . S
Pr161 O189 2.512 . S
Pr161 O191 2.437 . S
C162 Pr160 2.880 . S
C162 C163 1.491 . S
C162 O180 1.254 . S
C162 O181 1.225 . S
C163 C162 1.491 . S
C163 C164 1.392 . S
C163 C168 1.356 . S
C164 C163 1.392 . S
C164 C165 1.368 . S
C164 H192 0.929 . S
C165 C164 1.368 . S
C165 C166 1.386 . S
C165 H193 0.929 . S
C166 C165 1.386 . S
C166 C167 1.373 . S
C167 C166 1.373 . S
C167 C168 1.409 . S
C167 H194 0.931 . S
C168 C163 1.356 . S
C168 C167 1.409 . S
C168 H195 0.930 . S
C169 O182 1.270 . S
C169 O183 1.248 . S
C170 O184 1.267 . S
C170 O185 1.278 . S
C171 Pr161 2.880 . S
C171 C172 1.491 . S
C171 O186 1.254 . S
C171 O187 1.225 . S
C172 C171 1.491 . S
C172 C173 1.392 . S
C172 C177 1.356 . S
C173 C172 1.392 . S
C173 C174 1.368 . S
C173 H196 0.929 . S
C174 C173 1.368 . S
C174 C175 1.386 . S
C174 H197 0.929 . S
C175 C174 1.386 . S
C175 C176 1.373 . S
C176 C175 1.373 . S
C176 C177 1.409 . S
C176 H198 0.931 . S
C177 C172 1.356 . S
C177 C176 1.409 . S
C177 H199 0.930 . S
C178 O188 1.270 . S
C178 O189 1.248 . S
C179 O190 1.267 . S
C179 O191 1.278 . S
O180 Pr160 2.562 . S
O180 C162 1.254 . S
O181 Pr160 2.490 . S
O181 C162 1.225 . S
O182 Pr160 2.695 . S
O182 Pr161 2.436 . S
O182 C169 1.270 . S
O183 Pr160 2.512 . S
O183 C169 1.248 . S
O184 Pr161 2.438 . S
O184 C170 1.267 . S
O185 Pr160 2.437 . S
O185 C170 1.278 . S
O186 Pr161 2.562 . S
O186 C171 1.254 . S
O187 Pr161 2.490 . S
O187 C171 1.225 . S
O188 Pr160 2.436 . S
O188 Pr161 2.695 . S
O188 C178 1.270 . S
O189 Pr161 2.512 . S
O189 C178 1.248 . S
O190 Pr160 2.438 . S
O190 C179 1.267 . S
O191 Pr161 2.437 . S
O191 C179 1.278 . S
H192 C164 0.929 . S
H193 C165 0.929 . S
H194 C167 0.931 . S
H195 C168 0.930 . S
H196 C173 0.929 . S
H197 C174 0.929 . S
H198 C176 0.931 . S
H199 C177 0.930 . S
Pr200 C202 2.880 . S
Pr200 O220 2.562 . S
Pr200 O221 2.490 . S
Pr200 O222 2.695 . S
Pr200 O223 2.512 . S
Pr200 O225 2.437 . S
Pr200 O228 2.436 . S
Pr200 O230 2.438 . S
Pr201 C211 2.880 . S
Pr201 O222 2.436 . S
Pr201 O224 2.438 . S
Pr201 O226 2.562 . S
Pr201 O227 2.490 . S
Pr201 O228 2.695 . S
Pr201 O229 2.512 . S
Pr201 O231 2.437 . S
C202 Pr200 2.880 . S
C202 C203 1.491 . S
C202 O220 1.254 . S
C202 O221 1.225 . S
C203 C202 1.491 . S
C203 C204 1.392 . S
C203 C208 1.356 . S
C204 C203 1.392 . S
C204 C205 1.368 . S
C204 H232 0.929 . S
C205 C204 1.368 . S
C205 C206 1.386 . S
C205 H233 0.929 . S
C206 C205 1.386 . S
C206 C207 1.373 . S
C207 C206 1.373 . S
C207 C208 1.409 . S
C207 H234 0.931 . S
C208 C203 1.356 . S
C208 C207 1.409 . S
C208 H235 0.930 . S
C209 O222 1.270 . S
C209 O223 1.248 . S
C210 O224 1.267 . S
C210 O225 1.278 . S
C211 Pr201 2.880 . S
C211 C212 1.491 . S
C211 O226 1.254 . S
C211 O227 1.225 . S
C212 C211 1.491 . S
C212 C213 1.392 . S
C212 C217 1.356 . S
C213 C212 1.392 . S
C213 C214 1.368 . S
C213 H236 0.929 . S
C214 C213 1.368 . S
C214 C215 1.386 . S
C214 H237 0.929 . S
C215 C214 1.386 . S
C215 C216 1.373 . S
C216 C215 1.373 . S
C216 C217 1.409 . S
C216 H238 0.931 . S
C217 C212 1.356 . S
C217 C216 1.409 . S
C217 H239 0.930 . S
C218 O228 1.270 . S
C218 O229 1.248 . S
C219 O230 1.267 . S
C219 O231 1.278 . S
O220 Pr200 2.562 . S
O220 C202 1.254 . S
O221 Pr200 2.490 . S
O221 C202 1.225 . S
O222 Pr200 2.695 . S
O222 Pr201 2.436 . S
O222 C209 1.270 . S
O223 Pr200 2.512 . S
O223 C209 1.248 . S
O224 Pr201 2.438 . S
O224 C210 1.267 . S
O225 Pr200 2.437 . S
O225 C210 1.278 . S
O226 Pr201 2.562 . S
O226 C211 1.254 . S
O227 Pr201 2.490 . S
O227 C211 1.225 . S
O228 Pr200 2.436 . S
O228 Pr201 2.695 . S
O228 C218 1.270 . S
O229 Pr201 2.512 . S
O229 C218 1.248 . S
O230 Pr200 2.438 . S
O230 C219 1.267 . S
O231 Pr201 2.437 . S
O231 C219 1.278 . S
H232 C204 0.929 . S
H233 C205 0.929 . S
H234 C207 0.931 . S
H235 C208 0.930 . S
H236 C213 0.929 . S
H237 C214 0.929 . S
H238 C216 0.931 . S
H239 C217 0.930 . S
H240 C248 0.929 . S
H241 C250 0.930 . S
H242 C252 0.930 . S
H243 C255 0.929 . S
H244 C258 0.930 . S
H245 C260 0.960 . S
H246 C260 0.960 . S
H247 C260 0.960 . S
C248 H240 0.929 . S
C248 C249 1.377 . S
C248 C250 1.384 . S
C249 C248 1.377 . S
C249 C255 1.390 . S
C250 H241 0.930 . S
C250 C248 1.384 . S
C250 C251 1.372 . S
C251 C250 1.372 . S
C251 C252 1.400 . S
C251 C256 1.490 . S
C252 H242 0.930 . S
C252 C251 1.400 . S
C252 C255 1.386 . S
H253 C269 0.930 . S
H254 C270 0.931 . S
C255 H243 0.929 . S
C255 C249 1.390 . S
C255 C252 1.386 . S
C256 C251 1.490 . S
C256 C258 1.395 . S
C256 C259 1.403 . S
H257 C263 0.930 . S
C258 H244 0.930 . S
C258 C256 1.395 . S
C258 C261 1.403 . S
C259 C256 1.403 . S
C259 C260 1.524 . S
C259 C263 1.400 . S
C260 H245 0.960 . S
C260 H246 0.960 . S
C260 H247 0.960 . S
C260 C259 1.524 . S
C261 C258 1.403 . S
C261 C262 1.392 . S
C261 C265 1.495 . S
C262 C261 1.392 . S
C262 C263 1.385 . S
C262 C264 1.478 . S
C263 H257 0.930 . S
C263 C259 1.400 . S
C263 C262 1.385 . S
C264 C262 1.478 . S
C264 C266 1.381 . S
C264 C270 1.383 . S
C265 C261 1.495 . S
C265 H271 0.959 . S
C265 H272 0.961 . S
C265 H273 0.960 . S
C266 C264 1.381 . S
C266 C267 1.394 . S
C266 H274 0.930 . S
C267 C266 1.394 . S
C267 C268 1.383 . S
C267 H275 0.929 . S
C268 C267 1.383 . S
C268 C269 1.377 . S
C269 H253 0.930 . S
C269 C268 1.377 . S
C269 C270 1.379 . S
C270 H254 0.931 . S
C270 C264 1.383 . S
C270 C269 1.379 . S
H271 C265 0.959 . S
H272 C265 0.961 . S
H273 C265 0.960 . S
H274 C266 0.930 . S
H275 C267 0.929 . S
H276 C284 0.929 . S
H277 C286 0.930 . S
H278 C288 0.930 . S
H279 C291 0.929 . S
H280 C294 0.930 . S
H281 C296 0.960 . S
H282 C296 0.960 . S
H283 C296 0.960 . S
C284 H276 0.929 . S
C284 C285 1.377 . S
C284 C286 1.384 . S
C285 C284 1.377 . S
C285 C291 1.390 . S
C286 H277 0.930 . S
C286 C284 1.384 . S
C286 C287 1.372 . S
C287 C286 1.372 . S
C287 C288 1.400 . S
C287 C292 1.490 . S
C288 H278 0.930 . S
C288 C287 1.400 . S
C288 C291 1.386 . S
H289 C305 0.930 . S
H290 C306 0.931 . S
C291 H279 0.929 . S
C291 C285 1.390 . S
C291 C288 1.386 . S
C292 C287 1.490 . S
C292 C294 1.395 . S
C292 C295 1.403 . S
H293 C299 0.930 . S
C294 H280 0.930 . S
C294 C292 1.395 . S
C294 C297 1.403 . S
C295 C292 1.403 . S
C295 C296 1.524 . S
C295 C299 1.400 . S
C296 H281 0.960 . S
C296 H282 0.960 . S
C296 H283 0.960 . S
C296 C295 1.524 . S
C297 C294 1.403 . S
C297 C298 1.392 . S
C297 C301 1.495 . S
C298 C297 1.392 . S
C298 C299 1.385 . S
C298 C300 1.478 . S
C299 H293 0.930 . S
C299 C295 1.400 . S
C299 C298 1.385 . S
C300 C298 1.478 . S
C300 C302 1.381 . S
C300 C306 1.383 . S
C301 C297 1.495 . S
C301 H307 0.959 . S
C301 H308 0.961 . S
C301 H309 0.960 . S
C302 C300 1.381 . S
C302 C303 1.394 . S
C302 H310 0.930 . S
C303 C302 1.394 . S
C303 C304 1.383 . S
C303 H311 0.929 . S
C304 C303 1.383 . S
C304 C305 1.377 . S
C305 H289 0.930 . S
C305 C304 1.377 . S
C305 C306 1.379 . S
C306 H290 0.931 . S
C306 C300 1.383 . S
C306 C305 1.379 . S
H307 C301 0.959 . S
H308 C301 0.961 . S
H309 C301 0.960 . S
H310 C302 0.930 . S
H311 C303 0.929 . S
H312 C320 0.929 . S
H313 C322 0.930 . S
H314 C324 0.930 . S
H315 C327 0.929 . S
H316 C330 0.930 . S
H317 C332 0.960 . S
H318 C332 0.960 . S
H319 C332 0.960 . S
C320 H312 0.929 . S
C320 C321 1.377 . S
C320 C322 1.384 . S
C321 C320 1.377 . S
C321 C327 1.390 . S
C322 H313 0.930 . S
C322 C320 1.384 . S
C322 C323 1.372 . S
C323 C322 1.372 . S
C323 C324 1.400 . S
C323 C328 1.490 . S
C324 H314 0.930 . S
C324 C323 1.400 . S
C324 C327 1.386 . S
H325 C341 0.930 . S
H326 C342 0.931 . S
C327 H315 0.929 . S
C327 C321 1.390 . S
C327 C324 1.386 . S
C328 C323 1.490 . S
C328 C330 1.395 . S
C328 C331 1.403 . S
H329 C335 0.930 . S
C330 H316 0.930 . S
C330 C328 1.395 . S
C330 C333 1.403 . S
C331 C328 1.403 . S
C331 C332 1.524 . S
C331 C335 1.400 . S
C332 H317 0.960 . S
C332 H318 0.960 . S
C332 H319 0.960 . S
C332 C331 1.524 . S
C333 C330 1.403 . S
C333 C334 1.392 . S
C333 C337 1.495 . S
C334 C333 1.392 . S
C334 C335 1.385 . S
C334 C336 1.478 . S
C335 H329 0.930 . S
C335 C331 1.400 . S
C335 C334 1.385 . S
C336 C334 1.478 . S
C336 C338 1.381 . S
C336 C342 1.383 . S
C337 C333 1.495 . S
C337 H343 0.959 . S
C337 H344 0.961 . S
C337 H345 0.960 . S
C338 C336 1.381 . S
C338 C339 1.394 . S
C338 H346 0.930 . S
C339 C338 1.394 . S
C339 C340 1.383 . S
C339 H347 0.929 . S
C340 C339 1.383 . S
C340 C341 1.377 . S
C341 H325 0.930 . S
C341 C340 1.377 . S
C341 C342 1.379 . S
C342 H326 0.931 . S
C342 C336 1.383 . S
C342 C341 1.379 . S
H343 C337 0.959 . S
H344 C337 0.961 . S
H345 C337 0.960 . S
H346 C338 0.930 . S
H347 C339 0.929 . S
H348 C356 0.929 . S
H349 C358 0.930 . S
H350 C360 0.930 . S
H351 C363 0.929 . S
H352 C366 0.930 . S
H353 C368 0.960 . S
H354 C368 0.960 . S
H355 C368 0.960 . S
C356 H348 0.929 . S
C356 C357 1.377 . S
C356 C358 1.384 . S
C357 C356 1.377 . S
C357 C363 1.390 . S
C358 H349 0.930 . S
C358 C356 1.384 . S
C358 C359 1.372 . S
C359 C358 1.372 . S
C359 C360 1.400 . S
C359 C364 1.490 . S
C360 H350 0.930 . S
C360 C359 1.400 . S
C360 C363 1.386 . S
H361 C377 0.930 . S
H362 C378 0.931 . S
C363 H351 0.929 . S
C363 C357 1.390 . S
C363 C360 1.386 . S
C364 C359 1.490 . S
C364 C366 1.395 . S
C364 C367 1.403 . S
H365 C371 0.930 . S
C366 H352 0.930 . S
C366 C364 1.395 . S
C366 C369 1.403 . S
C367 C364 1.403 . S
C367 C368 1.524 . S
C367 C371 1.400 . S
C368 H353 0.960 . S
C368 H354 0.960 . S
C368 H355 0.960 . S
C368 C367 1.524 . S
C369 C366 1.403 . S
C369 C370 1.392 . S
C369 C373 1.495 . S
C370 C369 1.392 . S
C370 C371 1.385 . S
C370 C372 1.478 . S
C371 H365 0.930 . S
C371 C367 1.400 . S
C371 C370 1.385 . S
C372 C370 1.478 . S
C372 C374 1.381 . S
C372 C378 1.383 . S
C373 C369 1.495 . S
C373 H379 0.959 . S
C373 H380 0.961 . S
C373 H381 0.960 . S
C374 C372 1.381 . S
C374 C375 1.394 . S
C374 H382 0.930 . S
C375 C374 1.394 . S
C375 C376 1.383 . S
C375 H383 0.929 . S
C376 C375 1.383 . S
C376 C377 1.377 . S
C377 H361 0.930 . S
C377 C376 1.377 . S
C377 C378 1.379 . S
C378 H362 0.931 . S
C378 C372 1.383 . S
C378 C377 1.379 . S
H379 C373 0.959 . S
H380 C373 0.961 . S
H381 C373 0.960 . S
H382 C374 0.930 . S
H383 C375 0.929 . S
H384 C392 0.929 . S
H385 C394 0.930 . S
H386 C396 0.930 . S
H387 C399 0.929 . S
H388 C402 0.930 . S
H389 C404 0.960 . S
H390 C404 0.960 . S
H391 C404 0.960 . S
C392 H384 0.929 . S
C392 C393 1.377 . S
C392 C394 1.384 . S
C393 C392 1.377 . S
C393 C399 1.390 . S
C394 H385 0.930 . S
C394 C392 1.384 . S
C394 C395 1.372 . S
C395 C394 1.372 . S
C395 C396 1.400 . S
C395 C400 1.490 . S
C396 H386 0.930 . S
C396 C395 1.400 . S
C396 C399 1.386 . S
H397 C413 0.930 . S
H398 C414 0.931 . S
C399 H387 0.929 . S
C399 C393 1.390 . S
C399 C396 1.386 . S
C400 C395 1.490 . S
C400 C402 1.395 . S
C400 C403 1.403 . S
H401 C407 0.930 . S
C402 H388 0.930 . S
C402 C400 1.395 . S
C402 C405 1.403 . S
C403 C400 1.403 . S
C403 C404 1.524 . S
C403 C407 1.400 . S
C404 H389 0.960 . S
C404 H390 0.960 . S
C404 H391 0.960 . S
C404 C403 1.524 . S
C405 C402 1.403 . S
C405 C406 1.392 . S
C405 C409 1.495 . S
C406 C405 1.392 . S
C406 C407 1.385 . S
C406 C408 1.478 . S
C407 H401 0.930 . S
C407 C403 1.400 . S
C407 C406 1.385 . S
C408 C406 1.478 . S
C408 C410 1.381 . S
C408 C414 1.383 . S
C409 C405 1.495 . S
C409 H415 0.959 . S
C409 H416 0.961 . S
C409 H417 0.960 . S
C410 C408 1.381 . S
C410 C411 1.394 . S
C410 H418 0.930 . S
C411 C410 1.394 . S
C411 C412 1.383 . S
C411 H419 0.929 . S
C412 C411 1.383 . S
C412 C413 1.377 . S
C413 H397 0.930 . S
C413 C412 1.377 . S
C413 C414 1.379 . S
C414 H398 0.931 . S
C414 C408 1.383 . S
C414 C413 1.379 . S
H415 C409 0.959 . S
H416 C409 0.961 . S
H417 C409 0.960 . S
H418 C410 0.930 . S
H419 C411 0.929 . S
H420 C428 0.929 . S
H421 C430 0.930 . S
H422 C432 0.930 . S
H423 C435 0.929 . S
H424 C438 0.930 . S
H425 C440 0.960 . S
H426 C440 0.960 . S
H427 C440 0.960 . S
C428 H420 0.929 . S
C428 C429 1.377 . S
C428 C430 1.384 . S
C429 C428 1.377 . S
C429 C435 1.390 . S
C430 H421 0.930 . S
C430 C428 1.384 . S
C430 C431 1.372 . S
C431 C430 1.372 . S
C431 C432 1.400 . S
C431 C436 1.490 . S
C432 H422 0.930 . S
C432 C431 1.400 . S
C432 C435 1.386 . S
H433 C449 0.930 . S
H434 C450 0.931 . S
C435 H423 0.929 . S
C435 C429 1.390 . S
C435 C432 1.386 . S
C436 C431 1.490 . S
C436 C438 1.395 1_554 S
C436 C439 1.403 . S
H437 C443 0.930 . S
C438 H424 0.930 . S
C438 C436 1.395 1_556 S
C438 C441 1.403 . S
C439 C436 1.403 . S
C439 C440 1.524 . S
C439 C443 1.400 1_554 S
C440 H425 0.960 . S
C440 H426 0.960 . S
C440 H427 0.960 . S
C440 C439 1.524 . S
C441 C438 1.403 . S
C441 C442 1.392 . S
C441 C445 1.495 . S
C442 C441 1.392 . S
C442 C443 1.385 . S
C442 C444 1.478 . S
C443 H437 0.930 . S
C443 C439 1.400 1_556 S
C443 C442 1.385 . S
C444 C442 1.478 . S
C444 C446 1.381 . S
C444 C450 1.383 . S
C445 C441 1.495 . S
C445 H451 0.959 . S
C445 H452 0.961 . S
C445 H453 0.960 . S
C446 C444 1.381 . S
C446 C447 1.394 . S
C446 H454 0.930 . S
C447 C446 1.394 . S
C447 C448 1.383 . S
C447 H455 0.929 . S
C448 C447 1.383 . S
C448 C449 1.377 . S
C449 H433 0.930 . S
C449 C448 1.377 . S
C449 C450 1.379 . S
C450 H434 0.931 . S
C450 C444 1.383 . S
C450 C449 1.379 . S
H451 C445 0.959 . S
H452 C445 0.961 . S
H453 C445 0.960 . S
H454 C446 0.930 . S
H455 C447 0.929 . S
H456 C464 0.929 . S
H457 C466 0.930 . S
H458 C468 0.930 . S
H459 C471 0.929 . S
H460 C474 0.930 . S
H461 C476 0.960 . S
H462 C476 0.960 . S
H463 C476 0.960 . S
C464 H456 0.929 . S
C464 C465 1.377 . S
C464 C466 1.384 . S
C465 C464 1.377 . S
C465 C471 1.390 . S
C466 H457 0.930 . S
C466 C464 1.384 . S
C466 C467 1.372 . S
C467 C466 1.372 . S
C467 C468 1.400 . S
C467 C472 1.490 . S
C468 H458 0.930 . S
C468 C467 1.400 . S
C468 C471 1.386 . S
H469 C485 0.930 . S
H470 C486 0.931 . S
C471 H459 0.929 . S
C471 C465 1.390 . S
C471 C468 1.386 . S
C472 C467 1.490 . S
C472 C474 1.395 . S
C472 C475 1.403 . S
H473 C479 0.930 . S
C474 H460 0.930 . S
C474 C472 1.395 . S
C474 C477 1.403 . S
C475 C472 1.403 . S
C475 C476 1.524 . S
C475 C479 1.400 . S
C476 H461 0.960 . S
C476 H462 0.960 . S
C476 H463 0.960 . S
C476 C475 1.524 . S
C477 C474 1.403 . S
C477 C478 1.392 . S
C477 C481 1.495 . S
C478 C477 1.392 . S
C478 C479 1.385 . S
C478 C480 1.478 . S
C479 H473 0.930 . S
C479 C475 1.400 . S
C479 C478 1.385 . S
C480 C478 1.478 . S
C480 C482 1.381 . S
C480 C486 1.383 . S
C481 C477 1.495 . S
C481 H487 0.959 . S
C481 H488 0.961 . S
C481 H489 0.960 . S
C482 C480 1.381 . S
C482 C483 1.394 . S
C482 H490 0.930 . S
C483 C482 1.394 . S
C483 C484 1.383 . S
C483 H491 0.929 . S
C484 C483 1.383 . S
C484 C485 1.377 . S
C485 H469 0.930 . S
C485 C484 1.377 . S
C485 C486 1.379 . S
C486 H470 0.931 . S
C486 C480 1.383 . S
C486 C485 1.379 . S
H487 C481 0.959 . S
H488 C481 0.961 . S
H489 C481 0.960 . S
H490 C482 0.930 . S
H491 C483 0.929 . S
H492 C500 0.929 . S
H493 C502 0.931 1_655 S
H494 C504 0.930 1_655 S
H495 C507 0.929 . S
H496 C510 0.930 . S
H497 C512 0.960 . S
H498 C512 0.960 . S
H499 C512 0.960 . S
C500 H492 0.929 . S
C500 C501 1.377 . S
C500 C502 1.384 . S
C501 C500 1.377 . S
C501 C507 1.390 . S
C502 H493 0.931 1_455 S
C502 C500 1.384 . S
C502 C503 1.372 1_455 S
C503 C502 1.372 1_655 S
C503 C504 1.400 1_655 S
C503 C508 1.490 . S
C504 H494 0.930 1_455 S
C504 C503 1.400 1_455 S
C504 C507 1.386 . S
H505 C521 0.930 . S
H506 C522 0.931 . S
C507 H495 0.929 . S
C507 C501 1.390 . S
C507 C504 1.386 . S
C508 C503 1.490 . S
C508 C510 1.395 . S
C508 C511 1.403 . S
H509 C515 0.930 . S
C510 H496 0.930 . S
C510 C508 1.395 . S
C510 C513 1.403 . S
C511 C508 1.403 . S
C511 C512 1.524 1_655 S
C511 C515 1.400 . S
C512 H497 0.960 . S
C512 H498 0.960 . S
C512 H499 0.960 . S
C512 C511 1.524 1_455 S
C513 C510 1.403 . S
C513 C514 1.392 . S
C513 C517 1.495 . S
C514 C513 1.392 . S
C514 C515 1.385 . S
C514 C516 1.478 . S
C515 H509 0.930 . S
C515 C511 1.400 . S
C515 C514 1.385 . S
C516 C514 1.478 . S
C516 C518 1.381 . S
C516 C522 1.383 . S
C517 C513 1.495 . S
C517 H523 0.959 . S
C517 H524 0.961 . S
C517 H525 0.960 . S
C518 C516 1.381 . S
C518 C519 1.394 . S
C518 H526 0.930 . S
C519 C518 1.394 . S
C519 C520 1.383 . S
C519 H527 0.929 . S
C520 C519 1.383 . S
C520 C521 1.377 . S
C521 H505 0.930 . S
C521 C520 1.377 . S
C521 C522 1.379 . S
C522 H506 0.931 . S
C522 C516 1.383 . S
C522 C521 1.379 . S
H523 C517 0.959 . S
H524 C517 0.961 . S
H525 C517 0.960 . S
H526 C518 0.930 . S
H527 C519 0.929 . S
H528 C536 0.929 . S
H529 C538 0.930 . S
H530 C540 0.930 . S
H531 C543 0.929 . S
H532 C546 0.930 . S
H533 C548 0.960 1_565 S
H534 C548 0.960 . S
H535 C548 0.960 . S
C536 H528 0.929 . S
C536 C537 1.377 . S
C536 C538 1.384 . S
C537 C536 1.377 . S
C537 C543 1.390 . S
C538 H529 0.930 . S
C538 C536 1.384 . S
C538 C539 1.372 . S
C539 C538 1.372 . S
C539 C540 1.400 . S
C539 C544 1.490 . S
C540 H530 0.930 . S
C540 C539 1.400 . S
C540 C543 1.386 . S
H541 C557 0.930 . S
H542 C558 0.931 . S
C543 H531 0.929 . S
C543 C537 1.390 . S
C543 C540 1.386 . S
C544 C539 1.490 . S
C544 C546 1.395 . S
C544 C547 1.403 . S
H545 C551 0.930 1_565 S
C546 H532 0.930 . S
C546 C544 1.395 . S
C546 C549 1.403 . S
C547 C544 1.403 . S
C547 C548 1.524 . S
C547 C551 1.400 . S
C548 H533 0.960 1_545 S
C548 H534 0.960 . S
C548 H535 0.960 . S
C548 C547 1.524 . S
C549 C546 1.403 . S
C549 C550 1.392 . S
C549 C553 1.495 . S
C550 C549 1.392 . S
C550 C551 1.385 . S
C550 C552 1.478 . S
C551 H545 0.930 1_545 S
C551 C547 1.400 . S
C551 C550 1.385 . S
C552 C550 1.478 . S
C552 C554 1.381 1_545 S
C552 C558 1.383 . S
C553 C549 1.495 . S
C553 H559 0.959 . S
C553 H560 0.961 . S
C553 H561 0.960 . S
C554 C552 1.381 1_565 S
C554 C555 1.394 . S
C554 H562 0.930 . S
C555 C554 1.394 . S
C555 C556 1.383 . S
C555 H563 0.929 . S
C556 C555 1.383 . S
C556 C557 1.377 . S
C557 H541 0.930 . S
C557 C556 1.377 . S
C557 C558 1.379 1_565 S
C558 H542 0.931 . S
C558 C552 1.383 . S
C558 C557 1.379 1_545 S
H559 C553 0.959 . S
H560 C553 0.961 . S
H561 C553 0.960 . S
H562 C554 0.930 . S
H563 C555 0.929 . S
H564 C572 0.929 . S
H565 C574 0.930 . S
H566 C576 0.930 . S
H567 C579 0.929 . S
H568 C582 0.930 . S
H569 C584 0.960 . S
H570 C584 0.960 . S
H571 C584 0.960 . S
C572 H564 0.929 . S
C572 C573 1.377 . S
C572 C574 1.384 . S
C573 C572 1.377 . S
C573 C579 1.390 . S
C574 H565 0.930 . S
C574 C572 1.384 . S
C574 C575 1.372 . S
C575 C574 1.372 . S
C575 C576 1.400 . S
C575 C580 1.490 . S
C576 H566 0.930 . S
C576 C575 1.400 . S
C576 C579 1.386 . S
H577 C593 0.930 . S
H578 C594 0.931 . S
C579 H567 0.929 . S
C579 C573 1.390 . S
C579 C576 1.386 . S
C580 C575 1.490 . S
C580 C582 1.395 . S
C580 C583 1.403 . S
H581 C587 0.930 . S
C582 H568 0.930 . S
C582 C580 1.395 . S
C582 C585 1.403 . S
C583 C580 1.403 . S
C583 C584 1.524 . S
C583 C587 1.400 . S
C584 H569 0.960 . S
C584 H570 0.960 . S
C584 H571 0.960 . S
C584 C583 1.524 . S
C585 C582 1.403 . S
C585 C586 1.392 . S
C585 C589 1.495 . S
C586 C585 1.392 . S
C586 C587 1.385 . S
C586 C588 1.478 . S
C587 H581 0.930 . S
C587 C583 1.400 . S
C587 C586 1.385 . S
C588 C586 1.478 . S
C588 C590 1.381 . S
C588 C594 1.383 . S
C589 C585 1.495 . S
C589 H595 0.959 . S
C589 H596 0.961 . S
C589 H597 0.960 . S
C590 C588 1.381 . S
C590 C591 1.394 . S
C590 H598 0.930 . S
C591 C590 1.394 . S
C591 C592 1.383 . S
C591 H599 0.929 . S
C592 C591 1.383 . S
C592 C593 1.377 . S
C593 H577 0.930 . S
C593 C592 1.377 . S
C593 C594 1.379 . S
C594 H578 0.931 . S
C594 C588 1.383 . S
C594 C593 1.379 . S
H595 C589 0.959 . S
H596 C589 0.961 . S
H597 C589 0.960 . S
H598 C590 0.930 . S
H599 C591 0.929 . S
H600 C608 0.929 . S
H601 C610 0.930 . S
H602 C612 0.930 . S
H603 C615 0.929 . S
H604 C618 0.930 . S
H605 C620 0.960 . S
H606 C620 0.960 . S
H607 C620 0.960 . S
C608 H600 0.929 . S
C608 C609 1.377 . S
C608 C610 1.384 . S
C609 C608 1.377 . S
C609 C615 1.390 . S
C610 H601 0.930 . S
C610 C608 1.384 . S
C610 C611 1.372 . S
C611 C610 1.372 . S
C611 C612 1.400 . S
C611 C616 1.490 . S
C612 H602 0.930 . S
C612 C611 1.400 . S
C612 C615 1.386 . S
H613 C629 0.931 . S
H614 C630 0.931 . S
C615 H603 0.929 . S
C615 C609 1.390 . S
C615 C612 1.386 . S
C616 C611 1.490 . S
C616 C618 1.395 . S
C616 C619 1.403 . S
H617 C623 0.930 . S
C618 H604 0.930 . S
C618 C616 1.395 . S
C618 C621 1.403 . S
C619 C616 1.403 . S
C619 C620 1.524 . S
C619 C623 1.400 . S
C620 H605 0.960 . S
C620 H606 0.960 . S
C620 H607 0.960 . S
C620 C619 1.524 . S
C621 C618 1.403 . S
C621 C622 1.392 . S
C621 C625 1.495 1_455 S
C622 C621 1.392 . S
C622 C623 1.385 . S
C622 C624 1.499 . S
C623 H617 0.930 . S
C623 C619 1.400 . S
C623 C622 1.385 . S
C624 C622 1.499 . S
C624 C626 1.358 1_455 S
C624 C630 1.384 . S
C625 C621 1.495 1_655 S
C625 H631 0.959 . S
C625 H632 0.961 . S
C625 H633 0.960 . S
C626 C624 1.358 1_655 S
C626 C627 1.394 . S
C626 H634 0.930 . S
C627 C626 1.394 . S
C627 C628 1.383 . S
C627 H635 0.929 . S
C628 C627 1.383 . S
C628 C629 1.362 1_655 S
C629 H613 0.931 . S
C629 C628 1.362 1_455 S
C629 C630 1.393 . S
C630 H614 0.931 . S
C630 C624 1.384 . S
C630 C629 1.393 . S
H631 C625 0.959 . S
H632 C625 0.961 . S
H633 C625 0.960 . S
H634 C626 0.930 . S
H635 C627 0.929 . S
H636 C644 0.929 . S
H637 C646 0.930 . S
H638 C648 0.930 . S
H639 C651 0.929 . S
H640 C654 0.930 . S
H641 C656 0.960 . S
H642 C656 0.960 . S
H643 C656 0.960 . S
C644 H636 0.929 . S
C644 C645 1.377 . S
C644 C646 1.384 . S
C645 C644 1.377 . S
C645 C651 1.390 . S
C646 H637 0.930 . S
C646 C644 1.384 . S
C646 C647 1.372 . S
C647 C646 1.372 . S
C647 C648 1.400 . S
C647 C652 1.490 . S
C648 H638 0.930 . S
C648 C647 1.400 . S
C648 C651 1.386 . S
H649 C665 0.930 . S
H650 C666 0.931 . S
C651 H639 0.929 . S
C651 C645 1.390 . S
C651 C648 1.386 . S
C652 C647 1.490 . S
C652 C654 1.395 . S
C652 C655 1.403 . S
H653 C659 0.930 . S
C654 H640 0.930 . S
C654 C652 1.395 . S
C654 C657 1.403 . S
C655 C652 1.403 . S
C655 C656 1.524 . S
C655 C659 1.400 . S
C656 H641 0.960 . S
C656 H642 0.960 . S
C656 H643 0.960 . S
C656 C655 1.524 . S
C657 C654 1.403 . S
C657 C658 1.392 . S
C657 C661 1.495 . S
C658 C657 1.392 . S
C658 C659 1.385 . S
C658 C660 1.478 . S
C659 H653 0.930 . S
C659 C655 1.400 . S
C659 C658 1.385 . S
C660 C658 1.478 . S
C660 C662 1.381 1_565 S
C660 C666 1.383 . S
C661 C657 1.495 . S
C661 H667 0.959 . S
C661 H668 0.961 . S
C661 H669 0.960 . S
C662 C660 1.381 1_545 S
C662 C663 1.394 . S
C662 H670 0.930 . S
C663 C662 1.394 . S
C663 C664 1.383 . S
C663 H671 0.929 . S
C664 C663 1.383 . S
C664 C665 1.377 1_545 S
C665 H649 0.930 . S
C665 C664 1.377 1_565 S
C665 C666 1.379 . S
C666 H650 0.931 . S
C666 C660 1.383 . S
C666 C665 1.379 . S
H667 C661 0.959 . S
H668 C661 0.961 . S
H669 C661 0.960 . S
H670 C662 0.930 . S
H671 C663 0.929 . S
H672 C680 0.929 . S
H673 C682 0.930 . S
H674 C684 0.930 . S
H675 C687 0.929 . S
H676 C690 0.930 . S
H677 C692 0.960 . S
H678 C692 0.960 . S
H679 C692 0.960 . S
C680 H672 0.929 . S
C680 C681 1.377 . S
C680 C682 1.384 . S
C681 C680 1.377 . S
C681 C687 1.390 . S
C682 H673 0.930 . S
C682 C680 1.384 . S
C682 C683 1.372 . S
C683 C682 1.372 . S
C683 C684 1.400 . S
C683 C688 1.490 . S
C684 H674 0.930 . S
C684 C683 1.400 . S
C684 C687 1.386 . S
H685 C701 0.930 . S
H686 C702 0.931 . S
C687 H675 0.929 . S
C687 C681 1.390 . S
C687 C684 1.386 . S
C688 C683 1.490 . S
C688 C690 1.395 . S
C688 C691 1.403 . S
H689 C695 0.930 . S
C690 H676 0.930 . S
C690 C688 1.395 . S
C690 C693 1.403 . S
C691 C688 1.403 . S
C691 C692 1.524 . S
C691 C695 1.400 . S
C692 H677 0.960 . S
C692 H678 0.960 . S
C692 H679 0.960 . S
C692 C691 1.524 . S
C693 C690 1.403 . S
C693 C694 1.392 . S
C693 C697 1.495 . S
C694 C693 1.392 . S
C694 C695 1.385 . S
C694 C696 1.478 . S
C695 H689 0.930 . S
C695 C691 1.400 . S
C695 C694 1.385 . S
C696 C694 1.478 . S
C696 C698 1.381 . S
C696 C702 1.383 . S
C697 C693 1.495 . S
C697 H703 0.959 . S
C697 H704 0.961 . S
C697 H705 0.960 . S
C698 C696 1.381 . S
C698 C699 1.366 1_556 S
C698 H706 0.930 . S
C699 C698 1.366 1_554 S
C699 C700 1.401 . S
C699 H707 0.940 . S
C700 C699 1.401 . S
C700 C701 1.377 . S
C701 H685 0.930 . S
C701 C700 1.377 . S
C701 C702 1.379 1_554 S
C702 H686 0.931 . S
C702 C696 1.383 . S
C702 C701 1.379 1_556 S
H703 C697 0.959 . S
H704 C697 0.961 . S
H705 C697 0.960 . S
H706 C698 0.930 . S
H707 C699 0.940 . S
H708 C716 0.929 . S
H709 C718 0.930 . S
H710 C720 0.930 . S
H711 C723 0.929 . S
H712 C726 0.930 . S
H713 C728 0.960 . S
H714 C728 0.960 . S
H715 C728 0.960 . S
C716 H708 0.929 . S
C716 C717 1.377 . S
C716 C718 1.384 . S
C717 C716 1.377 . S
C717 C723 1.390 . S
C718 H709 0.930 . S
C718 C716 1.384 . S
C718 C719 1.372 . S
C719 C718 1.372 . S
C719 C720 1.400 . S
C719 C724 1.490 . S
C720 H710 0.930 . S
C720 C719 1.400 . S
C720 C723 1.386 . S
H721 C737 0.930 . S
H722 C738 0.931 . S
C723 H711 0.929 . S
C723 C717 1.390 . S
C723 C720 1.386 . S
C724 C719 1.490 . S
C724 C726 1.395 . S
C724 C727 1.403 1_655 S
H725 C731 0.930 . S
C726 H712 0.930 . S
C726 C724 1.395 . S
C726 C729 1.403 . S
C727 C724 1.403 1_455 S
C727 C728 1.524 . S
C727 C731 1.400 . S
C728 H713 0.960 . S
C728 H714 0.960 . S
C728 H715 0.960 . S
C728 C727 1.524 . S
C729 C726 1.403 . S
C729 C730 1.392 1_655 S
C729 C733 1.495 . S
C730 C729 1.392 1_455 S
C730 C731 1.385 . S
C730 C732 1.478 . S
C731 H725 0.930 . S
C731 C727 1.400 . S
C731 C730 1.385 . S
C732 C730 1.478 . S
C732 C734 1.381 . S
C732 C738 1.383 . S
C733 C729 1.495 . S
C733 H739 0.959 . S
C733 H740 0.961 . S
C733 H741 0.960 . S
C734 C732 1.381 . S
C734 C735 1.394 . S
C734 H742 0.930 . S
C735 C734 1.394 . S
C735 C736 1.383 . S
C735 H743 0.929 . S
C736 C735 1.383 . S
C736 C737 1.377 . S
C737 H721 0.930 . S
C737 C736 1.377 . S
C737 C738 1.379 . S
C738 H722 0.931 . S
C738 C732 1.383 . S
C738 C737 1.379 . S
H739 C733 0.959 . S
H740 C733 0.961 . S
H741 C733 0.960 . S
H742 C734 0.930 . S
H743 C735 0.929 . S
H744 C752 0.929 . S
H745 C754 0.930 . S
H746 C756 0.930 . S
H747 C759 0.929 . S
H748 C762 0.930 . S
H749 C764 0.960 . S
H750 C764 0.960 . S
H751 C764 0.960 . S
C752 H744 0.929 . S
C752 C753 1.377 . S
C752 C754 1.384 . S
C753 C752 1.377 . S
C753 C759 1.390 . S
C754 H745 0.930 . S
C754 C752 1.384 . S
C754 C755 1.372 . S
C755 C754 1.372 . S
C755 C756 1.400 . S
C755 C760 1.490 . S
C756 H746 0.930 . S
C756 C755 1.400 . S
C756 C759 1.386 . S
H757 C773 0.930 . S
H758 C774 0.931 . S
C759 H747 0.929 . S
C759 C753 1.390 . S
C759 C756 1.386 . S
C760 C755 1.490 . S
C760 C762 1.395 1_565 S
C760 C763 1.403 . S
H761 C767 0.930 . S
C762 H748 0.930 . S
C762 C760 1.395 1_545 S
C762 C765 1.403 . S
C763 C760 1.403 . S
C763 C764 1.524 . S
C763 C767 1.400 . S
C764 H749 0.960 . S
C764 H750 0.960 . S
C764 H751 0.960 . S
C764 C763 1.524 . S
C765 C762 1.403 . S
C765 C766 1.392 . S
C765 C769 1.495 . S
C766 C765 1.392 . S
C766 C767 1.385 1_545 S
C766 C768 1.478 . S
C767 H761 0.930 . S
C767 C763 1.400 . S
C767 C766 1.385 1_565 S
C768 C766 1.478 . S
C768 C770 1.381 . S
C768 C774 1.383 . S
C769 C765 1.495 . S
C769 H775 0.959 . S
C769 H776 0.961 . S
C769 H777 0.960 . S
C770 C768 1.381 . S
C770 C771 1.394 . S
C770 H778 0.930 . S
C771 C770 1.394 . S
C771 C772 1.383 . S
C771 H779 0.929 . S
C772 C771 1.383 . S
C772 C773 1.377 . S
C773 H757 0.930 . S
C773 C772 1.377 . S
C773 C774 1.379 . S
C774 H758 0.931 . S
C774 C768 1.383 . S
C774 C773 1.379 . S
H775 C769 0.959 . S
H776 C769 0.961 . S
H777 C769 0.960 . S
H778 C770 0.930 . S
H779 C771 0.929 . S
H780 C788 0.929 . S
H781 C790 0.930 . S
H782 C792 0.930 . S
H783 C795 0.929 . S
H784 C798 0.930 . S
H785 C800 0.960 . S
H786 C800 0.960 . S
H787 C800 0.960 . S
C788 H780 0.929 . S
C788 C789 1.377 . S
C788 C790 1.384 . S
C789 C788 1.377 . S
C789 C795 1.390 . S
C790 H781 0.930 . S
C790 C788 1.384 . S
C790 C791 1.372 . S
C791 C790 1.372 . S
C791 C792 1.400 . S
C791 C796 1.490 . S
C792 H782 0.930 . S
C792 C791 1.400 . S
C792 C795 1.386 . S
H793 C809 0.922 1_554 S
H794 C810 0.931 . S
C795 H783 0.929 . S
C795 C789 1.390 . S
C795 C792 1.386 . S
C796 C791 1.490 . S
C796 C798 1.395 . S
C796 C799 1.403 . S
H797 C803 0.930 . S
C798 H784 0.930 . S
C798 C796 1.395 . S
C798 C801 1.403 . S
C799 C796 1.403 . S
C799 C800 1.524 . S
C799 C803 1.400 . S
C800 H785 0.960 . S
C800 H786 0.960 . S
C800 H787 0.960 . S
C800 C799 1.524 . S
C801 C798 1.403 . S
C801 C802 1.392 . S
C801 C805 1.495 . S
C802 C801 1.392 . S
C802 C803 1.385 . S
C802 C804 1.478 . S
C803 H797 0.930 . S
C803 C799 1.400 . S
C803 C802 1.385 . S
C804 C802 1.478 . S
C804 C806 1.381 . S
C804 C810 1.383 . S
C805 C801 1.495 . S
C805 H811 0.959 . S
C805 H812 0.961 . S
C805 H813 0.960 . S
C806 C804 1.381 . S
C806 C807 1.394 . S
C806 H814 0.930 . S
C807 C806 1.394 . S
C807 C808 1.383 1_556 S
C807 H815 0.929 . S
C808 C807 1.383 1_554 S
C808 C809 1.375 1_554 S
C809 H793 0.922 1_556 S
C809 C808 1.375 1_556 S
C809 C810 1.389 . S
C810 H794 0.931 . S
C810 C804 1.383 . S
C810 C809 1.389 . S
H811 C805 0.959 . S
H812 C805 0.961 . S
H813 C805 0.960 . S
H814 C806 0.930 . S
H815 C807 0.929 . S
H816 C824 0.929 . S
H817 C826 0.930 . S
H818 C828 0.930 . S
H819 C831 0.929 . S
H820 C834 0.930 . S
H821 C836 0.960 . S
H822 C836 0.960 . S
H823 C836 0.960 . S
C824 H816 0.929 . S
C824 C825 1.377 . S
C824 C826 1.384 . S
C825 C824 1.377 . S
C825 C831 1.390 . S
C826 H817 0.930 . S
C826 C824 1.384 . S
C826 C827 1.372 . S
C827 C826 1.372 . S
C827 C828 1.400 . S
C827 C832 1.490 . S
C828 H818 0.930 . S
C828 C827 1.400 . S
C828 C831 1.386 . S
H829 C845 0.930 . S
H830 C846 0.931 . S
C831 H819 0.929 . S
C831 C825 1.390 . S
C831 C828 1.386 . S
C832 C827 1.490 . S
C832 C834 1.395 . S
C832 C835 1.403 1_455 S
H833 C839 0.930 . S
C834 H820 0.930 . S
C834 C832 1.395 . S
C834 C837 1.403 . S
C835 C832 1.403 1_655 S
C835 C836 1.524 . S
C835 C839 1.400 . S
C836 H821 0.960 . S
C836 H822 0.960 . S
C836 H823 0.960 . S
C836 C835 1.524 . S
C837 C834 1.403 . S
C837 C838 1.392 1_455 S
C837 C841 1.495 . S
C838 C837 1.392 1_655 S
C838 C839 1.385 . S
C838 C840 1.478 . S
C839 H833 0.930 . S
C839 C835 1.400 . S
C839 C838 1.385 . S
C840 C838 1.478 . S
C840 C842 1.381 . S
C840 C846 1.383 . S
C841 C837 1.495 . S
C841 H847 0.959 . S
C841 H848 0.961 . S
C841 H849 0.960 . S
C842 C840 1.381 . S
C842 C843 1.394 . S
C842 H850 0.930 . S
C843 C842 1.394 . S
C843 C844 1.383 . S
C843 H851 0.929 . S
C844 C843 1.383 . S
C844 C845 1.377 . S
C845 H829 0.930 . S
C845 C844 1.377 . S
C845 C846 1.379 . S
C846 H830 0.931 . S
C846 C840 1.383 . S
C846 C845 1.379 . S
H847 C841 0.959 . S
H848 C841 0.961 . S
H849 C841 0.960 . S
H850 C842 0.930 . S
H851 C843 0.929 . S
H852 C860 0.929 . S
H853 C862 0.930 . S
H854 C864 0.930 . S
H855 C867 0.929 . S
H856 C870 0.930 . S
H857 C872 0.960 . S
H858 C872 0.960 . S
H859 C872 0.960 . S
C860 H852 0.929 . S
C860 C861 1.377 . S
C860 C862 1.384 . S
C861 C860 1.377 . S
C861 C867 1.390 . S
C862 H853 0.930 . S
C862 C860 1.384 . S
C862 C863 1.372 . S
C863 C862 1.372 . S
C863 C864 1.400 . S
C863 C868 1.490 . S
C864 H854 0.930 . S
C864 C863 1.400 . S
C864 C867 1.386 . S
H865 C881 0.930 . S
H866 C882 0.931 . S
C867 H855 0.929 . S
C867 C861 1.390 . S
C867 C864 1.386 . S
C868 C863 1.490 . S
C868 C870 1.395 1_545 S
C868 C871 1.403 . S
H869 C875 0.930 . S
C870 H856 0.930 . S
C870 C868 1.395 1_565 S
C870 C873 1.403 . S
C871 C868 1.403 . S
C871 C872 1.524 . S
C871 C875 1.400 . S
C872 H857 0.960 . S
C872 H858 0.960 . S
C872 H859 0.960 . S
C872 C871 1.524 . S
C873 C870 1.403 . S
C873 C874 1.392 . S
C873 C877 1.495 . S
C874 C873 1.392 . S
C874 C875 1.385 1_565 S
C874 C876 1.478 . S
C875 H869 0.930 . S
C875 C871 1.400 . S
C875 C874 1.385 1_545 S
C876 C874 1.478 . S
C876 C878 1.381 . S
C876 C882 1.383 . S
C877 C873 1.495 . S
C877 H883 0.959 . S
C877 H884 0.961 . S
C877 H885 0.960 . S
C878 C876 1.381 . S
C878 C879 1.394 . S
C878 H886 0.930 . S
C879 C878 1.394 . S
C879 C880 1.383 . S
C879 H887 0.929 . S
C880 C879 1.383 . S
C880 C881 1.377 . S
C881 H865 0.930 . S
C881 C880 1.377 . S
C881 C882 1.379 . S
C882 H866 0.931 . S
C882 C876 1.383 . S
C882 C881 1.379 . S
H883 C877 0.959 . S
H884 C877 0.961 . S
H885 C877 0.960 . S
H886 C878 0.930 . S
H887 C879 0.929 . S
C249 C166 1.316 . S
C268 C19 1.325 . S
C285 C219 1.330 . S
C304 C46 1.305 . S
C321 C6 1.322 . S
C340 C99 1.327 . S
C357 C59 1.331 . S
C376 C126 1.327 . S
C393 C86 1.317 . S
C412 C179 1.326 . S
C429 C139 1.330 . S
C448 C206 1.315 . S
C465 C18 0.783 . S
C484 C129 0.706 . S
C501 C178 0.784 . S
C520 C49 0.698 . S
C537 C209 0.790 . S
C556 C98 0.812 . S
C573 C89 0.770 . S
C592 C218 0.769 . S
C609 C9 0.782 . S
C628 C138 0.814 . S
C645 C169 0.791 . S
C664 C58 0.823 . S
C681 C210 1.693 . S
C700 C10 1.694 . S
C717 C55 0.764 . S
C736 C15 0.732 . S
C753 C90 1.690 . S
C772 C50 1.681 . S
C789 C95 0.758 . S
C808 C135 0.771 . S
C825 C170 1.692 . S
C844 C130 1.693 . S
C861 C215 0.759 . S
C880 C175 0.760 . S
