# Generated by pormake.
# Topology fob, (5)-cn, num edge types: 1
# Building blocks:
#     Node 0, Type 0, BuildingBlock: XOMCOT_clean_sbu_0, # of connection points: 5
#     Node 1, Type 0, BuildingBlock: XOMCOT_clean_sbu_0, # of connection points: 5
#     Node 2, Type 0, BuildingBlock: XOMCOT_clean_sbu_0, # of connection points: 5
#     Node 3, Type 0, BuildingBlock: XOMCOT_clean_sbu_0, # of connection points: 5
#     Node 4, Type 0, BuildingBlock: XOMCOT_clean_sbu_0, # of connection points: 5
#     Node 5, Type 0, BuildingBlock: XOMCOT_clean_sbu_0, # of connection points: 5
#     Node 6, Type 0, BuildingBlock: XOMCOT_clean_sbu_0, # of connection points: 5
#     Node 7, Type 0, BuildingBlock: XOMCOT_clean_sbu_0, # of connection points: 5
#     Node 8, Type 0, BuildingBlock: XOMCOT_clean_sbu_0, # of connection points: 5
#     Node 9, Type 0, BuildingBlock: XOMCOT_clean_sbu_0, # of connection points: 5
#     Node 10, Type 0, BuildingBlock: XOMCOT_clean_sbu_0, # of connection points: 5
#     Node 11, Type 0, BuildingBlock: XOMCOT_clean_sbu_0, # of connection points: 5
#     Node 12, Type 0, BuildingBlock: XOMCOT_clean_sbu_0, # of connection points: 5
#     Node 13, Type 0, BuildingBlock: XOMCOT_clean_sbu_0, # of connection points: 5
#     Node 14, Type 0, BuildingBlock: XOMCOT_clean_sbu_0, # of connection points: 5
#     Node 15, Type 0, BuildingBlock: XOMCOT_clean_sbu_0, # of connection points: 5
#     Edge 16, Type (0, 0), None
#     Edge 17, Type (0, 0), None
#     Edge 18, Type (0, 0), None
#     Edge 19, Type (0, 0), None
#     Edge 20, Type (0, 0), None
#     Edge 21, Type (0, 0), None
#     Edge 22, Type (0, 0), None
#     Edge 23, Type (0, 0), None
#     Edge 24, Type (0, 0), None
#     Edge 25, Type (0, 0), None
#     Edge 26, Type (0, 0), None
#     Edge 27, Type (0, 0), None
#     Edge 28, Type (0, 0), None
#     Edge 29, Type (0, 0), None
#     Edge 30, Type (0, 0), None
#     Edge 31, Type (0, 0), None
#     Edge 32, Type (0, 0), None
#     Edge 33, Type (0, 0), None
#     Edge 34, Type (0, 0), None
#     Edge 35, Type (0, 0), None
#     Edge 36, Type (0, 0), None
#     Edge 37, Type (0, 0), None
#     Edge 38, Type (0, 0), None
#     Edge 39, Type (0, 0), None
#     Edge 40, Type (0, 0), None
#     Edge 41, Type (0, 0), None
#     Edge 42, Type (0, 0), None
#     Edge 43, Type (0, 0), None
#     Edge 44, Type (0, 0), None
#     Edge 45, Type (0, 0), None
#     Edge 46, Type (0, 0), None
#     Edge 47, Type (0, 0), None
#     Edge 48, Type (0, 0), None
#     Edge 49, Type (0, 0), None
#     Edge 50, Type (0, 0), None
#     Edge 51, Type (0, 0), None
#     Edge 52, Type (0, 0), None
#     Edge 53, Type (0, 0), None
#     Edge 54, Type (0, 0), None
#     Edge 55, Type (0, 0), None
# Relax obj value: 0.059
# Max RMSD: 0.124
# Mean RMSD: 0.124
data_MOF--net-fob--node1-XOMCOT_clean_sbu_0--edge1-none
_symmetry_space_group_name_H-M    P1
_symmetry_Int_Tables_number       1
_symmetry_cell_setting            triclinic
loop_
_symmetry_equiv_pos_as_xyz
'x, y, z'
_cell_length_a     13.398797
_cell_length_b     35.366874
_cell_length_c     23.95888
_cell_angle_alpha  96.687472
_cell_angle_beta   90.000013
_cell_angle_gamma 89.999959
loop_
_atom_site_label
_atom_site_type_symbol
_atom_site_fract_x
_atom_site_fract_y
_atom_site_fract_z
_atom_type_partial_charge
Co0 Co 0.13401 0.1501 0.49122 0.0
C1 C 0.03471 0.07645 0.49324 0.0
C2 C 0.19132 0.06921 0.47527 0.0
C3 C 0.14911 0.03373 0.47645 0.0
N4 N 0.11932 0.09571 0.48557 0.0
N5 N 0.05104 0.03866 0.48771 0.0
H6 H 0.96337 0.08986 0.50312 0.0
H7 H 0.26905 0.07527 0.46801 0.0
C8 C 0.25622 0.1632 0.39028 0.0
O9 O 0.19299 0.18954 0.37859 0.0
N10 N 0.15098 0.20509 0.49724 0.0
C11 C 0.08173 0.23309 0.50045 0.0
C12 C 0.12893 0.26751 0.49819 0.0
C13 C 0.2395 0.22314 0.49505 0.0
N14 N 0.2277 0.26091 0.49415 0.0
C15 C 0.93153 0.16291 0.46093 0.0
C16 C 0.94082 0.12954 0.35116 0.0
C17 C 0.84841 0.14189 0.37378 0.0
C18 C 0.84414 0.15861 0.42923 0.0
C19 C 0.02661 0.13357 0.38487 0.0
N20 N 0.02219 0.15125 0.43875 0.0
H21 H 0.92456 0.17418 0.50448 0.0
H22 H 0.09498 0.12067 0.36831 0.0
H23 H 1.00231 0.22948 0.50355 0.0
H24 H 0.31064 0.20863 0.49216 0.0
O25 O 0.05803 0.15447 0.55963 0.0
O26 O 0.22268 0.14822 0.55509 0.0
O27 O 0.24002 0.14369 0.43089 0.0
C28 C 0.14187 0.15075 0.58541 0.0
H29 H 0.18759 1.00669 0.47 0.0
H30 H 0.09318 0.29496 0.49853 0.0
H31 H 0.94596 0.11535 0.3087 0.0
H32 H 0.77345 0.16767 0.44832 0.0
Co33 Co 0.13401 0.14861 0.73989 0.0
C34 C 0.03472 0.22225 0.73787 0.0
C35 C 0.19132 0.22949 0.75585 0.0
C36 C 0.14911 0.26497 0.75466 0.0
N37 N 0.11932 0.20299 0.74554 0.0
N38 N 0.05104 0.26004 0.7434 0.0
H39 H 0.96337 0.20884 0.72799 0.0
H40 H 0.26905 0.22343 0.7631 0.0
C41 C 0.25622 0.1355 0.84083 0.0
O42 O 0.19299 0.10917 0.85252 0.0
N43 N 0.15098 0.09361 0.73387 0.0
C44 C 0.08173 0.06562 0.73066 0.0
C45 C 0.12893 0.03119 0.73293 0.0
C46 C 0.2395 0.07557 0.73607 0.0
N47 N 0.2277 0.03779 0.73696 0.0
C48 C 0.93153 0.13579 0.77019 0.0
C49 C 0.94082 0.16916 0.87995 0.0
C50 C 0.84841 0.15681 0.85733 0.0
C51 C 0.84414 0.14009 0.80188 0.0
C52 C 0.02661 0.16513 0.84624 0.0
N53 N 0.02219 0.14745 0.79236 0.0
H54 H 0.92455 0.12452 0.72663 0.0
H55 H 0.09498 0.17803 0.8628 0.0
H56 H 1.00231 0.06923 0.72756 0.0
H57 H 0.31064 0.09007 0.73896 0.0
O58 O 0.05803 0.14423 0.67148 0.0
O59 O 0.22268 0.15048 0.67602 0.0
O60 O 0.24002 0.15501 0.80022 0.0
C61 C 0.14187 0.14795 0.6457 0.0
H62 H 0.18759 0.29201 0.76111 0.0
H63 H 0.09318 1.00374 0.73258 0.0
H64 H 0.94596 0.18336 0.92242 0.0
H65 H 0.77345 0.13103 0.7828 0.0
Co66 Co 0.89682 0.89861 0.48989 0.0
C67 C 0.99612 0.97225 0.48785 0.0
C68 C 0.83952 0.97949 0.50584 0.0
C69 C 0.88172 1.01497 0.50465 0.0
N70 N 0.91152 0.95299 0.49554 0.0
N71 N 0.97979 1.01004 0.49338 0.0
H72 H 0.06746 0.95884 0.47798 0.0
H73 H 0.76179 0.97343 0.51311 0.0
C74 C 0.77462 0.88551 0.59083 0.0
O75 O 0.83785 0.85917 0.60252 0.0
N76 N 0.87986 0.84361 0.48388 0.0
C77 C 0.94911 0.81562 0.48066 0.0
C78 C 0.90191 0.78119 0.48293 0.0
C79 C 0.79134 0.82557 0.48607 0.0
N80 N 0.80314 0.78779 0.48696 0.0
C81 C 0.09931 0.88579 0.52019 0.0
C82 C 0.09002 0.91917 0.62995 0.0
C83 C 0.18243 0.90682 0.60733 0.0
C84 C 0.1867 0.8901 0.55188 0.0
C85 C 1.00423 0.91514 0.59624 0.0
N86 N 1.00865 0.89746 0.54236 0.0
H87 H 0.10628 0.87452 0.47663 0.0
H88 H 0.93586 0.92804 0.6128 0.0
H89 H 0.02853 0.81923 0.47756 0.0
H90 H 0.7202 0.84007 0.48896 0.0
O91 O 0.97281 0.89423 0.42148 0.0
O92 O 0.80816 0.90047 0.42602 0.0
O93 O 0.79082 0.90501 0.55022 0.0
C94 C 0.88897 0.89795 0.3957 0.0
H95 H 0.84325 0.04201 0.51111 0.0
H96 H 0.93766 0.75374 0.48259 0.0
H97 H 0.08488 0.93336 0.67241 0.0
H98 H 0.25738 0.88103 0.5328 0.0
Co99 Co 0.89682 0.9001 0.24122 0.0
C100 C 0.99612 0.82645 0.24324 0.0
C101 C 0.83952 0.81921 0.22526 0.0
C102 C 0.88173 0.78373 0.22644 0.0
N103 N 0.91152 0.84571 0.23557 0.0
N104 N 0.9798 0.78866 0.23771 0.0
H105 H 0.06746 0.83986 0.25312 0.0
H106 H 0.76179 0.82527 0.218 0.0
C107 C 0.77462 0.9132 0.14028 0.0
O108 O 0.83785 0.93954 0.12859 0.0
N109 N 0.87986 0.95509 0.24724 0.0
C110 C 0.94911 0.98309 0.25046 0.0
C111 C 0.90191 1.01751 0.24819 0.0
C112 C 0.79134 0.97314 0.24505 0.0
N113 N 0.80314 1.01091 0.24416 0.0
C114 C 0.09931 0.91291 0.21093 0.0
C115 C 0.09002 0.87954 0.10116 0.0
C116 C 0.18243 0.89189 0.12378 0.0
C117 C 0.1867 0.90861 0.17923 0.0
C118 C 1.00423 0.88357 0.13487 0.0
N119 N 1.00865 0.90125 0.18875 0.0
H120 H 0.10628 0.92418 0.25448 0.0
H121 H 0.93586 0.87067 0.11831 0.0
H122 H 0.02852 0.97947 0.25356 0.0
H123 H 0.7202 0.95863 0.24216 0.0
O124 O 0.97281 0.90447 0.30963 0.0
O125 O 0.80816 0.89822 0.30509 0.0
O126 O 0.79082 0.89369 0.18089 0.0
C127 C 0.88897 0.90075 0.33541 0.0
H128 H 0.84325 0.75669 0.21999 0.0
H129 H 0.93766 0.04496 0.24853 0.0
H130 H 0.08488 0.86535 0.05869 0.0
H131 H 0.25739 0.91767 0.19832 0.0
Co132 Co 0.13401 0.6501 -0.00878 0.0
C133 C 0.03471 0.57645 -0.00676 0.0
C134 C 0.19132 0.56921 0.97526 0.0
C135 C 0.14911 0.53373 0.97645 0.0
N136 N 0.11932 0.59571 0.98557 0.0
N137 N 0.05104 0.53866 0.98771 0.0
H138 H 0.96337 0.58986 0.00312 0.0
H139 H 0.26905 0.57527 0.96801 0.0
C140 C 0.25622 0.6632 0.89028 0.0
O141 O 0.19299 0.68954 0.87859 0.0
N142 N 0.15098 0.70509 -0.00276 0.0
C143 C 0.08173 0.73309 0.00045 0.0
C144 C 0.12893 0.76751 -0.00181 0.0
C145 C 0.2395 0.72314 -0.00495 0.0
N146 N 0.2277 0.76091 -0.00584 0.0
C147 C 0.93153 0.66291 0.96093 0.0
C148 C 0.94082 0.62954 0.85116 0.0
C149 C 0.84841 0.64189 0.87378 0.0
C150 C 0.84414 0.65861 0.92923 0.0
C151 C 0.02661 0.63357 0.88487 0.0
N152 N 0.02219 0.65125 0.93875 0.0
H153 H 0.92456 0.67418 0.00448 0.0
H154 H 0.09498 0.62067 0.86831 0.0
H155 H 1.00232 0.72947 0.00355 0.0
H156 H 0.31064 0.70863 -0.00784 0.0
O157 O 0.05803 0.65447 0.05963 0.0
O158 O 0.22268 0.64822 0.05509 0.0
O159 O 0.24002 0.64369 0.93089 0.0
C160 C 0.14187 0.65075 0.08541 0.0
H161 H 0.18758 0.50669 0.96999 0.0
H162 H 0.09318 0.79496 -0.00147 0.0
H163 H 0.94596 0.61535 0.80869 0.0
H164 H 0.77345 0.66767 0.94832 0.0
Co165 Co 0.13401 0.64861 0.23989 0.0
C166 C 0.03472 0.72225 0.23785 0.0
C167 C 0.19132 0.72949 0.25585 0.0
C168 C 0.14911 0.76497 0.25466 0.0
N169 N 0.11932 0.70299 0.24554 0.0
N170 N 0.05105 0.76004 0.24338 0.0
H171 H 0.96338 0.70884 0.22797 0.0
H172 H 0.26905 0.72343 0.26311 0.0
C173 C 0.25622 0.6355 0.34083 0.0
O174 O 0.19299 0.60917 0.35252 0.0
N175 N 0.15098 0.59361 0.23388 0.0
C176 C 0.08173 0.56562 0.23066 0.0
C177 C 0.12893 0.53119 0.23293 0.0
C178 C 0.2395 0.57557 0.23607 0.0
N179 N 0.2277 0.53779 0.23696 0.0
C180 C 0.93153 0.63579 0.27019 0.0
C181 C 0.94082 0.66916 0.37995 0.0
C182 C 0.84841 0.65681 0.35733 0.0
C183 C 0.84413 0.6401 0.30188 0.0
C184 C 0.02661 0.66514 0.34624 0.0
N185 N 0.02219 0.64746 0.29236 0.0
H186 H 0.92455 0.62452 0.22663 0.0
H187 H 0.09498 0.67803 0.3628 0.0
H188 H 1.00231 0.56923 0.22756 0.0
H189 H 0.31064 0.59007 0.23896 0.0
O190 O 0.05803 0.64423 0.17148 0.0
O191 O 0.22268 0.65048 0.17602 0.0
O192 O 0.24002 0.65501 0.30022 0.0
C193 C 0.14187 0.64795 0.1457 0.0
H194 H 0.18759 0.79201 0.26111 0.0
H195 H 0.09318 0.50374 0.23259 0.0
H196 H 0.94596 0.68336 0.42242 0.0
H197 H 0.77345 0.63103 0.2828 0.0
Co198 Co 0.89682 0.39861 0.98989 0.0
C199 C 0.99612 0.47225 0.98785 0.0
C200 C 0.83952 0.47949 0.00585 0.0
C201 C 0.88173 0.51497 0.00465 0.0
N202 N 0.91152 0.45299 -0.00446 0.0
N203 N 0.97979 0.51004 -0.00662 0.0
H204 H 0.06746 0.45884 0.97798 0.0
H205 H 0.76179 0.47343 0.01311 0.0
C206 C 0.77462 0.3855 0.09083 0.0
O207 O 0.83785 0.35917 0.10252 0.0
N208 N 0.87986 0.34361 0.98388 0.0
C209 C 0.94911 0.31562 0.98066 0.0
C210 C 0.90191 0.28119 0.98293 0.0
C211 C 0.79134 0.32557 0.98607 0.0
N212 N 0.80314 0.28779 0.98696 0.0
C213 C 0.09931 0.38579 0.02019 0.0
C214 C 0.09002 0.41917 0.12995 0.0
C215 C 0.18243 0.40681 0.10733 0.0
C216 C 0.1867 0.3901 0.05188 0.0
C217 C 1.00423 0.41514 0.09624 0.0
N218 N 1.00865 0.39746 0.04236 0.0
H219 H 0.10628 0.37452 0.97663 0.0
H220 H 0.93586 0.42804 0.1128 0.0
H221 H 0.02853 0.31923 0.97756 0.0
H222 H 0.7202 0.34007 0.98896 0.0
O223 O 0.97281 0.39423 0.92148 0.0
O224 O 0.80816 0.40048 0.92602 0.0
O225 O 0.79082 0.40501 0.05022 0.0
C226 C 0.88897 0.39795 0.8957 0.0
H227 H 0.84325 0.54201 0.01111 0.0
H228 H 0.93766 0.25374 0.98259 0.0
H229 H 0.08488 0.43336 0.17242 0.0
H230 H 0.25738 0.38103 0.0328 0.0
Co231 Co 0.89682 0.4001 0.74122 0.0
C232 C 0.99612 0.32645 0.74325 0.0
C233 C 0.83952 0.31921 0.72526 0.0
C234 C 0.88173 0.28373 0.72645 0.0
N235 N 0.91152 0.34571 0.73557 0.0
N236 N 0.97979 0.28866 0.73773 0.0
H237 H 0.06746 0.33986 0.75313 0.0
H238 H 0.76179 0.32527 0.71799 0.0
C239 C 0.77462 0.4132 0.64028 0.0
O240 O 0.83785 0.43954 0.62859 0.0
N241 N 0.87986 0.45509 0.74724 0.0
C242 C 0.94911 0.48308 0.75045 0.0
C243 C 0.90191 0.51751 0.74819 0.0
C244 C 0.79134 0.47314 0.74505 0.0
N245 N 0.80314 0.51091 0.74415 0.0
C246 C 0.09931 0.41291 0.71093 0.0
C247 C 0.09002 0.37954 0.60116 0.0
C248 C 0.18243 0.39189 0.62378 0.0
C249 C 0.1867 0.40861 0.67923 0.0
C250 C 1.00423 0.38357 0.63487 0.0
N251 N 1.00865 0.40125 0.68875 0.0
H252 H 0.10628 0.42418 0.75448 0.0
H253 H 0.93586 0.37067 0.61831 0.0
H254 H 0.02852 0.47947 0.75355 0.0
H255 H 0.7202 0.45863 0.74216 0.0
O256 O 0.97281 0.40447 0.80963 0.0
O257 O 0.80816 0.39822 0.80509 0.0
O258 O 0.79082 0.39369 0.68089 0.0
C259 C 0.88897 0.40075 0.83541 0.0
H260 H 0.84325 0.25669 0.71999 0.0
H261 H 0.93766 0.54496 0.74853 0.0
H262 H 0.08488 0.36535 0.55869 0.0
H263 H 0.25739 0.41767 0.69832 0.0
Co264 Co 0.63401 0.15009 -0.00878 0.0
C265 C 0.53471 0.07645 -0.00676 0.0
C266 C 0.69132 0.06921 0.97528 0.0
C267 C 0.64912 0.03373 0.97646 0.0
N268 N 0.61932 0.09571 0.98558 0.0
N269 N 0.55104 0.03866 0.98772 0.0
H270 H 0.46337 0.08986 0.00311 0.0
H271 H 0.76906 0.07527 0.96804 0.0
C272 C 0.7562 0.16318 0.89027 0.0
O273 O 0.69295 0.18951 0.87856 0.0
N274 N 0.65098 0.20509 -0.00277 0.0
C275 C 0.58173 0.23309 0.00047 0.0
C276 C 0.62893 0.26751 -0.00183 0.0
C277 C 0.7395 0.22313 -0.005 0.0
N278 N 0.72769 0.26091 -0.00592 0.0
C279 C 0.43154 0.16292 0.96091 0.0
C280 C 0.44083 0.12951 0.85116 0.0
C281 C 0.34842 0.14187 0.87377 0.0
C282 C 0.34415 0.15861 0.92921 0.0
C283 C 0.52662 0.13354 0.88488 0.0
N284 N 0.52219 0.15124 0.93874 0.0
H285 H 0.42456 0.17419 0.00446 0.0
H286 H 0.59498 0.12063 0.86833 0.0
H287 H 0.50232 0.22948 0.00362 0.0
H288 H 0.81063 0.20862 -0.00791 0.0
O289 O 0.55802 0.15447 0.05963 0.0
O290 O 0.72267 0.14823 0.0551 0.0
O291 O 0.74002 0.14369 0.9309 0.0
C292 C 0.64186 0.15075 0.08541 0.0
H293 H 0.68759 1.00669 0.97002 0.0
H294 H 0.59318 0.29496 -0.00146 0.0
H295 H 0.44596 0.1153 0.80871 0.0
H296 H 0.27347 0.16768 0.94829 0.0
Co297 Co 0.63401 0.14861 0.23989 0.0
C298 C 0.53472 0.22225 0.23787 0.0
C299 C 0.69132 0.22949 0.25583 0.0
C300 C 0.64912 0.26497 0.25465 0.0
N301 N 0.61932 0.20299 0.24553 0.0
N302 N 0.55104 0.26004 0.24339 0.0
H303 H 0.46337 0.20884 0.228 0.0
H304 H 0.76906 0.22343 0.26308 0.0
C305 C 0.7562 0.13552 0.34084 0.0
O306 O 0.69295 0.1092 0.35255 0.0
N307 N 0.65098 0.09361 0.23388 0.0
C308 C 0.58173 0.06561 0.23064 0.0
C309 C 0.62892 0.03119 0.23294 0.0
C310 C 0.7395 0.07557 0.23612 0.0
N311 N 0.72769 0.03779 0.23704 0.0
C312 C 0.43154 0.13578 0.2702 0.0
C313 C 0.44083 0.16919 0.37995 0.0
C314 C 0.34842 0.15683 0.35734 0.0
C315 C 0.34415 0.14009 0.3019 0.0
C316 C 0.52662 0.16516 0.34623 0.0
N317 N 0.52219 0.14746 0.29237 0.0
H318 H 0.42456 0.12451 0.22665 0.0
H319 H 0.59498 0.17807 0.36278 0.0
H320 H 0.50232 0.06922 0.22749 0.0
H321 H 0.81063 0.09008 0.23903 0.0
O322 O 0.55802 0.14423 0.17149 0.0
O323 O 0.72267 0.15047 0.17602 0.0
O324 O 0.74002 0.15501 0.30021 0.0
C325 C 0.64186 0.14795 0.1457 0.0
H326 H 0.68759 0.29201 0.26109 0.0
H327 H 0.59318 1.00374 0.23258 0.0
H328 H 0.44597 0.1834 0.42241 0.0
H329 H 0.27347 0.13102 0.28282 0.0
Co330 Co 0.39683 0.89861 0.98989 0.0
C331 C 0.49612 0.97225 0.98785 0.0
C332 C 0.33951 0.97949 0.00583 0.0
C333 C 0.38172 1.01497 0.00464 0.0
N334 N 0.41152 0.95299 -0.00447 0.0
N335 N 0.47979 1.01004 -0.00663 0.0
H336 H 0.56746 0.95884 0.97799 0.0
H337 H 0.26178 0.97343 0.01308 0.0
C338 C 0.27464 0.88552 0.09084 0.0
O339 O 0.33789 0.8592 0.10255 0.0
N340 N 0.37986 0.84361 0.98389 0.0
C341 C 0.44911 0.81561 0.98065 0.0
C342 C 0.40192 0.78119 0.98295 0.0
C343 C 0.29134 0.82557 0.98612 0.0
N344 N 0.30315 0.78779 0.98704 0.0
C345 C 0.5993 0.88578 0.0202 0.0
C346 C 0.59001 0.9192 0.12995 0.0
C347 C 0.68242 0.90683 0.10734 0.0
C348 C 0.68669 0.89009 0.0519 0.0
C349 C 0.50422 0.91516 0.09623 0.0
N350 N 0.50865 0.89746 0.04237 0.0
H351 H 0.60628 0.87451 0.97665 0.0
H352 H 0.43586 0.92807 0.11278 0.0
H353 H 0.52852 0.81922 0.9775 0.0
H354 H 0.22021 0.84008 0.98903 0.0
O355 O 0.47282 0.89423 0.92148 0.0
O356 O 0.30817 0.90047 0.92601 0.0
O357 O 0.29082 0.90501 0.05021 0.0
C358 C 0.38898 0.89794 0.8957 0.0
H359 H 0.34324 0.04201 0.01109 0.0
H360 H 0.43766 0.75374 0.98258 0.0
H361 H 0.58487 0.93341 0.1724 0.0
H362 H 0.75737 0.88102 0.03282 0.0
Co363 Co 0.39683 0.90009 0.74122 0.0
C364 C 0.49612 0.82645 0.74324 0.0
C365 C 0.33952 0.81921 0.72528 0.0
C366 C 0.38172 0.78373 0.72646 0.0
N367 N 0.41152 0.84571 0.73557 0.0
N368 N 0.4798 0.78866 0.73771 0.0
H369 H 0.56747 0.83986 0.75311 0.0
H370 H 0.26178 0.82527 0.71803 0.0
C371 C 0.27464 0.91318 0.64027 0.0
O372 O 0.33789 0.93951 0.62856 0.0
N373 N 0.37986 0.95509 0.74723 0.0
C374 C 0.44911 0.98309 0.75047 0.0
C375 C 0.40191 1.01751 0.74817 0.0
C376 C 0.29134 0.97313 0.745 0.0
N377 N 0.30315 1.01091 0.74408 0.0
C378 C 0.5993 0.91292 0.71091 0.0
C379 C 0.59001 0.87951 0.60116 0.0
C380 C 0.68242 0.89188 0.62377 0.0
C381 C 0.68669 0.90861 0.67921 0.0
C382 C 0.50422 0.88355 0.63488 0.0
N383 N 0.50865 0.90124 0.68874 0.0
H384 H 0.60628 0.92419 0.75447 0.0
H385 H 0.43586 0.87064 0.61833 0.0
H386 H 0.52852 0.97948 0.75362 0.0
H387 H 0.22021 0.95862 0.74209 0.0
O388 O 0.47282 0.90447 0.80963 0.0
O389 O 0.30817 0.89822 0.80509 0.0
O390 O 0.29082 0.89369 0.6809 0.0
C391 C 0.38898 0.90075 0.83541 0.0
H392 H 0.34325 0.75669 0.72001 0.0
H393 H 0.43766 0.04496 0.74854 0.0
H394 H 0.58488 0.86531 0.5587 0.0
H395 H 0.75737 0.91768 0.69829 0.0
Co396 Co 0.63401 0.65009 0.49122 0.0
C397 C 0.53472 0.57645 0.49324 0.0
C398 C 0.69132 0.56921 0.47528 0.0
C399 C 0.64912 0.53373 0.47646 0.0
N400 N 0.61932 0.59571 0.48558 0.0
N401 N 0.55104 0.53866 0.48771 0.0
H402 H 0.46337 0.58986 0.50311 0.0
H403 H 0.76906 0.57527 0.46803 0.0
C404 C 0.7562 0.66318 0.39027 0.0
O405 O 0.69295 0.68951 0.37856 0.0
N406 N 0.65098 0.70509 0.49723 0.0
C407 C 0.58173 0.73309 0.50047 0.0
C408 C 0.62893 0.76751 0.49817 0.0
C409 C 0.7395 0.72313 0.495 0.0
N410 N 0.72769 0.76091 0.49408 0.0
C411 C 0.43154 0.66292 0.46091 0.0
C412 C 0.44083 0.62951 0.35116 0.0
C413 C 0.34842 0.64187 0.37377 0.0
C414 C 0.34415 0.65861 0.42921 0.0
C415 C 0.52662 0.63354 0.38488 0.0
N416 N 0.52219 0.65124 0.43874 0.0
H417 H 0.42456 0.67419 0.50446 0.0
H418 H 0.59498 0.62063 0.36833 0.0
H419 H 0.50232 0.72948 0.50362 0.0
H420 H 0.81063 0.70862 0.49209 0.0
O421 O 0.55802 0.65447 0.55963 0.0
O422 O 0.72267 0.64823 0.55509 0.0
O423 O 0.74002 0.64369 0.4309 0.0
C424 C 0.64186 0.65075 0.58541 0.0
H425 H 0.68759 0.50669 0.47001 0.0
H426 H 0.59318 0.79496 0.49854 0.0
H427 H 0.44596 0.6153 0.3087 0.0
H428 H 0.27347 0.66768 0.44829 0.0
Co429 Co 0.63401 0.64861 0.73989 0.0
C430 C 0.53472 0.72225 0.73785 0.0
C431 C 0.69132 0.72949 0.75583 0.0
C432 C 0.64912 0.76497 0.75464 0.0
N433 N 0.61932 0.70299 0.74553 0.0
N434 N 0.55105 0.76004 0.74337 0.0
H435 H 0.46338 0.70884 0.72798 0.0
H436 H 0.76906 0.72343 0.76309 0.0
C437 C 0.7562 0.63552 0.84084 0.0
O438 O 0.69295 0.6092 0.85255 0.0
N439 N 0.65098 0.59361 0.73388 0.0
C440 C 0.58173 0.56561 0.73064 0.0
C441 C 0.62892 0.53119 0.73295 0.0
C442 C 0.7395 0.57557 0.73612 0.0
N443 N 0.72769 0.53779 0.73704 0.0
C444 C 0.43154 0.63578 0.7702 0.0
C445 C 0.44083 0.6692 0.87995 0.0
C446 C 0.34842 0.65683 0.85734 0.0
C447 C 0.34415 0.64009 0.8019 0.0
C448 C 0.52662 0.66516 0.84623 0.0
N449 N 0.52219 0.64746 0.79237 0.0
H450 H 0.42456 0.62451 0.72665 0.0
H451 H 0.59498 0.67807 0.86278 0.0
H452 H 0.50232 0.56922 0.7275 0.0
H453 H 0.81063 0.59008 0.73902 0.0
O454 O 0.55802 0.64423 0.67148 0.0
O455 O 0.72267 0.65047 0.67602 0.0
O456 O 0.74002 0.65501 0.80021 0.0
C457 C 0.64186 0.64795 0.6457 0.0
H458 H 0.68759 0.79201 0.76109 0.0
H459 H 0.59318 0.50374 0.73258 0.0
H460 H 0.44597 0.6834 0.92241 0.0
H461 H 0.27347 0.63102 0.78282 0.0
Co462 Co 0.39683 0.39861 0.48989 0.0
C463 C 0.49612 0.47225 0.48785 0.0
C464 C 0.33952 0.47949 0.50583 0.0
C465 C 0.38172 0.51497 0.50464 0.0
N466 N 0.41152 0.45299 0.49553 0.0
N467 N 0.47979 0.51004 0.49337 0.0
H468 H 0.56746 0.45884 0.47799 0.0
H469 H 0.26178 0.47343 0.51309 0.0
C470 C 0.27464 0.38552 0.59084 0.0
O471 O 0.33789 0.3592 0.60255 0.0
N472 N 0.37986 0.34361 0.48388 0.0
C473 C 0.44911 0.31561 0.48064 0.0
C474 C 0.40191 0.28119 0.48295 0.0
C475 C 0.29134 0.32557 0.48612 0.0
N476 N 0.30315 0.28779 0.48704 0.0
C477 C 0.5993 0.38578 0.5202 0.0
C478 C 0.59001 0.4192 0.62995 0.0
C479 C 0.68242 0.40683 0.60734 0.0
C480 C 0.68669 0.39009 0.5519 0.0
C481 C 0.50422 0.41516 0.59623 0.0
N482 N 0.50865 0.39746 0.54237 0.0
H483 H 0.60628 0.37451 0.47665 0.0
H484 H 0.43586 0.42807 0.61278 0.0
H485 H 0.52852 0.31922 0.4775 0.0
H486 H 0.22021 0.34008 0.48902 0.0
O487 O 0.47282 0.39423 0.42148 0.0
O488 O 0.30817 0.40047 0.42602 0.0
O489 O 0.29082 0.40501 0.55021 0.0
C490 C 0.38898 0.39795 0.3957 0.0
H491 H 0.34325 0.54201 0.51109 0.0
H492 H 0.43766 0.25374 0.48258 0.0
H493 H 0.58487 0.4334 0.6724 0.0
H494 H 0.75737 0.38102 0.53282 0.0
Co495 Co 0.39683 0.40009 0.24122 0.0
C496 C 0.49612 0.32645 0.24325 0.0
C497 C 0.33952 0.31921 0.22527 0.0
C498 C 0.38172 0.28373 0.22646 0.0
N499 N 0.41152 0.34571 0.23558 0.0
N500 N 0.47979 0.28866 0.23773 0.0
H501 H 0.56746 0.33986 0.25312 0.0
H502 H 0.26178 0.32527 0.21802 0.0
C503 C 0.27464 0.41318 0.14027 0.0
O504 O 0.33789 0.43951 0.12856 0.0
N505 N 0.37986 0.45509 0.24723 0.0
C506 C 0.44911 0.48309 0.25047 0.0
C507 C 0.40191 0.51751 0.24817 0.0
C508 C 0.29134 0.47313 0.245 0.0
N509 N 0.30315 0.51091 0.24408 0.0
C510 C 0.5993 0.41292 0.21091 0.0
C511 C 0.59001 0.37951 0.10116 0.0
C512 C 0.68242 0.39187 0.12377 0.0
C513 C 0.68669 0.40861 0.17921 0.0
C514 C 0.50422 0.38354 0.13488 0.0
N515 N 0.50865 0.40124 0.18874 0.0
H516 H 0.60628 0.42419 0.25447 0.0
H517 H 0.43586 0.37064 0.11833 0.0
H518 H 0.52852 0.47948 0.25362 0.0
H519 H 0.22021 0.45862 0.24209 0.0
O520 O 0.47282 0.40447 0.30963 0.0
O521 O 0.30817 0.39823 0.30509 0.0
O522 O 0.29082 0.39369 0.1809 0.0
C523 C 0.38898 0.40075 0.33541 0.0
H524 H 0.34325 0.25669 0.22001 0.0
H525 H 0.43766 0.54496 0.24854 0.0
H526 H 0.58488 0.3653 0.0587 0.0
H527 H 0.75737 0.41768 0.19829 0.0
loop_
_geom_bond_atom_site_label_1
_geom_bond_atom_site_label_2
_geom_bond_distance
_geom_bond_site_symmetry_2
_ccdc_geom_bond_type
Co0 N4 2.148 . S
Co0 N10 2.128 . S
Co0 N20 2.194 1_455 S
Co0 O25 2.351 . S
Co0 O26 2.155 . S
Co0 O27 2.096 . S
C1 N4 1.301 . S
C1 N5 1.328 . S
C1 H6 0.930 1_455 S
C2 C3 1.333 . S
C2 N4 1.317 . S
C2 H7 0.930 . S
C3 C2 1.333 . S
C3 N5 1.350 . S
C3 H29 0.931 1_545 S
N4 Co0 2.148 . S
N4 C1 1.301 . S
N4 C2 1.317 . S
N5 C1 1.328 . S
N5 C3 1.350 . S
H6 C1 0.930 1_655 S
H7 C2 0.930 . S
C8 O9 1.224 . S
C8 O27 1.247 . S
O9 C8 1.224 . S
N10 Co0 2.128 . S
N10 C11 1.355 . S
N10 C13 1.311 . S
C11 N10 1.355 . S
C11 C12 1.363 . S
C11 H23 0.933 . S
C12 C11 1.363 . S
C12 N14 1.375 . S
C12 H30 0.931 . S
C13 N10 1.311 . S
C13 N14 1.347 . S
C13 H24 0.929 . S
N14 C12 1.375 . S
N14 C13 1.347 . S
C15 C18 1.365 . S
C15 N20 1.328 . S
C15 H21 0.929 . S
C16 C17 1.362 . S
C16 C19 1.378 . S
C16 H31 0.929 . S
C17 C16 1.362 . S
C17 C18 1.366 . S
C18 C15 1.365 . S
C18 C17 1.366 . S
C18 H32 0.930 . S
C19 C16 1.378 . S
C19 N20 1.315 . S
C19 H22 0.930 1_655 S
N20 Co0 2.194 1_655 S
N20 C15 1.328 . S
N20 C19 1.315 . S
H21 C15 0.929 . S
H22 C19 0.930 1_455 S
H23 C11 0.933 . S
H24 C13 0.929 . S
O25 Co0 2.351 . S
O25 C28 1.244 . S
O26 Co0 2.155 . S
O26 C28 1.240 . S
O27 Co0 2.096 . S
O27 C8 1.247 . S
C28 O25 1.244 . S
C28 O26 1.240 . S
H29 C3 0.931 1_565 S
H30 C12 0.931 . S
H31 C16 0.929 . S
H32 C18 0.930 . S
Co33 N37 2.148 . S
Co33 N43 2.128 . S
Co33 N53 2.194 1_455 S
Co33 O58 2.351 . S
Co33 O59 2.155 . S
Co33 O60 2.096 . S
C34 N37 1.301 . S
C34 N38 1.328 . S
C34 H39 0.930 1_455 S
C35 C36 1.333 . S
C35 N37 1.317 . S
C35 H40 0.930 . S
C36 C35 1.333 . S
C36 N38 1.350 . S
C36 H62 0.931 . S
N37 Co33 2.148 . S
N37 C34 1.301 . S
N37 C35 1.317 . S
N38 C34 1.328 . S
N38 C36 1.350 . S
H39 C34 0.930 1_655 S
H40 C35 0.930 . S
C41 O42 1.224 . S
C41 O60 1.247 . S
O42 C41 1.224 . S
N43 Co33 2.128 . S
N43 C44 1.355 . S
N43 C46 1.311 . S
C44 N43 1.355 . S
C44 C45 1.363 . S
C44 H56 0.933 . S
C45 C44 1.363 . S
C45 N47 1.375 . S
C45 H63 0.931 1_545 S
C46 N43 1.311 . S
C46 N47 1.347 . S
C46 H57 0.929 . S
N47 C45 1.375 . S
N47 C46 1.347 . S
C48 C51 1.365 . S
C48 N53 1.328 . S
C48 H54 0.929 . S
C49 C50 1.362 . S
C49 C52 1.378 . S
C49 H64 0.929 . S
C50 C49 1.362 . S
C50 C51 1.366 . S
C51 C48 1.365 . S
C51 C50 1.366 . S
C51 H65 0.930 . S
C52 C49 1.378 . S
C52 N53 1.315 . S
C52 H55 0.930 1_655 S
N53 Co33 2.194 1_655 S
N53 C48 1.328 . S
N53 C52 1.315 . S
H54 C48 0.929 . S
H55 C52 0.930 1_455 S
H56 C44 0.933 . S
H57 C46 0.929 . S
O58 Co33 2.351 . S
O58 C61 1.244 . S
O59 Co33 2.155 . S
O59 C61 1.240 . S
O60 Co33 2.096 . S
O60 C41 1.247 . S
C61 O58 1.244 . S
C61 O59 1.240 . S
H62 C36 0.931 . S
H63 C45 0.931 1_565 S
H64 C49 0.929 . S
H65 C51 0.930 . S
Co66 N70 2.148 . S
Co66 N76 2.128 . S
Co66 N86 2.194 1_655 S
Co66 O91 2.351 . S
Co66 O92 2.155 . S
Co66 O93 2.096 . S
C67 N70 1.301 . S
C67 N71 1.328 . S
C67 H72 0.930 1_655 S
C68 C69 1.333 . S
C68 N70 1.317 . S
C68 H73 0.930 . S
C69 C68 1.333 . S
C69 N71 1.350 . S
C69 H95 0.931 1_565 S
N70 Co66 2.148 . S
N70 C67 1.301 . S
N70 C68 1.317 . S
N71 C67 1.328 . S
N71 C69 1.350 . S
H72 C67 0.930 1_455 S
H73 C68 0.930 . S
C74 O75 1.224 . S
C74 O93 1.247 . S
O75 C74 1.224 . S
N76 Co66 2.128 . S
N76 C77 1.355 . S
N76 C79 1.311 . S
C77 N76 1.355 . S
C77 C78 1.363 . S
C77 H89 0.933 . S
C78 C77 1.363 . S
C78 N80 1.375 . S
C78 H96 0.931 . S
C79 N76 1.311 . S
C79 N80 1.347 . S
C79 H90 0.929 . S
N80 C78 1.375 . S
N80 C79 1.347 . S
C81 C84 1.365 . S
C81 N86 1.328 . S
C81 H87 0.929 . S
C82 C83 1.362 . S
C82 C85 1.378 . S
C82 H97 0.929 . S
C83 C82 1.362 . S
C83 C84 1.366 . S
C84 C81 1.365 . S
C84 C83 1.366 . S
C84 H98 0.930 . S
C85 C82 1.378 . S
C85 N86 1.315 . S
C85 H88 0.930 1_455 S
N86 Co66 2.194 1_455 S
N86 C81 1.328 . S
N86 C85 1.315 . S
H87 C81 0.929 . S
H88 C85 0.930 1_655 S
H89 C77 0.933 . S
H90 C79 0.929 . S
O91 Co66 2.351 . S
O91 C94 1.244 . S
O92 Co66 2.155 . S
O92 C94 1.240 . S
O93 Co66 2.096 . S
O93 C74 1.247 . S
C94 O91 1.244 . S
C94 O92 1.240 . S
H95 C69 0.931 1_545 S
H96 C78 0.931 . S
H97 C82 0.929 . S
H98 C84 0.930 . S
Co99 N103 2.148 . S
Co99 N109 2.128 . S
Co99 N119 2.194 1_655 S
Co99 O124 2.351 . S
Co99 O125 2.155 . S
Co99 O126 2.096 . S
C100 N103 1.301 . S
C100 N104 1.328 . S
C100 H105 0.930 1_655 S
C101 C102 1.333 . S
C101 N103 1.317 . S
C101 H106 0.930 . S
C102 C101 1.333 . S
C102 N104 1.350 . S
C102 H128 0.931 . S
N103 Co99 2.148 . S
N103 C100 1.301 . S
N103 C101 1.317 . S
N104 C100 1.328 . S
N104 C102 1.350 . S
H105 C100 0.930 1_455 S
H106 C101 0.930 . S
C107 O108 1.224 . S
C107 O126 1.247 . S
O108 C107 1.224 . S
N109 Co99 2.128 . S
N109 C110 1.355 . S
N109 C112 1.311 . S
C110 N109 1.355 . S
C110 C111 1.363 . S
C110 H122 0.933 . S
C111 C110 1.363 . S
C111 N113 1.375 . S
C111 H129 0.931 1_565 S
C112 N109 1.311 . S
C112 N113 1.347 . S
C112 H123 0.929 . S
N113 C111 1.375 . S
N113 C112 1.347 . S
C114 C117 1.365 . S
C114 N119 1.328 . S
C114 H120 0.929 . S
C115 C116 1.362 . S
C115 C118 1.378 . S
C115 H130 0.929 . S
C116 C115 1.362 . S
C116 C117 1.366 . S
C117 C114 1.365 . S
C117 C116 1.366 . S
C117 H131 0.930 . S
C118 C115 1.378 . S
C118 N119 1.315 . S
C118 H121 0.930 1_455 S
N119 Co99 2.194 1_455 S
N119 C114 1.328 . S
N119 C118 1.315 . S
H120 C114 0.929 . S
H121 C118 0.930 1_655 S
H122 C110 0.933 . S
H123 C112 0.929 . S
O124 Co99 2.351 . S
O124 C127 1.244 . S
O125 Co99 2.155 . S
O125 C127 1.240 . S
O126 Co99 2.096 . S
O126 C107 1.247 . S
C127 O124 1.244 . S
C127 O125 1.240 . S
H128 C102 0.931 . S
H129 C111 0.931 1_545 S
H130 C115 0.929 . S
H131 C117 0.930 . S
Co132 N136 2.148 . S
Co132 N142 2.128 1_556 S
Co132 N152 2.194 1_455 S
Co132 O157 2.351 1_556 S
Co132 O158 2.155 1_556 S
Co132 O159 2.096 . S
C133 N136 1.301 . S
C133 N137 1.328 . S
C133 H138 0.930 1_456 S
C134 C135 1.333 . S
C134 N136 1.317 . S
C134 H139 0.930 . S
C135 C134 1.333 . S
C135 N137 1.350 . S
C135 H161 0.931 . S
N136 Co132 2.148 . S
N136 C133 1.301 . S
N136 C134 1.317 . S
N137 C133 1.328 . S
N137 C135 1.350 . S
H138 C133 0.930 1_654 S
H139 C134 0.930 . S
C140 O141 1.224 . S
C140 O159 1.247 . S
O141 C140 1.224 . S
N142 Co132 2.128 1_554 S
N142 C143 1.355 . S
N142 C145 1.311 1_554 S
C143 N142 1.355 . S
C143 C144 1.363 . S
C143 H155 0.933 . S
C144 C143 1.363 . S
C144 N146 1.375 1_554 S
C144 H162 0.931 . S
C145 N142 1.311 1_556 S
C145 N146 1.347 . S
C145 H156 0.929 . S
N146 C144 1.375 1_556 S
N146 C145 1.347 . S
C147 C150 1.365 . S
C147 N152 1.328 . S
C147 H153 0.929 1_556 S
C148 C149 1.362 . S
C148 C151 1.378 . S
C148 H163 0.929 . S
C149 C148 1.362 . S
C149 C150 1.366 . S
C150 C147 1.365 . S
C150 C149 1.366 . S
C150 H164 0.930 . S
C151 C148 1.378 . S
C151 N152 1.315 . S
C151 H154 0.930 1_655 S
N152 Co132 2.194 1_655 S
N152 C147 1.328 . S
N152 C151 1.315 . S
H153 C147 0.929 1_554 S
H154 C151 0.930 1_455 S
H155 C143 0.933 . S
H156 C145 0.929 . S
O157 Co132 2.351 1_554 S
O157 C160 1.244 . S
O158 Co132 2.155 1_554 S
O158 C160 1.240 . S
O159 Co132 2.096 . S
O159 C140 1.247 . S
C160 O157 1.244 . S
C160 O158 1.240 . S
H161 C135 0.931 . S
H162 C144 0.931 . S
H163 C148 0.929 . S
H164 C150 0.930 . S
Co165 N169 2.148 . S
Co165 N175 2.128 . S
Co165 N185 2.194 1_455 S
Co165 O190 2.351 . S
Co165 O191 2.155 . S
Co165 O192 2.096 . S
C166 N169 1.301 . S
C166 N170 1.328 . S
C166 H171 0.930 1_455 S
C167 C168 1.333 . S
C167 N169 1.317 . S
C167 H172 0.930 . S
C168 C167 1.333 . S
C168 N170 1.350 . S
C168 H194 0.931 . S
N169 Co165 2.148 . S
N169 C166 1.301 . S
N169 C167 1.317 . S
N170 C166 1.328 . S
N170 C168 1.350 . S
H171 C166 0.930 1_655 S
H172 C167 0.930 . S
C173 O174 1.224 . S
C173 O192 1.247 . S
O174 C173 1.224 . S
N175 Co165 2.128 . S
N175 C176 1.355 . S
N175 C178 1.311 . S
C176 N175 1.355 . S
C176 C177 1.363 . S
C176 H188 0.933 . S
C177 C176 1.363 . S
C177 N179 1.375 . S
C177 H195 0.931 . S
C178 N175 1.311 . S
C178 N179 1.347 . S
C178 H189 0.929 . S
N179 C177 1.375 . S
N179 C178 1.347 . S
C180 C183 1.365 . S
C180 N185 1.328 . S
C180 H186 0.929 . S
C181 C182 1.362 . S
C181 C184 1.378 . S
C181 H196 0.929 . S
C182 C181 1.362 . S
C182 C183 1.366 . S
C183 C180 1.365 . S
C183 C182 1.366 . S
C183 H197 0.930 . S
C184 C181 1.378 . S
C184 N185 1.315 . S
C184 H187 0.930 1_655 S
N185 Co165 2.194 1_655 S
N185 C180 1.328 . S
N185 C184 1.315 . S
H186 C180 0.929 . S
H187 C184 0.930 1_455 S
H188 C176 0.933 . S
H189 C178 0.929 . S
O190 Co165 2.351 . S
O190 C193 1.244 . S
O191 Co165 2.155 . S
O191 C193 1.240 . S
O192 Co165 2.096 . S
O192 C173 1.247 . S
C193 O190 1.244 . S
C193 O191 1.240 . S
H194 C168 0.931 . S
H195 C177 0.931 . S
H196 C181 0.929 . S
H197 C183 0.930 . S
Co198 N202 2.148 . S
Co198 N208 2.128 1_554 S
Co198 N218 2.194 1_655 S
Co198 O223 2.351 1_554 S
Co198 O224 2.155 1_554 S
Co198 O225 2.096 . S
C199 N202 1.301 . S
C199 N203 1.328 . S
C199 H204 0.930 1_654 S
C200 C201 1.333 . S
C200 N202 1.317 . S
C200 H205 0.930 . S
C201 C200 1.333 . S
C201 N203 1.350 . S
C201 H227 0.931 . S
N202 Co198 2.148 . S
N202 C199 1.301 . S
N202 C200 1.317 . S
N203 C199 1.328 . S
N203 C201 1.350 . S
H204 C199 0.930 1_456 S
H205 C200 0.930 . S
C206 O207 1.224 . S
C206 O225 1.247 . S
O207 C206 1.224 . S
N208 Co198 2.128 1_556 S
N208 C209 1.355 . S
N208 C211 1.311 1_556 S
C209 N208 1.355 . S
C209 C210 1.363 . S
C209 H221 0.933 . S
C210 C209 1.363 . S
C210 N212 1.375 1_556 S
C210 H228 0.931 . S
C211 N208 1.311 1_554 S
C211 N212 1.347 . S
C211 H222 0.929 . S
N212 C210 1.375 1_554 S
N212 C211 1.347 . S
C213 C216 1.365 . S
C213 N218 1.328 . S
C213 H219 0.929 1_554 S
C214 C215 1.362 . S
C214 C217 1.378 . S
C214 H229 0.929 . S
C215 C214 1.362 . S
C215 C216 1.366 . S
C216 C213 1.365 . S
C216 C215 1.366 . S
C216 H230 0.930 . S
C217 C214 1.378 . S
C217 N218 1.315 . S
C217 H220 0.930 1_455 S
N218 Co198 2.194 1_455 S
N218 C213 1.328 . S
N218 C217 1.315 . S
H219 C213 0.929 1_556 S
H220 C217 0.930 1_655 S
H221 C209 0.933 . S
H222 C211 0.929 . S
O223 Co198 2.351 1_556 S
O223 C226 1.244 . S
O224 Co198 2.155 1_556 S
O224 C226 1.240 . S
O225 Co198 2.096 . S
O225 C206 1.247 . S
C226 O223 1.244 . S
C226 O224 1.240 . S
H227 C201 0.931 . S
H228 C210 0.931 . S
H229 C214 0.929 . S
H230 C216 0.930 . S
Co231 N235 2.148 . S
Co231 N241 2.128 . S
Co231 N251 2.194 1_655 S
Co231 O256 2.351 . S
Co231 O257 2.155 . S
Co231 O258 2.096 . S
C232 N235 1.301 . S
C232 N236 1.328 . S
C232 H237 0.930 1_655 S
C233 C234 1.333 . S
C233 N235 1.317 . S
C233 H238 0.930 . S
C234 C233 1.333 . S
C234 N236 1.350 . S
C234 H260 0.931 . S
N235 Co231 2.148 . S
N235 C232 1.301 . S
N235 C233 1.317 . S
N236 C232 1.328 . S
N236 C234 1.350 . S
H237 C232 0.930 1_455 S
H238 C233 0.930 . S
C239 O240 1.224 . S
C239 O258 1.247 . S
O240 C239 1.224 . S
N241 Co231 2.128 . S
N241 C242 1.355 . S
N241 C244 1.311 . S
C242 N241 1.355 . S
C242 C243 1.363 . S
C242 H254 0.933 . S
C243 C242 1.363 . S
C243 N245 1.375 . S
C243 H261 0.931 . S
C244 N241 1.311 . S
C244 N245 1.347 . S
C244 H255 0.929 . S
N245 C243 1.375 . S
N245 C244 1.347 . S
C246 C249 1.365 . S
C246 N251 1.328 . S
C246 H252 0.929 . S
C247 C248 1.362 . S
C247 C250 1.378 . S
C247 H262 0.929 . S
C248 C247 1.362 . S
C248 C249 1.366 . S
C249 C246 1.365 . S
C249 C248 1.366 . S
C249 H263 0.930 . S
C250 C247 1.378 . S
C250 N251 1.315 . S
C250 H253 0.930 1_455 S
N251 Co231 2.194 1_455 S
N251 C246 1.328 . S
N251 C250 1.315 . S
H252 C246 0.929 . S
H253 C250 0.930 1_655 S
H254 C242 0.933 . S
H255 C244 0.929 . S
O256 Co231 2.351 . S
O256 C259 1.244 . S
O257 Co231 2.155 . S
O257 C259 1.240 . S
O258 Co231 2.096 . S
O258 C239 1.247 . S
C259 O256 1.244 . S
C259 O257 1.240 . S
H260 C234 0.931 . S
H261 C243 0.931 . S
H262 C247 0.929 . S
H263 C249 0.930 . S
Co264 N268 2.148 . S
Co264 N274 2.128 1_556 S
Co264 N284 2.194 . S
Co264 O289 2.351 1_556 S
Co264 O290 2.155 1_556 S
Co264 O291 2.096 . S
C265 N268 1.301 . S
C265 N269 1.328 . S
C265 H270 0.930 1_556 S
C266 C267 1.333 . S
C266 N268 1.317 . S
C266 H271 0.930 . S
C267 C266 1.333 . S
C267 N269 1.350 . S
C267 H293 0.931 1_545 S
N268 Co264 2.148 . S
N268 C265 1.301 . S
N268 C266 1.317 . S
N269 C265 1.328 . S
N269 C267 1.350 . S
H270 C265 0.930 1_554 S
H271 C266 0.930 . S
C272 O273 1.224 . S
C272 O291 1.247 . S
O273 C272 1.224 . S
N274 Co264 2.128 1_554 S
N274 C275 1.355 . S
N274 C277 1.311 1_554 S
C275 N274 1.355 . S
C275 C276 1.363 . S
C275 H287 0.929 . S
C276 C275 1.363 . S
C276 N278 1.375 1_554 S
C276 H294 0.931 . S
C277 N274 1.311 1_556 S
C277 N278 1.347 . S
C277 H288 0.929 . S
N278 C276 1.375 1_556 S
N278 C277 1.347 . S
C279 C282 1.365 . S
C279 N284 1.328 . S
C279 H285 0.929 1_556 S
C280 C281 1.362 . S
C280 C283 1.378 . S
C280 H295 0.929 . S
C281 C280 1.362 . S
C281 C282 1.366 . S
C282 C279 1.365 . S
C282 C281 1.366 . S
C282 H296 0.930 . S
C283 C280 1.378 . S
C283 N284 1.315 . S
C283 H286 0.930 . S
N284 Co264 2.194 . S
N284 C279 1.328 . S
N284 C283 1.315 . S
H285 C279 0.929 1_554 S
H286 C283 0.930 . S
H287 C275 0.929 . S
H288 C277 0.929 . S
O289 Co264 2.351 1_554 S
O289 C292 1.244 . S
O290 Co264 2.155 1_554 S
O290 C292 1.240 . S
O291 Co264 2.096 . S
O291 C272 1.247 . S
C292 O289 1.244 . S
C292 O290 1.240 . S
H293 C267 0.931 1_565 S
H294 C276 0.931 . S
H295 C280 0.929 . S
H296 C282 0.930 . S
Co297 N301 2.148 . S
Co297 N307 2.128 . S
Co297 N317 2.194 . S
Co297 O322 2.351 . S
Co297 O323 2.155 . S
Co297 O324 2.096 . S
C298 N301 1.301 . S
C298 N302 1.328 . S
C298 H303 0.930 . S
C299 C300 1.333 . S
C299 N301 1.317 . S
C299 H304 0.930 . S
C300 C299 1.333 . S
C300 N302 1.350 . S
C300 H326 0.931 . S
N301 Co297 2.148 . S
N301 C298 1.301 . S
N301 C299 1.317 . S
N302 C298 1.328 . S
N302 C300 1.350 . S
H303 C298 0.930 . S
H304 C299 0.930 . S
C305 O306 1.224 . S
C305 O324 1.247 . S
O306 C305 1.224 . S
N307 Co297 2.128 . S
N307 C308 1.355 . S
N307 C310 1.311 . S
C308 N307 1.355 . S
C308 C309 1.363 . S
C308 H320 0.929 . S
C309 C308 1.363 . S
C309 N311 1.375 . S
C309 H327 0.931 1_545 S
C310 N307 1.311 . S
C310 N311 1.347 . S
C310 H321 0.929 . S
N311 C309 1.375 . S
N311 C310 1.347 . S
C312 C315 1.365 . S
C312 N317 1.328 . S
C312 H318 0.929 . S
C313 C314 1.362 . S
C313 C316 1.378 . S
C313 H328 0.929 . S
C314 C313 1.362 . S
C314 C315 1.366 . S
C315 C312 1.365 . S
C315 C314 1.366 . S
C315 H329 0.930 . S
C316 C313 1.378 . S
C316 N317 1.315 . S
C316 H319 0.930 . S
N317 Co297 2.194 . S
N317 C312 1.328 . S
N317 C316 1.315 . S
H318 C312 0.929 . S
H319 C316 0.930 . S
H320 C308 0.929 . S
H321 C310 0.929 . S
O322 Co297 2.351 . S
O322 C325 1.244 . S
O323 Co297 2.155 . S
O323 C325 1.240 . S
O324 Co297 2.096 . S
O324 C305 1.247 . S
C325 O322 1.244 . S
C325 O323 1.240 . S
H326 C300 0.931 . S
H327 C309 0.931 1_565 S
H328 C313 0.929 . S
H329 C315 0.930 . S
Co330 N334 2.148 . S
Co330 N340 2.128 1_554 S
Co330 N350 2.194 . S
Co330 O355 2.351 1_554 S
Co330 O356 2.155 1_554 S
Co330 O357 2.096 . S
C331 N334 1.301 . S
C331 N335 1.328 . S
C331 H336 0.930 1_554 S
C332 C333 1.333 . S
C332 N334 1.317 . S
C332 H337 0.930 . S
C333 C332 1.333 . S
C333 N335 1.350 . S
C333 H359 0.931 1_565 S
N334 Co330 2.148 . S
N334 C331 1.301 . S
N334 C332 1.317 . S
N335 C331 1.328 . S
N335 C333 1.350 . S
H336 C331 0.930 1_556 S
H337 C332 0.930 . S
C338 O339 1.224 . S
C338 O357 1.247 . S
O339 C338 1.224 . S
N340 Co330 2.128 1_556 S
N340 C341 1.355 . S
N340 C343 1.311 1_556 S
C341 N340 1.355 . S
C341 C342 1.363 . S
C341 H353 0.929 . S
C342 C341 1.363 . S
C342 N344 1.375 1_556 S
C342 H360 0.931 . S
C343 N340 1.311 1_554 S
C343 N344 1.347 . S
C343 H354 0.929 . S
N344 C342 1.375 1_554 S
N344 C343 1.347 . S
C345 C348 1.365 . S
C345 N350 1.328 . S
C345 H351 0.929 1_554 S
C346 C347 1.362 . S
C346 C349 1.378 . S
C346 H361 0.929 . S
C347 C346 1.362 . S
C347 C348 1.366 . S
C348 C345 1.365 . S
C348 C347 1.366 . S
C348 H362 0.930 . S
C349 C346 1.378 . S
C349 N350 1.315 . S
C349 H352 0.930 . S
N350 Co330 2.194 . S
N350 C345 1.328 . S
N350 C349 1.315 . S
H351 C345 0.929 1_556 S
H352 C349 0.930 . S
H353 C341 0.929 . S
H354 C343 0.929 . S
O355 Co330 2.351 1_556 S
O355 C358 1.244 . S
O356 Co330 2.155 1_556 S
O356 C358 1.240 . S
O357 Co330 2.096 . S
O357 C338 1.247 . S
C358 O355 1.244 . S
C358 O356 1.240 . S
H359 C333 0.931 1_545 S
H360 C342 0.931 . S
H361 C346 0.929 . S
H362 C348 0.930 . S
Co363 N367 2.148 . S
Co363 N373 2.128 . S
Co363 N383 2.194 . S
Co363 O388 2.351 . S
Co363 O389 2.155 . S
Co363 O390 2.096 . S
C364 N367 1.301 . S
C364 N368 1.328 . S
C364 H369 0.930 . S
C365 C366 1.333 . S
C365 N367 1.317 . S
C365 H370 0.930 . S
C366 C365 1.333 . S
C366 N368 1.350 . S
C366 H392 0.931 . S
N367 Co363 2.148 . S
N367 C364 1.301 . S
N367 C365 1.317 . S
N368 C364 1.328 . S
N368 C366 1.350 . S
H369 C364 0.930 . S
H370 C365 0.930 . S
C371 O372 1.224 . S
C371 O390 1.247 . S
O372 C371 1.224 . S
N373 Co363 2.128 . S
N373 C374 1.355 . S
N373 C376 1.311 . S
C374 N373 1.355 . S
C374 C375 1.363 . S
C374 H386 0.929 . S
C375 C374 1.363 . S
C375 N377 1.375 . S
C375 H393 0.931 1_565 S
C376 N373 1.311 . S
C376 N377 1.347 . S
C376 H387 0.929 . S
N377 C375 1.375 . S
N377 C376 1.347 . S
C378 C381 1.365 . S
C378 N383 1.328 . S
C378 H384 0.929 . S
C379 C380 1.362 . S
C379 C382 1.378 . S
C379 H394 0.929 . S
C380 C379 1.362 . S
C380 C381 1.366 . S
C381 C378 1.365 . S
C381 C380 1.366 . S
C381 H395 0.930 . S
C382 C379 1.378 . S
C382 N383 1.315 . S
C382 H385 0.930 . S
N383 Co363 2.194 . S
N383 C378 1.328 . S
N383 C382 1.315 . S
H384 C378 0.929 . S
H385 C382 0.930 . S
H386 C374 0.929 . S
H387 C376 0.929 . S
O388 Co363 2.351 . S
O388 C391 1.244 . S
O389 Co363 2.155 . S
O389 C391 1.240 . S
O390 Co363 2.096 . S
O390 C371 1.247 . S
C391 O388 1.244 . S
C391 O389 1.240 . S
H392 C366 0.931 . S
H393 C375 0.931 1_545 S
H394 C379 0.929 . S
H395 C381 0.930 . S
Co396 N400 2.148 . S
Co396 N406 2.128 . S
Co396 N416 2.194 . S
Co396 O421 2.351 . S
Co396 O422 2.155 . S
Co396 O423 2.096 . S
C397 N400 1.301 . S
C397 N401 1.328 . S
C397 H402 0.930 . S
C398 C399 1.333 . S
C398 N400 1.317 . S
C398 H403 0.930 . S
C399 C398 1.333 . S
C399 N401 1.350 . S
C399 H425 0.931 . S
N400 Co396 2.148 . S
N400 C397 1.301 . S
N400 C398 1.317 . S
N401 C397 1.328 . S
N401 C399 1.350 . S
H402 C397 0.930 . S
H403 C398 0.930 . S
C404 O405 1.224 . S
C404 O423 1.247 . S
O405 C404 1.224 . S
N406 Co396 2.128 . S
N406 C407 1.355 . S
N406 C409 1.311 . S
C407 N406 1.355 . S
C407 C408 1.363 . S
C407 H419 0.929 . S
C408 C407 1.363 . S
C408 N410 1.375 . S
C408 H426 0.931 . S
C409 N406 1.311 . S
C409 N410 1.347 . S
C409 H420 0.929 . S
N410 C408 1.375 . S
N410 C409 1.347 . S
C411 C414 1.365 . S
C411 N416 1.328 . S
C411 H417 0.929 . S
C412 C413 1.362 . S
C412 C415 1.378 . S
C412 H427 0.929 . S
C413 C412 1.362 . S
C413 C414 1.366 . S
C414 C411 1.365 . S
C414 C413 1.366 . S
C414 H428 0.930 . S
C415 C412 1.378 . S
C415 N416 1.315 . S
C415 H418 0.930 . S
N416 Co396 2.194 . S
N416 C411 1.328 . S
N416 C415 1.315 . S
H417 C411 0.929 . S
H418 C415 0.930 . S
H419 C407 0.929 . S
H420 C409 0.929 . S
O421 Co396 2.351 . S
O421 C424 1.244 . S
O422 Co396 2.155 . S
O422 C424 1.240 . S
O423 Co396 2.096 . S
O423 C404 1.247 . S
C424 O421 1.244 . S
C424 O422 1.240 . S
H425 C399 0.931 . S
H426 C408 0.931 . S
H427 C412 0.929 . S
H428 C414 0.930 . S
Co429 N433 2.148 . S
Co429 N439 2.128 . S
Co429 N449 2.194 . S
Co429 O454 2.351 . S
Co429 O455 2.155 . S
Co429 O456 2.096 . S
C430 N433 1.301 . S
C430 N434 1.328 . S
C430 H435 0.930 . S
C431 C432 1.333 . S
C431 N433 1.317 . S
C431 H436 0.930 . S
C432 C431 1.333 . S
C432 N434 1.350 . S
C432 H458 0.931 . S
N433 Co429 2.148 . S
N433 C430 1.301 . S
N433 C431 1.317 . S
N434 C430 1.328 . S
N434 C432 1.350 . S
H435 C430 0.930 . S
H436 C431 0.930 . S
C437 O438 1.224 . S
C437 O456 1.247 . S
O438 C437 1.224 . S
N439 Co429 2.128 . S
N439 C440 1.355 . S
N439 C442 1.311 . S
C440 N439 1.355 . S
C440 C441 1.363 . S
C440 H452 0.929 . S
C441 C440 1.363 . S
C441 N443 1.375 . S
C441 H459 0.931 . S
C442 N439 1.311 . S
C442 N443 1.347 . S
C442 H453 0.929 . S
N443 C441 1.375 . S
N443 C442 1.347 . S
C444 C447 1.365 . S
C444 N449 1.328 . S
C444 H450 0.929 . S
C445 C446 1.362 . S
C445 C448 1.378 . S
C445 H460 0.929 . S
C446 C445 1.362 . S
C446 C447 1.366 . S
C447 C444 1.365 . S
C447 C446 1.366 . S
C447 H461 0.930 . S
C448 C445 1.378 . S
C448 N449 1.315 . S
C448 H451 0.930 . S
N449 Co429 2.194 . S
N449 C444 1.328 . S
N449 C448 1.315 . S
H450 C444 0.929 . S
H451 C448 0.930 . S
H452 C440 0.929 . S
H453 C442 0.929 . S
O454 Co429 2.351 . S
O454 C457 1.244 . S
O455 Co429 2.155 . S
O455 C457 1.240 . S
O456 Co429 2.096 . S
O456 C437 1.247 . S
C457 O454 1.244 . S
C457 O455 1.240 . S
H458 C432 0.931 . S
H459 C441 0.931 . S
H460 C445 0.929 . S
H461 C447 0.930 . S
Co462 N466 2.148 . S
Co462 N472 2.128 . S
Co462 N482 2.194 . S
Co462 O487 2.351 . S
Co462 O488 2.155 . S
Co462 O489 2.096 . S
C463 N466 1.301 . S
C463 N467 1.328 . S
C463 H468 0.930 . S
C464 C465 1.333 . S
C464 N466 1.317 . S
C464 H469 0.930 . S
C465 C464 1.333 . S
C465 N467 1.350 . S
C465 H491 0.931 . S
N466 Co462 2.148 . S
N466 C463 1.301 . S
N466 C464 1.317 . S
N467 C463 1.328 . S
N467 C465 1.350 . S
H468 C463 0.930 . S
H469 C464 0.930 . S
C470 O471 1.224 . S
C470 O489 1.247 . S
O471 C470 1.224 . S
N472 Co462 2.128 . S
N472 C473 1.355 . S
N472 C475 1.311 . S
C473 N472 1.355 . S
C473 C474 1.363 . S
C473 H485 0.929 . S
C474 C473 1.363 . S
C474 N476 1.375 . S
C474 H492 0.931 . S
C475 N472 1.311 . S
C475 N476 1.347 . S
C475 H486 0.929 . S
N476 C474 1.375 . S
N476 C475 1.347 . S
C477 C480 1.365 . S
C477 N482 1.328 . S
C477 H483 0.929 . S
C478 C479 1.362 . S
C478 C481 1.378 . S
C478 H493 0.929 . S
C479 C478 1.362 . S
C479 C480 1.366 . S
C480 C477 1.365 . S
C480 C479 1.366 . S
C480 H494 0.930 . S
C481 C478 1.378 . S
C481 N482 1.315 . S
C481 H484 0.930 . S
N482 Co462 2.194 . S
N482 C477 1.328 . S
N482 C481 1.315 . S
H483 C477 0.929 . S
H484 C481 0.930 . S
H485 C473 0.929 . S
H486 C475 0.929 . S
O487 Co462 2.351 . S
O487 C490 1.244 . S
O488 Co462 2.155 . S
O488 C490 1.240 . S
O489 Co462 2.096 . S
O489 C470 1.247 . S
C490 O487 1.244 . S
C490 O488 1.240 . S
H491 C465 0.931 . S
H492 C474 0.931 . S
H493 C478 0.929 . S
H494 C480 0.930 . S
Co495 N499 2.148 . S
Co495 N505 2.128 . S
Co495 N515 2.194 . S
Co495 O520 2.351 . S
Co495 O521 2.155 . S
Co495 O522 2.096 . S
C496 N499 1.301 . S
C496 N500 1.328 . S
C496 H501 0.930 . S
C497 C498 1.333 . S
C497 N499 1.317 . S
C497 H502 0.930 . S
C498 C497 1.333 . S
C498 N500 1.350 . S
C498 H524 0.931 . S
N499 Co495 2.148 . S
N499 C496 1.301 . S
N499 C497 1.317 . S
N500 C496 1.328 . S
N500 C498 1.350 . S
H501 C496 0.930 . S
H502 C497 0.930 . S
C503 O504 1.224 . S
C503 O522 1.247 . S
O504 C503 1.224 . S
N505 Co495 2.128 . S
N505 C506 1.355 . S
N505 C508 1.311 . S
C506 N505 1.355 . S
C506 C507 1.363 . S
C506 H518 0.929 . S
C507 C506 1.363 . S
C507 N509 1.375 . S
C507 H525 0.931 . S
C508 N505 1.311 . S
C508 N509 1.347 . S
C508 H519 0.929 . S
N509 C507 1.375 . S
N509 C508 1.347 . S
C510 C513 1.365 . S
C510 N515 1.328 . S
C510 H516 0.929 . S
C511 C512 1.362 . S
C511 C514 1.378 . S
C511 H526 0.929 . S
C512 C511 1.362 . S
C512 C513 1.366 . S
C513 C510 1.365 . S
C513 C512 1.366 . S
C513 H527 0.930 . S
C514 C511 1.378 . S
C514 N515 1.315 . S
C514 H517 0.930 . S
N515 Co495 2.194 . S
N515 C510 1.328 . S
N515 C514 1.315 . S
H516 C510 0.929 . S
H517 C514 0.930 . S
H518 C506 0.929 . S
H519 C508 0.929 . S
O520 Co495 2.351 . S
O520 C523 1.244 . S
O521 Co495 2.155 . S
O521 C523 1.240 . S
O522 Co495 2.096 . S
O522 C503 1.247 . S
C523 O520 1.244 . S
C523 O521 1.240 . S
H524 C498 0.931 . S
H525 C507 0.931 . S
H526 C511 0.929 . S
H527 C513 0.930 . S
N14 N476 1.959 . S
N71 N5 2.134 1_665 S
N47 N377 1.959 1_545 S
N236 N38 2.134 1_655 S
N80 N410 1.959 . S
N113 N311 1.959 1_565 S
N104 N170 2.134 1_655 S
N344 N146 1.959 1_554 S
N203 N137 2.134 1_654 S
N179 N509 1.959 . S
N278 N212 1.959 1_556 S
N443 N245 1.959 . S
N269 N335 2.134 1_546 S
N500 N302 2.134 . S
N368 N434 2.134 . S
N401 N467 2.134 . S
C8 C314 1.359 . S
C305 C17 1.359 . S
C41 C281 1.359 . S
C50 C272 1.359 . S
C380 C74 1.359 . S
C371 C83 1.359 . S
C107 C347 1.359 . S
C116 C338 1.359 . S
C140 C446 1.359 . S
C437 C149 1.359 . S
C173 C413 1.359 . S
C404 C182 1.359 . S
C512 C206 1.359 . S
C215 C503 1.359 . S
C239 C479 1.359 . S
C248 C470 1.359 . S
C61 C28 1.106 . S
C94 C127 1.106 . S
C160 C193 1.106 . S
C226 C259 1.106 . S
C325 C292 1.106 . S
C391 C358 1.106 . S
C424 C457 1.106 . S
C523 C490 1.106 . S
