# Generated by pormake.
# Topology umy, (4)-cn, num edge types: 1
# Building blocks:
#     Node 0, Type 0, BuildingBlock: UXUYUI_clean_sbu_0, # of connection points: 4
#     Node 1, Type 0, BuildingBlock: UXUYUI_clean_sbu_0, # of connection points: 4
#     Node 2, Type 0, BuildingBlock: UXUYUI_clean_sbu_0, # of connection points: 4
#     Node 3, Type 0, BuildingBlock: UXUYUI_clean_sbu_0, # of connection points: 4
#     Node 4, Type 0, BuildingBlock: UXUYUI_clean_sbu_0, # of connection points: 4
#     Node 5, Type 0, BuildingBlock: UXUYUI_clean_sbu_0, # of connection points: 4
#     Node 6, Type 0, BuildingBlock: UXUYUI_clean_sbu_0, # of connection points: 4
#     Node 7, Type 0, BuildingBlock: UXUYUI_clean_sbu_0, # of connection points: 4
#     Node 8, Type 0, BuildingBlock: UXUYUI_clean_sbu_0, # of connection points: 4
#     Node 9, Type 0, BuildingBlock: UXUYUI_clean_sbu_0, # of connection points: 4
#     Node 10, Type 0, BuildingBlock: UXUYUI_clean_sbu_0, # of connection points: 4
#     Node 11, Type 0, BuildingBlock: UXUYUI_clean_sbu_0, # of connection points: 4
#     Edge 12, Type (0, 0), BuildingBlock: XUDNAN_clean_linker_2, # of connection points: 2
#     Edge 13, Type (0, 0), BuildingBlock: XUDNAN_clean_linker_2, # of connection points: 2
#     Edge 14, Type (0, 0), BuildingBlock: XUDNAN_clean_linker_2, # of connection points: 2
#     Edge 15, Type (0, 0), BuildingBlock: XUDNAN_clean_linker_2, # of connection points: 2
#     Edge 16, Type (0, 0), BuildingBlock: XUDNAN_clean_linker_2, # of connection points: 2
#     Edge 17, Type (0, 0), BuildingBlock: XUDNAN_clean_linker_2, # of connection points: 2
#     Edge 18, Type (0, 0), BuildingBlock: XUDNAN_clean_linker_2, # of connection points: 2
#     Edge 19, Type (0, 0), BuildingBlock: XUDNAN_clean_linker_2, # of connection points: 2
#     Edge 20, Type (0, 0), BuildingBlock: XUDNAN_clean_linker_2, # of connection points: 2
#     Edge 21, Type (0, 0), BuildingBlock: XUDNAN_clean_linker_2, # of connection points: 2
#     Edge 22, Type (0, 0), BuildingBlock: XUDNAN_clean_linker_2, # of connection points: 2
#     Edge 23, Type (0, 0), BuildingBlock: XUDNAN_clean_linker_2, # of connection points: 2
#     Edge 24, Type (0, 0), BuildingBlock: XUDNAN_clean_linker_2, # of connection points: 2
#     Edge 25, Type (0, 0), BuildingBlock: XUDNAN_clean_linker_2, # of connection points: 2
#     Edge 26, Type (0, 0), BuildingBlock: XUDNAN_clean_linker_2, # of connection points: 2
#     Edge 27, Type (0, 0), BuildingBlock: XUDNAN_clean_linker_2, # of connection points: 2
#     Edge 28, Type (0, 0), BuildingBlock: XUDNAN_clean_linker_2, # of connection points: 2
#     Edge 29, Type (0, 0), BuildingBlock: XUDNAN_clean_linker_2, # of connection points: 2
#     Edge 30, Type (0, 0), BuildingBlock: XUDNAN_clean_linker_2, # of connection points: 2
#     Edge 31, Type (0, 0), BuildingBlock: XUDNAN_clean_linker_2, # of connection points: 2
#     Edge 32, Type (0, 0), BuildingBlock: XUDNAN_clean_linker_2, # of connection points: 2
#     Edge 33, Type (0, 0), BuildingBlock: XUDNAN_clean_linker_2, # of connection points: 2
#     Edge 34, Type (0, 0), BuildingBlock: XUDNAN_clean_linker_2, # of connection points: 2
#     Edge 35, Type (0, 0), BuildingBlock: XUDNAN_clean_linker_2, # of connection points: 2
# Relax obj value: 0.205
# Max RMSD: 0.156
# Mean RMSD: 0.156
data_MOF--net-umy--node1-UXUYUI_clean_sbu_0--edge1-XUDNAN_clean_linker_2
_symmetry_space_group_name_H-M    P1
_symmetry_Int_Tables_number       1
_symmetry_cell_setting            triclinic
loop_
_symmetry_equiv_pos_as_xyz
'x, y, z'
_cell_length_a     58.507985
_cell_length_b     58.564081
_cell_length_c     66.150612
_cell_angle_alpha  90.015847
_cell_angle_beta   89.976244
_cell_angle_gamma 119.98472
loop_
_atom_site_label
_atom_site_type_symbol
_atom_site_fract_x
_atom_site_fract_y
_atom_site_fract_z
_atom_type_partial_charge
Li0 Li 0.08833 0.34346 0.09262 0.0
Li1 Li 0.09729 0.36182 0.12518 0.0
Li2 Li 0.05119 0.3291 0.11578 0.0
Li3 Li 0.07611 0.37666 0.10099 0.0
C4 C 0.09131 0.3076 0.1161 0.0
N5 N 0.11069 0.27371 0.11016 0.0
C6 C 0.11848 0.31717 0.11655 0.0
C7 C 0.07395 0.28074 0.11293 0.0
C8 C 0.1279 0.29974 0.11342 0.0
C9 C 0.08415 0.26393 0.10989 0.0
C10 C 0.13589 0.40216 0.10332 0.0
C11 C 0.16403 0.44874 0.10939 0.0
N12 N 0.18511 0.44504 0.11119 0.0
C13 C 0.15788 0.39887 0.10511 0.0
C14 C 0.139 0.42733 0.10538 0.0
C15 C 0.18257 0.42077 0.10916 0.0
C16 C 0.12688 0.34823 0.06441 0.0
N17 N 0.10254 0.33106 0.07183 0.0
C18 C 0.10227 0.29545 0.05392 0.0
C19 C 0.08982 0.30523 0.06633 0.0
C20 C 0.12814 0.3124 0.0471 0.0
C21 C 0.14014 0.33929 0.05201 0.0
H22 H 0.1365 0.36873 0.06874 0.0
H23 H 0.07041 0.29192 0.07227 0.0
C24 C 0.11403 0.35029 0.1611 0.0
N25 N 0.11951 0.37093 0.14871 0.0
C26 C 0.1274 0.35434 0.17937 0.0
C27 C 0.15205 0.40091 0.17192 0.0
C28 C 0.13799 0.39597 0.15386 0.0
C29 C 0.14675 0.37995 0.18503 0.0
H30 H 0.09868 0.33066 0.15705 0.0
H31 H 0.1414 0.41229 0.14434 0.0
C32 C 0.0467 0.32843 0.06922 0.0
N33 N 0.03418 0.302 0.03272 0.0
C34 C 0.05907 0.34185 0.05146 0.0
C35 C 0.02782 0.30163 0.06842 0.0
C36 C 0.05253 0.32811 0.03316 0.0
C37 C 0.02178 0.28861 0.04982 0.0
C38 C 0.06914 0.37447 0.14837 0.0
C39 C 0.05834 0.35763 0.16495 0.0
C40 C 0.08527 0.40156 0.15152 0.0
C41 C 0.064 0.36817 0.18446 0.0
C42 C 0.09043 0.41134 0.17126 0.0
N43 N 0.0798 0.39458 0.18719 0.0
C44 C 0.02206 0.28761 0.14181 0.0
C45 C 0.99488 0.29785 0.12165 0.0
C46 C 1.00032 0.26948 0.15296 0.0
N47 N 0.01909 0.30171 0.12679 0.0
C48 C 0.97243 0.27966 0.1324 0.0
C49 C 0.9752 0.26578 0.14866 0.0
H50 H 0.04158 0.29131 0.14571 0.0
H51 H 0.99315 0.30956 0.10975 0.0
C52 C 0.08071 0.41584 0.07346 0.0
N53 N 0.0719 0.40525 0.09209 0.0
C54 C 0.07894 0.43768 0.06715 0.0
C55 C 0.0594 0.43749 0.09941 0.0
C56 C 0.06106 0.41536 0.10493 0.0
C57 C 0.06843 0.4489 0.08032 0.0
H58 H 0.0895 0.40757 0.06365 0.0
H59 H 0.05391 0.40638 0.11956 0.0
O60 O 0.08174 0.32445 0.11874 0.0
O61 O 0.11162 0.38101 0.09905 0.0
O62 O 0.05307 0.3414 0.08732 0.0
O63 O 0.06451 0.36441 0.12918 0.0
H64 H 0.13212 0.33784 0.11923 0.0
H65 H 0.05285 0.27303 0.11251 0.0
H66 H 0.1489 0.30691 0.11358 0.0
H67 H 0.07097 0.24313 0.10725 0.0
H68 H 0.16668 0.46829 0.1111 0.0
H69 H 0.15594 0.37962 0.1034 0.0
H70 H 0.12229 0.43034 0.10408 0.0
H71 H 0.19973 0.41847 0.11065 0.0
H72 H 0.09201 0.27467 0.05019 0.0
H73 H 0.16007 0.3531 0.04721 0.0
H74 H 0.12209 0.33762 0.18917 0.0
H75 H 0.16683 0.42099 0.17558 0.0
H76 H 0.07382 0.36255 0.05186 0.0
H77 H 0.01814 0.29096 0.08206 0.0
H78 H 0.06207 0.33819 0.01931 0.0
H79 H 0.00731 0.26784 0.04897 0.0
H80 H 0.04592 0.33662 0.16281 0.0
H81 H 0.09416 0.41484 0.13887 0.0
H82 H 0.05588 0.35534 0.19744 0.0
H83 H 0.10304 0.43223 0.17392 0.0
H84 H 0.00325 0.259 0.16527 0.0
H85 H 0.95339 0.27746 0.12873 0.0
H86 H 0.0862 0.44606 0.05234 0.0
H87 H 0.05089 0.44545 0.10985 0.0
Li88 Li 0.74349 0.08269 0.26158 0.0
Li89 Li 0.73503 0.09109 0.29756 0.0
Li90 Li 0.71673 0.04745 0.28496 0.0
Li91 Li 0.69702 0.07196 0.27363 0.0
C92 C 0.76385 0.05961 0.29685 0.0
N93 N 0.78109 0.02903 0.31604 0.0
C94 C 0.76137 0.05618 0.31781 0.0
C95 C 0.77504 0.0474 0.28565 0.0
C96 C 0.7702 0.04066 0.32723 0.0
C97 C 0.78368 0.03207 0.29564 0.0
C98 C 0.73949 0.13271 0.26879 0.0
C99 C 0.73188 0.16954 0.26661 0.0
N100 N 0.7577 0.18562 0.26175 0.0
C101 C 0.76591 0.14962 0.26365 0.0
C102 C 0.72229 0.14275 0.27016 0.0
C103 C 0.77475 0.17629 0.26021 0.0
C104 C 0.76848 0.11165 0.22507 0.0
N105 N 0.77073 0.09919 0.24169 0.0
C106 C 0.8174 0.12013 0.2373 0.0
C107 C 0.79449 0.10266 0.24758 0.0
C108 C 0.8161 0.13484 0.22105 0.0
C109 C 0.79115 0.12969 0.21438 0.0
H110 H 0.74945 0.10919 0.22107 0.0
H111 H 0.79603 0.09348 0.26122 0.0
C112 C 0.74556 0.10717 0.33901 0.0
N113 N 0.7532 0.11438 0.31952 0.0
C114 C 0.76137 0.12273 0.35493 0.0
C115 C 0.79208 0.15322 0.33043 0.0
C116 C 0.7759 0.13693 0.31505 0.0
C117 C 0.78528 0.14588 0.35073 0.0
H118 H 0.72786 0.0887 0.34223 0.0
H119 H 0.78207 0.14174 0.29955 0.0
C120 C 0.69895 0.02669 0.24865 0.0
N121 N 0.68022 0.9764 0.23373 0.0
C122 C 0.67355 0.00663 0.25363 0.0
C123 C 0.71474 0.02131 0.23592 0.0
C124 C 0.66448 0.98128 0.246 0.0
C125 C 0.70491 0.99572 0.22855 0.0
C126 C 0.68551 0.07044 0.31424 0.0
C127 C 0.66499 0.05305 0.32692 0.0
C128 C 0.69228 0.09694 0.31368 0.0
C129 C 0.65169 0.06248 0.33875 0.0
C130 C 0.67856 0.10564 0.32576 0.0
N131 N 0.6587 0.08837 0.33794 0.0
C132 C 0.69174 0.00369 0.3102 0.0
C133 C 0.71563 0.99668 0.28442 0.0
C134 C 0.68307 0.9786 0.31801 0.0
N135 N 0.70743 0.01221 0.29356 0.0
C136 C 0.70777 0.97146 0.29197 0.0
C137 C 0.69099 0.96212 0.30883 0.0
H138 H 0.68595 0.01643 0.31751 0.0
H139 H 0.72827 0.00379 0.27129 0.0
C140 C 0.66052 0.08418 0.25272 0.0
N141 N 0.66398 0.06893 0.26649 0.0
C142 C 0.63517 0.08015 0.2489 0.0
C143 C 0.61779 0.045 0.27352 0.0
C144 C 0.64318 0.04933 0.2765 0.0
C145 C 0.61329 0.0603 0.25944 0.0
H146 H 0.67735 0.09934 0.24463 0.0
H147 H 0.64631 0.03696 0.28692 0.0
O148 O 0.75485 0.07437 0.28737 0.0
O149 O 0.73026 0.10634 0.27176 0.0
O150 O 0.70824 0.05159 0.25598 0.0
O151 O 0.69839 0.06129 0.30223 0.0
H152 H 0.75241 0.0651 0.32668 0.0
H153 H 0.77647 0.04916 0.26936 0.0
H154 H 0.76831 0.03777 0.34342 0.0
H155 H 0.79222 0.02238 0.28714 0.0
H156 H 0.71879 0.17754 0.26769 0.0
H157 H 0.77959 0.14236 0.26254 0.0
H158 H 0.70172 0.13001 0.27394 0.0
H159 H 0.79518 0.18957 0.25631 0.0
H160 H 0.83619 0.12326 0.24282 0.0
H161 H 0.78933 0.1408 0.20202 0.0
H162 H 0.7555 0.116 0.37031 0.0
H163 H 0.81012 0.17103 0.32641 0.0
H164 H 0.6611 0.01054 0.26344 0.0
H165 H 0.73443 0.03671 0.23189 0.0
H166 H 0.64494 0.96549 0.24984 0.0
H167 H 0.71694 0.99121 0.21876 0.0
H168 H 0.65904 0.03237 0.32747 0.0
H169 H 0.70819 0.1108 0.30429 0.0
H170 H 0.63573 0.04918 0.34854 0.0
H171 H 0.68375 0.12614 0.32548 0.0
H172 H 0.67043 0.9722 0.33122 0.0
H173 H 0.71426 0.95922 0.28452 0.0
H174 H 0.63276 0.09222 0.23767 0.0
H175 H 0.60193 0.02985 0.28242 0.0
Li176 Li 0.65393 0.74213 0.43104 0.0
Li177 Li 0.64176 0.73084 0.46617 0.0
Li178 Li 0.67372 0.721 0.4492 0.0
Li179 Li 0.62739 0.69536 0.44071 0.0
C180 C 0.69132 0.78169 0.45058 0.0
N181 N 0.71951 0.83429 0.43992 0.0
C182 C 0.68177 0.79858 0.45558 0.0
C183 C 0.71537 0.7916 0.4404 0.0
C184 C 0.69627 0.8251 0.44999 0.0
C185 C 0.72929 0.81824 0.43508 0.0
C186 C 0.59211 0.71258 0.44918 0.0
C187 C 0.55693 0.68469 0.47199 0.0
N188 N 0.54008 0.6898 0.46137 0.0
C189 C 0.57445 0.71753 0.43849 0.0
C190 C 0.58331 0.69602 0.46607 0.0
C191 C 0.54822 0.70584 0.4449 0.0
C192 C 0.674 0.77563 0.39551 0.0
N193 N 0.65747 0.76795 0.41172 0.0
C194 C 0.64225 0.7975 0.40248 0.0
C195 C 0.64189 0.77857 0.41542 0.0
C196 C 0.65876 0.80563 0.38542 0.0
C197 C 0.67504 0.79466 0.38211 0.0
H198 H 0.68623 0.76692 0.3929 0.0
H199 H 0.62921 0.77237 0.42857 0.0
C200 C 0.64295 0.73634 0.50796 0.0
N201 N 0.63389 0.74181 0.4908 0.0
C202 C 0.63823 0.74405 0.5267 0.0
C203 C 0.61552 0.76355 0.50971 0.0
C204 C 0.62045 0.75519 0.49126 0.0
C205 C 0.62438 0.75787 0.52773 0.0
H206 H 0.65415 0.72626 0.50702 0.0
H207 H 0.61372 0.75948 0.4773 0.0
C208 C 0.67372 0.7062 0.41049 0.0
N209 N 0.7065 0.69443 0.38826 0.0
C210 C 0.6645 0.68057 0.40341 0.0
C211 C 0.69947 0.72591 0.40603 0.0
C212 C 0.68141 0.67499 0.39226 0.0
C213 C 0.71578 0.71955 0.39484 0.0
C214 C 0.64374 0.67556 0.47354 0.0
C215 C 0.64722 0.65986 0.45939 0.0
C216 C 0.63965 0.66798 0.49385 0.0
C217 C 0.64696 0.63701 0.46581 0.0
C218 C 0.63947 0.64496 0.49969 0.0
N219 N 0.64313 0.6301 0.48567 0.0
C220 C 0.72136 0.73935 0.46879 0.0
C221 C 0.71122 0.70171 0.44904 0.0
C222 C 0.74409 0.74024 0.47618 0.0
N223 N 0.70543 0.72034 0.45548 0.0
C224 C 0.73379 0.70176 0.45617 0.0
C225 C 0.75052 0.7212 0.46999 0.0
H226 H 0.71607 0.75355 0.47409 0.0
H227 H 0.69816 0.6865 0.43869 0.0
C228 C 0.59133 0.659 0.41303 0.0
N229 N 0.59846 0.66212 0.43281 0.0
C230 C 0.56976 0.63548 0.40631 0.0
C231 C 0.56314 0.61885 0.44051 0.0
C232 C 0.58474 0.64276 0.44658 0.0
C233 C 0.55536 0.61492 0.42011 0.0
H234 H 0.60234 0.67493 0.40249 0.0
H235 H 0.59042 0.64589 0.46232 0.0
O236 O 0.67702 0.75551 0.45537 0.0
O237 O 0.61779 0.72381 0.44295 0.0
O238 O 0.6574 0.71202 0.4214 0.0
O239 O 0.64357 0.69784 0.46752 0.0
H240 H 0.66317 0.79119 0.46343 0.0
H241 H 0.72319 0.77886 0.43664 0.0
H242 H 0.689 0.83835 0.45359 0.0
H243 H 0.74786 0.82616 0.42711 0.0
H244 H 0.54986 0.67183 0.48502 0.0
H245 H 0.58094 0.73025 0.42535 0.0
H246 H 0.59663 0.69189 0.47454 0.0
H247 H 0.53434 0.7095 0.43676 0.0
H248 H 0.6298 0.80582 0.40589 0.0
H249 H 0.68798 0.8003 0.3691 0.0
H250 H 0.64583 0.73975 0.54022 0.0
H251 H 0.60476 0.77416 0.50992 0.0
H252 H 0.64451 0.66511 0.40651 0.0
H253 H 0.70687 0.74584 0.41131 0.0
H254 H 0.67458 0.65521 0.38677 0.0
H255 H 0.73582 0.73459 0.3914 0.0
H256 H 0.64987 0.66516 0.44361 0.0
H257 H 0.63645 0.67962 0.50499 0.0
H258 H 0.6497 0.62473 0.45499 0.0
H259 H 0.63633 0.63888 0.51536 0.0
H260 H 0.75607 0.75525 0.48713 0.0
H261 H 0.73805 0.68675 0.45098 0.0
H262 H 0.56422 0.63362 0.39053 0.0
H263 H 0.55284 0.60355 0.45168 0.0
Li264 Li 0.95603 0.67351 0.61494 0.0
Li265 Li 0.92913 0.62886 0.60415 0.0
Li266 Li 0.91664 0.6635 0.59523 0.0
Li267 Li 0.91347 0.64581 0.63042 0.0
C268 C 0.9698 0.67581 0.57539 0.0
N269 N 0.01464 0.70668 0.55287 0.0
C270 C 0.99218 0.67333 0.57785 0.0
C271 C 0.97013 0.69386 0.5614 0.0
C272 C 0.01469 0.68917 0.56635 0.0
C273 C 0.99302 0.70931 0.55017 0.0
C274 C 0.95397 0.62473 0.63534 0.0
C275 C 0.94628 0.58168 0.64485 0.0
N276 N 0.97245 0.5903 0.64252 0.0
C277 C 0.98079 0.63315 0.63303 0.0
C278 C 0.93656 0.59879 0.64133 0.0
C279 C 0.98974 0.61546 0.63676 0.0
C280 C 0.99865 0.70079 0.64121 0.0
N281 N 0.99082 0.7017 0.62202 0.0
C282 C 0.02933 0.74388 0.61685 0.0
C283 C 0.00557 0.72281 0.60987 0.0
C284 C 0.03781 0.74355 0.63669 0.0
C285 C 0.02212 0.72149 0.64886 0.0
H286 H 0.98615 0.6843 0.65086 0.0
H287 H 0.99853 0.72387 0.59504 0.0
C288 C 0.90344 0.57594 0.59142 0.0
N289 N 0.92771 0.5974 0.59423 0.0
C290 C 0.9009 0.55189 0.58555 0.0
C291 C 0.94843 0.57246 0.58519 0.0
C292 C 0.95005 0.59622 0.59086 0.0
C293 C 0.92358 0.54987 0.58256 0.0
H294 H 0.88598 0.57739 0.59393 0.0
H295 H 0.96914 0.61356 0.59294 0.0
C296 C 0.94208 0.70639 0.63035 0.0
N297 N 0.97275 0.75448 0.64906 0.0
C298 C 0.94533 0.7077 0.65133 0.0
C299 C 0.95432 0.72953 0.61889 0.0
C300 C 0.96093 0.73221 0.66051 0.0
C301 C 0.96978 0.75365 0.62864 0.0
C302 C 0.86873 0.61341 0.61268 0.0
C303 C 0.85129 0.62247 0.60813 0.0
C304 C 0.86037 0.59127 0.62503 0.0
C305 C 0.82579 0.6093 0.61616 0.0
C306 C 0.83473 0.57869 0.6328 0.0
N307 N 0.81812 0.5879 0.62825 0.0
C308 C 0.89047 0.66157 0.55855 0.0
C309 C 0.89781 0.69631 0.58083 0.0
C310 C 0.87755 0.66947 0.54482 0.0
N311 N 0.9003 0.67507 0.57611 0.0
C312 C 0.88538 0.70506 0.56747 0.0
C313 C 0.87503 0.69159 0.54919 0.0
H314 H 0.8925 0.64457 0.5553 0.0
H315 H 0.90517 0.70625 0.59511 0.0
C316 C 0.89838 0.62536 0.66999 0.0
N317 N 0.89374 0.63813 0.65481 0.0
C318 C 0.88385 0.61926 0.68788 0.0
C319 C 0.86046 0.64015 0.67437 0.0
C320 C 0.87546 0.64585 0.65673 0.0
C321 C 0.86451 0.62659 0.69021 0.0
H322 H 0.91349 0.62007 0.66829 0.0
H323 H 0.87246 0.65632 0.64449 0.0
O324 O 0.94749 0.66038 0.58635 0.0
O325 O 0.94476 0.6417 0.63158 0.0
O326 O 0.92757 0.6825 0.62105 0.0
O327 O 0.89396 0.62637 0.6053 0.0
H328 H 0.99232 0.65964 0.58873 0.0
H329 H 0.95293 0.69596 0.55929 0.0
H330 H 0.03222 0.6876 0.56819 0.0
H331 H 0.9936 0.72341 0.53932 0.0
H332 H 0.933 0.56151 0.64935 0.0
H333 H 0.99452 0.653 0.62813 0.0
H334 H 0.9157 0.59179 0.64293 0.0
H335 H 0.01042 0.62169 0.63495 0.0
H336 H 0.04073 0.76038 0.60686 0.0
H337 H 0.02738 0.72057 0.6644 0.0
H338 H 0.88135 0.53492 0.58378 0.0
H339 H 0.9664 0.57179 0.58279 0.0
H340 H 0.93618 0.68996 0.66041 0.0
H341 H 0.95238 0.72881 0.6026 0.0
H342 H 0.96374 0.73352 0.67671 0.0
H343 H 0.97956 0.77169 0.61994 0.0
H344 H 0.85742 0.6396 0.59865 0.0
H345 H 0.87364 0.58409 0.62881 0.0
H346 H 0.81212 0.61616 0.61284 0.0
H347 H 0.82808 0.56167 0.64251 0.0
H348 H 0.86986 0.65859 0.53088 0.0
H349 H 0.88343 0.72192 0.57157 0.0
H350 H 0.88803 0.6093 0.69987 0.0
H351 H 0.84566 0.64605 0.67549 0.0
Li352 Li 0.30459 0.92975 0.77584 0.0
Li353 Li 0.28392 0.95706 0.78097 0.0
Li354 Li 0.26687 0.91405 0.7995 0.0
Li355 Li 0.25898 0.91566 0.76335 0.0
C356 C 0.32096 0.95279 0.81565 0.0
N357 N 0.35906 0.96553 0.84506 0.0
C358 C 0.34062 0.97902 0.81861 0.0
C359 C 0.32047 0.93311 0.82793 0.0
C360 C 0.35976 0.98505 0.83347 0.0
C361 C 0.33995 0.93992 0.84263 0.0
C362 C 0.30639 0.97046 0.74535 0.0
C363 C 0.30624 0.0062 0.72738 0.0
N364 N 0.33308 0.01937 0.72711 0.0
C365 C 0.33396 0.98428 0.74483 0.0
C366 C 0.29238 0.9814 0.73648 0.0
C367 C 0.34709 0.00901 0.73555 0.0
C368 C 0.33374 0.91054 0.75618 0.0
N369 N 0.33608 0.92865 0.77009 0.0
C370 C 0.38091 0.9405 0.77655 0.0
C371 C 0.35924 0.94395 0.77993 0.0
C372 C 0.37883 0.9213 0.76273 0.0
C373 C 0.35494 0.90657 0.7522 0.0
H374 H 0.31514 0.89876 0.74846 0.0
H375 H 0.36089 0.95854 0.79066 0.0
C376 C 0.26859 0.99422 0.79017 0.0
N377 N 0.28987 0.99207 0.78483 0.0
C378 C 0.27162 0.0186 0.79559 0.0
C379 C 0.31852 0.03838 0.78985 0.0
C380 C 0.31451 0.01358 0.7843 0.0
C381 C 0.2969 0.04102 0.79583 0.0
H382 H 0.2493 0.97683 0.79096 0.0
H383 H 0.33118 0.0114 0.78016 0.0
C384 C 0.27161 0.87177 0.78367 0.0
N385 N 0.27103 0.82648 0.79632 0.0
C386 C 0.25045 0.84698 0.77865 0.0
C387 C 0.29268 0.87347 0.79484 0.0
C388 C 0.25045 0.82433 0.78528 0.0
C389 C 0.29198 0.85038 0.80116 0.0
C390 C 0.22145 0.92074 0.78118 0.0
C391 C 0.20093 0.89952 0.79142 0.0
C392 C 0.21561 0.93304 0.76553 0.0
C393 C 0.17487 0.89072 0.78564 0.0
C394 C 0.18929 0.92363 0.76017 0.0
N395 N 0.16964 0.90283 0.77025 0.0
C396 C 0.25756 0.9144 0.84039 0.0
C397 C 0.2349 0.87133 0.82653 0.0
C398 C 0.24586 0.90494 0.85916 0.0
N399 N 0.25191 0.89764 0.82457 0.0
C400 C 0.22252 0.86099 0.84507 0.0
C401 C 0.22767 0.87797 0.86162 0.0
H402 H 0.27082 0.9353 0.83828 0.0
H403 H 0.23014 0.85852 0.81358 0.0
C404 C 0.23611 0.90688 0.72382 0.0
N405 N 0.23333 0.89698 0.74282 0.0
C406 C 0.2164 0.89344 0.70935 0.0
C407 C 0.19158 0.85979 0.73424 0.0
C408 C 0.21171 0.87385 0.74817 0.0
C409 C 0.19368 0.86957 0.71452 0.0
H410 H 0.25351 0.92532 0.71995 0.0
H411 H 0.20982 0.86663 0.76345 0.0
O412 O 0.30201 0.9466 0.80117 0.0
O413 O 0.29319 0.94637 0.75455 0.0
O414 O 0.2719 0.89415 0.77723 0.0
O415 O 0.24712 0.9293 0.78633 0.0
H416 H 0.34125 0.99457 0.80944 0.0
H417 H 0.30503 0.91283 0.82636 0.0
H418 H 0.37518 0.00525 0.8358 0.0
H419 H 0.33979 0.92486 0.85219 0.0
H420 H 0.29566 0.01497 0.72054 0.0
H421 H 0.3451 0.97609 0.75163 0.0
H422 H 0.27104 0.97094 0.73673 0.0
H423 H 0.36843 0.01999 0.7351 0.0
H424 H 0.3988 0.95224 0.78514 0.0
H425 H 0.35252 0.89196 0.74108 0.0
H426 H 0.25448 0.01966 0.80041 0.0
H427 H 0.33832 0.05523 0.78975 0.0
H428 H 0.23414 0.84517 0.76976 0.0
H429 H 0.30956 0.89236 0.79841 0.0
H430 H 0.2341 0.80503 0.7816 0.0
H431 H 0.30816 0.85146 0.80985 0.0
H432 H 0.20508 0.88982 0.80359 0.0
H433 H 0.23125 0.9495 0.75746 0.0
H434 H 0.1588 0.87423 0.79336 0.0
H435 H 0.1845 0.93282 0.74798 0.0
H436 H 0.25076 0.91871 0.87154 0.0
H437 H 0.20833 0.84014 0.84618 0.0
H438 H 0.21896 0.90158 0.69428 0.0
H439 H 0.17425 0.84178 0.73904 0.0
Li440 Li 0.3761 0.30393 0.93984 0.0
Li441 Li 0.32954 0.2777 0.9495 0.0
Li442 Li 0.36245 0.26775 0.96473 0.0
Li443 Li 0.34776 0.25619 0.92947 0.0
C444 C 0.37657 0.31963 0.98045 0.0
N445 N 0.40956 0.35773 0.00769 0.0
C446 C 0.36905 0.33658 0.98925 0.0
C447 C 0.40072 0.32185 0.98575 0.0
C448 C 0.38604 0.35578 0.00292 0.0
C449 C 0.41715 0.34127 0.99948 0.0
C450 C 0.32815 0.29592 0.91462 0.0
C451 C 0.28635 0.28681 0.90068 0.0
N452 N 0.29419 0.3129 0.90185 0.0
C453 C 0.33584 0.32265 0.91562 0.0
C454 C 0.30326 0.27783 0.90703 0.0
C455 C 0.31837 0.33084 0.9091 0.0
C456 C 0.41892 0.33687 0.91538 0.0
N457 N 0.40438 0.33729 0.93126 0.0
C458 C 0.43211 0.38399 0.93449 0.0
C459 C 0.41028 0.36026 0.94065 0.0
C460 C 0.44773 0.38408 0.91833 0.0
C461 C 0.44077 0.36012 0.90864 0.0
H462 H 0.41373 0.31831 0.90817 0.0
H463 H 0.39811 0.36027 0.9529 0.0
C464 C 0.2754 0.25609 0.95828 0.0
N465 N 0.29848 0.27918 0.9563 0.0
C466 C 0.25321 0.25575 0.96636 0.0
C467 C 0.2786 0.30312 0.96968 0.0
C468 C 0.30026 0.30256 0.96125 0.0
C469 C 0.25484 0.27936 0.97291 0.0
H470 H 0.27443 0.23777 0.95437 0.0
H471 H 0.31881 0.32068 0.95941 0.0
C472 C 0.40771 0.27468 0.9422 0.0
N473 N 0.45473 0.27447 0.94575 0.0
C474 C 0.40871 0.2518 0.938 0.0
C475 C 0.43085 0.29762 0.94782 0.0
C476 C 0.43259 0.25203 0.94 0.0
C477 C 0.45435 0.29708 0.94964 0.0
C478 C 0.31183 0.21637 0.95195 0.0
C479 C 0.31669 0.19943 0.96372 0.0
C480 C 0.29201 0.20588 0.93725 0.0
C481 C 0.30178 0.17226 0.96046 0.0
C482 C 0.27756 0.1786 0.93444 0.0
N483 N 0.28271 0.1625 0.946 0.0
C484 C 0.36217 0.26318 0.00637 0.0
C485 C 0.38462 0.24377 0.99045 0.0
C486 C 0.36727 0.25652 0.02538 0.0
N487 N 0.37116 0.25712 0.98942 0.0
C488 C 0.38987 0.23637 0.00921 0.0
C489 C 0.38132 0.24298 0.02697 0.0
H490 H 0.35092 0.27318 0.00511 0.0
H491 H 0.39096 0.23853 0.97678 0.0
C492 C 0.33552 0.23591 0.88946 0.0
N493 N 0.3413 0.23117 0.90836 0.0
C494 C 0.32998 0.21765 0.87394 0.0
C495 C 0.33672 0.1901 0.89754 0.0
C496 C 0.3422 0.2089 0.91255 0.0
C497 C 0.3304 0.19426 0.8779 0.0
H498 H 0.33509 0.25385 0.88646 0.0
H499 H 0.34663 0.20541 0.92769 0.0
O500 O 0.36015 0.30075 0.96698 0.0
O501 O 0.34469 0.28745 0.92143 0.0
O502 O 0.38449 0.27486 0.94003 0.0
O503 O 0.32637 0.24304 0.95485 0.0
H504 H 0.35033 0.33501 0.98558 0.0
H505 H 0.4065 0.30844 0.97962 0.0
H506 H 0.38051 0.36911 0.00975 0.0
H507 H 0.43589 0.34316 0.00369 0.0
H508 H 0.26698 0.27302 0.89487 0.0
H509 H 0.355 0.33686 0.92156 0.0
H510 H 0.297 0.25707 0.90622 0.0
H511 H 0.324 0.35145 0.90987 0.0
H512 H 0.43654 0.4021 0.94214 0.0
H513 H 0.4524 0.35928 0.89622 0.0
H514 H 0.23519 0.237 0.96805 0.0
H515 H 0.28092 0.32182 0.97454 0.0
H516 H 0.39121 0.23394 0.93344 0.0
H517 H 0.43082 0.31578 0.95062 0.0
H518 H 0.43352 0.23436 0.93696 0.0
H519 H 0.47233 0.31468 0.95405 0.0
H520 H 0.33185 0.20716 0.97522 0.0
H521 H 0.28812 0.21869 0.92788 0.0
H522 H 0.3054 0.15893 0.96941 0.0
H523 H 0.26232 0.17024 0.92301 0.0
H524 H 0.35985 0.26148 0.0387 0.0
H525 H 0.40064 0.22579 0.00985 0.0
H526 H 0.32554 0.22187 0.85898 0.0
H527 H 0.33683 0.17221 0.90145 0.0
Li528 Li 0.67263 0.95766 0.7171 0.0
Li529 Li 0.62816 0.93007 0.72818 0.0
Li530 Li 0.66285 0.91944 0.73906 0.0
Li531 Li 0.64603 0.91282 0.70349 0.0
C532 C 0.65741 0.97031 0.75556 0.0
N533 N 0.65147 0.00842 0.77559 0.0
C534 C 0.65485 0.98933 0.74464 0.0
C535 C 0.65691 0.97063 0.77667 0.0
C536 C 0.65186 0.00843 0.75503 0.0
C537 C 0.65391 0.99009 0.78653 0.0
C538 C 0.6232 0.94896 0.69134 0.0
C539 C 0.57997 0.93517 0.67773 0.0
N540 N 0.5875 0.96076 0.67376 0.0
C541 C 0.63056 0.97512 0.68701 0.0
C542 C 0.59776 0.9288 0.68655 0.0
C543 C 0.61221 0.98068 0.67816 0.0
C544 C 0.70279 0.99779 0.68949 0.0
N545 N 0.69935 0.99243 0.70961 0.0
C546 C 0.73449 0.03575 0.71743 0.0
C547 C 0.71481 0.01069 0.72359 0.0
C548 C 0.73852 0.04177 0.69672 0.0
C549 C 0.72246 0.02238 0.68267 0.0
H550 H 0.69028 0.98281 0.67873 0.0
H551 H 0.71196 0.00577 0.73949 0.0
C552 C 0.57847 0.90651 0.74701 0.0
N553 N 0.59606 0.92851 0.73684 0.0
C554 C 0.55342 0.9024 0.75172 0.0
C555 C 0.56534 0.94421 0.73619 0.0
C556 C 0.59029 0.94767 0.73205 0.0
C557 C 0.54624 0.92103 0.74578 0.0
H558 H 0.58367 0.8918 0.75105 0.0
H559 H 0.60467 0.96528 0.72435 0.0
C560 C 0.70629 0.94377 0.70321 0.0
N561 N 0.75317 0.97372 0.68264 0.0
C562 C 0.70726 0.94156 0.68222 0.0
C563 C 0.72919 0.96122 0.71373 0.0
C564 C 0.73115 0.95684 0.67211 0.0
C565 C 0.75268 0.9762 0.70306 0.0
C566 C 0.61127 0.86966 0.72387 0.0
C567 C 0.62053 0.85212 0.72722 0.0
C568 C 0.58646 0.86051 0.71509 0.0
C569 C 0.60493 0.82575 0.72149 0.0
C570 C 0.57146 0.834 0.70957 0.0
N571 N 0.58093 0.81732 0.71284 0.0
C572 C 0.65741 0.88513 0.77165 0.0
C573 C 0.69964 0.90804 0.75636 0.0
C574 C 0.66465 0.86907 0.78235 0.0
N575 N 0.67466 0.90361 0.75852 0.0
C576 C 0.70775 0.89267 0.76682 0.0
C577 C 0.68984 0.87214 0.77939 0.0
H578 H 0.63746 0.88165 0.77277 0.0
H579 H 0.71282 0.92248 0.74562 0.0
C580 C 0.6261 0.89079 0.66429 0.0
N581 N 0.63912 0.88999 0.68105 0.0
C582 C 0.62087 0.873 0.64848 0.0
C583 C 0.64303 0.85437 0.66736 0.0
C584 C 0.64804 0.87265 0.68266 0.0
C585 C 0.6291 0.85427 0.65006 0.0
H586 H 0.6198 0.90519 0.66313 0.0
H587 H 0.65901 0.87299 0.69592 0.0
O588 O 0.66027 0.95136 0.74571 0.0
O589 O 0.64089 0.94318 0.70009 0.0
O590 O 0.6829 0.92949 0.71332 0.0
O591 O 0.62643 0.89565 0.72908 0.0
H592 H 0.65507 0.98927 0.7283 0.0
H593 H 0.65883 0.956 0.78534 0.0
H594 H 0.64983 0.02324 0.74675 0.0
H595 H 0.65352 0.9906 0.80286 0.0
H596 H 0.56018 0.91976 0.67405 0.0
H597 H 0.65017 0.991 0.69056 0.0
H598 H 0.59177 0.90848 0.68973 0.0
H599 H 0.61759 1.00084 0.67482 0.0
H600 H 0.74665 0.05013 0.7287 0.0
H601 H 0.7248 0.02633 0.66658 0.0
H602 H 0.53973 0.88459 0.75968 0.0
H603 H 0.56085 0.95913 0.73119 0.0
H604 H 0.68972 0.92843 0.67377 0.0
H605 H 0.72871 0.96369 0.72991 0.0
H606 H 0.73216 0.95539 0.65587 0.0
H607 H 0.77049 0.98994 0.71099 0.0
H608 H 0.63976 0.85886 0.73382 0.0
H609 H 0.57883 0.87369 0.71259 0.0
H610 H 0.61195 0.81203 0.72385 0.0
H611 H 0.55227 0.82668 0.70271 0.0
H612 H 0.65016 0.85337 0.79176 0.0
H613 H 0.7275 0.89605 0.76435 0.0
H614 H 0.61017 0.8736 0.63532 0.0
H615 H 0.65023 0.84065 0.66896 0.0
Li616 Li 0.7258 0.67355 0.88329 0.0
Li617 Li 0.69758 0.62561 0.89311 0.0
Li618 Li 0.74428 0.65473 0.90732 0.0
Li619 Li 0.73672 0.64158 0.87252 0.0
C620 C 0.69867 0.66853 0.92056 0.0
N621 N 0.67143 0.68923 0.94028 0.0
C622 C 0.67225 0.6596 0.91586 0.0
C623 C 0.71113 0.68773 0.93552 0.0
C624 C 0.65885 0.67038 0.92593 0.0
C625 C 0.69705 0.69803 0.94525 0.0
C626 C 0.70102 0.63714 0.84621 0.0
C627 C 0.68126 0.60659 0.81855 0.0
N628 N 0.6962 0.62622 0.80529 0.0
C629 C 0.71609 0.65703 0.83231 0.0
C630 C 0.68341 0.61171 0.8393 0.0
C631 C 0.71341 0.65111 0.81169 0.0
C632 C 0.74528 0.72165 0.86245 0.0
N633 N 0.72422 0.70372 0.87338 0.0
C634 C 0.69955 0.72466 0.86387 0.0
C635 C 0.70164 0.705 0.87438 0.0
C636 C 0.72079 0.74287 0.85199 0.0
C637 C 0.74411 0.74159 0.85186 0.0
H638 H 0.7626 0.71971 0.86097 0.0
H639 H 0.6847 0.68996 0.88235 0.0
C640 C 0.65783 0.57818 0.9115 0.0
N641 N 0.66271 0.59721 0.89762 0.0
C642 C 0.63291 0.5555 0.91252 0.0
C643 C 0.61829 0.57317 0.88568 0.0
C644 C 0.64342 0.59541 0.88516 0.0
C645 C 0.61294 0.55251 0.89912 0.0
H646 H 0.67363 0.58008 0.92114 0.0
H647 H 0.64781 0.61092 0.87436 0.0
C648 C 0.78058 0.70113 0.89019 0.0
N649 N 0.8192 0.74933 0.9049 0.0
C650 C 0.80696 0.71117 0.88463 0.0
C651 C 0.77393 0.71557 0.90334 0.0
C652 C 0.82618 0.73558 0.8922 0.0
C653 C 0.79369 0.73991 0.91057 0.0
C654 C 0.73205 0.59868 0.89059 0.0
C655 C 0.75812 0.60403 0.88936 0.0
C656 C 0.71143 0.57357 0.88559 0.0
C657 C 0.76315 0.58422 0.88296 0.0
C658 C 0.71726 0.55426 0.87931 0.0
N659 N 0.74278 0.55996 0.87812 0.0
C660 C 0.76088 0.66279 0.94912 0.0
C661 C 0.79161 0.66519 0.92469 0.0
C662 C 0.77915 0.66805 0.96464 0.0
N663 N 0.76746 0.66151 0.92961 0.0
C664 C 0.8103 0.67022 0.93964 0.0
C665 C 0.80432 0.67183 0.95999 0.0
H666 H 0.7415 0.65977 0.95262 0.0
H667 H 0.7964 0.66421 0.90906 0.0
C668 C 0.77439 0.65213 0.84233 0.0
N669 N 0.75115 0.63264 0.84981 0.0
C670 C 0.78582 0.64763 0.82541 0.0
C671 C 0.74907 0.60305 0.824 0.0
C672 C 0.73835 0.60844 0.84096 0.0
C673 C 0.77311 0.62282 0.81598 0.0
H674 H 0.78391 0.67133 0.84935 0.0
H675 H 0.71957 0.59342 0.84682 0.0
O676 O 0.712 0.65787 0.91111 0.0
O677 O 0.70381 0.64245 0.86648 0.0
O678 O 0.76163 0.67686 0.88335 0.0
O679 O 0.72672 0.61784 0.89677 0.0
H680 H 0.66228 0.64475 0.90438 0.0
H681 H 0.73143 0.69457 0.93966 0.0
H682 H 0.63845 0.66378 0.92231 0.0
H683 H 0.70648 0.71296 0.9568 0.0
H684 H 0.66784 0.58697 0.81299 0.0
H685 H 0.72999 0.67673 0.8374 0.0
H686 H 0.67189 0.59597 0.84984 0.0
H687 H 0.72508 0.66627 0.80077 0.0
H688 H 0.68104 0.72464 0.86413 0.0
H689 H 0.76105 0.75531 0.84303 0.0
H690 H 0.62971 0.53999 0.92302 0.0
H691 H 0.60336 0.57194 0.87535 0.0
H692 H 0.81263 0.70012 0.87476 0.0
H693 H 0.75371 0.70817 0.90778 0.0
H694 H 0.84666 0.74354 0.88804 0.0
H695 H 0.78874 0.7513 0.9207 0.0
H696 H 0.77432 0.62336 0.89301 0.0
H697 H 0.69114 0.56909 0.88627 0.0
H698 H 0.78324 0.58817 0.88181 0.0
H699 H 0.7015 0.53479 0.8753 0.0
H700 H 0.77369 0.66934 0.98006 0.0
H701 H 0.82911 0.67239 0.93524 0.0
H702 H 0.80449 0.66339 0.81985 0.0
H703 H 0.73835 0.58379 0.817 0.0
Li704 Li 0.08708 0.73443 0.04092 0.0
Li705 Li 0.08279 0.74085 0.07795 0.0
Li706 Li 0.06954 0.69618 0.06222 0.0
Li707 Li 0.04381 0.71671 0.05617 0.0
C708 C 0.13058 0.74047 0.05716 0.0
N709 N 0.18139 0.766 0.04196 0.0
C710 C 0.14933 0.76502 0.06486 0.0
C711 C 0.13778 0.72877 0.0419 0.0
C712 C 0.17489 0.77765 0.05694 0.0
C713 C 0.16352 0.74203 0.03436 0.0
C714 C 0.059 0.76684 0.0502 0.0
C715 C 0.03434 0.78763 0.06075 0.0
N716 N 0.02974 0.79061 0.04104 0.0
C717 C 0.05417 0.7702 0.03005 0.0
C718 C 0.04912 0.77567 0.0657 0.0
C719 C 0.03927 0.78223 0.02573 0.0
C720 C 0.10455 0.74267 0.99971 0.0
N721 N 0.10778 0.75357 0.01838 0.0
C722 C 0.13895 0.79604 0.0056 0.0
C723 C 0.12464 0.77964 0.0216 0.0
C724 C 0.13567 0.78555 0.98604 0.0
C725 C 0.11854 0.75839 0.98322 0.0
H726 H 0.09052 0.72201 0.99748 0.0
H727 H 0.12645 0.7878 0.03658 0.0
C728 C 0.10292 0.75886 0.11804 0.0
N729 N 0.09988 0.7658 0.09904 0.0
C730 C 0.11749 0.77835 0.13243 0.0
C731 C 0.12554 0.81154 0.10733 0.0
C732 C 0.11066 0.79151 0.09356 0.0
C733 C 0.12931 0.8051 0.12701 0.0
H734 H 0.09439 0.73824 0.12191 0.0
H735 H 0.10824 0.79646 0.07826 0.0
C736 C 0.04674 0.67598 0.02727 0.0
N737 N 0.02904 0.62654 0.01081 0.0
C738 C 0.02 0.65682 0.02833 0.0
C739 C 0.06442 0.66999 0.01773 0.0
C740 C 0.01145 0.63196 0.01991 0.0
C741 C 0.05511 0.64487 0.00956 0.0
C742 C 0.02852 0.69854 0.09422 0.0
C743 C 0.00538 0.67481 0.0902 0.0
C744 C 0.02883 0.71482 0.10981 0.0
C745 C 0.98288 0.6678 0.10181 0.0
C746 C 0.00593 0.70708 0.12111 0.0
N747 N 0.98362 0.68394 0.1169 0.0
C748 C 0.09154 0.66263 0.06705 0.0
C749 C 0.04482 0.64073 0.06682 0.0
C750 C 0.09098 0.63846 0.06741 0.0
N751 N 0.06864 0.6633 0.0663 0.0
C752 C 0.04334 0.61622 0.06669 0.0
C753 C 0.06663 0.61495 0.06668 0.0
H754 H 0.11025 0.68081 0.06683 0.0
H755 H 0.0269 0.6417 0.06648 0.0
C756 C 1.00213 0.70615 0.0302 0.0
N757 N 0.00946 0.71201 0.04988 0.0
C758 C 0.97792 0.70248 0.02354 0.0
C759 C 0.96933 0.7119 0.05734 0.0
C760 C 0.99391 0.71563 0.06331 0.0
C761 C 0.96102 0.70508 0.03722 0.0
H762 H 0.0152 0.70437 0.01958 0.0
H763 H 1.00059 0.72174 0.07858 0.0
O764 O 0.10527 0.72808 0.06438 0.0
O765 O 0.07281 0.75438 0.05474 0.0
O766 O 0.05557 0.70036 0.03567 0.0
O767 O 0.05089 0.70561 0.08324 0.0
H768 H 0.14422 0.77432 0.07675 0.0
H769 H 0.12358 0.70976 0.03582 0.0
H770 H 0.18956 0.79672 0.06269 0.0
H771 H 0.16929 0.73328 0.02244 0.0
H772 H 0.02641 0.79443 0.07259 0.0
H773 H 0.06159 0.76331 0.0179 0.0
H774 H 0.05254 0.77299 0.08138 0.0
H775 H 0.03522 0.78483 0.0102 0.0
H776 H 0.15215 0.81681 0.00847 0.0
H777 H 0.11517 0.74961 0.96832 0.0
H778 H 0.12011 0.77258 0.14742 0.0
H779 H 0.13408 0.8319 0.10259 0.0
H780 H 0.00605 0.66086 0.03595 0.0
H781 H 0.08515 0.68447 0.0168 0.0
H782 H 0.99086 0.61691 0.02076 0.0
H783 H 0.06863 0.63994 0.00226 0.0
H784 H 0.00464 0.66216 0.07803 0.0
H785 H 0.0465 0.7333 0.11308 0.0
H786 H 0.96479 0.64958 0.09878 0.0
H787 H 0.00587 0.71951 0.13318 0.0
H788 H 0.10933 0.63813 0.06743 0.0
H789 H 0.02421 0.59842 0.0663 0.0
H790 H 0.97232 0.69724 0.00789 0.0
H791 H 0.95715 0.71469 0.06826 0.0
Li792 Li 0.3274 0.04913 0.21845 0.0
Li793 Li 0.37399 0.07336 0.22925 0.0
Li794 Li 0.34196 0.08588 0.24133 0.0
Li795 Li 0.35767 0.0943 0.20648 0.0
C796 C 0.33765 0.05042 0.26623 0.0
N797 N 0.32957 0.04999 0.3074 0.0
C798 C 0.35914 0.06094 0.27946 0.0
C799 C 0.31205 0.0396 0.27391 0.0
C800 C 0.35464 0.06054 0.30024 0.0
C801 C 0.30838 0.0396 0.29478 0.0
C802 C 0.37356 0.05225 0.19259 0.0
C803 C 0.41444 0.05827 0.17891 0.0
N804 N 0.40284 0.03182 0.17586 0.0
C805 C 0.36201 0.02513 0.18925 0.0
C806 C 0.39995 0.06898 0.1873 0.0
C807 C 0.37716 0.01519 0.18079 0.0
C808 C 0.29142 0.01163 0.19081 0.0
N809 N 0.29943 0.01524 0.21041 0.0
C810 C 0.26785 0.97042 0.21814 0.0
C811 C 0.28825 0.99523 0.22403 0.0
C812 C 0.25876 0.96616 0.19804 0.0
C813 C 0.27088 0.98729 0.18432 0.0
H814 H 0.30093 0.02779 0.18022 0.0
H815 H 0.29532 0.99849 0.23945 0.0
C816 C 0.42667 0.08926 0.24229 0.0
N817 N 0.40326 0.06885 0.2359 0.0
C818 C 0.44805 0.08542 0.24611 0.0
C819 C 0.42076 0.03976 0.23655 0.0
C820 C 0.3998 0.0443 0.23355 0.0
C821 C 0.44544 0.06041 0.24301 0.0
H822 H 0.42875 0.10851 0.24445 0.0
H823 H 0.38081 0.02829 0.22889 0.0
C824 C 0.29701 0.06816 0.20724 0.0
N825 N 0.24859 0.04381 0.18801 0.0
C826 C 0.29504 0.07388 0.18702 0.0
C827 C 0.27431 0.05007 0.21769 0.0
C828 C 0.27038 0.06138 0.17757 0.0
C829 C 0.25004 0.03795 0.20769 0.0
C830 C 0.39475 0.13458 0.22652 0.0
C831 C 0.38781 0.15348 0.23165 0.0
C832 C 0.41772 0.14204 0.21537 0.0
C833 C 0.40392 0.17955 0.2254 0.0
C834 C 0.43328 0.1683 0.20937 0.0
N835 N 0.42611 0.18635 0.21446 0.0
C836 C 0.35095 0.11754 0.27646 0.0
C837 C 0.30682 0.09511 0.26467 0.0
C838 C 0.34443 0.13026 0.29139 0.0
N839 N 0.33224 0.1006 0.26334 0.0
C840 C 0.29936 0.10706 0.2795 0.0
C841 C 0.31834 0.12517 0.29294 0.0
H842 H 0.37108 0.12166 0.275 0.0
H843 H 0.2924 0.08189 0.25395 0.0
C844 C 0.37827 0.11596 0.16767 0.0
N845 N 0.36624 0.11819 0.18453 0.0
C846 C 0.38424 0.13355 0.15163 0.0
C847 C 0.36515 0.15523 0.17057 0.0
C848 C 0.35945 0.13717 0.18618 0.0
C849 C 0.37771 0.15355 0.15299 0.0
H850 H 0.38305 0.10043 0.16659 0.0
H851 H 0.34937 0.13809 0.19959 0.0
O852 O 0.34172 0.05148 0.24583 0.0
O853 O 0.35912 0.06231 0.20107 0.0
O854 O 0.32103 0.07999 0.21671 0.0
O855 O 0.37895 0.10885 0.23212 0.0
H856 H 0.37908 0.06958 0.27373 0.0
H857 H 0.29524 0.03166 0.26383 0.0
H858 H 0.37108 0.06871 0.31066 0.0
H859 H 0.2887 0.03145 0.30093 0.0
H860 H 0.43493 0.07097 0.17488 0.0
H861 H 0.34166 0.01186 0.19331 0.0
H862 H 0.40925 0.08998 0.18986 0.0
H863 H 0.36851 0.99424 0.17821 0.0
H864 H 0.25957 0.95468 0.22919 0.0
H865 H 0.26443 0.98522 0.16876 0.0
H866 H 0.4663 0.10189 0.25155 0.0
H867 H 0.41756 0.02024 0.23345 0.0
H868 H 0.31234 0.08762 0.17861 0.0
H869 H 0.2755 0.04491 0.23319 0.0
H870 H 0.26859 0.06557 0.16192 0.0
H871 H 0.23237 0.02374 0.21555 0.0
H872 H 0.36996 0.14802 0.24008 0.0
H873 H 0.42338 0.12768 0.21127 0.0
H874 H 0.3987 0.19435 0.22915 0.0
H875 H 0.45103 0.17432 0.20065 0.0
H876 H 0.35962 0.144 0.30154 0.0
H877 H 0.27912 0.10285 0.27998 0.0
H878 H 0.394 0.13161 0.13836 0.0
H879 H 0.35928 0.17 0.17208 0.0
Li880 Li 0.30508 0.37336 0.392 0.0
Li881 Li 0.27982 0.32583 0.38492 0.0
Li882 Li 0.26566 0.35667 0.3699 0.0
Li883 Li 0.25914 0.34441 0.40575 0.0
C884 C 0.31831 0.36701 0.35139 0.0
N885 N 0.35809 0.39042 0.3229 0.0
C886 C 0.33542 0.35723 0.34794 0.0
C887 C 0.32114 0.38838 0.33999 0.0
C888 C 0.3555 0.36943 0.33359 0.0
C889 C 0.34143 0.40002 0.32575 0.0
C890 C 0.30198 0.32943 0.42099 0.0
C891 C 0.29527 0.28968 0.43724 0.0
N892 N 0.32185 0.30037 0.43892 0.0
C893 C 0.32922 0.34013 0.42306 0.0
C894 C 0.28484 0.30411 0.4283 0.0
C895 C 0.33888 0.32509 0.43211 0.0
C896 C 0.3426 0.42502 0.40562 0.0
N897 N 0.33962 0.40292 0.39642 0.0
C898 C 0.38603 0.42381 0.39031 0.0
C899 C 0.36081 0.40174 0.38935 0.0
C900 C 0.38958 0.44742 0.3987 0.0
C901 C 0.36749 0.44767 0.40682 0.0
H902 H 0.32555 0.42533 0.41157 0.0
H903 H 0.35813 0.38367 0.38283 0.0
C904 C 0.26073 0.2736 0.37184 0.0
N905 N 0.28261 0.29527 0.37896 0.0
C906 C 0.26192 0.25132 0.36592 0.0
C907 C 0.30817 0.27398 0.37475 0.0
C908 C 0.30604 0.29578 0.38062 0.0
C909 C 0.28594 0.2514 0.36715 0.0
H910 H 0.24245 0.2738 0.37032 0.0
H911 H 0.32325 0.31331 0.3861 0.0
C912 C 0.27602 0.40377 0.38959 0.0
N913 N 0.27791 0.45088 0.38093 0.0
C914 C 0.25812 0.40986 0.39864 0.0
C915 C 0.29516 0.42189 0.37641 0.0
C916 C 0.2593 0.4337 0.39399 0.0
C917 C 0.29574 0.44554 0.37216 0.0
C918 C 0.21808 0.3049 0.38707 0.0
C919 C 0.19845 0.30923 0.3791 0.0
C920 C 0.21122 0.28426 0.40072 0.0
C921 C 0.1723 0.29312 0.38524 0.0
C922 C 0.18487 0.2686 0.4065 0.0
N923 N 0.16612 0.27333 0.39872 0.0
C924 C 0.25571 0.35755 0.32828 0.0
C925 C 0.23534 0.37497 0.34932 0.0
C926 C 0.24552 0.363 0.31103 0.0
N927 N 0.25083 0.36396 0.3469 0.0
C928 C 0.22463 0.38065 0.33251 0.0
C929 C 0.22981 0.37483 0.31301 0.0
H930 H 0.26769 0.34835 0.32681 0.0
H931 H 0.23098 0.37904 0.36431 0.0
C932 C 0.23744 0.32942 0.44582 0.0
N933 N 0.23509 0.33833 0.42739 0.0
C934 C 0.21888 0.3246 0.461 0.0
C935 C 0.19605 0.33837 0.43795 0.0
C936 C 0.21499 0.34292 0.4233 0.0
C937 C 0.19773 0.32899 0.45712 0.0
H938 H 0.25363 0.32593 0.4487 0.0
H939 H 0.21358 0.35 0.40852 0.0
O940 O 0.29845 0.35517 0.36537 0.0
O941 O 0.29217 0.34379 0.41202 0.0
O942 O 0.27493 0.38033 0.39381 0.0
O943 O 0.24388 0.32086 0.3816 0.0
H944 H 0.33341 0.34055 0.35636 0.0
H945 H 0.3076 0.39568 0.3418 0.0
H946 H 0.369 0.36218 0.33093 0.0
H947 H 0.34384 0.4166 0.31689 0.0
H948 H 0.28223 0.26998 0.44283 0.0
H949 H 0.34276 0.3598 0.41771 0.0
H950 H 0.26373 0.29564 0.42702 0.0
H951 H 0.35993 0.33307 0.43371 0.0
H952 H 0.40256 0.42241 0.38442 0.0
H953 H 0.36922 0.46538 0.41342 0.0
H954 H 0.24439 0.23453 0.35984 0.0
H955 H 0.32702 0.27482 0.37609 0.0
H956 H 0.24345 0.39637 0.40916 0.0
H957 H 0.30972 0.41799 0.36984 0.0
H958 H 0.24546 0.43856 0.4008 0.0
H959 H 0.31047 0.4597 0.36196 0.0
H960 H 0.20336 0.32501 0.36845 0.0
H961 H 0.22611 0.28044 0.40685 0.0
H962 H 0.15693 0.29638 0.37931 0.0
H963 H 0.17932 0.25268 0.41717 0.0
H964 H 0.25019 0.3583 0.29632 0.0
H965 H 0.21209 0.38914 0.33482 0.0
H966 H 0.22085 0.31718 0.4755 0.0
H967 H 0.18041 0.34248 0.43434 0.0
Li968 Li 0.96003 0.28901 0.5544 0.0
Li969 Li 0.93278 0.3078 0.56116 0.0
Li970 Li 0.91991 0.26192 0.57396 0.0
Li971 Li 0.91854 0.2723 0.53708 0.0
C972 C 0.9733 0.30444 0.59248 0.0
N973 N 0.01899 0.31973 0.61427 0.0
C974 C 0.99535 0.32937 0.58947 0.0
C975 C 0.97445 0.28731 0.60662 0.0
C976 C 0.01829 0.33671 0.60059 0.0
C977 C 0.99773 0.29542 0.6175 0.0
C978 C 0.95861 0.33289 0.52868 0.0
C979 C 0.95131 0.36543 0.51216 0.0
N980 N 0.97664 0.38419 0.51628 0.0
C981 C 0.9846 0.3525 0.53269 0.0
C982 C 0.94187 0.33939 0.51824 0.0
C983 C 0.99334 0.3783 0.52628 0.0
C984 C 0.00389 0.30461 0.52967 0.0
N985 N 0.99511 0.29527 0.54859 0.0
C986 C 0.0337 0.29196 0.55484 0.0
C987 C 0.00936 0.28864 0.5611 0.0
C988 C 0.04329 0.30183 0.5354 0.0
C989 C 0.02803 0.30829 0.52283 0.0
H990 H 0.99185 0.30874 0.51963 0.0
H991 H 1.00156 0.27999 0.57566 0.0
C992 C 0.90582 0.33577 0.56618 0.0
N993 N 0.93035 0.33869 0.56686 0.0
C994 C 0.90251 0.35772 0.5671 0.0
C995 C 0.9497 0.38541 0.57061 0.0
C996 C 0.95207 0.36281 0.56973 0.0
C997 C 0.92467 0.38306 0.56873 0.0
H998 H 0.88877 0.31643 0.56443 0.0
H999 H 0.97137 0.3647 0.5705 0.0
C1000 C 0.94681 0.23961 0.54624 0.0
N1001 N 0.97817 0.21778 0.53834 0.0
C1002 C 0.95525 0.23938 0.52652 0.0
C1003 C 0.95406 0.22856 0.56192 0.0
C1004 C 0.9712 0.22832 0.52285 0.0
C1005 C 0.96997 0.21763 0.55762 0.0
C1006 C 0.87283 0.26312 0.55213 0.0
C1007 C 0.85302 0.23895 0.55963 0.0
C1008 C 0.86707 0.27525 0.53629 0.0
C1009 C 0.82791 0.2271 0.55093 0.0
C1010 C 0.84174 0.26276 0.52798 0.0
N1011 N 0.82285 0.23912 0.5354 0.0
C1012 C 0.90182 0.24365 0.61372 0.0
C1013 C 0.88743 0.21048 0.5886 0.0
C1014 C 0.88642 0.22497 0.6283 0.0
N1015 N 0.90186 0.23614 0.5943 0.0
C1016 C 0.87125 0.19124 0.60255 0.0
C1017 C 0.87028 0.19835 0.62274 0.0
H1018 H 0.91337 0.26425 0.6178 0.0
H1019 H 0.88761 0.20516 0.57295 0.0
C1020 C 0.91289 0.27222 0.49515 0.0
N1021 N 0.90167 0.25772 0.51205 0.0
C1022 C 0.90275 0.26193 0.47613 0.0
C1023 C 0.86949 0.22194 0.49222 0.0
C1024 C 0.88044 0.23296 0.51098 0.0
C1025 C 0.88094 0.23639 0.47449 0.0
H1026 H 0.93016 0.29155 0.49639 0.0
H1027 H 0.87236 0.22161 0.52465 0.0
O1028 O 0.95058 0.29697 0.58187 0.0
O1029 O 0.94956 0.30754 0.53506 0.0
O1030 O 0.93189 0.25105 0.55023 0.0
O1031 O 0.89766 0.2749 0.5603 0.0
H1032 H 0.99484 0.34281 0.57854 0.0
H1033 H 0.95769 0.26785 0.60903 0.0
H1034 H 0.03555 0.35589 0.59833 0.0
H1035 H 0.99894 0.28233 0.62844 0.0
H1036 H 0.9385 0.37074 0.50418 0.0
H1037 H 0.99782 0.34797 0.54091 0.0
H1038 H 0.92175 0.32452 0.51494 0.0
H1039 H 0.01335 0.39367 0.52939 0.0
H1040 H 0.04451 0.28617 0.56489 0.0
H1041 H 0.03462 0.31612 0.50778 0.0
H1042 H 0.88277 0.35487 0.56619 0.0
H1043 H 0.96735 0.40454 0.57188 0.0
H1044 H 0.94982 0.24796 0.51424 0.0
H1045 H 0.94774 0.22872 0.57728 0.0
H1046 H 0.97809 0.22819 0.5077 0.0
H1047 H 0.9759 0.20914 0.56962 0.0
H1048 H 0.85691 0.22945 0.57207 0.0
H1049 H 0.88207 0.294 0.53036 0.0
H1050 H 0.81244 0.20834 0.55656 0.0
H1051 H 0.83711 0.27184 0.51561 0.0
H1052 H 0.88697 0.2315 0.64369 0.0
H1053 H 0.85893 0.17123 0.59728 0.0
H1054 H 0.91207 0.27374 0.46283 0.0
H1055 H 0.85289 0.20203 0.49155 0.0
H1056 H 0.08669 0.59295 0.09268 0.0
H1057 H 0.04337 0.57905 0.03662 0.0
H1058 H 0.04048 0.53557 0.0333 0.0
H1059 H 0.12367 0.56065 0.07888 0.0
H1060 H 0.12097 0.54658 0.1036 0.0
H1061 H 0.1209 0.57716 0.10097 0.0
H1062 H 0.07636 0.55704 0.12013 0.0
H1063 H 0.07629 0.52641 0.12282 0.0
H1064 H 0.04866 0.52679 0.11113 0.0
H1065 H 0.0427 0.49393 0.03596 0.0
H1066 H 0.04687 0.45536 0.04575 0.0
H1067 H 0.08632 0.49515 0.10112 0.0
C1068 C 0.07682 0.58076 0.07966 0.0
C1069 C 0.06536 0.58921 0.06482 0.0
C1070 C 0.05221 0.57274 0.04811 0.0
C1071 C 0.05058 0.54814 0.04608 0.0
C1072 C 0.06194 0.54023 0.06102 0.0
C1073 C 0.07459 0.55592 0.07759 0.0
C1074 C 0.08394 0.54217 0.09199 0.0
C1075 C 0.11417 0.55756 0.09397 0.0
C1076 C 0.0705 0.53784 0.11274 0.0
C1077 C 0.07453 0.51632 0.08095 0.0
C1078 C 0.0622 0.51575 0.06299 0.0
C1079 C 0.05223 0.4941 0.05002 0.0
C1080 C 0.05475 0.47237 0.05564 0.0
C1081 C 0.06677 0.47233 0.07419 0.0
C1082 C 0.07681 0.49463 0.08694 0.0
H1083 H 0.59691 0.09607 0.2497 0.0
H1084 H 0.5671 0.01267 0.2608 0.0
H1085 H 0.52175 0.00441 0.25877 0.0
H1086 H 0.54811 0.10259 0.27639 0.0
H1087 H 0.54515 0.1238 0.25812 0.0
H1088 H 0.57581 0.1238 0.26057 0.0
H1089 H 0.57465 0.11299 0.22248 0.0
H1090 H 0.54417 0.11331 0.21986 0.0
H1091 H 0.54594 0.08471 0.21216 0.0
H1092 H 0.47988 0.00548 0.25866 0.0
H1093 H 0.44339 0.01441 0.25532 0.0
H1094 H 0.4993 0.09571 0.23912 0.0
C1095 C 0.58094 0.07598 0.25139 0.0
C1096 C 0.58589 0.0552 0.25599 0.0
C1097 C 0.56413 0.02923 0.25807 0.0
C1098 C 0.53816 0.02421 0.25677 0.0
C1099 C 0.53406 0.04519 0.25283 0.0
C1100 C 0.55474 0.07045 0.24967 0.0
C1101 C 0.54461 0.0892 0.24499 0.0
C1102 C 0.55398 0.11114 0.26098 0.0
C1103 C 0.55283 0.10072 0.2236 0.0
C1104 C 0.51505 0.07053 0.24636 0.0
C1105 C 0.50952 0.04535 0.25115 0.0
C1106 C 0.48387 0.02496 0.25436 0.0
C1107 C 0.46318 0.03026 0.25222 0.0
C1108 C 0.46803 0.05566 0.24639 0.0
C1109 C 0.49455 0.07606 0.24361 0.0
H1110 H 0.50843 0.58366 0.44011 0.0
H1111 H 0.55036 0.58854 0.3846 0.0
H1112 H 0.51237 0.54678 0.37301 0.0
H1113 H 0.47911 0.51333 0.44644 0.0
H1114 H 0.44854 0.50912 0.45637 0.0
H1115 H 0.47878 0.53981 0.4601 0.0
H1116 H 0.45771 0.56503 0.4436 0.0
H1117 H 0.42743 0.53441 0.43975 0.0
H1118 H 0.44375 0.55589 0.41861 0.0
H1119 H 0.46998 0.5046 0.36738 0.0
H1120 H 0.4262 0.46448 0.36824 0.0
H1121 H 0.41264 0.48575 0.42815 0.0
C1122 C 0.50979 0.57588 0.42559 0.0
C1123 C 0.53245 0.58957 0.41324 0.0
C1124 C 0.53311 0.57876 0.39421 0.0
C1125 C 0.51169 0.55493 0.38754 0.0
C1126 C 0.48974 0.54202 0.40009 0.0
C1127 C 0.48865 0.55203 0.41874 0.0
C1128 C 0.46281 0.53406 0.42938 0.0
C1129 C 0.46761 0.52345 0.44925 0.0
C1130 C 0.447 0.5482 0.43304 0.0
C1131 C 0.44955 0.51238 0.41377 0.0
C1132 C 0.46543 0.51741 0.39699 0.0
C1133 C 0.45744 0.50035 0.38051 0.0
C1134 C 0.43259 0.47748 0.38122 0.0
C1135 C 0.41597 0.47174 0.39834 0.0
C1136 C 0.4247 0.48958 0.41478 0.0
H1137 H 0.95063 0.5268 0.59828 0.0
H1138 H 0.89087 0.51502 0.55411 0.0
H1139 H 0.8854 0.47155 0.54542 0.0
H1140 H 0.98035 0.49528 0.56953 0.0
H1141 H 0.98595 0.48056 0.59152 0.0
H1142 H 0.98585 0.51117 0.59381 0.0
H1143 H 0.94964 0.49043 0.62138 0.0
H1144 H 0.94959 0.45977 0.61914 0.0
H1145 H 0.91933 0.46041 0.61591 0.0
H1146 H 0.8859 0.42939 0.54183 0.0
H1147 H 0.8919 0.39072 0.54374 0.0
H1148 H 0.95074 0.42919 0.59078 0.0
C1149 C 0.93666 0.51521 0.58659 0.0
C1150 C 0.92118 0.52427 0.57683 0.0
C1151 C 0.90276 0.50834 0.56188 0.0
C1152 C 0.89961 0.48371 0.55677 0.0
C1153 C 0.915 0.47526 0.56679 0.0
C1154 C 0.93316 0.49048 0.58138 0.0
C1155 C 0.94663 0.47637 0.59025 0.0
C1156 C 0.97646 0.49176 0.58602 0.0
C1157 C 0.94095 0.47145 0.61302 0.0
C1158 C 0.93312 0.45082 0.57839 0.0
C1159 C 0.91503 0.45067 0.56491 0.0
C1160 C 0.89995 0.42922 0.55238 0.0
C1161 C 0.90336 0.40725 0.5537 0.0
C1162 C 0.92161 0.40675 0.56755 0.0
C1163 C 0.93677 0.42899 0.57995 0.0
H1164 H 0.52957 0.95664 0.7545 0.0
H1165 H 0.50024 0.87345 0.7431 0.0
H1166 H 0.4547 0.86455 0.74703 0.0
H1167 H 0.48063 0.94893 0.79105 0.0
H1168 H 0.47799 0.97643 0.78171 0.0
H1169 H 0.50854 0.97626 0.77901 0.0
H1170 H 0.50766 0.98285 0.74034 0.0
H1171 H 0.47713 0.98308 0.74292 0.0
H1172 H 0.47912 0.96005 0.72595 0.0
H1173 H 0.41227 0.8645 0.75186 0.0
H1174 H 0.37577 0.87348 0.75672 0.0
H1175 H 0.43236 0.95711 0.76244 0.0
C1176 C 0.51364 0.93654 0.75273 0.0
C1177 C 0.51872 0.91574 0.7487 0.0
C1178 C 0.4971 0.8897 0.74669 0.0
C1179 C 0.47106 0.88443 0.74872 0.0
C1180 C 0.46684 0.90539 0.75258 0.0
C1181 C 0.48748 0.93094 0.75448 0.0
C1182 C 0.47744 0.94998 0.75807 0.0
C1183 C 0.4867 0.9637 0.77869 0.0
C1184 C 0.48584 0.97018 0.74079 0.0
C1185 C 0.44793 0.9311 0.75788 0.0
C1186 C 0.44227 0.90548 0.75477 0.0
C1187 C 0.41644 0.88452 0.75415 0.0
C1188 C 0.39581 0.88988 0.75676 0.0
C1189 C 0.40104 0.91605 0.75979 0.0
C1190 C 0.42757 0.93686 0.76034 0.0
H1191 H 0.48597 0.42331 0.94184 0.0
H1192 H 0.46239 0.40098 0.87946 0.0
H1193 H 0.50175 0.4418 0.86794 0.0
H1194 H 0.51165 0.49345 0.93538 0.0
H1195 H 0.53871 0.50274 0.95266 0.0
H1196 H 0.50843 0.47197 0.95605 0.0
H1197 H 0.53446 0.44691 0.95513 0.0
H1198 H 0.56481 0.47759 0.95168 0.0
H1199 H 0.55539 0.45115 0.93378 0.0
H1200 H 0.54357 0.48457 0.86314 0.0
H1201 H 0.58574 0.52642 0.86523 0.0
H1202 H 0.58235 0.52151 0.93076 0.0
C1203 C 0.48896 0.42717 0.92576 0.0
C1204 C 0.47111 0.40897 0.91152 0.0
C1205 C 0.47594 0.41451 0.89061 0.0
C1206 C 0.49815 0.4377 0.88393 0.0
C1207 C 0.5154 0.45513 0.89835 0.0
C1208 C 0.51113 0.45018 0.91882 0.0
C1209 C 0.53308 0.47196 0.93111 0.0
C1210 C 0.52232 0.48585 0.94459 0.0
C1211 C 0.54781 0.46125 0.94366 0.0
C1212 C 0.55034 0.48993 0.91432 0.0
C1213 C 0.53969 0.47985 0.89556 0.0
C1214 C 0.55203 0.49275 0.87774 0.0
C1215 C 0.57591 0.51662 0.8791 0.0
C1216 C 0.58728 0.52742 0.89816 0.0
C1217 C 0.57425 0.51375 0.91598 0.0
H1218 H 0.16341 0.3347 0.01543 0.0
H1219 H 0.1278 0.26642 0.05505 0.0
H1220 H 0.1545 0.24967 0.03902 0.0
H1221 H 0.16901 0.30092 0.97081 0.0
H1222 H 0.20053 0.32827 0.96347 0.0
H1223 H 0.17723 0.33414 0.97702 0.0
H1224 H 0.21247 0.35983 0.00446 0.0
H1225 H 0.23584 0.35397 0.99105 0.0
H1226 H 0.22823 0.3441 0.01712 0.0
H1227 H 0.18689 0.24167 0.02062 0.0
H1228 H 0.22255 0.24241 0.00052 0.0
H1229 H 0.23738 0.31554 0.9722 0.0
C1230 C 0.16111 0.31616 0.02067 0.0
C1231 C 0.14321 0.30176 0.03638 0.0
C1232 C 0.14085 0.27754 0.04274 0.0
C1233 C 0.15609 0.26793 0.03382 0.0
C1234 C 0.17365 0.2827 0.01854 0.0
C1235 C 0.17622 0.30624 0.01193 0.0
C1236 C 0.19729 0.31863 0.9957 0.0
C1237 C 0.18529 0.3206 0.97555 0.0
C1238 C 0.21979 0.34574 0.0025 0.0
C1239 C 0.20641 0.29855 0.99449 0.0
C1240 C 0.19239 0.27796 0.00775 0.0
C1241 C 0.19774 0.25747 0.00994 0.0
C1242 C 0.21796 0.25799 0.99828 0.0
C1243 C 0.23266 0.27881 0.98445 0.0
C1244 C 0.22662 0.29932 0.98258 0.0
H1245 H 0.83097 0.14962 0.18114 0.0
H1246 H 0.85715 0.17144 0.24316 0.0
H1247 H 0.89948 0.20783 0.23111 0.0
H1248 H 0.89288 0.1626 0.16113 0.0
H1249 H 0.88981 0.17623 0.13754 0.0
H1250 H 0.86068 0.15237 0.15078 0.0
H1251 H 0.84291 0.18496 0.15099 0.0
H1252 H 0.87199 0.20892 0.1377 0.0
H1253 H 0.863 0.21752 0.16139 0.0
H1254 H 0.93944 0.24009 0.2131 0.0
H1255 H 0.97538 0.26781 0.1896 0.0
H1256 H 0.92451 0.22683 0.13864 0.0
C1257 C 0.84555 0.16227 0.19212 0.0
C1258 C 0.84089 0.15742 0.21311 0.0
C1259 C 0.86047 0.17437 0.22702 0.0
C1260 C 0.88453 0.19525 0.22034 0.0
C1261 C 0.88876 0.1992 0.19965 0.0
C1262 C 0.86989 0.18339 0.18567 0.0
C1263 C 0.88011 0.19183 0.16426 0.0
C1264 C 0.88092 0.16942 0.15276 0.0
C1265 C 0.86351 0.20138 0.15292 0.0
C1266 C 0.90775 0.2145 0.16851 0.0
C1267 C 0.91213 0.21835 0.18907 0.0
C1268 C 0.93626 0.2374 0.19696 0.0
C1269 C 0.95659 0.25293 0.18349 0.0
C1270 C 0.95277 0.24937 0.16233 0.0
C1271 C 0.92789 0.23008 0.15475 0.0
H1272 H 0.70109 0.84807 0.36708 0.0
H1273 H 0.61567 0.80742 0.37175 0.0
H1274 H 0.61474 0.84145 0.35048 0.0
H1275 H 0.71164 0.91239 0.37024 0.0
H1276 H 0.73818 0.92665 0.35211 0.0
H1277 H 0.73224 0.89798 0.3663 0.0
H1278 H 0.72798 0.87291 0.33297 0.0
H1279 H 0.73398 0.90158 0.31866 0.0
H1280 H 0.70462 0.87034 0.31406 0.0
H1281 H 0.62291 0.88134 0.3315 0.0
H1282 H 0.63991 0.92475 0.31511 0.0
H1283 H 0.71993 0.93946 0.32134 0.0
C1284 C 0.68217 0.84605 0.36325 0.0
C1285 C 0.65845 0.82513 0.37119 0.0
C1286 C 0.63412 0.82345 0.36611 0.0
C1287 C 0.63336 0.84257 0.3539 0.0
C1288 C 0.65707 0.86318 0.34667 0.0
C1289 C 0.68104 0.86501 0.35099 0.0
C1290 C 0.70367 0.88995 0.34203 0.0
C1291 C 0.72253 0.90779 0.35867 0.0
C1292 C 0.71843 0.88329 0.32598 0.0
C1293 C 0.68868 0.90212 0.33249 0.0
C1294 C 0.6618 0.8862 0.33526 0.0
C1295 C 0.64388 0.89381 0.32895 0.0
C1296 C 0.65368 0.91848 0.31973 0.0
C1297 C 0.68113 0.93521 0.31684 0.0
C1298 C 0.69882 0.92675 0.32303 0.0
H1299 H 0.75461 0.67895 0.48361 0.0
H1300 H 0.79951 0.76394 0.47634 0.0
H1301 H 0.83724 0.76511 0.49394 0.0
H1302 H 0.7761 0.67683 0.53249 0.0
H1303 H 0.77798 0.64731 0.52885 0.0
H1304 H 0.75528 0.65266 0.51405 0.0
H1305 H 0.77606 0.64732 0.48109 0.0
H1306 H 0.79878 0.64179 0.49579 0.0
H1307 H 0.8111 0.66759 0.47706 0.0
H1308 H 0.8685 0.75772 0.51479 0.0
H1309 H 0.89194 0.74197 0.53671 0.0
H1310 H 0.82743 0.66166 0.53 0.0
C1311 C 0.77261 0.69772 0.48527 0.0
C1312 C 0.77409 0.72137 0.4786 0.0
C1313 C 0.79782 0.7456 0.48149 0.0
C1314 C 0.81942 0.74646 0.49136 0.0
C1315 C 0.81711 0.72289 0.49814 0.0
C1316 C 0.79442 0.69892 0.49509 0.0
C1317 C 0.79666 0.67666 0.5048 0.0
C1318 C 0.77524 0.66255 0.52101 0.0
C1319 C 0.79559 0.65719 0.48872 0.0
C1320 C 0.82389 0.69195 0.51418 0.0
C1321 C 0.83537 0.71857 0.51005 0.0
C1322 C 0.85987 0.73689 0.51793 0.0
C1323 C 0.87295 0.72779 0.53045 0.0
C1324 C 0.86156 0.70062 0.53497 0.0
C1325 C 0.83682 0.68249 0.52651 0.0
H1326 H 0.0741 0.74292 0.66291 0.0
H1327 H 0.05648 0.79625 0.6297 0.0
H1328 H 0.09584 0.83422 0.64444 0.0
H1329 H 0.09396 0.78058 0.70825 0.0
H1330 H 0.11958 0.77305 0.71405 0.0
H1331 H 0.09117 0.75005 0.6997 0.0
H1332 H 0.1217 0.75091 0.67096 0.0
H1333 H 0.15023 0.77392 0.68524 0.0
H1334 H 0.1454 0.782 0.65989 0.0
H1335 H 0.1361 0.86652 0.66405 0.0
H1336 H 0.17357 0.89051 0.68747 0.0
H1337 H 0.16429 0.81605 0.7083 0.0
C1338 C 0.07844 0.76255 0.6587 0.0
C1339 C 0.06217 0.76648 0.64497 0.0
C1340 C 0.06884 0.7926 0.63982 0.0
C1341 C 0.0911 0.81435 0.64822 0.0
C1342 C 0.10651 0.80972 0.66182 0.0
C1343 C 0.10046 0.78446 0.66704 0.0
C1344 C 0.11961 0.78484 0.68261 0.0
C1345 C 0.10522 0.77134 0.70232 0.0
C1346 C 0.13516 0.77217 0.67416 0.0
C1347 C 0.13724 0.81426 0.68549 0.0
C1348 C 0.12948 0.82829 0.67327 0.0
C1349 C 0.14247 0.85575 0.67359 0.0
C1350 C 0.16384 0.86921 0.68686 0.0
C1351 C 0.17196 0.85521 0.69971 0.0
C1352 C 0.15848 0.82735 0.69881 0.0
H1353 H 0.33398 0.07471 0.82284 0.0
H1354 H 0.26752 0.06425 0.78676 0.0
H1355 H 0.27072 0.10416 0.80226 0.0
H1356 H 0.31597 0.09409 0.86724 0.0
H1357 H 0.34908 0.118 0.87475 0.0
H1358 H 0.3434 0.09029 0.85938 0.0
H1359 H 0.37588 0.12191 0.83237 0.0
H1360 H 0.38184 0.14976 0.84775 0.0
H1361 H 0.37092 0.14756 0.82198 0.0
H1362 H 0.27904 0.14318 0.82352 0.0
H1363 H 0.29178 0.17835 0.84894 0.0
H1364 H 0.3533 0.16377 0.87084 0.0
C1365 C 0.32055 0.08122 0.81782 0.0
C1366 C 0.3006 0.06649 0.8035 0.0
C1367 C 0.28291 0.07523 0.79774 0.0
C1368 C 0.28464 0.09791 0.8064 0.0
C1369 C 0.3042 0.11168 0.82077 0.0
C1370 C 0.32192 0.10374 0.82638 0.0
C1371 C 0.34004 0.12108 0.84306 0.0
C1372 C 0.33692 0.10489 0.86224 0.0
C1373 C 0.36888 0.13596 0.83585 0.0
C1374 C 0.32942 0.13969 0.84622 0.0
C1375 C 0.30891 0.13409 0.8331 0.0
C1376 C 0.29532 0.14798 0.83369 0.0
C1377 C 0.3028 0.16803 0.84813 0.0
C1378 C 0.32363 0.17398 0.86188 0.0
C1379 C 0.33718 0.15966 0.86068 0.0
H1380 H 0.69727 0.77296 0.85975 0.0
H1381 H 0.73763 0.75448 0.81297 0.0
H1382 H 0.73411 0.78548 0.78991 0.0
H1383 H 0.65126 0.77855 0.82609 0.0
H1384 H 0.65206 0.80559 0.83972 0.0
H1385 H 0.65771 0.78193 0.8529 0.0
H1386 H 0.70241 0.81968 0.86607 0.0
H1387 H 0.69692 0.84345 0.85292 0.0
H1388 H 0.72657 0.84208 0.84827 0.0
H1389 H 0.72663 0.81801 0.77185 0.0
H1390 H 0.71514 0.85053 0.75939 0.0
H1391 H 0.67929 0.84879 0.81731 0.0
C1392 C 0.70524 0.77538 0.84462 0.0
C1393 C 0.71808 0.76153 0.83829 0.0
C1394 C 0.72828 0.76529 0.81837 0.0
C1395 C 0.72621 0.78272 0.80507 0.0
C1396 C 0.71375 0.79623 0.81182 0.0
C1397 C 0.70335 0.79281 0.83106 0.0
C1398 C 0.69098 0.80998 0.83432 0.0
C1399 C 0.66123 0.79299 0.8385 0.0
C1400 C 0.70507 0.82999 0.85141 0.0
C1401 C 0.69616 0.82356 0.81392 0.0
C1402 C 0.70933 0.81525 0.80124 0.0
C1403 C 0.71645 0.82482 0.78165 0.0
C1404 C 0.71001 0.84349 0.77478 0.0
C1405 C 0.69665 0.85257 0.78744 0.0
C1406 C 0.6895 0.84226 0.80727 0.0
H1407 H 0.85824 0.70392 0.95795 0.0
H1408 H 0.7956 0.65079 0.99838 0.0
H1409 H 0.8289 0.65671 0.0239 0.0
H1410 H 0.90056 0.67902 0.9682 0.0
H1411 H 0.93048 0.71047 0.96641 0.0
H1412 H 0.9017 0.70466 0.95242 0.0
H1413 H 0.90354 0.74559 0.96914 0.0
H1414 H 0.93241 0.75156 0.98318 0.0
H1415 H 0.90382 0.748 0.99632 0.0
H1416 H 0.86943 0.66596 0.04408 0.0
H1417 H 0.91354 0.67678 0.05667 0.0
H1418 H 0.94923 0.72223 0.00231 0.0
C1419 C 0.85139 0.69351 0.97216 0.0
C1420 C 0.82416 0.67688 0.97608 0.0
C1421 C 0.81624 0.664 0.99506 0.0
C1422 C 0.83505 0.66713 0.00965 0.0
C1423 C 0.86171 0.68321 0.00505 0.0
C1424 C 0.86984 0.69619 0.98675 0.0
C1425 C 0.89962 0.71092 0.98491 0.0
C1426 C 0.9086 0.70064 0.96693 0.0
C1427 C 0.91048 0.74079 0.9833 0.0
C1428 C 0.90701 0.70377 0.00487 0.0
C1429 C 0.88492 0.68807 0.01642 0.0
C1430 C 0.88686 0.67843 0.03523 0.0
C1431 C 0.91199 0.68476 0.04229 0.0
C1432 C 0.93479 0.70033 0.03046 0.0
C1433 C 0.93215 0.71015 0.01163 0.0
H1434 H 0.25278 0.94178 0.16117 0.0
H1435 H 0.21483 0.93098 0.21963 0.0
H1436 H 0.17861 0.88775 0.20846 0.0
H1437 H 0.1933 0.91461 0.13212 0.0
H1438 H 0.20434 0.89951 0.11373 0.0
H1439 H 0.22801 0.92887 0.1268 0.0
H1440 H 0.25263 0.90487 0.13891 0.0
H1441 H 0.22899 0.8754 0.12592 0.0
H1442 H 0.23478 0.87425 0.15256 0.0
H1443 H 0.14596 0.84565 0.19056 0.0
H1444 H 0.11884 0.80926 0.16687 0.0
H1445 H 0.17738 0.84888 0.11991 0.0
C1446 C 0.23681 0.93052 0.17165 0.0
C1447 C 0.23688 0.93992 0.19137 0.0
C1448 C 0.21563 0.92414 0.20459 0.0
C1449 C 0.19483 0.89958 0.19834 0.0
C1450 C 0.19541 0.89105 0.17878 0.0
C1451 C 0.2158 0.90613 0.16561 0.0
C1452 C 0.21136 0.89293 0.14517 0.0
C1453 C 0.20911 0.91 0.12847 0.0
C1454 C 0.23324 0.88648 0.14037 0.0
C1455 C 0.1852 0.86813 0.14884 0.0
C1456 C 0.1764 0.86725 0.16837 0.0
C1457 C 0.15267 0.84614 0.17524 0.0
C1458 C 0.13747 0.82552 0.16173 0.0
C1459 C 0.14594 0.82631 0.14155 0.0
C1460 C 0.17022 0.84787 0.13517 0.0
H1461 H 0.34461 0.17815 0.30135 0.0
H1462 H 0.27499 0.10439 0.31758 0.0
H1463 H 0.26056 0.12846 0.34012 0.0
H1464 H 0.35542 0.21015 0.35118 0.0
H1465 H 0.36554 0.24204 0.34033 0.0
H1466 H 0.37153 0.21877 0.32689 0.0
H1467 H 0.3465 0.22227 0.29581 0.0
H1468 H 0.34036 0.24544 0.30917 0.0
H1469 H 0.31316 0.21582 0.29885 0.0
H1470 H 0.25225 0.16073 0.3591 0.0
H1471 H 0.2506 0.19896 0.37315 0.0
H1472 H 0.32537 0.25182 0.34425 0.0
C1473 C 0.32665 0.16702 0.31002 0.0
C1474 C 0.31097 0.13938 0.30782 0.0
C1475 C 0.28723 0.12558 0.31901 0.0
C1476 C 0.27895 0.13906 0.3319 0.0
C1477 C 0.29463 0.16636 0.33346 0.0
C1478 C 0.31801 0.1802 0.32287 0.0
C1479 C 0.33038 0.20962 0.32631 0.0
C1480 C 0.35731 0.2208 0.33681 0.0
C1481 C 0.33272 0.22413 0.30635 0.0
C1482 C 0.3101 0.21018 0.34026 0.0
C1483 C 0.28973 0.185 0.3443 0.0
C1484 C 0.26819 0.18053 0.35615 0.0
C1485 C 0.26734 0.20237 0.36397 0.0
C1486 C 0.28787 0.22839 0.35986 0.0
C1487 C 0.30961 0.2322 0.34798 0.0
H1488 H 0.14425 0.3071 0.45207 0.0
H1489 H 0.20564 0.34017 0.49775 0.0
H1490 H 0.17239 0.33435 0.5234 0.0
H1491 H 0.10946 0.33844 0.46886 0.0
H1492 H 0.07728 0.31092 0.46323 0.0
H1493 H 0.10554 0.31574 0.44894 0.0
H1494 H 0.09524 0.26851 0.45816 0.0
H1495 H 0.06688 0.26352 0.47245 0.0
H1496 H 0.09197 0.25887 0.48436 0.0
H1497 H 0.13255 0.32744 0.54361 0.0
H1498 H 0.08968 0.31996 0.55654 0.0
H1499 H 0.05477 0.29134 0.49745 0.0
C1500 C 0.15076 0.31311 0.46746 0.0
C1501 C 0.17761 0.32412 0.47287 0.0
C1502 C 0.18516 0.33138 0.49327 0.0
C1503 C 0.16643 0.32826 0.50793 0.0
C1504 C 0.1402 0.31773 0.50198 0.0
C1505 C 0.13238 0.31016 0.48224 0.0
C1506 C 0.10322 0.30025 0.47952 0.0
C1507 C 0.09862 0.31736 0.46424 0.0
C1508 C 0.08846 0.27105 0.47326 0.0
C1509 C 0.0959 0.30384 0.50074 0.0
C1510 C 0.11742 0.31378 0.51354 0.0
C1511 C 0.11552 0.31943 0.53375 0.0
C1512 C 0.09105 0.31499 0.54099 0.0
C1513 C 0.06881 0.30511 0.52804 0.0
C1514 C 0.0714 0.29922 0.50772 0.0
H1515 H 0.85303 0.14486 0.62464 0.0
H1516 H 0.84419 0.20629 0.65429 0.0
H1517 H 0.81231 0.17347 0.67793 0.0
H1518 H 0.78471 0.09713 0.62599 0.0
H1519 H 0.78985 0.06957 0.62996 0.0
H1520 H 0.81426 0.09832 0.61669 0.0
H1521 H 0.84999 0.10291 0.64213 0.0
H1522 H 0.82567 0.07417 0.6555 0.0
H1523 H 0.84489 0.10486 0.66881 0.0
H1524 H 0.77997 0.13372 0.69773 0.0
H1525 H 0.74774 0.08952 0.71076 0.0
H1526 H 0.77511 0.05371 0.66668 0.0
C1527 C 0.84446 0.15158 0.63602 0.0
C1528 C 0.85164 0.17849 0.63758 0.0
C1529 C 0.83985 0.1861 0.65297 0.0
C1530 C 0.82146 0.16751 0.66645 0.0
C1531 C 0.81472 0.14124 0.6643 0.0
C1532 C 0.82571 0.13323 0.64938 0.0
C1533 C 0.8138 0.10354 0.64948 0.0
C1534 C 0.79982 0.09144 0.62934 0.0
C1535 C 0.83485 0.09593 0.65427 0.0
C1536 C 0.7942 0.09612 0.66664 0.0
C1537 C 0.79531 0.11818 0.67518 0.0
C1538 C 0.77897 0.1163 0.6912 0.0
C1539 C 0.76082 0.09116 0.69855 0.0
C1540 C 0.75895 0.06827 0.68971 0.0
C1541 C 0.77602 0.07089 0.67363 0.0
H1542 H 0.2098 0.34495 0.2786 0.0
H1543 H 0.22475 0.41837 0.30635 0.0
H1544 H 0.20557 0.42796 0.27655 0.0
H1545 H 0.22622 0.37023 0.22751 0.0
H1546 H 0.20089 0.3401 0.21626 0.0
H1547 H 0.21578 0.33908 0.23982 0.0
H1548 H 0.16953 0.31421 0.2565 0.0
H1549 H 0.15451 0.31524 0.23302 0.0
H1550 H 0.14843 0.32845 0.2557 0.0
H1551 H 0.18381 0.429 0.24401 0.0
H1552 H 0.16149 0.42165 0.21105 0.0
H1553 H 0.16327 0.34881 0.20387 0.0
C1554 C 0.20938 0.36322 0.27835 0.0
C1555 C 0.21875 0.38087 0.29489 0.0
C1556 C 0.21734 0.40433 0.29403 0.0
C1557 C 0.20665 0.41005 0.2771 0.0
C1558 C 0.19757 0.39219 0.26111 0.0
C1559 C 0.19892 0.36931 0.26156 0.0
C1560 C 0.18766 0.35332 0.24245 0.0
C1561 C 0.20891 0.35053 0.23082 0.0
C1562 C 0.16361 0.3262 0.24721 0.0
C1563 C 0.17965 0.37073 0.23123 0.0
C1564 C 0.1855 0.39304 0.24224 0.0
C1565 C 0.17937 0.41173 0.23515 0.0
C1566 C 0.16686 0.40746 0.21632 0.0
C1567 C 0.16071 0.38472 0.20472 0.0
C1568 C 0.16741 0.36627 0.21236 0.0
H1569 H 0.82948 0.20823 0.46144 0.0
H1570 H 0.91036 0.23765 0.44211 0.0
H1571 H 0.89458 0.21816 0.40838 0.0
H1572 H 0.80118 0.14643 0.43467 0.0
H1573 H 0.77131 0.14643 0.42802 0.0
H1574 H 0.78888 0.16279 0.45071 0.0
H1575 H 0.79172 0.20619 0.43854 0.0
H1576 H 0.77417 0.18997 0.4158 0.0
H1577 H 0.80597 0.21951 0.41417 0.0
H1578 H 0.87038 0.19482 0.37728 0.0
H1579 H 0.83919 0.16963 0.35014 0.0
H1580 H 0.77371 0.15646 0.38892 0.0
C1581 C 0.84381 0.21044 0.45011 0.0
C1582 C 0.87115 0.22453 0.45432 0.0
C1583 C 0.88936 0.22723 0.43909 0.0
C1584 C 0.88059 0.21613 0.41994 0.0
C1585 C 0.85356 0.20246 0.41623 0.0
C1586 C 0.83541 0.19961 0.43082 0.0
C1587 C 0.80746 0.1841 0.42276 0.0
C1588 C 0.79126 0.15841 0.43475 0.0
C1589 C 0.79405 0.20095 0.42282 0.0
C1590 C 0.81281 0.17859 0.40141 0.0
C1591 C 0.83953 0.18934 0.39803 0.0
C1592 C 0.84941 0.18654 0.37965 0.0
C1593 C 0.83148 0.17236 0.36425 0.0
C1594 C 0.80393 0.16131 0.36721 0.0
C1595 C 0.79459 0.16454 0.38613 0.0
H1596 H 0.63522 0.86318 0.60918 0.0
H1597 H 0.61072 0.80154 0.6543 0.0
H1598 H 0.60391 0.7694 0.62747 0.0
H1599 H 0.58953 0.82194 0.56913 0.0
H1600 H 0.61343 0.83843 0.54936 0.0
H1601 H 0.6144 0.85614 0.57192 0.0
H1602 H 0.66309 0.86866 0.57779 0.0
H1603 H 0.66226 0.85097 0.55529 0.0
H1604 H 0.67148 0.84296 0.57912 0.0
H1605 H 0.60264 0.74479 0.59627 0.0
H1606 H 0.60704 0.72919 0.56257 0.0
H1607 H 0.63218 0.80671 0.53763 0.0
C1608 C 0.62791 0.8428 0.61334 0.0
C1609 C 0.62345 0.83479 0.63378 0.0
C1610 C 0.61445 0.80809 0.63872 0.0
C1611 C 0.61037 0.78969 0.62359 0.0
C1612 C 0.61531 0.79829 0.60361 0.0
C1613 C 0.62382 0.82419 0.59842 0.0
C1614 C 0.6291 0.8286 0.57594 0.0
C1615 C 0.6105 0.83675 0.566 0.0
C1616 C 0.65821 0.849 0.5718 0.0
C1617 C 0.6226 0.80124 0.56936 0.0
C1618 C 0.61455 0.78403 0.58555 0.0
C1619 C 0.60869 0.75799 0.58344 0.0
C1620 C 0.61137 0.74936 0.56429 0.0
C1621 C 0.61984 0.76673 0.54753 0.0
C1622 C 0.6252 0.7929 0.55011 0.0
H1623 H 0.85081 0.65846 0.71112 0.0
H1624 H 0.84325 0.58086 0.71229 0.0
H1625 H 0.81853 0.57113 0.7444 0.0
H1626 H 0.86027 0.67095 0.76391 0.0
H1627 H 0.84136 0.68754 0.76523 0.0
H1628 H 0.85794 0.68817 0.74212 0.0
H1629 H 0.8137 0.66876 0.72261 0.0
H1630 H 0.797 0.66818 0.74565 0.0
H1631 H 0.78573 0.63839 0.73114 0.0
H1632 H 0.79528 0.57021 0.77671 0.0
H1633 H 0.77541 0.57829 0.80688 0.0
H1634 H 0.79725 0.65601 0.7839 0.0
C1635 C 0.84367 0.63928 0.71797 0.0
C1636 C 0.84898 0.62042 0.70919 0.0
C1637 C 0.83968 0.59574 0.71886 0.0
C1638 C 0.8255 0.58996 0.73703 0.0
C1639 C 0.82074 0.60906 0.74531 0.0
C1640 C 0.8295 0.6332 0.73608 0.0
C1641 C 0.82214 0.65046 0.74825 0.0
C1642 C 0.8469 0.67577 0.75529 0.0
C1643 C 0.80353 0.65681 0.73619 0.0
C1644 C 0.808 0.63232 0.76585 0.0
C1645 C 0.80733 0.60851 0.76386 0.0
C1646 C 0.79555 0.58872 0.77837 0.0
C1647 C 0.78421 0.59344 0.7954 0.0
C1648 C 0.78476 0.61777 0.79777 0.0
C1649 C 0.79677 0.63734 0.78268 0.0
H1650 H 0.21423 0.83127 0.88118 0.0
H1651 H 0.20805 0.90199 0.88586 0.0
H1652 H 0.18462 0.88622 0.91824 0.0
H1653 H 0.14943 0.78683 0.90134 0.0
H1654 H 0.15988 0.76681 0.91472 0.0
H1655 H 0.17676 0.78382 0.89199 0.0
H1656 H 0.22117 0.80648 0.9114 0.0
H1657 H 0.20442 0.78956 0.93419 0.0
H1658 H 0.22421 0.82501 0.934 0.0
H1659 H 0.16195 0.86319 0.94988 0.0
H1660 H 0.14043 0.83361 0.97882 0.0
H1661 H 0.1603 0.77722 0.95368 0.0
C1662 C 0.20781 0.84336 0.88894 0.0
C1663 C 0.21328 0.86804 0.88104 0.0
C1664 C 0.20466 0.88331 0.89178 0.0
C1665 C 0.19114 0.87445 0.91013 0.0
C1666 C 0.18623 0.85017 0.91753 0.0
C1667 C 0.19416 0.83476 0.90729 0.0
C1668 C 0.1861 0.80931 0.91857 0.0
C1669 C 0.1669 0.78527 0.9059 0.0
C1670 C 0.21043 0.8075 0.92492 0.0
C1671 C 0.17241 0.8129 0.93673 0.0
C1672 C 0.1728 0.83666 0.93581 0.0
C1673 C 0.16156 0.84455 0.95082 0.0
C1674 C 0.14954 0.82769 0.96726 0.0
C1675 C 0.14884 0.80319 0.96858 0.0
C1676 C 0.1604 0.79574 0.95303 0.0
H1677 H 0.37062 0.14234 0.11242 0.0
H1678 H 0.39704 0.20679 0.15527 0.0
H1679 H 0.4037 0.23737 0.12726 0.0
H1680 H 0.41617 0.18081 0.07136 0.0
H1681 H 0.39195 0.16335 0.05198 0.0
H1682 H 0.39105 0.14691 0.07525 0.0
H1683 H 0.3426 0.13531 0.081 0.0
H1684 H 0.34336 0.15172 0.05781 0.0
H1685 H 0.33462 0.16133 0.08115 0.0
H1686 H 0.40453 0.26018 0.09506 0.0
H1687 H 0.39965 0.27378 0.06071 0.0
H1688 H 0.37344 0.1947 0.03872 0.0
C1689 C 0.37834 0.16299 0.11587 0.0
C1690 C 0.38334 0.17221 0.13603 0.0
C1691 C 0.39284 0.19927 0.13996 0.0
C1692 C 0.39686 0.21681 0.12414 0.0
C1693 C 0.39142 0.20701 0.10448 0.0
C1694 C 0.38248 0.18077 0.10026 0.0
C1695 C 0.37687 0.17503 0.07792 0.0
C1696 C 0.3951 0.166 0.06858 0.0
C1697 C 0.34763 0.15465 0.07427 0.0
C1698 C 0.3836 0.20205 0.07029 0.0
C1699 C 0.3921 0.22024 0.08584 0.0
C1700 C 0.39816 0.2462 0.08272 0.0
C1701 C 0.39522 0.2537 0.06322 0.0
C1702 C 0.3863 0.23531 0.04711 0.0
C1703 C 0.38076 0.20927 0.05069 0.0
loop_
_geom_bond_atom_site_label_1
_geom_bond_atom_site_label_2
_geom_bond_distance
_geom_bond_site_symmetry_2
_ccdc_geom_bond_type
Li0 N17 1.990 . S
Li0 O60 1.956 . S
Li0 O61 1.970 . S
Li0 O62 1.961 . S
Li1 N25 1.990 . S
Li1 O60 1.970 . S
Li1 O61 1.956 . S
Li1 O63 1.961 . S
Li2 N47 1.990 . S
Li2 O60 1.961 . S
Li2 O62 1.956 . S
Li2 O63 1.970 . S
Li3 N53 1.990 . S
Li3 O61 1.961 . S
Li3 O62 1.970 . S
Li3 O63 1.956 . S
C4 C6 1.348 . S
C4 C7 1.356 . S
C4 O60 1.325 . S
N5 C8 1.314 . S
N5 C9 1.279 . S
C6 C4 1.348 . S
C6 C8 1.353 . S
C6 H64 0.929 . S
C7 C4 1.356 . S
C7 C9 1.358 . S
C7 H65 0.930 . S
C8 N5 1.314 . S
C8 C6 1.353 . S
C8 H66 0.930 . S
C9 N5 1.279 . S
C9 C7 1.358 . S
C9 H67 0.930 . S
C10 C13 1.348 . S
C10 C14 1.356 . S
C10 O61 1.325 . S
C11 N12 1.279 . S
C11 C14 1.358 . S
C11 H68 0.930 . S
N12 C11 1.279 . S
N12 C15 1.314 . S
C13 C10 1.348 . S
C13 C15 1.353 . S
C13 H69 0.929 . S
C14 C10 1.356 . S
C14 C11 1.358 . S
C14 H70 0.930 . S
C15 N12 1.314 . S
C15 C13 1.353 . S
C15 H71 0.930 . S
C16 N17 1.314 . S
C16 C21 1.353 . S
C16 H22 0.930 . S
N17 Li0 1.990 . S
N17 C16 1.314 . S
N17 C19 1.279 . S
C18 C19 1.358 . S
C18 C20 1.356 . S
C18 H72 0.930 . S
C19 N17 1.279 . S
C19 C18 1.358 . S
C19 H23 0.930 . S
C20 C18 1.356 . S
C20 C21 1.348 . S
C21 C16 1.353 . S
C21 C20 1.348 . S
C21 H73 0.929 . S
H22 C16 0.930 . S
H23 C19 0.930 . S
C24 N25 1.314 . S
C24 C26 1.353 . S
C24 H30 0.930 . S
N25 Li1 1.990 . S
N25 C24 1.314 . S
N25 C28 1.279 . S
C26 C24 1.353 . S
C26 C29 1.348 . S
C26 H74 0.929 . S
C27 C28 1.358 . S
C27 C29 1.356 . S
C27 H75 0.930 . S
C28 N25 1.279 . S
C28 C27 1.358 . S
C28 H31 0.930 . S
C29 C26 1.348 . S
C29 C27 1.356 . S
H30 C24 0.930 . S
H31 C28 0.930 . S
C32 C34 1.348 . S
C32 C35 1.356 . S
C32 O62 1.325 . S
N33 C36 1.314 . S
N33 C37 1.279 . S
C34 C32 1.348 . S
C34 C36 1.353 . S
C34 H76 0.929 . S
C35 C32 1.356 . S
C35 C37 1.358 . S
C35 H77 0.930 . S
C36 N33 1.314 . S
C36 C34 1.353 . S
C36 H78 0.930 . S
C37 N33 1.279 . S
C37 C35 1.358 . S
C37 H79 0.930 . S
C38 C39 1.348 . S
C38 C40 1.356 . S
C38 O63 1.325 . S
C39 C38 1.348 . S
C39 C41 1.353 . S
C39 H80 0.929 . S
C40 C38 1.356 . S
C40 C42 1.358 . S
C40 H81 0.930 . S
C41 C39 1.353 . S
C41 N43 1.314 . S
C41 H82 0.930 . S
C42 C40 1.358 . S
C42 N43 1.279 . S
C42 H83 0.930 . S
N43 C41 1.314 . S
N43 C42 1.279 . S
C44 C46 1.353 1_455 S
C44 N47 1.314 . S
C44 H50 0.930 . S
C45 N47 1.279 1_655 S
C45 C48 1.358 . S
C45 H51 0.930 . S
C46 C44 1.353 1_655 S
C46 C49 1.348 . S
C46 H84 0.929 . S
N47 Li2 1.990 . S
N47 C44 1.314 . S
N47 C45 1.279 1_455 S
C48 C45 1.358 . S
C48 C49 1.356 . S
C48 H85 0.930 . S
C49 C46 1.348 . S
C49 C48 1.356 . S
H50 C44 0.930 . S
H51 C45 0.930 . S
C52 N53 1.314 . S
C52 C54 1.353 . S
C52 H58 0.930 . S
N53 Li3 1.990 . S
N53 C52 1.314 . S
N53 C56 1.279 . S
C54 C52 1.353 . S
C54 C57 1.348 . S
C54 H86 0.929 . S
C55 C56 1.358 . S
C55 C57 1.356 . S
C55 H87 0.930 . S
C56 N53 1.279 . S
C56 C55 1.358 . S
C56 H59 0.930 . S
C57 C54 1.348 . S
C57 C55 1.356 . S
H58 C52 0.930 . S
H59 C56 0.930 . S
O60 Li0 1.956 . S
O60 Li1 1.970 . S
O60 Li2 1.961 . S
O60 C4 1.325 . S
O61 Li0 1.970 . S
O61 Li1 1.956 . S
O61 Li3 1.961 . S
O61 C10 1.325 . S
O62 Li0 1.961 . S
O62 Li2 1.956 . S
O62 Li3 1.970 . S
O62 C32 1.325 . S
O63 Li1 1.961 . S
O63 Li2 1.970 . S
O63 Li3 1.956 . S
O63 C38 1.325 . S
H64 C6 0.929 . S
H65 C7 0.930 . S
H66 C8 0.930 . S
H67 C9 0.930 . S
H68 C11 0.930 . S
H69 C13 0.929 . S
H70 C14 0.930 . S
H71 C15 0.930 . S
H72 C18 0.930 . S
H73 C21 0.929 . S
H74 C26 0.929 . S
H75 C27 0.930 . S
H76 C34 0.929 . S
H77 C35 0.930 . S
H78 C36 0.930 . S
H79 C37 0.930 . S
H80 C39 0.929 . S
H81 C40 0.930 . S
H82 C41 0.930 . S
H83 C42 0.930 . S
H84 C46 0.929 . S
H85 C48 0.930 . S
H86 C54 0.929 . S
H87 C55 0.930 . S
Li88 N105 1.990 . S
Li88 O148 1.956 . S
Li88 O149 1.970 . S
Li88 O150 1.961 . S
Li89 N113 1.990 . S
Li89 O148 1.970 . S
Li89 O149 1.956 . S
Li89 O151 1.961 . S
Li90 N135 1.990 . S
Li90 O148 1.961 . S
Li90 O150 1.956 . S
Li90 O151 1.970 . S
Li91 N141 1.990 . S
Li91 O149 1.961 . S
Li91 O150 1.970 . S
Li91 O151 1.956 . S
C92 C94 1.348 . S
C92 C95 1.356 . S
C92 O148 1.325 . S
N93 C96 1.314 . S
N93 C97 1.279 . S
C94 C92 1.348 . S
C94 C96 1.353 . S
C94 H152 0.929 . S
C95 C92 1.356 . S
C95 C97 1.358 . S
C95 H153 0.930 . S
C96 N93 1.314 . S
C96 C94 1.353 . S
C96 H154 0.930 . S
C97 N93 1.279 . S
C97 C95 1.358 . S
C97 H155 0.930 . S
C98 C101 1.348 . S
C98 C102 1.356 . S
C98 O149 1.325 . S
C99 N100 1.279 . S
C99 C102 1.358 . S
C99 H156 0.930 . S
N100 C99 1.279 . S
N100 C103 1.314 . S
C101 C98 1.348 . S
C101 C103 1.353 . S
C101 H157 0.929 . S
C102 C98 1.356 . S
C102 C99 1.358 . S
C102 H158 0.930 . S
C103 N100 1.314 . S
C103 C101 1.353 . S
C103 H159 0.930 . S
C104 N105 1.314 . S
C104 C109 1.353 . S
C104 H110 0.930 . S
N105 Li88 1.990 . S
N105 C104 1.314 . S
N105 C107 1.279 . S
C106 C107 1.358 . S
C106 C108 1.356 . S
C106 H160 0.930 . S
C107 N105 1.279 . S
C107 C106 1.358 . S
C107 H111 0.930 . S
C108 C106 1.356 . S
C108 C109 1.348 . S
C109 C104 1.353 . S
C109 C108 1.348 . S
C109 H161 0.929 . S
H110 C104 0.930 . S
H111 C107 0.930 . S
C112 N113 1.314 . S
C112 C114 1.353 . S
C112 H118 0.930 . S
N113 Li89 1.990 . S
N113 C112 1.314 . S
N113 C116 1.279 . S
C114 C112 1.353 . S
C114 C117 1.348 . S
C114 H162 0.929 . S
C115 C116 1.358 . S
C115 C117 1.356 . S
C115 H163 0.930 . S
C116 N113 1.279 . S
C116 C115 1.358 . S
C116 H119 0.930 . S
C117 C114 1.348 . S
C117 C115 1.356 . S
H118 C112 0.930 . S
H119 C116 0.930 . S
C120 C122 1.348 . S
C120 C123 1.356 . S
C120 O150 1.325 . S
N121 C124 1.314 . S
N121 C125 1.279 . S
C122 C120 1.348 . S
C122 C124 1.353 . S
C122 H164 0.929 . S
C123 C120 1.356 . S
C123 C125 1.358 . S
C123 H165 0.930 . S
C124 N121 1.314 . S
C124 C122 1.353 . S
C124 H166 0.930 . S
C125 N121 1.279 . S
C125 C123 1.358 . S
C125 H167 0.930 . S
C126 C127 1.348 . S
C126 C128 1.356 . S
C126 O151 1.325 . S
C127 C126 1.348 . S
C127 C129 1.353 . S
C127 H168 0.929 . S
C128 C126 1.356 . S
C128 C130 1.358 . S
C128 H169 0.930 . S
C129 C127 1.353 . S
C129 N131 1.314 . S
C129 H170 0.930 . S
C130 C128 1.358 . S
C130 N131 1.279 . S
C130 H171 0.930 . S
N131 C129 1.314 . S
N131 C130 1.279 . S
C132 C134 1.353 1_545 S
C132 N135 1.314 . S
C132 H138 0.930 . S
C133 N135 1.279 1_565 S
C133 C136 1.358 . S
C133 H139 0.930 . S
C134 C132 1.353 1_565 S
C134 C137 1.348 . S
C134 H172 0.929 . S
N135 Li90 1.990 . S
N135 C132 1.314 . S
N135 C133 1.279 1_545 S
C136 C133 1.358 . S
C136 C137 1.356 . S
C136 H173 0.930 . S
C137 C134 1.348 . S
C137 C136 1.356 . S
H138 C132 0.930 . S
H139 C133 0.930 . S
C140 N141 1.314 . S
C140 C142 1.353 . S
C140 H146 0.930 . S
N141 Li91 1.990 . S
N141 C140 1.314 . S
N141 C144 1.279 . S
C142 C140 1.353 . S
C142 C145 1.348 . S
C142 H174 0.929 . S
C143 C144 1.358 . S
C143 C145 1.356 . S
C143 H175 0.930 . S
C144 N141 1.279 . S
C144 C143 1.358 . S
C144 H147 0.930 . S
C145 C142 1.348 . S
C145 C143 1.356 . S
H146 C140 0.930 . S
H147 C144 0.930 . S
O148 Li88 1.956 . S
O148 Li89 1.970 . S
O148 Li90 1.961 . S
O148 C92 1.325 . S
O149 Li88 1.970 . S
O149 Li89 1.956 . S
O149 Li91 1.961 . S
O149 C98 1.325 . S
O150 Li88 1.961 . S
O150 Li90 1.956 . S
O150 Li91 1.970 . S
O150 C120 1.325 . S
O151 Li89 1.961 . S
O151 Li90 1.970 . S
O151 Li91 1.956 . S
O151 C126 1.325 . S
H152 C94 0.929 . S
H153 C95 0.930 . S
H154 C96 0.930 . S
H155 C97 0.930 . S
H156 C99 0.930 . S
H157 C101 0.929 . S
H158 C102 0.930 . S
H159 C103 0.930 . S
H160 C106 0.930 . S
H161 C109 0.929 . S
H162 C114 0.929 . S
H163 C115 0.930 . S
H164 C122 0.929 . S
H165 C123 0.930 . S
H166 C124 0.930 . S
H167 C125 0.930 . S
H168 C127 0.929 . S
H169 C128 0.930 . S
H170 C129 0.930 . S
H171 C130 0.930 . S
H172 C134 0.929 . S
H173 C136 0.930 . S
H174 C142 0.929 . S
H175 C143 0.930 . S
Li176 N193 1.990 . S
Li176 O236 1.956 . S
Li176 O237 1.970 . S
Li176 O238 1.961 . S
Li177 N201 1.990 . S
Li177 O236 1.970 . S
Li177 O237 1.956 . S
Li177 O239 1.961 . S
Li178 N223 1.990 . S
Li178 O236 1.961 . S
Li178 O238 1.956 . S
Li178 O239 1.970 . S
Li179 N229 1.990 . S
Li179 O237 1.961 . S
Li179 O238 1.970 . S
Li179 O239 1.956 . S
C180 C182 1.348 . S
C180 C183 1.356 . S
C180 O236 1.325 . S
N181 C184 1.314 . S
N181 C185 1.279 . S
C182 C180 1.348 . S
C182 C184 1.353 . S
C182 H240 0.929 . S
C183 C180 1.356 . S
C183 C185 1.358 . S
C183 H241 0.930 . S
C184 N181 1.314 . S
C184 C182 1.353 . S
C184 H242 0.930 . S
C185 N181 1.279 . S
C185 C183 1.358 . S
C185 H243 0.930 . S
C186 C189 1.348 . S
C186 C190 1.356 . S
C186 O237 1.325 . S
C187 N188 1.279 . S
C187 C190 1.358 . S
C187 H244 0.930 . S
N188 C187 1.279 . S
N188 C191 1.314 . S
C189 C186 1.348 . S
C189 C191 1.353 . S
C189 H245 0.929 . S
C190 C186 1.356 . S
C190 C187 1.358 . S
C190 H246 0.930 . S
C191 N188 1.314 . S
C191 C189 1.353 . S
C191 H247 0.930 . S
C192 N193 1.314 . S
C192 C197 1.353 . S
C192 H198 0.930 . S
N193 Li176 1.990 . S
N193 C192 1.314 . S
N193 C195 1.279 . S
C194 C195 1.358 . S
C194 C196 1.356 . S
C194 H248 0.930 . S
C195 N193 1.279 . S
C195 C194 1.358 . S
C195 H199 0.930 . S
C196 C194 1.356 . S
C196 C197 1.348 . S
C197 C192 1.353 . S
C197 C196 1.348 . S
C197 H249 0.929 . S
H198 C192 0.930 . S
H199 C195 0.930 . S
C200 N201 1.314 . S
C200 C202 1.353 . S
C200 H206 0.930 . S
N201 Li177 1.990 . S
N201 C200 1.314 . S
N201 C204 1.279 . S
C202 C200 1.353 . S
C202 C205 1.348 . S
C202 H250 0.929 . S
C203 C204 1.358 . S
C203 C205 1.356 . S
C203 H251 0.930 . S
C204 N201 1.279 . S
C204 C203 1.358 . S
C204 H207 0.930 . S
C205 C202 1.348 . S
C205 C203 1.356 . S
H206 C200 0.930 . S
H207 C204 0.930 . S
C208 C210 1.348 . S
C208 C211 1.356 . S
C208 O238 1.325 . S
N209 C212 1.314 . S
N209 C213 1.279 . S
C210 C208 1.348 . S
C210 C212 1.353 . S
C210 H252 0.929 . S
C211 C208 1.356 . S
C211 C213 1.358 . S
C211 H253 0.930 . S
C212 N209 1.314 . S
C212 C210 1.353 . S
C212 H254 0.930 . S
C213 N209 1.279 . S
C213 C211 1.358 . S
C213 H255 0.930 . S
C214 C215 1.348 . S
C214 C216 1.356 . S
C214 O239 1.325 . S
C215 C214 1.348 . S
C215 C217 1.353 . S
C215 H256 0.929 . S
C216 C214 1.356 . S
C216 C218 1.358 . S
C216 H257 0.930 . S
C217 C215 1.353 . S
C217 N219 1.314 . S
C217 H258 0.930 . S
C218 C216 1.358 . S
C218 N219 1.279 . S
C218 H259 0.930 . S
N219 C217 1.314 . S
N219 C218 1.279 . S
C220 C222 1.353 . S
C220 N223 1.314 . S
C220 H226 0.930 . S
C221 N223 1.279 . S
C221 C224 1.358 . S
C221 H227 0.930 . S
C222 C220 1.353 . S
C222 C225 1.348 . S
C222 H260 0.929 . S
N223 Li178 1.990 . S
N223 C220 1.314 . S
N223 C221 1.279 . S
C224 C221 1.358 . S
C224 C225 1.356 . S
C224 H261 0.930 . S
C225 C222 1.348 . S
C225 C224 1.356 . S
H226 C220 0.930 . S
H227 C221 0.930 . S
C228 N229 1.314 . S
C228 C230 1.353 . S
C228 H234 0.930 . S
N229 Li179 1.990 . S
N229 C228 1.314 . S
N229 C232 1.279 . S
C230 C228 1.353 . S
C230 C233 1.348 . S
C230 H262 0.929 . S
C231 C232 1.358 . S
C231 C233 1.356 . S
C231 H263 0.930 . S
C232 N229 1.279 . S
C232 C231 1.358 . S
C232 H235 0.930 . S
C233 C230 1.348 . S
C233 C231 1.356 . S
H234 C228 0.930 . S
H235 C232 0.930 . S
O236 Li176 1.956 . S
O236 Li177 1.970 . S
O236 Li178 1.961 . S
O236 C180 1.325 . S
O237 Li176 1.970 . S
O237 Li177 1.956 . S
O237 Li179 1.961 . S
O237 C186 1.325 . S
O238 Li176 1.961 . S
O238 Li178 1.956 . S
O238 Li179 1.970 . S
O238 C208 1.325 . S
O239 Li177 1.961 . S
O239 Li178 1.970 . S
O239 Li179 1.956 . S
O239 C214 1.325 . S
H240 C182 0.929 . S
H241 C183 0.930 . S
H242 C184 0.930 . S
H243 C185 0.930 . S
H244 C187 0.930 . S
H245 C189 0.929 . S
H246 C190 0.930 . S
H247 C191 0.930 . S
H248 C194 0.930 . S
H249 C197 0.929 . S
H250 C202 0.929 . S
H251 C203 0.930 . S
H252 C210 0.929 . S
H253 C211 0.930 . S
H254 C212 0.930 . S
H255 C213 0.930 . S
H256 C215 0.929 . S
H257 C216 0.930 . S
H258 C217 0.930 . S
H259 C218 0.930 . S
H260 C222 0.929 . S
H261 C224 0.930 . S
H262 C230 0.929 . S
H263 C231 0.930 . S
Li264 N281 1.990 . S
Li264 O324 1.956 . S
Li264 O325 1.970 . S
Li264 O326 1.961 . S
Li265 N289 1.990 . S
Li265 O324 1.970 . S
Li265 O325 1.956 . S
Li265 O327 1.961 . S
Li266 N311 1.990 . S
Li266 O324 1.961 . S
Li266 O326 1.956 . S
Li266 O327 1.970 . S
Li267 N317 1.990 . S
Li267 O325 1.961 . S
Li267 O326 1.970 . S
Li267 O327 1.956 . S
C268 C270 1.348 . S
C268 C271 1.356 . S
C268 O324 1.325 . S
N269 C272 1.314 . S
N269 C273 1.279 . S
C270 C268 1.348 . S
C270 C272 1.353 . S
C270 H328 0.929 . S
C271 C268 1.356 . S
C271 C273 1.358 . S
C271 H329 0.930 . S
C272 N269 1.314 . S
C272 C270 1.353 . S
C272 H330 0.930 . S
C273 N269 1.279 . S
C273 C271 1.358 . S
C273 H331 0.930 . S
C274 C277 1.348 . S
C274 C278 1.356 . S
C274 O325 1.325 . S
C275 N276 1.279 . S
C275 C278 1.358 . S
C275 H332 0.930 . S
N276 C275 1.279 . S
N276 C279 1.314 . S
C277 C274 1.348 . S
C277 C279 1.353 . S
C277 H333 0.929 . S
C278 C274 1.356 . S
C278 C275 1.358 . S
C278 H334 0.930 . S
C279 N276 1.314 . S
C279 C277 1.353 . S
C279 H335 0.930 . S
C280 N281 1.314 . S
C280 C285 1.353 1_655 S
C280 H286 0.930 . S
N281 Li264 1.990 . S
N281 C280 1.314 . S
N281 C283 1.279 1_655 S
C282 C283 1.358 . S
C282 C284 1.356 . S
C282 H336 0.930 . S
C283 N281 1.279 1_455 S
C283 C282 1.358 . S
C283 H287 0.930 . S
C284 C282 1.356 . S
C284 C285 1.348 . S
C285 C280 1.353 1_455 S
C285 C284 1.348 . S
C285 H337 0.929 . S
H286 C280 0.930 . S
H287 C283 0.930 . S
C288 N289 1.314 . S
C288 C290 1.353 . S
C288 H294 0.930 . S
N289 Li265 1.990 . S
N289 C288 1.314 . S
N289 C292 1.279 . S
C290 C288 1.353 . S
C290 C293 1.348 . S
C290 H338 0.929 . S
C291 C292 1.358 . S
C291 C293 1.356 . S
C291 H339 0.930 . S
C292 N289 1.279 . S
C292 C291 1.358 . S
C292 H295 0.930 . S
C293 C290 1.348 . S
C293 C291 1.356 . S
H294 C288 0.930 . S
H295 C292 0.930 . S
C296 C298 1.348 . S
C296 C299 1.356 . S
C296 O326 1.325 . S
N297 C300 1.314 . S
N297 C301 1.279 . S
C298 C296 1.348 . S
C298 C300 1.353 . S
C298 H340 0.929 . S
C299 C296 1.356 . S
C299 C301 1.358 . S
C299 H341 0.930 . S
C300 N297 1.314 . S
C300 C298 1.353 . S
C300 H342 0.930 . S
C301 N297 1.279 . S
C301 C299 1.358 . S
C301 H343 0.930 . S
C302 C303 1.348 . S
C302 C304 1.356 . S
C302 O327 1.325 . S
C303 C302 1.348 . S
C303 C305 1.353 . S
C303 H344 0.929 . S
C304 C302 1.356 . S
C304 C306 1.358 . S
C304 H345 0.930 . S
C305 C303 1.353 . S
C305 N307 1.314 . S
C305 H346 0.930 . S
C306 C304 1.358 . S
C306 N307 1.279 . S
C306 H347 0.930 . S
N307 C305 1.314 . S
N307 C306 1.279 . S
C308 C310 1.353 . S
C308 N311 1.314 . S
C308 H314 0.930 . S
C309 N311 1.279 . S
C309 C312 1.358 . S
C309 H315 0.930 . S
C310 C308 1.353 . S
C310 C313 1.348 . S
C310 H348 0.929 . S
N311 Li266 1.990 . S
N311 C308 1.314 . S
N311 C309 1.279 . S
C312 C309 1.358 . S
C312 C313 1.356 . S
C312 H349 0.930 . S
C313 C310 1.348 . S
C313 C312 1.356 . S
H314 C308 0.930 . S
H315 C309 0.930 . S
C316 N317 1.314 . S
C316 C318 1.353 . S
C316 H322 0.930 . S
N317 Li267 1.990 . S
N317 C316 1.314 . S
N317 C320 1.279 . S
C318 C316 1.353 . S
C318 C321 1.348 . S
C318 H350 0.929 . S
C319 C320 1.358 . S
C319 C321 1.356 . S
C319 H351 0.930 . S
C320 N317 1.279 . S
C320 C319 1.358 . S
C320 H323 0.930 . S
C321 C318 1.348 . S
C321 C319 1.356 . S
H322 C316 0.930 . S
H323 C320 0.930 . S
O324 Li264 1.956 . S
O324 Li265 1.970 . S
O324 Li266 1.961 . S
O324 C268 1.325 . S
O325 Li264 1.970 . S
O325 Li265 1.956 . S
O325 Li267 1.961 . S
O325 C274 1.325 . S
O326 Li264 1.961 . S
O326 Li266 1.956 . S
O326 Li267 1.970 . S
O326 C296 1.325 . S
O327 Li265 1.961 . S
O327 Li266 1.970 . S
O327 Li267 1.956 . S
O327 C302 1.325 . S
H328 C270 0.929 . S
H329 C271 0.930 . S
H330 C272 0.930 . S
H331 C273 0.930 . S
H332 C275 0.930 . S
H333 C277 0.929 . S
H334 C278 0.930 . S
H335 C279 0.930 . S
H336 C282 0.930 . S
H337 C285 0.929 . S
H338 C290 0.929 . S
H339 C291 0.930 . S
H340 C298 0.929 . S
H341 C299 0.930 . S
H342 C300 0.930 . S
H343 C301 0.930 . S
H344 C303 0.929 . S
H345 C304 0.930 . S
H346 C305 0.930 . S
H347 C306 0.930 . S
H348 C310 0.929 . S
H349 C312 0.930 . S
H350 C318 0.929 . S
H351 C319 0.930 . S
Li352 N369 1.990 . S
Li352 O412 1.956 . S
Li352 O413 1.970 . S
Li352 O414 1.961 . S
Li353 N377 1.990 . S
Li353 O412 1.970 . S
Li353 O413 1.956 . S
Li353 O415 1.961 . S
Li354 N399 1.990 . S
Li354 O412 1.961 . S
Li354 O414 1.956 . S
Li354 O415 1.970 . S
Li355 N405 1.990 . S
Li355 O413 1.961 . S
Li355 O414 1.970 . S
Li355 O415 1.956 . S
C356 C358 1.348 . S
C356 C359 1.356 . S
C356 O412 1.325 . S
N357 C360 1.314 . S
N357 C361 1.279 . S
C358 C356 1.348 . S
C358 C360 1.353 . S
C358 H416 0.929 . S
C359 C356 1.356 . S
C359 C361 1.358 . S
C359 H417 0.930 . S
C360 N357 1.314 . S
C360 C358 1.353 . S
C360 H418 0.930 . S
C361 N357 1.279 . S
C361 C359 1.358 . S
C361 H419 0.930 . S
C362 C365 1.348 . S
C362 C366 1.356 . S
C362 O413 1.325 . S
C363 N364 1.279 . S
C363 C366 1.358 . S
C363 H420 0.930 . S
N364 C363 1.279 . S
N364 C367 1.314 . S
C365 C362 1.348 . S
C365 C367 1.353 . S
C365 H421 0.929 . S
C366 C362 1.356 . S
C366 C363 1.358 . S
C366 H422 0.930 . S
C367 N364 1.314 . S
C367 C365 1.353 . S
C367 H423 0.930 . S
C368 N369 1.314 . S
C368 C373 1.353 . S
C368 H374 0.930 . S
N369 Li352 1.990 . S
N369 C368 1.314 . S
N369 C371 1.279 . S
C370 C371 1.358 . S
C370 C372 1.356 . S
C370 H424 0.930 . S
C371 N369 1.279 . S
C371 C370 1.358 . S
C371 H375 0.930 . S
C372 C370 1.356 . S
C372 C373 1.348 . S
C373 C368 1.353 . S
C373 C372 1.348 . S
C373 H425 0.929 . S
H374 C368 0.930 . S
H375 C371 0.930 . S
C376 N377 1.314 . S
C376 C378 1.353 1_565 S
C376 H382 0.930 . S
N377 Li353 1.990 . S
N377 C376 1.314 . S
N377 C380 1.279 1_565 S
C378 C376 1.353 1_545 S
C378 C381 1.348 . S
C378 H426 0.929 . S
C379 C380 1.358 . S
C379 C381 1.356 . S
C379 H427 0.930 . S
C380 N377 1.279 1_545 S
C380 C379 1.358 . S
C380 H383 0.930 . S
C381 C378 1.348 . S
C381 C379 1.356 . S
H382 C376 0.930 . S
H383 C380 0.930 . S
C384 C386 1.348 . S
C384 C387 1.356 . S
C384 O414 1.325 . S
N385 C388 1.314 . S
N385 C389 1.279 . S
C386 C384 1.348 . S
C386 C388 1.353 . S
C386 H428 0.929 . S
C387 C384 1.356 . S
C387 C389 1.358 . S
C387 H429 0.930 . S
C388 N385 1.314 . S
C388 C386 1.353 . S
C388 H430 0.930 . S
C389 N385 1.279 . S
C389 C387 1.358 . S
C389 H431 0.930 . S
C390 C391 1.348 . S
C390 C392 1.356 . S
C390 O415 1.325 . S
C391 C390 1.348 . S
C391 C393 1.353 . S
C391 H432 0.929 . S
C392 C390 1.356 . S
C392 C394 1.358 . S
C392 H433 0.930 . S
C393 C391 1.353 . S
C393 N395 1.314 . S
C393 H434 0.930 . S
C394 C392 1.358 . S
C394 N395 1.279 . S
C394 H435 0.930 . S
N395 C393 1.314 . S
N395 C394 1.279 . S
C396 C398 1.353 . S
C396 N399 1.314 . S
C396 H402 0.930 . S
C397 N399 1.279 . S
C397 C400 1.358 . S
C397 H403 0.930 . S
C398 C396 1.353 . S
C398 C401 1.348 . S
C398 H436 0.929 . S
N399 Li354 1.990 . S
N399 C396 1.314 . S
N399 C397 1.279 . S
C400 C397 1.358 . S
C400 C401 1.356 . S
C400 H437 0.930 . S
C401 C398 1.348 . S
C401 C400 1.356 . S
H402 C396 0.930 . S
H403 C397 0.930 . S
C404 N405 1.314 . S
C404 C406 1.353 . S
C404 H410 0.930 . S
N405 Li355 1.990 . S
N405 C404 1.314 . S
N405 C408 1.279 . S
C406 C404 1.353 . S
C406 C409 1.348 . S
C406 H438 0.929 . S
C407 C408 1.358 . S
C407 C409 1.356 . S
C407 H439 0.930 . S
C408 N405 1.279 . S
C408 C407 1.358 . S
C408 H411 0.930 . S
C409 C406 1.348 . S
C409 C407 1.356 . S
H410 C404 0.930 . S
H411 C408 0.930 . S
O412 Li352 1.956 . S
O412 Li353 1.970 . S
O412 Li354 1.961 . S
O412 C356 1.325 . S
O413 Li352 1.970 . S
O413 Li353 1.956 . S
O413 Li355 1.961 . S
O413 C362 1.325 . S
O414 Li352 1.961 . S
O414 Li354 1.956 . S
O414 Li355 1.970 . S
O414 C384 1.325 . S
O415 Li353 1.961 . S
O415 Li354 1.970 . S
O415 Li355 1.956 . S
O415 C390 1.325 . S
H416 C358 0.929 . S
H417 C359 0.930 . S
H418 C360 0.930 . S
H419 C361 0.930 . S
H420 C363 0.930 . S
H421 C365 0.929 . S
H422 C366 0.930 . S
H423 C367 0.930 . S
H424 C370 0.930 . S
H425 C373 0.929 . S
H426 C378 0.929 . S
H427 C379 0.930 . S
H428 C386 0.929 . S
H429 C387 0.930 . S
H430 C388 0.930 . S
H431 C389 0.930 . S
H432 C391 0.929 . S
H433 C392 0.930 . S
H434 C393 0.930 . S
H435 C394 0.930 . S
H436 C398 0.929 . S
H437 C400 0.930 . S
H438 C406 0.929 . S
H439 C407 0.930 . S
Li440 N457 1.990 . S
Li440 O500 1.956 . S
Li440 O501 1.970 . S
Li440 O502 1.961 . S
Li441 N465 1.990 . S
Li441 O500 1.970 . S
Li441 O501 1.956 . S
Li441 O503 1.961 . S
Li442 N487 1.990 . S
Li442 O500 1.961 . S
Li442 O502 1.956 . S
Li442 O503 1.970 . S
Li443 N493 1.990 . S
Li443 O501 1.961 . S
Li443 O502 1.970 . S
Li443 O503 1.956 . S
C444 C446 1.348 . S
C444 C447 1.356 . S
C444 O500 1.325 . S
N445 C448 1.314 1_554 S
N445 C449 1.279 . S
C446 C444 1.348 . S
C446 C448 1.353 . S
C446 H504 0.929 . S
C447 C444 1.356 . S
C447 C449 1.358 1_556 S
C447 H505 0.930 . S
C448 N445 1.314 1_556 S
C448 C446 1.353 . S
C448 H506 0.930 . S
C449 N445 1.279 . S
C449 C447 1.358 1_554 S
C449 H507 0.930 . S
C450 C453 1.348 . S
C450 C454 1.356 . S
C450 O501 1.325 . S
C451 N452 1.279 . S
C451 C454 1.358 . S
C451 H508 0.930 . S
N452 C451 1.279 . S
N452 C455 1.314 . S
C453 C450 1.348 . S
C453 C455 1.353 . S
C453 H509 0.929 . S
C454 C450 1.356 . S
C454 C451 1.358 . S
C454 H510 0.930 . S
C455 N452 1.314 . S
C455 C453 1.353 . S
C455 H511 0.930 . S
C456 N457 1.314 . S
C456 C461 1.353 . S
C456 H462 0.930 . S
N457 Li440 1.990 . S
N457 C456 1.314 . S
N457 C459 1.279 . S
C458 C459 1.358 . S
C458 C460 1.356 . S
C458 H512 0.930 . S
C459 N457 1.279 . S
C459 C458 1.358 . S
C459 H463 0.930 . S
C460 C458 1.356 . S
C460 C461 1.348 . S
C461 C456 1.353 . S
C461 C460 1.348 . S
C461 H513 0.929 . S
H462 C456 0.930 . S
H463 C459 0.930 . S
C464 N465 1.314 . S
C464 C466 1.353 . S
C464 H470 0.930 . S
N465 Li441 1.990 . S
N465 C464 1.314 . S
N465 C468 1.279 . S
C466 C464 1.353 . S
C466 C469 1.348 . S
C466 H514 0.929 . S
C467 C468 1.358 . S
C467 C469 1.356 . S
C467 H515 0.930 . S
C468 N465 1.279 . S
C468 C467 1.358 . S
C468 H471 0.930 . S
C469 C466 1.348 . S
C469 C467 1.356 . S
H470 C464 0.930 . S
H471 C468 0.930 . S
C472 C474 1.348 . S
C472 C475 1.356 . S
C472 O502 1.325 . S
N473 C476 1.314 . S
N473 C477 1.279 . S
C474 C472 1.348 . S
C474 C476 1.353 . S
C474 H516 0.929 . S
C475 C472 1.356 . S
C475 C477 1.358 . S
C475 H517 0.930 . S
C476 N473 1.314 . S
C476 C474 1.353 . S
C476 H518 0.930 . S
C477 N473 1.279 . S
C477 C475 1.358 . S
C477 H519 0.930 . S
C478 C479 1.348 . S
C478 C480 1.356 . S
C478 O503 1.325 . S
C479 C478 1.348 . S
C479 C481 1.353 . S
C479 H520 0.929 . S
C480 C478 1.356 . S
C480 C482 1.358 . S
C480 H521 0.930 . S
C481 C479 1.353 . S
C481 N483 1.314 . S
C481 H522 0.930 . S
C482 C480 1.358 . S
C482 N483 1.279 . S
C482 H523 0.930 . S
N483 C481 1.314 . S
N483 C482 1.279 . S
C484 C486 1.353 . S
C484 N487 1.314 1_554 S
C484 H490 0.930 . S
C485 N487 1.279 . S
C485 C488 1.358 1_556 S
C485 H491 0.930 . S
C486 C484 1.353 . S
C486 C489 1.348 . S
C486 H524 0.929 . S
N487 Li442 1.990 . S
N487 C484 1.314 1_556 S
N487 C485 1.279 . S
C488 C485 1.358 1_554 S
C488 C489 1.356 . S
C488 H525 0.930 . S
C489 C486 1.348 . S
C489 C488 1.356 . S
H490 C484 0.930 . S
H491 C485 0.930 . S
C492 N493 1.314 . S
C492 C494 1.353 . S
C492 H498 0.930 . S
N493 Li443 1.990 . S
N493 C492 1.314 . S
N493 C496 1.279 . S
C494 C492 1.353 . S
C494 C497 1.348 . S
C494 H526 0.929 . S
C495 C496 1.358 . S
C495 C497 1.356 . S
C495 H527 0.930 . S
C496 N493 1.279 . S
C496 C495 1.358 . S
C496 H499 0.930 . S
C497 C494 1.348 . S
C497 C495 1.356 . S
H498 C492 0.930 . S
H499 C496 0.930 . S
O500 Li440 1.956 . S
O500 Li441 1.970 . S
O500 Li442 1.961 . S
O500 C444 1.325 . S
O501 Li440 1.970 . S
O501 Li441 1.956 . S
O501 Li443 1.961 . S
O501 C450 1.325 . S
O502 Li440 1.961 . S
O502 Li442 1.956 . S
O502 Li443 1.970 . S
O502 C472 1.325 . S
O503 Li441 1.961 . S
O503 Li442 1.970 . S
O503 Li443 1.956 . S
O503 C478 1.325 . S
H504 C446 0.929 . S
H505 C447 0.930 . S
H506 C448 0.930 . S
H507 C449 0.930 . S
H508 C451 0.930 . S
H509 C453 0.929 . S
H510 C454 0.930 . S
H511 C455 0.930 . S
H512 C458 0.930 . S
H513 C461 0.929 . S
H514 C466 0.929 . S
H515 C467 0.930 . S
H516 C474 0.929 . S
H517 C475 0.930 . S
H518 C476 0.930 . S
H519 C477 0.930 . S
H520 C479 0.929 . S
H521 C480 0.930 . S
H522 C481 0.930 . S
H523 C482 0.930 . S
H524 C486 0.929 . S
H525 C488 0.930 . S
H526 C494 0.929 . S
H527 C495 0.930 . S
Li528 N545 1.990 . S
Li528 O588 1.956 . S
Li528 O589 1.970 . S
Li528 O590 1.961 . S
Li529 N553 1.990 . S
Li529 O588 1.970 . S
Li529 O589 1.956 . S
Li529 O591 1.961 . S
Li530 N575 1.990 . S
Li530 O588 1.961 . S
Li530 O590 1.956 . S
Li530 O591 1.970 . S
Li531 N581 1.990 . S
Li531 O589 1.961 . S
Li531 O590 1.970 . S
Li531 O591 1.956 . S
C532 C534 1.348 . S
C532 C535 1.356 . S
C532 O588 1.325 . S
N533 C536 1.314 . S
N533 C537 1.279 . S
C534 C532 1.348 . S
C534 C536 1.353 . S
C534 H592 0.929 . S
C535 C532 1.356 . S
C535 C537 1.358 . S
C535 H593 0.930 . S
C536 N533 1.314 . S
C536 C534 1.353 . S
C536 H594 0.930 . S
C537 N533 1.279 . S
C537 C535 1.358 . S
C537 H595 0.930 . S
C538 C541 1.348 . S
C538 C542 1.356 . S
C538 O589 1.325 . S
C539 N540 1.279 . S
C539 C542 1.358 . S
C539 H596 0.930 . S
N540 C539 1.279 . S
N540 C543 1.314 . S
C541 C538 1.348 . S
C541 C543 1.353 . S
C541 H597 0.929 . S
C542 C538 1.356 . S
C542 C539 1.358 . S
C542 H598 0.930 . S
C543 N540 1.314 . S
C543 C541 1.353 . S
C543 H599 0.930 . S
C544 N545 1.314 . S
C544 C549 1.353 1_565 S
C544 H550 0.930 . S
N545 Li528 1.990 . S
N545 C544 1.314 . S
N545 C547 1.279 1_565 S
C546 C547 1.358 . S
C546 C548 1.356 . S
C546 H600 0.930 . S
C547 N545 1.279 1_545 S
C547 C546 1.358 . S
C547 H551 0.930 . S
C548 C546 1.356 . S
C548 C549 1.348 . S
C549 C544 1.353 1_545 S
C549 C548 1.348 . S
C549 H601 0.929 . S
H550 C544 0.930 . S
H551 C547 0.930 . S
C552 N553 1.314 . S
C552 C554 1.353 . S
C552 H558 0.930 . S
N553 Li529 1.990 . S
N553 C552 1.314 . S
N553 C556 1.279 . S
C554 C552 1.353 . S
C554 C557 1.348 . S
C554 H602 0.929 . S
C555 C556 1.358 . S
C555 C557 1.356 . S
C555 H603 0.930 . S
C556 N553 1.279 . S
C556 C555 1.358 . S
C556 H559 0.930 . S
C557 C554 1.348 . S
C557 C555 1.356 . S
H558 C552 0.930 . S
H559 C556 0.930 . S
C560 C562 1.348 . S
C560 C563 1.356 . S
C560 O590 1.325 . S
N561 C564 1.314 . S
N561 C565 1.279 . S
C562 C560 1.348 . S
C562 C564 1.353 . S
C562 H604 0.929 . S
C563 C560 1.356 . S
C563 C565 1.358 . S
C563 H605 0.930 . S
C564 N561 1.314 . S
C564 C562 1.353 . S
C564 H606 0.930 . S
C565 N561 1.279 . S
C565 C563 1.358 . S
C565 H607 0.930 . S
C566 C567 1.348 . S
C566 C568 1.356 . S
C566 O591 1.325 . S
C567 C566 1.348 . S
C567 C569 1.353 . S
C567 H608 0.929 . S
C568 C566 1.356 . S
C568 C570 1.358 . S
C568 H609 0.930 . S
C569 C567 1.353 . S
C569 N571 1.314 . S
C569 H610 0.930 . S
C570 C568 1.358 . S
C570 N571 1.279 . S
C570 H611 0.930 . S
N571 C569 1.314 . S
N571 C570 1.279 . S
C572 C574 1.353 . S
C572 N575 1.314 . S
C572 H578 0.930 . S
C573 N575 1.279 . S
C573 C576 1.358 . S
C573 H579 0.930 . S
C574 C572 1.353 . S
C574 C577 1.348 . S
C574 H612 0.929 . S
N575 Li530 1.990 . S
N575 C572 1.314 . S
N575 C573 1.279 . S
C576 C573 1.358 . S
C576 C577 1.356 . S
C576 H613 0.930 . S
C577 C574 1.348 . S
C577 C576 1.356 . S
H578 C572 0.930 . S
H579 C573 0.930 . S
C580 N581 1.314 . S
C580 C582 1.353 . S
C580 H586 0.930 . S
N581 Li531 1.990 . S
N581 C580 1.314 . S
N581 C584 1.279 . S
C582 C580 1.353 . S
C582 C585 1.348 . S
C582 H614 0.929 . S
C583 C584 1.358 . S
C583 C585 1.356 . S
C583 H615 0.930 . S
C584 N581 1.279 . S
C584 C583 1.358 . S
C584 H587 0.930 . S
C585 C582 1.348 . S
C585 C583 1.356 . S
H586 C580 0.930 . S
H587 C584 0.930 . S
O588 Li528 1.956 . S
O588 Li529 1.970 . S
O588 Li530 1.961 . S
O588 C532 1.325 . S
O589 Li528 1.970 . S
O589 Li529 1.956 . S
O589 Li531 1.961 . S
O589 C538 1.325 . S
O590 Li528 1.961 . S
O590 Li530 1.956 . S
O590 Li531 1.970 . S
O590 C560 1.325 . S
O591 Li529 1.961 . S
O591 Li530 1.970 . S
O591 Li531 1.956 . S
O591 C566 1.325 . S
H592 C534 0.929 . S
H593 C535 0.930 . S
H594 C536 0.930 . S
H595 C537 0.930 . S
H596 C539 0.930 . S
H597 C541 0.929 . S
H598 C542 0.930 . S
H599 C543 0.930 . S
H600 C546 0.930 . S
H601 C549 0.929 . S
H602 C554 0.929 . S
H603 C555 0.930 . S
H604 C562 0.929 . S
H605 C563 0.930 . S
H606 C564 0.930 . S
H607 C565 0.930 . S
H608 C567 0.929 . S
H609 C568 0.930 . S
H610 C569 0.930 . S
H611 C570 0.930 . S
H612 C574 0.929 . S
H613 C576 0.930 . S
H614 C582 0.929 . S
H615 C583 0.930 . S
Li616 N633 1.990 . S
Li616 O676 1.956 . S
Li616 O677 1.970 . S
Li616 O678 1.961 . S
Li617 N641 1.990 . S
Li617 O676 1.970 . S
Li617 O677 1.956 . S
Li617 O679 1.961 . S
Li618 N663 1.990 . S
Li618 O676 1.961 . S
Li618 O678 1.956 . S
Li618 O679 1.970 . S
Li619 N669 1.990 . S
Li619 O677 1.961 . S
Li619 O678 1.970 . S
Li619 O679 1.956 . S
C620 C622 1.348 . S
C620 C623 1.356 . S
C620 O676 1.325 . S
N621 C624 1.314 . S
N621 C625 1.279 . S
C622 C620 1.348 . S
C622 C624 1.353 . S
C622 H680 0.929 . S
C623 C620 1.356 . S
C623 C625 1.358 . S
C623 H681 0.930 . S
C624 N621 1.314 . S
C624 C622 1.353 . S
C624 H682 0.930 . S
C625 N621 1.279 . S
C625 C623 1.358 . S
C625 H683 0.930 . S
C626 C629 1.348 . S
C626 C630 1.356 . S
C626 O677 1.325 . S
C627 N628 1.279 . S
C627 C630 1.358 . S
C627 H684 0.930 . S
N628 C627 1.279 . S
N628 C631 1.314 . S
C629 C626 1.348 . S
C629 C631 1.353 . S
C629 H685 0.929 . S
C630 C626 1.356 . S
C630 C627 1.358 . S
C630 H686 0.930 . S
C631 N628 1.314 . S
C631 C629 1.353 . S
C631 H687 0.930 . S
C632 N633 1.314 . S
C632 C637 1.353 . S
C632 H638 0.930 . S
N633 Li616 1.990 . S
N633 C632 1.314 . S
N633 C635 1.279 . S
C634 C635 1.358 . S
C634 C636 1.356 . S
C634 H688 0.930 . S
C635 N633 1.279 . S
C635 C634 1.358 . S
C635 H639 0.930 . S
C636 C634 1.356 . S
C636 C637 1.348 . S
C637 C632 1.353 . S
C637 C636 1.348 . S
C637 H689 0.929 . S
H638 C632 0.930 . S
H639 C635 0.930 . S
C640 N641 1.314 . S
C640 C642 1.353 . S
C640 H646 0.930 . S
N641 Li617 1.990 . S
N641 C640 1.314 . S
N641 C644 1.279 . S
C642 C640 1.353 . S
C642 C645 1.348 . S
C642 H690 0.929 . S
C643 C644 1.358 . S
C643 C645 1.356 . S
C643 H691 0.930 . S
C644 N641 1.279 . S
C644 C643 1.358 . S
C644 H647 0.930 . S
C645 C642 1.348 . S
C645 C643 1.356 . S
H646 C640 0.930 . S
H647 C644 0.930 . S
C648 C650 1.348 . S
C648 C651 1.356 . S
C648 O678 1.325 . S
N649 C652 1.314 . S
N649 C653 1.279 . S
C650 C648 1.348 . S
C650 C652 1.353 . S
C650 H692 0.929 . S
C651 C648 1.356 . S
C651 C653 1.358 . S
C651 H693 0.930 . S
C652 N649 1.314 . S
C652 C650 1.353 . S
C652 H694 0.930 . S
C653 N649 1.279 . S
C653 C651 1.358 . S
C653 H695 0.930 . S
C654 C655 1.348 . S
C654 C656 1.356 . S
C654 O679 1.325 . S
C655 C654 1.348 . S
C655 C657 1.353 . S
C655 H696 0.929 . S
C656 C654 1.356 . S
C656 C658 1.358 . S
C656 H697 0.930 . S
C657 C655 1.353 . S
C657 N659 1.314 . S
C657 H698 0.930 . S
C658 C656 1.358 . S
C658 N659 1.279 . S
C658 H699 0.930 . S
N659 C657 1.314 . S
N659 C658 1.279 . S
C660 C662 1.353 . S
C660 N663 1.314 . S
C660 H666 0.930 . S
C661 N663 1.279 . S
C661 C664 1.358 . S
C661 H667 0.930 . S
C662 C660 1.353 . S
C662 C665 1.348 . S
C662 H700 0.929 . S
N663 Li618 1.990 . S
N663 C660 1.314 . S
N663 C661 1.279 . S
C664 C661 1.358 . S
C664 C665 1.356 . S
C664 H701 0.930 . S
C665 C662 1.348 . S
C665 C664 1.356 . S
H666 C660 0.930 . S
H667 C661 0.930 . S
C668 N669 1.314 . S
C668 C670 1.353 . S
C668 H674 0.930 . S
N669 Li619 1.990 . S
N669 C668 1.314 . S
N669 C672 1.279 . S
C670 C668 1.353 . S
C670 C673 1.348 . S
C670 H702 0.929 . S
C671 C672 1.358 . S
C671 C673 1.356 . S
C671 H703 0.930 . S
C672 N669 1.279 . S
C672 C671 1.358 . S
C672 H675 0.930 . S
C673 C670 1.348 . S
C673 C671 1.356 . S
H674 C668 0.930 . S
H675 C672 0.930 . S
O676 Li616 1.956 . S
O676 Li617 1.970 . S
O676 Li618 1.961 . S
O676 C620 1.325 . S
O677 Li616 1.970 . S
O677 Li617 1.956 . S
O677 Li619 1.961 . S
O677 C626 1.325 . S
O678 Li616 1.961 . S
O678 Li618 1.956 . S
O678 Li619 1.970 . S
O678 C648 1.325 . S
O679 Li617 1.961 . S
O679 Li618 1.970 . S
O679 Li619 1.956 . S
O679 C654 1.325 . S
H680 C622 0.929 . S
H681 C623 0.930 . S
H682 C624 0.930 . S
H683 C625 0.930 . S
H684 C627 0.930 . S
H685 C629 0.929 . S
H686 C630 0.930 . S
H687 C631 0.930 . S
H688 C634 0.930 . S
H689 C637 0.929 . S
H690 C642 0.929 . S
H691 C643 0.930 . S
H692 C650 0.929 . S
H693 C651 0.930 . S
H694 C652 0.930 . S
H695 C653 0.930 . S
H696 C655 0.929 . S
H697 C656 0.930 . S
H698 C657 0.930 . S
H699 C658 0.930 . S
H700 C662 0.929 . S
H701 C664 0.930 . S
H702 C670 0.929 . S
H703 C671 0.930 . S
Li704 N721 1.990 . S
Li704 O764 1.956 . S
Li704 O765 1.970 . S
Li704 O766 1.961 . S
Li705 N729 1.990 . S
Li705 O764 1.970 . S
Li705 O765 1.956 . S
Li705 O767 1.961 . S
Li706 N751 1.990 . S
Li706 O764 1.961 . S
Li706 O766 1.956 . S
Li706 O767 1.970 . S
Li707 N757 1.990 . S
Li707 O765 1.961 . S
Li707 O766 1.970 . S
Li707 O767 1.956 . S
C708 C710 1.348 . S
C708 C711 1.356 . S
C708 O764 1.325 . S
N709 C712 1.314 . S
N709 C713 1.279 . S
C710 C708 1.348 . S
C710 C712 1.353 . S
C710 H768 0.929 . S
C711 C708 1.356 . S
C711 C713 1.358 . S
C711 H769 0.930 . S
C712 N709 1.314 . S
C712 C710 1.353 . S
C712 H770 0.930 . S
C713 N709 1.279 . S
C713 C711 1.358 . S
C713 H771 0.930 . S
C714 C717 1.348 . S
C714 C718 1.356 . S
C714 O765 1.325 . S
C715 N716 1.279 . S
C715 C718 1.358 . S
C715 H772 0.930 . S
N716 C715 1.279 . S
N716 C719 1.314 . S
C717 C714 1.348 . S
C717 C719 1.353 . S
C717 H773 0.929 . S
C718 C714 1.356 . S
C718 C715 1.358 . S
C718 H774 0.930 . S
C719 N716 1.314 . S
C719 C717 1.353 . S
C719 H775 0.930 . S
C720 N721 1.314 1_556 S
C720 C725 1.353 . S
C720 H726 0.930 . S
N721 Li704 1.990 . S
N721 C720 1.314 1_554 S
N721 C723 1.279 . S
C722 C723 1.358 1_556 S
C722 C724 1.356 . S
C722 H776 0.930 . S
C723 N721 1.279 . S
C723 C722 1.358 1_554 S
C723 H727 0.930 . S
C724 C722 1.356 . S
C724 C725 1.348 . S
C725 C720 1.353 . S
C725 C724 1.348 . S
C725 H777 0.929 . S
H726 C720 0.930 . S
H727 C723 0.930 . S
C728 N729 1.314 . S
C728 C730 1.353 . S
C728 H734 0.930 . S
N729 Li705 1.990 . S
N729 C728 1.314 . S
N729 C732 1.279 . S
C730 C728 1.353 . S
C730 C733 1.348 . S
C730 H778 0.929 . S
C731 C732 1.358 . S
C731 C733 1.356 . S
C731 H779 0.930 . S
C732 N729 1.279 . S
C732 C731 1.358 . S
C732 H735 0.930 . S
C733 C730 1.348 . S
C733 C731 1.356 . S
H734 C728 0.930 . S
H735 C732 0.930 . S
C736 C738 1.348 . S
C736 C739 1.356 . S
C736 O766 1.325 . S
N737 C740 1.314 1_556 S
N737 C741 1.279 . S
C738 C736 1.348 . S
C738 C740 1.353 . S
C738 H780 0.929 . S
C739 C736 1.356 . S
C739 C741 1.358 1_554 S
C739 H781 0.930 . S
C740 N737 1.314 1_554 S
C740 C738 1.353 . S
C740 H782 0.930 . S
C741 N737 1.279 . S
C741 C739 1.358 1_556 S
C741 H783 0.930 . S
C742 C743 1.348 . S
C742 C744 1.356 . S
C742 O767 1.325 . S
C743 C742 1.348 . S
C743 C745 1.353 . S
C743 H784 0.929 . S
C744 C742 1.356 . S
C744 C746 1.358 . S
C744 H785 0.930 . S
C745 C743 1.353 . S
C745 N747 1.314 . S
C745 H786 0.930 . S
C746 C744 1.358 . S
C746 N747 1.279 . S
C746 H787 0.930 . S
N747 C745 1.314 . S
N747 C746 1.279 . S
C748 C750 1.353 . S
C748 N751 1.314 . S
C748 H754 0.930 . S
C749 N751 1.279 . S
C749 C752 1.358 . S
C749 H755 0.930 . S
C750 C748 1.353 . S
C750 C753 1.348 . S
C750 H788 0.929 . S
N751 Li706 1.990 . S
N751 C748 1.314 . S
N751 C749 1.279 . S
C752 C749 1.358 . S
C752 C753 1.356 . S
C752 H789 0.930 . S
C753 C750 1.348 . S
C753 C752 1.356 . S
H754 C748 0.930 . S
H755 C749 0.930 . S
C756 N757 1.314 . S
C756 C758 1.353 1_455 S
C756 H762 0.930 . S
N757 Li707 1.990 . S
N757 C756 1.314 . S
N757 C760 1.279 1_455 S
C758 C756 1.353 1_655 S
C758 C761 1.348 . S
C758 H790 0.929 . S
C759 C760 1.358 . S
C759 C761 1.356 . S
C759 H791 0.930 . S
C760 N757 1.279 1_655 S
C760 C759 1.358 . S
C760 H763 0.930 . S
C761 C758 1.348 . S
C761 C759 1.356 . S
H762 C756 0.930 . S
H763 C760 0.930 . S
O764 Li704 1.956 . S
O764 Li705 1.970 . S
O764 Li706 1.961 . S
O764 C708 1.325 . S
O765 Li704 1.970 . S
O765 Li705 1.956 . S
O765 Li707 1.961 . S
O765 C714 1.325 . S
O766 Li704 1.961 . S
O766 Li706 1.956 . S
O766 Li707 1.970 . S
O766 C736 1.325 . S
O767 Li705 1.961 . S
O767 Li706 1.970 . S
O767 Li707 1.956 . S
O767 C742 1.325 . S
H768 C710 0.929 . S
H769 C711 0.930 . S
H770 C712 0.930 . S
H771 C713 0.930 . S
H772 C715 0.930 . S
H773 C717 0.929 . S
H774 C718 0.930 . S
H775 C719 0.930 . S
H776 C722 0.930 . S
H777 C725 0.929 . S
H778 C730 0.929 . S
H779 C731 0.930 . S
H780 C738 0.929 . S
H781 C739 0.930 . S
H782 C740 0.930 . S
H783 C741 0.930 . S
H784 C743 0.929 . S
H785 C744 0.930 . S
H786 C745 0.930 . S
H787 C746 0.930 . S
H788 C750 0.929 . S
H789 C752 0.930 . S
H790 C758 0.929 . S
H791 C759 0.930 . S
Li792 N809 1.990 . S
Li792 O852 1.956 . S
Li792 O853 1.970 . S
Li792 O854 1.961 . S
Li793 N817 1.990 . S
Li793 O852 1.970 . S
Li793 O853 1.956 . S
Li793 O855 1.961 . S
Li794 N839 1.990 . S
Li794 O852 1.961 . S
Li794 O854 1.956 . S
Li794 O855 1.970 . S
Li795 N845 1.990 . S
Li795 O853 1.961 . S
Li795 O854 1.970 . S
Li795 O855 1.956 . S
C796 C798 1.348 . S
C796 C799 1.356 . S
C796 O852 1.325 . S
N797 C800 1.314 . S
N797 C801 1.279 . S
C798 C796 1.348 . S
C798 C800 1.353 . S
C798 H856 0.929 . S
C799 C796 1.356 . S
C799 C801 1.358 . S
C799 H857 0.930 . S
C800 N797 1.314 . S
C800 C798 1.353 . S
C800 H858 0.930 . S
C801 N797 1.279 . S
C801 C799 1.358 . S
C801 H859 0.930 . S
C802 C805 1.348 . S
C802 C806 1.356 . S
C802 O853 1.325 . S
C803 N804 1.279 . S
C803 C806 1.358 . S
C803 H860 0.930 . S
N804 C803 1.279 . S
N804 C807 1.314 . S
C805 C802 1.348 . S
C805 C807 1.353 . S
C805 H861 0.929 . S
C806 C802 1.356 . S
C806 C803 1.358 . S
C806 H862 0.930 . S
C807 N804 1.314 . S
C807 C805 1.353 . S
C807 H863 0.930 . S
C808 N809 1.314 . S
C808 C813 1.353 1_545 S
C808 H814 0.930 . S
N809 Li792 1.990 . S
N809 C808 1.314 . S
N809 C811 1.279 1_545 S
C810 C811 1.358 . S
C810 C812 1.356 . S
C810 H864 0.930 . S
C811 N809 1.279 1_565 S
C811 C810 1.358 . S
C811 H815 0.930 . S
C812 C810 1.356 . S
C812 C813 1.348 . S
C813 C808 1.353 1_565 S
C813 C812 1.348 . S
C813 H865 0.929 . S
H814 C808 0.930 . S
H815 C811 0.930 . S
C816 N817 1.314 . S
C816 C818 1.353 . S
C816 H822 0.930 . S
N817 Li793 1.990 . S
N817 C816 1.314 . S
N817 C820 1.279 . S
C818 C816 1.353 . S
C818 C821 1.348 . S
C818 H866 0.929 . S
C819 C820 1.358 . S
C819 C821 1.356 . S
C819 H867 0.930 . S
C820 N817 1.279 . S
C820 C819 1.358 . S
C820 H823 0.930 . S
C821 C818 1.348 . S
C821 C819 1.356 . S
H822 C816 0.930 . S
H823 C820 0.930 . S
C824 C826 1.348 . S
C824 C827 1.356 . S
C824 O854 1.325 . S
N825 C828 1.314 . S
N825 C829 1.279 . S
C826 C824 1.348 . S
C826 C828 1.353 . S
C826 H868 0.929 . S
C827 C824 1.356 . S
C827 C829 1.358 . S
C827 H869 0.930 . S
C828 N825 1.314 . S
C828 C826 1.353 . S
C828 H870 0.930 . S
C829 N825 1.279 . S
C829 C827 1.358 . S
C829 H871 0.930 . S
C830 C831 1.348 . S
C830 C832 1.356 . S
C830 O855 1.325 . S
C831 C830 1.348 . S
C831 C833 1.353 . S
C831 H872 0.929 . S
C832 C830 1.356 . S
C832 C834 1.358 . S
C832 H873 0.930 . S
C833 C831 1.353 . S
C833 N835 1.314 . S
C833 H874 0.930 . S
C834 C832 1.358 . S
C834 N835 1.279 . S
C834 H875 0.930 . S
N835 C833 1.314 . S
N835 C834 1.279 . S
C836 C838 1.353 . S
C836 N839 1.314 . S
C836 H842 0.930 . S
C837 N839 1.279 . S
C837 C840 1.358 . S
C837 H843 0.930 . S
C838 C836 1.353 . S
C838 C841 1.348 . S
C838 H876 0.929 . S
N839 Li794 1.990 . S
N839 C836 1.314 . S
N839 C837 1.279 . S
C840 C837 1.358 . S
C840 C841 1.356 . S
C840 H877 0.930 . S
C841 C838 1.348 . S
C841 C840 1.356 . S
H842 C836 0.930 . S
H843 C837 0.930 . S
C844 N845 1.314 . S
C844 C846 1.353 . S
C844 H850 0.930 . S
N845 Li795 1.990 . S
N845 C844 1.314 . S
N845 C848 1.279 . S
C846 C844 1.353 . S
C846 C849 1.348 . S
C846 H878 0.929 . S
C847 C848 1.358 . S
C847 C849 1.356 . S
C847 H879 0.930 . S
C848 N845 1.279 . S
C848 C847 1.358 . S
C848 H851 0.930 . S
C849 C846 1.348 . S
C849 C847 1.356 . S
H850 C844 0.930 . S
H851 C848 0.930 . S
O852 Li792 1.956 . S
O852 Li793 1.970 . S
O852 Li794 1.961 . S
O852 C796 1.325 . S
O853 Li792 1.970 . S
O853 Li793 1.956 . S
O853 Li795 1.961 . S
O853 C802 1.325 . S
O854 Li792 1.961 . S
O854 Li794 1.956 . S
O854 Li795 1.970 . S
O854 C824 1.325 . S
O855 Li793 1.961 . S
O855 Li794 1.970 . S
O855 Li795 1.956 . S
O855 C830 1.325 . S
H856 C798 0.929 . S
H857 C799 0.930 . S
H858 C800 0.930 . S
H859 C801 0.930 . S
H860 C803 0.930 . S
H861 C805 0.929 . S
H862 C806 0.930 . S
H863 C807 0.930 . S
H864 C810 0.930 . S
H865 C813 0.929 . S
H866 C818 0.929 . S
H867 C819 0.930 . S
H868 C826 0.929 . S
H869 C827 0.930 . S
H870 C828 0.930 . S
H871 C829 0.930 . S
H872 C831 0.929 . S
H873 C832 0.930 . S
H874 C833 0.930 . S
H875 C834 0.930 . S
H876 C838 0.929 . S
H877 C840 0.930 . S
H878 C846 0.929 . S
H879 C847 0.930 . S
Li880 N897 1.990 . S
Li880 O940 1.956 . S
Li880 O941 1.970 . S
Li880 O942 1.961 . S
Li881 N905 1.990 . S
Li881 O940 1.970 . S
Li881 O941 1.956 . S
Li881 O943 1.961 . S
Li882 N927 1.990 . S
Li882 O940 1.961 . S
Li882 O942 1.956 . S
Li882 O943 1.970 . S
Li883 N933 1.990 . S
Li883 O941 1.961 . S
Li883 O942 1.970 . S
Li883 O943 1.956 . S
C884 C886 1.348 . S
C884 C887 1.356 . S
C884 O940 1.325 . S
N885 C888 1.314 . S
N885 C889 1.279 . S
C886 C884 1.348 . S
C886 C888 1.353 . S
C886 H944 0.929 . S
C887 C884 1.356 . S
C887 C889 1.358 . S
C887 H945 0.930 . S
C888 N885 1.314 . S
C888 C886 1.353 . S
C888 H946 0.930 . S
C889 N885 1.279 . S
C889 C887 1.358 . S
C889 H947 0.930 . S
C890 C893 1.348 . S
C890 C894 1.356 . S
C890 O941 1.325 . S
C891 N892 1.279 . S
C891 C894 1.358 . S
C891 H948 0.930 . S
N892 C891 1.279 . S
N892 C895 1.314 . S
C893 C890 1.348 . S
C893 C895 1.353 . S
C893 H949 0.929 . S
C894 C890 1.356 . S
C894 C891 1.358 . S
C894 H950 0.930 . S
C895 N892 1.314 . S
C895 C893 1.353 . S
C895 H951 0.930 . S
C896 N897 1.314 . S
C896 C901 1.353 . S
C896 H902 0.930 . S
N897 Li880 1.990 . S
N897 C896 1.314 . S
N897 C899 1.279 . S
C898 C899 1.358 . S
C898 C900 1.356 . S
C898 H952 0.930 . S
C899 N897 1.279 . S
C899 C898 1.358 . S
C899 H903 0.930 . S
C900 C898 1.356 . S
C900 C901 1.348 . S
C901 C896 1.353 . S
C901 C900 1.348 . S
C901 H953 0.929 . S
H902 C896 0.930 . S
H903 C899 0.930 . S
C904 N905 1.314 . S
C904 C906 1.353 . S
C904 H910 0.930 . S
N905 Li881 1.990 . S
N905 C904 1.314 . S
N905 C908 1.279 . S
C906 C904 1.353 . S
C906 C909 1.348 . S
C906 H954 0.929 . S
C907 C908 1.358 . S
C907 C909 1.356 . S
C907 H955 0.930 . S
C908 N905 1.279 . S
C908 C907 1.358 . S
C908 H911 0.930 . S
C909 C906 1.348 . S
C909 C907 1.356 . S
H910 C904 0.930 . S
H911 C908 0.930 . S
C912 C914 1.348 . S
C912 C915 1.356 . S
C912 O942 1.325 . S
N913 C916 1.314 . S
N913 C917 1.279 . S
C914 C912 1.348 . S
C914 C916 1.353 . S
C914 H956 0.929 . S
C915 C912 1.356 . S
C915 C917 1.358 . S
C915 H957 0.930 . S
C916 N913 1.314 . S
C916 C914 1.353 . S
C916 H958 0.930 . S
C917 N913 1.279 . S
C917 C915 1.358 . S
C917 H959 0.930 . S
C918 C919 1.348 . S
C918 C920 1.356 . S
C918 O943 1.325 . S
C919 C918 1.348 . S
C919 C921 1.353 . S
C919 H960 0.929 . S
C920 C918 1.356 . S
C920 C922 1.358 . S
C920 H961 0.930 . S
C921 C919 1.353 . S
C921 N923 1.314 . S
C921 H962 0.930 . S
C922 C920 1.358 . S
C922 N923 1.279 . S
C922 H963 0.930 . S
N923 C921 1.314 . S
N923 C922 1.279 . S
C924 C926 1.353 . S
C924 N927 1.314 . S
C924 H930 0.930 . S
C925 N927 1.279 . S
C925 C928 1.358 . S
C925 H931 0.930 . S
C926 C924 1.353 . S
C926 C929 1.348 . S
C926 H964 0.929 . S
N927 Li882 1.990 . S
N927 C924 1.314 . S
N927 C925 1.279 . S
C928 C925 1.358 . S
C928 C929 1.356 . S
C928 H965 0.930 . S
C929 C926 1.348 . S
C929 C928 1.356 . S
H930 C924 0.930 . S
H931 C925 0.930 . S
C932 N933 1.314 . S
C932 C934 1.353 . S
C932 H938 0.930 . S
N933 Li883 1.990 . S
N933 C932 1.314 . S
N933 C936 1.279 . S
C934 C932 1.353 . S
C934 C937 1.348 . S
C934 H966 0.929 . S
C935 C936 1.358 . S
C935 C937 1.356 . S
C935 H967 0.930 . S
C936 N933 1.279 . S
C936 C935 1.358 . S
C936 H939 0.930 . S
C937 C934 1.348 . S
C937 C935 1.356 . S
H938 C932 0.930 . S
H939 C936 0.930 . S
O940 Li880 1.956 . S
O940 Li881 1.970 . S
O940 Li882 1.961 . S
O940 C884 1.325 . S
O941 Li880 1.970 . S
O941 Li881 1.956 . S
O941 Li883 1.961 . S
O941 C890 1.325 . S
O942 Li880 1.961 . S
O942 Li882 1.956 . S
O942 Li883 1.970 . S
O942 C912 1.325 . S
O943 Li881 1.961 . S
O943 Li882 1.970 . S
O943 Li883 1.956 . S
O943 C918 1.325 . S
H944 C886 0.929 . S
H945 C887 0.930 . S
H946 C888 0.930 . S
H947 C889 0.930 . S
H948 C891 0.930 . S
H949 C893 0.929 . S
H950 C894 0.930 . S
H951 C895 0.930 . S
H952 C898 0.930 . S
H953 C901 0.929 . S
H954 C906 0.929 . S
H955 C907 0.930 . S
H956 C914 0.929 . S
H957 C915 0.930 . S
H958 C916 0.930 . S
H959 C917 0.930 . S
H960 C919 0.929 . S
H961 C920 0.930 . S
H962 C921 0.930 . S
H963 C922 0.930 . S
H964 C926 0.929 . S
H965 C928 0.930 . S
H966 C934 0.929 . S
H967 C935 0.930 . S
Li968 N985 1.990 . S
Li968 O1028 1.956 . S
Li968 O1029 1.970 . S
Li968 O1030 1.961 . S
Li969 N993 1.990 . S
Li969 O1028 1.970 . S
Li969 O1029 1.956 . S
Li969 O1031 1.961 . S
Li970 N1015 1.990 . S
Li970 O1028 1.961 . S
Li970 O1030 1.956 . S
Li970 O1031 1.970 . S
Li971 N1021 1.990 . S
Li971 O1029 1.961 . S
Li971 O1030 1.970 . S
Li971 O1031 1.956 . S
C972 C974 1.348 . S
C972 C975 1.356 . S
C972 O1028 1.325 . S
N973 C976 1.314 . S
N973 C977 1.279 . S
C974 C972 1.348 . S
C974 C976 1.353 . S
C974 H1032 0.929 . S
C975 C972 1.356 . S
C975 C977 1.358 . S
C975 H1033 0.930 . S
C976 N973 1.314 . S
C976 C974 1.353 . S
C976 H1034 0.930 . S
C977 N973 1.279 . S
C977 C975 1.358 . S
C977 H1035 0.930 . S
C978 C981 1.348 . S
C978 C982 1.356 . S
C978 O1029 1.325 . S
C979 N980 1.279 . S
C979 C982 1.358 . S
C979 H1036 0.930 . S
N980 C979 1.279 . S
N980 C983 1.314 . S
C981 C978 1.348 . S
C981 C983 1.353 . S
C981 H1037 0.929 . S
C982 C978 1.356 . S
C982 C979 1.358 . S
C982 H1038 0.930 . S
C983 N980 1.314 . S
C983 C981 1.353 . S
C983 H1039 0.930 . S
C984 N985 1.314 . S
C984 C989 1.353 1_655 S
C984 H990 0.930 . S
N985 Li968 1.990 . S
N985 C984 1.314 . S
N985 C987 1.279 1_655 S
C986 C987 1.358 . S
C986 C988 1.356 . S
C986 H1040 0.930 . S
C987 N985 1.279 1_455 S
C987 C986 1.358 . S
C987 H991 0.930 . S
C988 C986 1.356 . S
C988 C989 1.348 . S
C989 C984 1.353 1_455 S
C989 C988 1.348 . S
C989 H1041 0.929 . S
H990 C984 0.930 . S
H991 C987 0.930 . S
C992 N993 1.314 . S
C992 C994 1.353 . S
C992 H998 0.930 . S
N993 Li969 1.990 . S
N993 C992 1.314 . S
N993 C996 1.279 . S
C994 C992 1.353 . S
C994 C997 1.348 . S
C994 H1042 0.929 . S
C995 C996 1.358 . S
C995 C997 1.356 . S
C995 H1043 0.930 . S
C996 N993 1.279 . S
C996 C995 1.358 . S
C996 H999 0.930 . S
C997 C994 1.348 . S
C997 C995 1.356 . S
H998 C992 0.930 . S
H999 C996 0.930 . S
C1000 C1002 1.348 . S
C1000 C1003 1.356 . S
C1000 O1030 1.325 . S
N1001 C1004 1.314 . S
N1001 C1005 1.279 . S
C1002 C1000 1.348 . S
C1002 C1004 1.353 . S
C1002 H1044 0.929 . S
C1003 C1000 1.356 . S
C1003 C1005 1.358 . S
C1003 H1045 0.930 . S
C1004 N1001 1.314 . S
C1004 C1002 1.353 . S
C1004 H1046 0.930 . S
C1005 N1001 1.279 . S
C1005 C1003 1.358 . S
C1005 H1047 0.930 . S
C1006 C1007 1.348 . S
C1006 C1008 1.356 . S
C1006 O1031 1.325 . S
C1007 C1006 1.348 . S
C1007 C1009 1.353 . S
C1007 H1048 0.929 . S
C1008 C1006 1.356 . S
C1008 C1010 1.358 . S
C1008 H1049 0.930 . S
C1009 C1007 1.353 . S
C1009 N1011 1.314 . S
C1009 H1050 0.930 . S
C1010 C1008 1.358 . S
C1010 N1011 1.279 . S
C1010 H1051 0.930 . S
N1011 C1009 1.314 . S
N1011 C1010 1.279 . S
C1012 C1014 1.353 . S
C1012 N1015 1.314 . S
C1012 H1018 0.930 . S
C1013 N1015 1.279 . S
C1013 C1016 1.358 . S
C1013 H1019 0.930 . S
C1014 C1012 1.353 . S
C1014 C1017 1.348 . S
C1014 H1052 0.929 . S
N1015 Li970 1.990 . S
N1015 C1012 1.314 . S
N1015 C1013 1.279 . S
C1016 C1013 1.358 . S
C1016 C1017 1.356 . S
C1016 H1053 0.930 . S
C1017 C1014 1.348 . S
C1017 C1016 1.356 . S
H1018 C1012 0.930 . S
H1019 C1013 0.930 . S
C1020 N1021 1.314 . S
C1020 C1022 1.353 . S
C1020 H1026 0.930 . S
N1021 Li971 1.990 . S
N1021 C1020 1.314 . S
N1021 C1024 1.279 . S
C1022 C1020 1.353 . S
C1022 C1025 1.348 . S
C1022 H1054 0.929 . S
C1023 C1024 1.358 . S
C1023 C1025 1.356 . S
C1023 H1055 0.930 . S
C1024 N1021 1.279 . S
C1024 C1023 1.358 . S
C1024 H1027 0.930 . S
C1025 C1022 1.348 . S
C1025 C1023 1.356 . S
H1026 C1020 0.930 . S
H1027 C1024 0.930 . S
O1028 Li968 1.956 . S
O1028 Li969 1.970 . S
O1028 Li970 1.961 . S
O1028 C972 1.325 . S
O1029 Li968 1.970 . S
O1029 Li969 1.956 . S
O1029 Li971 1.961 . S
O1029 C978 1.325 . S
O1030 Li968 1.961 . S
O1030 Li970 1.956 . S
O1030 Li971 1.970 . S
O1030 C1000 1.325 . S
O1031 Li969 1.961 . S
O1031 Li970 1.970 . S
O1031 Li971 1.956 . S
O1031 C1006 1.325 . S
H1032 C974 0.929 . S
H1033 C975 0.930 . S
H1034 C976 0.930 . S
H1035 C977 0.930 . S
H1036 C979 0.930 . S
H1037 C981 0.929 . S
H1038 C982 0.930 . S
H1039 C983 0.930 . S
H1040 C986 0.930 . S
H1041 C989 0.929 . S
H1042 C994 0.929 . S
H1043 C995 0.930 . S
H1044 C1002 0.929 . S
H1045 C1003 0.930 . S
H1046 C1004 0.930 . S
H1047 C1005 0.930 . S
H1048 C1007 0.929 . S
H1049 C1008 0.930 . S
H1050 C1009 0.930 . S
H1051 C1010 0.930 . S
H1052 C1014 0.929 . S
H1053 C1016 0.930 . S
H1054 C1022 0.929 . S
H1055 C1023 0.930 . S
H1056 C1068 0.930 . S
H1057 C1070 0.930 . S
H1058 C1071 0.930 . S
H1059 C1075 0.959 . S
H1060 C1075 0.959 . S
H1061 C1075 0.961 . S
H1062 C1076 0.960 . S
H1063 C1076 0.961 . S
H1064 C1076 0.959 . S
H1065 C1079 0.929 . S
H1066 C1080 0.931 . S
H1067 C1082 0.930 . S
C1068 H1056 0.930 . S
C1068 C1069 1.399 . S
C1068 C1073 1.399 . S
C1069 C1068 1.399 . S
C1069 C1070 1.376 . S
C1070 H1057 0.930 . S
C1070 C1069 1.376 . S
C1070 C1071 1.388 . S
C1071 H1058 0.930 . S
C1071 C1070 1.388 . S
C1071 C1072 1.390 . S
C1072 C1071 1.390 . S
C1072 C1073 1.394 . S
C1072 C1078 1.465 . S
C1073 C1068 1.399 . S
C1073 C1072 1.394 . S
C1073 C1074 1.516 . S
C1074 C1073 1.516 . S
C1074 C1075 1.502 . S
C1074 C1076 1.561 . S
C1074 C1077 1.526 . S
C1075 H1059 0.959 . S
C1075 H1060 0.959 . S
C1075 H1061 0.961 . S
C1075 C1074 1.502 . S
C1076 H1062 0.960 . S
C1076 H1063 0.961 . S
C1076 H1064 0.959 . S
C1076 C1074 1.561 . S
C1077 C1074 1.526 . S
C1077 C1078 1.396 . S
C1077 C1082 1.390 . S
C1078 C1072 1.465 . S
C1078 C1077 1.396 . S
C1078 C1079 1.399 . S
C1079 H1065 0.929 . S
C1079 C1078 1.399 . S
C1079 C1080 1.385 . S
C1080 H1066 0.931 . S
C1080 C1079 1.385 . S
C1080 C1081 1.389 . S
C1081 C1080 1.389 . S
C1081 C1082 1.387 . S
C1082 H1067 0.930 . S
C1082 C1077 1.390 . S
C1082 C1081 1.387 . S
H1083 C1095 0.930 . S
H1084 C1097 0.930 . S
H1085 C1098 0.930 . S
H1086 C1102 0.959 . S
H1087 C1102 0.959 . S
H1088 C1102 0.961 . S
H1089 C1103 0.960 . S
H1090 C1103 0.961 . S
H1091 C1103 0.959 . S
H1092 C1106 0.929 . S
H1093 C1107 0.931 . S
H1094 C1109 0.930 . S
C1095 H1083 0.930 . S
C1095 C1096 1.399 . S
C1095 C1100 1.399 . S
C1096 C1095 1.399 . S
C1096 C1097 1.376 . S
C1097 H1084 0.930 . S
C1097 C1096 1.376 . S
C1097 C1098 1.388 . S
C1098 H1085 0.930 . S
C1098 C1097 1.388 . S
C1098 C1099 1.390 . S
C1099 C1098 1.390 . S
C1099 C1100 1.394 . S
C1099 C1105 1.465 . S
C1100 C1095 1.399 . S
C1100 C1099 1.394 . S
C1100 C1101 1.516 . S
C1101 C1100 1.516 . S
C1101 C1102 1.502 . S
C1101 C1103 1.561 . S
C1101 C1104 1.526 . S
C1102 H1086 0.959 . S
C1102 H1087 0.959 . S
C1102 H1088 0.961 . S
C1102 C1101 1.502 . S
C1103 H1089 0.960 . S
C1103 H1090 0.961 . S
C1103 H1091 0.959 . S
C1103 C1101 1.561 . S
C1104 C1101 1.526 . S
C1104 C1105 1.396 . S
C1104 C1109 1.390 . S
C1105 C1099 1.465 . S
C1105 C1104 1.396 . S
C1105 C1106 1.399 . S
C1106 H1092 0.929 . S
C1106 C1105 1.399 . S
C1106 C1107 1.385 . S
C1107 H1093 0.931 . S
C1107 C1106 1.385 . S
C1107 C1108 1.389 . S
C1108 C1107 1.389 . S
C1108 C1109 1.387 . S
C1109 H1094 0.930 . S
C1109 C1104 1.390 . S
C1109 C1108 1.387 . S
H1110 C1122 0.930 . S
H1111 C1124 0.930 . S
H1112 C1125 0.930 . S
H1113 C1129 0.959 . S
H1114 C1129 0.959 . S
H1115 C1129 0.961 . S
H1116 C1130 0.960 . S
H1117 C1130 0.961 . S
H1118 C1130 0.959 . S
H1119 C1133 0.929 . S
H1120 C1134 0.931 . S
H1121 C1136 0.930 . S
C1122 H1110 0.930 . S
C1122 C1123 1.399 . S
C1122 C1127 1.399 . S
C1123 C1122 1.399 . S
C1123 C1124 1.376 . S
C1124 H1111 0.930 . S
C1124 C1123 1.376 . S
C1124 C1125 1.388 . S
C1125 H1112 0.930 . S
C1125 C1124 1.388 . S
C1125 C1126 1.390 . S
C1126 C1125 1.390 . S
C1126 C1127 1.394 . S
C1126 C1132 1.465 . S
C1127 C1122 1.399 . S
C1127 C1126 1.394 . S
C1127 C1128 1.516 . S
C1128 C1127 1.516 . S
C1128 C1129 1.502 . S
C1128 C1130 1.561 . S
C1128 C1131 1.526 . S
C1129 H1113 0.959 . S
C1129 H1114 0.959 . S
C1129 H1115 0.961 . S
C1129 C1128 1.502 . S
C1130 H1116 0.960 . S
C1130 H1117 0.961 . S
C1130 H1118 0.959 . S
C1130 C1128 1.561 . S
C1131 C1128 1.526 . S
C1131 C1132 1.396 . S
C1131 C1136 1.390 . S
C1132 C1126 1.465 . S
C1132 C1131 1.396 . S
C1132 C1133 1.399 . S
C1133 H1119 0.929 . S
C1133 C1132 1.399 . S
C1133 C1134 1.385 . S
C1134 H1120 0.931 . S
C1134 C1133 1.385 . S
C1134 C1135 1.389 . S
C1135 C1134 1.389 . S
C1135 C1136 1.387 . S
C1136 H1121 0.930 . S
C1136 C1131 1.390 . S
C1136 C1135 1.387 . S
H1137 C1149 0.930 . S
H1138 C1151 0.930 . S
H1139 C1152 0.930 . S
H1140 C1156 0.959 . S
H1141 C1156 0.959 . S
H1142 C1156 0.961 . S
H1143 C1157 0.960 . S
H1144 C1157 0.961 . S
H1145 C1157 0.959 . S
H1146 C1160 0.929 . S
H1147 C1161 0.931 . S
H1148 C1163 0.930 . S
C1149 H1137 0.930 . S
C1149 C1150 1.399 . S
C1149 C1154 1.399 . S
C1150 C1149 1.399 . S
C1150 C1151 1.376 . S
C1151 H1138 0.930 . S
C1151 C1150 1.376 . S
C1151 C1152 1.388 . S
C1152 H1139 0.930 . S
C1152 C1151 1.388 . S
C1152 C1153 1.390 . S
C1153 C1152 1.390 . S
C1153 C1154 1.394 . S
C1153 C1159 1.465 . S
C1154 C1149 1.399 . S
C1154 C1153 1.394 . S
C1154 C1155 1.516 . S
C1155 C1154 1.516 . S
C1155 C1156 1.502 . S
C1155 C1157 1.561 . S
C1155 C1158 1.526 . S
C1156 H1140 0.959 . S
C1156 H1141 0.959 . S
C1156 H1142 0.961 . S
C1156 C1155 1.502 . S
C1157 H1143 0.960 . S
C1157 H1144 0.961 . S
C1157 H1145 0.959 . S
C1157 C1155 1.561 . S
C1158 C1155 1.526 . S
C1158 C1159 1.396 . S
C1158 C1163 1.390 . S
C1159 C1153 1.465 . S
C1159 C1158 1.396 . S
C1159 C1160 1.399 . S
C1160 H1146 0.929 . S
C1160 C1159 1.399 . S
C1160 C1161 1.385 . S
C1161 H1147 0.931 . S
C1161 C1160 1.385 . S
C1161 C1162 1.389 . S
C1162 C1161 1.389 . S
C1162 C1163 1.387 . S
C1163 H1148 0.930 . S
C1163 C1158 1.390 . S
C1163 C1162 1.387 . S
H1164 C1176 0.930 . S
H1165 C1178 0.930 . S
H1166 C1179 0.930 . S
H1167 C1183 0.959 . S
H1168 C1183 0.959 . S
H1169 C1183 0.961 . S
H1170 C1184 0.960 . S
H1171 C1184 0.961 . S
H1172 C1184 0.959 . S
H1173 C1187 0.929 . S
H1174 C1188 0.931 . S
H1175 C1190 0.930 . S
C1176 H1164 0.930 . S
C1176 C1177 1.399 . S
C1176 C1181 1.399 . S
C1177 C1176 1.399 . S
C1177 C1178 1.376 . S
C1178 H1165 0.930 . S
C1178 C1177 1.376 . S
C1178 C1179 1.388 . S
C1179 H1166 0.930 . S
C1179 C1178 1.388 . S
C1179 C1180 1.390 . S
C1180 C1179 1.390 . S
C1180 C1181 1.394 . S
C1180 C1186 1.465 . S
C1181 C1176 1.399 . S
C1181 C1180 1.394 . S
C1181 C1182 1.516 . S
C1182 C1181 1.516 . S
C1182 C1183 1.502 . S
C1182 C1184 1.561 . S
C1182 C1185 1.526 . S
C1183 H1167 0.959 . S
C1183 H1168 0.959 . S
C1183 H1169 0.961 . S
C1183 C1182 1.502 . S
C1184 H1170 0.960 . S
C1184 H1171 0.961 . S
C1184 H1172 0.959 . S
C1184 C1182 1.561 . S
C1185 C1182 1.526 . S
C1185 C1186 1.396 . S
C1185 C1190 1.390 . S
C1186 C1180 1.465 . S
C1186 C1185 1.396 . S
C1186 C1187 1.399 . S
C1187 H1173 0.929 . S
C1187 C1186 1.399 . S
C1187 C1188 1.385 . S
C1188 H1174 0.931 . S
C1188 C1187 1.385 . S
C1188 C1189 1.389 . S
C1189 C1188 1.389 . S
C1189 C1190 1.387 . S
C1190 H1175 0.930 . S
C1190 C1185 1.390 . S
C1190 C1189 1.387 . S
H1191 C1203 0.930 . S
H1192 C1205 0.930 . S
H1193 C1206 0.930 . S
H1194 C1210 0.959 . S
H1195 C1210 0.959 . S
H1196 C1210 0.961 . S
H1197 C1211 0.960 . S
H1198 C1211 0.961 . S
H1199 C1211 0.959 . S
H1200 C1214 0.929 . S
H1201 C1215 0.931 . S
H1202 C1217 0.930 . S
C1203 H1191 0.930 . S
C1203 C1204 1.399 . S
C1203 C1208 1.399 . S
C1204 C1203 1.399 . S
C1204 C1205 1.376 . S
C1205 H1192 0.930 . S
C1205 C1204 1.376 . S
C1205 C1206 1.388 . S
C1206 H1193 0.930 . S
C1206 C1205 1.388 . S
C1206 C1207 1.390 . S
C1207 C1206 1.390 . S
C1207 C1208 1.394 . S
C1207 C1213 1.465 . S
C1208 C1203 1.399 . S
C1208 C1207 1.394 . S
C1208 C1209 1.516 . S
C1209 C1208 1.516 . S
C1209 C1210 1.502 . S
C1209 C1211 1.561 . S
C1209 C1212 1.526 . S
C1210 H1194 0.959 . S
C1210 H1195 0.959 . S
C1210 H1196 0.961 . S
C1210 C1209 1.502 . S
C1211 H1197 0.960 . S
C1211 H1198 0.961 . S
C1211 H1199 0.959 . S
C1211 C1209 1.561 . S
C1212 C1209 1.526 . S
C1212 C1213 1.396 . S
C1212 C1217 1.390 . S
C1213 C1207 1.465 . S
C1213 C1212 1.396 . S
C1213 C1214 1.399 . S
C1214 H1200 0.929 . S
C1214 C1213 1.399 . S
C1214 C1215 1.385 . S
C1215 H1201 0.931 . S
C1215 C1214 1.385 . S
C1215 C1216 1.389 . S
C1216 C1215 1.389 . S
C1216 C1217 1.387 . S
C1217 H1202 0.930 . S
C1217 C1212 1.390 . S
C1217 C1216 1.387 . S
H1218 C1230 0.930 1_556 S
H1219 C1232 0.930 . S
H1220 C1233 0.930 . S
H1221 C1237 0.959 . S
H1222 C1237 0.959 . S
H1223 C1237 0.961 . S
H1224 C1238 0.960 . S
H1225 C1238 0.961 . S
H1226 C1238 0.959 . S
H1227 C1241 0.954 . S
H1228 C1242 0.931 . S
H1229 C1244 0.930 . S
C1230 H1218 0.930 1_554 S
C1230 C1231 1.399 . S
C1230 C1235 1.399 1_554 S
C1231 C1230 1.399 . S
C1231 C1232 1.376 . S
C1232 H1219 0.930 . S
C1232 C1231 1.376 . S
C1232 C1233 1.388 . S
C1233 H1220 0.930 . S
C1233 C1232 1.388 . S
C1233 C1234 1.390 . S
C1234 C1233 1.390 . S
C1234 C1235 1.394 1_554 S
C1234 C1240 1.465 1_554 S
C1235 C1230 1.399 1_556 S
C1235 C1234 1.394 1_556 S
C1235 C1236 1.516 . S
C1236 C1235 1.516 . S
C1236 C1237 1.502 . S
C1236 C1238 1.561 . S
C1236 C1239 1.526 . S
C1237 H1221 0.959 . S
C1237 H1222 0.959 . S
C1237 H1223 0.961 . S
C1237 C1236 1.502 . S
C1238 H1224 0.960 . S
C1238 H1225 0.961 . S
C1238 H1226 0.959 . S
C1238 C1236 1.561 . S
C1239 C1236 1.526 . S
C1239 C1240 1.396 . S
C1239 C1244 1.390 . S
C1240 C1234 1.465 1_556 S
C1240 C1239 1.396 . S
C1240 C1241 1.394 1_556 S
C1241 H1227 0.954 . S
C1241 C1240 1.394 1_554 S
C1241 C1242 1.365 1_554 S
C1242 H1228 0.931 . S
C1242 C1241 1.365 1_556 S
C1242 C1243 1.389 . S
C1243 C1242 1.389 . S
C1243 C1244 1.387 . S
C1244 H1229 0.930 . S
C1244 C1239 1.390 . S
C1244 C1243 1.387 . S
H1245 C1257 0.930 . S
H1246 C1259 0.930 . S
H1247 C1260 0.930 . S
H1248 C1264 0.959 . S
H1249 C1264 0.959 . S
H1250 C1264 0.961 . S
H1251 C1265 0.960 . S
H1252 C1265 0.961 . S
H1253 C1265 0.959 . S
H1254 C1268 0.929 . S
H1255 C1269 0.931 . S
H1256 C1271 0.930 . S
C1257 H1245 0.930 . S
C1257 C1258 1.399 . S
C1257 C1262 1.399 . S
C1258 C1257 1.399 . S
C1258 C1259 1.376 . S
C1259 H1246 0.930 . S
C1259 C1258 1.376 . S
C1259 C1260 1.388 . S
C1260 H1247 0.930 . S
C1260 C1259 1.388 . S
C1260 C1261 1.390 . S
C1261 C1260 1.390 . S
C1261 C1262 1.394 . S
C1261 C1267 1.465 . S
C1262 C1257 1.399 . S
C1262 C1261 1.394 . S
C1262 C1263 1.516 . S
C1263 C1262 1.516 . S
C1263 C1264 1.502 . S
C1263 C1265 1.561 . S
C1263 C1266 1.526 . S
C1264 H1248 0.959 . S
C1264 H1249 0.959 . S
C1264 H1250 0.961 . S
C1264 C1263 1.502 . S
C1265 H1251 0.960 . S
C1265 H1252 0.961 . S
C1265 H1253 0.959 . S
C1265 C1263 1.561 . S
C1266 C1263 1.526 . S
C1266 C1267 1.396 . S
C1266 C1271 1.390 . S
C1267 C1261 1.465 . S
C1267 C1266 1.396 . S
C1267 C1268 1.399 . S
C1268 H1254 0.929 . S
C1268 C1267 1.399 . S
C1268 C1269 1.385 . S
C1269 H1255 0.931 . S
C1269 C1268 1.385 . S
C1269 C1270 1.389 . S
C1270 C1269 1.389 . S
C1270 C1271 1.387 . S
C1271 H1256 0.930 . S
C1271 C1266 1.390 . S
C1271 C1270 1.387 . S
H1272 C1284 0.930 . S
H1273 C1286 0.930 . S
H1274 C1287 0.930 . S
H1275 C1291 0.959 . S
H1276 C1291 0.959 . S
H1277 C1291 0.961 . S
H1278 C1292 0.960 . S
H1279 C1292 0.961 . S
H1280 C1292 0.959 . S
H1281 C1295 0.929 . S
H1282 C1296 0.931 . S
H1283 C1298 0.930 . S
C1284 H1272 0.930 . S
C1284 C1285 1.399 . S
C1284 C1289 1.399 . S
C1285 C1284 1.399 . S
C1285 C1286 1.376 . S
C1286 H1273 0.930 . S
C1286 C1285 1.376 . S
C1286 C1287 1.388 . S
C1287 H1274 0.930 . S
C1287 C1286 1.388 . S
C1287 C1288 1.390 . S
C1288 C1287 1.390 . S
C1288 C1289 1.394 . S
C1288 C1294 1.465 . S
C1289 C1284 1.399 . S
C1289 C1288 1.394 . S
C1289 C1290 1.516 . S
C1290 C1289 1.516 . S
C1290 C1291 1.502 . S
C1290 C1292 1.561 . S
C1290 C1293 1.526 . S
C1291 H1275 0.959 . S
C1291 H1276 0.959 . S
C1291 H1277 0.961 . S
C1291 C1290 1.502 . S
C1292 H1278 0.960 . S
C1292 H1279 0.961 . S
C1292 H1280 0.959 . S
C1292 C1290 1.561 . S
C1293 C1290 1.526 . S
C1293 C1294 1.396 . S
C1293 C1298 1.390 . S
C1294 C1288 1.465 . S
C1294 C1293 1.396 . S
C1294 C1295 1.399 . S
C1295 H1281 0.929 . S
C1295 C1294 1.399 . S
C1295 C1296 1.385 . S
C1296 H1282 0.931 . S
C1296 C1295 1.385 . S
C1296 C1297 1.389 . S
C1297 C1296 1.389 . S
C1297 C1298 1.387 . S
C1298 H1283 0.930 . S
C1298 C1293 1.390 . S
C1298 C1297 1.387 . S
H1299 C1311 0.930 . S
H1300 C1313 0.930 . S
H1301 C1314 0.930 . S
H1302 C1318 0.959 . S
H1303 C1318 0.959 . S
H1304 C1318 0.961 . S
H1305 C1319 0.960 . S
H1306 C1319 0.961 . S
H1307 C1319 0.959 . S
H1308 C1322 0.929 . S
H1309 C1323 0.931 . S
H1310 C1325 0.930 . S
C1311 H1299 0.930 . S
C1311 C1312 1.399 . S
C1311 C1316 1.399 . S
C1312 C1311 1.399 . S
C1312 C1313 1.376 . S
C1313 H1300 0.930 . S
C1313 C1312 1.376 . S
C1313 C1314 1.388 . S
C1314 H1301 0.930 . S
C1314 C1313 1.388 . S
C1314 C1315 1.390 . S
C1315 C1314 1.390 . S
C1315 C1316 1.394 . S
C1315 C1321 1.465 . S
C1316 C1311 1.399 . S
C1316 C1315 1.394 . S
C1316 C1317 1.516 . S
C1317 C1316 1.516 . S
C1317 C1318 1.502 . S
C1317 C1319 1.561 . S
C1317 C1320 1.526 . S
C1318 H1302 0.959 . S
C1318 H1303 0.959 . S
C1318 H1304 0.961 . S
C1318 C1317 1.502 . S
C1319 H1305 0.960 . S
C1319 H1306 0.961 . S
C1319 H1307 0.959 . S
C1319 C1317 1.561 . S
C1320 C1317 1.526 . S
C1320 C1321 1.396 . S
C1320 C1325 1.390 . S
C1321 C1315 1.465 . S
C1321 C1320 1.396 . S
C1321 C1322 1.399 . S
C1322 H1308 0.929 . S
C1322 C1321 1.399 . S
C1322 C1323 1.385 . S
C1323 H1309 0.931 . S
C1323 C1322 1.385 . S
C1323 C1324 1.389 . S
C1324 C1323 1.389 . S
C1324 C1325 1.387 . S
C1325 H1310 0.930 . S
C1325 C1320 1.390 . S
C1325 C1324 1.387 . S
H1326 C1338 0.930 . S
H1327 C1340 0.930 . S
H1328 C1341 0.930 . S
H1329 C1345 0.959 . S
H1330 C1345 0.959 . S
H1331 C1345 0.961 . S
H1332 C1346 0.960 . S
H1333 C1346 0.961 . S
H1334 C1346 0.959 . S
H1335 C1349 0.929 . S
H1336 C1350 0.931 . S
H1337 C1352 0.930 . S
C1338 H1326 0.930 . S
C1338 C1339 1.399 . S
C1338 C1343 1.399 . S
C1339 C1338 1.399 . S
C1339 C1340 1.376 . S
C1340 H1327 0.930 . S
C1340 C1339 1.376 . S
C1340 C1341 1.388 . S
C1341 H1328 0.930 . S
C1341 C1340 1.388 . S
C1341 C1342 1.390 . S
C1342 C1341 1.390 . S
C1342 C1343 1.394 . S
C1342 C1348 1.465 . S
C1343 C1338 1.399 . S
C1343 C1342 1.394 . S
C1343 C1344 1.516 . S
C1344 C1343 1.516 . S
C1344 C1345 1.502 . S
C1344 C1346 1.561 . S
C1344 C1347 1.526 . S
C1345 H1329 0.959 . S
C1345 H1330 0.959 . S
C1345 H1331 0.961 . S
C1345 C1344 1.502 . S
C1346 H1332 0.960 . S
C1346 H1333 0.961 . S
C1346 H1334 0.959 . S
C1346 C1344 1.561 . S
C1347 C1344 1.526 . S
C1347 C1348 1.396 . S
C1347 C1352 1.390 . S
C1348 C1342 1.465 . S
C1348 C1347 1.396 . S
C1348 C1349 1.399 . S
C1349 H1335 0.929 . S
C1349 C1348 1.399 . S
C1349 C1350 1.385 . S
C1350 H1336 0.931 . S
C1350 C1349 1.385 . S
C1350 C1351 1.389 . S
C1351 C1350 1.389 . S
C1351 C1352 1.387 . S
C1352 H1337 0.930 . S
C1352 C1347 1.390 . S
C1352 C1351 1.387 . S
H1353 C1365 0.930 . S
H1354 C1367 0.930 . S
H1355 C1368 0.930 . S
H1356 C1372 0.959 . S
H1357 C1372 0.959 . S
H1358 C1372 0.961 . S
H1359 C1373 0.960 . S
H1360 C1373 0.961 . S
H1361 C1373 0.959 . S
H1362 C1376 0.929 . S
H1363 C1377 0.931 . S
H1364 C1379 0.930 . S
C1365 H1353 0.930 . S
C1365 C1366 1.399 . S
C1365 C1370 1.399 . S
C1366 C1365 1.399 . S
C1366 C1367 1.376 . S
C1367 H1354 0.930 . S
C1367 C1366 1.376 . S
C1367 C1368 1.388 . S
C1368 H1355 0.930 . S
C1368 C1367 1.388 . S
C1368 C1369 1.390 . S
C1369 C1368 1.390 . S
C1369 C1370 1.394 . S
C1369 C1375 1.465 . S
C1370 C1365 1.399 . S
C1370 C1369 1.394 . S
C1370 C1371 1.516 . S
C1371 C1370 1.516 . S
C1371 C1372 1.502 . S
C1371 C1373 1.561 . S
C1371 C1374 1.526 . S
C1372 H1356 0.959 . S
C1372 H1357 0.959 . S
C1372 H1358 0.961 . S
C1372 C1371 1.502 . S
C1373 H1359 0.960 . S
C1373 H1360 0.961 . S
C1373 H1361 0.959 . S
C1373 C1371 1.561 . S
C1374 C1371 1.526 . S
C1374 C1375 1.396 . S
C1374 C1379 1.390 . S
C1375 C1369 1.465 . S
C1375 C1374 1.396 . S
C1375 C1376 1.399 . S
C1376 H1362 0.929 . S
C1376 C1375 1.399 . S
C1376 C1377 1.385 . S
C1377 H1363 0.931 . S
C1377 C1376 1.385 . S
C1377 C1378 1.389 . S
C1378 C1377 1.389 . S
C1378 C1379 1.387 . S
C1379 H1364 0.930 . S
C1379 C1374 1.390 . S
C1379 C1378 1.387 . S
H1380 C1392 0.930 . S
H1381 C1394 0.930 . S
H1382 C1395 0.930 . S
H1383 C1399 0.959 . S
H1384 C1399 0.959 . S
H1385 C1399 0.961 . S
H1386 C1400 0.960 . S
H1387 C1400 0.961 . S
H1388 C1400 0.959 . S
H1389 C1403 0.929 . S
H1390 C1404 0.931 . S
H1391 C1406 0.930 . S
C1392 H1380 0.930 . S
C1392 C1393 1.399 . S
C1392 C1397 1.399 . S
C1393 C1392 1.399 . S
C1393 C1394 1.376 . S
C1394 H1381 0.930 . S
C1394 C1393 1.376 . S
C1394 C1395 1.388 . S
C1395 H1382 0.930 . S
C1395 C1394 1.388 . S
C1395 C1396 1.390 . S
C1396 C1395 1.390 . S
C1396 C1397 1.394 . S
C1396 C1402 1.465 . S
C1397 C1392 1.399 . S
C1397 C1396 1.394 . S
C1397 C1398 1.516 . S
C1398 C1397 1.516 . S
C1398 C1399 1.502 . S
C1398 C1400 1.561 . S
C1398 C1401 1.526 . S
C1399 H1383 0.959 . S
C1399 H1384 0.959 . S
C1399 H1385 0.961 . S
C1399 C1398 1.502 . S
C1400 H1386 0.960 . S
C1400 H1387 0.961 . S
C1400 H1388 0.959 . S
C1400 C1398 1.561 . S
C1401 C1398 1.526 . S
C1401 C1402 1.396 . S
C1401 C1406 1.390 . S
C1402 C1396 1.465 . S
C1402 C1401 1.396 . S
C1402 C1403 1.399 . S
C1403 H1389 0.929 . S
C1403 C1402 1.399 . S
C1403 C1404 1.385 . S
C1404 H1390 0.931 . S
C1404 C1403 1.385 . S
C1404 C1405 1.389 . S
C1405 C1404 1.389 . S
C1405 C1406 1.387 . S
C1406 H1391 0.930 . S
C1406 C1401 1.390 . S
C1406 C1405 1.387 . S
H1407 C1419 0.930 . S
H1408 C1421 0.930 . S
H1409 C1422 0.943 . S
H1410 C1426 0.959 . S
H1411 C1426 0.959 . S
H1412 C1426 0.961 . S
H1413 C1427 0.960 . S
H1414 C1427 0.961 . S
H1415 C1427 0.959 . S
H1416 C1430 0.929 . S
H1417 C1431 0.931 . S
H1418 C1433 0.930 . S
C1419 H1407 0.930 . S
C1419 C1420 1.399 . S
C1419 C1424 1.399 . S
C1420 C1419 1.399 . S
C1420 C1421 1.376 . S
C1421 H1408 0.930 . S
C1421 C1420 1.376 . S
C1421 C1422 1.388 . S
C1422 H1409 0.943 . S
C1422 C1421 1.388 . S
C1422 C1423 1.390 1_556 S
C1423 C1422 1.390 1_554 S
C1423 C1424 1.394 1_554 S
C1423 C1429 1.465 . S
C1424 C1419 1.399 . S
C1424 C1423 1.394 1_556 S
C1424 C1425 1.516 1_556 S
C1425 C1424 1.516 1_554 S
C1425 C1426 1.502 1_554 S
C1425 C1427 1.561 . S
C1425 C1428 1.526 . S
C1426 H1410 0.959 . S
C1426 H1411 0.959 . S
C1426 H1412 0.961 . S
C1426 C1425 1.502 1_556 S
C1427 H1413 0.960 . S
C1427 H1414 0.961 . S
C1427 H1415 0.959 . S
C1427 C1425 1.561 . S
C1428 C1425 1.526 . S
C1428 C1429 1.396 . S
C1428 C1433 1.390 . S
C1429 C1423 1.465 . S
C1429 C1428 1.396 . S
C1429 C1430 1.399 . S
C1430 H1416 0.929 . S
C1430 C1429 1.399 . S
C1430 C1431 1.385 . S
C1431 H1417 0.931 . S
C1431 C1430 1.385 . S
C1431 C1432 1.389 . S
C1432 C1431 1.389 . S
C1432 C1433 1.387 . S
C1433 H1418 0.930 . S
C1433 C1428 1.390 . S
C1433 C1432 1.387 . S
H1434 C1446 0.930 . S
H1435 C1448 0.930 . S
H1436 C1449 0.930 . S
H1437 C1453 0.959 . S
H1438 C1453 0.959 . S
H1439 C1453 0.961 . S
H1440 C1454 0.960 . S
H1441 C1454 0.961 . S
H1442 C1454 0.959 . S
H1443 C1457 0.929 . S
H1444 C1458 0.931 . S
H1445 C1460 0.930 . S
C1446 H1434 0.930 . S
C1446 C1447 1.399 . S
C1446 C1451 1.399 . S
C1447 C1446 1.399 . S
C1447 C1448 1.376 . S
C1448 H1435 0.930 . S
C1448 C1447 1.376 . S
C1448 C1449 1.388 . S
C1449 H1436 0.930 . S
C1449 C1448 1.388 . S
C1449 C1450 1.390 . S
C1450 C1449 1.390 . S
C1450 C1451 1.394 . S
C1450 C1456 1.465 . S
C1451 C1446 1.399 . S
C1451 C1450 1.394 . S
C1451 C1452 1.516 . S
C1452 C1451 1.516 . S
C1452 C1453 1.502 . S
C1452 C1454 1.561 . S
C1452 C1455 1.526 . S
C1453 H1437 0.959 . S
C1453 H1438 0.959 . S
C1453 H1439 0.961 . S
C1453 C1452 1.502 . S
C1454 H1440 0.960 . S
C1454 H1441 0.961 . S
C1454 H1442 0.959 . S
C1454 C1452 1.561 . S
C1455 C1452 1.526 . S
C1455 C1456 1.396 . S
C1455 C1460 1.390 . S
C1456 C1450 1.465 . S
C1456 C1455 1.396 . S
C1456 C1457 1.399 . S
C1457 H1443 0.929 . S
C1457 C1456 1.399 . S
C1457 C1458 1.385 . S
C1458 H1444 0.931 . S
C1458 C1457 1.385 . S
C1458 C1459 1.389 . S
C1459 C1458 1.389 . S
C1459 C1460 1.387 . S
C1460 H1445 0.930 . S
C1460 C1455 1.390 . S
C1460 C1459 1.387 . S
H1461 C1473 0.930 . S
H1462 C1475 0.930 . S
H1463 C1476 0.930 . S
H1464 C1480 0.959 . S
H1465 C1480 0.959 . S
H1466 C1480 0.961 . S
H1467 C1481 0.960 . S
H1468 C1481 0.961 . S
H1469 C1481 0.959 . S
H1470 C1484 0.929 . S
H1471 C1485 0.931 . S
H1472 C1487 0.930 . S
C1473 H1461 0.930 . S
C1473 C1474 1.399 . S
C1473 C1478 1.399 . S
C1474 C1473 1.399 . S
C1474 C1475 1.376 . S
C1475 H1462 0.930 . S
C1475 C1474 1.376 . S
C1475 C1476 1.388 . S
C1476 H1463 0.930 . S
C1476 C1475 1.388 . S
C1476 C1477 1.390 . S
C1477 C1476 1.390 . S
C1477 C1478 1.394 . S
C1477 C1483 1.465 . S
C1478 C1473 1.399 . S
C1478 C1477 1.394 . S
C1478 C1479 1.516 . S
C1479 C1478 1.516 . S
C1479 C1480 1.502 . S
C1479 C1481 1.561 . S
C1479 C1482 1.526 . S
C1480 H1464 0.959 . S
C1480 H1465 0.959 . S
C1480 H1466 0.961 . S
C1480 C1479 1.502 . S
C1481 H1467 0.960 . S
C1481 H1468 0.961 . S
C1481 H1469 0.959 . S
C1481 C1479 1.561 . S
C1482 C1479 1.526 . S
C1482 C1483 1.396 . S
C1482 C1487 1.390 . S
C1483 C1477 1.465 . S
C1483 C1482 1.396 . S
C1483 C1484 1.399 . S
C1484 H1470 0.929 . S
C1484 C1483 1.399 . S
C1484 C1485 1.385 . S
C1485 H1471 0.931 . S
C1485 C1484 1.385 . S
C1485 C1486 1.389 . S
C1486 C1485 1.389 . S
C1486 C1487 1.387 . S
C1487 H1472 0.930 . S
C1487 C1482 1.390 . S
C1487 C1486 1.387 . S
H1488 C1500 0.930 . S
H1489 C1502 0.930 . S
H1490 C1503 0.930 . S
H1491 C1507 0.959 . S
H1492 C1507 0.959 . S
H1493 C1507 0.961 . S
H1494 C1508 0.960 . S
H1495 C1508 0.961 . S
H1496 C1508 0.959 . S
H1497 C1511 0.929 . S
H1498 C1512 0.931 . S
H1499 C1514 0.930 . S
C1500 H1488 0.930 . S
C1500 C1501 1.399 . S
C1500 C1505 1.399 . S
C1501 C1500 1.399 . S
C1501 C1502 1.376 . S
C1502 H1489 0.930 . S
C1502 C1501 1.376 . S
C1502 C1503 1.388 . S
C1503 H1490 0.930 . S
C1503 C1502 1.388 . S
C1503 C1504 1.390 . S
C1504 C1503 1.390 . S
C1504 C1505 1.394 . S
C1504 C1510 1.465 . S
C1505 C1500 1.399 . S
C1505 C1504 1.394 . S
C1505 C1506 1.516 . S
C1506 C1505 1.516 . S
C1506 C1507 1.502 . S
C1506 C1508 1.561 . S
C1506 C1509 1.526 . S
C1507 H1491 0.959 . S
C1507 H1492 0.959 . S
C1507 H1493 0.961 . S
C1507 C1506 1.502 . S
C1508 H1494 0.960 . S
C1508 H1495 0.961 . S
C1508 H1496 0.959 . S
C1508 C1506 1.561 . S
C1509 C1506 1.526 . S
C1509 C1510 1.396 . S
C1509 C1514 1.390 . S
C1510 C1504 1.465 . S
C1510 C1509 1.396 . S
C1510 C1511 1.399 . S
C1511 H1497 0.929 . S
C1511 C1510 1.399 . S
C1511 C1512 1.385 . S
C1512 H1498 0.931 . S
C1512 C1511 1.385 . S
C1512 C1513 1.389 . S
C1513 C1512 1.389 . S
C1513 C1514 1.387 . S
C1514 H1499 0.930 . S
C1514 C1509 1.390 . S
C1514 C1513 1.387 . S
H1515 C1527 0.930 . S
H1516 C1529 0.930 . S
H1517 C1530 0.930 . S
H1518 C1534 0.959 . S
H1519 C1534 0.959 . S
H1520 C1534 0.961 . S
H1521 C1535 0.960 . S
H1522 C1535 0.961 . S
H1523 C1535 0.959 . S
H1524 C1538 0.929 . S
H1525 C1539 0.931 . S
H1526 C1541 0.930 . S
C1527 H1515 0.930 . S
C1527 C1528 1.399 . S
C1527 C1532 1.399 . S
C1528 C1527 1.399 . S
C1528 C1529 1.376 . S
C1529 H1516 0.930 . S
C1529 C1528 1.376 . S
C1529 C1530 1.388 . S
C1530 H1517 0.930 . S
C1530 C1529 1.388 . S
C1530 C1531 1.390 . S
C1531 C1530 1.390 . S
C1531 C1532 1.394 . S
C1531 C1537 1.465 . S
C1532 C1527 1.399 . S
C1532 C1531 1.394 . S
C1532 C1533 1.516 . S
C1533 C1532 1.516 . S
C1533 C1534 1.502 . S
C1533 C1535 1.561 . S
C1533 C1536 1.526 . S
C1534 H1518 0.959 . S
C1534 H1519 0.959 . S
C1534 H1520 0.961 . S
C1534 C1533 1.502 . S
C1535 H1521 0.960 . S
C1535 H1522 0.961 . S
C1535 H1523 0.959 . S
C1535 C1533 1.561 . S
C1536 C1533 1.526 . S
C1536 C1537 1.396 . S
C1536 C1541 1.390 . S
C1537 C1531 1.465 . S
C1537 C1536 1.396 . S
C1537 C1538 1.399 . S
C1538 H1524 0.929 . S
C1538 C1537 1.399 . S
C1538 C1539 1.385 . S
C1539 H1525 0.931 . S
C1539 C1538 1.385 . S
C1539 C1540 1.389 . S
C1540 C1539 1.389 . S
C1540 C1541 1.387 . S
C1541 H1526 0.930 . S
C1541 C1536 1.390 . S
C1541 C1540 1.387 . S
H1542 C1554 0.930 . S
H1543 C1556 0.930 . S
H1544 C1557 0.930 . S
H1545 C1561 0.959 . S
H1546 C1561 0.959 . S
H1547 C1561 0.961 . S
H1548 C1562 0.960 . S
H1549 C1562 0.961 . S
H1550 C1562 0.959 . S
H1551 C1565 0.929 . S
H1552 C1566 0.931 . S
H1553 C1568 0.930 . S
C1554 H1542 0.930 . S
C1554 C1555 1.399 . S
C1554 C1559 1.399 . S
C1555 C1554 1.399 . S
C1555 C1556 1.376 . S
C1556 H1543 0.930 . S
C1556 C1555 1.376 . S
C1556 C1557 1.388 . S
C1557 H1544 0.930 . S
C1557 C1556 1.388 . S
C1557 C1558 1.390 . S
C1558 C1557 1.390 . S
C1558 C1559 1.394 . S
C1558 C1564 1.465 . S
C1559 C1554 1.399 . S
C1559 C1558 1.394 . S
C1559 C1560 1.516 . S
C1560 C1559 1.516 . S
C1560 C1561 1.502 . S
C1560 C1562 1.561 . S
C1560 C1563 1.526 . S
C1561 H1545 0.959 . S
C1561 H1546 0.959 . S
C1561 H1547 0.961 . S
C1561 C1560 1.502 . S
C1562 H1548 0.960 . S
C1562 H1549 0.961 . S
C1562 H1550 0.959 . S
C1562 C1560 1.561 . S
C1563 C1560 1.526 . S
C1563 C1564 1.396 . S
C1563 C1568 1.390 . S
C1564 C1558 1.465 . S
C1564 C1563 1.396 . S
C1564 C1565 1.399 . S
C1565 H1551 0.929 . S
C1565 C1564 1.399 . S
C1565 C1566 1.385 . S
C1566 H1552 0.931 . S
C1566 C1565 1.385 . S
C1566 C1567 1.389 . S
C1567 C1566 1.389 . S
C1567 C1568 1.387 . S
C1568 H1553 0.930 . S
C1568 C1563 1.390 . S
C1568 C1567 1.387 . S
H1569 C1581 0.930 . S
H1570 C1583 0.930 . S
H1571 C1584 0.930 . S
H1572 C1588 0.959 . S
H1573 C1588 0.959 . S
H1574 C1588 0.961 . S
H1575 C1589 0.960 . S
H1576 C1589 0.961 . S
H1577 C1589 0.959 . S
H1578 C1592 0.929 . S
H1579 C1593 0.931 . S
H1580 C1595 0.930 . S
C1581 H1569 0.930 . S
C1581 C1582 1.399 . S
C1581 C1586 1.399 . S
C1582 C1581 1.399 . S
C1582 C1583 1.376 . S
C1583 H1570 0.930 . S
C1583 C1582 1.376 . S
C1583 C1584 1.388 . S
C1584 H1571 0.930 . S
C1584 C1583 1.388 . S
C1584 C1585 1.390 . S
C1585 C1584 1.390 . S
C1585 C1586 1.394 . S
C1585 C1591 1.465 . S
C1586 C1581 1.399 . S
C1586 C1585 1.394 . S
C1586 C1587 1.516 . S
C1587 C1586 1.516 . S
C1587 C1588 1.502 . S
C1587 C1589 1.561 . S
C1587 C1590 1.526 . S
C1588 H1572 0.959 . S
C1588 H1573 0.959 . S
C1588 H1574 0.961 . S
C1588 C1587 1.502 . S
C1589 H1575 0.960 . S
C1589 H1576 0.961 . S
C1589 H1577 0.959 . S
C1589 C1587 1.561 . S
C1590 C1587 1.526 . S
C1590 C1591 1.396 . S
C1590 C1595 1.390 . S
C1591 C1585 1.465 . S
C1591 C1590 1.396 . S
C1591 C1592 1.399 . S
C1592 H1578 0.929 . S
C1592 C1591 1.399 . S
C1592 C1593 1.385 . S
C1593 H1579 0.931 . S
C1593 C1592 1.385 . S
C1593 C1594 1.389 . S
C1594 C1593 1.389 . S
C1594 C1595 1.387 . S
C1595 H1580 0.930 . S
C1595 C1590 1.390 . S
C1595 C1594 1.387 . S
H1596 C1608 0.930 . S
H1597 C1610 0.930 . S
H1598 C1611 0.930 . S
H1599 C1615 0.959 . S
H1600 C1615 0.959 . S
H1601 C1615 0.961 . S
H1602 C1616 0.960 . S
H1603 C1616 0.961 . S
H1604 C1616 0.959 . S
H1605 C1619 0.929 . S
H1606 C1620 0.931 . S
H1607 C1622 0.930 . S
C1608 H1596 0.930 . S
C1608 C1609 1.399 . S
C1608 C1613 1.399 . S
C1609 C1608 1.399 . S
C1609 C1610 1.376 . S
C1610 H1597 0.930 . S
C1610 C1609 1.376 . S
C1610 C1611 1.388 . S
C1611 H1598 0.930 . S
C1611 C1610 1.388 . S
C1611 C1612 1.390 . S
C1612 C1611 1.390 . S
C1612 C1613 1.394 . S
C1612 C1618 1.465 . S
C1613 C1608 1.399 . S
C1613 C1612 1.394 . S
C1613 C1614 1.516 . S
C1614 C1613 1.516 . S
C1614 C1615 1.502 . S
C1614 C1616 1.561 . S
C1614 C1617 1.526 . S
C1615 H1599 0.959 . S
C1615 H1600 0.959 . S
C1615 H1601 0.961 . S
C1615 C1614 1.502 . S
C1616 H1602 0.960 . S
C1616 H1603 0.961 . S
C1616 H1604 0.959 . S
C1616 C1614 1.561 . S
C1617 C1614 1.526 . S
C1617 C1618 1.396 . S
C1617 C1622 1.390 . S
C1618 C1612 1.465 . S
C1618 C1617 1.396 . S
C1618 C1619 1.399 . S
C1619 H1605 0.929 . S
C1619 C1618 1.399 . S
C1619 C1620 1.385 . S
C1620 H1606 0.931 . S
C1620 C1619 1.385 . S
C1620 C1621 1.389 . S
C1621 C1620 1.389 . S
C1621 C1622 1.387 . S
C1622 H1607 0.930 . S
C1622 C1617 1.390 . S
C1622 C1621 1.387 . S
H1623 C1635 0.930 . S
H1624 C1637 0.930 . S
H1625 C1638 0.930 . S
H1626 C1642 0.959 . S
H1627 C1642 0.959 . S
H1628 C1642 0.961 . S
H1629 C1643 0.960 . S
H1630 C1643 0.961 . S
H1631 C1643 0.959 . S
H1632 C1646 0.929 . S
H1633 C1647 0.931 . S
H1634 C1649 0.930 . S
C1635 H1623 0.930 . S
C1635 C1636 1.399 . S
C1635 C1640 1.399 . S
C1636 C1635 1.399 . S
C1636 C1637 1.376 . S
C1637 H1624 0.930 . S
C1637 C1636 1.376 . S
C1637 C1638 1.388 . S
C1638 H1625 0.930 . S
C1638 C1637 1.388 . S
C1638 C1639 1.390 . S
C1639 C1638 1.390 . S
C1639 C1640 1.394 . S
C1639 C1645 1.465 . S
C1640 C1635 1.399 . S
C1640 C1639 1.394 . S
C1640 C1641 1.516 . S
C1641 C1640 1.516 . S
C1641 C1642 1.502 . S
C1641 C1643 1.561 . S
C1641 C1644 1.526 . S
C1642 H1626 0.959 . S
C1642 H1627 0.959 . S
C1642 H1628 0.961 . S
C1642 C1641 1.502 . S
C1643 H1629 0.960 . S
C1643 H1630 0.961 . S
C1643 H1631 0.959 . S
C1643 C1641 1.561 . S
C1644 C1641 1.526 . S
C1644 C1645 1.396 . S
C1644 C1649 1.390 . S
C1645 C1639 1.465 . S
C1645 C1644 1.396 . S
C1645 C1646 1.399 . S
C1646 H1632 0.929 . S
C1646 C1645 1.399 . S
C1646 C1647 1.385 . S
C1647 H1633 0.931 . S
C1647 C1646 1.385 . S
C1647 C1648 1.389 . S
C1648 C1647 1.389 . S
C1648 C1649 1.387 . S
C1649 H1634 0.930 . S
C1649 C1644 1.390 . S
C1649 C1648 1.387 . S
H1650 C1662 0.930 . S
H1651 C1664 0.930 . S
H1652 C1665 0.930 . S
H1653 C1669 0.959 . S
H1654 C1669 0.959 . S
H1655 C1669 0.961 . S
H1656 C1670 0.960 . S
H1657 C1670 0.961 . S
H1658 C1670 0.959 . S
H1659 C1673 0.929 . S
H1660 C1674 0.931 . S
H1661 C1676 0.930 . S
C1662 H1650 0.930 . S
C1662 C1663 1.399 . S
C1662 C1667 1.399 . S
C1663 C1662 1.399 . S
C1663 C1664 1.376 . S
C1664 H1651 0.930 . S
C1664 C1663 1.376 . S
C1664 C1665 1.388 . S
C1665 H1652 0.930 . S
C1665 C1664 1.388 . S
C1665 C1666 1.390 . S
C1666 C1665 1.390 . S
C1666 C1667 1.394 . S
C1666 C1672 1.465 . S
C1667 C1662 1.399 . S
C1667 C1666 1.394 . S
C1667 C1668 1.516 . S
C1668 C1667 1.516 . S
C1668 C1669 1.502 . S
C1668 C1670 1.561 . S
C1668 C1671 1.526 . S
C1669 H1653 0.959 . S
C1669 H1654 0.959 . S
C1669 H1655 0.961 . S
C1669 C1668 1.502 . S
C1670 H1656 0.960 . S
C1670 H1657 0.961 . S
C1670 H1658 0.959 . S
C1670 C1668 1.561 . S
C1671 C1668 1.526 . S
C1671 C1672 1.396 . S
C1671 C1676 1.390 . S
C1672 C1666 1.465 . S
C1672 C1671 1.396 . S
C1672 C1673 1.399 . S
C1673 H1659 0.929 . S
C1673 C1672 1.399 . S
C1673 C1674 1.385 . S
C1674 H1660 0.931 . S
C1674 C1673 1.385 . S
C1674 C1675 1.389 . S
C1675 C1674 1.389 . S
C1675 C1676 1.387 . S
C1676 H1661 0.930 . S
C1676 C1671 1.390 . S
C1676 C1675 1.387 . S
H1677 C1689 0.930 . S
H1678 C1691 0.930 . S
H1679 C1692 0.930 . S
H1680 C1696 0.959 . S
H1681 C1696 0.959 . S
H1682 C1696 0.961 . S
H1683 C1697 0.960 . S
H1684 C1697 0.961 . S
H1685 C1697 0.959 . S
H1686 C1700 0.929 . S
H1687 C1701 0.931 . S
H1688 C1703 0.930 . S
C1689 H1677 0.930 . S
C1689 C1690 1.399 . S
C1689 C1694 1.399 . S
C1690 C1689 1.399 . S
C1690 C1691 1.376 . S
C1691 H1678 0.930 . S
C1691 C1690 1.376 . S
C1691 C1692 1.388 . S
C1692 H1679 0.930 . S
C1692 C1691 1.388 . S
C1692 C1693 1.390 . S
C1693 C1692 1.390 . S
C1693 C1694 1.394 . S
C1693 C1699 1.465 . S
C1694 C1689 1.399 . S
C1694 C1693 1.394 . S
C1694 C1695 1.516 . S
C1695 C1694 1.516 . S
C1695 C1696 1.502 . S
C1695 C1697 1.561 . S
C1695 C1698 1.526 . S
C1696 H1680 0.959 . S
C1696 H1681 0.959 . S
C1696 H1682 0.961 . S
C1696 C1695 1.502 . S
C1697 H1683 0.960 . S
C1697 H1684 0.961 . S
C1697 H1685 0.959 . S
C1697 C1695 1.561 . S
C1698 C1695 1.526 . S
C1698 C1699 1.396 . S
C1698 C1703 1.390 . S
C1699 C1693 1.465 . S
C1699 C1698 1.396 . S
C1699 C1700 1.399 . S
C1700 H1686 0.929 . S
C1700 C1699 1.399 . S
C1700 C1701 1.385 . S
C1701 H1687 0.931 . S
C1701 C1700 1.385 . S
C1701 C1702 1.389 . S
C1702 C1701 1.389 . S
C1702 C1703 1.387 . S
C1703 H1688 0.930 . S
C1703 C1698 1.390 . S
C1703 C1702 1.387 . S
C1069 C753 1.351 . S
C1081 C57 1.395 . S
C1096 C145 1.384 . S
C1108 C821 1.366 . S
C1123 C233 1.392 . S
C1135 C900 1.344 . S
C1150 C293 1.390 . S
C1162 C997 1.345 . S
C1177 C557 1.349 . S
C1189 C372 1.383 . S
C1204 C460 1.389 . S
C1216 C645 1.346 . S
C1231 C20 1.446 . S
C1243 C469 1.425 . S
C1258 C108 1.441 . S
C1270 C49 1.427 . S
C1285 C196 1.443 . S
C1297 C137 1.441 . S
C1312 C225 1.450 . S
C1324 C313 1.477 . S
C1339 C284 1.477 . S
C1351 C409 1.471 . S
C1366 C381 1.462 . S
C1378 C497 1.483 . S
C1393 C636 1.424 . S
C1405 C577 1.448 . S
C1420 C665 1.463 . S
C1432 C761 1.470 . S
C1447 C812 1.479 . S
C1459 C733 1.473 . S
C1474 C841 1.473 . S
C1486 C909 1.446 . S
C1501 C937 1.478 . S
C1513 C988 1.482 . S
C1528 C1017 1.464 . S
C1540 C548 1.472 . S
C1555 C929 1.149 . S
C1567 C29 1.148 . S
C1582 C1025 1.129 . S
C1594 C117 1.132 . S
C1609 C585 1.146 . S
C1621 C205 1.144 . S
C1636 C321 1.144 . S
C1648 C673 1.146 . S
C1663 C401 1.132 . S
C1675 C724 1.135 . S
C1690 C849 1.145 . S
C1702 C489 1.143 . S
