# Generated by pormake.
# Topology wjh, (4)-cn, num edge types: 1
# Building blocks:
#     Node 0, Type 0, BuildingBlock: QUQFOY_clean_sbu_1, # of connection points: 4
#     Node 1, Type 0, BuildingBlock: QUQFOY_clean_sbu_1, # of connection points: 4
#     Node 2, Type 0, BuildingBlock: QUQFOY_clean_sbu_1, # of connection points: 4
#     Node 3, Type 0, BuildingBlock: QUQFOY_clean_sbu_1, # of connection points: 4
#     Node 4, Type 0, BuildingBlock: QUQFOY_clean_sbu_1, # of connection points: 4
#     Node 5, Type 0, BuildingBlock: QUQFOY_clean_sbu_1, # of connection points: 4
#     Node 6, Type 0, BuildingBlock: QUQFOY_clean_sbu_1, # of connection points: 4
#     Node 7, Type 0, BuildingBlock: QUQFOY_clean_sbu_1, # of connection points: 4
#     Node 8, Type 0, BuildingBlock: QUQFOY_clean_sbu_1, # of connection points: 4
#     Node 9, Type 0, BuildingBlock: QUQFOY_clean_sbu_1, # of connection points: 4
#     Node 10, Type 0, BuildingBlock: QUQFOY_clean_sbu_1, # of connection points: 4
#     Node 11, Type 0, BuildingBlock: QUQFOY_clean_sbu_1, # of connection points: 4
#     Edge 12, Type (0, 0), BuildingBlock: KIFKEQ_clean_linker_1, # of connection points: 2
#     Edge 13, Type (0, 0), BuildingBlock: KIFKEQ_clean_linker_1, # of connection points: 2
#     Edge 14, Type (0, 0), BuildingBlock: KIFKEQ_clean_linker_1, # of connection points: 2
#     Edge 15, Type (0, 0), BuildingBlock: KIFKEQ_clean_linker_1, # of connection points: 2
#     Edge 16, Type (0, 0), BuildingBlock: KIFKEQ_clean_linker_1, # of connection points: 2
#     Edge 17, Type (0, 0), BuildingBlock: KIFKEQ_clean_linker_1, # of connection points: 2
#     Edge 18, Type (0, 0), BuildingBlock: KIFKEQ_clean_linker_1, # of connection points: 2
#     Edge 19, Type (0, 0), BuildingBlock: KIFKEQ_clean_linker_1, # of connection points: 2
#     Edge 20, Type (0, 0), BuildingBlock: KIFKEQ_clean_linker_1, # of connection points: 2
#     Edge 21, Type (0, 0), BuildingBlock: KIFKEQ_clean_linker_1, # of connection points: 2
#     Edge 22, Type (0, 0), BuildingBlock: KIFKEQ_clean_linker_1, # of connection points: 2
#     Edge 23, Type (0, 0), BuildingBlock: KIFKEQ_clean_linker_1, # of connection points: 2
#     Edge 24, Type (0, 0), BuildingBlock: KIFKEQ_clean_linker_1, # of connection points: 2
#     Edge 25, Type (0, 0), BuildingBlock: KIFKEQ_clean_linker_1, # of connection points: 2
#     Edge 26, Type (0, 0), BuildingBlock: KIFKEQ_clean_linker_1, # of connection points: 2
#     Edge 27, Type (0, 0), BuildingBlock: KIFKEQ_clean_linker_1, # of connection points: 2
#     Edge 28, Type (0, 0), BuildingBlock: KIFKEQ_clean_linker_1, # of connection points: 2
#     Edge 29, Type (0, 0), BuildingBlock: KIFKEQ_clean_linker_1, # of connection points: 2
#     Edge 30, Type (0, 0), BuildingBlock: KIFKEQ_clean_linker_1, # of connection points: 2
#     Edge 31, Type (0, 0), BuildingBlock: KIFKEQ_clean_linker_1, # of connection points: 2
#     Edge 32, Type (0, 0), BuildingBlock: KIFKEQ_clean_linker_1, # of connection points: 2
#     Edge 33, Type (0, 0), BuildingBlock: KIFKEQ_clean_linker_1, # of connection points: 2
#     Edge 34, Type (0, 0), BuildingBlock: KIFKEQ_clean_linker_1, # of connection points: 2
#     Edge 35, Type (0, 0), BuildingBlock: KIFKEQ_clean_linker_1, # of connection points: 2
# Relax obj value: 0.024
# Max RMSD: 0.076
# Mean RMSD: 0.076
data_MOF--net-wjh--node1-QUQFOY_clean_sbu_1--edge1-KIFKEQ_clean_linker_1
_symmetry_space_group_name_H-M    P1
_symmetry_Int_Tables_number       1
_symmetry_cell_setting            triclinic
loop_
_symmetry_equiv_pos_as_xyz
'x, y, z'
_cell_length_a     64.116956
_cell_length_b     64.118198
_cell_length_c     28.439913
_cell_angle_alpha  90.04289
_cell_angle_beta   89.952031
_cell_angle_gamma 119.95971
loop_
_atom_site_label
_atom_site_type_symbol
_atom_site_fract_x
_atom_site_fract_y
_atom_site_fract_z
_atom_type_partial_charge
O0 O 0.50781 0.10175 0.0577 0.0
Cd1 Cd 0.53482 0.13751 0.0573 0.0
Cd2 Cd 0.49776 0.13991 0.10492 0.0
O3 O 0.47685 0.10488 0.08263 0.0
O4 O 0.55894 0.13817 1.01171 0.0
O5 O 0.53893 0.15737 0.99906 0.0
C6 C 0.55412 0.15117 0.98423 0.0
C7 C 0.48315 0.16668 0.11009 0.0
C8 C 0.48548 0.09215 0.06715 0.0
C9 C 0.54303 0.1509 0.15851 0.0
O10 O 0.52107 0.14536 0.15886 0.0
O11 O 0.5533 0.15116 0.12003 0.0
O12 O 0.47526 0.14818 0.13717 0.0
O13 O 0.49813 0.16904 0.07727 0.0
O14 O 0.40853 0.50831 0.22472 0.0
Cd15 Cd 0.39926 0.53497 0.22355 0.0
Cd16 Cd 0.35991 0.49776 0.27077 0.0
O17 O 0.37449 0.47714 0.24897 0.0
O18 O 0.42266 0.55914 0.17807 0.0
O19 O 0.38352 0.53867 0.16492 0.0
C20 C 0.40487 0.55404 0.15031 0.0
C21 C 0.31848 0.48282 0.27508 0.0
C22 C 0.39594 0.48595 0.234 0.0
C23 C 0.39332 0.54337 0.32429 0.0
O24 O 0.37726 0.52128 0.32478 0.0
O25 O 0.40339 0.55359 0.28585 0.0
O26 O 0.3291 0.47507 0.30251 0.0
O27 O 0.33115 0.49782 0.24237 0.0
O28 O 0.90203 0.40735 0.39468 0.0
Cd29 Cd 0.8659 0.39731 0.39597 0.0
Cd30 Cd 0.86499 0.35926 0.4386 0.0
O31 O 0.89904 0.37241 0.41157 0.0
O32 O 0.86371 0.42043 0.35182 0.0
O33 O 0.84613 0.38139 0.33784 0.0
C34 C 0.85134 0.40262 0.32382 0.0
C35 C 0.83479 0.31915 0.43735 0.0
C36 C 0.91171 0.39432 0.39933 0.0
C37 C 0.85472 0.39146 0.49806 0.0
O38 O 0.86235 0.37662 0.49679 0.0
O39 O 0.85192 0.40027 0.46008 0.0
O40 O 0.85402 0.32615 0.46203 0.0
O41 O 0.83363 0.33467 0.4101 0.0
O42 O 0.49707 0.9007 0.55841 0.0
Cd43 Cd 0.47001 0.86496 0.55822 0.0
Cd44 Cd 0.5071 0.86265 0.6059 0.0
O45 O 0.52804 0.89764 0.58344 0.0
O46 O 0.44588 0.86437 0.51279 0.0
O47 O 0.46577 0.84505 0.49994 0.0
C48 C 0.45062 0.85131 0.48523 0.0
C49 C 0.52149 0.83572 0.61104 0.0
C50 C 0.51941 0.91033 0.56783 0.0
C51 C 0.46184 0.85179 0.65953 0.0
O52 O 0.4838 0.85733 0.65985 0.0
O53 O 0.45154 0.85143 0.62106 0.0
O54 O 0.52945 0.85422 0.63815 0.0
O55 O 0.50658 0.83345 0.5782 0.0
O56 O 0.59354 0.49095 0.73846 0.0
Cd57 Cd 0.60563 0.46648 0.73508 0.0
Cd58 Cd 0.64364 0.50502 0.7761 0.0
O59 O 0.62817 0.52422 0.75054 0.0
O60 O 0.58294 0.44126 0.69035 0.0
O61 O 0.62167 0.46464 0.67524 0.0
C62 C 0.60067 0.44798 0.66146 0.0
C63 C 0.68499 0.51966 0.77737 0.0
C64 C 0.60575 0.51377 0.74181 0.0
C65 C 0.61336 0.46089 0.83504 0.0
O66 O 0.62733 0.48351 0.83353 0.0
O67 O 0.60436 0.44913 0.79732 0.0
O68 O 0.67523 0.52881 0.80362 0.0
O69 O 0.67147 0.5034 0.74723 0.0
O70 O 0.10204 0.59552 0.89637 0.0
Cd71 Cd 0.13818 0.60556 0.89763 0.0
Cd72 Cd 0.13903 0.64358 0.94034 0.0
O73 O 0.10501 0.63046 0.91325 0.0
O74 O 0.14037 0.58242 0.85346 0.0
O75 O 0.15793 0.62146 0.83945 0.0
C76 C 0.15273 0.60021 0.82544 0.0
C77 C 0.16934 0.68365 0.93893 0.0
C78 C 0.09235 0.60855 0.90098 0.0
C79 C 0.14931 0.61144 0.99973 0.0
O80 O 0.14163 0.62623 0.99852 0.0
O81 O 0.15217 0.60266 0.96171 0.0
O82 O 0.15012 0.67675 0.96364 0.0
O83 O 0.17043 0.66804 0.91173 0.0
O84 O 0.9014 0.49581 0.91437 0.0
Cd85 Cd 0.86561 0.46886 0.91454 0.0
Cd86 Cd 0.8634 0.50596 0.86725 0.0
O87 O 0.8984 0.52686 0.8897 0.0
O88 O 0.86484 0.44466 0.95996 0.0
O89 O 0.8457 0.46473 0.97275 0.0
C90 C 0.85184 0.44949 0.98748 0.0
C91 C 0.83639 0.52026 0.86267 0.0
C92 C 0.91107 0.51816 0.90513 0.0
C93 C 0.85242 0.4608 0.81327 0.0
O94 O 0.85807 0.48279 0.81305 0.0
O95 O 0.85201 0.45045 0.8517 0.0
O96 O 0.85488 0.52836 0.83548 0.0
O97 O 0.83419 0.50528 0.8953 0.0
O98 O 0.40791 0.90126 0.07806 0.0
Cd99 Cd 0.39798 0.86516 0.07676 0.0
Cd100 Cd 0.3599 0.86422 0.03393 0.0
O101 O 0.37296 0.89824 0.06103 0.0
O102 O 0.42118 0.8631 0.12087 0.0
O103 O 0.38215 0.84541 0.13498 0.0
C104 C 0.40342 0.8507 0.14894 0.0
C105 C 0.31981 0.83395 0.03503 0.0
C106 C 0.39485 0.91092 0.07336 0.0
C107 C 0.39223 0.85407 0.9746 0.0
O108 O 0.37736 0.86166 0.97583 0.0
O109 O 0.40101 0.85125 1.01262 0.0
O110 O 0.3268 0.85318 1.01037 0.0
O111 O 0.33533 0.83281 0.06234 0.0
O112 O 0.50857 0.40718 0.25004 0.0
Cd113 Cd 0.53507 0.39767 0.25095 0.0
Cd114 Cd 0.49772 0.35855 0.20396 0.0
O115 O 0.47722 0.3732 0.22613 0.0
O116 O 0.55937 0.42097 0.29635 0.0
O117 O 0.5387 0.38183 0.30949 0.0
C118 C 0.55419 0.40315 0.32409 0.0
C119 C 0.48287 0.31715 0.19981 0.0
C120 C 0.48618 0.39468 0.24102 0.0
C121 C 0.54322 0.39176 0.1501 0.0
O122 O 0.52109 0.37586 0.14971 0.0
O123 O 0.55357 0.4017 0.18853 0.0
O124 O 0.47496 0.32768 0.17253 0.0
O125 O 0.49796 0.32988 0.23234 0.0
O126 O 0.1026 0.50713 0.4153 0.0
Cd127 Cd 0.13839 0.53404 0.41579 0.0
Cd128 Cd 0.14074 0.49698 0.3684 0.0
O129 O 0.10567 0.47612 0.39053 0.0
O130 O 0.13913 0.55819 0.46139 0.0
O131 O 0.1582 0.53804 0.47405 0.0
C132 C 0.15208 0.55329 0.48888 0.0
C133 C 0.16756 0.48244 0.36374 0.0
C134 C 0.09296 0.48479 0.40587 0.0
C135 C 0.15188 0.54223 0.31464 0.0
O136 O 0.14628 0.52026 0.31432 0.0
O137 O 0.15214 0.55253 0.35309 0.0
O138 O 0.14911 0.47448 0.33652 0.0
O139 O 0.16983 0.49745 0.39642 0.0
O140 O 0.59665 0.10123 0.57684 0.0
Cd141 Cd 0.6066 0.13734 0.57553 0.0
Cd142 Cd 0.64464 0.13824 0.53271 0.0
O143 O 0.63161 0.10427 0.55993 0.0
O144 O 0.58343 0.13948 0.61971 0.0
O145 O 0.62247 0.15712 0.6337 0.0
C146 C 0.60121 0.15187 0.64772 0.0
C147 C 0.68468 0.1686 0.53388 0.0
C148 C 0.60971 0.09158 0.57224 0.0
C149 C 0.61238 0.14839 0.47338 0.0
O150 O 0.62719 0.14073 0.47458 0.0
O151 O 0.60363 0.15127 0.51142 0.0
O152 O 0.67778 0.14937 0.50924 0.0
O153 O 0.6691 0.16969 0.56113 0.0
O154 O 0.49243 0.59317 0.73554 0.0
Cd155 Cd 0.46815 0.60547 0.73913 0.0
Cd156 Cd 0.50677 0.64335 0.69831 0.0
O157 O 0.52584 0.62773 0.72388 0.0
O158 O 0.44287 0.58285 0.78386 0.0
O159 O 0.46647 0.62152 0.7991 0.0
C160 C 0.44973 0.60055 0.81284 0.0
C161 C 0.52142 0.6847 0.69725 0.0
C162 C 0.51526 0.60528 0.73234 0.0
C163 C 0.46266 0.61333 0.63923 0.0
O164 O 0.48531 0.62714 0.64078 0.0
O165 O 0.45085 0.60443 0.67695 0.0
O166 O 0.53063 0.67497 0.67103 0.0
O167 O 0.50511 0.67113 0.72728 0.0
H168 H 0.52443 0.14786 0.24596 0.0
H169 H 0.59042 0.16416 0.17455 0.0
H170 H 0.54333 0.15087 0.32111 0.0
H171 H 0.60982 0.16818 0.25058 0.0
H172 H 0.62253 0.1374 0.38694 0.0
H173 H 0.60817 0.14202 0.31108 0.0
H174 H 0.57168 0.1754 0.37827 0.0
H175 H 0.58536 0.16983 0.45488 0.0
C176 C 0.54317 0.15252 0.24626 0.0
C177 C 0.55583 0.1555 0.20405 0.0
C178 C 0.55411 0.15448 0.28963 0.0
C179 C 0.57811 0.15969 0.29213 0.0
C180 C 0.59115 0.16372 0.24997 0.0
C181 C 0.5801 0.16156 0.20636 0.0
C182 C 0.61157 0.14588 0.38565 0.0
C183 C 0.60488 0.15302 0.42712 0.0
C184 C 0.6035 0.14875 0.34191 0.0
C185 C 0.5887 0.15905 0.33834 0.0
C186 C 0.58272 0.16701 0.37972 0.0
C187 C 0.59062 0.16391 0.42366 0.0
H188 H 0.37771 0.52504 0.41185 0.0
H189 H 0.42614 0.5912 0.33975 0.0
H190 H 0.39267 0.54462 0.48684 0.0
H191 H 0.44057 0.61127 0.41558 0.0
H192 H 0.48394 0.62505 0.55296 0.0
H193 H 0.46529 0.61078 0.47685 0.0
H194 H 0.39533 0.5729 0.54319 0.0
H195 H 0.41425 0.58649 0.6201 0.0
C196 C 0.3913 0.54395 0.41194 0.0
C197 C 0.40093 0.55647 0.36963 0.0
C198 C 0.39973 0.55528 0.45521 0.0
C199 C 0.41791 0.57955 0.45749 0.0
C200 C 0.42683 0.59243 0.41516 0.0
C201 C 0.4185 0.58098 0.37167 0.0
C202 C 0.46453 0.61386 0.55145 0.0
C203 C 0.45062 0.60665 0.59279 0.0
C204 C 0.45379 0.60583 0.50754 0.0
C205 C 0.42878 0.59055 0.50369 0.0
C206 C 0.4147 0.58429 0.54489 0.0
C207 C 0.42551 0.59215 0.58899 0.0
H208 H 0.83879 0.41334 0.797 0.0
H209 H 0.85584 0.47957 0.72591 0.0
H210 H 0.83468 0.39394 0.72087 0.0
H211 H 0.85273 0.46066 0.65067 0.0
H212 H 0.83356 0.41874 0.51671 0.0
H213 H 0.82805 0.43245 0.5934 0.0
H214 H 0.86082 0.39539 0.6604 0.0
H215 H 0.86539 0.381 0.58446 0.0
C216 C 0.84154 0.42371 0.76524 0.0
C217 C 0.84782 0.44804 0.76766 0.0
C218 C 0.83933 0.41266 0.72158 0.0
C219 C 0.84353 0.42576 0.67948 0.0
C220 C 0.84899 0.44984 0.6821 0.0
C221 C 0.85099 0.46078 0.72552 0.0
C222 C 0.83936 0.41336 0.5479 0.0
C223 C 0.85007 0.39893 0.54437 0.0
C224 C 0.83629 0.42128 0.59188 0.0
C225 C 0.8441 0.41515 0.63323 0.0
C226 C 0.85421 0.40018 0.62959 0.0
C227 C 0.85705 0.39209 0.58581 0.0
H228 H 0.4144 0.83834 0.67567 0.0
H229 H 0.48051 0.85514 0.74696 0.0
H230 H 0.39497 0.8343 0.75175 0.0
H231 H 0.46158 0.8521 0.82214 0.0
H232 H 0.41952 0.8329 0.95599 0.0
H233 H 0.43331 0.82745 0.87933 0.0
H234 H 0.39641 0.86039 0.81229 0.0
H235 H 0.38194 0.86489 0.8882 0.0
C236 C 0.42474 0.84105 0.70747 0.0
C237 C 0.44904 0.84724 0.70511 0.0
C238 C 0.41367 0.83888 0.7511 0.0
C239 C 0.42673 0.84302 0.79324 0.0
C240 C 0.45079 0.8484 0.79068 0.0
C241 C 0.46174 0.85037 0.74729 0.0
C242 C 0.41419 0.83875 0.92479 0.0
C243 C 0.39978 0.84948 0.92831 0.0
C244 C 0.42216 0.83572 0.88082 0.0
C245 C 0.41609 0.84359 0.83947 0.0
C246 C 0.40114 0.85373 0.84309 0.0
C247 C 0.39301 0.85653 0.88686 0.0
H248 H 0.59116 0.42415 0.13445 0.0
H249 H 0.52466 0.3765 0.06258 0.0
H250 H 0.61119 0.43848 0.05855 0.0
H251 H 0.54423 0.39136 0.98752 0.0
H252 H 0.58599 0.41252 0.85409 0.0
H253 H 0.57227 0.39361 0.93098 0.0
H254 H 0.61102 0.46347 0.99745 0.0
H255 H 0.6254 0.48209 0.92135 0.0
C256 C 0.58086 0.41666 0.10257 0.0
C257 C 0.55627 0.39934 0.10469 0.0
C258 C 0.59228 0.42494 0.05903 0.0
C259 C 0.57931 0.4162 1.01675 0.0
C260 C 0.55495 0.39827 0.01911 0.0
C261 C 0.54363 0.38989 0.06241 0.0
C262 C 0.59182 0.42375 0.88522 0.0
C263 C 0.60658 0.44883 0.88147 0.0
C264 C 0.58387 0.41295 0.92932 0.0
C265 C 0.59034 0.42702 0.97055 0.0
C266 C 0.6059 0.45198 0.96673 0.0
C267 C 0.61399 0.46271 0.92284 0.0
H268 H 0.14891 0.52364 0.22722 0.0
H269 H 0.16521 0.58963 0.29856 0.0
H270 H 0.15197 0.54253 0.15204 0.0
H271 H 0.16927 0.60903 0.22251 0.0
H272 H 0.13838 0.62165 0.08618 0.0
H273 H 0.14308 0.60734 0.16205 0.0
H274 H 0.17648 0.57088 0.09484 0.0
H275 H 0.17084 0.5845 0.01822 0.0
C276 C 0.15359 0.54237 0.2269 0.0
C277 C 0.15655 0.55504 0.26909 0.0
C278 C 0.15556 0.55331 0.18352 0.0
C279 C 0.16078 0.57732 0.18099 0.0
C280 C 0.1648 0.59036 0.22314 0.0
C281 C 0.16262 0.57931 0.26676 0.0
C282 C 0.14689 0.6107 0.08747 0.0
C283 C 0.15401 0.604 0.04599 0.0
C284 C 0.1498 0.60267 0.13122 0.0
C285 C 0.16012 0.58789 0.13478 0.0
C286 C 0.16807 0.5819 0.09339 0.0
C287 C 0.16493 0.58976 0.04945 0.0
H288 H 0.45995 0.29 0.12286 0.0
H289 H 0.49337 0.28807 0.25346 0.0
H290 H 0.45614 0.25159 0.09996 0.0
H291 H 0.48919 0.24936 0.23057 0.0
H292 H 0.46067 0.17096 0.18775 0.0
H293 H 0.45667 0.20545 0.21088 0.0
H294 H 0.4889 0.24057 0.07964 0.0
H295 H 0.49326 0.20617 0.05651 0.0
C296 C 0.46604 0.28116 0.14716 0.0
C297 C 0.47705 0.29214 0.18999 0.0
C298 C 0.46398 0.25924 0.1338 0.0
C299 C 0.4725 0.24762 0.16332 0.0
C300 C 0.48235 0.25791 0.20725 0.0
C301 C 0.48476 0.28006 0.22033 0.0
C302 C 0.46654 0.18584 0.16338 0.0
C303 C 0.47736 0.18587 0.12028 0.0
C304 C 0.46437 0.20562 0.17686 0.0
C305 C 0.47259 0.22568 0.1472 0.0
C306 C 0.48229 0.22524 0.10307 0.0
C307 C 0.48481 0.20558 0.08986 0.0
H308 H 0.28924 0.49297 0.22113 0.0
H309 H 0.29144 0.46006 0.35223 0.0
H310 H 0.25043 0.4886 0.24384 0.0
H311 H 0.25291 0.45606 0.37495 0.0
H312 H 0.20706 0.49283 0.41754 0.0
H313 H 0.24159 0.48862 0.39475 0.0
H314 H 0.20661 0.45597 0.26366 0.0
H315 H 0.172 0.45981 0.28646 0.0
C316 C 0.28127 0.48443 0.25434 0.0
C317 C 0.29345 0.47692 0.28488 0.0
C318 C 0.25906 0.48191 0.26732 0.0
C319 C 0.24881 0.47215 0.31132 0.0
C320 C 0.26053 0.46383 0.34104 0.0
C321 C 0.28252 0.466 0.3278 0.0
C322 C 0.20653 0.48432 0.38431 0.0
C323 C 0.18682 0.47671 0.35382 0.0
C324 C 0.22627 0.48188 0.37129 0.0
C325 C 0.22678 0.47212 0.32729 0.0
C326 C 0.20673 0.46373 0.29758 0.0
C327 C 0.18687 0.46581 0.31087 0.0
H328 H 0.72386 0.16969 0.49344 0.0
H329 H 0.69941 0.21553 0.55421 0.0
H330 H 0.76098 0.20529 0.46764 0.0
H331 H 0.73637 0.25103 0.52779 0.0
H332 H 0.78783 0.30417 0.41697 0.0
H333 H 0.75243 0.2671 0.44334 0.0
H334 H 0.79843 0.24287 0.50347 0.0
H335 H 0.83392 0.28009 0.47771 0.0
C336 C 0.72659 0.18736 0.50197 0.0
C337 C 0.70873 0.18983 0.52587 0.0
C338 C 0.74779 0.20769 0.4871 0.0
C339 C 0.75131 0.23083 0.49511 0.0
C340 C 0.7339 0.23334 0.52058 0.0
C341 C 0.71289 0.21303 0.53617 0.0
C342 C 0.79041 0.29074 0.43499 0.0
C343 C 0.81365 0.29504 0.4453 0.0
C344 C 0.77016 0.26968 0.45055 0.0
C345 C 0.77277 0.25234 0.476 0.0
C346 C 0.79596 0.256 0.48402 0.0
C347 C 0.81622 0.27725 0.46917 0.0
H348 H 0.54273 0.83064 0.68972 0.0
H349 H 0.51223 0.79678 0.55638 0.0
H350 H 0.54651 0.79598 0.71242 0.0
H351 H 0.51645 0.76224 0.57904 0.0
H352 H 0.54603 0.71323 0.62295 0.0
H353 H 0.54978 0.75176 0.60116 0.0
H354 H 0.51331 0.75139 0.72901 0.0
H355 H 0.50911 0.71253 0.75068 0.0
C356 C 0.53729 0.81603 0.66482 0.0
C357 C 0.52712 0.81642 0.62122 0.0
C358 C 0.53933 0.79615 0.67804 0.0
C359 C 0.53167 0.77644 0.6476 0.0
C360 C 0.52262 0.7773 0.60306 0.0
C361 C 0.52018 0.79703 0.59012 0.0
C362 C 0.53917 0.72153 0.64692 0.0
C363 C 0.5272 0.70978 0.68855 0.0
C364 C 0.5412 0.74351 0.63419 0.0
C365 C 0.53171 0.75442 0.66323 0.0
C366 C 0.52089 0.74337 0.70609 0.0
C367 C 0.51848 0.72115 0.71848 0.0
H368 H 0.7134 0.54406 0.85193 0.0
H369 H 0.71296 0.50761 0.72371 0.0
H370 H 0.75199 0.54793 0.87359 0.0
H371 H 0.75189 0.51193 0.74526 0.0
H372 H 0.8312 0.5417 0.78441 0.0
H373 H 0.79641 0.54532 0.76203 0.0
H374 H 0.76271 0.51468 0.89516 0.0
H375 H 0.79739 0.51062 0.9175 0.0
C376 C 0.72177 0.53733 0.82784 0.0
C377 C 0.71008 0.52546 0.78609 0.0
C378 C 0.74378 0.53943 0.84049 0.0
C379 C 0.75479 0.53011 0.81126 0.0
C380 C 0.74379 0.51938 0.76832 0.0
C381 C 0.72153 0.51689 0.756 0.0
C382 C 0.81657 0.5361 0.80933 0.0
C383 C 0.81702 0.52581 0.85276 0.0
C384 C 0.79661 0.53804 0.79629 0.0
C385 C 0.77688 0.53017 0.82674 0.0
C386 C 0.77779 0.52101 0.87113 0.0
C387 C 0.7976 0.51867 0.88389 0.0
H388 H 0.1704 0.72285 0.97916 0.0
H389 H 0.21626 0.69841 0.91847 0.0
H390 H 0.20599 0.76003 1.00476 0.0
H391 H 0.25175 0.73543 0.9447 0.0
H392 H 0.30488 0.787 0.05545 0.0
H393 H 0.26784 0.75157 0.02911 0.0
H394 H 0.24355 0.79747 0.96878 0.0
H395 H 0.28075 0.833 0.9945 0.0
C396 C 0.18807 0.7256 0.9706 0.0
C397 C 0.19055 0.70772 0.94679 0.0
C398 C 0.20839 0.74683 0.98536 0.0
C399 C 0.23155 0.75037 0.97732 0.0
C400 C 0.23406 0.73294 0.95192 0.0
C401 C 0.21376 0.7119 0.93644 0.0
C402 C 0.29145 0.78955 0.03739 0.0
C403 C 0.29572 0.81278 0.02702 0.0
C404 C 0.2704 0.76928 0.02184 0.0
C405 C 0.25305 0.77185 0.99635 0.0
C406 C 0.25668 0.79503 0.98826 0.0
C407 C 0.27793 0.81532 1.00309 0.0
H408 H 0.55897 0.14544 0.68411 0.0
H409 H 0.63334 0.1715 0.72061 0.0
H410 H 0.55013 0.14985 0.76554 0.0
H411 H 0.62453 0.17625 0.80231 0.0
H412 H 0.58885 0.14334 0.94693 0.0
H413 H 0.6023 0.14819 0.86562 0.0
H414 H 0.55632 0.17726 0.83053 0.0
H415 H 0.54256 0.17208 0.91217 0.0
C416 C 0.57356 0.15254 0.70936 0.0
C417 C 0.59684 0.15794 0.69582 0.0
C418 C 0.5685 0.15521 0.75612 0.0
C419 C 0.58657 0.16327 0.79067 0.0
C420 C 0.61011 0.16969 0.77673 0.0
C421 C 0.61521 0.16712 0.72982 0.0
C422 C 0.58182 0.15108 0.92209 0.0
C423 C 0.56448 0.15716 0.93608 0.0
C424 C 0.58968 0.15401 0.8754 0.0
C425 C 0.58033 0.16302 0.84135 0.0
C426 C 0.56368 0.17 0.85572 0.0
C427 C 0.5559 0.16717 0.90259 0.0
H428 H 0.46392 0.63258 0.8863 0.0
H429 H 0.41353 0.55875 0.84967 0.0
H430 H 0.4509 0.62396 0.96828 0.0
H431 H 0.40088 0.55006 0.93137 0.0
H432 H 0.37226 0.54301 0.07871 0.0
H433 H 0.38072 0.55672 0.99708 0.0
H434 H 0.45606 0.60139 0.03113 0.0
H435 H 0.44757 0.58807 0.11246 0.0
C436 C 0.44986 0.6146 0.89558 0.0
C437 C 0.43989 0.59633 0.86141 0.0
C438 C 0.4425 0.60961 0.94265 0.0
C439 C 0.42495 0.58626 0.95662 0.0
C440 C 0.41424 0.5683 0.92196 0.0
C441 C 0.42163 0.57327 0.87503 0.0
C442 C 0.39056 0.55604 0.06889 0.0
C443 C 0.40925 0.56431 0.10211 0.0
C444 C 0.39544 0.56379 0.02202 0.0
C445 C 0.41911 0.58007 1.00734 0.0
C446 C 0.43759 0.58908 0.04113 0.0
C447 C 0.43273 0.58129 0.08784 0.0
H448 H 0.85961 0.41472 0.02462 0.0
H449 H 0.83092 0.46107 0.05962 0.0
H450 H 0.85477 0.4013 0.10592 0.0
H451 H 0.82575 0.44733 0.14124 0.0
H452 H 0.8577 0.44481 0.28746 0.0
H453 H 0.8532 0.45357 0.20607 0.0
H454 H 0.8268 0.37914 0.16937 0.0
H455 H 0.83165 0.37042 0.25103 0.0
C456 C 0.85188 0.42177 0.04952 0.0
C457 C 0.84582 0.43912 0.0356 0.0
C458 C 0.84895 0.41393 0.09619 0.0
C459 C 0.83997 0.4233 0.13031 0.0
C460 C 0.83299 0.43995 0.11601 0.0
C461 C 0.83582 0.44772 0.06915 0.0
C462 C 0.85059 0.4302 0.26224 0.0
C463 C 0.84521 0.40694 0.27577 0.0
C464 C 0.84786 0.43521 0.2155 0.0
C465 C 0.83977 0.41711 0.18098 0.0
C466 C 0.83338 0.39358 0.19492 0.0
C467 C 0.836 0.38854 0.24181 0.0
H468 H 0.41593 0.85924 0.4482 0.0
H469 H 0.4621 0.83039 0.41296 0.0
H470 H 0.40246 0.85445 0.36694 0.0
H471 H 0.44833 0.82527 0.33138 0.0
H472 H 0.37133 0.83114 0.22196 0.0
H473 H 0.38017 0.8264 0.3036 0.0
H474 H 0.45454 0.85273 0.2665 0.0
H475 H 0.44567 0.85714 0.18513 0.0
C476 C 0.42293 0.85149 0.42326 0.0
C477 C 0.44024 0.84536 0.43711 0.0
C478 C 0.41506 0.84859 0.3766 0.0
C479 C 0.42437 0.83957 0.34243 0.0
C480 C 0.441 0.83254 0.35666 0.0
C481 C 0.44879 0.83533 0.40349 0.0
C482 C 0.38946 0.8355 0.23109 0.0
C483 C 0.40781 0.84466 0.19701 0.0
C484 C 0.39457 0.83294 0.27797 0.0
C485 C 0.41812 0.83935 0.29179 0.0
C486 C 0.43617 0.84739 0.25717 0.0
C487 C 0.43109 0.85006 0.21044 0.0
H488 H 0.63276 0.46192 0.58814 0.0
H489 H 0.55879 0.41193 0.62459 0.0
H490 H 0.62416 0.44885 0.50618 0.0
H491 H 0.55012 0.39923 0.54291 0.0
H492 H 0.54295 0.37051 0.39571 0.0
H493 H 0.55665 0.37891 0.47734 0.0
H494 H 0.60177 0.45418 0.4432 0.0
H495 H 0.58845 0.44575 0.36186 0.0
C496 C 0.61476 0.44794 0.57883 0.0
C497 C 0.59644 0.4381 0.61293 0.0
C498 C 0.60978 0.44055 0.53177 0.0
C499 C 0.58639 0.42309 0.51776 0.0
C500 C 0.56839 0.41251 0.55236 0.0
C501 C 0.57334 0.41993 0.59928 0.0
C502 C 0.55608 0.38877 0.40551 0.0
C503 C 0.56447 0.40747 0.37227 0.0
C504 C 0.56383 0.39363 0.45238 0.0
C505 C 0.58022 0.41726 0.46703 0.0
C506 C 0.58936 0.43573 0.43322 0.0
C507 C 0.58158 0.4309 0.38651 0.0
H508 H 0.14433 0.58806 0.52623 0.0
H509 H 0.17292 0.54163 0.5609 0.0
H510 H 0.14918 0.60147 0.60756 0.0
H511 H 0.17811 0.55536 0.64256 0.0
H512 H 0.17242 0.63238 0.75262 0.0
H513 H 0.1772 0.62361 0.67092 0.0
H514 H 0.15073 0.54919 0.70755 0.0
H515 H 0.1463 0.55799 0.78899 0.0
C516 C 0.15204 0.58099 0.55106 0.0
C517 C 0.15807 0.56362 0.53704 0.0
C518 C 0.15498 0.58882 0.59776 0.0
C519 C 0.16394 0.57943 0.6318 0.0
C520 C 0.17088 0.56275 0.61739 0.0
C521 C 0.16805 0.55499 0.57051 0.0
C522 C 0.16803 0.61425 0.74338 0.0
C523 C 0.15882 0.59586 0.77734 0.0
C524 C 0.17062 0.60918 0.69646 0.0
C525 C 0.16418 0.58564 0.68248 0.0
C526 C 0.1561 0.56756 0.717 0.0
C527 C 0.15341 0.57259 0.76377 0.0
H528 H 0.43836 0.06419 0.09486 0.0
H529 H 0.49783 0.05995 0.03339 0.0
H530 H 0.41502 0.02025 0.0988 0.0
H531 H 0.47446 0.01629 0.03679 0.0
H532 H 0.44039 0.94282 0.10257 0.0
H533 H 0.46068 0.98651 0.1002 0.0
H534 H 0.39545 0.98305 0.05012 0.0
H535 H 0.37488 0.93909 0.05307 0.0
C536 C 0.44633 0.05392 0.08157 0.0
C537 C 0.47006 0.06562 0.06419 0.0
C538 C 0.43295 0.02875 0.08382 0.0
C539 C 0.44306 0.01483 0.06886 0.0
C540 C 0.46637 0.02653 0.04966 0.0
C541 C 0.4797 0.05159 0.04736 0.0
C542 C 0.43024 0.9513 0.0915 0.0
C543 C 0.40605 0.93741 0.07763 0.0
C544 C 0.44194 0.97637 0.08979 0.0
C545 C 0.42979 0.98822 0.07413 0.0
C546 C 0.40528 0.97443 0.06234 0.0
C547 C 0.39352 0.94925 0.06403 0.0
H548 H 0.43866 0.37556 0.21626 0.0
H549 H 0.49952 0.43992 0.2721 0.0
H550 H 0.41553 0.3964 0.21293 0.0
H551 H 0.47635 0.46047 0.26926 0.0
H552 H 0.44114 0.49899 0.20307 0.0
H553 H 0.46143 0.47557 0.20604 0.0
H554 H 0.39713 0.41505 0.26245 0.0
H555 H 0.37654 0.43843 0.25899 0.0
C556 C 0.44701 0.39401 0.22841 0.0
C557 C 0.47104 0.40612 0.24408 0.0
C558 C 0.43373 0.40593 0.22654 0.0
C559 C 0.44424 0.43019 0.24014 0.0
C560 C 0.46792 0.44194 0.25752 0.0
C561 C 0.48114 0.43007 0.25948 0.0
C562 C 0.43118 0.48062 0.21574 0.0
C563 C 0.40724 0.47067 0.23111 0.0
C564 C 0.4429 0.46726 0.21778 0.0
C565 C 0.43101 0.44359 0.23521 0.0
C566 C 0.40676 0.43324 0.24881 0.0
C567 C 0.39499 0.44666 0.24686 0.0
H568 H 0.0608 0.49721 0.43959 0.0
H569 H 0.06494 0.43772 0.37797 0.0
H570 H 0.01713 0.47391 0.43608 0.0
H571 H 0.02101 0.41447 0.3739 0.0
H572 H 0.93987 0.37431 0.41938 0.0
H573 H 0.98382 0.39487 0.42239 0.0
H574 H 0.98732 0.46021 0.37287 0.0
H575 H 0.94362 0.43993 0.37047 0.0
C576 C 0.05241 0.4791 0.42555 0.0
C577 C 0.06642 0.46943 0.40873 0.0
C578 C 0.02735 0.46581 0.42319 0.0
C579 C 0.01562 0.44251 0.40393 0.0
C580 C 0.02953 0.43237 0.38894 0.0
C581 C 0.0547 0.44572 0.39126 0.0
C582 C 0.95003 0.39298 0.40856 0.0
C583 C 0.9382 0.40553 0.39511 0.0
C584 C 0.97521 0.40474 0.41028 0.0
C585 C 0.98902 0.42927 0.39866 0.0
C586 C 0.97718 0.44145 0.38315 0.0
C587 C 0.9521 0.42975 0.38142 0.0
H588 H 0.56644 0.93845 0.59589 0.0
H589 H 0.5071 0.94235 0.53306 0.0
H590 H 0.58971 0.98241 0.59932 0.0
H591 H 0.5304 0.98603 0.53598 0.0
H592 H 0.56409 0.05967 0.60104 0.0
H593 H 0.5439 0.01598 0.59909 0.0
H594 H 0.60937 0.01948 0.55022 0.0
H595 H 0.62984 0.06345 0.55275 0.0
C596 C 0.55848 0.94864 0.58219 0.0
C597 C 0.53481 0.93685 0.56459 0.0
C598 C 0.57183 0.97382 0.58416 0.0
C599 C 0.56173 0.98766 0.56867 0.0
C600 C 0.53847 0.97586 0.54925 0.0
C601 C 0.52519 0.95079 0.54724 0.0
C602 C 0.57432 0.0512 0.59032 0.0
C603 C 0.59855 0.0651 0.57667 0.0
C604 C 0.56267 0.02613 0.58885 0.0
C605 C 0.57492 0.01428 0.57366 0.0
C606 C 0.59946 0.0281 0.56208 0.0
C607 C 0.61116 0.05328 0.56352 0.0
H608 H 0.55872 0.49783 0.76048 0.0
H609 H 0.62449 0.56142 0.71885 0.0
H610 H 0.53785 0.52052 0.76064 0.0
H611 H 0.60317 0.5841 0.71584 0.0
H612 H 0.56278 0.62364 0.75594 0.0
H613 H 0.58521 0.60206 0.75884 0.0
H614 H 0.5216 0.5372 0.71245 0.0
H615 H 0.49914 0.55832 0.71272 0.0
C616 C 0.56862 0.51663 0.75044 0.0
C617 C 0.5932 0.5278 0.73929 0.0
C618 C 0.55659 0.5297 0.75025 0.0
C619 C 0.56864 0.55421 0.73769 0.0
C620 C 0.59331 0.56538 0.72632 0.0
C621 C 0.60552 0.55236 0.72759 0.0
C622 C 0.55366 0.60471 0.74682 0.0
C623 C 0.52915 0.59259 0.73473 0.0
C624 C 0.56654 0.59235 0.74802 0.0
C625 C 0.55528 0.56773 0.73619 0.0
C626 C 0.53083 0.5559 0.7232 0.0
C627 C 0.5179 0.56806 0.72307 0.0
H628 H 0.0605 0.56293 0.87205 0.0
H629 H 0.06415 0.62857 0.92066 0.0
H630 H 0.01681 0.54269 0.87392 0.0
H631 H 0.02018 0.60805 0.92314 0.0
H632 H 0.93923 0.56525 0.87745 0.0
H633 H 0.98319 0.58849 0.87408 0.0
H634 H 0.98673 0.529 0.93671 0.0
H635 H 0.94306 0.50572 0.93952 0.0
C636 C 0.052 0.57312 0.88283 0.0
C637 C 0.06587 0.59734 0.89658 0.0
C638 C 0.02692 0.56144 0.88426 0.0
C639 C 0.01504 0.57364 0.89951 0.0
C640 C 0.02882 0.59817 0.91122 0.0
C641 C 0.05401 0.60991 0.90981 0.0
C642 C 0.94941 0.55724 0.89099 0.0
C643 C 0.93759 0.53352 0.90837 0.0
C644 C 0.97459 0.57058 0.88907 0.0
C645 C 0.98841 0.56043 0.90439 0.0
C646 C 0.97658 0.53712 0.92357 0.0
C647 C 0.95151 0.52384 0.92552 0.0
loop_
_geom_bond_atom_site_label_1
_geom_bond_atom_site_label_2
_geom_bond_distance
_geom_bond_site_symmetry_2
_ccdc_geom_bond_type
O0 Cd1 2.223 . S
O0 C8 1.315 . S
Cd1 O0 2.223 . S
Cd1 O4 2.297 1_554 S
Cd1 O5 2.439 1_554 S
Cd1 O11 2.240 . S
Cd2 O3 2.240 . S
Cd2 O10 2.223 . S
Cd2 O12 2.297 . S
Cd2 O13 2.439 . S
O3 Cd2 2.240 . S
O3 C8 1.279 . S
O4 Cd1 2.297 1_556 S
O4 C6 1.247 . S
O5 Cd1 2.439 1_556 S
O5 C6 1.208 . S
C6 O4 1.247 . S
C6 O5 1.208 . S
C7 O12 1.247 . S
C7 O13 1.208 . S
C8 O0 1.315 . S
C8 O3 1.279 . S
C9 O10 1.315 . S
C9 O11 1.279 . S
O10 Cd2 2.223 . S
O10 C9 1.315 . S
O11 Cd1 2.240 . S
O11 C9 1.279 . S
O12 Cd2 2.297 . S
O12 C7 1.247 . S
O13 Cd2 2.439 . S
O13 C7 1.208 . S
O14 Cd15 2.223 . S
O14 C22 1.315 . S
Cd15 O14 2.223 . S
Cd15 O18 2.297 . S
Cd15 O19 2.439 . S
Cd15 O25 2.240 . S
Cd16 O17 2.240 . S
Cd16 O24 2.223 . S
Cd16 O26 2.297 . S
Cd16 O27 2.439 . S
O17 Cd16 2.240 . S
O17 C22 1.279 . S
O18 Cd15 2.297 . S
O18 C20 1.247 . S
O19 Cd15 2.439 . S
O19 C20 1.208 . S
C20 O18 1.247 . S
C20 O19 1.208 . S
C21 O26 1.247 . S
C21 O27 1.208 . S
C22 O14 1.315 . S
C22 O17 1.279 . S
C23 O24 1.315 . S
C23 O25 1.279 . S
O24 Cd16 2.223 . S
O24 C23 1.315 . S
O25 Cd15 2.240 . S
O25 C23 1.279 . S
O26 Cd16 2.297 . S
O26 C21 1.247 . S
O27 Cd16 2.439 . S
O27 C21 1.208 . S
O28 Cd29 2.223 . S
O28 C36 1.315 . S
Cd29 O28 2.223 . S
Cd29 O32 2.297 . S
Cd29 O33 2.439 . S
Cd29 O39 2.240 . S
Cd30 O31 2.240 . S
Cd30 O38 2.223 . S
Cd30 O40 2.297 . S
Cd30 O41 2.439 . S
O31 Cd30 2.240 . S
O31 C36 1.279 . S
O32 Cd29 2.297 . S
O32 C34 1.247 . S
O33 Cd29 2.439 . S
O33 C34 1.208 . S
C34 O32 1.247 . S
C34 O33 1.208 . S
C35 O40 1.247 . S
C35 O41 1.208 . S
C36 O28 1.315 . S
C36 O31 1.279 . S
C37 O38 1.315 . S
C37 O39 1.279 . S
O38 Cd30 2.223 . S
O38 C37 1.315 . S
O39 Cd29 2.240 . S
O39 C37 1.279 . S
O40 Cd30 2.297 . S
O40 C35 1.247 . S
O41 Cd30 2.439 . S
O41 C35 1.208 . S
O42 Cd43 2.223 . S
O42 C50 1.315 . S
Cd43 O42 2.223 . S
Cd43 O46 2.297 . S
Cd43 O47 2.439 . S
Cd43 O53 2.240 . S
Cd44 O45 2.240 . S
Cd44 O52 2.223 . S
Cd44 O54 2.297 . S
Cd44 O55 2.439 . S
O45 Cd44 2.240 . S
O45 C50 1.279 . S
O46 Cd43 2.297 . S
O46 C48 1.247 . S
O47 Cd43 2.439 . S
O47 C48 1.208 . S
C48 O46 1.247 . S
C48 O47 1.208 . S
C49 O54 1.247 . S
C49 O55 1.208 . S
C50 O42 1.315 . S
C50 O45 1.279 . S
C51 O52 1.315 . S
C51 O53 1.279 . S
O52 Cd44 2.223 . S
O52 C51 1.315 . S
O53 Cd43 2.240 . S
O53 C51 1.279 . S
O54 Cd44 2.297 . S
O54 C49 1.247 . S
O55 Cd44 2.439 . S
O55 C49 1.208 . S
O56 Cd57 2.223 . S
O56 C64 1.315 . S
Cd57 O56 2.223 . S
Cd57 O60 2.297 . S
Cd57 O61 2.439 . S
Cd57 O67 2.240 . S
Cd58 O59 2.240 . S
Cd58 O66 2.223 . S
Cd58 O68 2.297 . S
Cd58 O69 2.439 . S
O59 Cd58 2.240 . S
O59 C64 1.279 . S
O60 Cd57 2.297 . S
O60 C62 1.247 . S
O61 Cd57 2.439 . S
O61 C62 1.208 . S
C62 O60 1.247 . S
C62 O61 1.208 . S
C63 O68 1.247 . S
C63 O69 1.208 . S
C64 O56 1.315 . S
C64 O59 1.279 . S
C65 O66 1.315 . S
C65 O67 1.279 . S
O66 Cd58 2.223 . S
O66 C65 1.315 . S
O67 Cd57 2.240 . S
O67 C65 1.279 . S
O68 Cd58 2.297 . S
O68 C63 1.247 . S
O69 Cd58 2.439 . S
O69 C63 1.208 . S
O70 Cd71 2.223 . S
O70 C78 1.315 . S
Cd71 O70 2.223 . S
Cd71 O74 2.297 . S
Cd71 O75 2.439 . S
Cd71 O81 2.240 . S
Cd72 O73 2.240 . S
Cd72 O80 2.223 . S
Cd72 O82 2.297 . S
Cd72 O83 2.439 . S
O73 Cd72 2.240 . S
O73 C78 1.279 . S
O74 Cd71 2.297 . S
O74 C76 1.247 . S
O75 Cd71 2.439 . S
O75 C76 1.208 . S
C76 O74 1.247 . S
C76 O75 1.208 . S
C77 O82 1.247 . S
C77 O83 1.208 . S
C78 O70 1.315 . S
C78 O73 1.279 . S
C79 O80 1.315 . S
C79 O81 1.279 . S
O80 Cd72 2.223 . S
O80 C79 1.315 . S
O81 Cd71 2.240 . S
O81 C79 1.279 . S
O82 Cd72 2.297 . S
O82 C77 1.247 . S
O83 Cd72 2.439 . S
O83 C77 1.208 . S
O84 Cd85 2.223 . S
O84 C92 1.315 . S
Cd85 O84 2.223 . S
Cd85 O88 2.297 . S
Cd85 O89 2.439 . S
Cd85 O95 2.240 . S
Cd86 O87 2.240 . S
Cd86 O94 2.223 . S
Cd86 O96 2.297 . S
Cd86 O97 2.439 . S
O87 Cd86 2.240 . S
O87 C92 1.279 . S
O88 Cd85 2.297 . S
O88 C90 1.247 . S
O89 Cd85 2.439 . S
O89 C90 1.208 . S
C90 O88 1.247 . S
C90 O89 1.208 . S
C91 O96 1.247 . S
C91 O97 1.208 . S
C92 O84 1.315 . S
C92 O87 1.279 . S
C93 O94 1.315 . S
C93 O95 1.279 . S
O94 Cd86 2.223 . S
O94 C93 1.315 . S
O95 Cd85 2.240 . S
O95 C93 1.279 . S
O96 Cd86 2.297 . S
O96 C91 1.247 . S
O97 Cd86 2.439 . S
O97 C91 1.208 . S
O98 Cd99 2.223 . S
O98 C106 1.315 . S
Cd99 O98 2.223 . S
Cd99 O102 2.297 . S
Cd99 O103 2.439 . S
Cd99 O109 2.240 1_554 S
Cd100 O101 2.240 . S
Cd100 O108 2.223 1_554 S
Cd100 O110 2.297 1_554 S
Cd100 O111 2.439 . S
O101 Cd100 2.240 . S
O101 C106 1.279 . S
O102 Cd99 2.297 . S
O102 C104 1.247 . S
O103 Cd99 2.439 . S
O103 C104 1.208 . S
C104 O102 1.247 . S
C104 O103 1.208 . S
C105 O110 1.247 1_554 S
C105 O111 1.208 . S
C106 O98 1.315 . S
C106 O101 1.279 . S
C107 O108 1.315 . S
C107 O109 1.279 . S
O108 Cd100 2.223 1_556 S
O108 C107 1.315 . S
O109 Cd99 2.240 1_556 S
O109 C107 1.279 . S
O110 Cd100 2.297 1_556 S
O110 C105 1.247 1_556 S
O111 Cd100 2.439 . S
O111 C105 1.208 . S
O112 Cd113 2.223 . S
O112 C120 1.315 . S
Cd113 O112 2.223 . S
Cd113 O116 2.297 . S
Cd113 O117 2.439 . S
Cd113 O123 2.240 . S
Cd114 O115 2.240 . S
Cd114 O122 2.223 . S
Cd114 O124 2.297 . S
Cd114 O125 2.439 . S
O115 Cd114 2.240 . S
O115 C120 1.279 . S
O116 Cd113 2.297 . S
O116 C118 1.247 . S
O117 Cd113 2.439 . S
O117 C118 1.208 . S
C118 O116 1.247 . S
C118 O117 1.208 . S
C119 O124 1.247 . S
C119 O125 1.208 . S
C120 O112 1.315 . S
C120 O115 1.279 . S
C121 O122 1.315 . S
C121 O123 1.279 . S
O122 Cd114 2.223 . S
O122 C121 1.315 . S
O123 Cd113 2.240 . S
O123 C121 1.279 . S
O124 Cd114 2.297 . S
O124 C119 1.247 . S
O125 Cd114 2.439 . S
O125 C119 1.208 . S
O126 Cd127 2.223 . S
O126 C134 1.315 . S
Cd127 O126 2.223 . S
Cd127 O130 2.297 . S
Cd127 O131 2.439 . S
Cd127 O137 2.240 . S
Cd128 O129 2.240 . S
Cd128 O136 2.223 . S
Cd128 O138 2.297 . S
Cd128 O139 2.439 . S
O129 Cd128 2.240 . S
O129 C134 1.279 . S
O130 Cd127 2.297 . S
O130 C132 1.247 . S
O131 Cd127 2.439 . S
O131 C132 1.208 . S
C132 O130 1.247 . S
C132 O131 1.208 . S
C133 O138 1.247 . S
C133 O139 1.208 . S
C134 O126 1.315 . S
C134 O129 1.279 . S
C135 O136 1.315 . S
C135 O137 1.279 . S
O136 Cd128 2.223 . S
O136 C135 1.315 . S
O137 Cd127 2.240 . S
O137 C135 1.279 . S
O138 Cd128 2.297 . S
O138 C133 1.247 . S
O139 Cd128 2.439 . S
O139 C133 1.208 . S
O140 Cd141 2.223 . S
O140 C148 1.315 . S
Cd141 O140 2.223 . S
Cd141 O144 2.297 . S
Cd141 O145 2.439 . S
Cd141 O151 2.240 . S
Cd142 O143 2.240 . S
Cd142 O150 2.223 . S
Cd142 O152 2.297 . S
Cd142 O153 2.439 . S
O143 Cd142 2.240 . S
O143 C148 1.279 . S
O144 Cd141 2.297 . S
O144 C146 1.247 . S
O145 Cd141 2.439 . S
O145 C146 1.208 . S
C146 O144 1.247 . S
C146 O145 1.208 . S
C147 O152 1.247 . S
C147 O153 1.208 . S
C148 O140 1.315 . S
C148 O143 1.279 . S
C149 O150 1.315 . S
C149 O151 1.279 . S
O150 Cd142 2.223 . S
O150 C149 1.315 . S
O151 Cd141 2.240 . S
O151 C149 1.279 . S
O152 Cd142 2.297 . S
O152 C147 1.247 . S
O153 Cd142 2.439 . S
O153 C147 1.208 . S
O154 Cd155 2.223 . S
O154 C162 1.315 . S
Cd155 O154 2.223 . S
Cd155 O158 2.297 . S
Cd155 O159 2.439 . S
Cd155 O165 2.240 . S
Cd156 O157 2.240 . S
Cd156 O164 2.223 . S
Cd156 O166 2.297 . S
Cd156 O167 2.439 . S
O157 Cd156 2.240 . S
O157 C162 1.279 . S
O158 Cd155 2.297 . S
O158 C160 1.247 . S
O159 Cd155 2.439 . S
O159 C160 1.208 . S
C160 O158 1.247 . S
C160 O159 1.208 . S
C161 O166 1.247 . S
C161 O167 1.208 . S
C162 O154 1.315 . S
C162 O157 1.279 . S
C163 O164 1.315 . S
C163 O165 1.279 . S
O164 Cd156 2.223 . S
O164 C163 1.315 . S
O165 Cd155 2.240 . S
O165 C163 1.279 . S
O166 Cd156 2.297 . S
O166 C161 1.247 . S
O167 Cd156 2.439 . S
O167 C161 1.208 . S
H168 C176 0.950 . S
H169 C181 0.950 . S
H170 C178 0.950 . S
H171 C180 0.950 . S
H172 C182 0.950 . S
H173 C184 0.950 . S
H174 C186 0.950 . S
H175 C187 0.950 . S
C176 H168 0.950 . S
C176 C177 1.386 . S
C176 C178 1.391 . S
C177 C176 1.386 . S
C177 C181 1.393 . S
C178 H170 0.950 . S
C178 C176 1.391 . S
C178 C179 1.400 . S
C179 C178 1.400 . S
C179 C180 1.398 . S
C179 C185 1.491 . S
C180 H171 0.950 . S
C180 C179 1.398 . S
C180 C181 1.391 . S
C181 H169 0.950 . S
C181 C177 1.393 . S
C181 C180 1.391 . S
C182 H172 0.950 . S
C182 C183 1.386 . S
C182 C184 1.391 . S
C183 C182 1.386 . S
C183 C187 1.393 . S
C184 H173 0.950 . S
C184 C182 1.391 . S
C184 C185 1.400 . S
C185 C179 1.491 . S
C185 C184 1.400 . S
C185 C186 1.398 . S
C186 H174 0.950 . S
C186 C185 1.398 . S
C186 C187 1.391 . S
C187 H175 0.950 . S
C187 C183 1.393 . S
C187 C186 1.391 . S
H188 C196 0.950 . S
H189 C201 0.950 . S
H190 C198 0.950 . S
H191 C200 0.950 . S
H192 C202 0.950 . S
H193 C204 0.950 . S
H194 C206 0.950 . S
H195 C207 0.950 . S
C196 H188 0.950 . S
C196 C197 1.386 . S
C196 C198 1.391 . S
C197 C196 1.386 . S
C197 C201 1.393 . S
C198 H190 0.950 . S
C198 C196 1.391 . S
C198 C199 1.400 . S
C199 C198 1.400 . S
C199 C200 1.398 . S
C199 C205 1.491 . S
C200 H191 0.950 . S
C200 C199 1.398 . S
C200 C201 1.391 . S
C201 H189 0.950 . S
C201 C197 1.393 . S
C201 C200 1.391 . S
C202 H192 0.950 . S
C202 C203 1.386 . S
C202 C204 1.391 . S
C203 C202 1.386 . S
C203 C207 1.393 . S
C204 H193 0.950 . S
C204 C202 1.391 . S
C204 C205 1.400 . S
C205 C199 1.491 . S
C205 C204 1.400 . S
C205 C206 1.398 . S
C206 H194 0.950 . S
C206 C205 1.398 . S
C206 C207 1.391 . S
C207 H195 0.950 . S
C207 C203 1.393 . S
C207 C206 1.391 . S
H208 C216 0.950 . S
H209 C221 0.950 . S
H210 C218 0.950 . S
H211 C220 0.950 . S
H212 C222 0.950 . S
H213 C224 0.950 . S
H214 C226 0.950 . S
H215 C227 0.950 . S
C216 H208 0.950 . S
C216 C217 1.386 . S
C216 C218 1.391 . S
C217 C216 1.386 . S
C217 C221 1.393 . S
C218 H210 0.950 . S
C218 C216 1.391 . S
C218 C219 1.400 . S
C219 C218 1.400 . S
C219 C220 1.398 . S
C219 C225 1.491 . S
C220 H211 0.950 . S
C220 C219 1.398 . S
C220 C221 1.391 . S
C221 H209 0.950 . S
C221 C217 1.393 . S
C221 C220 1.391 . S
C222 H212 0.950 . S
C222 C223 1.386 . S
C222 C224 1.391 . S
C223 C222 1.386 . S
C223 C227 1.393 . S
C224 H213 0.950 . S
C224 C222 1.391 . S
C224 C225 1.400 . S
C225 C219 1.491 . S
C225 C224 1.400 . S
C225 C226 1.398 . S
C226 H214 0.950 . S
C226 C225 1.398 . S
C226 C227 1.391 . S
C227 H215 0.950 . S
C227 C223 1.393 . S
C227 C226 1.391 . S
H228 C236 0.950 . S
H229 C241 0.950 . S
H230 C238 0.950 . S
H231 C240 0.950 . S
H232 C242 0.950 . S
H233 C244 0.950 . S
H234 C246 0.950 . S
H235 C247 0.950 . S
C236 H228 0.950 . S
C236 C237 1.386 . S
C236 C238 1.391 . S
C237 C236 1.386 . S
C237 C241 1.393 . S
C238 H230 0.950 . S
C238 C236 1.391 . S
C238 C239 1.400 . S
C239 C238 1.400 . S
C239 C240 1.398 . S
C239 C245 1.491 . S
C240 H231 0.950 . S
C240 C239 1.398 . S
C240 C241 1.391 . S
C241 H229 0.950 . S
C241 C237 1.393 . S
C241 C240 1.391 . S
C242 H232 0.950 . S
C242 C243 1.386 . S
C242 C244 1.391 . S
C243 C242 1.386 . S
C243 C247 1.393 . S
C244 H233 0.950 . S
C244 C242 1.391 . S
C244 C245 1.400 . S
C245 C239 1.491 . S
C245 C244 1.400 . S
C245 C246 1.398 . S
C246 H234 0.950 . S
C246 C245 1.398 . S
C246 C247 1.391 . S
C247 H235 0.950 . S
C247 C243 1.393 . S
C247 C246 1.391 . S
H248 C256 0.950 . S
H249 C261 0.950 . S
H250 C258 0.950 . S
H251 C260 0.950 . S
H252 C262 0.950 . S
H253 C264 0.950 . S
H254 C266 0.950 . S
H255 C267 0.950 . S
C256 H248 0.950 . S
C256 C257 1.386 . S
C256 C258 1.391 . S
C257 C256 1.386 . S
C257 C261 1.393 . S
C258 H250 0.950 . S
C258 C256 1.391 . S
C258 C259 1.400 1_554 S
C259 C258 1.400 1_556 S
C259 C260 1.398 . S
C259 C265 1.491 . S
C260 H251 0.950 . S
C260 C259 1.398 . S
C260 C261 1.391 1_556 S
C261 H249 0.950 . S
C261 C257 1.393 . S
C261 C260 1.391 1_554 S
C262 H252 0.950 . S
C262 C263 1.386 . S
C262 C264 1.391 . S
C263 C262 1.386 . S
C263 C267 1.393 . S
C264 H253 0.950 . S
C264 C262 1.391 . S
C264 C265 1.400 . S
C265 C259 1.491 . S
C265 C264 1.400 . S
C265 C266 1.398 . S
C266 H254 0.950 . S
C266 C265 1.398 . S
C266 C267 1.391 . S
C267 H255 0.950 . S
C267 C263 1.393 . S
C267 C266 1.391 . S
H268 C276 0.950 . S
H269 C281 0.950 . S
H270 C278 0.950 . S
H271 C280 0.950 . S
H272 C282 0.950 . S
H273 C284 0.950 . S
H274 C286 0.950 . S
H275 C287 0.950 . S
C276 H268 0.950 . S
C276 C277 1.386 . S
C276 C278 1.391 . S
C277 C276 1.386 . S
C277 C281 1.393 . S
C278 H270 0.950 . S
C278 C276 1.391 . S
C278 C279 1.400 . S
C279 C278 1.400 . S
C279 C280 1.398 . S
C279 C285 1.491 . S
C280 H271 0.950 . S
C280 C279 1.398 . S
C280 C281 1.391 . S
C281 H269 0.950 . S
C281 C277 1.393 . S
C281 C280 1.391 . S
C282 H272 0.950 . S
C282 C283 1.386 . S
C282 C284 1.391 . S
C283 C282 1.386 . S
C283 C287 1.393 . S
C284 H273 0.950 . S
C284 C282 1.391 . S
C284 C285 1.400 . S
C285 C279 1.491 . S
C285 C284 1.400 . S
C285 C286 1.398 . S
C286 H274 0.950 . S
C286 C285 1.398 . S
C286 C287 1.391 . S
C287 H275 0.950 . S
C287 C283 1.393 . S
C287 C286 1.391 . S
H288 C296 0.950 . S
H289 C301 0.950 . S
H290 C298 0.950 . S
H291 C300 0.950 . S
H292 C302 0.950 . S
H293 C304 0.950 . S
H294 C306 0.950 . S
H295 C307 0.950 . S
C296 H288 0.950 . S
C296 C297 1.386 . S
C296 C298 1.391 . S
C297 C296 1.386 . S
C297 C301 1.393 . S
C298 H290 0.950 . S
C298 C296 1.391 . S
C298 C299 1.400 . S
C299 C298 1.400 . S
C299 C300 1.398 . S
C299 C305 1.491 . S
C300 H291 0.950 . S
C300 C299 1.398 . S
C300 C301 1.391 . S
C301 H289 0.950 . S
C301 C297 1.393 . S
C301 C300 1.391 . S
C302 H292 0.950 . S
C302 C303 1.386 . S
C302 C304 1.391 . S
C303 C302 1.386 . S
C303 C307 1.393 . S
C304 H293 0.950 . S
C304 C302 1.391 . S
C304 C305 1.400 . S
C305 C299 1.491 . S
C305 C304 1.400 . S
C305 C306 1.398 . S
C306 H294 0.950 . S
C306 C305 1.398 . S
C306 C307 1.391 . S
C307 H295 0.950 . S
C307 C303 1.393 . S
C307 C306 1.391 . S
H308 C316 0.950 . S
H309 C321 0.950 . S
H310 C318 0.950 . S
H311 C320 0.950 . S
H312 C322 0.950 . S
H313 C324 0.950 . S
H314 C326 0.950 . S
H315 C327 0.950 . S
C316 H308 0.950 . S
C316 C317 1.386 . S
C316 C318 1.391 . S
C317 C316 1.386 . S
C317 C321 1.393 . S
C318 H310 0.950 . S
C318 C316 1.391 . S
C318 C319 1.400 . S
C319 C318 1.400 . S
C319 C320 1.398 . S
C319 C325 1.491 . S
C320 H311 0.950 . S
C320 C319 1.398 . S
C320 C321 1.391 . S
C321 H309 0.950 . S
C321 C317 1.393 . S
C321 C320 1.391 . S
C322 H312 0.950 . S
C322 C323 1.386 . S
C322 C324 1.391 . S
C323 C322 1.386 . S
C323 C327 1.393 . S
C324 H313 0.950 . S
C324 C322 1.391 . S
C324 C325 1.400 . S
C325 C319 1.491 . S
C325 C324 1.400 . S
C325 C326 1.398 . S
C326 H314 0.950 . S
C326 C325 1.398 . S
C326 C327 1.391 . S
C327 H315 0.950 . S
C327 C323 1.393 . S
C327 C326 1.391 . S
H328 C336 0.950 . S
H329 C341 0.950 . S
H330 C338 0.950 . S
H331 C340 0.950 . S
H332 C342 0.950 . S
H333 C344 0.950 . S
H334 C346 0.950 . S
H335 C347 0.950 . S
C336 H328 0.950 . S
C336 C337 1.386 . S
C336 C338 1.391 . S
C337 C336 1.386 . S
C337 C341 1.393 . S
C338 H330 0.950 . S
C338 C336 1.391 . S
C338 C339 1.400 . S
C339 C338 1.400 . S
C339 C340 1.398 . S
C339 C345 1.491 . S
C340 H331 0.950 . S
C340 C339 1.398 . S
C340 C341 1.391 . S
C341 H329 0.950 . S
C341 C337 1.393 . S
C341 C340 1.391 . S
C342 H332 0.950 . S
C342 C343 1.386 . S
C342 C344 1.391 . S
C343 C342 1.386 . S
C343 C347 1.393 . S
C344 H333 0.950 . S
C344 C342 1.391 . S
C344 C345 1.400 . S
C345 C339 1.491 . S
C345 C344 1.400 . S
C345 C346 1.398 . S
C346 H334 0.950 . S
C346 C345 1.398 . S
C346 C347 1.391 . S
C347 H335 0.950 . S
C347 C343 1.393 . S
C347 C346 1.391 . S
H348 C356 0.950 . S
H349 C361 0.950 . S
H350 C358 0.950 . S
H351 C360 0.950 . S
H352 C362 0.950 . S
H353 C364 0.950 . S
H354 C366 0.950 . S
H355 C367 0.950 . S
C356 H348 0.950 . S
C356 C357 1.386 . S
C356 C358 1.391 . S
C357 C356 1.386 . S
C357 C361 1.393 . S
C358 H350 0.950 . S
C358 C356 1.391 . S
C358 C359 1.400 . S
C359 C358 1.400 . S
C359 C360 1.398 . S
C359 C365 1.491 . S
C360 H351 0.950 . S
C360 C359 1.398 . S
C360 C361 1.391 . S
C361 H349 0.950 . S
C361 C357 1.393 . S
C361 C360 1.391 . S
C362 H352 0.950 . S
C362 C363 1.386 . S
C362 C364 1.391 . S
C363 C362 1.386 . S
C363 C367 1.393 . S
C364 H353 0.950 . S
C364 C362 1.391 . S
C364 C365 1.400 . S
C365 C359 1.491 . S
C365 C364 1.400 . S
C365 C366 1.398 . S
C366 H354 0.950 . S
C366 C365 1.398 . S
C366 C367 1.391 . S
C367 H355 0.950 . S
C367 C363 1.393 . S
C367 C366 1.391 . S
H368 C376 0.950 . S
H369 C381 0.950 . S
H370 C378 0.950 . S
H371 C380 0.950 . S
H372 C382 0.950 . S
H373 C384 0.950 . S
H374 C386 0.950 . S
H375 C387 0.950 . S
C376 H368 0.950 . S
C376 C377 1.386 . S
C376 C378 1.391 . S
C377 C376 1.386 . S
C377 C381 1.393 . S
C378 H370 0.950 . S
C378 C376 1.391 . S
C378 C379 1.400 . S
C379 C378 1.400 . S
C379 C380 1.398 . S
C379 C385 1.491 . S
C380 H371 0.950 . S
C380 C379 1.398 . S
C380 C381 1.391 . S
C381 H369 0.950 . S
C381 C377 1.393 . S
C381 C380 1.391 . S
C382 H372 0.950 . S
C382 C383 1.386 . S
C382 C384 1.391 . S
C383 C382 1.386 . S
C383 C387 1.393 . S
C384 H373 0.950 . S
C384 C382 1.391 . S
C384 C385 1.400 . S
C385 C379 1.491 . S
C385 C384 1.400 . S
C385 C386 1.398 . S
C386 H374 0.950 . S
C386 C385 1.398 . S
C386 C387 1.391 . S
C387 H375 0.950 . S
C387 C383 1.393 . S
C387 C386 1.391 . S
H388 C396 0.950 . S
H389 C401 0.950 . S
H390 C398 0.950 . S
H391 C400 0.950 . S
H392 C402 0.950 . S
H393 C404 0.950 1_554 S
H394 C406 0.950 . S
H395 C407 0.950 . S
C396 H388 0.950 . S
C396 C397 1.386 . S
C396 C398 1.391 . S
C397 C396 1.386 . S
C397 C401 1.393 . S
C398 H390 0.950 . S
C398 C396 1.391 . S
C398 C399 1.400 . S
C399 C398 1.400 . S
C399 C400 1.398 . S
C399 C405 1.491 . S
C400 H391 0.950 . S
C400 C399 1.398 . S
C400 C401 1.391 . S
C401 H389 0.950 . S
C401 C397 1.393 . S
C401 C400 1.391 . S
C402 H392 0.950 . S
C402 C403 1.385 1_554 S
C402 C404 1.391 1_554 S
C403 C402 1.385 1_556 S
C403 C407 1.395 . S
C404 H393 0.950 1_556 S
C404 C402 1.391 1_556 S
C404 C405 1.400 . S
C405 C399 1.491 . S
C405 C404 1.400 . S
C405 C406 1.398 . S
C406 H394 0.950 . S
C406 C405 1.398 . S
C406 C407 1.391 . S
C407 H395 0.950 . S
C407 C403 1.395 . S
C407 C406 1.391 . S
H408 C416 0.950 . S
H409 C421 0.950 . S
H410 C418 0.950 . S
H411 C420 0.950 . S
H412 C422 0.950 . S
H413 C424 0.950 . S
H414 C426 0.950 . S
H415 C427 0.950 . S
C416 H408 0.950 . S
C416 C417 1.386 . S
C416 C418 1.391 . S
C417 C416 1.386 . S
C417 C421 1.393 . S
C418 H410 0.950 . S
C418 C416 1.391 . S
C418 C419 1.400 . S
C419 C418 1.400 . S
C419 C420 1.398 . S
C419 C425 1.491 . S
C420 H411 0.950 . S
C420 C419 1.398 . S
C420 C421 1.391 . S
C421 H409 0.950 . S
C421 C417 1.393 . S
C421 C420 1.391 . S
C422 H412 0.950 . S
C422 C423 1.386 . S
C422 C424 1.391 . S
C423 C422 1.386 . S
C423 C427 1.393 . S
C424 H413 0.950 . S
C424 C422 1.391 . S
C424 C425 1.400 . S
C425 C419 1.491 . S
C425 C424 1.400 . S
C425 C426 1.398 . S
C426 H414 0.950 . S
C426 C425 1.398 . S
C426 C427 1.391 . S
C427 H415 0.950 . S
C427 C423 1.393 . S
C427 C426 1.391 . S
H428 C436 0.950 . S
H429 C441 0.950 . S
H430 C438 0.950 . S
H431 C440 0.950 . S
H432 C442 0.950 . S
H433 C444 0.950 . S
H434 C446 0.950 . S
H435 C447 0.950 . S
C436 H428 0.950 . S
C436 C437 1.386 . S
C436 C438 1.391 . S
C437 C436 1.386 . S
C437 C441 1.393 . S
C438 H430 0.950 . S
C438 C436 1.391 . S
C438 C439 1.400 . S
C439 C438 1.400 . S
C439 C440 1.398 . S
C439 C445 1.491 . S
C440 H431 0.950 . S
C440 C439 1.398 . S
C440 C441 1.391 . S
C441 H429 0.950 . S
C441 C437 1.393 . S
C441 C440 1.391 . S
C442 H432 0.950 . S
C442 C443 1.386 . S
C442 C444 1.392 1_554 S
C443 C442 1.386 . S
C443 C447 1.393 . S
C444 H433 0.950 . S
C444 C442 1.392 1_556 S
C444 C445 1.400 . S
C445 C439 1.491 . S
C445 C444 1.400 . S
C445 C446 1.398 1_556 S
C446 H434 0.950 . S
C446 C445 1.398 1_554 S
C446 C447 1.391 . S
C447 H435 0.950 . S
C447 C443 1.393 . S
C447 C446 1.391 . S
H448 C456 0.950 . S
H449 C461 0.950 . S
H450 C458 0.950 . S
H451 C460 0.950 . S
H452 C462 0.950 . S
H453 C464 0.950 . S
H454 C466 0.950 . S
H455 C467 0.950 . S
C456 H448 0.950 . S
C456 C457 1.386 . S
C456 C458 1.391 . S
C457 C456 1.386 . S
C457 C461 1.393 . S
C458 H450 0.950 . S
C458 C456 1.391 . S
C458 C459 1.400 . S
C459 C458 1.400 . S
C459 C460 1.398 . S
C459 C465 1.491 . S
C460 H451 0.950 . S
C460 C459 1.398 . S
C460 C461 1.391 . S
C461 H449 0.950 . S
C461 C457 1.393 . S
C461 C460 1.391 . S
C462 H452 0.950 . S
C462 C463 1.386 . S
C462 C464 1.391 . S
C463 C462 1.386 . S
C463 C467 1.393 . S
C464 H453 0.950 . S
C464 C462 1.391 . S
C464 C465 1.400 . S
C465 C459 1.491 . S
C465 C464 1.400 . S
C465 C466 1.398 . S
C466 H454 0.950 . S
C466 C465 1.398 . S
C466 C467 1.391 . S
C467 H455 0.950 . S
C467 C463 1.393 . S
C467 C466 1.391 . S
H468 C476 0.950 . S
H469 C481 0.950 . S
H470 C478 0.950 . S
H471 C480 0.950 . S
H472 C482 0.950 . S
H473 C484 0.950 . S
H474 C486 0.950 . S
H475 C487 0.950 . S
C476 H468 0.950 . S
C476 C477 1.386 . S
C476 C478 1.391 . S
C477 C476 1.386 . S
C477 C481 1.393 . S
C478 H470 0.950 . S
C478 C476 1.391 . S
C478 C479 1.400 . S
C479 C478 1.400 . S
C479 C480 1.398 . S
C479 C485 1.491 . S
C480 H471 0.950 . S
C480 C479 1.398 . S
C480 C481 1.391 . S
C481 H469 0.950 . S
C481 C477 1.393 . S
C481 C480 1.391 . S
C482 H472 0.950 . S
C482 C483 1.386 . S
C482 C484 1.391 . S
C483 C482 1.386 . S
C483 C487 1.393 . S
C484 H473 0.950 . S
C484 C482 1.391 . S
C484 C485 1.400 . S
C485 C479 1.491 . S
C485 C484 1.400 . S
C485 C486 1.398 . S
C486 H474 0.950 . S
C486 C485 1.398 . S
C486 C487 1.391 . S
C487 H475 0.950 . S
C487 C483 1.393 . S
C487 C486 1.391 . S
H488 C496 0.950 . S
H489 C501 0.950 . S
H490 C498 0.950 . S
H491 C500 0.950 . S
H492 C502 0.950 . S
H493 C504 0.950 . S
H494 C506 0.950 . S
H495 C507 0.950 . S
C496 H488 0.950 . S
C496 C497 1.386 . S
C496 C498 1.391 . S
C497 C496 1.386 . S
C497 C501 1.393 . S
C498 H490 0.950 . S
C498 C496 1.391 . S
C498 C499 1.400 . S
C499 C498 1.400 . S
C499 C500 1.398 . S
C499 C505 1.491 . S
C500 H491 0.950 . S
C500 C499 1.398 . S
C500 C501 1.391 . S
C501 H489 0.950 . S
C501 C497 1.393 . S
C501 C500 1.391 . S
C502 H492 0.950 . S
C502 C503 1.386 . S
C502 C504 1.391 . S
C503 C502 1.386 . S
C503 C507 1.393 . S
C504 H493 0.950 . S
C504 C502 1.391 . S
C504 C505 1.400 . S
C505 C499 1.491 . S
C505 C504 1.400 . S
C505 C506 1.398 . S
C506 H494 0.950 . S
C506 C505 1.398 . S
C506 C507 1.391 . S
C507 H495 0.950 . S
C507 C503 1.393 . S
C507 C506 1.391 . S
H508 C516 0.950 . S
H509 C521 0.950 . S
H510 C518 0.950 . S
H511 C520 0.950 . S
H512 C522 0.950 . S
H513 C524 0.950 . S
H514 C526 0.950 . S
H515 C527 0.950 . S
C516 H508 0.950 . S
C516 C517 1.386 . S
C516 C518 1.391 . S
C517 C516 1.386 . S
C517 C521 1.393 . S
C518 H510 0.950 . S
C518 C516 1.391 . S
C518 C519 1.400 . S
C519 C518 1.400 . S
C519 C520 1.398 . S
C519 C525 1.491 . S
C520 H511 0.950 . S
C520 C519 1.398 . S
C520 C521 1.391 . S
C521 H509 0.950 . S
C521 C517 1.393 . S
C521 C520 1.391 . S
C522 H512 0.950 . S
C522 C523 1.386 . S
C522 C524 1.391 . S
C523 C522 1.386 . S
C523 C527 1.393 . S
C524 H513 0.950 . S
C524 C522 1.391 . S
C524 C525 1.400 . S
C525 C519 1.491 . S
C525 C524 1.400 . S
C525 C526 1.398 . S
C526 H514 0.950 . S
C526 C525 1.398 . S
C526 C527 1.391 . S
C527 H515 0.950 . S
C527 C523 1.393 . S
C527 C526 1.391 . S
H528 C536 0.950 . S
H529 C541 0.950 . S
H530 C538 0.950 . S
H531 C540 0.950 . S
H532 C542 0.950 . S
H533 C544 0.950 . S
H534 C546 0.950 . S
H535 C547 0.950 . S
C536 H528 0.950 . S
C536 C537 1.386 . S
C536 C538 1.391 . S
C537 C536 1.386 . S
C537 C541 1.393 . S
C538 H530 0.950 . S
C538 C536 1.391 . S
C538 C539 1.400 . S
C539 C538 1.400 . S
C539 C540 1.398 . S
C539 C545 1.491 1_545 S
C540 H531 0.950 . S
C540 C539 1.398 . S
C540 C541 1.391 . S
C541 H529 0.950 . S
C541 C537 1.393 . S
C541 C540 1.391 . S
C542 H532 0.950 . S
C542 C543 1.386 . S
C542 C544 1.391 . S
C543 C542 1.386 . S
C543 C547 1.393 . S
C544 H533 0.950 . S
C544 C542 1.391 . S
C544 C545 1.400 . S
C545 C539 1.491 1_565 S
C545 C544 1.400 . S
C545 C546 1.398 . S
C546 H534 0.950 . S
C546 C545 1.398 . S
C546 C547 1.391 . S
C547 H535 0.950 . S
C547 C543 1.393 . S
C547 C546 1.391 . S
H548 C556 0.950 . S
H549 C561 0.950 . S
H550 C558 0.950 . S
H551 C560 0.950 . S
H552 C562 0.950 . S
H553 C564 0.950 . S
H554 C566 0.950 . S
H555 C567 0.950 . S
C556 H548 0.950 . S
C556 C557 1.386 . S
C556 C558 1.391 . S
C557 C556 1.386 . S
C557 C561 1.393 . S
C558 H550 0.950 . S
C558 C556 1.391 . S
C558 C559 1.400 . S
C559 C558 1.400 . S
C559 C560 1.398 . S
C559 C565 1.491 . S
C560 H551 0.950 . S
C560 C559 1.398 . S
C560 C561 1.391 . S
C561 H549 0.950 . S
C561 C557 1.393 . S
C561 C560 1.391 . S
C562 H552 0.950 . S
C562 C563 1.386 . S
C562 C564 1.391 . S
C563 C562 1.386 . S
C563 C567 1.393 . S
C564 H553 0.950 . S
C564 C562 1.391 . S
C564 C565 1.400 . S
C565 C559 1.491 . S
C565 C564 1.400 . S
C565 C566 1.398 . S
C566 H554 0.950 . S
C566 C565 1.398 . S
C566 C567 1.391 . S
C567 H555 0.950 . S
C567 C563 1.393 . S
C567 C566 1.391 . S
H568 C576 0.950 . S
H569 C581 0.950 . S
H570 C578 0.950 . S
H571 C580 0.950 . S
H572 C582 0.950 . S
H573 C584 0.950 . S
H574 C586 0.950 . S
H575 C587 0.950 . S
C576 H568 0.950 . S
C576 C577 1.386 . S
C576 C578 1.391 . S
C577 C576 1.386 . S
C577 C581 1.393 . S
C578 H570 0.950 . S
C578 C576 1.391 . S
C578 C579 1.400 . S
C579 C578 1.400 . S
C579 C580 1.398 . S
C579 C585 1.491 1_455 S
C580 H571 0.950 . S
C580 C579 1.398 . S
C580 C581 1.391 . S
C581 H569 0.950 . S
C581 C577 1.393 . S
C581 C580 1.391 . S
C582 H572 0.950 . S
C582 C583 1.386 . S
C582 C584 1.391 . S
C583 C582 1.386 . S
C583 C587 1.393 . S
C584 H573 0.950 . S
C584 C582 1.391 . S
C584 C585 1.400 . S
C585 C579 1.491 1_655 S
C585 C584 1.400 . S
C585 C586 1.398 . S
C586 H574 0.950 . S
C586 C585 1.398 . S
C586 C587 1.391 . S
C587 H575 0.950 . S
C587 C583 1.393 . S
C587 C586 1.391 . S
H588 C596 0.950 . S
H589 C601 0.950 . S
H590 C598 0.950 . S
H591 C600 0.950 . S
H592 C602 0.950 . S
H593 C604 0.950 . S
H594 C606 0.950 . S
H595 C607 0.950 . S
C596 H588 0.950 . S
C596 C597 1.386 . S
C596 C598 1.391 . S
C597 C596 1.386 . S
C597 C601 1.393 . S
C598 H590 0.950 . S
C598 C596 1.391 . S
C598 C599 1.400 . S
C599 C598 1.400 . S
C599 C600 1.398 . S
C599 C605 1.491 1_565 S
C600 H591 0.950 . S
C600 C599 1.398 . S
C600 C601 1.391 . S
C601 H589 0.950 . S
C601 C597 1.393 . S
C601 C600 1.391 . S
C602 H592 0.950 . S
C602 C603 1.386 . S
C602 C604 1.391 . S
C603 C602 1.386 . S
C603 C607 1.393 . S
C604 H593 0.950 . S
C604 C602 1.391 . S
C604 C605 1.400 . S
C605 C599 1.491 1_545 S
C605 C604 1.400 . S
C605 C606 1.398 . S
C606 H594 0.950 . S
C606 C605 1.398 . S
C606 C607 1.391 . S
C607 H595 0.950 . S
C607 C603 1.393 . S
C607 C606 1.391 . S
H608 C616 0.950 . S
H609 C621 0.950 . S
H610 C618 0.950 . S
H611 C620 0.950 . S
H612 C622 0.950 . S
H613 C624 0.950 . S
H614 C626 0.950 . S
H615 C627 0.950 . S
C616 H608 0.950 . S
C616 C617 1.386 . S
C616 C618 1.391 . S
C617 C616 1.386 . S
C617 C621 1.393 . S
C618 H610 0.950 . S
C618 C616 1.391 . S
C618 C619 1.400 . S
C619 C618 1.400 . S
C619 C620 1.398 . S
C619 C625 1.491 . S
C620 H611 0.950 . S
C620 C619 1.398 . S
C620 C621 1.391 . S
C621 H609 0.950 . S
C621 C617 1.393 . S
C621 C620 1.391 . S
C622 H612 0.950 . S
C622 C623 1.386 . S
C622 C624 1.391 . S
C623 C622 1.386 . S
C623 C627 1.393 . S
C624 H613 0.950 . S
C624 C622 1.391 . S
C624 C625 1.400 . S
C625 C619 1.491 . S
C625 C624 1.400 . S
C625 C626 1.398 . S
C626 H614 0.950 . S
C626 C625 1.398 . S
C626 C627 1.391 . S
C627 H615 0.950 . S
C627 C623 1.393 . S
C627 C626 1.391 . S
H628 C636 0.950 . S
H629 C641 0.950 . S
H630 C638 0.950 . S
H631 C640 0.950 . S
H632 C642 0.950 . S
H633 C644 0.950 . S
H634 C646 0.950 . S
H635 C647 0.950 . S
C636 H628 0.950 . S
C636 C637 1.386 . S
C636 C638 1.391 . S
C637 C636 1.386 . S
C637 C641 1.393 . S
C638 H630 0.950 . S
C638 C636 1.391 . S
C638 C639 1.400 . S
C639 C638 1.400 . S
C639 C640 1.398 . S
C639 C645 1.491 1_455 S
C640 H631 0.950 . S
C640 C639 1.398 . S
C640 C641 1.391 . S
C641 H629 0.950 . S
C641 C637 1.393 . S
C641 C640 1.391 . S
C642 H632 0.950 . S
C642 C643 1.386 . S
C642 C644 1.391 . S
C643 C642 1.386 . S
C643 C647 1.393 . S
C644 H633 0.950 . S
C644 C642 1.391 . S
C644 C645 1.400 . S
C645 C639 1.491 1_655 S
C645 C644 1.400 . S
C645 C646 1.398 . S
C646 H634 0.950 . S
C646 C645 1.398 . S
C646 C647 1.391 . S
C647 H635 0.950 . S
C647 C643 1.393 . S
C647 C646 1.391 . S
C177 C9 1.640 . S
C183 C149 1.636 . S
C197 C23 1.636 . S
C203 C163 1.631 . S
C217 C93 1.628 . S
C223 C37 1.630 . S
C237 C51 1.629 . S
C243 C107 1.634 . S
C257 C121 1.633 . S
C263 C65 1.639 . S
C277 C135 1.635 . S
C283 C79 1.630 1_554 S
C297 C119 1.399 . S
C303 C7 1.389 . S
C317 C21 1.388 . S
C323 C133 1.398 . S
C337 C147 1.393 . S
C343 C35 1.388 . S
C357 C49 1.403 . S
C363 C161 1.392 . S
C377 C63 1.406 . S
C383 C91 1.398 . S
C397 C77 1.388 . S
C403 C105 1.391 1_556 S
C417 C146 1.355 . S
C423 C6 1.364 . S
C437 C160 1.371 . S
C443 C20 1.363 . S
C457 C90 1.354 1_554 S
C463 C34 1.362 . S
C477 C48 1.373 . S
C483 C104 1.374 . S
C497 C62 1.369 . S
C503 C118 1.360 . S
C517 C132 1.374 . S
C523 C76 1.373 . S
C537 C8 1.288 . S
C543 C106 1.299 . S
C557 C120 1.303 . S
C563 C22 1.287 . S
C577 C134 1.315 . S
C583 C36 1.295 . S
C597 C50 1.304 . S
C603 C148 1.287 . S
C617 C64 1.308 . S
C623 C162 1.309 . S
C637 C78 1.314 . S
C643 C92 1.294 . S
