# Generated by pormake.
# Topology snp, (6)-cn, num edge types: 1
# Building blocks:
#     Node 0, Type 0, BuildingBlock: KUMBUR_clean_sbu_1, # of connection points: 6
#     Node 1, Type 0, BuildingBlock: KUMBUR_clean_sbu_1, # of connection points: 6
#     Node 2, Type 0, BuildingBlock: KUMBUR_clean_sbu_1, # of connection points: 6
#     Node 3, Type 0, BuildingBlock: KUMBUR_clean_sbu_1, # of connection points: 6
#     Edge 4, Type (0, 0), BuildingBlock: FUNLAD_clean_linker_1, # of connection points: 2
#     Edge 5, Type (0, 0), BuildingBlock: FUNLAD_clean_linker_1, # of connection points: 2
#     Edge 6, Type (0, 0), BuildingBlock: FUNLAD_clean_linker_1, # of connection points: 2
#     Edge 7, Type (0, 0), BuildingBlock: FUNLAD_clean_linker_1, # of connection points: 2
#     Edge 8, Type (0, 0), BuildingBlock: FUNLAD_clean_linker_1, # of connection points: 2
#     Edge 9, Type (0, 0), BuildingBlock: FUNLAD_clean_linker_1, # of connection points: 2
#     Edge 10, Type (0, 0), BuildingBlock: FUNLAD_clean_linker_1, # of connection points: 2
#     Edge 11, Type (0, 0), BuildingBlock: FUNLAD_clean_linker_1, # of connection points: 2
#     Edge 12, Type (0, 0), BuildingBlock: FUNLAD_clean_linker_1, # of connection points: 2
#     Edge 13, Type (0, 0), BuildingBlock: FUNLAD_clean_linker_1, # of connection points: 2
#     Edge 14, Type (0, 0), BuildingBlock: FUNLAD_clean_linker_1, # of connection points: 2
#     Edge 15, Type (0, 0), BuildingBlock: FUNLAD_clean_linker_1, # of connection points: 2
# Relax obj value: 0.370
# Max RMSD: 0.305
# Mean RMSD: 0.258
data_MOF--net-snp--node1-KUMBUR_clean_sbu_1--edge1-FUNLAD_clean_linker_1
_symmetry_space_group_name_H-M    P1
_symmetry_Int_Tables_number       1
_symmetry_cell_setting            triclinic
loop_
_symmetry_equiv_pos_as_xyz
'x, y, z'
_cell_length_a     25.54819
_cell_length_b     25.650848
_cell_length_c     32.829637
_cell_angle_alpha  97.476248
_cell_angle_beta   79.629759
_cell_angle_gamma 155.71766
loop_
_atom_site_label
_atom_site_type_symbol
_atom_site_fract_x
_atom_site_fract_y
_atom_site_fract_z
_atom_type_partial_charge
Tb0 Tb 0.89025 0.68329 1.00327 0.0
C1 C 0.35573 0.10759 0.09655 0.0
N2 N 0.42243 0.21022 0.11068 0.0
C3 C 0.23027 0.08916 0.12418 0.0
C4 C 0.22429 -0.00682 0.09446 0.0
C5 C 0.3582 0.19747 0.12838 0.0
C6 C 0.16362 -0.0128 0.10667 0.0
C7 C 0.34814 0.00685 0.07421 0.0
C8 C 0.41653 0.11379 0.0872 0.0
C9 C 0.21836 0.89444 0.07036 0.0
C10 C 0.1567 0.88774 0.0811 0.0
Tb11 Tb 0.63376 0.38521 0.11229 0.0
N12 N 0.54217 0.22402 0.09173 0.0
C13 C 0.41157 0.01542 0.06623 0.0
C14 C 0.6021 0.23037 0.08618 0.0
C15 C 0.53924 0.12775 0.07264 0.0
H16 H 0.40687 0.27153 0.14564 0.0
H17 H 0.58945 0.13565 0.06693 0.0
H18 H 0.03468 0.70276 0.95455 0.0
H19 H 0.06852 0.03667 1.0482 0.0
H20 H 0.69942 0.31636 0.09019 0.0
H21 H 0.36234 0.93544 0.05586 0.0
H22 H 0.90182 0.82091 1.03891 0.0
H23 H 0.18031 0.08029 0.13654 0.0
H24 H 0.16568 0.81283 0.05945 0.0
H25 H 0.05739 0.80239 0.07859 0.0
H26 H 0.25654 0.86923 0.93702 0.0
H27 H 0.06378 0.90246 0.10492 0.0
H28 H 0.29944 0.21924 1.02889 0.0
N29 N 0.08868 0.82512 0.98563 0.0
C30 C 0.18667 0.94704 0.99234 0.0
C31 C 0.23811 0.89193 0.95309 0.0
C32 C 0.31474 0.04737 0.97709 0.0
C33 C 0.11277 0.79786 0.96357 0.0
C34 C 0.33917 0.01768 0.95851 0.0
N35 N 0.03312 0.87428 1.02347 0.0
C36 C 0.00137 0.89796 1.03433 0.0
C37 C 0.25754 0.09983 1.01225 0.0
C38 C 0.15824 -0.02726 1.01071 0.0
C39 C 0.22546 0.12307 1.02776 0.0
C40 C 0.09642 0.02134 1.03877 0.0
H41 H 0.4339 0.09132 0.94418 0.0
H42 H 0.50786 0.25035 0.96087 0.0
H43 H 0.45969 0.29643 0.99314 0.0
O44 O 0.82297 0.68242 0.97037 0.0
O45 O 0.8651 0.70564 0.06754 0.0
O46 O 0.81285 0.59167 0.1055 0.0
O47 O -0.04053 0.75172 0.93819 0.0
O48 O 0.68496 0.49202 1.02571 0.0
O49 O 0.58972 0.42013 0.09368 0.0
O50 O 0.65854 0.36402 0.16109 0.0
O51 O 0.64548 0.35521 1.04829 0.0
O52 O 0.77596 0.50645 0.98986 0.0
O53 O 0.56387 0.35261 0.17472 0.0
O54 O 0.84291 0.56499 0.09339 0.0
O55 O 0.92961 0.63803 1.0239 0.0
C56 C 0.82747 0.65522 0.10395 0.0
C57 C -0.02946 0.851 0.91144 0.0
C58 C 0.00831 0.94801 0.85252 0.0
C59 C 0.09811 0.05511 0.87521 0.0
C60 C 0.0641 -0.03462 0.92966 0.0
C61 C 0.12748 0.06475 0.91187 0.0
C62 C 0.95411 0.8509 0.87043 0.0
C63 C 0.62238 0.46573 0.05718 0.0
C64 C 0.89848 0.7395 0.93486 0.0
C65 C 0.41208 0.17307 0.97703 0.0
C66 C 0.384 0.19931 0.99498 0.0
C67 C 0.69598 0.39936 1.00843 0.0
C68 C 0.50145 0.23518 0.22322 0.0
C69 C 0.40449 0.14212 0.29693 0.0
C70 C 0.30776 0.0229 0.28173 0.0
C71 C 0.40522 0.11469 0.21025 0.0
C72 C 0.50272 0.24935 0.26706 0.0
C73 C 0.30908 0.00988 0.23913 0.0
C74 C 0.90116 0.58986 0.0592 0.0
C75 C 0.59881 0.34384 0.19071 0.0
H76 H 0.14846 0.13432 0.86426 0.0
H77 H 0.09354 -0.01865 0.95717 0.0
H78 H 0.20022 0.15135 0.92748 0.0
H79 H 0.90705 0.77919 0.85229 0.0
H80 H 0.23268 0.93938 0.303 0.0
H81 H 0.40278 0.10085 0.17748 0.0
H82 H 0.5789 0.34256 0.27777 0.0
H83 H 0.23462 0.91729 0.22835 0.0
Tb84 Tb 0.33483 0.61544 0.6092 0.0
C85 C 0.87839 0.07227 0.52071 0.0
N86 N 0.77915 0.018 0.53048 0.0
C87 C 0.92921 0.22176 0.54467 0.0
C88 C 0.00386 0.20034 0.52638 0.0
C89 C 0.80507 0.09347 0.5403 0.0
C90 C 0.02646 0.27248 0.54073 0.0
C91 C -0.04155 0.05869 0.48827 0.0
C92 C 0.85496 -5e-05 0.50449 0.0
C93 C 0.0837 0.18833 0.49154 0.0
C94 C 0.10485 0.25544 0.51451 0.0
Tb95 Tb 0.58595 0.81019 0.51669 0.0
N96 N 0.73197 0.87419 0.50236 0.0
C97 C 0.93338 -0.01392 0.46891 0.0
C98 C 0.70701 0.80206 0.48458 0.0
C99 C 0.80668 0.85652 0.46768 0.0
H100 H 0.73516 0.06078 0.54279 0.0
H101 H 0.7863 0.79964 0.45253 0.0
H102 H 0.1882 0.36976 0.62744 0.0
H103 H 0.0976 0.55509 0.54499 0.0
H104 H 0.61128 0.70393 0.48117 0.0
H105 H 0.01071 0.02872 0.45501 0.0
H106 H 0.27109 0.65239 0.54841 0.0
H107 H 0.95036 0.28206 0.54927 0.0
H108 H 0.16427 0.23663 0.47692 0.0
H109 H 0.20022 0.35167 0.5211 0.0
H110 H -0.02695 0.14641 0.65316 0.0
H111 H 0.12017 0.36853 0.54701 0.0
H112 H 0.88638 0.35658 0.58819 0.0
N113 N 0.13269 0.39833 0.62486 0.0
C114 C 0.03274 0.34271 0.63216 0.0
C115 C -0.01166 0.20062 0.64754 0.0
C116 C 0.90708 0.21459 0.64773 0.0
C117 C 0.11145 0.32842 0.63249 0.0
C118 C 0.88617 0.14426 0.65545 0.0
N119 N 0.17141 0.52194 0.59602 0.0
C120 C 0.18556 0.57235 0.56967 0.0
C121 C 0.94759 0.34628 0.61607 0.0
C122 C 0.05314 0.40808 0.61715 0.0
C123 C -0.03473 0.40224 0.59085 0.0
C124 C 0.08387 0.51368 0.5664 0.0
H125 H 0.78989 0.0454 0.66621 0.0
H126 H 0.70738 0.05946 0.66426 0.0
H127 H 0.74316 0.17565 0.63592 0.0
O128 O 0.34905 0.69214 0.65611 0.0
O129 O 0.36873 0.63509 0.53774 0.0
O130 O 0.37492 0.63992 0.53583 0.0
O131 O 0.29624 0.56619 0.67063 0.0
O132 O 0.4727 0.80333 0.59773 0.0
O133 O 0.53582 0.85095 0.5273 0.0
O134 O 0.55879 0.74459 0.45906 0.0
O135 O 0.66356 0.86024 0.57427 0.0
O136 O 0.50363 0.73323 0.63128 0.0
O137 O 0.66485 0.91064 0.46115 0.0
O138 O 0.46764 0.63508 0.52949 0.0
O139 O 0.3857 0.57712 0.59886 0.0
C140 C 0.28391 0.57063 0.51396 0.0
C141 C 0.24139 0.58535 0.72554 0.0
C142 C 0.16173 0.58662 0.77801 0.0
C143 C 0.13207 0.52411 0.80718 0.0
C144 C 0.20072 0.51345 0.75433 0.0
C145 C 0.14832 0.48493 0.79503 0.0
C146 C 0.22392 0.62378 0.73804 0.0
C147 C 0.49939 0.84836 0.56304 0.0
C148 C 0.31869 0.63472 0.68544 0.0
C149 C 0.80427 0.15745 0.65167 0.0
C150 C 0.82463 0.22362 0.63575 0.0
C151 C 0.6221 0.82387 0.6151 0.0
C152 C 0.74254 0.91069 0.40771 0.0
C153 C 0.82526 0.90673 0.35942 0.0
C154 C 0.9483 0.041 0.35567 0.0
C155 C 0.8672 0.04414 0.40339 0.0
C156 C 0.72231 0.84261 0.38528 0.0
C157 C -0.0317 0.10817 0.37737 0.0
C158 C 0.42788 0.58267 0.56529 0.0
C159 C 0.63622 0.84318 0.43739 0.0
H160 H 0.09844 0.50684 0.83952 0.0
H161 H 0.21545 0.48472 0.74607 0.0
H162 H 0.12267 0.43455 0.81748 0.0
H163 H 0.26003 0.68405 0.71704 0.0
H164 H 0.03078 0.09659 0.33622 0.0
H165 H 0.88779 0.0998 0.4207 0.0
H166 H 0.62689 0.73955 0.38873 0.0
H167 H 0.06346 0.21104 0.3743 0.0
Tb168 Tb 0.94496 0.20973 0.09851 0.0
C169 C 0.43535 0.66795 0.16262 0.0
N170 N 0.50112 0.77213 0.17273 0.0
C171 C 0.30796 0.64842 0.18821 0.0
C172 C 0.30134 0.54863 0.1663 0.0
C173 C 0.43881 0.76282 0.1867 0.0
C174 C 0.24014 0.54213 0.17845 0.0
C175 C 0.43056 0.56804 0.15107 0.0
C176 C 0.49941 0.67667 0.15481 0.0
C177 C 0.29845 0.45073 0.153 0.0
C178 C 0.23354 0.4402 0.16113 0.0
Tb179 Tb 0.69858 0.93052 0.18256 0.0
N180 N 0.62839 0.79095 0.1549 0.0
C181 C 0.4943 0.57827 0.15015 0.0
C182 C 0.69264 0.80234 0.15246 0.0
C183 C 0.62624 0.69545 0.1495 0.0
H184 H 0.48471 0.83843 0.20037 0.0
H185 H 0.67436 0.70199 0.15016 0.0
H186 H 0.17731 0.33151 0.06227 0.0
H187 H -0.00284 0.46019 0.1713 0.0
H188 H 0.79102 0.89035 0.15724 0.0
H189 H 0.43955 0.49487 0.15457 0.0
H190 H 0.90248 0.288 0.16749 0.0
H191 H 0.2581 0.64035 0.19953 0.0
H192 H 0.24744 0.36864 0.1494 0.0
H193 H 0.1314 0.34719 0.16459 0.0
H194 H 0.41401 0.54486 0.05038 0.0
H195 H 0.14031 0.45669 0.18159 0.0
H196 H 0.20765 0.66361 0.12966 0.0
N197 N 0.16209 0.40092 0.07903 0.0
C198 C 0.22569 0.50491 0.07988 0.0
C199 C 0.3613 0.5341 0.05791 0.0
C200 C 0.35954 0.62745 0.06845 0.0
C201 C 0.22727 0.41346 0.06561 0.0
C202 C 0.42663 0.64081 0.05975 0.0
N203 N 0.0371 0.3743 0.11676 0.0
C204 C -0.0171 0.36646 0.14472 0.0
C205 C 0.22401 0.59736 0.10111 0.0
C206 C 0.15878 0.48975 0.09718 0.0
C207 C 0.16072 0.58347 0.12556 0.0
C208 C 0.04193 0.46887 0.14897 0.0
H209 H 0.52883 0.73407 0.05561 0.0
H210 H 0.52687 0.82865 0.06015 0.0
H211 H 0.40629 0.80139 0.08755 0.0
O212 O 0.83114 0.1388 0.06056 0.0
O213 O -0.03648 0.25381 0.16806 0.0
O214 O 0.83191 0.09508 0.21859 0.0
O215 O 0.02607 0.28988 1.03659 0.0
O216 O 0.74265 0.04815 0.11251 0.0
O217 O 0.697 0.01557 0.18098 0.0
O218 O 0.70567 0.88168 0.22505 0.0
O219 O 0.69455 0.89327 0.11315 0.0
O220 O 0.88611 0.07699 0.07088 0.0
O221 O 0.5663 0.81755 0.23804 0.0
O222 O 0.89542 0.08597 0.17655 0.0
O223 O -0.01746 0.16335 0.10875 0.0
C224 C 0.92663 0.21247 0.20844 0.0
C225 C 0.8797 0.15685 0.98801 0.0
C226 C 0.81985 0.12194 0.92246 0.0
C227 C 0.80487 0.05468 0.91034 0.0
C228 C 0.8663 0.09095 0.97521 0.0
C229 C 0.82498 0.03674 0.93711 0.0
C230 C 0.85559 0.17134 0.96158 0.0
C231 C 0.70005 0.03959 0.14656 0.0
C232 C 0.92047 0.21352 1.02814 0.0
C233 C 0.42359 0.73369 0.06949 0.0
C234 C 0.35496 0.71814 0.08492 0.0
C235 C 0.77082 0.95062 0.07627 0.0
C236 C 0.49573 0.66931 0.25554 0.0
C237 C 0.42347 0.51572 0.27021 0.0
C238 C 0.30184 0.41727 0.26042 0.0
C239 C 0.3691 0.5662 0.25066 0.0
C240 C 0.52183 0.64283 0.26616 0.0
C241 C 0.27435 0.44234 0.25207 0.0
C242 C -0.04273 0.11806 0.14268 0.0
C243 C 0.59944 0.80273 0.24813 0.0
H244 H 0.77763 0.01611 0.88029 0.0
H245 H 0.88796 0.08168 0.99437 0.0
H246 H 0.80852 -0.01925 0.92815 0.0
H247 H 0.86984 0.22573 0.97066 0.0
H248 H 0.22487 0.31949 0.26101 0.0
H249 H 0.34438 0.58164 0.24344 0.0
H250 H 0.61701 0.72037 0.27272 0.0
H251 H 0.17914 0.36514 0.24606 0.0
Tb252 Tb 0.07526 0.87931 0.72747 0.0
C253 C 0.62964 0.41997 0.73905 0.0
N254 N 0.68239 0.46517 0.6989 0.0
C255 C 0.65476 0.3465 0.69161 0.0
C256 C 0.60379 0.35197 0.75904 0.0
C257 C 0.68089 0.41661 0.67393 0.0
C258 C 0.61871 0.31645 0.73451 0.0
C259 C 0.47846 0.33261 0.7912 0.0
C260 C 0.56561 0.4072 0.75433 0.0
C261 C 0.48123 0.29605 0.81738 0.0
C262 C 0.54584 0.30663 0.80103 0.0
Tb263 Tb 0.75454 0.61153 0.67939 0.0
N264 N 0.56951 0.44603 0.72734 0.0
C265 C 0.38347 0.28586 0.79729 0.0
C266 C 0.46402 0.3818 0.72875 0.0
C267 C 0.37081 0.30351 0.76467 0.0
H268 H 0.70764 0.43839 0.6406 0.0
H269 H 0.29146 0.25925 0.76748 0.0
H270 H 0.32457 0.16343 0.67163 0.0
H271 H 0.06698 0.67973 0.77481 0.0
H272 H 0.45727 0.39913 0.70412 0.0
H273 H 0.31337 0.22676 0.82498 0.0
H274 H 0.00353 0.71648 0.77891 0.0
H275 H 0.66072 0.31434 0.67214 0.0
H276 H 0.42237 0.24652 0.84769 0.0
H277 H 0.537 0.26618 0.81921 0.0
H278 H 0.49401 0.28686 0.61253 0.0
H279 H 0.58999 0.25494 0.74732 0.0
H280 H 0.23552 0.79338 0.71865 0.0
N281 N 0.26077 0.0278 0.67966 0.0
C282 C 0.29353 0.00561 0.67133 0.0
C283 C 0.4394 0.20913 0.62929 0.0
C284 C 0.4008 0.08472 0.64173 0.0
C285 C 0.34243 0.13788 0.66239 0.0
C286 C 0.46768 0.18129 0.61845 0.0
N287 N 0.12696 0.8397 0.72464 0.0
C288 C 0.07426 0.76253 0.75422 0.0
C289 C 0.26998 0.89747 0.69265 0.0
C290 C 0.22718 0.91124 0.69558 0.0
C291 C 0.20634 0.80765 0.72017 0.0
C292 C 0.11086 0.74295 0.75191 0.0
H293 H 0.54708 0.2406 0.59411 0.0
H294 H 0.52724 0.1327 0.61645 0.0
H295 H 0.41539 -0.02834 0.66233 0.0
O296 O 0.082 0.89836 0.79141 0.0
O297 O 0.10425 0.93324 0.66396 0.0
O298 O 0.9262 0.75237 0.63079 0.0
O299 O 0.25612 0.05249 0.74808 0.0
O300 O 0.9385 0.6966 0.71142 0.0
O301 O 0.87795 0.65329 0.65083 0.0
O302 O 0.68766 0.61318 0.65173 0.0
O303 O 0.7413 0.64055 0.74641 0.0
O304 O 0.89984 0.74819 0.77714 0.0
O305 O 0.62811 0.48183 0.63494 0.0
O306 O 0.87914 0.79552 0.68733 0.0
O307 O 0.05557 0.94248 0.72178 0.0
C308 C 0.04921 0.87588 0.62977 0.0
C309 C 0.25563 0.0106 0.80859 0.0
C310 C 0.36446 0.02521 0.81162 0.0
C311 C 0.32435 -0.00436 0.85461 0.0
C312 C 0.22269 -0.01301 0.85145 0.0
C313 C 0.25508 -0.02199 0.874 0.0
C314 C 0.32811 0.0312 0.78862 0.0
C315 C 0.94131 0.68241 0.67203 0.0
C316 C 0.20636 0.0061 0.78637 0.0
C317 C 0.4426 0.07009 0.63811 0.0
C318 C 0.37875 -0.02179 0.6641 0.0
C319 C 0.79171 0.68024 0.78087 0.0
C320 C 0.66123 0.56684 0.58174 0.0
C321 C 0.59592 0.5234 0.51568 0.0
C322 C 0.72632 0.64147 0.49792 0.0
C323 C 0.79054 0.68663 0.56358 0.0
C324 C 0.56404 0.485 0.55743 0.0
C325 C 0.82253 0.72206 0.52179 0.0
C326 C -0.01679 0.90589 0.70427 0.0
C327 C 0.62812 0.52947 0.62615 0.0
H328 H 0.34197 -0.01879 0.87281 0.0
H329 H 0.16937 -0.02699 0.86755 0.0
H330 H 0.2211 0.95301 0.90645 0.0
H331 H 0.35829 0.05411 0.75557 0.0
H332 H 0.75451 0.67141 0.46547 0.0
H333 H 0.8673 0.75371 0.5816 0.0
H334 H 0.46381 0.39286 0.57125 0.0
H335 H 0.92259 0.81274 0.50781 0.0
H336 H 0.07067 0.17323 0.17286 0.0
C337 C 0.02552 0.13251 0.1453 0.0
H338 H -0.00905 0.06522 0.08775 0.0
H339 H 0.57561 0.5688 1.02596 0.0
H340 H 0.48386 0.48216 0.96287 0.0
H341 H 0.25419 0.29103 0.96456 0.0
H342 H 0.10851 0.1664 1.02983 0.0
C343 C 0.04813 0.11604 0.11249 0.0
C344 C 0.1732 0.20123 0.10452 0.0
C345 C 0.25584 0.28166 0.06714 0.0
C346 C 0.38927 0.39338 0.06464 0.0
C347 C 0.47177 0.47678 1.02822 0.0
C348 C 0.42149 0.43299 0.99197 0.0
C349 C 0.29091 0.32214 0.99319 0.0
C350 C 0.20894 0.2509 1.03092 0.0
H351 H 0.53491 0.43998 1.02595 0.0
C352 C 0.5834 0.48257 0.05258 0.0
H353 H 0.61788 0.54629 0.11128 0.0
H354 H 0.03524 0.04997 0.17649 0.0
H355 H 0.12482 0.11223 0.23692 0.0
H356 H 0.35878 0.31092 0.23342 0.0
H357 H 0.50395 0.45055 0.17032 0.0
C358 C 0.56259 0.4997 0.08654 0.0
C359 C 0.43708 0.41414 0.09633 0.0
C360 C 0.35433 0.3329 0.13377 0.0
C361 C 0.22126 0.22377 0.13718 0.0
C362 C 0.13889 0.14028 0.17385 0.0
C363 C 0.18873 0.17317 0.20836 0.0
C364 C 0.32034 0.28528 0.20638 0.0
C365 C 0.40263 0.36409 0.16955 0.0
H366 H 0.15146 0.10868 0.69989 0.0
C367 C 0.05131 0.01602 0.69488 0.0
H368 H 0.91033 0.92161 0.66828 0.0
H369 H 0.39389 0.53435 0.66048 0.0
H370 H 0.36956 0.52179 0.7361 0.0
H371 H 0.24783 0.34582 0.77414 0.0
H372 H 0.13029 0.17136 0.73782 0.0
C373 C 0.00679 0.01287 0.6759 0.0
C374 C 0.09677 0.13136 0.65521 0.0
C375 C 0.17757 0.23961 0.67685 0.0
C376 C 0.26509 0.35112 0.65454 0.0
C377 C 0.33085 0.4506 0.67651 0.0
C378 C 0.31792 0.44453 0.71963 0.0
C379 C 0.2482 0.34476 0.74103 0.0
C380 C 0.1792 0.24371 0.71994 0.0
H381 H 0.58099 0.66253 0.55607 0.0
C382 C 0.48166 0.57988 0.57023 0.0
H383 H 0.49159 0.51857 0.59389 0.0
H384 H 0.95065 0.93999 0.60277 0.0
H385 H 0.00342 -0.03059 0.5289 0.0
H386 H 0.19011 0.17795 0.49218 0.0
H387 H 0.31913 0.35915 0.52849 0.0
C388 C 0.42897 0.49463 0.59201 0.0
C389 C 0.29292 0.36579 0.611 0.0
C390 C 0.21386 0.25886 0.58955 0.0
C391 C 0.11061 0.13957 0.61148 0.0
C392 C 0.03271 0.03442 0.58862 0.0
C393 C 0.06211 0.04935 0.54597 0.0
C394 C 0.16791 0.16749 0.52522 0.0
C395 C 0.24108 0.27044 0.54632 0.0
H396 H 0.69421 0.11571 0.1775 0.0
C397 C 0.69201 0.09118 0.1473 0.0
H398 H 0.70005 0.10021 0.08351 0.0
H399 H 0.83961 0.4676 0.18279 0.0
H400 H 0.66065 0.29457 0.23675 0.0
H401 H 0.51447 0.08721 0.22902 0.0
H402 H 0.55682 0.05749 0.16972 0.0
C403 C 0.71203 0.13428 0.11253 0.0
C404 C 0.77181 0.24306 0.11049 0.0
C405 C 0.73504 0.25289 0.14188 0.0
C406 C 0.80728 0.36596 0.14289 0.0
C407 C 0.78069 0.37998 0.17829 0.0
C408 C 0.67865 0.28159 0.20964 0.0
C409 C 0.59757 0.16549 0.20563 0.0
C410 C 0.6244 0.15048 0.17195 0.0
H411 H 0.92499 0.52689 1.03436 0.0
C412 C 0.92856 0.55791 0.06189 0.0
H413 H 0.93783 0.57894 0.12566 0.0
H414 H 0.86982 0.26436 1.04143 0.0
H415 H 0.07532 0.45596 0.99755 0.0
H416 H 0.20459 0.65349 1.005 0.0
H417 H 0.12381 0.6558 0.05531 0.0
C418 C 0.93348 0.54504 0.09946 0.0
C419 C 0.90172 0.46041 0.1086 0.0
C420 C 0.94785 0.45836 0.08009 0.0
C421 C 0.87954 0.34802 0.07921 0.0
C422 C 0.92486 0.34854 1.0472 0.0
C423 C 0.04144 0.45774 1.02112 0.0
C424 C 0.11368 0.56855 1.02504 0.0
C425 C 0.06614 0.56843 0.05357 0.0
H426 H 0.45368 0.87487 0.53249 0.0
C427 C 0.46483 0.87402 0.56263 0.0
H428 H 0.42796 0.86109 0.62705 0.0
H429 H 0.21216 0.87951 0.5536 0.0
H430 H 0.41746 0.06741 0.5103 0.0
H431 H 0.58026 0.14509 0.50714 0.0
H432 H 0.53806 0.03496 0.54772 0.0
C433 C 0.4138 0.86005 0.59747 0.0
C434 C 0.31572 0.81545 0.59847 0.0
C435 C 0.33989 0.87945 0.57409 0.0
C436 C 0.24614 0.83623 0.57707 0.0
C437 C 0.27739 0.90635 0.55327 0.0
C438 C 0.39581 0.01523 0.52801 0.0
C439 C 0.48722 0.05862 0.52609 0.0
C440 C 0.46062 -0.00725 0.54903 0.0
H441 H 0.00383 0.6608 0.67934 0.0
C442 C -0.00758 0.67461 0.65556 0.0
H443 H 0.02984 0.71486 0.5922 0.0
H444 H 0.23234 0.66966 0.65246 0.0
H445 H 0.02676 0.48179 0.69556 0.0
H446 H 0.85446 0.38865 0.69093 0.0
H447 H 0.89375 0.49127 0.64501 0.0
C448 C 0.04167 0.701 0.61572 0.0
C449 C 0.12722 0.72895 0.60478 0.0
C450 C 0.09888 0.65872 0.62591 0.0
C451 C 0.19531 0.70677 0.62545 0.0
C452 C 0.16614 0.64105 0.65178 0.0
C453 C 0.04666 0.53102 0.67643 0.0
C454 C 0.94967 0.47831 0.67365 0.0
C455 C -0.02598 0.53907 0.64769 0.0
H456 H 0.70165 0.72849 0.34136 0.0
C457 C 0.80057 0.83063 0.33739 0.0
H458 H -0.01253 -0.01725 0.30698 0.0
H459 H 0.01709 0.81881 0.17532 0.0
H460 H 0.23693 0.02565 0.1881 0.0
H461 H 0.29564 0.14306 0.24471 0.0
H462 H 0.12973 0.04541 0.28984 0.0
C463 C 0.89241 0.88153 0.31312 0.0
C464 C 0.87072 0.80976 0.2879 0.0
C465 C -0.02845 0.87515 0.25852 0.0
C466 C 0.94041 0.81192 0.22459 0.0
C467 C 0.03795 0.86773 0.19966 0.0
C468 C 0.16427 -0.01471 0.20729 0.0
C469 C 0.19688 0.051 0.23897 0.0
C470 C 0.10138 -0.00405 0.26435 0.0
H471 H 0.84232 0.74594 0.1417 0.0
C472 C 0.81424 0.67983 0.14296 0.0
H473 H 0.76302 0.57453 0.18117 0.0
H474 H 0.70954 0.65003 0.35787 0.0
H475 H 0.5248 0.42468 0.36106 0.0
H476 H 0.4366 0.30978 0.29752 0.0
H477 H 0.56098 0.42968 0.22941 0.0
C478 C 0.78208 0.6329 0.17986 0.0
C479 C 0.81078 0.68901 0.21875 0.0
C480 C 0.71621 0.61446 0.25424 0.0
C481 C 0.75055 0.6757 0.29043 0.0
C482 C 0.67707 0.60426 0.32915 0.0
C483 C 0.56993 0.47495 0.33136 0.0
C484 C 0.52368 0.4115 0.29535 0.0
C485 C 0.59513 0.48059 0.25664 0.0
H486 H 0.19765 0.70296 0.77197 0.0
C487 C 0.13305 0.61809 0.78806 0.0
H488 H 0.01845 0.57852 0.81848 0.0
H489 H 0.79383 0.25099 0.96675 0.0
H490 H 0.89786 0.41779 1.00091 0.0
H491 H 0.04551 0.60851 0.96115 0.0
H492 H 0.06163 0.61494 0.88618 0.0
C493 C 0.02808 0.54484 0.81306 0.0
C494 C 0.93089 0.42668 0.83759 0.0
C495 C 0.92885 0.42861 0.88096 0.0
C496 C 0.8564 0.32662 0.90373 0.0
C497 C 0.85129 0.32794 0.94733 0.0
C498 C 0.91367 0.42554 0.96756 0.0
C499 C -0.00626 0.53078 0.94511 0.0
C500 C 0.0016 0.53286 0.90213 0.0
H501 H 0.87423 0.2017 0.86275 0.0
C502 C 0.81286 0.15352 0.89273 0.0
H503 H 0.68862 0.09375 0.93425 0.0
H504 H 0.8832 0.37726 0.75806 0.0
H505 H 0.75173 0.19292 0.72361 0.0
H506 H 0.63783 0.02226 0.76194 0.0
H507 H 0.65203 0.03367 0.83527 0.0
C508 C 0.75057 0.1434 0.9044 0.0
C509 C 0.79216 0.22694 0.88265 0.0
C510 C 0.78274 0.21832 0.84009 0.0
C511 C 0.85018 0.31742 0.81772 0.0
C512 C 0.83728 0.3061 0.77561 0.0
C513 C 0.76174 0.20071 0.75576 0.0
C514 C 0.69711 0.10437 0.77744 0.0
C515 C 0.70664 0.1123 0.81928 0.0
H516 H 0.40041 0.33794 0.50119 0.0
C517 C 0.49191 0.43724 0.49082 0.0
H518 H 0.59592 0.58211 0.45365 0.0
H519 H 0.16653 0.14103 0.33097 0.0
H520 H 0.07617 -0.01914 0.36118 0.0
H521 H 0.15444 0.02678 0.42289 0.0
H522 H 0.32515 0.22889 0.45192 0.0
C523 C 0.50638 0.48029 0.4595 0.0
C524 C 0.40816 0.40328 0.43302 0.0
C525 C 0.3372 0.30073 0.41082 0.0
C526 C 0.29803 0.27726 0.37335 0.0
C527 C 0.20599 0.16323 0.35581 0.0
C528 C 0.15351 0.07256 0.37361 0.0
C529 C 0.1987 0.09905 0.40819 0.0
C530 C 0.29536 0.21529 0.42529 0.0
H531 H 0.53454 0.56852 0.30343 0.0
C532 C 0.44253 0.48706 0.29247 0.0
H533 H 0.25015 0.28603 0.30175 0.0
H534 H 0.41121 0.4949 0.48612 0.0
H535 H 0.33552 0.5126 0.47485 0.0
H536 H 0.29278 0.49031 0.40591 0.0
H537 H 0.30632 0.43306 0.35027 0.0
C538 C 0.34284 0.37147 0.31227 0.0
C539 C 0.3437 0.36409 0.35644 0.0
C540 C 0.36666 0.42747 0.38522 0.0
C541 C 0.39812 0.44645 0.42405 0.0
C542 C 0.39572 0.48684 0.4554 0.0
C543 C 0.35257 0.49709 0.44929 0.0
C544 C 0.32725 0.48368 0.41074 0.0
C545 C 0.33765 0.45268 0.3785 0.0
H546 H 0.4074 0.00079 0.75895 0.0
C547 C 0.42869 0.03338 0.78975 0.0
H548 H 0.53822 0.06379 0.78632 0.0
H549 H 0.80541 0.49605 0.89886 0.0
H550 H 0.87278 0.58603 0.83322 0.0
H551 H 0.83698 0.49829 0.7676 0.0
H552 H 0.7083 0.30264 0.7706 0.0
C553 C 0.50851 0.0742 0.80479 0.0
C554 C 0.57615 0.15188 0.84105 0.0
C555 C 0.67041 0.2764 0.83814 0.0
C556 C 0.7124 0.3398 0.87446 0.0
C557 C 0.78236 0.45026 0.87186 0.0
C558 C 0.82278 0.504 0.83383 0.0
C559 C 0.8002 0.45313 0.79747 0.0
C560 C 0.72454 0.34008 0.79947 0.0
H561 H 0.56184 0.21717 0.99078 0.0
C562 C 0.6578 0.31839 0.98251 0.0
H563 H 0.83359 0.46872 0.94407 0.0
H564 H 0.41695 0.9256 0.85509 0.0
H565 H 0.36965 0.84442 0.91971 0.0
H566 H 0.46948 -0.03038 0.98096 0.0
H567 H 0.61617 0.1759 0.97822 0.0
C568 C 0.73483 0.36605 0.94888 0.0
C569 C 0.68214 0.29121 0.9123 0.0
C570 C 0.60306 0.17444 0.91398 0.0
C571 C 0.54692 0.10287 0.87843 0.0
C572 C 0.46206 -0.01672 0.88125 0.0
C573 C 0.43454 0.93603 0.91803 0.0
C574 C 0.49054 0.00642 0.95257 0.0
C575 C 0.57392 0.1243 0.95072 0.0
H576 H 0.76289 0.85571 0.05689 0.0
C577 C 0.74357 0.87511 1.04604 0.0
H578 H 0.67304 0.84468 0.99814 0.0
H579 H 0.46192 0.48568 0.86734 0.0
H580 H 0.27699 0.37704 0.89117 0.0
H581 H 0.28322 0.45547 0.94773 0.0
H582 H 0.47129 0.63901 0.98235 0.0
C583 C 0.6975 0.82977 1.00763 0.0
C584 C 0.6821 0.76595 0.97434 0.0
C585 C 0.57598 0.66456 0.95002 0.0
C586 C 0.57774 0.62625 0.91306 0.0
C587 C 0.46684 0.52009 0.89353 0.0
C588 C 0.36092 0.4578 0.90676 0.0
C589 C 0.36403 0.50144 0.93892 0.0
C590 C 0.47067 0.60446 0.95967 0.0
H591 H 0.70491 0.60088 0.84909 0.0
C592 C 0.72477 0.6473 0.82731 0.0
H593 H 0.71284 0.72193 0.8289 0.0
H594 H 0.91965 -0.03607 1.00162 0.0
H595 H 0.06514 0.1479 0.95736 0.0
H596 H 0.0144 0.11439 0.88838 0.0
H597 H 0.82567 0.89738 0.86359 0.0
C598 C 0.70845 0.68653 0.84715 0.0
C599 C 0.69234 0.70046 0.89443 0.0
C600 C 0.79801 0.82204 0.91172 0.0
C601 C 0.79097 0.83225 0.95575 0.0
C602 C 0.90817 0.9529 0.96942 0.0
C603 C -0.00929 0.0576 0.94466 0.0
C604 C -0.0369 0.03904 0.90541 0.0
C605 C 0.8635 0.91959 0.8897 0.0
H606 H 0.49144 0.21808 0.35494 0.0
C607 C 0.40498 0.15114 0.34374 0.0
H608 H 0.21368 0.00312 0.35762 0.0
H609 H 0.92606 0.70082 0.52308 0.0
H610 H 0.80146 0.54418 0.47367 0.0
H611 H 0.88642 0.60711 0.39893 0.0
H612 H 0.09839 0.82838 0.3734 0.0
C613 C 0.29556 0.06593 0.37135 0.0
C614 C 0.26636 0.03531 0.41835 0.0
C615 C 0.14471 0.90464 0.43413 0.0
C616 C 0.09816 0.86764 0.478 0.0
C617 C -0.02883 0.73591 0.49099 0.0
C618 C 0.89661 0.64389 0.46273 0.0
C619 C 0.94441 0.67938 0.42071 0.0
C620 C 0.0663 0.80747 0.40645 0.0
H621 H 0.1776 0.03344 0.58351 0.0
C622 C 0.12719 0.95136 0.58757 0.0
H623 H 0.07588 0.83137 0.56147 0.0
H624 H 0.49524 0.29312 0.40327 0.0
H625 H 0.63666 0.4506 0.45287 0.0
H626 H 0.57756 0.38682 0.52699 0.0
H627 H 0.36974 0.16441 0.55249 0.0
C628 C 0.12687 0.9128 0.55441 0.0
C629 C 0.17671 0.95997 0.50794 0.0
C630 C 0.30296 0.09071 0.49231 0.0
C631 C 0.34456 0.12816 0.44814 0.0
C632 C 0.46387 0.25913 0.43518 0.0
C633 C 0.54559 0.35081 0.46355 0.0
C634 C 0.51131 0.31484 0.50538 0.0
C635 C 0.3912 0.18668 0.51975 0.0
H636 H 0.77914 0.91155 0.62532 0.0
C637 C 0.70665 0.87371 0.64247 0.0
H638 H 0.63155 0.84218 0.703 0.0
H639 H 0.78597 0.7674 0.76917 0.0
H640 H 0.57054 0.55427 0.75702 0.0
H641 H 0.49602 0.524 0.69814 0.0
H642 H 0.60388 0.6977 0.67396 0.0
C643 C 0.70004 0.87478 0.68586 0.0
C644 C 0.77488 0.91068 0.7135 0.0
C645 C 0.74105 0.82797 0.71878 0.0
C646 C 0.79655 0.84888 0.74745 0.0
C647 C 0.74127 0.75171 0.75335 0.0
C648 C 0.6239 0.63164 0.74177 0.0
C649 C 0.5795 0.61472 0.71109 0.0
C650 C 0.64204 0.71502 0.6979 0.0
H651 H 0.9485 0.88909 0.78898 0.0
C652 C -0.02657 0.94068 0.81184 0.0
H653 H 0.0274 0.06634 0.82114 0.0
H654 H 0.81601 0.05097 0.73034 0.0
H655 H 0.94308 0.21064 0.77902 0.0
H656 H 0.04719 0.25593 0.82475 0.0
H657 H 0.02751 0.1456 0.82213 0.0
C658 C -0.03076 -0.00989 0.80207 0.0
C659 C 0.89532 0.95696 0.77202 0.0
C660 C 0.91086 0.02773 0.77161 0.0
C661 C 0.85144 0.0039 0.74355 0.0
C662 C 0.86447 0.07082 0.7479 0.0
C663 C 0.93511 0.16106 0.77648 0.0
C664 C -0.00694 0.18592 0.80235 0.0
C665 C -0.01957 0.12019 0.80036 0.0
H666 H 0.0195 0.36474 0.24436 0.0
C667 C -0.00929 0.29821 0.24551 0.0
H668 H -0.03135 0.21582 0.28113 0.0
H669 H 0.39261 0.70866 0.39814 0.0
H670 H 0.51568 0.85222 0.33823 0.0
H671 H 0.4238 0.7704 0.274 0.0
H672 H 0.21451 0.54299 0.26651 0.0
C673 C 0.00485 0.28834 0.28102 0.0
C674 C 0.05029 0.35222 0.32352 0.0
C675 C 0.17563 0.48571 0.32845 0.0
C676 C 0.22527 0.53421 0.36806 0.0
C677 C 0.35029 0.66705 0.36994 0.0
C678 C 0.42142 0.75058 0.3359 0.0
C679 C 0.36994 0.70431 0.29942 0.0
C680 C 0.24995 0.57394 0.29541 0.0
H681 H 0.37387 0.62931 0.44618 0.0
C682 C 0.29318 0.57569 0.46639 0.0
H683 H 0.12084 0.46087 0.47316 0.0
H684 H 0.79512 0.10299 0.33168 0.0
H685 H 0.64495 -0.02784 0.39556 0.0
H686 H 0.72009 0.05756 0.46335 0.0
H687 H 0.94448 0.26428 0.46827 0.0
C688 C 0.18929 0.49974 0.44989 0.0
C689 C 0.14678 0.45191 0.40537 0.0
C690 C 0.01324 0.32176 0.40151 0.0
C691 C -0.03231 0.27289 0.36148 0.0
C692 C 0.83462 0.14443 0.36051 0.0
C693 C 0.74683 0.06844 0.39692 0.0
C694 C 0.78918 0.11621 0.43512 0.0
C695 C 0.91996 0.23781 0.43749 0.0
loop_
_geom_bond_atom_site_label_1
_geom_bond_atom_site_label_2
_geom_bond_distance
_geom_bond_site_symmetry_2
_ccdc_geom_bond_type
Tb0 N29 2.617 1_656 S
Tb0 N35 2.571 1_656 S
Tb0 O44 2.467 . S
Tb0 O45 2.384 1_556 S
Tb0 O47 2.429 1_655 S
Tb0 O48 2.307 1_556 S
Tb0 O52 2.350 . S
Tb0 O55 2.392 1_556 S
Tb0 C64 2.804 1_655 S
C1 N2 1.379 . S
C1 C4 1.416 1_545 S
C1 C8 1.424 . S
N2 C1 1.379 . S
N2 C5 1.334 . S
N2 Tb11 2.617 . S
C3 C5 1.390 . S
C3 C6 1.339 1_545 S
C3 H23 0.930 . S
C4 C1 1.416 1_565 S
C4 C6 1.416 . S
C4 C10 1.448 . S
C5 N2 1.334 . S
C5 C3 1.390 . S
C5 H16 0.930 . S
C6 C3 1.339 1_565 S
C6 C4 1.416 . S
C6 H27 0.930 1_455 S
C7 C8 1.413 1_565 S
C7 C9 1.427 . S
C7 C13 1.416 . S
C8 C1 1.424 . S
C8 C7 1.413 1_545 S
C8 N12 1.361 . S
C9 C7 1.427 . S
C9 C10 1.328 . S
C9 H24 0.929 . S
C10 C4 1.448 . S
C10 C9 1.328 . S
C10 H25 0.930 1_455 S
Tb11 N2 2.617 . S
Tb11 N12 2.572 . S
Tb11 O46 2.349 . S
Tb11 O49 2.393 . S
Tb11 O50 2.465 . S
Tb11 O51 2.387 . S
Tb11 O53 2.428 . S
Tb11 O54 2.308 . S
Tb11 C75 2.802 . S
N12 C8 1.361 . S
N12 Tb11 2.572 . S
N12 C14 1.340 . S
C13 C7 1.416 . S
C13 C15 1.332 1_565 S
C13 H21 0.931 . S
C14 N12 1.340 . S
C14 C15 1.407 . S
C14 H20 0.930 . S
C15 C13 1.332 1_545 S
C15 C14 1.407 . S
C15 H17 0.929 . S
H16 C5 0.930 . S
H17 C15 0.929 . S
H18 C33 0.930 . S
H19 C40 0.929 . S
H20 C14 0.930 . S
H21 C13 0.931 . S
H22 C36 0.930 . S
H23 C3 0.930 . S
H24 C9 0.929 . S
H25 C10 0.930 1_655 S
H26 C31 0.930 1_556 S
H27 C6 0.930 1_655 S
H28 C39 0.931 . S
N29 Tb0 2.617 1_454 S
N29 C30 1.379 1_565 S
N29 C33 1.334 1_554 S
C30 N29 1.379 1_545 S
C30 C32 1.416 . S
C30 C38 1.424 . S
C31 H26 0.930 1_554 S
C31 C33 1.390 1_544 S
C31 C34 1.339 . S
C32 C30 1.416 . S
C32 C34 1.416 . S
C32 C65 1.448 . S
C33 H18 0.930 . S
C33 N29 1.334 1_556 S
C33 C31 1.390 1_566 S
C34 C31 1.339 . S
C34 C32 1.416 . S
C34 H41 0.930 . S
N35 Tb0 2.571 1_454 S
N35 C36 1.340 1_455 S
N35 C38 1.361 1_565 S
C36 H22 0.930 . S
C36 N35 1.340 1_655 S
C36 C40 1.407 1_665 S
C37 C38 1.413 . S
C37 C39 1.416 . S
C37 C66 1.427 . S
C38 C30 1.424 . S
C38 N35 1.361 1_545 S
C38 C37 1.413 . S
C39 H28 0.931 . S
C39 C37 1.416 . S
C39 C40 1.332 . S
C40 H19 0.929 . S
C40 C36 1.407 1_445 S
C40 C39 1.332 . S
H41 C34 0.930 . S
H42 C65 0.930 . S
H43 C66 0.929 . S
O44 Tb0 2.467 . S
O44 C64 1.264 1_655 S
O45 Tb0 2.384 1_554 S
O45 C56 1.264 . S
O46 Tb11 2.349 . S
O46 C56 1.243 . S
O47 Tb0 2.429 1_455 S
O47 C64 1.256 . S
O48 Tb0 2.307 1_554 S
O48 C63 1.266 . S
O49 Tb11 2.393 . S
O49 C63 1.248 . S
O50 Tb11 2.465 . S
O50 C75 1.264 . S
O51 Tb11 2.387 . S
O51 C67 1.264 1_554 S
O52 Tb0 2.350 . S
O52 C67 1.243 . S
O53 Tb11 2.428 . S
O53 C75 1.256 . S
O54 Tb11 2.308 . S
O54 C74 1.266 . S
O55 Tb0 2.392 1_554 S
O55 C74 1.248 . S
C56 O45 1.264 . S
C56 O46 1.243 . S
C57 C60 1.399 . S
C57 C62 1.383 . S
C57 C64 1.496 . S
C58 C59 1.399 1_565 S
C58 C62 1.389 . S
C59 C58 1.399 1_545 S
C59 C61 1.380 . S
C59 H76 0.929 . S
C60 C57 1.399 . S
C60 C61 1.392 1_565 S
C60 H77 0.929 . S
C61 C59 1.380 . S
C61 C60 1.392 1_545 S
C61 H78 0.929 . S
C62 C57 1.383 . S
C62 C58 1.389 . S
C62 H79 0.931 1_455 S
C63 O48 1.266 . S
C63 O49 1.248 . S
C64 Tb0 2.804 1_455 S
C64 O44 1.264 1_455 S
C64 O47 1.256 . S
C64 C57 1.496 . S
C65 C32 1.448 . S
C65 H42 0.930 . S
C65 C66 1.328 . S
C66 C37 1.427 . S
C66 H43 0.929 . S
C66 C65 1.328 . S
C67 O51 1.264 1_556 S
C67 O52 1.243 . S
C68 C71 1.399 . S
C68 C72 1.383 . S
C68 C75 1.496 . S
C69 C70 1.399 . S
C69 C72 1.389 . S
C70 C69 1.399 . S
C70 C73 1.380 . S
C70 H80 0.929 . S
C71 C68 1.399 . S
C71 C73 1.392 . S
C71 H81 0.929 . S
C72 C68 1.383 . S
C72 C69 1.389 . S
C72 H82 0.931 . S
C73 C70 1.380 . S
C73 C71 1.392 . S
C73 H83 0.929 . S
C74 O54 1.266 . S
C74 O55 1.248 . S
C75 Tb11 2.802 . S
C75 O50 1.264 . S
C75 O53 1.256 . S
C75 C68 1.496 . S
H76 C59 0.929 . S
H77 C60 0.929 . S
H78 C61 0.929 . S
H79 C62 0.931 1_655 S
H80 C70 0.929 . S
H81 C71 0.929 . S
H82 C72 0.931 . S
H83 C73 0.929 . S
Tb84 N113 2.617 . S
Tb84 N119 2.572 . S
Tb84 O128 2.465 . S
Tb84 O129 2.387 . S
Tb84 O131 2.428 . S
Tb84 O132 2.308 . S
Tb84 O136 2.349 . S
Tb84 O139 2.393 . S
Tb84 C148 2.802 . S
C85 N86 1.379 1_455 S
C85 C88 1.416 . S
C85 C92 1.424 . S
N86 C85 1.379 1_655 S
N86 C89 1.334 1_655 S
N86 Tb95 2.617 1_545 S
C87 C89 1.390 . S
C87 C90 1.339 . S
C87 H107 0.930 . S
C88 C85 1.416 . S
C88 C90 1.416 . S
C88 C94 1.448 . S
C89 N86 1.334 1_455 S
C89 C87 1.390 . S
C89 H100 0.930 1_455 S
C90 C87 1.339 . S
C90 C88 1.416 . S
C90 H111 0.930 . S
C91 C92 1.413 . S
C91 C93 1.427 . S
C91 C97 1.416 . S
C92 C85 1.424 . S
C92 C91 1.413 . S
C92 N96 1.361 1_455 S
C93 C91 1.427 . S
C93 C94 1.328 . S
C93 H108 0.929 . S
C94 C88 1.448 . S
C94 C93 1.328 . S
C94 H109 0.930 . S
Tb95 N86 2.617 1_565 S
Tb95 N96 2.572 1_565 S
Tb95 O130 2.349 . S
Tb95 O133 2.393 . S
Tb95 O134 2.465 . S
Tb95 O135 2.387 . S
Tb95 O137 2.428 1_565 S
Tb95 O138 2.308 . S
Tb95 C159 2.802 1_565 S
N96 C92 1.361 1_655 S
N96 Tb95 2.572 1_545 S
N96 C98 1.340 . S
C97 C91 1.416 . S
C97 C99 1.332 . S
C97 H105 0.931 . S
C98 N96 1.340 . S
C98 C99 1.407 1_655 S
C98 H104 0.930 1_545 S
C99 C97 1.332 . S
C99 C98 1.407 1_455 S
C99 H101 0.929 . S
H100 C89 0.930 1_655 S
H101 C99 0.929 . S
H102 C117 0.930 . S
H103 C124 0.929 . S
H104 C98 0.930 1_565 S
H105 C97 0.931 . S
H106 C120 0.930 . S
H107 C87 0.930 . S
H108 C93 0.929 . S
H109 C94 0.930 . S
H110 C115 0.930 1_655 S
H111 C90 0.930 . S
H112 C123 0.931 . S
N113 Tb84 2.617 . S
N113 C114 1.379 . S
N113 C117 1.334 . S
C114 N113 1.379 . S
C114 C116 1.416 1_455 S
C114 C122 1.424 . S
C115 H110 0.930 1_455 S
C115 C117 1.390 . S
C115 C118 1.339 1_455 S
C116 C114 1.416 1_655 S
C116 C118 1.416 . S
C116 C149 1.448 . S
C117 H102 0.930 . S
C117 N113 1.334 . S
C117 C115 1.390 . S
C118 C115 1.339 1_655 S
C118 C116 1.416 . S
C118 H125 0.930 1_545 S
N119 Tb84 2.572 . S
N119 C120 1.340 . S
N119 C122 1.361 . S
C120 H106 0.930 . S
C120 N119 1.340 . S
C120 C124 1.407 . S
C121 C122 1.413 1_655 S
C121 C123 1.416 . S
C121 C150 1.427 . S
C122 C114 1.424 . S
C122 N119 1.361 . S
C122 C121 1.413 1_455 S
C123 H112 0.931 . S
C123 C121 1.416 . S
C123 C124 1.332 1_655 S
C124 H103 0.929 . S
C124 C120 1.407 . S
C124 C123 1.332 1_455 S
H125 C118 0.930 1_565 S
H126 C149 0.930 1_565 S
H127 C150 0.929 . S
O128 Tb84 2.465 . S
O128 C148 1.264 . S
O129 Tb84 2.387 . S
O129 C140 1.264 . S
O130 Tb95 2.349 . S
O130 C140 1.243 . S
O131 Tb84 2.428 . S
O131 C148 1.256 . S
O132 Tb84 2.308 . S
O132 C147 1.266 . S
O133 Tb95 2.393 . S
O133 C147 1.248 . S
O134 Tb95 2.465 . S
O134 C159 1.264 1_565 S
O135 Tb95 2.387 . S
O135 C151 1.264 . S
O136 Tb84 2.349 . S
O136 C151 1.243 . S
O137 Tb95 2.428 1_545 S
O137 C159 1.256 . S
O138 Tb95 2.308 . S
O138 C158 1.266 . S
O139 Tb84 2.393 . S
O139 C158 1.248 . S
C140 O129 1.264 . S
C140 O130 1.243 . S
C141 C144 1.399 . S
C141 C146 1.383 . S
C141 C148 1.496 . S
C142 C143 1.399 . S
C142 C146 1.389 . S
C143 C142 1.399 . S
C143 C145 1.380 . S
C143 H160 0.929 . S
C144 C141 1.399 . S
C144 C145 1.392 . S
C144 H161 0.929 . S
C145 C143 1.380 . S
C145 C144 1.392 . S
C145 H162 0.929 . S
C146 C141 1.383 . S
C146 C142 1.389 . S
C146 H163 0.931 . S
C147 O132 1.266 . S
C147 O133 1.248 . S
C148 Tb84 2.802 . S
C148 O128 1.264 . S
C148 O131 1.256 . S
C148 C141 1.496 . S
C149 C116 1.448 . S
C149 H126 0.930 1_545 S
C149 C150 1.328 . S
C150 C121 1.427 . S
C150 H127 0.929 . S
C150 C149 1.328 . S
C151 O135 1.264 . S
C151 O136 1.243 . S
C152 C155 1.399 . S
C152 C156 1.383 1_545 S
C152 C159 1.496 . S
C153 C154 1.399 1_655 S
C153 C156 1.389 1_545 S
C154 C153 1.399 1_455 S
C154 C157 1.380 . S
C154 H164 0.929 . S
C155 C152 1.399 . S
C155 C157 1.392 1_655 S
C155 H165 0.929 . S
C156 C152 1.383 1_565 S
C156 C153 1.389 1_565 S
C156 H166 0.931 . S
C157 C154 1.380 . S
C157 C155 1.392 1_455 S
C157 H167 0.929 . S
C158 O138 1.266 . S
C158 O139 1.248 . S
C159 Tb95 2.802 1_545 S
C159 O134 1.264 1_545 S
C159 O137 1.256 . S
C159 C152 1.496 . S
H160 C143 0.929 . S
H161 C144 0.929 . S
H162 C145 0.929 . S
H163 C146 0.931 . S
H164 C154 0.929 . S
H165 C155 0.929 . S
H166 C156 0.931 . S
H167 C157 0.929 . S
Tb168 N197 2.617 1_655 S
Tb168 N203 2.572 1_655 S
Tb168 O212 2.465 . S
Tb168 O213 2.387 . S
Tb168 O215 2.428 1_654 S
Tb168 O216 2.308 . S
Tb168 O220 2.352 . S
Tb168 O223 2.393 . S
Tb168 C232 2.802 1_654 S
C169 N170 1.379 . S
C169 C172 1.416 . S
C169 C176 1.424 . S
N170 C169 1.379 . S
N170 C173 1.334 . S
N170 Tb179 2.617 . S
C171 C173 1.390 . S
C171 C174 1.339 . S
C171 H191 0.930 . S
C172 C169 1.416 . S
C172 C174 1.416 . S
C172 C178 1.448 . S
C173 N170 1.334 . S
C173 C171 1.390 . S
C173 H184 0.930 . S
C174 C171 1.339 . S
C174 C172 1.416 . S
C174 H195 0.930 1_455 S
C175 C176 1.413 . S
C175 C177 1.427 . S
C175 C181 1.416 . S
C176 C169 1.424 . S
C176 C175 1.413 . S
C176 N180 1.361 . S
C177 C175 1.427 . S
C177 C178 1.328 . S
C177 H192 0.929 . S
C178 C172 1.448 . S
C178 C177 1.328 . S
C178 H193 0.930 1_455 S
Tb179 N170 2.617 . S
Tb179 N180 2.572 . S
Tb179 O214 2.349 1_565 S
Tb179 O217 2.393 . S
Tb179 O218 2.465 . S
Tb179 O219 2.387 . S
Tb179 O221 2.428 . S
Tb179 O222 2.308 . S
Tb179 C243 2.802 . S
N180 C176 1.361 . S
N180 Tb179 2.572 . S
N180 C182 1.340 . S
C181 C175 1.416 . S
C181 C183 1.332 . S
C181 H189 0.931 . S
C182 N180 1.340 . S
C182 C183 1.407 . S
C182 H188 0.930 . S
C183 C181 1.332 . S
C183 C182 1.407 . S
C183 H185 0.929 . S
H184 C173 0.930 . S
H185 C183 0.929 . S
H186 C201 0.930 . S
H187 C208 0.929 . S
H188 C182 0.930 . S
H189 C181 0.931 . S
H190 C204 0.925 1_655 S
H191 C171 0.930 . S
H192 C177 0.929 . S
H193 C178 0.930 1_655 S
H194 C199 0.930 . S
H195 C174 0.930 1_655 S
H196 C207 0.931 . S
N197 Tb168 2.617 1_455 S
N197 C198 1.379 . S
N197 C201 1.334 . S
C198 N197 1.379 . S
C198 C200 1.416 . S
C198 C206 1.424 . S
C199 H194 0.930 . S
C199 C201 1.390 . S
C199 C202 1.339 . S
C200 C198 1.416 . S
C200 C202 1.416 . S
C200 C233 1.448 . S
C201 H186 0.930 . S
C201 N197 1.334 . S
C201 C199 1.390 . S
C202 C199 1.339 . S
C202 C200 1.416 . S
C202 H209 0.930 . S
N203 Tb168 2.572 1_455 S
N203 C204 1.350 . S
N203 C206 1.361 . S
C204 H190 0.925 1_455 S
C204 N203 1.350 . S
C204 C208 1.402 . S
C205 C206 1.413 . S
C205 C207 1.416 . S
C205 C234 1.427 . S
C206 C198 1.424 . S
C206 N203 1.361 . S
C206 C205 1.413 . S
C207 H196 0.931 . S
C207 C205 1.416 . S
C207 C208 1.332 . S
C208 H187 0.929 . S
C208 C204 1.402 . S
C208 C207 1.332 . S
H209 C202 0.930 . S
H210 C233 0.930 . S
H211 C234 0.929 . S
O212 Tb168 2.465 . S
O212 C232 1.264 1_654 S
O213 Tb168 2.387 . S
O213 C224 1.264 . S
O214 Tb179 2.349 1_545 S
O214 C224 1.243 . S
O215 Tb168 2.428 1_456 S
O215 C232 1.256 . S
O216 Tb168 2.308 . S
O216 C231 1.266 1_545 S
O217 Tb179 2.393 . S
O217 C231 1.248 . S
O218 Tb179 2.465 . S
O218 C243 1.264 . S
O219 Tb179 2.387 . S
O219 C235 1.264 . S
O220 Tb168 2.352 . S
O220 C235 1.240 1_545 S
O221 Tb179 2.428 . S
O221 C243 1.256 . S
O222 Tb179 2.308 . S
O222 C242 1.266 1_565 S
O223 Tb168 2.393 . S
O223 C242 1.248 . S
C224 O213 1.264 . S
C224 O214 1.243 . S
C225 C228 1.399 . S
C225 C230 1.383 . S
C225 C232 1.496 . S
C226 C227 1.399 . S
C226 C230 1.389 . S
C227 C226 1.399 . S
C227 C229 1.380 . S
C227 H244 0.929 . S
C228 C225 1.399 . S
C228 C229 1.392 . S
C228 H245 0.929 . S
C229 C227 1.380 . S
C229 C228 1.392 . S
C229 H246 0.929 . S
C230 C225 1.383 . S
C230 C226 1.389 . S
C230 H247 0.931 1_455 S
C231 O216 1.266 1_565 S
C231 O217 1.248 . S
C232 Tb168 2.802 1_456 S
C232 O212 1.264 1_456 S
C232 O215 1.256 . S
C232 C225 1.496 . S
C233 C200 1.448 . S
C233 H210 0.930 . S
C233 C234 1.328 . S
C234 C205 1.427 . S
C234 H211 0.929 . S
C234 C233 1.328 . S
C235 O219 1.264 . S
C235 O220 1.240 1_565 S
C236 C239 1.399 . S
C236 C240 1.383 . S
C236 C243 1.496 . S
C237 C238 1.399 . S
C237 C240 1.389 . S
C238 C237 1.399 . S
C238 C241 1.380 . S
C238 H248 0.929 . S
C239 C236 1.399 . S
C239 C241 1.392 . S
C239 H249 0.929 . S
C240 C236 1.383 . S
C240 C237 1.389 . S
C240 H250 0.931 . S
C241 C238 1.380 . S
C241 C239 1.392 . S
C241 H251 0.929 . S
C242 O222 1.266 1_545 S
C242 O223 1.248 . S
C243 Tb179 2.802 . S
C243 O218 1.264 . S
C243 O221 1.256 . S
C243 C236 1.496 . S
H244 C227 0.929 . S
H245 C228 0.929 . S
H246 C229 0.929 . S
H247 C230 0.931 1_655 S
H248 C238 0.929 . S
H249 C239 0.929 . S
H250 C240 0.931 . S
H251 C241 0.929 . S
Tb252 N281 2.617 1_565 S
Tb252 N287 2.572 1_565 S
Tb252 O296 2.465 . S
Tb252 O297 2.387 . S
Tb252 O299 2.428 1_565 S
Tb252 O300 2.308 . S
Tb252 O304 2.349 . S
Tb252 O307 2.393 1_565 S
Tb252 C316 2.802 1_565 S
C253 N254 1.379 . S
C253 C256 1.416 . S
C253 C260 1.424 . S
N254 C253 1.379 . S
N254 C257 1.334 . S
N254 Tb263 2.617 . S
C255 C257 1.390 . S
C255 C258 1.339 . S
C255 H275 0.930 . S
C256 C253 1.416 . S
C256 C258 1.416 . S
C256 C262 1.448 . S
C257 N254 1.334 . S
C257 C255 1.390 . S
C257 H268 0.930 . S
C258 C255 1.339 . S
C258 C256 1.416 . S
C258 H279 0.930 . S
C259 C260 1.413 . S
C259 C261 1.427 . S
C259 C265 1.416 . S
C260 C253 1.424 . S
C260 C259 1.413 . S
C260 N264 1.361 . S
C261 C259 1.427 . S
C261 C262 1.328 . S
C261 H276 0.929 . S
C262 C256 1.448 . S
C262 C261 1.328 . S
C262 H277 0.930 . S
Tb263 N254 2.617 . S
Tb263 N264 2.572 . S
Tb263 O298 2.349 . S
Tb263 O301 2.393 . S
Tb263 O302 2.465 . S
Tb263 O303 2.387 . S
Tb263 O305 2.428 . S
Tb263 O306 2.308 . S
Tb263 C327 2.802 . S
N264 C260 1.361 . S
N264 Tb263 2.572 . S
N264 C266 1.340 . S
C265 C259 1.416 . S
C265 C267 1.332 . S
C265 H273 0.931 . S
C266 N264 1.340 . S
C266 C267 1.407 . S
C266 H272 0.930 . S
C267 C265 1.332 . S
C267 C266 1.407 . S
C267 H269 0.929 . S
H268 C257 0.930 . S
H269 C267 0.929 . S
H270 C285 0.930 . S
H271 C292 0.929 . S
H272 C266 0.930 . S
H273 C265 0.931 . S
H274 C288 0.930 1_565 S
H275 C255 0.930 . S
H276 C261 0.929 . S
H277 C262 0.930 . S
H278 C283 0.930 . S
H279 C258 0.930 . S
H280 C291 0.931 . S
N281 Tb252 2.617 1_545 S
N281 C282 1.379 . S
N281 C285 1.334 . S
C282 N281 1.379 . S
C282 C284 1.416 . S
C282 C290 1.424 . S
C283 H278 0.930 . S
C283 C285 1.390 . S
C283 C286 1.339 . S
C284 C282 1.416 . S
C284 C286 1.416 . S
C284 C317 1.448 . S
C285 H270 0.930 . S
C285 N281 1.334 . S
C285 C283 1.390 . S
C286 C283 1.339 . S
C286 C284 1.416 . S
C286 H293 0.930 . S
N287 Tb252 2.572 1_545 S
N287 C288 1.340 . S
N287 C290 1.361 . S
C288 H274 0.930 1_545 S
C288 N287 1.340 . S
C288 C292 1.407 . S
C289 C290 1.413 . S
C289 C291 1.416 . S
C289 C318 1.427 . S
C290 C282 1.424 . S
C290 N287 1.361 . S
C290 C289 1.413 . S
C291 H280 0.931 . S
C291 C289 1.416 . S
C291 C292 1.332 . S
C292 H271 0.929 . S
C292 C288 1.407 . S
C292 C291 1.332 . S
H293 C286 0.930 . S
H294 C317 0.930 . S
H295 C318 0.929 . S
O296 Tb252 2.465 . S
O296 C316 1.264 1_565 S
O297 Tb252 2.387 . S
O297 C308 1.264 . S
O298 Tb263 2.349 . S
O298 C308 1.243 1_655 S
O299 Tb252 2.428 1_545 S
O299 C316 1.256 . S
O300 Tb252 2.308 . S
O300 C315 1.266 1_455 S
O301 Tb263 2.393 . S
O301 C315 1.248 . S
O302 Tb263 2.465 . S
O302 C327 1.264 . S
O303 Tb263 2.387 . S
O303 C319 1.264 . S
O304 Tb252 2.349 . S
O304 C319 1.243 1_455 S
O305 Tb263 2.428 . S
O305 C327 1.256 . S
O306 Tb263 2.308 . S
O306 C326 1.266 1_655 S
O307 Tb252 2.393 1_545 S
O307 C326 1.248 1_545 S
C308 O297 1.264 . S
C308 O298 1.243 1_455 S
C309 C312 1.399 . S
C309 C314 1.383 . S
C309 C316 1.496 . S
C310 C311 1.399 . S
C310 C314 1.389 . S
C311 C310 1.399 . S
C311 C313 1.380 . S
C311 H328 0.929 . S
C312 C309 1.399 . S
C312 C313 1.392 . S
C312 H329 0.929 . S
C313 C311 1.380 . S
C313 C312 1.392 . S
C313 H330 0.929 . S
C314 C309 1.383 . S
C314 C310 1.389 . S
C314 H331 0.931 1_545 S
C315 O300 1.266 1_655 S
C315 O301 1.248 . S
C316 Tb252 2.802 1_545 S
C316 O296 1.264 1_545 S
C316 O299 1.256 . S
C316 C309 1.496 . S
C317 C284 1.448 . S
C317 H294 0.930 . S
C317 C318 1.328 . S
C318 C289 1.427 . S
C318 H295 0.929 . S
C318 C317 1.328 . S
C319 O303 1.264 . S
C319 O304 1.243 1_655 S
C320 C323 1.399 . S
C320 C324 1.383 . S
C320 C327 1.496 . S
C321 C322 1.399 . S
C321 C324 1.389 . S
C322 C321 1.399 . S
C322 C325 1.380 . S
C322 H332 0.929 . S
C323 C320 1.399 . S
C323 C325 1.392 . S
C323 H333 0.929 . S
C324 C320 1.383 . S
C324 C321 1.389 . S
C324 H334 0.931 . S
C325 C322 1.380 . S
C325 C323 1.392 . S
C325 H335 0.929 . S
C326 O306 1.266 1_455 S
C326 O307 1.248 1_565 S
C327 Tb263 2.802 . S
C327 O302 1.264 . S
C327 O305 1.256 . S
C327 C320 1.496 . S
H328 C311 0.929 . S
H329 C312 0.929 . S
H330 C313 0.929 . S
H331 C314 0.931 1_565 S
H332 C322 0.929 . S
H333 C323 0.929 . S
H334 C324 0.931 . S
H335 C325 0.929 . S
H336 C337 0.951 . S
C337 H336 0.951 . S
C337 C343 1.265 . S
H338 C343 0.950 . S
H339 C347 0.949 . S
H340 C348 0.950 . S
H341 C349 0.951 1_556 S
H342 C350 0.951 . S
C343 C337 1.265 . S
C343 H338 0.950 . S
C343 C344 1.478 1_655 S
C344 C343 1.478 1_455 S
C344 C345 1.397 . S
C344 C361 1.394 . S
C345 C344 1.397 . S
C345 C346 1.438 . S
C345 C350 1.429 . S
C346 C345 1.438 . S
C346 C347 1.428 . S
C346 C359 1.394 . S
C347 H339 0.949 . S
C347 C346 1.428 . S
C347 C348 1.345 1_554 S
C348 H340 0.950 . S
C348 C347 1.345 1_556 S
C348 C349 1.424 1_556 S
C349 H341 0.951 1_554 S
C349 C348 1.424 1_554 S
C349 C350 1.347 . S
C350 H342 0.951 . S
C350 C345 1.429 . S
C350 C349 1.347 . S
H351 C352 0.951 . S
C352 H351 0.951 . S
C352 C358 1.265 . S
H353 C358 0.950 . S
H354 C362 0.949 1_665 S
H355 C363 0.950 1_665 S
H356 C364 0.951 . S
H357 C365 0.951 . S
C358 C352 1.265 . S
C358 H353 0.950 . S
C358 C359 1.478 . S
C359 C346 1.394 . S
C359 C358 1.478 . S
C359 C360 1.397 . S
C360 C359 1.397 . S
C360 C361 1.438 . S
C360 C365 1.429 . S
C361 C344 1.394 . S
C361 C360 1.438 . S
C361 C362 1.428 . S
C362 H354 0.949 1_445 S
C362 C361 1.428 . S
C362 C363 1.345 . S
C363 H355 0.950 1_445 S
C363 C362 1.345 . S
C363 C364 1.424 . S
C364 H356 0.951 . S
C364 C363 1.424 . S
C364 C365 1.347 . S
C365 H357 0.951 . S
C365 C360 1.429 . S
C365 C364 1.347 . S
H366 C367 0.951 1_545 S
C367 H366 0.951 1_565 S
C367 C373 1.265 1_565 S
H368 C373 0.950 1_665 S
H369 C377 0.949 . S
H370 C378 0.950 . S
H371 C379 0.951 . S
H372 C380 0.951 . S
C373 C367 1.265 1_545 S
C373 H368 0.950 1_445 S
C373 C374 1.478 . S
C374 C373 1.478 . S
C374 C375 1.397 . S
C374 C391 1.394 . S
C375 C374 1.397 . S
C375 C376 1.438 . S
C375 C380 1.429 . S
C376 C375 1.438 . S
C376 C377 1.428 . S
C376 C389 1.394 . S
C377 H369 0.949 . S
C377 C376 1.428 . S
C377 C378 1.345 . S
C378 H370 0.950 . S
C378 C377 1.345 . S
C378 C379 1.424 . S
C379 H371 0.951 . S
C379 C378 1.424 . S
C379 C380 1.347 . S
C380 H372 0.951 . S
C380 C375 1.429 . S
C380 C379 1.347 . S
H381 C382 0.951 . S
C382 H381 0.951 . S
C382 C388 1.265 . S
H383 C388 0.950 . S
H384 C392 0.949 . S
H385 C393 0.950 . S
H386 C394 0.951 . S
H387 C395 0.951 . S
C388 C382 1.265 . S
C388 H383 0.950 . S
C388 C389 1.478 . S
C389 C376 1.394 . S
C389 C388 1.478 . S
C389 C390 1.397 . S
C390 C389 1.397 . S
C390 C391 1.438 . S
C390 C395 1.429 . S
C391 C374 1.394 . S
C391 C390 1.438 . S
C391 C392 1.428 . S
C392 H384 0.949 . S
C392 C391 1.428 . S
C392 C393 1.345 . S
C393 H385 0.950 . S
C393 C392 1.345 . S
C393 C394 1.424 . S
C394 H386 0.951 . S
C394 C393 1.424 . S
C394 C395 1.347 . S
C395 H387 0.951 . S
C395 C390 1.429 . S
C395 C394 1.347 . S
H396 C397 0.951 . S
C397 H396 0.951 . S
C397 C403 1.265 . S
H398 C403 0.950 1_565 S
H399 C407 0.949 . S
H400 C408 0.950 . S
H401 C409 0.951 . S
H402 C410 0.951 . S
C403 C397 1.265 . S
C403 H398 0.950 1_545 S
C403 C404 1.478 . S
C404 C403 1.478 . S
C404 C405 1.397 . S
C404 C421 1.394 . S
C405 C404 1.397 . S
C405 C406 1.438 . S
C405 C410 1.429 . S
C406 C405 1.438 . S
C406 C407 1.428 . S
C406 C419 1.394 . S
C407 H399 0.949 . S
C407 C406 1.428 . S
C407 C408 1.345 . S
C408 H400 0.950 . S
C408 C407 1.345 . S
C408 C409 1.424 . S
C409 H401 0.951 . S
C409 C408 1.424 . S
C409 C410 1.347 . S
C410 H402 0.951 . S
C410 C405 1.429 . S
C410 C409 1.347 . S
H411 C412 0.951 . S
C412 H411 0.951 . S
C412 C418 1.265 . S
H413 C418 0.950 1_455 S
H414 C422 0.949 . S
H415 C423 0.950 . S
H416 C424 0.951 . S
H417 C425 0.951 1_456 S
C418 C412 1.265 . S
C418 H413 0.950 1_655 S
C418 C419 1.478 . S
C419 C406 1.394 . S
C419 C418 1.478 . S
C419 C420 1.397 . S
C420 C419 1.397 . S
C420 C421 1.438 . S
C420 C425 1.429 . S
C421 C404 1.394 . S
C421 C420 1.438 . S
C421 C422 1.428 . S
C422 H414 0.949 . S
C422 C421 1.428 . S
C422 C423 1.345 1_554 S
C423 H415 0.950 . S
C423 C422 1.345 1_556 S
C423 C424 1.424 1_655 S
C424 H416 0.951 . S
C424 C423 1.424 1_455 S
C424 C425 1.347 1_456 S
C425 H417 0.951 1_654 S
C425 C420 1.429 . S
C425 C424 1.347 1_654 S
H426 C427 0.951 . S
C427 H426 0.951 . S
C427 C433 1.265 . S
H428 C433 0.950 1_545 S
H429 C437 0.949 . S
H430 C438 0.950 . S
H431 C439 0.951 . S
H432 C440 0.951 . S
C433 C427 1.265 . S
C433 H428 0.950 1_565 S
C433 C434 1.478 . S
C434 C433 1.478 . S
C434 C435 1.397 . S
C434 C451 1.394 . S
C435 C434 1.397 . S
C435 C436 1.438 . S
C435 C440 1.429 1_565 S
C436 C435 1.438 . S
C436 C437 1.428 . S
C436 C449 1.394 . S
C437 H429 0.949 . S
C437 C436 1.428 . S
C437 C438 1.345 1_565 S
C438 H430 0.950 . S
C438 C437 1.345 1_545 S
C438 C439 1.424 . S
C439 H431 0.951 . S
C439 C438 1.424 . S
C439 C440 1.347 . S
C440 H432 0.951 . S
C440 C435 1.429 1_545 S
C440 C439 1.347 . S
H441 C442 0.951 . S
C442 H441 0.951 . S
C442 C448 1.265 . S
H443 C448 0.950 1_655 S
H444 C452 0.949 . S
H445 C453 0.950 . S
H446 C454 0.951 . S
H447 C455 0.951 1_655 S
C448 C442 1.265 . S
C448 H443 0.950 1_455 S
C448 C449 1.478 . S
C449 C436 1.394 . S
C449 C448 1.478 . S
C449 C450 1.397 . S
C450 C449 1.397 . S
C450 C451 1.438 . S
C450 C455 1.429 . S
C451 C434 1.394 . S
C451 C450 1.438 . S
C451 C452 1.428 . S
C452 H444 0.949 . S
C452 C451 1.428 . S
C452 C453 1.345 . S
C453 H445 0.950 . S
C453 C452 1.345 . S
C453 C454 1.424 1_455 S
C454 H446 0.951 . S
C454 C453 1.424 1_655 S
C454 C455 1.347 1_655 S
C455 H447 0.951 1_455 S
C455 C450 1.429 . S
C455 C454 1.347 1_455 S
H456 C457 0.951 . S
C457 H456 0.951 . S
C457 C463 1.265 . S
H458 C463 0.950 . S
H459 C467 0.949 1_565 S
H460 C468 0.950 . S
H461 C469 0.951 . S
H462 C470 0.951 . S
C463 C457 1.265 . S
C463 H458 0.950 . S
C463 C464 1.478 . S
C464 C463 1.478 . S
C464 C465 1.397 1_655 S
C464 C481 1.394 . S
C465 C464 1.397 1_455 S
C465 C466 1.438 . S
C465 C470 1.429 1_565 S
C466 C465 1.438 . S
C466 C467 1.428 1_565 S
C466 C479 1.394 1_455 S
C467 H459 0.949 1_545 S
C467 C466 1.428 1_545 S
C467 C468 1.345 . S
C468 H460 0.950 . S
C468 C467 1.345 . S
C468 C469 1.424 . S
C469 H461 0.951 . S
C469 C468 1.424 . S
C469 C470 1.347 . S
C470 H462 0.951 . S
C470 C465 1.429 1_545 S
C470 C469 1.347 . S
H471 C472 0.951 . S
C472 H471 0.951 . S
C472 C478 1.265 . S
H473 C478 0.950 . S
H474 C482 0.949 . S
H475 C483 0.950 . S
H476 C484 0.951 . S
H477 C485 0.951 . S
C478 C472 1.265 . S
C478 H473 0.950 . S
C478 C479 1.478 . S
C479 C466 1.394 1_655 S
C479 C478 1.478 . S
C479 C480 1.397 . S
C480 C479 1.397 . S
C480 C481 1.438 . S
C480 C485 1.429 . S
C481 C464 1.394 . S
C481 C480 1.438 . S
C481 C482 1.428 . S
C482 H474 0.949 . S
C482 C481 1.428 . S
C482 C483 1.345 . S
C483 H475 0.950 . S
C483 C482 1.345 . S
C483 C484 1.424 . S
C484 H476 0.951 . S
C484 C483 1.424 . S
C484 C485 1.347 . S
C485 H477 0.951 . S
C485 C480 1.429 . S
C485 C484 1.347 . S
H486 C487 0.951 . S
C487 H486 0.951 . S
C487 C493 1.265 . S
H488 C493 0.950 . S
H489 C497 0.949 . S
H490 C498 0.950 . S
H491 C499 0.951 . S
H492 C500 0.951 . S
C493 C487 1.265 . S
C493 H488 0.950 . S
C493 C494 1.478 . S
C494 C493 1.478 . S
C494 C495 1.397 . S
C494 C511 1.394 . S
C495 C494 1.397 . S
C495 C496 1.438 . S
C495 C500 1.429 . S
C496 C495 1.438 . S
C496 C497 1.428 . S
C496 C509 1.394 . S
C497 H489 0.949 . S
C497 C496 1.428 . S
C497 C498 1.345 . S
C498 H490 0.950 . S
C498 C497 1.345 . S
C498 C499 1.424 . S
C499 H491 0.951 . S
C499 C498 1.424 . S
C499 C500 1.347 . S
C500 H492 0.951 . S
C500 C495 1.429 . S
C500 C499 1.347 . S
H501 C502 0.951 . S
C502 H501 0.951 . S
C502 C508 1.265 1_455 S
H503 C508 0.950 . S
H504 C512 0.949 . S
H505 C513 0.950 . S
H506 C514 0.951 . S
H507 C515 0.951 . S
C508 C502 1.265 1_655 S
C508 H503 0.950 . S
C508 C509 1.478 1_655 S
C509 C496 1.394 . S
C509 C508 1.478 1_455 S
C509 C510 1.397 1_455 S
C510 C509 1.397 1_655 S
C510 C511 1.438 1_655 S
C510 C515 1.429 . S
C511 C494 1.394 . S
C511 C510 1.438 1_455 S
C511 C512 1.428 1_455 S
C512 H504 0.949 . S
C512 C511 1.428 1_655 S
C512 C513 1.345 . S
C513 H505 0.950 . S
C513 C512 1.345 . S
C513 C514 1.424 . S
C514 H506 0.951 . S
C514 C513 1.424 . S
C514 C515 1.347 . S
C515 H507 0.951 . S
C515 C510 1.429 . S
C515 C514 1.347 . S
H516 C517 0.951 . S
C517 H516 0.951 . S
C517 C523 1.265 . S
H518 C523 0.950 . S
H519 C527 0.949 . S
H520 C528 0.950 . S
H521 C529 0.951 . S
H522 C530 0.951 . S
C523 C517 1.265 . S
C523 H518 0.950 . S
C523 C524 1.478 . S
C524 C523 1.478 . S
C524 C525 1.397 . S
C524 C541 1.394 . S
C525 C524 1.397 . S
C525 C526 1.438 . S
C525 C530 1.429 . S
C526 C525 1.438 . S
C526 C527 1.428 . S
C526 C539 1.394 . S
C527 H519 0.949 . S
C527 C526 1.428 . S
C527 C528 1.345 . S
C528 H520 0.950 . S
C528 C527 1.345 . S
C528 C529 1.424 . S
C529 H521 0.951 . S
C529 C528 1.424 . S
C529 C530 1.347 . S
C530 H522 0.951 . S
C530 C525 1.429 . S
C530 C529 1.347 . S
H531 C532 0.951 . S
C532 H531 0.951 . S
C532 C538 1.265 . S
H533 C538 0.950 . S
H534 C542 0.949 . S
H535 C543 0.950 . S
H536 C544 0.951 . S
H537 C545 0.951 . S
C538 C532 1.265 . S
C538 H533 0.950 . S
C538 C539 1.478 . S
C539 C526 1.394 . S
C539 C538 1.478 . S
C539 C540 1.397 . S
C540 C539 1.397 . S
C540 C541 1.438 . S
C540 C545 1.429 . S
C541 C524 1.394 . S
C541 C540 1.438 . S
C541 C542 1.428 . S
C542 H534 0.949 . S
C542 C541 1.428 . S
C542 C543 1.345 . S
C543 H535 0.950 . S
C543 C542 1.345 . S
C543 C544 1.424 . S
C544 H536 0.951 . S
C544 C543 1.424 . S
C544 C545 1.347 . S
C545 H537 0.951 . S
C545 C540 1.429 . S
C545 C544 1.347 . S
H546 C547 0.951 1_565 S
C547 H546 0.951 1_545 S
C547 C553 1.265 . S
H548 C553 0.950 . S
H549 C557 0.949 . S
H550 C558 0.950 . S
H551 C559 0.951 . S
H552 C560 0.951 . S
C553 C547 1.265 . S
C553 H548 0.950 . S
C553 C554 1.478 . S
C554 C553 1.478 . S
C554 C555 1.397 . S
C554 C571 1.394 . S
C555 C554 1.397 . S
C555 C556 1.438 . S
C555 C560 1.429 . S
C556 C555 1.438 . S
C556 C557 1.428 . S
C556 C569 1.394 . S
C557 H549 0.949 . S
C557 C556 1.428 . S
C557 C558 1.345 . S
C558 H550 0.950 . S
C558 C557 1.345 . S
C558 C559 1.424 . S
C559 H551 0.951 . S
C559 C558 1.424 . S
C559 C560 1.347 . S
C560 H552 0.951 . S
C560 C555 1.429 . S
C560 C559 1.347 . S
H561 C562 0.951 . S
C562 H561 0.951 . S
C562 C568 1.265 . S
H563 C568 0.950 . S
H564 C572 0.949 . S
H565 C573 0.950 . S
H566 C574 0.951 1_565 S
H567 C575 0.951 . S
C568 C562 1.265 . S
C568 H563 0.950 . S
C568 C569 1.478 . S
C569 C556 1.394 . S
C569 C568 1.478 . S
C569 C570 1.397 . S
C570 C569 1.397 . S
C570 C571 1.438 . S
C570 C575 1.429 . S
C571 C554 1.394 . S
C571 C570 1.438 . S
C571 C572 1.428 . S
C572 H564 0.949 . S
C572 C571 1.428 . S
C572 C573 1.345 1_545 S
C573 H565 0.950 . S
C573 C572 1.345 1_565 S
C573 C574 1.424 1_565 S
C574 H566 0.951 1_545 S
C574 C573 1.424 1_545 S
C574 C575 1.347 . S
C575 H567 0.951 . S
C575 C570 1.429 . S
C575 C574 1.347 . S
H576 C577 0.951 . S
C577 H576 0.951 . S
C577 C583 1.265 . S
H578 C583 0.950 . S
H579 C587 0.949 . S
H580 C588 0.950 . S
H581 C589 0.951 . S
H582 C590 0.951 . S
C583 C577 1.265 . S
C583 H578 0.950 . S
C583 C584 1.478 . S
C584 C583 1.478 . S
C584 C585 1.397 . S
C584 C601 1.394 . S
C585 C584 1.397 . S
C585 C586 1.438 . S
C585 C590 1.429 . S
C586 C585 1.438 . S
C586 C587 1.428 . S
C586 C599 1.394 . S
C587 H579 0.949 . S
C587 C586 1.428 . S
C587 C588 1.345 . S
C588 H580 0.950 . S
C588 C587 1.345 . S
C588 C589 1.424 . S
C589 H581 0.951 . S
C589 C588 1.424 . S
C589 C590 1.347 . S
C590 H582 0.951 . S
C590 C585 1.429 . S
C590 C589 1.347 . S
H591 C592 0.951 . S
C592 H591 0.951 . S
C592 C598 1.265 . S
H593 C598 0.950 . S
H594 C602 0.949 . S
H595 C603 0.950 . S
H596 C604 0.951 . S
H597 C605 0.951 . S
C598 C592 1.265 . S
C598 H593 0.950 . S
C598 C599 1.478 . S
C599 C586 1.394 . S
C599 C598 1.478 . S
C599 C600 1.397 . S
C600 C599 1.397 . S
C600 C601 1.438 . S
C600 C605 1.429 1_655 S
C601 C584 1.394 . S
C601 C600 1.438 . S
C601 C602 1.428 . S
C602 H594 0.949 . S
C602 C601 1.428 . S
C602 C603 1.345 1_665 S
C603 H595 0.950 . S
C603 C602 1.345 1_445 S
C603 C604 1.424 . S
C604 H596 0.951 . S
C604 C603 1.424 . S
C604 C605 1.347 1_545 S
C605 H597 0.951 . S
C605 C600 1.429 1_455 S
C605 C604 1.347 1_565 S
H606 C607 0.951 . S
C607 H606 0.951 . S
C607 C613 1.265 . S
H608 C613 0.950 . S
H609 C617 0.949 . S
H610 C618 0.950 1_655 S
H611 C619 0.951 . S
H612 C620 0.951 . S
C613 C607 1.265 . S
C613 H608 0.950 . S
C613 C614 1.478 . S
C614 C613 1.478 . S
C614 C615 1.397 1_545 S
C614 C631 1.394 . S
C615 C614 1.397 1_565 S
C615 C616 1.438 . S
C615 C620 1.429 . S
C616 C615 1.438 . S
C616 C617 1.428 . S
C616 C629 1.394 1_565 S
C617 H609 0.949 . S
C617 C616 1.428 . S
C617 C618 1.345 . S
C618 H610 0.950 1_455 S
C618 C617 1.345 . S
C618 C619 1.424 . S
C619 H611 0.951 . S
C619 C618 1.424 . S
C619 C620 1.347 . S
C620 H612 0.951 . S
C620 C615 1.429 . S
C620 C619 1.347 . S
H621 C622 0.951 . S
C622 H621 0.951 . S
C622 C628 1.265 1_565 S
H623 C628 0.950 . S
H624 C632 0.949 . S
H625 C633 0.950 . S
H626 C634 0.951 . S
H627 C635 0.951 . S
C628 C622 1.265 1_545 S
C628 H623 0.950 . S
C628 C629 1.478 . S
C629 C616 1.394 1_545 S
C629 C628 1.478 . S
C629 C630 1.397 . S
C630 C629 1.397 . S
C630 C631 1.438 . S
C630 C635 1.429 . S
C631 C614 1.394 . S
C631 C630 1.438 . S
C631 C632 1.428 . S
C632 H624 0.949 . S
C632 C631 1.428 . S
C632 C633 1.345 . S
C633 H625 0.950 . S
C633 C632 1.345 . S
C633 C634 1.424 . S
C634 H626 0.951 . S
C634 C633 1.424 . S
C634 C635 1.347 . S
C635 H627 0.951 . S
C635 C630 1.429 . S
C635 C634 1.347 . S
H636 C637 0.951 1_545 S
C637 H636 0.951 1_565 S
C637 C643 1.265 . S
H638 C643 0.950 . S
H639 C647 0.949 . S
H640 C648 0.950 . S
H641 C649 0.951 . S
H642 C650 0.951 . S
C643 C637 1.265 . S
C643 H638 0.950 . S
C643 C644 1.478 . S
C644 C643 1.478 . S
C644 C645 1.397 . S
C644 C661 1.394 . S
C645 C644 1.397 . S
C645 C646 1.438 . S
C645 C650 1.429 . S
C646 C645 1.438 . S
C646 C647 1.428 . S
C646 C659 1.394 . S
C647 H639 0.949 . S
C647 C646 1.428 . S
C647 C648 1.345 . S
C648 H640 0.950 . S
C648 C647 1.345 . S
C648 C649 1.424 . S
C649 H641 0.951 . S
C649 C648 1.424 . S
C649 C650 1.347 . S
C650 H642 0.951 . S
C650 C645 1.429 . S
C650 C649 1.347 . S
H651 C652 0.951 . S
C652 H651 0.951 . S
C652 C658 1.265 1_655 S
H653 C658 0.950 1_545 S
H654 C662 0.949 . S
H655 C663 0.950 . S
H656 C664 0.951 . S
H657 C665 0.951 . S
C658 C652 1.265 1_455 S
C658 H653 0.950 1_565 S
C658 C659 1.478 1_455 S
C659 C646 1.394 . S
C659 C658 1.478 1_655 S
C659 C660 1.397 1_565 S
C660 C659 1.397 1_545 S
C660 C661 1.438 1_545 S
C660 C665 1.429 1_655 S
C661 C644 1.394 . S
C661 C660 1.438 1_565 S
C661 C662 1.428 1_565 S
C662 H654 0.949 . S
C662 C661 1.428 1_545 S
C662 C663 1.345 . S
C663 H655 0.950 . S
C663 C662 1.345 . S
C663 C664 1.424 1_655 S
C664 H656 0.951 . S
C664 C663 1.424 1_455 S
C664 C665 1.347 . S
C665 H657 0.951 . S
C665 C660 1.429 1_455 S
C665 C664 1.347 . S
H666 C667 0.951 . S
C667 H666 0.951 . S
C667 C673 1.265 1_655 S
H668 C673 0.950 . S
H669 C677 0.949 . S
H670 C678 0.950 . S
H671 C679 0.951 . S
H672 C680 0.951 . S
C673 C667 1.265 1_455 S
C673 H668 0.950 . S
C673 C674 1.478 . S
C674 C673 1.478 . S
C674 C675 1.397 . S
C674 C691 1.394 . S
C675 C674 1.397 . S
C675 C676 1.438 . S
C675 C680 1.429 . S
C676 C675 1.438 . S
C676 C677 1.428 . S
C676 C689 1.394 . S
C677 H669 0.949 . S
C677 C676 1.428 . S
C677 C678 1.345 . S
C678 H670 0.950 . S
C678 C677 1.345 . S
C678 C679 1.424 . S
C679 H671 0.951 . S
C679 C678 1.424 . S
C679 C680 1.347 . S
C680 H672 0.951 . S
C680 C675 1.429 . S
C680 C679 1.347 . S
H681 C682 0.951 . S
C682 H681 0.951 . S
C682 C688 1.265 . S
H683 C688 0.950 . S
H684 C692 0.949 . S
H685 C693 0.950 1_565 S
H686 C694 0.951 . S
H687 C695 0.951 . S
C688 C682 1.265 . S
C688 H683 0.950 . S
C688 C689 1.478 . S
C689 C676 1.394 . S
C689 C688 1.478 . S
C689 C690 1.397 . S
C690 C689 1.397 . S
C690 C691 1.438 . S
C690 C695 1.429 1_455 S
C691 C674 1.394 . S
C691 C690 1.438 . S
C691 C692 1.428 1_455 S
C692 H684 0.949 . S
C692 C691 1.428 1_655 S
C692 C693 1.345 . S
C693 H685 0.950 1_545 S
C693 C692 1.345 . S
C693 C694 1.424 . S
C694 H686 0.951 . S
C694 C693 1.424 . S
C694 C695 1.347 . S
C695 H687 0.951 . S
C695 C690 1.429 1_655 S
C695 C694 1.347 . S
C337 C242 0.759 . S
C352 C63 0.758 . S
C367 C326 0.742 . S
C382 C158 0.787 . S
C397 C231 1.684 1_545 S
C412 C74 1.685 . S
C427 C147 1.750 . S
C442 C315 1.746 1_455 S
C457 C153 0.912 1_565 S
C472 C56 0.831 . S
C487 C142 1.166 . S
C502 C226 0.731 . S
C517 C321 0.766 . S
C532 C237 0.841 . S
C547 C310 0.794 . S
C562 C67 0.740 . S
C577 C235 3.345 1_556 S
C592 C319 3.381 . S
C607 C69 1.665 . S
C622 C308 1.937 . S
C637 C151 3.128 . S
C652 C58 3.090 1_655 S
C667 C224 2.887 . S
C682 C140 2.927 . S
