# Generated by pormake.
# Topology wjl, (5)-cn, num edge types: 1
# Building blocks:
#     Node 0, Type 0, BuildingBlock: BEQFEK_clean_sbu_0, # of connection points: 5
#     Node 1, Type 0, BuildingBlock: BEQFEK_clean_sbu_0, # of connection points: 5
#     Node 2, Type 0, BuildingBlock: BEQFEK_clean_sbu_0, # of connection points: 5
#     Node 3, Type 0, BuildingBlock: BEQFEK_clean_sbu_0, # of connection points: 5
#     Node 4, Type 0, BuildingBlock: BEQFEK_clean_sbu_0, # of connection points: 5
#     Node 5, Type 0, BuildingBlock: BEQFEK_clean_sbu_0, # of connection points: 5
#     Node 6, Type 0, BuildingBlock: BEQFEK_clean_sbu_0, # of connection points: 5
#     Node 7, Type 0, BuildingBlock: BEQFEK_clean_sbu_0, # of connection points: 5
#     Node 8, Type 0, BuildingBlock: BEQFEK_clean_sbu_0, # of connection points: 5
#     Node 9, Type 0, BuildingBlock: BEQFEK_clean_sbu_0, # of connection points: 5
#     Node 10, Type 0, BuildingBlock: BEQFEK_clean_sbu_0, # of connection points: 5
#     Node 11, Type 0, BuildingBlock: BEQFEK_clean_sbu_0, # of connection points: 5
#     Edge 12, Type (0, 0), BuildingBlock: TEMPAE_clean_linker_10, # of connection points: 2
#     Edge 13, Type (0, 0), BuildingBlock: TEMPAE_clean_linker_10, # of connection points: 2
#     Edge 14, Type (0, 0), BuildingBlock: TEMPAE_clean_linker_10, # of connection points: 2
#     Edge 15, Type (0, 0), BuildingBlock: TEMPAE_clean_linker_10, # of connection points: 2
#     Edge 16, Type (0, 0), BuildingBlock: TEMPAE_clean_linker_10, # of connection points: 2
#     Edge 17, Type (0, 0), BuildingBlock: TEMPAE_clean_linker_10, # of connection points: 2
#     Edge 18, Type (0, 0), BuildingBlock: TEMPAE_clean_linker_10, # of connection points: 2
#     Edge 19, Type (0, 0), BuildingBlock: TEMPAE_clean_linker_10, # of connection points: 2
#     Edge 20, Type (0, 0), BuildingBlock: TEMPAE_clean_linker_10, # of connection points: 2
#     Edge 21, Type (0, 0), BuildingBlock: TEMPAE_clean_linker_10, # of connection points: 2
#     Edge 22, Type (0, 0), BuildingBlock: TEMPAE_clean_linker_10, # of connection points: 2
#     Edge 23, Type (0, 0), BuildingBlock: TEMPAE_clean_linker_10, # of connection points: 2
#     Edge 24, Type (0, 0), BuildingBlock: TEMPAE_clean_linker_10, # of connection points: 2
#     Edge 25, Type (0, 0), BuildingBlock: TEMPAE_clean_linker_10, # of connection points: 2
#     Edge 26, Type (0, 0), BuildingBlock: TEMPAE_clean_linker_10, # of connection points: 2
#     Edge 27, Type (0, 0), BuildingBlock: TEMPAE_clean_linker_10, # of connection points: 2
#     Edge 28, Type (0, 0), BuildingBlock: TEMPAE_clean_linker_10, # of connection points: 2
#     Edge 29, Type (0, 0), BuildingBlock: TEMPAE_clean_linker_10, # of connection points: 2
#     Edge 30, Type (0, 0), BuildingBlock: TEMPAE_clean_linker_10, # of connection points: 2
#     Edge 31, Type (0, 0), BuildingBlock: TEMPAE_clean_linker_10, # of connection points: 2
#     Edge 32, Type (0, 0), BuildingBlock: TEMPAE_clean_linker_10, # of connection points: 2
#     Edge 33, Type (0, 0), BuildingBlock: TEMPAE_clean_linker_10, # of connection points: 2
#     Edge 34, Type (0, 0), BuildingBlock: TEMPAE_clean_linker_10, # of connection points: 2
#     Edge 35, Type (0, 0), BuildingBlock: TEMPAE_clean_linker_10, # of connection points: 2
#     Edge 36, Type (0, 0), BuildingBlock: TEMPAE_clean_linker_10, # of connection points: 2
#     Edge 37, Type (0, 0), BuildingBlock: TEMPAE_clean_linker_10, # of connection points: 2
#     Edge 38, Type (0, 0), BuildingBlock: TEMPAE_clean_linker_10, # of connection points: 2
#     Edge 39, Type (0, 0), BuildingBlock: TEMPAE_clean_linker_10, # of connection points: 2
#     Edge 40, Type (0, 0), BuildingBlock: TEMPAE_clean_linker_10, # of connection points: 2
#     Edge 41, Type (0, 0), BuildingBlock: TEMPAE_clean_linker_10, # of connection points: 2
# Relax obj value: 0.497
# Max RMSD: 0.235
# Mean RMSD: 0.235
data_MOF--net-wjl--node1-BEQFEK_clean_sbu_0--edge1-TEMPAE_clean_linker_10
_symmetry_space_group_name_H-M    P1
_symmetry_Int_Tables_number       1
_symmetry_cell_setting            triclinic
loop_
_symmetry_equiv_pos_as_xyz
'x, y, z'
_cell_length_a     27.448766
_cell_length_b     27.432397
_cell_length_c     83.73581
_cell_angle_alpha  89.981304
_cell_angle_beta   89.979397
_cell_angle_gamma 119.98622
loop_
_atom_site_label
_atom_site_type_symbol
_atom_site_fract_x
_atom_site_fract_y
_atom_site_fract_z
_atom_type_partial_charge
Co0 Co 0.42386 0.12745 0.35539 0.0
Co1 Co 0.33085 0.0997 0.32988 0.0
C2 C 0.43501 0.21078 0.33003 0.0
O3 O 0.45244 0.19584 0.3421 0.0
O4 O 0.38769 0.17746 0.32368 0.0
C5 C 0.53594 0.16209 0.36346 0.0
O6 O 0.54126 0.16344 0.34784 0.0
C7 C 0.27327 0.07702 0.29895 0.0
C8 C 0.18698 0.0123 0.30575 0.0
C9 C 0.22045 0.04026 0.29271 0.0
N10 N 0.2712 0.06974 0.31485 0.0
N11 N 0.2192 0.03204 0.31888 0.0
C12 C 0.32456 0.11972 0.29018 0.0
H13 H 0.34133 0.16123 0.29606 0.0
H14 H 0.35773 0.10794 0.29074 0.0
H15 H 0.31506 0.12398 0.27755 0.0
C16 C 0.4177 0.02459 0.34215 0.0
N17 N 0.40075 0.06288 0.34273 0.0
N18 N 0.36346 0.05216 0.3314 0.0
C19 C 0.357 0.00744 0.3229 0.0
C20 C 0.391 0.98856 0.32949 0.0
C21 C 0.46148 0.02478 0.35285 0.0
H22 H 0.45967 0.04096 0.36482 0.0
H23 H 0.50365 0.05218 0.34758 0.0
H24 H 0.45566 0.982 0.35416 0.0
O25 O 0.3612 0.11879 0.36862 0.0
O26 O 0.29592 0.10182 0.35042 0.0
H27 H 0.2764 0.97335 0.31175 0.0
H28 H 0.3186 0.94467 0.30431 0.0
C29 C 0.31968 0.98345 0.30863 0.0
H30 H 0.33522 0.01505 0.2989 0.0
H31 H 0.20633 0.01795 0.33053 0.0
O32 O 0.4874 0.14367 0.36951 0.0
C33 C 0.31224 0.10904 0.36488 0.0
Co34 Co 0.29545 0.41176 0.52237 0.0
Co35 Co 0.2291 0.31767 0.49723 0.0
C36 C 0.2211 0.42121 0.4974 0.0
O37 O 0.25427 0.43951 0.50929 0.0
O38 O 0.2072 0.37374 0.49116 0.0
C39 C 0.37284 0.52447 0.53027 0.0
O40 O 0.37591 0.53006 0.51466 0.0
C41 C 0.19031 0.25818 0.46667 0.0
C42 C 0.17155 0.17274 0.47352 0.0
C43 C 0.17392 0.20514 0.46053 0.0
N44 N 0.19857 0.25728 0.48244 0.0
N45 N 0.186 0.20577 0.48653 0.0
C46 C 0.19621 0.30853 0.45793 0.0
H47 H 0.17123 0.32438 0.46415 0.0
H48 H 0.2408 0.34269 0.45808 0.0
H49 H 0.18093 0.29823 0.44545 0.0
C50 C 0.39184 0.40671 0.50828 0.0
N51 N 0.33649 0.38879 0.5094 0.0
N52 N 0.30929 0.35114 0.49819 0.0
C53 C 0.3471 0.34551 0.48923 0.0
C54 C 0.40047 0.38037 0.49538 0.0
C55 C 0.43616 0.45124 0.51864 0.0
H56 H 0.41932 0.44968 0.53077 0.0
H57 H 0.44993 0.49313 0.51329 0.0
H58 H 0.47352 0.44593 0.51959 0.0
O59 O 0.24249 0.34933 0.53593 0.0
O60 O 0.19361 0.28346 0.51794 0.0
H61 H 0.30112 0.26485 0.47807 0.0
H62 H 0.37056 0.309 0.46988 0.0
C63 C 0.33285 0.30861 0.47483 0.0
H64 H 0.31449 0.32337 0.46554 0.0
H65 H 0.18956 0.1938 0.49811 0.0
O66 O 0.34335 0.47577 0.53631 0.0
C67 C 0.20325 0.30017 0.53236 0.0
Co68 Co 0.88 0.28107 0.68944 0.0
Co69 Co 0.90607 0.21386 0.6642 0.0
C70 C 0.79594 0.20891 0.66419 0.0
O71 O 0.81129 0.24166 0.67619 0.0
O72 O 0.82876 0.19408 0.6579 0.0
C73 C 0.84632 0.35951 0.69755 0.0
O74 O 0.84342 0.3626 0.68195 0.0
C75 C 0.92794 0.17583 0.63364 0.0
C76 C 0.99314 0.15539 0.64081 0.0
C77 C 0.96474 0.15935 0.62765 0.0
N78 N 0.93564 0.18278 0.64949 0.0
N79 N 0.97362 0.16915 0.65376 0.0
C80 C 0.88483 0.18322 0.62467 0.0
H81 H 0.84367 0.15952 0.6308 0.0
H82 H 0.89676 0.22826 0.62464 0.0
H83 H 0.87989 0.16752 0.61223 0.0
C84 C 0.98303 0.37646 0.67579 0.0
N85 N 0.94459 0.32133 0.67668 0.0
N86 N 0.95455 0.29391 0.66543 0.0
C87 C 0.9989 0.33145 0.65668 0.0
C88 C 0.01838 0.3848 0.66301 0.0
C89 C 0.98336 0.42093 0.68622 0.0
H90 H 0.96822 0.40404 0.69836 0.0
H91 H 0.95528 0.4349 0.68097 0.0
H92 H 0.02611 0.45818 0.68713 0.0
O93 O 0.88738 0.22673 0.70295 0.0
O94 O 0.90278 0.17699 0.68485 0.0
H95 H 0.03224 0.28429 0.64548 0.0
H96 H 0.05973 0.35447 0.63758 0.0
C97 C 0.02156 0.31706 0.6423 0.0
H98 H 0.98898 0.29997 0.63286 0.0
H99 H 0.98805 0.1717 0.66543 0.0
O100 O 0.86537 0.32972 0.70346 0.0
C101 C 0.89584 0.18658 0.69929 0.0
Co102 Co 0.5754 0.83831 0.85352 0.0
Co103 Co 0.67252 0.8709 0.82906 0.0
C104 C 0.56374 0.7637 0.82581 0.0
O105 O 0.54448 0.77587 0.83804 0.0
O106 O 0.61355 0.79658 0.82085 0.0
C107 C 0.46427 0.80942 0.86209 0.0
O108 O 0.45805 0.81093 0.84657 0.0
C109 C 0.73446 0.90051 0.79875 0.0
C110 C 0.8203 0.96158 0.80693 0.0
C111 C 0.78839 0.93791 0.79332 0.0
N112 N 0.73443 0.9034 0.81476 0.0
N113 N 0.78612 0.93891 0.81959 0.0
C114 C 0.68399 0.86129 0.78908 0.0
H115 H 0.6652 0.81824 0.7941 0.0
H116 H 0.6518 0.87437 0.78982 0.0
H117 H 0.69508 0.85986 0.77641 0.0
C118 C 0.59109 0.94892 0.84373 0.0
N119 N 0.6053 0.90857 0.8432 0.0
N120 N 0.64376 0.92116 0.8321 0.0
C121 C 0.65362 0.9692 0.82481 0.0
C122 C 0.62072 0.98835 0.832 0.0
C123 C 0.54645 0.94741 0.85435 0.0
H124 H 0.54561 0.92738 0.86591 0.0
H125 H 0.50499 0.92297 0.84841 0.0
H126 H 0.55374 0.99032 0.85666 0.0
O127 O 0.63289 0.83467 0.86647 0.0
O128 O 0.70296 0.85951 0.84931 0.0
H129 H 0.69475 0.03558 0.80728 0.0
H130 H 0.67671 0.96588 0.80063 0.0
C131 C 0.69215 0.99539 0.81087 0.0
H132 H 0.73483 0.00367 0.81401 0.0
H133 H 0.7975 0.94958 0.83152 0.0
O134 O 0.51232 0.82272 0.86771 0.0
C135 C 0.68219 0.84437 0.86322 0.0
Co136 Co 0.70816 0.56031 0.02127 0.0
Co137 Co 0.77598 0.65527 -0.0035 0.0
C138 C 0.77509 0.54652 -0.005 0.0
O139 O 0.74323 0.5288 0.00717 0.0
O140 O 0.79125 0.59526 0.98929 0.0
C141 C 0.62798 0.44859 0.03 0.0
O142 O 0.62308 0.44124 0.01446 0.0
C143 C 0.80723 0.71341 0.96576 0.0
C144 C 0.85944 0.80217 0.97319 0.0
C145 C 0.83755 0.76811 0.95983 0.0
N146 N 0.81087 0.71562 0.98175 0.0
N147 N 0.84297 0.76861 0.98612 0.0
C148 C 0.77155 0.65996 0.95677 0.0
H149 H 0.74321 0.62582 0.96503 0.0
H150 H 0.74619 0.66627 0.94755 0.0
H151 H 0.79913 0.6468 0.95074 0.0
C152 C 0.61453 0.57434 0.00945 0.0
N153 N 0.6691 0.58864 0.0095 0.0
N154 N 0.69659 0.62805 -0.0013 0.0
C155 C 0.65949 0.63924 0.99128 0.0
C156 C 0.6065 0.60549 -0.00217 0.0
C157 C 0.57015 0.5287 0.01956 0.0
H158 H 0.58702 0.52938 0.03163 0.0
H159 H 0.55704 0.48738 0.01394 0.0
H160 H 0.53244 0.53331 0.02073 0.0
O161 O 0.76573 0.61989 0.0347 0.0
O162 O 0.81547 0.68641 0.01694 0.0
H163 H 0.64192 0.69505 0.97753 0.0
H164 H 0.67329 0.66148 0.96662 0.0
C165 C 0.67363 0.68125 0.97818 0.0
H166 H 0.71578 0.71838 0.98014 0.0
H167 H 0.85239 0.78202 -0.00204 0.0
O168 O 0.65939 0.49772 0.03554 0.0
C169 C 0.80663 0.66826 0.03122 0.0
Co170 Co 0.13788 0.69999 0.18956 0.0
Co171 Co 0.11001 0.7643 0.1638 0.0
C172 C 0.2199 0.76839 0.1635 0.0
O173 O 0.20545 0.73687 0.17576 0.0
O174 O 0.18681 0.78297 0.15728 0.0
C175 C 0.16974 0.62079 0.19831 0.0
O176 O 0.17063 0.61527 0.18274 0.0
C177 C 0.08639 0.79722 0.1327 0.0
C178 C 0.02221 0.8197 0.13938 0.0
C179 C 0.0494 0.81283 0.12636 0.0
N180 N 0.0799 0.79345 0.14863 0.0
N181 N 0.04255 0.80831 0.15258 0.0
C182 C 0.1285 0.78758 0.12397 0.0
H183 H 0.17023 0.81244 0.12971 0.0
H184 H 0.11637 0.74256 0.12479 0.0
H185 H 0.13241 0.80054 0.11127 0.0
C186 C 0.03286 0.60341 0.17728 0.0
N187 N 0.07198 0.65844 0.17743 0.0
N188 N 0.06126 0.68453 0.16594 0.0
C189 C 0.01574 0.64611 0.15777 0.0
C190 C 0.9963 0.59364 0.16473 0.0
C191 C 0.03274 0.56024 0.18825 0.0
H192 H 0.04974 0.57905 0.20009 0.0
H193 H 0.05921 0.54425 0.18303 0.0
H194 H 0.98974 0.52395 0.18985 0.0
O195 O 0.13214 0.75651 0.20246 0.0
O196 O 0.11466 0.80388 0.18405 0.0
H197 H 0.98205 0.69248 0.14629 0.0
H198 H 0.95266 0.62108 0.13925 0.0
C199 C 0.99171 0.65882 0.14338 0.0
H200 H 0.02308 0.67399 0.1336 0.0
H201 H 0.02904 0.80811 0.16425 0.0
O202 O 0.15299 0.65277 0.20403 0.0
C203 C 0.1231 0.79607 0.19852 0.0
Co204 Co 0.88053 0.58203 0.42977 0.0
Co205 Co 0.90856 0.67626 0.45486 0.0
C206 C 0.79662 0.5735 0.45463 0.0
O207 O 0.81155 0.55516 0.44276 0.0
O208 O 0.83031 0.62079 0.46094 0.0
C209 C 0.84425 0.46908 0.42226 0.0
O210 O 0.84208 0.46441 0.4379 0.0
C211 C 0.93086 0.73591 0.48541 0.0
C212 C 0.99822 0.82087 0.47845 0.0
C213 C 0.96873 0.78861 0.49152 0.0
N214 N 0.939 0.7368 0.46958 0.0
N215 N 0.97827 0.78806 0.46543 0.0
C216 C 0.88645 0.68582 0.49424 0.0
H217 H 0.84553 0.67007 0.48811 0.0
H218 H 0.89665 0.65148 0.4941 0.0
H219 H 0.88191 0.69644 0.50673 0.0
C220 C 0.98149 0.58632 0.44389 0.0
N221 N 0.94417 0.60439 0.44281 0.0
N222 N 0.95483 0.6422 0.45399 0.0
C223 C 0.99842 0.64788 0.46288 0.0
C224 C 0.0167 0.61282 0.45672 0.0
C225 C 0.98114 0.54173 0.4335 0.0
H226 H 0.96592 0.54343 0.42138 0.0
H227 H 0.9529 0.49985 0.43884 0.0
H228 H 0.02371 0.54682 0.43255 0.0
O229 O 0.89114 0.64466 0.41612 0.0
O230 O 0.90809 0.71059 0.43411 0.0
H231 H 0.03369 0.72897 0.47382 0.0
H232 H 0.05932 0.68507 0.48197 0.0
C233 C 0.02177 0.68531 0.47715 0.0
H234 H 0.98917 0.67092 0.48658 0.0
H235 H 0.9933 0.7999 0.4538 0.0
O236 O 0.86384 0.51751 0.416 0.0
C237 C 0.90146 0.69398 0.41968 0.0
Co238 Co 0.29853 0.86575 0.59834 0.0
Co239 Co 0.22921 0.892 0.62276 0.0
C240 C 0.22529 0.78198 0.62334 0.0
O241 O 0.25872 0.79702 0.61151 0.0
O242 O 0.21013 0.81499 0.62928 0.0
C243 C 0.37709 0.83143 0.59069 0.0
O244 O 0.37924 0.82796 0.6063 0.0
C245 C 0.19332 0.91537 0.65323 0.0
C246 C 0.14457 0.95529 0.64542 0.0
C247 C 0.16297 0.93999 0.65894 0.0
N248 N 0.19305 0.91681 0.63722 0.0
N249 N 0.16295 0.93966 0.6326 0.0
C250 C 0.22595 0.89459 0.66252 0.0
H251 H 0.25497 0.88873 0.65457 0.0
H252 H 0.25033 0.92456 0.6722 0.0
H253 H 0.19631 0.85335 0.66799 0.0
C254 C 0.39254 0.96949 0.61207 0.0
N255 N 0.33752 0.93084 0.61111 0.0
N256 N 0.30931 0.94214 0.62182 0.0
C257 C 0.34631 0.98823 0.63011 0.0
C258 C 0.40002 0.00674 0.62422 0.0
C259 C 0.43765 0.96855 0.60225 0.0
H260 H 0.42212 0.9538 0.59 0.0
H261 H 0.44966 0.93941 0.60783 0.0
H262 H 0.47578 0.01077 0.60158 0.0
O263 O 0.2449 0.87252 0.58433 0.0
O264 O 0.19401 0.88834 0.6019 0.0
H265 H 0.29025 0.01148 0.64119 0.0
H266 H 0.36411 0.05963 0.64483 0.0
C267 C 0.33148 0.01466 0.64345 0.0
H268 H 0.32944 0.99277 0.65476 0.0
H269 H 0.15619 0.94597 0.62069 0.0
O270 O 0.34809 0.85118 0.58465 0.0
C271 C 0.20454 0.88107 0.5876 0.0
Co272 Co 0.42371 0.2632 0.76636 0.0
Co273 Co 0.32591 0.19848 0.79057 0.0
C274 C 0.43477 0.19992 0.79397 0.0
O275 O 0.45409 0.23111 0.78172 0.0
O276 O 0.3851 0.1835 0.79894 0.0
C277 C 0.53562 0.34371 0.75816 0.0
O278 O 0.54108 0.35039 0.77372 0.0
C279 C 0.26574 0.17238 0.82092 0.0
C280 C 0.17736 0.12062 0.81314 0.0
C281 C 0.2106 0.14422 0.82657 0.0
N282 N 0.26454 0.16604 0.80501 0.0
N283 N 0.21176 0.13418 0.80046 0.0
C284 C 0.31881 0.20873 0.83 0.0
H285 H 0.35367 0.23531 0.8217 0.0
H286 H 0.31266 0.23599 0.83858 0.0
H287 H 0.3308 0.18156 0.83677 0.0
C288 C 0.40804 0.35817 0.77598 0.0
N289 N 0.3937 0.30358 0.77669 0.0
N290 N 0.35345 0.27749 0.78735 0.0
C291 C 0.3417 0.3155 0.7939 0.0
C292 C 0.37607 0.36769 0.78697 0.0
C293 C 0.45454 0.40143 0.76586 0.0
H294 H 0.45563 0.38297 0.75419 0.0
H295 H 0.49522 0.41619 0.77206 0.0
H296 H 0.44931 0.43842 0.76373 0.0
O297 O 0.36622 0.20243 0.75323 0.0
O298 O 0.29606 0.15696 0.77035 0.0
H299 H 0.26149 0.26091 0.80474 0.0
H300 H 0.28523 0.33515 0.80649 0.0
C301 C 0.29868 0.30312 0.80658 0.0
H302 H 0.31735 0.30462 0.81842 0.0
H303 H 0.19908 0.12316 0.78862 0.0
O304 O 0.48749 0.31052 0.7523 0.0
C305 C 0.31686 0.16282 0.75645 0.0
Co306 Co 0.13155 0.40866 0.93289 0.0
Co307 Co 0.10348 0.31041 0.95647 0.0
C308 C 0.21003 0.42062 0.95941 0.0
O309 O 0.19623 0.44008 0.94757 0.0
O310 O 0.17799 0.37053 0.96432 0.0
C311 C 0.16078 0.52051 0.92481 0.0
O312 O 0.1637 0.52735 0.94038 0.0
C313 C 0.07462 0.24821 0.98652 0.0
C314 C 0.03942 0.1606 0.97812 0.0
C315 C 0.04983 0.19272 0.99183 0.0
N316 N 0.07781 0.24825 0.97053 0.0
N317 N 0.05781 0.19597 0.96559 0.0
C318 C 0.09096 0.30033 -0.00395 0.0
H319 H 0.0976 0.33555 0.98812 0.0
H320 H 0.05812 0.29265 0.00503 0.0
H321 H 0.13093 0.31277 0.00243 0.0
C322 C 0.0218 0.39069 0.94423 0.0
N323 N 0.0625 0.37695 0.94403 0.0
N324 N 0.05038 0.33642 0.95444 0.0
C325 C 0.0015 0.32383 0.96175 0.0
C326 C 0.98212 0.35794 0.95555 0.0
C327 C 0.02325 0.4376 0.93471 0.0
H328 H 0.03975 0.43852 0.92257 0.0
H329 H 0.0512 0.47815 0.94074 0.0
H330 H 0.98091 0.43302 0.93368 0.0
O331 O 0.13496 0.35264 0.91903 0.0
O332 O 0.1137 0.28223 0.93577 0.0
H333 H 0.97926 0.24404 0.97236 0.0
H334 H 0.9277 0.26604 0.97501 0.0
C335 C 0.97338 0.28057 0.97454 0.0
H336 H 0.99181 0.29952 0.98626 0.0
H337 H 0.05507 0.18423 0.95361 0.0
O338 O 0.14407 0.47178 0.9191 0.0
C339 C 0.12671 0.30356 0.92188 0.0
Co340 Co 0.71502 0.1182 0.09929 0.0
Co341 Co 0.7847 0.08825 0.12258 0.0
C342 C 0.78484 0.19652 0.12553 0.0
O343 O 0.75124 0.1832 0.11379 0.0
O344 O 0.80172 0.16354 0.13043 0.0
C345 C 0.63436 0.15084 0.09199 0.0
O346 O 0.63114 0.15301 0.10761 0.0
C347 C 0.82072 0.06003 0.1523 0.0
C348 C 0.87045 0.02255 0.14334 0.0
C349 C 0.85161 0.03507 0.15729 0.0
N350 N 0.82118 0.06148 0.13628 0.0
N351 N 0.8518 0.04002 0.131 0.0
C352 C 0.78742 0.07843 0.16223 0.0
H353 H 0.75812 0.0851 0.15463 0.0
H354 H 0.76324 0.04665 0.17155 0.0
H355 H 0.81656 0.11884 0.16817 0.0
C356 C 0.622 0.01017 0.11132 0.0
N357 N 0.67682 0.04966 0.11072 0.0
N358 N 0.70508 0.03701 0.12105 0.0
C359 C 0.66832 0.98915 0.12871 0.0
C360 C 0.61468 0.97088 0.12283 0.0
C361 C 0.57668 0.01252 0.102 0.0
H362 H 0.5647 0.04068 0.10821 0.0
H363 H 0.53861 0.97037 0.10098 0.0
H364 H 0.59203 0.0292 0.08986 0.0
O365 O 0.77223 0.1189 0.08505 0.0
O366 O 0.82113 0.09685 0.10164 0.0
H367 H 0.65092 0.91603 0.14258 0.0
H368 H 0.68473 0.98153 0.15321 0.0
C369 C 0.68322 0.96128 0.14164 0.0
H370 H 0.72473 0.96529 0.13923 0.0
H371 H 0.85878 0.03596 0.11893 0.0
O372 O 0.66502 0.1331 0.0859 0.0
C373 C 0.81236 0.10948 0.08776 0.0
Co374 Co 0.59042 0.7096 0.26457 0.0
Co375 Co 0.68743 0.7779 0.28871 0.0
C376 C 0.58125 0.78144 0.29024 0.0
O377 O 0.56182 0.74756 0.27853 0.0
O378 O 0.63032 0.79765 0.29568 0.0
C379 C 0.47811 0.62877 0.25747 0.0
O380 O 0.47398 0.62558 0.27312 0.0
C381 C 0.75007 0.81745 0.31874 0.0
C382 C 0.83488 0.83675 0.31105 0.0
C383 C 0.80367 0.83381 0.3244 0.0
N384 N 0.7495 0.80956 0.30291 0.0
N385 N 0.80064 0.82255 0.29832 0.0
C386 C 0.70044 0.81091 0.32801 0.0
H387 H 0.68343 0.8354 0.32209 0.0
H388 H 0.66673 0.76611 0.32803 0.0
H389 H 0.71196 0.82636 0.34044 0.0
C390 C 0.6017 0.61522 0.27745 0.0
N391 N 0.61781 0.67024 0.27658 0.0
N392 N 0.65618 0.69802 0.28756 0.0
C393 C 0.66405 0.66084 0.29616 0.0
C394 C 0.62995 0.60732 0.28997 0.0
C395 C 0.55677 0.57026 0.26733 0.0
H396 H 0.55638 0.58701 0.25533 0.0
H397 H 0.51533 0.55513 0.27314 0.0
H398 H 0.56339 0.53378 0.26601 0.0
O399 O 0.64917 0.76568 0.2507 0.0
O400 O 0.71867 0.81378 0.26781 0.0
H401 H 0.74519 0.70791 0.30694 0.0
H402 H 0.70248 0.6383 0.31519 0.0
C403 C 0.70185 0.67567 0.31037 0.0
H404 H 0.68721 0.69363 0.31981 0.0
H405 H 0.81149 0.8192 0.28659 0.0
O406 O 0.52587 0.66 0.2511 0.0
C407 C 0.69878 0.8051 0.25372 0.0
C408 C 0.43507 0.96131 0.30806 0.0
C409 C 0.40632 0.94864 0.32262 0.0
C410 C 0.45888 0.92953 0.30261 0.0
C411 C 0.45333 0.88396 0.31196 0.0
C412 C 0.42142 0.86913 0.32624 0.0
C413 C 0.39837 0.90192 0.33144 0.0
C414 C 0.49257 0.94666 0.28732 0.0
C415 C 0.41399 0.82044 0.33642 0.0
C416 C 0.49123 0.78346 0.29183 0.0
C417 C 0.54701 0.8046 0.29691 0.0
C418 C 0.4596 0.80786 0.29696 0.0
C419 C 0.48441 0.85467 0.30737 0.0
C420 C 0.54008 0.87523 0.3129 0.0
C421 C 0.57066 0.84983 0.30765 0.0
C422 C 0.4002 0.78449 0.29092 0.0
C423 C 0.56798 0.92522 0.324 0.0
H424 H 0.44133 0.99783 0.30135 0.0
H425 H 0.37583 0.89233 0.34269 0.0
H426 H 0.53753 0.96226 0.29006 0.0
H427 H 0.4782 0.90988 0.27928 0.0
H428 H 0.48923 0.98027 0.28087 0.0
H429 H 0.38329 0.81091 0.34624 0.0
H430 H 0.39959 0.78214 0.329 0.0
H431 H 0.455 0.83053 0.34173 0.0
H432 H 0.4724 0.74827 0.2836 0.0
H433 H 0.61368 0.86651 0.31162 0.0
H434 H 0.39749 0.81652 0.28348 0.0
H435 H 0.37081 0.77461 0.30109 0.0
H436 H 0.38593 0.74581 0.28365 0.0
H437 H 0.57152 0.96295 0.31801 0.0
H438 H 0.6107 0.93466 0.32769 0.0
H439 H 0.54197 0.91746 0.33487 0.0
C440 C 0.46959 0.42644 0.47351 0.0
C441 C 0.45516 0.3968 0.48794 0.0
C442 C 0.52463 0.45099 0.46755 0.0
C443 C 0.56576 0.44524 0.47624 0.0
C444 C 0.55032 0.41252 0.49039 0.0
C445 C 0.49505 0.38885 0.49612 0.0
C446 C 0.53945 0.48567 0.45246 0.0
C447 C 0.59276 0.40479 0.49986 0.0
C448 C 0.70312 0.48473 0.45515 0.0
C449 C 0.73838 0.53971 0.46077 0.0
C450 C 0.64708 0.45303 0.46027 0.0
C451 C 0.62566 0.477 0.47119 0.0
C452 C 0.66116 0.53212 0.47708 0.0
C453 C 0.71716 0.56273 0.47184 0.0
C454 C 0.61062 0.3942 0.45385 0.0
C455 C 0.63968 0.55922 0.48868 0.0
H456 H 0.43849 0.43273 0.46731 0.0
H457 H 0.48341 0.36572 0.50729 0.0
H458 H 0.56868 0.53056 0.45535 0.0
H459 H 0.56141 0.47223 0.44394 0.0
H460 H 0.50175 0.48229 0.44649 0.0
H461 H 0.57277 0.37357 0.50963 0.0
H462 H 0.61587 0.39087 0.49193 0.0
H463 H 0.62417 0.4456 0.50518 0.0
H464 H 0.71919 0.46642 0.44665 0.0
H465 H 0.74397 0.60516 0.47621 0.0
H466 H 0.57474 0.39181 0.4471 0.0
H467 H 0.59275 0.36376 0.46387 0.0
H468 H 0.63423 0.38099 0.44585 0.0
H469 H 0.60455 0.56232 0.48318 0.0
H470 H 0.67292 0.60205 0.49231 0.0
H471 H 0.62289 0.53282 0.49955 0.0
C472 C 0.1575 0.70273 0.64077 0.0
C473 C 0.20166 0.72403 0.62967 0.0
C474 C 0.13195 0.6466 0.64592 0.0
C475 C 0.15136 0.61103 0.63993 0.0
C476 C 0.19698 0.63265 0.62909 0.0
C477 C 0.22147 0.68884 0.62405 0.0
C478 C 0.08317 0.62494 0.65746 0.0
C479 C 0.21917 0.59615 0.62258 0.0
C480 C 0.10574 0.47836 0.6642 0.0
C481 C 0.05794 0.43955 0.6558 0.0
C482 C 0.13845 0.5339 0.65874 0.0
C483 C 0.12232 0.55073 0.64465 0.0
C484 C 0.07553 0.51064 0.63571 0.0
C485 C 0.04394 0.4553 0.6414 0.0
C486 C 0.18847 0.57518 0.66846 0.0
C487 C 0.05687 0.52694 0.62066 0.0
H488 H 0.14189 0.72954 0.64518 0.0
H489 H 0.25581 0.70497 0.61553 0.0
H490 H 0.04484 0.59054 0.65178 0.0
H491 H 0.0921 0.60709 0.66821 0.0
H492 H 0.07413 0.65838 0.6613 0.0
H493 H 0.25676 0.62013 0.61487 0.0
H494 H 0.23042 0.57694 0.63253 0.0
H495 H 0.18601 0.56119 0.61547 0.0
H496 H 0.11628 0.46571 0.67535 0.0
H497 H 0.00657 0.42504 0.63502 0.0
H498 H 0.17934 0.60646 0.67402 0.0
H499 H 0.22585 0.59865 0.66068 0.0
H500 H 0.19899 0.55408 0.67808 0.0
H501 H 0.04173 0.55653 0.62366 0.0
H502 H 0.0225 0.4899 0.61447 0.0
H503 H 0.09274 0.54902 0.61229 0.0
C504 C 0.44501 0.13305 0.81215 0.0
C505 C 0.46936 0.17868 0.80154 0.0
C506 C 0.47539 0.10764 0.81759 0.0
C507 C 0.53157 0.12874 0.81241 0.0
C508 C 0.55736 0.17667 0.80242 0.0
C509 C 0.5259 0.20096 0.79706 0.0
C510 C 0.44644 0.05647 0.82824 0.0
C511 C 0.61738 0.20081 0.79682 0.0
C512 C 0.61476 0.07544 0.83543 0.0
C513 C 0.60692 0.03032 0.82585 0.0
C514 C 0.59261 0.1097 0.83088 0.0
C515 C 0.56159 0.0979 0.8165 0.0
C516 C 0.55608 0.05393 0.80643 0.0
C517 C 0.57905 0.02071 0.81123 0.0
C518 C 0.60006 0.1567 0.8418 0.0
C519 C 0.52331 0.03997 0.791 0.0
H520 H 0.40143 0.11561 0.81568 0.0
H521 H 0.54529 0.23658 0.78898 0.0
H522 H 0.44207 0.01913 0.82181 0.0
H523 H 0.47208 0.06228 0.83906 0.0
H524 H 0.40396 0.04755 0.83202 0.0
H525 H 0.63298 0.24143 0.79042 0.0
H526 H 0.6455 0.20745 0.80711 0.0
H527 H 0.62036 0.1706 0.78864 0.0
H528 H 0.63645 0.08256 0.84676 0.0
H529 H 0.57274 0.98534 0.80394 0.0
H530 H 0.55897 0.14599 0.8472 0.0
H531 H 0.61497 0.19628 0.83495 0.0
H532 H 0.63038 0.16428 0.85159 0.0
H533 H 0.4784 0.02505 0.79364 0.0
H534 H 0.52601 0.00684 0.78408 0.0
H535 H 0.53906 0.0781 0.78343 0.0
C536 C 0.51393 0.6008 0.00084 0.0
C537 C 0.55177 0.59358 0.99133 0.0
C538 C 0.45795 0.57938 -0.00403 0.0
C539 C 0.4397 0.54967 0.98136 0.0
C540 C 0.47891 0.54531 0.97131 0.0
C541 C 0.5347 0.56763 0.97641 0.0
C542 C 0.41771 0.58577 0.00688 0.0
C543 C 0.46116 0.5139 0.95565 0.0
C544 C 0.28872 0.43147 0.97696 0.0
C545 C 0.26645 0.45559 0.96661 0.0
C546 C 0.34465 0.46232 0.98223 0.0
C547 C 0.37893 0.51881 0.97718 0.0
C548 C 0.35594 0.54426 0.96738 0.0
C549 C 0.30005 0.5123 0.96216 0.0
C550 C 0.36775 0.43363 -0.00734 0.0
C551 C 0.39094 0.6046 0.96193 0.0
H552 H 0.5276 0.62108 0.01237 0.0
H553 H 0.56419 0.56188 0.96916 0.0
H554 H 0.39258 0.60015 4e-05 0.0
H555 H 0.38783 0.54436 0.01221 0.0
H556 H 0.43991 0.61606 0.01671 0.0
H557 H 0.49758 0.51823 0.94869 0.0
H558 H 0.43203 0.46852 0.95799 0.0
H559 H 0.43817 0.52939 0.94826 0.0
H560 H 0.26315 0.38777 0.98047 0.0
H561 H 0.2831 0.53149 0.95427 0.0
H562 H 0.38666 0.45861 0.00364 0.0
H563 H 0.40161 0.43094 0.98618 0.0
H564 H 0.33493 0.39045 -0.00383 0.0
H565 H 0.41176 0.63255 0.9723 0.0
H566 H 0.36543 0.61966 0.95556 0.0
H567 H 0.42463 0.60862 0.95378 0.0
C568 C 0.90918 0.5002 0.16722 0.0
C569 C 0.9557 0.53809 0.15818 0.0
C570 C 0.87555 0.44417 0.16227 0.0
C571 C 0.8893 0.42598 0.14801 0.0
C572 C 0.93478 0.46508 0.13846 0.0
C573 C 0.96742 0.52086 0.14367 0.0
C574 C 0.82698 0.40392 0.17264 0.0
C575 C 0.95078 0.44736 0.12318 0.0
C576 C 0.85254 0.27373 0.14351 0.0
C577 C 0.80761 0.25318 0.13269 0.0
C578 C 0.87846 0.32954 0.14896 0.0
C579 C 0.85869 0.36548 0.14354 0.0
C580 C 0.81184 0.34434 0.13317 0.0
C581 C 0.78692 0.28849 0.12785 0.0
C582 C 0.92842 0.35067 0.16002 0.0
C583 C 0.78925 0.38124 0.12726 0.0
H584 H 0.90032 0.51401 0.17843 0.0
H585 H 0.0038 0.55041 0.13679 0.0
H586 H 0.78827 0.38044 0.16537 0.0
H587 H 0.83645 0.37253 0.17796 0.0
H588 H 0.81851 0.42588 0.18247 0.0
H589 H 0.98488 0.48364 0.11665 0.0
H590 H 0.96519 0.41702 0.12594 0.0
H591 H 0.91373 0.42567 0.1152 0.0
H592 H 0.86875 0.2468 0.14734 0.0
H593 H 0.75193 0.27292 0.11958 0.0
H594 H 0.9215 0.36973 0.17084 0.0
H595 H 0.9665 0.38403 0.15395 0.0
H596 H 0.93674 0.31666 0.16378 0.0
H597 H 0.78088 0.40179 0.13747 0.0
H598 H 0.74987 0.35723 0.12026 0.0
H599 H 0.82112 0.41518 0.11958 0.0
C600 C 0.15237 0.43183 0.48021 0.0
C601 C 0.19687 0.4551 0.49119 0.0
C602 C 0.12696 0.46238 0.47496 0.0
C603 C 0.14682 0.5177 0.48071 0.0
C604 C 0.19253 0.54196 0.4915 0.0
C605 C 0.2169 0.5103 0.49666 0.0
C606 C 0.07802 0.43497 0.4635 0.0
C607 C 0.21515 0.60102 0.49777 0.0
C608 C 0.10295 0.60464 0.45576 0.0
C609 C 0.05535 0.59675 0.46407 0.0
C610 C 0.135 0.58143 0.46146 0.0
C611 C 0.11843 0.54926 0.47571 0.0
C612 C 0.07181 0.54362 0.48452 0.0
C613 C 0.04087 0.56771 0.47859 0.0
C614 C 0.18486 0.58899 0.45185 0.0
C615 C 0.05269 0.5095 0.49973 0.0
H616 H 0.13648 0.38921 0.47597 0.0
H617 H 0.25149 0.52878 0.50508 0.0
H618 H 0.03996 0.43195 0.4691 0.0
H619 H 0.08719 0.46109 0.45258 0.0
H620 H 0.06839 0.39207 0.45992 0.0
H621 H 0.25237 0.61452 0.50562 0.0
H622 H 0.22714 0.63109 0.48768 0.0
H623 H 0.18199 0.60362 0.50466 0.0
H624 H 0.1139 0.62735 0.44452 0.0
H625 H 0.00367 0.56151 0.4849 0.0
H626 H 0.17536 0.54807 0.44658 0.0
H627 H 0.22217 0.60315 0.45967 0.0
H628 H 0.19568 0.61997 0.44203 0.0
H629 H 0.03702 0.46452 0.49695 0.0
H630 H 0.01858 0.51303 0.50579 0.0
H631 H 0.08844 0.52332 0.50812 0.0
C632 C 0.49392 0.09371 0.62304 0.0
C633 C 0.45418 0.04683 0.63161 0.0
C634 C 0.5493 0.12601 0.62864 0.0
C635 C 0.56502 0.1103 0.64301 0.0
C636 C 0.52392 0.0647 0.65213 0.0
C637 C 0.46875 0.03361 0.64632 0.0
C638 C 0.59162 0.17488 0.61873 0.0
C639 C 0.539 0.04642 0.66746 0.0
C640 C 0.71546 0.14101 0.64717 0.0
C641 C 0.738 0.18605 0.65798 0.0
C642 C 0.65941 0.11653 0.64206 0.0
C643 C 0.6252 0.13798 0.64777 0.0
C644 C 0.64807 0.18439 0.65834 0.0
C645 C 0.70412 0.20773 0.66337 0.0
C646 C 0.63636 0.06675 0.63086 0.0
C647 C 0.61311 0.20882 0.66452 0.0
H648 H 0.48221 0.10362 0.61164 0.0
H649 H 0.43777 0.99692 0.65282 0.0
H650 H 0.61607 0.21252 0.62634 0.0
H651 H 0.62188 0.16405 0.6133 0.0
H652 H 0.57129 0.18584 0.60899 0.0
H653 H 0.50128 0.01349 0.67381 0.0
H654 H 0.56724 0.02939 0.66478 0.0
H655 H 0.5621 0.08286 0.67557 0.0
H656 H 0.74119 0.12388 0.64298 0.0
H657 H 0.72125 0.24277 0.67165 0.0
H658 H 0.61943 0.07577 0.61993 0.0
H659 H 0.60104 0.02949 0.63669 0.0
H660 H 0.66874 0.05585 0.62729 0.0
H661 H 0.59503 0.2206 0.65439 0.0
H662 H 0.63792 0.24656 0.67211 0.0
H663 H 0.57736 0.17676 0.67167 0.0
C664 C 0.47152 0.6752 0.82206 0.0
C665 C 0.52879 0.70813 0.81817 0.0
C666 C 0.43933 0.61976 0.8165 0.0
C667 C 0.46517 0.59652 0.80696 0.0
C668 C 0.52226 0.63028 0.80241 0.0
C669 C 0.55331 0.68583 0.80799 0.0
C670 C 0.37834 0.58537 0.82139 0.0
C671 C 0.55138 0.60685 0.7923 0.0
C672 C 0.41385 0.44024 0.80816 0.0
C673 C 0.38898 0.42318 0.79312 0.0
C674 C 0.43681 0.49627 0.8131 0.0
C675 C 0.43416 0.53577 0.80276 0.0
C676 C 0.40572 0.5177 0.78796 0.0
C677 C 0.38367 0.46143 0.78326 0.0
C678 C 0.46691 0.51384 0.82896 0.0
C679 C 0.40114 0.55832 0.77675 0.0
H680 H 0.45205 0.69229 0.8298 0.0
H681 H 0.59748 0.71092 0.80492 0.0
H682 H 0.35155 0.56467 0.81081 0.0
H683 H 0.37293 0.5516 0.82973 0.0
H684 H 0.36303 0.61135 0.82737 0.0
H685 H 0.5949 0.63948 0.78903 0.0
H686 H 0.55325 0.57278 0.79894 0.0
H687 H 0.52724 0.5881 0.78119 0.0
H688 H 0.41818 0.41042 0.81568 0.0
H689 H 0.36423 0.44777 0.77162 0.0
H690 H 0.45095 0.53693 0.83612 0.0
H691 H 0.51247 0.54286 0.82691 0.0
H692 H 0.46182 0.47731 0.83603 0.0
H693 H 0.3866 0.58391 0.78328 0.0
H694 H 0.37177 0.53635 0.76672 0.0
H695 H 0.44319 0.58778 0.77171 0.0
C696 C 0.95011 0.39607 0.97739 0.0
C697 C 0.93981 0.3698 0.96249 0.0
C698 C 0.91743 0.4189 0.98283 0.0
C699 C 0.87315 0.41465 0.97314 0.0
C700 C 0.86021 0.38453 0.95857 0.0
C701 C 0.89411 0.36274 0.95334 0.0
C702 C 0.93283 0.45091 -0.0016 0.0
C703 C 0.81274 0.3782 0.94806 0.0
C704 C 0.77362 0.45469 -0.00704 0.0
C705 C 0.79648 0.511 0.98813 0.0
C706 C 0.7968 0.42201 0.98773 0.0
C707 C 0.84433 0.44641 0.97756 0.0
C708 C 0.86653 0.50264 0.97225 0.0
C709 C 0.84211 0.53413 0.97752 0.0
C710 C 0.77144 0.36196 -0.00656 0.0
C711 C 0.9175 0.53029 0.96149 0.0
H712 H 0.98593 0.40179 0.98435 0.0
H713 H 0.88651 0.34238 0.94178 0.0
H714 H 0.94956 0.49631 -0.00403 0.0
H715 H 0.89509 0.43632 0.00606 0.0
H716 H 0.96511 0.44617 0.00513 0.0
H717 H 0.80335 0.34731 0.9383 0.0
H718 H 0.77402 0.36463 0.95521 0.0
H719 H 0.8242 0.41946 0.94262 0.0
H720 H 0.73805 0.43628 0.00107 0.0
H721 H 0.86007 0.57755 0.97373 0.0
H722 H 0.80184 0.35784 0.00124 0.0
H723 H 0.76254 0.33329 0.98313 0.0
H724 H 0.73186 0.34787 0.00025 0.0
H725 H 0.95424 0.53237 0.96768 0.0
H726 H 0.92834 0.57363 0.95798 0.0
H727 H 0.91006 0.50493 0.95051 0.0
C728 C 0.54603 0.94193 0.14502 0.0
C729 C 0.56057 0.93002 0.13011 0.0
C730 C 0.49086 0.9104 0.15081 0.0
C731 C 0.44972 0.86564 0.14148 0.0
C732 C 0.46541 0.85116 0.12689 0.0
C733 C 0.52078 0.88396 0.1213 0.0
C734 C 0.47582 0.92747 0.16637 0.0
C735 C 0.42306 0.80314 0.11676 0.0
C736 C 0.3108 0.76791 0.16193 0.0
C737 C 0.27728 0.79046 0.15693 0.0
C738 C 0.36656 0.79083 0.15665 0.0
C739 C 0.38954 0.83782 0.14627 0.0
C740 C 0.3556 0.86002 0.14091 0.0
C741 C 0.29978 0.83584 0.14622 0.0
C742 C 0.40119 0.7655 0.16242 0.0
C743 C 0.37878 0.91048 0.12994 0.0
H744 H 0.57703 0.97803 0.1517 0.0
H745 H 0.53244 0.87512 0.10974 0.0
H746 H 0.44757 0.94469 0.16396 0.0
H747 H 0.45275 0.8904 0.17428 0.0
H748 H 0.51355 0.95989 0.17281 0.0
H749 H 0.44341 0.79276 0.10689 0.0
H750 H 0.39833 0.76498 0.12417 0.0
H751 H 0.39305 0.8146 0.11149 0.0
H752 H 0.29363 0.73254 0.17012 0.0
H753 H 0.2743 0.85363 0.14233 0.0
H754 H 0.43683 0.79665 0.16977 0.0
H755 H 0.41941 0.75475 0.1521 0.0
H756 H 0.37609 0.72697 0.1697 0.0
H757 H 0.41423 0.94729 0.13588 0.0
H758 H 0.34653 0.9218 0.12658 0.0
H759 H 0.39556 0.90203 0.11888 0.0
C760 C 0.52483 0.30328 0.32944 0.0
C761 C 0.46977 0.26876 0.32379 0.0
C762 C 0.55726 0.35935 0.32438 0.0
C763 C 0.53395 0.38156 0.31351 0.0
C764 C 0.47884 0.34672 0.30753 0.0
C765 C 0.4475 0.29066 0.31269 0.0
C766 C 0.61606 0.39506 0.33088 0.0
C767 C 0.45243 0.36907 0.29597 0.0
C768 C 0.58501 0.53785 0.3118 0.0
C769 C 0.61461 0.55281 0.29737 0.0
C770 C 0.56045 0.48257 0.31758 0.0
C771 C 0.56616 0.44173 0.30871 0.0
C772 C 0.59904 0.45774 0.2946 0.0
C773 C 0.62269 0.51325 0.28904 0.0
C774 C 0.5256 0.46715 0.33265 0.0
C775 C 0.60676 0.41563 0.28495 0.0
H776 H 0.54257 0.28665 0.33795 0.0
H777 H 0.40503 0.2644 0.3083 0.0
H778 H 0.64661 0.41346 0.32091 0.0
H779 H 0.61864 0.4306 0.33788 0.0
H780 H 0.62894 0.3707 0.33868 0.0
H781 H 0.40968 0.33619 0.29218 0.0
H782 H 0.44939 0.40407 0.3016 0.0
H783 H 0.47922 0.38631 0.28519 0.0
H784 H 0.57854 0.56868 0.31811 0.0
H785 H 0.64568 0.52527 0.27785 0.0
H786 H 0.53865 0.44452 0.34104 0.0
H787 H 0.48072 0.43834 0.32967 0.0
H788 H 0.52919 0.50468 0.33881 0.0
H789 H 0.61992 0.39165 0.29278 0.0
H790 H 0.63851 0.43609 0.27532 0.0
H791 H 0.56613 0.38488 0.2794 0.0
C792 C 0.7906 0.42233 0.39769 0.0
C793 C 0.81334 0.41841 0.41229 0.0
C794 C 0.75083 0.37391 0.38969 0.0
C795 C 0.73486 0.32034 0.39621 0.0
C796 C 0.7619 0.31611 0.41009 0.0
C797 C 0.80026 0.36538 0.41816 0.0
C798 C 0.72236 0.38037 0.37503 0.0
C799 C 0.74773 0.25971 0.41699 0.0
C800 C 0.5824 0.21637 0.38797 0.0
C801 C 0.58628 0.19257 0.37356 0.0
C802 C 0.63085 0.25574 0.39604 0.0
C803 C 0.68436 0.2702 0.38979 0.0
C804 C 0.68841 0.24206 0.37613 0.0
C805 C 0.63916 0.20415 0.36799 0.0
C806 C 0.62462 0.28542 0.41044 0.0
C807 C 0.74467 0.25461 0.36954 0.0
H808 H 0.80061 0.46326 0.3931 0.0
H809 H 0.8184 0.3623 0.42935 0.0
H810 H 0.72372 0.35446 0.36508 0.0
H811 H 0.67741 0.36519 0.37773 0.0
H812 H 0.74213 0.42478 0.37095 0.0
H813 H 0.7807 0.26337 0.4254 0.0
H814 H 0.70738 0.24181 0.4236 0.0
H815 H 0.7425 0.22963 0.40738 0.0
H816 H 0.54159 0.20752 0.39233 0.0
H817 H 0.64219 0.18517 0.35695 0.0
H818 H 0.6409 0.33045 0.40754 0.0
H819 H 0.64968 0.28379 0.42059 0.0
H820 H 0.58014 0.26675 0.41435 0.0
H821 H 0.76369 0.29474 0.36277 0.0
H822 H 0.74053 0.22092 0.36133 0.0
H823 H 0.77404 0.25953 0.37933 0.0
C824 C 0.36579 0.57049 0.55499 0.0
C825 C 0.3931 0.57463 0.5405 0.0
C826 C 0.3754 0.61881 0.56326 0.0
C827 C 0.41466 0.67247 0.55712 0.0
C828 C 0.44643 0.67671 0.54334 0.0
C829 C 0.43451 0.6276 0.53499 0.0
C830 C 0.33987 0.61236 0.57777 0.0
C831 C 0.49039 0.73309 0.53685 0.0
C832 C 0.37009 0.77929 0.56578 0.0
C833 C 0.39679 0.80109 0.58043 0.0
C834 C 0.37834 0.7397 0.5575 0.0
C835 C 0.41565 0.72301 0.5638 0.0
C836 C 0.44709 0.74923 0.57772 0.0
C837 C 0.43652 0.78736 0.58607 0.0
C838 C 0.34321 0.7121 0.54282 0.0
C839 C 0.48909 0.73436 0.58438 0.0
H840 H 0.33372 0.5296 0.55929 0.0
H841 H 0.45621 0.63082 0.52388 0.0
H842 H 0.36685 0.63675 0.58795 0.0
H843 H 0.31154 0.62931 0.57509 0.0
H844 H 0.31368 0.56773 0.58153 0.0
H845 H 0.51965 0.72892 0.52854 0.0
H846 H 0.46952 0.75265 0.53023 0.0
H847 H 0.51509 0.76204 0.54669 0.0
H848 H 0.33935 0.78979 0.56136 0.0
H849 H 0.45778 0.80478 0.59731 0.0
H850 H 0.3132 0.66707 0.54538 0.0
H851 H 0.37025 0.7137 0.53278 0.0
H852 H 0.31884 0.73237 0.53895 0.0
H853 H 0.46651 0.6938 0.5909 0.0
H854 H 0.51871 0.76695 0.59282 0.0
H855 H 0.51358 0.7292 0.57464 0.0
C856 C 0.80014 0.41704 0.7021 0.0
C857 C 0.8161 0.37912 0.70789 0.0
C858 C 0.76136 0.42647 0.71051 0.0
C859 C 0.73695 0.39578 0.72468 0.0
C860 C 0.75639 0.36096 0.73121 0.0
C861 C 0.79644 0.35376 0.72283 0.0
C862 C 0.7436 0.46599 0.70361 0.0
C863 C 0.73097 0.32687 0.74621 0.0
C864 C 0.63786 0.40971 0.75321 0.0
C865 C 0.58595 0.36566 0.74794 0.0
C866 C 0.68756 0.42398 0.74485 0.0
C867 C 0.68509 0.39203 0.7313 0.0
C868 C 0.63232 0.35003 0.72536 0.0
C869 C 0.58329 0.33798 0.73364 0.0
C870 C 0.74282 0.47075 0.75109 0.0
C871 C 0.6278 0.31436 0.71105 0.0
H872 H 0.816 0.43745 0.69066 0.0
H873 H 0.80887 0.32463 0.72742 0.0
H874 H 0.70325 0.44137 0.69712 0.0
H875 H 0.73688 0.48995 0.71319 0.0
H876 H 0.77534 0.49618 0.69506 0.0
H877 H 0.75367 0.30511 0.7503 0.0
H878 H 0.73131 0.35419 0.756 0.0
H879 H 0.68643 0.29464 0.74393 0.0
H880 H 0.63989 0.43176 0.76416 0.0
H881 H 0.54322 0.30398 0.72948 0.0
H882 H 0.77118 0.49535 0.74113 0.0
H883 H 0.76413 0.45253 0.75811 0.0
H884 H 0.73664 0.49974 0.759 0.0
H885 H 0.6507 0.34139 0.70071 0.0
H886 H 0.58346 0.28562 0.70746 0.0
H887 H 0.6475 0.28855 0.71389 0.0
C888 C 0.41755 0.75857 0.88701 0.0
C889 C 0.41457 0.78287 0.87259 0.0
C890 C 0.36883 0.72303 0.89561 0.0
C891 C 0.31607 0.71305 0.88989 0.0
C892 C 0.31349 0.74224 0.87627 0.0
C893 C 0.36285 0.77615 0.86757 0.0
C894 C 0.37352 0.69225 0.90998 0.0
C895 C 0.25839 0.7349 0.87028 0.0
C896 C 0.20593 0.56388 0.89895 0.0
C897 C 0.18838 0.5699 0.91418 0.0
C898 C 0.24438 0.61096 0.89021 0.0
C899 C 0.26428 0.66536 0.89667 0.0
C900 C 0.24129 0.6719 0.91109 0.0
C901 C 0.20415 0.62387 0.91986 0.0
C902 C 0.2681 0.60198 0.87491 0.0
C903 C 0.25921 0.72934 0.91789 0.0
H904 H 0.4575 0.76391 0.891 0.0
H905 H 0.3606 0.79576 0.85657 0.0
H906 H 0.35189 0.69777 0.92041 0.0
H907 H 0.35265 0.64649 0.90739 0.0
H908 H 0.41793 0.70706 0.91333 0.0
H909 H 0.265 0.77129 0.86285 0.0
H910 H 0.23711 0.69652 0.86278 0.0
H911 H 0.22988 0.72986 0.88033 0.0
H912 H 0.19339 0.52226 0.89439 0.0
H913 H 0.18971 0.62871 0.93149 0.0
H914 H 0.31293 0.61453 0.87673 0.0
H915 H 0.26644 0.62857 0.86521 0.0
H916 H 0.24508 0.55738 0.87094 0.0
H917 H 0.29963 0.74517 0.92434 0.0
H918 H 0.2276 0.72787 0.92646 0.0
H919 H 0.26573 0.75984 0.90826 0.0
C920 C 0.63846 0.20133 0.06697 0.0
C921 C 0.61287 0.1797 0.08177 0.0
C922 C 0.62799 0.23924 0.05858 0.0
C923 C 0.58958 0.25442 0.06492 0.0
C924 C 0.55928 0.22824 0.07902 0.0
C925 C 0.57206 0.19182 0.08747 0.0
C926 C 0.66191 0.26679 0.0437 0.0
C927 C 0.51612 0.24138 0.08573 0.0
C928 C 0.63548 0.40536 0.05526 0.0
C929 C 0.60798 0.39952 0.04069 0.0
C930 C 0.62686 0.35805 0.0639 0.0
C931 C 0.58839 0.30367 0.05807 0.0
C932 C 0.55601 0.29769 0.0443 0.0
C933 C 0.56693 0.34582 0.03557 0.0
C934 C 0.66292 0.3664 0.07843 0.0
C935 C 0.51272 0.24048 0.03816 0.0
H936 H 0.66995 0.19199 0.06248 0.0
H937 H 0.55157 0.17447 0.09881 0.0
H938 H 0.63383 0.2632 0.03371 0.0
H939 H 0.69058 0.31231 0.04596 0.0
H940 H 0.68763 0.24791 0.03988 0.0
H941 H 0.48715 0.20824 0.09417 0.0
H942 H 0.53773 0.28189 0.09229 0.0
H943 H 0.49102 0.24576 0.07604 0.0
H944 H 0.66713 0.44679 0.05932 0.0
H945 H 0.54494 0.34123 0.02443 0.0
H946 H 0.69234 0.35067 0.07586 0.0
H947 H 0.63647 0.34202 0.0887 0.0
H948 H 0.68801 0.41134 0.08198 0.0
H949 H 0.53407 0.22154 0.03149 0.0
H950 H 0.48236 0.24325 0.02997 0.0
H951 H 0.48918 0.21176 0.04818 0.0
C952 C 0.37479 0.56517 0.25369 0.0
C953 C 0.42694 0.60625 0.24761 0.0
C954 C 0.32471 0.55169 0.24566 0.0
C955 C 0.3272 0.58152 0.23162 0.0
C956 C 0.38 0.61997 0.22484 0.0
C957 C 0.42927 0.63117 0.23281 0.0
C958 C 0.26927 0.50845 0.25282 0.0
C959 C 0.38462 0.6533 0.20996 0.0
C960 C 0.21063 0.55881 0.20337 0.0
C961 C 0.19904 0.60037 0.20872 0.0
C962 C 0.24827 0.5476 0.21173 0.0
C963 C 0.27608 0.58017 0.22535 0.0
C964 C 0.26104 0.61897 0.23147 0.0
C965 C 0.22196 0.62792 0.2232 0.0
C966 C 0.2612 0.50391 0.20532 0.0
C967 C 0.29019 0.65514 0.24587 0.0
H968 H 0.37293 0.54514 0.26501 0.0
H969 H 0.46952 0.66278 0.22801 0.0
H970 H 0.25125 0.53004 0.2598 0.0
H971 H 0.2386 0.48336 0.24335 0.0
H972 H 0.27449 0.47945 0.26098 0.0
H973 H 0.42873 0.67897 0.20574 0.0
H974 H 0.35909 0.62478 0.20017 0.0
H975 H 0.36794 0.68199 0.21245 0.0
H976 H 0.19217 0.53672 0.19231 0.0
H977 H 0.21289 0.65989 0.22743 0.0
H978 H 0.26765 0.48073 0.21519 0.0
H979 H 0.30052 0.52489 0.1982 0.0
H980 H 0.22695 0.47324 0.19746 0.0
H981 H 0.28898 0.62872 0.25605 0.0
H982 H 0.27082 0.68038 0.24972 0.0
H983 H 0.33508 0.68445 0.24298 0.0
C984 C 0.13621 0.88952 0.20683 0.0
C985 C 0.12603 0.83561 0.21094 0.0
C986 C 0.14685 0.92988 0.21866 0.0
C987 C 0.14679 0.91557 0.23489 0.0
C988 C 0.13263 0.86002 0.23911 0.0
C989 C 0.12269 0.82082 0.22708 0.0
C990 C 0.16166 0.98864 0.21375 0.0
C991 C 0.13127 0.84282 0.25633 0.0
C992 C 0.24302 0.01483 0.26628 0.0
C993 C 0.20503 0.02098 0.27606 0.0
C994 C 0.22547 0.98505 0.25191 0.0
C995 C 0.16817 0.95946 0.24746 0.0
C996 C 0.1304 0.96872 0.2567 0.0
C997 C 0.14934 0.99939 0.27096 0.0
C998 C 0.26722 0.97646 0.24232 0.0
C999 C 0.06904 0.94228 0.2523 0.0
H1000 H 0.13861 0.90113 0.19436 0.0
H1001 H 0.11393 0.77893 0.23032 0.0
H1002 H 0.13982 0.00468 0.22143 0.0
H1003 H 0.20755 0.01732 0.21526 0.0
H1004 H 0.15066 0.99044 0.20108 0.0
H1005 H 0.11425 0.7968 0.25764 0.0
H1006 H 0.17449 0.86508 0.26132 0.0
H1007 H 0.1052 0.85493 0.2636 0.0
H1008 H 0.28547 0.02922 0.27037 0.0
H1009 H 0.1198 0.00379 0.27857 0.0
H1010 H 0.26313 0.98254 0.2294 0.0
H1011 H 0.25856 0.93271 0.244 0.0
H1012 H 0.3113 0.00577 0.24603 0.0
H1013 H 0.06388 0.94514 0.23925 0.0
H1014 H 0.04822 0.96242 0.25869 0.0
H1015 H 0.0471 0.89699 0.25552 0.0
C1016 C 0.23045 0.11877 0.3738 0.0
C1017 C 0.27535 0.11002 0.37755 0.0
C1018 C 0.20084 0.12837 0.3859 0.0
C1019 C 0.21653 0.12888 0.40201 0.0
C1020 C 0.25884 0.11568 0.40587 0.0
C1021 C 0.28786 0.10661 0.39358 0.0
C1022 C 0.15564 0.14183 0.38137 0.0
C1023 C 0.27626 0.11494 0.42295 0.0
C1024 C 0.21712 0.22657 0.43347 0.0
C1025 C 0.17487 0.18888 0.44379 0.0
C1026 C 0.22718 0.20837 0.41889 0.0
C1027 C 0.19521 0.15074 0.41477 0.0
C1028 C 0.14977 0.11328 0.42455 0.0
C1029 C 0.14024 0.13285 0.43904 0.0
C1030 C 0.27587 0.24983 0.40872 0.0
C1031 C 0.1145 0.05164 0.42048 0.0
H1032 H 0.22032 0.12106 0.36141 0.0
H1033 H 0.32182 0.09882 0.39654 0.0
H1034 H 0.14104 0.12912 0.3689 0.0
H1035 H 0.11902 0.12061 0.38953 0.0
H1036 H 0.17256 0.18784 0.38245 0.0
H1037 H 0.30571 0.09839 0.42398 0.0
H1038 H 0.29728 0.15832 0.42785 0.0
H1039 H 0.23884 0.08875 0.43048 0.0
H1040 H 0.24558 0.26933 0.43727 0.0
H1041 H 0.10773 0.10357 0.44707 0.0
H1042 H 0.26376 0.24492 0.39594 0.0
H1043 H 0.31138 0.24158 0.40992 0.0
H1044 H 0.29088 0.29408 0.41232 0.0
H1045 H 0.10521 0.04565 0.40751 0.0
H1046 H 0.0742 0.03124 0.42721 0.0
H1047 H 0.13812 0.02988 0.42358 0.0
C1048 C 0.00587 0.12756 0.60636 0.0
C1049 C 0.98371 0.16164 0.61104 0.0
C1050 C 0.03628 0.1381 0.59208 0.0
C1051 C 0.04468 0.1839 0.58238 0.0
C1052 C 0.01856 0.21551 0.58643 0.0
C1053 C 0.98907 0.20451 0.60082 0.0
C1054 C 0.0633 0.10333 0.58812 0.0
C1055 C 0.02618 0.26451 0.57634 0.0
C1056 C 0.18144 0.27664 0.56113 0.0
C1057 C 0.16559 0.2636 0.54511 0.0
C1058 C 0.14336 0.24782 0.57345 0.0
C1059 C 0.08792 0.20528 0.56964 0.0
C1060 C 0.07278 0.18919 0.55355 0.0
C1061 C 0.112 0.21851 0.54143 0.0
C1062 C 0.16143 0.2656 0.59052 0.0
C1063 C 0.01415 0.14388 0.54907 0.0
H1064 H 0.0021 0.09462 0.61431 0.0
H1065 H 0.97426 0.23261 0.60458 0.0
H1066 H 0.06032 0.09398 0.57515 0.0
H1067 H 0.10861 0.12744 0.59126 0.0
H1068 H 0.04372 0.06305 0.59486 0.0
H1069 H 0.99681 0.27944 0.57987 0.0
H1070 H 0.06987 0.30001 0.57767 0.0
H1071 H 0.01947 0.25274 0.56352 0.0
H1072 H 0.22312 0.3108 0.56405 0.0
H1073 H 0.09958 0.208 0.52906 0.0
H1074 H 0.15004 0.22831 0.59813 0.0
H1075 H 0.13916 0.28685 0.59532 0.0
H1076 H 0.20743 0.29501 0.59154 0.0
H1077 H 0.99905 0.10712 0.55717 0.0
H1078 H 0.01206 0.12947 0.53656 0.0
H1079 H 0.98493 0.16058 0.55029 0.0
C1080 C 0.77059 0.97036 0.76734 0.0
C1081 C 0.80653 0.96096 0.77709 0.0
C1082 C 0.79023 0.00169 0.75326 0.0
C1083 C 0.84765 0.02565 0.74909 0.0
C1084 C 0.88358 0.01402 0.75843 0.0
C1085 C 0.86253 0.98179 0.77239 0.0
C1086 C 0.75041 0.01288 0.74356 0.0
C1087 C 0.94506 0.0389 0.75437 0.0
C1088 C 0.88173 0.09336 0.70819 0.0
C1089 C 0.89313 0.14791 0.71197 0.0
C1090 C 0.8703 0.05353 0.72025 0.0
C1091 C 0.87088 0.06905 0.73639 0.0
C1092 C 0.88667 0.12526 0.74028 0.0
C1093 C 0.8973 0.16394 0.72801 0.0
C1094 C 0.85371 0.99401 0.71567 0.0
C1095 C 0.88869 0.14369 0.75739 0.0
H1096 H 0.72804 0.95675 0.77119 0.0
H1097 H 0.89053 0.97503 0.78002 0.0
H1098 H 0.76138 0.05739 0.74513 0.0
H1099 H 0.75425 0.00618 0.73067 0.0
H1100 H 0.70588 0.98543 0.74722 0.0
H1101 H 0.96455 0.01788 0.76099 0.0
H1102 H 0.95084 0.03571 0.74137 0.0
H1103 H 0.96787 0.08425 0.75753 0.0
H1104 H 0.8787 0.08078 0.69579 0.0
H1105 H 0.90702 0.20632 0.731 0.0
H1106 H 0.80766 0.96651 0.71727 0.0
H1107 H 0.87474 0.97746 0.72349 0.0
H1108 H 0.8643 0.99103 0.70304 0.0
H1109 H 0.84538 0.12354 0.76232 0.0
H1110 H 0.9078 0.19006 0.75847 0.0
H1111 H 0.91314 0.13012 0.76486 0.0
C1112 C 0.82975 0.75584 0.93003 0.0
C1113 C 0.83603 0.78847 0.94357 0.0
C1114 C 0.81509 0.76893 0.91525 0.0
C1115 C 0.80823 0.8166 0.91401 0.0
C1116 C 0.8219 0.85366 0.92712 0.0
C1117 C 0.83546 0.83902 0.94179 0.0
C1118 C 0.80173 0.72881 0.90146 0.0
C1119 C 0.81661 0.9058 0.92616 0.0
C1120 C 0.77362 0.86013 0.87445 0.0
C1121 C 0.71513 0.83641 0.87584 0.0
C1122 C 0.80489 0.85341 0.88666 0.0
C1123 C 0.7767 0.8218 0.90039 0.0
C1124 C 0.71753 0.79663 0.90163 0.0
C1125 C 0.68758 0.80457 0.8894 0.0
C1126 C 0.86799 0.88135 0.88505 0.0
C1127 C 0.68578 0.76194 0.91602 0.0
H1128 H 0.83366 0.71865 0.93107 0.0
H1129 H 0.84164 0.86534 0.95211 0.0
H1130 H 0.75539 0.70264 0.90018 0.0
H1131 H 0.81851 0.75203 0.89009 0.0
H1132 H 0.81905 0.70029 0.90332 0.0
H1133 H 0.83838 0.93506 0.93623 0.0
H1134 H 0.83421 0.92847 0.91476 0.0
H1135 H 0.77147 0.89344 0.92655 0.0
H1136 H 0.7951 0.88486 0.86399 0.0
H1137 H 0.64232 0.78554 0.89045 0.0
H1138 H 0.88256 0.85119 0.88785 0.0
H1139 H 0.88824 0.91639 0.89376 0.0
H1140 H 0.88263 0.89859 0.87287 0.0
H1141 H 0.69533 0.72757 0.91796 0.0
H1142 H 0.63952 0.74301 0.91474 0.0
H1143 H 0.69931 0.78872 0.92687 0.0
C1144 C 0.02319 0.76301 0.1002 0.0
C1145 C 0.02943 0.8077 0.10976 0.0
C1146 C 0.99351 0.75017 0.08581 0.0
C1147 C 0.96796 0.78171 0.08111 0.0
C1148 C 0.97688 0.82897 0.09019 0.0
C1149 C 0.00759 0.8414 0.10446 0.0
C1150 C 0.9853 0.69964 0.07639 0.0
C1151 C 0.95022 0.86353 0.08557 0.0
C1152 C 0.90056 0.746 0.04013 0.0
C1153 C 0.84614 0.70264 0.04393 0.0
C1154 C 0.94038 0.77442 0.05218 0.0
C1155 C 0.92499 0.75935 0.06832 0.0
C1156 C 0.86914 0.71802 0.07223 0.0
C1157 C 0.8305 0.68993 0.05998 0.0
C1158 C -0.00041 0.81812 0.04759 0.0
C1159 C 0.85086 0.70137 0.08934 0.0
H1160 H 0.03766 0.73517 0.10447 0.0
H1161 H 0.01198 0.8757 0.1119 0.0
H1162 H 0.94154 0.66455 0.07801 0.0
H1163 H 0.99175 0.70954 0.06345 0.0
H1164 H 0.01452 0.68497 0.08029 0.0
H1165 H 0.96928 0.90422 0.09209 0.0
H1166 H 0.95423 0.87209 0.07255 0.0
H1167 H 0.90466 0.83958 0.08843 0.0
H1168 H 0.91284 0.75609 0.02773 0.0
H1169 H 0.78826 0.65704 0.06298 0.0
H1170 H 0.02807 0.80091 0.04961 0.0
H1171 H 0.01488 0.85619 0.05516 0.0
H1172 H 0.00271 0.83065 0.03485 0.0
H1173 H 0.87281 0.68018 0.09442 0.0
H1174 H 0.80479 0.67234 0.09041 0.0
H1175 H 0.86249 0.73924 0.09671 0.0
C1176 C 0.01135 0.86052 0.51301 0.0
C1177 C 0.98763 0.80427 0.50818 0.0
C1178 C 0.04156 0.87908 0.52734 0.0
C1179 C 0.0481 0.84031 0.53695 0.0
C1180 C 0.02051 0.78267 0.53273 0.0
C1181 C 0.9913 0.76551 0.51828 0.0
C1182 C 0.07031 0.94085 0.53148 0.0
C1183 C 0.02612 0.73987 0.54273 0.0
C1184 C 0.18328 0.88082 0.55868 0.0
C1185 C 0.1671 0.87893 0.57464 0.0
C1186 C 0.14581 0.872 0.54623 0.0
C1187 C 0.09065 0.86047 0.54985 0.0
C1188 C 0.07506 0.8618 0.56587 0.0
C1189 C 0.11366 0.87126 0.57811 0.0
C1190 C 0.1643 0.87177 0.52924 0.0
C1191 C 0.01664 0.84972 0.57014 0.0
H1192 H 0.00892 0.89065 0.50514 0.0
H1193 H 0.97532 0.72253 0.5144 0.0
H1194 H 0.06667 0.94692 0.54443 0.0
H1195 H 0.11576 0.96067 0.52861 0.0
H1196 H 0.05255 0.96309 0.52465 0.0
H1197 H 0.99575 0.69601 0.53907 0.0
H1198 H 0.0693 0.7466 0.54144 0.0
H1199 H 0.01939 0.74483 0.55555 0.0
H1200 H 0.22481 0.88761 0.55591 0.0
H1201 H 0.10097 0.87002 0.59044 0.0
H1202 H 0.15444 0.89868 0.52156 0.0
H1203 H 0.14101 0.82836 0.52439 0.0
H1204 H 0.21007 0.88695 0.52837 0.0
H1205 H 0.00307 0.87288 0.56212 0.0
H1206 H 0.01403 0.86124 0.58271 0.0
H1207 H 0.98652 0.80413 0.56858 0.0
C1208 C 0.31075 0.11733 0.7303 0.0
C1209 C 0.28353 0.12247 0.74379 0.0
C1210 C 0.28022 0.08023 0.71797 0.0
C1211 C 0.22084 0.04801 0.71907 0.0
C1212 C 0.19301 0.05214 0.73278 0.0
C1213 C 0.22483 0.08925 0.74507 0.0
C1214 C 0.31159 0.07639 0.70362 0.0
C1215 C 0.12974 0.01898 0.73424 0.0
C1216 C 0.16451 0.01168 0.67738 0.0
C1217 C 0.16236 0.95991 0.67532 0.0
C1218 C 0.17743 0.03842 0.69225 0.0
C1219 C 0.18886 0.01284 0.70527 0.0
C1220 C 0.17983 0.95757 0.70374 0.0
C1221 C 0.16579 0.93132 0.68875 0.0
C1222 C 0.18485 0.09665 0.69354 0.0
C1223 C 0.19055 0.92844 0.71745 0.0
H1224 H 0.35616 0.14236 0.72936 0.0
H1225 H 0.20362 0.0932 0.75549 0.0
H1226 H 0.30013 0.03199 0.7015 0.0
H1227 H 0.29956 0.09129 0.6928 0.0
H1228 H 0.35795 0.10195 0.70507 0.0
H1229 H 0.11541 0.02004 0.74658 0.0
H1230 H 0.11104 0.03697 0.72605 0.0
H1231 H 0.1132 0.97449 0.73069 0.0
H1232 H 0.16039 0.03353 0.66713 0.0
H1233 H 0.16046 0.8897 0.68746 0.0
H1234 H 0.2304 0.12829 0.69342 0.0
H1235 H 0.16712 0.1016 0.70493 0.0
H1236 H 0.16445 0.10598 0.68347 0.0
H1237 H 0.17136 0.88249 0.71533 0.0
H1238 H 0.1739 0.93514 0.7288 0.0
H1239 H 0.2366 0.94654 0.71892 0.0
C1240 C 0.22092 0.15728 0.85632 0.0
C1241 C 0.18944 0.14912 0.8424 0.0
C1242 C 0.20682 0.17412 0.87057 0.0
C1243 C 0.15902 0.18093 0.87095 0.0
C1244 C 0.12336 0.16609 0.85748 0.0
C1245 C 0.13917 0.15061 0.84332 0.0
C1246 C 0.24571 0.1892 0.88474 0.0
C1247 C 0.0711 0.17126 0.85755 0.0
C1248 C 0.11104 0.21305 0.91008 0.0
C1249 C 0.13441 0.27159 0.90893 0.0
C1250 C 0.11866 0.18259 0.89783 0.0
C1251 C 0.15117 0.21168 0.88432 0.0
C1252 C 0.17546 0.27084 0.88322 0.0
C1253 C 0.16634 0.29998 0.89548 0.0
C1254 C 0.09133 0.11942 0.89922 0.0
C1255 C 0.21106 0.30345 0.86906 0.0
H1256 H 0.25788 0.15281 0.85598 0.0
H1257 H 0.11379 0.14315 0.83271 0.0
H1258 H 0.2701 0.23567 0.88602 0.0
H1259 H 0.22149 0.17184 0.89593 0.0
H1260 H 0.27585 0.17359 0.88339 0.0
H1261 H 0.04317 0.14909 0.84727 0.0
H1262 H 0.047 0.15399 0.86877 0.0
H1263 H 0.08337 0.21637 0.8569 0.0
H1264 H 0.08615 0.19093 0.92047 0.0
H1265 H 0.18499 0.34528 0.89461 0.0
H1266 H 0.12334 0.10627 0.89798 0.0
H1267 H 0.0606 0.0991 0.88938 0.0
H1268 H 0.0691 0.10345 0.91078 0.0
H1269 H 0.24633 0.29502 0.86749 0.0
H1270 H 0.22878 0.34956 0.87038 0.0
H1271 H 0.18542 0.28954 0.858 0.0
C1272 C 0.04959 0.20093 0.02169 0.0
C1273 C 0.02553 0.17006 0.00773 0.0
C1274 C 0.01945 0.18605 0.03608 0.0
C1275 C 0.96495 0.13811 0.03652 0.0
C1276 C 0.94376 0.10272 0.02301 0.0
C1277 C 0.97425 0.1193 0.00872 0.0
C1278 C 0.04373 0.22464 0.0503 0.0
C1279 C 0.8865 0.05028 0.02315 0.0
C1280 C 0.88543 0.0915 0.07578 0.0
C1281 C 0.85095 0.11566 0.07466 0.0
C1282 C 0.92293 0.0982 0.06345 0.0
C1283 C 0.92648 0.13057 0.04989 0.0
C1284 C 0.89212 0.15542 0.04879 0.0
C1285 C 0.85442 0.14721 0.06112 0.0
C1286 C 0.95821 0.07028 0.06484 0.0
C1287 C 0.89521 0.19085 0.03456 0.0
H1288 H 0.09076 0.23823 0.02126 0.0
H1289 H 0.95583 0.09432 -0.00193 0.0
H1290 H 0.02238 0.24973 0.05161 0.0
H1291 H 0.03644 0.2002 0.06147 0.0
H1292 H 0.08959 0.2542 0.04894 0.0
H1293 H 0.88094 0.02219 0.01292 0.0
H1294 H 0.87967 0.02641 0.03441 0.0
H1295 H 0.85355 0.06237 0.0224 0.0
H1296 H 0.88269 0.06688 0.08622 0.0
H1297 H 0.82827 0.16641 0.06027 0.0
H1298 H 0.0035 0.10215 0.06386 0.0
H1299 H 0.94824 0.04012 0.05487 0.0
H1300 H 0.95111 0.0473 0.07631 0.0
H1301 H 0.93895 0.22596 0.03294 0.0
H1302 H 0.86703 0.20883 0.03585 0.0
H1303 H 0.88327 0.16497 0.02354 0.0
C1304 C 0.85235 0.9616 0.17452 0.0
C1305 C 0.8529 0.01287 0.1733 0.0
C1306 C 0.84017 0.93263 0.18906 0.0
C1307 C 0.82768 0.95534 0.20256 0.0
C1308 C 0.83513 0.0102 0.20186 0.0
C1309 C 0.84868 0.03881 0.18722 0.0
C1310 C 0.83453 0.87501 0.18945 0.0
C1311 C 0.82286 0.03623 0.21606 0.0
C1312 C 0.70578 0.84764 0.22705 0.0
C1313 C 0.73271 0.84323 0.24071 0.0
C1314 C 0.73645 0.88475 0.21473 0.0
C1315 C 0.79574 0.91758 0.21597 0.0
C1316 C 0.82344 0.91316 0.22967 0.0
C1317 C 0.79142 0.87624 0.24199 0.0
C1318 C 0.70522 0.88881 0.20038 0.0
C1319 C 0.88667 0.9467 0.23119 0.0
H1320 H 0.85718 0.94183 0.1639 0.0
H1321 H 0.8529 0.08012 0.18659 0.0
H1322 H 0.85127 0.86829 0.20078 0.0
H1323 H 0.78937 0.84246 0.18871 0.0
H1324 H 0.85686 0.86873 0.17929 0.0
H1325 H 0.84096 0.08234 0.21457 0.0
H1326 H 0.77662 0.01673 0.21747 0.0
H1327 H 0.83956 0.02834 0.22722 0.0
H1328 H 0.66038 0.82268 0.22608 0.0
H1329 H 0.81236 0.87273 0.25254 0.0
H1330 H 0.7186 0.87577 0.18945 0.0
H1331 H 0.71539 0.93302 0.19862 0.0
H1332 H 0.65888 0.86194 0.2016 0.0
H1333 H 0.90615 0.9335 0.22178 0.0
H1334 H 0.9014 0.94098 0.24303 0.0
H1335 H 0.90202 0.99214 0.22935 0.0
C1336 C 0.78429 0.78938 0.35128 0.0
C1337 C 0.8213 0.83193 0.34092 0.0
C1338 C 0.80336 0.77891 0.36564 0.0
C1339 C 0.86121 0.81071 0.36949 0.0
C1340 C 0.89818 0.85612 0.35961 0.0
C1341 C 0.87772 0.86612 0.34536 0.0
C1342 C 0.76241 0.73026 0.37592 0.0
C1343 C 0.96008 0.89107 0.36337 0.0
C1344 C 0.89362 0.77655 0.41048 0.0
C1345 C 0.90144 0.73094 0.40688 0.0
C1346 C 0.88444 0.80616 0.3983 0.0
C1347 C 0.88347 0.7898 0.38224 0.0
C1348 C 0.89598 0.7469 0.37851 0.0
C1349 C 0.90457 0.71782 0.39089 0.0
C1350 C 0.87163 0.85194 0.4027 0.0
C1351 C 0.89625 0.72882 0.36148 0.0
H1352 H 0.74126 0.76114 0.34769 0.0
H1353 H 0.9065 0.89878 0.33728 0.0
H1354 H 0.77077 0.69481 0.37469 0.0
H1355 H 0.76776 0.74259 0.38869 0.0
H1356 H 0.71801 0.71502 0.37246 0.0
H1357 H 0.98037 0.93123 0.35656 0.0
H1358 H 0.96695 0.90067 0.37631 0.0
H1359 H 0.98127 0.867 0.36014 0.0
H1360 H 0.89157 0.7872 0.42284 0.0
H1361 H 0.91165 0.6833 0.38803 0.0
H1362 H 0.82572 0.83545 0.4016 0.0
H1363 H 0.89315 0.88835 0.39447 0.0
H1364 H 0.88444 0.86679 0.41515 0.0
H1365 H 0.85272 0.7074 0.3567 0.0
H1366 H 0.91294 0.69945 0.36052 0.0
H1367 H 0.92203 0.76597 0.35381 0.0
loop_
_geom_bond_atom_site_label_1
_geom_bond_atom_site_label_2
_geom_bond_distance
_geom_bond_site_symmetry_2
_ccdc_geom_bond_type
Co0 O3 1.970 . S
Co0 N17 1.989 . S
Co0 O25 1.967 . S
Co0 O32 1.920 . S
Co1 O4 1.966 . S
Co1 N10 2.022 . S
Co1 N18 1.993 . S
Co1 O26 1.941 . S
C2 O3 1.258 . S
C2 O4 1.263 . S
O3 Co0 1.970 . S
O3 C2 1.258 . S
O4 Co1 1.966 . S
O4 C2 1.263 . S
C5 O6 1.235 . S
C5 O32 1.289 . S
O6 C5 1.235 . S
C7 C9 1.400 . S
C7 N10 1.351 . S
C7 C12 1.501 . S
C8 C9 1.387 1_565 S
C8 N11 1.341 1_565 S
C9 C7 1.400 . S
C9 C8 1.387 1_545 S
N10 Co1 2.022 . S
N10 C7 1.351 . S
N10 N11 1.365 . S
N11 C8 1.341 1_545 S
N11 N10 1.365 . S
N11 H31 0.865 . S
C12 C7 1.501 . S
C12 H13 0.961 . S
C12 H14 0.961 . S
C12 H15 0.960 . S
H13 C12 0.961 . S
H14 C12 0.961 . S
H15 C12 0.960 . S
C16 N17 1.342 . S
C16 C20 1.401 . S
C16 C21 1.499 . S
N17 Co0 1.989 . S
N17 C16 1.342 . S
N17 N18 1.388 . S
N18 Co1 1.993 . S
N18 N17 1.388 . S
N18 C19 1.346 . S
C19 N18 1.346 . S
C19 C20 1.396 . S
C19 C29 1.510 . S
C20 C16 1.401 . S
C20 C19 1.396 . S
C21 C16 1.499 . S
C21 H22 0.959 . S
C21 H23 0.960 . S
C21 H24 0.961 . S
H22 C21 0.959 . S
H23 C21 0.960 . S
H24 C21 0.961 . S
O25 Co0 1.967 . S
O25 C33 1.258 . S
O26 Co1 1.941 . S
O26 C33 1.266 . S
H27 C29 0.959 1_565 S
H28 C29 0.961 . S
C29 C19 1.510 . S
C29 H27 0.959 1_545 S
C29 H28 0.961 . S
C29 H30 0.960 . S
H30 C29 0.960 . S
H31 N11 0.865 . S
O32 Co0 1.920 . S
O32 C5 1.289 . S
C33 O25 1.258 . S
C33 O26 1.266 . S
Co34 O37 1.970 . S
Co34 N51 1.989 . S
Co34 O59 1.967 . S
Co34 O66 1.920 . S
Co35 O38 1.966 . S
Co35 N44 2.022 . S
Co35 N52 1.993 . S
Co35 O60 1.941 . S
C36 O37 1.258 . S
C36 O38 1.263 . S
O37 Co34 1.970 . S
O37 C36 1.258 . S
O38 Co35 1.966 . S
O38 C36 1.263 . S
C39 O40 1.235 . S
C39 O66 1.289 . S
O40 C39 1.235 . S
C41 C43 1.400 . S
C41 N44 1.351 . S
C41 C46 1.501 . S
C42 C43 1.387 . S
C42 N45 1.341 . S
C43 C41 1.400 . S
C43 C42 1.387 . S
N44 Co35 2.022 . S
N44 C41 1.351 . S
N44 N45 1.365 . S
N45 C42 1.341 . S
N45 N44 1.365 . S
N45 H65 0.862 . S
C46 C41 1.501 . S
C46 H47 0.961 . S
C46 H48 0.961 . S
C46 H49 0.960 . S
H47 C46 0.961 . S
H48 C46 0.961 . S
H49 C46 0.960 . S
C50 N51 1.342 . S
C50 C54 1.401 . S
C50 C55 1.499 . S
N51 Co34 1.989 . S
N51 C50 1.342 . S
N51 N52 1.388 . S
N52 Co35 1.993 . S
N52 N51 1.388 . S
N52 C53 1.346 . S
C53 N52 1.346 . S
C53 C54 1.396 . S
C53 C63 1.510 . S
C54 C50 1.401 . S
C54 C53 1.396 . S
C55 C50 1.499 . S
C55 H56 0.959 . S
C55 H57 0.960 . S
C55 H58 0.961 . S
H56 C55 0.959 . S
H57 C55 0.960 . S
H58 C55 0.961 . S
O59 Co34 1.967 . S
O59 C67 1.258 . S
O60 Co35 1.941 . S
O60 C67 1.266 . S
H61 C63 0.959 . S
H62 C63 0.961 . S
C63 C53 1.510 . S
C63 H61 0.959 . S
C63 H62 0.961 . S
C63 H64 0.960 . S
H64 C63 0.960 . S
H65 N45 0.862 . S
O66 Co34 1.920 . S
O66 C39 1.289 . S
C67 O59 1.258 . S
C67 O60 1.266 . S
Co68 O71 1.970 . S
Co68 N85 1.989 . S
Co68 O93 1.967 . S
Co68 O100 1.920 . S
Co69 O72 1.966 . S
Co69 N78 2.022 . S
Co69 N86 1.993 . S
Co69 O94 1.941 . S
C70 O71 1.258 . S
C70 O72 1.263 . S
O71 Co68 1.970 . S
O71 C70 1.258 . S
O72 Co69 1.966 . S
O72 C70 1.263 . S
C73 O74 1.235 . S
C73 O100 1.289 . S
O74 C73 1.235 . S
C75 C77 1.400 . S
C75 N78 1.351 . S
C75 C80 1.501 . S
C76 C77 1.387 1_455 S
C76 N79 1.341 1_455 S
C77 C75 1.400 . S
C77 C76 1.387 1_655 S
N78 Co69 2.022 . S
N78 C75 1.351 . S
N78 N79 1.365 . S
N79 C76 1.341 1_655 S
N79 N78 1.365 . S
N79 H99 0.862 . S
C80 C75 1.501 . S
C80 H81 0.961 . S
C80 H82 0.961 . S
C80 H83 0.960 . S
H81 C80 0.961 . S
H82 C80 0.961 . S
H83 C80 0.960 . S
C84 N85 1.342 . S
C84 C88 1.401 . S
C84 C89 1.499 . S
N85 Co68 1.989 . S
N85 C84 1.342 . S
N85 N86 1.388 . S
N86 Co69 1.993 . S
N86 N85 1.388 . S
N86 C87 1.346 . S
C87 N86 1.346 . S
C87 C88 1.396 . S
C87 C97 1.510 . S
C88 C84 1.401 . S
C88 C87 1.396 . S
C89 C84 1.499 . S
C89 H90 0.959 . S
C89 H91 0.960 . S
C89 H92 0.961 . S
H90 C89 0.959 . S
H91 C89 0.960 . S
H92 C89 0.961 . S
O93 Co68 1.967 . S
O93 C101 1.258 . S
O94 Co69 1.941 . S
O94 C101 1.266 . S
H95 C97 0.959 1_455 S
H96 C97 0.961 . S
C97 C87 1.510 . S
C97 H95 0.959 1_655 S
C97 H96 0.961 . S
C97 H98 0.960 . S
H98 C97 0.960 . S
H99 N79 0.862 . S
O100 Co68 1.920 . S
O100 C73 1.289 . S
C101 O93 1.258 . S
C101 O94 1.266 . S
Co102 O105 1.970 . S
Co102 N119 1.989 . S
Co102 O127 1.967 . S
Co102 O134 1.920 . S
Co103 O106 1.966 . S
Co103 N112 2.022 . S
Co103 N120 1.993 . S
Co103 O128 1.941 . S
C104 O105 1.258 . S
C104 O106 1.263 . S
O105 Co102 1.970 . S
O105 C104 1.258 . S
O106 Co103 1.966 . S
O106 C104 1.263 . S
C107 O108 1.235 . S
C107 O134 1.289 . S
O108 C107 1.235 . S
C109 C111 1.400 . S
C109 N112 1.351 . S
C109 C114 1.501 . S
C110 C111 1.387 . S
C110 N113 1.341 . S
C111 C109 1.400 . S
C111 C110 1.387 . S
N112 Co103 2.022 . S
N112 C109 1.351 . S
N112 N113 1.365 . S
N113 C110 1.341 . S
N113 N112 1.365 . S
N113 H133 0.862 . S
C114 C109 1.501 . S
C114 H115 0.961 . S
C114 H116 0.961 . S
C114 H117 0.960 . S
H115 C114 0.961 . S
H116 C114 0.961 . S
H117 C114 0.960 . S
C118 N119 1.342 . S
C118 C122 1.401 . S
C118 C123 1.499 . S
N119 Co102 1.989 . S
N119 C118 1.342 . S
N119 N120 1.388 . S
N120 Co103 1.993 . S
N120 N119 1.388 . S
N120 C121 1.346 . S
C121 N120 1.346 . S
C121 C122 1.396 . S
C121 C131 1.510 . S
C122 C118 1.401 . S
C122 C121 1.396 . S
C123 C118 1.499 . S
C123 H124 0.959 . S
C123 H125 0.960 . S
C123 H126 0.961 . S
H124 C123 0.959 . S
H125 C123 0.960 . S
H126 C123 0.961 . S
O127 Co102 1.967 . S
O127 C135 1.258 . S
O128 Co103 1.941 . S
O128 C135 1.266 . S
H129 C131 0.959 1_545 S
H130 C131 0.961 . S
C131 C121 1.510 . S
C131 H129 0.959 1_565 S
C131 H130 0.961 . S
C131 H132 0.960 . S
H132 C131 0.960 . S
H133 N113 0.862 . S
O134 Co102 1.920 . S
O134 C107 1.289 . S
C135 O127 1.258 . S
C135 O128 1.266 . S
Co136 O139 1.970 . S
Co136 N153 1.989 . S
Co136 O161 1.967 . S
Co136 O168 1.920 . S
Co137 O140 1.966 . S
Co137 N146 2.022 . S
Co137 N154 1.993 . S
Co137 O162 1.941 1_556 S
C138 O139 1.258 1_556 S
C138 O140 1.263 . S
O139 Co136 1.970 . S
O139 C138 1.258 1_554 S
O140 Co137 1.966 . S
O140 C138 1.263 . S
C141 O142 1.235 . S
C141 O168 1.289 . S
O142 C141 1.235 . S
C143 C145 1.400 . S
C143 N146 1.351 . S
C143 C148 1.501 . S
C144 C145 1.387 . S
C144 N147 1.341 . S
C145 C143 1.400 . S
C145 C144 1.387 . S
N146 Co137 2.022 . S
N146 C143 1.351 . S
N146 N147 1.365 . S
N147 C144 1.341 . S
N147 N146 1.365 . S
N147 H167 0.862 . S
C148 C143 1.501 . S
C148 H149 0.961 . S
C148 H150 0.961 . S
C148 H151 0.960 . S
H149 C148 0.961 . S
H150 C148 0.961 . S
H151 C148 0.960 . S
C152 N153 1.342 . S
C152 C156 1.401 . S
C152 C157 1.499 . S
N153 Co136 1.989 . S
N153 C152 1.342 . S
N153 N154 1.388 1_554 S
N154 Co137 1.993 . S
N154 N153 1.388 1_556 S
N154 C155 1.346 . S
C155 N154 1.346 . S
C155 C156 1.396 1_556 S
C155 C165 1.510 . S
C156 C152 1.401 . S
C156 C155 1.396 1_554 S
C157 C152 1.499 . S
C157 H158 0.959 . S
C157 H159 0.960 . S
C157 H160 0.961 . S
H158 C157 0.959 . S
H159 C157 0.960 . S
H160 C157 0.961 . S
O161 Co136 1.967 . S
O161 C169 1.258 . S
O162 Co137 1.941 1_554 S
O162 C169 1.266 . S
H163 C165 0.959 . S
H164 C165 0.961 . S
C165 C155 1.510 . S
C165 H163 0.959 . S
C165 H164 0.961 . S
C165 H166 0.960 . S
H166 C165 0.960 . S
H167 N147 0.862 . S
O168 Co136 1.920 . S
O168 C141 1.289 . S
C169 O161 1.258 . S
C169 O162 1.266 . S
Co170 O173 1.970 . S
Co170 N187 1.989 . S
Co170 O195 1.967 . S
Co170 O202 1.920 . S
Co171 O174 1.966 . S
Co171 N180 2.022 . S
Co171 N188 1.993 . S
Co171 O196 1.941 . S
C172 O173 1.258 . S
C172 O174 1.263 . S
O173 Co170 1.970 . S
O173 C172 1.258 . S
O174 Co171 1.966 . S
O174 C172 1.263 . S
C175 O176 1.235 . S
C175 O202 1.289 . S
O176 C175 1.235 . S
C177 C179 1.400 . S
C177 N180 1.351 . S
C177 C182 1.501 . S
C178 C179 1.387 . S
C178 N181 1.341 . S
C179 C177 1.400 . S
C179 C178 1.387 . S
N180 Co171 2.022 . S
N180 C177 1.351 . S
N180 N181 1.365 . S
N181 C178 1.341 . S
N181 N180 1.365 . S
N181 H201 0.862 . S
C182 C177 1.501 . S
C182 H183 0.961 . S
C182 H184 0.961 . S
C182 H185 0.960 . S
H183 C182 0.961 . S
H184 C182 0.961 . S
H185 C182 0.960 . S
C186 N187 1.342 . S
C186 C190 1.401 . S
C186 C191 1.499 . S
N187 Co170 1.989 . S
N187 C186 1.342 . S
N187 N188 1.388 . S
N188 Co171 1.993 . S
N188 N187 1.388 . S
N188 C189 1.346 . S
C189 N188 1.346 . S
C189 C190 1.396 . S
C189 C199 1.510 . S
C190 C186 1.401 . S
C190 C189 1.396 . S
C191 C186 1.499 . S
C191 H192 0.959 . S
C191 H193 0.960 . S
C191 H194 0.961 . S
H192 C191 0.959 . S
H193 C191 0.960 . S
H194 C191 0.961 . S
O195 Co170 1.967 . S
O195 C203 1.258 . S
O196 Co171 1.941 . S
O196 C203 1.266 . S
H197 C199 0.959 1_655 S
H198 C199 0.961 . S
C199 C189 1.510 . S
C199 H197 0.959 1_455 S
C199 H198 0.961 . S
C199 H200 0.960 . S
H200 C199 0.960 . S
H201 N181 0.862 . S
O202 Co170 1.920 . S
O202 C175 1.289 . S
C203 O195 1.258 . S
C203 O196 1.266 . S
Co204 O207 1.970 . S
Co204 N221 1.989 . S
Co204 O229 1.967 . S
Co204 O236 1.920 . S
Co205 O208 1.966 . S
Co205 N214 2.022 . S
Co205 N222 1.993 . S
Co205 O230 1.941 . S
C206 O207 1.258 . S
C206 O208 1.263 . S
O207 Co204 1.970 . S
O207 C206 1.258 . S
O208 Co205 1.966 . S
O208 C206 1.263 . S
C209 O210 1.235 . S
C209 O236 1.289 . S
O210 C209 1.235 . S
C211 C213 1.400 . S
C211 N214 1.351 . S
C211 C216 1.501 . S
C212 C213 1.387 1_455 S
C212 N215 1.341 1_455 S
C213 C211 1.400 . S
C213 C212 1.387 1_655 S
N214 Co205 2.022 . S
N214 C211 1.351 . S
N214 N215 1.365 . S
N215 C212 1.341 1_655 S
N215 N214 1.365 . S
N215 H235 0.862 . S
C216 C211 1.501 . S
C216 H217 0.961 . S
C216 H218 0.961 . S
C216 H219 0.960 . S
H217 C216 0.961 . S
H218 C216 0.961 . S
H219 C216 0.960 . S
C220 N221 1.342 . S
C220 C224 1.401 . S
C220 C225 1.499 . S
N221 Co204 1.989 . S
N221 C220 1.342 . S
N221 N222 1.388 . S
N222 Co205 1.993 . S
N222 N221 1.388 . S
N222 C223 1.346 . S
C223 N222 1.346 . S
C223 C224 1.396 . S
C223 C233 1.510 . S
C224 C220 1.401 . S
C224 C223 1.396 . S
C225 C220 1.499 . S
C225 H226 0.959 . S
C225 H227 0.960 . S
C225 H228 0.961 . S
H226 C225 0.959 . S
H227 C225 0.960 . S
H228 C225 0.961 . S
O229 Co204 1.967 . S
O229 C237 1.258 . S
O230 Co205 1.941 . S
O230 C237 1.266 . S
H231 C233 0.959 1_455 S
H232 C233 0.961 . S
C233 C223 1.510 . S
C233 H231 0.959 1_655 S
C233 H232 0.961 . S
C233 H234 0.960 . S
H234 C233 0.960 . S
H235 N215 0.862 . S
O236 Co204 1.920 . S
O236 C209 1.289 . S
C237 O229 1.258 . S
C237 O230 1.266 . S
Co238 O241 1.970 . S
Co238 N255 1.989 . S
Co238 O263 1.967 . S
Co238 O270 1.920 . S
Co239 O242 1.966 . S
Co239 N248 2.022 . S
Co239 N256 1.993 . S
Co239 O264 1.941 . S
C240 O241 1.258 . S
C240 O242 1.263 . S
O241 Co238 1.970 . S
O241 C240 1.258 . S
O242 Co239 1.966 . S
O242 C240 1.263 . S
C243 O244 1.235 . S
C243 O270 1.289 . S
O244 C243 1.235 . S
C245 C247 1.400 . S
C245 N248 1.351 . S
C245 C250 1.501 . S
C246 C247 1.387 . S
C246 N249 1.341 . S
C247 C245 1.400 . S
C247 C246 1.387 . S
N248 Co239 2.022 . S
N248 C245 1.351 . S
N248 N249 1.365 . S
N249 C246 1.341 . S
N249 N248 1.365 . S
N249 H269 0.862 . S
C250 C245 1.501 . S
C250 H251 0.961 . S
C250 H252 0.961 . S
C250 H253 0.960 . S
H251 C250 0.961 . S
H252 C250 0.961 . S
H253 C250 0.960 . S
C254 N255 1.342 . S
C254 C258 1.401 . S
C254 C259 1.499 . S
N255 Co238 1.989 . S
N255 C254 1.342 . S
N255 N256 1.388 . S
N256 Co239 1.993 . S
N256 N255 1.388 . S
N256 C257 1.346 . S
C257 N256 1.346 . S
C257 C258 1.396 . S
C257 C267 1.510 . S
C258 C254 1.401 . S
C258 C257 1.396 . S
C259 C254 1.499 . S
C259 H260 0.959 . S
C259 H261 0.960 . S
C259 H262 0.961 . S
H260 C259 0.959 . S
H261 C259 0.960 . S
H262 C259 0.961 . S
O263 Co238 1.967 . S
O263 C271 1.258 . S
O264 Co239 1.941 . S
O264 C271 1.266 . S
H265 C267 0.959 1_545 S
H266 C267 0.961 . S
C267 C257 1.510 . S
C267 H265 0.959 1_565 S
C267 H266 0.961 . S
C267 H268 0.960 . S
H268 C267 0.960 . S
H269 N249 0.862 . S
O270 Co238 1.920 . S
O270 C243 1.289 . S
C271 O263 1.258 . S
C271 O264 1.266 . S
Co272 O275 1.970 . S
Co272 N289 1.989 . S
Co272 O297 1.967 . S
Co272 O304 1.920 . S
Co273 O276 1.966 . S
Co273 N282 2.022 . S
Co273 N290 1.993 . S
Co273 O298 1.941 . S
C274 O275 1.258 . S
C274 O276 1.263 . S
O275 Co272 1.970 . S
O275 C274 1.258 . S
O276 Co273 1.966 . S
O276 C274 1.263 . S
C277 O278 1.235 . S
C277 O304 1.289 . S
O278 C277 1.235 . S
C279 C281 1.400 . S
C279 N282 1.351 . S
C279 C284 1.501 . S
C280 C281 1.387 . S
C280 N283 1.341 . S
C281 C279 1.400 . S
C281 C280 1.387 . S
N282 Co273 2.022 . S
N282 C279 1.351 . S
N282 N283 1.365 . S
N283 C280 1.341 . S
N283 N282 1.365 . S
N283 H303 0.862 . S
C284 C279 1.501 . S
C284 H285 0.961 . S
C284 H286 0.961 . S
C284 H287 0.960 . S
H285 C284 0.961 . S
H286 C284 0.961 . S
H287 C284 0.960 . S
C288 N289 1.342 . S
C288 C292 1.401 . S
C288 C293 1.499 . S
N289 Co272 1.989 . S
N289 C288 1.342 . S
N289 N290 1.388 . S
N290 Co273 1.993 . S
N290 N289 1.388 . S
N290 C291 1.346 . S
C291 N290 1.346 . S
C291 C292 1.396 . S
C291 C301 1.510 . S
C292 C288 1.401 . S
C292 C291 1.396 . S
C293 C288 1.499 . S
C293 H294 0.959 . S
C293 H295 0.960 . S
C293 H296 0.961 . S
H294 C293 0.959 . S
H295 C293 0.960 . S
H296 C293 0.961 . S
O297 Co272 1.967 . S
O297 C305 1.258 . S
O298 Co273 1.941 . S
O298 C305 1.266 . S
H299 C301 0.959 . S
H300 C301 0.961 . S
C301 C291 1.510 . S
C301 H299 0.959 . S
C301 H300 0.961 . S
C301 H302 0.960 . S
H302 C301 0.960 . S
H303 N283 0.862 . S
O304 Co272 1.920 . S
O304 C277 1.289 . S
C305 O297 1.258 . S
C305 O298 1.266 . S
Co306 O309 1.970 . S
Co306 N323 1.989 . S
Co306 O331 1.967 . S
Co306 O338 1.920 . S
Co307 O310 1.966 . S
Co307 N316 2.022 . S
Co307 N324 1.993 . S
Co307 O332 1.941 . S
C308 O309 1.258 . S
C308 O310 1.263 . S
O309 Co306 1.970 . S
O309 C308 1.258 . S
O310 Co307 1.966 . S
O310 C308 1.263 . S
C311 O312 1.235 . S
C311 O338 1.289 . S
O312 C311 1.235 . S
C313 C315 1.400 . S
C313 N316 1.351 1_554 S
C313 C318 1.501 . S
C314 C315 1.387 . S
C314 N317 1.341 1_554 S
C315 C313 1.400 . S
C315 C314 1.387 . S
N316 Co307 2.022 . S
N316 C313 1.351 1_556 S
N316 N317 1.365 . S
N317 C314 1.341 1_556 S
N317 N316 1.365 . S
N317 H337 0.862 . S
C318 C313 1.501 . S
C318 H319 0.961 . S
C318 H320 0.961 . S
C318 H321 0.960 . S
H319 C318 0.961 . S
H320 C318 0.961 . S
H321 C318 0.960 . S
C322 N323 1.342 . S
C322 C326 1.401 . S
C322 C327 1.499 . S
N323 Co306 1.989 . S
N323 C322 1.342 . S
N323 N324 1.388 . S
N324 Co307 1.993 . S
N324 N323 1.388 . S
N324 C325 1.346 . S
C325 N324 1.346 . S
C325 C326 1.396 . S
C325 C335 1.510 . S
C326 C322 1.401 . S
C326 C325 1.396 . S
C327 C322 1.499 . S
C327 H328 0.959 . S
C327 H329 0.960 . S
C327 H330 0.961 . S
H328 C327 0.959 . S
H329 C327 0.960 . S
H330 C327 0.961 . S
O331 Co306 1.967 . S
O331 C339 1.258 . S
O332 Co307 1.941 . S
O332 C339 1.266 . S
H333 C335 0.959 1_655 S
H334 C335 0.961 . S
C335 C325 1.510 . S
C335 H333 0.959 1_455 S
C335 H334 0.961 . S
C335 H336 0.960 . S
H336 C335 0.960 . S
H337 N317 0.862 . S
O338 Co306 1.920 . S
O338 C311 1.289 . S
C339 O331 1.258 . S
C339 O332 1.266 . S
Co340 O343 1.970 . S
Co340 N357 1.989 . S
Co340 O365 1.967 . S
Co340 O372 1.920 . S
Co341 O344 1.966 . S
Co341 N350 2.022 . S
Co341 N358 1.993 . S
Co341 O366 1.941 . S
C342 O343 1.258 . S
C342 O344 1.263 . S
O343 Co340 1.970 . S
O343 C342 1.258 . S
O344 Co341 1.966 . S
O344 C342 1.263 . S
C345 O346 1.235 . S
C345 O372 1.289 . S
O346 C345 1.235 . S
C347 C349 1.400 . S
C347 N350 1.351 . S
C347 C352 1.501 . S
C348 C349 1.387 1_565 S
C348 N351 1.341 1_565 S
C349 C347 1.400 . S
C349 C348 1.387 1_545 S
N350 Co341 2.022 . S
N350 C347 1.351 . S
N350 N351 1.365 . S
N351 C348 1.341 1_545 S
N351 N350 1.365 . S
N351 H371 0.866 . S
C352 C347 1.501 . S
C352 H353 0.961 . S
C352 H354 0.961 . S
C352 H355 0.960 . S
H353 C352 0.961 . S
H354 C352 0.961 . S
H355 C352 0.960 . S
C356 N357 1.342 . S
C356 C360 1.401 . S
C356 C361 1.499 . S
N357 Co340 1.989 . S
N357 C356 1.342 . S
N357 N358 1.388 . S
N358 Co341 1.993 . S
N358 N357 1.388 . S
N358 C359 1.346 . S
C359 N358 1.346 . S
C359 C360 1.396 . S
C359 C369 1.510 . S
C360 C356 1.401 . S
C360 C359 1.396 . S
C361 C356 1.499 . S
C361 H362 0.959 . S
C361 H363 0.960 . S
C361 H364 0.961 . S
H362 C361 0.959 . S
H363 C361 0.960 . S
H364 C361 0.961 . S
O365 Co340 1.967 . S
O365 C373 1.258 . S
O366 Co341 1.941 . S
O366 C373 1.266 . S
H367 C369 0.959 1_565 S
H368 C369 0.961 . S
C369 C359 1.510 . S
C369 H367 0.959 1_545 S
C369 H368 0.961 . S
C369 H370 0.960 . S
H370 C369 0.960 . S
H371 N351 0.866 . S
O372 Co340 1.920 . S
O372 C345 1.289 . S
C373 O365 1.258 . S
C373 O366 1.266 . S
Co374 O377 1.970 . S
Co374 N391 1.989 . S
Co374 O399 1.967 . S
Co374 O406 1.920 . S
Co375 O378 1.966 . S
Co375 N384 2.022 . S
Co375 N392 1.993 . S
Co375 O400 1.941 . S
C376 O377 1.258 . S
C376 O378 1.263 . S
O377 Co374 1.970 . S
O377 C376 1.258 . S
O378 Co375 1.966 . S
O378 C376 1.263 . S
C379 O380 1.235 . S
C379 O406 1.289 . S
O380 C379 1.235 . S
C381 C383 1.400 . S
C381 N384 1.351 . S
C381 C386 1.501 . S
C382 C383 1.387 . S
C382 N385 1.341 . S
C383 C381 1.400 . S
C383 C382 1.387 . S
N384 Co375 2.022 . S
N384 C381 1.351 . S
N384 N385 1.365 . S
N385 C382 1.341 . S
N385 N384 1.365 . S
N385 H405 0.862 . S
C386 C381 1.501 . S
C386 H387 0.961 . S
C386 H388 0.961 . S
C386 H389 0.960 . S
H387 C386 0.961 . S
H388 C386 0.961 . S
H389 C386 0.960 . S
C390 N391 1.342 . S
C390 C394 1.401 . S
C390 C395 1.499 . S
N391 Co374 1.989 . S
N391 C390 1.342 . S
N391 N392 1.388 . S
N392 Co375 1.993 . S
N392 N391 1.388 . S
N392 C393 1.346 . S
C393 N392 1.346 . S
C393 C394 1.396 . S
C393 C403 1.510 . S
C394 C390 1.401 . S
C394 C393 1.396 . S
C395 C390 1.499 . S
C395 H396 0.959 . S
C395 H397 0.960 . S
C395 H398 0.961 . S
H396 C395 0.959 . S
H397 C395 0.960 . S
H398 C395 0.961 . S
O399 Co374 1.967 . S
O399 C407 1.258 . S
O400 Co375 1.941 . S
O400 C407 1.266 . S
H401 C403 0.959 . S
H402 C403 0.961 . S
C403 C393 1.510 . S
C403 H401 0.959 . S
C403 H402 0.961 . S
C403 H404 0.960 . S
H404 C403 0.960 . S
H405 N385 0.862 . S
O406 Co374 1.920 . S
O406 C379 1.289 . S
C407 O399 1.258 . S
C407 O400 1.266 . S
C408 C409 1.391 . S
C408 C410 1.394 . S
C408 H424 0.931 . S
C409 C408 1.391 . S
C409 C413 1.376 1_545 S
C410 C408 1.394 . S
C410 C411 1.369 1_545 S
C410 C414 1.531 . S
C411 C410 1.369 1_565 S
C411 C412 1.410 . S
C411 C419 1.503 . S
C412 C411 1.410 . S
C412 C413 1.392 . S
C412 C415 1.511 . S
C413 C409 1.376 1_565 S
C413 C412 1.392 . S
C413 H425 0.929 . S
C414 C410 1.531 . S
C414 H426 0.960 . S
C414 H427 0.962 . S
C414 H428 0.960 . S
C415 C412 1.511 . S
C415 H429 0.961 . S
C415 H430 0.961 . S
C415 H431 0.961 . S
C416 C417 1.370 . S
C416 C418 1.363 . S
C416 H432 0.931 . S
C417 C416 1.370 . S
C417 C421 1.408 . S
C418 C416 1.363 . S
C418 C419 1.370 . S
C418 C422 1.524 . S
C419 C411 1.503 . S
C419 C418 1.370 . S
C419 C420 1.403 . S
C420 C419 1.403 . S
C420 C421 1.404 . S
C420 C423 1.539 1_565 S
C421 C417 1.408 . S
C421 C420 1.404 . S
C421 H433 0.930 . S
C422 C418 1.524 . S
C422 H434 0.956 . S
C422 H435 0.961 . S
C422 H436 0.961 . S
C423 C420 1.539 1_545 S
C423 H437 0.958 . S
C423 H438 0.961 . S
C423 H439 0.960 . S
H424 C408 0.931 . S
H425 C413 0.929 . S
H426 C414 0.960 . S
H427 C414 0.962 . S
H428 C414 0.960 . S
H429 C415 0.961 . S
H430 C415 0.961 . S
H431 C415 0.961 . S
H432 C416 0.931 . S
H433 C421 0.930 . S
H434 C422 0.956 . S
H435 C422 0.961 . S
H436 C422 0.961 . S
H437 C423 0.958 . S
H438 C423 0.961 . S
H439 C423 0.960 . S
C440 C441 1.391 . S
C440 C442 1.394 . S
C440 H456 0.931 . S
C441 C440 1.391 . S
C441 C445 1.376 . S
C442 C440 1.394 . S
C442 C443 1.369 . S
C442 C446 1.531 . S
C443 C442 1.369 . S
C443 C444 1.410 . S
C443 C451 1.503 . S
C444 C443 1.410 . S
C444 C445 1.392 . S
C444 C447 1.511 . S
C445 C441 1.376 . S
C445 C444 1.392 . S
C445 H457 0.929 . S
C446 C442 1.531 . S
C446 H458 0.960 . S
C446 H459 0.962 . S
C446 H460 0.960 . S
C447 C444 1.511 . S
C447 H461 0.961 . S
C447 H462 0.961 . S
C447 H463 0.961 . S
C448 C449 1.370 . S
C448 C450 1.363 . S
C448 H464 0.931 . S
C449 C448 1.370 . S
C449 C453 1.408 . S
C450 C448 1.363 . S
C450 C451 1.370 . S
C450 C454 1.524 . S
C451 C443 1.503 . S
C451 C450 1.370 . S
C451 C452 1.403 . S
C452 C451 1.403 . S
C452 C453 1.404 . S
C452 C455 1.539 . S
C453 C449 1.408 . S
C453 C452 1.404 . S
C453 H465 0.930 . S
C454 C450 1.524 . S
C454 H466 0.956 . S
C454 H467 0.961 . S
C454 H468 0.961 . S
C455 C452 1.539 . S
C455 H469 0.958 . S
C455 H470 0.961 . S
C455 H471 0.960 . S
H456 C440 0.931 . S
H457 C445 0.929 . S
H458 C446 0.960 . S
H459 C446 0.962 . S
H460 C446 0.960 . S
H461 C447 0.961 . S
H462 C447 0.961 . S
H463 C447 0.961 . S
H464 C448 0.931 . S
H465 C453 0.930 . S
H466 C454 0.956 . S
H467 C454 0.961 . S
H468 C454 0.961 . S
H469 C455 0.958 . S
H470 C455 0.961 . S
H471 C455 0.960 . S
C472 C473 1.391 . S
C472 C474 1.394 . S
C472 H488 0.931 . S
C473 C472 1.391 . S
C473 C477 1.376 . S
C474 C472 1.394 . S
C474 C475 1.369 . S
C474 C478 1.531 . S
C475 C474 1.369 . S
C475 C476 1.410 . S
C475 C483 1.503 . S
C476 C475 1.410 . S
C476 C477 1.392 . S
C476 C479 1.511 1_455 S
C477 C473 1.376 . S
C477 C476 1.392 . S
C477 H489 0.929 . S
C478 C474 1.531 . S
C478 H490 0.960 . S
C478 H491 0.962 . S
C478 H492 0.960 . S
C479 C476 1.511 1_655 S
C479 H493 0.961 1_655 S
C479 H494 0.963 . S
C479 H495 0.961 . S
C480 C481 1.370 1_455 S
C480 C482 1.363 . S
C480 H496 0.931 . S
C481 C480 1.370 1_655 S
C481 C485 1.408 . S
C482 C480 1.363 . S
C482 C483 1.370 . S
C482 C486 1.524 . S
C483 C475 1.503 . S
C483 C482 1.370 . S
C483 C484 1.403 1_455 S
C484 C483 1.403 1_655 S
C484 C485 1.404 . S
C484 C487 1.539 . S
C485 C481 1.408 . S
C485 C484 1.404 . S
C485 H497 0.930 . S
C486 C482 1.524 . S
C486 H498 0.956 . S
C486 H499 0.961 . S
C486 H500 0.961 . S
C487 C484 1.539 . S
C487 H501 0.958 . S
C487 H502 0.961 . S
C487 H503 0.960 . S
H488 C472 0.931 . S
H489 C477 0.929 . S
H490 C478 0.960 . S
H491 C478 0.962 . S
H492 C478 0.960 . S
H493 C479 0.961 1_455 S
H494 C479 0.963 . S
H495 C479 0.961 . S
H496 C480 0.931 . S
H497 C485 0.930 . S
H498 C486 0.956 . S
H499 C486 0.961 . S
H500 C486 0.961 . S
H501 C487 0.958 . S
H502 C487 0.961 . S
H503 C487 0.960 . S
C504 C505 1.391 . S
C504 C506 1.394 1_545 S
C504 H520 0.931 1_545 S
C505 C504 1.391 . S
C505 C509 1.376 . S
C506 C504 1.394 1_565 S
C506 C507 1.369 1_565 S
C506 C510 1.531 . S
C507 C506 1.369 1_545 S
C507 C508 1.410 . S
C507 C515 1.503 . S
C508 C507 1.410 . S
C508 C509 1.392 . S
C508 C511 1.511 . S
C509 C505 1.376 . S
C509 C508 1.392 . S
C509 H521 0.929 . S
C510 C506 1.531 . S
C510 H522 0.960 . S
C510 H523 0.962 . S
C510 H524 0.960 . S
C511 C508 1.511 . S
C511 H525 0.961 . S
C511 H526 0.961 . S
C511 H527 0.961 . S
C512 C513 1.370 . S
C512 C514 1.363 . S
C512 H528 0.931 . S
C513 C512 1.370 . S
C513 C517 1.408 . S
C514 C512 1.363 . S
C514 C515 1.370 1_565 S
C514 C518 1.524 1_565 S
C515 C507 1.503 . S
C515 C514 1.370 1_545 S
C515 C516 1.403 1_545 S
C516 C515 1.403 1_565 S
C516 C517 1.404 . S
C516 C519 1.539 . S
C517 C513 1.408 . S
C517 C516 1.404 . S
C517 H529 0.930 . S
C518 C514 1.524 1_545 S
C518 H530 0.956 1_545 S
C518 H531 0.961 . S
C518 H532 0.961 . S
C519 C516 1.539 . S
C519 H533 0.958 . S
C519 H534 0.961 1_565 S
C519 H535 0.960 1_565 S
H520 C504 0.931 1_565 S
H521 C509 0.929 . S
H522 C510 0.960 . S
H523 C510 0.962 . S
H524 C510 0.960 . S
H525 C511 0.961 . S
H526 C511 0.961 . S
H527 C511 0.961 . S
H528 C512 0.931 . S
H529 C517 0.930 . S
H530 C518 0.956 1_565 S
H531 C518 0.961 . S
H532 C518 0.961 . S
H533 C519 0.958 . S
H534 C519 0.961 1_545 S
H535 C519 0.960 1_545 S
C536 C537 1.391 . S
C536 C538 1.394 . S
C536 H552 0.931 . S
C537 C536 1.391 . S
C537 C541 1.376 . S
C538 C536 1.394 . S
C538 C539 1.369 . S
C538 C542 1.531 . S
C539 C538 1.369 . S
C539 C540 1.410 . S
C539 C547 1.503 . S
C540 C539 1.410 . S
C540 C541 1.392 . S
C540 C543 1.511 . S
C541 C537 1.376 . S
C541 C540 1.392 . S
C541 H553 0.929 . S
C542 C538 1.531 . S
C542 H554 0.960 . S
C542 H555 0.962 . S
C542 H556 0.960 . S
C543 C540 1.511 . S
C543 H557 0.961 . S
C543 H558 0.961 . S
C543 H559 0.961 . S
C544 C545 1.370 . S
C544 C546 1.364 1_556 S
C544 H560 0.931 1_556 S
C545 C544 1.370 . S
C545 C549 1.408 . S
C546 C544 1.364 1_554 S
C546 C547 1.377 1_554 S
C546 C550 1.517 . S
C547 C539 1.503 . S
C547 C546 1.377 1_556 S
C547 C548 1.403 . S
C548 C547 1.403 . S
C548 C549 1.404 . S
C548 C551 1.539 . S
C549 C545 1.408 . S
C549 C548 1.404 . S
C549 H561 0.930 . S
C550 C546 1.517 . S
C550 H562 0.956 . S
C550 H563 0.961 . S
C550 H564 0.961 . S
C551 C548 1.539 . S
C551 H565 0.958 . S
C551 H566 0.961 . S
C551 H567 0.960 . S
H552 C536 0.931 . S
H553 C541 0.929 . S
H554 C542 0.960 . S
H555 C542 0.962 . S
H556 C542 0.960 . S
H557 C543 0.961 . S
H558 C543 0.961 . S
H559 C543 0.961 . S
H560 C544 0.931 1_554 S
H561 C549 0.930 . S
H562 C550 0.956 . S
H563 C550 0.961 . S
H564 C550 0.961 . S
H565 C551 0.958 . S
H566 C551 0.961 . S
H567 C551 0.960 . S
C568 C569 1.391 1_655 S
C568 C570 1.394 . S
C568 H584 0.931 . S
C569 C568 1.391 1_455 S
C569 C573 1.376 . S
C570 C568 1.394 . S
C570 C571 1.369 . S
C570 C574 1.531 . S
C571 C570 1.369 . S
C571 C572 1.410 1_655 S
C571 C579 1.503 . S
C572 C571 1.410 1_455 S
C572 C573 1.392 . S
C572 C575 1.511 . S
C573 C569 1.376 . S
C573 C572 1.392 . S
C573 H585 0.929 . S
C574 C570 1.531 . S
C574 H586 0.960 . S
C574 H587 0.962 . S
C574 H588 0.960 . S
C575 C572 1.511 . S
C575 H589 0.961 . S
C575 H590 0.961 . S
C575 H591 0.961 . S
C576 C577 1.370 . S
C576 C578 1.363 . S
C576 H592 0.931 . S
C577 C576 1.370 . S
C577 C581 1.408 . S
C578 C576 1.363 . S
C578 C579 1.370 . S
C578 C582 1.524 . S
C579 C571 1.503 . S
C579 C578 1.370 . S
C579 C580 1.403 . S
C580 C579 1.403 . S
C580 C581 1.404 . S
C580 C583 1.539 1_655 S
C581 C577 1.408 . S
C581 C580 1.404 . S
C581 H593 0.930 . S
C582 C578 1.524 . S
C582 H594 0.956 . S
C582 H595 0.961 . S
C582 H596 0.961 . S
C583 C580 1.539 1_455 S
C583 H597 0.958 1_455 S
C583 H598 0.962 . S
C583 H599 0.960 . S
H584 C568 0.931 . S
H585 C573 0.929 . S
H586 C574 0.960 . S
H587 C574 0.962 . S
H588 C574 0.960 . S
H589 C575 0.961 . S
H590 C575 0.961 . S
H591 C575 0.961 . S
H592 C576 0.931 . S
H593 C581 0.930 . S
H594 C582 0.956 . S
H595 C582 0.961 . S
H596 C582 0.961 . S
H597 C583 0.958 1_655 S
H598 C583 0.962 . S
H599 C583 0.960 . S
C600 C601 1.391 . S
C600 C602 1.394 . S
C600 H616 0.931 . S
C601 C600 1.391 . S
C601 C605 1.376 . S
C602 C600 1.394 . S
C602 C603 1.369 . S
C602 C606 1.531 . S
C603 C602 1.369 . S
C603 C604 1.410 . S
C603 C611 1.503 . S
C604 C603 1.410 . S
C604 C605 1.392 . S
C604 C607 1.511 1_455 S
C605 C601 1.376 . S
C605 C604 1.392 . S
C605 H617 0.929 . S
C606 C602 1.531 . S
C606 H618 0.960 . S
C606 H619 0.962 . S
C606 H620 0.960 . S
C607 C604 1.511 1_655 S
C607 H621 0.961 . S
C607 H622 0.961 . S
C607 H623 0.961 . S
C608 C609 1.370 1_455 S
C608 C610 1.363 . S
C608 H624 0.931 . S
C609 C608 1.370 1_655 S
C609 C613 1.408 . S
C610 C608 1.363 . S
C610 C611 1.370 . S
C610 C614 1.524 . S
C611 C603 1.503 . S
C611 C610 1.370 . S
C611 C612 1.403 1_455 S
C612 C611 1.403 1_655 S
C612 C613 1.404 . S
C612 C615 1.539 . S
C613 C609 1.408 . S
C613 C612 1.404 . S
C613 H625 0.930 . S
C614 C610 1.524 . S
C614 H626 0.956 . S
C614 H627 0.961 . S
C614 H628 0.961 . S
C615 C612 1.539 . S
C615 H629 0.958 . S
C615 H630 0.961 . S
C615 H631 0.960 . S
H616 C600 0.931 . S
H617 C605 0.929 . S
H618 C606 0.960 . S
H619 C606 0.962 . S
H620 C606 0.960 . S
H621 C607 0.961 . S
H622 C607 0.961 . S
H623 C607 0.961 . S
H624 C608 0.931 . S
H625 C613 0.930 . S
H626 C614 0.956 . S
H627 C614 0.961 . S
H628 C614 0.961 . S
H629 C615 0.958 . S
H630 C615 0.961 . S
H631 C615 0.960 . S
C632 C633 1.391 1_545 S
C632 C634 1.394 . S
C632 H648 0.931 . S
C633 C632 1.391 1_565 S
C633 C637 1.376 . S
C634 C632 1.394 . S
C634 C635 1.369 . S
C634 C638 1.531 . S
C635 C634 1.369 . S
C635 C636 1.410 1_545 S
C635 C643 1.503 . S
C636 C635 1.410 1_565 S
C636 C637 1.392 . S
C636 C639 1.511 . S
C637 C633 1.376 . S
C637 C636 1.392 . S
C637 H649 0.929 . S
C638 C634 1.531 . S
C638 H650 0.960 . S
C638 H651 0.962 . S
C638 H652 0.960 . S
C639 C636 1.511 . S
C639 H653 0.961 . S
C639 H654 0.961 . S
C639 H655 0.961 . S
C640 C641 1.370 . S
C640 C642 1.363 . S
C640 H656 0.931 . S
C641 C640 1.370 . S
C641 C645 1.408 . S
C642 C640 1.363 . S
C642 C643 1.370 . S
C642 C646 1.524 . S
C643 C635 1.503 . S
C643 C642 1.370 . S
C643 C644 1.403 . S
C644 C643 1.403 . S
C644 C645 1.404 . S
C644 C647 1.539 . S
C645 C641 1.408 . S
C645 C644 1.404 . S
C645 H657 0.930 . S
C646 C642 1.524 . S
C646 H658 0.956 . S
C646 H659 0.961 1_545 S
C646 H660 0.961 . S
C647 C644 1.539 . S
C647 H661 0.958 . S
C647 H662 0.961 . S
C647 H663 0.960 1_545 S
H648 C632 0.931 . S
H649 C637 0.929 . S
H650 C638 0.960 . S
H651 C638 0.962 . S
H652 C638 0.960 . S
H653 C639 0.961 . S
H654 C639 0.961 . S
H655 C639 0.961 . S
H656 C640 0.931 . S
H657 C645 0.930 . S
H658 C646 0.956 . S
H659 C646 0.961 1_565 S
H660 C646 0.961 . S
H661 C647 0.958 . S
H662 C647 0.961 . S
H663 C647 0.960 1_565 S
C664 C665 1.391 . S
C664 C666 1.394 . S
C664 H680 0.931 . S
C665 C664 1.391 . S
C665 C669 1.376 . S
C666 C664 1.394 . S
C666 C667 1.369 . S
C666 C670 1.531 . S
C667 C666 1.369 . S
C667 C668 1.410 . S
C667 C675 1.503 . S
C668 C667 1.410 . S
C668 C669 1.392 . S
C668 C671 1.511 . S
C669 C665 1.376 . S
C669 C668 1.392 . S
C669 H681 0.929 . S
C670 C666 1.531 . S
C670 H682 0.960 . S
C670 H683 0.962 . S
C670 H684 0.960 . S
C671 C668 1.511 . S
C671 H685 0.961 . S
C671 H686 0.961 . S
C671 H687 0.961 . S
C672 C673 1.370 . S
C672 C674 1.363 . S
C672 H688 0.931 . S
C673 C672 1.370 . S
C673 C677 1.408 . S
C674 C672 1.363 . S
C674 C675 1.370 . S
C674 C678 1.524 . S
C675 C667 1.503 . S
C675 C674 1.370 . S
C675 C676 1.403 . S
C676 C675 1.403 . S
C676 C677 1.404 . S
C676 C679 1.539 . S
C677 C673 1.408 . S
C677 C676 1.404 . S
C677 H689 0.930 . S
C678 C674 1.524 . S
C678 H690 0.956 . S
C678 H691 0.961 . S
C678 H692 0.961 . S
C679 C676 1.539 . S
C679 H693 0.958 . S
C679 H694 0.961 . S
C679 H695 0.960 . S
H680 C664 0.931 . S
H681 C669 0.929 . S
H682 C670 0.960 . S
H683 C670 0.962 . S
H684 C670 0.960 . S
H685 C671 0.961 . S
H686 C671 0.961 . S
H687 C671 0.961 . S
H688 C672 0.931 . S
H689 C677 0.930 . S
H690 C678 0.956 . S
H691 C678 0.961 . S
H692 C678 0.961 . S
H693 C679 0.958 . S
H694 C679 0.961 . S
H695 C679 0.960 . S
C696 C697 1.391 . S
C696 C698 1.394 . S
C696 H712 0.931 . S
C697 C696 1.391 . S
C697 C701 1.376 1_455 S
C698 C696 1.394 . S
C698 C699 1.369 1_455 S
C698 C702 1.531 . S
C699 C698 1.369 1_655 S
C699 C700 1.410 . S
C699 C707 1.503 . S
C700 C699 1.410 . S
C700 C701 1.392 . S
C700 C703 1.511 . S
C701 C697 1.376 1_655 S
C701 C700 1.392 . S
C701 H713 0.929 . S
C702 C698 1.531 . S
C702 H714 0.960 . S
C702 H715 0.962 . S
C702 H716 0.960 . S
C703 C700 1.511 . S
C703 H717 0.961 . S
C703 H718 0.961 . S
C703 H719 0.961 . S
C704 C705 1.370 . S
C704 C706 1.363 . S
C704 H720 0.931 1_556 S
C705 C704 1.370 . S
C705 C709 1.408 . S
C706 C704 1.363 . S
C706 C707 1.370 . S
C706 C710 1.524 1_556 S
C707 C699 1.503 . S
C707 C706 1.370 . S
C707 C708 1.403 . S
C708 C707 1.403 . S
C708 C709 1.404 . S
C708 C711 1.539 . S
C709 C705 1.408 . S
C709 C708 1.404 . S
C709 H721 0.930 . S
C710 C706 1.524 1_554 S
C710 H722 0.956 1_655 S
C710 H723 0.961 . S
C710 H724 0.961 . S
C711 C708 1.539 . S
C711 H725 0.958 . S
C711 H726 0.961 . S
C711 H727 0.960 . S
H712 C696 0.931 . S
H713 C701 0.929 . S
H714 C702 0.960 . S
H715 C702 0.962 . S
H716 C702 0.960 . S
H717 C703 0.961 . S
H718 C703 0.961 . S
H719 C703 0.961 . S
H720 C704 0.931 1_554 S
H721 C709 0.930 . S
H722 C710 0.956 1_455 S
H723 C710 0.961 . S
H724 C710 0.961 . S
H725 C711 0.958 . S
H726 C711 0.961 . S
H727 C711 0.960 . S
C728 C729 1.391 1_565 S
C728 C730 1.394 . S
C728 H744 0.930 . S
C729 C728 1.391 1_545 S
C729 C733 1.376 . S
C730 C728 1.394 . S
C730 C731 1.369 . S
C730 C734 1.531 . S
C731 C730 1.369 . S
C731 C732 1.410 1_565 S
C731 C739 1.503 . S
C732 C731 1.410 1_545 S
C732 C733 1.392 . S
C732 C735 1.511 . S
C733 C729 1.376 . S
C733 C732 1.392 . S
C733 H745 0.929 . S
C734 C730 1.531 . S
C734 H746 0.960 . S
C734 H747 0.962 . S
C734 H748 0.960 . S
C735 C732 1.511 . S
C735 H749 0.961 . S
C735 H750 0.961 1_545 S
C735 H751 0.961 . S
C736 C737 1.370 . S
C736 C738 1.363 . S
C736 H752 0.931 . S
C737 C736 1.370 . S
C737 C741 1.408 . S
C738 C736 1.363 . S
C738 C739 1.370 . S
C738 C742 1.524 . S
C739 C731 1.503 . S
C739 C738 1.370 . S
C739 C740 1.403 . S
C740 C739 1.403 . S
C740 C741 1.404 . S
C740 C743 1.539 1_565 S
C741 C737 1.408 . S
C741 C740 1.404 . S
C741 H753 0.930 . S
C742 C738 1.524 . S
C742 H754 0.956 . S
C742 H755 0.961 . S
C742 H756 0.961 . S
C743 C740 1.539 1_545 S
C743 H757 0.958 . S
C743 H758 0.961 . S
C743 H759 0.960 . S
H744 C728 0.930 . S
H745 C733 0.929 . S
H746 C734 0.960 . S
H747 C734 0.962 . S
H748 C734 0.960 . S
H749 C735 0.961 . S
H750 C735 0.961 1_565 S
H751 C735 0.961 . S
H752 C736 0.931 . S
H753 C741 0.930 . S
H754 C742 0.956 . S
H755 C742 0.961 . S
H756 C742 0.961 . S
H757 C743 0.958 . S
H758 C743 0.961 . S
H759 C743 0.960 . S
C760 C761 1.391 . S
C760 C762 1.394 . S
C760 H776 0.931 . S
C761 C760 1.391 . S
C761 C765 1.376 . S
C762 C760 1.394 . S
C762 C763 1.369 . S
C762 C766 1.531 . S
C763 C762 1.369 . S
C763 C764 1.410 . S
C763 C771 1.503 . S
C764 C763 1.410 . S
C764 C765 1.392 . S
C764 C767 1.511 . S
C765 C761 1.376 . S
C765 C764 1.392 . S
C765 H777 0.929 . S
C766 C762 1.531 . S
C766 H778 0.960 . S
C766 H779 0.962 . S
C766 H780 0.960 . S
C767 C764 1.511 . S
C767 H781 0.961 . S
C767 H782 0.961 . S
C767 H783 0.961 . S
C768 C769 1.370 . S
C768 C770 1.363 . S
C768 H784 0.931 . S
C769 C768 1.370 . S
C769 C773 1.408 . S
C770 C768 1.363 . S
C770 C771 1.370 . S
C770 C774 1.524 . S
C771 C763 1.503 . S
C771 C770 1.370 . S
C771 C772 1.403 . S
C772 C771 1.403 . S
C772 C773 1.404 . S
C772 C775 1.539 . S
C773 C769 1.408 . S
C773 C772 1.404 . S
C773 H785 0.930 . S
C774 C770 1.524 . S
C774 H786 0.956 . S
C774 H787 0.961 . S
C774 H788 0.961 . S
C775 C772 1.539 . S
C775 H789 0.958 . S
C775 H790 0.961 . S
C775 H791 0.960 . S
H776 C760 0.931 . S
H777 C765 0.929 . S
H778 C766 0.960 . S
H779 C766 0.962 . S
H780 C766 0.960 . S
H781 C767 0.961 . S
H782 C767 0.961 . S
H783 C767 0.961 . S
H784 C768 0.931 . S
H785 C773 0.930 . S
H786 C774 0.956 . S
H787 C774 0.961 . S
H788 C774 0.961 . S
H789 C775 0.958 . S
H790 C775 0.961 . S
H791 C775 0.960 . S
C792 C793 1.391 . S
C792 C794 1.394 . S
C792 H808 0.931 . S
C793 C792 1.391 . S
C793 C797 1.376 . S
C794 C792 1.394 . S
C794 C795 1.369 . S
C794 C798 1.531 . S
C795 C794 1.369 . S
C795 C796 1.410 . S
C795 C803 1.503 . S
C796 C795 1.410 . S
C796 C797 1.392 . S
C796 C799 1.511 . S
C797 C793 1.376 . S
C797 C796 1.392 . S
C797 H809 0.929 . S
C798 C794 1.531 . S
C798 H810 0.960 . S
C798 H811 0.962 . S
C798 H812 0.960 . S
C799 C796 1.511 . S
C799 H813 0.961 . S
C799 H814 0.961 . S
C799 H815 0.961 . S
C800 C801 1.370 . S
C800 C802 1.363 . S
C800 H816 0.931 . S
C801 C800 1.370 . S
C801 C805 1.408 . S
C802 C800 1.363 . S
C802 C803 1.370 . S
C802 C806 1.524 . S
C803 C795 1.503 . S
C803 C802 1.370 . S
C803 C804 1.403 . S
C804 C803 1.403 . S
C804 C805 1.404 . S
C804 C807 1.539 . S
C805 C801 1.408 . S
C805 C804 1.404 . S
C805 H817 0.930 . S
C806 C802 1.524 . S
C806 H818 0.956 . S
C806 H819 0.961 . S
C806 H820 0.961 . S
C807 C804 1.539 . S
C807 H821 0.958 . S
C807 H822 0.961 . S
C807 H823 0.960 . S
H808 C792 0.931 . S
H809 C797 0.929 . S
H810 C798 0.960 . S
H811 C798 0.962 . S
H812 C798 0.960 . S
H813 C799 0.961 . S
H814 C799 0.961 . S
H815 C799 0.961 . S
H816 C800 0.931 . S
H817 C805 0.930 . S
H818 C806 0.956 . S
H819 C806 0.961 . S
H820 C806 0.961 . S
H821 C807 0.958 . S
H822 C807 0.961 . S
H823 C807 0.960 . S
C824 C825 1.391 . S
C824 C826 1.394 . S
C824 H840 0.931 . S
C825 C824 1.391 . S
C825 C829 1.376 . S
C826 C824 1.394 . S
C826 C827 1.369 . S
C826 C830 1.531 . S
C827 C826 1.369 . S
C827 C828 1.410 . S
C827 C835 1.503 . S
C828 C827 1.410 . S
C828 C829 1.392 . S
C828 C831 1.511 . S
C829 C825 1.376 . S
C829 C828 1.392 . S
C829 H841 0.929 . S
C830 C826 1.531 . S
C830 H842 0.960 . S
C830 H843 0.962 . S
C830 H844 0.960 . S
C831 C828 1.511 . S
C831 H845 0.961 . S
C831 H846 0.961 . S
C831 H847 0.961 . S
C832 C833 1.370 . S
C832 C834 1.363 . S
C832 H848 0.931 . S
C833 C832 1.370 . S
C833 C837 1.408 . S
C834 C832 1.363 . S
C834 C835 1.370 . S
C834 C838 1.524 . S
C835 C827 1.503 . S
C835 C834 1.370 . S
C835 C836 1.403 . S
C836 C835 1.403 . S
C836 C837 1.404 . S
C836 C839 1.539 . S
C837 C833 1.408 . S
C837 C836 1.404 . S
C837 H849 0.930 . S
C838 C834 1.524 . S
C838 H850 0.956 . S
C838 H851 0.961 . S
C838 H852 0.961 . S
C839 C836 1.539 . S
C839 H853 0.958 . S
C839 H854 0.961 . S
C839 H855 0.960 . S
H840 C824 0.931 . S
H841 C829 0.929 . S
H842 C830 0.960 . S
H843 C830 0.962 . S
H844 C830 0.960 . S
H845 C831 0.961 . S
H846 C831 0.961 . S
H847 C831 0.961 . S
H848 C832 0.931 . S
H849 C837 0.930 . S
H850 C838 0.956 . S
H851 C838 0.961 . S
H852 C838 0.961 . S
H853 C839 0.958 . S
H854 C839 0.961 . S
H855 C839 0.960 . S
C856 C857 1.391 . S
C856 C858 1.394 . S
C856 H872 0.931 . S
C857 C856 1.391 . S
C857 C861 1.376 . S
C858 C856 1.394 . S
C858 C859 1.369 . S
C858 C862 1.531 . S
C859 C858 1.369 . S
C859 C860 1.410 . S
C859 C867 1.503 . S
C860 C859 1.410 . S
C860 C861 1.392 . S
C860 C863 1.511 . S
C861 C857 1.376 . S
C861 C860 1.392 . S
C861 H873 0.929 . S
C862 C858 1.531 . S
C862 H874 0.960 . S
C862 H875 0.962 . S
C862 H876 0.960 . S
C863 C860 1.511 . S
C863 H877 0.961 . S
C863 H878 0.961 . S
C863 H879 0.961 . S
C864 C865 1.370 . S
C864 C866 1.363 . S
C864 H880 0.931 . S
C865 C864 1.370 . S
C865 C869 1.408 . S
C866 C864 1.363 . S
C866 C867 1.370 . S
C866 C870 1.524 . S
C867 C859 1.503 . S
C867 C866 1.370 . S
C867 C868 1.403 . S
C868 C867 1.403 . S
C868 C869 1.404 . S
C868 C871 1.539 . S
C869 C865 1.408 . S
C869 C868 1.404 . S
C869 H881 0.930 . S
C870 C866 1.524 . S
C870 H882 0.956 . S
C870 H883 0.961 . S
C870 H884 0.961 . S
C871 C868 1.539 . S
C871 H885 0.958 . S
C871 H886 0.961 . S
C871 H887 0.960 . S
H872 C856 0.931 . S
H873 C861 0.929 . S
H874 C862 0.960 . S
H875 C862 0.962 . S
H876 C862 0.960 . S
H877 C863 0.961 . S
H878 C863 0.961 . S
H879 C863 0.961 . S
H880 C864 0.931 . S
H881 C869 0.930 . S
H882 C870 0.956 . S
H883 C870 0.961 . S
H884 C870 0.961 . S
H885 C871 0.958 . S
H886 C871 0.961 . S
H887 C871 0.960 . S
C888 C889 1.391 . S
C888 C890 1.394 . S
C888 H904 0.931 . S
C889 C888 1.391 . S
C889 C893 1.376 . S
C890 C888 1.394 . S
C890 C891 1.369 . S
C890 C894 1.531 . S
C891 C890 1.369 . S
C891 C892 1.410 . S
C891 C899 1.503 . S
C892 C891 1.410 . S
C892 C893 1.392 . S
C892 C895 1.511 . S
C893 C889 1.376 . S
C893 C892 1.392 . S
C893 H905 0.929 . S
C894 C890 1.531 . S
C894 H906 0.960 . S
C894 H907 0.962 . S
C894 H908 0.960 . S
C895 C892 1.511 . S
C895 H909 0.961 . S
C895 H910 0.961 . S
C895 H911 0.961 . S
C896 C897 1.370 . S
C896 C898 1.363 . S
C896 H912 0.931 . S
C897 C896 1.370 . S
C897 C901 1.408 . S
C898 C896 1.363 . S
C898 C899 1.370 . S
C898 C902 1.524 . S
C899 C891 1.503 . S
C899 C898 1.370 . S
C899 C900 1.403 . S
C900 C899 1.403 . S
C900 C901 1.404 . S
C900 C903 1.539 . S
C901 C897 1.408 . S
C901 C900 1.404 . S
C901 H913 0.930 . S
C902 C898 1.524 . S
C902 H914 0.956 . S
C902 H915 0.961 . S
C902 H916 0.961 . S
C903 C900 1.539 . S
C903 H917 0.958 . S
C903 H918 0.961 . S
C903 H919 0.960 . S
H904 C888 0.931 . S
H905 C893 0.929 . S
H906 C894 0.960 . S
H907 C894 0.962 . S
H908 C894 0.960 . S
H909 C895 0.961 . S
H910 C895 0.961 . S
H911 C895 0.961 . S
H912 C896 0.931 . S
H913 C901 0.930 . S
H914 C902 0.956 . S
H915 C902 0.961 . S
H916 C902 0.961 . S
H917 C903 0.958 . S
H918 C903 0.961 . S
H919 C903 0.960 . S
C920 C921 1.391 . S
C920 C922 1.394 . S
C920 H936 0.931 . S
C921 C920 1.391 . S
C921 C925 1.376 . S
C922 C920 1.394 . S
C922 C923 1.369 . S
C922 C926 1.531 . S
C923 C922 1.369 . S
C923 C924 1.410 . S
C923 C931 1.503 . S
C924 C923 1.410 . S
C924 C925 1.392 . S
C924 C927 1.511 . S
C925 C921 1.376 . S
C925 C924 1.392 . S
C925 H937 0.929 . S
C926 C922 1.531 . S
C926 H938 0.960 . S
C926 H939 0.962 . S
C926 H940 0.960 . S
C927 C924 1.511 . S
C927 H941 0.961 . S
C927 H942 0.961 . S
C927 H943 0.961 . S
C928 C929 1.370 . S
C928 C930 1.363 . S
C928 H944 0.931 . S
C929 C928 1.370 . S
C929 C933 1.408 . S
C930 C928 1.363 . S
C930 C931 1.370 . S
C930 C934 1.524 . S
C931 C923 1.503 . S
C931 C930 1.370 . S
C931 C932 1.403 . S
C932 C931 1.403 . S
C932 C933 1.404 . S
C932 C935 1.539 . S
C933 C929 1.408 . S
C933 C932 1.404 . S
C933 H945 0.930 . S
C934 C930 1.524 . S
C934 H946 0.956 . S
C934 H947 0.961 . S
C934 H948 0.961 . S
C935 C932 1.539 . S
C935 H949 0.958 . S
C935 H950 0.961 . S
C935 H951 0.960 . S
H936 C920 0.931 . S
H937 C925 0.929 . S
H938 C926 0.960 . S
H939 C926 0.962 . S
H940 C926 0.960 . S
H941 C927 0.961 . S
H942 C927 0.961 . S
H943 C927 0.961 . S
H944 C928 0.931 . S
H945 C933 0.930 . S
H946 C934 0.956 . S
H947 C934 0.961 . S
H948 C934 0.961 . S
H949 C935 0.958 . S
H950 C935 0.961 . S
H951 C935 0.960 . S
C952 C953 1.391 . S
C952 C954 1.394 . S
C952 H968 0.931 . S
C953 C952 1.391 . S
C953 C957 1.376 . S
C954 C952 1.394 . S
C954 C955 1.369 . S
C954 C958 1.531 . S
C955 C954 1.369 . S
C955 C956 1.410 . S
C955 C963 1.503 . S
C956 C955 1.410 . S
C956 C957 1.392 . S
C956 C959 1.511 . S
C957 C953 1.376 . S
C957 C956 1.392 . S
C957 H969 0.929 . S
C958 C954 1.531 . S
C958 H970 0.960 . S
C958 H971 0.962 . S
C958 H972 0.960 . S
C959 C956 1.511 . S
C959 H973 0.961 . S
C959 H974 0.961 . S
C959 H975 0.961 . S
C960 C961 1.370 . S
C960 C962 1.363 . S
C960 H976 0.931 . S
C961 C960 1.370 . S
C961 C965 1.408 . S
C962 C960 1.363 . S
C962 C963 1.370 . S
C962 C966 1.524 . S
C963 C955 1.503 . S
C963 C962 1.370 . S
C963 C964 1.403 . S
C964 C963 1.403 . S
C964 C965 1.404 . S
C964 C967 1.539 . S
C965 C961 1.408 . S
C965 C964 1.404 . S
C965 H977 0.930 . S
C966 C962 1.524 . S
C966 H978 0.956 . S
C966 H979 0.961 . S
C966 H980 0.961 . S
C967 C964 1.539 . S
C967 H981 0.958 . S
C967 H982 0.961 . S
C967 H983 0.960 . S
H968 C952 0.931 . S
H969 C957 0.929 . S
H970 C958 0.960 . S
H971 C958 0.962 . S
H972 C958 0.960 . S
H973 C959 0.961 . S
H974 C959 0.961 . S
H975 C959 0.961 . S
H976 C960 0.931 . S
H977 C965 0.930 . S
H978 C966 0.956 . S
H979 C966 0.961 . S
H980 C966 0.961 . S
H981 C967 0.958 . S
H982 C967 0.961 . S
H983 C967 0.960 . S
C984 C985 1.391 . S
C984 C986 1.394 . S
C984 H1000 0.931 . S
C985 C984 1.391 . S
C985 C989 1.376 . S
C986 C984 1.394 . S
C986 C987 1.369 . S
C986 C990 1.531 1_565 S
C987 C986 1.369 . S
C987 C988 1.410 . S
C987 C995 1.503 . S
C988 C987 1.410 . S
C988 C989 1.392 . S
C988 C991 1.511 . S
C989 C985 1.376 . S
C989 C988 1.392 . S
C989 H1001 0.929 . S
C990 C986 1.531 1_545 S
C990 H1002 0.960 . S
C990 H1003 0.962 . S
C990 H1004 0.960 . S
C991 C988 1.511 . S
C991 H1005 0.961 . S
C991 H1006 0.961 . S
C991 H1007 0.961 . S
C992 C993 1.370 . S
C992 C994 1.363 . S
C992 H1008 0.931 . S
C993 C992 1.370 . S
C993 C997 1.408 1_545 S
C994 C992 1.363 . S
C994 C995 1.370 1_545 S
C994 C998 1.524 . S
C995 C987 1.503 . S
C995 C994 1.370 1_565 S
C995 C996 1.403 . S
C996 C995 1.403 . S
C996 C997 1.404 . S
C996 C999 1.539 . S
C997 C993 1.408 1_565 S
C997 C996 1.404 . S
C997 H1009 0.930 . S
C998 C994 1.524 . S
C998 H1010 0.956 . S
C998 H1011 0.961 1_545 S
C998 H1012 0.961 . S
C999 C996 1.539 . S
C999 H1013 0.958 . S
C999 H1014 0.961 . S
C999 H1015 0.960 . S
H1000 C984 0.931 . S
H1001 C989 0.929 . S
H1002 C990 0.960 . S
H1003 C990 0.962 . S
H1004 C990 0.960 . S
H1005 C991 0.961 . S
H1006 C991 0.961 . S
H1007 C991 0.961 . S
H1008 C992 0.931 . S
H1009 C997 0.930 . S
H1010 C998 0.956 . S
H1011 C998 0.961 1_565 S
H1012 C998 0.961 . S
H1013 C999 0.958 . S
H1014 C999 0.961 . S
H1015 C999 0.960 . S
C1016 C1017 1.391 . S
C1016 C1018 1.394 . S
C1016 H1032 0.931 . S
C1017 C1016 1.391 . S
C1017 C1021 1.376 . S
C1018 C1016 1.394 . S
C1018 C1019 1.369 . S
C1018 C1022 1.531 . S
C1019 C1018 1.369 . S
C1019 C1020 1.410 . S
C1019 C1027 1.503 . S
C1020 C1019 1.410 . S
C1020 C1021 1.392 . S
C1020 C1023 1.511 . S
C1021 C1017 1.376 . S
C1021 C1020 1.392 . S
C1021 H1033 0.929 . S
C1022 C1018 1.531 . S
C1022 H1034 0.960 . S
C1022 H1035 0.962 . S
C1022 H1036 0.960 . S
C1023 C1020 1.511 . S
C1023 H1037 0.961 . S
C1023 H1038 0.961 . S
C1023 H1039 0.961 . S
C1024 C1025 1.370 . S
C1024 C1026 1.363 . S
C1024 H1040 0.931 . S
C1025 C1024 1.370 . S
C1025 C1029 1.408 . S
C1026 C1024 1.363 . S
C1026 C1027 1.370 . S
C1026 C1030 1.524 . S
C1027 C1019 1.503 . S
C1027 C1026 1.370 . S
C1027 C1028 1.403 . S
C1028 C1027 1.403 . S
C1028 C1029 1.404 . S
C1028 C1031 1.539 . S
C1029 C1025 1.408 . S
C1029 C1028 1.404 . S
C1029 H1041 0.930 . S
C1030 C1026 1.524 . S
C1030 H1042 0.956 . S
C1030 H1043 0.961 . S
C1030 H1044 0.961 . S
C1031 C1028 1.539 . S
C1031 H1045 0.958 . S
C1031 H1046 0.961 . S
C1031 H1047 0.960 . S
H1032 C1016 0.931 . S
H1033 C1021 0.929 . S
H1034 C1022 0.960 . S
H1035 C1022 0.962 . S
H1036 C1022 0.960 . S
H1037 C1023 0.961 . S
H1038 C1023 0.961 . S
H1039 C1023 0.961 . S
H1040 C1024 0.931 . S
H1041 C1029 0.930 . S
H1042 C1030 0.956 . S
H1043 C1030 0.961 . S
H1044 C1030 0.961 . S
H1045 C1031 0.958 . S
H1046 C1031 0.961 . S
H1047 C1031 0.960 . S
C1048 C1049 1.391 1_455 S
C1048 C1050 1.394 . S
C1048 H1064 0.931 . S
C1049 C1048 1.391 1_655 S
C1049 C1053 1.376 . S
C1050 C1048 1.394 . S
C1050 C1051 1.369 . S
C1050 C1054 1.531 . S
C1051 C1050 1.369 . S
C1051 C1052 1.410 1_455 S
C1051 C1059 1.503 . S
C1052 C1051 1.410 1_655 S
C1052 C1053 1.392 . S
C1052 C1055 1.511 . S
C1053 C1049 1.376 . S
C1053 C1052 1.392 . S
C1053 H1065 0.929 . S
C1054 C1050 1.531 . S
C1054 H1066 0.960 . S
C1054 H1067 0.962 . S
C1054 H1068 0.960 . S
C1055 C1052 1.511 . S
C1055 H1069 0.961 . S
C1055 H1070 0.961 . S
C1055 H1071 0.961 . S
C1056 C1057 1.370 . S
C1056 C1058 1.363 . S
C1056 H1072 0.931 . S
C1057 C1056 1.370 . S
C1057 C1061 1.408 . S
C1058 C1056 1.363 . S
C1058 C1059 1.370 . S
C1058 C1062 1.524 . S
C1059 C1051 1.503 . S
C1059 C1058 1.370 . S
C1059 C1060 1.403 . S
C1060 C1059 1.403 . S
C1060 C1061 1.404 . S
C1060 C1063 1.539 1_455 S
C1061 C1057 1.408 . S
C1061 C1060 1.404 . S
C1061 H1073 0.930 . S
C1062 C1058 1.524 . S
C1062 H1074 0.956 . S
C1062 H1075 0.961 . S
C1062 H1076 0.961 . S
C1063 C1060 1.539 1_655 S
C1063 H1077 0.958 . S
C1063 H1078 0.961 . S
C1063 H1079 0.960 . S
H1064 C1048 0.931 . S
H1065 C1053 0.929 . S
H1066 C1054 0.960 . S
H1067 C1054 0.962 . S
H1068 C1054 0.960 . S
H1069 C1055 0.961 . S
H1070 C1055 0.961 . S
H1071 C1055 0.961 . S
H1072 C1056 0.931 . S
H1073 C1061 0.930 . S
H1074 C1062 0.956 . S
H1075 C1062 0.961 . S
H1076 C1062 0.961 . S
H1077 C1063 0.958 . S
H1078 C1063 0.961 . S
H1079 C1063 0.960 . S
C1080 C1081 1.391 . S
C1080 C1082 1.394 1_565 S
C1080 H1096 0.931 . S
C1081 C1080 1.391 . S
C1081 C1085 1.376 . S
C1082 C1080 1.394 1_545 S
C1082 C1083 1.369 . S
C1082 C1086 1.531 . S
C1083 C1082 1.369 . S
C1083 C1084 1.410 1_545 S
C1083 C1091 1.503 . S
C1084 C1083 1.410 1_565 S
C1084 C1085 1.392 . S
C1084 C1087 1.511 1_565 S
C1085 C1081 1.376 . S
C1085 C1084 1.392 . S
C1085 H1097 0.929 . S
C1086 C1082 1.531 . S
C1086 H1098 0.960 . S
C1086 H1099 0.962 . S
C1086 H1100 0.960 . S
C1087 C1084 1.511 1_545 S
C1087 H1101 0.961 1_545 S
C1087 H1102 0.961 . S
C1087 H1103 0.961 . S
C1088 C1089 1.370 . S
C1088 C1090 1.363 . S
C1088 H1104 0.931 . S
C1089 C1088 1.370 . S
C1089 C1093 1.408 . S
C1090 C1088 1.363 . S
C1090 C1091 1.370 . S
C1090 C1094 1.524 1_545 S
C1091 C1083 1.503 . S
C1091 C1090 1.370 . S
C1091 C1092 1.403 . S
C1092 C1091 1.403 . S
C1092 C1093 1.404 . S
C1092 C1095 1.539 . S
C1093 C1089 1.408 . S
C1093 C1092 1.404 . S
C1093 H1105 0.930 . S
C1094 C1090 1.524 1_565 S
C1094 H1106 0.956 . S
C1094 H1107 0.961 . S
C1094 H1108 0.961 . S
C1095 C1092 1.539 . S
C1095 H1109 0.958 . S
C1095 H1110 0.961 . S
C1095 H1111 0.960 . S
H1096 C1080 0.931 . S
H1097 C1085 0.929 . S
H1098 C1086 0.960 . S
H1099 C1086 0.962 . S
H1100 C1086 0.960 . S
H1101 C1087 0.961 1_565 S
H1102 C1087 0.961 . S
H1103 C1087 0.961 . S
H1104 C1088 0.931 . S
H1105 C1093 0.930 . S
H1106 C1094 0.956 . S
H1107 C1094 0.961 . S
H1108 C1094 0.961 . S
H1109 C1095 0.958 . S
H1110 C1095 0.961 . S
H1111 C1095 0.960 . S
C1112 C1113 1.391 . S
C1112 C1114 1.394 . S
C1112 H1128 0.931 . S
C1113 C1112 1.391 . S
C1113 C1117 1.376 . S
C1114 C1112 1.394 . S
C1114 C1115 1.369 . S
C1114 C1118 1.531 . S
C1115 C1114 1.369 . S
C1115 C1116 1.410 . S
C1115 C1123 1.503 . S
C1116 C1115 1.410 . S
C1116 C1117 1.392 . S
C1116 C1119 1.511 . S
C1117 C1113 1.376 . S
C1117 C1116 1.392 . S
C1117 H1129 0.929 . S
C1118 C1114 1.531 . S
C1118 H1130 0.960 . S
C1118 H1131 0.962 . S
C1118 H1132 0.960 . S
C1119 C1116 1.511 . S
C1119 H1133 0.961 . S
C1119 H1134 0.961 . S
C1119 H1135 0.961 . S
C1120 C1121 1.370 . S
C1120 C1122 1.363 . S
C1120 H1136 0.931 . S
C1121 C1120 1.370 . S
C1121 C1125 1.408 . S
C1122 C1120 1.363 . S
C1122 C1123 1.370 . S
C1122 C1126 1.524 . S
C1123 C1115 1.503 . S
C1123 C1122 1.370 . S
C1123 C1124 1.403 . S
C1124 C1123 1.403 . S
C1124 C1125 1.404 . S
C1124 C1127 1.539 . S
C1125 C1121 1.408 . S
C1125 C1124 1.404 . S
C1125 H1137 0.930 . S
C1126 C1122 1.524 . S
C1126 H1138 0.956 . S
C1126 H1139 0.961 . S
C1126 H1140 0.961 . S
C1127 C1124 1.539 . S
C1127 H1141 0.958 . S
C1127 H1142 0.961 . S
C1127 H1143 0.960 . S
H1128 C1112 0.931 . S
H1129 C1117 0.929 . S
H1130 C1118 0.960 . S
H1131 C1118 0.962 . S
H1132 C1118 0.960 . S
H1133 C1119 0.961 . S
H1134 C1119 0.961 . S
H1135 C1119 0.961 . S
H1136 C1120 0.931 . S
H1137 C1125 0.930 . S
H1138 C1126 0.956 . S
H1139 C1126 0.961 . S
H1140 C1126 0.961 . S
H1141 C1127 0.958 . S
H1142 C1127 0.961 . S
H1143 C1127 0.960 . S
C1144 C1145 1.391 . S
C1144 C1146 1.394 . S
C1144 H1160 0.931 . S
C1145 C1144 1.391 . S
C1145 C1149 1.376 1_455 S
C1146 C1144 1.394 . S
C1146 C1147 1.369 1_455 S
C1146 C1150 1.531 . S
C1147 C1146 1.369 1_655 S
C1147 C1148 1.410 . S
C1147 C1155 1.503 . S
C1148 C1147 1.410 . S
C1148 C1149 1.392 . S
C1148 C1151 1.511 . S
C1149 C1145 1.376 1_655 S
C1149 C1148 1.392 . S
C1149 H1161 0.929 . S
C1150 C1146 1.531 . S
C1150 H1162 0.960 . S
C1150 H1163 0.962 . S
C1150 H1164 0.960 . S
C1151 C1148 1.511 . S
C1151 H1165 0.961 . S
C1151 H1166 0.961 . S
C1151 H1167 0.961 . S
C1152 C1153 1.370 . S
C1152 C1154 1.363 . S
C1152 H1168 0.931 . S
C1153 C1152 1.370 . S
C1153 C1157 1.408 . S
C1154 C1152 1.363 . S
C1154 C1155 1.370 . S
C1154 C1158 1.524 . S
C1155 C1147 1.503 . S
C1155 C1154 1.370 . S
C1155 C1156 1.403 . S
C1156 C1155 1.403 . S
C1156 C1157 1.404 . S
C1156 C1159 1.539 . S
C1157 C1153 1.408 . S
C1157 C1156 1.404 . S
C1157 H1169 0.930 . S
C1158 C1154 1.524 . S
C1158 H1170 0.956 1_655 S
C1158 H1171 0.961 . S
C1158 H1172 0.961 . S
C1159 C1156 1.539 . S
C1159 H1173 0.958 . S
C1159 H1174 0.961 . S
C1159 H1175 0.960 . S
H1160 C1144 0.931 . S
H1161 C1149 0.929 . S
H1162 C1150 0.960 . S
H1163 C1150 0.962 . S
H1164 C1150 0.960 . S
H1165 C1151 0.961 . S
H1166 C1151 0.961 . S
H1167 C1151 0.961 . S
H1168 C1152 0.931 . S
H1169 C1157 0.930 . S
H1170 C1158 0.956 1_455 S
H1171 C1158 0.961 . S
H1172 C1158 0.961 . S
H1173 C1159 0.958 . S
H1174 C1159 0.961 . S
H1175 C1159 0.960 . S
C1176 C1177 1.391 . S
C1176 C1178 1.394 1_655 S
C1176 H1192 0.931 1_655 S
C1177 C1176 1.391 . S
C1177 C1181 1.376 . S
C1178 C1176 1.394 1_455 S
C1178 C1179 1.369 . S
C1178 C1182 1.531 . S
C1179 C1178 1.369 . S
C1179 C1180 1.410 1_455 S
C1179 C1187 1.503 . S
C1180 C1179 1.410 1_655 S
C1180 C1181 1.392 . S
C1180 C1183 1.511 . S
C1181 C1177 1.376 . S
C1181 C1180 1.392 . S
C1181 H1193 0.929 . S
C1182 C1178 1.531 . S
C1182 H1194 0.960 . S
C1182 H1195 0.962 . S
C1182 H1196 0.960 . S
C1183 C1180 1.511 . S
C1183 H1197 0.961 . S
C1183 H1198 0.961 . S
C1183 H1199 0.961 . S
C1184 C1185 1.370 . S
C1184 C1186 1.363 . S
C1184 H1200 0.931 . S
C1185 C1184 1.370 . S
C1185 C1189 1.408 . S
C1186 C1184 1.363 . S
C1186 C1187 1.370 . S
C1186 C1190 1.524 . S
C1187 C1179 1.503 . S
C1187 C1186 1.370 . S
C1187 C1188 1.403 . S
C1188 C1187 1.403 . S
C1188 C1189 1.404 . S
C1188 C1191 1.539 1_455 S
C1189 C1185 1.408 . S
C1189 C1188 1.404 . S
C1189 H1201 0.930 . S
C1190 C1186 1.524 . S
C1190 H1202 0.956 . S
C1190 H1203 0.961 . S
C1190 H1204 0.961 . S
C1191 C1188 1.539 1_655 S
C1191 H1205 0.958 . S
C1191 H1206 0.961 . S
C1191 H1207 0.960 . S
H1192 C1176 0.931 1_455 S
H1193 C1181 0.929 . S
H1194 C1182 0.960 . S
H1195 C1182 0.962 . S
H1196 C1182 0.960 . S
H1197 C1183 0.961 . S
H1198 C1183 0.961 . S
H1199 C1183 0.961 . S
H1200 C1184 0.931 . S
H1201 C1189 0.930 . S
H1202 C1190 0.956 . S
H1203 C1190 0.961 . S
H1204 C1190 0.961 . S
H1205 C1191 0.958 . S
H1206 C1191 0.961 . S
H1207 C1191 0.960 . S
C1208 C1209 1.391 . S
C1208 C1210 1.394 . S
C1208 H1224 0.931 . S
C1209 C1208 1.391 . S
C1209 C1213 1.376 . S
C1210 C1208 1.394 . S
C1210 C1211 1.369 . S
C1210 C1214 1.531 1_545 S
C1211 C1210 1.369 . S
C1211 C1212 1.410 . S
C1211 C1219 1.503 . S
C1212 C1211 1.410 . S
C1212 C1213 1.392 . S
C1212 C1215 1.511 . S
C1213 C1209 1.376 . S
C1213 C1212 1.392 . S
C1213 H1225 0.929 . S
C1214 C1210 1.531 1_565 S
C1214 H1226 0.960 . S
C1214 H1227 0.962 . S
C1214 H1228 0.960 . S
C1215 C1212 1.511 . S
C1215 H1229 0.961 . S
C1215 H1230 0.961 . S
C1215 H1231 0.961 . S
C1216 C1217 1.370 . S
C1216 C1218 1.363 1_565 S
C1216 H1232 0.931 . S
C1217 C1216 1.370 . S
C1217 C1221 1.408 . S
C1218 C1216 1.363 1_545 S
C1218 C1219 1.370 . S
C1218 C1222 1.524 . S
C1219 C1211 1.503 . S
C1219 C1218 1.370 . S
C1219 C1220 1.403 1_545 S
C1220 C1219 1.403 1_565 S
C1220 C1221 1.404 . S
C1220 C1223 1.539 . S
C1221 C1217 1.408 . S
C1221 C1220 1.404 . S
C1221 H1233 0.930 . S
C1222 C1218 1.524 . S
C1222 H1234 0.956 . S
C1222 H1235 0.961 . S
C1222 H1236 0.961 . S
C1223 C1220 1.539 . S
C1223 H1237 0.958 . S
C1223 H1238 0.961 . S
C1223 H1239 0.960 . S
H1224 C1208 0.931 . S
H1225 C1213 0.929 . S
H1226 C1214 0.960 . S
H1227 C1214 0.962 . S
H1228 C1214 0.960 . S
H1229 C1215 0.961 . S
H1230 C1215 0.961 . S
H1231 C1215 0.961 . S
H1232 C1216 0.931 . S
H1233 C1221 0.930 . S
H1234 C1222 0.956 . S
H1235 C1222 0.961 . S
H1236 C1222 0.961 . S
H1237 C1223 0.958 . S
H1238 C1223 0.961 . S
H1239 C1223 0.960 . S
C1240 C1241 1.391 . S
C1240 C1242 1.394 . S
C1240 H1256 0.931 . S
C1241 C1240 1.391 . S
C1241 C1245 1.376 . S
C1242 C1240 1.394 . S
C1242 C1243 1.369 . S
C1242 C1246 1.531 . S
C1243 C1242 1.369 . S
C1243 C1244 1.410 . S
C1243 C1251 1.503 . S
C1244 C1243 1.410 . S
C1244 C1245 1.392 . S
C1244 C1247 1.511 . S
C1245 C1241 1.376 . S
C1245 C1244 1.392 . S
C1245 H1257 0.929 . S
C1246 C1242 1.531 . S
C1246 H1258 0.960 . S
C1246 H1259 0.962 . S
C1246 H1260 0.960 . S
C1247 C1244 1.511 . S
C1247 H1261 0.961 . S
C1247 H1262 0.961 . S
C1247 H1263 0.961 . S
C1248 C1249 1.370 . S
C1248 C1250 1.363 . S
C1248 H1264 0.931 . S
C1249 C1248 1.370 . S
C1249 C1253 1.408 . S
C1250 C1248 1.363 . S
C1250 C1251 1.370 . S
C1250 C1254 1.524 . S
C1251 C1243 1.503 . S
C1251 C1250 1.370 . S
C1251 C1252 1.403 . S
C1252 C1251 1.403 . S
C1252 C1253 1.404 . S
C1252 C1255 1.539 . S
C1253 C1249 1.408 . S
C1253 C1252 1.404 . S
C1253 H1265 0.930 . S
C1254 C1250 1.524 . S
C1254 H1266 0.956 . S
C1254 H1267 0.961 . S
C1254 H1268 0.961 . S
C1255 C1252 1.539 . S
C1255 H1269 0.958 . S
C1255 H1270 0.961 . S
C1255 H1271 0.960 . S
H1256 C1240 0.931 . S
H1257 C1245 0.929 . S
H1258 C1246 0.960 . S
H1259 C1246 0.962 . S
H1260 C1246 0.960 . S
H1261 C1247 0.961 . S
H1262 C1247 0.961 . S
H1263 C1247 0.961 . S
H1264 C1248 0.931 . S
H1265 C1253 0.930 . S
H1266 C1254 0.956 . S
H1267 C1254 0.961 . S
H1268 C1254 0.961 . S
H1269 C1255 0.958 . S
H1270 C1255 0.961 . S
H1271 C1255 0.960 . S
C1272 C1273 1.391 . S
C1272 C1274 1.394 . S
C1272 H1288 0.931 . S
C1273 C1272 1.391 . S
C1273 C1277 1.376 1_455 S
C1274 C1272 1.394 . S
C1274 C1275 1.369 1_455 S
C1274 C1278 1.531 . S
C1275 C1274 1.369 1_655 S
C1275 C1276 1.410 . S
C1275 C1283 1.503 . S
C1276 C1275 1.410 . S
C1276 C1277 1.392 . S
C1276 C1279 1.511 . S
C1277 C1273 1.376 1_655 S
C1277 C1276 1.392 . S
C1277 H1289 0.929 . S
C1278 C1274 1.531 . S
C1278 H1290 0.960 . S
C1278 H1291 0.962 . S
C1278 H1292 0.960 . S
C1279 C1276 1.511 . S
C1279 H1293 0.961 . S
C1279 H1294 0.961 . S
C1279 H1295 0.961 . S
C1280 C1281 1.370 . S
C1280 C1282 1.363 . S
C1280 H1296 0.931 . S
C1281 C1280 1.370 . S
C1281 C1285 1.408 . S
C1282 C1280 1.363 . S
C1282 C1283 1.370 . S
C1282 C1286 1.524 . S
C1283 C1275 1.503 . S
C1283 C1282 1.370 . S
C1283 C1284 1.403 . S
C1284 C1283 1.403 . S
C1284 C1285 1.404 . S
C1284 C1287 1.539 . S
C1285 C1281 1.408 . S
C1285 C1284 1.404 . S
C1285 H1297 0.930 . S
C1286 C1282 1.524 . S
C1286 H1298 0.956 1_655 S
C1286 H1299 0.961 . S
C1286 H1300 0.961 . S
C1287 C1284 1.539 . S
C1287 H1301 0.958 . S
C1287 H1302 0.961 . S
C1287 H1303 0.960 . S
H1288 C1272 0.931 . S
H1289 C1277 0.929 . S
H1290 C1278 0.960 . S
H1291 C1278 0.962 . S
H1292 C1278 0.960 . S
H1293 C1279 0.961 . S
H1294 C1279 0.961 . S
H1295 C1279 0.961 . S
H1296 C1280 0.931 . S
H1297 C1285 0.930 . S
H1298 C1286 0.956 1_455 S
H1299 C1286 0.961 . S
H1300 C1286 0.961 . S
H1301 C1287 0.958 . S
H1302 C1287 0.961 . S
H1303 C1287 0.960 . S
C1304 C1305 1.391 1_565 S
C1304 C1306 1.394 . S
C1304 H1320 0.931 . S
C1305 C1304 1.391 1_545 S
C1305 C1309 1.376 . S
C1306 C1304 1.394 . S
C1306 C1307 1.369 . S
C1306 C1310 1.531 . S
C1307 C1306 1.369 . S
C1307 C1308 1.410 1_565 S
C1307 C1315 1.503 . S
C1308 C1307 1.410 1_545 S
C1308 C1309 1.392 . S
C1308 C1311 1.511 . S
C1309 C1305 1.376 . S
C1309 C1308 1.392 . S
C1309 H1321 0.929 . S
C1310 C1306 1.531 . S
C1310 H1322 0.960 . S
C1310 H1323 0.962 . S
C1310 H1324 0.960 . S
C1311 C1308 1.511 . S
C1311 H1325 0.961 . S
C1311 H1326 0.961 . S
C1311 H1327 0.961 . S
C1312 C1313 1.370 . S
C1312 C1314 1.363 . S
C1312 H1328 0.931 . S
C1313 C1312 1.370 . S
C1313 C1317 1.408 . S
C1314 C1312 1.363 . S
C1314 C1315 1.370 . S
C1314 C1318 1.524 . S
C1315 C1307 1.503 . S
C1315 C1314 1.370 . S
C1315 C1316 1.403 . S
C1316 C1315 1.403 . S
C1316 C1317 1.404 . S
C1316 C1319 1.539 . S
C1317 C1313 1.408 . S
C1317 C1316 1.404 . S
C1317 H1329 0.930 . S
C1318 C1314 1.524 . S
C1318 H1330 0.956 . S
C1318 H1331 0.961 1_565 S
C1318 H1332 0.961 1_565 S
C1319 C1316 1.539 . S
C1319 H1333 0.958 . S
C1319 H1334 0.961 . S
C1319 H1335 0.960 . S
H1320 C1304 0.931 . S
H1321 C1309 0.929 . S
H1322 C1310 0.960 . S
H1323 C1310 0.962 . S
H1324 C1310 0.960 . S
H1325 C1311 0.961 . S
H1326 C1311 0.961 . S
H1327 C1311 0.961 . S
H1328 C1312 0.931 . S
H1329 C1317 0.930 . S
H1330 C1318 0.956 . S
H1331 C1318 0.961 1_545 S
H1332 C1318 0.961 1_545 S
H1333 C1319 0.958 . S
H1334 C1319 0.961 . S
H1335 C1319 0.960 . S
C1336 C1337 1.391 . S
C1336 C1338 1.394 . S
C1336 H1352 0.931 . S
C1337 C1336 1.391 . S
C1337 C1341 1.376 . S
C1338 C1336 1.394 . S
C1338 C1339 1.369 . S
C1338 C1342 1.531 . S
C1339 C1338 1.369 . S
C1339 C1340 1.410 . S
C1339 C1347 1.503 . S
C1340 C1339 1.410 . S
C1340 C1341 1.392 . S
C1340 C1343 1.511 . S
C1341 C1337 1.376 . S
C1341 C1340 1.392 . S
C1341 H1353 0.929 . S
C1342 C1338 1.531 . S
C1342 H1354 0.960 . S
C1342 H1355 0.962 . S
C1342 H1356 0.960 . S
C1343 C1340 1.511 . S
C1343 H1357 0.961 . S
C1343 H1358 0.961 . S
C1343 H1359 0.961 . S
C1344 C1345 1.370 . S
C1344 C1346 1.363 . S
C1344 H1360 0.931 . S
C1345 C1344 1.370 . S
C1345 C1349 1.408 . S
C1346 C1344 1.363 . S
C1346 C1347 1.370 . S
C1346 C1350 1.524 . S
C1347 C1339 1.503 . S
C1347 C1346 1.370 . S
C1347 C1348 1.403 . S
C1348 C1347 1.403 . S
C1348 C1349 1.404 . S
C1348 C1351 1.539 . S
C1349 C1345 1.408 . S
C1349 C1348 1.404 . S
C1349 H1361 0.930 . S
C1350 C1346 1.524 . S
C1350 H1362 0.956 . S
C1350 H1363 0.961 . S
C1350 H1364 0.961 . S
C1351 C1348 1.539 . S
C1351 H1365 0.958 . S
C1351 H1366 0.961 . S
C1351 H1367 0.960 . S
H1352 C1336 0.931 . S
H1353 C1341 0.929 . S
H1354 C1342 0.960 . S
H1355 C1342 0.962 . S
H1356 C1342 0.960 . S
H1357 C1343 0.961 . S
H1358 C1343 0.961 . S
H1359 C1343 0.961 . S
H1360 C1344 0.931 . S
H1361 C1349 0.930 . S
H1362 C1350 0.956 . S
H1363 C1350 0.961 . S
H1364 C1350 0.961 . S
H1365 C1351 0.958 . S
H1366 C1351 0.961 . S
H1367 C1351 0.960 . S
C409 C20 1.380 . S
C417 C376 1.400 . S
C441 C54 1.422 . S
C449 C206 1.384 . S
C473 C240 1.415 . S
C481 C88 1.392 . S
C505 C274 1.364 . S
C513 C122 1.399 . S
C537 C156 1.386 1_556 S
C545 C308 1.381 . S
C569 C190 1.381 . S
C577 C342 1.384 . S
C601 C36 1.414 . S
C609 C224 1.398 . S
C633 C258 1.388 . S
C641 C70 1.380 . S
C665 C104 1.352 . S
C673 C292 1.406 . S
C697 C326 1.413 . S
C705 C138 1.391 . S
C729 C360 1.370 . S
C737 C172 1.396 . S
C761 C2 1.351 . S
C769 C394 1.406 . S
C793 C209 0.743 . S
C801 C5 0.696 . S
C825 C39 0.723 . S
C833 C243 0.719 . S
C857 C73 0.702 . S
C865 C277 0.698 . S
C889 C107 0.724 . S
C897 C311 0.719 . S
C921 C345 0.742 . S
C929 C141 0.710 . S
C953 C379 0.696 . S
C961 C175 0.725 . S
C985 C203 0.886 . S
C993 C9 0.847 . S
C1017 C33 0.854 . S
C1025 C43 0.838 . S
C1049 C77 0.888 . S
C1057 C67 0.867 . S
C1081 C111 0.813 . S
C1089 C101 0.855 . S
C1113 C145 0.844 . S
C1121 C135 0.836 . S
C1145 C179 0.834 . S
C1153 C169 0.836 . S
C1177 C213 0.893 . S
C1185 C271 0.865 . S
C1209 C305 0.895 . S
C1217 C247 0.864 . S
C1241 C281 0.844 . S
C1249 C339 0.835 . S
C1273 C315 0.843 . S
C1281 C373 0.835 . S
C1305 C349 0.833 . S
C1313 C407 0.867 . S
C1337 C383 0.812 . S
C1345 C237 0.847 . S
