# Generated by pormake.
# Topology wlq, (5)-cn, num edge types: 1
# Building blocks:
#     Node 0, Type 0, BuildingBlock: BEQFEK_clean_sbu_0, # of connection points: 5
#     Node 1, Type 0, BuildingBlock: BEQFEK_clean_sbu_0, # of connection points: 5
#     Node 2, Type 0, BuildingBlock: BEQFEK_clean_sbu_0, # of connection points: 5
#     Node 3, Type 0, BuildingBlock: BEQFEK_clean_sbu_0, # of connection points: 5
#     Node 4, Type 0, BuildingBlock: BEQFEK_clean_sbu_0, # of connection points: 5
#     Node 5, Type 0, BuildingBlock: BEQFEK_clean_sbu_0, # of connection points: 5
#     Node 6, Type 0, BuildingBlock: BEQFEK_clean_sbu_0, # of connection points: 5
#     Node 7, Type 0, BuildingBlock: BEQFEK_clean_sbu_0, # of connection points: 5
#     Node 8, Type 0, BuildingBlock: BEQFEK_clean_sbu_0, # of connection points: 5
#     Node 9, Type 0, BuildingBlock: BEQFEK_clean_sbu_0, # of connection points: 5
#     Node 10, Type 0, BuildingBlock: BEQFEK_clean_sbu_0, # of connection points: 5
#     Node 11, Type 0, BuildingBlock: BEQFEK_clean_sbu_0, # of connection points: 5
#     Node 12, Type 0, BuildingBlock: BEQFEK_clean_sbu_0, # of connection points: 5
#     Node 13, Type 0, BuildingBlock: BEQFEK_clean_sbu_0, # of connection points: 5
#     Node 14, Type 0, BuildingBlock: BEQFEK_clean_sbu_0, # of connection points: 5
#     Node 15, Type 0, BuildingBlock: BEQFEK_clean_sbu_0, # of connection points: 5
#     Node 16, Type 0, BuildingBlock: BEQFEK_clean_sbu_0, # of connection points: 5
#     Node 17, Type 0, BuildingBlock: BEQFEK_clean_sbu_0, # of connection points: 5
#     Node 18, Type 0, BuildingBlock: BEQFEK_clean_sbu_0, # of connection points: 5
#     Node 19, Type 0, BuildingBlock: BEQFEK_clean_sbu_0, # of connection points: 5
#     Node 20, Type 0, BuildingBlock: BEQFEK_clean_sbu_0, # of connection points: 5
#     Node 21, Type 0, BuildingBlock: BEQFEK_clean_sbu_0, # of connection points: 5
#     Node 22, Type 0, BuildingBlock: BEQFEK_clean_sbu_0, # of connection points: 5
#     Node 23, Type 0, BuildingBlock: BEQFEK_clean_sbu_0, # of connection points: 5
#     Node 24, Type 0, BuildingBlock: BEQFEK_clean_sbu_0, # of connection points: 5
#     Node 25, Type 0, BuildingBlock: BEQFEK_clean_sbu_0, # of connection points: 5
#     Node 26, Type 0, BuildingBlock: BEQFEK_clean_sbu_0, # of connection points: 5
#     Node 27, Type 0, BuildingBlock: BEQFEK_clean_sbu_0, # of connection points: 5
#     Node 28, Type 0, BuildingBlock: BEQFEK_clean_sbu_0, # of connection points: 5
#     Node 29, Type 0, BuildingBlock: BEQFEK_clean_sbu_0, # of connection points: 5
#     Node 30, Type 0, BuildingBlock: BEQFEK_clean_sbu_0, # of connection points: 5
#     Node 31, Type 0, BuildingBlock: BEQFEK_clean_sbu_0, # of connection points: 5
#     Node 32, Type 0, BuildingBlock: BEQFEK_clean_sbu_0, # of connection points: 5
#     Node 33, Type 0, BuildingBlock: BEQFEK_clean_sbu_0, # of connection points: 5
#     Node 34, Type 0, BuildingBlock: BEQFEK_clean_sbu_0, # of connection points: 5
#     Node 35, Type 0, BuildingBlock: BEQFEK_clean_sbu_0, # of connection points: 5
#     Edge 36, Type (0, 0), BuildingBlock: OJICUG_clean_linker_0, # of connection points: 2
#     Edge 37, Type (0, 0), BuildingBlock: OJICUG_clean_linker_0, # of connection points: 2
#     Edge 38, Type (0, 0), BuildingBlock: OJICUG_clean_linker_0, # of connection points: 2
#     Edge 39, Type (0, 0), BuildingBlock: OJICUG_clean_linker_0, # of connection points: 2
#     Edge 40, Type (0, 0), BuildingBlock: OJICUG_clean_linker_0, # of connection points: 2
#     Edge 41, Type (0, 0), BuildingBlock: OJICUG_clean_linker_0, # of connection points: 2
#     Edge 42, Type (0, 0), BuildingBlock: OJICUG_clean_linker_0, # of connection points: 2
#     Edge 43, Type (0, 0), BuildingBlock: OJICUG_clean_linker_0, # of connection points: 2
#     Edge 44, Type (0, 0), BuildingBlock: OJICUG_clean_linker_0, # of connection points: 2
#     Edge 45, Type (0, 0), BuildingBlock: OJICUG_clean_linker_0, # of connection points: 2
#     Edge 46, Type (0, 0), BuildingBlock: OJICUG_clean_linker_0, # of connection points: 2
#     Edge 47, Type (0, 0), BuildingBlock: OJICUG_clean_linker_0, # of connection points: 2
#     Edge 48, Type (0, 0), BuildingBlock: OJICUG_clean_linker_0, # of connection points: 2
#     Edge 49, Type (0, 0), BuildingBlock: OJICUG_clean_linker_0, # of connection points: 2
#     Edge 50, Type (0, 0), BuildingBlock: OJICUG_clean_linker_0, # of connection points: 2
#     Edge 51, Type (0, 0), BuildingBlock: OJICUG_clean_linker_0, # of connection points: 2
#     Edge 52, Type (0, 0), BuildingBlock: OJICUG_clean_linker_0, # of connection points: 2
#     Edge 53, Type (0, 0), BuildingBlock: OJICUG_clean_linker_0, # of connection points: 2
#     Edge 54, Type (0, 0), BuildingBlock: OJICUG_clean_linker_0, # of connection points: 2
#     Edge 55, Type (0, 0), BuildingBlock: OJICUG_clean_linker_0, # of connection points: 2
#     Edge 56, Type (0, 0), BuildingBlock: OJICUG_clean_linker_0, # of connection points: 2
#     Edge 57, Type (0, 0), BuildingBlock: OJICUG_clean_linker_0, # of connection points: 2
#     Edge 58, Type (0, 0), BuildingBlock: OJICUG_clean_linker_0, # of connection points: 2
#     Edge 59, Type (0, 0), BuildingBlock: OJICUG_clean_linker_0, # of connection points: 2
#     Edge 60, Type (0, 0), BuildingBlock: OJICUG_clean_linker_0, # of connection points: 2
#     Edge 61, Type (0, 0), BuildingBlock: OJICUG_clean_linker_0, # of connection points: 2
#     Edge 62, Type (0, 0), BuildingBlock: OJICUG_clean_linker_0, # of connection points: 2
#     Edge 63, Type (0, 0), BuildingBlock: OJICUG_clean_linker_0, # of connection points: 2
#     Edge 64, Type (0, 0), BuildingBlock: OJICUG_clean_linker_0, # of connection points: 2
#     Edge 65, Type (0, 0), BuildingBlock: OJICUG_clean_linker_0, # of connection points: 2
#     Edge 66, Type (0, 0), BuildingBlock: OJICUG_clean_linker_0, # of connection points: 2
#     Edge 67, Type (0, 0), BuildingBlock: OJICUG_clean_linker_0, # of connection points: 2
#     Edge 68, Type (0, 0), BuildingBlock: OJICUG_clean_linker_0, # of connection points: 2
#     Edge 69, Type (0, 0), BuildingBlock: OJICUG_clean_linker_0, # of connection points: 2
#     Edge 70, Type (0, 0), BuildingBlock: OJICUG_clean_linker_0, # of connection points: 2
#     Edge 71, Type (0, 0), BuildingBlock: OJICUG_clean_linker_0, # of connection points: 2
#     Edge 72, Type (0, 0), BuildingBlock: OJICUG_clean_linker_0, # of connection points: 2
#     Edge 73, Type (0, 0), BuildingBlock: OJICUG_clean_linker_0, # of connection points: 2
#     Edge 74, Type (0, 0), BuildingBlock: OJICUG_clean_linker_0, # of connection points: 2
#     Edge 75, Type (0, 0), BuildingBlock: OJICUG_clean_linker_0, # of connection points: 2
#     Edge 76, Type (0, 0), BuildingBlock: OJICUG_clean_linker_0, # of connection points: 2
#     Edge 77, Type (0, 0), BuildingBlock: OJICUG_clean_linker_0, # of connection points: 2
#     Edge 78, Type (0, 0), BuildingBlock: OJICUG_clean_linker_0, # of connection points: 2
#     Edge 79, Type (0, 0), BuildingBlock: OJICUG_clean_linker_0, # of connection points: 2
#     Edge 80, Type (0, 0), BuildingBlock: OJICUG_clean_linker_0, # of connection points: 2
#     Edge 81, Type (0, 0), BuildingBlock: OJICUG_clean_linker_0, # of connection points: 2
#     Edge 82, Type (0, 0), BuildingBlock: OJICUG_clean_linker_0, # of connection points: 2
#     Edge 83, Type (0, 0), BuildingBlock: OJICUG_clean_linker_0, # of connection points: 2
#     Edge 84, Type (0, 0), BuildingBlock: OJICUG_clean_linker_0, # of connection points: 2
#     Edge 85, Type (0, 0), BuildingBlock: OJICUG_clean_linker_0, # of connection points: 2
#     Edge 86, Type (0, 0), BuildingBlock: OJICUG_clean_linker_0, # of connection points: 2
#     Edge 87, Type (0, 0), BuildingBlock: OJICUG_clean_linker_0, # of connection points: 2
#     Edge 88, Type (0, 0), BuildingBlock: OJICUG_clean_linker_0, # of connection points: 2
#     Edge 89, Type (0, 0), BuildingBlock: OJICUG_clean_linker_0, # of connection points: 2
#     Edge 90, Type (0, 0), BuildingBlock: OJICUG_clean_linker_0, # of connection points: 2
#     Edge 91, Type (0, 0), BuildingBlock: OJICUG_clean_linker_0, # of connection points: 2
#     Edge 92, Type (0, 0), BuildingBlock: OJICUG_clean_linker_0, # of connection points: 2
#     Edge 93, Type (0, 0), BuildingBlock: OJICUG_clean_linker_0, # of connection points: 2
#     Edge 94, Type (0, 0), BuildingBlock: OJICUG_clean_linker_0, # of connection points: 2
#     Edge 95, Type (0, 0), BuildingBlock: OJICUG_clean_linker_0, # of connection points: 2
#     Edge 96, Type (0, 0), BuildingBlock: OJICUG_clean_linker_0, # of connection points: 2
#     Edge 97, Type (0, 0), BuildingBlock: OJICUG_clean_linker_0, # of connection points: 2
#     Edge 98, Type (0, 0), BuildingBlock: OJICUG_clean_linker_0, # of connection points: 2
#     Edge 99, Type (0, 0), BuildingBlock: OJICUG_clean_linker_0, # of connection points: 2
#     Edge 100, Type (0, 0), BuildingBlock: OJICUG_clean_linker_0, # of connection points: 2
#     Edge 101, Type (0, 0), BuildingBlock: OJICUG_clean_linker_0, # of connection points: 2
#     Edge 102, Type (0, 0), BuildingBlock: OJICUG_clean_linker_0, # of connection points: 2
#     Edge 103, Type (0, 0), BuildingBlock: OJICUG_clean_linker_0, # of connection points: 2
#     Edge 104, Type (0, 0), BuildingBlock: OJICUG_clean_linker_0, # of connection points: 2
#     Edge 105, Type (0, 0), BuildingBlock: OJICUG_clean_linker_0, # of connection points: 2
#     Edge 106, Type (0, 0), BuildingBlock: OJICUG_clean_linker_0, # of connection points: 2
#     Edge 107, Type (0, 0), BuildingBlock: OJICUG_clean_linker_0, # of connection points: 2
#     Edge 108, Type (0, 0), BuildingBlock: OJICUG_clean_linker_0, # of connection points: 2
#     Edge 109, Type (0, 0), BuildingBlock: OJICUG_clean_linker_0, # of connection points: 2
#     Edge 110, Type (0, 0), BuildingBlock: OJICUG_clean_linker_0, # of connection points: 2
#     Edge 111, Type (0, 0), BuildingBlock: OJICUG_clean_linker_0, # of connection points: 2
#     Edge 112, Type (0, 0), BuildingBlock: OJICUG_clean_linker_0, # of connection points: 2
#     Edge 113, Type (0, 0), BuildingBlock: OJICUG_clean_linker_0, # of connection points: 2
#     Edge 114, Type (0, 0), BuildingBlock: OJICUG_clean_linker_0, # of connection points: 2
#     Edge 115, Type (0, 0), BuildingBlock: OJICUG_clean_linker_0, # of connection points: 2
#     Edge 116, Type (0, 0), BuildingBlock: OJICUG_clean_linker_0, # of connection points: 2
#     Edge 117, Type (0, 0), BuildingBlock: OJICUG_clean_linker_0, # of connection points: 2
#     Edge 118, Type (0, 0), BuildingBlock: OJICUG_clean_linker_0, # of connection points: 2
#     Edge 119, Type (0, 0), BuildingBlock: OJICUG_clean_linker_0, # of connection points: 2
#     Edge 120, Type (0, 0), BuildingBlock: OJICUG_clean_linker_0, # of connection points: 2
#     Edge 121, Type (0, 0), BuildingBlock: OJICUG_clean_linker_0, # of connection points: 2
#     Edge 122, Type (0, 0), BuildingBlock: OJICUG_clean_linker_0, # of connection points: 2
#     Edge 123, Type (0, 0), BuildingBlock: OJICUG_clean_linker_0, # of connection points: 2
#     Edge 124, Type (0, 0), BuildingBlock: OJICUG_clean_linker_0, # of connection points: 2
#     Edge 125, Type (0, 0), BuildingBlock: OJICUG_clean_linker_0, # of connection points: 2
# Relax obj value: 0.146
# Max RMSD: 0.152
# Mean RMSD: 0.152
data_MOF--net-wlq--node1-BEQFEK_clean_sbu_0--edge1-OJICUG_clean_linker_0
_symmetry_space_group_name_H-M    P1
_symmetry_Int_Tables_number       1
_symmetry_cell_setting            triclinic
loop_
_symmetry_equiv_pos_as_xyz
'x, y, z'
_cell_length_a     55.433082
_cell_length_b     55.435212
_cell_length_c     30.020262
_cell_angle_alpha  89.982339
_cell_angle_beta   90.015979
_cell_angle_gamma 119.99434
loop_
_atom_site_label
_atom_site_type_symbol
_atom_site_fract_x
_atom_site_fract_y
_atom_site_fract_z
_atom_type_partial_charge
Co0 Co 0.21517 0.19013 0.95334 0.0
Co1 Co 0.23456 0.20357 0.05314 0.0
C2 C 0.27392 0.23402 0.98071 0.0
O3 O 0.25471 0.21863 0.95373 0.0
O4 O 0.26971 0.2319 0.02275 0.0
C5 C 0.21293 0.21246 0.873 0.0
O6 O 0.22658 0.23504 0.89735 0.0
C7 C 0.24779 0.22666 0.14693 0.0
C8 C 0.22726 0.18692 0.184 0.0
C9 C 0.24161 0.2155 0.18988 0.0
N10 N 0.23713 0.20545 0.11733 0.0
N11 N 0.22521 0.18186 0.14002 0.0
C12 C 0.26486 0.25675 0.1344 0.0
H13 H 0.27233 0.2589 0.09955 0.0
H14 H 0.2522 0.26704 0.13727 0.0
H15 H 0.28283 0.26754 0.15744 0.0
C16 C 0.17156 0.20092 0.98483 0.0
N17 N 0.1948 0.19961 0.99192 0.0
N18 N 0.2028 0.20603 0.03361 0.0
C19 C 0.18474 0.21193 0.05439 0.0
C20 C 0.16449 0.20906 0.02397 0.0
C21 C 0.15525 0.19226 0.94231 0.0
H22 H 0.15651 0.17474 0.92693 0.0
H23 H 0.1642 0.21007 0.91877 0.0
H24 H 0.13304 0.18573 0.94812 0.0
O25 O 0.21153 0.15458 0.96977 0.0
O26 O 0.22891 0.16572 0.03818 0.0
H27 H 0.18507 0.20387 0.12397 0.0
H28 H 0.17183 0.22707 0.11109 0.0
C29 C 0.18742 0.22098 0.10191 0.0
H30 H 0.20842 0.2391 0.10712 0.0
H31 H 0.21501 0.16216 0.12539 0.0
O32 O 0.20364 0.1888 0.89121 0.0
C33 C 0.21936 0.14855 0.00577 0.0
Co34 Co 0.80214 0.02279 0.95411 0.0
Co35 Co 0.78804 0.02817 0.05394 0.0
C36 C 0.75854 0.03806 0.9809 0.0
O37 O 0.77403 0.03427 0.95413 0.0
O38 O 0.76026 0.0356 0.02293 0.0
C39 C 0.78089 0.00037 0.87154 0.0
O40 O 0.75777 0.99222 0.89409 0.0
C41 C 0.76348 0.01605 0.14657 0.0
C42 C 0.80225 0.03889 0.18564 0.0
C43 C 0.77374 0.02199 0.19003 0.0
N44 N 0.78514 0.02868 0.11805 0.0
N45 N 0.80813 0.04252 0.14191 0.0
C46 C 0.7336 0.00035 0.13246 0.0
H47 H 0.73189 -0.00052 0.09558 0.0
H48 H 0.72317 0.97891 0.14606 0.0
H49 H 0.7226 0.01082 0.14616 0.0
C50 C 0.7906 0.96802 0.9848 0.0
N51 N 0.79195 0.99255 0.99229 0.0
N52 N 0.78546 0.9939 0.03405 0.0
C53 C 0.77957 0.96983 0.05449 0.0
C54 C 0.78247 0.95262 0.02375 0.0
C55 C 0.79926 0.96061 0.94206 0.0
H56 H 0.81726 0.97936 0.92752 0.0
H57 H 0.7817 0.95268 0.91807 0.0
H58 H 0.80509 0.94436 0.94722 0.0
O59 O 0.83776 0.05433 0.97179 0.0
O60 O 0.82628 0.06011 0.04021 0.0
H61 H 0.78657 0.97923 0.12404 0.0
H62 H 0.76667 0.9423 0.11194 0.0
C63 C 0.77052 0.96318 0.10198 0.0
H64 H 0.75091 0.96353 0.10636 0.0
H65 H 0.82805 0.05396 0.12832 0.0
O66 O 0.80411 0.01316 0.89165 0.0
C67 C 0.84371 0.06782 0.00816 0.0
Co68 Co 0.96966 0.77892 0.95196 0.0
Co69 Co 0.96564 0.759 0.05115 0.0
C70 C 0.95807 0.72111 0.97624 0.0
O71 O 0.96125 0.74028 0.94966 0.0
O72 O 0.9597 0.72487 0.0184 0.0
C73 C 0.99533 0.78908 0.86839 0.0
O74 O 0.01142 0.78162 0.88922 0.0
C75 C 0.97857 0.74596 0.14324 0.0
C76 C 0.95472 0.76034 0.18321 0.0
C77 C 0.97219 0.74934 0.18695 0.0
N78 N 0.96558 0.75489 0.11521 0.0
N79 N 0.95117 0.76311 0.13963 0.0
C80 C 0.995 0.73269 0.12844 0.0
H81 H 0.99557 0.73188 0.09153 0.0
H82 H 0.01655 0.7444 0.14151 0.0
H83 H 0.98537 0.71127 0.14221 0.0
C84 C 0.0239 0.824 0.983 0.0
N85 N -0.00017 0.80019 0.99001 0.0
N86 N -0.00094 0.79175 0.03131 0.0
C87 C 0.02316 0.80994 0.05163 0.0
C88 C 0.03972 0.83079 0.02145 0.0
C89 C 0.03064 0.84127 0.9416 0.0
H90 H 0.01128 0.8382 0.92561 0.0
H91 H 0.04185 0.83499 0.91792 0.0
H92 H 0.04429 0.8637 0.94932 0.0
O93 O 0.93708 0.78039 0.97104 0.0
O94 O 0.93248 0.76374 0.03958 0.0
H95 H 0.01477 0.80575 0.12163 0.0
H96 H 0.05151 0.82364 0.10808 0.0
C97 C 0.03063 0.8066 0.09819 0.0
H98 H 0.0307 0.78673 0.10047 0.0
H99 H 0.93932 0.77129 0.12657 0.0
O100 O 0.97667 0.79102 0.88981 0.0
C101 C 0.92397 0.77275 0.00765 0.0
Co102 Co 0.19465 0.21982 0.59683 0.0
Co103 Co 0.20609 0.23833 0.49644 0.0
C104 C 0.23643 0.27836 0.56979 0.0
O105 O 0.22168 0.25929 0.59723 0.0
O106 O 0.23403 0.2737 0.5279 0.0
C107 C 0.2141 0.22085 0.6824 0.0
O108 O 0.23757 0.2383 0.66259 0.0
C109 C 0.23135 0.24697 0.40559 0.0
C110 C 0.19703 0.24434 0.36458 0.0
C111 C 0.22328 0.24725 0.36166 0.0
N112 N 0.21055 0.24363 0.43285 0.0
N113 N 0.19034 0.2425 0.40797 0.0
C114 C 0.25898 0.25184 0.42173 0.0
H115 H 0.25886 0.2497 0.45852 0.0
H116 H 0.26442 0.23715 0.406 0.0
H117 H 0.27534 0.27317 0.41211 0.0
C118 C 0.20803 0.17784 0.56587 0.0
N119 N 0.20575 0.2005 0.55826 0.0
N120 N 0.20815 0.20608 0.51531 0.0
C121 C 0.21042 0.18583 0.49389 0.0
C122 C 0.2107 0.16744 0.52531 0.0
C123 C 0.20857 0.1672 0.61152 0.0
H124 H 0.22251 0.18486 0.63319 0.0
H125 H 0.21643 0.15234 0.61123 0.0
H126 H 0.1873 0.15703 0.62597 0.0
O127 O 0.15838 0.215 0.57887 0.0
O128 O 0.16806 0.23183 0.50997 0.0
H129 H 0.19763 0.15909 0.43621 0.0
H130 H 0.22921 0.19175 0.42971 0.0
C131 C 0.20808 0.1816 0.44449 0.0
H132 H 0.19603 0.19058 0.42966 0.0
H133 H 0.17156 0.23969 0.42055 0.0
O134 O 0.19199 0.20788 0.65942 0.0
C135 C 0.15137 0.22201 0.5429 0.0
Co136 Co 0.77559 0.97116 0.59769 0.0
Co137 Co 0.7564 0.96576 0.49768 0.0
C138 C 0.7169 0.95616 0.57051 0.0
O139 O 0.73607 0.9599 0.5975 0.0
O140 O 0.7212 0.95853 0.52851 0.0
C141 C 0.77681 0.9934 0.68058 0.0
O142 O 0.76166 0.00149 0.65839 0.0
C143 C 0.74436 0.97832 0.40513 0.0
C144 C 0.75926 0.95463 0.36593 0.0
C145 C 0.74833 0.97213 0.36163 0.0
N146 N 0.75294 0.96524 0.43358 0.0
N147 N 0.76145 0.95089 0.40965 0.0
C148 C 0.73089 0.99466 0.41936 0.0
H149 H 0.73065 0.99602 0.45624 0.0
H150 H 0.74197 0.0159 0.405 0.0
H151 H 0.70921 0.98433 0.40655 0.0
C152 C 0.81915 0.02571 0.56707 0.0
N153 N 0.79584 0.00132 0.55949 0.0
N154 N 0.78821 -5e-05 0.51759 0.0
C155 C 0.80672 0.02388 0.49713 0.0
C156 C 0.82677 0.04101 0.52802 0.0
C157 C 0.83506 0.033 0.60998 0.0
H158 H 0.83424 0.01421 0.62446 0.0
H159 H 0.82535 0.04087 0.6339 0.0
H160 H 0.85717 0.04924 0.6051 0.0
O161 O 0.7795 0.9395 0.58016 0.0
O162 O 0.76249 0.9337 0.51154 0.0
H163 H 0.80417 0.0139 0.42779 0.0
H164 H 0.82237 0.05094 0.43921 0.0
C165 C 0.8048 0.03043 0.44938 0.0
H166 H 0.78529 0.03092 0.44454 0.0
H167 H 0.76948 0.93902 0.42318 0.0
O168 O 0.78723 0.98072 0.66014 0.0
C169 C 0.77206 0.92598 0.54381 0.0
Co170 Co 0.02443 0.8057 0.59408 0.0
Co171 Co 0.0281 0.78984 0.49477 0.0
C172 C 0.0363 0.75967 0.56933 0.0
O173 O 0.03302 0.7756 0.59592 0.0
O174 O 0.03458 0.76178 0.52717 0.0
C175 C -0.00096 0.79034 0.67801 0.0
O176 O 0.98274 0.76678 0.65741 0.0
C177 C 0.015 0.76406 0.4025 0.0
C178 C 0.03829 0.80248 0.36274 0.0
C179 C 0.02114 0.77399 0.35883 0.0
N180 N 0.02783 0.78592 0.43066 0.0
N181 N 0.04189 0.80867 0.40634 0.0
C182 C -0.00108 0.7343 0.41708 0.0
H183 H -0.00102 0.73277 0.45395 0.0
H184 H 0.97715 0.72447 0.40504 0.0
H185 H 0.00835 0.72261 0.40217 0.0
C186 C 0.97007 0.79654 0.56383 0.0
N187 N 0.99405 0.79666 0.55653 0.0
N188 N 0.99462 0.78894 0.51521 0.0
C189 C 0.97046 0.78311 0.49517 0.0
C190 C 0.95408 0.78754 0.52555 0.0
C191 C 0.9637 0.80738 0.60522 0.0
H192 H 0.9832 0.8236 0.62094 0.0
H193 H 0.95245 0.79002 0.62911 0.0
H194 H 0.9502 0.81636 0.59757 0.0
O195 O 0.05673 0.83986 0.57465 0.0
O196 O 0.06113 0.82793 0.50595 0.0
H197 H 0.97835 0.78768 0.42505 0.0
H198 H 0.94171 0.76812 0.43927 0.0
C199 C 0.96282 0.77239 0.44861 0.0
H200 H 0.96325 0.75272 0.44587 0.0
H201 H 0.05355 0.82868 0.41951 0.0
O202 O 0.01772 0.8108 0.65638 0.0
C203 C 0.06964 0.84547 0.53785 0.0
Co204 Co 0.77576 0.80285 0.098 0.0
Co205 Co 0.7563 0.7887 0.99807 0.0
C206 C 0.717 0.75909 0.07101 0.0
O207 O 0.73623 0.77464 0.0978 0.0
O208 O 0.72115 0.76085 0.02897 0.0
C209 C 0.7769 0.78185 0.18094 0.0
O210 O 0.76179 0.75863 0.15873 0.0
C211 C 0.74415 0.76433 0.90519 0.0
C212 C 0.76049 0.80325 0.8664 0.0
C213 C 0.74878 0.77474 0.8618 0.0
N214 N 0.7531 0.7859 0.93388 0.0
N215 N 0.76248 0.80897 0.91017 0.0
C216 C 0.72976 0.73439 0.91902 0.0
H217 H 0.72919 0.73255 0.95587 0.0
H218 H 0.74041 0.72377 0.90473 0.0
H219 H 0.70817 0.72369 0.90579 0.0
C220 C 0.81872 0.79088 0.06768 0.0
N221 N 0.79574 0.79255 0.05999 0.0
N222 N 0.78786 0.78599 0.01825 0.0
C223 C 0.8058 0.7797 0.99804 0.0
C224 C 0.82579 0.78242 0.02889 0.0
C225 C 0.83479 0.7995 0.11043 0.0
H226 H 0.83421 0.81761 0.12486 0.0
H227 H 0.82507 0.78199 0.13448 0.0
H228 H 0.85683 0.80515 0.10531 0.0
O229 O 0.7798 0.83842 0.08019 0.0
O230 O 0.76256 0.82695 0.01177 0.0
H231 H 0.80351 0.78644 0.92833 0.0
H232 H 0.82006 0.76614 0.94092 0.0
C233 C 0.80326 0.77038 0.95068 0.0
H234 H 0.78315 0.7509 0.9465 0.0
H235 H 0.77099 0.82887 0.92389 0.0
O236 O 0.78735 0.80496 0.16049 0.0
C237 C 0.77226 0.84438 0.04382 0.0
Co238 Co 0.19195 0.97147 0.09344 0.0
Co239 Co 0.20526 0.96535 0.99352 0.0
C240 C 0.23475 0.9553 0.06672 0.0
O241 O 0.21959 0.95951 0.09355 0.0
O242 O 0.23283 0.95753 0.02467 0.0
C243 C 0.21363 0.99416 0.17571 0.0
O244 O 0.23666 0.00186 0.15317 0.0
C245 C 0.22979 0.97797 0.90102 0.0
C246 C 0.19137 0.95352 0.86176 0.0
C247 C 0.2197 0.97161 0.85751 0.0
N248 N 0.20821 0.96446 0.92944 0.0
N249 N 0.18546 0.94962 0.90548 0.0
C250 C 0.25956 0.99492 0.91531 0.0
H251 H 0.26101 -0.00237 0.95204 0.0
H252 H 0.2698 0.01555 0.89877 0.0
H253 H 0.27091 0.98409 0.90496 0.0
C254 C 0.20375 0.02611 0.06241 0.0
N255 N 0.20234 0.00157 0.05496 0.0
N256 N 0.20834 -6e-05 0.013 0.0
C257 C 0.21384 0.02386 0.99235 0.0
C258 C 0.21136 0.04125 0.02322 0.0
C259 C 0.19535 0.03368 0.10527 0.0
H260 H 0.1772 0.01505 0.11978 0.0
H261 H 0.21292 0.04135 0.12919 0.0
H262 H 0.18979 0.05014 0.10032 0.0
O263 O 0.15606 0.94027 0.07627 0.0
O264 O 0.16671 0.93399 0.00756 0.0
H265 H 0.20614 0.01295 0.9233 0.0
H266 H 0.22359 0.05006 0.93363 0.0
C267 C 0.22175 0.03009 0.94435 0.0
H268 H 0.24223 0.03164 0.9393 0.0
H269 H 0.16561 0.93738 0.91896 0.0
O270 O 0.19036 0.98151 0.15571 0.0
C271 C 0.14954 0.92672 0.03994 0.0
Co272 Co 0.0218 0.21646 0.0986 0.0
Co273 Co 0.02735 0.23608 0.99879 0.0
C274 C 0.03676 0.27526 0.07209 0.0
O275 O 0.03299 0.25599 0.09888 0.0
O276 O 0.03448 0.27113 0.03003 0.0
C277 C -0.00014 0.21494 0.182 0.0
O278 O 0.99187 0.23038 0.16048 0.0
C279 C 0.01521 0.2484 0.90601 0.0
C280 C 0.03871 0.23313 0.86718 0.0
C281 C 0.02144 0.24431 0.86261 0.0
N282 N 0.02804 0.23966 0.93467 0.0
N283 N 0.04228 0.23092 0.91095 0.0
C284 C -0.00093 0.26215 0.91994 0.0
H285 H -0.00224 0.2626 0.95681 0.0
H286 H 0.97781 0.25111 0.90566 0.0
H287 H 0.00952 0.28376 0.90683 0.0
C288 C 0.96719 0.17314 0.06757 0.0
N289 N 0.99168 0.19637 0.0602 0.0
N290 N 0.99312 0.20423 0.01842 0.0
C291 C 0.96915 0.18598 0.99783 0.0
C292 C 0.9519 0.16583 0.02849 0.0
C293 C 0.95968 0.15711 0.11035 0.0
H294 H 0.97835 0.15764 0.12481 0.0
H295 H 0.95199 0.16693 0.13437 0.0
H296 H 0.94326 0.13509 0.10531 0.0
O297 O 0.05352 0.21267 0.081 0.0
O298 O 0.05935 0.22989 0.01256 0.0
H299 H 0.97893 0.18881 0.92838 0.0
H300 H 0.94193 0.17107 0.94001 0.0
C301 C 0.96259 0.18834 0.95026 0.0
H302 H 0.96247 0.20808 0.94593 0.0
H303 H 0.05395 0.22271 0.92465 0.0
O304 O 0.01227 0.20446 0.16092 0.0
C305 C 0.06706 0.22022 0.04469 0.0
Co306 Co 0.8025 0.77795 0.45446 0.0
Co307 Co 0.78925 0.75873 0.55455 0.0
C308 C 0.75969 0.719 0.48172 0.0
O309 O 0.77476 0.73828 0.45465 0.0
O310 O 0.76172 0.72332 0.52372 0.0
C311 C 0.78091 0.77875 0.37191 0.0
O312 O 0.75786 0.76348 0.39445 0.0
C313 C 0.76451 0.74615 0.64694 0.0
C314 C 0.80308 0.76175 0.68644 0.0
C315 C 0.77456 0.75028 0.69052 0.0
N316 N 0.78628 0.75516 0.61866 0.0
N317 N 0.80915 0.76408 0.64277 0.0
C318 C 0.7347 0.73216 0.63248 0.0
H319 H 0.7332 0.73225 0.59561 0.0
H320 H 0.72402 0.74262 0.64724 0.0
H321 H 0.7238 0.71034 0.64469 0.0
C322 C 0.79045 0.82077 0.48531 0.0
N323 N 0.79213 0.79778 0.49281 0.0
N324 N 0.78603 0.79008 0.53472 0.0
C325 C 0.7801 0.80821 0.55525 0.0
C326 C 0.78252 0.82809 0.52441 0.0
C327 C 0.79871 0.83671 0.44241 0.0
H328 H 0.81682 0.83624 0.42773 0.0
H329 H 0.78108 0.82678 0.41861 0.0
H330 H 0.80423 0.85871 0.44738 0.0
O331 O 0.83837 0.78252 0.47172 0.0
O332 O 0.82776 0.76577 0.54055 0.0
H333 H 0.78767 0.80577 0.62458 0.0
H334 H 0.76817 0.82331 0.61324 0.0
C335 C 0.77157 0.80605 0.603 0.0
H336 H 0.75179 0.7863 0.60778 0.0
H337 H 0.82912 0.7725 0.62939 0.0
O338 O 0.80414 0.78946 0.39202 0.0
C339 C 0.84489 0.7755 0.50808 0.0
Co340 Co 0.21815 0.02494 0.44901 0.0
Co341 Co 0.23542 0.02967 0.55024 0.0
C342 C 0.27627 0.04005 0.47863 0.0
O343 O 0.2574 0.03579 0.45069 0.0
O344 O 0.27146 0.03819 0.5205 0.0
C345 C 0.2177 0.00278 0.36641 0.0
O346 O 0.23257 0.99459 0.38912 0.0
C347 C 0.2475 0.01728 0.64308 0.0
C348 C 0.22917 0.03792 0.68209 0.0
C349 C 0.24214 0.02226 0.68651 0.0
N350 N 0.23779 0.02929 0.61451 0.0
N351 N 0.22717 0.04179 0.63836 0.0
C352 C 0.26312 0.00299 0.62915 0.0
H353 H 0.26515 0.00325 0.59235 0.0
H354 H 0.25235 0.98116 0.64107 0.0
H355 H 0.28412 0.01368 0.64463 0.0
C356 C 0.17457 0.96975 0.47825 0.0
N357 N 0.19737 0.99444 0.48667 0.0
N358 N 0.20474 0.99545 0.52864 0.0
C359 C 0.1867 0.97105 0.54824 0.0
C360 C 0.16711 0.95394 0.51681 0.0
C361 C 0.15905 0.96246 0.43499 0.0
H362 H 0.15986 0.98121 0.42032 0.0
H363 H 0.16902 0.95467 0.41143 0.0
H364 H 0.13695 0.9461 0.43949 0.0
O365 O 0.21486 0.05711 0.46581 0.0
O366 O 0.22773 0.06074 0.53688 0.0
H367 H 0.18701 0.97892 0.61808 0.0
H368 H 0.17272 0.94244 0.60438 0.0
C369 C 0.18882 0.964 0.59565 0.0
H370 H 0.20946 0.96597 0.60086 0.0
H371 H 0.21791 0.05251 0.62473 0.0
O372 O 0.20723 0.01559 0.38634 0.0
C373 C 0.21991 0.06923 0.50333 0.0
Co374 Co 0.97183 0.18931 0.45534 0.0
Co375 Co 0.96621 0.20381 0.55481 0.0
C376 C 0.95709 0.23345 0.48108 0.0
O377 O 0.96075 0.21772 0.45468 0.0
O378 O 0.95939 0.23185 0.52318 0.0
C379 C 0.99468 0.21042 0.37307 0.0
O380 O 0.00324 0.23352 0.39586 0.0
C381 C 0.97825 0.22873 0.64714 0.0
C382 C 0.95477 0.19021 0.6866 0.0
C383 C 0.97201 0.2187 0.69071 0.0
N384 N 0.96545 0.20697 0.61885 0.0
N385 N 0.95123 0.18414 0.64293 0.0
C386 C 0.99436 0.25852 0.63268 0.0
H387 H 0.99539 0.26004 0.59578 0.0
H388 H 0.01574 0.26876 0.64648 0.0
H389 H 0.9841 0.26985 0.64588 0.0
C390 C 0.02634 0.2005 0.48682 0.0
N391 N 0.00182 0.19921 0.494 0.0
N392 N 0.00039 0.20585 0.53565 0.0
C393 C 0.02441 0.21176 0.55632 0.0
C394 C 0.04168 0.20875 0.52584 0.0
C395 C 0.03397 0.19199 0.44414 0.0
H396 H 0.01531 0.17402 0.42937 0.0
H397 H 0.04198 0.20961 0.42027 0.0
H398 H 0.05023 0.1862 0.44949 0.0
O399 O 0.93992 0.15395 0.47288 0.0
O400 O 0.93395 0.16573 0.54098 0.0
H401 H 0.01465 0.20558 0.62584 0.0
H402 H 0.05164 0.22438 0.61411 0.0
C403 C 0.03106 0.22114 0.60367 0.0
H404 H 0.0314 0.24115 0.60731 0.0
H405 H 0.93959 0.16418 0.62954 0.0
O406 O 0.98156 0.18717 0.39301 0.0
C407 C 0.92621 0.14824 0.509 0.0
Co408 Co 0.88092 0.52132 0.28624 0.0
Co409 Co 0.90061 0.53524 0.38589 0.0
C410 C 0.93967 0.56553 0.31309 0.0
O411 O 0.92044 0.54995 0.28628 0.0
O412 O 0.93557 0.56355 0.35514 0.0
C413 C 0.8784 0.54376 0.20632 0.0
O414 O 0.89166 0.56617 0.23117 0.0
C415 C 0.91404 0.5589 0.47924 0.0
C416 C 0.89451 0.51942 0.51704 0.0
C417 C 0.90839 0.54804 0.52238 0.0
N418 N 0.90355 0.53749 0.45003 0.0
N419 N 0.89224 0.51406 0.47314 0.0
C420 C 0.93056 0.58894 0.46618 0.0
H421 H 0.93682 0.591 0.43067 0.0
H422 H 0.91802 0.59923 0.47106 0.0
H423 H 0.94929 0.59983 0.48768 0.0
C424 C 0.83731 0.53213 0.31791 0.0
N425 N 0.86058 0.53086 0.32491 0.0
N426 N 0.86874 0.53751 0.3665 0.0
C427 C 0.85077 0.54353 0.38727 0.0
C428 C 0.8304 0.54049 0.35698 0.0
C429 C 0.82087 0.52335 0.27552 0.0
H430 H 0.82219 0.50587 0.26009 0.0
H431 H 0.82966 0.54114 0.25193 0.0
H432 H 0.79866 0.51672 0.28153 0.0
O433 O 0.87744 0.48583 0.303 0.0
O434 O 0.89494 0.49735 0.3713 0.0
H435 H 0.85192 0.53622 0.45698 0.0
H436 H 0.83794 0.55877 0.44396 0.0
C437 C 0.85371 0.55297 0.4346 0.0
H438 H 0.8746 0.5714 0.43914 0.0
H439 H 0.88229 0.49425 0.45888 0.0
O440 O 0.86933 0.51999 0.22406 0.0
C441 C 0.88536 0.48 0.33912 0.0
Co442 Co 0.46896 0.357 0.28791 0.0
Co443 Co 0.45488 0.3622 0.3879 0.0
C444 C 0.42489 0.37154 0.31493 0.0
O445 O 0.44048 0.36797 0.28807 0.0
O446 O 0.42678 0.3692 0.35696 0.0
C447 C 0.44782 0.33442 0.2053 0.0
O448 O 0.42466 0.32609 0.22781 0.0
C449 C 0.43033 0.34974 0.48057 0.0
C450 C 0.46906 0.37287 0.51964 0.0
C451 C 0.44059 0.35572 0.52404 0.0
N452 N 0.45197 0.36259 0.45205 0.0
N453 N 0.47492 0.3766 0.47591 0.0
C454 C 0.40046 0.33378 0.46647 0.0
H455 H 0.39874 0.33316 0.4296 0.0
H456 H 0.39031 0.31225 0.47963 0.0
H457 H 0.38919 0.34387 0.4806 0.0
C458 C 0.45818 0.30252 0.31854 0.0
N459 N 0.45917 0.32687 0.32609 0.0
N460 N 0.45271 0.32813 0.36791 0.0
C461 C 0.4472 0.30417 0.38832 0.0
C462 C 0.45032 0.28713 0.35751 0.0
C463 C 0.46696 0.29531 0.27574 0.0
H464 H 0.48484 0.31417 0.26123 0.0
H465 H 0.44939 0.28723 0.25177 0.0
H466 H 0.47305 0.27923 0.28081 0.0
O467 O 0.5044 0.38877 0.30558 0.0
O468 O 0.49299 0.39438 0.37416 0.0
H469 H 0.45433 0.31365 0.45783 0.0
H470 H 0.43485 0.2767 0.44581 0.0
C471 C 0.43835 0.29746 0.43588 0.0
H472 H 0.41858 0.29749 0.44046 0.0
H473 H 0.49482 0.38823 0.46232 0.0
O474 O 0.47102 0.34744 0.22543 0.0
C475 C 0.51035 0.40222 0.34199 0.0
Co476 Co 0.63818 0.11051 0.2869 0.0
Co477 Co 0.63256 0.09084 0.38667 0.0
C478 C 0.62268 0.05157 0.31345 0.0
O479 O 0.62657 0.07089 0.28667 0.0
O480 O 0.62508 0.0557 0.35549 0.0
C481 C 0.66032 0.1118 0.2039 0.0
O482 O 0.66825 0.09645 0.22589 0.0
C483 C 0.64452 0.07822 0.47929 0.0
C484 C 0.62119 0.09361 0.51831 0.0
C485 C 0.6383 0.08223 0.52273 0.0
N486 N 0.63184 0.08718 0.45074 0.0
N487 N 0.61769 0.09599 0.47457 0.0
C488 C 0.66051 0.06434 0.46519 0.0
H489 H 0.66204 0.06419 0.42833 0.0
H490 H 0.68169 0.07507 0.47985 0.0
H491 H 0.64979 0.04261 0.47782 0.0
C492 C 0.69305 0.15337 0.31773 0.0
N493 N 0.6684 0.13035 0.32521 0.0
N494 N 0.66694 0.12246 0.36698 0.0
C495 C 0.69107 0.14047 0.38744 0.0
C496 C 0.70843 0.16048 0.3567 0.0
C497 C 0.70065 0.16942 0.27496 0.0
H498 H 0.68205 0.16904 0.26049 0.0
H499 H 0.70827 0.15953 0.25094 0.0
H500 H 0.71717 0.1914 0.28005 0.0
O501 O 0.60672 0.11471 0.3046 0.0
O502 O 0.60078 0.09736 0.37297 0.0
H503 H 0.68137 0.13759 0.45694 0.0
H504 H 0.71835 0.1552 0.44519 0.0
C505 C 0.69765 0.138 0.43496 0.0
H506 H 0.69767 0.11821 0.43915 0.0
H507 H 0.60614 0.10435 0.46097 0.0
O508 O 0.64782 0.12234 0.22453 0.0
C509 C 0.59319 0.1072 0.34092 0.0
Co510 Co 0.8616 0.55308 0.92975 0.0
Co511 Co 0.87254 0.57078 0.82893 0.0
C512 C 0.90402 0.61111 0.90151 0.0
O513 O 0.8893 0.59238 0.92948 0.0
O514 O 0.90106 0.60613 0.85971 0.0
C515 C 0.88065 0.554 0.01589 0.0
O516 O 0.90426 0.57163 0.99662 0.0
C517 C 0.89751 0.57913 0.73782 0.0
C518 C 0.86284 0.57592 0.69709 0.0
C519 C 0.88922 0.57916 0.69395 0.0
N520 N 0.87672 0.57561 0.76526 0.0
N521 N 0.85628 0.5741 0.74053 0.0
C522 C 0.92533 0.58439 0.75366 0.0
H523 H 0.92678 0.58643 0.7905 0.0
H524 H 0.92883 0.56718 0.7436 0.0
H525 H 0.94199 0.60371 0.73802 0.0
C526 C 0.87419 0.51047 0.89928 0.0
N527 N 0.87203 0.53316 0.89132 0.0
N528 N 0.87416 0.53837 0.84826 0.0
C529 C 0.87604 0.51782 0.82714 0.0
C530 C 0.87642 0.49964 0.85886 0.0
C531 C 0.87517 0.50028 0.9451 0.0
H532 H 0.88921 0.51817 0.9663 0.0
H533 H 0.88314 0.48551 0.94495 0.0
H534 H 0.85401 0.49013 0.95997 0.0
O535 O 0.82548 0.54881 0.91202 0.0
O536 O 0.8348 0.56494 0.84272 0.0
H537 H 0.86202 0.49049 0.77022 0.0
H538 H 0.89414 0.52244 0.76263 0.0
C539 C 0.87319 0.51311 0.77786 0.0
H540 H 0.86159 0.52256 0.7629 0.0
H541 H 0.83747 0.57113 0.75325 0.0
O542 O 0.85873 0.54114 0.99245 0.0
C543 C 0.81833 0.5556 0.87597 0.0
Co544 Co 0.44255 0.30441 0.93163 0.0
Co545 Co 0.42332 0.29913 0.83165 0.0
C546 C 0.38381 0.28939 0.90454 0.0
O547 O 0.40299 0.2931 0.93147 0.0
O548 O 0.38811 0.29186 0.86254 0.0
C549 C 0.44375 0.32674 0.0144 0.0
O550 O 0.42865 0.33482 0.99205 0.0
C551 C 0.4113 0.31178 0.73911 0.0
C552 C 0.42623 0.28815 0.69985 0.0
C553 C 0.41529 0.30565 0.69559 0.0
N554 N 0.41986 0.29867 0.76753 0.0
N555 N 0.4284 0.28436 0.74355 0.0
C556 C 0.39779 0.32809 0.75339 0.0
H557 H 0.39751 0.32939 0.79027 0.0
H558 H 0.40888 0.34935 0.73912 0.0
H559 H 0.37612 0.31776 0.74052 0.0
C560 C 0.48613 0.359 0.90107 0.0
N561 N 0.4628 0.33463 0.89348 0.0
N562 N 0.45515 0.33331 0.85161 0.0
C563 C 0.47365 0.35726 0.83118 0.0
C564 C 0.49374 0.37435 0.86206 0.0
C565 C 0.50206 0.36625 0.94395 0.0
H566 H 0.50119 0.34743 0.95841 0.0
H567 H 0.49241 0.37416 0.96791 0.0
H568 H 0.52418 0.38244 0.93904 0.0
O569 O 0.44646 0.27275 0.91399 0.0
O570 O 0.42944 0.26705 0.8454 0.0
H571 H 0.47109 0.34738 0.76179 0.0
H572 H 0.48922 0.3844 0.77335 0.0
C573 C 0.47169 0.36387 0.78348 0.0
H574 H 0.45214 0.36431 0.77873 0.0
H575 H 0.43643 0.27249 0.75704 0.0
O576 O 0.45416 0.31399 0.99412 0.0
C577 C 0.43901 0.25928 0.8776 0.0
Co578 Co 0.68878 0.13683 0.93015 0.0
Co579 Co 0.69386 0.12234 0.83043 0.0
C580 C 0.70395 0.09311 0.90366 0.0
O581 O 0.70028 0.10872 0.93034 0.0
O582 O 0.70135 0.09468 0.86163 0.0
C583 C 0.66657 0.11581 0.01286 0.0
O584 O 0.65825 0.09266 0.99033 0.0
C585 C 0.68158 0.09745 0.73803 0.0
C586 C 0.70462 0.13606 0.69864 0.0
C587 C 0.68764 0.10755 0.69449 0.0
N588 N 0.69425 0.11921 0.76636 0.0
N589 N 0.7082 0.14209 0.74231 0.0
C590 C 0.66575 0.06763 0.7524 0.0
H591 H 0.66486 0.06605 0.7893 0.0
H592 H 0.64432 0.05725 0.73877 0.0
H593 H 0.67613 0.05648 0.73893 0.0
C594 C 0.63391 0.12514 0.89976 0.0
N595 N 0.6584 0.12645 0.89217 0.0
N596 N 0.65965 0.11983 0.85044 0.0
C597 C 0.63554 0.11392 0.83012 0.0
C598 C 0.61841 0.11692 0.86091 0.0
C599 C 0.62663 0.13396 0.94247 0.0
H600 H 0.64543 0.15199 0.95683 0.0
H601 H 0.61874 0.11648 0.96661 0.0
H602 H 0.61039 0.13981 0.93733 0.0
O603 O 0.7202 0.1724 0.91198 0.0
O604 O 0.72578 0.16066 0.84364 0.0
H605 H 0.64486 0.12076 0.76052 0.0
H606 H 0.60794 0.10105 0.77276 0.0
C607 C 0.62879 0.10481 0.78267 0.0
H608 H 0.62902 0.08512 0.77836 0.0
H609 H 0.71971 0.16206 0.75573 0.0
O610 O 0.67937 0.139 0.99266 0.0
C611 C 0.73355 0.17823 0.87548 0.0
Co612 Co 0.4454 0.13815 0.43092 0.0
Co613 Co 0.42581 0.12395 0.33108 0.0
C614 C 0.38655 0.09456 0.40424 0.0
O615 O 0.4058 0.1101 0.43101 0.0
O616 O 0.39076 0.09619 0.36223 0.0
C617 C 0.44648 0.11687 0.51344 0.0
O618 O 0.43161 0.09379 0.49075 0.0
C619 C 0.413 0.09911 0.23864 0.0
C620 C 0.42895 0.13776 0.19923 0.0
C621 C 0.41718 0.10922 0.19508 0.0
N622 N 0.42226 0.12089 0.26697 0.0
N623 N 0.43141 0.1438 0.24292 0.0
C624 C 0.39875 0.06928 0.25301 0.0
H625 H 0.39781 0.06769 0.2899 0.0
H626 H 0.40979 0.05879 0.23979 0.0
H627 H 0.37732 0.05825 0.23914 0.0
C628 C 0.48853 0.12649 0.40013 0.0
N629 N 0.4654 0.12792 0.39267 0.0
N630 N 0.45751 0.12143 0.35092 0.0
C631 C 0.47561 0.11545 0.33046 0.0
C632 C 0.49571 0.1183 0.36116 0.0
C633 C 0.50459 0.13504 0.44289 0.0
H634 H 0.50392 0.15306 0.4575 0.0
H635 H 0.49492 0.11746 0.46682 0.0
H636 H 0.52665 0.14079 0.43772 0.0
O637 O 0.44937 0.1737 0.41318 0.0
O638 O 0.43198 0.16214 0.34482 0.0
H639 H 0.47312 0.12234 0.26088 0.0
H640 H 0.49003 0.10233 0.27303 0.0
C641 C 0.47309 0.1063 0.28301 0.0
H642 H 0.45306 0.08673 0.27875 0.0
H643 H 0.44003 0.16378 0.25634 0.0
O644 O 0.45699 0.14011 0.4934 0.0
C645 C 0.44169 0.17958 0.37687 0.0
Co646 Co 0.85885 0.30327 0.42908 0.0
Co647 Co 0.87258 0.29739 0.32923 0.0
C648 C 0.90256 0.28818 0.40252 0.0
O649 O 0.88712 0.29206 0.42926 0.0
O650 O 0.90063 0.29032 0.36045 0.0
C651 C 0.87988 0.32589 0.51183 0.0
O652 O 0.90313 0.33383 0.48981 0.0
C653 C 0.8968 0.30999 0.23639 0.0
C654 C 0.85811 0.28582 0.19762 0.0
C655 C 0.88643 0.30376 0.193 0.0
N656 N 0.87535 0.29656 0.26509 0.0
N657 N 0.85243 0.2819 0.2414 0.0
C658 C 0.92665 0.32676 0.25027 0.0
H659 H 0.92836 0.32896 0.28707 0.0
H660 H 0.93676 0.34762 0.23454 0.0
H661 H 0.93797 0.31612 0.23869 0.0
C662 C 0.86973 0.35761 0.39774 0.0
N663 N 0.86869 0.33322 0.39047 0.0
N664 N 0.87491 0.33167 0.34861 0.0
C665 C 0.88022 0.3555 0.32786 0.0
C666 C 0.87732 0.37273 0.35852 0.0
C667 C 0.86118 0.36509 0.44052 0.0
H668 H 0.84316 0.34638 0.4551 0.0
H669 H 0.87875 0.37297 0.46446 0.0
H670 H 0.85538 0.38137 0.43545 0.0
O671 O 0.8233 0.27155 0.41186 0.0
O672 O 0.83441 0.26541 0.34339 0.0
H673 H 0.8729 0.34501 0.25865 0.0
H674 H 0.89096 0.3821 0.26946 0.0
C675 C 0.88857 0.36188 0.28004 0.0
H676 H 0.90886 0.36295 0.27538 0.0
H677 H 0.83264 0.26977 0.25513 0.0
O678 O 0.8568 0.31314 0.49134 0.0
C679 C 0.81716 0.25787 0.37568 0.0
Co680 Co 0.68894 0.55 0.4323 0.0
Co681 Co 0.69457 0.56957 0.33244 0.0
C682 C 0.70474 0.60901 0.40562 0.0
O683 O 0.70074 0.58968 0.43247 0.0
O684 O 0.70228 0.60481 0.36359 0.0
C685 C 0.66719 0.54892 0.51572 0.0
O686 O 0.65953 0.5646 0.49414 0.0
C687 C 0.68259 0.58207 0.23969 0.0
C688 C 0.70571 0.56636 0.20083 0.0
C689 C 0.68869 0.57783 0.19629 0.0
N690 N 0.69525 0.57312 0.26833 0.0
N691 N 0.70927 0.56413 0.24459 0.0
C692 C 0.66674 0.59611 0.25364 0.0
H693 H 0.66527 0.5964 0.2905 0.0
H694 H 0.64554 0.58542 0.23906 0.0
H695 H 0.67753 0.6178 0.24082 0.0
C696 C 0.63401 0.50718 0.40147 0.0
N697 N 0.65865 0.53021 0.39403 0.0
N698 N 0.66014 0.53808 0.35223 0.0
C699 C 0.63605 0.52003 0.33172 0.0
C700 C 0.61868 0.50001 0.36244 0.0
C701 C 0.62641 0.49113 0.44425 0.0
H702 H 0.64499 0.49145 0.45864 0.0
H703 H 0.6189 0.50109 0.46832 0.0
H704 H 0.60983 0.46917 0.43923 0.0
O705 O 0.72028 0.5456 0.41457 0.0
O706 O 0.72619 0.56279 0.3461 0.0
H707 H 0.64575 0.52261 0.26225 0.0
H708 H 0.60877 0.50533 0.27396 0.0
C709 C 0.62955 0.52243 0.28413 0.0
H710 H 0.62973 0.54231 0.27973 0.0
H711 H 0.72076 0.55573 0.25827 0.0
O712 O 0.67934 0.53815 0.49469 0.0
C713 C 0.73375 0.55295 0.37817 0.0
Co714 Co 0.46878 0.11081 0.78757 0.0
Co715 Co 0.45463 0.09102 0.88728 0.0
C716 C 0.42512 0.05186 0.81381 0.0
O717 O 0.44061 0.07123 0.78714 0.0
O718 O 0.42685 0.05593 0.85588 0.0
C719 C 0.44813 0.11238 0.70447 0.0
O720 O 0.42479 0.09704 0.72627 0.0
C721 C 0.43012 0.07876 0.97999 0.0
C722 C 0.46881 0.09368 0.01893 0.0
C723 C 0.44039 0.08276 0.02342 0.0
N724 N 0.45169 0.08733 0.95139 0.0
N725 N 0.47461 0.09584 0.97518 0.0
C726 C 0.40026 0.06526 0.96596 0.0
H727 H 0.39856 0.06533 0.92912 0.0
H728 H 0.39001 0.07608 0.98098 0.0
H729 H 0.38907 0.04346 0.97825 0.0
C730 C 0.45729 0.15399 0.81862 0.0
N731 N 0.45861 0.13078 0.82597 0.0
N732 N 0.45217 0.12288 0.86774 0.0
C733 C 0.44639 0.1411 0.88832 0.0
C734 C 0.44926 0.16125 0.85767 0.0
C735 C 0.46587 0.17008 0.77589 0.0
H736 H 0.48401 0.16955 0.76145 0.0
H737 H 0.44837 0.16032 0.75182 0.0
H738 H 0.47148 0.1921 0.78101 0.0
O739 O 0.50432 0.1147 0.80522 0.0
O740 O 0.49286 0.09728 0.87354 0.0
H741 H 0.45323 0.13798 0.95775 0.0
H742 H 0.43437 0.15616 0.94627 0.0
C743 C 0.43749 0.13874 0.9359 0.0
H744 H 0.41747 0.11915 0.94011 0.0
H745 H 0.49448 0.1039 0.96154 0.0
O746 O 0.47112 0.12279 0.72527 0.0
C747 C 0.51028 0.10705 0.84148 0.0
Co748 Co 0.88321 0.35644 0.78492 0.0
Co749 Co 0.90085 0.36181 0.88607 0.0
C750 C 0.94144 0.37179 0.81397 0.0
O751 O 0.92246 0.36729 0.78613 0.0
O752 O 0.93675 0.37015 0.85586 0.0
C753 C 0.88244 0.33378 0.70266 0.0
O754 O 0.89718 0.32553 0.72563 0.0
C755 C 0.91324 0.34931 0.97845 0.0
C756 C 0.89633 0.37102 0.01815 0.0
C757 C 0.90857 0.35465 0.02208 0.0
N758 N 0.90382 0.36177 0.95027 0.0
N759 N 0.89407 0.37493 0.9745 0.0
C760 C 0.92801 0.33427 0.9639 0.0
H761 H 0.92956 0.33433 0.92703 0.0
H762 H 0.9169 0.31249 0.97603 0.0
H763 H 0.94919 0.34454 0.97871 0.0
C764 C 0.83928 0.30177 0.81538 0.0
N765 N 0.86243 0.32626 0.82323 0.0
N766 N 0.86981 0.32756 0.86526 0.0
C767 C 0.85136 0.30355 0.8855 0.0
C768 C 0.83153 0.2864 0.8544 0.0
C769 C 0.8237 0.29434 0.77216 0.0
H770 H 0.82467 0.31309 0.75719 0.0
H771 H 0.83354 0.28632 0.74878 0.0
H772 H 0.80155 0.27815 0.7768 0.0
O773 O 0.88016 0.38881 0.80137 0.0
O774 O 0.89317 0.39285 0.87245 0.0
H775 H 0.8524 0.31276 0.95493 0.0
H776 H 0.83634 0.2759 0.94281 0.0
C777 C 0.85318 0.29696 0.93327 0.0
H778 H 0.87331 0.29783 0.93873 0.0
H779 H 0.88521 0.3861 0.96122 0.0
O780 O 0.87206 0.34675 0.72234 0.0
C781 C 0.8853 0.40115 0.83871 0.0
Co782 Co 0.63859 0.52296 0.78914 0.0
Co783 Co 0.6331 0.53726 0.88875 0.0
C784 C 0.62381 0.56702 0.81537 0.0
O785 O 0.62746 0.55138 0.78874 0.0
O786 O 0.62617 0.5653 0.85743 0.0
C787 C 0.66133 0.54417 0.70679 0.0
O788 O 0.66985 0.56725 0.72961 0.0
C789 C 0.64523 0.56218 0.98103 0.0
C790 C 0.62195 0.52367 0.02057 0.0
C791 C 0.63909 0.55217 0.02462 0.0
N792 N 0.63247 0.5404 0.95279 0.0
N793 N 0.61836 0.51757 0.9769 0.0
C794 C 0.66124 0.59197 0.96652 0.0
H795 H 0.66233 0.59347 0.92963 0.0
H796 H 0.68259 0.60233 0.98046 0.0
H797 H 0.65084 0.6032 0.97957 0.0
C798 C 0.69323 0.53421 0.82031 0.0
N799 N 0.66869 0.53286 0.82764 0.0
N800 N 0.6673 0.53944 0.86934 0.0
C801 C 0.69137 0.54539 0.88988 0.0
C802 C 0.70863 0.54246 0.85928 0.0
C803 C 0.70081 0.52577 0.77753 0.0
H804 H 0.68214 0.50781 0.76274 0.0
H805 H 0.7088 0.54342 0.75372 0.0
H806 H 0.71708 0.51997 0.78275 0.0
O807 O 0.6067 0.48753 0.80668 0.0
O808 O 0.60087 0.49916 0.87496 0.0
H809 H 0.68179 0.53912 0.95945 0.0
H810 H 0.71875 0.55818 0.94752 0.0
C811 C 0.69808 0.55476 0.93723 0.0
H812 H 0.69825 0.57468 0.94098 0.0
H813 H 0.60675 0.4976 0.96355 0.0
O814 O 0.64826 0.5209 0.72671 0.0
C815 C 0.59307 0.48172 0.84291 0.0
Co816 Co 0.54853 0.85615 0.62004 0.0
Co817 Co 0.56794 0.87061 0.71984 0.0
C818 C 0.60713 0.90052 0.64686 0.0
O819 O 0.58799 0.88476 0.62008 0.0
O820 O 0.60292 0.89878 0.68888 0.0
C821 C 0.54702 0.87725 0.53755 0.0
O822 O 0.56159 0.90038 0.56027 0.0
C823 C 0.5803 0.89531 0.81236 0.0
C824 C 0.5647 0.85663 0.85161 0.0
C825 C 0.57616 0.88514 0.85587 0.0
N826 N 0.57133 0.87361 0.78394 0.0
N827 N 0.56238 0.85068 0.8079 0.0
C828 C 0.59428 0.92516 0.79813 0.0
H829 H 0.5952 0.92681 0.76125 0.0
H830 H 0.58305 0.93542 0.81148 0.0
H831 H 0.61571 0.93635 0.81199 0.0
C832 C 0.50485 0.86713 0.65049 0.0
N833 N 0.5281 0.86594 0.65813 0.0
N834 N 0.53594 0.87261 0.69985 0.0
C835 C 0.51769 0.87846 0.72011 0.0
C836 C 0.49753 0.87536 0.6893 0.0
C837 C 0.48885 0.85842 0.60768 0.0
H838 H 0.48978 0.84053 0.59311 0.0
H839 H 0.49838 0.87602 0.58375 0.0
H840 H 0.46672 0.85242 0.61278 0.0
O841 O 0.54512 0.8208 0.63781 0.0
O842 O 0.56239 0.83262 0.70619 0.0
H843 H 0.52036 0.87203 0.78981 0.0
H844 H 0.50312 0.89168 0.77724 0.0
C845 C 0.52018 0.88786 0.76742 0.0
H846 H 0.54012 0.90756 0.77144 0.0
H847 H 0.554 0.83075 0.79439 0.0
O848 O 0.53692 0.85401 0.55754 0.0
C849 C 0.55293 0.81513 0.67419 0.0
Co850 Co 0.13453 0.68996 0.62045 0.0
Co851 Co 0.12075 0.6957 0.72038 0.0
C852 C 0.09054 0.70465 0.64721 0.0
O853 O 0.10604 0.70091 0.6204 0.0
O854 O 0.09258 0.70257 0.68927 0.0
C855 C 0.11331 0.66712 0.53798 0.0
O856 O 0.09016 0.65881 0.56053 0.0
C857 C 0.09612 0.68315 0.81289 0.0
C858 C 0.13466 0.70686 0.85219 0.0
C859 C 0.10624 0.68925 0.85642 0.0
N860 N 0.11777 0.69634 0.7845 0.0
N861 N 0.14061 0.71072 0.80849 0.0
C862 C 0.06631 0.66674 0.79858 0.0
H863 H 0.06476 0.66511 0.76171 0.0
H864 H 0.05607 0.64561 0.81338 0.0
H865 H 0.05501 0.67724 0.81085 0.0
C866 C 0.12375 0.63559 0.65175 0.0
N867 N 0.12483 0.66 0.65903 0.0
N868 N 0.11855 0.66151 0.70087 0.0
C869 C 0.11313 0.63765 0.72158 0.0
C870 C 0.11606 0.62042 0.69094 0.0
C871 C 0.13224 0.62807 0.60895 0.0
H872 H 0.15014 0.6468 0.59416 0.0
H873 H 0.11457 0.62001 0.58517 0.0
H874 H 0.13818 0.6119 0.61409 0.0
O875 O 0.17001 0.72185 0.63778 0.0
O876 O 0.15888 0.72784 0.70634 0.0
H877 H 0.12031 0.64783 0.7909 0.0
H878 H 0.1017 0.61078 0.77975 0.0
C879 C 0.10454 0.6312 0.7693 0.0
H880 H 0.08444 0.63057 0.77381 0.0
H881 H 0.1605 0.72265 0.79501 0.0
O882 O 0.13652 0.68018 0.55806 0.0
C883 C 0.17612 0.73549 0.67401 0.0
Co884 Co 0.30507 0.44708 0.62095 0.0
Co885 Co 0.29957 0.42684 0.72034 0.0
C886 C 0.29003 0.38811 0.6465 0.0
O887 O 0.29367 0.4075 0.6201 0.0
O888 O 0.2925 0.39203 0.68859 0.0
C889 C 0.32781 0.44874 0.53877 0.0
O890 O 0.33632 0.43416 0.5616 0.0
C891 C 0.31124 0.41362 0.81285 0.0
C892 C 0.28836 0.42944 0.85207 0.0
C893 C 0.3051 0.41765 0.85635 0.0
N894 N 0.29885 0.42298 0.78441 0.0
N895 N 0.28498 0.43205 0.80836 0.0
C896 C 0.32687 0.3994 0.79861 0.0
H897 H 0.32778 0.39868 0.76173 0.0
H898 H 0.3483 0.41032 0.81227 0.0
H899 H 0.31634 0.37789 0.81216 0.0
C900 C 0.35991 0.48992 0.65216 0.0
N901 N 0.33525 0.46686 0.65939 0.0
N902 N 0.33383 0.45867 0.70097 0.0
C903 C 0.35798 0.47648 0.72153 0.0
C904 C 0.37533 0.49672 0.69106 0.0
C905 C 0.36755 0.50623 0.60964 0.0
H906 H 0.34891 0.50567 0.595 0.0
H907 H 0.37554 0.49671 0.58558 0.0
H908 H 0.38385 0.52825 0.61518 0.0
O909 O 0.27345 0.45092 0.6388 0.0
O910 O 0.26756 0.43307 0.7068 0.0
H911 H 0.34871 0.47336 0.79119 0.0
H912 H 0.3856 0.4903 0.7789 0.0
C913 C 0.36466 0.47349 0.76876 0.0
H914 H 0.36415 0.4534 0.77233 0.0
H915 H 0.27369 0.44073 0.79486 0.0
O916 O 0.31476 0.45896 0.55867 0.0
C917 C 0.25985 0.443 0.67504 0.0
Co918 Co 0.52375 0.88314 0.26357 0.0
Co919 Co 0.53775 0.90251 0.16364 0.0
C920 C 0.56747 0.94188 0.23666 0.0
O921 O 0.552 0.92266 0.26354 0.0
O922 O 0.56562 0.93766 0.19464 0.0
C923 C 0.54462 0.88181 0.3466 0.0
O924 O 0.5679 0.89709 0.32462 0.0
C925 C 0.56229 0.9147 0.07101 0.0
C926 C 0.52361 0.89953 0.03195 0.0
C927 C 0.55206 0.91065 0.02755 0.0
N928 N 0.54067 0.90599 0.09953 0.0
N929 N 0.51775 0.89731 0.07568 0.0
C930 C 0.59215 0.92838 0.08511 0.0
H931 H 0.59383 0.92869 0.12198 0.0
H932 H 0.60241 0.9174 0.07073 0.0
H933 H 0.60334 0.95005 0.07222 0.0
C934 C 0.53511 0.83982 0.23298 0.0
N935 N 0.53382 0.86302 0.22538 0.0
N936 N 0.54023 0.87076 0.18356 0.0
C937 C 0.54596 0.85246 0.16318 0.0
C938 C 0.54309 0.83242 0.19404 0.0
C939 C 0.5265 0.82385 0.27583 0.0
H940 H 0.50842 0.8245 0.29022 0.0
H941 H 0.54402 0.83361 0.29985 0.0
H942 H 0.52079 0.80179 0.27088 0.0
O943 O 0.48821 0.8792 0.24588 0.0
O944 O 0.49953 0.89627 0.17733 0.0
H945 H 0.53892 0.85513 0.0937 0.0
H946 H 0.55805 0.83726 0.10549 0.0
C947 C 0.55479 0.85464 0.11559 0.0
H948 H 0.5747 0.87431 0.11111 0.0
H949 H 0.49785 0.88915 0.08927 0.0
O950 O 0.52157 0.87138 0.32599 0.0
C951 C 0.48217 0.88663 0.20948 0.0
Co952 Co 0.10829 0.6376 0.26406 0.0
Co953 Co 0.08911 0.63209 0.16392 0.0
C954 C 0.04945 0.62211 0.23665 0.0
O955 O 0.06868 0.62605 0.26365 0.0
O956 O 0.05376 0.62453 0.19464 0.0
C957 C 0.10919 0.65971 0.347 0.0
O958 O 0.09386 0.66756 0.32479 0.0
C959 C 0.07703 0.64445 0.07117 0.0
C960 C 0.09308 0.6217 0.03216 0.0
C961 C 0.08154 0.63867 0.02771 0.0
N962 N 0.0859 0.63168 0.09973 0.0
N963 N 0.09511 0.61789 0.0759 0.0
C964 C 0.06283 0.66015 0.08521 0.0
H965 H 0.0617 0.66075 0.12208 0.0
H966 H 0.07403 0.68169 0.07204 0.0
H967 H 0.04148 0.64986 0.07105 0.0
C968 C 0.15168 0.69224 0.23336 0.0
N969 N 0.12842 0.66779 0.22585 0.0
N970 N 0.12075 0.66636 0.18397 0.0
C971 C 0.13915 0.69031 0.16346 0.0
C972 C 0.15922 0.70751 0.19427 0.0
C973 C 0.16762 0.69961 0.27624 0.0
H974 H 0.16686 0.68085 0.29077 0.0
H975 H 0.15789 0.70746 0.30016 0.0
H976 H 0.18971 0.71587 0.2713 0.0
O977 O 0.11241 0.60606 0.24656 0.0
O978 O 0.09543 0.60017 0.1779 0.0
H979 H 0.13715 0.68063 0.09407 0.0
H980 H 0.15427 0.71761 0.10577 0.0
C981 C 0.13711 0.69682 0.11574 0.0
H982 H 0.11724 0.69658 0.11078 0.0
H983 H 0.10351 0.60638 0.08954 0.0
O984 O 0.11983 0.64723 0.32658 0.0
C985 C 0.10504 0.59253 0.21022 0.0
Co986 Co 0.35445 0.46948 0.26432 0.0
Co987 Co 0.3599 0.45532 0.16458 0.0
C988 C 0.36935 0.42561 0.23789 0.0
O989 O 0.36563 0.44115 0.26464 0.0
O990 O 0.36701 0.42739 0.19584 0.0
C991 C 0.33261 0.44913 0.34774 0.0
O992 O 0.32456 0.42567 0.32628 0.0
C993 C 0.34765 0.43078 0.07191 0.0
C994 C 0.37154 0.46944 0.03294 0.0
C995 C 0.35405 0.44102 0.02848 0.0
N996 N 0.3606 0.45238 0.10049 0.0
N997 N 0.37506 0.47528 0.07669 0.0
C998 C 0.33124 0.40094 0.08598 0.0
H999 H 0.3297 0.39925 0.12284 0.0
H1000 H 0.31007 0.39082 0.07134 0.0
H1001 H 0.34164 0.38962 0.07332 0.0
C1002 C 0.29984 0.45819 0.23354 0.0
N1003 N 0.32432 0.45947 0.22603 0.0
N1004 N 0.3257 0.45303 0.18424 0.0
C1005 C 0.30167 0.44728 0.16378 0.0
C1006 C 0.28447 0.45017 0.19456 0.0
C1007 C 0.29242 0.46676 0.27636 0.0
H1008 H 0.31111 0.48492 0.2907 0.0
H1009 H 0.28479 0.44927 0.30044 0.0
H1010 H 0.27597 0.47233 0.27141 0.0
O1011 O 0.38615 0.5049 0.24668 0.0
O1012 O 0.39203 0.49344 0.17833 0.0
H1013 H 0.3115 0.45409 0.09432 0.0
H1014 H 0.27449 0.43531 0.10595 0.0
C1015 C 0.29503 0.43838 0.11622 0.0
H1016 H 0.29458 0.41835 0.11197 0.0
H1017 H 0.38687 0.49515 0.09031 0.0
O1018 O 0.34501 0.472 0.32661 0.0
C1019 C 0.39975 0.51082 0.21044 0.0
Co1020 Co 0.11043 0.4712 0.76553 0.0
Co1021 Co 0.09083 0.4569 0.66575 0.0
C1022 C 0.05163 0.42737 0.73901 0.0
O1023 O 0.07087 0.44301 0.76573 0.0
O1024 O 0.05582 0.42899 0.69699 0.0
C1025 C 0.11179 0.4499 0.84784 0.0
O1026 O 0.09707 0.42685 0.82503 0.0
C1027 C 0.07838 0.4321 0.57327 0.0
C1028 C 0.09377 0.47069 0.5339 0.0
C1029 C 0.08246 0.4422 0.52972 0.0
N1030 N 0.08726 0.45382 0.60163 0.0
N1031 N 0.09607 0.47669 0.57759 0.0
C1032 C 0.06455 0.40227 0.58762 0.0
H1033 H 0.06393 0.40069 0.62451 0.0
H1034 H 0.07566 0.39198 0.5739 0.0
H1035 H 0.043 0.39105 0.57423 0.0
C1036 C 0.15385 0.45999 0.73469 0.0
N1037 N 0.13053 0.4611 0.72729 0.0
N1038 N 0.12268 0.45461 0.68552 0.0
C1039 C 0.14101 0.44898 0.66499 0.0
C1040 C 0.16121 0.45203 0.69567 0.0
C1041 C 0.16996 0.46875 0.77739 0.0
H1042 H 0.16908 0.48667 0.79196 0.0
H1043 H 0.16049 0.45119 0.80139 0.0
H1044 H 0.19208 0.47475 0.77217 0.0
O1045 O 0.11432 0.50673 0.74775 0.0
O1046 O 0.09692 0.49508 0.6794 0.0
H1047 H 0.13839 0.45602 0.59551 0.0
H1048 H 0.15596 0.43661 0.60732 0.0
C1049 C 0.13872 0.44008 0.61742 0.0
H1050 H 0.11894 0.42029 0.613 0.0
H1051 H 0.10438 0.49664 0.59103 0.0
O1052 O 0.12207 0.47319 0.82797 0.0
C1053 C 0.10665 0.51256 0.71139 0.0
Co1054 Co 0.52645 0.6383 0.76491 0.0
Co1055 Co 0.54014 0.63256 0.66505 0.0
C1056 C 0.56978 0.62269 0.73816 0.0
O1057 O 0.55449 0.62672 0.76504 0.0
O1058 O 0.56788 0.625 0.69612 0.0
C1059 C 0.54708 0.66015 0.84831 0.0
O1060 O 0.57048 0.66785 0.82686 0.0
C1061 C 0.56437 0.64469 0.57219 0.0
C1062 C 0.52553 0.62111 0.53353 0.0
C1063 C 0.55395 0.63845 0.52884 0.0
N1064 N 0.54287 0.6318 0.60094 0.0
N1065 N 0.51985 0.61751 0.57732 0.0
C1066 C 0.59428 0.66091 0.586 0.0
H1067 H 0.5961 0.66237 0.62285 0.0
H1068 H 0.60447 0.68212 0.57148 0.0
H1069 H 0.60543 0.65042 0.57303 0.0
C1070 C 0.53774 0.69289 0.7339 0.0
N1071 N 0.5366 0.66846 0.72656 0.0
N1072 N 0.54283 0.66694 0.68471 0.0
C1073 C 0.54829 0.69082 0.66403 0.0
C1074 C 0.54542 0.70808 0.69472 0.0
C1075 C 0.52911 0.7003 0.77668 0.0
H1076 H 0.511 0.68157 0.79105 0.0
H1077 H 0.54659 0.70801 0.80077 0.0
H1078 H 0.52341 0.71665 0.77167 0.0
O1079 O 0.49077 0.60683 0.74744 0.0
O1080 O 0.50184 0.6008 0.67891 0.0
H1081 H 0.54066 0.68073 0.59475 0.0
H1082 H 0.55991 0.71779 0.60597 0.0
C1083 C 0.55672 0.6972 0.61624 0.0
H1084 H 0.57657 0.6974 0.61139 0.0
H1085 H 0.50001 0.6058 0.59111 0.0
O1086 O 0.52419 0.64793 0.8272 0.0
C1087 C 0.48455 0.59328 0.71113 0.0
Co1088 Co 0.35499 0.8833 0.7627 0.0
Co1089 Co 0.36059 0.90294 0.66283 0.0
C1090 C 0.37052 0.94228 0.73619 0.0
O1091 O 0.36657 0.92292 0.76295 0.0
O1092 O 0.36816 0.93816 0.69413 0.0
C1093 C 0.33305 0.88202 0.84601 0.0
O1094 O 0.32525 0.89757 0.82432 0.0
C1095 C 0.34834 0.91529 0.57008 0.0
C1096 C 0.37165 0.89989 0.53107 0.0
C1097 C 0.35443 0.91113 0.52662 0.0
N1098 N 0.36119 0.90652 0.59866 0.0
N1099 N 0.37532 0.89771 0.57482 0.0
C1100 C 0.33231 0.92914 0.58414 0.0
H1101 H 0.33082 0.92933 0.621 0.0
H1102 H 0.31113 0.91836 0.56953 0.0
H1103 H 0.34299 0.95085 0.57145 0.0
C1104 C 0.3001 0.84041 0.73195 0.0
N1105 N 0.32474 0.86344 0.72442 0.0
N1106 N 0.32618 0.87129 0.68263 0.0
C1107 C 0.30206 0.85322 0.6622 0.0
C1108 C 0.28471 0.83322 0.69299 0.0
C1109 C 0.29255 0.8244 0.77476 0.0
H1110 H 0.31114 0.82475 0.78914 0.0
H1111 H 0.28502 0.83435 0.79881 0.0
H1112 H 0.27598 0.80243 0.76977 0.0
O1113 O 0.38645 0.87912 0.74492 0.0
O1114 O 0.3924 0.89635 0.67646 0.0
H1115 H 0.31177 0.85605 0.59271 0.0
H1116 H 0.27479 0.83834 0.60444 0.0
C1117 C 0.29546 0.85559 0.61465 0.0
H1118 H 0.29534 0.87534 0.61038 0.0
H1119 H 0.38697 0.88946 0.58842 0.0
O1120 O 0.3454 0.87141 0.8251 0.0
C1121 C 0.39997 0.88654 0.70858 0.0
Co1122 Co 0.13465 0.44377 0.12193 0.0
Co1123 Co 0.1208 0.42441 0.2219 0.0
C1124 C 0.09104 0.38497 0.14891 0.0
O1125 O 0.10645 0.40422 0.12201 0.0
O1126 O 0.09292 0.3892 0.19094 0.0
C1127 C 0.11381 0.44502 0.0388 0.0
O1128 O 0.09051 0.42962 0.06065 0.0
C1129 C 0.09641 0.41235 0.31468 0.0
C1130 C 0.13519 0.42774 0.35358 0.0
C1131 C 0.10674 0.41657 0.35811 0.0
N1132 N 0.11799 0.42102 0.28606 0.0
N1133 N 0.14096 0.42982 0.30982 0.0
C1134 C 0.06653 0.39855 0.30071 0.0
H1135 H 0.06478 0.39811 0.26384 0.0
H1136 H 0.05625 0.40955 0.31498 0.0
H1137 H 0.0554 0.37694 0.31381 0.0
C1138 C 0.1233 0.48707 0.15258 0.0
N1139 N 0.12464 0.4639 0.16017 0.0
N1140 N 0.11829 0.45617 0.20201 0.0
C1141 C 0.11253 0.47445 0.22241 0.0
C1142 C 0.11532 0.49447 0.19154 0.0
C1143 C 0.1318 0.503 0.10969 0.0
H1144 H 0.14991 0.50242 0.09526 0.0
H1145 H 0.11425 0.49315 0.08571 0.0
H1146 H 0.13742 0.52504 0.11459 0.0
O1147 O 0.17021 0.4477 0.13944 0.0
O1148 O 0.15899 0.43057 0.20798 0.0
H1149 H 0.11958 0.47181 0.29189 0.0
H1150 H 0.10037 0.48959 0.28009 0.0
C1151 C 0.10369 0.47225 0.26999 0.0
H1152 H 0.08381 0.45255 0.27446 0.0
H1153 H 0.16084 0.438 0.29615 0.0
O1154 O 0.13682 0.45553 0.05953 0.0
C1155 C 0.17629 0.4402 0.17574 0.0
Co1156 Co 0.54876 0.68869 0.12141 0.0
Co1157 Co 0.5683 0.69418 0.22123 0.0
C1158 C 0.60753 0.70375 0.1482 0.0
O1159 O 0.58827 0.70002 0.12144 0.0
O1160 O 0.60338 0.70137 0.19023 0.0
C1161 C 0.5476 0.666 0.03928 0.0
O1162 O 0.56211 0.65752 0.06237 0.0
C1163 C 0.58102 0.68198 0.31351 0.0
C1164 C 0.56562 0.7051 0.35308 0.0
C1165 C 0.57709 0.68804 0.3571 0.0
N1166 N 0.57192 0.6947 0.28528 0.0
N1167 N 0.56309 0.7087 0.30942 0.0
C1168 C 0.59494 0.6661 0.29897 0.0
H1169 H 0.5955 0.66518 0.26208 0.0
H1170 H 0.5839 0.64468 0.31263 0.0
H1171 H 0.6165 0.67647 0.31229 0.0
C1172 C 0.50549 0.63406 0.15222 0.0
N1173 N 0.52869 0.65856 0.15969 0.0
N1174 N 0.53653 0.65995 0.20147 0.0
C1175 C 0.5183 0.63593 0.22196 0.0
C1176 C 0.4982 0.61871 0.19121 0.0
C1177 C 0.48943 0.62664 0.10946 0.0
H1178 H 0.4903 0.64541 0.09475 0.0
H1179 H 0.49895 0.61854 0.08559 0.0
H1180 H 0.46731 0.61051 0.11466 0.0
O1181 O 0.54488 0.72033 0.13892 0.0
O1182 O 0.56217 0.72622 0.20737 0.0
H1183 H 0.52091 0.64558 0.29144 0.0
H1184 H 0.50339 0.6086 0.27964 0.0
C1185 C 0.52061 0.62933 0.26953 0.0
H1186 H 0.54042 0.62937 0.27397 0.0
H1187 H 0.55466 0.72025 0.29608 0.0
O1188 O 0.5373 0.67904 0.05894 0.0
C1189 C 0.55249 0.73391 0.17519 0.0
Co1190 Co 0.30355 0.85589 0.11929 0.0
Co1191 Co 0.2983 0.8707 0.21888 0.0
C1192 C 0.28877 0.9 0.14513 0.0
O1193 O 0.29236 0.88421 0.11875 0.0
O1194 O 0.29124 0.89855 0.18722 0.0
C1195 C 0.32638 0.87699 0.03702 0.0
O1196 O 0.33493 0.90006 0.05988 0.0
C1197 C 0.31058 0.89564 0.31137 0.0
C1198 C 0.28753 0.85704 0.35076 0.0
C1199 C 0.30459 0.88554 0.35494 0.0
N1200 N 0.29782 0.8739 0.28302 0.0
N1201 N 0.28385 0.85102 0.30708 0.0
C1202 C 0.32645 0.92547 0.29703 0.0
H1203 H 0.3274 0.92706 0.26014 0.0
H1204 H 0.34785 0.93584 0.31077 0.0
H1205 H 0.31604 0.93661 0.31041 0.0
C1206 C 0.35822 0.86732 0.15032 0.0
N1207 N 0.33373 0.86607 0.15764 0.0
N1208 N 0.33243 0.87287 0.19924 0.0
C1209 C 0.35651 0.87886 0.21974 0.0
C1210 C 0.37366 0.87572 0.18921 0.0
C1211 C 0.36561 0.85844 0.10779 0.0
H1212 H 0.34683 0.84049 0.09325 0.0
H1213 H 0.37374 0.87594 0.08368 0.0
H1214 H 0.38173 0.85246 0.11327 0.0
O1215 O 0.27181 0.82051 0.1373 0.0
O1216 O 0.26612 0.83251 0.20541 0.0
H1217 H 0.34721 0.87257 0.28939 0.0
H1218 H 0.38412 0.89213 0.27711 0.0
C1219 C 0.36329 0.88834 0.26703 0.0
H1220 H 0.3631 0.90808 0.2708 0.0
H1221 H 0.2723 0.83106 0.29366 0.0
O1222 O 0.31318 0.85371 0.05687 0.0
C1223 C 0.25829 0.81489 0.17362 0.0
C1224 C 0.33211 0.26891 0.89619 0.0
C1225 C 0.35574 0.27977 0.92352 0.0
H1226 H 0.2877 0.24631 0.89292 0.0
C1227 C 0.35217 0.27881 0.97019 0.0
H1228 H 0.33409 0.2695 0.86026 0.0
C1229 C 0.32556 0.26539 0.98909 0.0
C1230 C 0.30194 0.25266 0.96175 0.0
H1231 H 0.36996 0.28735 0.99238 0.0
H1232 H 0.32359 0.26382 0.02502 0.0
C1233 C 0.3055 0.25552 0.9151 0.0
C1234 C 0.71438 0.07218 0.96966 0.0
C1235 C 0.71351 0.0747 0.92295 0.0
H1236 H 0.72907 0.05847 0.02477 0.0
C1237 C 0.72427 0.06175 0.89585 0.0
H1238 H 0.70591 0.08157 0.99167 0.0
C1239 C 0.73746 0.0484 0.91501 0.0
C1240 C 0.74018 0.04771 0.9617 0.0
H1241 H 0.72374 0.06307 0.8599 0.0
H1242 H 0.74659 0.03966 0.893 0.0
C1243 C 0.72758 0.05883 0.98882 0.0
C1244 C 0.9271 0.64329 0.96572 0.0
C1245 C 0.92284 0.6394 0.91929 0.0
H1246 H 0.94175 0.67204 0.0202 0.0
C1247 C 0.93405 0.66288 0.8916 0.0
H1248 H 0.91908 0.62568 0.98818 0.0
C1249 C 0.94719 0.6896 0.91021 0.0
C1250 C 0.94936 0.69335 0.95688 0.0
H1251 H 0.93133 0.66066 0.85582 0.0
H1252 H 0.95441 0.70726 0.88795 0.0
C1253 C 0.94019 0.66993 0.98429 0.0
C1254 C 0.2661 0.33026 0.56105 0.0
C1255 C 0.25465 0.30659 0.58832 0.0
H1256 H 0.28658 0.37465 0.5581 0.0
C1257 C 0.25822 0.31016 0.63491 0.0
H1258 H 0.26388 0.32828 0.52518 0.0
C1259 C 0.2711 0.33668 0.65395 0.0
C1260 C 0.28071 0.36028 0.62687 0.0
H1261 H 0.24996 0.29239 0.65707 0.0
H1262 H 0.27229 0.33856 0.6899 0.0
C1263 C 0.279 0.35684 0.58012 0.0
C1264 C 0.63859 0.92175 0.58106 0.0
C1265 C 0.63507 0.91922 0.62774 0.0
H1266 H 0.66714 0.93557 0.52618 0.0
C1267 C 0.6587 0.93238 0.65502 0.0
H1268 H 0.62078 0.9122 0.55892 0.0
C1269 C 0.68528 0.94589 0.63606 0.0
C1270 C 0.68883 0.94652 0.58942 0.0
H1271 H 0.65676 0.93106 0.69096 0.0
H1272 H 0.7031 0.95475 0.65822 0.0
C1273 C 0.66518 0.93525 0.56211 0.0
C1274 C 0.05924 0.72507 0.65493 0.0
C1275 C 0.07186 0.7139 0.62796 0.0
H1276 H 0.03763 0.74789 0.65744 0.0
C1277 C 0.06895 0.71428 0.58127 0.0
H1278 H 0.06085 0.72491 0.69088 0.0
C1279 C 0.05576 0.72757 0.56193 0.0
C1280 C 0.04514 0.74074 0.58885 0.0
H1281 H 0.07805 0.70545 0.55937 0.0
H1282 H 0.05524 0.72879 0.52596 0.0
C1283 C 0.046 0.73833 0.63558 0.0
C1284 C 0.66538 0.72751 0.06313 0.0
C1285 C 0.68908 0.74051 0.09024 0.0
H1286 H 0.62098 0.7053 0.06029 0.0
C1287 C 0.68572 0.73787 0.13694 0.0
H1288 H 0.66722 0.7289 0.02717 0.0
C1289 C 0.65921 0.72444 0.15611 0.0
C1290 C 0.63549 0.71333 0.12899 0.0
H1291 H 0.70359 0.74728 0.15895 0.0
H1292 H 0.65737 0.72403 0.19206 0.0
C1293 C 0.63886 0.71406 0.0823 0.0
C1294 C 0.26904 0.9319 0.15218 0.0
C1295 C 0.2794 0.91845 0.12538 0.0
H1296 H 0.24719 0.95445 0.15456 0.0
C1297 C 0.27828 0.92053 0.07861 0.0
H1298 H 0.26977 0.93094 0.18816 0.0
C1299 C 0.26521 0.93392 0.05915 0.0
C1300 C 0.253 0.94554 0.08602 0.0
H1301 H 0.28646 0.91074 0.05682 0.0
H1302 H 0.2635 0.93392 0.0232 0.0
C1303 C 0.256 0.9453 0.13272 0.0
C1304 C 0.0568 0.3269 0.06411 0.0
C1305 C 0.04616 0.30322 0.09129 0.0
H1306 H 0.07895 0.3713 0.06108 0.0
C1307 C 0.04707 0.30667 0.13798 0.0
H1308 H 0.05625 0.32501 0.02816 0.0
C1309 C 0.06018 0.33323 0.15705 0.0
C1310 C 0.07268 0.35693 0.12984 0.0
H1311 H 0.0387 0.28884 0.16007 0.0
H1312 H 0.06172 0.33514 0.19299 0.0
C1313 C 0.0699 0.35345 0.08317 0.0
C1314 C 0.71569 0.64065 0.47138 0.0
C1315 C 0.71453 0.63707 0.4247 0.0
H1316 H 0.73066 0.66927 0.52617 0.0
C1317 C 0.72516 0.66068 0.39736 0.0
H1318 H 0.70735 0.62287 0.49358 0.0
C1319 C 0.73844 0.68729 0.41623 0.0
C1320 C 0.74139 0.69089 0.46287 0.0
H1321 H 0.72441 0.65869 0.36142 0.0
H1322 H 0.74741 0.70507 0.39401 0.0
C1323 C 0.72898 0.66727 0.49025 0.0
C1324 C 0.30839 0.0493 0.41424 0.0
C1325 C 0.30451 0.04953 0.4607 0.0
H1326 H 0.33725 0.06315 0.35985 0.0
C1327 C 0.32796 0.06142 0.48846 0.0
H1328 H 0.29075 0.03992 0.39177 0.0
C1329 C 0.35468 0.07464 0.46995 0.0
C1330 C 0.3585 0.07628 0.4233 0.0
H1331 H 0.32573 0.06176 0.52426 0.0
H1332 H 0.37234 0.08466 0.49233 0.0
C1333 C 0.33508 0.06255 0.39575 0.0
C1334 C 0.9239 0.27839 0.46865 0.0
C1335 C 0.92105 0.27874 0.42193 0.0
H1336 H 0.93765 0.26403 0.52413 0.0
C1337 C 0.93358 0.26741 0.3951 0.0
H1338 H 0.91484 0.2873 0.49046 0.0
C1339 C 0.94678 0.25416 0.4146 0.0
C1340 C 0.94772 0.25192 0.46137 0.0
H1341 H 0.93198 0.26751 0.35914 0.0
H1342 H 0.95516 0.24457 0.39282 0.0
C1343 C 0.93707 0.26512 0.48814 0.0
C1344 C 0.99119 0.59765 0.32118 0.0
C1345 C 0.96757 0.58436 0.29393 0.0
H1346 H 0.03558 0.6204 0.32437 0.0
C1347 C 0.97107 0.58698 0.24724 0.0
H1348 H 0.98927 0.59629 0.35713 0.0
C1349 C -0.00235 0.60072 0.22827 0.0
C1350 C 0.02132 0.61217 0.25557 0.0
H1351 H 0.95325 0.57734 0.22512 0.0
H1352 H -0.00038 0.60112 0.19234 0.0
C1353 C 0.01777 0.61142 0.30222 0.0
C1354 C 0.3899 0.39446 0.23001 0.0
C1355 C 0.37895 0.40722 0.25714 0.0
H1356 H 0.41265 0.37281 0.22709 0.0
C1357 C 0.37988 0.40471 0.30384 0.0
H1358 H 0.38935 0.39578 0.19405 0.0
C1359 C 0.39335 0.39164 0.32297 0.0
C1360 C 0.40619 0.38078 0.29581 0.0
H1361 H 0.37127 0.41397 0.32587 0.0
H1362 H 0.39491 0.39133 0.35891 0.0
C1363 C 0.40336 0.38137 0.24913 0.0
C1364 C 0.58877 0.97333 0.30241 0.0
C1365 C 0.58599 0.96987 0.25573 0.0
H1366 H 0.60268 0.00178 0.3574 0.0
C1367 C 0.59871 0.99355 0.22851 0.0
H1368 H 0.57956 0.95549 0.3245 0.0
C1369 C 0.61208 0.02011 0.24757 0.0
C1370 C 0.613 0.02356 0.29426 0.0
H1371 H 0.59718 0.99165 0.19258 0.0
H1372 H 0.62063 0.03795 0.22549 0.0
C1373 C 0.60213 -0.00012 0.32145 0.0
C1374 C 0.39111 0.99402 0.72847 0.0
C1375 C 0.38013 0.97026 0.7555 0.0
H1376 H 0.41357 0.03844 0.72576 0.0
C1377 C 0.38084 0.97361 0.80221 0.0
H1378 H 0.39073 0.99222 0.69251 0.0
C1379 C 0.39403 0.00012 0.82146 0.0
C1380 C 0.40681 0.02389 0.79444 0.0
H1381 H 0.37222 0.95571 0.82418 0.0
H1382 H 0.39537 0.00192 0.85742 0.0
C1383 C 0.40429 0.02054 0.74772 0.0
C1384 C 0.99322 0.39371 0.82351 0.0
C1385 C 0.96971 0.3815 0.79589 0.0
H1386 H 0.03758 0.41747 0.82716 0.0
C1387 C 0.97354 0.38128 0.74941 0.0
H1388 H 0.99105 0.39408 0.85932 0.0
C1389 C 0.0002 0.39484 0.73077 0.0
C1390 C 0.02365 0.40887 0.75819 0.0
H1391 H 0.95586 0.37167 0.72703 0.0
H1392 H 0.00231 0.39542 0.69486 0.0
C1393 C 0.01991 0.40723 0.80487 0.0
C1394 C 0.60041 0.60152 0.73016 0.0
C1395 C 0.58804 0.61288 0.75729 0.0
H1396 H 0.62176 0.57845 0.7273 0.0
C1397 C 0.59087 0.61226 0.80397 0.0
H1398 H 0.59883 0.60181 0.69422 0.0
C1399 C 0.60392 0.59877 0.82311 0.0
C1400 C 0.61445 0.58559 0.79602 0.0
H1401 H 0.58191 0.62117 0.826 0.0
H1402 H 0.60451 0.59751 0.85907 0.0
C1403 C 0.61348 0.58803 0.74931 0.0
C1404 C 0.23384 0.25833 0.28088 0.0
C1405 C 0.23555 0.2447 0.31927 0.0
H1406 H 0.23465 0.26008 0.20968 0.0
C1407 C 0.24345 0.22441 0.31462 0.0
H1408 H 0.22724 0.27367 0.28345 0.0
C1409 C 0.24788 0.21673 0.27232 0.0
C1410 C 0.24444 0.2291 0.23371 0.0
H1411 H 0.24375 0.21259 0.34308 0.0
H1412 H 0.25218 0.19975 0.26968 0.0
C1413 C 0.23835 0.25071 0.23852 0.0
C1414 C 0.76155 0.014 0.31397 0.0
C1415 C 0.74746 0.98491 0.31871 0.0
H1416 H 0.78052 0.04858 0.26885 0.0
C1417 C 0.73805 0.96827 0.2802 0.0
H1418 H 0.77011 0.02741 0.34272 0.0
C1419 C 0.74417 0.98042 0.23776 0.0
C1420 C 0.75998 0.00948 0.23301 0.0
H1421 H 0.72766 0.94579 0.28288 0.0
H1422 H 0.73881 0.96694 0.209 0.0
C1423 C 0.76781 0.02614 0.27154 0.0
C1424 C 0.96787 0.7383 0.26814 0.0
C1425 C 0.9847 0.74788 0.22983 0.0
H1426 H 0.96617 0.73879 0.33933 0.0
C1427 C 0.01376 0.76177 0.23493 0.0
H1428 H 0.9454 0.72801 0.26519 0.0
C1429 C 0.02568 0.76784 0.27753 0.0
C1430 C 0.00883 0.76004 0.31586 0.0
H1431 H 0.02733 0.77038 0.20637 0.0
H1432 H 0.04811 0.7805 0.28049 0.0
C1433 C 0.9798 0.74422 0.31075 0.0
C1434 C 0.76787 0.73979 0.7719 0.0
C1435 C 0.76064 0.74912 0.73329 0.0
H1436 H 0.76955 0.74033 0.84315 0.0
C1437 C 0.74532 0.7629 0.73783 0.0
H1438 H 0.78022 0.72966 0.76938 0.0
C1439 C 0.73909 0.76891 0.78019 0.0
C1440 C 0.74788 0.76113 0.81883 0.0
H1441 H 0.74044 0.77139 0.70901 0.0
H1442 H 0.72911 0.7814 0.78274 0.0
C1443 C 0.76147 0.74564 0.81426 0.0
C1444 C 0.24655 0.01412 0.81041 0.0
C1445 C 0.23306 0.98502 0.81475 0.0
H1446 H 0.26041 0.04877 0.76577 0.0
C1447 C 0.22678 0.96869 0.77602 0.0
H1448 H 0.25061 0.02722 0.83937 0.0
C1449 C 0.23231 0.98105 0.73374 0.0
C1450 C 0.24401 0.01 0.72939 0.0
H1451 H 0.2158 0.94617 0.77842 0.0
H1452 H 0.22498 0.96767 0.70477 0.0
C1453 C 0.25188 0.02645 0.76814 0.0
C1454 C 0.01356 0.24814 0.73857 0.0
C1455 C 0.9845 0.23256 0.73365 0.0
H1456 H 0.04806 0.26451 0.78392 0.0
C1457 C 0.96775 0.22507 0.77205 0.0
H1458 H 0.0271 0.25323 0.70994 0.0
C1459 C 0.97978 0.2314 0.81457 0.0
C1460 C 0.00886 0.24524 0.81951 0.0
H1461 H 0.94529 0.21256 0.76924 0.0
H1462 H 0.96627 0.22308 0.84326 0.0
C1463 C 0.0256 0.25433 0.78109 0.0
C1464 C 0.9159 0.55057 0.6046 0.0
C1465 C 0.91107 0.56185 0.56591 0.0
H1466 H 0.91282 0.54712 0.67551 0.0
C1467 C 0.90335 0.58231 0.57053 0.0
H1468 H 0.92146 0.53446 0.60207 0.0
C1469 C 0.8986 0.58976 0.61285 0.0
C1470 C 0.90166 0.57709 0.65139 0.0
H1471 H 0.89853 0.59076 0.54163 0.0
H1472 H 0.89077 0.60412 0.61528 0.0
C1473 C 0.91129 0.55812 0.64689 0.0
C1474 C 0.43468 0.35973 0.60561 0.0
C1475 C 0.42689 0.34311 0.56704 0.0
H1476 H 0.43697 0.36095 0.67679 0.0
C1477 C 0.41116 0.31404 0.57172 0.0
H1478 H 0.44733 0.38218 0.60298 0.0
C1479 C 0.40507 0.30186 0.61414 0.0
C1480 C 0.41442 0.31846 0.65269 0.0
H1481 H 0.40583 0.3006 0.54293 0.0
H1482 H 0.39473 0.27937 0.61676 0.0
C1483 C 0.42845 0.34755 0.64802 0.0
C1484 C 0.69197 0.10128 0.61319 0.0
C1485 C 0.6752 0.09366 0.65157 0.0
H1486 H 0.69346 0.10346 0.542 0.0
C1487 C 0.64614 0.07799 0.64665 0.0
H1488 H 0.71441 0.11387 0.61602 0.0
C1489 C 0.63412 0.07188 0.60413 0.0
C1490 C 0.65087 0.08114 0.56573 0.0
H1491 H 0.6326 0.07278 0.6753 0.0
H1492 H 0.61165 0.06166 0.60128 0.0
C1493 C 0.67994 0.09502 0.57067 0.0
C1494 C 0.4342 0.07272 0.10493 0.0
C1495 C 0.42693 0.08211 0.06643 0.0
H1496 H 0.43666 0.07374 0.17609 0.0
C1497 C 0.41223 0.0965 0.07123 0.0
H1498 H 0.44609 0.06211 0.10219 0.0
C1499 C 0.4067 0.10306 0.11368 0.0
C1500 C 0.41558 0.09524 0.15217 0.0
H1501 H 0.40736 0.10505 0.04246 0.0
H1502 H 0.3972 0.11598 0.11638 0.0
C1503 C 0.42851 0.07913 0.14739 0.0
C1504 C 0.91881 0.35858 0.10357 0.0
C1505 C 0.91035 0.34215 0.06479 0.0
H1506 H 0.91811 0.35935 0.17482 0.0
C1507 C 0.8981 0.31314 0.06904 0.0
H1508 H 0.92778 0.38096 0.10129 0.0
C1509 C 0.8927 0.30074 0.11128 0.0
C1510 C 0.8996 0.31708 0.15009 0.0
H1511 H 0.89029 0.29978 0.04009 0.0
H1512 H 0.88134 0.27822 0.11362 0.0
C1513 C 0.91358 0.3462 0.1458 0.0
C1514 C 0.68071 0.58163 0.07231 0.0
C1515 C 0.65164 0.5661 0.06748 0.0
H1516 H 0.71526 0.59798 0.11756 0.0
C1517 C 0.63493 0.55868 0.10592 0.0
H1518 H 0.69421 0.58666 0.04363 0.0
C1519 C 0.64701 0.56505 0.1484 0.0
C1520 C 0.67609 0.57883 0.15325 0.0
H1521 H 0.61247 0.5462 0.10318 0.0
H1522 H 0.63353 0.55678 0.17714 0.0
C1523 C 0.69279 0.58785 0.11478 0.0
C1524 C 0.56417 0.91469 0.90363 0.0
C1525 C 0.5775 0.89896 0.89882 0.0
H1526 H 0.54608 0.93117 0.94884 0.0
C1527 C 0.58653 0.89128 0.93729 0.0
H1528 H 0.55592 0.91995 0.87491 0.0
C1529 C 0.58076 0.89759 0.97975 0.0
C1530 C 0.56566 0.91158 0.98457 0.0
H1531 H 0.59634 0.87864 0.93455 0.0
H1532 H 0.58577 0.88914 0.00849 0.0
C1533 C 0.55825 0.92086 0.94609 0.0
C1534 C 0.0936 0.68041 0.98027 0.0
C1535 C 0.08048 0.65133 0.98475 0.0
H1536 H 0.11165 0.71522 0.93549 0.0
C1537 C 0.07187 0.63483 0.94605 0.0
H1538 H 0.10156 0.69378 0.00917 0.0
C1539 C 0.0778 0.64713 0.90373 0.0
C1540 C 0.09261 0.67625 0.89926 0.0
H1541 H 0.06225 0.61238 0.94851 0.0
H1542 H 0.0731 0.63384 0.87485 0.0
C1543 C 0.09967 0.69272 0.93794 0.0
C1544 C 0.34637 0.42907 0.9045 0.0
C1545 C 0.31734 0.416 0.89939 0.0
H1546 H 0.38077 0.44683 0.95008 0.0
C1547 C 0.30048 0.40701 0.93769 0.0
H1548 H 0.36 0.43728 0.87593 0.0
C1549 C 0.3124 0.41262 0.98028 0.0
C1550 C 0.34147 0.4275 0.9854 0.0
H1551 H 0.27806 0.3974 0.93473 0.0
H1552 H 0.29885 0.40768 0.00887 0.0
C1553 C 0.35829 0.43482 0.9471 0.0
C1554 C 0.07212 0.4359 0.44829 0.0
C1555 C 0.08126 0.42838 0.48682 0.0
H1556 H 0.07282 0.43789 0.37707 0.0
C1557 C 0.09478 0.41283 0.48211 0.0
H1558 H 0.06217 0.44841 0.45093 0.0
C1559 C 0.10075 0.40665 0.43968 0.0
C1560 C 0.09319 0.41573 0.40113 0.0
H1561 H 0.10313 0.40772 0.51086 0.0
H1562 H 0.11304 0.39646 0.43701 0.0
C1563 C 0.07794 0.42957 0.40586 0.0
C1564 C 0.55971 0.63444 0.44726 0.0
C1565 C 0.56733 0.65114 0.48573 0.0
H1566 H 0.55695 0.63299 0.37613 0.0
C1567 C 0.58236 0.68022 0.48086 0.0
H1568 H 0.54758 0.61197 0.45006 0.0
C1569 C 0.58787 0.6923 0.43838 0.0
C1570 C 0.57864 0.67557 0.39995 0.0
H1571 H 0.58751 0.69369 0.50961 0.0
H1572 H 0.59764 0.71474 0.43564 0.0
C1573 C 0.56537 0.64652 0.40479 0.0
C1574 C 0.30051 0.89181 0.43638 0.0
C1575 C 0.31717 0.89939 0.39786 0.0
H1576 H 0.2992 0.88976 0.50759 0.0
C1577 C 0.34624 0.91502 0.40263 0.0
H1578 H 0.27805 0.87923 0.43369 0.0
C1579 C 0.35838 0.92119 0.44509 0.0
C1580 C 0.34173 0.91203 0.48361 0.0
H1581 H 0.35972 0.9202 0.37389 0.0
H1582 H 0.38085 0.93142 0.44779 0.0
C1583 C 0.31264 0.89813 0.47883 0.0
C1584 C 0.23268 0.11651 0.043 0.0
C1585 C 0.21775 0.12122 0.00961 0.0
H1586 H 0.2429 0.08754 0.07241 0.0
C1587 C 0.20149 0.09965 0.97953 0.0
H1588 H 0.24554 0.13276 0.06646 0.0
C1589 C 0.19979 0.07374 0.98331 0.0
C1590 C 0.2147 0.06913 0.01669 0.0
H1591 H 0.18962 0.1026 0.95357 0.0
H1592 H 0.18632 0.05714 0.96083 0.0
C1593 C 0.23127 0.09073 0.04632 0.0
C1594 C 0.90241 0.13611 0.05186 0.0
C1595 C 0.9239 0.14146 0.02177 0.0
H1596 H 0.86023 0.10849 0.07147 0.0
C1597 C 0.91893 0.12259 0.98713 0.0
H1598 H 0.90583 0.15045 0.07885 0.0
C1599 C 0.8928 0.09874 0.98253 0.0
C1600 C 0.8713 0.09314 0.01296 0.0
H1601 H 0.9354 0.12599 0.96416 0.0
H1602 H 0.8896 0.08447 0.95556 0.0
C1603 C 0.87638 0.1121 0.04767 0.0
C1604 C 0.86871 0.79246 0.98716 0.0
C1605 C 0.85014 0.77879 0.02221 0.0
H1606 H 0.90657 0.80118 0.95499 0.0
C1607 C 0.85581 0.76296 0.05253 0.0
H1608 H 0.8651 0.80532 0.96403 0.0
C1609 C 0.87986 0.76101 0.04806 0.0
C1610 C 0.89847 0.77464 0.01286 0.0
H1611 H 0.8417 0.75225 0.07987 0.0
H1612 H 0.88379 0.74875 0.07201 0.0
C1613 C 0.89254 0.79023 0.9823 0.0
C1614 C 0.10248 0.20309 0.57065 0.0
C1615 C 0.12342 0.21909 0.53946 0.0
H1616 H 0.05991 0.18687 0.59031 0.0
C1617 C 0.11743 0.23244 0.50496 0.0
H1618 H 0.1064 0.19246 0.59752 0.0
C1619 C 0.09107 0.22968 0.50154 0.0
C1620 C 0.07008 0.21332 0.5322 0.0
H1621 H 0.13313 0.2451 0.48061 0.0
H1622 H 0.08699 0.24017 0.47461 0.0
C1623 C 0.07597 0.20006 0.56683 0.0
C1624 C 0.76236 0.85747 0.50102 0.0
C1625 C 0.77872 0.85237 0.53102 0.0
H1626 H 0.74758 0.8849 0.48121 0.0
C1627 C 0.79279 0.87147 0.56532 0.0
H1628 H 0.75132 0.84296 0.47427 0.0
C1629 C 0.79044 0.89529 0.56967 0.0
C1630 C 0.77433 0.90065 0.53931 0.0
H1631 H 0.80607 0.86829 0.58818 0.0
H1632 H 0.80165 0.90975 0.59637 0.0
C1633 C 0.76029 0.88147 0.50495 0.0
C1634 C 0.12414 0.9207 0.55808 0.0
C1635 C 0.14274 0.92588 0.52297 0.0
H1636 H 0.08653 0.8912 0.59041 0.0
C1637 C 0.13726 0.90452 0.49248 0.0
H1638 H 0.12761 0.93706 0.58136 0.0
C1639 C 0.11342 0.87834 0.49699 0.0
C1640 C 0.09484 0.87306 0.53238 0.0
H1641 H 0.1514 0.90812 0.46511 0.0
H1642 H 0.10965 0.86224 0.47299 0.0
C1643 C 0.10054 0.8945 0.56297 0.0
C1644 C 0.79026 0.89338 0.0697 0.0
C1645 C 0.77454 0.87198 0.03904 0.0
H1646 H 0.80548 0.93591 0.08837 0.0
C1647 C 0.76085 0.87717 0.00414 0.0
H1648 H 0.8012 0.89011 0.09683 0.0
C1649 C 0.76287 0.9032 1.00001 0.0
C1650 C 0.77882 0.9246 0.03036 0.0
H1651 H 0.74845 0.86109 0.98014 0.0
H1652 H 0.75208 0.9067 0.97287 0.0
C1653 C 0.79254 0.91952 0.06518 0.0
C1654 C 0.07426 0.87302 0.06339 0.0
C1655 C 0.06806 0.85472 0.02746 0.0
H1656 H 0.10495 0.91018 0.0956 0.0
C1657 C 0.08872 0.86011 0.99567 0.0
H1658 H 0.05844 0.86958 0.08777 0.0
C1659 C 0.11518 0.88355 0.99954 0.0
C1660 C 0.12151 0.90194 0.03555 0.0
H1661 H 0.08438 0.84617 0.96772 0.0
H1662 H 0.13067 0.88716 0.97445 0.0
C1663 C 0.1008 0.89634 0.06757 0.0
C1664 C 0.12194 0.19997 0.06636 0.0
C1665 C 0.14035 0.21306 0.03086 0.0
H1666 H 0.08427 0.19198 0.09865 0.0
C1667 C 0.13477 0.22877 1.00019 0.0
H1668 H 0.12555 0.1873 0.08992 0.0
C1669 C 0.11092 0.23104 0.00454 0.0
C1670 C 0.09234 0.21786 0.03997 0.0
H1671 H 0.1488 0.23916 0.97263 0.0
H1672 H 0.10711 0.2432 0.98022 0.0
C1673 C 0.09823 0.20249 0.07106 0.0
C1674 C 0.91977 0.79573 0.48379 0.0
C1675 C 0.92587 0.78357 0.51977 0.0
H1676 H 0.88934 0.80273 0.45182 0.0
C1677 C 0.90529 0.76875 0.55191 0.0
H1678 H 0.93553 0.80777 0.45913 0.0
C1679 C 0.87902 0.76624 0.54833 0.0
C1680 C 0.87279 0.77836 0.51229 0.0
H1681 H 0.90954 0.7591 0.57991 0.0
H1682 H 0.86359 0.75469 0.57368 0.0
C1683 C 0.89341 0.79302 0.47991 0.0
C1684 C 0.23066 0.14132 0.48649 0.0
C1685 C 0.21191 0.14167 0.51758 0.0
H1686 H 0.24758 0.11759 0.4573 0.0
C1687 C 0.19497 0.11748 0.54247 0.0
H1688 H 0.24406 0.15966 0.46702 0.0
C1689 C 0.19789 0.094 0.53835 0.0
C1690 C 0.21691 0.0939 0.50781 0.0
H1691 H 0.17962 0.11679 0.56553 0.0
H1692 H 0.18507 0.07579 0.55855 0.0
C1693 C 0.23286 0.11743 0.48122 0.0
C1694 C 0.89475 0.09931 0.48313 0.0
C1695 C 0.90053 0.12089 0.51348 0.0
H1696 H 0.86701 0.05688 0.46447 0.0
C1697 C 0.88137 0.11617 0.5477 0.0
H1698 H 0.90916 0.10224 0.45652 0.0
C1699 C 0.857 0.0904 0.5515 0.0
C1700 C 0.85147 0.06882 0.5215 0.0
H1701 H 0.88511 0.1324 0.57142 0.0
H1702 H 0.84253 0.08724 0.57815 0.0
C1703 C 0.87053 0.07344 0.48734 0.0
C1704 C 0.86773 0.43104 0.31335 0.0
C1705 C 0.88371 0.45268 0.34349 0.0
H1706 H 0.85278 0.38849 0.29504 0.0
C1707 C 0.89827 0.448 0.37758 0.0
H1708 H 0.85615 0.43394 0.28686 0.0
C1709 C 0.8968 0.42221 0.38148 0.0
C1710 C 0.88053 0.40055 0.35175 0.0
H1711 H 0.9109 0.46428 0.40114 0.0
H1712 H 0.90819 0.41908 0.40805 0.0
C1713 C 0.86598 0.40513 0.31769 0.0
C1714 C 0.55942 0.4331 0.31634 0.0
C1715 C 0.53794 0.42754 0.34676 0.0
H1716 H 0.60205 0.46021 0.29804 0.0
C1717 C 0.54307 0.44649 0.38152 0.0
H1718 H 0.55619 0.41883 0.28935 0.0
C1719 C 0.56914 0.47044 0.38577 0.0
C1720 C 0.59062 0.47573 0.35568 0.0
H1721 H 0.52693 0.4429 0.40533 0.0
H1722 H 0.57261 0.48476 0.4128 0.0
C1723 C 0.58559 0.45687 0.321 0.0
C1724 C 0.54912 0.09611 0.38065 0.0
C1725 C 0.56799 0.10969 0.34571 0.0
H1726 H 0.51097 0.08768 0.41202 0.0
C1727 C 0.56245 0.12553 0.31507 0.0
H1728 H 0.5527 0.08363 0.40464 0.0
C1729 C 0.53873 0.12804 0.31966 0.0
C1730 C 0.51995 0.11444 0.35453 0.0
H1731 H 0.57666 0.13637 0.2879 0.0
H1732 H 0.53537 0.14105 0.29648 0.0
C1733 C 0.52525 0.09837 0.38486 0.0
C1734 C 0.74302 0.53388 0.90025 0.0
C1735 C 0.73706 0.54703 0.86553 0.0
H1736 H 0.7735 0.52634 0.93096 0.0
C1737 C 0.75801 0.56332 0.83476 0.0
H1738 H 0.727 0.52073 0.92382 0.0
C1739 C 0.78438 0.56608 0.83814 0.0
C1740 C 0.79042 0.55283 0.87272 0.0
H1741 H 0.75389 0.57374 0.80778 0.0
H1742 H 0.80004 0.57865 0.81368 0.0
C1743 C 0.76954 0.53692 0.90404 0.0
C1744 C 0.42739 0.21493 0.83828 0.0
C1745 C 0.44126 0.23393 0.87294 0.0
H1746 H 0.41851 0.17655 0.80722 0.0
C1747 C 0.45716 0.22836 0.90343 0.0
H1748 H 0.41485 0.21851 0.81442 0.0
C1749 C 0.45946 0.20452 0.89893 0.0
C1750 C 0.44556 0.18559 0.86434 0.0
H1751 H 0.46824 0.24267 0.93037 0.0
H1752 H 0.47256 0.20117 0.92194 0.0
C1753 C 0.42942 0.19091 0.83419 0.0
C1754 C 0.7643 0.22749 0.90034 0.0
C1755 C 0.75875 0.20587 0.87024 0.0
H1756 H 0.79149 0.27016 0.91831 0.0
C1757 C 0.77764 0.21087 0.83545 0.0
H1758 H 0.75006 0.22437 0.92734 0.0
C1759 C 0.8016 0.23692 0.83098 0.0
C1760 C 0.80697 0.25849 0.86089 0.0
H1761 H 0.77404 0.19462 0.81185 0.0
H1762 H 0.81595 0.24024 0.80405 0.0
C1763 C 0.78809 0.25363 0.89548 0.0
C1764 C 0.42962 0.21198 0.3376 0.0
C1765 C 0.44364 0.20703 0.37225 0.0
H1766 H 0.42019 0.24115 0.30674 0.0
C1767 C 0.45926 0.22848 0.40289 0.0
H1768 H 0.41727 0.19585 0.31365 0.0
C1769 C 0.46112 0.25444 0.39859 0.0
C1770 C 0.44707 0.25928 0.36401 0.0
H1771 H 0.47042 0.22538 0.42985 0.0
H1772 H 0.47398 0.2709 0.42174 0.0
C1773 C 0.43121 0.23783 0.33369 0.0
C1774 C 0.74192 0.20361 0.39775 0.0
C1775 C 0.73661 0.18459 0.36322 0.0
H1776 H 0.77163 0.24171 0.42889 0.0
C1777 C 0.75791 0.18962 0.33293 0.0
H1778 H 0.7256 0.20047 0.42087 0.0
C1779 C 0.78408 0.21348 0.33679 0.0
C1780 C 0.78948 0.2326 0.37135 0.0
H1781 H 0.75423 0.17516 0.306 0.0
H1782 H 0.80008 0.21687 0.3128 0.0
C1783 C 0.76819 0.2273 0.40202 0.0
C1784 C 0.77726 0.56304 0.33758 0.0
C1785 C 0.75879 0.55018 0.37326 0.0
H1786 H 0.81487 0.5706 0.30537 0.0
C1787 C 0.76456 0.53475 0.4044 0.0
H1788 H 0.77353 0.57522 0.3132 0.0
C1789 C 0.78807 0.5319 0.39956 0.0
C1790 C 0.8064 0.54471 0.36387 0.0
H1791 H 0.75068 0.52448 0.43218 0.0
H1792 H 0.79161 0.51923 0.42321 0.0
C1793 C 0.80091 0.56043 0.33309 0.0
C1794 C 0.54306 0.09553 0.88093 0.0
C1795 C 0.53786 0.10924 0.84608 0.0
H1796 H 0.57258 0.08668 0.91202 0.0
C1797 C 0.55921 0.12488 0.81529 0.0
H1798 H 0.52702 0.08319 0.90503 0.0
C1799 C 0.58531 0.12706 0.81965 0.0
C1800 C 0.5904 0.11333 0.85443 0.0
H1801 H 0.55592 0.13582 0.78819 0.0
H1802 H 0.60167 0.13994 0.79637 0.0
C1803 C 0.56906 0.09746 0.8849 0.0
C1804 C 0.86368 0.42633 0.87358 0.0
C1805 C 0.88236 0.42588 0.84273 0.0
H1806 H 0.84571 0.44944 0.90058 0.0
C1807 C 0.89803 0.44909 0.81537 0.0
H1808 H 0.85106 0.40836 0.89437 0.0
C1809 C 0.89589 0.47303 0.82018 0.0
C1810 C 0.87748 0.47375 0.85157 0.0
H1811 H 0.91249 0.44897 0.79121 0.0
H1812 H 0.90911 0.49115 0.80013 0.0
C1813 C 0.8608 0.44986 0.87725 0.0
C1814 C 0.54835 0.44952 0.88181 0.0
C1815 C 0.56744 0.45433 0.84743 0.0
H1816 H 0.5096 0.42052 0.91242 0.0
C1817 C 0.56162 0.43279 0.81699 0.0
H1818 H 0.55211 0.46572 0.90562 0.0
C1819 C 0.53744 0.40688 0.82125 0.0
C1820 C 0.51844 0.40218 0.85555 0.0
H1821 H 0.57598 0.43577 0.79025 0.0
H1822 H 0.53389 0.39035 0.79828 0.0
C1823 C 0.52401 0.42373 0.88566 0.0
C1824 C 0.53565 0.76615 0.64878 0.0
C1825 C 0.55135 0.78784 0.67901 0.0
H1826 H 0.52108 0.72365 0.63061 0.0
C1827 C 0.56573 0.78326 0.71351 0.0
H1828 H 0.5242 0.76895 0.62196 0.0
C1829 C 0.5644 0.75754 0.7177 0.0
C1830 C 0.54844 0.73584 0.68783 0.0
H1831 H 0.57814 0.79959 0.73715 0.0
H1832 H 0.57568 0.75451 0.74455 0.0
C1833 C 0.53404 0.74031 0.65339 0.0
C1834 C 0.23521 0.8039 0.71674 0.0
C1835 C 0.25656 0.80901 0.68648 0.0
H1836 H 0.19307 0.77651 0.73686 0.0
C1837 C 0.25132 0.78999 0.65196 0.0
H1838 H 0.23884 0.81834 0.74365 0.0
C1839 C 0.22509 0.76623 0.6477 0.0
C1840 C 0.20376 0.76084 0.67834 0.0
H1841 H 0.26767 0.79319 0.62886 0.0
H1842 H 0.22171 0.75183 0.62084 0.0
C1843 C 0.20909 0.77996 0.71289 0.0
C1844 C 0.22855 0.46075 0.64957 0.0
C1845 C 0.2344 0.44502 0.67998 0.0
H1846 H 0.20093 0.47567 0.63122 0.0
C1847 C 0.21554 0.43104 0.71477 0.0
H1848 H 0.24273 0.47189 0.62252 0.0
C1849 C 0.19138 0.43278 0.71905 0.0
C1850 C 0.18576 0.44872 0.68893 0.0
H1851 H 0.21935 0.41863 0.73858 0.0
H1852 H 0.17713 0.42179 0.7461 0.0
C1853 C 0.20454 0.46273 0.65422 0.0
C1854 C 0.44917 0.89763 0.16955 0.0
C1855 C 0.45452 0.88423 0.20472 0.0
H1856 H 0.41943 0.90597 0.13797 0.0
C1857 C 0.43321 0.86862 0.23558 0.0
H1858 H 0.46517 0.90994 0.14538 0.0
C1859 C 0.407 0.86616 0.23098 0.0
C1860 C 0.40176 0.87957 0.19587 0.0
H1861 H 0.43661 0.85791 0.26292 0.0
H1862 H 0.39067 0.85331 0.25434 0.0
C1863 C 0.42306 0.89542 0.16533 0.0
C1864 C 0.12325 0.56175 0.2365 0.0
C1865 C 0.10734 0.56719 0.20585 0.0
H1866 H 0.13864 0.53462 0.25547 0.0
C1867 C 0.09343 0.54805 0.17138 0.0
H1868 H 0.13434 0.57617 0.26331 0.0
C1869 C 0.09544 0.52401 0.16764 0.0
C1870 C 0.11161 0.51882 0.19794 0.0
H1871 H 0.08087 0.55153 0.14742 0.0
H1872 H 0.08451 0.50953 0.14081 0.0
C1873 C 0.12553 0.53788 0.23235 0.0
C1874 C 0.43088 0.55972 0.23659 0.0
C1875 C 0.42521 0.53832 0.20594 0.0
H1876 H 0.4583 0.60219 0.25543 0.0
C1877 C 0.44424 0.54338 0.17136 0.0
H1878 H 0.41656 0.55653 0.26349 0.0
C1879 C 0.46838 0.56933 0.16749 0.0
C1880 C 0.47379 0.59074 0.19778 0.0
H1881 H 0.44058 0.52729 0.14741 0.0
H1882 H 0.48276 0.57276 0.14056 0.0
C1883 C 0.45486 0.58577 0.23232 0.0
C1884 C 0.09643 0.57091 0.66784 0.0
C1885 C 0.11265 0.59251 0.69771 0.0
H1886 H 0.08196 0.52872 0.64844 0.0
C1887 C 0.12686 0.58774 0.7321 0.0
H1888 H 0.08528 0.57418 0.64103 0.0
C1889 C 0.12476 0.56169 0.73672 0.0
C1890 C 0.10875 0.54008 0.70655 0.0
H1891 H 0.14003 0.60431 0.75487 0.0
H1892 H 0.13606 0.55864 0.76352 0.0
C1893 C 0.09459 0.54497 0.67205 0.0
C1894 C 0.40917 0.5393 0.73293 0.0
C1895 C 0.40361 0.52063 0.69775 0.0
H1896 H 0.43919 0.57694 0.76486 0.0
C1897 C 0.4248 0.52578 0.66714 0.0
H1898 H 0.39295 0.53605 0.75635 0.0
C1899 C 0.45109 0.54943 0.67132 0.0
C1900 C 0.45674 0.56822 0.70652 0.0
H1901 H 0.42093 0.51158 0.63975 0.0
H1902 H 0.46699 0.55292 0.64708 0.0
C1903 C 0.43556 0.56279 0.73749 0.0
C1904 C 0.45445 0.86577 0.73054 0.0
C1905 C 0.47324 0.87919 0.6956 0.0
H1906 H 0.41654 0.8576 0.76214 0.0
C1907 C 0.4679 0.89509 0.66494 0.0
H1908 H 0.45782 0.85289 0.75399 0.0
C1909 C 0.44402 0.89736 0.66891 0.0
C1910 C 0.42516 0.88398 0.70394 0.0
H1911 H 0.48218 0.90565 0.63772 0.0
H1912 H 0.44044 0.90972 0.64468 0.0
C1913 C 0.43072 0.8683 0.73489 0.0
C1914 C 0.25135 0.46047 0.1537 0.0
C1915 C 0.25643 0.44649 0.1881 0.0
H1916 H 0.22196 0.46941 0.12272 0.0
C1917 C 0.23505 0.43034 0.21836 0.0
H1918 H 0.26775 0.47357 0.13061 0.0
C1919 C 0.20904 0.42841 0.21459 0.0
C1920 C 0.20386 0.44238 0.18014 0.0
H1921 H 0.23856 0.41938 0.24519 0.0
H1922 H 0.19298 0.41587 0.23853 0.0
C1923 C 0.22524 0.45827 0.14952 0.0
C1924 C 0.5346 0.76495 0.14904 0.0
C1925 C 0.55043 0.75936 0.17963 0.0
H1926 H 0.51949 0.79233 0.13014 0.0
C1927 C 0.56448 0.77848 0.21407 0.0
H1928 H 0.5234 0.75056 0.12225 0.0
C1929 C 0.5627 0.80263 0.21784 0.0
C1930 C 0.54661 0.80797 0.1876 0.0
H1931 H 0.57699 0.77488 0.23798 0.0
H1932 H 0.57373 0.81708 0.24465 0.0
C1933 C 0.53254 0.78895 0.15322 0.0
C1934 C 0.21382 0.78277 0.21321 0.0
C1935 C 0.23273 0.78749 0.17859 0.0
H1936 H 0.17525 0.75382 0.24438 0.0
C1937 C 0.22684 0.76583 0.14834 0.0
H1938 H 0.21766 0.79906 0.23688 0.0
C1939 C 0.20273 0.73991 0.153 0.0
C1940 C 0.18389 0.73531 0.18752 0.0
H1941 H 0.24107 0.76874 0.12144 0.0
H1942 H 0.1991 0.72331 0.13014 0.0
C1943 C 0.18956 0.75695 0.21747 0.0
C1944 C 0.19239 0.1944 0.7524 0.0
C1945 C 0.21325 0.21831 0.73109 0.0
H1946 H 0.17605 0.17366 0.81473 0.0
C1947 C 0.23319 0.24049 0.75674 0.0
H1948 H 0.17676 0.17708 0.73319 0.0
C1949 C 0.23239 0.23884 0.80299 0.0
C1950 C 0.21198 0.21474 0.8244 0.0
H1951 H 0.24929 0.2593 0.74109 0.0
H1952 H 0.24822 0.25619 0.8219 0.0
C1953 C 0.19197 0.19248 0.79884 0.0
C1954 C 0.75765 0.99722 0.79945 0.0
C1955 C 0.77994 -0.00205 0.82279 0.0
H1956 H 0.73965 0.9959 0.73595 0.0
C1957 C 0.80161 -0.00235 0.79908 0.0
H1958 H 0.74083 -0.00225 0.81696 0.0
C1959 C 0.80075 0.99621 0.75257 0.0
C1960 C 0.77858 0.99583 0.72931 0.0
H1961 H 0.81904 -0.00172 0.81648 0.0
H1962 H 0.81747 0.99565 0.73482 0.0
C1963 C 0.75714 0.99648 0.75311 0.0
C1964 C 0.97233 0.77939 0.74875 0.0
C1965 C -0.00202 0.79201 0.72655 0.0
H1966 H 0.95153 0.76945 0.81184 0.0
C1967 C 0.02285 0.80498 0.75117 0.0
H1968 H 0.95297 0.76928 0.73021 0.0
C1969 C 0.02206 0.80432 0.79762 0.0
C1970 C -0.00359 0.79158 0.81982 0.0
H1971 H 0.04286 0.81464 0.73452 0.0
H1972 H 0.04142 0.81361 0.81617 0.0
C1973 C 0.97155 0.77961 0.79518 0.0
C1974 C 0.75773 0.7587 0.29977 0.0
C1975 C 0.77993 0.78029 0.32317 0.0
H1976 H 0.73982 0.74204 0.23623 0.0
C1977 C 0.80153 0.80238 0.29951 0.0
H1978 H 0.74096 0.74127 0.31722 0.0
C1979 C 0.80069 0.803 0.25301 0.0
C1980 C 0.77862 0.78117 0.22968 0.0
H1981 H 0.8189 0.81922 0.31695 0.0
H1982 H 0.81737 0.82036 0.23531 0.0
C1983 C 0.75724 0.75898 0.25342 0.0
C1984 C 0.19396 -0.00033 0.29414 0.0
C1985 C 0.21602 5e-05 0.31773 0.0
H1986 H 0.17575 0.99721 0.23005 0.0
C1987 C 0.23737 -0.00102 0.29433 0.0
H1988 H 0.17731 0.00054 0.3116 0.0
C1989 C 0.23685 -0.00218 0.24801 0.0
C1990 C 0.21466 0.99708 0.22435 0.0
H1991 H 0.25476 -0.00045 0.31176 0.0
H1992 H 0.25358 0.99696 0.23078 0.0
C1993 C 0.1931 -0.00217 0.2477 0.0
C1994 C -0.00224 0.23459 0.25511 0.0
C1995 C -0.00215 0.21304 0.23077 0.0
H1996 H -0.0026 0.25088 0.31939 0.0
C1997 C -0.00261 0.19067 0.25349 0.0
H1998 H -0.00157 0.25223 0.23838 0.0
C1999 C -0.00356 0.18971 0.30003 0.0
C2000 C -0.00329 0.21149 0.32428 0.0
H2001 H -0.00247 0.17386 0.2353 0.0
H2002 H 0.99572 0.17212 0.31702 0.0
C2003 C -0.00249 0.23398 0.30146 0.0
C2004 C 0.89911 0.573 0.09079 0.0
C2005 C 0.87947 0.55099 0.06453 0.0
H2006 H 0.91367 0.58812 0.15637 0.0
C2007 C 0.85865 0.52676 0.0852 0.0
H2008 H 0.91519 0.59204 0.07565 0.0
C2009 C 0.85798 0.52437 0.1316 0.0
C2010 C 0.87769 0.54646 0.15776 0.0
H2011 H 0.84324 0.50956 0.06551 0.0
H2012 H 0.8421 0.50532 0.14698 0.0
C2013 C 0.89806 0.57087 0.13699 0.0
C2014 C 0.46862 0.33156 0.133 0.0
C2015 C 0.44689 0.33184 0.15658 0.0
H2016 H 0.48451 0.32938 0.06886 0.0
C2017 C 0.42454 0.33088 0.13311 0.0
H2018 H 0.4861 0.33236 0.1505 0.0
C2019 C 0.42401 0.32995 0.08678 0.0
C2020 C 0.4455 0.32931 0.06312 0.0
H2021 H 0.40767 0.33138 0.15051 0.0
H2022 H 0.40647 0.32919 0.06953 0.0
C2023 C 0.46774 0.32992 0.08651 0.0
C2024 C 0.66429 0.13665 0.08548 0.0
C2025 C 0.66438 0.11491 0.06164 0.0
H2026 H 0.66263 0.15258 0.14985 0.0
C2027 C 0.66364 0.09259 0.08487 0.0
H2028 H 0.66493 0.15412 0.06817 0.0
C2029 C 0.66309 0.09209 0.13122 0.0
C2030 C 0.66263 0.11358 0.15514 0.0
H2031 H 0.66401 0.07571 0.06726 0.0
H2032 H 0.66248 0.07456 0.14827 0.0
C2033 C 0.66304 0.13581 0.132 0.0
C2034 C 0.42585 0.09289 0.63158 0.0
C2035 C 0.44777 0.11429 0.65572 0.0
H2036 H 0.40872 0.0767 0.56747 0.0
C2037 C 0.46969 0.13652 0.63279 0.0
H2038 H 0.40885 0.07535 0.64847 0.0
C2039 C 0.46943 0.13748 0.58627 0.0
C2040 C 0.44764 0.11583 0.56222 0.0
H2041 H 0.48684 0.15322 0.65081 0.0
H2042 H 0.48634 0.15495 0.56912 0.0
C2043 C 0.42594 0.0935 0.58524 0.0
C2044 C 0.8592 0.33085 0.6299 0.0
C2045 C 0.88109 0.33116 0.65394 0.0
H2046 H 0.84149 0.32861 0.56541 0.0
C2047 C 0.90263 0.33022 0.63096 0.0
H2048 H 0.8424 0.33163 0.64702 0.0
C2049 C 0.90249 0.32926 0.58463 0.0
C2050 C 0.88048 0.32858 0.56051 0.0
H2051 H 0.91991 0.33076 0.64874 0.0
H2052 H 0.91938 0.32851 0.56775 0.0
C2053 C 0.85871 0.32918 0.58342 0.0
C2054 C 0.66501 0.56856 0.58881 0.0
C2055 C 0.66504 0.54697 0.56448 0.0
H2056 H 0.66451 0.58482 0.65306 0.0
C2057 C 0.66432 0.52448 0.58724 0.0
H2058 H 0.66586 0.58629 0.57206 0.0
C2059 C 0.66318 0.52346 0.63377 0.0
C2060 C 0.66351 0.54528 0.658 0.0
H2061 H 0.6644 0.50764 0.56908 0.0
H2062 H 0.66228 0.50579 0.65077 0.0
C2063 C 0.66457 0.56787 0.63515 0.0
C2064 C 0.56705 0.90143 0.41935 0.0
C2065 C 0.54516 0.87992 0.39533 0.0
H2066 H 0.58433 0.91766 0.48337 0.0
C2067 C 0.52345 0.85754 0.41836 0.0
H2068 H 0.58388 0.91907 0.40237 0.0
C2069 C 0.52391 0.85655 0.46487 0.0
C2070 C 0.54568 0.8783 0.48881 0.0
H2071 H 0.50633 0.84076 0.40042 0.0
H2072 H 0.50718 0.83897 0.4821 0.0
C2073 C 0.56714 0.90078 0.46569 0.0
C2074 C 0.13416 0.66449 0.46556 0.0
C2075 C 0.11234 0.66455 0.48924 0.0
H2076 H 0.15012 0.66258 0.40133 0.0
C2077 C 0.08989 0.66344 0.46585 0.0
H2078 H 0.15172 0.66541 0.48299 0.0
C2079 C 0.08935 0.66258 0.41951 0.0
C2080 C 0.11094 0.66218 0.39575 0.0
H2081 H 0.07296 0.66376 0.48331 0.0
H2082 H 0.07174 0.66171 0.40233 0.0
C2083 C 0.13327 0.66293 0.41905 0.0
C2084 C 0.33033 0.47105 0.41916 0.0
C2085 C 0.33069 0.44908 0.3965 0.0
H2086 H 0.32885 0.48805 0.48264 0.0
C2087 C 0.33062 0.42745 0.42089 0.0
H2088 H 0.33046 0.48798 0.40093 0.0
C2089 C 0.33048 0.42789 0.46723 0.0
C2090 C 0.32977 0.44963 0.48999 0.0
H2091 H 0.33121 0.41043 0.40419 0.0
H2092 H 0.33037 0.41088 0.48521 0.0
C2093 C 0.32949 0.47113 0.46569 0.0
C2094 C 0.09152 0.42625 0.91958 0.0
C2095 C 0.11306 0.44875 0.89659 0.0
H2096 H 0.07463 0.40788 0.98279 0.0
C2097 C 0.13479 0.47044 0.92066 0.0
H2098 H 0.07435 0.40941 0.90179 0.0
C2099 C 0.13515 0.46938 0.96717 0.0
C2100 C 0.11337 0.44699 0.99007 0.0
H2101 H 0.15158 0.48804 0.90355 0.0
H2102 H 0.15225 0.48612 0.98521 0.0
C2103 C 0.09152 0.42553 0.96592 0.0
C2104 C 0.56876 0.66242 0.92159 0.0
C2105 C 0.54719 0.66234 0.89704 0.0
H2106 H 0.58533 0.66294 0.98604 0.0
C2107 C 0.52531 0.66298 0.91954 0.0
H2108 H 0.58571 0.66162 0.90503 0.0
C2109 C 0.52527 0.6641 0.96605 0.0
C2110 C 0.54672 0.66382 0.99052 0.0
H2111 H 0.50841 0.66286 0.90119 0.0
H2112 H 0.50841 0.66494 0.98285 0.0
C2113 C 0.56837 0.66284 0.96793 0.0
C2114 C 0.33058 0.90155 0.91903 0.0
C2115 C 0.33073 0.88002 0.89475 0.0
H2116 H 0.32977 0.9177 0.98323 0.0
C2117 C 0.32992 0.85749 0.91755 0.0
H2118 H 0.3315 0.91931 0.90225 0.0
C2119 C 0.32855 0.85638 0.96406 0.0
C2120 C 0.32874 0.87816 0.98825 0.0
H2121 H 0.33009 0.84068 0.89942 0.0
H2122 H 0.32758 0.83869 0.9811 0.0
C2123 C 0.32991 0.90079 0.96537 0.0
loop_
_geom_bond_atom_site_label_1
_geom_bond_atom_site_label_2
_geom_bond_distance
_geom_bond_site_symmetry_2
_ccdc_geom_bond_type
Co0 O3 1.970 . S
Co0 N17 1.989 . S
Co0 O25 1.967 . S
Co0 O32 1.920 . S
Co1 O4 1.966 . S
Co1 N10 2.022 . S
Co1 N18 1.993 . S
Co1 O26 1.941 . S
C2 O3 1.258 . S
C2 O4 1.263 1_556 S
O3 Co0 1.970 . S
O3 C2 1.258 . S
O4 Co1 1.966 . S
O4 C2 1.263 1_554 S
C5 O6 1.235 . S
C5 O32 1.289 . S
O6 C5 1.235 . S
C7 C9 1.400 . S
C7 N10 1.351 . S
C7 C12 1.501 . S
C8 C9 1.387 . S
C8 N11 1.341 . S
C9 C7 1.400 . S
C9 C8 1.387 . S
N10 Co1 2.022 . S
N10 C7 1.351 . S
N10 N11 1.365 . S
N11 C8 1.341 . S
N11 N10 1.365 . S
N11 H31 0.862 . S
C12 C7 1.501 . S
C12 H13 0.961 . S
C12 H14 0.961 . S
C12 H15 0.960 . S
H13 C12 0.961 . S
H14 C12 0.961 . S
H15 C12 0.960 . S
C16 N17 1.342 . S
C16 C20 1.401 1_556 S
C16 C21 1.499 . S
N17 Co0 1.989 . S
N17 C16 1.342 . S
N17 N18 1.388 1_556 S
N18 Co1 1.993 . S
N18 N17 1.388 1_554 S
N18 C19 1.346 . S
C19 N18 1.346 . S
C19 C20 1.396 . S
C19 C29 1.510 . S
C20 C16 1.401 1_554 S
C20 C19 1.396 . S
C21 C16 1.499 . S
C21 H22 0.959 . S
C21 H23 0.960 . S
C21 H24 0.961 . S
H22 C21 0.959 . S
H23 C21 0.960 . S
H24 C21 0.961 . S
O25 Co0 1.967 . S
O25 C33 1.258 1_556 S
O26 Co1 1.941 . S
O26 C33 1.266 . S
H27 C29 0.959 . S
H28 C29 0.961 . S
C29 C19 1.510 . S
C29 H27 0.959 . S
C29 H28 0.961 . S
C29 H30 0.960 . S
H30 C29 0.960 . S
H31 N11 0.862 . S
O32 Co0 1.920 . S
O32 C5 1.289 . S
C33 O25 1.258 1_554 S
C33 O26 1.266 . S
Co34 O37 1.970 . S
Co34 N51 1.989 1_545 S
Co34 O59 1.967 . S
Co34 O66 1.920 . S
Co35 O38 1.966 . S
Co35 N44 2.022 . S
Co35 N52 1.993 1_545 S
Co35 O60 1.941 . S
C36 O37 1.258 . S
C36 O38 1.263 1_556 S
O37 Co34 1.970 . S
O37 C36 1.258 . S
O38 Co35 1.966 . S
O38 C36 1.263 1_554 S
C39 O40 1.231 1_545 S
C39 O66 1.295 . S
O40 C39 1.231 1_565 S
C41 C43 1.400 . S
C41 N44 1.351 . S
C41 C46 1.501 . S
C42 C43 1.387 . S
C42 N45 1.341 . S
C43 C41 1.400 . S
C43 C42 1.387 . S
N44 Co35 2.022 . S
N44 C41 1.351 . S
N44 N45 1.365 . S
N45 C42 1.341 . S
N45 N44 1.365 . S
N45 H65 0.862 . S
C46 C41 1.501 . S
C46 H47 0.961 . S
C46 H48 0.940 1_545 S
C46 H49 0.960 . S
H47 C46 0.961 . S
H48 C46 0.940 1_565 S
H49 C46 0.960 . S
C50 N51 1.342 . S
C50 C54 1.401 1_556 S
C50 C55 1.499 . S
N51 Co34 1.989 1_565 S
N51 C50 1.342 . S
N51 N52 1.388 1_556 S
N52 Co35 1.993 1_565 S
N52 N51 1.388 1_554 S
N52 C53 1.346 . S
C53 N52 1.346 . S
C53 C54 1.396 . S
C53 C63 1.510 . S
C54 C50 1.401 1_554 S
C54 C53 1.396 . S
C55 C50 1.499 . S
C55 H56 0.959 . S
C55 H57 0.960 . S
C55 H58 0.961 . S
H56 C55 0.959 . S
H57 C55 0.960 . S
H58 C55 0.961 . S
O59 Co34 1.967 . S
O59 C67 1.258 1_556 S
O60 Co35 1.941 . S
O60 C67 1.266 . S
H61 C63 0.959 . S
H62 C63 0.961 . S
C63 C53 1.510 . S
C63 H61 0.959 . S
C63 H62 0.961 . S
C63 H64 0.960 . S
H64 C63 0.960 . S
H65 N45 0.862 . S
O66 Co34 1.920 . S
O66 C39 1.295 . S
C67 O59 1.258 1_554 S
C67 O60 1.266 . S
Co68 O71 1.970 . S
Co68 N85 1.989 1_655 S
Co68 O93 1.967 . S
Co68 O100 1.920 . S
Co69 O72 1.966 . S
Co69 N78 2.022 . S
Co69 N86 1.993 1_655 S
Co69 O94 1.941 . S
C70 O71 1.258 . S
C70 O72 1.263 1_556 S
O71 Co68 1.970 . S
O71 C70 1.258 . S
O72 Co69 1.966 . S
O72 C70 1.263 1_554 S
C73 O74 1.224 1_655 S
C73 O100 1.298 . S
O74 C73 1.224 1_455 S
C75 C77 1.400 . S
C75 N78 1.351 . S
C75 C80 1.501 . S
C76 C77 1.387 . S
C76 N79 1.341 . S
C77 C75 1.400 . S
C77 C76 1.387 . S
N78 Co69 2.022 . S
N78 C75 1.351 . S
N78 N79 1.365 . S
N79 C76 1.341 . S
N79 N78 1.365 . S
N79 H99 0.862 . S
C80 C75 1.501 . S
C80 H81 0.961 . S
C80 H82 0.961 1_655 S
C80 H83 0.960 . S
H81 C80 0.961 . S
H82 C80 0.961 1_455 S
H83 C80 0.960 . S
C84 N85 1.342 . S
C84 C88 1.401 1_556 S
C84 C89 1.499 . S
N85 Co68 1.989 1_455 S
N85 C84 1.342 . S
N85 N86 1.388 1_556 S
N86 Co69 1.993 1_455 S
N86 N85 1.388 1_554 S
N86 C87 1.346 . S
C87 N86 1.346 . S
C87 C88 1.396 . S
C87 C97 1.510 . S
C88 C84 1.401 1_554 S
C88 C87 1.396 . S
C89 C84 1.499 . S
C89 H90 0.959 . S
C89 H91 0.960 . S
C89 H92 0.961 . S
H90 C89 0.959 . S
H91 C89 0.960 . S
H92 C89 0.961 . S
O93 Co68 1.967 . S
O93 C101 1.258 1_556 S
O94 Co69 1.941 . S
O94 C101 1.266 . S
H95 C97 0.959 . S
H96 C97 0.961 . S
C97 C87 1.510 . S
C97 H95 0.959 . S
C97 H96 0.961 . S
C97 H98 0.960 . S
H98 C97 0.960 . S
H99 N79 0.862 . S
O100 Co68 1.920 . S
O100 C73 1.298 . S
C101 O93 1.258 1_554 S
C101 O94 1.266 . S
Co102 O105 1.970 . S
Co102 N119 1.989 . S
Co102 O127 1.967 . S
Co102 O134 1.920 . S
Co103 O106 1.966 . S
Co103 N112 2.022 . S
Co103 N120 1.993 . S
Co103 O128 1.941 . S
C104 O105 1.258 . S
C104 O106 1.263 . S
O105 Co102 1.970 . S
O105 C104 1.258 . S
O106 Co103 1.966 . S
O106 C104 1.263 . S
C107 O108 1.235 . S
C107 O134 1.289 . S
O108 C107 1.235 . S
C109 C111 1.400 . S
C109 N112 1.351 . S
C109 C114 1.501 . S
C110 C111 1.387 . S
C110 N113 1.341 . S
C111 C109 1.400 . S
C111 C110 1.387 . S
N112 Co103 2.022 . S
N112 C109 1.351 . S
N112 N113 1.365 . S
N113 C110 1.341 . S
N113 N112 1.365 . S
N113 H133 0.862 . S
C114 C109 1.501 . S
C114 H115 0.961 . S
C114 H116 0.961 . S
C114 H117 0.960 . S
H115 C114 0.961 . S
H116 C114 0.961 . S
H117 C114 0.960 . S
C118 N119 1.342 . S
C118 C122 1.401 . S
C118 C123 1.499 . S
N119 Co102 1.989 . S
N119 C118 1.342 . S
N119 N120 1.388 . S
N120 Co103 1.993 . S
N120 N119 1.388 . S
N120 C121 1.346 . S
C121 N120 1.346 . S
C121 C122 1.396 . S
C121 C131 1.510 . S
C122 C118 1.401 . S
C122 C121 1.396 . S
C123 C118 1.499 . S
C123 H124 0.959 . S
C123 H125 0.960 . S
C123 H126 0.961 . S
H124 C123 0.959 . S
H125 C123 0.960 . S
H126 C123 0.961 . S
O127 Co102 1.967 . S
O127 C135 1.258 . S
O128 Co103 1.941 . S
O128 C135 1.266 . S
H129 C131 0.959 . S
H130 C131 0.961 . S
C131 C121 1.510 . S
C131 H129 0.959 . S
C131 H130 0.961 . S
C131 H132 0.960 . S
H132 C131 0.960 . S
H133 N113 0.862 . S
O134 Co102 1.920 . S
O134 C107 1.289 . S
C135 O127 1.258 . S
C135 O128 1.266 . S
Co136 O139 1.970 . S
Co136 N153 1.989 1_565 S
Co136 O161 1.967 . S
Co136 O168 1.920 . S
Co137 O140 1.966 . S
Co137 N146 2.022 . S
Co137 N154 1.993 1_565 S
Co137 O162 1.941 . S
C138 O139 1.258 . S
C138 O140 1.263 . S
O139 Co136 1.970 . S
O139 C138 1.258 . S
O140 Co137 1.966 . S
O140 C138 1.263 . S
C141 O142 1.191 1_565 S
C141 O168 1.327 . S
O142 C141 1.191 1_545 S
C143 C145 1.400 . S
C143 N146 1.351 . S
C143 C148 1.501 . S
C144 C145 1.387 . S
C144 N147 1.341 . S
C145 C143 1.400 . S
C145 C144 1.387 . S
N146 Co137 2.022 . S
N146 C143 1.351 . S
N146 N147 1.365 . S
N147 C144 1.341 . S
N147 N146 1.365 . S
N147 H167 0.862 . S
C148 C143 1.501 . S
C148 H149 0.961 . S
C148 H150 0.947 1_565 S
C148 H151 0.960 . S
H149 C148 0.961 . S
H150 C148 0.947 1_545 S
H151 C148 0.960 . S
C152 N153 1.342 . S
C152 C156 1.401 . S
C152 C157 1.499 . S
N153 Co136 1.989 1_545 S
N153 C152 1.342 . S
N153 N154 1.388 . S
N154 Co137 1.993 1_545 S
N154 N153 1.388 . S
N154 C155 1.346 . S
C155 N154 1.346 . S
C155 C156 1.396 . S
C155 C165 1.510 . S
C156 C152 1.401 . S
C156 C155 1.396 . S
C157 C152 1.499 . S
C157 H158 0.959 . S
C157 H159 0.960 . S
C157 H160 0.961 . S
H158 C157 0.959 . S
H159 C157 0.960 . S
H160 C157 0.961 . S
O161 Co136 1.967 . S
O161 C169 1.258 . S
O162 Co137 1.941 . S
O162 C169 1.266 . S
H163 C165 0.959 . S
H164 C165 0.961 . S
C165 C155 1.510 . S
C165 H163 0.959 . S
C165 H164 0.961 . S
C165 H166 0.960 . S
H166 C165 0.960 . S
H167 N147 0.862 . S
O168 Co136 1.920 . S
O168 C141 1.327 . S
C169 O161 1.258 . S
C169 O162 1.266 . S
Co170 O173 1.970 . S
Co170 N187 1.989 1_455 S
Co170 O195 1.967 . S
Co170 O202 1.920 . S
Co171 O174 1.966 . S
Co171 N180 2.022 . S
Co171 N188 1.993 1_455 S
Co171 O196 1.941 . S
C172 O173 1.258 . S
C172 O174 1.263 . S
O173 Co170 1.970 . S
O173 C172 1.258 . S
O174 Co171 1.966 . S
O174 C172 1.263 . S
C175 O176 1.235 1_455 S
C175 O202 1.289 . S
O176 C175 1.235 1_655 S
C177 C179 1.400 . S
C177 N180 1.351 . S
C177 C182 1.501 . S
C178 C179 1.387 . S
C178 N181 1.341 . S
C179 C177 1.400 . S
C179 C178 1.387 . S
N180 Co171 2.022 . S
N180 C177 1.351 . S
N180 N181 1.365 . S
N181 C178 1.341 . S
N181 N180 1.365 . S
N181 H201 0.862 . S
C182 C177 1.501 . S
C182 H183 0.961 . S
C182 H184 0.959 1_455 S
C182 H185 0.960 . S
H183 C182 0.961 . S
H184 C182 0.959 1_655 S
H185 C182 0.960 . S
C186 N187 1.342 . S
C186 C190 1.401 . S
C186 C191 1.499 . S
N187 Co170 1.989 1_655 S
N187 C186 1.342 . S
N187 N188 1.388 . S
N188 Co171 1.993 1_655 S
N188 N187 1.388 . S
N188 C189 1.346 . S
C189 N188 1.346 . S
C189 C190 1.396 . S
C189 C199 1.510 . S
C190 C186 1.401 . S
C190 C189 1.396 . S
C191 C186 1.499 . S
C191 H192 0.959 . S
C191 H193 0.960 . S
C191 H194 0.961 . S
H192 C191 0.959 . S
H193 C191 0.960 . S
H194 C191 0.961 . S
O195 Co170 1.967 . S
O195 C203 1.258 . S
O196 Co171 1.941 . S
O196 C203 1.266 . S
H197 C199 0.959 . S
H198 C199 0.961 . S
C199 C189 1.510 . S
C199 H197 0.959 . S
C199 H198 0.961 . S
C199 H200 0.960 . S
H200 C199 0.960 . S
H201 N181 0.862 . S
O202 Co170 1.920 . S
O202 C175 1.289 . S
C203 O195 1.258 . S
C203 O196 1.266 . S
Co204 O207 1.970 . S
Co204 N221 1.989 . S
Co204 O229 1.967 . S
Co204 O236 1.920 . S
Co205 O208 1.966 1_556 S
Co205 N214 2.022 . S
Co205 N222 1.993 1_556 S
Co205 O230 1.941 1_556 S
C206 O207 1.258 . S
C206 O208 1.263 . S
O207 Co204 1.970 . S
O207 C206 1.258 . S
O208 Co205 1.966 1_554 S
O208 C206 1.263 . S
C209 O210 1.235 . S
C209 O236 1.289 . S
O210 C209 1.235 . S
C211 C213 1.400 . S
C211 N214 1.351 . S
C211 C216 1.501 . S
C212 C213 1.387 . S
C212 N215 1.341 . S
C213 C211 1.400 . S
C213 C212 1.387 . S
N214 Co205 2.022 . S
N214 C211 1.351 . S
N214 N215 1.365 . S
N215 C212 1.341 . S
N215 N214 1.365 . S
N215 H235 0.862 . S
C216 C211 1.501 . S
C216 H217 0.961 . S
C216 H218 0.961 . S
C216 H219 0.960 . S
H217 C216 0.961 . S
H218 C216 0.961 . S
H219 C216 0.960 . S
C220 N221 1.342 . S
C220 C224 1.401 . S
C220 C225 1.499 . S
N221 Co204 1.989 . S
N221 C220 1.342 . S
N221 N222 1.388 . S
N222 Co205 1.993 1_554 S
N222 N221 1.388 . S
N222 C223 1.346 1_554 S
C223 N222 1.346 1_556 S
C223 C224 1.396 1_556 S
C223 C233 1.510 . S
C224 C220 1.401 . S
C224 C223 1.396 1_554 S
C225 C220 1.499 . S
C225 H226 0.959 . S
C225 H227 0.960 . S
C225 H228 0.961 . S
H226 C225 0.959 . S
H227 C225 0.960 . S
H228 C225 0.961 . S
O229 Co204 1.967 . S
O229 C237 1.258 . S
O230 Co205 1.941 1_554 S
O230 C237 1.266 . S
H231 C233 0.959 . S
H232 C233 0.961 . S
C233 C223 1.510 . S
C233 H231 0.959 . S
C233 H232 0.961 . S
C233 H234 0.960 . S
H234 C233 0.960 . S
H235 N215 0.862 . S
O236 Co204 1.920 . S
O236 C209 1.289 . S
C237 O229 1.258 . S
C237 O230 1.266 . S
Co238 O241 1.970 . S
Co238 N255 1.989 1_565 S
Co238 O263 1.967 . S
Co238 O270 1.920 . S
Co239 O242 1.966 1_556 S
Co239 N248 2.022 . S
Co239 N256 1.993 1_566 S
Co239 O264 1.941 1_556 S
C240 O241 1.258 . S
C240 O242 1.263 . S
O241 Co238 1.970 . S
O241 C240 1.258 . S
O242 Co239 1.966 1_554 S
O242 C240 1.263 . S
C243 O244 1.227 1_565 S
C243 O270 1.302 . S
O244 C243 1.227 1_545 S
C245 C247 1.400 . S
C245 N248 1.351 . S
C245 C250 1.501 . S
C246 C247 1.387 . S
C246 N249 1.341 . S
C247 C245 1.400 . S
C247 C246 1.387 . S
N248 Co239 2.022 . S
N248 C245 1.351 . S
N248 N249 1.365 . S
N249 C246 1.341 . S
N249 N248 1.365 . S
N249 H269 0.862 . S
C250 C245 1.501 . S
C250 H251 0.961 . S
C250 H252 0.953 1_565 S
C250 H253 0.960 . S
H251 C250 0.961 . S
H252 C250 0.953 1_545 S
H253 C250 0.960 . S
C254 N255 1.342 . S
C254 C258 1.401 . S
C254 C259 1.499 . S
N255 Co238 1.989 1_545 S
N255 C254 1.342 . S
N255 N256 1.388 . S
N256 Co239 1.993 1_544 S
N256 N255 1.388 . S
N256 C257 1.346 1_554 S
C257 N256 1.346 1_556 S
C257 C258 1.396 1_556 S
C257 C267 1.510 . S
C258 C254 1.401 . S
C258 C257 1.396 1_554 S
C259 C254 1.499 . S
C259 H260 0.959 . S
C259 H261 0.960 . S
C259 H262 0.961 . S
H260 C259 0.959 . S
H261 C259 0.960 . S
H262 C259 0.961 . S
O263 Co238 1.967 . S
O263 C271 1.258 . S
O264 Co239 1.941 1_554 S
O264 C271 1.266 . S
H265 C267 0.959 . S
H266 C267 0.961 . S
C267 C257 1.510 . S
C267 H265 0.959 . S
C267 H266 0.961 . S
C267 H268 0.960 . S
H268 C267 0.960 . S
H269 N249 0.862 . S
O270 Co238 1.920 . S
O270 C243 1.302 . S
C271 O263 1.258 . S
C271 O264 1.266 . S
Co272 O275 1.970 . S
Co272 N289 1.989 1_455 S
Co272 O297 1.967 . S
Co272 O304 1.920 . S
Co273 O276 1.966 1_556 S
Co273 N282 2.022 . S
Co273 N290 1.993 1_456 S
Co273 O298 1.941 1_556 S
C274 O275 1.258 . S
C274 O276 1.263 . S
O275 Co272 1.970 . S
O275 C274 1.258 . S
O276 Co273 1.966 1_554 S
O276 C274 1.263 . S
C277 O278 1.235 1_455 S
C277 O304 1.289 . S
O278 C277 1.235 1_655 S
C279 C281 1.400 . S
C279 N282 1.351 . S
C279 C284 1.501 . S
C280 C281 1.387 . S
C280 N283 1.341 . S
C281 C279 1.400 . S
C281 C280 1.387 . S
N282 Co273 2.022 . S
N282 C279 1.351 . S
N282 N283 1.365 . S
N283 C280 1.341 . S
N283 N282 1.365 . S
N283 H303 0.862 . S
C284 C279 1.501 . S
C284 H285 0.961 . S
C284 H286 0.959 1_455 S
C284 H287 0.960 . S
H285 C284 0.961 . S
H286 C284 0.959 1_655 S
H287 C284 0.960 . S
C288 N289 1.342 . S
C288 C292 1.401 . S
C288 C293 1.499 . S
N289 Co272 1.989 1_655 S
N289 C288 1.342 . S
N289 N290 1.388 . S
N290 Co273 1.993 1_654 S
N290 N289 1.388 . S
N290 C291 1.346 1_554 S
C291 N290 1.346 1_556 S
C291 C292 1.396 1_556 S
C291 C301 1.510 . S
C292 C288 1.401 . S
C292 C291 1.396 1_554 S
C293 C288 1.499 . S
C293 H294 0.959 . S
C293 H295 0.960 . S
C293 H296 0.961 . S
H294 C293 0.959 . S
H295 C293 0.960 . S
H296 C293 0.961 . S
O297 Co272 1.967 . S
O297 C305 1.258 . S
O298 Co273 1.941 1_554 S
O298 C305 1.266 . S
H299 C301 0.959 . S
H300 C301 0.961 . S
C301 C291 1.510 . S
C301 H299 0.959 . S
C301 H300 0.961 . S
C301 H302 0.960 . S
H302 C301 0.960 . S
H303 N283 0.862 . S
O304 Co272 1.920 . S
O304 C277 1.289 . S
C305 O297 1.258 . S
C305 O298 1.266 . S
Co306 O309 1.970 . S
Co306 N323 1.989 . S
Co306 O331 1.967 . S
Co306 O338 1.920 . S
Co307 O310 1.966 . S
Co307 N316 2.022 . S
Co307 N324 1.993 . S
Co307 O332 1.941 . S
C308 O309 1.258 . S
C308 O310 1.263 . S
O309 Co306 1.970 . S
O309 C308 1.258 . S
O310 Co307 1.966 . S
O310 C308 1.263 . S
C311 O312 1.235 . S
C311 O338 1.289 . S
O312 C311 1.235 . S
C313 C315 1.400 . S
C313 N316 1.351 . S
C313 C318 1.501 . S
C314 C315 1.387 . S
C314 N317 1.341 . S
C315 C313 1.400 . S
C315 C314 1.387 . S
N316 Co307 2.022 . S
N316 C313 1.351 . S
N316 N317 1.365 . S
N317 C314 1.341 . S
N317 N316 1.365 . S
N317 H337 0.862 . S
C318 C313 1.501 . S
C318 H319 0.961 . S
C318 H320 0.961 . S
C318 H321 0.960 . S
H319 C318 0.961 . S
H320 C318 0.961 . S
H321 C318 0.960 . S
C322 N323 1.342 . S
C322 C326 1.401 . S
C322 C327 1.499 . S
N323 Co306 1.989 . S
N323 C322 1.342 . S
N323 N324 1.388 . S
N324 Co307 1.993 . S
N324 N323 1.388 . S
N324 C325 1.346 . S
C325 N324 1.346 . S
C325 C326 1.396 . S
C325 C335 1.510 . S
C326 C322 1.401 . S
C326 C325 1.396 . S
C327 C322 1.499 . S
C327 H328 0.959 . S
C327 H329 0.960 . S
C327 H330 0.961 . S
H328 C327 0.959 . S
H329 C327 0.960 . S
H330 C327 0.961 . S
O331 Co306 1.967 . S
O331 C339 1.258 . S
O332 Co307 1.941 . S
O332 C339 1.266 . S
H333 C335 0.959 . S
H334 C335 0.961 . S
C335 C325 1.510 . S
C335 H333 0.959 . S
C335 H334 0.961 . S
C335 H336 0.960 . S
H336 C335 0.960 . S
H337 N317 0.862 . S
O338 Co306 1.920 . S
O338 C311 1.289 . S
C339 O331 1.258 . S
C339 O332 1.266 . S
Co340 O343 1.970 . S
Co340 N357 1.989 1_545 S
Co340 O365 1.967 . S
Co340 O372 1.920 . S
Co341 O344 1.966 . S
Co341 N350 2.022 . S
Co341 N358 1.993 1_545 S
Co341 O366 1.941 . S
C342 O343 1.258 . S
C342 O344 1.263 . S
O343 Co340 1.970 . S
O343 C342 1.258 . S
O344 Co341 1.966 . S
O344 C342 1.263 . S
C345 O346 1.213 1_545 S
C345 O372 1.308 . S
O346 C345 1.213 1_565 S
C347 C349 1.400 . S
C347 N350 1.351 . S
C347 C352 1.501 . S
C348 C349 1.387 . S
C348 N351 1.341 . S
C349 C347 1.400 . S
C349 C348 1.387 . S
N350 Co341 2.022 . S
N350 C347 1.351 . S
N350 N351 1.365 . S
N351 C348 1.341 . S
N351 N350 1.365 . S
N351 H371 0.862 . S
C352 C347 1.501 . S
C352 H353 0.961 . S
C352 H354 0.922 1_545 S
C352 H355 0.960 . S
H353 C352 0.961 . S
H354 C352 0.922 1_565 S
H355 C352 0.960 . S
C356 N357 1.342 . S
C356 C360 1.401 . S
C356 C361 1.499 . S
N357 Co340 1.989 1_565 S
N357 C356 1.342 . S
N357 N358 1.388 . S
N358 Co341 1.993 1_565 S
N358 N357 1.388 . S
N358 C359 1.346 . S
C359 N358 1.346 . S
C359 C360 1.396 . S
C359 C369 1.510 . S
C360 C356 1.401 . S
C360 C359 1.396 . S
C361 C356 1.499 . S
C361 H362 0.959 . S
C361 H363 0.960 . S
C361 H364 0.961 . S
H362 C361 0.959 . S
H363 C361 0.960 . S
H364 C361 0.961 . S
O365 Co340 1.967 . S
O365 C373 1.258 . S
O366 Co341 1.941 . S
O366 C373 1.266 . S
H367 C369 0.959 . S
H368 C369 0.961 . S
C369 C359 1.510 . S
C369 H367 0.959 . S
C369 H368 0.961 . S
C369 H370 0.960 . S
H370 C369 0.960 . S
H371 N351 0.862 . S
O372 Co340 1.920 . S
O372 C345 1.308 . S
C373 O365 1.258 . S
C373 O366 1.266 . S
Co374 O377 1.970 . S
Co374 N391 1.989 1_655 S
Co374 O399 1.967 . S
Co374 O406 1.920 . S
Co375 O378 1.966 . S
Co375 N384 2.022 . S
Co375 N392 1.993 1_655 S
Co375 O400 1.941 . S
C376 O377 1.258 . S
C376 O378 1.263 . S
O377 Co374 1.970 . S
O377 C376 1.258 . S
O378 Co375 1.966 . S
O378 C376 1.263 . S
C379 O380 1.233 1_655 S
C379 O406 1.292 . S
O380 C379 1.233 1_455 S
C381 C383 1.400 . S
C381 N384 1.351 . S
C381 C386 1.501 . S
C382 C383 1.387 . S
C382 N385 1.341 . S
C383 C381 1.400 . S
C383 C382 1.387 . S
N384 Co375 2.022 . S
N384 C381 1.351 . S
N384 N385 1.365 . S
N385 C382 1.341 . S
N385 N384 1.365 . S
N385 H405 0.862 . S
C386 C381 1.501 . S
C386 H387 0.961 . S
C386 H388 0.961 1_655 S
C386 H389 0.960 . S
H387 C386 0.961 . S
H388 C386 0.961 1_455 S
H389 C386 0.960 . S
C390 N391 1.342 . S
C390 C394 1.401 . S
C390 C395 1.499 . S
N391 Co374 1.989 1_455 S
N391 C390 1.342 . S
N391 N392 1.388 . S
N392 Co375 1.993 1_455 S
N392 N391 1.388 . S
N392 C393 1.346 . S
C393 N392 1.346 . S
C393 C394 1.396 . S
C393 C403 1.510 . S
C394 C390 1.401 . S
C394 C393 1.396 . S
C395 C390 1.499 . S
C395 H396 0.959 . S
C395 H397 0.960 . S
C395 H398 0.961 . S
H396 C395 0.959 . S
H397 C395 0.960 . S
H398 C395 0.961 . S
O399 Co374 1.967 . S
O399 C407 1.258 . S
O400 Co375 1.941 . S
O400 C407 1.266 . S
H401 C403 0.959 . S
H402 C403 0.961 . S
C403 C393 1.510 . S
C403 H401 0.959 . S
C403 H402 0.961 . S
C403 H404 0.960 . S
H404 C403 0.960 . S
H405 N385 0.862 . S
O406 Co374 1.920 . S
O406 C379 1.292 . S
C407 O399 1.258 . S
C407 O400 1.266 . S
Co408 O411 1.970 . S
Co408 N425 1.989 . S
Co408 O433 1.967 . S
Co408 O440 1.920 . S
Co409 O412 1.966 . S
Co409 N418 2.022 . S
Co409 N426 1.993 . S
Co409 O434 1.941 . S
C410 O411 1.258 . S
C410 O412 1.263 . S
O411 Co408 1.970 . S
O411 C410 1.258 . S
O412 Co409 1.966 . S
O412 C410 1.263 . S
C413 O414 1.235 . S
C413 O440 1.289 . S
O414 C413 1.235 . S
C415 C417 1.400 . S
C415 N418 1.351 . S
C415 C420 1.501 . S
C416 C417 1.387 . S
C416 N419 1.341 . S
C417 C415 1.400 . S
C417 C416 1.387 . S
N418 Co409 2.022 . S
N418 C415 1.351 . S
N418 N419 1.365 . S
N419 C416 1.341 . S
N419 N418 1.365 . S
N419 H439 0.862 . S
C420 C415 1.501 . S
C420 H421 0.961 . S
C420 H422 0.961 . S
C420 H423 0.960 . S
H421 C420 0.961 . S
H422 C420 0.961 . S
H423 C420 0.960 . S
C424 N425 1.342 . S
C424 C428 1.401 . S
C424 C429 1.499 . S
N425 Co408 1.989 . S
N425 C424 1.342 . S
N425 N426 1.388 . S
N426 Co409 1.993 . S
N426 N425 1.388 . S
N426 C427 1.346 . S
C427 N426 1.346 . S
C427 C428 1.396 . S
C427 C437 1.510 . S
C428 C424 1.401 . S
C428 C427 1.396 . S
C429 C424 1.499 . S
C429 H430 0.959 . S
C429 H431 0.960 . S
C429 H432 0.961 . S
H430 C429 0.959 . S
H431 C429 0.960 . S
H432 C429 0.961 . S
O433 Co408 1.967 . S
O433 C441 1.258 . S
O434 Co409 1.941 . S
O434 C441 1.266 . S
H435 C437 0.959 . S
H436 C437 0.961 . S
C437 C427 1.510 . S
C437 H435 0.959 . S
C437 H436 0.961 . S
C437 H438 0.960 . S
H438 C437 0.960 . S
H439 N419 0.862 . S
O440 Co408 1.920 . S
O440 C413 1.289 . S
C441 O433 1.258 . S
C441 O434 1.266 . S
Co442 O445 1.970 . S
Co442 N459 1.989 . S
Co442 O467 1.967 . S
Co442 O474 1.920 . S
Co443 O446 1.966 . S
Co443 N452 2.022 . S
Co443 N460 1.993 . S
Co443 O468 1.941 . S
C444 O445 1.258 . S
C444 O446 1.263 . S
O445 Co442 1.970 . S
O445 C444 1.258 . S
O446 Co443 1.966 . S
O446 C444 1.263 . S
C447 O448 1.235 . S
C447 O474 1.289 . S
O448 C447 1.235 . S
C449 C451 1.400 . S
C449 N452 1.351 . S
C449 C454 1.501 . S
C450 C451 1.387 . S
C450 N453 1.341 . S
C451 C449 1.400 . S
C451 C450 1.387 . S
N452 Co443 2.022 . S
N452 C449 1.351 . S
N452 N453 1.365 . S
N453 C450 1.341 . S
N453 N452 1.365 . S
N453 H473 0.862 . S
C454 C449 1.501 . S
C454 H455 0.961 . S
C454 H456 0.961 . S
C454 H457 0.960 . S
H455 C454 0.961 . S
H456 C454 0.961 . S
H457 C454 0.960 . S
C458 N459 1.342 . S
C458 C462 1.401 . S
C458 C463 1.499 . S
N459 Co442 1.989 . S
N459 C458 1.342 . S
N459 N460 1.388 . S
N460 Co443 1.993 . S
N460 N459 1.388 . S
N460 C461 1.346 . S
C461 N460 1.346 . S
C461 C462 1.396 . S
C461 C471 1.510 . S
C462 C458 1.401 . S
C462 C461 1.396 . S
C463 C458 1.499 . S
C463 H464 0.959 . S
C463 H465 0.960 . S
C463 H466 0.961 . S
H464 C463 0.959 . S
H465 C463 0.960 . S
H466 C463 0.961 . S
O467 Co442 1.967 . S
O467 C475 1.258 . S
O468 Co443 1.941 . S
O468 C475 1.266 . S
H469 C471 0.959 . S
H470 C471 0.961 . S
C471 C461 1.510 . S
C471 H469 0.959 . S
C471 H470 0.961 . S
C471 H472 0.960 . S
H472 C471 0.960 . S
H473 N453 0.862 . S
O474 Co442 1.920 . S
O474 C447 1.289 . S
C475 O467 1.258 . S
C475 O468 1.266 . S
Co476 O479 1.970 . S
Co476 N493 1.989 . S
Co476 O501 1.967 . S
Co476 O508 1.920 . S
Co477 O480 1.966 . S
Co477 N486 2.022 . S
Co477 N494 1.993 . S
Co477 O502 1.941 . S
C478 O479 1.258 . S
C478 O480 1.263 . S
O479 Co476 1.970 . S
O479 C478 1.258 . S
O480 Co477 1.966 . S
O480 C478 1.263 . S
C481 O482 1.235 . S
C481 O508 1.289 . S
O482 C481 1.235 . S
C483 C485 1.400 . S
C483 N486 1.351 . S
C483 C488 1.501 . S
C484 C485 1.387 . S
C484 N487 1.341 . S
C485 C483 1.400 . S
C485 C484 1.387 . S
N486 Co477 2.022 . S
N486 C483 1.351 . S
N486 N487 1.365 . S
N487 C484 1.341 . S
N487 N486 1.365 . S
N487 H507 0.862 . S
C488 C483 1.501 . S
C488 H489 0.961 . S
C488 H490 0.961 . S
C488 H491 0.960 . S
H489 C488 0.961 . S
H490 C488 0.961 . S
H491 C488 0.960 . S
C492 N493 1.342 . S
C492 C496 1.401 . S
C492 C497 1.499 . S
N493 Co476 1.989 . S
N493 C492 1.342 . S
N493 N494 1.388 . S
N494 Co477 1.993 . S
N494 N493 1.388 . S
N494 C495 1.346 . S
C495 N494 1.346 . S
C495 C496 1.396 . S
C495 C505 1.510 . S
C496 C492 1.401 . S
C496 C495 1.396 . S
C497 C492 1.499 . S
C497 H498 0.959 . S
C497 H499 0.960 . S
C497 H500 0.961 . S
H498 C497 0.959 . S
H499 C497 0.960 . S
H500 C497 0.961 . S
O501 Co476 1.967 . S
O501 C509 1.258 . S
O502 Co477 1.941 . S
O502 C509 1.266 . S
H503 C505 0.959 . S
H504 C505 0.961 . S
C505 C495 1.510 . S
C505 H503 0.959 . S
C505 H504 0.961 . S
C505 H506 0.960 . S
H506 C505 0.960 . S
H507 N487 0.862 . S
O508 Co476 1.920 . S
O508 C481 1.289 . S
C509 O501 1.258 . S
C509 O502 1.266 . S
Co510 O513 1.970 . S
Co510 N527 1.989 . S
Co510 O535 1.967 . S
Co510 O542 1.920 . S
Co511 O514 1.966 . S
Co511 N520 2.022 . S
Co511 N528 1.993 . S
Co511 O536 1.941 . S
C512 O513 1.258 . S
C512 O514 1.263 . S
O513 Co510 1.970 . S
O513 C512 1.258 . S
O514 Co511 1.966 . S
O514 C512 1.263 . S
C515 O516 1.235 . S
C515 O542 1.289 1_554 S
O516 C515 1.235 . S
C517 C519 1.400 . S
C517 N520 1.351 . S
C517 C522 1.501 . S
C518 C519 1.387 . S
C518 N521 1.341 . S
C519 C517 1.400 . S
C519 C518 1.387 . S
N520 Co511 2.022 . S
N520 C517 1.351 . S
N520 N521 1.365 . S
N521 C518 1.341 . S
N521 N520 1.365 . S
N521 H541 0.862 . S
C522 C517 1.501 . S
C522 H523 0.961 . S
C522 H524 0.961 . S
C522 H525 0.960 . S
H523 C522 0.961 . S
H524 C522 0.961 . S
H525 C522 0.960 . S
C526 N527 1.342 . S
C526 C530 1.401 . S
C526 C531 1.499 . S
N527 Co510 1.989 . S
N527 C526 1.342 . S
N527 N528 1.388 . S
N528 Co511 1.993 . S
N528 N527 1.388 . S
N528 C529 1.346 . S
C529 N528 1.346 . S
C529 C530 1.396 . S
C529 C539 1.510 . S
C530 C526 1.401 . S
C530 C529 1.396 . S
C531 C526 1.499 . S
C531 H532 0.959 . S
C531 H533 0.960 . S
C531 H534 0.961 . S
H532 C531 0.959 . S
H533 C531 0.960 . S
H534 C531 0.961 . S
O535 Co510 1.967 . S
O535 C543 1.258 . S
O536 Co511 1.941 . S
O536 C543 1.266 . S
H537 C539 0.959 . S
H538 C539 0.961 . S
C539 C529 1.510 . S
C539 H537 0.959 . S
C539 H538 0.961 . S
C539 H540 0.960 . S
H540 C539 0.960 . S
H541 N521 0.862 . S
O542 Co510 1.920 . S
O542 C515 1.289 1_556 S
C543 O535 1.258 . S
C543 O536 1.266 . S
Co544 O547 1.970 . S
Co544 N561 1.989 . S
Co544 O569 1.967 . S
Co544 O576 1.920 . S
Co545 O548 1.966 . S
Co545 N554 2.022 . S
Co545 N562 1.993 . S
Co545 O570 1.941 . S
C546 O547 1.258 . S
C546 O548 1.263 . S
O547 Co544 1.970 . S
O547 C546 1.258 . S
O548 Co545 1.966 . S
O548 C546 1.263 . S
C549 O550 1.235 . S
C549 O576 1.289 1_554 S
O550 C549 1.235 . S
C551 C553 1.400 . S
C551 N554 1.351 . S
C551 C556 1.501 . S
C552 C553 1.387 . S
C552 N555 1.341 . S
C553 C551 1.400 . S
C553 C552 1.387 . S
N554 Co545 2.022 . S
N554 C551 1.351 . S
N554 N555 1.365 . S
N555 C552 1.341 . S
N555 N554 1.365 . S
N555 H575 0.862 . S
C556 C551 1.501 . S
C556 H557 0.961 . S
C556 H558 0.961 . S
C556 H559 0.960 . S
H557 C556 0.961 . S
H558 C556 0.961 . S
H559 C556 0.960 . S
C560 N561 1.342 . S
C560 C564 1.401 . S
C560 C565 1.499 . S
N561 Co544 1.989 . S
N561 C560 1.342 . S
N561 N562 1.388 . S
N562 Co545 1.993 . S
N562 N561 1.388 . S
N562 C563 1.346 . S
C563 N562 1.346 . S
C563 C564 1.396 . S
C563 C573 1.510 . S
C564 C560 1.401 . S
C564 C563 1.396 . S
C565 C560 1.499 . S
C565 H566 0.959 . S
C565 H567 0.960 . S
C565 H568 0.961 . S
H566 C565 0.959 . S
H567 C565 0.960 . S
H568 C565 0.961 . S
O569 Co544 1.967 . S
O569 C577 1.258 . S
O570 Co545 1.941 . S
O570 C577 1.266 . S
H571 C573 0.959 . S
H572 C573 0.961 . S
C573 C563 1.510 . S
C573 H571 0.959 . S
C573 H572 0.961 . S
C573 H574 0.960 . S
H574 C573 0.960 . S
H575 N555 0.862 . S
O576 Co544 1.920 . S
O576 C549 1.289 1_556 S
C577 O569 1.258 . S
C577 O570 1.266 . S
Co578 O581 1.970 . S
Co578 N595 1.989 . S
Co578 O603 1.967 . S
Co578 O610 1.920 . S
Co579 O582 1.966 . S
Co579 N588 2.022 . S
Co579 N596 1.993 . S
Co579 O604 1.941 . S
C580 O581 1.258 . S
C580 O582 1.263 . S
O581 Co578 1.970 . S
O581 C580 1.258 . S
O582 Co579 1.966 . S
O582 C580 1.263 . S
C583 O584 1.235 . S
C583 O610 1.289 1_554 S
O584 C583 1.235 . S
C585 C587 1.400 . S
C585 N588 1.351 . S
C585 C590 1.501 . S
C586 C587 1.387 . S
C586 N589 1.341 . S
C587 C585 1.400 . S
C587 C586 1.387 . S
N588 Co579 2.022 . S
N588 C585 1.351 . S
N588 N589 1.365 . S
N589 C586 1.341 . S
N589 N588 1.365 . S
N589 H609 0.862 . S
C590 C585 1.501 . S
C590 H591 0.961 . S
C590 H592 0.961 . S
C590 H593 0.960 . S
H591 C590 0.961 . S
H592 C590 0.961 . S
H593 C590 0.960 . S
C594 N595 1.342 . S
C594 C598 1.401 . S
C594 C599 1.499 . S
N595 Co578 1.989 . S
N595 C594 1.342 . S
N595 N596 1.388 . S
N596 Co579 1.993 . S
N596 N595 1.388 . S
N596 C597 1.346 . S
C597 N596 1.346 . S
C597 C598 1.396 . S
C597 C607 1.510 . S
C598 C594 1.401 . S
C598 C597 1.396 . S
C599 C594 1.499 . S
C599 H600 0.959 . S
C599 H601 0.960 . S
C599 H602 0.961 . S
H600 C599 0.959 . S
H601 C599 0.960 . S
H602 C599 0.961 . S
O603 Co578 1.967 . S
O603 C611 1.258 . S
O604 Co579 1.941 . S
O604 C611 1.266 . S
H605 C607 0.959 . S
H606 C607 0.961 . S
C607 C597 1.510 . S
C607 H605 0.959 . S
C607 H606 0.961 . S
C607 H608 0.960 . S
H608 C607 0.960 . S
H609 N589 0.862 . S
O610 Co578 1.920 . S
O610 C583 1.289 1_556 S
C611 O603 1.258 . S
C611 O604 1.266 . S
Co612 O615 1.970 . S
Co612 N629 1.989 . S
Co612 O637 1.967 . S
Co612 O644 1.920 . S
Co613 O616 1.966 . S
Co613 N622 2.022 . S
Co613 N630 1.993 . S
Co613 O638 1.941 . S
C614 O615 1.258 . S
C614 O616 1.263 . S
O615 Co612 1.970 . S
O615 C614 1.258 . S
O616 Co613 1.966 . S
O616 C614 1.263 . S
C617 O618 1.235 . S
C617 O644 1.289 . S
O618 C617 1.235 . S
C619 C621 1.400 . S
C619 N622 1.351 . S
C619 C624 1.501 . S
C620 C621 1.387 . S
C620 N623 1.341 . S
C621 C619 1.400 . S
C621 C620 1.387 . S
N622 Co613 2.022 . S
N622 C619 1.351 . S
N622 N623 1.365 . S
N623 C620 1.341 . S
N623 N622 1.365 . S
N623 H643 0.862 . S
C624 C619 1.501 . S
C624 H625 0.961 . S
C624 H626 0.961 . S
C624 H627 0.960 . S
H625 C624 0.961 . S
H626 C624 0.961 . S
H627 C624 0.960 . S
C628 N629 1.342 . S
C628 C632 1.401 . S
C628 C633 1.499 . S
N629 Co612 1.989 . S
N629 C628 1.342 . S
N629 N630 1.388 . S
N630 Co613 1.993 . S
N630 N629 1.388 . S
N630 C631 1.346 . S
C631 N630 1.346 . S
C631 C632 1.396 . S
C631 C641 1.510 . S
C632 C628 1.401 . S
C632 C631 1.396 . S
C633 C628 1.499 . S
C633 H634 0.959 . S
C633 H635 0.960 . S
C633 H636 0.961 . S
H634 C633 0.959 . S
H635 C633 0.960 . S
H636 C633 0.961 . S
O637 Co612 1.967 . S
O637 C645 1.258 . S
O638 Co613 1.941 . S
O638 C645 1.266 . S
H639 C641 0.959 . S
H640 C641 0.961 . S
C641 C631 1.510 . S
C641 H639 0.959 . S
C641 H640 0.961 . S
C641 H642 0.960 . S
H642 C641 0.960 . S
H643 N623 0.862 . S
O644 Co612 1.920 . S
O644 C617 1.289 . S
C645 O637 1.258 . S
C645 O638 1.266 . S
Co646 O649 1.970 . S
Co646 N663 1.989 . S
Co646 O671 1.967 . S
Co646 O678 1.920 . S
Co647 O650 1.966 . S
Co647 N656 2.022 . S
Co647 N664 1.993 . S
Co647 O672 1.941 . S
C648 O649 1.258 . S
C648 O650 1.263 . S
O649 Co646 1.970 . S
O649 C648 1.258 . S
O650 Co647 1.966 . S
O650 C648 1.263 . S
C651 O652 1.235 . S
C651 O678 1.289 . S
O652 C651 1.235 . S
C653 C655 1.400 . S
C653 N656 1.351 . S
C653 C658 1.501 . S
C654 C655 1.387 . S
C654 N657 1.341 . S
C655 C653 1.400 . S
C655 C654 1.387 . S
N656 Co647 2.022 . S
N656 C653 1.351 . S
N656 N657 1.365 . S
N657 C654 1.341 . S
N657 N656 1.365 . S
N657 H677 0.862 . S
C658 C653 1.501 . S
C658 H659 0.961 . S
C658 H660 0.961 . S
C658 H661 0.960 . S
H659 C658 0.961 . S
H660 C658 0.961 . S
H661 C658 0.960 . S
C662 N663 1.342 . S
C662 C666 1.401 . S
C662 C667 1.499 . S
N663 Co646 1.989 . S
N663 C662 1.342 . S
N663 N664 1.388 . S
N664 Co647 1.993 . S
N664 N663 1.388 . S
N664 C665 1.346 . S
C665 N664 1.346 . S
C665 C666 1.396 . S
C665 C675 1.510 . S
C666 C662 1.401 . S
C666 C665 1.396 . S
C667 C662 1.499 . S
C667 H668 0.959 . S
C667 H669 0.960 . S
C667 H670 0.961 . S
H668 C667 0.959 . S
H669 C667 0.960 . S
H670 C667 0.961 . S
O671 Co646 1.967 . S
O671 C679 1.258 . S
O672 Co647 1.941 . S
O672 C679 1.266 . S
H673 C675 0.959 . S
H674 C675 0.961 . S
C675 C665 1.510 . S
C675 H673 0.959 . S
C675 H674 0.961 . S
C675 H676 0.960 . S
H676 C675 0.960 . S
H677 N657 0.862 . S
O678 Co646 1.920 . S
O678 C651 1.289 . S
C679 O671 1.258 . S
C679 O672 1.266 . S
Co680 O683 1.970 . S
Co680 N697 1.989 . S
Co680 O705 1.967 . S
Co680 O712 1.920 . S
Co681 O684 1.966 . S
Co681 N690 2.022 . S
Co681 N698 1.993 . S
Co681 O706 1.941 . S
C682 O683 1.258 . S
C682 O684 1.263 . S
O683 Co680 1.970 . S
O683 C682 1.258 . S
O684 Co681 1.966 . S
O684 C682 1.263 . S
C685 O686 1.235 . S
C685 O712 1.289 . S
O686 C685 1.235 . S
C687 C689 1.400 . S
C687 N690 1.351 . S
C687 C692 1.501 . S
C688 C689 1.387 . S
C688 N691 1.341 . S
C689 C687 1.400 . S
C689 C688 1.387 . S
N690 Co681 2.022 . S
N690 C687 1.351 . S
N690 N691 1.365 . S
N691 C688 1.341 . S
N691 N690 1.365 . S
N691 H711 0.862 . S
C692 C687 1.501 . S
C692 H693 0.961 . S
C692 H694 0.961 . S
C692 H695 0.960 . S
H693 C692 0.961 . S
H694 C692 0.961 . S
H695 C692 0.960 . S
C696 N697 1.342 . S
C696 C700 1.401 . S
C696 C701 1.499 . S
N697 Co680 1.989 . S
N697 C696 1.342 . S
N697 N698 1.388 . S
N698 Co681 1.993 . S
N698 N697 1.388 . S
N698 C699 1.346 . S
C699 N698 1.346 . S
C699 C700 1.396 . S
C699 C709 1.510 . S
C700 C696 1.401 . S
C700 C699 1.396 . S
C701 C696 1.499 . S
C701 H702 0.959 . S
C701 H703 0.960 . S
C701 H704 0.961 . S
H702 C701 0.959 . S
H703 C701 0.960 . S
H704 C701 0.961 . S
O705 Co680 1.967 . S
O705 C713 1.258 . S
O706 Co681 1.941 . S
O706 C713 1.266 . S
H707 C709 0.959 . S
H708 C709 0.961 . S
C709 C699 1.510 . S
C709 H707 0.959 . S
C709 H708 0.961 . S
C709 H710 0.960 . S
H710 C709 0.960 . S
H711 N691 0.862 . S
O712 Co680 1.920 . S
O712 C685 1.289 . S
C713 O705 1.258 . S
C713 O706 1.266 . S
Co714 O717 1.970 . S
Co714 N731 1.989 . S
Co714 O739 1.967 . S
Co714 O746 1.920 . S
Co715 O718 1.966 . S
Co715 N724 2.022 . S
Co715 N732 1.993 . S
Co715 O740 1.941 . S
C716 O717 1.258 . S
C716 O718 1.263 . S
O717 Co714 1.970 . S
O717 C716 1.258 . S
O718 Co715 1.966 . S
O718 C716 1.263 . S
C719 O720 1.235 . S
C719 O746 1.289 . S
O720 C719 1.235 . S
C721 C723 1.400 1_556 S
C721 N724 1.351 . S
C721 C726 1.501 . S
C722 C723 1.387 . S
C722 N725 1.341 1_554 S
C723 C721 1.400 1_554 S
C723 C722 1.387 . S
N724 Co715 2.022 . S
N724 C721 1.351 . S
N724 N725 1.365 . S
N725 C722 1.341 1_556 S
N725 N724 1.365 . S
N725 H745 0.862 . S
C726 C721 1.501 . S
C726 H727 0.961 . S
C726 H728 0.961 . S
C726 H729 0.960 . S
H727 C726 0.961 . S
H728 C726 0.961 . S
H729 C726 0.960 . S
C730 N731 1.342 . S
C730 C734 1.401 . S
C730 C735 1.499 . S
N731 Co714 1.989 . S
N731 C730 1.342 . S
N731 N732 1.388 . S
N732 Co715 1.993 . S
N732 N731 1.388 . S
N732 C733 1.346 . S
C733 N732 1.346 . S
C733 C734 1.396 . S
C733 C743 1.510 . S
C734 C730 1.401 . S
C734 C733 1.396 . S
C735 C730 1.499 . S
C735 H736 0.959 . S
C735 H737 0.960 . S
C735 H738 0.961 . S
H736 C735 0.959 . S
H737 C735 0.960 . S
H738 C735 0.961 . S
O739 Co714 1.967 . S
O739 C747 1.258 . S
O740 Co715 1.941 . S
O740 C747 1.266 . S
H741 C743 0.959 . S
H742 C743 0.961 . S
C743 C733 1.510 . S
C743 H741 0.959 . S
C743 H742 0.961 . S
C743 H744 0.960 . S
H744 C743 0.960 . S
H745 N725 0.862 . S
O746 Co714 1.920 . S
O746 C719 1.289 . S
C747 O739 1.258 . S
C747 O740 1.266 . S
Co748 O751 1.970 . S
Co748 N765 1.989 . S
Co748 O773 1.967 . S
Co748 O780 1.920 . S
Co749 O752 1.966 . S
Co749 N758 2.022 . S
Co749 N766 1.993 . S
Co749 O774 1.941 . S
C750 O751 1.258 . S
C750 O752 1.263 . S
O751 Co748 1.970 . S
O751 C750 1.258 . S
O752 Co749 1.966 . S
O752 C750 1.263 . S
C753 O754 1.235 . S
C753 O780 1.289 . S
O754 C753 1.235 . S
C755 C757 1.400 1_556 S
C755 N758 1.351 . S
C755 C760 1.501 . S
C756 C757 1.387 . S
C756 N759 1.341 1_554 S
C757 C755 1.400 1_554 S
C757 C756 1.387 . S
N758 Co749 2.022 . S
N758 C755 1.351 . S
N758 N759 1.365 . S
N759 C756 1.341 1_556 S
N759 N758 1.365 . S
N759 H779 0.862 . S
C760 C755 1.501 . S
C760 H761 0.961 . S
C760 H762 0.961 . S
C760 H763 0.960 . S
H761 C760 0.961 . S
H762 C760 0.961 . S
H763 C760 0.960 . S
C764 N765 1.342 . S
C764 C768 1.401 . S
C764 C769 1.499 . S
N765 Co748 1.989 . S
N765 C764 1.342 . S
N765 N766 1.388 . S
N766 Co749 1.993 . S
N766 N765 1.388 . S
N766 C767 1.346 . S
C767 N766 1.346 . S
C767 C768 1.396 . S
C767 C777 1.510 . S
C768 C764 1.401 . S
C768 C767 1.396 . S
C769 C764 1.499 . S
C769 H770 0.959 . S
C769 H771 0.960 . S
C769 H772 0.961 . S
H770 C769 0.959 . S
H771 C769 0.960 . S
H772 C769 0.961 . S
O773 Co748 1.967 . S
O773 C781 1.258 . S
O774 Co749 1.941 . S
O774 C781 1.266 . S
H775 C777 0.959 . S
H776 C777 0.961 . S
C777 C767 1.510 . S
C777 H775 0.959 . S
C777 H776 0.961 . S
C777 H778 0.960 . S
H778 C777 0.960 . S
H779 N759 0.862 . S
O780 Co748 1.920 . S
O780 C753 1.289 . S
C781 O773 1.258 . S
C781 O774 1.266 . S
Co782 O785 1.970 . S
Co782 N799 1.989 . S
Co782 O807 1.967 . S
Co782 O814 1.920 . S
Co783 O786 1.966 . S
Co783 N792 2.022 . S
Co783 N800 1.993 . S
Co783 O808 1.941 . S
C784 O785 1.258 . S
C784 O786 1.263 . S
O785 Co782 1.970 . S
O785 C784 1.258 . S
O786 Co783 1.966 . S
O786 C784 1.263 . S
C787 O788 1.235 . S
C787 O814 1.289 . S
O788 C787 1.235 . S
C789 C791 1.400 1_556 S
C789 N792 1.351 . S
C789 C794 1.501 . S
C790 C791 1.387 . S
C790 N793 1.341 1_554 S
C791 C789 1.400 1_554 S
C791 C790 1.387 . S
N792 Co783 2.022 . S
N792 C789 1.351 . S
N792 N793 1.365 . S
N793 C790 1.341 1_556 S
N793 N792 1.365 . S
N793 H813 0.862 . S
C794 C789 1.501 . S
C794 H795 0.961 . S
C794 H796 0.961 . S
C794 H797 0.960 . S
H795 C794 0.961 . S
H796 C794 0.961 . S
H797 C794 0.960 . S
C798 N799 1.342 . S
C798 C802 1.401 . S
C798 C803 1.499 . S
N799 Co782 1.989 . S
N799 C798 1.342 . S
N799 N800 1.388 . S
N800 Co783 1.993 . S
N800 N799 1.388 . S
N800 C801 1.346 . S
C801 N800 1.346 . S
C801 C802 1.396 . S
C801 C811 1.510 . S
C802 C798 1.401 . S
C802 C801 1.396 . S
C803 C798 1.499 . S
C803 H804 0.959 . S
C803 H805 0.960 . S
C803 H806 0.961 . S
H804 C803 0.959 . S
H805 C803 0.960 . S
H806 C803 0.961 . S
O807 Co782 1.967 . S
O807 C815 1.258 . S
O808 Co783 1.941 . S
O808 C815 1.266 . S
H809 C811 0.959 . S
H810 C811 0.961 . S
C811 C801 1.510 . S
C811 H809 0.959 . S
C811 H810 0.961 . S
C811 H812 0.960 . S
H812 C811 0.960 . S
H813 N793 0.862 . S
O814 Co782 1.920 . S
O814 C787 1.289 . S
C815 O807 1.258 . S
C815 O808 1.266 . S
Co816 O819 1.970 . S
Co816 N833 1.989 . S
Co816 O841 1.967 . S
Co816 O848 1.920 . S
Co817 O820 1.966 . S
Co817 N826 2.022 . S
Co817 N834 1.993 . S
Co817 O842 1.941 . S
C818 O819 1.258 . S
C818 O820 1.263 . S
O819 Co816 1.970 . S
O819 C818 1.258 . S
O820 Co817 1.966 . S
O820 C818 1.263 . S
C821 O822 1.235 . S
C821 O848 1.289 . S
O822 C821 1.235 . S
C823 C825 1.400 . S
C823 N826 1.351 . S
C823 C828 1.501 . S
C824 C825 1.387 . S
C824 N827 1.341 . S
C825 C823 1.400 . S
C825 C824 1.387 . S
N826 Co817 2.022 . S
N826 C823 1.351 . S
N826 N827 1.365 . S
N827 C824 1.341 . S
N827 N826 1.365 . S
N827 H847 0.862 . S
C828 C823 1.501 . S
C828 H829 0.961 . S
C828 H830 0.961 . S
C828 H831 0.960 . S
H829 C828 0.961 . S
H830 C828 0.961 . S
H831 C828 0.960 . S
C832 N833 1.342 . S
C832 C836 1.401 . S
C832 C837 1.499 . S
N833 Co816 1.989 . S
N833 C832 1.342 . S
N833 N834 1.388 . S
N834 Co817 1.993 . S
N834 N833 1.388 . S
N834 C835 1.346 . S
C835 N834 1.346 . S
C835 C836 1.396 . S
C835 C845 1.510 . S
C836 C832 1.401 . S
C836 C835 1.396 . S
C837 C832 1.499 . S
C837 H838 0.959 . S
C837 H839 0.960 . S
C837 H840 0.961 . S
H838 C837 0.959 . S
H839 C837 0.960 . S
H840 C837 0.961 . S
O841 Co816 1.967 . S
O841 C849 1.258 . S
O842 Co817 1.941 . S
O842 C849 1.266 . S
H843 C845 0.959 . S
H844 C845 0.961 . S
C845 C835 1.510 . S
C845 H843 0.959 . S
C845 H844 0.961 . S
C845 H846 0.960 . S
H846 C845 0.960 . S
H847 N827 0.862 . S
O848 Co816 1.920 . S
O848 C821 1.289 . S
C849 O841 1.258 . S
C849 O842 1.266 . S
Co850 O853 1.970 . S
Co850 N867 1.989 . S
Co850 O875 1.967 . S
Co850 O882 1.920 . S
Co851 O854 1.966 . S
Co851 N860 2.022 . S
Co851 N868 1.993 . S
Co851 O876 1.941 . S
C852 O853 1.258 . S
C852 O854 1.263 . S
O853 Co850 1.970 . S
O853 C852 1.258 . S
O854 Co851 1.966 . S
O854 C852 1.263 . S
C855 O856 1.235 . S
C855 O882 1.289 . S
O856 C855 1.235 . S
C857 C859 1.400 . S
C857 N860 1.351 . S
C857 C862 1.501 . S
C858 C859 1.387 . S
C858 N861 1.341 . S
C859 C857 1.400 . S
C859 C858 1.387 . S
N860 Co851 2.022 . S
N860 C857 1.351 . S
N860 N861 1.365 . S
N861 C858 1.341 . S
N861 N860 1.365 . S
N861 H881 0.862 . S
C862 C857 1.501 . S
C862 H863 0.961 . S
C862 H864 0.961 . S
C862 H865 0.960 . S
H863 C862 0.961 . S
H864 C862 0.961 . S
H865 C862 0.960 . S
C866 N867 1.342 . S
C866 C870 1.401 . S
C866 C871 1.499 . S
N867 Co850 1.989 . S
N867 C866 1.342 . S
N867 N868 1.388 . S
N868 Co851 1.993 . S
N868 N867 1.388 . S
N868 C869 1.346 . S
C869 N868 1.346 . S
C869 C870 1.396 . S
C869 C879 1.510 . S
C870 C866 1.401 . S
C870 C869 1.396 . S
C871 C866 1.499 . S
C871 H872 0.959 . S
C871 H873 0.960 . S
C871 H874 0.961 . S
H872 C871 0.959 . S
H873 C871 0.960 . S
H874 C871 0.961 . S
O875 Co850 1.967 . S
O875 C883 1.258 . S
O876 Co851 1.941 . S
O876 C883 1.266 . S
H877 C879 0.959 . S
H878 C879 0.961 . S
C879 C869 1.510 . S
C879 H877 0.959 . S
C879 H878 0.961 . S
C879 H880 0.960 . S
H880 C879 0.960 . S
H881 N861 0.862 . S
O882 Co850 1.920 . S
O882 C855 1.289 . S
C883 O875 1.258 . S
C883 O876 1.266 . S
Co884 O887 1.970 . S
Co884 N901 1.989 . S
Co884 O909 1.967 . S
Co884 O916 1.920 . S
Co885 O888 1.966 . S
Co885 N894 2.022 . S
Co885 N902 1.993 . S
Co885 O910 1.941 . S
C886 O887 1.258 . S
C886 O888 1.263 . S
O887 Co884 1.970 . S
O887 C886 1.258 . S
O888 Co885 1.966 . S
O888 C886 1.263 . S
C889 O890 1.235 . S
C889 O916 1.289 . S
O890 C889 1.235 . S
C891 C893 1.400 . S
C891 N894 1.351 . S
C891 C896 1.501 . S
C892 C893 1.387 . S
C892 N895 1.341 . S
C893 C891 1.400 . S
C893 C892 1.387 . S
N894 Co885 2.022 . S
N894 C891 1.351 . S
N894 N895 1.365 . S
N895 C892 1.341 . S
N895 N894 1.365 . S
N895 H915 0.862 . S
C896 C891 1.501 . S
C896 H897 0.961 . S
C896 H898 0.961 . S
C896 H899 0.960 . S
H897 C896 0.961 . S
H898 C896 0.961 . S
H899 C896 0.960 . S
C900 N901 1.342 . S
C900 C904 1.401 . S
C900 C905 1.499 . S
N901 Co884 1.989 . S
N901 C900 1.342 . S
N901 N902 1.388 . S
N902 Co885 1.993 . S
N902 N901 1.388 . S
N902 C903 1.346 . S
C903 N902 1.346 . S
C903 C904 1.396 . S
C903 C913 1.510 . S
C904 C900 1.401 . S
C904 C903 1.396 . S
C905 C900 1.499 . S
C905 H906 0.959 . S
C905 H907 0.960 . S
C905 H908 0.961 . S
H906 C905 0.959 . S
H907 C905 0.960 . S
H908 C905 0.961 . S
O909 Co884 1.967 . S
O909 C917 1.258 . S
O910 Co885 1.941 . S
O910 C917 1.266 . S
H911 C913 0.959 . S
H912 C913 0.961 . S
C913 C903 1.510 . S
C913 H911 0.959 . S
C913 H912 0.961 . S
C913 H914 0.960 . S
H914 C913 0.960 . S
H915 N895 0.862 . S
O916 Co884 1.920 . S
O916 C889 1.289 . S
C917 O909 1.258 . S
C917 O910 1.266 . S
Co918 O921 1.970 . S
Co918 N935 1.989 . S
Co918 O943 1.967 . S
Co918 O950 1.920 . S
Co919 O922 1.966 . S
Co919 N928 2.022 . S
Co919 N936 1.993 . S
Co919 O944 1.941 . S
C920 O921 1.258 . S
C920 O922 1.263 . S
O921 Co918 1.970 . S
O921 C920 1.258 . S
O922 Co919 1.966 . S
O922 C920 1.263 . S
C923 O924 1.235 . S
C923 O950 1.289 . S
O924 C923 1.235 . S
C925 C927 1.400 . S
C925 N928 1.351 . S
C925 C930 1.501 . S
C926 C927 1.387 . S
C926 N929 1.341 . S
C927 C925 1.400 . S
C927 C926 1.387 . S
N928 Co919 2.022 . S
N928 C925 1.351 . S
N928 N929 1.365 . S
N929 C926 1.341 . S
N929 N928 1.365 . S
N929 H949 0.862 . S
C930 C925 1.501 . S
C930 H931 0.961 . S
C930 H932 0.961 . S
C930 H933 0.960 . S
H931 C930 0.961 . S
H932 C930 0.961 . S
H933 C930 0.960 . S
C934 N935 1.342 . S
C934 C938 1.401 . S
C934 C939 1.499 . S
N935 Co918 1.989 . S
N935 C934 1.342 . S
N935 N936 1.388 . S
N936 Co919 1.993 . S
N936 N935 1.388 . S
N936 C937 1.346 . S
C937 N936 1.346 . S
C937 C938 1.396 . S
C937 C947 1.510 . S
C938 C934 1.401 . S
C938 C937 1.396 . S
C939 C934 1.499 . S
C939 H940 0.959 . S
C939 H941 0.960 . S
C939 H942 0.961 . S
H940 C939 0.959 . S
H941 C939 0.960 . S
H942 C939 0.961 . S
O943 Co918 1.967 . S
O943 C951 1.258 . S
O944 Co919 1.941 . S
O944 C951 1.266 . S
H945 C947 0.959 . S
H946 C947 0.961 . S
C947 C937 1.510 . S
C947 H945 0.959 . S
C947 H946 0.961 . S
C947 H948 0.960 . S
H948 C947 0.960 . S
H949 N929 0.862 . S
O950 Co918 1.920 . S
O950 C923 1.289 . S
C951 O943 1.258 . S
C951 O944 1.266 . S
Co952 O955 1.970 . S
Co952 N969 1.989 . S
Co952 O977 1.967 . S
Co952 O984 1.920 . S
Co953 O956 1.966 . S
Co953 N962 2.022 . S
Co953 N970 1.993 . S
Co953 O978 1.941 . S
C954 O955 1.258 . S
C954 O956 1.263 . S
O955 Co952 1.970 . S
O955 C954 1.258 . S
O956 Co953 1.966 . S
O956 C954 1.263 . S
C957 O958 1.235 . S
C957 O984 1.289 . S
O958 C957 1.235 . S
C959 C961 1.400 . S
C959 N962 1.351 . S
C959 C964 1.501 . S
C960 C961 1.387 . S
C960 N963 1.341 . S
C961 C959 1.400 . S
C961 C960 1.387 . S
N962 Co953 2.022 . S
N962 C959 1.351 . S
N962 N963 1.365 . S
N963 C960 1.341 . S
N963 N962 1.365 . S
N963 H983 0.862 . S
C964 C959 1.501 . S
C964 H965 0.961 . S
C964 H966 0.961 . S
C964 H967 0.960 . S
H965 C964 0.961 . S
H966 C964 0.961 . S
H967 C964 0.960 . S
C968 N969 1.342 . S
C968 C972 1.401 . S
C968 C973 1.499 . S
N969 Co952 1.989 . S
N969 C968 1.342 . S
N969 N970 1.388 . S
N970 Co953 1.993 . S
N970 N969 1.388 . S
N970 C971 1.346 . S
C971 N970 1.346 . S
C971 C972 1.396 . S
C971 C981 1.510 . S
C972 C968 1.401 . S
C972 C971 1.396 . S
C973 C968 1.499 . S
C973 H974 0.959 . S
C973 H975 0.960 . S
C973 H976 0.961 . S
H974 C973 0.959 . S
H975 C973 0.960 . S
H976 C973 0.961 . S
O977 Co952 1.967 . S
O977 C985 1.258 . S
O978 Co953 1.941 . S
O978 C985 1.266 . S
H979 C981 0.959 . S
H980 C981 0.961 . S
C981 C971 1.510 . S
C981 H979 0.959 . S
C981 H980 0.961 . S
C981 H982 0.960 . S
H982 C981 0.960 . S
H983 N963 0.862 . S
O984 Co952 1.920 . S
O984 C957 1.289 . S
C985 O977 1.258 . S
C985 O978 1.266 . S
Co986 O989 1.970 . S
Co986 N1003 1.989 . S
Co986 O1011 1.967 . S
Co986 O1018 1.920 . S
Co987 O990 1.966 . S
Co987 N996 2.022 . S
Co987 N1004 1.993 . S
Co987 O1012 1.941 . S
C988 O989 1.258 . S
C988 O990 1.263 . S
O989 Co986 1.970 . S
O989 C988 1.258 . S
O990 Co987 1.966 . S
O990 C988 1.263 . S
C991 O992 1.235 . S
C991 O1018 1.289 . S
O992 C991 1.235 . S
C993 C995 1.400 . S
C993 N996 1.351 . S
C993 C998 1.501 . S
C994 C995 1.387 . S
C994 N997 1.341 . S
C995 C993 1.400 . S
C995 C994 1.387 . S
N996 Co987 2.022 . S
N996 C993 1.351 . S
N996 N997 1.365 . S
N997 C994 1.341 . S
N997 N996 1.365 . S
N997 H1017 0.862 . S
C998 C993 1.501 . S
C998 H999 0.961 . S
C998 H1000 0.961 . S
C998 H1001 0.960 . S
H999 C998 0.961 . S
H1000 C998 0.961 . S
H1001 C998 0.960 . S
C1002 N1003 1.342 . S
C1002 C1006 1.401 . S
C1002 C1007 1.499 . S
N1003 Co986 1.989 . S
N1003 C1002 1.342 . S
N1003 N1004 1.388 . S
N1004 Co987 1.993 . S
N1004 N1003 1.388 . S
N1004 C1005 1.346 . S
C1005 N1004 1.346 . S
C1005 C1006 1.396 . S
C1005 C1015 1.510 . S
C1006 C1002 1.401 . S
C1006 C1005 1.396 . S
C1007 C1002 1.499 . S
C1007 H1008 0.959 . S
C1007 H1009 0.960 . S
C1007 H1010 0.961 . S
H1008 C1007 0.959 . S
H1009 C1007 0.960 . S
H1010 C1007 0.961 . S
O1011 Co986 1.967 . S
O1011 C1019 1.258 . S
O1012 Co987 1.941 . S
O1012 C1019 1.266 . S
H1013 C1015 0.959 . S
H1014 C1015 0.961 . S
C1015 C1005 1.510 . S
C1015 H1013 0.959 . S
C1015 H1014 0.961 . S
C1015 H1016 0.960 . S
H1016 C1015 0.960 . S
H1017 N997 0.862 . S
O1018 Co986 1.920 . S
O1018 C991 1.289 . S
C1019 O1011 1.258 . S
C1019 O1012 1.266 . S
Co1020 O1023 1.970 . S
Co1020 N1037 1.989 . S
Co1020 O1045 1.967 . S
Co1020 O1052 1.920 . S
Co1021 O1024 1.966 . S
Co1021 N1030 2.022 . S
Co1021 N1038 1.993 . S
Co1021 O1046 1.941 . S
C1022 O1023 1.258 . S
C1022 O1024 1.263 . S
O1023 Co1020 1.970 . S
O1023 C1022 1.258 . S
O1024 Co1021 1.966 . S
O1024 C1022 1.263 . S
C1025 O1026 1.235 . S
C1025 O1052 1.289 . S
O1026 C1025 1.235 . S
C1027 C1029 1.400 . S
C1027 N1030 1.351 . S
C1027 C1032 1.501 . S
C1028 C1029 1.387 . S
C1028 N1031 1.341 . S
C1029 C1027 1.400 . S
C1029 C1028 1.387 . S
N1030 Co1021 2.022 . S
N1030 C1027 1.351 . S
N1030 N1031 1.365 . S
N1031 C1028 1.341 . S
N1031 N1030 1.365 . S
N1031 H1051 0.862 . S
C1032 C1027 1.501 . S
C1032 H1033 0.961 . S
C1032 H1034 0.961 . S
C1032 H1035 0.960 . S
H1033 C1032 0.961 . S
H1034 C1032 0.961 . S
H1035 C1032 0.960 . S
C1036 N1037 1.342 . S
C1036 C1040 1.401 . S
C1036 C1041 1.499 . S
N1037 Co1020 1.989 . S
N1037 C1036 1.342 . S
N1037 N1038 1.388 . S
N1038 Co1021 1.993 . S
N1038 N1037 1.388 . S
N1038 C1039 1.346 . S
C1039 N1038 1.346 . S
C1039 C1040 1.396 . S
C1039 C1049 1.510 . S
C1040 C1036 1.401 . S
C1040 C1039 1.396 . S
C1041 C1036 1.499 . S
C1041 H1042 0.959 . S
C1041 H1043 0.960 . S
C1041 H1044 0.961 . S
H1042 C1041 0.959 . S
H1043 C1041 0.960 . S
H1044 C1041 0.961 . S
O1045 Co1020 1.967 . S
O1045 C1053 1.258 . S
O1046 Co1021 1.941 . S
O1046 C1053 1.266 . S
H1047 C1049 0.959 . S
H1048 C1049 0.961 . S
C1049 C1039 1.510 . S
C1049 H1047 0.959 . S
C1049 H1048 0.961 . S
C1049 H1050 0.960 . S
H1050 C1049 0.960 . S
H1051 N1031 0.862 . S
O1052 Co1020 1.920 . S
O1052 C1025 1.289 . S
C1053 O1045 1.258 . S
C1053 O1046 1.266 . S
Co1054 O1057 1.970 . S
Co1054 N1071 1.989 . S
Co1054 O1079 1.967 . S
Co1054 O1086 1.920 . S
Co1055 O1058 1.966 . S
Co1055 N1064 2.022 . S
Co1055 N1072 1.993 . S
Co1055 O1080 1.941 . S
C1056 O1057 1.258 . S
C1056 O1058 1.263 . S
O1057 Co1054 1.970 . S
O1057 C1056 1.258 . S
O1058 Co1055 1.966 . S
O1058 C1056 1.263 . S
C1059 O1060 1.235 . S
C1059 O1086 1.289 . S
O1060 C1059 1.235 . S
C1061 C1063 1.400 . S
C1061 N1064 1.351 . S
C1061 C1066 1.501 . S
C1062 C1063 1.387 . S
C1062 N1065 1.341 . S
C1063 C1061 1.400 . S
C1063 C1062 1.387 . S
N1064 Co1055 2.022 . S
N1064 C1061 1.351 . S
N1064 N1065 1.365 . S
N1065 C1062 1.341 . S
N1065 N1064 1.365 . S
N1065 H1085 0.862 . S
C1066 C1061 1.501 . S
C1066 H1067 0.961 . S
C1066 H1068 0.961 . S
C1066 H1069 0.960 . S
H1067 C1066 0.961 . S
H1068 C1066 0.961 . S
H1069 C1066 0.960 . S
C1070 N1071 1.342 . S
C1070 C1074 1.401 . S
C1070 C1075 1.499 . S
N1071 Co1054 1.989 . S
N1071 C1070 1.342 . S
N1071 N1072 1.388 . S
N1072 Co1055 1.993 . S
N1072 N1071 1.388 . S
N1072 C1073 1.346 . S
C1073 N1072 1.346 . S
C1073 C1074 1.396 . S
C1073 C1083 1.510 . S
C1074 C1070 1.401 . S
C1074 C1073 1.396 . S
C1075 C1070 1.499 . S
C1075 H1076 0.959 . S
C1075 H1077 0.960 . S
C1075 H1078 0.961 . S
H1076 C1075 0.959 . S
H1077 C1075 0.960 . S
H1078 C1075 0.961 . S
O1079 Co1054 1.967 . S
O1079 C1087 1.258 . S
O1080 Co1055 1.941 . S
O1080 C1087 1.266 . S
H1081 C1083 0.959 . S
H1082 C1083 0.961 . S
C1083 C1073 1.510 . S
C1083 H1081 0.959 . S
C1083 H1082 0.961 . S
C1083 H1084 0.960 . S
H1084 C1083 0.960 . S
H1085 N1065 0.862 . S
O1086 Co1054 1.920 . S
O1086 C1059 1.289 . S
C1087 O1079 1.258 . S
C1087 O1080 1.266 . S
Co1088 O1091 1.970 . S
Co1088 N1105 1.989 . S
Co1088 O1113 1.967 . S
Co1088 O1120 1.920 . S
Co1089 O1092 1.966 . S
Co1089 N1098 2.022 . S
Co1089 N1106 1.993 . S
Co1089 O1114 1.941 . S
C1090 O1091 1.258 . S
C1090 O1092 1.263 . S
O1091 Co1088 1.970 . S
O1091 C1090 1.258 . S
O1092 Co1089 1.966 . S
O1092 C1090 1.263 . S
C1093 O1094 1.235 . S
C1093 O1120 1.289 . S
O1094 C1093 1.235 . S
C1095 C1097 1.400 . S
C1095 N1098 1.351 . S
C1095 C1100 1.501 . S
C1096 C1097 1.387 . S
C1096 N1099 1.341 . S
C1097 C1095 1.400 . S
C1097 C1096 1.387 . S
N1098 Co1089 2.022 . S
N1098 C1095 1.351 . S
N1098 N1099 1.365 . S
N1099 C1096 1.341 . S
N1099 N1098 1.365 . S
N1099 H1119 0.862 . S
C1100 C1095 1.501 . S
C1100 H1101 0.961 . S
C1100 H1102 0.961 . S
C1100 H1103 0.960 . S
H1101 C1100 0.961 . S
H1102 C1100 0.961 . S
H1103 C1100 0.960 . S
C1104 N1105 1.342 . S
C1104 C1108 1.401 . S
C1104 C1109 1.499 . S
N1105 Co1088 1.989 . S
N1105 C1104 1.342 . S
N1105 N1106 1.388 . S
N1106 Co1089 1.993 . S
N1106 N1105 1.388 . S
N1106 C1107 1.346 . S
C1107 N1106 1.346 . S
C1107 C1108 1.396 . S
C1107 C1117 1.510 . S
C1108 C1104 1.401 . S
C1108 C1107 1.396 . S
C1109 C1104 1.499 . S
C1109 H1110 0.959 . S
C1109 H1111 0.960 . S
C1109 H1112 0.961 . S
H1110 C1109 0.959 . S
H1111 C1109 0.960 . S
H1112 C1109 0.961 . S
O1113 Co1088 1.967 . S
O1113 C1121 1.258 . S
O1114 Co1089 1.941 . S
O1114 C1121 1.266 . S
H1115 C1117 0.959 . S
H1116 C1117 0.961 . S
C1117 C1107 1.510 . S
C1117 H1115 0.959 . S
C1117 H1116 0.961 . S
C1117 H1118 0.960 . S
H1118 C1117 0.960 . S
H1119 N1099 0.862 . S
O1120 Co1088 1.920 . S
O1120 C1093 1.289 . S
C1121 O1113 1.258 . S
C1121 O1114 1.266 . S
Co1122 O1125 1.970 . S
Co1122 N1139 1.989 . S
Co1122 O1147 1.967 . S
Co1122 O1154 1.920 . S
Co1123 O1126 1.966 . S
Co1123 N1132 2.022 . S
Co1123 N1140 1.993 . S
Co1123 O1148 1.941 . S
C1124 O1125 1.258 . S
C1124 O1126 1.263 . S
O1125 Co1122 1.970 . S
O1125 C1124 1.258 . S
O1126 Co1123 1.966 . S
O1126 C1124 1.263 . S
C1127 O1128 1.235 . S
C1127 O1154 1.289 . S
O1128 C1127 1.235 . S
C1129 C1131 1.400 . S
C1129 N1132 1.351 . S
C1129 C1134 1.501 . S
C1130 C1131 1.387 . S
C1130 N1133 1.341 . S
C1131 C1129 1.400 . S
C1131 C1130 1.387 . S
N1132 Co1123 2.022 . S
N1132 C1129 1.351 . S
N1132 N1133 1.365 . S
N1133 C1130 1.341 . S
N1133 N1132 1.365 . S
N1133 H1153 0.862 . S
C1134 C1129 1.501 . S
C1134 H1135 0.961 . S
C1134 H1136 0.961 . S
C1134 H1137 0.960 . S
H1135 C1134 0.961 . S
H1136 C1134 0.961 . S
H1137 C1134 0.960 . S
C1138 N1139 1.342 . S
C1138 C1142 1.401 . S
C1138 C1143 1.499 . S
N1139 Co1122 1.989 . S
N1139 C1138 1.342 . S
N1139 N1140 1.388 . S
N1140 Co1123 1.993 . S
N1140 N1139 1.388 . S
N1140 C1141 1.346 . S
C1141 N1140 1.346 . S
C1141 C1142 1.396 . S
C1141 C1151 1.510 . S
C1142 C1138 1.401 . S
C1142 C1141 1.396 . S
C1143 C1138 1.499 . S
C1143 H1144 0.959 . S
C1143 H1145 0.960 . S
C1143 H1146 0.961 . S
H1144 C1143 0.959 . S
H1145 C1143 0.960 . S
H1146 C1143 0.961 . S
O1147 Co1122 1.967 . S
O1147 C1155 1.258 . S
O1148 Co1123 1.941 . S
O1148 C1155 1.266 . S
H1149 C1151 0.959 . S
H1150 C1151 0.961 . S
C1151 C1141 1.510 . S
C1151 H1149 0.959 . S
C1151 H1150 0.961 . S
C1151 H1152 0.960 . S
H1152 C1151 0.960 . S
H1153 N1133 0.862 . S
O1154 Co1122 1.920 . S
O1154 C1127 1.289 . S
C1155 O1147 1.258 . S
C1155 O1148 1.266 . S
Co1156 O1159 1.970 . S
Co1156 N1173 1.989 . S
Co1156 O1181 1.967 . S
Co1156 O1188 1.920 . S
Co1157 O1160 1.966 . S
Co1157 N1166 2.022 . S
Co1157 N1174 1.993 . S
Co1157 O1182 1.941 . S
C1158 O1159 1.258 . S
C1158 O1160 1.263 . S
O1159 Co1156 1.970 . S
O1159 C1158 1.258 . S
O1160 Co1157 1.966 . S
O1160 C1158 1.263 . S
C1161 O1162 1.235 . S
C1161 O1188 1.289 . S
O1162 C1161 1.235 . S
C1163 C1165 1.400 . S
C1163 N1166 1.351 . S
C1163 C1168 1.501 . S
C1164 C1165 1.387 . S
C1164 N1167 1.341 . S
C1165 C1163 1.400 . S
C1165 C1164 1.387 . S
N1166 Co1157 2.022 . S
N1166 C1163 1.351 . S
N1166 N1167 1.365 . S
N1167 C1164 1.341 . S
N1167 N1166 1.365 . S
N1167 H1187 0.862 . S
C1168 C1163 1.501 . S
C1168 H1169 0.961 . S
C1168 H1170 0.961 . S
C1168 H1171 0.960 . S
H1169 C1168 0.961 . S
H1170 C1168 0.961 . S
H1171 C1168 0.960 . S
C1172 N1173 1.342 . S
C1172 C1176 1.401 . S
C1172 C1177 1.499 . S
N1173 Co1156 1.989 . S
N1173 C1172 1.342 . S
N1173 N1174 1.388 . S
N1174 Co1157 1.993 . S
N1174 N1173 1.388 . S
N1174 C1175 1.346 . S
C1175 N1174 1.346 . S
C1175 C1176 1.396 . S
C1175 C1185 1.510 . S
C1176 C1172 1.401 . S
C1176 C1175 1.396 . S
C1177 C1172 1.499 . S
C1177 H1178 0.959 . S
C1177 H1179 0.960 . S
C1177 H1180 0.961 . S
H1178 C1177 0.959 . S
H1179 C1177 0.960 . S
H1180 C1177 0.961 . S
O1181 Co1156 1.967 . S
O1181 C1189 1.258 . S
O1182 Co1157 1.941 . S
O1182 C1189 1.266 . S
H1183 C1185 0.959 . S
H1184 C1185 0.961 . S
C1185 C1175 1.510 . S
C1185 H1183 0.959 . S
C1185 H1184 0.961 . S
C1185 H1186 0.960 . S
H1186 C1185 0.960 . S
H1187 N1167 0.862 . S
O1188 Co1156 1.920 . S
O1188 C1161 1.289 . S
C1189 O1181 1.258 . S
C1189 O1182 1.266 . S
Co1190 O1193 1.970 . S
Co1190 N1207 1.989 . S
Co1190 O1215 1.967 . S
Co1190 O1222 1.920 . S
Co1191 O1194 1.966 . S
Co1191 N1200 2.022 . S
Co1191 N1208 1.993 . S
Co1191 O1216 1.941 . S
C1192 O1193 1.258 . S
C1192 O1194 1.263 . S
O1193 Co1190 1.970 . S
O1193 C1192 1.258 . S
O1194 Co1191 1.966 . S
O1194 C1192 1.263 . S
C1195 O1196 1.235 . S
C1195 O1222 1.289 . S
O1196 C1195 1.235 . S
C1197 C1199 1.400 . S
C1197 N1200 1.351 . S
C1197 C1202 1.501 . S
C1198 C1199 1.387 . S
C1198 N1201 1.341 . S
C1199 C1197 1.400 . S
C1199 C1198 1.387 . S
N1200 Co1191 2.022 . S
N1200 C1197 1.351 . S
N1200 N1201 1.365 . S
N1201 C1198 1.341 . S
N1201 N1200 1.365 . S
N1201 H1221 0.862 . S
C1202 C1197 1.501 . S
C1202 H1203 0.961 . S
C1202 H1204 0.961 . S
C1202 H1205 0.960 . S
H1203 C1202 0.961 . S
H1204 C1202 0.961 . S
H1205 C1202 0.960 . S
C1206 N1207 1.342 . S
C1206 C1210 1.401 . S
C1206 C1211 1.499 . S
N1207 Co1190 1.989 . S
N1207 C1206 1.342 . S
N1207 N1208 1.388 . S
N1208 Co1191 1.993 . S
N1208 N1207 1.388 . S
N1208 C1209 1.346 . S
C1209 N1208 1.346 . S
C1209 C1210 1.396 . S
C1209 C1219 1.510 . S
C1210 C1206 1.401 . S
C1210 C1209 1.396 . S
C1211 C1206 1.499 . S
C1211 H1212 0.959 . S
C1211 H1213 0.960 . S
C1211 H1214 0.961 . S
H1212 C1211 0.959 . S
H1213 C1211 0.960 . S
H1214 C1211 0.961 . S
O1215 Co1190 1.967 . S
O1215 C1223 1.258 . S
O1216 Co1191 1.941 . S
O1216 C1223 1.266 . S
H1217 C1219 0.959 . S
H1218 C1219 0.961 . S
C1219 C1209 1.510 . S
C1219 H1217 0.959 . S
C1219 H1218 0.961 . S
C1219 H1220 0.960 . S
H1220 C1219 0.960 . S
H1221 N1201 0.862 . S
O1222 Co1190 1.920 . S
O1222 C1195 1.289 . S
C1223 O1215 1.258 . S
C1223 O1216 1.266 . S
C1224 C1225 1.387 . S
C1224 H1228 0.950 . S
C1224 C1233 1.390 . S
C1225 C1224 1.387 . S
C1225 C1227 1.387 . S
H1226 C1233 0.950 . S
C1227 C1225 1.387 . S
C1227 C1229 1.390 . S
C1227 H1231 0.950 . S
H1228 C1224 0.950 . S
C1229 C1227 1.390 . S
C1229 C1230 1.387 . S
C1229 H1232 0.950 1_556 S
C1230 C1229 1.387 . S
C1230 C1233 1.387 . S
H1231 C1227 0.950 . S
H1232 C1229 0.950 1_554 S
C1233 C1224 1.390 . S
C1233 H1226 0.950 . S
C1233 C1230 1.387 . S
C1234 C1235 1.387 . S
C1234 H1238 0.950 . S
C1234 C1243 1.390 . S
C1235 C1234 1.387 . S
C1235 C1237 1.387 . S
H1236 C1243 0.950 . S
C1237 C1235 1.387 . S
C1237 C1239 1.390 . S
C1237 H1241 0.950 . S
H1238 C1234 0.950 . S
C1239 C1237 1.390 . S
C1239 C1240 1.387 . S
C1239 H1242 0.950 . S
C1240 C1239 1.387 . S
C1240 C1243 1.387 . S
H1241 C1237 0.950 . S
H1242 C1239 0.950 . S
C1243 C1234 1.390 . S
C1243 H1236 0.950 . S
C1243 C1240 1.387 . S
C1244 C1245 1.387 . S
C1244 H1248 0.950 . S
C1244 C1253 1.390 . S
C1245 C1244 1.387 . S
C1245 C1247 1.387 . S
H1246 C1253 0.950 . S
C1247 C1245 1.387 . S
C1247 C1249 1.390 . S
C1247 H1251 0.950 . S
H1248 C1244 0.950 . S
C1249 C1247 1.390 . S
C1249 C1250 1.387 . S
C1249 H1252 0.950 . S
C1250 C1249 1.387 . S
C1250 C1253 1.387 . S
H1251 C1247 0.950 . S
H1252 C1249 0.950 . S
C1253 C1244 1.390 . S
C1253 H1246 0.950 . S
C1253 C1250 1.387 . S
C1254 C1255 1.387 . S
C1254 H1258 0.950 . S
C1254 C1263 1.390 . S
C1255 C1254 1.387 . S
C1255 C1257 1.387 . S
H1256 C1263 0.950 . S
C1257 C1255 1.387 . S
C1257 C1259 1.390 . S
C1257 H1261 0.950 . S
H1258 C1254 0.950 . S
C1259 C1257 1.390 . S
C1259 C1260 1.387 . S
C1259 H1262 0.950 . S
C1260 C1259 1.387 . S
C1260 C1263 1.387 . S
H1261 C1257 0.950 . S
H1262 C1259 0.950 . S
C1263 C1254 1.390 . S
C1263 H1256 0.950 . S
C1263 C1260 1.387 . S
C1264 C1265 1.387 . S
C1264 H1268 0.950 . S
C1264 C1273 1.390 . S
C1265 C1264 1.387 . S
C1265 C1267 1.387 . S
H1266 C1273 0.950 . S
C1267 C1265 1.387 . S
C1267 C1269 1.390 . S
C1267 H1271 0.950 . S
H1268 C1264 0.950 . S
C1269 C1267 1.390 . S
C1269 C1270 1.387 . S
C1269 H1272 0.950 . S
C1270 C1269 1.387 . S
C1270 C1273 1.387 . S
H1271 C1267 0.950 . S
H1272 C1269 0.950 . S
C1273 C1264 1.390 . S
C1273 H1266 0.950 . S
C1273 C1270 1.387 . S
C1274 C1275 1.387 . S
C1274 H1278 0.950 . S
C1274 C1283 1.390 . S
C1275 C1274 1.387 . S
C1275 C1277 1.387 . S
H1276 C1283 0.950 . S
C1277 C1275 1.387 . S
C1277 C1279 1.390 . S
C1277 H1281 0.950 . S
H1278 C1274 0.950 . S
C1279 C1277 1.390 . S
C1279 C1280 1.387 . S
C1279 H1282 0.950 . S
C1280 C1279 1.387 . S
C1280 C1283 1.387 . S
H1281 C1277 0.950 . S
H1282 C1279 0.950 . S
C1283 C1274 1.390 . S
C1283 H1276 0.950 . S
C1283 C1280 1.387 . S
C1284 C1285 1.387 . S
C1284 H1288 0.950 . S
C1284 C1293 1.390 . S
C1285 C1284 1.387 . S
C1285 C1287 1.387 . S
H1286 C1293 0.950 . S
C1287 C1285 1.387 . S
C1287 C1289 1.390 . S
C1287 H1291 0.950 . S
H1288 C1284 0.950 . S
C1289 C1287 1.390 . S
C1289 C1290 1.387 . S
C1289 H1292 0.950 . S
C1290 C1289 1.387 . S
C1290 C1293 1.387 . S
H1291 C1287 0.950 . S
H1292 C1289 0.950 . S
C1293 C1284 1.390 . S
C1293 H1286 0.950 . S
C1293 C1290 1.387 . S
C1294 C1295 1.387 . S
C1294 H1298 0.950 . S
C1294 C1303 1.390 . S
C1295 C1294 1.387 . S
C1295 C1297 1.387 . S
H1296 C1303 0.950 . S
C1297 C1295 1.387 . S
C1297 C1299 1.390 . S
C1297 H1301 0.950 . S
H1298 C1294 0.950 . S
C1299 C1297 1.390 . S
C1299 C1300 1.387 . S
C1299 H1302 0.950 . S
C1300 C1299 1.387 . S
C1300 C1303 1.387 . S
H1301 C1297 0.950 . S
H1302 C1299 0.950 . S
C1303 C1294 1.390 . S
C1303 H1296 0.950 . S
C1303 C1300 1.387 . S
C1304 C1305 1.387 . S
C1304 H1308 0.950 . S
C1304 C1313 1.390 . S
C1305 C1304 1.387 . S
C1305 C1307 1.387 . S
H1306 C1313 0.950 . S
C1307 C1305 1.387 . S
C1307 C1309 1.390 . S
C1307 H1311 0.950 . S
H1308 C1304 0.950 . S
C1309 C1307 1.390 . S
C1309 C1310 1.387 . S
C1309 H1312 0.950 . S
C1310 C1309 1.387 . S
C1310 C1313 1.387 . S
H1311 C1307 0.950 . S
H1312 C1309 0.950 . S
C1313 C1304 1.390 . S
C1313 H1306 0.950 . S
C1313 C1310 1.387 . S
C1314 C1315 1.387 . S
C1314 H1318 0.950 . S
C1314 C1323 1.390 . S
C1315 C1314 1.387 . S
C1315 C1317 1.387 . S
H1316 C1323 0.950 . S
C1317 C1315 1.387 . S
C1317 C1319 1.390 . S
C1317 H1321 0.950 . S
H1318 C1314 0.950 . S
C1319 C1317 1.390 . S
C1319 C1320 1.387 . S
C1319 H1322 0.950 . S
C1320 C1319 1.387 . S
C1320 C1323 1.387 . S
H1321 C1317 0.950 . S
H1322 C1319 0.950 . S
C1323 C1314 1.390 . S
C1323 H1316 0.950 . S
C1323 C1320 1.387 . S
C1324 C1325 1.387 . S
C1324 H1328 0.950 . S
C1324 C1333 1.390 . S
C1325 C1324 1.387 . S
C1325 C1327 1.387 . S
H1326 C1333 0.950 . S
C1327 C1325 1.387 . S
C1327 C1329 1.390 . S
C1327 H1331 0.950 . S
H1328 C1324 0.950 . S
C1329 C1327 1.390 . S
C1329 C1330 1.387 . S
C1329 H1332 0.950 . S
C1330 C1329 1.387 . S
C1330 C1333 1.387 . S
H1331 C1327 0.950 . S
H1332 C1329 0.950 . S
C1333 C1324 1.390 . S
C1333 H1326 0.950 . S
C1333 C1330 1.387 . S
C1334 C1335 1.387 . S
C1334 H1338 0.950 . S
C1334 C1343 1.390 . S
C1335 C1334 1.387 . S
C1335 C1337 1.387 . S
H1336 C1343 0.950 . S
C1337 C1335 1.387 . S
C1337 C1339 1.390 . S
C1337 H1341 0.950 . S
H1338 C1334 0.950 . S
C1339 C1337 1.390 . S
C1339 C1340 1.387 . S
C1339 H1342 0.950 . S
C1340 C1339 1.387 . S
C1340 C1343 1.387 . S
H1341 C1337 0.950 . S
H1342 C1339 0.950 . S
C1343 C1334 1.390 . S
C1343 H1336 0.950 . S
C1343 C1340 1.387 . S
C1344 C1345 1.387 1_455 S
C1344 H1348 0.950 . S
C1344 C1353 1.390 . S
C1345 C1344 1.387 1_655 S
C1345 C1347 1.387 . S
H1346 C1353 0.950 . S
C1347 C1345 1.387 . S
C1347 C1349 1.390 . S
C1347 H1351 0.950 . S
H1348 C1344 0.950 . S
C1349 C1347 1.390 . S
C1349 C1350 1.387 1_655 S
C1349 H1352 0.950 . S
C1350 C1349 1.387 1_455 S
C1350 C1353 1.387 . S
H1351 C1347 0.950 . S
H1352 C1349 0.950 . S
C1353 C1344 1.390 . S
C1353 H1346 0.950 . S
C1353 C1350 1.387 . S
C1354 C1355 1.387 . S
C1354 H1358 0.950 . S
C1354 C1363 1.390 . S
C1355 C1354 1.387 . S
C1355 C1357 1.387 . S
H1356 C1363 0.950 . S
C1357 C1355 1.387 . S
C1357 C1359 1.390 . S
C1357 H1361 0.950 . S
H1358 C1354 0.950 . S
C1359 C1357 1.390 . S
C1359 C1360 1.387 . S
C1359 H1362 0.950 . S
C1360 C1359 1.387 . S
C1360 C1363 1.387 . S
H1361 C1357 0.950 . S
H1362 C1359 0.950 . S
C1363 C1354 1.390 . S
C1363 H1356 0.950 . S
C1363 C1360 1.387 . S
C1364 C1365 1.387 . S
C1364 H1368 0.950 . S
C1364 C1373 1.390 1_565 S
C1365 C1364 1.387 . S
C1365 C1367 1.387 . S
H1366 C1373 0.950 . S
C1367 C1365 1.387 . S
C1367 C1369 1.390 1_565 S
C1367 H1371 0.950 . S
H1368 C1364 0.950 . S
C1369 C1367 1.390 1_545 S
C1369 C1370 1.387 . S
C1369 H1372 0.950 . S
C1370 C1369 1.387 . S
C1370 C1373 1.387 . S
H1371 C1367 0.950 . S
H1372 C1369 0.950 . S
C1373 C1364 1.390 1_545 S
C1373 H1366 0.950 . S
C1373 C1370 1.387 . S
C1374 C1375 1.387 . S
C1374 H1378 0.950 . S
C1374 C1383 1.390 1_565 S
C1375 C1374 1.387 . S
C1375 C1377 1.387 . S
H1376 C1383 0.950 . S
C1377 C1375 1.387 . S
C1377 C1379 1.390 1_565 S
C1377 H1381 0.950 . S
H1378 C1374 0.950 . S
C1379 C1377 1.390 1_545 S
C1379 C1380 1.387 . S
C1379 H1382 0.950 . S
C1380 C1379 1.387 . S
C1380 C1383 1.387 . S
H1381 C1377 0.950 . S
H1382 C1379 0.950 . S
C1383 C1374 1.390 1_545 S
C1383 H1376 0.950 . S
C1383 C1380 1.387 . S
C1384 C1385 1.387 . S
C1384 H1388 0.950 . S
C1384 C1393 1.390 1_655 S
C1385 C1384 1.387 . S
C1385 C1387 1.387 . S
H1386 C1393 0.950 . S
C1387 C1385 1.387 . S
C1387 C1389 1.390 1_655 S
C1387 H1391 0.950 . S
H1388 C1384 0.950 . S
C1389 C1387 1.390 1_455 S
C1389 C1390 1.387 . S
C1389 H1392 0.950 . S
C1390 C1389 1.387 . S
C1390 C1393 1.387 . S
H1391 C1387 0.950 . S
H1392 C1389 0.950 . S
C1393 C1384 1.390 1_455 S
C1393 H1386 0.950 . S
C1393 C1390 1.387 . S
C1394 C1395 1.387 . S
C1394 H1398 0.950 . S
C1394 C1403 1.390 . S
C1395 C1394 1.387 . S
C1395 C1397 1.387 . S
H1396 C1403 0.950 . S
C1397 C1395 1.387 . S
C1397 C1399 1.390 . S
C1397 H1401 0.950 . S
H1398 C1394 0.950 . S
C1399 C1397 1.390 . S
C1399 C1400 1.387 . S
C1399 H1402 0.950 . S
C1400 C1399 1.387 . S
C1400 C1403 1.387 . S
H1401 C1397 0.950 . S
H1402 C1399 0.950 . S
C1403 C1394 1.390 . S
C1403 H1396 0.950 . S
C1403 C1400 1.387 . S
C1404 C1405 1.387 . S
C1404 H1408 0.950 . S
C1404 C1413 1.390 . S
C1405 C1404 1.387 . S
C1405 C1407 1.387 . S
H1406 C1413 0.950 . S
C1407 C1405 1.387 . S
C1407 C1409 1.390 . S
C1407 H1411 0.950 . S
H1408 C1404 0.950 . S
C1409 C1407 1.390 . S
C1409 C1410 1.387 . S
C1409 H1412 0.950 . S
C1410 C1409 1.387 . S
C1410 C1413 1.387 . S
H1411 C1407 0.950 . S
H1412 C1409 0.950 . S
C1413 C1404 1.390 . S
C1413 H1406 0.950 . S
C1413 C1410 1.387 . S
C1414 C1415 1.387 1_545 S
C1414 H1418 0.950 . S
C1414 C1423 1.390 . S
C1415 C1414 1.387 1_565 S
C1415 C1417 1.389 . S
H1416 C1423 0.950 . S
C1417 C1415 1.389 . S
C1417 C1419 1.390 . S
C1417 H1421 0.950 . S
H1418 C1414 0.950 . S
C1419 C1417 1.390 . S
C1419 C1420 1.387 . S
C1419 H1422 0.950 . S
C1420 C1419 1.387 . S
C1420 C1423 1.388 1_565 S
H1421 C1417 0.950 . S
H1422 C1419 0.950 . S
C1423 C1414 1.390 . S
C1423 H1416 0.950 . S
C1423 C1420 1.388 1_545 S
C1424 C1425 1.386 1_655 S
C1424 H1428 0.950 . S
C1424 C1433 1.390 . S
C1425 C1424 1.386 1_455 S
C1425 C1427 1.389 . S
H1426 C1433 0.950 . S
C1427 C1425 1.389 . S
C1427 C1429 1.390 . S
C1427 H1431 0.950 . S
H1428 C1424 0.950 . S
C1429 C1427 1.390 . S
C1429 C1430 1.373 . S
C1429 H1432 0.950 . S
C1430 C1429 1.373 . S
C1430 C1433 1.403 1_455 S
H1431 C1427 0.950 . S
H1432 C1429 0.950 . S
C1433 C1424 1.390 . S
C1433 H1426 0.950 . S
C1433 C1430 1.403 1_655 S
C1434 C1435 1.387 . S
C1434 H1438 0.950 . S
C1434 C1443 1.390 . S
C1435 C1434 1.387 . S
C1435 C1437 1.387 . S
H1436 C1443 0.950 . S
C1437 C1435 1.387 . S
C1437 C1439 1.390 . S
C1437 H1441 0.950 . S
H1438 C1434 0.950 . S
C1439 C1437 1.390 . S
C1439 C1440 1.387 . S
C1439 H1442 0.950 . S
C1440 C1439 1.387 . S
C1440 C1443 1.387 . S
H1441 C1437 0.950 . S
H1442 C1439 0.950 . S
C1443 C1434 1.390 . S
C1443 H1436 0.950 . S
C1443 C1440 1.387 . S
C1444 C1445 1.373 . S
C1444 H1448 0.953 1_565 S
C1444 C1453 1.390 1_565 S
C1445 C1444 1.373 . S
C1445 C1447 1.381 . S
H1446 C1453 0.937 . S
C1447 C1445 1.381 . S
C1447 C1449 1.390 . S
C1447 H1451 0.970 . S
H1448 C1444 0.953 1_545 S
C1449 C1447 1.390 . S
C1449 C1450 1.378 1_565 S
C1449 H1452 0.948 . S
C1450 C1449 1.378 1_545 S
C1450 C1453 1.381 . S
H1451 C1447 0.970 . S
H1452 C1449 0.948 . S
C1453 C1444 1.390 1_545 S
C1453 H1446 0.937 . S
C1453 C1450 1.381 . S
C1454 C1455 1.384 . S
C1454 H1458 0.950 . S
C1454 C1463 1.390 . S
C1455 C1454 1.384 . S
C1455 C1457 1.391 1_455 S
H1456 C1463 0.950 . S
C1457 C1455 1.391 1_655 S
C1457 C1459 1.390 . S
C1457 H1461 0.950 . S
H1458 C1454 0.950 . S
C1459 C1457 1.390 . S
C1459 C1460 1.396 1_655 S
C1459 H1462 0.950 . S
C1460 C1459 1.396 1_455 S
C1460 C1463 1.380 . S
H1461 C1457 0.950 . S
H1462 C1459 0.950 . S
C1463 C1454 1.390 . S
C1463 H1456 0.950 . S
C1463 C1460 1.380 . S
C1464 C1465 1.387 . S
C1464 H1468 0.950 . S
C1464 C1473 1.390 . S
C1465 C1464 1.387 . S
C1465 C1467 1.387 . S
H1466 C1473 0.950 . S
C1467 C1465 1.387 . S
C1467 C1469 1.390 . S
C1467 H1471 0.950 . S
H1468 C1464 0.950 . S
C1469 C1467 1.390 . S
C1469 C1470 1.387 . S
C1469 H1472 0.950 . S
C1470 C1469 1.387 . S
C1470 C1473 1.387 . S
H1471 C1467 0.950 . S
H1472 C1469 0.950 . S
C1473 C1464 1.390 . S
C1473 H1466 0.950 . S
C1473 C1470 1.387 . S
C1474 C1475 1.387 . S
C1474 H1478 0.950 . S
C1474 C1483 1.390 . S
C1475 C1474 1.387 . S
C1475 C1477 1.387 . S
H1476 C1483 0.950 . S
C1477 C1475 1.387 . S
C1477 C1479 1.390 . S
C1477 H1481 0.950 . S
H1478 C1474 0.950 . S
C1479 C1477 1.390 . S
C1479 C1480 1.387 . S
C1479 H1482 0.950 . S
C1480 C1479 1.387 . S
C1480 C1483 1.387 . S
H1481 C1477 0.950 . S
H1482 C1479 0.950 . S
C1483 C1474 1.390 . S
C1483 H1476 0.950 . S
C1483 C1480 1.387 . S
C1484 C1485 1.387 . S
C1484 H1488 0.950 . S
C1484 C1493 1.390 . S
C1485 C1484 1.387 . S
C1485 C1487 1.387 . S
H1486 C1493 0.950 . S
C1487 C1485 1.387 . S
C1487 C1489 1.390 . S
C1487 H1491 0.950 . S
H1488 C1484 0.950 . S
C1489 C1487 1.390 . S
C1489 C1490 1.387 . S
C1489 H1492 0.950 . S
C1490 C1489 1.387 . S
C1490 C1493 1.387 . S
H1491 C1487 0.950 . S
H1492 C1489 0.950 . S
C1493 C1484 1.390 . S
C1493 H1486 0.950 . S
C1493 C1490 1.387 . S
C1494 C1495 1.387 . S
C1494 H1498 0.950 . S
C1494 C1503 1.390 . S
C1495 C1494 1.387 . S
C1495 C1497 1.387 . S
H1496 C1503 0.950 . S
C1497 C1495 1.387 . S
C1497 C1499 1.390 . S
C1497 H1501 0.950 . S
H1498 C1494 0.950 . S
C1499 C1497 1.390 . S
C1499 C1500 1.387 . S
C1499 H1502 0.950 . S
C1500 C1499 1.387 . S
C1500 C1503 1.387 . S
H1501 C1497 0.950 . S
H1502 C1499 0.950 . S
C1503 C1494 1.390 . S
C1503 H1496 0.950 . S
C1503 C1500 1.387 . S
C1504 C1505 1.387 . S
C1504 H1508 0.950 . S
C1504 C1513 1.390 . S
C1505 C1504 1.387 . S
C1505 C1507 1.387 . S
H1506 C1513 0.950 . S
C1507 C1505 1.387 . S
C1507 C1509 1.390 . S
C1507 H1511 0.950 . S
H1508 C1504 0.950 . S
C1509 C1507 1.390 . S
C1509 C1510 1.387 . S
C1509 H1512 0.950 . S
C1510 C1509 1.387 . S
C1510 C1513 1.387 . S
H1511 C1507 0.950 . S
H1512 C1509 0.950 . S
C1513 C1504 1.390 . S
C1513 H1506 0.950 . S
C1513 C1510 1.387 . S
C1514 C1515 1.387 . S
C1514 H1518 0.950 . S
C1514 C1523 1.390 . S
C1515 C1514 1.387 . S
C1515 C1517 1.387 . S
H1516 C1523 0.950 . S
C1517 C1515 1.387 . S
C1517 C1519 1.390 . S
C1517 H1521 0.950 . S
H1518 C1514 0.950 . S
C1519 C1517 1.390 . S
C1519 C1520 1.387 . S
C1519 H1522 0.950 . S
C1520 C1519 1.387 . S
C1520 C1523 1.387 . S
H1521 C1517 0.950 . S
H1522 C1519 0.950 . S
C1523 C1514 1.390 . S
C1523 H1516 0.950 . S
C1523 C1520 1.387 . S
C1524 C1525 1.387 . S
C1524 H1528 0.950 . S
C1524 C1533 1.390 . S
C1525 C1524 1.387 . S
C1525 C1527 1.387 . S
H1526 C1533 0.950 . S
C1527 C1525 1.387 . S
C1527 C1529 1.390 . S
C1527 H1531 0.950 . S
H1528 C1524 0.950 . S
C1529 C1527 1.390 . S
C1529 C1530 1.387 . S
C1529 H1532 0.950 . S
C1530 C1529 1.387 . S
C1530 C1533 1.387 . S
H1531 C1527 0.950 . S
H1532 C1529 0.950 . S
C1533 C1524 1.390 . S
C1533 H1526 0.950 . S
C1533 C1530 1.387 . S
C1534 C1535 1.387 . S
C1534 H1538 0.950 . S
C1534 C1543 1.390 . S
C1535 C1534 1.387 . S
C1535 C1537 1.387 . S
H1536 C1543 0.950 . S
C1537 C1535 1.387 . S
C1537 C1539 1.390 . S
C1537 H1541 0.950 . S
H1538 C1534 0.950 . S
C1539 C1537 1.390 . S
C1539 C1540 1.387 . S
C1539 H1542 0.950 . S
C1540 C1539 1.387 . S
C1540 C1543 1.387 . S
H1541 C1537 0.950 . S
H1542 C1539 0.950 . S
C1543 C1534 1.390 . S
C1543 H1536 0.950 . S
C1543 C1540 1.387 . S
C1544 C1545 1.387 . S
C1544 H1548 0.950 . S
C1544 C1553 1.390 . S
C1545 C1544 1.387 . S
C1545 C1547 1.387 . S
H1546 C1553 0.950 . S
C1547 C1545 1.387 . S
C1547 C1549 1.390 . S
C1547 H1551 0.950 . S
H1548 C1544 0.950 . S
C1549 C1547 1.390 . S
C1549 C1550 1.387 . S
C1549 H1552 0.950 . S
C1550 C1549 1.387 . S
C1550 C1553 1.387 . S
H1551 C1547 0.950 . S
H1552 C1549 0.950 . S
C1553 C1544 1.390 . S
C1553 H1546 0.950 . S
C1553 C1550 1.387 . S
C1554 C1555 1.387 . S
C1554 H1558 0.950 . S
C1554 C1563 1.390 . S
C1555 C1554 1.387 . S
C1555 C1557 1.387 . S
H1556 C1563 0.950 . S
C1557 C1555 1.387 . S
C1557 C1559 1.390 . S
C1557 H1561 0.950 . S
H1558 C1554 0.950 . S
C1559 C1557 1.390 . S
C1559 C1560 1.387 . S
C1559 H1562 0.950 . S
C1560 C1559 1.387 . S
C1560 C1563 1.387 . S
H1561 C1557 0.950 . S
H1562 C1559 0.950 . S
C1563 C1554 1.390 . S
C1563 H1556 0.950 . S
C1563 C1560 1.387 . S
C1564 C1565 1.387 . S
C1564 H1568 0.950 . S
C1564 C1573 1.390 . S
C1565 C1564 1.387 . S
C1565 C1567 1.387 . S
H1566 C1573 0.950 . S
C1567 C1565 1.387 . S
C1567 C1569 1.390 . S
C1567 H1571 0.950 . S
H1568 C1564 0.950 . S
C1569 C1567 1.390 . S
C1569 C1570 1.387 . S
C1569 H1572 0.950 . S
C1570 C1569 1.387 . S
C1570 C1573 1.387 . S
H1571 C1567 0.950 . S
H1572 C1569 0.950 . S
C1573 C1564 1.390 . S
C1573 H1566 0.950 . S
C1573 C1570 1.387 . S
C1574 C1575 1.387 . S
C1574 H1578 0.950 . S
C1574 C1583 1.390 . S
C1575 C1574 1.387 . S
C1575 C1577 1.387 . S
H1576 C1583 0.950 . S
C1577 C1575 1.387 . S
C1577 C1579 1.390 . S
C1577 H1581 0.950 . S
H1578 C1574 0.950 . S
C1579 C1577 1.390 . S
C1579 C1580 1.387 . S
C1579 H1582 0.950 . S
C1580 C1579 1.387 . S
C1580 C1583 1.387 . S
H1581 C1577 0.950 . S
H1582 C1579 0.950 . S
C1583 C1574 1.390 . S
C1583 H1576 0.950 . S
C1583 C1580 1.387 . S
C1584 C1585 1.387 . S
C1584 H1588 0.950 . S
C1584 C1593 1.390 . S
C1585 C1584 1.387 . S
C1585 C1587 1.387 1_554 S
H1586 C1593 0.950 . S
C1587 C1585 1.387 1_556 S
C1587 C1589 1.390 . S
C1587 H1591 0.950 . S
H1588 C1584 0.950 . S
C1589 C1587 1.390 . S
C1589 C1590 1.387 1_556 S
C1589 H1592 0.950 . S
C1590 C1589 1.387 1_554 S
C1590 C1593 1.387 . S
H1591 C1587 0.950 . S
H1592 C1589 0.950 . S
C1593 C1584 1.390 . S
C1593 H1586 0.950 . S
C1593 C1590 1.387 . S
C1594 C1595 1.387 . S
C1594 H1598 0.950 . S
C1594 C1603 1.390 . S
C1595 C1594 1.387 . S
C1595 C1597 1.387 1_554 S
H1596 C1603 0.950 . S
C1597 C1595 1.387 1_556 S
C1597 C1599 1.390 . S
C1597 H1601 0.950 . S
H1598 C1594 0.950 . S
C1599 C1597 1.390 . S
C1599 C1600 1.387 1_556 S
C1599 H1602 0.950 . S
C1600 C1599 1.387 1_554 S
C1600 C1603 1.387 . S
H1601 C1597 0.950 . S
H1602 C1599 0.950 . S
C1603 C1594 1.390 . S
C1603 H1596 0.950 . S
C1603 C1600 1.387 . S
C1604 C1605 1.379 1_556 S
C1604 H1608 0.956 . S
C1604 C1613 1.393 . S
C1605 C1604 1.379 1_554 S
C1605 C1607 1.387 . S
H1606 C1613 0.950 . S
C1607 C1605 1.387 . S
C1607 C1609 1.390 . S
C1607 H1611 0.950 . S
H1608 C1604 0.956 . S
C1609 C1607 1.390 . S
C1609 C1610 1.387 . S
C1609 H1612 0.950 . S
C1610 C1609 1.387 . S
C1610 C1613 1.387 1_554 S
H1611 C1607 0.950 . S
H1612 C1609 0.950 . S
C1613 C1604 1.393 . S
C1613 H1606 0.950 . S
C1613 C1610 1.387 1_556 S
C1614 C1615 1.387 . S
C1614 H1618 0.950 . S
C1614 C1623 1.390 . S
C1615 C1614 1.387 . S
C1615 C1617 1.387 . S
H1616 C1623 0.950 . S
C1617 C1615 1.387 . S
C1617 C1619 1.390 . S
C1617 H1621 0.950 . S
H1618 C1614 0.950 . S
C1619 C1617 1.390 . S
C1619 C1620 1.387 . S
C1619 H1622 0.950 . S
C1620 C1619 1.387 . S
C1620 C1623 1.387 . S
H1621 C1617 0.950 . S
H1622 C1619 0.950 . S
C1623 C1614 1.390 . S
C1623 H1616 0.950 . S
C1623 C1620 1.387 . S
C1624 C1625 1.387 . S
C1624 H1628 0.950 . S
C1624 C1633 1.390 . S
C1625 C1624 1.387 . S
C1625 C1627 1.387 . S
H1626 C1633 0.950 . S
C1627 C1625 1.387 . S
C1627 C1629 1.390 . S
C1627 H1631 0.950 . S
H1628 C1624 0.950 . S
C1629 C1627 1.390 . S
C1629 C1630 1.387 . S
C1629 H1632 0.950 . S
C1630 C1629 1.387 . S
C1630 C1633 1.387 . S
H1631 C1627 0.950 . S
H1632 C1629 0.950 . S
C1633 C1624 1.390 . S
C1633 H1626 0.950 . S
C1633 C1630 1.387 . S
C1634 C1635 1.387 . S
C1634 H1638 0.950 . S
C1634 C1643 1.390 . S
C1635 C1634 1.387 . S
C1635 C1637 1.387 . S
H1636 C1643 0.950 . S
C1637 C1635 1.387 . S
C1637 C1639 1.390 . S
C1637 H1641 0.950 . S
H1638 C1634 0.950 . S
C1639 C1637 1.390 . S
C1639 C1640 1.387 . S
C1639 H1642 0.950 . S
C1640 C1639 1.387 . S
C1640 C1643 1.387 . S
H1641 C1637 0.950 . S
H1642 C1639 0.950 . S
C1643 C1634 1.390 . S
C1643 H1636 0.950 . S
C1643 C1640 1.387 . S
C1644 C1645 1.387 . S
C1644 H1648 0.950 . S
C1644 C1653 1.390 . S
C1645 C1644 1.387 . S
C1645 C1647 1.387 1_554 S
H1646 C1653 0.950 . S
C1647 C1645 1.387 1_556 S
C1647 C1649 1.390 . S
C1647 H1651 0.950 . S
H1648 C1644 0.950 . S
C1649 C1647 1.390 . S
C1649 C1650 1.387 1_556 S
C1649 H1652 0.950 . S
C1650 C1649 1.387 1_554 S
C1650 C1653 1.387 . S
H1651 C1647 0.950 . S
H1652 C1649 0.950 . S
C1653 C1644 1.390 . S
C1653 H1646 0.950 . S
C1653 C1650 1.387 . S
C1654 C1655 1.387 . S
C1654 H1658 0.950 . S
C1654 C1663 1.390 . S
C1655 C1654 1.387 . S
C1655 C1657 1.387 1_554 S
H1656 C1663 0.950 . S
C1657 C1655 1.387 1_556 S
C1657 C1659 1.390 . S
C1657 H1661 0.950 . S
H1658 C1654 0.950 . S
C1659 C1657 1.390 . S
C1659 C1660 1.387 1_556 S
C1659 H1662 0.950 . S
C1660 C1659 1.387 1_554 S
C1660 C1663 1.387 . S
H1661 C1657 0.950 . S
H1662 C1659 0.950 . S
C1663 C1654 1.390 . S
C1663 H1656 0.950 . S
C1663 C1660 1.387 . S
C1664 C1665 1.387 . S
C1664 H1668 0.950 . S
C1664 C1673 1.390 . S
C1665 C1664 1.387 . S
C1665 C1667 1.387 . S
H1666 C1673 0.950 . S
C1667 C1665 1.387 . S
C1667 C1669 1.390 . S
C1667 H1671 0.950 . S
H1668 C1664 0.950 . S
C1669 C1667 1.390 . S
C1669 C1670 1.387 . S
C1669 H1672 0.950 . S
C1670 C1669 1.387 . S
C1670 C1673 1.387 . S
H1671 C1667 0.950 . S
H1672 C1669 0.950 . S
C1673 C1664 1.390 . S
C1673 H1666 0.950 . S
C1673 C1670 1.387 . S
C1674 C1675 1.387 . S
C1674 H1678 0.950 . S
C1674 C1683 1.390 . S
C1675 C1674 1.387 . S
C1675 C1677 1.387 . S
H1676 C1683 0.950 . S
C1677 C1675 1.387 . S
C1677 C1679 1.390 . S
C1677 H1681 0.950 . S
H1678 C1674 0.950 . S
C1679 C1677 1.390 . S
C1679 C1680 1.387 . S
C1679 H1682 0.950 . S
C1680 C1679 1.387 . S
C1680 C1683 1.387 . S
H1681 C1677 0.950 . S
H1682 C1679 0.950 . S
C1683 C1674 1.390 . S
C1683 H1676 0.950 . S
C1683 C1680 1.387 . S
C1684 C1685 1.387 . S
C1684 H1688 0.950 . S
C1684 C1693 1.390 . S
C1685 C1684 1.387 . S
C1685 C1687 1.387 . S
H1686 C1693 0.950 . S
C1687 C1685 1.387 . S
C1687 C1689 1.390 . S
C1687 H1691 0.950 . S
H1688 C1684 0.950 . S
C1689 C1687 1.390 . S
C1689 C1690 1.387 . S
C1689 H1692 0.950 . S
C1690 C1689 1.387 . S
C1690 C1693 1.387 . S
H1691 C1687 0.950 . S
H1692 C1689 0.950 . S
C1693 C1684 1.390 . S
C1693 H1686 0.950 . S
C1693 C1690 1.387 . S
C1694 C1695 1.387 . S
C1694 H1698 0.950 . S
C1694 C1703 1.390 . S
C1695 C1694 1.387 . S
C1695 C1697 1.387 . S
H1696 C1703 0.950 . S
C1697 C1695 1.387 . S
C1697 C1699 1.390 . S
C1697 H1701 0.950 . S
H1698 C1694 0.950 . S
C1699 C1697 1.390 . S
C1699 C1700 1.387 . S
C1699 H1702 0.950 . S
C1700 C1699 1.387 . S
C1700 C1703 1.387 . S
H1701 C1697 0.950 . S
H1702 C1699 0.950 . S
C1703 C1694 1.390 . S
C1703 H1696 0.950 . S
C1703 C1700 1.387 . S
C1704 C1705 1.387 . S
C1704 H1708 0.950 . S
C1704 C1713 1.390 . S
C1705 C1704 1.387 . S
C1705 C1707 1.387 . S
H1706 C1713 0.950 . S
C1707 C1705 1.387 . S
C1707 C1709 1.390 . S
C1707 H1711 0.950 . S
H1708 C1704 0.950 . S
C1709 C1707 1.390 . S
C1709 C1710 1.387 . S
C1709 H1712 0.950 . S
C1710 C1709 1.387 . S
C1710 C1713 1.387 . S
H1711 C1707 0.950 . S
H1712 C1709 0.950 . S
C1713 C1704 1.390 . S
C1713 H1706 0.950 . S
C1713 C1710 1.387 . S
C1714 C1715 1.387 . S
C1714 H1718 0.950 . S
C1714 C1723 1.390 . S
C1715 C1714 1.387 . S
C1715 C1717 1.387 . S
H1716 C1723 0.950 . S
C1717 C1715 1.387 . S
C1717 C1719 1.390 . S
C1717 H1721 0.950 . S
H1718 C1714 0.950 . S
C1719 C1717 1.390 . S
C1719 C1720 1.387 . S
C1719 H1722 0.950 . S
C1720 C1719 1.387 . S
C1720 C1723 1.387 . S
H1721 C1717 0.950 . S
H1722 C1719 0.950 . S
C1723 C1714 1.390 . S
C1723 H1716 0.950 . S
C1723 C1720 1.387 . S
C1724 C1725 1.387 . S
C1724 H1728 0.950 . S
C1724 C1733 1.390 . S
C1725 C1724 1.387 . S
C1725 C1727 1.387 . S
H1726 C1733 0.950 . S
C1727 C1725 1.387 . S
C1727 C1729 1.390 . S
C1727 H1731 0.950 . S
H1728 C1724 0.950 . S
C1729 C1727 1.390 . S
C1729 C1730 1.387 . S
C1729 H1732 0.950 . S
C1730 C1729 1.387 . S
C1730 C1733 1.387 . S
H1731 C1727 0.950 . S
H1732 C1729 0.950 . S
C1733 C1724 1.390 . S
C1733 H1726 0.950 . S
C1733 C1730 1.387 . S
C1734 C1735 1.387 . S
C1734 H1738 0.950 . S
C1734 C1743 1.390 . S
C1735 C1734 1.387 . S
C1735 C1737 1.387 . S
H1736 C1743 0.950 . S
C1737 C1735 1.387 . S
C1737 C1739 1.390 . S
C1737 H1741 0.950 . S
H1738 C1734 0.950 . S
C1739 C1737 1.390 . S
C1739 C1740 1.387 . S
C1739 H1742 0.950 . S
C1740 C1739 1.387 . S
C1740 C1743 1.387 . S
H1741 C1737 0.950 . S
H1742 C1739 0.950 . S
C1743 C1734 1.390 . S
C1743 H1736 0.950 . S
C1743 C1740 1.387 . S
C1744 C1745 1.387 . S
C1744 H1748 0.950 . S
C1744 C1753 1.390 . S
C1745 C1744 1.387 . S
C1745 C1747 1.387 . S
H1746 C1753 0.950 . S
C1747 C1745 1.387 . S
C1747 C1749 1.390 . S
C1747 H1751 0.950 . S
H1748 C1744 0.950 . S
C1749 C1747 1.390 . S
C1749 C1750 1.387 . S
C1749 H1752 0.950 . S
C1750 C1749 1.387 . S
C1750 C1753 1.387 . S
H1751 C1747 0.950 . S
H1752 C1749 0.950 . S
C1753 C1744 1.390 . S
C1753 H1746 0.950 . S
C1753 C1750 1.387 . S
C1754 C1755 1.387 . S
C1754 H1758 0.950 . S
C1754 C1763 1.390 . S
C1755 C1754 1.387 . S
C1755 C1757 1.387 . S
H1756 C1763 0.950 . S
C1757 C1755 1.387 . S
C1757 C1759 1.390 . S
C1757 H1761 0.950 . S
H1758 C1754 0.950 . S
C1759 C1757 1.390 . S
C1759 C1760 1.387 . S
C1759 H1762 0.950 . S
C1760 C1759 1.387 . S
C1760 C1763 1.387 . S
H1761 C1757 0.950 . S
H1762 C1759 0.950 . S
C1763 C1754 1.390 . S
C1763 H1756 0.950 . S
C1763 C1760 1.387 . S
C1764 C1765 1.387 . S
C1764 H1768 0.950 . S
C1764 C1773 1.390 . S
C1765 C1764 1.387 . S
C1765 C1767 1.387 . S
H1766 C1773 0.950 . S
C1767 C1765 1.387 . S
C1767 C1769 1.390 . S
C1767 H1771 0.950 . S
H1768 C1764 0.950 . S
C1769 C1767 1.390 . S
C1769 C1770 1.387 . S
C1769 H1772 0.950 . S
C1770 C1769 1.387 . S
C1770 C1773 1.387 . S
H1771 C1767 0.950 . S
H1772 C1769 0.950 . S
C1773 C1764 1.390 . S
C1773 H1766 0.950 . S
C1773 C1770 1.387 . S
C1774 C1775 1.387 . S
C1774 H1778 0.950 . S
C1774 C1783 1.390 . S
C1775 C1774 1.387 . S
C1775 C1777 1.387 . S
H1776 C1783 0.950 . S
C1777 C1775 1.387 . S
C1777 C1779 1.390 . S
C1777 H1781 0.950 . S
H1778 C1774 0.950 . S
C1779 C1777 1.390 . S
C1779 C1780 1.387 . S
C1779 H1782 0.950 . S
C1780 C1779 1.387 . S
C1780 C1783 1.387 . S
H1781 C1777 0.950 . S
H1782 C1779 0.950 . S
C1783 C1774 1.390 . S
C1783 H1776 0.950 . S
C1783 C1780 1.387 . S
C1784 C1785 1.387 . S
C1784 H1788 0.950 . S
C1784 C1793 1.390 . S
C1785 C1784 1.387 . S
C1785 C1787 1.387 . S
H1786 C1793 0.950 . S
C1787 C1785 1.387 . S
C1787 C1789 1.390 . S
C1787 H1791 0.950 . S
H1788 C1784 0.950 . S
C1789 C1787 1.390 . S
C1789 C1790 1.387 . S
C1789 H1792 0.950 . S
C1790 C1789 1.387 . S
C1790 C1793 1.387 . S
H1791 C1787 0.950 . S
H1792 C1789 0.950 . S
C1793 C1784 1.390 . S
C1793 H1786 0.950 . S
C1793 C1790 1.387 . S
C1794 C1795 1.387 . S
C1794 H1798 0.950 . S
C1794 C1803 1.390 . S
C1795 C1794 1.387 . S
C1795 C1797 1.387 . S
H1796 C1803 0.950 . S
C1797 C1795 1.387 . S
C1797 C1799 1.390 . S
C1797 H1801 0.950 . S
H1798 C1794 0.950 . S
C1799 C1797 1.390 . S
C1799 C1800 1.387 . S
C1799 H1802 0.950 . S
C1800 C1799 1.387 . S
C1800 C1803 1.387 . S
H1801 C1797 0.950 . S
H1802 C1799 0.950 . S
C1803 C1794 1.390 . S
C1803 H1796 0.950 . S
C1803 C1800 1.387 . S
C1804 C1805 1.387 . S
C1804 H1808 0.950 . S
C1804 C1813 1.390 . S
C1805 C1804 1.387 . S
C1805 C1807 1.387 . S
H1806 C1813 0.950 . S
C1807 C1805 1.387 . S
C1807 C1809 1.390 . S
C1807 H1811 0.950 . S
H1808 C1804 0.950 . S
C1809 C1807 1.390 . S
C1809 C1810 1.387 . S
C1809 H1812 0.950 . S
C1810 C1809 1.387 . S
C1810 C1813 1.387 . S
H1811 C1807 0.950 . S
H1812 C1809 0.950 . S
C1813 C1804 1.390 . S
C1813 H1806 0.950 . S
C1813 C1810 1.387 . S
C1814 C1815 1.387 . S
C1814 H1818 0.950 . S
C1814 C1823 1.390 . S
C1815 C1814 1.387 . S
C1815 C1817 1.387 . S
H1816 C1823 0.950 . S
C1817 C1815 1.387 . S
C1817 C1819 1.390 . S
C1817 H1821 0.950 . S
H1818 C1814 0.950 . S
C1819 C1817 1.390 . S
C1819 C1820 1.387 . S
C1819 H1822 0.950 . S
C1820 C1819 1.387 . S
C1820 C1823 1.387 . S
H1821 C1817 0.950 . S
H1822 C1819 0.950 . S
C1823 C1814 1.390 . S
C1823 H1816 0.950 . S
C1823 C1820 1.387 . S
C1824 C1825 1.387 . S
C1824 H1828 0.950 . S
C1824 C1833 1.390 . S
C1825 C1824 1.387 . S
C1825 C1827 1.387 . S
H1826 C1833 0.950 . S
C1827 C1825 1.387 . S
C1827 C1829 1.390 . S
C1827 H1831 0.950 . S
H1828 C1824 0.950 . S
C1829 C1827 1.390 . S
C1829 C1830 1.387 . S
C1829 H1832 0.950 . S
C1830 C1829 1.387 . S
C1830 C1833 1.387 . S
H1831 C1827 0.950 . S
H1832 C1829 0.950 . S
C1833 C1824 1.390 . S
C1833 H1826 0.950 . S
C1833 C1830 1.387 . S
C1834 C1835 1.387 . S
C1834 H1838 0.950 . S
C1834 C1843 1.390 . S
C1835 C1834 1.387 . S
C1835 C1837 1.387 . S
H1836 C1843 0.950 . S
C1837 C1835 1.387 . S
C1837 C1839 1.390 . S
C1837 H1841 0.950 . S
H1838 C1834 0.950 . S
C1839 C1837 1.390 . S
C1839 C1840 1.387 . S
C1839 H1842 0.950 . S
C1840 C1839 1.387 . S
C1840 C1843 1.387 . S
H1841 C1837 0.950 . S
H1842 C1839 0.950 . S
C1843 C1834 1.390 . S
C1843 H1836 0.950 . S
C1843 C1840 1.387 . S
C1844 C1845 1.387 . S
C1844 H1848 0.950 . S
C1844 C1853 1.390 . S
C1845 C1844 1.387 . S
C1845 C1847 1.387 . S
H1846 C1853 0.950 . S
C1847 C1845 1.387 . S
C1847 C1849 1.390 . S
C1847 H1851 0.950 . S
H1848 C1844 0.950 . S
C1849 C1847 1.390 . S
C1849 C1850 1.387 . S
C1849 H1852 0.950 . S
C1850 C1849 1.387 . S
C1850 C1853 1.387 . S
H1851 C1847 0.950 . S
H1852 C1849 0.950 . S
C1853 C1844 1.390 . S
C1853 H1846 0.950 . S
C1853 C1850 1.387 . S
C1854 C1855 1.387 . S
C1854 H1858 0.950 . S
C1854 C1863 1.390 . S
C1855 C1854 1.387 . S
C1855 C1857 1.387 . S
H1856 C1863 0.950 . S
C1857 C1855 1.387 . S
C1857 C1859 1.390 . S
C1857 H1861 0.950 . S
H1858 C1854 0.950 . S
C1859 C1857 1.390 . S
C1859 C1860 1.387 . S
C1859 H1862 0.950 . S
C1860 C1859 1.387 . S
C1860 C1863 1.387 . S
H1861 C1857 0.950 . S
H1862 C1859 0.950 . S
C1863 C1854 1.390 . S
C1863 H1856 0.950 . S
C1863 C1860 1.387 . S
C1864 C1865 1.387 . S
C1864 H1868 0.950 . S
C1864 C1873 1.390 . S
C1865 C1864 1.387 . S
C1865 C1867 1.387 . S
H1866 C1873 0.950 . S
C1867 C1865 1.387 . S
C1867 C1869 1.390 . S
C1867 H1871 0.950 . S
H1868 C1864 0.950 . S
C1869 C1867 1.390 . S
C1869 C1870 1.387 . S
C1869 H1872 0.950 . S
C1870 C1869 1.387 . S
C1870 C1873 1.387 . S
H1871 C1867 0.950 . S
H1872 C1869 0.950 . S
C1873 C1864 1.390 . S
C1873 H1866 0.950 . S
C1873 C1870 1.387 . S
C1874 C1875 1.387 . S
C1874 H1878 0.950 . S
C1874 C1883 1.390 . S
C1875 C1874 1.387 . S
C1875 C1877 1.387 . S
H1876 C1883 0.950 . S
C1877 C1875 1.387 . S
C1877 C1879 1.390 . S
C1877 H1881 0.950 . S
H1878 C1874 0.950 . S
C1879 C1877 1.390 . S
C1879 C1880 1.387 . S
C1879 H1882 0.950 . S
C1880 C1879 1.387 . S
C1880 C1883 1.387 . S
H1881 C1877 0.950 . S
H1882 C1879 0.950 . S
C1883 C1874 1.390 . S
C1883 H1876 0.950 . S
C1883 C1880 1.387 . S
C1884 C1885 1.387 . S
C1884 H1888 0.950 . S
C1884 C1893 1.390 . S
C1885 C1884 1.387 . S
C1885 C1887 1.387 . S
H1886 C1893 0.950 . S
C1887 C1885 1.387 . S
C1887 C1889 1.390 . S
C1887 H1891 0.950 . S
H1888 C1884 0.950 . S
C1889 C1887 1.390 . S
C1889 C1890 1.387 . S
C1889 H1892 0.950 . S
C1890 C1889 1.387 . S
C1890 C1893 1.387 . S
H1891 C1887 0.950 . S
H1892 C1889 0.950 . S
C1893 C1884 1.390 . S
C1893 H1886 0.950 . S
C1893 C1890 1.387 . S
C1894 C1895 1.387 . S
C1894 H1898 0.950 . S
C1894 C1903 1.390 . S
C1895 C1894 1.387 . S
C1895 C1897 1.387 . S
H1896 C1903 0.950 . S
C1897 C1895 1.387 . S
C1897 C1899 1.390 . S
C1897 H1901 0.950 . S
H1898 C1894 0.950 . S
C1899 C1897 1.390 . S
C1899 C1900 1.387 . S
C1899 H1902 0.950 . S
C1900 C1899 1.387 . S
C1900 C1903 1.387 . S
H1901 C1897 0.950 . S
H1902 C1899 0.950 . S
C1903 C1894 1.390 . S
C1903 H1896 0.950 . S
C1903 C1900 1.387 . S
C1904 C1905 1.387 . S
C1904 H1908 0.950 . S
C1904 C1913 1.390 . S
C1905 C1904 1.387 . S
C1905 C1907 1.387 . S
H1906 C1913 0.950 . S
C1907 C1905 1.387 . S
C1907 C1909 1.390 . S
C1907 H1911 0.950 . S
H1908 C1904 0.950 . S
C1909 C1907 1.390 . S
C1909 C1910 1.387 . S
C1909 H1912 0.950 . S
C1910 C1909 1.387 . S
C1910 C1913 1.387 . S
H1911 C1907 0.950 . S
H1912 C1909 0.950 . S
C1913 C1904 1.390 . S
C1913 H1906 0.950 . S
C1913 C1910 1.387 . S
C1914 C1915 1.387 . S
C1914 H1918 0.950 . S
C1914 C1923 1.390 . S
C1915 C1914 1.387 . S
C1915 C1917 1.387 . S
H1916 C1923 0.950 . S
C1917 C1915 1.387 . S
C1917 C1919 1.390 . S
C1917 H1921 0.950 . S
H1918 C1914 0.950 . S
C1919 C1917 1.390 . S
C1919 C1920 1.387 . S
C1919 H1922 0.950 . S
C1920 C1919 1.387 . S
C1920 C1923 1.387 . S
H1921 C1917 0.950 . S
H1922 C1919 0.950 . S
C1923 C1914 1.390 . S
C1923 H1916 0.950 . S
C1923 C1920 1.387 . S
C1924 C1925 1.387 . S
C1924 H1928 0.950 . S
C1924 C1933 1.390 . S
C1925 C1924 1.387 . S
C1925 C1927 1.387 . S
H1926 C1933 0.950 . S
C1927 C1925 1.387 . S
C1927 C1929 1.390 . S
C1927 H1931 0.950 . S
H1928 C1924 0.950 . S
C1929 C1927 1.390 . S
C1929 C1930 1.387 . S
C1929 H1932 0.950 . S
C1930 C1929 1.387 . S
C1930 C1933 1.387 . S
H1931 C1927 0.950 . S
H1932 C1929 0.950 . S
C1933 C1924 1.390 . S
C1933 H1926 0.950 . S
C1933 C1930 1.387 . S
C1934 C1935 1.387 . S
C1934 H1938 0.950 . S
C1934 C1943 1.390 . S
C1935 C1934 1.387 . S
C1935 C1937 1.387 . S
H1936 C1943 0.950 . S
C1937 C1935 1.387 . S
C1937 C1939 1.390 . S
C1937 H1941 0.950 . S
H1938 C1934 0.950 . S
C1939 C1937 1.390 . S
C1939 C1940 1.387 . S
C1939 H1942 0.950 . S
C1940 C1939 1.387 . S
C1940 C1943 1.387 . S
H1941 C1937 0.950 . S
H1942 C1939 0.950 . S
C1943 C1934 1.390 . S
C1943 H1936 0.950 . S
C1943 C1940 1.387 . S
C1944 C1945 1.387 . S
C1944 H1948 0.950 . S
C1944 C1953 1.390 . S
C1945 C1944 1.387 . S
C1945 C1947 1.387 . S
H1946 C1953 0.950 . S
C1947 C1945 1.387 . S
C1947 C1949 1.390 . S
C1947 H1951 0.950 . S
H1948 C1944 0.950 . S
C1949 C1947 1.390 . S
C1949 C1950 1.387 . S
C1949 H1952 0.950 . S
C1950 C1949 1.387 . S
C1950 C1953 1.387 . S
H1951 C1947 0.950 . S
H1952 C1949 0.950 . S
C1953 C1944 1.390 . S
C1953 H1946 0.950 . S
C1953 C1950 1.387 . S
C1954 C1955 1.395 . S
C1954 H1958 0.939 . S
C1954 C1963 1.390 1_545 S
C1955 C1954 1.395 . S
C1955 C1957 1.367 . S
H1956 C1963 0.952 . S
C1957 C1955 1.367 . S
C1957 C1959 1.390 1_545 S
C1957 H1961 0.952 . S
H1958 C1954 0.939 . S
C1959 C1957 1.390 1_565 S
C1959 C1960 1.368 . S
C1959 H1962 0.973 . S
C1960 C1959 1.368 . S
C1960 C1963 1.397 . S
H1961 C1957 0.952 . S
H1962 C1959 0.973 . S
C1963 C1954 1.390 1_565 S
C1963 H1956 0.952 . S
C1963 C1960 1.397 . S
C1964 C1965 1.387 1_655 S
C1964 H1968 0.950 . S
C1964 C1973 1.390 . S
C1965 C1964 1.387 1_455 S
C1965 C1967 1.387 . S
H1966 C1973 0.950 . S
C1967 C1965 1.387 . S
C1967 C1969 1.390 . S
C1967 H1971 0.950 . S
H1968 C1964 0.950 . S
C1969 C1967 1.390 . S
C1969 C1970 1.369 1_455 S
C1969 H1972 0.950 . S
C1970 C1969 1.369 1_655 S
C1970 C1973 1.405 . S
H1971 C1967 0.950 . S
H1972 C1969 0.950 . S
C1973 C1964 1.390 . S
C1973 H1966 0.950 . S
C1973 C1970 1.405 . S
C1974 C1975 1.387 . S
C1974 H1978 0.950 . S
C1974 C1983 1.390 . S
C1975 C1974 1.387 . S
C1975 C1977 1.387 . S
H1976 C1983 0.950 . S
C1977 C1975 1.387 . S
C1977 C1979 1.390 . S
C1977 H1981 0.950 . S
H1978 C1974 0.950 . S
C1979 C1977 1.390 . S
C1979 C1980 1.387 . S
C1979 H1982 0.950 . S
C1980 C1979 1.387 . S
C1980 C1983 1.387 . S
H1981 C1977 0.950 . S
H1982 C1979 0.950 . S
C1983 C1974 1.390 . S
C1983 H1976 0.950 . S
C1983 C1980 1.387 . S
C1984 C1985 1.400 . S
C1984 H1988 0.943 . S
C1984 C1993 1.390 1_545 S
C1985 C1984 1.400 . S
C1985 C1987 1.372 . S
H1986 C1993 0.955 . S
C1987 C1985 1.372 . S
C1987 C1989 1.390 1_545 S
C1987 H1991 0.955 . S
H1988 C1984 0.943 . S
C1989 C1987 1.390 1_565 S
C1989 C1990 1.373 . S
C1989 H1992 0.966 . S
C1990 C1989 1.373 . S
C1990 C1993 1.402 . S
H1991 C1987 0.955 . S
H1992 C1989 0.966 . S
C1993 C1984 1.390 1_565 S
C1993 H1986 0.955 . S
C1993 C1990 1.402 . S
C1994 C1995 1.387 . S
C1994 H1998 0.950 . S
C1994 C2003 1.390 . S
C1995 C1994 1.387 . S
C1995 C1997 1.387 1_455 S
H1996 C2003 0.950 . S
C1997 C1995 1.387 1_655 S
C1997 C1999 1.390 . S
C1997 H2001 0.950 . S
H1998 C1994 0.950 . S
C1999 C1997 1.390 . S
C1999 C2000 1.373 . S
C1999 H2002 0.950 . S
C2000 C1999 1.373 . S
C2000 C2003 1.402 1_655 S
H2001 C1997 0.950 . S
H2002 C1999 0.950 . S
C2003 C1994 1.390 . S
C2003 H1996 0.950 . S
C2003 C2000 1.402 1_455 S
C2004 C2005 1.387 . S
C2004 H2008 0.950 . S
C2004 C2013 1.390 . S
C2005 C2004 1.387 . S
C2005 C2007 1.387 . S
H2006 C2013 0.950 . S
C2007 C2005 1.387 . S
C2007 C2009 1.390 . S
C2007 H2011 0.950 . S
H2008 C2004 0.950 . S
C2009 C2007 1.390 . S
C2009 C2010 1.387 . S
C2009 H2012 0.950 . S
C2010 C2009 1.387 . S
C2010 C2013 1.387 . S
H2011 C2007 0.950 . S
H2012 C2009 0.950 . S
C2013 C2004 1.390 . S
C2013 H2006 0.950 . S
C2013 C2010 1.387 . S
C2014 C2015 1.387 . S
C2014 H2018 0.950 . S
C2014 C2023 1.390 . S
C2015 C2014 1.387 . S
C2015 C2017 1.387 . S
H2016 C2023 0.950 . S
C2017 C2015 1.387 . S
C2017 C2019 1.390 . S
C2017 H2021 0.950 . S
H2018 C2014 0.950 . S
C2019 C2017 1.390 . S
C2019 C2020 1.387 . S
C2019 H2022 0.950 . S
C2020 C2019 1.387 . S
C2020 C2023 1.387 . S
H2021 C2017 0.950 . S
H2022 C2019 0.950 . S
C2023 C2014 1.390 . S
C2023 H2016 0.950 . S
C2023 C2020 1.387 . S
C2024 C2025 1.387 . S
C2024 H2028 0.950 . S
C2024 C2033 1.390 . S
C2025 C2024 1.387 . S
C2025 C2027 1.387 . S
H2026 C2033 0.950 . S
C2027 C2025 1.387 . S
C2027 C2029 1.390 . S
C2027 H2031 0.950 . S
H2028 C2024 0.950 . S
C2029 C2027 1.390 . S
C2029 C2030 1.387 . S
C2029 H2032 0.950 . S
C2030 C2029 1.387 . S
C2030 C2033 1.387 . S
H2031 C2027 0.950 . S
H2032 C2029 0.950 . S
C2033 C2024 1.390 . S
C2033 H2026 0.950 . S
C2033 C2030 1.387 . S
C2034 C2035 1.387 . S
C2034 H2038 0.950 . S
C2034 C2043 1.390 . S
C2035 C2034 1.387 . S
C2035 C2037 1.387 . S
H2036 C2043 0.950 . S
C2037 C2035 1.387 . S
C2037 C2039 1.390 . S
C2037 H2041 0.950 . S
H2038 C2034 0.950 . S
C2039 C2037 1.390 . S
C2039 C2040 1.387 . S
C2039 H2042 0.950 . S
C2040 C2039 1.387 . S
C2040 C2043 1.387 . S
H2041 C2037 0.950 . S
H2042 C2039 0.950 . S
C2043 C2034 1.390 . S
C2043 H2036 0.950 . S
C2043 C2040 1.387 . S
C2044 C2045 1.387 . S
C2044 H2048 0.950 . S
C2044 C2053 1.390 . S
C2045 C2044 1.387 . S
C2045 C2047 1.387 . S
H2046 C2053 0.950 . S
C2047 C2045 1.387 . S
C2047 C2049 1.390 . S
C2047 H2051 0.950 . S
H2048 C2044 0.950 . S
C2049 C2047 1.390 . S
C2049 C2050 1.387 . S
C2049 H2052 0.950 . S
C2050 C2049 1.387 . S
C2050 C2053 1.387 . S
H2051 C2047 0.950 . S
H2052 C2049 0.950 . S
C2053 C2044 1.390 . S
C2053 H2046 0.950 . S
C2053 C2050 1.387 . S
C2054 C2055 1.387 . S
C2054 H2058 0.950 . S
C2054 C2063 1.390 . S
C2055 C2054 1.387 . S
C2055 C2057 1.387 . S
H2056 C2063 0.950 . S
C2057 C2055 1.387 . S
C2057 C2059 1.390 . S
C2057 H2061 0.950 . S
H2058 C2054 0.950 . S
C2059 C2057 1.390 . S
C2059 C2060 1.387 . S
C2059 H2062 0.950 . S
C2060 C2059 1.387 . S
C2060 C2063 1.387 . S
H2061 C2057 0.950 . S
H2062 C2059 0.950 . S
C2063 C2054 1.390 . S
C2063 H2056 0.950 . S
C2063 C2060 1.387 . S
C2064 C2065 1.387 . S
C2064 H2068 0.950 . S
C2064 C2073 1.390 . S
C2065 C2064 1.387 . S
C2065 C2067 1.387 . S
H2066 C2073 0.950 . S
C2067 C2065 1.387 . S
C2067 C2069 1.390 . S
C2067 H2071 0.950 . S
H2068 C2064 0.950 . S
C2069 C2067 1.390 . S
C2069 C2070 1.387 . S
C2069 H2072 0.950 . S
C2070 C2069 1.387 . S
C2070 C2073 1.387 . S
H2071 C2067 0.950 . S
H2072 C2069 0.950 . S
C2073 C2064 1.390 . S
C2073 H2066 0.950 . S
C2073 C2070 1.387 . S
C2074 C2075 1.387 . S
C2074 H2078 0.950 . S
C2074 C2083 1.390 . S
C2075 C2074 1.387 . S
C2075 C2077 1.387 . S
H2076 C2083 0.950 . S
C2077 C2075 1.387 . S
C2077 C2079 1.390 . S
C2077 H2081 0.950 . S
H2078 C2074 0.950 . S
C2079 C2077 1.390 . S
C2079 C2080 1.387 . S
C2079 H2082 0.950 . S
C2080 C2079 1.387 . S
C2080 C2083 1.387 . S
H2081 C2077 0.950 . S
H2082 C2079 0.950 . S
C2083 C2074 1.390 . S
C2083 H2076 0.950 . S
C2083 C2080 1.387 . S
C2084 C2085 1.387 . S
C2084 H2088 0.950 . S
C2084 C2093 1.390 . S
C2085 C2084 1.387 . S
C2085 C2087 1.387 . S
H2086 C2093 0.950 . S
C2087 C2085 1.387 . S
C2087 C2089 1.390 . S
C2087 H2091 0.950 . S
H2088 C2084 0.950 . S
C2089 C2087 1.390 . S
C2089 C2090 1.387 . S
C2089 H2092 0.950 . S
C2090 C2089 1.387 . S
C2090 C2093 1.387 . S
H2091 C2087 0.950 . S
H2092 C2089 0.950 . S
C2093 C2084 1.390 . S
C2093 H2086 0.950 . S
C2093 C2090 1.387 . S
C2094 C2095 1.387 . S
C2094 H2098 0.950 . S
C2094 C2103 1.390 . S
C2095 C2094 1.387 . S
C2095 C2097 1.387 . S
H2096 C2103 0.950 . S
C2097 C2095 1.387 . S
C2097 C2099 1.390 . S
C2097 H2101 0.950 . S
H2098 C2094 0.950 . S
C2099 C2097 1.390 . S
C2099 C2100 1.387 . S
C2099 H2102 0.950 . S
C2100 C2099 1.387 . S
C2100 C2103 1.387 . S
H2101 C2097 0.950 . S
H2102 C2099 0.950 . S
C2103 C2094 1.390 . S
C2103 H2096 0.950 . S
C2103 C2100 1.387 . S
C2104 C2105 1.387 . S
C2104 H2108 0.950 . S
C2104 C2113 1.390 . S
C2105 C2104 1.387 . S
C2105 C2107 1.387 . S
H2106 C2113 0.950 . S
C2107 C2105 1.387 . S
C2107 C2109 1.390 . S
C2107 H2111 0.950 . S
H2108 C2104 0.950 . S
C2109 C2107 1.390 . S
C2109 C2110 1.387 . S
C2109 H2112 0.950 . S
C2110 C2109 1.387 . S
C2110 C2113 1.387 . S
H2111 C2107 0.950 . S
H2112 C2109 0.950 . S
C2113 C2104 1.390 . S
C2113 H2106 0.950 . S
C2113 C2110 1.387 . S
C2114 C2115 1.387 . S
C2114 H2118 0.950 . S
C2114 C2123 1.390 . S
C2115 C2114 1.387 . S
C2115 C2117 1.387 . S
H2116 C2123 0.950 . S
C2117 C2115 1.387 . S
C2117 C2119 1.390 . S
C2117 H2121 0.950 . S
H2118 C2114 0.950 . S
C2119 C2117 1.390 . S
C2119 C2120 1.387 . S
C2119 H2122 0.950 . S
C2120 C2119 1.387 . S
C2120 C2123 1.387 . S
H2121 C2117 0.950 . S
H2122 C2119 0.950 . S
C2123 C2114 1.390 . S
C2123 H2116 0.950 . S
C2123 C2120 1.387 . S
C1225 C546 1.646 . S
C1230 C2 1.646 . S
C1235 C580 1.644 . S
C1240 C36 1.644 . S
C1245 C512 1.644 . S
C1250 C70 1.644 . S
C1255 C104 1.647 . S
C1260 C886 1.647 . S
C1265 C818 1.647 . S
C1270 C138 1.647 . S
C1275 C852 1.647 . S
C1280 C172 1.647 . S
C1285 C206 1.646 . S
C1290 C1158 1.646 . S
C1295 C1192 1.647 . S
C1300 C240 1.647 . S
C1305 C274 1.647 . S
C1310 C1124 1.647 . S
C1315 C682 1.644 . S
C1320 C308 1.644 . S
C1325 C342 1.644 . S
C1330 C614 1.644 . S
C1335 C648 1.647 . S
C1340 C376 1.647 . S
C1345 C410 1.644 . S
C1350 C954 1.644 . S
C1355 C988 1.645 . S
C1360 C444 1.644 . S
C1365 C920 1.644 . S
C1370 C478 1.644 . S
C1375 C1090 1.644 . S
C1380 C716 1.644 . S
C1385 C750 1.644 . S
C1390 C1022 1.644 . S
C1395 C1056 1.645 . S
C1400 C784 1.645 . S
C1405 C111 1.311 . S
C1410 C9 1.313 . S
C1415 C145 1.321 . S
C1420 C43 1.312 1_565 S
C1425 C77 1.313 1_455 S
C1430 C179 1.312 . S
C1435 C315 1.315 . S
C1440 C213 1.312 . S
C1445 C247 1.311 . S
C1450 C349 1.313 . S
C1455 C383 1.314 1_455 S
C1460 C281 1.324 . S
C1465 C417 1.313 . S
C1470 C519 1.315 . S
C1475 C451 1.314 . S
C1480 C553 1.314 . S
C1485 C587 1.312 . S
C1490 C485 1.315 . S
C1495 C723 1.314 . S
C1500 C621 1.313 . S
C1505 C757 1.314 . S
C1510 C655 1.314 . S
C1515 C791 1.312 . S
C1520 C689 1.315 . S
C1525 C825 1.314 . S
C1530 C927 1.310 1_556 S
C1535 C961 1.312 1_556 S
C1540 C859 1.312 . S
C1545 C893 1.312 . S
C1550 C995 1.312 1_556 S
C1555 C1029 1.314 . S
C1560 C1131 1.310 . S
C1565 C1063 1.312 . S
C1570 C1165 1.312 . S
C1575 C1199 1.312 . S
C1580 C1097 1.311 . S
C1585 C33 1.535 . S
C1590 C258 1.548 . S
C1595 C292 1.548 . S
C1600 C67 1.534 . S
C1605 C224 1.548 . S
C1610 C101 1.534 . S
C1615 C135 1.534 . S
C1620 C394 1.548 . S
C1625 C326 1.549 . S
C1630 C169 1.535 . S
C1635 C360 1.548 . S
C1640 C203 1.534 . S
C1645 C237 1.535 . S
C1650 C54 1.548 . S
C1655 C88 1.548 . S
C1660 C271 1.534 . S
C1665 C20 1.549 . S
C1670 C305 1.535 . S
C1675 C190 1.549 . S
C1680 C339 1.535 . S
C1685 C122 1.548 . S
C1690 C373 1.534 . S
C1695 C407 1.535 . S
C1700 C156 1.548 . S
C1705 C441 1.535 . S
C1710 C666 1.548 . S
C1715 C475 1.535 . S
C1720 C700 1.548 . S
C1725 C509 1.535 . S
C1730 C632 1.548 . S
C1735 C802 1.548 . S
C1740 C543 1.534 . S
C1745 C577 1.535 . S
C1750 C734 1.549 . S
C1755 C611 1.535 . S
C1760 C768 1.548 . S
C1765 C645 1.535 . S
C1770 C462 1.548 . S
C1775 C496 1.548 . S
C1780 C679 1.534 . S
C1785 C713 1.534 . S
C1790 C428 1.548 . S
C1795 C747 1.534 . S
C1800 C598 1.548 . S
C1805 C781 1.535 . S
C1810 C530 1.548 . S
C1815 C815 1.534 . S
C1820 C564 1.548 . S
C1825 C849 1.535 . S
C1830 C1074 1.548 . S
C1835 C1108 1.548 . S
C1840 C883 1.534 . S
C1845 C917 1.534 . S
C1850 C1040 1.548 . S
C1855 C951 1.535 . S
C1860 C1210 1.548 . S
C1865 C985 1.535 . S
C1870 C1142 1.548 . S
C1875 C1019 1.535 . S
C1880 C1176 1.548 . S
C1885 C870 1.548 . S
C1890 C1053 1.535 . S
C1895 C904 1.548 . S
C1900 C1087 1.535 . S
C1905 C836 1.548 . S
C1910 C1121 1.535 . S
C1915 C1006 1.548 . S
C1920 C1155 1.535 . S
C1925 C1189 1.535 . S
C1930 C938 1.549 . S
C1935 C1223 1.534 . S
C1940 C972 1.548 . S
C1945 C107 1.271 . S
C1950 C5 1.270 . S
C1955 C39 1.271 . S
C1960 C141 1.275 . S
C1965 C175 1.271 . S
C1970 C73 1.267 . S
C1975 C311 1.271 . S
C1980 C209 1.270 . S
C1985 C345 1.268 . S
C1990 C243 1.267 . S
C1995 C277 1.270 . S
C2000 C379 1.272 . S
C2005 C515 1.269 . S
C2010 C413 1.270 . S
C2015 C447 1.270 . S
C2020 C549 1.270 . S
C2025 C583 1.270 . S
C2030 C481 1.271 . S
C2035 C719 1.271 . S
C2040 C617 1.270 . S
C2045 C753 1.270 . S
C2050 C651 1.270 . S
C2055 C685 1.271 . S
C2060 C787 1.270 . S
C2065 C923 1.269 . S
C2070 C821 1.270 . S
C2075 C855 1.270 . S
C2080 C957 1.270 . S
C2085 C991 1.270 . S
C2090 C889 1.271 . S
C2095 C1025 1.270 . S
C2100 C1127 1.271 1_556 S
C2105 C1059 1.270 . S
C2110 C1161 1.270 1_556 S
C2115 C1093 1.271 . S
C2120 C1195 1.269 1_556 S
