# Generated by pormake.
# Topology uog, (4)-cn, num edge types: 1
# Building blocks:
#     Node 0, Type 0, BuildingBlock: KUFVIS_clean_sbu_0, # of connection points: 4
#     Node 1, Type 0, BuildingBlock: KUFVIS_clean_sbu_0, # of connection points: 4
#     Node 2, Type 0, BuildingBlock: KUFVIS_clean_sbu_0, # of connection points: 4
#     Node 3, Type 0, BuildingBlock: KUFVIS_clean_sbu_0, # of connection points: 4
#     Node 4, Type 0, BuildingBlock: KUFVIS_clean_sbu_0, # of connection points: 4
#     Node 5, Type 0, BuildingBlock: KUFVIS_clean_sbu_0, # of connection points: 4
#     Edge 6, Type (0, 0), BuildingBlock: FUNLAD_clean_linker_0, # of connection points: 2
#     Edge 7, Type (0, 0), BuildingBlock: FUNLAD_clean_linker_0, # of connection points: 2
#     Edge 8, Type (0, 0), BuildingBlock: FUNLAD_clean_linker_0, # of connection points: 2
#     Edge 9, Type (0, 0), BuildingBlock: FUNLAD_clean_linker_0, # of connection points: 2
#     Edge 10, Type (0, 0), BuildingBlock: FUNLAD_clean_linker_0, # of connection points: 2
#     Edge 11, Type (0, 0), BuildingBlock: FUNLAD_clean_linker_0, # of connection points: 2
#     Edge 12, Type (0, 0), BuildingBlock: FUNLAD_clean_linker_0, # of connection points: 2
#     Edge 13, Type (0, 0), BuildingBlock: FUNLAD_clean_linker_0, # of connection points: 2
#     Edge 14, Type (0, 0), BuildingBlock: FUNLAD_clean_linker_0, # of connection points: 2
#     Edge 15, Type (0, 0), BuildingBlock: FUNLAD_clean_linker_0, # of connection points: 2
#     Edge 16, Type (0, 0), BuildingBlock: FUNLAD_clean_linker_0, # of connection points: 2
#     Edge 17, Type (0, 0), BuildingBlock: FUNLAD_clean_linker_0, # of connection points: 2
# Relax obj value: 0.109
# Max RMSD: 0.207
# Mean RMSD: 0.205
data_MOF--net-uog--node1-KUFVIS_clean_sbu_0--edge1-FUNLAD_clean_linker_0
_symmetry_space_group_name_H-M    P1
_symmetry_Int_Tables_number       1
_symmetry_cell_setting            triclinic
loop_
_symmetry_equiv_pos_as_xyz
'x, y, z'
_cell_length_a     33.099348
_cell_length_b     32.963037
_cell_length_c     48.568901
_cell_angle_alpha  89.981533
_cell_angle_beta   89.924868
_cell_angle_gamma 119.77447
loop_
_atom_site_label
_atom_site_type_symbol
_atom_site_fract_x
_atom_site_fract_y
_atom_site_fract_z
_atom_type_partial_charge
Mn0 Mn 0.62328 0.28614 0.15322 0.0
Mn1 Mn 0.7147 0.39491 0.14462 0.0
C2 C 0.64537 0.31606 0.10955 0.0
C3 C 0.59738 0.20653 0.15966 0.0
C4 C 0.61874 0.37566 0.16266 0.0
O5 O 0.65513 0.30139 0.19029 0.0
O6 O 0.71884 0.37081 0.1815 0.0
C7 C 0.7901 0.37138 0.143 0.0
N8 N 0.76686 0.39109 0.13095 0.0
C9 C 0.81749 0.4146 0.09145 0.0
C10 C 0.8422 0.39485 0.10353 0.0
C11 C 0.82836 0.37306 0.12939 0.0
C12 C 0.77979 0.41204 0.10604 0.0
H13 H 0.77944 0.35443 0.16283 0.0
C14 C 0.69408 0.33604 0.19735 0.0
O15 O 0.57227 0.22477 0.16751 0.0
O16 O 0.637 0.23448 0.1482 0.0
N17 N 0.71556 0.42267 0.10984 0.0
C18 C 0.68682 0.43821 0.10051 0.0
C19 C 0.69518 0.45991 0.07461 0.0
C20 C 0.73318 0.46577 0.05869 0.0
C21 C 0.76268 0.45013 0.06891 0.0
C22 C 0.75283 0.4291 0.09496 0.0
H23 H 0.65757 0.43384 0.11264 0.0
O24 O 0.60411 0.28079 0.11392 0.0
O25 O 0.67283 0.33187 0.13075 0.0
O26 O 0.59803 0.33101 0.161 0.0
O27 O 0.66221 0.40204 0.15793 0.0
C28 C 0.80095 0.4538 0.05405 0.0
C29 C 0.82828 0.43597 0.06529 0.0
H30 H 0.87158 0.39586 0.09304 0.0
H31 H 0.8471 0.35751 0.13878 0.0
H32 H 0.67229 0.47193 0.06688 0.0
H33 H 0.73923 0.48208 0.03861 0.0
H34 H 0.80929 0.46971 0.0338 0.0
H35 H 0.85724 0.43845 0.05351 0.0
Mn36 Mn 0.30018 0.60268 0.48457 0.0
Mn37 Mn 0.28613 0.6967 0.47687 0.0
C38 C 0.28767 0.6229 0.44153 0.0
C39 C 0.35129 0.57351 0.48869 0.0
C40 C 0.20991 0.603 0.49808 0.0
O41 O 0.32309 0.6371 0.52053 0.0
O42 O 0.31733 0.70141 0.51276 0.0
C43 C 0.38536 0.7691 0.47174 0.0
N44 N 0.34149 0.74669 0.46117 0.0
C45 C 0.36661 0.79426 0.4203 0.0
C46 C 0.412 0.81812 0.43084 0.0
C47 C 0.42141 0.80542 0.45665 0.0
C48 C 0.33206 0.75856 0.43634 0.0
H49 H 0.39279 0.75924 0.49149 0.0
C50 C 0.32882 0.67673 0.52774 0.0
O51 O 0.30935 0.55079 0.49875 0.0
O52 O 0.36309 0.61263 0.47629 0.0
N53 N 0.25667 0.69708 0.44306 0.0
C54 C 0.21146 0.66939 0.43537 0.0
C55 C 0.19653 0.67684 0.40977 0.0
C56 C 0.22811 0.71282 0.39245 0.0
C57 C 0.27429 0.74128 0.40098 0.0
C58 C 0.28706 0.73251 0.42683 0.0
H59 H 0.18704 0.64161 0.44856 0.0
O60 O 0.2803 0.58097 0.44619 0.0
O61 O 0.30323 0.65195 0.46209 0.0
O62 O 0.23245 0.58093 0.49572 0.0
O63 O 0.22726 0.64638 0.49234 0.0
C64 C 0.30834 0.77751 0.38466 0.0
C65 C 0.35448 0.80393 0.39429 0.0
H66 H 0.43996 0.84596 0.41919 0.0
H67 H 0.45641 0.82348 0.46485 0.0
H68 H 0.16082 0.65475 0.40335 0.0
H69 H 0.21658 0.71814 0.3726 0.0
H70 H 0.29954 0.78499 0.36453 0.0
H71 H 0.38048 0.83132 0.38141 0.0
Mn72 Mn 0.70704 0.30262 0.82173 0.0
Mn73 Mn 0.71781 0.40964 0.8256 0.0
C74 C 0.71289 0.3358 0.8641 0.0
C75 C 0.65786 0.22229 0.81707 0.0
C76 C 0.79691 0.39278 0.80945 0.0
O77 O 0.68966 0.31364 0.78367 0.0
O78 O 0.68814 0.38058 0.78986 0.0
C79 C 0.61828 0.3828 0.82827 0.0
N80 N 0.66165 0.40498 0.83953 0.0
C81 C 0.63461 0.43012 0.87843 0.0
C82 C 0.58971 0.40783 0.86715 0.0
C83 C 0.58152 0.38401 0.84198 0.0
C84 C 0.66994 0.42802 0.86373 0.0
H85 H 0.6118 0.36421 0.80901 0.0
C86 C 0.68113 0.34524 0.77528 0.0
O87 O 0.70129 0.24207 0.80959 0.0
O88 O 0.64337 0.24917 0.82721 0.0
N89 N 0.74561 0.44139 0.85927 0.0
C90 C 0.79026 0.45879 0.86811 0.0
C91 C 0.80385 0.48243 0.8934 0.0
C92 C 0.77151 0.48814 0.90926 0.0
C93 C 0.7259 0.47036 0.89961 0.0
C94 C 0.71447 0.44751 0.87412 0.0
H95 H 0.81526 0.45442 0.85607 0.0
O96 O 0.72097 0.30128 0.86142 0.0
O97 O 0.70012 0.34871 0.842 0.0
O98 O 0.77586 0.34883 0.81402 0.0
O99 O 0.77775 0.41807 0.81167 0.0
C100 C 0.69108 0.47359 0.91453 0.0
C101 C 0.64546 0.45345 0.90397 0.0
H102 H 0.56119 0.4084 0.87775 0.0
H103 H 0.54691 0.36649 0.83322 0.0
H104 H 0.83911 0.496 0.90072 0.0
H105 H 0.78199 0.50594 0.92889 0.0
H106 H 0.69884 0.49091 0.93435 0.0
H107 H 0.61883 0.45559 0.91582 0.0
Mn108 Mn 0.41446 0.6986 0.15156 0.0
Mn109 Mn 0.32378 0.58975 0.14196 0.0
C110 C 0.39235 0.67012 0.10761 0.0
C111 C 0.4399 0.77794 0.15877 0.0
C112 C 0.41987 0.60929 0.15972 0.0
O113 O 0.38203 0.68202 0.18858 0.0
O114 O 0.31895 0.61241 0.17911 0.0
C115 C 0.24737 0.61187 0.14111 0.0
N116 N 0.27124 0.59315 0.12865 0.0
C117 C 0.22078 0.57021 0.08918 0.0
C118 C 0.19544 0.58894 0.10168 0.0
C119 C 0.20887 0.60995 0.12773 0.0
C120 C 0.25868 0.57292 0.10357 0.0
H121 H 0.25771 0.62823 0.16108 0.0
C122 C 0.34305 0.64689 0.19523 0.0
O123 O 0.46516 0.75971 0.16626 0.0
O124 O 0.40037 0.75015 0.14725 0.0
N125 N 0.32377 0.56364 0.10675 0.0
C126 C 0.35343 0.5496 0.09689 0.0
C127 C 0.34571 0.52909 0.07068 0.0
C128 C 0.30746 0.52293 0.05499 0.0
C129 C 0.27712 0.53717 0.0657 0.0
C130 C 0.28635 0.55704 0.09204 0.0
H131 H 0.38291 0.55425 0.10883 0.0
O132 O 0.43367 0.70519 0.1121 0.0
O133 O 0.36514 0.65347 0.12889 0.0
O134 O 0.44023 0.65397 0.15865 0.0
O135 O 0.37651 0.58285 0.15485 0.0
C136 C 0.23864 0.53328 0.05105 0.0
C137 C 0.21053 0.54985 0.06277 0.0
H138 H 0.1659 0.58779 0.09135 0.0
H139 H 0.18965 0.62472 0.13743 0.0
H140 H 0.3693 0.51822 0.06255 0.0
H141 H 0.3019 0.50754 0.03467 0.0
H142 H 0.23076 0.51824 0.0306 0.0
H143 H 0.18145 0.54729 0.05114 0.0
Mn144 Mn 0.69423 0.4142 0.48354 0.0
Mn145 Mn 0.7104 0.32085 0.48194 0.0
C146 C 0.70974 0.39049 0.44238 0.0
C147 C 0.64229 0.44264 0.48337 0.0
C148 C 0.78459 0.41716 0.50086 0.0
O149 O 0.66992 0.38338 0.52044 0.0
O150 O 0.67693 0.31915 0.51643 0.0
C151 C 0.6119 0.24672 0.47652 0.0
N152 N 0.65636 0.26865 0.46676 0.0
C153 C 0.63443 0.21632 0.4281 0.0
C154 C 0.58846 0.19294 0.43785 0.0
C155 C 0.57715 0.20827 0.46214 0.0
C156 C 0.66762 0.25426 0.44339 0.0
H157 H 0.60303 0.25855 0.49511 0.0
C158 C 0.66432 0.34472 0.5296 0.0
O159 O 0.68344 0.46673 0.49421 0.0
O160 O 0.63153 0.40239 0.4729 0.0
N161 N 0.74206 0.31754 0.44975 0.0
C162 C 0.78759 0.34507 0.44253 0.0
C163 C 0.80433 0.33512 0.41836 0.0
C164 C 0.77424 0.29678 0.402 0.0
C165 C 0.72772 0.26853 0.41007 0.0
C166 C 0.7131 0.27992 0.4345 0.0
H167 H 0.81089 0.37461 0.455 0.0
O168 O 0.71601 0.43243 0.44497 0.0
O169 O 0.69329 0.36329 0.46376 0.0
O170 O 0.76157 0.43824 0.49632 0.0
O171 O 0.76804 0.37335 0.49702 0.0
C172 C 0.69507 0.23002 0.39459 0.0
C173 C 0.64844 0.20398 0.40357 0.0
H174 H 0.5615 0.16343 0.42674 0.0
H175 H 0.5417 0.19057 0.46971 0.0
H176 H 0.84029 0.35707 0.41229 0.0
H177 H 0.78716 0.28951 0.38322 0.0
H178 H 0.70531 0.22049 0.37556 0.0
H179 H 0.62354 0.17481 0.39131 0.0
Mn180 Mn 0.31422 0.72048 0.8237 0.0
Mn181 Mn 0.30284 0.61298 0.82522 0.0
C182 C 0.31366 0.68719 0.86527 0.0
C183 C 0.36305 0.80079 0.81859 0.0
C184 C 0.22229 0.63041 0.81477 0.0
O185 O 0.32697 0.70966 0.78448 0.0
O186 O 0.32713 0.64163 0.78846 0.0
C187 C 0.40217 0.63927 0.82176 0.0
N188 N 0.36067 0.61741 0.83532 0.0
C189 C 0.39309 0.59229 0.87138 0.0
C190 C 0.4361 0.61423 0.85769 0.0
C191 C 0.44066 0.63788 0.8328 0.0
C192 C 0.35589 0.59456 0.85928 0.0
H193 H 0.40588 0.65771 0.8027 0.0
C194 C 0.33335 0.67745 0.77466 0.0
O195 O 0.31885 0.78121 0.81311 0.0
O196 O 0.37852 0.77372 0.82699 0.0
N197 N 0.28006 0.58156 0.8597 0.0
C198 C 0.2369 0.56432 0.87103 0.0
C199 C 0.22698 0.5408 0.8964 0.0
C200 C 0.2614 0.53502 0.90977 0.0
C201 C 0.30537 0.55258 0.89756 0.0
C202 C 0.31311 0.57534 0.87213 0.0
H203 H 0.21032 0.56873 0.86091 0.0
O204 O 0.3053 0.7217 0.86412 0.0
O205 O 0.32336 0.67416 0.84209 0.0
O206 O 0.24449 0.67454 0.81875 0.0
O207 O 0.24129 0.60483 0.81536 0.0
C208 C 0.3421 0.54921 0.90988 0.0
C209 C 0.38594 0.56908 0.89681 0.0
H210 H 0.46596 0.61352 0.86623 0.0
H211 H 0.47382 0.65513 0.82219 0.0
H212 H 0.19297 0.52737 0.90569 0.0
H213 H 0.25377 0.51731 0.92947 0.0
H214 H 0.33719 0.53196 0.92959 0.0
H215 H 0.41409 0.56681 0.90667 0.0
C216 C 0.53824 0.12471 0.17422 0.0
C217 C 0.58219 0.15628 0.16329 0.0
C218 C 0.52422 0.07711 0.17681 0.0
C219 C 0.55394 0.06015 0.16842 0.0
C220 C 0.59819 0.09208 0.15816 0.0
C221 C 0.61207 0.1394 0.1555 0.0
C222 C 0.54061 0.00979 0.16993 0.0
C223 C 0.49622 0.97439 0.17014 0.0
C224 C 0.48291 0.92406 0.16844 0.0
C225 C 0.43852 0.89215 0.15844 0.0
C226 C 0.42474 0.84489 0.15552 0.0
C227 C 0.45487 0.82806 0.16279 0.0
H228 H 0.54683 0.93019 0.18495 0.0
C229 C 0.49893 0.85959 0.17351 0.0
C230 C 0.51285 0.90712 0.17636 0.0
H231 H 0.52276 0.84763 0.17954 0.0
H232 H 0.5146 0.13671 0.18065 0.0
H233 H 0.49035 0.05402 0.1856 0.0
H234 H 0.62201 0.08027 0.15173 0.0
H235 H 0.64632 0.16275 0.14716 0.0
H236 H 0.56866 1.00182 0.16851 0.0
H237 H 0.46811 0.98234 0.16923 0.0
H238 H 0.41453 0.90393 0.15239 0.0
H239 H 0.3904 0.82156 0.14738 0.0
C240 C 0.42467 0.57556 0.47444 0.0
C241 C 0.3849 0.55653 0.49132 0.0
C242 C 0.45742 0.56086 0.477 0.0
C243 C 0.45138 0.52706 0.49671 0.0
C244 C 0.41204 0.50852 0.51391 0.0
C245 C 0.37872 0.52268 0.51102 0.0
C246 C 0.48629 0.51157 0.49988 0.0
C247 C 0.50841 0.50637 0.47806 0.0
C248 C 0.54261 0.48999 0.48044 0.0
C249 C 0.54317 0.46006 0.46014 0.0
C250 C 0.57542 0.44454 0.46136 0.0
C251 C 0.60882 0.45988 0.48242 0.0
H252 H 0.57673 0.52913 0.51731 0.0
C253 C 0.60908 0.49072 0.50247 0.0
C254 C 0.57585 0.50527 0.50168 0.0
H255 H 0.63447 0.50298 0.51893 0.0
H256 H 0.43055 0.60189 0.45916 0.0
H257 H 0.48791 0.57666 0.46386 0.0
H258 H 0.40682 0.48267 0.52938 0.0
H259 H 0.34862 0.50776 0.52447 0.0
H260 H 0.49196 0.50182 0.5203 0.0
H261 H 0.49894 0.51134 0.45742 0.0
H262 H 0.51819 0.44819 0.44345 0.0
H263 H 0.5746 0.42097 0.44554 0.0
C264 C 0.87732 0.40851 0.81917 0.0
C265 C 0.84701 0.41683 0.80306 0.0
C266 C 0.92546 0.43546 0.8154 0.0
C267 C 0.94386 0.4702 0.79495 0.0
C268 C 0.9135 0.47702 0.77799 0.0
C269 C 0.86541 0.45116 0.78238 0.0
C270 C 0.99473 0.49996 0.79149 0.0
C271 C 0.02197 0.52398 0.81282 0.0
C272 C 0.07316 0.55374 0.81051 0.0
C273 C 0.09601 0.59495 0.82607 0.0
C274 C 0.14462 0.62151 0.82617 0.0
C275 C 0.17124 0.60646 0.81137 0.0
H276 H 0.08308 0.50763 0.78297 0.0
C277 C 0.14835 0.56557 0.79546 0.0
C278 C 0.09974 0.5397 0.79478 0.0
H279 H 0.16809 0.5531 0.78396 0.0
H280 H 0.86387 0.38251 0.83541 0.0
H281 H 0.94837 0.42936 0.82852 0.0
H282 H 0.92709 0.50352 0.76205 0.0
H283 H 0.84259 0.45817 0.76977 0.0
H284 H 0.00943 0.50433 0.77096 0.0
H285 H 1.00596 0.52291 0.83258 0.0
H286 H 0.0762 0.60624 0.83849 0.0
H287 H 0.16137 0.65256 0.83889 0.0
C288 C 0.13727 0.60128 0.51448 0.0
C289 C 0.16016 0.57695 0.50626 0.0
C290 C 0.08935 0.57756 0.51945 0.0
C291 C 0.06285 0.5288 0.51588 0.0
C292 C 0.08617 0.50431 0.50892 0.0
C293 C 0.13424 0.52803 0.5042 0.0
C294 C 0.01104 0.50217 0.51834 0.0
C295 C 0.98377 0.52202 0.5182 0.0
C296 C 0.93188 0.495 0.51692 0.0
C297 C 0.90798 0.51802 0.50818 0.0
C298 C 0.85974 0.49332 0.50421 0.0
C299 C 0.83428 0.44488 0.50887 0.0
H300 H 0.92219 0.42808 0.53121 0.0
C301 C 0.85776 0.42231 0.51909 0.0
C302 C 0.90585 0.44705 0.52328 0.0
H303 H 0.83908 0.38514 0.52337 0.0
H304 H 0.15631 0.63894 0.51674 0.0
H305 H 0.07361 0.59794 0.52584 0.0
H306 H 0.06693 0.46671 0.50633 0.0
H307 H 0.15071 0.50815 0.49796 0.0
H308 H 0.99494 0.46441 0.51804 0.0
H309 H 0.99966 0.55967 0.51664 0.0
H310 H 0.92688 0.55504 0.50347 0.0
H311 H 0.8428 0.51186 0.49638 0.0
C312 C 0.44202 0.87125 0.82262 0.0
C313 C 0.3948 0.85168 0.81561 0.0
C314 C 0.47227 0.91934 0.82051 0.0
C315 C 0.45608 0.94908 0.81105 0.0
C316 C 0.40884 0.92945 0.80404 0.0
C317 C 0.3785 0.88124 0.8062 0.0
C318 C 0.48664 1.00077 0.8099 0.0
C319 C 0.53356 0.02239 0.80892 0.0
C320 C 0.56421 0.07406 0.81009 0.0
C321 C 0.61052 0.09391 0.80095 0.0
C322 C 0.64104 0.1421 0.80295 0.0
C323 C 0.62588 0.1714 0.81434 0.0
H324 H 0.51442 0.08977 0.82974 0.0
C325 C 0.57962 0.15161 0.82352 0.0
C326 C 0.54919 0.10354 0.82156 0.0
H327 H 0.56692 0.17318 0.8326 0.0
H328 H 0.45563 0.84948 0.83016 0.0
H329 H 0.5079 0.93291 0.82705 0.0
H330 H 0.39526 0.95152 0.79696 0.0
H331 H 0.34228 0.86722 0.80069 0.0
H332 H 0.46942 0.02148 0.80942 0.0
H333 H 0.55063 1.00172 0.80672 0.0
H334 H 0.62322 0.07203 0.7923 0.0
H335 H 0.67651 0.15629 0.79575 0.0
C336 C 0.42516 0.53677 0.1671 0.0
C337 C 0.44757 0.58587 0.16538 0.0
C338 C 0.45069 0.51371 0.16998 0.0
C339 C 0.49958 0.53912 0.17145 0.0
C340 C 0.52197 0.58824 0.17034 0.0
C341 C 0.49634 0.6114 0.16743 0.0
C342 C 0.52853 0.51591 0.17214 0.0
C343 C 0.51201 0.47032 0.17835 0.0
C344 C 0.54023 0.4465 0.17624 0.0
C345 C 0.51723 0.39766 0.17298 0.0
C346 C 0.54242 0.37421 0.16934 0.0
C347 C 0.59133 0.39913 0.169 0.0
H348 H 0.60845 0.50839 0.1807 0.0
C349 C 0.61429 0.44776 0.17344 0.0
C350 C 0.58916 0.47111 0.17713 0.0
H351 H 0.65194 0.46816 0.17377 0.0
H352 H 0.38765 0.51573 0.16551 0.0
H353 H 0.43165 0.47596 0.17002 0.0
H354 H 0.55959 0.60885 0.17127 0.0
H355 H 0.51486 0.64918 0.16611 0.0
H356 H 0.56478 0.53748 0.16634 0.0
H357 H 0.47579 0.44852 0.18408 0.0
H358 H 0.47955 0.37765 0.17254 0.0
H359 H 0.52352 0.33677 0.16609 0.0
C360 C 0.74543 0.36442 0.91058 0.0
C361 C 0.70899 0.35108 0.89175 0.0
C362 C 0.73953 0.37307 0.93799 0.0
C363 C 0.69654 0.36719 0.94707 0.0
C364 C 0.66062 0.35512 0.92795 0.0
C365 C 0.66655 0.34639 0.90056 0.0
C366 C 0.68684 0.36995 0.97657 0.0
C367 C 0.70441 0.35469 -0.00356 0.0
C368 C 0.68978 0.34831 0.02579 0.0
C369 C 0.71436 0.33622 0.04455 0.0
C370 C 0.70031 0.32658 0.07197 0.0
C371 C 0.6618 0.32951 0.08126 0.0
H372 H 0.62953 0.35818 0.02155 0.0
C373 C 0.63645 0.34058 0.06267 0.0
C374 C 0.65048 0.35036 0.03519 0.0
H375 H 0.6058 0.34167 0.06944 0.0
H376 H 0.77823 0.3676 0.90411 0.0
H377 H 0.76833 0.38352 0.95208 0.0
H378 H 0.62721 0.35036 0.93446 0.0
H379 H 0.63755 0.33465 0.88644 0.0
H380 H 0.66125 0.38027 0.98138 0.0
H381 H 0.7291 0.34348 -0.00926 0.0
H382 H 0.74428 0.33365 0.03791 0.0
H383 H 0.71924 0.31633 0.08588 0.0
C384 C 0.34288 0.68664 0.23906 0.0
C385 C 0.32487 0.64571 0.22318 0.0
C386 C 0.3274 0.68517 0.26598 0.0
C387 C 0.29411 0.64242 0.2778 0.0
C388 C 0.2747 0.60198 0.26144 0.0
C389 C 0.28979 0.60356 0.23442 0.0
C390 C 0.28034 0.63759 0.30729 0.0
C391 C 0.3052 0.66957 0.3267 0.0
C392 C 0.2974 0.66001 0.35667 0.0
C393 C 0.33504 0.68533 0.37452 0.0
C394 C 0.33122 0.67417 0.40244 0.0
C395 C 0.28936 0.63817 0.41308 0.0
H396 H 0.22456 0.6054 0.35483 0.0
C397 C 0.25128 0.61341 0.39558 0.0
C398 C 0.25491 0.62475 0.36764 0.0
H399 H 0.21883 0.58519 0.40352 0.0
H400 H 0.36916 0.71991 0.23074 0.0
H401 H 0.34206 0.71763 0.27727 0.0
H402 H 0.24869 0.56864 0.26984 0.0
H403 H 0.27489 0.57144 0.22265 0.0
H404 H 0.2515 0.60402 0.3135 0.0
H405 H 0.33597 0.7019 0.32089 0.0
H406 H 0.36812 0.7127 0.36671 0.0
H407 H 0.36138 0.6928 0.41558 0.0
C408 C 0.65558 0.3033 0.73021 0.0
C409 C 0.66334 0.34135 0.74689 0.0
C410 C 0.64252 0.30128 0.70274 0.0
C411 C 0.63653 0.33718 0.69131 0.0
C412 C 0.64269 0.37435 0.70824 0.0
C413 C 0.65578 0.37638 0.73576 0.0
C414 C 0.62945 0.34007 0.66135 0.0
C415 C 0.6151 0.3038 0.64383 0.0
C416 C 0.61999 0.31049 0.61358 0.0
C417 C 0.63059 0.28118 0.59797 0.0
C418 C 0.64304 0.29098 0.57027 0.0
C419 C 0.64479 0.3302 0.55763 0.0
H420 H 0.60815 0.36963 0.61153 0.0
C421 C 0.63051 0.35731 0.57274 0.0
C422 C 0.61809 0.34748 0.60041 0.0
H423 H 0.63034 0.38714 0.5635 0.0
H424 H 0.66095 0.27559 0.73808 0.0
H425 H 0.63943 0.27256 0.69044 0.0
H426 H 0.63861 0.40263 0.69996 0.0
H427 H 0.66119 0.40609 0.74804 0.0
H428 H 0.64019 0.37469 0.65327 0.0
H429 H 0.60449 0.26907 0.65159 0.0
H430 H 0.63169 0.25206 0.60757 0.0
H431 H 0.65315 0.26893 0.55916 0.0
C432 C 0.28775 0.6589 0.91278 0.0
C433 C 0.32136 0.67206 0.89208 0.0
C434 C 0.29706 0.64966 0.93934 0.0
C435 C 0.34078 0.65435 0.94575 0.0
C436 C 0.37421 0.66747 0.92474 0.0
C437 C 0.36475 0.67664 0.8982 0.0
C438 C 0.35483 0.65059 0.97429 0.0
C439 C 0.3259 0.63662 -0.00389 0.0
C440 C 0.34299 0.64287 0.02477 0.0
C441 C 0.31934 0.65334 0.04503 0.0
C442 C 0.33552 0.66199 0.07204 0.0
C443 C 0.37482 0.65896 0.07941 0.0
H444 H 0.40137 0.63149 0.01714 0.0
C445 C 0.39891 0.6489 0.05929 0.0
C446 C 0.38281 0.64032 0.03215 0.0
H447 H 0.42977 0.64714 0.06465 0.0
H448 H 0.25446 0.65638 0.90847 0.0
H449 H 0.27029 0.64064 0.95466 0.0
H450 H 0.4083 0.6719 0.92901 0.0
H451 H 0.39174 0.68846 0.88263 0.0
H452 H 0.39166 0.6634 0.97767 0.0
H453 H 0.28915 0.62444 -0.00649 0.0
H454 H 0.28881 0.65582 0.03983 0.0
H455 H 0.31742 0.67127 0.08718 0.0
C456 C 0.75108 0.39813 0.39835 0.0
C457 C 0.71165 0.37326 0.41493 0.0
C458 C 0.75122 0.38426 0.3712 0.0
C459 C 0.71131 0.34565 0.36005 0.0
C460 C 0.67188 0.3211 0.3769 0.0
C461 C 0.6719 0.33502 0.40399 0.0
C462 C 0.70722 0.33222 0.33055 0.0
C463 C 0.74228 0.35112 0.31211 0.0
C464 C 0.73364 0.34364 0.28211 0.0
C465 C 0.76089 0.38048 0.26404 0.0
C466 C 0.74927 0.3774 0.23619 0.0
C467 C 0.71026 0.33718 0.22588 0.0
H468 H 0.67633 0.27217 0.28453 0.0
C469 C 0.68517 0.29894 0.24361 0.0
C470 C 0.69685 0.30204 0.27141 0.0
H471 H 0.65559 0.26697 0.23624 0.0
H472 H 0.78166 0.42853 0.40637 0.0
H473 H 0.78216 0.40501 0.3591 0.0
H474 H 0.64046 0.29164 0.36889 0.0
H475 H 0.64052 0.31647 0.41625 0.0
H476 H 0.67235 0.30784 0.32337 0.0
H477 H 0.77722 0.37652 0.31845 0.0
H478 H 0.78982 0.41267 0.27174 0.0
H479 H 0.76979 0.40728 0.22305 0.0
C480 C 0.36584 0.72452 0.73171 0.0
C481 C 0.34817 0.68161 0.74561 0.0
C482 C 0.37707 0.72797 0.70379 0.0
C483 C 0.37009 0.68826 0.68904 0.0
C484 C 0.35463 0.64598 0.7033 0.0
C485 C 0.34382 0.64264 0.73129 0.0
C486 C 0.37609 0.68847 0.65872 0.0
C487 C 0.37578 0.72076 0.64179 0.0
C488 C 0.37098 0.71467 0.61147 0.0
C489 C 0.38355 0.68547 0.59717 0.0
C490 C 0.37147 0.67469 0.56957 0.0
C491 C 0.34745 0.69357 0.55555 0.0
H492 H 0.34079 0.75952 0.60728 0.0
C493 C 0.33854 0.7259 0.56915 0.0
C494 C 0.35019 0.7363 0.59688 0.0
H495 H 0.32045 0.74136 0.55882 0.0
H496 H 0.37069 0.75552 0.74233 0.0
H497 H 0.39075 0.76173 0.694 0.0
H498 H 0.34941 0.61493 0.69256 0.0
H499 H 0.33069 0.60916 0.74145 0.0
H500 H 0.37526 0.65777 0.65 0.0
H501 H 0.3729 0.74964 0.65029 0.0
H502 H 0.4017 0.66992 0.60725 0.0
H503 H 0.37995 0.65061 0.5594 0.0
loop_
_geom_bond_atom_site_label_1
_geom_bond_atom_site_label_2
_geom_bond_distance
_geom_bond_site_symmetry_2
_ccdc_geom_bond_type
Mn0 O5 2.095 . S
Mn0 O15 2.162 . S
Mn0 O16 2.297 . S
Mn0 O24 2.385 . S
Mn0 O25 2.209 . S
Mn0 O26 2.094 . S
Mn1 O6 2.121 . S
Mn1 N8 2.257 . S
Mn1 N17 2.282 . S
Mn1 O25 2.215 . S
Mn1 O27 2.117 . S
C2 O24 1.234 . S
C2 O25 1.283 . S
C3 O15 1.281 . S
C3 O16 1.236 . S
C4 O26 1.240 . S
C4 O27 1.264 . S
O5 Mn0 2.095 . S
O5 C14 1.250 . S
O6 Mn1 2.121 . S
O6 C14 1.258 . S
C7 N8 1.326 . S
C7 C11 1.460 . S
C7 H13 0.929 . S
N8 Mn1 2.257 . S
N8 C7 1.326 . S
N8 C12 1.362 . S
C9 C10 1.258 . S
C9 C12 1.431 . S
C9 C29 1.449 . S
C10 C9 1.258 . S
C10 C11 1.477 . S
C10 H30 0.931 . S
C11 C7 1.460 . S
C11 C10 1.477 . S
C11 H31 0.930 . S
C12 N8 1.362 . S
C12 C9 1.431 . S
C12 C22 1.476 . S
H13 C7 0.929 . S
C14 O5 1.250 . S
C14 O6 1.258 . S
O15 Mn0 2.162 . S
O15 C3 1.281 . S
O16 Mn0 2.297 . S
O16 C3 1.236 . S
N17 Mn1 2.282 . S
N17 C18 1.328 . S
N17 C22 1.318 . S
C18 N17 1.328 . S
C18 C19 1.457 . S
C18 H23 0.929 . S
C19 C18 1.457 . S
C19 C20 1.291 . S
C19 H32 0.931 . S
C20 C19 1.291 . S
C20 C21 1.373 . S
C20 H33 0.929 . S
C21 C20 1.373 . S
C21 C22 1.396 . S
C21 C28 1.403 . S
C22 C12 1.476 . S
C22 N17 1.318 . S
C22 C21 1.396 . S
H23 C18 0.929 . S
O24 Mn0 2.385 . S
O24 C2 1.234 . S
O25 Mn0 2.209 . S
O25 Mn1 2.215 . S
O25 C2 1.283 . S
O26 Mn0 2.094 . S
O26 C4 1.240 . S
O27 Mn1 2.117 . S
O27 C4 1.264 . S
C28 C21 1.403 . S
C28 C29 1.399 . S
C28 H34 0.929 . S
C29 C9 1.449 . S
C29 C28 1.399 . S
C29 H35 0.930 . S
H30 C10 0.931 . S
H31 C11 0.930 . S
H32 C19 0.931 . S
H33 C20 0.929 . S
H34 C28 0.929 . S
H35 C29 0.930 . S
Mn36 O41 2.095 . S
Mn36 O51 2.162 . S
Mn36 O52 2.297 . S
Mn36 O60 2.385 . S
Mn36 O61 2.209 . S
Mn36 O62 2.094 . S
Mn37 O42 2.121 . S
Mn37 N44 2.257 . S
Mn37 N53 2.282 . S
Mn37 O61 2.215 . S
Mn37 O63 2.117 . S
C38 O60 1.234 . S
C38 O61 1.283 . S
C39 O51 1.281 . S
C39 O52 1.236 . S
C40 O62 1.240 . S
C40 O63 1.264 . S
O41 Mn36 2.095 . S
O41 C50 1.250 . S
O42 Mn37 2.121 . S
O42 C50 1.258 . S
C43 N44 1.326 . S
C43 C47 1.460 . S
C43 H49 0.929 . S
N44 Mn37 2.257 . S
N44 C43 1.326 . S
N44 C48 1.362 . S
C45 C46 1.258 . S
C45 C48 1.431 . S
C45 C65 1.449 . S
C46 C45 1.258 . S
C46 C47 1.477 . S
C46 H66 0.931 . S
C47 C43 1.460 . S
C47 C46 1.477 . S
C47 H67 0.930 . S
C48 N44 1.362 . S
C48 C45 1.431 . S
C48 C58 1.476 . S
H49 C43 0.929 . S
C50 O41 1.250 . S
C50 O42 1.258 . S
O51 Mn36 2.162 . S
O51 C39 1.281 . S
O52 Mn36 2.297 . S
O52 C39 1.236 . S
N53 Mn37 2.282 . S
N53 C54 1.328 . S
N53 C58 1.318 . S
C54 N53 1.328 . S
C54 C55 1.457 . S
C54 H59 0.929 . S
C55 C54 1.457 . S
C55 C56 1.291 . S
C55 H68 0.931 . S
C56 C55 1.291 . S
C56 C57 1.373 . S
C56 H69 0.929 . S
C57 C56 1.373 . S
C57 C58 1.396 . S
C57 C64 1.403 . S
C58 C48 1.476 . S
C58 N53 1.318 . S
C58 C57 1.396 . S
H59 C54 0.929 . S
O60 Mn36 2.385 . S
O60 C38 1.234 . S
O61 Mn36 2.209 . S
O61 Mn37 2.215 . S
O61 C38 1.283 . S
O62 Mn36 2.094 . S
O62 C40 1.240 . S
O63 Mn37 2.117 . S
O63 C40 1.264 . S
C64 C57 1.403 . S
C64 C65 1.399 . S
C64 H70 0.929 . S
C65 C45 1.449 . S
C65 C64 1.399 . S
C65 H71 0.930 . S
H66 C46 0.931 . S
H67 C47 0.930 . S
H68 C55 0.931 . S
H69 C56 0.929 . S
H70 C64 0.929 . S
H71 C65 0.930 . S
Mn72 O77 2.095 . S
Mn72 O87 2.162 . S
Mn72 O88 2.297 . S
Mn72 O96 2.385 . S
Mn72 O97 2.209 . S
Mn72 O98 2.094 . S
Mn73 O78 2.121 . S
Mn73 N80 2.257 . S
Mn73 N89 2.282 . S
Mn73 O97 2.215 . S
Mn73 O99 2.117 . S
C74 O96 1.234 . S
C74 O97 1.283 . S
C75 O87 1.281 . S
C75 O88 1.236 . S
C76 O98 1.240 . S
C76 O99 1.264 . S
O77 Mn72 2.095 . S
O77 C86 1.250 . S
O78 Mn73 2.121 . S
O78 C86 1.258 . S
C79 N80 1.326 . S
C79 C83 1.460 . S
C79 H85 0.929 . S
N80 Mn73 2.257 . S
N80 C79 1.326 . S
N80 C84 1.362 . S
C81 C82 1.258 . S
C81 C84 1.431 . S
C81 C101 1.449 . S
C82 C81 1.258 . S
C82 C83 1.477 . S
C82 H102 0.931 . S
C83 C79 1.460 . S
C83 C82 1.477 . S
C83 H103 0.930 . S
C84 N80 1.362 . S
C84 C81 1.431 . S
C84 C94 1.476 . S
H85 C79 0.929 . S
C86 O77 1.250 . S
C86 O78 1.258 . S
O87 Mn72 2.162 . S
O87 C75 1.281 . S
O88 Mn72 2.297 . S
O88 C75 1.236 . S
N89 Mn73 2.282 . S
N89 C90 1.328 . S
N89 C94 1.318 . S
C90 N89 1.328 . S
C90 C91 1.457 . S
C90 H95 0.929 . S
C91 C90 1.457 . S
C91 C92 1.291 . S
C91 H104 0.931 . S
C92 C91 1.291 . S
C92 C93 1.373 . S
C92 H105 0.929 . S
C93 C92 1.373 . S
C93 C94 1.396 . S
C93 C100 1.403 . S
C94 C84 1.476 . S
C94 N89 1.318 . S
C94 C93 1.396 . S
H95 C90 0.929 . S
O96 Mn72 2.385 . S
O96 C74 1.234 . S
O97 Mn72 2.209 . S
O97 Mn73 2.215 . S
O97 C74 1.283 . S
O98 Mn72 2.094 . S
O98 C76 1.240 . S
O99 Mn73 2.117 . S
O99 C76 1.264 . S
C100 C93 1.403 . S
C100 C101 1.399 . S
C100 H106 0.929 . S
C101 C81 1.449 . S
C101 C100 1.399 . S
C101 H107 0.930 . S
H102 C82 0.931 . S
H103 C83 0.930 . S
H104 C91 0.931 . S
H105 C92 0.929 . S
H106 C100 0.929 . S
H107 C101 0.930 . S
Mn108 O113 2.095 . S
Mn108 O123 2.162 . S
Mn108 O124 2.297 . S
Mn108 O132 2.385 . S
Mn108 O133 2.209 . S
Mn108 O134 2.094 . S
Mn109 O114 2.121 . S
Mn109 N116 2.257 . S
Mn109 N125 2.282 . S
Mn109 O133 2.215 . S
Mn109 O135 2.117 . S
C110 O132 1.234 . S
C110 O133 1.283 . S
C111 O123 1.281 . S
C111 O124 1.236 . S
C112 O134 1.240 . S
C112 O135 1.264 . S
O113 Mn108 2.095 . S
O113 C122 1.250 . S
O114 Mn109 2.121 . S
O114 C122 1.258 . S
C115 N116 1.326 . S
C115 C119 1.460 . S
C115 H121 0.929 . S
N116 Mn109 2.257 . S
N116 C115 1.326 . S
N116 C120 1.362 . S
C117 C118 1.258 . S
C117 C120 1.431 . S
C117 C137 1.449 . S
C118 C117 1.258 . S
C118 C119 1.477 . S
C118 H138 0.931 . S
C119 C115 1.460 . S
C119 C118 1.477 . S
C119 H139 0.930 . S
C120 N116 1.362 . S
C120 C117 1.431 . S
C120 C130 1.476 . S
H121 C115 0.929 . S
C122 O113 1.250 . S
C122 O114 1.258 . S
O123 Mn108 2.162 . S
O123 C111 1.281 . S
O124 Mn108 2.297 . S
O124 C111 1.236 . S
N125 Mn109 2.282 . S
N125 C126 1.328 . S
N125 C130 1.318 . S
C126 N125 1.328 . S
C126 C127 1.457 . S
C126 H131 0.929 . S
C127 C126 1.457 . S
C127 C128 1.291 . S
C127 H140 0.931 . S
C128 C127 1.291 . S
C128 C129 1.373 . S
C128 H141 0.929 . S
C129 C128 1.373 . S
C129 C130 1.396 . S
C129 C136 1.403 . S
C130 C120 1.476 . S
C130 N125 1.318 . S
C130 C129 1.396 . S
H131 C126 0.929 . S
O132 Mn108 2.385 . S
O132 C110 1.234 . S
O133 Mn108 2.209 . S
O133 Mn109 2.215 . S
O133 C110 1.283 . S
O134 Mn108 2.094 . S
O134 C112 1.240 . S
O135 Mn109 2.117 . S
O135 C112 1.264 . S
C136 C129 1.403 . S
C136 C137 1.399 . S
C136 H142 0.929 . S
C137 C117 1.449 . S
C137 C136 1.399 . S
C137 H143 0.930 . S
H138 C118 0.931 . S
H139 C119 0.930 . S
H140 C127 0.931 . S
H141 C128 0.929 . S
H142 C136 0.929 . S
H143 C137 0.930 . S
Mn144 O149 2.095 . S
Mn144 O159 2.162 . S
Mn144 O160 2.297 . S
Mn144 O168 2.385 . S
Mn144 O169 2.209 . S
Mn144 O170 2.094 . S
Mn145 O150 2.121 . S
Mn145 N152 2.257 . S
Mn145 N161 2.282 . S
Mn145 O169 2.215 . S
Mn145 O171 2.117 . S
C146 O168 1.234 . S
C146 O169 1.283 . S
C147 O159 1.281 . S
C147 O160 1.236 . S
C148 O170 1.240 . S
C148 O171 1.264 . S
O149 Mn144 2.095 . S
O149 C158 1.250 . S
O150 Mn145 2.121 . S
O150 C158 1.258 . S
C151 N152 1.326 . S
C151 C155 1.460 . S
C151 H157 0.929 . S
N152 Mn145 2.257 . S
N152 C151 1.326 . S
N152 C156 1.362 . S
C153 C154 1.258 . S
C153 C156 1.431 . S
C153 C173 1.449 . S
C154 C153 1.258 . S
C154 C155 1.477 . S
C154 H174 0.931 . S
C155 C151 1.460 . S
C155 C154 1.477 . S
C155 H175 0.930 . S
C156 N152 1.362 . S
C156 C153 1.431 . S
C156 C166 1.476 . S
H157 C151 0.929 . S
C158 O149 1.250 . S
C158 O150 1.258 . S
O159 Mn144 2.162 . S
O159 C147 1.281 . S
O160 Mn144 2.297 . S
O160 C147 1.236 . S
N161 Mn145 2.282 . S
N161 C162 1.328 . S
N161 C166 1.318 . S
C162 N161 1.328 . S
C162 C163 1.457 . S
C162 H167 0.929 . S
C163 C162 1.457 . S
C163 C164 1.291 . S
C163 H176 0.931 . S
C164 C163 1.291 . S
C164 C165 1.373 . S
C164 H177 0.929 . S
C165 C164 1.373 . S
C165 C166 1.396 . S
C165 C172 1.403 . S
C166 C156 1.476 . S
C166 N161 1.318 . S
C166 C165 1.396 . S
H167 C162 0.929 . S
O168 Mn144 2.385 . S
O168 C146 1.234 . S
O169 Mn144 2.209 . S
O169 Mn145 2.215 . S
O169 C146 1.283 . S
O170 Mn144 2.094 . S
O170 C148 1.240 . S
O171 Mn145 2.117 . S
O171 C148 1.264 . S
C172 C165 1.403 . S
C172 C173 1.399 . S
C172 H178 0.929 . S
C173 C153 1.449 . S
C173 C172 1.399 . S
C173 H179 0.930 . S
H174 C154 0.931 . S
H175 C155 0.930 . S
H176 C163 0.931 . S
H177 C164 0.929 . S
H178 C172 0.929 . S
H179 C173 0.930 . S
Mn180 O185 2.095 . S
Mn180 O195 2.162 . S
Mn180 O196 2.297 . S
Mn180 O204 2.385 . S
Mn180 O205 2.209 . S
Mn180 O206 2.094 . S
Mn181 O186 2.121 . S
Mn181 N188 2.257 . S
Mn181 N197 2.282 . S
Mn181 O205 2.215 . S
Mn181 O207 2.117 . S
C182 O204 1.234 . S
C182 O205 1.283 . S
C183 O195 1.281 . S
C183 O196 1.236 . S
C184 O206 1.240 . S
C184 O207 1.264 . S
O185 Mn180 2.095 . S
O185 C194 1.250 . S
O186 Mn181 2.121 . S
O186 C194 1.258 . S
C187 N188 1.326 . S
C187 C191 1.460 . S
C187 H193 0.929 . S
N188 Mn181 2.257 . S
N188 C187 1.326 . S
N188 C192 1.362 . S
C189 C190 1.258 . S
C189 C192 1.431 . S
C189 C209 1.449 . S
C190 C189 1.258 . S
C190 C191 1.477 . S
C190 H210 0.931 . S
C191 C187 1.460 . S
C191 C190 1.477 . S
C191 H211 0.930 . S
C192 N188 1.362 . S
C192 C189 1.431 . S
C192 C202 1.476 . S
H193 C187 0.929 . S
C194 O185 1.250 . S
C194 O186 1.258 . S
O195 Mn180 2.162 . S
O195 C183 1.281 . S
O196 Mn180 2.297 . S
O196 C183 1.236 . S
N197 Mn181 2.282 . S
N197 C198 1.328 . S
N197 C202 1.318 . S
C198 N197 1.328 . S
C198 C199 1.457 . S
C198 H203 0.929 . S
C199 C198 1.457 . S
C199 C200 1.291 . S
C199 H212 0.931 . S
C200 C199 1.291 . S
C200 C201 1.373 . S
C200 H213 0.929 . S
C201 C200 1.373 . S
C201 C202 1.396 . S
C201 C208 1.403 . S
C202 C192 1.476 . S
C202 N197 1.318 . S
C202 C201 1.396 . S
H203 C198 0.929 . S
O204 Mn180 2.385 . S
O204 C182 1.234 . S
O205 Mn180 2.209 . S
O205 Mn181 2.215 . S
O205 C182 1.283 . S
O206 Mn180 2.094 . S
O206 C184 1.240 . S
O207 Mn181 2.117 . S
O207 C184 1.264 . S
C208 C201 1.403 . S
C208 C209 1.399 . S
C208 H214 0.929 . S
C209 C189 1.449 . S
C209 C208 1.399 . S
C209 H215 0.930 . S
H210 C190 0.931 . S
H211 C191 0.930 . S
H212 C199 0.931 . S
H213 C200 0.929 . S
H214 C208 0.929 . S
H215 C209 0.930 . S
C216 C217 1.386 . S
C216 C218 1.383 . S
C216 H232 0.951 . S
C217 C216 1.386 . S
C217 C221 1.383 . S
C218 C216 1.383 . S
C218 C219 1.402 . S
C218 H233 0.951 . S
C219 C218 1.402 . S
C219 C220 1.375 . S
C219 C222 1.481 . S
C220 C219 1.375 . S
C220 C221 1.367 . S
C220 H234 0.951 . S
C221 C217 1.383 . S
C221 C220 1.367 . S
C221 H235 0.950 . S
C222 C219 1.481 . S
C222 C223 1.297 1_545 S
C222 H236 0.950 . S
C223 C222 1.297 1_565 S
C223 C224 1.479 . S
C223 H237 0.950 . S
C224 C223 1.479 . S
C224 C225 1.375 . S
C224 C230 1.404 . S
C225 C224 1.375 . S
C225 C226 1.369 . S
C225 H238 0.950 . S
C226 C225 1.369 . S
C226 C227 1.392 . S
C226 H239 0.951 . S
C227 C226 1.392 . S
C227 C229 1.384 . S
H228 C230 0.949 . S
C229 C227 1.384 . S
C229 C230 1.385 . S
C229 H231 0.950 . S
C230 C224 1.404 . S
C230 H228 0.949 . S
C230 C229 1.385 . S
H231 C229 0.950 . S
H232 C216 0.951 . S
H233 C218 0.951 . S
H234 C220 0.951 . S
H235 C221 0.950 . S
H236 C222 0.950 . S
H237 C223 0.950 . S
H238 C225 0.950 . S
H239 C226 0.951 . S
C240 C241 1.386 . S
C240 C242 1.383 . S
C240 H256 0.951 . S
C241 C240 1.386 . S
C241 C245 1.383 . S
C242 C240 1.383 . S
C242 C243 1.402 . S
C242 H257 0.951 . S
C243 C242 1.402 . S
C243 C244 1.375 . S
C243 C246 1.481 . S
C244 C243 1.375 . S
C244 C245 1.367 . S
C244 H258 0.951 . S
C245 C241 1.383 . S
C245 C244 1.367 . S
C245 H259 0.950 . S
C246 C243 1.481 . S
C246 C247 1.297 . S
C246 H260 0.950 . S
C247 C246 1.297 . S
C247 C248 1.479 . S
C247 H261 0.950 . S
C248 C247 1.479 . S
C248 C249 1.375 . S
C248 C254 1.404 . S
C249 C248 1.375 . S
C249 C250 1.369 . S
C249 H262 0.950 . S
C250 C249 1.369 . S
C250 C251 1.392 . S
C250 H263 0.951 . S
C251 C250 1.392 . S
C251 C253 1.384 . S
H252 C254 0.949 . S
C253 C251 1.384 . S
C253 C254 1.385 . S
C253 H255 0.950 . S
C254 C248 1.404 . S
C254 H252 0.949 . S
C254 C253 1.385 . S
H255 C253 0.950 . S
H256 C240 0.951 . S
H257 C242 0.951 . S
H258 C244 0.951 . S
H259 C245 0.950 . S
H260 C246 0.950 . S
H261 C247 0.950 . S
H262 C249 0.950 . S
H263 C250 0.951 . S
C264 C265 1.386 . S
C264 C266 1.383 . S
C264 H280 0.951 . S
C265 C264 1.386 . S
C265 C269 1.383 . S
C266 C264 1.383 . S
C266 C267 1.402 . S
C266 H281 0.951 . S
C267 C266 1.402 . S
C267 C268 1.375 . S
C267 C270 1.481 . S
C268 C267 1.375 . S
C268 C269 1.367 . S
C268 H282 0.951 . S
C269 C265 1.383 . S
C269 C268 1.367 . S
C269 H283 0.950 . S
C270 C267 1.481 . S
C270 C271 1.297 1_655 S
C270 H284 0.950 . S
C271 C270 1.297 1_455 S
C271 C272 1.479 . S
C271 H285 0.950 . S
C272 C271 1.479 . S
C272 C273 1.375 . S
C272 C278 1.404 . S
C273 C272 1.375 . S
C273 C274 1.369 . S
C273 H286 0.950 . S
C274 C273 1.369 . S
C274 C275 1.392 . S
C274 H287 0.951 . S
C275 C274 1.392 . S
C275 C277 1.384 . S
H276 C278 0.949 . S
C277 C275 1.384 . S
C277 C278 1.385 . S
C277 H279 0.950 . S
C278 C272 1.404 . S
C278 H276 0.949 . S
C278 C277 1.385 . S
H279 C277 0.950 . S
H280 C264 0.951 . S
H281 C266 0.951 . S
H282 C268 0.951 . S
H283 C269 0.950 . S
H284 C270 0.950 . S
H285 C271 0.950 . S
H286 C273 0.950 . S
H287 C274 0.951 . S
C288 C289 1.386 . S
C288 C290 1.383 . S
C288 H304 0.951 . S
C289 C288 1.386 . S
C289 C293 1.383 . S
C290 C288 1.383 . S
C290 C291 1.402 . S
C290 H305 0.951 . S
C291 C290 1.402 . S
C291 C292 1.375 . S
C291 C294 1.481 . S
C292 C291 1.375 . S
C292 C293 1.367 . S
C292 H306 0.951 . S
C293 C289 1.383 . S
C293 C292 1.367 . S
C293 H307 0.950 . S
C294 C291 1.481 . S
C294 C295 1.297 1_455 S
C294 H308 0.950 1_455 S
C295 C294 1.297 1_655 S
C295 C296 1.479 . S
C295 H309 0.950 . S
C296 C295 1.479 . S
C296 C297 1.375 . S
C296 C302 1.404 . S
C297 C296 1.375 . S
C297 C298 1.369 . S
C297 H310 0.950 . S
C298 C297 1.369 . S
C298 C299 1.392 . S
C298 H311 0.951 . S
C299 C298 1.392 . S
C299 C301 1.384 . S
H300 C302 0.949 . S
C301 C299 1.384 . S
C301 C302 1.385 . S
C301 H303 0.950 . S
C302 C296 1.404 . S
C302 H300 0.949 . S
C302 C301 1.385 . S
H303 C301 0.950 . S
H304 C288 0.951 . S
H305 C290 0.951 . S
H306 C292 0.951 . S
H307 C293 0.950 . S
H308 C294 0.950 1_655 S
H309 C295 0.950 . S
H310 C297 0.950 . S
H311 C298 0.951 . S
C312 C313 1.386 . S
C312 C314 1.383 . S
C312 H328 0.951 . S
C313 C312 1.386 . S
C313 C317 1.383 . S
C314 C312 1.383 . S
C314 C315 1.402 . S
C314 H329 0.951 . S
C315 C314 1.402 . S
C315 C316 1.375 . S
C315 C318 1.481 . S
C316 C315 1.375 . S
C316 C317 1.367 . S
C316 H330 0.951 . S
C317 C313 1.383 . S
C317 C316 1.367 . S
C317 H331 0.950 . S
C318 C315 1.481 . S
C318 C319 1.297 1_565 S
C318 H332 0.950 . S
C319 C318 1.297 1_545 S
C319 C320 1.479 . S
C319 H333 0.950 1_545 S
C320 C319 1.479 . S
C320 C321 1.375 . S
C320 C326 1.404 . S
C321 C320 1.375 . S
C321 C322 1.369 . S
C321 H334 0.950 . S
C322 C321 1.369 . S
C322 C323 1.392 . S
C322 H335 0.951 . S
C323 C322 1.392 . S
C323 C325 1.384 . S
H324 C326 0.949 . S
C325 C323 1.384 . S
C325 C326 1.385 . S
C325 H327 0.950 . S
C326 C320 1.404 . S
C326 H324 0.949 . S
C326 C325 1.385 . S
H327 C325 0.950 . S
H328 C312 0.951 . S
H329 C314 0.951 . S
H330 C316 0.951 . S
H331 C317 0.950 . S
H332 C318 0.950 . S
H333 C319 0.950 1_565 S
H334 C321 0.950 . S
H335 C322 0.951 . S
C336 C337 1.386 . S
C336 C338 1.383 . S
C336 H352 0.951 . S
C337 C336 1.386 . S
C337 C341 1.383 . S
C338 C336 1.383 . S
C338 C339 1.402 . S
C338 H353 0.951 . S
C339 C338 1.402 . S
C339 C340 1.375 . S
C339 C342 1.481 . S
C340 C339 1.375 . S
C340 C341 1.367 . S
C340 H354 0.951 . S
C341 C337 1.383 . S
C341 C340 1.367 . S
C341 H355 0.950 . S
C342 C339 1.481 . S
C342 C343 1.297 . S
C342 H356 0.950 . S
C343 C342 1.297 . S
C343 C344 1.479 . S
C343 H357 0.950 . S
C344 C343 1.479 . S
C344 C345 1.375 . S
C344 C350 1.404 . S
C345 C344 1.375 . S
C345 C346 1.369 . S
C345 H358 0.950 . S
C346 C345 1.369 . S
C346 C347 1.392 . S
C346 H359 0.951 . S
C347 C346 1.392 . S
C347 C349 1.384 . S
H348 C350 0.949 . S
C349 C347 1.384 . S
C349 C350 1.385 . S
C349 H351 0.950 . S
C350 C344 1.404 . S
C350 H348 0.949 . S
C350 C349 1.385 . S
H351 C349 0.950 . S
H352 C336 0.951 . S
H353 C338 0.951 . S
H354 C340 0.951 . S
H355 C341 0.950 . S
H356 C342 0.950 . S
H357 C343 0.950 . S
H358 C345 0.950 . S
H359 C346 0.951 . S
C360 C361 1.386 . S
C360 C362 1.383 . S
C360 H376 0.951 . S
C361 C360 1.386 . S
C361 C365 1.383 . S
C362 C360 1.383 . S
C362 C363 1.402 . S
C362 H377 0.951 . S
C363 C362 1.402 . S
C363 C364 1.375 . S
C363 C366 1.481 . S
C364 C363 1.375 . S
C364 C365 1.367 . S
C364 H378 0.951 . S
C365 C361 1.383 . S
C365 C364 1.367 . S
C365 H379 0.950 . S
C366 C363 1.481 . S
C366 C367 1.297 1_556 S
C366 H380 0.950 . S
C367 C366 1.297 1_554 S
C367 C368 1.479 . S
C367 H381 0.950 . S
C368 C367 1.479 . S
C368 C369 1.375 . S
C368 C374 1.404 . S
C369 C368 1.375 . S
C369 C370 1.369 . S
C369 H382 0.950 . S
C370 C369 1.369 . S
C370 C371 1.392 . S
C370 H383 0.951 . S
C371 C370 1.392 . S
C371 C373 1.384 . S
H372 C374 0.949 . S
C373 C371 1.384 . S
C373 C374 1.385 . S
C373 H375 0.950 . S
C374 C368 1.404 . S
C374 H372 0.949 . S
C374 C373 1.385 . S
H375 C373 0.950 . S
H376 C360 0.951 . S
H377 C362 0.951 . S
H378 C364 0.951 . S
H379 C365 0.950 . S
H380 C366 0.950 . S
H381 C367 0.950 . S
H382 C369 0.950 . S
H383 C370 0.951 . S
C384 C385 1.386 . S
C384 C386 1.383 . S
C384 H400 0.951 . S
C385 C384 1.386 . S
C385 C389 1.383 . S
C386 C384 1.383 . S
C386 C387 1.402 . S
C386 H401 0.951 . S
C387 C386 1.402 . S
C387 C388 1.375 . S
C387 C390 1.481 . S
C388 C387 1.375 . S
C388 C389 1.367 . S
C388 H402 0.951 . S
C389 C385 1.383 . S
C389 C388 1.367 . S
C389 H403 0.950 . S
C390 C387 1.481 . S
C390 C391 1.297 . S
C390 H404 0.950 . S
C391 C390 1.297 . S
C391 C392 1.479 . S
C391 H405 0.950 . S
C392 C391 1.479 . S
C392 C393 1.375 . S
C392 C398 1.404 . S
C393 C392 1.375 . S
C393 C394 1.369 . S
C393 H406 0.950 . S
C394 C393 1.369 . S
C394 C395 1.392 . S
C394 H407 0.951 . S
C395 C394 1.392 . S
C395 C397 1.384 . S
H396 C398 0.949 . S
C397 C395 1.384 . S
C397 C398 1.385 . S
C397 H399 0.950 . S
C398 C392 1.404 . S
C398 H396 0.949 . S
C398 C397 1.385 . S
H399 C397 0.950 . S
H400 C384 0.951 . S
H401 C386 0.951 . S
H402 C388 0.951 . S
H403 C389 0.950 . S
H404 C390 0.950 . S
H405 C391 0.950 . S
H406 C393 0.950 . S
H407 C394 0.951 . S
C408 C409 1.386 . S
C408 C410 1.383 . S
C408 H424 0.951 . S
C409 C408 1.386 . S
C409 C413 1.383 . S
C410 C408 1.383 . S
C410 C411 1.402 . S
C410 H425 0.951 . S
C411 C410 1.402 . S
C411 C412 1.375 . S
C411 C414 1.481 . S
C412 C411 1.375 . S
C412 C413 1.367 . S
C412 H426 0.951 . S
C413 C409 1.383 . S
C413 C412 1.367 . S
C413 H427 0.950 . S
C414 C411 1.481 . S
C414 C415 1.297 . S
C414 H428 0.950 . S
C415 C414 1.297 . S
C415 C416 1.479 . S
C415 H429 0.950 . S
C416 C415 1.479 . S
C416 C417 1.375 . S
C416 C422 1.404 . S
C417 C416 1.375 . S
C417 C418 1.369 . S
C417 H430 0.950 . S
C418 C417 1.369 . S
C418 C419 1.392 . S
C418 H431 0.951 . S
C419 C418 1.392 . S
C419 C421 1.384 . S
H420 C422 0.949 . S
C421 C419 1.384 . S
C421 C422 1.385 . S
C421 H423 0.950 . S
C422 C416 1.404 . S
C422 H420 0.949 . S
C422 C421 1.385 . S
H423 C421 0.950 . S
H424 C408 0.951 . S
H425 C410 0.951 . S
H426 C412 0.951 . S
H427 C413 0.950 . S
H428 C414 0.950 . S
H429 C415 0.950 . S
H430 C417 0.950 . S
H431 C418 0.951 . S
C432 C433 1.386 . S
C432 C434 1.383 . S
C432 H448 0.951 . S
C433 C432 1.386 . S
C433 C437 1.383 . S
C434 C432 1.383 . S
C434 C435 1.402 . S
C434 H449 0.951 . S
C435 C434 1.402 . S
C435 C436 1.375 . S
C435 C438 1.481 . S
C436 C435 1.375 . S
C436 C437 1.367 . S
C436 H450 0.951 . S
C437 C433 1.383 . S
C437 C436 1.367 . S
C437 H451 0.950 . S
C438 C435 1.481 . S
C438 C439 1.297 1_556 S
C438 H452 0.950 . S
C439 C438 1.297 1_554 S
C439 C440 1.479 . S
C439 H453 0.950 . S
C440 C439 1.479 . S
C440 C441 1.375 . S
C440 C446 1.404 . S
C441 C440 1.375 . S
C441 C442 1.369 . S
C441 H454 0.950 . S
C442 C441 1.369 . S
C442 C443 1.392 . S
C442 H455 0.951 . S
C443 C442 1.392 . S
C443 C445 1.384 . S
H444 C446 0.949 . S
C445 C443 1.384 . S
C445 C446 1.385 . S
C445 H447 0.950 . S
C446 C440 1.404 . S
C446 H444 0.949 . S
C446 C445 1.385 . S
H447 C445 0.950 . S
H448 C432 0.951 . S
H449 C434 0.951 . S
H450 C436 0.951 . S
H451 C437 0.950 . S
H452 C438 0.950 . S
H453 C439 0.950 . S
H454 C441 0.950 . S
H455 C442 0.951 . S
C456 C457 1.386 . S
C456 C458 1.383 . S
C456 H472 0.951 . S
C457 C456 1.386 . S
C457 C461 1.383 . S
C458 C456 1.383 . S
C458 C459 1.402 . S
C458 H473 0.951 . S
C459 C458 1.402 . S
C459 C460 1.375 . S
C459 C462 1.481 . S
C460 C459 1.375 . S
C460 C461 1.367 . S
C460 H474 0.951 . S
C461 C457 1.383 . S
C461 C460 1.367 . S
C461 H475 0.950 . S
C462 C459 1.481 . S
C462 C463 1.297 . S
C462 H476 0.950 . S
C463 C462 1.297 . S
C463 C464 1.479 . S
C463 H477 0.950 . S
C464 C463 1.479 . S
C464 C465 1.375 . S
C464 C470 1.404 . S
C465 C464 1.375 . S
C465 C466 1.369 . S
C465 H478 0.950 . S
C466 C465 1.369 . S
C466 C467 1.392 . S
C466 H479 0.951 . S
C467 C466 1.392 . S
C467 C469 1.384 . S
H468 C470 0.949 . S
C469 C467 1.384 . S
C469 C470 1.385 . S
C469 H471 0.950 . S
C470 C464 1.404 . S
C470 H468 0.949 . S
C470 C469 1.385 . S
H471 C469 0.950 . S
H472 C456 0.951 . S
H473 C458 0.951 . S
H474 C460 0.951 . S
H475 C461 0.950 . S
H476 C462 0.950 . S
H477 C463 0.950 . S
H478 C465 0.950 . S
H479 C466 0.951 . S
C480 C481 1.386 . S
C480 C482 1.383 . S
C480 H496 0.951 . S
C481 C480 1.386 . S
C481 C485 1.383 . S
C482 C480 1.383 . S
C482 C483 1.402 . S
C482 H497 0.951 . S
C483 C482 1.402 . S
C483 C484 1.375 . S
C483 C486 1.481 . S
C484 C483 1.375 . S
C484 C485 1.367 . S
C484 H498 0.951 . S
C485 C481 1.383 . S
C485 C484 1.367 . S
C485 H499 0.950 . S
C486 C483 1.481 . S
C486 C487 1.297 . S
C486 H500 0.950 . S
C487 C486 1.297 . S
C487 C488 1.479 . S
C487 H501 0.950 . S
C488 C487 1.479 . S
C488 C489 1.375 . S
C488 C494 1.404 . S
C489 C488 1.375 . S
C489 C490 1.369 . S
C489 H502 0.950 . S
C490 C489 1.369 . S
C490 C491 1.392 . S
C490 H503 0.951 . S
C491 C490 1.392 . S
C491 C493 1.384 . S
H492 C494 0.949 . S
C493 C491 1.384 . S
C493 C494 1.385 . S
C493 H495 0.950 . S
C494 C488 1.404 . S
C494 H492 0.949 . S
C494 C493 1.385 . S
H495 C493 0.950 . S
H496 C480 0.951 . S
H497 C482 0.951 . S
H498 C484 0.951 . S
H499 C485 0.950 . S
H500 C486 0.950 . S
H501 C487 0.950 . S
H502 C489 0.950 . S
H503 C490 0.951 . S
C217 C3 1.422 . S
C227 C111 1.422 . S
C241 C39 1.404 . S
C251 C147 1.411 . S
C265 C76 1.409 . S
C275 C184 1.363 . S
C289 C40 1.403 . S
C299 C148 1.355 . S
C313 C183 1.406 . S
C323 C75 1.407 . S
C337 C112 1.415 . S
C347 C4 1.363 . S
C361 C74 1.055 . S
C371 C2 1.136 . S
C385 C122 1.092 . S
C395 C38 0.998 . S
C409 C86 1.161 . S
C419 C158 1.194 . S
C433 C182 1.114 . S
C443 C110 1.099 . S
C457 C146 1.121 . S
C467 C14 1.164 . S
C481 C194 1.120 . S
C491 C50 1.146 . S
