# Generated by pormake.
# Topology bsn, (6)-cn, num edge types: 1
# Building blocks:
#     Node 0, Type 0, BuildingBlock: BETDEL_clean_sbu_0, # of connection points: 6
#     Node 1, Type 0, BuildingBlock: BETDEL_clean_sbu_0, # of connection points: 6
#     Node 2, Type 0, BuildingBlock: BETDEL_clean_sbu_0, # of connection points: 6
#     Node 3, Type 0, BuildingBlock: BETDEL_clean_sbu_0, # of connection points: 6
#     Edge 4, Type (0, 0), BuildingBlock: XUDNAN_clean_linker_2, # of connection points: 2
#     Edge 5, Type (0, 0), BuildingBlock: XUDNAN_clean_linker_2, # of connection points: 2
#     Edge 6, Type (0, 0), BuildingBlock: XUDNAN_clean_linker_2, # of connection points: 2
#     Edge 7, Type (0, 0), BuildingBlock: XUDNAN_clean_linker_2, # of connection points: 2
#     Edge 8, Type (0, 0), BuildingBlock: XUDNAN_clean_linker_2, # of connection points: 2
#     Edge 9, Type (0, 0), BuildingBlock: XUDNAN_clean_linker_2, # of connection points: 2
#     Edge 10, Type (0, 0), BuildingBlock: XUDNAN_clean_linker_2, # of connection points: 2
#     Edge 11, Type (0, 0), BuildingBlock: XUDNAN_clean_linker_2, # of connection points: 2
#     Edge 12, Type (0, 0), BuildingBlock: XUDNAN_clean_linker_2, # of connection points: 2
#     Edge 13, Type (0, 0), BuildingBlock: XUDNAN_clean_linker_2, # of connection points: 2
#     Edge 14, Type (0, 0), BuildingBlock: XUDNAN_clean_linker_2, # of connection points: 2
#     Edge 15, Type (0, 0), BuildingBlock: XUDNAN_clean_linker_2, # of connection points: 2
# Relax obj value: 0.363
# Max RMSD: 0.267
# Mean RMSD: 0.267
data_MOF--net-bsn--node1-BETDEL_clean_sbu_0--edge1-XUDNAN_clean_linker_2
_symmetry_space_group_name_H-M    P1
_symmetry_Int_Tables_number       1
_symmetry_cell_setting            triclinic
loop_
_symmetry_equiv_pos_as_xyz
'x, y, z'
_cell_length_a     32.338058
_cell_length_b     32.415372
_cell_length_c     14.305325
_cell_angle_alpha  94.143498
_cell_angle_beta   91.285826
_cell_angle_gamma 89.760255
loop_
_atom_site_label
_atom_site_type_symbol
_atom_site_fract_x
_atom_site_fract_y
_atom_site_fract_z
_atom_type_partial_charge
Dy0 Dy 0.08058 0.26013 0.31679 0.0
C1 C 0.90459 0.27572 0.36705 0.0
C2 C 0.15616 0.25108 0.23589 0.0
Dy3 Dy 0.9873 0.26113 0.34117 0.0
O4 O 0.14873 0.27336 0.31279 0.0
O5 O 0.12234 0.23319 0.20346 0.0
O6 O 0.09499 0.28658 0.45989 0.0
O7 O 0.04054 0.25082 0.43612 0.0
C8 C 0.06047 0.27491 0.49456 0.0
C9 C 1.0141 0.25481 0.16307 0.0
O10 O 1.00453 0.32671 0.38683 0.0
O11 O 0.06605 0.32724 0.30738 0.0
O12 O 0.92099 0.23988 0.34432 0.0
O13 O 0.93367 0.30309 0.37999 0.0
O14 O 0.98078 0.23714 0.18786 0.0
O15 O 0.02849 0.27635 0.23159 0.0
O16 O 0.06708 0.19204 0.326 0.0
O17 O 1.00102 0.19764 0.38632 0.0
C18 C 0.03659 0.3468 0.35633 0.0
C19 C 0.03405 0.17532 0.36187 0.0
Dy20 Dy 1.0154 0.81281 0.60901 0.0
C21 C 0.03065 0.63758 0.59987 0.0
C22 C 0.02773 0.89284 0.56778 0.0
Dy23 Dy 1.01163 0.71983 0.61159 0.0
O24 O 0.03881 0.87716 0.6455 0.0
O25 O 1.00977 0.86468 0.51167 0.0
O26 O 0.97764 0.82261 0.73636 0.0
O27 O 1.01619 0.77071 0.72211 0.0
C28 C 0.98943 0.78897 0.77342 0.0
C29 C 1.0068 0.74985 0.44191 0.0
O30 O 0.94594 0.73467 0.64019 0.0
O31 O 0.94868 0.79707 0.57044 0.0
O32 O 0.05268 0.66679 0.56924 0.0
O33 O 0.99773 0.65326 0.64022 0.0
O34 O 0.98559 0.71871 0.46495 0.0
O35 O 0.03045 0.76251 0.50849 0.0
O36 O 0.08247 0.79968 0.6447 0.0
O37 O 0.0727 0.73224 0.68315 0.0
C38 C 0.92736 0.76674 0.60489 0.0
C39 C 0.09631 0.76536 0.68035 0.0
Dy40 Dy 0.5604 0.76404 0.86106 0.0
C41 C 0.38428 0.78069 0.90402 0.0
C42 C 0.63582 0.76835 0.78047 0.0
Dy43 Dy 0.46801 0.77775 0.88235 0.0
O44 O 0.6289 0.75088 0.85765 0.0
O45 O 0.60162 0.78336 0.74762 0.0
O46 O 0.56792 0.7321 -0.00895 0.0
O47 O 0.52092 0.77768 -0.01768 0.0
C48 C 0.53559 0.74936 0.03033 0.0
C49 C 0.49783 0.78136 0.70828 0.0
O50 O 0.49023 0.83618 0.95735 0.0
O51 O 0.55654 0.8336 0.899 0.0
O52 O 0.40566 0.80668 0.86039 0.0
O53 O 0.40887 0.75356 0.93873 0.0
O54 O 0.46811 0.80483 0.73979 0.0
O55 O 0.50758 0.757 0.76857 0.0
O56 O 0.53855 0.69855 0.82783 0.0
O57 O 0.47205 0.7089 0.88408 0.0
C58 C 0.52615 0.85396 0.9438 0.0
C59 C 0.50249 0.68408 0.85425 0.0
Dy60 Dy 0.52814 0.32035 0.07739 0.0
C61 C 0.55442 0.14653 0.12766 0.0
C62 C 0.5125 0.39575 0.00978 0.0
Dy63 Dy 0.53857 0.22737 0.0974 0.0
O64 O 0.49123 0.3791 0.073 0.0
O65 O 0.5426 0.37129 -0.0168 0.0
O66 O 0.54565 0.33825 0.22436 0.0
O67 O 0.51745 0.27982 0.19137 0.0
C68 C 0.53625 0.30266 0.25455 0.0
C69 C 0.53358 0.25138 0.92105 0.0
O70 O 0.47017 0.23013 0.10281 0.0
O71 O 0.46352 0.29556 0.04721 0.0
O72 O 0.57028 0.16665 0.06208 0.0
O73 O 0.5306 0.17099 0.17875 0.0
O74 O 0.51818 0.21695 0.94493 0.0
O75 O 0.5522 0.26925 -0.00982 0.0
O76 O 0.59709 0.3175 0.09902 0.0
O77 O 0.60004 0.2512 0.15176 0.0
C78 C 0.44744 0.26035 0.07149 0.0
C79 C 0.61744 0.28716 0.13795 0.0
H80 H 0.98072 0.40047 0.44436 0.0
H81 H 0.1056 0.39341 0.33805 0.0
H82 H 0.11826 0.46493 0.40109 0.0
H83 H 0.96203 0.50654 0.39134 0.0
H84 H 0.93244 0.51902 0.49494 0.0
H85 H 0.93323 0.46677 0.44287 0.0
H86 H 0.9582 0.44098 0.60183 0.0
H87 H 0.95812 0.49327 0.65407 0.0
H88 H 1.00455 0.46242 0.65803 0.0
H89 H 0.11859 0.53576 0.47653 0.0
H90 H 0.10387 0.60613 0.54353 0.0
H91 H 0.97821 0.57007 0.59941 0.0
C92 C 1.01064 0.41407 0.43385 0.0
C93 C 0.04218 0.39118 0.38616 0.0
C94 C 0.08084 0.41021 0.37377 0.0
C95 C 0.08849 0.45078 0.41003 0.0
C96 C 0.05713 0.47212 0.45812 0.0
C97 C 1.01875 0.45484 0.46897 0.0
C98 C 0.99006 0.48548 0.52064 0.0
C99 C 0.95221 0.49502 0.45874 0.0
C100 C 0.97697 0.46957 0.6142 0.0
C101 C 1.01835 0.52273 0.53646 0.0
C102 C 0.05703 0.51388 0.50076 0.0
C103 C 0.08845 0.54312 0.50471 0.0
C104 C 0.07979 0.58298 0.54321 0.0
C105 C 0.03998 0.59345 0.57688 0.0
C106 C 1.00907 0.56268 0.57545 0.0
H107 H 0.70852 0.73176 0.83153 0.0
H108 H 0.65485 0.81245 0.63212 0.0
H109 H 0.72339 0.81974 0.56177 0.0
H110 H 0.80484 0.78459 0.86861 0.0
H111 H 0.83504 0.73803 0.87599 0.0
H112 H 0.7817 0.7389 0.90955 0.0
H113 H 0.76651 0.67597 0.79161 0.0
H114 H 0.81983 0.67496 0.75768 0.0
H115 H 0.77927 0.67865 0.67016 0.0
H116 H 0.79884 0.82093 0.51868 0.0
H117 H 0.87461 0.81319 0.50174 0.0
H118 H 0.8777 0.72918 0.72466 0.0
C119 C 0.71124 0.75084 0.77288 0.0
C120 C 0.67656 0.77167 0.73728 0.0
C121 C 0.68115 0.79626 0.66033 0.0
C122 C 0.71991 0.80059 0.61999 0.0
C123 C 0.75363 0.77978 0.65694 0.0
C124 C 0.7496 0.75515 0.73123 0.0
C125 C 0.79062 0.73604 0.75772 0.0
C126 C 0.80382 0.75025 0.85895 0.0
C127 C 0.78894 0.68859 0.7434 0.0
C128 C 0.8184 0.75406 0.68737 0.0
C129 C 0.7966 0.77938 0.63009 0.0
C130 C 0.81616 0.80082 0.56247 0.0
C131 C 0.85915 0.79631 0.55342 0.0
C132 C 0.88191 0.77022 0.61101 0.0
C133 C 0.86105 0.74873 0.6783 0.0
H134 H 0.56647 0.4511 0.94191 0.0
H135 H 0.43715 0.4318 -0.00097 0.0
H136 H 0.42008 0.50068 0.94545 0.0
H137 H 0.56794 0.55538 0.03215 0.0
H138 H 0.60344 0.57289 0.94821 0.0
H139 H 0.60498 0.51994 -0.02175 0.0
H140 H 0.59533 0.4952 0.80283 0.0
H141 H 0.5936 0.5482 0.77233 0.0
H142 H 0.55171 0.51361 0.73688 0.0
H143 H 0.41717 0.57206 0.89589 0.0
H144 H 0.42885 0.64484 0.86731 0.0
H145 H 0.5609 0.6213 0.84986 0.0
C146 C 0.53452 0.46122 0.94112 0.0
C147 C 0.50292 0.43614 0.97324 0.0
C148 C 0.46164 0.45061 0.97413 0.0
C149 C 0.45166 0.48953 0.94335 0.0
C150 C 0.48344 0.51383 0.91303 0.0
C151 C 0.52412 0.50057 0.91253 0.0
C152 C 0.55273 0.53471 0.88604 0.0
C153 C 0.58411 0.54642 0.96593 0.0
C154 C 0.57463 0.52217 0.79403 0.0
C155 C 0.52179 0.56934 0.87326 0.0
C156 C 0.48197 0.55618 0.88759 0.0
C157 C 0.44816 0.5827 0.88397 0.0
C158 C 0.45519 0.6241 0.86779 0.0
C159 C 0.49582 0.63892 0.85624 0.0
C160 C 0.52945 0.61084 0.85699 0.0
H161 H 0.84081 0.2218 0.32543 0.0
H162 H 0.86905 0.35232 0.37489 0.0
H163 H 0.79792 0.36988 0.32437 0.0
H164 H 0.78194 0.2287 0.12103 0.0
H165 H 0.74417 0.19043 0.14558 0.0
H166 H 0.79572 0.18776 0.19485 0.0
H167 H 0.76649 0.1888 0.36223 0.0
H168 H 0.71474 0.19068 0.31329 0.0
H169 H 0.73172 0.22971 0.40179 0.0
H170 H 0.72611 0.3731 0.25115 0.0
H171 H 0.65649 0.36155 0.17889 0.0
H172 H 0.6749 0.22892 0.18147 0.0
C173 C 0.83164 0.25403 0.32803 0.0
C174 C 0.86029 0.28572 0.35444 0.0
C175 C 0.84742 0.32756 0.35568 0.0
C176 C 0.80715 0.33784 0.32662 0.0
C177 C 0.78004 0.30587 0.29763 0.0
C178 C 0.79148 0.26479 0.29994 0.0
C179 C 0.75693 0.23635 0.26258 0.0
C180 C 0.77052 0.20923 0.17587 0.0
C181 C 0.74156 0.20983 0.33957 0.0
C182 C 0.72469 0.26781 0.23672 0.0
C183 C 0.73856 0.30776 0.25725 0.0
C184 C 0.71472 0.34194 0.23588 0.0
C185 C 0.67538 0.33508 0.19407 0.0
C186 C 0.66021 0.29437 0.17456 0.0
C187 C 0.68545 0.26044 0.19601 0.0
H188 H 0.39116 0.31157 0.15833 0.0
H189 H 0.4029 0.19634 -0.01199 0.0
H190 H 0.32773 0.18382 0.00119 0.0
H191 H 0.32451 0.27157 0.3193 0.0
H192 H 0.29443 0.31817 0.33951 0.0
H193 H 0.3474 0.32126 0.30477 0.0
H194 H 0.32476 0.36199 0.1628 0.0
H195 H 0.27167 0.35932 0.19755 0.0
H196 H 0.28597 0.34047 0.08107 0.0
H197 H 0.2516 0.18293 0.03837 0.0
H198 H 0.18203 0.19071 0.10693 0.0
H199 H 0.22208 0.30296 0.26579 0.0
C200 C 0.37749 0.28438 0.12164 0.0
C201 C 0.40222 0.25537 0.07007 0.0
C202 C 0.38402 0.21916 0.02633 0.0
C203 C 0.34147 0.21187 0.03348 0.0
C204 C 0.31787 0.24073 0.0863 0.0
C205 C 0.33532 0.27609 0.13037 0.0
C206 C 0.30427 0.29988 0.19115 0.0
C207 C 0.31851 0.30287 0.2948 0.0
C208 C 0.29619 0.34297 0.15601 0.0
C209 C 0.26672 0.27229 0.17502 0.0
C210 C 0.27493 0.23874 0.11294 0.0
C211 C 0.24486 0.20906 0.08711 0.0
C212 C 0.20551 0.21369 0.1263 0.0
C213 C 0.19697 0.2472 0.19196 0.0
C214 C 0.22796 0.27686 0.21619 0.0
H215 H 0.33111 0.82852 0.80715 0.0
H216 H 0.33546 0.72466 -0.01782 0.0
H217 H 0.2608 0.71275 0.95104 0.0
H218 H 0.22476 0.8642 0.8685 0.0
H219 H 0.21303 0.87758 0.75066 0.0
H220 H 0.26542 0.88117 0.79619 0.0
H221 H 0.28978 0.8332 0.65532 0.0
H222 H 0.23749 0.82899 0.60999 0.0
H223 H 0.26642 0.78296 0.63253 0.0
H224 H 0.18897 0.70713 0.88737 0.0
H225 H 0.12218 0.71015 0.80359 0.0
H226 H 0.16291 0.81836 0.66879 0.0
C227 C 0.31604 0.80399 0.84096 0.0
C228 C 0.33882 0.77764 0.89774 0.0
C229 C 0.31839 0.74536 0.93924 0.0
C230 C 0.27607 0.73835 0.92177 0.0
C231 C 0.25474 0.76407 0.86308 0.0
C232 C 0.27381 0.79656 0.8241 0.0
C233 C 0.24432 0.8179 0.75885 0.0
C234 C 0.23641 0.86288 0.79579 0.0
C235 C 0.26048 0.8156 0.65823 0.0
C236 C 0.20598 0.79161 0.76534 0.0
C237 C 0.2128 0.7609 0.82624 0.0
C238 C 0.18306 0.73134 0.8405 0.0
C239 C 0.14524 0.73323 0.79176 0.0
C240 C 0.13717 0.76453 0.72925 0.0
C241 C 0.16799 0.79428 0.71648 0.0
H242 H 0.57327 0.91864 0.88954 0.0
H243 H 0.49568 0.88102 0.11162 0.0
H244 H 0.50347 0.94971 0.19487 0.0
H245 H 0.64251 0.98933 0.04019 0.0
H246 H 0.64448 0.02677 0.95317 0.0
H247 H 0.63846 0.9726 0.91738 0.0
H248 H 0.57187 0.98902 0.82273 0.0
H249 H 0.5778 0.04309 0.8579 0.0
H250 H 0.53038 1.01703 0.88104 0.0
H251 H 0.51269 0.0238 0.24591 0.0
H252 H 0.52011 0.09985 0.25668 0.0
H253 H 0.59078 0.09117 0.00181 0.0
C254 C 0.5588 0.92475 0.95669 0.0
C255 C 0.534 0.89459 -0.00566 0.0
C256 C 0.51469 0.90381 0.08135 0.0
C257 C 0.51919 0.94264 0.12963 0.0
C258 C 0.54303 0.97213 0.09 0.0
C259 C 0.56248 0.96382 0.00543 0.0
C260 C 0.58257 1.00248 0.97382 0.0
C261 C 0.62982 0.99749 0.971 0.0
C262 C 0.56456 1.01355 0.87825 0.0
C263 C 0.57009 0.03389 0.05204 0.0
C264 C 0.54799 1.01551 0.11925 0.0
C265 C 0.53055 0.03853 0.19465 0.0
C266 C 0.5349 0.08166 0.20028 0.0
C267 C 0.55627 0.1012 0.13062 0.0
C268 C 0.57492 0.07689 0.05698 0.0
H269 H 1.00318 0.9325 0.41133 0.0
H270 H 0.06663 0.9517 0.68144 0.0
H271 H 0.07678 0.02517 0.65428 0.0
H272 H 0.06733 1.00263 0.28819 0.0
H273 H 0.02476 0.02134 0.21945 0.0
H274 H 0.02359 0.96964 0.25797 0.0
H275 H 0.95344 0.98548 0.33697 0.0
H276 H 0.95439 0.03719 0.29873 0.0
H277 H 0.94921 0.0293 0.42137 0.0
H278 H 0.079 0.09626 0.60119 0.0
H279 H 0.07217 0.16208 0.52494 0.0
H280 H 1.00638 0.09882 0.2896 0.0
C281 C 1.01939 0.95222 0.46432 0.0
C282 C 0.03422 0.93648 0.54848 0.0
C283 C 0.05511 0.96313 0.61647 0.0
C284 C 0.06106 1.00489 0.60165 0.0
C285 C 0.04598 0.01958 0.51836 0.0
C286 C 0.02555 0.99421 0.45068 0.0
C287 C 1.01172 1.0184 0.36836 0.0
C288 C 0.03313 1.00202 0.27815 0.0
C289 C 0.96437 1.01754 0.35566 0.0
C290 C 0.02702 0.06136 0.40118 0.0
C291 C 0.04702 0.06109 0.48764 0.0
C292 C 0.06367 0.09685 0.53327 0.0
C293 C 0.05976 0.13396 0.48954 0.0
C294 C 0.0392 0.13506 0.40157 0.0
C295 C 0.02253 0.09843 0.35667 0.0
H296 H 0.98214 0.21735 -0.00309 0.0
H297 H 0.07339 0.3062 0.11214 0.0
H298 H 0.09088 0.32298 0.95357 0.0
H299 H 0.04451 0.18019 0.79766 0.0
H300 H 1.00088 0.17337 0.71754 0.0
H301 H 0.99435 0.16818 0.84089 0.0
H302 H 0.93645 0.22374 0.84297 0.0
H303 H 0.94314 0.22943 0.71984 0.0
H304 H 0.94724 0.27393 0.80264 0.0
H305 H 0.09693 0.33319 0.78835 0.0
H306 H 0.09916 0.32917 0.61662 0.0
H307 H 1.00741 0.23124 0.60029 0.0
C308 C 1.00589 0.24012 -0.0118 0.0
C309 C 0.02605 0.2609 0.06658 0.0
C310 C 0.05729 0.2902 0.05308 0.0
C311 C 0.06739 0.3001 0.96331 0.0
C312 C 0.04639 0.28 0.88762 0.0
C313 C 1.01695 0.25002 0.89823 0.0
C314 C 1.00074 0.23216 0.80336 0.0
C315 C 1.01072 0.18572 0.78904 0.0
C316 C 0.95412 0.24032 0.79155 0.0
C317 C 0.0256 0.2571 0.73863 0.0
C318 C 0.05125 0.28479 0.78958 0.0
C319 C 0.07731 0.31145 0.74731 0.0
C320 C 0.0783 0.30893 0.64982 0.0
C321 C 0.05373 0.27969 0.59575 0.0
C322 C 0.02635 0.25395 0.64037 0.0
H323 H 0.95512 0.73786 0.89415 0.0
H324 H 0.03596 0.84335 0.87882 0.0
H325 H 0.04734 0.84678 0.05061 0.0
H326 H 0.90776 0.77369 0.11492 0.0
H327 H 0.90526 0.72259 0.15648 0.0
H328 H 0.90259 0.72915 0.03247 0.0
H329 H 0.96478 0.67915 0.00704 0.0
H330 H 0.96764 0.67246 0.13086 0.0
H331 H 1.01247 0.6896 0.07198 0.0
H332 H 0.05278 0.83671 0.22087 0.0
H333 H 0.05079 0.81424 0.38224 0.0
H334 H 0.96428 0.7171 0.28845 0.0
C335 C 0.97494 0.76168 0.92769 0.0
C336 C 0.99459 0.79049 0.87497 0.0
C337 C 1.02053 0.8213 0.91954 0.0
C338 C 0.02716 0.82347 0.01655 0.0
C339 C 1.00732 0.79471 0.06736 0.0
C340 C 0.9816 0.76451 0.02486 0.0
C341 C 0.9646 0.73713 0.09598 0.0
C342 C 0.91724 0.74088 0.1002 0.0
C343 C 0.9782 0.69191 0.07521 0.0
C344 C 0.98535 0.75628 0.18449 0.0
C345 C 1.00981 0.78947 0.16641 0.0
C346 C 0.03338 0.81107 0.23638 0.0
C347 C 0.03204 0.79819 0.32758 0.0
C348 C 1.00709 0.76434 0.34732 0.0
C349 C 0.98329 0.74338 0.2751 0.0
H350 H 0.49089 0.80169 0.15211 0.0
H351 H 0.56498 0.68942 0.13397 0.0
H352 H 0.56342 0.68703 0.30499 0.0
H353 H 0.53748 0.84721 0.35997 0.0
H354 H 0.49064 0.86807 0.41075 0.0
H355 H 0.49457 0.86057 0.2853 0.0
H356 H 0.42887 0.81503 0.27571 0.0
H357 H 0.42411 0.82302 0.401 0.0
H358 H 0.42619 0.77123 0.34616 0.0
H359 H 0.56078 0.69962 0.47405 0.0
H360 H 0.54768 0.72044 0.63875 0.0
H361 H 0.47173 0.82292 0.55467 0.0
C362 C 0.50602 0.77627 0.18435 0.0
C363 C 0.52837 0.74589 0.13037 0.0
C364 C 0.548 0.71314 0.17442 0.0
C365 C 0.54737 0.71153 0.27142 0.0
C366 C 0.52656 0.74266 0.32321 0.0
C367 C 0.50546 0.77398 0.28185 0.0
C368 C 0.4858 0.80345 0.35554 0.0
C369 C 0.50318 0.84743 0.35268 0.0
C370 C 0.43842 0.80314 0.34391 0.0
C371 C 0.49974 0.78389 0.44432 0.0
C372 C 0.52358 0.74913 0.42316 0.0
C373 C 0.5416 0.72635 0.49186 0.0
C374 C 0.53408 0.7386 0.58525 0.0
C375 C 0.50832 0.773 0.60925 0.0
C376 C 0.49133 0.79636 0.53798 0.0
H377 H 0.49825 0.24565 0.3617 0.0
H378 H 0.59275 0.34072 0.36901 0.0
H379 H 0.60296 0.33576 0.53805 0.0
H380 H 0.45286 0.27819 0.57627 0.0
H381 H 0.44378 0.22733 0.61476 0.0
H382 H 0.44561 0.23479 0.49139 0.0
H383 H 0.50327 0.17938 0.47124 0.0
H384 H 0.50124 0.17135 0.59446 0.0
H385 H 0.54957 0.18438 0.54368 0.0
H386 H 0.59854 0.32739 0.70481 0.0
H387 H 0.58511 0.30971 0.86536 0.0
H388 H 0.49536 0.21777 0.75822 0.0
C389 C 0.52161 0.26464 0.399 0.0
C390 C 0.5445 0.29382 0.35271 0.0
C391 C 0.57458 0.3185 0.40343 0.0
C392 C 0.58073 0.31589 0.49949 0.0
C393 C 0.55681 0.28814 0.54408 0.0
C394 C 0.52832 0.26237 0.49607 0.0
C395 C 0.50617 0.23628 0.56348 0.0
C396 C 0.45933 0.24467 0.56132 0.0
C397 C 0.51563 0.1901 0.54193 0.0
C398 C 0.52601 0.25242 0.65635 0.0
C399 C 0.55508 0.28235 0.64267 0.0
C400 C 0.57635 0.30354 0.71672 0.0
C401 C 0.56829 0.29346 0.80771 0.0
C402 C 0.5394 0.26227 0.82402 0.0
C403 C 0.51786 0.24151 0.74738 0.0
loop_
_geom_bond_atom_site_label_1
_geom_bond_atom_site_label_2
_geom_bond_distance
_geom_bond_site_symmetry_2
_ccdc_geom_bond_type
Dy0 O4 2.398 . S
Dy0 O5 2.491 . S
Dy0 O6 2.403 . S
Dy0 O7 2.664 1_455 S
Dy0 O11 2.326 . S
Dy0 O15 2.310 . S
Dy0 O16 2.351 . S
C1 O12 1.185 . S
C1 O13 1.355 . S
C2 O4 1.185 . S
C2 O5 1.355 . S
Dy3 O7 2.310 . S
Dy3 O10 2.351 . S
Dy3 O12 2.398 . S
Dy3 O13 2.491 . S
Dy3 O14 2.403 . S
Dy3 O15 2.664 1_655 S
Dy3 O17 2.326 . S
O4 Dy0 2.398 . S
O4 C2 1.185 . S
O5 Dy0 2.491 . S
O5 C2 1.355 . S
O6 Dy0 2.403 . S
O6 C8 1.254 . S
O7 Dy0 2.664 1_655 S
O7 Dy3 2.310 . S
O7 C8 1.268 1_655 S
C8 O6 1.254 . S
C8 O7 1.268 1_455 S
C9 O14 1.254 . S
C9 O15 1.268 1_655 S
O10 Dy3 2.351 . S
O10 C18 1.249 1_655 S
O11 Dy0 2.326 . S
O11 C18 1.267 . S
O12 C1 1.185 . S
O12 Dy3 2.398 . S
O13 C1 1.355 . S
O13 Dy3 2.491 . S
O14 Dy3 2.403 . S
O14 C9 1.254 . S
O15 Dy0 2.310 . S
O15 Dy3 2.664 1_455 S
O15 C9 1.268 1_455 S
O16 Dy0 2.351 . S
O16 C19 1.249 1_455 S
O17 Dy3 2.326 . S
O17 C19 1.267 . S
C18 O10 1.249 1_455 S
C18 O11 1.267 . S
C19 O16 1.249 1_655 S
C19 O17 1.267 . S
Dy20 O24 2.398 1_455 S
Dy20 O25 2.491 1_455 S
Dy20 O26 2.403 . S
Dy20 O27 2.664 . S
Dy20 O31 2.326 1_455 S
Dy20 O35 2.310 1_455 S
Dy20 O36 2.351 . S
C21 O32 1.185 . S
C21 O33 1.355 . S
C22 O24 1.185 . S
C22 O25 1.355 . S
Dy23 O27 2.310 1_655 S
Dy23 O30 2.351 . S
Dy23 O32 2.398 1_655 S
Dy23 O33 2.491 1_655 S
Dy23 O34 2.403 . S
Dy23 O35 2.664 . S
Dy23 O37 2.326 1_655 S
O24 Dy20 2.398 1_655 S
O24 C22 1.185 . S
O25 Dy20 2.491 1_655 S
O25 C22 1.355 . S
O26 Dy20 2.403 . S
O26 C28 1.254 . S
O27 Dy20 2.664 . S
O27 Dy23 2.310 1_455 S
O27 C28 1.268 . S
C28 O26 1.254 . S
C28 O27 1.268 . S
C29 O34 1.254 . S
C29 O35 1.268 . S
O30 Dy23 2.351 . S
O30 C38 1.249 . S
O31 Dy20 2.326 1_655 S
O31 C38 1.267 . S
O32 C21 1.185 . S
O32 Dy23 2.398 1_455 S
O33 C21 1.355 . S
O33 Dy23 2.491 1_455 S
O34 Dy23 2.403 . S
O34 C29 1.254 . S
O35 Dy20 2.310 1_655 S
O35 Dy23 2.664 . S
O35 C29 1.268 . S
O36 Dy20 2.351 . S
O36 C39 1.249 . S
O37 Dy23 2.326 1_455 S
O37 C39 1.267 . S
C38 O30 1.249 . S
C38 O31 1.267 . S
C39 O36 1.249 . S
C39 O37 1.267 . S
Dy40 O44 2.398 . S
Dy40 O45 2.491 . S
Dy40 O46 2.403 1_556 S
Dy40 O47 2.664 . S
Dy40 O51 2.326 . S
Dy40 O55 2.310 . S
Dy40 O56 2.351 . S
C41 O52 1.185 . S
C41 O53 1.355 . S
C42 O44 1.185 . S
C42 O45 1.355 . S
Dy43 O47 2.310 . S
Dy43 O50 2.351 . S
Dy43 O52 2.398 . S
Dy43 O53 2.491 . S
Dy43 O54 2.403 . S
Dy43 O55 2.664 . S
Dy43 O57 2.326 . S
O44 Dy40 2.398 . S
O44 C42 1.185 . S
O45 Dy40 2.491 . S
O45 C42 1.355 . S
O46 Dy40 2.403 1_554 S
O46 C48 1.254 . S
O47 Dy40 2.664 . S
O47 Dy43 2.310 . S
O47 C48 1.268 1_556 S
C48 O46 1.254 . S
C48 O47 1.268 1_554 S
C49 O54 1.254 . S
C49 O55 1.268 . S
O50 Dy43 2.351 . S
O50 C58 1.249 . S
O51 Dy40 2.326 . S
O51 C58 1.267 . S
O52 C41 1.185 . S
O52 Dy43 2.398 . S
O53 C41 1.355 . S
O53 Dy43 2.491 . S
O54 Dy43 2.403 . S
O54 C49 1.254 . S
O55 Dy40 2.310 . S
O55 Dy43 2.664 . S
O55 C49 1.268 . S
O56 Dy40 2.351 . S
O56 C59 1.249 . S
O57 Dy43 2.326 . S
O57 C59 1.267 . S
C58 O50 1.249 . S
C58 O51 1.267 . S
C59 O56 1.249 . S
C59 O57 1.267 . S
Dy60 O64 2.398 . S
Dy60 O65 2.491 . S
Dy60 O66 2.403 . S
Dy60 O67 2.664 . S
Dy60 O71 2.326 . S
Dy60 O75 2.310 . S
Dy60 O76 2.351 . S
C61 O72 1.185 . S
C61 O73 1.355 . S
C62 O64 1.185 . S
C62 O65 1.355 . S
Dy63 O67 2.310 . S
Dy63 O70 2.351 . S
Dy63 O72 2.398 . S
Dy63 O73 2.491 . S
Dy63 O74 2.403 1_554 S
Dy63 O75 2.664 . S
Dy63 O77 2.326 . S
O64 Dy60 2.398 . S
O64 C62 1.185 . S
O65 Dy60 2.491 . S
O65 C62 1.355 . S
O66 Dy60 2.403 . S
O66 C68 1.254 . S
O67 Dy60 2.664 . S
O67 Dy63 2.310 . S
O67 C68 1.268 . S
C68 O66 1.254 . S
C68 O67 1.268 . S
C69 O74 1.254 . S
C69 O75 1.268 1_556 S
O70 Dy63 2.351 . S
O70 C78 1.249 . S
O71 Dy60 2.326 . S
O71 C78 1.267 . S
O72 C61 1.185 . S
O72 Dy63 2.398 . S
O73 C61 1.355 . S
O73 Dy63 2.491 . S
O74 Dy63 2.403 1_556 S
O74 C69 1.254 . S
O75 Dy60 2.310 . S
O75 Dy63 2.664 . S
O75 C69 1.268 1_554 S
O76 Dy60 2.351 . S
O76 C79 1.249 . S
O77 Dy63 2.326 . S
O77 C79 1.267 . S
C78 O70 1.249 . S
C78 O71 1.267 . S
C79 O76 1.249 . S
C79 O77 1.267 . S
H80 C92 0.930 1_655 S
H81 C94 0.930 . S
H82 C95 0.930 . S
H83 C99 0.959 . S
H84 C99 0.959 . S
H85 C99 0.961 . S
H86 C100 0.960 . S
H87 C100 0.961 . S
H88 C100 0.959 . S
H89 C103 0.929 . S
H90 C104 0.931 . S
H91 C106 0.931 . S
C92 H80 0.930 1_455 S
C92 C93 1.399 . S
C92 C97 1.399 . S
C93 C92 1.399 . S
C93 C94 1.376 . S
C94 H81 0.930 . S
C94 C93 1.376 . S
C94 C95 1.388 . S
C95 H82 0.930 . S
C95 C94 1.388 . S
C95 C96 1.390 . S
C96 C95 1.390 . S
C96 C97 1.394 . S
C96 C102 1.465 . S
C97 C92 1.399 . S
C97 C96 1.394 . S
C97 C98 1.516 . S
C98 C97 1.516 . S
C98 C99 1.502 1_455 S
C98 C100 1.561 . S
C98 C101 1.526 . S
C99 H83 0.959 . S
C99 H84 0.959 . S
C99 H85 0.961 . S
C99 C98 1.502 1_655 S
C100 H86 0.960 . S
C100 H87 0.961 . S
C100 H88 0.959 . S
C100 C98 1.561 . S
C101 C98 1.526 . S
C101 C102 1.396 . S
C101 C106 1.390 . S
C102 C96 1.465 . S
C102 C101 1.396 . S
C102 C103 1.399 . S
C103 H89 0.929 . S
C103 C102 1.399 . S
C103 C104 1.385 . S
C104 H90 0.931 . S
C104 C103 1.385 . S
C104 C105 1.389 . S
C105 C104 1.389 . S
C105 C106 1.387 . S
C106 H91 0.931 . S
C106 C101 1.390 . S
C106 C105 1.387 . S
H107 C119 0.930 . S
H108 C121 0.930 . S
H109 C122 0.930 . S
H110 C126 0.959 . S
H111 C126 0.959 . S
H112 C126 0.961 . S
H113 C127 0.960 . S
H114 C127 0.961 . S
H115 C127 0.959 . S
H116 C130 0.929 . S
H117 C131 0.931 . S
H118 C133 0.930 . S
C119 H107 0.930 . S
C119 C120 1.399 . S
C119 C124 1.399 . S
C120 C119 1.399 . S
C120 C121 1.376 . S
C121 H108 0.930 . S
C121 C120 1.376 . S
C121 C122 1.388 . S
C122 H109 0.930 . S
C122 C121 1.388 . S
C122 C123 1.390 . S
C123 C122 1.390 . S
C123 C124 1.394 . S
C123 C129 1.465 . S
C124 C119 1.399 . S
C124 C123 1.394 . S
C124 C125 1.516 . S
C125 C124 1.516 . S
C125 C126 1.502 . S
C125 C127 1.561 . S
C125 C128 1.526 . S
C126 H110 0.959 . S
C126 H111 0.959 . S
C126 H112 0.961 . S
C126 C125 1.502 . S
C127 H113 0.960 . S
C127 H114 0.961 . S
C127 H115 0.959 . S
C127 C125 1.561 . S
C128 C125 1.526 . S
C128 C129 1.396 . S
C128 C133 1.390 . S
C129 C123 1.465 . S
C129 C128 1.396 . S
C129 C130 1.399 . S
C130 H116 0.929 . S
C130 C129 1.399 . S
C130 C131 1.385 . S
C131 H117 0.931 . S
C131 C130 1.385 . S
C131 C132 1.389 . S
C132 C131 1.389 . S
C132 C133 1.387 . S
C133 H118 0.930 . S
C133 C128 1.390 . S
C133 C132 1.387 . S
H134 C146 0.930 1_556 S
H135 C148 0.930 . S
H136 C149 0.930 . S
H137 C153 0.959 . S
H138 C153 0.959 . S
H139 C153 0.961 . S
H140 C154 0.960 . S
H141 C154 0.961 . S
H142 C154 0.959 . S
H143 C157 0.929 . S
H144 C158 0.931 1_554 S
H145 C160 0.930 . S
C146 H134 0.930 1_554 S
C146 C147 1.399 . S
C146 C151 1.399 1_554 S
C147 C146 1.399 . S
C147 C148 1.376 . S
C148 H135 0.930 . S
C148 C147 1.376 . S
C148 C149 1.388 . S
C149 H136 0.930 . S
C149 C148 1.388 . S
C149 C150 1.390 . S
C150 C149 1.390 . S
C150 C151 1.394 1_554 S
C150 C156 1.465 . S
C151 C146 1.399 1_556 S
C151 C150 1.394 1_556 S
C151 C152 1.516 . S
C152 C151 1.516 . S
C152 C153 1.502 . S
C152 C154 1.561 . S
C152 C155 1.526 . S
C153 H137 0.959 . S
C153 H138 0.959 . S
C153 H139 0.961 . S
C153 C152 1.502 . S
C154 H140 0.960 . S
C154 H141 0.961 . S
C154 H142 0.959 . S
C154 C152 1.561 . S
C155 C152 1.526 . S
C155 C156 1.396 1_556 S
C155 C160 1.390 . S
C156 C150 1.465 . S
C156 C155 1.396 1_554 S
C156 C157 1.399 . S
C157 H143 0.929 . S
C157 C156 1.399 . S
C157 C158 1.385 1_554 S
C158 H144 0.931 1_556 S
C158 C157 1.385 1_556 S
C158 C159 1.389 . S
C159 C158 1.389 . S
C159 C160 1.387 . S
C160 H145 0.930 . S
C160 C155 1.390 . S
C160 C159 1.387 . S
H161 C173 0.930 . S
H162 C175 0.930 . S
H163 C176 0.930 . S
H164 C180 0.959 . S
H165 C180 0.959 . S
H166 C180 0.961 . S
H167 C181 0.960 . S
H168 C181 0.961 . S
H169 C181 0.959 . S
H170 C184 0.929 . S
H171 C185 0.931 . S
H172 C187 0.930 . S
C173 H161 0.930 . S
C173 C174 1.399 . S
C173 C178 1.399 . S
C174 C173 1.399 . S
C174 C175 1.376 . S
C175 H162 0.930 . S
C175 C174 1.376 . S
C175 C176 1.388 . S
C176 H163 0.930 . S
C176 C175 1.388 . S
C176 C177 1.390 . S
C177 C176 1.390 . S
C177 C178 1.394 . S
C177 C183 1.465 . S
C178 C173 1.399 . S
C178 C177 1.394 . S
C178 C179 1.516 . S
C179 C178 1.516 . S
C179 C180 1.502 . S
C179 C181 1.561 . S
C179 C182 1.526 . S
C180 H164 0.959 . S
C180 H165 0.959 . S
C180 H166 0.961 . S
C180 C179 1.502 . S
C181 H167 0.960 . S
C181 H168 0.961 . S
C181 H169 0.959 . S
C181 C179 1.561 . S
C182 C179 1.526 . S
C182 C183 1.396 . S
C182 C187 1.390 . S
C183 C177 1.465 . S
C183 C182 1.396 . S
C183 C184 1.399 . S
C184 H170 0.929 . S
C184 C183 1.399 . S
C184 C185 1.385 . S
C185 H171 0.931 . S
C185 C184 1.385 . S
C185 C186 1.389 . S
C186 C185 1.389 . S
C186 C187 1.387 . S
C187 H172 0.930 . S
C187 C182 1.390 . S
C187 C186 1.387 . S
H188 C200 0.930 . S
H189 C202 0.930 . S
H190 C203 0.930 . S
H191 C207 0.959 . S
H192 C207 0.959 . S
H193 C207 0.961 . S
H194 C208 0.960 . S
H195 C208 0.961 . S
H196 C208 0.959 . S
H197 C211 0.929 . S
H198 C212 0.931 . S
H199 C214 0.930 . S
C200 H188 0.930 . S
C200 C201 1.399 . S
C200 C205 1.399 . S
C201 C200 1.399 . S
C201 C202 1.376 . S
C202 H189 0.930 . S
C202 C201 1.376 . S
C202 C203 1.388 . S
C203 H190 0.930 . S
C203 C202 1.388 . S
C203 C204 1.390 . S
C204 C203 1.390 . S
C204 C205 1.394 . S
C204 C210 1.465 . S
C205 C200 1.399 . S
C205 C204 1.394 . S
C205 C206 1.516 . S
C206 C205 1.516 . S
C206 C207 1.502 . S
C206 C208 1.561 . S
C206 C209 1.526 . S
C207 H191 0.959 . S
C207 H192 0.959 . S
C207 H193 0.961 . S
C207 C206 1.502 . S
C208 H194 0.960 . S
C208 H195 0.961 . S
C208 H196 0.959 . S
C208 C206 1.561 . S
C209 C206 1.526 . S
C209 C210 1.396 . S
C209 C214 1.390 . S
C210 C204 1.465 . S
C210 C209 1.396 . S
C210 C211 1.399 . S
C211 H197 0.929 . S
C211 C210 1.399 . S
C211 C212 1.385 . S
C212 H198 0.931 . S
C212 C211 1.385 . S
C212 C213 1.389 . S
C213 C212 1.389 . S
C213 C214 1.387 . S
C214 H199 0.930 . S
C214 C209 1.390 . S
C214 C213 1.387 . S
H215 C227 0.930 . S
H216 C229 0.930 . S
H217 C230 0.930 . S
H218 C234 0.959 . S
H219 C234 0.959 . S
H220 C234 0.961 . S
H221 C235 0.960 . S
H222 C235 0.961 . S
H223 C235 0.959 . S
H224 C238 0.929 . S
H225 C239 0.931 . S
H226 C241 0.930 . S
C227 H215 0.930 . S
C227 C228 1.399 . S
C227 C232 1.399 . S
C228 C227 1.399 . S
C228 C229 1.376 . S
C229 H216 0.930 . S
C229 C228 1.376 . S
C229 C230 1.388 . S
C230 H217 0.930 . S
C230 C229 1.388 . S
C230 C231 1.390 . S
C231 C230 1.390 . S
C231 C232 1.394 . S
C231 C237 1.465 . S
C232 C227 1.399 . S
C232 C231 1.394 . S
C232 C233 1.516 . S
C233 C232 1.516 . S
C233 C234 1.502 . S
C233 C235 1.561 . S
C233 C236 1.526 . S
C234 H218 0.959 . S
C234 H219 0.959 . S
C234 H220 0.961 . S
C234 C233 1.502 . S
C235 H221 0.960 . S
C235 H222 0.961 . S
C235 H223 0.959 . S
C235 C233 1.561 . S
C236 C233 1.526 . S
C236 C237 1.396 . S
C236 C241 1.390 . S
C237 C231 1.465 . S
C237 C236 1.396 . S
C237 C238 1.399 . S
C238 H224 0.929 . S
C238 C237 1.399 . S
C238 C239 1.385 . S
C239 H225 0.931 . S
C239 C238 1.385 . S
C239 C240 1.389 . S
C240 C239 1.389 . S
C240 C241 1.387 . S
C241 H226 0.930 . S
C241 C236 1.390 . S
C241 C240 1.387 . S
H242 C254 0.930 . S
H243 C256 0.930 . S
H244 C257 0.930 . S
H245 C261 0.959 . S
H246 C261 0.959 1_545 S
H247 C261 0.961 . S
H248 C262 0.960 1_565 S
H249 C262 0.961 . S
H250 C262 0.960 . S
H251 C265 0.929 1_565 S
H252 C266 0.931 . S
H253 C268 0.930 1_556 S
C254 H242 0.930 . S
C254 C255 1.399 . S
C254 C259 1.399 . S
C255 C254 1.399 . S
C255 C256 1.376 1_556 S
C256 H243 0.930 . S
C256 C255 1.376 1_554 S
C256 C257 1.388 . S
C257 H244 0.930 . S
C257 C256 1.388 . S
C257 C258 1.390 . S
C258 C257 1.390 . S
C258 C259 1.394 1_554 S
C258 C264 1.465 . S
C259 C254 1.399 . S
C259 C258 1.394 1_556 S
C259 C260 1.516 . S
C260 C259 1.516 . S
C260 C261 1.502 . S
C260 C262 1.561 1_565 S
C260 C263 1.526 1_565 S
C261 H245 0.959 . S
C261 H246 0.959 1_565 S
C261 H247 0.961 . S
C261 C260 1.502 . S
C262 H248 0.960 1_545 S
C262 H249 0.961 . S
C262 H250 0.960 . S
C262 C260 1.561 1_545 S
C263 C260 1.526 1_545 S
C263 C264 1.396 1_546 S
C263 C268 1.390 1_556 S
C264 C258 1.465 . S
C264 C263 1.396 1_564 S
C264 C265 1.399 1_565 S
C265 H251 0.929 1_545 S
C265 C264 1.399 1_545 S
C265 C266 1.385 . S
C266 H252 0.931 . S
C266 C265 1.385 . S
C266 C267 1.389 . S
C267 C266 1.389 . S
C267 C268 1.387 . S
C268 H253 0.930 1_554 S
C268 C263 1.390 1_554 S
C268 C267 1.387 . S
H269 C281 0.930 . S
H270 C283 0.930 . S
H271 C284 0.930 . S
H272 C288 0.959 1_545 S
H273 C288 0.959 1_545 S
H274 C288 0.961 . S
H275 C289 0.960 . S
H276 C289 0.961 1_545 S
H277 C289 0.951 1_545 S
H278 C292 0.929 . S
H279 C293 0.931 . S
H280 C295 0.930 . S
C281 H269 0.930 . S
C281 C282 1.399 . S
C281 C286 1.399 . S
C282 C281 1.399 . S
C282 C283 1.376 . S
C283 H270 0.930 . S
C283 C282 1.376 . S
C283 C284 1.388 1_565 S
C284 H271 0.930 . S
C284 C283 1.388 1_545 S
C284 C285 1.390 . S
C285 C284 1.390 . S
C285 C286 1.394 1_545 S
C285 C291 1.465 . S
C286 C281 1.399 . S
C286 C285 1.394 1_565 S
C286 C287 1.516 1_565 S
C287 C286 1.516 1_545 S
C287 C288 1.502 1_645 S
C287 C289 1.561 1_545 S
C287 C290 1.526 . S
C288 H272 0.959 1_565 S
C288 H273 0.959 1_565 S
C288 H274 0.961 . S
C288 C287 1.502 1_465 S
C289 H275 0.960 . S
C289 H276 0.961 1_565 S
C289 H277 0.951 1_565 S
C289 C287 1.561 1_565 S
C290 C287 1.526 . S
C290 C291 1.396 . S
C290 C295 1.390 . S
C291 C285 1.465 . S
C291 C290 1.396 . S
C291 C292 1.399 . S
C292 H278 0.929 . S
C292 C291 1.399 . S
C292 C293 1.385 . S
C293 H279 0.931 . S
C293 C292 1.385 . S
C293 C294 1.389 . S
C294 C293 1.389 . S
C294 C295 1.387 . S
C295 H280 0.930 . S
C295 C290 1.390 . S
C295 C294 1.387 . S
H296 C308 0.930 . S
H297 C310 0.930 . S
H298 C311 0.930 1_556 S
H299 C315 0.959 . S
H300 C315 0.959 . S
H301 C315 0.961 . S
H302 C316 0.960 . S
H303 C316 0.961 . S
H304 C316 0.959 . S
H305 C319 0.929 . S
H306 C320 0.931 . S
H307 C322 0.930 . S
C308 H296 0.930 . S
C308 C309 1.404 . S
C308 C313 1.399 1_554 S
C309 C308 1.404 . S
C309 C310 1.370 1_455 S
C310 H297 0.930 . S
C310 C309 1.370 1_655 S
C310 C311 1.388 . S
C311 H298 0.930 1_554 S
C311 C310 1.388 . S
C311 C312 1.390 1_554 S
C312 C311 1.390 1_556 S
C312 C313 1.394 1_655 S
C312 C318 1.465 . S
C313 C308 1.399 1_556 S
C313 C312 1.394 1_455 S
C313 C314 1.516 . S
C314 C313 1.516 . S
C314 C315 1.502 . S
C314 C316 1.561 1_455 S
C314 C317 1.526 . S
C315 H299 0.959 . S
C315 H300 0.959 . S
C315 H301 0.961 . S
C315 C314 1.502 . S
C316 H302 0.960 . S
C316 H303 0.961 . S
C316 H304 0.959 . S
C316 C314 1.561 1_655 S
C317 C314 1.526 . S
C317 C318 1.396 1_455 S
C317 C322 1.390 . S
C318 C312 1.465 . S
C318 C317 1.396 1_655 S
C318 C319 1.399 . S
C319 H305 0.929 . S
C319 C318 1.399 . S
C319 C320 1.385 . S
C320 H306 0.931 . S
C320 C319 1.385 . S
C320 C321 1.389 . S
C321 C320 1.389 . S
C321 C322 1.387 1_655 S
C322 H307 0.930 . S
C322 C317 1.390 . S
C322 C321 1.387 1_455 S
H323 C335 0.930 . S
H324 C337 0.930 . S
H325 C338 0.930 . S
H326 C342 0.959 . S
H327 C342 0.959 . S
H328 C342 0.961 . S
H329 C343 0.960 . S
H330 C343 0.961 1_655 S
H331 C343 0.959 . S
H332 C346 0.929 . S
H333 C347 0.931 . S
H334 C349 0.930 . S
C335 H323 0.930 . S
C335 C336 1.399 1_655 S
C335 C340 1.399 1_556 S
C336 C335 1.399 1_455 S
C336 C337 1.376 . S
C337 H324 0.930 . S
C337 C336 1.376 . S
C337 C338 1.388 1_556 S
C338 H325 0.930 . S
C338 C337 1.388 1_554 S
C338 C339 1.390 . S
C339 C338 1.390 . S
C339 C340 1.394 1_455 S
C339 C345 1.465 . S
C340 C335 1.399 1_554 S
C340 C339 1.394 1_655 S
C340 C341 1.516 . S
C341 C340 1.516 . S
C341 C342 1.502 . S
C341 C343 1.561 1_655 S
C341 C344 1.526 . S
C342 H326 0.959 . S
C342 H327 0.959 . S
C342 H328 0.961 . S
C342 C341 1.502 . S
C343 H329 0.960 . S
C343 H330 0.961 1_455 S
C343 H331 0.959 . S
C343 C341 1.561 1_455 S
C344 C341 1.526 . S
C344 C345 1.396 1_655 S
C344 C349 1.390 . S
C345 C339 1.465 . S
C345 C344 1.396 1_455 S
C345 C346 1.399 . S
C346 H332 0.929 . S
C346 C345 1.399 . S
C346 C347 1.385 . S
C347 H333 0.931 . S
C347 C346 1.385 . S
C347 C348 1.389 . S
C348 C347 1.389 . S
C348 C349 1.387 1_455 S
C349 H334 0.930 . S
C349 C344 1.390 . S
C349 C348 1.387 1_655 S
H350 C362 0.930 . S
H351 C364 0.930 . S
H352 C365 0.930 . S
H353 C369 0.959 . S
H354 C369 0.959 . S
H355 C369 0.961 . S
H356 C370 0.960 . S
H357 C370 0.961 . S
H358 C370 0.959 . S
H359 C373 0.929 . S
H360 C374 0.931 . S
H361 C376 0.930 . S
C362 H350 0.930 . S
C362 C363 1.399 . S
C362 C367 1.399 . S
C363 C362 1.399 . S
C363 C364 1.376 . S
C364 H351 0.930 . S
C364 C363 1.376 . S
C364 C365 1.388 . S
C365 H352 0.930 . S
C365 C364 1.388 . S
C365 C366 1.390 . S
C366 C365 1.390 . S
C366 C367 1.394 . S
C366 C372 1.465 . S
C367 C362 1.399 . S
C367 C366 1.394 . S
C367 C368 1.516 . S
C368 C367 1.516 . S
C368 C369 1.502 . S
C368 C370 1.561 . S
C368 C371 1.526 . S
C369 H353 0.959 . S
C369 H354 0.959 . S
C369 H355 0.961 . S
C369 C368 1.502 . S
C370 H356 0.960 . S
C370 H357 0.961 . S
C370 H358 0.959 . S
C370 C368 1.561 . S
C371 C368 1.526 . S
C371 C372 1.396 . S
C371 C376 1.390 . S
C372 C366 1.465 . S
C372 C371 1.396 . S
C372 C373 1.399 . S
C373 H359 0.929 . S
C373 C372 1.399 . S
C373 C374 1.385 . S
C374 H360 0.931 . S
C374 C373 1.385 . S
C374 C375 1.389 . S
C375 C374 1.389 . S
C375 C376 1.387 . S
C376 H361 0.930 . S
C376 C371 1.390 . S
C376 C375 1.387 . S
H377 C389 0.930 . S
H378 C391 0.930 . S
H379 C392 0.930 . S
H380 C396 0.959 . S
H381 C396 0.959 . S
H382 C396 0.961 . S
H383 C397 0.960 . S
H384 C397 0.961 . S
H385 C397 0.959 . S
H386 C400 0.929 . S
H387 C401 0.931 . S
H388 C403 0.930 . S
C389 H377 0.930 . S
C389 C390 1.399 . S
C389 C394 1.399 . S
C390 C389 1.399 . S
C390 C391 1.376 . S
C391 H378 0.930 . S
C391 C390 1.376 . S
C391 C392 1.388 . S
C392 H379 0.930 . S
C392 C391 1.388 . S
C392 C393 1.390 . S
C393 C392 1.390 . S
C393 C394 1.394 . S
C393 C399 1.465 . S
C394 C389 1.399 . S
C394 C393 1.394 . S
C394 C395 1.516 . S
C395 C394 1.516 . S
C395 C396 1.502 . S
C395 C397 1.561 . S
C395 C398 1.526 . S
C396 H380 0.959 . S
C396 H381 0.959 . S
C396 H382 0.961 . S
C396 C395 1.502 . S
C397 H383 0.960 . S
C397 H384 0.961 . S
C397 H385 0.959 . S
C397 C395 1.561 . S
C398 C395 1.526 . S
C398 C399 1.396 . S
C398 C403 1.390 . S
C399 C393 1.465 . S
C399 C398 1.396 . S
C399 C400 1.399 . S
C400 H386 0.929 . S
C400 C399 1.399 . S
C400 C401 1.385 . S
C401 H387 0.931 . S
C401 C400 1.385 . S
C401 C402 1.389 . S
C402 C401 1.389 . S
C402 C403 1.387 . S
C403 H388 0.930 . S
C403 C398 1.390 . S
C403 C402 1.387 . S
C93 C18 1.783 . S
C105 C21 1.736 . S
C120 C42 1.787 . S
C132 C38 1.829 . S
C147 C62 1.911 . S
C159 C59 1.958 . S
C174 C1 1.753 . S
C186 C79 1.886 . S
C201 C78 1.809 . S
C213 C2 1.785 . S
C228 C41 1.821 . S
C240 C39 1.908 . S
C255 C58 1.719 . S
C267 C61 1.730 . S
C282 C22 1.908 . S
C294 C19 1.951 . S
C309 C9 0.838 1_455 S
C321 C8 0.939 1_655 S
C336 C28 0.858 . S
C348 C29 0.951 1_455 S
C363 C48 0.933 . S
C375 C49 0.882 . S
C390 C68 0.843 . S
C402 C69 0.952 . S
