# Generated by pormake.
# Topology vch, (7)-cn, num edge types: 1
# Building blocks:
#     Node 0, Type 0, BuildingBlock: NUHQUE_clean_sbu_2, # of connection points: 7
#     Node 1, Type 0, BuildingBlock: NUHQUE_clean_sbu_2, # of connection points: 7
#     Node 2, Type 0, BuildingBlock: NUHQUE_clean_sbu_2, # of connection points: 7
#     Node 3, Type 0, BuildingBlock: NUHQUE_clean_sbu_2, # of connection points: 7
#     Node 4, Type 0, BuildingBlock: NUHQUE_clean_sbu_2, # of connection points: 7
#     Node 5, Type 0, BuildingBlock: NUHQUE_clean_sbu_2, # of connection points: 7
#     Node 6, Type 0, BuildingBlock: NUHQUE_clean_sbu_2, # of connection points: 7
#     Node 7, Type 0, BuildingBlock: NUHQUE_clean_sbu_2, # of connection points: 7
#     Node 8, Type 0, BuildingBlock: NUHQUE_clean_sbu_2, # of connection points: 7
#     Node 9, Type 0, BuildingBlock: NUHQUE_clean_sbu_2, # of connection points: 7
#     Node 10, Type 0, BuildingBlock: NUHQUE_clean_sbu_2, # of connection points: 7
#     Node 11, Type 0, BuildingBlock: NUHQUE_clean_sbu_2, # of connection points: 7
#     Node 12, Type 0, BuildingBlock: NUHQUE_clean_sbu_2, # of connection points: 7
#     Node 13, Type 0, BuildingBlock: NUHQUE_clean_sbu_2, # of connection points: 7
#     Node 14, Type 0, BuildingBlock: NUHQUE_clean_sbu_2, # of connection points: 7
#     Node 15, Type 0, BuildingBlock: NUHQUE_clean_sbu_2, # of connection points: 7
#     Edge 16, Type (0, 0), BuildingBlock: ZUJKAS_clean_linker_0, # of connection points: 2
#     Edge 17, Type (0, 0), BuildingBlock: ZUJKAS_clean_linker_0, # of connection points: 2
#     Edge 18, Type (0, 0), BuildingBlock: ZUJKAS_clean_linker_0, # of connection points: 2
#     Edge 19, Type (0, 0), BuildingBlock: ZUJKAS_clean_linker_0, # of connection points: 2
#     Edge 20, Type (0, 0), BuildingBlock: ZUJKAS_clean_linker_0, # of connection points: 2
#     Edge 21, Type (0, 0), BuildingBlock: ZUJKAS_clean_linker_0, # of connection points: 2
#     Edge 22, Type (0, 0), BuildingBlock: ZUJKAS_clean_linker_0, # of connection points: 2
#     Edge 23, Type (0, 0), BuildingBlock: ZUJKAS_clean_linker_0, # of connection points: 2
#     Edge 24, Type (0, 0), BuildingBlock: ZUJKAS_clean_linker_0, # of connection points: 2
#     Edge 25, Type (0, 0), BuildingBlock: ZUJKAS_clean_linker_0, # of connection points: 2
#     Edge 26, Type (0, 0), BuildingBlock: ZUJKAS_clean_linker_0, # of connection points: 2
#     Edge 27, Type (0, 0), BuildingBlock: ZUJKAS_clean_linker_0, # of connection points: 2
#     Edge 28, Type (0, 0), BuildingBlock: ZUJKAS_clean_linker_0, # of connection points: 2
#     Edge 29, Type (0, 0), BuildingBlock: ZUJKAS_clean_linker_0, # of connection points: 2
#     Edge 30, Type (0, 0), BuildingBlock: ZUJKAS_clean_linker_0, # of connection points: 2
#     Edge 31, Type (0, 0), BuildingBlock: ZUJKAS_clean_linker_0, # of connection points: 2
#     Edge 32, Type (0, 0), BuildingBlock: ZUJKAS_clean_linker_0, # of connection points: 2
#     Edge 33, Type (0, 0), BuildingBlock: ZUJKAS_clean_linker_0, # of connection points: 2
#     Edge 34, Type (0, 0), BuildingBlock: ZUJKAS_clean_linker_0, # of connection points: 2
#     Edge 35, Type (0, 0), BuildingBlock: ZUJKAS_clean_linker_0, # of connection points: 2
#     Edge 36, Type (0, 0), BuildingBlock: ZUJKAS_clean_linker_0, # of connection points: 2
#     Edge 37, Type (0, 0), BuildingBlock: ZUJKAS_clean_linker_0, # of connection points: 2
#     Edge 38, Type (0, 0), BuildingBlock: ZUJKAS_clean_linker_0, # of connection points: 2
#     Edge 39, Type (0, 0), BuildingBlock: ZUJKAS_clean_linker_0, # of connection points: 2
#     Edge 40, Type (0, 0), BuildingBlock: ZUJKAS_clean_linker_0, # of connection points: 2
#     Edge 41, Type (0, 0), BuildingBlock: ZUJKAS_clean_linker_0, # of connection points: 2
#     Edge 42, Type (0, 0), BuildingBlock: ZUJKAS_clean_linker_0, # of connection points: 2
#     Edge 43, Type (0, 0), BuildingBlock: ZUJKAS_clean_linker_0, # of connection points: 2
#     Edge 44, Type (0, 0), BuildingBlock: ZUJKAS_clean_linker_0, # of connection points: 2
#     Edge 45, Type (0, 0), BuildingBlock: ZUJKAS_clean_linker_0, # of connection points: 2
#     Edge 46, Type (0, 0), BuildingBlock: ZUJKAS_clean_linker_0, # of connection points: 2
#     Edge 47, Type (0, 0), BuildingBlock: ZUJKAS_clean_linker_0, # of connection points: 2
#     Edge 48, Type (0, 0), BuildingBlock: ZUJKAS_clean_linker_0, # of connection points: 2
#     Edge 49, Type (0, 0), BuildingBlock: ZUJKAS_clean_linker_0, # of connection points: 2
#     Edge 50, Type (0, 0), BuildingBlock: ZUJKAS_clean_linker_0, # of connection points: 2
#     Edge 51, Type (0, 0), BuildingBlock: ZUJKAS_clean_linker_0, # of connection points: 2
#     Edge 52, Type (0, 0), BuildingBlock: ZUJKAS_clean_linker_0, # of connection points: 2
#     Edge 53, Type (0, 0), BuildingBlock: ZUJKAS_clean_linker_0, # of connection points: 2
#     Edge 54, Type (0, 0), BuildingBlock: ZUJKAS_clean_linker_0, # of connection points: 2
#     Edge 55, Type (0, 0), BuildingBlock: ZUJKAS_clean_linker_0, # of connection points: 2
#     Edge 56, Type (0, 0), BuildingBlock: ZUJKAS_clean_linker_0, # of connection points: 2
#     Edge 57, Type (0, 0), BuildingBlock: ZUJKAS_clean_linker_0, # of connection points: 2
#     Edge 58, Type (0, 0), BuildingBlock: ZUJKAS_clean_linker_0, # of connection points: 2
#     Edge 59, Type (0, 0), BuildingBlock: ZUJKAS_clean_linker_0, # of connection points: 2
#     Edge 60, Type (0, 0), BuildingBlock: ZUJKAS_clean_linker_0, # of connection points: 2
#     Edge 61, Type (0, 0), BuildingBlock: ZUJKAS_clean_linker_0, # of connection points: 2
#     Edge 62, Type (0, 0), BuildingBlock: ZUJKAS_clean_linker_0, # of connection points: 2
#     Edge 63, Type (0, 0), BuildingBlock: ZUJKAS_clean_linker_0, # of connection points: 2
#     Edge 64, Type (0, 0), BuildingBlock: ZUJKAS_clean_linker_0, # of connection points: 2
#     Edge 65, Type (0, 0), BuildingBlock: ZUJKAS_clean_linker_0, # of connection points: 2
#     Edge 66, Type (0, 0), BuildingBlock: ZUJKAS_clean_linker_0, # of connection points: 2
#     Edge 67, Type (0, 0), BuildingBlock: ZUJKAS_clean_linker_0, # of connection points: 2
#     Edge 68, Type (0, 0), BuildingBlock: ZUJKAS_clean_linker_0, # of connection points: 2
#     Edge 69, Type (0, 0), BuildingBlock: ZUJKAS_clean_linker_0, # of connection points: 2
#     Edge 70, Type (0, 0), BuildingBlock: ZUJKAS_clean_linker_0, # of connection points: 2
#     Edge 71, Type (0, 0), BuildingBlock: ZUJKAS_clean_linker_0, # of connection points: 2
# Relax obj value: 0.152
# Max RMSD: 0.216
# Mean RMSD: 0.216
data_MOF--net-vch--node1-NUHQUE_clean_sbu_2--edge1-ZUJKAS_clean_linker_0
_symmetry_space_group_name_H-M    P1
_symmetry_Int_Tables_number       1
_symmetry_cell_setting            triclinic
loop_
_symmetry_equiv_pos_as_xyz
'x, y, z'
_cell_length_a     26.286156
_cell_length_b     67.751446
_cell_length_c     82.682179
_cell_angle_alpha  90.025964
_cell_angle_beta   89.889767
_cell_angle_gamma 89.984848
loop_
_atom_site_label
_atom_site_type_symbol
_atom_site_fract_x
_atom_site_fract_y
_atom_site_fract_z
_atom_type_partial_charge
O0 O 0.19562 0.12926 0.11129 0.0
Tb1 Tb 0.20497 0.1366 0.13669 0.0
Eu2 Eu 0.07007 0.12624 0.13463 0.0
C3 C 0.22653 0.11615 0.10481 0.0
O4 O 0.25881 0.1069 0.11426 0.0
C5 C 0.15971 0.09534 0.13852 0.0
O6 O 0.07554 0.12588 0.16184 0.0
C7 C 0.97671 0.11896 0.12567 0.0
C8 C 0.05893 0.14111 0.17019 0.0
O9 O 0.04183 0.15663 0.16238 0.0
C10 C 0.12185 0.16865 0.13566 0.0
C11 C 0.93008 0.12763 0.11829 0.0
C12 C 0.92652 0.12977 0.10135 0.0
C13 C 0.88125 0.13635 0.09416 0.0
C14 C 0.83954 0.14101 0.10398 0.0
C15 C 0.84126 0.13848 0.12078 0.0
C16 C 0.88665 0.13165 0.12792 0.0
O17 O 0.18184 0.10889 0.14739 0.0
O18 O 0.12017 0.09986 0.12952 0.0
O19 O 0.27492 0.13166 0.15068 0.0
O20 O 0.27814 0.14982 0.1299 0.0
C21 C 0.3048 0.14217 0.14154 0.0
O22 O 0.09292 0.15693 0.12687 0.0
O23 O 0.1596 0.16166 0.14441 0.0
O24 O 0.98893 0.12442 0.14039 0.0
O25 O 0.01666 0.11625 0.11631 0.0
H26 H 0.95835 0.12583 0.09365 0.0
H27 H 0.80394 0.14528 0.09836 0.0
H28 H 0.88779 0.12914 0.14086 0.0
O29 O 0.34522 0.86759 0.10273 0.0
Tb30 Tb 0.33894 0.86064 0.12832 0.0
Eu31 Eu 0.47566 0.87177 0.12664 0.0
C32 C 0.31461 0.8812 0.09687 0.0
O33 O 0.28663 0.89143 0.10705 0.0
C34 C 0.38432 0.90201 0.13077 0.0
O35 O 0.47067 0.87424 0.15392 0.0
C36 C 0.56728 0.8799 0.11621 0.0
C37 C 0.48464 0.85948 0.16327 0.0
O38 O 0.50066 0.84306 0.15651 0.0
C39 C 0.42434 0.82918 0.1287 0.0
C40 C 0.61386 0.87266 0.10767 0.0
C41 C 0.61664 0.8731 0.09059 0.0
C42 C 0.66193 0.86805 0.08247 0.0
C43 C 0.70448 0.86246 0.09155 0.0
C44 C 0.70345 0.86239 0.10848 0.0
C45 C 0.65808 0.86764 0.11654 0.0
O46 O 0.36152 0.88826 0.13927 0.0
O47 O 0.42385 0.89771 0.12162 0.0
O48 O 0.26814 0.86625 0.14181 0.0
O49 O 0.26696 0.8459 0.12244 0.0
C50 C 0.23928 0.85452 0.1334 0.0
O51 O 0.45355 0.84064 0.11972 0.0
O52 O 0.38529 0.83628 0.13685 0.0
O53 O 0.55775 0.87345 0.1309 0.0
O54 O 0.52576 0.88271 0.10766 0.0
H55 H 0.58401 0.87775 0.08356 0.0
H56 H 0.74 0.8593 0.08536 0.0
H57 H 0.65755 0.86811 0.12964 0.0
O58 O 0.65766 0.8869 0.41541 0.0
Tb59 Tb 0.65249 0.88334 0.38933 0.0
Eu60 Eu 0.48747 0.89174 0.37252 0.0
C61 C 0.68566 0.90107 0.42167 0.0
O62 O 0.70625 0.91423 0.41201 0.0
C63 C 0.57882 0.91753 0.37799 0.0
O64 O 0.49743 0.88954 0.34538 0.0
C65 C 0.39254 0.89294 0.3807 0.0
C66 C 0.4946 0.87253 0.33772 0.0
O67 O 0.48786 0.8563 0.34615 0.0
C68 C 0.5598 0.85718 0.38549 0.0
C69 C 0.35143 0.88757 0.39201 0.0
C70 C 0.35407 0.89059 0.40885 0.0
C71 C 0.31123 0.88663 0.41863 0.0
C72 C 0.26559 0.88066 0.41123 0.0
C73 C 0.26259 0.87746 0.39445 0.0
C74 C 0.30647 0.88043 0.38511 0.0
O75 O 0.59528 0.89945 0.37574 0.0
O76 O 0.53002 0.92035 0.37563 0.0
O77 O 0.72425 0.89684 0.38218 0.0
O78 O 0.71196 0.86644 0.37702 0.0
C79 C 0.74397 0.88102 0.37587 0.0
O80 O 0.53745 0.8739 0.38925 0.0
O81 O 0.6096 0.85607 0.38703 0.0
O82 O 0.4121 0.87874 0.37178 0.0
O83 O 0.42513 0.90682 0.38476 0.0
H84 H 0.38903 0.89585 0.41427 0.0
H85 H 0.23184 0.8792 0.41865 0.0
H86 H 0.30568 0.87768 0.3722 0.0
O87 O 0.8272 0.11497 0.42086 0.0
Tb88 Tb 0.83209 0.12039 0.39504 0.0
Eu89 Eu 0.9942 0.11012 0.3766 0.0
C90 C 0.79322 0.10264 0.42672 0.0
O91 O 0.76526 0.09229 0.41666 0.0
C92 C 0.90217 0.08568 0.38202 0.0
O93 O 0.98141 0.11396 0.34983 0.0
C94 C 0.09006 0.10693 0.38297 0.0
C95 C 0.99087 0.13089 0.34266 0.0
O96 O 0.00438 0.14613 0.35148 0.0
C97 C 0.92649 0.1461 0.38909 0.0
C98 C 0.1317 0.11417 0.39319 0.0
C99 C 0.12846 0.1152 0.41016 0.0
C100 C 0.17051 0.12182 0.41916 0.0
C101 C 0.21559 0.12705 0.41109 0.0
C102 C 0.2194 0.12559 0.39422 0.0
C103 C 0.17697 0.11946 0.38538 0.0
O104 O 0.88977 0.10441 0.38167 0.0
O105 O 0.94981 0.08185 0.37867 0.0
O106 O 0.76632 0.10771 0.38289 0.0
O107 O 0.76846 0.1387 0.38731 0.0
C108 C 0.74211 0.12431 0.38112 0.0
O109 O 0.9508 0.1301 0.3937 0.0
O110 O 0.87667 0.14695 0.39091 0.0
O111 O 0.07173 0.1196 0.37245 0.0
O112 O 0.05554 0.09524 0.3894 0.0
H113 H 0.09378 0.11086 0.41631 0.0
H114 H 0.24877 0.13117 0.4181 0.0
H115 H 0.17945 0.11838 0.3723 0.0
O116 O 0.85069 0.88639 0.91109 0.0
Tb117 Tb 0.84398 0.88363 0.88497 0.0
Eu118 Eu 0.98942 0.8938 0.88307 0.0
C119 C 0.82547 0.90046 0.91864 0.0
O120 O 0.80345 0.91428 0.90998 0.0
C121 C 0.8966 0.92176 0.8776 0.0
O122 O 1.00046 0.89458 0.85579 0.0
C123 C 0.07586 0.90082 0.89749 0.0
C124 C 0.96897 0.88602 0.84558 0.0
O125 O 0.92907 0.8767 0.85124 0.0
C126 C 0.92962 0.85114 0.88193 0.0
C127 C 0.12162 0.89178 0.90513 0.0
C128 C 0.12325 0.88858 0.92202 0.0
C129 C 0.16787 0.88159 0.92949 0.0
C130 C 0.21082 0.87774 0.91991 0.0
C131 C 0.21069 0.88136 0.90325 0.0
C132 C 0.16613 0.88847 0.89589 0.0
O133 O 0.87951 0.90603 0.87028 0.0
O134 O 0.9382 0.92023 0.8862 0.0
O135 O 0.77079 0.89768 0.87963 0.0
O136 O 0.77471 0.86648 0.88029 0.0
C137 C 0.74466 0.88151 0.87816 0.0
O138 O 0.96493 0.86234 0.88873 0.0
O139 O 0.88541 0.85785 0.87671 0.0
O140 O 0.07097 0.89927 0.88173 0.0
O141 O 0.03211 0.89972 0.90519 0.0
H142 H 0.09023 0.89187 0.92941 0.0
H143 H 0.24593 0.87309 0.92563 0.0
H144 H 0.16657 0.89173 0.88306 0.0
O145 O 0.61554 0.11269 0.93533 0.0
Tb146 Tb 0.59772 0.10781 0.91004 0.0
Eu147 Eu 0.44053 0.10343 0.88533 0.0
C148 C 0.64101 0.09917 0.94335 0.0
O149 O 0.65005 0.0821 0.93637 0.0
C150 C 0.52838 0.07607 0.89383 0.0
O151 O 0.4481 0.11085 0.85887 0.0
C152 C 0.34659 0.09677 0.89317 0.0
C153 C 0.49276 0.1137 0.85208 0.0
O154 O 0.53389 0.11286 0.86106 0.0
C155 C 0.51544 0.13664 0.89767 0.0
C156 C 0.30515 0.10016 0.90483 0.0
C157 C 0.31375 0.10321 0.92146 0.0
C158 C 0.27227 0.10643 0.93197 0.0
C159 C 0.22265 0.10627 0.92568 0.0
C160 C 0.21374 0.10301 0.90918 0.0
C161 C 0.25528 0.10003 0.89884 0.0
O162 O 0.53076 0.09038 0.90448 0.0
O163 O 0.48897 0.076 0.88412 0.0
O164 O 0.65676 0.08698 0.90259 0.0
O165 O 0.66047 0.11649 0.89417 0.0
C166 C 0.68287 0.09938 0.89395 0.0
O167 O 0.48409 0.12281 0.90266 0.0
O168 O 0.5643 0.13517 0.90114 0.0
O169 O 0.36087 0.11191 0.88431 0.0
O170 O 0.38419 0.08506 0.8974 0.0
H171 H 0.35224 0.10324 0.92614 0.0
H172 H 0.19055 0.10799 0.93381 0.0
H173 H 0.24882 0.09764 0.88603 0.0
O174 O 0.3459 0.11134 0.59183 0.0
Tb175 Tb 0.35727 0.11574 0.61756 0.0
Eu176 Eu 0.50911 0.10708 0.64264 0.0
C177 C 0.33602 0.12679 0.58276 0.0
O178 O 0.33759 0.14442 0.58937 0.0
C179 C 0.42304 0.08226 0.63298 0.0
O180 O 0.50596 0.10768 0.66989 0.0
C181 C 0.60011 0.10018 0.63164 0.0
C182 C 0.51964 0.12342 0.67812 0.0
O183 O 0.53546 0.13911 0.67025 0.0
C184 C 0.44269 0.14884 0.62771 0.0
C185 C 0.64448 0.10781 0.62246 0.0
C186 C 0.64244 0.11037 0.60554 0.0
C187 C 0.68648 0.11535 0.59673 0.0
C188 C 0.73242 0.1181 0.60506 0.0
C189 C 0.73544 0.1153 0.62183 0.0
C190 C 0.69138 0.11011 0.63046 0.0
O191 O 0.41964 0.10035 0.62773 0.0
O192 O 0.4638 0.07908 0.64133 0.0
O193 O 0.29709 0.10001 0.63066 0.0
O194 O 0.28959 0.13086 0.62652 0.0
C195 C 0.26768 0.11532 0.63263 0.0
O196 O 0.47826 0.13722 0.63429 0.0
O197 O 0.39798 0.14337 0.62154 0.0
O198 O 0.59139 0.10743 0.64615 0.0
O199 O 0.55832 0.09599 0.62358 0.0
H200 H 0.60704 0.10801 0.59914 0.0
H201 H 0.76697 0.12113 0.59832 0.0
H202 H 0.69391 0.10738 0.64335 0.0
O203 O 0.16653 0.88872 0.59336 0.0
Tb204 Tb 0.16309 0.88169 0.61905 0.0
Eu205 Eu 0.00448 0.89202 0.63563 0.0
C206 C 0.19808 0.90223 0.58782 0.0
O207 O 0.22367 0.91308 0.59816 0.0
C208 C 0.09826 0.91604 0.63129 0.0
O209 O 0.99824 0.89286 0.66291 0.0
C210 C 0.91676 0.89719 0.62173 0.0
C211 C 0.03466 0.88585 0.67218 0.0
O212 O 0.07521 0.87811 0.66536 0.0
C213 C 0.07265 0.84909 0.6259 0.0
C214 C 0.87193 0.88778 0.614 0.0
C215 C 0.86717 0.88799 0.59699 0.0
C216 C 0.82203 0.88163 0.5895 0.0
C217 C 0.78259 0.87416 0.59917 0.0
C218 C 0.78575 0.87452 0.61605 0.0
C219 C 0.83034 0.8814 0.62346 0.0
O220 O 0.11115 0.89771 0.63384 0.0
O221 O 0.05004 0.91968 0.63249 0.0
O222 O 0.23325 0.89369 0.62934 0.0
O223 O 0.22676 0.86272 0.62593 0.0
C224 C 0.25649 0.87684 0.63086 0.0
O225 O 0.03475 0.86076 0.63092 0.0
O226 O 0.11878 0.85456 0.6209 0.0
O227 O 0.92237 0.8953 0.63746 0.0
O228 O 0.96019 0.89712 0.61378 0.0
H229 H 0.89735 0.89423 0.58966 0.0
H230 H 0.74761 0.86919 0.59355 0.0
H231 H 0.83179 0.88233 0.63654 0.0
O232 O 0.63315 0.59794 0.07875 0.0
Tb233 Tb 0.62379 0.59386 0.10467 0.0
Eu234 Eu 0.47494 0.59438 0.13555 0.0
C235 C 0.65434 0.58405 0.06987 0.0
O236 O 0.66505 0.56698 0.07657 0.0
C237 C 0.55956 0.56508 0.1257 0.0
O238 O 0.48825 0.60379 0.16139 0.0
C239 C 0.37929 0.58735 0.13035 0.0
C240 C 0.46647 0.61956 0.16761 0.0
O241 O 0.43905 0.63102 0.15824 0.0
C242 C 0.54818 0.62479 0.11778 0.0
C243 C 0.33765 0.58702 0.11851 0.0
C244 C 0.34659 0.58754 0.1017 0.0
C245 C 0.30526 0.58681 0.09092 0.0
C246 C 0.25554 0.58625 0.09708 0.0
C247 C 0.24624 0.58602 0.11374 0.0
C248 C 0.28752 0.58614 0.12443 0.0
O249 O 0.55852 0.57733 0.11341 0.0
O250 O 0.52399 0.56699 0.13678 0.0
O251 O 0.68613 0.57326 0.10918 0.0
O252 O 0.68896 0.60176 0.11979 0.0
C253 C 0.71274 0.58502 0.11824 0.0
O254 O 0.51532 0.61048 0.11532 0.0
O255 O 0.59535 0.62254 0.11258 0.0
O256 O 0.39663 0.60475 0.1347 0.0
O257 O 0.41486 0.57377 0.12909 0.0
H258 H 0.38518 0.58818 0.09709 0.0
H259 H 0.22362 0.58595 0.08878 0.0
H260 H 0.28062 0.58586 0.13737 0.0
O261 O 0.90388 0.39132 0.07513 0.0
Tb262 Tb 0.91314 0.3997 0.10024 0.0
Eu263 Eu 0.06638 0.40446 0.12392 0.0
C264 C 0.88964 0.40464 0.06452 0.0
O265 O 0.88735 0.42323 0.06898 0.0
C266 C 0.97691 0.43152 0.11825 0.0
O267 O 0.06435 0.39448 0.14987 0.0
C268 C 0.15736 0.41291 0.11398 0.0
C269 C 0.02112 0.39012 0.15704 0.0
O270 O 0.9787 0.39094 0.14869 0.0
C271 C 0.9922 0.37039 0.11286 0.0
C272 C 0.1979 0.40724 0.10255 0.0
C273 C 0.18906 0.40377 0.08596 0.0
C274 C 0.22983 0.39853 0.07569 0.0
C275 C 0.27898 0.39692 0.08221 0.0
C276 C 0.28812 0.40076 0.09858 0.0
C277 C 0.24745 0.40585 0.10867 0.0
O278 O 0.97651 0.41872 0.10631 0.0
O279 O 0.01651 0.43101 0.12783 0.0
O280 O 0.84582 0.41841 0.10051 0.0
O281 O 0.85091 0.39484 0.11738 0.0
C282 C 0.82258 0.40925 0.11218 0.0
O283 O 0.02353 0.38395 0.10734 0.0
O284 O 0.94317 0.37229 0.10994 0.0
O285 O 0.14803 0.40043 0.12579 0.0
O286 O 0.11642 0.42166 0.10831 0.0
H287 H 0.15099 0.40512 0.08108 0.0
H288 H 0.31089 0.39367 0.07431 0.0
H289 H 0.25448 0.40887 0.12136 0.0
O290 O 0.16073 0.38132 0.41807 0.0
Tb291 Tb 0.15147 0.37968 0.39204 0.0
Eu292 Eu 0.00225 0.38668 0.36574 0.0
C293 C 0.1867 0.39602 0.42438 0.0
O294 O 0.20163 0.41048 0.41493 0.0
C295 C 0.09174 0.41068 0.37275 0.0
O296 O 0.99134 0.38306 0.3389 0.0
C297 C 0.91728 0.39623 0.38 0.0
C298 C 0.02469 0.3733 0.33012 0.0
O299 O 0.06383 0.36506 0.33731 0.0
C300 C 0.07087 0.34554 0.37973 0.0
C301 C 0.87254 0.38944 0.38954 0.0
C302 C 0.87535 0.3874 0.40651 0.0
C303 C 0.8317 0.38273 0.41563 0.0
C304 C 0.78526 0.37991 0.40762 0.0
C305 C 0.78128 0.38237 0.39086 0.0
C306 C 0.82489 0.38725 0.38187 0.0
O307 O 0.08885 0.3954 0.38222 0.0
O308 O 0.05375 0.41276 0.36298 0.0
O309 O 0.21615 0.3967 0.38267 0.0
O310 O 0.21789 0.36545 0.38114 0.0
C311 C 0.24328 0.38156 0.37821 0.0
O312 O 0.03361 0.35636 0.37316 0.0
O313 O 0.11382 0.35184 0.38658 0.0
O314 O 0.9202 0.39073 0.36477 0.0
O315 O 0.96199 0.39728 0.38714 0.0
H316 H 0.91113 0.38982 0.41268 0.0
H317 H 0.75106 0.37695 0.41457 0.0
H318 H 0.82143 0.38967 0.36896 0.0
O319 O 0.31745 0.62115 0.40091 0.0
Tb320 Tb 0.30646 0.62705 0.37529 0.0
Eu321 Eu 0.44035 0.61958 0.37657 0.0
C322 C 0.2897 0.60738 0.40788 0.0
O323 O 0.26073 0.5962 0.39873 0.0
C324 C 0.3573 0.58607 0.37269 0.0
O325 O 0.42941 0.62021 0.34952 0.0
C326 C 0.53576 0.61413 0.38389 0.0
C327 C 0.44616 0.63534 0.34107 0.0
O328 O 0.46713 0.65024 0.34874 0.0
C329 C 0.38461 0.66074 0.37688 0.0
C330 C 0.58164 0.6239 0.39067 0.0
C331 C 0.58386 0.62918 0.40716 0.0
C332 C 0.62889 0.63675 0.41385 0.0
C333 C 0.67149 0.63938 0.40388 0.0
C334 C 0.67073 0.63389 0.38755 0.0
C335 C 0.62566 0.62604 0.38099 0.0
O336 O 0.32852 0.5989 0.36508 0.0
O337 O 0.39639 0.59169 0.38144 0.0
O338 O 0.23847 0.62553 0.35986 0.0
O339 O 0.23093 0.63591 0.38388 0.0
C340 C 0.20641 0.63197 0.37064 0.0
O341 O 0.41469 0.64935 0.38551 0.0
O342 O 0.34792 0.65322 0.36803 0.0
O343 O 0.52055 0.61961 0.36946 0.0
O344 O 0.49783 0.61029 0.39381 0.0
H345 H 0.55118 0.6269 0.41495 0.0
H346 H 0.70696 0.64436 0.40918 0.0
H347 H 0.62519 0.62125 0.36848 0.0
O348 O 0.33882 0.37791 0.89812 0.0
Tb349 Tb 0.33324 0.37187 0.87236 0.0
Eu350 Eu 0.47019 0.37912 0.87433 0.0
C351 C 0.31036 0.392 0.90432 0.0
O352 O 0.28358 0.40311 0.89447 0.0
C353 C 0.38611 0.41137 0.86913 0.0
O354 O 0.46377 0.37845 0.84717 0.0
C355 C 0.56432 0.38496 0.88297 0.0
C356 C 0.479 0.36274 0.83917 0.0
O357 O 0.49617 0.34747 0.8473 0.0
C358 C 0.41194 0.33835 0.87319 0.0
C359 C 0.61042 0.37541 0.88983 0.0
C360 C 0.61399 0.37192 0.9066 0.0
C361 C 0.65918 0.3647 0.9134 0.0
C362 C 0.70065 0.36055 0.90331 0.0
C363 C 0.69876 0.36442 0.88669 0.0
C364 C 0.65356 0.37197 0.87997 0.0
O365 O 0.36339 0.39779 0.86044 0.0
O366 O 0.42343 0.40643 0.87885 0.0
O367 O 0.26207 0.38213 0.86126 0.0
O368 O 0.26218 0.35498 0.87383 0.0
C369 C 0.23407 0.36733 0.86582 0.0
O370 O 0.44299 0.34904 0.88212 0.0
O371 O 0.37712 0.34671 0.86404 0.0
O372 O 0.55103 0.38022 0.86816 0.0
O373 O 0.52509 0.38776 0.89262 0.0
H374 H 0.58234 0.37543 0.91451 0.0
H375 H 0.73626 0.35577 0.90865 0.0
H376 H 0.65242 0.37556 0.8672 0.0
O377 O 0.17816 0.61962 0.91679 0.0
Tb378 Tb 0.15881 0.62027 0.89126 0.0
Eu379 Eu 1.00089 0.61304 0.86738 0.0
C380 C 0.15713 0.60752 0.92727 0.0
O381 O 0.11979 0.59595 0.92265 0.0
C382 C 0.08862 0.58662 0.87632 0.0
O383 O 0.01941 0.61769 0.841 0.0
C384 C 0.90419 0.60765 0.87165 0.0
C385 C 0.0112 0.6345 0.83349 0.0
O386 O 0.99413 0.6497 0.84175 0.0
C387 C 0.06857 0.64816 0.88156 0.0
C388 C 0.85907 0.6124 0.88149 0.0
C389 C 0.86086 0.61393 0.89847 0.0
C390 C 0.81613 0.61796 0.90728 0.0
C391 C 0.77004 0.6204 0.89896 0.0
C392 C 0.76769 0.61835 0.88212 0.0
C393 C 0.81237 0.61444 0.87346 0.0
O394 O 0.09318 0.60327 0.8842 0.0
O395 O 0.04627 0.58479 0.86817 0.0
O396 O 0.21506 0.60345 0.87736 0.0
O397 O 0.22329 0.63455 0.87953 0.0
C398 C 0.24326 0.61855 0.87357 0.0
O399 O 0.03838 0.63345 0.88565 0.0
O400 O 0.11788 0.64721 0.8848 0.0
O401 O 0.92282 0.62187 0.86257 0.0
O402 O 0.93909 0.59605 0.87796 0.0
H403 H 0.89655 0.61185 0.90479 0.0
H404 H 0.73515 0.62272 0.90573 0.0
H405 H 0.81067 0.61272 0.86042 0.0
O406 O 0.86407 0.62182 0.57819 0.0
Tb407 Tb 0.88088 0.6119 0.60252 0.0
Eu408 Eu 0.03464 0.60665 0.62573 0.0
C409 C 0.85531 0.60884 0.56673 0.0
O410 O 0.86172 0.59 0.56988 0.0
C411 C 0.94959 0.57885 0.61597 0.0
O412 O 0.02725 0.61118 0.65268 0.0
C413 C 0.12799 0.59981 0.61713 0.0
C414 C 0.03223 0.62863 0.65949 0.0
O415 O 0.04058 0.64413 0.65032 0.0
C416 C 0.96054 0.64186 0.61581 0.0
C417 C 0.1703 0.6048 0.60611 0.0
C418 C 0.16356 0.60763 0.58934 0.0
C419 C 0.20588 0.61167 0.57936 0.0
C420 C 0.25449 0.61269 0.58633 0.0
C421 C 0.26168 0.60946 0.60289 0.0
C422 C 0.21942 0.60559 0.61271 0.0
O423 O 0.94736 0.59369 0.60584 0.0
O424 O 0.98785 0.57883 0.62605 0.0
O425 O 0.82066 0.61551 0.62053 0.0
O426 O 0.81795 0.59099 0.60456 0.0
C427 C 0.79464 0.60001 0.61632 0.0
O428 O 0.99441 0.62931 0.61004 0.0
O429 O 0.91151 0.63858 0.61348 0.0
O430 O 0.11547 0.61297 0.62814 0.0
O431 O 0.08897 0.59 0.61127 0.0
H432 H 0.1259 0.60662 0.58409 0.0
H433 H 0.28745 0.615 0.57864 0.0
H434 H 0.22484 0.60296 0.62554 0.0
O435 O 0.69367 0.38327 0.59167 0.0
Tb436 Tb 0.6873 0.37999 0.61772 0.0
Eu437 Eu 0.52207 0.38708 0.63187 0.0
C438 C 0.72213 0.39719 0.58524 0.0
O439 O 0.74408 0.41016 0.59476 0.0
C440 C 0.6115 0.4137 0.62808 0.0
O441 O 0.53331 0.38418 0.65873 0.0
C442 C 0.42618 0.38857 0.62494 0.0
C443 C 0.52813 0.36705 0.666 0.0
O444 O 0.51943 0.35122 0.65725 0.0
C445 C 0.59545 0.3518 0.62117 0.0
C446 C 0.38538 0.38207 0.61405 0.0
C447 C 0.39148 0.38118 0.59714 0.0
C448 C 0.35013 0.37578 0.5873 0.0
C449 C 0.30303 0.37151 0.59453 0.0
C450 C 0.2962 0.37298 0.6113 0.0
C451 C 0.33787 0.37793 0.621 0.0
O452 O 0.62715 0.39552 0.63017 0.0
O453 O 0.56243 0.41628 0.62956 0.0
O454 O 0.75614 0.39391 0.62711 0.0
O455 O 0.74708 0.36279 0.62928 0.0
C456 C 0.77687 0.37766 0.63231 0.0
O457 O 0.56918 0.36701 0.61577 0.0
O458 O 0.64566 0.35256 0.62093 0.0
O459 O 0.44584 0.37514 0.63456 0.0
O460 O 0.45936 0.40153 0.61952 0.0
H461 H 0.4278 0.38483 0.59169 0.0
H462 H 0.27081 0.36777 0.58695 0.0
H463 H 0.33287 0.37946 0.63397 0.0
H464 H 0.77895 0.17055 0.12064 0.0
H465 H 0.68942 0.17149 0.12877 0.0
H466 H 0.70299 0.11308 0.14889 0.0
H467 H 0.79293 0.11197 0.14061 0.0
H468 H 0.62407 0.13583 0.1156 0.0
H469 H 0.61233 0.15092 0.18175 0.0
H470 H 0.66368 0.1607 0.16957 0.0
H471 H 0.66127 0.13482 0.17389 0.0
C472 C 0.76335 0.15817 0.1273 0.0
C473 C 0.79298 0.14118 0.12999 0.0
C474 C 0.71215 0.15871 0.13188 0.0
C475 C 0.68954 0.14236 0.1394 0.0
C476 C 0.71986 0.12593 0.14323 0.0
H477 H 0.36734 0.12057 0.16119 0.0
H478 H 0.46078 0.12027 0.16129 0.0
C479 C 0.77132 0.12536 0.1386 0.0
C480 C 0.63324 0.14155 0.14101 0.0
H481 H 0.53482 0.14731 0.16768 0.0
C482 C 0.60449 0.13829 0.12699 0.0
C483 C 0.60795 0.1445 0.15589 0.0
C484 C 0.63754 0.14798 0.17122 0.0
C485 C 0.55106 0.13804 0.1274 0.0
C486 C 0.52539 0.14181 0.14218 0.0
C487 C 0.5543 0.14463 0.15631 0.0
C488 C 0.46871 0.14299 0.14306 0.0
C489 C 0.52277 0.13338 0.11199 0.0
C490 C 0.44186 0.15626 0.13317 0.0
C491 C 0.3886 0.15629 0.13297 0.0
C492 C 0.36095 0.14333 0.14291 0.0
C493 C 0.38767 0.13073 0.1534 0.0
C494 C 0.44107 0.13054 0.15346 0.0
H495 H 0.54692 0.12494 0.10338 0.0
H496 H 0.48779 0.1247 0.11447 0.0
H497 H 0.51169 0.14737 0.10598 0.0
H498 H 0.46214 0.16642 0.12537 0.0
H499 H 0.36905 0.16628 0.12487 0.0
H500 H 0.17511 0.87642 0.15238 0.0
H501 H 0.0818 0.87653 0.15197 0.0
H502 H 0.08327 0.82982 0.11651 0.0
H503 H 0.1764 0.83002 0.11661 0.0
H504 H 0.02264 0.85966 0.10739 0.0
H505 H 0.97595 0.83988 0.17079 0.0
H506 H 0.01744 0.8608 0.16894 0.0
H507 H 0.03897 0.83688 0.16242 0.0
C508 C 0.15545 0.86596 0.14471 0.0
C509 C 0.18306 0.85317 0.13457 0.0
C510 C 0.10205 0.86595 0.14454 0.0
C511 C 0.07519 0.85299 0.13437 0.0
C512 C 0.10293 0.83992 0.12451 0.0
H513 H 0.76573 0.83061 0.10489 0.0
H514 H 0.85486 0.82804 0.11313 0.0
C515 C 0.15621 0.84 0.12461 0.0
C516 C 0.01857 0.854 0.13298 0.0
H517 H 0.90691 0.8503 0.15424 0.0
C518 C 0.99748 0.85752 0.11765 0.0
C519 C 0.98545 0.85138 0.14637 0.0
C520 C 0.00548 0.84685 0.16304 0.0
C521 C 0.94461 0.85849 0.11533 0.0
C522 C 0.91152 0.85566 0.12865 0.0
C523 C 0.93234 0.85244 0.14405 0.0
C524 C 0.8553 0.85551 0.12644 0.0
C525 C 0.92444 0.86268 0.09859 0.0
C526 C 0.82509 0.87128 0.13194 0.0
C527 C 0.77378 0.87272 0.12732 0.0
C528 C 0.75206 0.8584 0.11713 0.0
C529 C 0.78146 0.84188 0.11273 0.0
C530 C 0.83246 0.84044 0.11736 0.0
H531 H 0.95434 0.86872 0.09047 0.0
H532 H 0.91011 0.84875 0.09319 0.0
H533 H 0.89231 0.87331 0.09911 0.0
H534 H 0.84196 0.88307 0.13898 0.0
H535 H 0.75227 0.88571 0.13073 0.0
H536 H 0.82042 0.90619 0.38265 0.0
H537 H 0.91053 0.90154 0.3774 0.0
H538 H 0.87792 0.84769 0.35143 0.0
H539 H 0.78719 0.85169 0.35777 0.0
H540 H 0.9511 0.84071 0.36974 0.0
H541 H 1.00093 0.91058 0.34074 0.0
H542 H 0.96949 0.91689 0.35921 0.0
H543 H 0.93542 0.90352 0.3437 0.0
C544 C 0.83236 0.89355 0.37557 0.0
C545 C 0.7971 0.87931 0.37057 0.0
C546 C 0.88396 0.891 0.37239 0.0
C547 C 0.90123 0.87454 0.3636 0.0
C548 C 0.8656 0.86059 0.35811 0.0
H549 H 0.22937 0.88709 0.36375 0.0
H550 H 0.14702 0.88089 0.35184 0.0
C551 C 0.81387 0.86289 0.36169 0.0
C552 C 0.95675 0.87104 0.36192 0.0
H553 H 0.06768 0.89649 0.35842 0.0
C554 C 0.97668 0.85275 0.36681 0.0
C555 C 0.99065 0.88631 0.35744 0.0
C556 C 0.97275 0.90529 0.34978 0.0
C557 C 0.02918 0.85003 0.36888 0.0
C558 C 0.06224 0.86637 0.36693 0.0
C559 C 0.04268 0.88401 0.36048 0.0
C560 C 0.11559 0.86633 0.37292 0.0
C561 C 0.04815 0.82973 0.37332 0.0
C562 C 0.12668 0.85957 0.38859 0.0
C563 C 0.17509 0.86206 0.39517 0.0
C564 C 0.21309 0.87234 0.38661 0.0
C565 C 0.20208 0.87875 0.37077 0.0
C566 C 0.15433 0.87547 0.36394 0.0
H567 H 0.02531 0.8182 0.36713 0.0
H568 H 0.08877 0.82764 0.37005 0.0
H569 H 0.04337 0.82742 0.38653 0.0
H570 H 0.0974 0.85305 0.39609 0.0
H571 H 0.18198 0.85638 0.4072 0.0
H572 H 0.68636 0.09607 0.366 0.0
H573 H 0.59578 0.09763 0.35929 0.0
H574 H 0.59025 0.15786 0.37626 0.0
H575 H 0.68097 0.15657 0.38239 0.0
H576 H 0.52829 0.102 0.38237 0.0
H577 H 0.49748 0.16172 0.33804 0.0
H578 H 0.55956 0.15122 0.34172 0.0
H579 H 0.53473 0.17024 0.35478 0.0
C580 C 0.66599 0.10979 0.36785 0.0
C581 C 0.69022 0.12616 0.37481 0.0
C582 C 0.6144 0.1107 0.36397 0.0
C583 C 0.58633 0.12792 0.36711 0.0
C584 C 0.61131 0.1446 0.37331 0.0
H585 H 0.28999 0.15457 0.39968 0.0
H586 H 0.37755 0.15558 0.38948 0.0
C587 C 0.66303 0.14378 0.37699 0.0
C588 C 0.53012 0.1274 0.36668 0.0
H589 H 0.4251 0.15353 0.3552 0.0
C590 C 0.50572 0.11299 0.3761 0.0
C591 C 0.50074 0.14184 0.3586 0.0
C592 C 0.52456 0.15699 0.34759 0.0
C593 C 0.45301 0.1132 0.37833 0.0
C594 C 0.42393 0.12813 0.37083 0.0
C595 C 0.44782 0.14216 0.36094 0.0
C596 C 0.36912 0.12989 0.37418 0.0
C597 C 0.42901 0.09801 0.38932 0.0
C598 C 0.33543 0.11548 0.36851 0.0
C599 C 0.28579 0.11472 0.37443 0.0
C600 C 0.26911 0.12843 0.38608 0.0
C601 C 0.30207 0.14366 0.39089 0.0
C602 C 0.35179 0.14439 0.38497 0.0
H603 H 0.45784 0.08923 0.396 0.0
H604 H 0.40342 0.10525 0.39822 0.0
H605 H 0.4057 0.08769 0.38199 0.0
H606 H 0.34842 0.10417 0.3602 0.0
H607 H 0.26154 0.10268 0.37059 0.0
H608 H 0.26146 0.90963 0.88611 0.0
H609 H 0.35053 0.90841 0.8773 0.0
H610 H 0.35928 0.84739 0.89194 0.0
H611 H 0.27083 0.8488 0.90117 0.0
H612 H 0.43176 0.86869 0.90581 0.0
H613 H 0.43146 0.8858 0.8403 0.0
H614 H 0.39808 0.90382 0.85217 0.0
H615 H 0.37441 0.87894 0.85111 0.0
C616 C 0.28197 0.89579 0.8869 0.0
C617 C 0.25932 0.87928 0.89425 0.0
C618 C 0.33291 0.89508 0.88185 0.0
C619 C 0.36174 0.87776 0.88384 0.0
C620 C 0.33795 0.86092 0.89026 0.0
H621 H 0.68465 0.84866 0.87826 0.0
H622 H 0.59138 0.84736 0.87824 0.0
C623 C 0.28736 0.86169 0.89546 0.0
C624 C 0.41787 0.8778 0.88124 0.0
H625 H 0.51193 0.88778 0.85376 0.0
C626 C 0.44914 0.87265 0.89435 0.0
C627 C 0.44078 0.88315 0.86635 0.0
C628 C 0.40945 0.88806 0.85163 0.0
C629 C 0.50238 0.87295 0.89308 0.0
C630 C 0.52524 0.87838 0.87825 0.0
C631 C 0.49424 0.88358 0.86511 0.0
C632 C 0.58143 0.87898 0.87642 0.0
C633 C 0.5339 0.86788 0.90775 0.0
C634 C 0.60668 0.89714 0.87492 0.0
C635 C 0.65992 0.89792 0.87496 0.0
C636 C 0.68874 0.88052 0.87638 0.0
C637 C 0.6634 0.86229 0.87718 0.0
C638 C 0.61017 0.86154 0.87721 0.0
H639 H 0.51081 0.86778 0.91902 0.0
H640 H 0.55072 0.85299 0.90614 0.0
H641 H 0.56558 0.87857 0.90923 0.0
H642 H 0.58519 0.91077 0.8743 0.0
H643 H 0.6785 0.91217 0.87431 0.0
H644 H 0.17257 0.07596 0.88833 0.0
H645 H 0.08306 0.0727 0.88048 0.0
H646 H 0.04604 0.1245 0.90846 0.0
H647 H 0.13523 0.12791 0.91628 0.0
H648 H 0.9887 0.09053 0.91611 0.0
H649 H 0.99025 0.10559 0.84995 0.0
H650 H 0.03587 0.08793 0.85727 0.0
H651 H 0.04113 0.11333 0.86318 0.0
C652 C 0.14551 0.0869 0.89251 0.0
C653 C 0.16081 0.10213 0.90301 0.0
C654 C 0.09445 0.08502 0.888 0.0
C655 C 0.05809 0.09843 0.89382 0.0
C656 C 0.0736 0.11401 0.90384 0.0
H657 H 0.74703 0.12587 0.87994 0.0
H658 H 0.83929 0.12246 0.87707 0.0
C659 C 0.12446 0.11588 0.90837 0.0
C660 C 0.00321 0.09535 0.89081 0.0
H661 H 0.91141 0.09654 0.86163 0.0
C662 C 0.97179 0.09169 0.90419 0.0
C663 C 0.98151 0.09692 0.87523 0.0
C664 C 0.0137 0.10129 0.86055 0.0
C665 C 0.91898 0.09004 0.90252 0.0
C666 C 0.89705 0.09169 0.88696 0.0
C667 C 0.92851 0.09502 0.87349 0.0
C668 C 0.84114 0.092 0.88492 0.0
C669 C 0.88693 0.0874 0.91755 0.0
C670 C 0.81149 0.07567 0.88943 0.0
C671 C 0.75888 0.07766 0.89126 0.0
C672 C 0.7353 0.09592 0.88836 0.0
C673 C 0.76439 0.11166 0.88231 0.0
C674 C 0.81703 0.10971 0.88063 0.0
H675 H 0.90892 0.09024 0.92878 0.0
H676 H 0.85359 0.09746 0.91737 0.0
H677 H 0.87262 0.072 0.91805 0.0
H678 H 0.82939 0.06178 0.89255 0.0
H679 H 0.7372 0.06531 0.89592 0.0
H680 H 0.77966 0.08699 0.64064 0.0
H681 H 0.86898 0.08548 0.64925 0.0
H682 H 0.89514 0.14308 0.62871 0.0
H683 H 0.8062 0.1446 0.62002 0.0
H684 H 0.94994 0.08867 0.62514 0.0
H685 H 0.96792 0.1447 0.67373 0.0
H686 H 0.90799 0.13325 0.66854 0.0
H687 H 0.93334 0.15271 0.65617 0.0
C688 C 0.80415 0.09956 0.63841 0.0
C689 C 0.78609 0.11594 0.62971 0.0
C690 C 0.85514 0.09864 0.64326 0.0
C691 C 0.88852 0.11424 0.63974 0.0
C692 C 0.86985 0.13102 0.63177 0.0
H693 H 0.19927 0.14533 0.63236 0.0
H694 H 0.10754 0.14316 0.63667 0.0
C695 C 0.81915 0.13184 0.62676 0.0
C696 C 0.94397 0.11215 0.64253 0.0
H697 H 0.04509 0.13403 0.66116 0.0
C698 C 0.97083 0.0983 0.63323 0.0
C699 C 0.97091 0.12486 0.653 0.0
C700 C 0.94364 0.13964 0.66355 0.0
C701 C 0.02424 0.09756 0.63341 0.0
C702 C 0.0515 0.11067 0.64358 0.0
C703 C 0.02432 0.12396 0.6534 0.0
C704 C 0.10797 0.11215 0.64297 0.0
C705 C 0.05085 0.0836 0.62193 0.0
C706 C 0.13921 0.09561 0.64565 0.0
C707 C 0.19179 0.09678 0.64298 0.0
C708 C 0.214 0.11459 0.63789 0.0
C709 C 0.18318 0.1314 0.63626 0.0
C710 C 0.13069 0.13018 0.63873 0.0
H711 H 0.02488 0.07807 0.61235 0.0
H712 H 0.0838 0.09089 0.616 0.0
H713 H 0.06507 0.07065 0.62877 0.0
H714 H 0.1228 0.08167 0.64935 0.0
H715 H 0.21476 0.08362 0.6444 0.0
H716 H 0.31157 0.84283 0.63077 0.0
H717 H 0.4037 0.83941 0.6342 0.0
H718 H 0.41578 0.90181 0.64373 0.0
H719 H 0.32355 0.90535 0.64023 0.0
H720 H 0.47163 0.86205 0.61345 0.0
H721 H 0.50851 0.87475 0.67882 0.0
H722 H 0.44751 0.86658 0.67128 0.0
H723 H 0.46627 0.89188 0.66902 0.0
C724 C 0.33373 0.85574 0.63393 0.0
C725 C 0.31056 0.87437 0.6352 0.0
C726 C 0.38629 0.85376 0.6359 0.0
C727 C 0.41643 0.87031 0.63938 0.0
C728 C 0.39306 0.8888 0.64134 0.0
H729 H 0.73335 0.90033 0.63485 0.0
H730 H 0.64391 0.89734 0.64293 0.0
C731 C 0.34047 0.89082 0.63926 0.0
C732 C 0.47262 0.86869 0.63888 0.0
H733 H 0.5806 0.87382 0.66143 0.0
C734 C 0.49551 0.86439 0.62397 0.0
C735 C 0.50346 0.87203 0.65259 0.0
C736 C 0.4804 0.87645 0.6689 0.0
C737 C 0.54855 0.86385 0.62225 0.0
C738 C 0.5797 0.867 0.63599 0.0
C739 C 0.55674 0.87117 0.65097 0.0
C740 C 0.63606 0.86719 0.63461 0.0
C741 C 0.57057 0.86076 0.60554 0.0
C742 C 0.66217 0.85085 0.62821 0.0
C743 C 0.713 0.85263 0.62343 0.0
C744 C 0.73883 0.87061 0.62541 0.0
C745 C 0.71433 0.88626 0.63339 0.0
C746 C 0.66319 0.88458 0.63792 0.0
H747 H 0.54214 0.86375 0.59592 0.0
H748 H 0.60402 0.87044 0.60348 0.0
H749 H 0.583 0.84518 0.60427 0.0
H750 H 0.64231 0.83713 0.62594 0.0
H751 H 0.73116 0.8404 0.61726 0.0
H752 H 0.76814 0.55166 0.11336 0.0
H753 H 0.85907 0.54708 0.11832 0.0
H754 H 0.86708 0.60539 0.13922 0.0
H755 H 0.776 0.60982 0.13456 0.0
H756 H 0.92932 0.56795 0.10411 0.0
H757 H 0.95733 0.57599 0.16992 0.0
H758 H 0.89547 0.5717 0.16112 0.0
H759 H 0.92147 0.59629 0.16199 0.0
C760 C 0.78909 0.56327 0.11941 0.0
C761 C 0.76521 0.5811 0.12357 0.0
C762 C 0.84102 0.56064 0.12226 0.0
C763 C 0.86993 0.57576 0.12938 0.0
C764 C 0.84548 0.59327 0.13415 0.0
H765 H 0.16921 0.61041 0.105 0.0
H766 H 0.07862 0.60649 0.11087 0.0
C767 C 0.79348 0.59588 0.13135 0.0
C768 C 0.92633 0.57444 0.12962 0.0
H769 H 0.03106 0.58301 0.15307 0.0
C770 C 0.95143 0.57088 0.11491 0.0
C771 C 0.95545 0.57803 0.14372 0.0
C772 C 0.93098 0.5805 0.1601 0.0
C773 C 0.00451 0.57185 0.11371 0.0
C774 C 0.03332 0.57699 0.12751 0.0
C775 C 0.00871 0.57944 0.14245 0.0
C776 C 0.08856 0.58091 0.12619 0.0
C777 C 0.02927 0.56776 0.09756 0.0
C778 C 0.12428 0.56842 0.13356 0.0
C779 C 0.17631 0.57073 0.1303 0.0
C780 C 0.19296 0.58551 0.1196 0.0
C781 C 0.15725 0.59873 0.11311 0.0
C782 C 0.10558 0.5965 0.11643 0.0
H783 H 0.00425 0.55878 0.08963 0.0
H784 H 0.0369 0.58196 0.09134 0.0
H785 H 0.06601 0.55989 0.0991 0.0
H786 H 0.11178 0.55636 0.14119 0.0
H787 H 0.20315 0.56034 0.13542 0.0
H788 H 0.33502 0.42971 0.11588 0.0
H789 H 0.42569 0.43202 0.12246 0.0
H790 H 0.45036 0.37425 0.1019 0.0
H791 H 0.35998 0.3721 0.09495 0.0
H792 H 0.49607 0.40991 0.13987 0.0
H793 H 0.53968 0.40979 0.07419 0.0
H794 H 0.47579 0.41225 0.08189 0.0
H795 H 0.50531 0.38833 0.08067 0.0
C796 C 0.35971 0.41737 0.11305 0.0
C797 C 0.34087 0.40083 0.10474 0.0
C798 C 0.41139 0.41871 0.1168 0.0
C799 C 0.44478 0.40349 0.11235 0.0
C800 C 0.42533 0.38635 0.10509 0.0
H801 H 0.76444 0.38781 0.13316 0.0
H802 H 0.67151 0.38848 0.13532 0.0
C803 C 0.37383 0.38511 0.10116 0.0
C804 C 0.50032 0.40622 0.11403 0.0
H805 H 0.60985 0.40782 0.09198 0.0
C806 C 0.52108 0.40953 0.12943 0.0
C807 C 0.53257 0.40618 0.10031 0.0
C808 C 0.51223 0.40416 0.08332 0.0
C809 C 0.57365 0.41234 0.1315 0.0
C810 C 0.60603 0.41142 0.11785 0.0
C811 C 0.585 0.40844 0.10246 0.0
C812 C 0.66203 0.41319 0.11898 0.0
C813 C 0.59386 0.41659 0.14821 0.0
C814 C 0.68756 0.42691 0.10919 0.0
C815 C 0.74035 0.4263 0.10773 0.0
C816 C 0.76858 0.41208 0.11615 0.0
C817 C 0.74345 0.39906 0.12668 0.0
C818 C 0.69042 0.39952 0.128 0.0
H819 H 0.56375 0.42263 0.15625 0.0
H820 H 0.60787 0.40265 0.15366 0.0
H821 H 0.62596 0.42723 0.14774 0.0
H822 H 0.66641 0.43755 0.1021 0.0
H823 H 0.75883 0.43647 0.09949 0.0
H824 H 0.7173 0.35092 0.39024 0.0
H825 H 0.62707 0.35088 0.38294 0.0
H826 H 0.63815 0.41215 0.36913 0.0
H827 H 0.72904 0.41188 0.37581 0.0
H828 H 0.55821 0.37176 0.39807 0.0
H829 H 0.54985 0.39242 0.3333 0.0
H830 H 0.60825 0.38489 0.34295 0.0
H831 H 0.58507 0.40974 0.34526 0.0
C832 C 0.70073 0.36415 0.38511 0.0
C833 C 0.7301 0.38132 0.38339 0.0
C834 C 0.64913 0.36418 0.38103 0.0
C835 C 0.62555 0.38146 0.37535 0.0
C836 C 0.65544 0.39847 0.37306 0.0
H837 H 0.30382 0.41409 0.37443 0.0
H838 H 0.39707 0.41463 0.37207 0.0
C839 C 0.7074 0.39834 0.37691 0.0
C840 C 0.56904 0.38215 0.37368 0.0
H841 H 0.47137 0.39367 0.34798 0.0
C842 C 0.53942 0.3764 0.38704 0.0
C843 C 0.54417 0.3884 0.35936 0.0
C844 C 0.57347 0.39404 0.34435 0.0
C845 C 0.48608 0.37674 0.38653 0.0
C846 C 0.46131 0.38293 0.37225 0.0
C847 C 0.49056 0.38892 0.35891 0.0
C848 C 0.40494 0.38286 0.37113 0.0
C849 C 0.4564 0.37062 0.40135 0.0
C850 C 0.37848 0.36488 0.37084 0.0
C851 C 0.32545 0.36455 0.37219 0.0
C852 C 0.2979 0.38221 0.37388 0.0
C853 C 0.32415 0.40027 0.37321 0.0
C854 C 0.37734 0.40059 0.37183 0.0
H855 H 0.48086 0.3697 0.41227 0.0
H856 H 0.42495 0.38117 0.40376 0.0
H857 H 0.4393 0.35586 0.39924 0.0
H858 H 0.39909 0.35105 0.37022 0.0
H859 H 0.30625 0.35041 0.37264 0.0
H860 H 0.14918 0.62265 0.34402 0.0
H861 H 0.05589 0.62247 0.34193 0.0
H862 H 0.04449 0.64322 0.39112 0.0
H863 H 0.13729 0.64331 0.39329 0.0
H864 H 0.98356 0.60999 0.38428 0.0
H865 H 0.95564 0.66961 0.33892 0.0
H866 H 0.99984 0.6504 0.33357 0.0
H867 H 0.01422 0.6667 0.35006 0.0
C868 C 0.12668 0.62737 0.35431 0.0
C869 C 0.15045 0.63305 0.36881 0.0
C870 C 0.07344 0.62733 0.35308 0.0
C871 C 0.04317 0.633 0.36633 0.0
C872 C 0.06703 0.63884 0.38073 0.0
H873 H 0.73613 0.66488 0.38469 0.0
H874 H 0.8254 0.66346 0.3764 0.0
C875 C 0.12008 0.63893 0.38195 0.0
C876 C 0.98665 0.63205 0.36561 0.0
H877 H 0.88197 0.65339 0.34842 0.0
C878 C 0.96132 0.61933 0.37633 0.0
C879 C 0.95774 0.64433 0.35528 0.0
C880 C 0.983 0.65867 0.34386 0.0
C881 C 0.90796 0.61886 0.37728 0.0
C882 C 0.87891 0.63124 0.36704 0.0
C883 C 0.90422 0.64373 0.3561 0.0
C884 C 0.82271 0.6329 0.36887 0.0
C885 C 0.88322 0.60577 0.3898 0.0
C886 C 0.7907 0.6165 0.36658 0.0
C887 C 0.73944 0.6173 0.37131 0.0
C888 C 0.71949 0.63453 0.37839 0.0
C889 C 0.75056 0.65139 0.37934 0.0
C890 C 0.8016 0.65059 0.37461 0.0
H891 H 0.91112 0.60006 0.39873 0.0
H892 H 0.85296 0.61389 0.39642 0.0
H893 H 0.86539 0.59294 0.38369 0.0
H894 H 0.806 0.60278 0.36192 0.0
H895 H 0.71654 0.60405 0.37052 0.0
H896 H 0.16853 0.39547 0.85454 0.0
H897 H 0.0752 0.39402 0.85412 0.0
H898 H 0.08056 0.33426 0.87198 0.0
H899 H 0.17358 0.33584 0.87285 0.0
H900 H 0.00398 0.36999 0.83916 0.0
H901 H 0.99356 0.36143 0.90576 0.0
H902 H 0.05162 0.36807 0.89546 0.0
H903 H 0.03134 0.34271 0.89618 0.0
C904 C 0.14972 0.38198 0.85825 0.0
C905 C 0.17823 0.36582 0.86388 0.0
C906 C 0.09642 0.38116 0.85799 0.0
C907 C 0.07073 0.36418 0.86333 0.0
C908 C 0.09939 0.3477 0.86818 0.0
H909 H 0.75994 0.33219 0.88425 0.0
H910 H 0.84914 0.33173 0.87577 0.0
C911 C 0.15257 0.34857 0.86859 0.0
C912 C 0.01415 0.36392 0.86452 0.0
H913 H 0.91666 0.35709 0.89132 0.0
C914 C 0.98483 0.36722 0.85056 0.0
C915 C 0.98907 0.36053 0.87943 0.0
C916 C 0.01795 0.35819 0.89509 0.0
C917 C 0.93122 0.36664 0.85107 0.0
C918 C 0.90637 0.36282 0.86593 0.0
C919 C 0.93572 0.35977 0.87987 0.0
C920 C 0.84998 0.36205 0.8676 0.0
C921 C 0.90161 0.36974 0.83568 0.0
C922 C 0.82007 0.37901 0.86522 0.0
C923 C 0.76876 0.37924 0.86996 0.0
C924 C 0.74679 0.36256 0.87729 0.0
C925 C 0.77585 0.34521 0.87857 0.0
C926 C 0.82688 0.34497 0.8738 0.0
H927 H 0.92594 0.36789 0.82478 0.0
H928 H 0.86919 0.35928 0.83493 0.0
H929 H 0.88598 0.38495 0.83557 0.0
H930 H 0.83719 0.39248 0.86072 0.0
H931 H 0.74754 0.3929 0.8691 0.0
H932 H 0.29043 0.58644 0.8603 0.0
H933 H 0.38089 0.58355 0.85319 0.0
H934 H 0.40273 0.64497 0.86524 0.0
H935 H 0.31249 0.64806 0.87158 0.0
H936 H 0.46137 0.63505 0.84029 0.0
H937 H 0.48203 0.57885 0.889 0.0
H938 H 0.44023 0.57205 0.87281 0.0
H939 H 0.4237 0.59227 0.88593 0.0
C940 C 0.31453 0.59936 0.86108 0.0
C941 C 0.29485 0.61738 0.86668 0.0
C942 C 0.36619 0.59768 0.85715 0.0
C943 C 0.39894 0.61391 0.85914 0.0
C944 C 0.37836 0.63221 0.86369 0.0
H945 H 0.69383 0.64641 0.88457 0.0
H946 H 0.60619 0.64426 0.87469 0.0
C947 C 0.32675 0.63396 0.86735 0.0
C948 C 0.45505 0.61179 0.85797 0.0
H949 H 0.55653 0.59003 0.87659 0.0
C950 C 0.48215 0.62499 0.84805 0.0
C951 C 0.48227 0.59868 0.86814 0.0
C952 C 0.45574 0.58476 0.87968 0.0
C953 C 0.53547 0.62605 0.8486 0.0
C954 C 0.56224 0.61353 0.85923 0.0
C955 C 0.53559 0.59954 0.8684 0.0
C956 C 0.61698 0.61623 0.86259 0.0
C957 C 0.56282 0.64097 0.83823 0.0
C958 C 0.65206 0.6013 0.85886 0.0
C959 C 0.70222 0.60259 0.86438 0.0
C960 C 0.71759 0.61864 0.87398 0.0
C961 C 0.68284 0.63391 0.87719 0.0
C962 C 0.63298 0.63274 0.87148 0.0
H963 H 0.53867 0.64617 0.82807 0.0
H964 H 0.5731 0.65392 0.84576 0.0
H965 H 0.59853 0.63462 0.83324 0.0
H966 H 0.64013 0.58835 0.85219 0.0
H967 H 0.72817 0.59053 0.86192 0.0
H968 H 0.73389 0.56974 0.60659 0.0
H969 H 0.64128 0.56781 0.60942 0.0
H970 H 0.64239 0.62066 0.63854 0.0
H971 H 0.73514 0.62224 0.63623 0.0
H972 H 0.56636 0.59372 0.64793 0.0
H973 H 0.56504 0.60809 0.58175 0.0
H974 H 0.59802 0.586 0.58754 0.0
H975 H 0.62217 0.60968 0.59369 0.0
C976 C 0.71449 0.58059 0.614 0.0
C977 C 0.74144 0.59628 0.62103 0.0
C978 C 0.66162 0.57954 0.61553 0.0
C979 C 0.63494 0.59439 0.62382 0.0
C980 C 0.66225 0.60912 0.632 0.0
H981 H 0.33714 0.63649 0.59864 0.0
H982 H 0.42678 0.63312 0.60604 0.0
C983 C 0.71521 0.61003 0.63065 0.0
C984 C 0.57897 0.5961 0.62227 0.0
H985 H 0.48563 0.60402 0.59441 0.0
C986 C 0.54853 0.5959 0.63624 0.0
C987 C 0.55605 0.59936 0.60702 0.0
C988 C 0.58693 0.601 0.59165 0.0
C989 C 0.4956 0.59878 0.63535 0.0
C990 C 0.4727 0.60165 0.62006 0.0
C991 C 0.50324 0.60179 0.60612 0.0
C992 C 0.4173 0.60492 0.61798 0.0
C993 C 0.46493 0.59925 0.65078 0.0
C994 C 0.38197 0.59042 0.62258 0.0
C995 C 0.33061 0.59243 0.61848 0.0
C996 C 0.31401 0.60882 0.6095 0.0
C997 C 0.34906 0.62367 0.60548 0.0
C998 C 0.40018 0.62175 0.60972 0.0
H999 H 0.4893 0.60214 0.66149 0.0
H1000 H 0.43484 0.61074 0.65022 0.0
H1001 H 0.44622 0.58473 0.65253 0.0
H1002 H 0.39444 0.57711 0.62864 0.0
H1003 H 0.30444 0.58065 0.62154 0.0
H1004 H 0.26818 0.3539 0.63931 0.0
H1005 H 0.18185 0.35081 0.65062 0.0
H1006 H 0.12226 0.38439 0.61065 0.0
H1007 H 0.20769 0.388 0.59954 0.0
H1008 H 0.10264 0.38714 0.65574 0.0
H1009 H 0.04856 0.32632 0.61407 0.0
H1010 H 0.11356 0.3308 0.62019 0.0
H1011 H 0.08438 0.34618 0.60516 0.0
C1012 C 0.23666 0.36074 0.63303 0.0
C1013 C 0.24461 0.37095 0.61841 0.0
C1014 C 0.18757 0.35894 0.63948 0.0
C1015 C 0.14607 0.36728 0.63135 0.0
C1016 C 0.154 0.37774 0.61697 0.0
H1017 H 0.84887 0.4064 0.63377 0.0
H1018 H 0.93964 0.40186 0.63877 0.0
C1019 C 0.20276 0.37961 0.61058 0.0
C1020 C 0.09368 0.3649 0.63736 0.0
H1021 H 0.98088 0.34464 0.62601 0.0
C1022 C 0.07599 0.37751 0.64959 0.0
C1023 C 0.05947 0.35216 0.62941 0.0
C1024 C 0.07731 0.33794 0.61654 0.0
C1025 C 0.02389 0.37871 0.65325 0.0
C1026 C 0.98903 0.36723 0.64422 0.0
C1027 C 0.00748 0.35352 0.63289 0.0
C1028 C 0.93346 0.37078 0.64468 0.0
C1029 C 0.00661 0.39265 0.66637 0.0
C1030 C 0.89964 0.35489 0.64644 0.0
C1031 C 0.84788 0.35741 0.6433 0.0
C1032 C 0.82921 0.37586 0.63836 0.0
C1033 C 0.86239 0.39204 0.63761 0.0
C1034 C 0.91422 0.38949 0.64063 0.0
H1035 H 0.0363 0.39429 0.67582 0.0
H1036 H 0.99988 0.40745 0.66104 0.0
H1037 H 0.97083 0.38752 0.67215 0.0
H1038 H 0.91371 0.34032 0.64945 0.0
H1039 H 0.82292 0.34471 0.644 0.0
H1040 H 0.28447 0.0896 0.08805 0.0
H1041 H 0.29624 0.08737 0.05878 0.0
H1042 H 0.18897 0.13479 0.05197 0.0
H1043 H 0.17636 0.13695 0.08128 0.0
H1044 H 0.17528 0.10377 0.03044 0.0
H1045 H 0.37811 0.12663 0.03185 0.0
H1046 H 0.36341 0.1057 0.04433 0.0
H1047 H 0.33633 0.12939 0.04905 0.0
C1048 C 0.26313 0.09951 0.08034 0.0
C1049 C 0.22977 0.11358 0.08702 0.0
C1050 C 0.27024 0.0983 0.0636 0.0
C1051 C 0.24447 0.11124 0.0532 0.0
C1052 C 0.20966 0.12479 0.05978 0.0
H1053 H 0.22991 0.13495 0.95084 0.0
H1054 H 0.22675 0.13607 0.98038 0.0
C1055 C 0.2024 0.12598 0.07654 0.0
C1056 C 0.25362 0.11062 0.03547 0.0
H1057 H 0.34542 0.11646 0.00646 0.0
C1058 C 0.21245 0.10658 0.02521 0.0
C1059 C 0.30224 0.11422 0.02864 0.0
C1060 C 0.34751 0.1194 0.039 0.0
C1061 C 0.21858 0.10594 0.00835 0.0
C1062 C 0.26702 0.10976 1.00152 0.0
C1063 C 0.30838 0.11354 0.01175 0.0
C1064 C 0.27465 0.11045 0.98374 0.0
C1065 C 0.17319 0.10099 0.99795 0.0
C1066 C 0.30495 0.09631 0.97585 0.0
C1067 C 0.30708 0.0957 0.9589 0.0
C1068 C 0.27892 0.10925 0.94966 0.0
C1069 C 0.25145 0.12417 0.95766 0.0
C1070 C 0.24943 0.12478 0.97452 0.0
H1071 H 0.14259 0.09367 0.00504 0.0
H1072 H 0.15739 0.1148 0.99278 0.0
H1073 H 0.18428 0.09118 0.98778 0.0
H1074 H 0.32504 0.08521 0.98278 0.0
H1075 H 0.32834 0.084 0.95305 0.0
H1076 H 0.25933 0.90941 0.08124 0.0
H1077 H 0.23287 0.90964 0.05294 0.0
H1078 H 0.31892 0.85647 0.04432 0.0
H1079 H 0.34641 0.85631 0.07264 0.0
H1080 H 0.32826 0.88351 0.0195 0.0
H1081 H 0.12473 0.87281 0.03506 0.0
H1082 H 0.1528 0.89406 0.04445 0.0
H1083 H 0.17502 0.86978 0.04968 0.0
C1084 C 0.27309 0.89785 0.07331 0.0
C1085 C 0.30465 0.88273 0.07926 0.0
C1086 C 0.25753 0.89792 0.05715 0.0
C1087 C 0.27268 0.88277 0.04661 0.0
C1088 C 0.30627 0.86819 0.05228 0.0
H1089 H 0.21014 0.8514 0.94676 0.0
H1090 H 0.23315 0.85145 0.97542 0.0
C1091 C 0.32211 0.86816 0.06846 0.0
C1092 C 0.25305 0.88202 0.02975 0.0
H1093 H 0.1436 0.8795 0.00749 0.0
C1094 C 0.28792 0.88254 0.01688 0.0
C1095 C 0.20031 0.88074 0.02632 0.0
C1096 C 0.16103 0.87913 0.03959 0.0
C1097 C 0.27151 0.88215 1.00072 0.0
C1098 C 0.21884 0.88094 0.99731 0.0
C1099 C 0.18392 0.88047 0.01014 0.0
C1100 C 0.19964 0.87996 0.98044 0.0
C1101 C 0.31066 0.88338 0.98738 0.0
C1102 C 0.17083 0.89551 0.97395 0.0
C1103 C 0.15746 0.8955 0.95754 0.0
C1104 C 0.17258 0.87989 0.94738 0.0
C1105 C 0.19854 0.86376 0.95422 0.0
C1106 C 0.2119 0.8638 0.97057 0.0
H1107 H 0.34792 0.88879 0.9919 0.0
H1108 H 0.31653 0.86848 0.98213 0.0
H1109 H 0.29753 0.89332 0.97756 0.0
H1110 H 0.16067 0.90806 0.98141 0.0
H1111 H 0.13784 0.90821 0.95263 0.0
H1112 H 0.6473 0.87707 0.4454 0.0
H1113 H 0.67414 0.87519 0.47369 0.0
H1114 H 0.78281 0.9218 0.46539 0.0
H1115 H 0.75529 0.92416 0.43727 0.0
H1116 H 0.76691 0.86603 0.4858 0.0
H1117 H 0.71229 0.94133 0.50563 0.0
H1118 H 0.69125 0.93092 0.4867 0.0
H1119 H 0.75414 0.94117 0.48846 0.0
C1120 C 0.67641 0.88711 0.44965 0.0
C1121 C 0.6989 0.90085 0.43909 0.0
C1122 C 0.69188 0.88596 0.46581 0.0
C1123 C 0.73012 0.8985 0.47173 0.0
C1124 C 0.75247 0.91227 0.46122 0.0
H1125 H 0.88793 0.87518 0.56398 0.0
H1126 H 0.87054 0.87982 0.53503 0.0
C1127 C 0.73676 0.91355 0.44511 0.0
C1128 C 0.74763 0.89671 0.48875 0.0
H1129 H 0.76132 0.92243 0.52401 0.0
C1130 C 0.76567 0.87835 0.49417 0.0
C1131 C 0.74577 0.91278 0.49969 0.0
C1132 C 0.72437 0.93261 0.4949 0.0
C1133 C 0.78148 0.87556 0.51024 0.0
C1134 C 0.78033 0.89171 0.5211 0.0
C1135 C 0.76275 0.91011 0.51563 0.0
C1136 C 0.79274 0.88948 0.53854 0.0
C1137 C 0.79753 0.85519 0.51557 0.0
C1138 C 0.75557 0.89403 0.55013 0.0
C1139 C 0.76563 0.89171 0.56656 0.0
C1140 C 0.81309 0.88462 0.57188 0.0
C1141 C 0.85092 0.88054 0.56029 0.0
C1142 C 0.84085 0.883 0.54375 0.0
H1143 H 0.78513 0.84364 0.50688 0.0
H1144 H 0.83963 0.85461 0.51638 0.0
H1145 H 0.78163 0.85164 0.52767 0.0
H1146 H 0.71836 0.89923 0.54645 0.0
H1147 H 0.73603 0.89557 0.57513 0.0
H1148 H 0.72663 0.07866 0.443 0.0
H1149 H 0.70401 0.07997 0.47172 0.0
H1150 H 0.81153 0.12722 0.47888 0.0
H1151 H 0.83511 0.12576 0.45031 0.0
H1152 H 0.81618 0.09954 0.50283 0.0
H1153 H 0.61562 0.12208 0.49265 0.0
H1154 H 0.63355 0.09956 0.48272 0.0
H1155 H 0.66278 0.12242 0.47676 0.0
C1156 C 0.74568 0.08926 0.4507 0.0
C1157 C 0.78245 0.1022 0.44433 0.0
C1158 C 0.73236 0.0901 0.46709 0.0
C1159 C 0.75519 0.10401 0.47737 0.0
C1160 C 0.79309 0.11648 0.47114 0.0
H1161 H 0.73311 0.14209 0.57684 0.0
H1162 H 0.74661 0.1393 0.54763 0.0
C1163 C 0.80659 0.1156 0.4548 0.0
C1164 C 0.74006 0.10558 0.49464 0.0
H1165 H 0.63962 0.1155 0.51974 0.0
C1166 C 0.77759 0.10305 0.50651 0.0
C1167 C 0.68962 0.11016 0.49944 0.0
C1168 C 0.6481 0.1139 0.48724 0.0
C1169 C 0.76611 0.10491 0.52303 0.0
C1170 C 0.71587 0.10964 0.52781 0.0
C1171 C 0.67809 0.1119 0.516 0.0
C1172 C 0.70246 0.11255 0.54506 0.0
C1173 C 0.80775 0.10164 0.53528 0.0
C1174 C 0.67129 0.09892 0.55312 0.0
C1175 C 0.66355 0.10045 0.56984 0.0
C1176 C 0.68676 0.1157 0.57873 0.0
C1177 C 0.71536 0.13001 0.57038 0.0
C1178 C 0.72314 0.12844 0.55371 0.0
H1179 H 0.84112 0.09396 0.52991 0.0
H1180 H 0.82072 0.11613 0.53998 0.0
H1181 H 0.79352 0.09283 0.54567 0.0
H1182 H 0.65484 0.0866 0.54661 0.0
H1183 H 0.64172 0.08909 0.57591 0.0
H1184 H 0.84993 0.87025 0.93932 0.0
H1185 H 0.81929 0.86542 0.96703 0.0
H1186 H 0.7434 0.9218 0.96534 0.0
H1187 H 0.77317 0.92664 0.9376 0.0
H1188 H 0.83063 0.88717 0.99531 0.0
H1189 H 0.62753 0.88437 0.97714 0.0
H1190 H 0.6789 0.88293 0.96267 0.0
H1191 H 0.66023 0.90638 0.97096 0.0
C1192 C 0.82721 0.88174 0.94489 0.0
C1193 C 0.81364 0.89875 0.93616 0.0
C1194 C 0.80957 0.87892 0.96073 0.0
C1195 C 0.77794 0.89301 0.96812 0.0
C1196 C 0.76657 0.91047 0.95973 0.0
H1197 H 0.63434 0.89939 0.06341 0.0
H1198 H 0.65981 0.90537 0.03523 0.0
C1199 C 0.78406 0.91328 0.94391 0.0
C1200 C 0.75643 0.88933 0.98451 0.0
H1201 H 0.64455 0.88401 0.00529 0.0
C1202 C 0.78996 0.88643 0.99747 0.0
C1203 C 0.70328 0.88838 0.98734 0.0
C1204 C 0.66531 0.8905 0.97379 0.0
C1205 C 0.77188 0.88284 0.01321 0.0
C1206 C 0.71878 0.88178 0.01602 0.0
C1207 C 0.68519 0.88483 0.0031 0.0
C1208 C 0.69778 0.87725 0.03231 0.0
C1209 C 0.80981 0.88051 0.02676 0.0
C1210 C 0.70851 0.85911 0.03973 0.0
C1211 C 0.69375 0.85562 0.05572 0.0
C1212 C 0.66774 0.87018 0.06463 0.0
C1213 C 0.65398 0.88783 0.05683 0.0
C1214 C 0.66885 0.89133 0.04078 0.0
H1215 H 0.84771 0.88655 0.02344 0.0
H1216 H 0.7963 0.88803 0.03791 0.0
H1217 H 0.81453 0.86459 0.02952 0.0
H1218 H 0.72975 0.84786 0.0333 0.0
H1219 H 0.70438 0.84178 0.06134 0.0
H1220 H 0.69917 0.075 0.9622 0.0
H1221 H 0.74539 0.08369 0.98681 0.0
H1222 H 0.68579 0.1429 0.98429 0.0
H1223 H 0.63887 0.13431 0.95975 0.0
H1224 H 0.82 0.11333 0.99024 0.0
H1225 H 0.65474 0.12617 0.03094 0.0
H1226 H 0.64903 0.11331 0.01191 0.0
H1227 H 0.65328 0.13978 0.01231 0.0
C1228 C 0.69532 0.08981 0.96698 0.0
C1229 C 0.66512 0.10394 0.95904 0.0
C1230 C 0.72199 0.09477 0.981 0.0
C1231 C 0.71878 0.11389 0.98742 0.0
C1232 C 0.68819 0.12797 0.97966 0.0
H1233 H 0.84144 0.16538 0.07517 0.0
H1234 H 0.80888 0.16161 0.04762 0.0
C1235 C 0.66144 0.12303 0.96563 0.0
C1236 C 0.74839 0.11914 1.00203 0.0
H1237 H 0.73595 0.13387 0.04129 0.0
C1238 C 0.80171 0.11784 1.00142 0.0
C1239 C 0.72439 0.12507 0.01655 0.0
C1240 C 0.66721 0.12603 0.01809 0.0
C1241 C 0.83172 0.1224 0.01496 0.0
C1242 C 0.80766 0.12811 0.02953 0.0
C1243 C 0.75437 0.12962 0.03006 0.0
C1244 C 0.8363 0.13171 0.04469 0.0
C1245 C 0.88885 0.12125 0.0135 0.0
C1246 C 0.8642 0.11641 0.05194 0.0
C1247 C 0.88312 0.11859 0.06764 0.0
C1248 C 0.87389 0.13602 0.07639 0.0
C1249 C 0.84899 0.15178 0.06869 0.0
C1250 C 0.83028 0.14963 0.05299 0.0
H1251 H 0.90145 0.12247 1.00071 0.0
H1252 H 0.90751 0.13306 0.02066 0.0
H1253 H 0.90198 0.10678 0.01819 0.0
H1254 H 0.86847 0.10232 0.0459 0.0
H1255 H 0.90145 0.1061 0.07337 0.0
H1256 H 0.1484 0.0913 0.43952 0.0
H1257 H 0.16532 0.08987 0.46874 0.0
H1258 H 0.21134 0.15096 0.46802 0.0
H1259 H 0.19473 0.1524 0.43894 0.0
H1260 H 0.26646 0.09846 0.48103 0.0
H1261 H 0.11893 0.14633 0.50877 0.0
H1262 H 0.11131 0.13504 0.48911 0.0
H1263 H 0.14983 0.15677 0.49136 0.0
C1264 C 0.16056 0.10455 0.44575 0.0
C1265 C 0.17013 0.12198 0.43706 0.0
C1266 C 0.17052 0.10369 0.46237 0.0
C1267 C 0.18925 0.12034 0.47053 0.0
C1268 C 0.19619 0.13803 0.462 0.0
H1269 H 0.32242 0.15559 0.56015 0.0
H1270 H 0.28632 0.15218 0.53311 0.0
C1271 C 0.18682 0.13884 0.44541 0.0
C1272 C 0.20703 0.11886 0.48747 0.0
H1273 H 0.19182 0.13919 0.52492 0.0
C1274 C 0.24975 0.10709 0.49073 0.0
C1275 C 0.18532 0.13028 0.5 0.0
C1276 C 0.13853 0.14271 0.49723 0.0
C1277 C 0.27285 0.10715 0.50603 0.0
C1278 C 0.25183 0.11895 0.5185 0.0
C1279 C 0.20806 0.13022 0.51535 0.0
C1280 C 0.27579 0.12056 0.5347 0.0
C1281 C 0.32091 0.09532 0.50846 0.0
C1282 C 0.28227 0.10388 0.54457 0.0
C1283 C 0.30353 0.10576 0.56001 0.0
C1284 C 0.31795 0.1244 0.56593 0.0
C1285 C 0.31175 0.14102 0.55596 0.0
C1286 C 0.29093 0.13911 0.54051 0.0
H1287 H 0.33895 0.09124 0.49677 0.0
H1288 H 0.34895 0.10368 0.51579 0.0
H1289 H 0.31157 0.08148 0.51499 0.0
H1290 H 0.26993 0.08947 0.54048 0.0
H1291 H 0.30729 0.09269 0.56746 0.0
H1292 H 0.27374 0.86119 0.4411 0.0
H1293 H 0.26274 0.86669 0.47004 0.0
H1294 H 0.34041 0.92254 0.46599 0.0
H1295 H 0.35007 0.91737 0.4367 0.0
H1296 H 0.32835 0.87236 0.49485 0.0
H1297 H 0.20658 0.9388 0.48685 0.0
H1298 H 0.22346 0.92283 0.47022 0.0
H1299 H 0.26882 0.94028 0.47793 0.0
C1300 C 0.28862 0.87465 0.44636 0.0
C1301 C 0.31209 0.88899 0.43655 0.0
C1302 C 0.28247 0.87774 0.46293 0.0
C1303 C 0.29967 0.89522 0.47018 0.0
C1304 C 0.32569 0.90914 0.46061 0.0
H1305 H 0.25815 0.92925 0.57213 0.0
H1306 H 0.28489 0.92881 0.5437 0.0
C1307 C 0.33181 0.90606 0.44392 0.0
C1308 C 0.28878 0.89875 0.48763 0.0
H1309 H 0.22126 0.92822 0.51359 0.0
C1310 C 0.30524 0.88466 0.49894 0.0
C1311 C 0.25847 0.91479 0.49301 0.0
C1312 C 0.23786 0.92998 0.4814 0.0
C1313 C 0.29156 0.88597 0.51534 0.0
C1314 C 0.26025 0.90169 0.52061 0.0
C1315 C 0.24514 0.91616 0.50947 0.0
C1316 C 0.24136 0.90282 0.53753 0.0
C1317 C 0.31037 0.87042 0.52694 0.0
C1318 C 0.20686 0.88869 0.54335 0.0
C1319 C 0.19117 0.88897 0.55954 0.0
C1320 C 0.20988 0.90336 0.57026 0.0
C1321 C 0.24312 0.91792 0.56423 0.0
C1322 C 0.2585 0.9177 0.54799 0.0
H1323 H 0.34279 0.86191 0.52183 0.0
H1324 H 0.32243 0.87721 0.53854 0.0
H1325 H 0.27903 0.85993 0.52958 0.0
H1326 H 0.19268 0.87722 0.53542 0.0
H1327 H 0.16555 0.87754 0.56374 0.0
H1328 H 0.6411 0.61809 0.05246 0.0
H1329 H 0.67424 0.62561 0.02546 0.0
H1330 H 0.73924 0.5673 0.02239 0.0
H1331 H 0.70658 0.55965 0.04938 0.0
H1332 H 0.80724 0.59866 0.01367 0.0
H1333 H 0.62154 0.60383 0.98191 0.0
H1334 H 0.62699 0.61861 0.99987 0.0
H1335 H 0.62827 0.59217 1.00142 0.0
C1336 C 0.66201 0.60678 0.04599 0.0
C1337 C 0.67097 0.58823 0.05307 0.0
C1338 C 0.68088 0.61111 0.03055 0.0
C1339 C 0.7089 0.59696 0.02189 0.0
C1340 C 0.71768 0.57841 0.02888 0.0
H1341 H 0.85226 0.58948 0.92759 0.0
H1342 H 0.83199 0.58566 0.95636 0.0
C1343 C 0.69873 0.57405 0.04428 0.0
C1344 C 0.72972 0.60155 0.00564 0.0
H1345 H 0.6947 0.61261 0.96698 0.0
C1346 C 0.78272 0.60171 0.00343 0.0
C1347 C 0.69762 0.60555 0.99235 0.0
C1348 C 0.64042 0.6049 0.99389 0.0
C1349 C 0.80452 0.606 0.98829 0.0
C1350 C 0.77237 0.60987 0.97496 0.0
C1351 C 0.71937 0.60976 0.97722 0.0
C1352 C 0.79227 0.61356 0.9584 0.0
C1353 C 0.86169 0.60669 0.98678 0.0
C1354 C 0.77751 0.63064 0.95002 0.0
C1355 C 0.78877 0.63276 0.9336 0.0
C1356 C 0.81505 0.61785 0.92522 0.0
C1357 C 0.83267 0.60133 0.93382 0.0
C1358 C 0.82105 0.59914 0.95026 0.0
H1359 H 0.88011 0.60926 0.99868 0.0
H1360 H 0.87554 0.59233 0.98204 0.0
H1361 H 0.8739 0.61848 0.97829 0.0
H1362 H 0.75532 0.64196 0.95604 0.0
H1363 H 0.77478 0.64564 0.92724 0.0
H1364 H 0.70002 0.33493 0.9315 0.0
H1365 H 0.73153 0.33746 0.95928 0.0
H1366 H 0.6708 0.39649 0.96263 0.0
H1367 H 0.63862 0.39389 0.93504 0.0
H1368 H 0.80328 0.36359 0.96735 0.0
H1369 H 0.63595 0.37558 0.00675 0.0
H1370 H 0.63032 0.36623 0.98638 0.0
H1371 H 0.63651 0.39234 0.98998 0.0
C1372 C 0.69202 0.34818 0.93839 0.0
C1373 C 0.66684 0.36421 0.93115 0.0
C1374 C 0.71011 0.34963 0.95422 0.0
C1375 C 0.70332 0.36712 0.96308 0.0
C1376 C 0.67549 0.38268 0.9562 0.0
H1377 H 0.84301 0.42778 0.04195 0.0
H1378 H 0.79913 0.41701 0.01745 0.0
C1379 C 0.65707 0.38118 0.94041 0.0
C1380 C 0.73101 0.37015 0.9785 0.0
H1381 H 0.71683 0.38631 0.01737 0.0
C1382 C 0.78426 0.36821 0.97837 0.0
C1383 C 0.70623 0.37625 0.99286 0.0
C1384 C 0.64906 0.37753 0.99406 0.0
C1385 C 0.81351 0.37298 0.992 0.0
C1386 C 0.78882 0.37978 0.00611 0.0
C1387 C 0.73557 0.38122 0.00643 0.0
C1388 C 0.81776 0.38616 0.02049 0.0
C1389 C 0.8707 0.37144 0.99106 0.0
C1390 C 0.84329 0.37235 0.03015 0.0
C1391 C 0.86844 0.37843 0.04418 0.0
C1392 C 0.86844 0.39844 0.04875 0.0
C1393 C 0.84394 0.41228 0.03876 0.0
C1394 C 0.8186 0.40616 0.02481 0.0
H1395 H 0.88427 0.36865 0.97853 0.0
H1396 H 0.88859 0.38522 0.9956 0.0
H1397 H 0.88376 0.35912 0.99885 0.0
H1398 H 0.84275 0.35682 0.02703 0.0
H1399 H 0.8868 0.3674 0.05164 0.0
H1400 H 0.24074 0.42391 0.44095 0.0
H1401 H 0.27869 0.42084 0.46782 0.0
H1402 H 0.21311 0.36284 0.47288 0.0
H1403 H 0.17516 0.3657 0.44598 0.0
H1404 H 0.23112 0.41355 0.49818 0.0
H1405 H 0.36672 0.3541 0.48143 0.0
H1406 H 0.33447 0.36907 0.46656 0.0
H1407 H 0.30155 0.34911 0.47634 0.0
C1408 C 0.23407 0.41053 0.44781 0.0
C1409 C 0.20512 0.39499 0.44128 0.0
C1410 C 0.25591 0.4088 0.46314 0.0
C1411 C 0.24958 0.39146 0.47217 0.0
C1412 C 0.21934 0.37618 0.46594 0.0
H1413 H 0.31809 0.34771 0.56605 0.0
H1414 H 0.30165 0.35225 0.5372 0.0
C1415 C 0.19731 0.37792 0.45062 0.0
C1416 C 0.27412 0.38943 0.4882 0.0
H1417 H 0.35856 0.36132 0.5095 0.0
C1418 C 0.2594 0.40229 0.50064 0.0
C1419 C 0.31108 0.37473 0.49131 0.0
C1420 C 0.32983 0.36105 0.47819 0.0
C1421 C 0.2791 0.40035 0.51633 0.0
C1422 C 0.31543 0.38541 0.51954 0.0
C1423 C 0.33098 0.37282 0.50698 0.0
C1424 C 0.33401 0.38158 0.53616 0.0
C1425 C 0.25911 0.41373 0.5295 0.0
C1426 C 0.36023 0.39613 0.54493 0.0
C1427 C 0.36961 0.39358 0.56147 0.0
C1428 C 0.35299 0.3764 0.5694 0.0
C1429 C 0.33085 0.36117 0.56025 0.0
C1430 C 0.32147 0.36374 0.54378 0.0
H1431 H 0.22392 0.42158 0.52576 0.0
H1432 H 0.25084 0.40522 0.54067 0.0
H1433 H 0.28833 0.42499 0.53243 0.0
H1434 H 0.37116 0.40985 0.53918 0.0
H1435 H 0.38657 0.40557 0.56824 0.0
H1436 H 0.24718 0.64011 0.56013 0.0
H1437 H 0.25627 0.63943 0.5307 0.0
H1438 H 0.16642 0.58625 0.52869 0.0
H1439 H 0.15716 0.58688 0.55824 0.0
H1440 H 0.3044 0.60805 0.51474 0.0
H1441 H 0.10863 0.61958 0.49132 0.0
H1442 H 0.1267 0.62595 0.51174 0.0
H1443 H 0.11492 0.60066 0.50642 0.0
C1444 C 0.22839 0.62851 0.55338 0.0
C1445 C 0.20156 0.61351 0.56149 0.0
C1446 C 0.23371 0.62812 0.53657 0.0
C1447 C 0.21207 0.6128 0.52747 0.0
C1448 C 0.18286 0.59837 0.53543 0.0
H1449 H 0.2351 0.5808 0.42569 0.0
H1450 H 0.21856 0.58138 0.45478 0.0
C1451 C 0.17744 0.59877 0.55231 0.0
C1452 C 0.22426 0.61106 0.50996 0.0
H1453 H 0.17198 0.61092 0.47217 0.0
C1454 C 0.27546 0.60874 0.50542 0.0
C1455 C 0.18646 0.6118 0.49784 0.0
C1456 C 0.1311 0.61479 0.50199 0.0
C1457 C 0.28988 0.60702 0.48911 0.0
C1458 C 0.25219 0.60804 0.47694 0.0
C1459 C 0.20089 0.61017 0.48149 0.0
C1460 C 0.26511 0.60707 0.45943 0.0
C1461 C 0.34526 0.60372 0.48509 0.0
C1462 C 0.29725 0.62122 0.45233 0.0
C1463 C 0.3071 0.62086 0.43567 0.0
C1464 C 0.28456 0.60646 0.42575 0.0
C1465 C 0.25319 0.59209 0.43296 0.0
C1466 C 0.24348 0.59244 0.4496 0.0
H1467 H 0.36654 0.59771 0.49559 0.0
H1468 H 0.34963 0.5934 0.47474 0.0
H1469 H 0.36288 0.61802 0.48171 0.0
H1470 H 0.31365 0.63289 0.4596 0.0
H1471 H 0.33105 0.63225 0.43052 0.0
H1472 H 0.26675 0.36881 0.0568 0.0
H1473 H 0.27271 0.36823 0.0273 0.0
H1474 H 0.18498 0.42193 0.0248 0.0
H1475 H 0.17997 0.42284 0.05446 0.0
H1476 H 0.20333 0.36818 1.00197 0.0
H1477 H 0.31853 0.437 1.00237 0.0
H1478 H 0.30443 0.42335 0.02056 0.0
H1479 H 0.2569 0.43898 0.01166 0.0
C1480 C 0.24809 0.38035 0.04995 0.0
C1481 C 0.22341 0.396 0.05795 0.0
C1482 C 0.25149 0.37999 0.03309 0.0
C1483 C 0.23039 0.39529 0.02386 0.0
C1484 C 0.20253 0.4102 0.03172 0.0
H1485 H 0.25694 0.4203 0.92069 0.0
H1486 H 0.23673 0.42123 0.94956 0.0
C1487 C 0.19909 0.41057 0.04865 0.0
C1488 C 0.24036 0.39604 0.00616 0.0
H1489 H 0.30127 0.42283 0.97692 0.0
C1490 C 0.22457 0.38016 0.99648 0.0
C1491 C 0.26841 0.41163 0.99902 0.0
C1492 C 0.28851 0.42865 0.00892 0.0
C1493 C 0.23585 0.37949 0.97986 0.0
C1494 C 0.2644 0.39495 0.97278 0.0
C1495 C 0.27952 0.41098 0.98239 0.0
C1496 C 0.2789 0.39477 0.9554 0.0
C1497 C 0.21666 0.36232 0.96997 0.0
C1498 C 0.31064 0.37991 0.94916 0.0
C1499 C 0.32252 0.37938 0.93264 0.0
C1500 C 0.30284 0.39371 0.92206 0.0
C1501 C 0.27255 0.40897 0.92847 0.0
C1502 C 0.26089 0.40953 0.94498 0.0
H1503 H 0.18527 0.35438 0.9762 0.0
H1504 H 0.20295 0.36735 0.95796 0.0
H1505 H 0.24823 0.35171 0.96798 0.0
H1506 H 0.32584 0.36861 0.95705 0.0
H1507 H 0.34604 0.36745 0.92812 0.0
H1508 H 0.22774 0.6316 0.94135 0.0
H1509 H 0.26658 0.62818 0.96806 0.0
H1510 H 0.17445 0.57678 0.97734 0.0
H1511 H 0.13525 0.58005 0.95062 0.0
H1512 H 0.21575 0.62735 0.99908 0.0
H1513 H 0.32362 0.55859 0.98638 0.0
H1514 H 0.29908 0.5743 0.97055 0.0
H1515 H 0.2573 0.55776 0.98115 0.0
C1516 C 0.21559 0.61957 0.94907 0.0
C1517 C 0.17843 0.60605 0.94382 0.0
C1518 C 0.23793 0.61764 0.96432 0.0
C1519 C 0.22401 0.60205 0.97454 0.0
C1520 C 0.18636 0.58872 0.96949 0.0
H1521 H 0.26725 0.56031 0.06963 0.0
H1522 H 0.25752 0.56466 0.04051 0.0
C1523 C 0.16371 0.59071 0.95427 0.0
C1524 C 0.24788 0.6 0.99069 0.0
H1525 H 0.31863 0.5687 0.01391 0.0
C1526 C 0.23881 0.61467 1.00231 0.0
C1527 C 0.27807 0.58348 0.99478 0.0
C1528 C 0.29059 0.56768 0.98254 0.0
C1529 C 0.2569 0.61277 0.01821 0.0
C1530 C 0.28608 0.59596 0.02246 0.0
C1531 C 0.2966 0.58163 0.01063 0.0
C1532 C 0.30052 0.59187 0.03949 0.0
C1533 C 0.2422 0.62824 0.03051 0.0
C1534 C 0.33036 0.60515 0.0485 0.0
C1535 C 0.33588 0.60268 0.06525 0.0
C1536 C 0.31181 0.58685 0.07312 0.0
C1537 C 0.28589 0.5727 0.06383 0.0
C1538 C 0.28031 0.57518 0.0472 0.0
H1539 H 0.21131 0.63801 0.02605 0.0
H1540 H 0.22941 0.62125 0.04197 0.0
H1541 H 0.27575 0.6376 0.03323 0.0
H1542 H 0.34732 0.61789 0.04272 0.0
H1543 H 0.35594 0.6138 0.07216 0.0
H1544 H 0.84211 0.58658 0.53954 0.0
H1545 H 0.7982 0.59602 0.51464 0.0
H1546 H 0.77172 0.65423 0.53397 0.0
H1547 H 0.81601 0.64501 0.55892 0.0
H1548 H 0.68141 0.63103 0.51989 0.0
H1549 H 0.8508 0.63824 0.47987 0.0
H1550 H 0.84839 0.61669 0.49258 0.0
H1551 H 0.85456 0.64065 0.50161 0.0
C1552 C 0.82743 0.60145 0.53845 0.0
C1553 C 0.83266 0.61506 0.55118 0.0
C1554 C 0.80235 0.60681 0.52423 0.0
C1555 C 0.78185 0.6258 0.52253 0.0
C1556 C 0.78737 0.6395 0.53511 0.0
H1557 H 0.67248 0.66785 0.42964 0.0
H1558 H 0.70296 0.66812 0.45759 0.0
C1559 C 0.81291 0.63423 0.54929 0.0
C1560 C 0.75384 0.6311 0.50768 0.0
H1561 H 0.77007 0.63835 0.46721 0.0
C1562 C 0.70067 0.63285 0.50837 0.0
C1563 C 0.77928 0.63358 0.49277 0.0
C1564 C 0.83646 0.63235 0.49156 0.0
C1565 C 0.67201 0.63637 0.49433 0.0
C1566 C 0.69735 0.63809 0.4793 0.0
C1567 C 0.7507 0.63702 0.47876 0.0
C1568 C 0.6697 0.63991 0.46378 0.0
C1569 C 0.61497 0.6381 0.49564 0.0
C1570 C 0.63929 0.6243 0.45819 0.0
C1571 C 0.62188 0.6241 0.44222 0.0
C1572 C 0.63499 0.63945 0.43156 0.0
C1573 C 0.66212 0.65577 0.43757 0.0
C1574 C 0.67954 0.65594 0.45351 0.0
H1575 H 0.60284 0.6418 0.50816 0.0
H1576 H 0.6002 0.64955 0.48726 0.0
H1577 H 0.59744 0.62377 0.49231 0.0
H1578 H 0.63198 0.61162 0.46583 0.0
H1579 H 0.60167 0.61122 0.43789 0.0
H1580 H 0.78189 0.42293 0.56808 0.0
H1581 H 0.80399 0.42135 0.53931 0.0
H1582 H 0.71085 0.36938 0.53397 0.0
H1583 H 0.688 0.37098 0.56257 0.0
H1584 H 0.85304 0.391 0.52284 0.0
H1585 H 0.66151 0.40414 0.49708 0.0
H1586 H 0.67638 0.40908 0.518 0.0
H1587 H 0.66276 0.38431 0.51146 0.0
C1588 C 0.76564 0.41128 0.56075 0.0
C1589 C 0.73299 0.39712 0.56763 0.0
C1590 C 0.77846 0.41038 0.54432 0.0
C1591 C 0.75862 0.39539 0.53445 0.0
C1592 C 0.72581 0.38131 0.54127 0.0
H1593 H 0.78726 0.35589 0.43586 0.0
H1594 H 0.77453 0.35892 0.46507 0.0
C1595 C 0.71294 0.38221 0.55766 0.0
C1596 C 0.77348 0.39399 0.51714 0.0
H1597 H 0.7248 0.39208 0.47892 0.0
C1598 C 0.8251 0.39141 0.51321 0.0
C1599 C 0.73699 0.39457 0.5046 0.0
C1600 C 0.68138 0.39837 0.50795 0.0
C1601 C 0.84096 0.38876 0.49709 0.0
C1602 C 0.80428 0.38889 0.48462 0.0
C1603 C 0.75283 0.39181 0.48853 0.0
C1604 C 0.81796 0.38589 0.46737 0.0
C1605 C 0.89656 0.38527 0.49357 0.0
C1606 C 0.84764 0.3998 0.45903 0.0
C1607 C 0.85494 0.39812 0.44229 0.0
C1608 C 0.83236 0.38255 0.43362 0.0
C1609 C 0.80477 0.36814 0.44218 0.0
C1610 C 0.79747 0.36984 0.45886 0.0
H1611 H 0.91812 0.38136 0.50466 0.0
H1612 H 0.9014 0.37329 0.48453 0.0
H1613 H 0.91337 0.39893 0.48844 0.0
H1614 H 0.86315 0.41246 0.46532 0.0
H1615 H 0.87576 0.40961 0.43603 0.0
H1616 H 0.24968 0.08334 0.15161 0.0
H1617 H 0.29013 0.0511 0.14923 0.0
H1618 H 0.16298 0.02991 0.12127 0.0
H1619 H 0.12257 0.06241 0.12324 0.0
H1620 H 0.2583 0.0158 0.15971 0.0
H1621 H 0.28236 0.01387 0.09309 0.0
H1622 H 0.26533 0.03608 0.10388 0.0
H1623 H 0.21774 0.01783 0.09935 0.0
C1624 C 0.23015 0.07185 0.14494 0.0
C1625 C 0.18282 0.07545 0.1376 0.0
C1626 C 0.25347 0.05343 0.14357 0.0
C1627 C 0.23002 0.03819 0.13485 0.0
C1628 C 0.18236 0.04161 0.12772 0.0
H1629 H 0.29558 0.91419 0.1446 0.0
H1630 H 0.26024 0.94739 0.14526 0.0
C1631 C 0.1591 0.06013 0.12898 0.0
C1632 C 0.2549 0.01859 0.13379 0.0
H1633 H 0.29864 0.98385 0.10723 0.0
C1634 C 0.26733 0.00886 0.14823 0.0
C1635 C 0.2675 0.00971 0.1188 0.0
C1636 C 0.25805 0.01998 0.1029 0.0
C1637 C 0.29104 0.99032 0.14812 0.0
C1638 C 0.30146 0.98103 0.13315 0.0
C1639 C 0.29014 0.99093 0.11869 0.0
C1640 C 0.3229 0.96082 0.13232 0.0
C1641 C 0.30527 0.981 0.16407 0.0
C1642 C 0.36917 0.9572 0.12433 0.0
C1643 C 0.38943 0.93809 0.12378 0.0
C1644 C 0.36365 0.92232 0.13121 0.0
C1645 C 0.3169 0.92602 0.13896 0.0
C1646 C 0.29663 0.94503 0.13941 0.0
H1647 H 0.30908 0.99224 0.17378 0.0
H1648 H 0.27495 0.97053 0.16776 0.0
H1649 H 0.34162 0.97273 0.1631 0.0
H1650 H 0.38985 0.96919 0.11867 0.0
H1651 H 0.42533 0.9357 0.11763 0.0
H1652 H 0.81 0.08109 0.36858 0.0
H1653 H 0.74994 0.05406 0.37255 0.0
H1654 H 0.85718 0.02538 0.40429 0.0
H1655 H 0.91516 0.05359 0.40147 0.0
H1656 H 0.76618 0.01864 0.36301 0.0
H1657 H 0.72808 0.0154 0.42884 0.0
H1658 H 0.75789 0.03644 0.41936 0.0
H1659 H 0.7948 0.01488 0.42428 0.0
C1660 C 0.81902 0.06968 0.37727 0.0
C1661 C 0.86548 0.06993 0.38549 0.0
C1662 C 0.78537 0.05398 0.37923 0.0
C1663 C 0.79843 0.03784 0.38902 0.0
C1664 C 0.84537 0.03795 0.39715 0.0
H1665 H 0.67581 0.92254 0.36829 0.0
H1666 H 0.73148 0.95069 0.37339 0.0
C1667 C 0.87867 0.05394 0.39541 0.0
C1668 C 0.7656 0.02004 0.38906 0.0
H1669 H 0.70446 0.98687 0.41339 0.0
C1670 C 0.75237 0.01184 0.37406 0.0
C1671 C 0.74714 0.01123 0.40344 0.0
C1672 C 0.75725 0.02006 0.41988 0.0
C1673 C 0.72163 0.99504 0.37299 0.0
C1674 C 0.70535 0.98561 0.38736 0.0
C1675 C 0.71776 0.99394 0.4024 0.0
C1676 C 0.67495 0.96723 0.38683 0.0
C1677 C 0.70611 0.98786 0.35641 0.0
C1678 C 0.62584 0.96666 0.39353 0.0
C1679 C 0.59491 0.95009 0.39125 0.0
C1680 C 0.6129 0.93387 0.38234 0.0
C1681 C 0.66236 0.93431 0.37602 0.0
C1682 C 0.69356 0.95065 0.37854 0.0
H1683 H 0.70824 -0.00014 0.34728 0.0
H1684 H 0.73239 0.97596 0.35249 0.0
H1685 H 0.66676 0.98191 0.3565 0.0
H1686 H 0.61075 0.97932 0.39995 0.0
H1687 H 0.55654 0.95017 0.39606 0.0
H1688 H 0.80951 0.92895 0.86088 0.0
H1689 H 0.75193 0.95696 0.86373 0.0
H1690 H 0.85192 0.98294 0.89911 0.0
H1691 H 0.90999 0.95474 0.89645 0.0
H1692 H 0.70576 0.96825 0.89432 0.0
H1693 H 0.81947 0.02833 0.86584 0.0
H1694 H 0.83166 0.00252 0.86183 0.0
H1695 H 0.85074 0.01322 0.88071 0.0
C1696 C 0.81951 0.94062 0.86924 0.0
C1697 C 0.86412 0.93954 0.87855 0.0
C1698 C 0.7866 0.95665 0.8708 0.0
C1699 C 0.79789 0.97201 0.88155 0.0
C1700 C 0.84294 0.97129 0.89061 0.0
H1701 H 0.57949 0.05777 0.91789 0.0
H1702 H 0.64704 0.03296 0.91524 0.0
C1703 C 0.87593 0.95516 0.8891 0.0
C1704 C 0.76065 0.9881 0.88388 0.0
H1705 H 0.73952 0.03701 0.87671 0.0
C1706 C 0.71319 0.98333 0.8906 0.0
C1707 C 0.77055 0.00766 0.87886 0.0
C1708 C 0.8207 0.01335 0.8713 0.0
C1709 C 0.67513 0.99765 0.89242 0.0
C1710 C 0.68503 0.01724 0.88747 0.0
C1711 C 0.73241 0.02201 0.88067 0.0
C1712 C 0.64609 0.03285 0.88907 0.0
C1713 C 0.62421 0.99164 0.89929 0.0
C1714 C 0.62389 0.04113 0.87522 0.0
C1715 C 0.58535 0.05524 0.87671 0.0
C1716 C 0.56936 0.06149 0.89208 0.0
C1717 C 0.59173 0.05326 0.90592 0.0
C1718 C 0.63005 0.0391 0.90442 0.0
H1719 H 0.61928 0.97535 0.89938 0.0
H1720 H 0.62109 0.99702 0.91193 0.0
H1721 H 0.59271 0.99831 0.89223 0.0
H1722 H 0.63579 0.03641 0.86327 0.0
H1723 H 0.56832 0.06136 0.8659 0.0
H1724 H 0.08354 0.94495 0.60893 0.0
H1725 H 0.13879 0.97347 0.60369 0.0
H1726 H 0.24688 0.95122 0.63841 0.0
H1727 H 0.19164 0.92292 0.64367 0.0
H1728 H 0.16456 0.00098 0.62593 0.0
H1729 H 0.34006 0.96699 0.60169 0.0
H1730 H 0.28019 0.95395 0.60247 0.0
H1731 H 0.32007 0.95538 0.62012 0.0
C1732 C 0.1198 0.94596 0.61509 0.0
C1733 C 0.13438 0.93145 0.62629 0.0
C1734 C 0.15121 0.96223 0.61212 0.0
C1735 C 0.19749 0.96428 0.6204 0.0
C1736 C 0.21227 0.94962 0.63144 0.0
H1737 H 0.40694 0.04995 0.65149 0.0
H1738 H 0.34951 0.02233 0.64616 0.0
C1739 C 0.18094 0.93335 0.63436 0.0
C1740 C 0.22788 0.98264 0.61889 0.0
H1741 H 0.34933 -0.00065 0.61372 0.0
C1742 C 0.20471 0.00071 0.62291 0.0
C1743 C 0.2802 0.98228 0.61487 0.0
C1744 C 0.30644 0.96363 0.60938 0.0
C1745 C 0.23322 0.01819 0.62397 0.0
C1746 C 0.28604 0.01752 0.62093 0.0
C1747 C 0.30878 -0.00029 0.61616 0.0
C1748 C 0.31914 0.03471 0.6241 0.0
C1749 C 0.20747 0.03707 0.62916 0.0
C1750 C 0.32086 0.0508 0.61343 0.0
C1751 C 0.3539 0.0666 0.61643 0.0
C1752 C 0.38507 0.06659 0.63021 0.0
C1753 C 0.38295 0.05045 0.64086 0.0
C1754 C 0.35029 0.03467 0.63782 0.0
H1755 H 0.16638 0.03493 0.63179 0.0
H1756 H 0.22631 0.04304 0.64014 0.0
H1757 H 0.21134 0.04831 0.61947 0.0
H1758 H 0.2974 0.05095 0.60267 0.0
H1759 H 0.35594 0.07856 0.60781 0.0
H1760 H 0.91465 0.44923 0.0966 0.0
H1761 H 0.8426 0.4712 0.1022 0.0
H1762 H 0.8703 0.46578 0.1534 0.0
H1763 H 0.94236 0.44363 0.14781 0.0
H1764 H 0.75441 0.46121 0.12332 0.0
H1765 H 0.86294 0.52676 0.14492 0.0
H1766 H 0.89153 0.50906 0.13129 0.0
H1767 H 0.87993 0.50253 0.15198 0.0
C1768 C 0.90505 0.45262 0.10904 0.0
C1769 C 0.93325 0.44449 0.12178 0.0
C1770 C 0.86419 0.46523 0.11223 0.0
C1771 C 0.85146 0.47022 0.12821 0.0
C1772 C 0.87995 0.46229 0.14098 0.0
H1773 H 0.60866 0.55488 0.15356 0.0
H1774 H 0.67824 0.53085 0.15652 0.0
C1775 C 0.92084 0.44961 0.13779 0.0
C1776 C 0.80733 0.48328 0.13128 0.0
H1777 H 0.77462 0.53041 0.14159 0.0
C1778 C 0.75877 0.47631 0.1273 0.0
C1779 C 0.81309 0.50282 0.13699 0.0
C1780 C 0.86457 0.51091 0.14154 0.0
C1781 C 0.71599 0.48861 0.12809 0.0
C1782 C 0.72219 0.50856 0.13271 0.0
C1783 C 0.77023 0.51522 0.13772 0.0
C1784 C 0.68013 0.52299 0.13116 0.0
C1785 C 0.66466 0.48013 0.12382 0.0
C1786 C 0.65859 0.52662 0.11592 0.0
C1787 C 0.61927 0.54031 0.11422 0.0
C1788 C 0.60116 0.55075 0.1277 0.0
C1789 C 0.6223 0.54704 0.14299 0.0
C1790 C 0.66199 0.5334 0.14468 0.0
H1791 H 0.66298 0.46409 0.12654 0.0
H1792 H 0.63348 0.48763 0.1305 0.0
H1793 H 0.65803 0.48203 0.11066 0.0
H1794 H 0.67254 0.51896 0.10529 0.0
H1795 H 0.6032 0.54283 0.10234 0.0
H1796 H 0.15645 0.41562 0.34744 0.0
H1797 H 0.22827 0.43869 0.34589 0.0
H1798 H 0.19401 0.4589 0.39431 0.0
H1799 H 0.12567 0.43466 0.39624 0.0
H1800 H 0.22508 0.47452 0.34457 0.0
H1801 H 0.34109 0.46066 0.39817 0.0
H1802 H 0.29205 0.44357 0.39216 0.0
H1803 H 0.27757 0.46407 0.40539 0.0
C1804 C 0.16545 0.42474 0.35782 0.0
C1805 C 0.13631 0.42349 0.37199 0.0
C1806 C 0.20638 0.43786 0.35698 0.0
C1807 C 0.2175 0.45039 0.37009 0.0
C1808 C 0.18802 0.44893 0.38426 0.0
H1809 H 0.26518 0.57045 0.36572 0.0
H1810 H 0.24236 0.53581 0.36359 0.0
C1811 C 0.14838 0.43532 0.3853 0.0
C1812 C 0.25416 0.46693 0.3682 0.0
H1813 H 0.33464 0.49611 0.38999 0.0
C1814 C 0.25017 0.47883 0.35434 0.0
C1815 C 0.2885 0.47251 0.38058 0.0
C1816 C 0.30037 0.45931 0.39477 0.0
C1817 C 0.27539 0.49696 0.35329 0.0
C1818 C 0.30328 0.50387 0.36676 0.0
C1819 C 0.31174 0.49114 0.37987 0.0
C1820 C 0.31844 0.52485 0.36818 0.0
C1821 C 0.27042 0.50878 0.3379 0.0
C1822 C 0.36829 0.53028 0.37237 0.0
C1823 C 0.3812 0.55023 0.37403 0.0
C1824 C 0.34447 0.56497 0.3714 0.0
C1825 C 0.29456 0.55944 0.36749 0.0
C1826 C 0.28156 0.53962 0.36613 0.0
H1827 H 0.26774 0.49886 0.32723 0.0
H1828 H 0.23486 0.5176 0.33836 0.0
H1829 H 0.30315 0.51891 0.33613 0.0
H1830 H 0.39718 0.51911 0.37425 0.0
H1831 H 0.41994 0.55412 0.37712 0.0
H1832 H 0.41204 0.44192 0.88927 0.0
H1833 H 0.36933 0.47398 0.89169 0.0
H1834 H 0.26921 0.45832 0.85249 0.0
H1835 H 0.31103 0.42633 0.85005 0.0
H1836 H 0.35011 0.50515 0.86814 0.0
H1837 H 0.17382 0.47003 0.89134 0.0
H1838 H 0.23421 0.45734 0.89074 0.0
H1839 H 0.19645 0.45956 0.87272 0.0
C1840 C 0.38128 0.44539 0.88105 0.0
C1841 C 0.36456 0.43151 0.86957 0.0
C1842 C 0.357 0.46369 0.88246 0.0
C1843 C 0.31569 0.4683 0.87244 0.0
C1844 C 0.30052 0.45485 0.8605 0.0
H1845 H 0.10216 0.559 0.85296 0.0
H1846 H 0.16259 0.53153 0.85292 0.0
C1847 C 0.32458 0.4366 0.85911 0.0
C1848 C 0.28665 0.48675 0.87479 0.0
H1849 H 0.16708 0.50363 0.88297 0.0
C1850 C 0.3103 0.50491 0.8716 0.0
C1851 C 0.23487 0.48629 0.87945 0.0
C1852 C 0.20839 0.46729 0.88392 0.0
C1853 C 0.28257 0.52264 0.87221 0.0
C1854 C 0.23028 0.522 0.8761 0.0
C1855 C 0.20719 0.50394 0.87986 0.0
C1856 C 0.19783 0.53972 0.87555 0.0
C1857 C 0.30844 0.54184 0.86804 0.0
C1858 C 0.1979 0.55332 0.88833 0.0
C1859 C 0.16312 0.56894 0.88844 0.0
C1860 C 0.12825 0.57124 0.87573 0.0
C1861 C 0.12887 0.55769 0.86287 0.0
C1862 C 0.16339 0.54205 0.86279 0.0
H1863 H 0.34926 0.5398 0.86497 0.0
H1864 H 0.28888 0.54879 0.85761 0.0
H1865 H 0.30551 0.55218 0.87842 0.0
H1866 H 0.22385 0.55153 0.89838 0.0
H1867 H 0.16307 0.57903 0.89856 0.0
H1868 H 0.89625 0.56363 0.59083 0.0
H1869 H 0.83421 0.53661 0.59144 0.0
H1870 H 0.85521 0.5311 0.64297 0.0
H1871 H 0.91654 0.55839 0.6424 0.0
H1872 H 0.85176 0.49798 0.60145 0.0
H1873 H 0.69989 0.53343 0.63764 0.0
H1874 H 0.75468 0.5469 0.63048 0.0
H1875 H 0.75892 0.53215 0.64848 0.0
C1876 C 0.88666 0.55693 0.60231 0.0
C1877 C 0.9101 0.56338 0.61661 0.0
C1878 C 0.85163 0.5414 0.60264 0.0
C1879 C 0.83955 0.53202 0.61728 0.0
C1880 C 0.86322 0.53838 0.63159 0.0
H1881 H 0.70527 0.42 0.64039 0.0
H1882 H 0.76144 0.44832 0.63574 0.0
C1883 C 0.89835 0.55389 0.63124 0.0
C1884 C 0.80408 0.51497 0.61748 0.0
H1885 H 0.69321 0.49812 0.63411 0.0
C1886 C 0.81688 0.49807 0.60848 0.0
C1887 C 0.75847 0.51514 0.62661 0.0
C1888 C 0.74192 0.53296 0.63622 0.0
C1889 C 0.78603 0.48115 0.60877 0.0
C1890 C 0.74125 0.48118 0.61822 0.0
C1891 C 0.72768 0.4982 0.62688 0.0
C1892 C 0.7091 0.46337 0.6198 0.0
C1893 C 0.80146 0.46323 0.59909 0.0
C1894 C 0.66127 0.46247 0.61233 0.0
C1895 C 0.62992 0.44598 0.61459 0.0
C1896 C 0.64606 0.43022 0.62435 0.0
C1897 C 0.69362 0.43131 0.63195 0.0
C1898 C 0.72517 0.44766 0.62957 0.0
H1899 H 0.83315 0.46648 0.59059 0.0
H1900 H 0.8139 0.45137 0.60747 0.0
H1901 H 0.76854 0.45751 0.59211 0.0
H1902 H 0.64806 0.47459 0.6049 0.0
H1903 H 0.59287 0.44566 0.60888 0.0
H1904 H 0.17153 0.19745 0.15276 0.0
H1905 H 0.1562 0.23307 0.15199 0.0
H1906 H 0.035 0.22422 0.11769 0.0
H1907 H 0.05006 0.18865 0.11827 0.0
H1908 H 0.10794 0.25366 0.10894 0.0
H1909 H 0.03322 0.26378 0.17143 0.0
H1910 H 0.09266 0.2508 0.1695 0.0
H1911 H 0.03556 0.23995 0.16164 0.0
C1912 C 0.14145 0.20305 0.1451 0.0
C1913 C 0.11205 0.19018 0.13556 0.0
C1914 C 0.13261 0.2234 0.14475 0.0
C1915 C 0.0942 0.23121 0.1349 0.0
C1916 C 0.06476 0.21843 0.12541 0.0
H1917 H 0.93712 0.33997 0.12544 0.0
H1918 H 0.96803 0.30719 0.13273 0.0
C1919 C 0.07344 0.19811 0.12576 0.0
C1920 C 0.08556 0.25276 0.13397 0.0
H1921 H 0.04144 0.29239 0.15535 0.0
C1922 C 0.09382 0.2622 0.11911 0.0
C1923 C 0.06692 0.26373 0.14727 0.0
C1924 C 0.05614 0.25411 0.16336 0.0
C1925 C 0.08301 0.2823 0.11707 0.0
C1926 C 0.06409 0.2933 0.13033 0.0
C1927 C 0.05655 0.28393 0.14528 0.0
C1928 C 0.04725 0.314 0.12835 0.0
C1929 C 0.08993 0.29143 0.10055 0.0
C1930 C 0.08186 0.3289 0.1241 0.0
C1931 C 0.06429 0.3477 0.11987 0.0
C1932 C 0.01184 0.3518 0.11982 0.0
C1933 C 0.9777 0.33721 0.12516 0.0
C1934 C 0.99529 0.31848 0.12939 0.0
H1935 H 0.09609 0.28013 0.09101 0.0
H1936 H 0.05619 0.30043 0.09725 0.0
H1937 H 0.12355 0.30133 0.10073 0.0
H1938 H 0.12223 0.32578 0.12348 0.0
H1939 H 0.09159 0.3587 0.11598 0.0
H1940 H 0.37675 0.80139 0.14742 0.0
H1941 H 0.39407 0.76595 0.14851 0.0
H1942 H 0.51385 0.77294 0.11329 0.0
H1943 H 0.49682 0.8084 0.11203 0.0
H1944 H 0.44175 0.74212 0.10658 0.0
H1945 H 0.51948 0.73793 0.16902 0.0
H1946 H 0.45955 0.75046 0.1668 0.0
H1947 H 0.51581 0.7608 0.15787 0.0
C1948 C 0.40694 0.79544 0.13993 0.0
C1949 C 0.43538 0.80776 0.12961 0.0
C1950 C 0.41694 0.77519 0.14066 0.0
C1951 C 0.45555 0.7669 0.13111 0.0
C1952 C 0.484 0.77911 0.1208 0.0
H1953 H 0.6076 0.65566 0.12717 0.0
H1954 H 0.58056 0.6896 0.13232 0.0
C1955 C 0.4742 0.79937 0.12011 0.0
C1956 C 0.46514 0.74538 0.13135 0.0
H1957 H 0.50923 0.70776 0.155 0.0
C1958 C 0.45624 0.73457 0.11718 0.0
C1959 C 0.48426 0.73566 0.1452 0.0
C1960 C 0.49578 0.74676 0.16059 0.0
C1961 C 0.46635 0.71426 0.11641 0.0
C1962 C 0.48536 0.7045 0.13026 0.0
C1963 C 0.49405 0.71528 0.14449 0.0
C1964 C 0.50029 0.68345 0.12966 0.0
C1965 C 0.45816 0.70351 0.10063 0.0
C1966 C 0.46388 0.66863 0.12708 0.0
C1967 C 0.47921 0.64918 0.12413 0.0
C1968 C 0.5312 0.64431 0.1237 0.0
C1969 C 0.56729 0.65897 0.1273 0.0
C1970 C 0.55193 0.67836 0.13029 0.0
H1971 H 0.45191 0.71384 0.09039 0.0
H1972 H 0.49136 0.69399 0.09775 0.0
H1973 H 0.4242 0.69388 0.10171 0.0
H1974 H 0.42376 0.67227 0.12674 0.0
H1975 H 0.45049 0.63822 0.12142 0.0
H1976 H 0.32858 0.68898 0.36133 0.0
H1977 H 0.34442 0.72455 0.36059 0.0
H1978 H 0.47628 0.71672 0.39088 0.0
H1979 H 0.46052 0.68124 0.39189 0.0
H1980 H 0.41166 0.7477 0.40056 0.0
H1981 H 0.45975 0.75161 0.33503 0.0
H1982 H 0.39964 0.74055 0.3401 0.0
H1983 H 0.45766 0.72858 0.34598 0.0
C1984 C 0.36096 0.69482 0.36784 0.0
C1985 C 0.39341 0.68227 0.37664 0.0
C1986 C 0.37003 0.71513 0.36734 0.0
C1987 C 0.41182 0.72317 0.37552 0.0
C1988 C 0.44385 0.71074 0.38446 0.0
H1989 H 0.59591 0.82379 0.37139 0.0
H1990 H 0.55047 0.79282 0.36728 0.0
C1991 C 0.4348 0.69047 0.38501 0.0
C1992 C 0.4226 0.74455 0.3749 0.0
H1993 H 0.46427 0.7812 0.34987 0.0
C1994 C 0.42257 0.75514 0.38947 0.0
C1995 C 0.43692 0.75407 0.36038 0.0
C1996 C 0.43895 0.74316 0.34447 0.0
C1997 C 0.43842 0.77488 0.39004 0.0
C1998 C 0.45374 0.78432 0.37557 0.0
C1999 C 0.45197 0.77393 0.36089 0.0
C2000 C 0.47807 0.80397 0.37582 0.0
C2001 C 0.44137 0.78508 0.40626 0.0
C2002 C 0.4519 0.82068 0.38144 0.0
C2003 C 0.47797 0.83841 0.38395 0.0
C2004 C 0.53036 0.83964 0.38069 0.0
C2005 C 0.55562 0.82322 0.37412 0.0
C2006 C 0.52966 0.80555 0.37168 0.0
H2007 H 0.43674 0.77459 0.41648 0.0
H2008 H 0.47838 0.79279 0.40764 0.0
H2009 H 0.41066 0.79627 0.40712 0.0
H2010 H 0.41187 0.8198 0.38449 0.0
H2011 H 0.45771 0.85078 0.38916 0.0
H2012 H 0.98693 0.3245 0.36994 0.0
H2013 H 0.97729 0.28869 0.36879 0.0
H2014 H 0.13067 0.28133 0.38612 0.0
H2015 H 0.14085 0.31702 0.38754 0.0
H2016 H 0.03596 0.26004 0.35152 0.0
H2017 H 0.04463 0.2492 0.41821 0.0
H2018 H 0.03462 0.27312 0.40918 0.0
H2019 H 0.09705 0.26235 0.40934 0.0
C2020 C 0.01871 0.31534 0.37354 0.0
C2021 C 0.06451 0.32378 0.37899 0.0
C2022 C 0.01313 0.29486 0.37281 0.0
C2023 C 0.0531 0.28243 0.37753 0.0
C2024 C 0.09911 0.29071 0.38268 0.0
H2025 H 0.02764 0.15474 0.39294 0.0
H2026 H 0.06905 0.18653 0.38746 0.0
C2027 C 0.10474 0.31116 0.38347 0.0
C2028 C 0.04602 0.26079 0.37736 0.0
H2029 H 0.03403 0.22089 0.40221 0.0
C2030 C 0.03597 0.25142 0.36257 0.0
C2031 C 0.04661 0.2496 0.39179 0.0
C2032 C 0.05592 0.25903 0.40807 0.0
C2033 C 0.02497 0.23117 0.36189 0.0
C2034 C 0.02328 0.22019 0.37641 0.0
C2035 C 0.03566 0.22937 0.39109 0.0
C2036 C 1.00201 0.20001 0.37705 0.0
C2037 C 0.01435 0.2218 0.3457 0.0
C2038 C 0.95101 0.19705 0.37278 0.0
C2039 C 0.92733 0.17909 0.37598 0.0
C2040 C 0.95418 0.16376 0.38357 0.0
C2041 C 0.00606 0.16633 0.38708 0.0
C2042 C 0.02973 0.18443 0.38395 0.0
H2043 H 0.03372 0.22991 0.33577 0.0
H2044 H 0.02683 0.20614 0.34543 0.0
H2045 H 0.97283 0.22227 0.34333 0.0
H2046 H 0.92864 0.20899 0.36776 0.0
H2047 H 0.88738 0.17748 0.37307 0.0
H2048 H 0.00985 0.83004 0.89413 0.0
H2049 H 0.02565 0.79463 0.89149 0.0
H2050 H 0.88804 0.78818 0.86371 0.0
H2051 H 0.87175 0.82355 0.8662 0.0
H2052 H 0.95654 0.76313 0.90149 0.0
H2053 H 0.00288 0.76185 0.83576 0.0
H2054 H 0.00559 0.78417 0.84769 0.0
H2055 H 0.94524 0.77431 0.84162 0.0
C2056 C 0.98294 0.82115 0.88741 0.0
C2057 C 0.93951 0.82969 0.88038 0.0
C2058 C 0.99204 0.80092 0.88593 0.0
C2059 C 0.95823 0.7889 0.87728 0.0
C2060 C 0.91487 0.7973 0.87026 0.0
H2061 H 0.96844 0.65964 0.88303 0.0
H2062 H 0.93538 0.69331 0.88024 0.0
C2063 C 0.90556 0.81751 0.87179 0.0
C2064 C 0.96792 0.76748 0.87597 0.0
H2065 H 0.00256 0.73127 0.84941 0.0
C2066 C 0.96621 0.75609 0.89011 0.0
C2067 C 0.98066 0.75849 0.86108 0.0
C2068 C 0.98412 0.77028 0.84564 0.0
C2069 C 0.9777 0.73589 0.8898 0.0
C2070 C 0.99078 0.72688 0.87492 0.0
C2071 C 0.99188 0.73823 0.86074 0.0
C2072 C 0.00834 0.70618 0.87426 0.0
C2073 C 0.97767 0.72447 0.90547 0.0
C2074 C 0.05974 0.70225 0.87111 0.0
C2075 C 0.07872 0.68313 0.87271 0.0
C2076 C 0.04655 0.66759 0.87744 0.0
C2077 C 0.9943 0.67134 0.87952 0.0
C2078 C 0.97536 0.69054 0.87798 0.0
H2079 H 0.97454 0.7343 0.91619 0.0
H2080 H 0.94488 0.71416 0.90561 0.0
H2081 H 0.01297 0.71556 0.90658 0.0
H2082 H 0.08567 0.71414 0.86814 0.0
H2083 H 0.11902 0.68069 0.87081 0.0
H2084 H 0.41627 0.14835 0.89428 0.0
H2085 H 0.38603 0.18075 0.88533 0.0
H2086 H 0.54042 0.1982 0.87489 0.0
H2087 H 0.57082 0.16595 0.88362 0.0
H2088 H 0.4153 0.2147 0.90108 0.0
H2089 H 0.46362 0.22021 0.83611 0.0
H2090 H 0.45991 0.19686 0.84661 0.0
H2091 H 0.51638 0.21178 0.84799 0.0
C2092 C 0.44362 0.15892 0.88969 0.0
C2093 C 0.49599 0.15469 0.88981 0.0
C2094 C 0.42627 0.17741 0.88459 0.0
C2095 C 0.46094 0.19181 0.87933 0.0
C2096 C 0.5129 0.18719 0.8786 0.0
H2097 H 0.47499 0.31574 0.8918 0.0
H2098 H 0.48092 0.27977 0.89242 0.0
C2099 C 0.53027 0.16879 0.88375 0.0
C2100 C 0.44429 0.21243 0.87675 0.0
H2101 H 0.45409 0.25111 0.85049 0.0
C2102 C 0.42286 0.22257 0.88991 0.0
C2103 C 0.45386 0.22264 0.86215 0.0
C2104 C 0.47423 0.21225 0.84736 0.0
C2105 C 0.41342 0.24291 0.88916 0.0
C2106 C 0.42635 0.25336 0.87495 0.0
C2107 C 0.44497 0.24306 0.86145 0.0
C2108 C 0.42311 0.27511 0.87422 0.0
C2109 C 0.39066 0.25312 0.90369 0.0
C2110 C 0.38948 0.28436 0.8635 0.0
C2111 C 0.38597 0.30494 0.8631 0.0
C2112 C 0.41642 0.31659 0.87333 0.0
C2113 C 0.45082 0.30723 0.88382 0.0
C2114 C 0.45412 0.28667 0.88425 0.0
H2115 H 0.37063 0.24254 0.91175 0.0
H2116 H 0.42152 0.2602 0.91076 0.0
H2117 H 0.36347 0.2648 0.89994 0.0
H2118 H 0.3655 0.27564 0.8556 0.0
H2119 H 0.35926 0.31168 0.85481 0.0
H2120 H 0.3823 0.17898 0.61629 0.0
H2121 H 0.40157 0.21423 0.61556 0.0
H2122 H 0.54691 0.20314 0.63781 0.0
H2123 H 0.52855 0.16788 0.63853 0.0
H2124 H 0.42639 0.24069 0.64138 0.0
H2125 H 0.5825 0.23419 0.59643 0.0
H2126 H 0.53712 0.21465 0.59997 0.0
H2127 H 0.58948 0.21823 0.61362 0.0
C2128 C 0.41849 0.18393 0.62102 0.0
C2129 C 0.45398 0.17039 0.62737 0.0
C2130 C 0.42929 0.20415 0.62063 0.0
C2131 C 0.47587 0.21126 0.62644 0.0
C2132 C 0.51103 0.19791 0.63301 0.0
H2133 H 0.63762 0.31976 0.63552 0.0
H2134 H 0.6028 0.28653 0.63739 0.0
C2135 C 0.50032 0.17771 0.63345 0.0
C2136 C 0.48812 0.2326 0.62555 0.0
H2137 H 0.57431 0.26504 0.60986 0.0
C2138 C 0.45844 0.24609 0.63439 0.0
C2139 C 0.52969 0.23959 0.61632 0.0
C2140 C 0.5613 0.22596 0.60591 0.0
C2141 C 0.47066 0.26631 0.63477 0.0
C2142 C 0.51319 0.27316 0.62591 0.0
C2143 C 0.54189 0.25973 0.61673 0.0
C2144 C 0.53057 0.29398 0.6265 0.0
C2145 C 0.4392 0.28008 0.64507 0.0
C2146 C 0.50096 0.30938 0.62011 0.0
C2147 C 0.52082 0.32857 0.61905 0.0
C2148 C 0.57078 0.3325 0.62421 0.0
C2149 C 0.59924 0.31719 0.63126 0.0
C2150 C 0.5794 0.29816 0.63236 0.0
H2151 H 0.41401 0.27193 0.65356 0.0
H2152 H 0.4641 0.29011 0.65215 0.0
H2153 H 0.41495 0.28931 0.63712 0.0
H2154 H 0.46338 0.30643 0.61534 0.0
H2155 H 0.49795 0.34005 0.61357 0.0
H2156 H 0.90216 0.67068 0.62947 0.0
H2157 H 0.92381 0.70544 0.63315 0.0
H2158 H 0.07543 0.6942 0.61543 0.0
H2159 H 0.05431 0.65922 0.61187 0.0
H2160 H 0.07084 0.7206 0.64238 0.0
H2161 H 0.93666 0.74207 0.59367 0.0
H2162 H 0.90854 0.7277 0.60958 0.0
H2163 H 0.95651 0.71687 0.59684 0.0
C2164 C 0.94029 0.67552 0.62648 0.0
C2165 C 0.97622 0.66222 0.6201 0.0
C2166 C 0.95252 0.69542 0.62854 0.0
C2167 C 1.00079 0.70248 0.62418 0.0
C2168 C 0.03777 0.68907 0.61872 0.0
H2169 H 0.13815 0.81894 0.61786 0.0
H2170 H 0.12143 0.78357 0.61808 0.0
C2171 C 0.02562 0.66909 0.61669 0.0
C2172 C 0.01172 0.72395 0.62463 0.0
H2173 H 0.97448 0.76806 0.60852 0.0
C2174 C 0.04995 0.73099 0.63495 0.0
C2175 C 0.98443 0.73747 0.61488 0.0
C2176 C 0.94455 0.73069 0.603 0.0
C2177 C 0.0609 0.75127 0.63604 0.0
C2178 C 0.03341 0.76477 0.62634 0.0
C2179 C 0.99531 0.7577 0.61599 0.0
C2180 C 0.04385 0.7863 0.62655 0.0
C2181 C 0.10102 0.7581 0.6478 0.0
C2182 C 0.00536 0.79968 0.63085 0.0
C2183 C 0.01457 0.82002 0.63064 0.0
C2184 C 0.06248 0.82745 0.626 0.0
C2185 C 0.10081 0.81391 0.62157 0.0
C2186 C 0.09151 0.79359 0.6218 0.0
H2187 H 0.10885 0.7468 0.65721 0.0
H2188 H 0.13695 0.76093 0.64113 0.0
H2189 H 0.08935 0.77203 0.65385 0.0
H2190 H 0.96814 0.79436 0.63444 0.0
H2191 H 0.98398 0.82987 0.63411 0.0
H2192 H 1.0007 0.16403 0.32402 0.0
H2193 H 0.00923 0.16583 0.29458 0.0
H2194 H 0.99473 0.10252 0.29149 0.0
H2195 H 0.98467 0.10066 0.32081 0.0
H2196 H 0.08259 0.15032 0.27605 0.0
H2197 H 0.89733 0.11931 0.25683 0.0
H2198 H 0.90959 0.12672 0.27742 0.0
H2199 H 0.93131 0.10312 0.27014 0.0
C2200 C 0.99855 0.15051 0.31705 0.0
C2201 C 0.9918 0.1322 0.32477 0.0
C2202 C 0.00355 0.15156 0.30022 0.0
C2203 C 1.00198 0.13435 0.29076 0.0
C2204 C 0.99477 0.11607 0.29844 0.0
H2205 H 0.07108 0.10892 0.18986 0.0
H2206 H 0.05892 0.10734 0.21925 0.0
C2207 C 0.98929 0.11502 0.31525 0.0
C2208 C 0.01082 0.13541 0.27301 0.0
H2209 H 0.96103 0.12236 0.23635 0.0
C2210 C 0.05578 0.14433 0.26739 0.0
C2211 C 0.97589 0.12758 0.26166 0.0
C2212 C 0.92561 0.11883 0.26679 0.0
C2213 C 0.06704 0.14537 0.25079 0.0
C2214 C 0.03252 0.13729 0.23954 0.0
C2215 C 0.98759 0.12839 0.24508 0.0
C2216 C 0.04183 0.13839 0.2219 0.0
C2217 C 0.11604 0.15488 0.24535 0.0
C2218 C 0.03635 0.15639 0.21373 0.0
C2219 C 0.04294 0.15733 0.19696 0.0
C2220 C 0.05537 0.14028 0.18807 0.0
C2221 C 0.06175 0.12232 0.19636 0.0
C2222 C 0.05466 0.12137 0.21313 0.0
H2223 H 0.14218 0.15779 0.25562 0.0
H2224 H 0.13577 0.14532 0.2364 0.0
H2225 H 0.10739 0.16912 0.23933 0.0
H2226 H 0.02616 0.16966 0.2203 0.0
H2227 H 0.03775 0.17139 0.19096 0.0
H2228 H 0.50101 0.83059 0.18576 0.0
H2229 H 0.50197 0.83378 0.2152 0.0
H2230 H 0.47002 0.89599 0.2109 0.0
H2231 H 0.4676 0.8928 0.18141 0.0
H2232 H 0.5633 0.85493 0.23438 0.0
H2233 H 0.36469 0.88012 0.24369 0.0
H2234 H 0.38677 0.87037 0.22463 0.0
H2235 H 0.40008 0.89555 0.23011 0.0
C2236 C 0.49377 0.84494 0.19106 0.0
C2237 C 0.48397 0.86142 0.18119 0.0
C2238 C 0.49442 0.84675 0.20792 0.0
C2239 C 0.48532 0.86506 0.21536 0.0
C2240 C 0.47586 0.88159 0.20553 0.0
H2241 H 0.4941 0.90348 0.31633 0.0
H2242 H 0.49362 0.90197 0.28671 0.0
C2243 C 0.4748 0.87977 0.18863 0.0
C2244 C 0.48741 0.86686 0.23334 0.0
H2245 H 0.41911 0.88127 0.2666 0.0
C2246 C 0.53164 0.86062 0.2414 0.0
C2247 C 0.44617 0.87431 0.24258 0.0
C2248 C 0.39656 0.88029 0.23485 0.0
C2249 C 0.53591 0.86176 0.25834 0.0
C2250 C 0.49475 0.86922 0.26753 0.0
C2251 C 0.4507 0.87563 0.25952 0.0
C2252 C 0.4963 0.8701 0.28551 0.0
C2253 C 0.58468 0.8552 0.26628 0.0
C2254 C 0.49774 0.85269 0.29469 0.0
C2255 C 0.49775 0.85348 0.31162 0.0
C2256 C 0.49646 0.87174 0.31974 0.0
C2257 C 0.49536 0.88917 0.31049 0.0
C2258 C 0.49494 0.88835 0.29355 0.0
H2259 H 0.61643 0.85399 0.25744 0.0
H2260 H 0.59588 0.86563 0.276 0.0
H2261 H 0.57882 0.84048 0.27186 0.0
H2262 H 0.49813 0.83843 0.28874 0.0
H2263 H 0.49848 0.83976 0.31833 0.0
H2264 H 0.9558 0.90057 0.69031 0.0
H2265 H 0.94834 0.90148 0.71981 0.0
H2266 H 0.09559 0.87398 0.72417 0.0
H2267 H 0.10314 0.87277 0.6947 0.0
H2268 H 0.02371 0.85672 0.74381 0.0
H2269 H 0.0208 0.938 0.75157 0.0
H2270 H 0.97369 0.92901 0.73771 0.0
H2271 H 0.04009 0.92631 0.73291 0.0
C2272 C 0.98674 0.89479 0.69753 0.0
C2273 C 0.03014 0.88664 0.6901 0.0
C2274 C 0.98254 0.89545 0.71442 0.0
C2275 C 0.02176 0.88809 0.72425 0.0
C2276 C 0.06497 0.87985 0.71686 0.0
H2277 H 0.04681 0.90441 0.82919 0.0
H2278 H 0.0618 0.90482 0.79988 0.0
C2279 C 0.06921 0.87918 0.69998 0.0
C2280 C 0.017 0.88833 0.7422 0.0
H2281 H 0.99919 0.91878 0.77473 0.0
C2282 C 0.0186 0.8703 0.75057 0.0
C2283 C 0.01107 0.90607 0.75107 0.0
C2284 C 0.01179 0.92597 0.7429 0.0
C2285 C 0.01314 0.86949 0.76747 0.0
C2286 C 0.0051 0.88715 0.77627 0.0
C2287 C 0.00486 0.90523 0.76797 0.0
C2288 C 0.99592 0.88708 0.79404 0.0
C2289 C 0.01649 0.84971 0.77578 0.0
C2290 C 0.95352 0.87724 0.80048 0.0
C2291 C 0.94486 0.87698 0.81718 0.0
C2292 C 0.97829 0.88664 0.82784 0.0
C2293 C 0.0204 0.89675 0.82135 0.0
C2294 C 0.029 0.89703 0.8046 0.0
H2295 H 0.03643 0.83863 0.76815 0.0
H2296 H 0.03671 0.85094 0.78752 0.0
H2297 H 0.97749 0.84415 0.77819 0.0
H2298 H 0.92689 0.8698 0.79257 0.0
H2299 H 0.91187 0.86914 0.82171 0.0
H2300 H 0.41565 0.11353 0.82992 0.0
H2301 H 0.42245 0.11634 0.80053 0.0
H2302 H 0.58488 0.12363 0.80457 0.0
H2303 H 0.57859 0.12047 0.83401 0.0
H2304 H 0.45867 0.14605 0.78101 0.0
H2305 H 0.57299 0.07785 0.77286 0.0
H2306 H 0.54142 0.08377 0.79164 0.0
H2307 H 0.60063 0.09548 0.78647 0.0
C2308 C 0.45287 0.11577 0.82459 0.0
C2309 C 0.49665 0.1166 0.83433 0.0
C2310 C 0.45666 0.11739 0.80777 0.0
C2311 C 0.50425 0.11985 0.80032 0.0
C2312 C 0.54788 0.12129 0.81003 0.0
H2313 H 0.54856 0.15284 0.69894 0.0
H2314 H 0.54541 0.1525 0.72852 0.0
C2315 C 0.54417 0.1196 0.82687 0.0
C2316 C 0.50797 0.12074 0.78239 0.0
H2317 H 0.55984 0.09751 0.74957 0.0
C2318 C 0.48084 0.13546 0.77413 0.0
C2319 C 0.53633 0.10673 0.77341 0.0
C2320 C 0.56414 0.08994 0.7815 0.0
C2321 C 0.4815 0.13663 0.75715 0.0
C2322 C 0.51081 0.1229 0.7482 0.0
C2323 C 0.53774 0.10813 0.75646 0.0
C2324 C 0.51291 0.12322 0.73023 0.0
C2325 C 0.44973 0.15224 0.74896 0.0
C2326 C 0.49686 0.10671 0.72135 0.0
C2327 C 0.49898 0.10679 0.70444 0.0
C2328 C 0.5174 0.12339 0.69606 0.0
C2329 C 0.53385 0.13986 0.705 0.0
C2330 C 0.53181 0.13974 0.72192 0.0
H2331 H 0.41978 0.15815 0.75713 0.0
H2332 H 0.47462 0.1647 0.74532 0.0
H2333 H 0.43126 0.1463 0.73791 0.0
H2334 H 0.48233 0.09376 0.7275 0.0
H2335 H 0.48609 0.09383 0.69796 0.0
H2336 H 0.42181 0.6496 0.18469 0.0
H2337 H 0.41983 0.65403 0.21406 0.0
H2338 H 0.51238 0.60198 0.21998 0.0
H2339 H 0.5151 0.59756 0.19065 0.0
H2340 H 0.38082 0.62778 0.23668 0.0
H2341 H 0.58503 0.64241 0.24843 0.0
H2342 H 0.55768 0.64381 0.22845 0.0
H2343 H 0.57364 0.62026 0.23707 0.0
C2344 C 0.44231 0.63923 0.19221 0.0
C2345 C 0.46868 0.62323 0.18529 0.0
C2346 C 0.44101 0.64176 0.20901 0.0
C2347 C 0.46634 0.62845 0.21921 0.0
C2348 C 0.49333 0.61265 0.21234 0.0
H2349 H 0.41121 0.60591 0.32122 0.0
H2350 H 0.41438 0.60479 0.29164 0.0
C2351 C 0.49465 0.61009 0.19555 0.0
C2352 C 0.46243 0.63053 0.23706 0.0
H2353 H 0.53302 0.63588 0.27142 0.0
C2354 C 0.41406 0.62966 0.24428 0.0
C2355 C 0.50577 0.63317 0.24695 0.0
C2356 C 0.55844 0.63516 0.23985 0.0
C2357 C 0.40796 0.63097 0.26113 0.0
C2358 C 0.45146 0.63292 0.27105 0.0
C2359 C 0.49973 0.63419 0.26382 0.0
C2360 C 0.4478 0.63381 0.28897 0.0
C2361 C 0.35495 0.6305 0.26815 0.0
C2362 C 0.46611 0.65037 0.29733 0.0
C2363 C 0.46457 0.65102 0.31423 0.0
C2364 C 0.44497 0.63504 0.32314 0.0
C2365 C 0.42628 0.61851 0.31474 0.0
C2366 C 0.42786 0.61788 0.29782 0.0
H2367 H 0.32575 0.63419 0.25893 0.0
H2368 H 0.34679 0.61543 0.27272 0.0
H2369 H 0.35128 0.64098 0.27841 0.0
H2370 H 0.48179 0.6628 0.29075 0.0
H2371 H 0.47935 0.66397 0.32029 0.0
H2372 H 0.93913 0.37936 0.17558 0.0
H2373 H 0.93665 0.37459 0.20496 0.0
H2374 H 0.09751 0.38645 0.20764 0.0
H2375 H 0.10051 0.39122 0.17834 0.0
H2376 H 0.99815 0.34771 0.22564 0.0
H2377 H 0.02627 0.42754 0.23849 0.0
H2378 H 0.00523 0.41856 0.21905 0.0
H2379 H 0.07099 0.4166 0.22465 0.0
C2380 C 0.97406 0.38084 0.1824 0.0
C2381 C 0.01995 0.38582 0.17462 0.0
C2382 C 0.97256 0.37807 0.19917 0.0
C2383 C 0.01677 0.3804 0.20845 0.0
C2384 C 0.06287 0.38481 0.20069 0.0
H2385 H 0.08463 0.35333 0.30848 0.0
H2386 H 0.07953 0.354 0.27894 0.0
C2387 C 0.06449 0.38747 0.18393 0.0
C2388 C 0.01459 0.37882 0.22631 0.0
H2389 H 0.02834 0.40583 0.26089 0.0
C2390 C 0.00459 0.3604 0.23338 0.0
C2391 C 0.02242 0.39546 0.23632 0.0
C2392 C 0.03144 0.41572 0.22931 0.0
C2393 C 0.00338 0.3581 0.25028 0.0
C2394 C 0.01266 0.37465 0.26028 0.0
C2395 C 0.02154 0.39314 0.25318 0.0
C2396 C 0.01373 0.37316 0.27817 0.0
C2397 C 0.99176 0.33806 0.25731 0.0
C2398 C 0.97864 0.38382 0.28754 0.0
C2399 C 0.98144 0.38349 0.30443 0.0
C2400 C 0.0198 0.37264 0.31227 0.0
C2401 C 0.05457 0.3618 0.30284 0.0
C2402 C 0.05156 0.36207 0.28595 0.0
H2403 H 0.97401 0.32811 0.24825 0.0
H2404 H 0.02768 0.33113 0.26147 0.0
H2405 H 0.96593 0.33938 0.2679 0.0
H2406 H 0.94931 0.39256 0.28176 0.0
H2407 H 0.95412 0.39204 0.31131 0.0
H2408 H 0.52957 0.39771 0.68748 0.0
H2409 H 0.52152 0.39607 0.71693 0.0
H2410 H 0.51587 0.33256 0.71454 0.0
H2411 H 0.52362 0.334 0.68502 0.0
H2412 H 0.43524 0.37531 0.73396 0.0
H2413 H 0.62835 0.34737 0.74941 0.0
H2414 H 0.61528 0.36021 0.73072 0.0
H2415 H 0.59486 0.33515 0.73328 0.0
C2416 C 0.52713 0.38336 0.6932 0.0
C2417 C 0.52723 0.36597 0.68389 0.0
C2418 C 0.52239 0.38248 0.71002 0.0
C2419 C 0.51833 0.36421 0.71786 0.0
C2420 C 0.51939 0.34679 0.70868 0.0
H2421 H 0.49727 0.33139 0.81921 0.0
H2422 H 0.5035 0.33151 0.78971 0.0
C2423 C 0.52373 0.34766 0.69183 0.0
C2424 C 0.51098 0.36344 0.7356 0.0
H2425 H 0.5699 0.35095 0.77086 0.0
C2426 C 0.46461 0.37002 0.74207 0.0
C2427 C 0.54928 0.35638 0.74605 0.0
C2428 C 0.59997 0.34945 0.73962 0.0
C2429 C 0.45527 0.36954 0.75879 0.0
C2430 C 0.49397 0.36281 0.76934 0.0
C2431 C 0.54028 0.35613 0.76279 0.0
C2432 C 0.48752 0.3627 0.78719 0.0
C2433 C 0.40364 0.37581 0.76494 0.0
C2434 C 0.47642 0.38019 0.79562 0.0
C2435 C 0.4723 0.38013 0.81249 0.0
C2436 C 0.48008 0.36263 0.82127 0.0
C2437 C 0.49109 0.34513 0.81281 0.0
C2438 C 0.49475 0.34517 0.79594 0.0
H2439 H 0.3742 0.37464 0.75536 0.0
H2440 H 0.39155 0.36673 0.77544 0.0
H2441 H 0.4054 0.39147 0.76883 0.0
H2442 H 0.47196 0.39399 0.78918 0.0
H2443 H 0.46424 0.39389 0.81866 0.0
H2444 H 0.03097 0.66263 0.67752 0.0
H2445 H 0.02994 0.6656 0.7071 0.0
H2446 H 0.02841 0.60221 0.71143 0.0
H2447 H 0.02919 0.59906 0.68196 0.0
H2448 H 0.95419 0.648 0.72986 0.0
H2449 H 0.15227 0.62188 0.73948 0.0
H2450 H 0.13035 0.63132 0.72028 0.0
H2451 H 0.11353 0.60679 0.72651 0.0
C2452 C 0.0304 0.64931 0.68476 0.0
C2453 C 0.03034 0.6306 0.67736 0.0
C2454 C 0.02977 0.65105 0.70165 0.0
C2455 C 0.02972 0.63413 0.71143 0.0
C2456 C 0.02911 0.61545 0.70409 0.0
H2457 H 0.03358 0.60449 0.81256 0.0
H2458 H 0.03842 0.60584 0.7831 0.0
C2459 C 0.02932 0.61369 0.68724 0.0
C2460 C 0.02978 0.63588 0.72932 0.0
H2461 H 0.10075 0.62558 0.76282 0.0
C2462 C 0.98632 0.64328 0.73711 0.0
C2463 C 0.07174 0.62964 0.73868 0.0
C2464 C 0.11987 0.62209 0.73087 0.0
C2465 C 0.98299 0.64396 0.75408 0.0
C2466 C 0.02486 0.63755 0.7635 0.0
C2467 C 0.06868 0.6305 0.75564 0.0
C2468 C 0.02321 0.63717 0.7815 0.0
C2469 C 0.93387 0.65079 0.76174 0.0
C2470 C 0.01407 0.65442 0.7905 0.0
C2471 C 0.01088 0.65367 0.80741 0.0
C2472 C 0.01745 0.63569 0.81566 0.0
C2473 C 0.02823 0.61859 0.80663 0.0
C2474 C 0.03103 0.61933 0.78976 0.0
H2475 H 0.90164 0.65018 0.75308 0.0
H2476 H 0.92414 0.64166 0.77246 0.0
H2477 H 0.93815 0.66633 0.76576 0.0
H2478 H 0.00925 0.66847 0.78446 0.0
H2479 H 0.00296 0.66715 0.814 0.0
loop_
_geom_bond_atom_site_label_1
_geom_bond_atom_site_label_2
_geom_bond_distance
_geom_bond_site_symmetry_2
_ccdc_geom_bond_type
O0 Tb1 2.292 . S
O0 C3 1.255 . S
Tb1 O0 2.292 . S
Tb1 O17 2.326 . S
Tb1 O19 2.500 . S
Tb1 O20 2.473 . S
Tb1 O23 2.324 . S
Eu2 O6 2.292 1_455 S
Eu2 C7 2.852 1_455 S
Eu2 O18 2.324 . S
Eu2 O22 2.326 . S
Eu2 O24 2.500 1_455 S
Eu2 O25 2.473 1_455 S
C3 O0 1.255 . S
C3 O4 1.247 . S
O4 C3 1.247 . S
C5 O17 1.242 . S
C5 O18 1.258 . S
O6 Eu2 2.292 1_655 S
O6 C8 1.255 . S
C7 Eu2 2.852 1_655 S
C7 C11 1.503 . S
C7 O24 1.273 . S
C7 O25 1.257 . S
C8 O6 1.255 . S
C8 O9 1.247 1_655 S
O9 C8 1.247 1_455 S
C10 O22 1.242 . S
C10 O23 1.258 . S
C11 C7 1.503 . S
C11 C12 1.379 . S
C11 C16 1.392 . S
C12 C11 1.379 . S
C12 C13 1.404 . S
C12 H26 0.929 . S
C13 C12 1.404 . S
C13 C14 1.389 . S
C14 C13 1.389 . S
C14 C15 1.399 . S
C14 H27 0.931 . S
C15 C14 1.399 . S
C15 C16 1.390 . S
C16 C11 1.392 . S
C16 C15 1.390 . S
C16 H28 0.929 . S
O17 Tb1 2.326 . S
O17 C5 1.242 . S
O18 Eu2 2.324 . S
O18 C5 1.258 . S
O19 Tb1 2.500 . S
O19 C21 1.273 . S
O20 Tb1 2.473 . S
O20 C21 1.257 . S
C21 O19 1.273 . S
C21 O20 1.257 . S
O22 Eu2 2.326 . S
O22 C10 1.242 . S
O23 Tb1 2.324 . S
O23 C10 1.258 . S
O24 Eu2 2.500 1_655 S
O24 C7 1.273 . S
O25 Eu2 2.473 1_655 S
O25 C7 1.257 . S
H26 C12 0.929 . S
H27 C14 0.931 . S
H28 C16 0.929 . S
O29 Tb30 2.292 . S
O29 C32 1.255 . S
Tb30 O29 2.292 . S
Tb30 O46 2.326 . S
Tb30 O48 2.500 . S
Tb30 O49 2.473 . S
Tb30 O52 2.324 . S
Eu31 O35 2.292 . S
Eu31 C36 2.852 . S
Eu31 O47 2.324 . S
Eu31 O51 2.326 . S
Eu31 O53 2.500 . S
Eu31 O54 2.473 . S
C32 O29 1.255 . S
C32 O33 1.247 . S
O33 C32 1.247 . S
C34 O46 1.242 . S
C34 O47 1.258 . S
O35 Eu31 2.292 . S
O35 C37 1.255 . S
C36 Eu31 2.852 . S
C36 C40 1.503 . S
C36 O53 1.273 . S
C36 O54 1.257 . S
C37 O35 1.255 . S
C37 O38 1.247 . S
O38 C37 1.247 . S
C39 O51 1.242 . S
C39 O52 1.258 . S
C40 C36 1.503 . S
C40 C41 1.379 . S
C40 C45 1.392 . S
C41 C40 1.379 . S
C41 C42 1.404 . S
C41 H55 0.929 . S
C42 C41 1.404 . S
C42 C43 1.389 . S
C43 C42 1.389 . S
C43 C44 1.399 . S
C43 H56 0.931 . S
C44 C43 1.399 . S
C44 C45 1.390 . S
C45 C40 1.392 . S
C45 C44 1.390 . S
C45 H57 0.929 . S
O46 Tb30 2.326 . S
O46 C34 1.242 . S
O47 Eu31 2.324 . S
O47 C34 1.258 . S
O48 Tb30 2.500 . S
O48 C50 1.273 . S
O49 Tb30 2.473 . S
O49 C50 1.257 . S
C50 O48 1.273 . S
C50 O49 1.257 . S
O51 Eu31 2.326 . S
O51 C39 1.242 . S
O52 Tb30 2.324 . S
O52 C39 1.258 . S
O53 Eu31 2.500 . S
O53 C36 1.273 . S
O54 Eu31 2.473 . S
O54 C36 1.257 . S
H55 C41 0.929 . S
H56 C43 0.931 . S
H57 C45 0.929 . S
O58 Tb59 2.292 . S
O58 C61 1.255 . S
Tb59 O58 2.292 . S
Tb59 O75 2.326 . S
Tb59 O77 2.500 . S
Tb59 O78 2.473 . S
Tb59 O81 2.324 . S
Eu60 O64 2.292 . S
Eu60 C65 2.852 . S
Eu60 O76 2.324 . S
Eu60 O80 2.326 . S
Eu60 O82 2.500 . S
Eu60 O83 2.473 . S
C61 O58 1.255 . S
C61 O62 1.247 . S
O62 C61 1.247 . S
C63 O75 1.242 . S
C63 O76 1.258 . S
O64 Eu60 2.292 . S
O64 C66 1.255 . S
C65 Eu60 2.852 . S
C65 C69 1.503 . S
C65 O82 1.273 . S
C65 O83 1.257 . S
C66 O64 1.255 . S
C66 O67 1.247 . S
O67 C66 1.247 . S
C68 O80 1.242 . S
C68 O81 1.258 . S
C69 C65 1.503 . S
C69 C70 1.379 . S
C69 C74 1.392 . S
C70 C69 1.379 . S
C70 C71 1.404 . S
C70 H84 0.929 . S
C71 C70 1.404 . S
C71 C72 1.389 . S
C72 C71 1.389 . S
C72 C73 1.399 . S
C72 H85 0.931 . S
C73 C72 1.399 . S
C73 C74 1.390 . S
C74 C69 1.392 . S
C74 C73 1.390 . S
C74 H86 0.929 . S
O75 Tb59 2.326 . S
O75 C63 1.242 . S
O76 Eu60 2.324 . S
O76 C63 1.258 . S
O77 Tb59 2.500 . S
O77 C79 1.273 . S
O78 Tb59 2.473 . S
O78 C79 1.257 . S
C79 O77 1.273 . S
C79 O78 1.257 . S
O80 Eu60 2.326 . S
O80 C68 1.242 . S
O81 Tb59 2.324 . S
O81 C68 1.258 . S
O82 Eu60 2.500 . S
O82 C65 1.273 . S
O83 Eu60 2.473 . S
O83 C65 1.257 . S
H84 C70 0.929 . S
H85 C72 0.931 . S
H86 C74 0.929 . S
O87 Tb88 2.292 . S
O87 C90 1.255 . S
Tb88 O87 2.292 . S
Tb88 O104 2.326 . S
Tb88 O106 2.500 . S
Tb88 O107 2.473 . S
Tb88 O110 2.324 . S
Eu89 O93 2.292 1_655 S
Eu89 C94 2.852 1_655 S
Eu89 O105 2.324 . S
Eu89 O109 2.326 . S
Eu89 O111 2.500 1_655 S
Eu89 O112 2.473 1_655 S
C90 O87 1.255 . S
C90 O91 1.247 . S
O91 C90 1.247 . S
C92 O104 1.242 . S
C92 O105 1.258 . S
O93 Eu89 2.292 1_455 S
O93 C95 1.255 . S
C94 Eu89 2.852 1_455 S
C94 C98 1.503 . S
C94 O111 1.273 . S
C94 O112 1.257 . S
C95 O93 1.255 . S
C95 O96 1.247 1_455 S
O96 C95 1.247 1_655 S
C97 O109 1.242 . S
C97 O110 1.258 . S
C98 C94 1.503 . S
C98 C99 1.379 . S
C98 C103 1.392 . S
C99 C98 1.379 . S
C99 C100 1.404 . S
C99 H113 0.929 . S
C100 C99 1.404 . S
C100 C101 1.389 . S
C101 C100 1.389 . S
C101 C102 1.399 . S
C101 H114 0.931 . S
C102 C101 1.399 . S
C102 C103 1.390 . S
C103 C98 1.392 . S
C103 C102 1.390 . S
C103 H115 0.929 . S
O104 Tb88 2.326 . S
O104 C92 1.242 . S
O105 Eu89 2.324 . S
O105 C92 1.258 . S
O106 Tb88 2.500 . S
O106 C108 1.273 . S
O107 Tb88 2.473 . S
O107 C108 1.257 . S
C108 O106 1.273 . S
C108 O107 1.257 . S
O109 Eu89 2.326 . S
O109 C97 1.242 . S
O110 Tb88 2.324 . S
O110 C97 1.258 . S
O111 Eu89 2.500 1_455 S
O111 C94 1.273 . S
O112 Eu89 2.473 1_455 S
O112 C94 1.257 . S
H113 C99 0.929 . S
H114 C101 0.931 . S
H115 C103 0.929 . S
O116 Tb117 2.292 . S
O116 C119 1.255 . S
Tb117 O116 2.292 . S
Tb117 O133 2.326 . S
Tb117 O135 2.500 . S
Tb117 O136 2.473 . S
Tb117 O139 2.324 . S
Eu118 O122 2.292 1_655 S
Eu118 C123 2.852 1_655 S
Eu118 O134 2.324 . S
Eu118 O138 2.326 . S
Eu118 O140 2.500 1_655 S
Eu118 O141 2.473 1_655 S
C119 O116 1.255 . S
C119 O120 1.247 . S
O120 C119 1.247 . S
C121 O133 1.242 . S
C121 O134 1.258 . S
O122 Eu118 2.292 1_455 S
O122 C124 1.255 . S
C123 Eu118 2.852 1_455 S
C123 C127 1.503 . S
C123 O140 1.273 . S
C123 O141 1.257 . S
C124 O122 1.255 . S
C124 O125 1.247 1_455 S
O125 C124 1.247 1_655 S
C126 O138 1.242 . S
C126 O139 1.258 . S
C127 C123 1.503 . S
C127 C128 1.379 . S
C127 C132 1.392 . S
C128 C127 1.379 . S
C128 C129 1.404 . S
C128 H142 0.929 . S
C129 C128 1.404 . S
C129 C130 1.389 . S
C130 C129 1.389 . S
C130 C131 1.399 . S
C130 H143 0.931 . S
C131 C130 1.399 . S
C131 C132 1.390 . S
C132 C127 1.392 . S
C132 C131 1.390 . S
C132 H144 0.929 . S
O133 Tb117 2.326 . S
O133 C121 1.242 . S
O134 Eu118 2.324 . S
O134 C121 1.258 . S
O135 Tb117 2.500 . S
O135 C137 1.273 . S
O136 Tb117 2.473 . S
O136 C137 1.257 . S
C137 O135 1.273 . S
C137 O136 1.257 . S
O138 Eu118 2.326 . S
O138 C126 1.242 . S
O139 Tb117 2.324 . S
O139 C126 1.258 . S
O140 Eu118 2.500 1_455 S
O140 C123 1.273 . S
O141 Eu118 2.473 1_455 S
O141 C123 1.257 . S
H142 C128 0.929 . S
H143 C130 0.931 . S
H144 C132 0.929 . S
O145 Tb146 2.292 . S
O145 C148 1.255 . S
Tb146 O145 2.292 . S
Tb146 O162 2.326 . S
Tb146 O164 2.500 . S
Tb146 O165 2.473 . S
Tb146 O168 2.324 . S
Eu147 O151 2.292 . S
Eu147 C152 2.852 . S
Eu147 O163 2.324 . S
Eu147 O167 2.326 . S
Eu147 O169 2.500 . S
Eu147 O170 2.473 . S
C148 O145 1.255 . S
C148 O149 1.247 . S
O149 C148 1.247 . S
C150 O162 1.242 . S
C150 O163 1.258 . S
O151 Eu147 2.292 . S
O151 C153 1.255 . S
C152 Eu147 2.852 . S
C152 C156 1.503 . S
C152 O169 1.273 . S
C152 O170 1.257 . S
C153 O151 1.255 . S
C153 O154 1.247 . S
O154 C153 1.247 . S
C155 O167 1.242 . S
C155 O168 1.258 . S
C156 C152 1.503 . S
C156 C157 1.379 . S
C156 C161 1.392 . S
C157 C156 1.379 . S
C157 C158 1.404 . S
C157 H171 0.929 . S
C158 C157 1.404 . S
C158 C159 1.389 . S
C159 C158 1.389 . S
C159 C160 1.399 . S
C159 H172 0.931 . S
C160 C159 1.399 . S
C160 C161 1.390 . S
C161 C156 1.392 . S
C161 C160 1.390 . S
C161 H173 0.929 . S
O162 Tb146 2.326 . S
O162 C150 1.242 . S
O163 Eu147 2.324 . S
O163 C150 1.258 . S
O164 Tb146 2.500 . S
O164 C166 1.273 . S
O165 Tb146 2.473 . S
O165 C166 1.257 . S
C166 O164 1.273 . S
C166 O165 1.257 . S
O167 Eu147 2.326 . S
O167 C155 1.242 . S
O168 Tb146 2.324 . S
O168 C155 1.258 . S
O169 Eu147 2.500 . S
O169 C152 1.273 . S
O170 Eu147 2.473 . S
O170 C152 1.257 . S
H171 C157 0.929 . S
H172 C159 0.931 . S
H173 C161 0.929 . S
O174 Tb175 2.292 . S
O174 C177 1.255 . S
Tb175 O174 2.292 . S
Tb175 O191 2.326 . S
Tb175 O193 2.500 . S
Tb175 O194 2.473 . S
Tb175 O197 2.324 . S
Eu176 O180 2.292 . S
Eu176 C181 2.852 . S
Eu176 O192 2.324 . S
Eu176 O196 2.326 . S
Eu176 O198 2.500 . S
Eu176 O199 2.473 . S
C177 O174 1.255 . S
C177 O178 1.247 . S
O178 C177 1.247 . S
C179 O191 1.242 . S
C179 O192 1.258 . S
O180 Eu176 2.292 . S
O180 C182 1.255 . S
C181 Eu176 2.852 . S
C181 C185 1.503 . S
C181 O198 1.273 . S
C181 O199 1.257 . S
C182 O180 1.255 . S
C182 O183 1.247 . S
O183 C182 1.247 . S
C184 O196 1.242 . S
C184 O197 1.258 . S
C185 C181 1.503 . S
C185 C186 1.379 . S
C185 C190 1.392 . S
C186 C185 1.379 . S
C186 C187 1.404 . S
C186 H200 0.929 . S
C187 C186 1.404 . S
C187 C188 1.389 . S
C188 C187 1.389 . S
C188 C189 1.399 . S
C188 H201 0.931 . S
C189 C188 1.399 . S
C189 C190 1.390 . S
C190 C185 1.392 . S
C190 C189 1.390 . S
C190 H202 0.929 . S
O191 Tb175 2.326 . S
O191 C179 1.242 . S
O192 Eu176 2.324 . S
O192 C179 1.258 . S
O193 Tb175 2.500 . S
O193 C195 1.273 . S
O194 Tb175 2.473 . S
O194 C195 1.257 . S
C195 O193 1.273 . S
C195 O194 1.257 . S
O196 Eu176 2.326 . S
O196 C184 1.242 . S
O197 Tb175 2.324 . S
O197 C184 1.258 . S
O198 Eu176 2.500 . S
O198 C181 1.273 . S
O199 Eu176 2.473 . S
O199 C181 1.257 . S
H200 C186 0.929 . S
H201 C188 0.931 . S
H202 C190 0.929 . S
O203 Tb204 2.292 . S
O203 C206 1.255 . S
Tb204 O203 2.292 . S
Tb204 O220 2.326 . S
Tb204 O222 2.500 . S
Tb204 O223 2.473 . S
Tb204 O226 2.324 . S
Eu205 O209 2.292 1_455 S
Eu205 C210 2.852 1_455 S
Eu205 O221 2.324 . S
Eu205 O225 2.326 . S
Eu205 O227 2.500 1_455 S
Eu205 O228 2.473 1_455 S
C206 O203 1.255 . S
C206 O207 1.247 . S
O207 C206 1.247 . S
C208 O220 1.242 . S
C208 O221 1.258 . S
O209 Eu205 2.292 1_655 S
O209 C211 1.255 . S
C210 Eu205 2.852 1_655 S
C210 C214 1.503 . S
C210 O227 1.273 . S
C210 O228 1.257 . S
C211 O209 1.255 . S
C211 O212 1.247 1_655 S
O212 C211 1.247 1_455 S
C213 O225 1.242 . S
C213 O226 1.258 . S
C214 C210 1.503 . S
C214 C215 1.379 . S
C214 C219 1.392 . S
C215 C214 1.379 . S
C215 C216 1.404 . S
C215 H229 0.929 . S
C216 C215 1.404 . S
C216 C217 1.389 . S
C217 C216 1.389 . S
C217 C218 1.399 . S
C217 H230 0.931 . S
C218 C217 1.399 . S
C218 C219 1.390 . S
C219 C214 1.392 . S
C219 C218 1.390 . S
C219 H231 0.929 . S
O220 Tb204 2.326 . S
O220 C208 1.242 . S
O221 Eu205 2.324 . S
O221 C208 1.258 . S
O222 Tb204 2.500 . S
O222 C224 1.273 . S
O223 Tb204 2.473 . S
O223 C224 1.257 . S
C224 O222 1.273 . S
C224 O223 1.257 . S
O225 Eu205 2.326 . S
O225 C213 1.242 . S
O226 Tb204 2.324 . S
O226 C213 1.258 . S
O227 Eu205 2.500 1_655 S
O227 C210 1.273 . S
O228 Eu205 2.473 1_655 S
O228 C210 1.257 . S
H229 C215 0.929 . S
H230 C217 0.931 . S
H231 C219 0.929 . S
O232 Tb233 2.292 . S
O232 C235 1.255 . S
Tb233 O232 2.292 . S
Tb233 O249 2.326 . S
Tb233 O251 2.500 . S
Tb233 O252 2.473 . S
Tb233 O255 2.324 . S
Eu234 O238 2.292 . S
Eu234 C239 2.852 . S
Eu234 O250 2.324 . S
Eu234 O254 2.326 . S
Eu234 O256 2.500 . S
Eu234 O257 2.473 . S
C235 O232 1.255 . S
C235 O236 1.247 . S
O236 C235 1.247 . S
C237 O249 1.242 . S
C237 O250 1.258 . S
O238 Eu234 2.292 . S
O238 C240 1.255 . S
C239 Eu234 2.852 . S
C239 C243 1.503 . S
C239 O256 1.273 . S
C239 O257 1.257 . S
C240 O238 1.255 . S
C240 O241 1.247 . S
O241 C240 1.247 . S
C242 O254 1.242 . S
C242 O255 1.258 . S
C243 C239 1.503 . S
C243 C244 1.379 . S
C243 C248 1.392 . S
C244 C243 1.379 . S
C244 C245 1.404 . S
C244 H258 0.929 . S
C245 C244 1.404 . S
C245 C246 1.389 . S
C246 C245 1.389 . S
C246 C247 1.399 . S
C246 H259 0.931 . S
C247 C246 1.399 . S
C247 C248 1.390 . S
C248 C243 1.392 . S
C248 C247 1.390 . S
C248 H260 0.929 . S
O249 Tb233 2.326 . S
O249 C237 1.242 . S
O250 Eu234 2.324 . S
O250 C237 1.258 . S
O251 Tb233 2.500 . S
O251 C253 1.273 . S
O252 Tb233 2.473 . S
O252 C253 1.257 . S
C253 O251 1.273 . S
C253 O252 1.257 . S
O254 Eu234 2.326 . S
O254 C242 1.242 . S
O255 Tb233 2.324 . S
O255 C242 1.258 . S
O256 Eu234 2.500 . S
O256 C239 1.273 . S
O257 Eu234 2.473 . S
O257 C239 1.257 . S
H258 C244 0.929 . S
H259 C246 0.931 . S
H260 C248 0.929 . S
O261 Tb262 2.292 . S
O261 C264 1.255 . S
Tb262 O261 2.292 . S
Tb262 O278 2.326 . S
Tb262 O280 2.500 . S
Tb262 O281 2.473 . S
Tb262 O284 2.324 . S
Eu263 O267 2.292 1_655 S
Eu263 C268 2.852 1_655 S
Eu263 O279 2.324 . S
Eu263 O283 2.326 . S
Eu263 O285 2.500 1_655 S
Eu263 O286 2.473 1_655 S
C264 O261 1.255 . S
C264 O265 1.247 . S
O265 C264 1.247 . S
C266 O278 1.242 . S
C266 O279 1.258 . S
O267 Eu263 2.292 1_455 S
O267 C269 1.255 . S
C268 Eu263 2.852 1_455 S
C268 C272 1.503 . S
C268 O285 1.273 . S
C268 O286 1.257 . S
C269 O267 1.255 . S
C269 O270 1.247 1_455 S
O270 C269 1.247 1_655 S
C271 O283 1.242 . S
C271 O284 1.258 . S
C272 C268 1.503 . S
C272 C273 1.379 . S
C272 C277 1.392 . S
C273 C272 1.379 . S
C273 C274 1.404 . S
C273 H287 0.929 . S
C274 C273 1.404 . S
C274 C275 1.389 . S
C275 C274 1.389 . S
C275 C276 1.399 . S
C275 H288 0.931 . S
C276 C275 1.399 . S
C276 C277 1.390 . S
C277 C272 1.392 . S
C277 C276 1.390 . S
C277 H289 0.929 . S
O278 Tb262 2.326 . S
O278 C266 1.242 . S
O279 Eu263 2.324 . S
O279 C266 1.258 . S
O280 Tb262 2.500 . S
O280 C282 1.273 . S
O281 Tb262 2.473 . S
O281 C282 1.257 . S
C282 O280 1.273 . S
C282 O281 1.257 . S
O283 Eu263 2.326 . S
O283 C271 1.242 . S
O284 Tb262 2.324 . S
O284 C271 1.258 . S
O285 Eu263 2.500 1_455 S
O285 C268 1.273 . S
O286 Eu263 2.473 1_455 S
O286 C268 1.257 . S
H287 C273 0.929 . S
H288 C275 0.931 . S
H289 C277 0.929 . S
O290 Tb291 2.292 . S
O290 C293 1.255 . S
Tb291 O290 2.292 . S
Tb291 O307 2.326 . S
Tb291 O309 2.500 . S
Tb291 O310 2.473 . S
Tb291 O313 2.324 . S
Eu292 O296 2.292 1_455 S
Eu292 C297 2.852 1_455 S
Eu292 O308 2.324 . S
Eu292 O312 2.326 . S
Eu292 O314 2.500 1_455 S
Eu292 O315 2.473 1_455 S
C293 O290 1.255 . S
C293 O294 1.247 . S
O294 C293 1.247 . S
C295 O307 1.242 . S
C295 O308 1.258 . S
O296 Eu292 2.292 1_655 S
O296 C298 1.255 . S
C297 Eu292 2.852 1_655 S
C297 C301 1.503 . S
C297 O314 1.273 . S
C297 O315 1.257 . S
C298 O296 1.255 . S
C298 O299 1.247 1_655 S
O299 C298 1.247 1_455 S
C300 O312 1.242 . S
C300 O313 1.258 . S
C301 C297 1.503 . S
C301 C302 1.379 . S
C301 C306 1.392 . S
C302 C301 1.379 . S
C302 C303 1.404 . S
C302 H316 0.929 . S
C303 C302 1.404 . S
C303 C304 1.389 . S
C304 C303 1.389 . S
C304 C305 1.399 . S
C304 H317 0.931 . S
C305 C304 1.399 . S
C305 C306 1.390 . S
C306 C301 1.392 . S
C306 C305 1.390 . S
C306 H318 0.929 . S
O307 Tb291 2.326 . S
O307 C295 1.242 . S
O308 Eu292 2.324 . S
O308 C295 1.258 . S
O309 Tb291 2.500 . S
O309 C311 1.273 . S
O310 Tb291 2.473 . S
O310 C311 1.257 . S
C311 O309 1.273 . S
C311 O310 1.257 . S
O312 Eu292 2.326 . S
O312 C300 1.242 . S
O313 Tb291 2.324 . S
O313 C300 1.258 . S
O314 Eu292 2.500 1_655 S
O314 C297 1.273 . S
O315 Eu292 2.473 1_655 S
O315 C297 1.257 . S
H316 C302 0.929 . S
H317 C304 0.931 . S
H318 C306 0.929 . S
O319 Tb320 2.292 . S
O319 C322 1.255 . S
Tb320 O319 2.292 . S
Tb320 O336 2.326 . S
Tb320 O338 2.500 . S
Tb320 O339 2.473 . S
Tb320 O342 2.324 . S
Eu321 O325 2.292 . S
Eu321 C326 2.852 . S
Eu321 O337 2.324 . S
Eu321 O341 2.326 . S
Eu321 O343 2.500 . S
Eu321 O344 2.473 . S
C322 O319 1.255 . S
C322 O323 1.247 . S
O323 C322 1.247 . S
C324 O336 1.242 . S
C324 O337 1.258 . S
O325 Eu321 2.292 . S
O325 C327 1.255 . S
C326 Eu321 2.852 . S
C326 C330 1.503 . S
C326 O343 1.273 . S
C326 O344 1.257 . S
C327 O325 1.255 . S
C327 O328 1.247 . S
O328 C327 1.247 . S
C329 O341 1.242 . S
C329 O342 1.258 . S
C330 C326 1.503 . S
C330 C331 1.379 . S
C330 C335 1.392 . S
C331 C330 1.379 . S
C331 C332 1.404 . S
C331 H345 0.929 . S
C332 C331 1.404 . S
C332 C333 1.389 . S
C333 C332 1.389 . S
C333 C334 1.399 . S
C333 H346 0.931 . S
C334 C333 1.399 . S
C334 C335 1.390 . S
C335 C330 1.392 . S
C335 C334 1.390 . S
C335 H347 0.929 . S
O336 Tb320 2.326 . S
O336 C324 1.242 . S
O337 Eu321 2.324 . S
O337 C324 1.258 . S
O338 Tb320 2.500 . S
O338 C340 1.273 . S
O339 Tb320 2.473 . S
O339 C340 1.257 . S
C340 O338 1.273 . S
C340 O339 1.257 . S
O341 Eu321 2.326 . S
O341 C329 1.242 . S
O342 Tb320 2.324 . S
O342 C329 1.258 . S
O343 Eu321 2.500 . S
O343 C326 1.273 . S
O344 Eu321 2.473 . S
O344 C326 1.257 . S
H345 C331 0.929 . S
H346 C333 0.931 . S
H347 C335 0.929 . S
O348 Tb349 2.292 . S
O348 C351 1.255 . S
Tb349 O348 2.292 . S
Tb349 O365 2.326 . S
Tb349 O367 2.500 . S
Tb349 O368 2.473 . S
Tb349 O371 2.324 . S
Eu350 O354 2.292 . S
Eu350 C355 2.852 . S
Eu350 O366 2.324 . S
Eu350 O370 2.326 . S
Eu350 O372 2.500 . S
Eu350 O373 2.473 . S
C351 O348 1.255 . S
C351 O352 1.247 . S
O352 C351 1.247 . S
C353 O365 1.242 . S
C353 O366 1.258 . S
O354 Eu350 2.292 . S
O354 C356 1.255 . S
C355 Eu350 2.852 . S
C355 C359 1.503 . S
C355 O372 1.273 . S
C355 O373 1.257 . S
C356 O354 1.255 . S
C356 O357 1.247 . S
O357 C356 1.247 . S
C358 O370 1.242 . S
C358 O371 1.258 . S
C359 C355 1.503 . S
C359 C360 1.379 . S
C359 C364 1.392 . S
C360 C359 1.379 . S
C360 C361 1.404 . S
C360 H374 0.929 . S
C361 C360 1.404 . S
C361 C362 1.389 . S
C362 C361 1.389 . S
C362 C363 1.399 . S
C362 H375 0.931 . S
C363 C362 1.399 . S
C363 C364 1.390 . S
C364 C359 1.392 . S
C364 C363 1.390 . S
C364 H376 0.929 . S
O365 Tb349 2.326 . S
O365 C353 1.242 . S
O366 Eu350 2.324 . S
O366 C353 1.258 . S
O367 Tb349 2.500 . S
O367 C369 1.273 . S
O368 Tb349 2.473 . S
O368 C369 1.257 . S
C369 O367 1.273 . S
C369 O368 1.257 . S
O370 Eu350 2.326 . S
O370 C358 1.242 . S
O371 Tb349 2.324 . S
O371 C358 1.258 . S
O372 Eu350 2.500 . S
O372 C355 1.273 . S
O373 Eu350 2.473 . S
O373 C355 1.257 . S
H374 C360 0.929 . S
H375 C362 0.931 . S
H376 C364 0.929 . S
O377 Tb378 2.292 . S
O377 C380 1.255 . S
Tb378 O377 2.292 . S
Tb378 O394 2.326 . S
Tb378 O396 2.500 . S
Tb378 O397 2.473 . S
Tb378 O400 2.324 . S
Eu379 O383 2.292 1_455 S
Eu379 C384 2.852 1_455 S
Eu379 O395 2.324 . S
Eu379 O399 2.326 . S
Eu379 O401 2.500 1_455 S
Eu379 O402 2.473 1_455 S
C380 O377 1.255 . S
C380 O381 1.247 . S
O381 C380 1.247 . S
C382 O394 1.242 . S
C382 O395 1.258 . S
O383 Eu379 2.292 1_655 S
O383 C385 1.255 . S
C384 Eu379 2.852 1_655 S
C384 C388 1.503 . S
C384 O401 1.273 . S
C384 O402 1.257 . S
C385 O383 1.255 . S
C385 O386 1.247 1_655 S
O386 C385 1.247 1_455 S
C387 O399 1.242 . S
C387 O400 1.258 . S
C388 C384 1.503 . S
C388 C389 1.379 . S
C388 C393 1.392 . S
C389 C388 1.379 . S
C389 C390 1.404 . S
C389 H403 0.929 . S
C390 C389 1.404 . S
C390 C391 1.389 . S
C391 C390 1.389 . S
C391 C392 1.399 . S
C391 H404 0.931 . S
C392 C391 1.399 . S
C392 C393 1.390 . S
C393 C388 1.392 . S
C393 C392 1.390 . S
C393 H405 0.929 . S
O394 Tb378 2.326 . S
O394 C382 1.242 . S
O395 Eu379 2.324 . S
O395 C382 1.258 . S
O396 Tb378 2.500 . S
O396 C398 1.273 . S
O397 Tb378 2.473 . S
O397 C398 1.257 . S
C398 O396 1.273 . S
C398 O397 1.257 . S
O399 Eu379 2.326 . S
O399 C387 1.242 . S
O400 Tb378 2.324 . S
O400 C387 1.258 . S
O401 Eu379 2.500 1_655 S
O401 C384 1.273 . S
O402 Eu379 2.473 1_655 S
O402 C384 1.257 . S
H403 C389 0.929 . S
H404 C391 0.931 . S
H405 C393 0.929 . S
O406 Tb407 2.292 . S
O406 C409 1.255 . S
Tb407 O406 2.292 . S
Tb407 O423 2.326 . S
Tb407 O425 2.500 . S
Tb407 O426 2.473 . S
Tb407 O429 2.324 . S
Eu408 O412 2.292 1_655 S
Eu408 C413 2.852 1_655 S
Eu408 O424 2.324 . S
Eu408 O428 2.326 . S
Eu408 O430 2.500 1_655 S
Eu408 O431 2.473 1_655 S
C409 O406 1.255 . S
C409 O410 1.247 . S
O410 C409 1.247 . S
C411 O423 1.242 . S
C411 O424 1.258 . S
O412 Eu408 2.292 1_455 S
O412 C414 1.255 . S
C413 Eu408 2.852 1_455 S
C413 C417 1.503 . S
C413 O430 1.273 . S
C413 O431 1.257 . S
C414 O412 1.255 . S
C414 O415 1.247 1_455 S
O415 C414 1.247 1_655 S
C416 O428 1.242 . S
C416 O429 1.258 . S
C417 C413 1.503 . S
C417 C418 1.379 . S
C417 C422 1.392 . S
C418 C417 1.379 . S
C418 C419 1.404 . S
C418 H432 0.929 . S
C419 C418 1.404 . S
C419 C420 1.389 . S
C420 C419 1.389 . S
C420 C421 1.399 . S
C420 H433 0.931 . S
C421 C420 1.399 . S
C421 C422 1.390 . S
C422 C417 1.392 . S
C422 C421 1.390 . S
C422 H434 0.929 . S
O423 Tb407 2.326 . S
O423 C411 1.242 . S
O424 Eu408 2.324 . S
O424 C411 1.258 . S
O425 Tb407 2.500 . S
O425 C427 1.273 . S
O426 Tb407 2.473 . S
O426 C427 1.257 . S
C427 O425 1.273 . S
C427 O426 1.257 . S
O428 Eu408 2.326 . S
O428 C416 1.242 . S
O429 Tb407 2.324 . S
O429 C416 1.258 . S
O430 Eu408 2.500 1_455 S
O430 C413 1.273 . S
O431 Eu408 2.473 1_455 S
O431 C413 1.257 . S
H432 C418 0.929 . S
H433 C420 0.931 . S
H434 C422 0.929 . S
O435 Tb436 2.292 . S
O435 C438 1.255 . S
Tb436 O435 2.292 . S
Tb436 O452 2.326 . S
Tb436 O454 2.500 . S
Tb436 O455 2.473 . S
Tb436 O458 2.324 . S
Eu437 O441 2.292 . S
Eu437 C442 2.852 . S
Eu437 O453 2.324 . S
Eu437 O457 2.326 . S
Eu437 O459 2.500 . S
Eu437 O460 2.473 . S
C438 O435 1.255 . S
C438 O439 1.247 . S
O439 C438 1.247 . S
C440 O452 1.242 . S
C440 O453 1.258 . S
O441 Eu437 2.292 . S
O441 C443 1.255 . S
C442 Eu437 2.852 . S
C442 C446 1.503 . S
C442 O459 1.273 . S
C442 O460 1.257 . S
C443 O441 1.255 . S
C443 O444 1.247 . S
O444 C443 1.247 . S
C445 O457 1.242 . S
C445 O458 1.258 . S
C446 C442 1.503 . S
C446 C447 1.379 . S
C446 C451 1.392 . S
C447 C446 1.379 . S
C447 C448 1.404 . S
C447 H461 0.929 . S
C448 C447 1.404 . S
C448 C449 1.389 . S
C449 C448 1.389 . S
C449 C450 1.399 . S
C449 H462 0.931 . S
C450 C449 1.399 . S
C450 C451 1.390 . S
C451 C446 1.392 . S
C451 C450 1.390 . S
C451 H463 0.929 . S
O452 Tb436 2.326 . S
O452 C440 1.242 . S
O453 Eu437 2.324 . S
O453 C440 1.258 . S
O454 Tb436 2.500 . S
O454 C456 1.273 . S
O455 Tb436 2.473 . S
O455 C456 1.257 . S
C456 O454 1.273 . S
C456 O455 1.257 . S
O457 Eu437 2.326 . S
O457 C445 1.242 . S
O458 Tb436 2.324 . S
O458 C445 1.258 . S
O459 Eu437 2.500 . S
O459 C442 1.273 . S
O460 Eu437 2.473 . S
O460 C442 1.257 . S
H461 C447 0.929 . S
H462 C449 0.931 . S
H463 C451 0.929 . S
H464 C472 0.929 . S
H465 C474 0.930 . S
H466 C476 0.930 . S
H467 C479 0.929 . S
H468 C482 0.930 . S
H469 C484 0.960 . S
H470 C484 0.960 . S
H471 C484 0.960 . S
C472 H464 0.929 . S
C472 C473 1.377 . S
C472 C474 1.384 . S
C473 C472 1.377 . S
C473 C479 1.390 . S
C474 H465 0.930 . S
C474 C472 1.384 . S
C474 C475 1.372 . S
C475 C474 1.372 . S
C475 C476 1.400 . S
C475 C480 1.490 . S
C476 H466 0.930 . S
C476 C475 1.400 . S
C476 C479 1.386 . S
H477 C493 0.930 . S
H478 C494 0.931 . S
C479 H467 0.929 . S
C479 C473 1.390 . S
C479 C476 1.386 . S
C480 C475 1.490 . S
C480 C482 1.395 . S
C480 C483 1.403 . S
H481 C487 0.930 . S
C482 H468 0.930 . S
C482 C480 1.395 . S
C482 C485 1.403 . S
C483 C480 1.403 . S
C483 C484 1.524 . S
C483 C487 1.400 . S
C484 H469 0.960 . S
C484 H470 0.960 . S
C484 H471 0.960 . S
C484 C483 1.524 . S
C485 C482 1.403 . S
C485 C486 1.392 . S
C485 C489 1.495 . S
C486 C485 1.392 . S
C486 C487 1.385 . S
C486 C488 1.478 . S
C487 H481 0.930 . S
C487 C483 1.400 . S
C487 C486 1.385 . S
C488 C486 1.478 . S
C488 C490 1.381 . S
C488 C494 1.383 . S
C489 C485 1.495 . S
C489 H495 0.959 . S
C489 H496 0.961 . S
C489 H497 0.960 . S
C490 C488 1.381 . S
C490 C491 1.394 . S
C490 H498 0.930 . S
C491 C490 1.394 . S
C491 C492 1.383 . S
C491 H499 0.929 . S
C492 C491 1.383 . S
C492 C493 1.377 . S
C493 H477 0.930 . S
C493 C492 1.377 . S
C493 C494 1.379 . S
C494 H478 0.931 . S
C494 C488 1.383 . S
C494 C493 1.379 . S
H495 C489 0.959 . S
H496 C489 0.961 . S
H497 C489 0.960 . S
H498 C490 0.930 . S
H499 C491 0.929 . S
H500 C508 0.929 . S
H501 C510 0.930 . S
H502 C512 0.930 . S
H503 C515 0.929 . S
H504 C518 0.930 . S
H505 C520 0.960 . S
H506 C520 0.960 . S
H507 C520 0.960 . S
C508 H500 0.929 . S
C508 C509 1.377 . S
C508 C510 1.384 . S
C509 C508 1.377 . S
C509 C515 1.390 . S
C510 H501 0.930 . S
C510 C508 1.384 . S
C510 C511 1.372 . S
C511 C510 1.372 . S
C511 C512 1.400 . S
C511 C516 1.490 . S
C512 H502 0.930 . S
C512 C511 1.400 . S
C512 C515 1.386 . S
H513 C529 0.930 . S
H514 C530 0.931 . S
C515 H503 0.929 . S
C515 C509 1.390 . S
C515 C512 1.386 . S
C516 C511 1.490 . S
C516 C518 1.395 . S
C516 C519 1.403 . S
H517 C523 0.930 . S
C518 H504 0.930 . S
C518 C516 1.395 . S
C518 C521 1.403 1_455 S
C519 C516 1.403 . S
C519 C520 1.524 . S
C519 C523 1.400 1_455 S
C520 H505 0.960 . S
C520 H506 0.960 . S
C520 H507 0.960 . S
C520 C519 1.524 . S
C521 C518 1.403 1_655 S
C521 C522 1.392 . S
C521 C525 1.495 . S
C522 C521 1.392 . S
C522 C523 1.385 . S
C522 C524 1.478 . S
C523 H517 0.930 . S
C523 C519 1.400 1_655 S
C523 C522 1.385 . S
C524 C522 1.478 . S
C524 C526 1.381 . S
C524 C530 1.383 . S
C525 C521 1.495 . S
C525 H531 0.959 . S
C525 H532 0.961 . S
C525 H533 0.960 . S
C526 C524 1.381 . S
C526 C527 1.394 . S
C526 H534 0.930 . S
C527 C526 1.394 . S
C527 C528 1.383 . S
C527 H535 0.929 . S
C528 C527 1.383 . S
C528 C529 1.377 . S
C529 H513 0.930 . S
C529 C528 1.377 . S
C529 C530 1.379 . S
C530 H514 0.931 . S
C530 C524 1.383 . S
C530 C529 1.379 . S
H531 C525 0.959 . S
H532 C525 0.961 . S
H533 C525 0.960 . S
H534 C526 0.930 . S
H535 C527 0.929 . S
H536 C544 0.929 . S
H537 C546 0.930 . S
H538 C548 0.930 . S
H539 C551 0.929 . S
H540 C554 0.930 . S
H541 C556 0.960 . S
H542 C556 0.960 . S
H543 C556 0.960 . S
C544 H536 0.929 . S
C544 C545 1.377 . S
C544 C546 1.384 . S
C545 C544 1.377 . S
C545 C551 1.390 . S
C546 H537 0.930 . S
C546 C544 1.384 . S
C546 C547 1.372 . S
C547 C546 1.372 . S
C547 C548 1.400 . S
C547 C552 1.490 . S
C548 H538 0.930 . S
C548 C547 1.400 . S
C548 C551 1.386 . S
H549 C565 0.930 . S
H550 C566 0.931 . S
C551 H539 0.929 . S
C551 C545 1.390 . S
C551 C548 1.386 . S
C552 C547 1.490 . S
C552 C554 1.395 . S
C552 C555 1.403 . S
H553 C559 0.930 . S
C554 H540 0.930 . S
C554 C552 1.395 . S
C554 C557 1.403 1_655 S
C555 C552 1.403 . S
C555 C556 1.524 . S
C555 C559 1.400 1_655 S
C556 H541 0.960 . S
C556 H542 0.960 . S
C556 H543 0.960 . S
C556 C555 1.524 . S
C557 C554 1.403 1_455 S
C557 C558 1.392 . S
C557 C561 1.495 . S
C558 C557 1.392 . S
C558 C559 1.385 . S
C558 C560 1.478 . S
C559 H553 0.930 . S
C559 C555 1.400 1_455 S
C559 C558 1.385 . S
C560 C558 1.478 . S
C560 C562 1.381 . S
C560 C566 1.383 . S
C561 C557 1.495 . S
C561 H567 0.959 . S
C561 H568 0.961 . S
C561 H569 0.960 . S
C562 C560 1.381 . S
C562 C563 1.394 . S
C562 H570 0.930 . S
C563 C562 1.394 . S
C563 C564 1.383 . S
C563 H571 0.929 . S
C564 C563 1.383 . S
C564 C565 1.377 . S
C565 H549 0.930 . S
C565 C564 1.377 . S
C565 C566 1.379 . S
C566 H550 0.931 . S
C566 C560 1.383 . S
C566 C565 1.379 . S
H567 C561 0.959 . S
H568 C561 0.961 . S
H569 C561 0.960 . S
H570 C562 0.930 . S
H571 C563 0.929 . S
H572 C580 0.929 . S
H573 C582 0.930 . S
H574 C584 0.930 . S
H575 C587 0.929 . S
H576 C590 0.930 . S
H577 C592 0.960 . S
H578 C592 0.960 . S
H579 C592 0.960 . S
C580 H572 0.929 . S
C580 C581 1.377 . S
C580 C582 1.384 . S
C581 C580 1.377 . S
C581 C587 1.390 . S
C582 H573 0.930 . S
C582 C580 1.384 . S
C582 C583 1.372 . S
C583 C582 1.372 . S
C583 C584 1.400 . S
C583 C588 1.490 . S
C584 H574 0.930 . S
C584 C583 1.400 . S
C584 C587 1.386 . S
H585 C601 0.930 . S
H586 C602 0.931 . S
C587 H575 0.929 . S
C587 C581 1.390 . S
C587 C584 1.386 . S
C588 C583 1.490 . S
C588 C590 1.395 . S
C588 C591 1.403 . S
H589 C595 0.930 . S
C590 H576 0.930 . S
C590 C588 1.395 . S
C590 C593 1.403 . S
C591 C588 1.403 . S
C591 C592 1.524 . S
C591 C595 1.400 . S
C592 H577 0.960 . S
C592 H578 0.960 . S
C592 H579 0.960 . S
C592 C591 1.524 . S
C593 C590 1.403 . S
C593 C594 1.392 . S
C593 C597 1.495 . S
C594 C593 1.392 . S
C594 C595 1.385 . S
C594 C596 1.478 . S
C595 H589 0.930 . S
C595 C591 1.400 . S
C595 C594 1.385 . S
C596 C594 1.478 . S
C596 C598 1.381 . S
C596 C602 1.383 . S
C597 C593 1.495 . S
C597 H603 0.959 . S
C597 H604 0.961 . S
C597 H605 0.960 . S
C598 C596 1.381 . S
C598 C599 1.394 . S
C598 H606 0.930 . S
C599 C598 1.394 . S
C599 C600 1.383 . S
C599 H607 0.929 . S
C600 C599 1.383 . S
C600 C601 1.377 . S
C601 H585 0.930 . S
C601 C600 1.377 . S
C601 C602 1.379 . S
C602 H586 0.931 . S
C602 C596 1.383 . S
C602 C601 1.379 . S
H603 C597 0.959 . S
H604 C597 0.961 . S
H605 C597 0.960 . S
H606 C598 0.930 . S
H607 C599 0.929 . S
H608 C616 0.929 . S
H609 C618 0.930 . S
H610 C620 0.930 . S
H611 C623 0.929 . S
H612 C626 0.930 . S
H613 C628 0.960 . S
H614 C628 0.960 . S
H615 C628 0.960 . S
C616 H608 0.929 . S
C616 C617 1.377 . S
C616 C618 1.384 . S
C617 C616 1.377 . S
C617 C623 1.390 . S
C618 H609 0.930 . S
C618 C616 1.384 . S
C618 C619 1.372 . S
C619 C618 1.372 . S
C619 C620 1.400 . S
C619 C624 1.490 . S
C620 H610 0.930 . S
C620 C619 1.400 . S
C620 C623 1.386 . S
H621 C637 0.930 . S
H622 C638 0.931 . S
C623 H611 0.929 . S
C623 C617 1.390 . S
C623 C620 1.386 . S
C624 C619 1.490 . S
C624 C626 1.395 . S
C624 C627 1.403 . S
H625 C631 0.930 . S
C626 H612 0.930 . S
C626 C624 1.395 . S
C626 C629 1.403 . S
C627 C624 1.403 . S
C627 C628 1.524 . S
C627 C631 1.400 . S
C628 H613 0.960 . S
C628 H614 0.960 . S
C628 H615 0.960 . S
C628 C627 1.524 . S
C629 C626 1.403 . S
C629 C630 1.392 . S
C629 C633 1.495 . S
C630 C629 1.392 . S
C630 C631 1.385 . S
C630 C632 1.478 . S
C631 H625 0.930 . S
C631 C627 1.400 . S
C631 C630 1.385 . S
C632 C630 1.478 . S
C632 C634 1.381 . S
C632 C638 1.383 . S
C633 C629 1.495 . S
C633 H639 0.959 . S
C633 H640 0.961 . S
C633 H641 0.960 . S
C634 C632 1.381 . S
C634 C635 1.394 . S
C634 H642 0.930 . S
C635 C634 1.394 . S
C635 C636 1.383 . S
C635 H643 0.929 . S
C636 C635 1.383 . S
C636 C637 1.377 . S
C637 H621 0.930 . S
C637 C636 1.377 . S
C637 C638 1.379 . S
C638 H622 0.931 . S
C638 C632 1.383 . S
C638 C637 1.379 . S
H639 C633 0.959 . S
H640 C633 0.961 . S
H641 C633 0.960 . S
H642 C634 0.930 . S
H643 C635 0.929 . S
H644 C652 0.929 . S
H645 C654 0.930 . S
H646 C656 0.930 . S
H647 C659 0.929 . S
H648 C662 0.930 . S
H649 C664 0.960 . S
H650 C664 0.960 . S
H651 C664 0.960 . S
C652 H644 0.929 . S
C652 C653 1.377 . S
C652 C654 1.384 . S
C653 C652 1.377 . S
C653 C659 1.390 . S
C654 H645 0.930 . S
C654 C652 1.384 . S
C654 C655 1.372 . S
C655 C654 1.372 . S
C655 C656 1.400 . S
C655 C660 1.490 . S
C656 H646 0.930 . S
C656 C655 1.400 . S
C656 C659 1.386 . S
H657 C673 0.930 . S
H658 C674 0.931 . S
C659 H647 0.929 . S
C659 C653 1.390 . S
C659 C656 1.386 . S
C660 C655 1.490 . S
C660 C662 1.395 . S
C660 C663 1.403 . S
H661 C667 0.930 . S
C662 H648 0.930 . S
C662 C660 1.395 . S
C662 C665 1.403 1_455 S
C663 C660 1.403 . S
C663 C664 1.524 . S
C663 C667 1.400 1_455 S
C664 H649 0.960 . S
C664 H650 0.960 . S
C664 H651 0.960 . S
C664 C663 1.524 . S
C665 C662 1.403 1_655 S
C665 C666 1.392 . S
C665 C669 1.495 . S
C666 C665 1.392 . S
C666 C667 1.385 . S
C666 C668 1.478 . S
C667 H661 0.930 . S
C667 C663 1.400 1_655 S
C667 C666 1.385 . S
C668 C666 1.478 . S
C668 C670 1.381 . S
C668 C674 1.383 . S
C669 C665 1.495 . S
C669 H675 0.959 . S
C669 H676 0.961 . S
C669 H677 0.960 . S
C670 C668 1.381 . S
C670 C671 1.394 . S
C670 H678 0.930 . S
C671 C670 1.394 . S
C671 C672 1.383 . S
C671 H679 0.929 . S
C672 C671 1.383 . S
C672 C673 1.377 . S
C673 H657 0.930 . S
C673 C672 1.377 . S
C673 C674 1.379 . S
C674 H658 0.931 . S
C674 C668 1.383 . S
C674 C673 1.379 . S
H675 C669 0.959 . S
H676 C669 0.961 . S
H677 C669 0.960 . S
H678 C670 0.930 . S
H679 C671 0.929 . S
H680 C688 0.929 . S
H681 C690 0.930 . S
H682 C692 0.930 . S
H683 C695 0.929 . S
H684 C698 0.930 . S
H685 C700 0.960 . S
H686 C700 0.960 . S
H687 C700 0.960 . S
C688 H680 0.929 . S
C688 C689 1.377 . S
C688 C690 1.384 . S
C689 C688 1.377 . S
C689 C695 1.390 . S
C690 H681 0.930 . S
C690 C688 1.384 . S
C690 C691 1.372 . S
C691 C690 1.372 . S
C691 C692 1.400 . S
C691 C696 1.490 . S
C692 H682 0.930 . S
C692 C691 1.400 . S
C692 C695 1.386 . S
H693 C709 0.930 . S
H694 C710 0.931 . S
C695 H683 0.929 . S
C695 C689 1.390 . S
C695 C692 1.386 . S
C696 C691 1.490 . S
C696 C698 1.395 . S
C696 C699 1.403 . S
H697 C703 0.930 . S
C698 H684 0.930 . S
C698 C696 1.395 . S
C698 C701 1.403 1_655 S
C699 C696 1.403 . S
C699 C700 1.524 . S
C699 C703 1.400 1_655 S
C700 H685 0.960 . S
C700 H686 0.960 . S
C700 H687 0.960 . S
C700 C699 1.524 . S
C701 C698 1.403 1_455 S
C701 C702 1.392 . S
C701 C705 1.495 . S
C702 C701 1.392 . S
C702 C703 1.385 . S
C702 C704 1.478 . S
C703 H697 0.930 . S
C703 C699 1.400 1_455 S
C703 C702 1.385 . S
C704 C702 1.478 . S
C704 C706 1.381 . S
C704 C710 1.383 . S
C705 C701 1.495 . S
C705 H711 0.959 . S
C705 H712 0.961 . S
C705 H713 0.960 . S
C706 C704 1.381 . S
C706 C707 1.394 . S
C706 H714 0.930 . S
C707 C706 1.394 . S
C707 C708 1.383 . S
C707 H715 0.929 . S
C708 C707 1.383 . S
C708 C709 1.377 . S
C709 H693 0.930 . S
C709 C708 1.377 . S
C709 C710 1.379 . S
C710 H694 0.931 . S
C710 C704 1.383 . S
C710 C709 1.379 . S
H711 C705 0.959 . S
H712 C705 0.961 . S
H713 C705 0.960 . S
H714 C706 0.930 . S
H715 C707 0.929 . S
H716 C724 0.929 . S
H717 C726 0.930 . S
H718 C728 0.930 . S
H719 C731 0.929 . S
H720 C734 0.930 . S
H721 C736 0.960 . S
H722 C736 0.960 . S
H723 C736 0.960 . S
C724 H716 0.929 . S
C724 C725 1.377 . S
C724 C726 1.384 . S
C725 C724 1.377 . S
C725 C731 1.390 . S
C726 H717 0.930 . S
C726 C724 1.384 . S
C726 C727 1.372 . S
C727 C726 1.372 . S
C727 C728 1.400 . S
C727 C732 1.490 . S
C728 H718 0.930 . S
C728 C727 1.400 . S
C728 C731 1.386 . S
H729 C745 0.930 . S
H730 C746 0.931 . S
C731 H719 0.929 . S
C731 C725 1.390 . S
C731 C728 1.386 . S
C732 C727 1.490 . S
C732 C734 1.395 . S
C732 C735 1.403 . S
H733 C739 0.930 . S
C734 H720 0.930 . S
C734 C732 1.395 . S
C734 C737 1.403 . S
C735 C732 1.403 . S
C735 C736 1.524 . S
C735 C739 1.400 . S
C736 H721 0.960 . S
C736 H722 0.960 . S
C736 H723 0.960 . S
C736 C735 1.524 . S
C737 C734 1.403 . S
C737 C738 1.392 . S
C737 C741 1.495 . S
C738 C737 1.392 . S
C738 C739 1.385 . S
C738 C740 1.478 . S
C739 H733 0.930 . S
C739 C735 1.400 . S
C739 C738 1.385 . S
C740 C738 1.478 . S
C740 C742 1.381 . S
C740 C746 1.383 . S
C741 C737 1.495 . S
C741 H747 0.959 . S
C741 H748 0.961 . S
C741 H749 0.960 . S
C742 C740 1.381 . S
C742 C743 1.394 . S
C742 H750 0.930 . S
C743 C742 1.394 . S
C743 C744 1.383 . S
C743 H751 0.929 . S
C744 C743 1.383 . S
C744 C745 1.377 . S
C745 H729 0.930 . S
C745 C744 1.377 . S
C745 C746 1.379 . S
C746 H730 0.931 . S
C746 C740 1.383 . S
C746 C745 1.379 . S
H747 C741 0.959 . S
H748 C741 0.961 . S
H749 C741 0.960 . S
H750 C742 0.930 . S
H751 C743 0.929 . S
H752 C760 0.929 . S
H753 C762 0.930 . S
H754 C764 0.930 . S
H755 C767 0.929 . S
H756 C770 0.930 . S
H757 C772 0.960 . S
H758 C772 0.960 . S
H759 C772 0.960 . S
C760 H752 0.929 . S
C760 C761 1.377 . S
C760 C762 1.384 . S
C761 C760 1.377 . S
C761 C767 1.390 . S
C762 H753 0.930 . S
C762 C760 1.384 . S
C762 C763 1.372 . S
C763 C762 1.372 . S
C763 C764 1.400 . S
C763 C768 1.490 . S
C764 H754 0.930 . S
C764 C763 1.400 . S
C764 C767 1.386 . S
H765 C781 0.930 . S
H766 C782 0.931 . S
C767 H755 0.929 . S
C767 C761 1.390 . S
C767 C764 1.386 . S
C768 C763 1.490 . S
C768 C770 1.395 . S
C768 C771 1.403 . S
H769 C775 0.930 . S
C770 H756 0.930 . S
C770 C768 1.395 . S
C770 C773 1.403 1_655 S
C771 C768 1.403 . S
C771 C772 1.524 . S
C771 C775 1.400 1_655 S
C772 H757 0.960 . S
C772 H758 0.960 . S
C772 H759 0.960 . S
C772 C771 1.524 . S
C773 C770 1.403 1_455 S
C773 C774 1.392 . S
C773 C777 1.495 . S
C774 C773 1.392 . S
C774 C775 1.385 . S
C774 C776 1.478 . S
C775 H769 0.930 . S
C775 C771 1.400 1_455 S
C775 C774 1.385 . S
C776 C774 1.478 . S
C776 C778 1.381 . S
C776 C782 1.383 . S
C777 C773 1.495 . S
C777 H783 0.959 1_455 S
C777 H784 0.961 . S
C777 H785 0.960 . S
C778 C776 1.381 . S
C778 C779 1.394 . S
C778 H786 0.930 . S
C779 C778 1.394 . S
C779 C780 1.383 . S
C779 H787 0.929 . S
C780 C779 1.383 . S
C780 C781 1.377 . S
C781 H765 0.930 . S
C781 C780 1.377 . S
C781 C782 1.379 . S
C782 H766 0.931 . S
C782 C776 1.383 . S
C782 C781 1.379 . S
H783 C777 0.959 1_655 S
H784 C777 0.961 . S
H785 C777 0.960 . S
H786 C778 0.930 . S
H787 C779 0.929 . S
H788 C796 0.929 . S
H789 C798 0.930 . S
H790 C800 0.930 . S
H791 C803 0.929 . S
H792 C806 0.930 . S
H793 C808 0.960 . S
H794 C808 0.960 . S
H795 C808 0.960 . S
C796 H788 0.929 . S
C796 C797 1.377 . S
C796 C798 1.384 . S
C797 C796 1.377 . S
C797 C803 1.390 . S
C798 H789 0.930 . S
C798 C796 1.384 . S
C798 C799 1.372 . S
C799 C798 1.372 . S
C799 C800 1.400 . S
C799 C804 1.490 . S
C800 H790 0.930 . S
C800 C799 1.400 . S
C800 C803 1.386 . S
H801 C817 0.930 . S
H802 C818 0.931 . S
C803 H791 0.929 . S
C803 C797 1.390 . S
C803 C800 1.386 . S
C804 C799 1.490 . S
C804 C806 1.395 . S
C804 C807 1.403 . S
H805 C811 0.930 . S
C806 H792 0.930 . S
C806 C804 1.395 . S
C806 C809 1.403 . S
C807 C804 1.403 . S
C807 C808 1.524 . S
C807 C811 1.400 . S
C808 H793 0.960 . S
C808 H794 0.960 . S
C808 H795 0.960 . S
C808 C807 1.524 . S
C809 C806 1.403 . S
C809 C810 1.392 . S
C809 C813 1.495 . S
C810 C809 1.392 . S
C810 C811 1.385 . S
C810 C812 1.478 . S
C811 H805 0.930 . S
C811 C807 1.400 . S
C811 C810 1.385 . S
C812 C810 1.478 . S
C812 C814 1.381 . S
C812 C818 1.383 . S
C813 C809 1.495 . S
C813 H819 0.959 . S
C813 H820 0.961 . S
C813 H821 0.960 . S
C814 C812 1.381 . S
C814 C815 1.394 . S
C814 H822 0.930 . S
C815 C814 1.394 . S
C815 C816 1.383 . S
C815 H823 0.929 . S
C816 C815 1.383 . S
C816 C817 1.377 . S
C817 H801 0.930 . S
C817 C816 1.377 . S
C817 C818 1.379 . S
C818 H802 0.931 . S
C818 C812 1.383 . S
C818 C817 1.379 . S
H819 C813 0.959 . S
H820 C813 0.961 . S
H821 C813 0.960 . S
H822 C814 0.930 . S
H823 C815 0.929 . S
H824 C832 0.929 . S
H825 C834 0.930 . S
H826 C836 0.930 . S
H827 C839 0.929 . S
H828 C842 0.930 . S
H829 C844 0.960 . S
H830 C844 0.960 . S
H831 C844 0.960 . S
C832 H824 0.929 . S
C832 C833 1.377 . S
C832 C834 1.384 . S
C833 C832 1.377 . S
C833 C839 1.390 . S
C834 H825 0.930 . S
C834 C832 1.384 . S
C834 C835 1.372 . S
C835 C834 1.372 . S
C835 C836 1.400 . S
C835 C840 1.490 . S
C836 H826 0.930 . S
C836 C835 1.400 . S
C836 C839 1.386 . S
H837 C853 0.930 . S
H838 C854 0.931 . S
C839 H827 0.929 . S
C839 C833 1.390 . S
C839 C836 1.386 . S
C840 C835 1.490 . S
C840 C842 1.395 . S
C840 C843 1.403 . S
H841 C847 0.930 . S
C842 H828 0.930 . S
C842 C840 1.395 . S
C842 C845 1.403 . S
C843 C840 1.403 . S
C843 C844 1.524 . S
C843 C847 1.400 . S
C844 H829 0.960 . S
C844 H830 0.960 . S
C844 H831 0.960 . S
C844 C843 1.524 . S
C845 C842 1.403 . S
C845 C846 1.392 . S
C845 C849 1.495 . S
C846 C845 1.392 . S
C846 C847 1.385 . S
C846 C848 1.478 . S
C847 H841 0.930 . S
C847 C843 1.400 . S
C847 C846 1.385 . S
C848 C846 1.478 . S
C848 C850 1.381 . S
C848 C854 1.383 . S
C849 C845 1.495 . S
C849 H855 0.959 . S
C849 H856 0.961 . S
C849 H857 0.960 . S
C850 C848 1.381 . S
C850 C851 1.394 . S
C850 H858 0.930 . S
C851 C850 1.394 . S
C851 C852 1.383 . S
C851 H859 0.929 . S
C852 C851 1.383 . S
C852 C853 1.377 . S
C853 H837 0.930 . S
C853 C852 1.377 . S
C853 C854 1.379 . S
C854 H838 0.931 . S
C854 C848 1.383 . S
C854 C853 1.379 . S
H855 C849 0.959 . S
H856 C849 0.961 . S
H857 C849 0.960 . S
H858 C850 0.930 . S
H859 C851 0.929 . S
H860 C868 0.929 . S
H861 C870 0.930 . S
H862 C872 0.930 . S
H863 C875 0.929 . S
H864 C878 0.930 . S
H865 C880 0.960 . S
H866 C880 0.960 . S
H867 C880 0.960 . S
C868 H860 0.929 . S
C868 C869 1.377 . S
C868 C870 1.384 . S
C869 C868 1.377 . S
C869 C875 1.390 . S
C870 H861 0.930 . S
C870 C868 1.384 . S
C870 C871 1.372 . S
C871 C870 1.372 . S
C871 C872 1.400 . S
C871 C876 1.490 . S
C872 H862 0.930 . S
C872 C871 1.400 . S
C872 C875 1.386 . S
H873 C889 0.930 . S
H874 C890 0.931 . S
C875 H863 0.929 . S
C875 C869 1.390 . S
C875 C872 1.386 . S
C876 C871 1.490 . S
C876 C878 1.395 . S
C876 C879 1.403 . S
H877 C883 0.930 . S
C878 H864 0.930 . S
C878 C876 1.395 . S
C878 C881 1.403 1_455 S
C879 C876 1.403 . S
C879 C880 1.524 . S
C879 C883 1.400 1_455 S
C880 H865 0.960 . S
C880 H866 0.960 . S
C880 H867 0.960 . S
C880 C879 1.524 . S
C881 C878 1.403 1_655 S
C881 C882 1.392 . S
C881 C885 1.495 . S
C882 C881 1.392 . S
C882 C883 1.385 . S
C882 C884 1.478 . S
C883 H877 0.930 . S
C883 C879 1.400 1_655 S
C883 C882 1.385 . S
C884 C882 1.478 . S
C884 C886 1.381 . S
C884 C890 1.383 . S
C885 C881 1.495 . S
C885 H891 0.959 1_655 S
C885 H892 0.961 . S
C885 H893 0.960 . S
C886 C884 1.381 . S
C886 C887 1.394 . S
C886 H894 0.930 . S
C887 C886 1.394 . S
C887 C888 1.383 . S
C887 H895 0.929 . S
C888 C887 1.383 . S
C888 C889 1.377 . S
C889 H873 0.930 . S
C889 C888 1.377 . S
C889 C890 1.379 . S
C890 H874 0.931 . S
C890 C884 1.383 . S
C890 C889 1.379 . S
H891 C885 0.959 1_455 S
H892 C885 0.961 . S
H893 C885 0.960 . S
H894 C886 0.930 . S
H895 C887 0.929 . S
H896 C904 0.929 . S
H897 C906 0.930 . S
H898 C908 0.930 . S
H899 C911 0.929 . S
H900 C914 0.930 . S
H901 C916 0.960 . S
H902 C916 0.960 . S
H903 C916 0.960 . S
C904 H896 0.929 . S
C904 C905 1.377 . S
C904 C906 1.384 . S
C905 C904 1.377 . S
C905 C911 1.390 . S
C906 H897 0.930 . S
C906 C904 1.384 . S
C906 C907 1.372 . S
C907 C906 1.372 . S
C907 C908 1.400 . S
C907 C912 1.490 . S
C908 H898 0.930 . S
C908 C907 1.400 . S
C908 C911 1.386 . S
H909 C925 0.930 . S
H910 C926 0.931 . S
C911 H899 0.929 . S
C911 C905 1.390 . S
C911 C908 1.386 . S
C912 C907 1.490 . S
C912 C914 1.395 . S
C912 C915 1.403 . S
H913 C919 0.930 . S
C914 H900 0.930 . S
C914 C912 1.395 . S
C914 C917 1.403 1_455 S
C915 C912 1.403 . S
C915 C916 1.524 . S
C915 C919 1.400 1_455 S
C916 H901 0.960 . S
C916 H902 0.960 . S
C916 H903 0.960 . S
C916 C915 1.524 . S
C917 C914 1.403 1_655 S
C917 C918 1.392 . S
C917 C921 1.495 . S
C918 C917 1.392 . S
C918 C919 1.385 . S
C918 C920 1.478 . S
C919 H913 0.930 . S
C919 C915 1.400 1_655 S
C919 C918 1.385 . S
C920 C918 1.478 . S
C920 C922 1.381 . S
C920 C926 1.383 . S
C921 C917 1.495 . S
C921 H927 0.959 . S
C921 H928 0.961 . S
C921 H929 0.960 . S
C922 C920 1.381 . S
C922 C923 1.394 . S
C922 H930 0.930 . S
C923 C922 1.394 . S
C923 C924 1.383 . S
C923 H931 0.929 . S
C924 C923 1.383 . S
C924 C925 1.377 . S
C925 H909 0.930 . S
C925 C924 1.377 . S
C925 C926 1.379 . S
C926 H910 0.931 . S
C926 C920 1.383 . S
C926 C925 1.379 . S
H927 C921 0.959 . S
H928 C921 0.961 . S
H929 C921 0.960 . S
H930 C922 0.930 . S
H931 C923 0.929 . S
H932 C940 0.929 . S
H933 C942 0.930 . S
H934 C944 0.930 . S
H935 C947 0.929 . S
H936 C950 0.930 . S
H937 C952 0.960 . S
H938 C952 0.960 . S
H939 C952 0.960 . S
C940 H932 0.929 . S
C940 C941 1.377 . S
C940 C942 1.384 . S
C941 C940 1.377 . S
C941 C947 1.390 . S
C942 H933 0.930 . S
C942 C940 1.384 . S
C942 C943 1.372 . S
C943 C942 1.372 . S
C943 C944 1.400 . S
C943 C948 1.490 . S
C944 H934 0.930 . S
C944 C943 1.400 . S
C944 C947 1.386 . S
H945 C961 0.930 . S
H946 C962 0.931 . S
C947 H935 0.929 . S
C947 C941 1.390 . S
C947 C944 1.386 . S
C948 C943 1.490 . S
C948 C950 1.395 . S
C948 C951 1.403 . S
H949 C955 0.930 . S
C950 H936 0.930 . S
C950 C948 1.395 . S
C950 C953 1.403 . S
C951 C948 1.403 . S
C951 C952 1.524 . S
C951 C955 1.400 . S
C952 H937 0.960 . S
C952 H938 0.960 . S
C952 H939 0.960 . S
C952 C951 1.524 . S
C953 C950 1.403 . S
C953 C954 1.392 . S
C953 C957 1.495 . S
C954 C953 1.392 . S
C954 C955 1.385 . S
C954 C956 1.478 . S
C955 H949 0.930 . S
C955 C951 1.400 . S
C955 C954 1.385 . S
C956 C954 1.478 . S
C956 C958 1.381 . S
C956 C962 1.383 . S
C957 C953 1.495 . S
C957 H963 0.959 . S
C957 H964 0.961 . S
C957 H965 0.960 . S
C958 C956 1.381 . S
C958 C959 1.394 . S
C958 H966 0.930 . S
C959 C958 1.394 . S
C959 C960 1.383 . S
C959 H967 0.929 . S
C960 C959 1.383 . S
C960 C961 1.377 . S
C961 H945 0.930 . S
C961 C960 1.377 . S
C961 C962 1.379 . S
C962 H946 0.931 . S
C962 C956 1.383 . S
C962 C961 1.379 . S
H963 C957 0.959 . S
H964 C957 0.961 . S
H965 C957 0.960 . S
H966 C958 0.930 . S
H967 C959 0.929 . S
H968 C976 0.929 . S
H969 C978 0.930 . S
H970 C980 0.930 . S
H971 C983 0.929 . S
H972 C986 0.930 . S
H973 C988 0.960 . S
H974 C988 0.960 . S
H975 C988 0.960 . S
C976 H968 0.929 . S
C976 C977 1.377 . S
C976 C978 1.384 . S
C977 C976 1.377 . S
C977 C983 1.390 . S
C978 H969 0.930 . S
C978 C976 1.384 . S
C978 C979 1.372 . S
C979 C978 1.372 . S
C979 C980 1.400 . S
C979 C984 1.490 . S
C980 H970 0.930 . S
C980 C979 1.400 . S
C980 C983 1.386 . S
H981 C997 0.930 . S
H982 C998 0.931 . S
C983 H971 0.929 . S
C983 C977 1.390 . S
C983 C980 1.386 . S
C984 C979 1.490 . S
C984 C986 1.395 . S
C984 C987 1.403 . S
H985 C991 0.930 . S
C986 H972 0.930 . S
C986 C984 1.395 . S
C986 C989 1.403 . S
C987 C984 1.403 . S
C987 C988 1.524 . S
C987 C991 1.400 . S
C988 H973 0.960 . S
C988 H974 0.960 . S
C988 H975 0.960 . S
C988 C987 1.524 . S
C989 C986 1.403 . S
C989 C990 1.392 . S
C989 C993 1.495 . S
C990 C989 1.392 . S
C990 C991 1.385 . S
C990 C992 1.478 . S
C991 H985 0.930 . S
C991 C987 1.400 . S
C991 C990 1.385 . S
C992 C990 1.478 . S
C992 C994 1.381 . S
C992 C998 1.383 . S
C993 C989 1.495 . S
C993 H999 0.959 . S
C993 H1000 0.961 . S
C993 H1001 0.960 . S
C994 C992 1.381 . S
C994 C995 1.394 . S
C994 H1002 0.930 . S
C995 C994 1.394 . S
C995 C996 1.383 . S
C995 H1003 0.929 . S
C996 C995 1.383 . S
C996 C997 1.377 . S
C997 H981 0.930 . S
C997 C996 1.377 . S
C997 C998 1.379 . S
C998 H982 0.931 . S
C998 C992 1.383 . S
C998 C997 1.379 . S
H999 C993 0.959 . S
H1000 C993 0.961 . S
H1001 C993 0.960 . S
H1002 C994 0.930 . S
H1003 C995 0.929 . S
H1004 C1012 0.929 . S
H1005 C1014 0.930 . S
H1006 C1016 0.930 . S
H1007 C1019 0.929 . S
H1008 C1022 0.930 . S
H1009 C1024 0.960 1_655 S
H1010 C1024 0.960 . S
H1011 C1024 0.960 . S
C1012 H1004 0.929 . S
C1012 C1013 1.377 . S
C1012 C1014 1.384 . S
C1013 C1012 1.377 . S
C1013 C1019 1.390 . S
C1014 H1005 0.930 . S
C1014 C1012 1.384 . S
C1014 C1015 1.372 . S
C1015 C1014 1.372 . S
C1015 C1016 1.400 . S
C1015 C1020 1.490 . S
C1016 H1006 0.930 . S
C1016 C1015 1.400 . S
C1016 C1019 1.386 . S
H1017 C1033 0.930 . S
H1018 C1034 0.931 . S
C1019 H1007 0.929 . S
C1019 C1013 1.390 . S
C1019 C1016 1.386 . S
C1020 C1015 1.490 . S
C1020 C1022 1.395 . S
C1020 C1023 1.403 . S
H1021 C1027 0.930 . S
C1022 H1008 0.930 . S
C1022 C1020 1.395 . S
C1022 C1025 1.403 1_455 S
C1023 C1020 1.403 . S
C1023 C1024 1.524 . S
C1023 C1027 1.400 1_455 S
C1024 H1009 0.960 1_455 S
C1024 H1010 0.960 . S
C1024 H1011 0.960 . S
C1024 C1023 1.524 . S
C1025 C1022 1.403 1_655 S
C1025 C1026 1.392 . S
C1025 C1029 1.495 . S
C1026 C1025 1.392 . S
C1026 C1027 1.385 . S
C1026 C1028 1.478 . S
C1027 H1021 0.930 . S
C1027 C1023 1.400 1_655 S
C1027 C1026 1.385 . S
C1028 C1026 1.478 . S
C1028 C1030 1.381 . S
C1028 C1034 1.383 . S
C1029 C1025 1.495 . S
C1029 H1035 0.959 . S
C1029 H1036 0.961 . S
C1029 H1037 0.960 . S
C1030 C1028 1.381 . S
C1030 C1031 1.394 . S
C1030 H1038 0.930 . S
C1031 C1030 1.394 . S
C1031 C1032 1.383 . S
C1031 H1039 0.929 . S
C1032 C1031 1.383 . S
C1032 C1033 1.377 . S
C1033 H1017 0.930 . S
C1033 C1032 1.377 . S
C1033 C1034 1.379 . S
C1034 H1018 0.931 . S
C1034 C1028 1.383 . S
C1034 C1033 1.379 . S
H1035 C1029 0.959 . S
H1036 C1029 0.961 . S
H1037 C1029 0.960 . S
H1038 C1030 0.930 . S
H1039 C1031 0.929 . S
H1040 C1048 0.929 . S
H1041 C1050 0.930 . S
H1042 C1052 0.930 . S
H1043 C1055 0.929 . S
H1044 C1058 0.930 . S
H1045 C1060 0.960 . S
H1046 C1060 0.960 . S
H1047 C1060 0.960 . S
C1048 H1040 0.929 . S
C1048 C1049 1.377 . S
C1048 C1050 1.384 . S
C1049 C1048 1.377 . S
C1049 C1055 1.390 . S
C1050 H1041 0.930 . S
C1050 C1048 1.384 . S
C1050 C1051 1.372 . S
C1051 C1050 1.372 . S
C1051 C1052 1.400 . S
C1051 C1056 1.490 . S
C1052 H1042 0.930 . S
C1052 C1051 1.400 . S
C1052 C1055 1.386 . S
H1053 C1069 0.930 . S
H1054 C1070 0.931 . S
C1055 H1043 0.929 . S
C1055 C1049 1.390 . S
C1055 C1052 1.386 . S
C1056 C1051 1.490 . S
C1056 C1058 1.395 1_554 S
C1056 C1059 1.403 . S
H1057 C1063 0.930 . S
C1058 H1044 0.930 . S
C1058 C1056 1.395 1_556 S
C1058 C1061 1.403 . S
C1059 C1056 1.403 . S
C1059 C1060 1.524 . S
C1059 C1063 1.400 1_554 S
C1060 H1045 0.960 . S
C1060 H1046 0.960 . S
C1060 H1047 0.960 . S
C1060 C1059 1.524 . S
C1061 C1058 1.403 . S
C1061 C1062 1.392 . S
C1061 C1065 1.495 . S
C1062 C1061 1.392 . S
C1062 C1063 1.385 . S
C1062 C1064 1.478 . S
C1063 H1057 0.930 . S
C1063 C1059 1.400 1_556 S
C1063 C1062 1.385 . S
C1064 C1062 1.478 . S
C1064 C1066 1.381 . S
C1064 C1070 1.383 . S
C1065 C1061 1.495 . S
C1065 H1071 0.959 . S
C1065 H1072 0.961 . S
C1065 H1073 0.960 . S
C1066 C1064 1.381 . S
C1066 C1067 1.394 . S
C1066 H1074 0.930 . S
C1067 C1066 1.394 . S
C1067 C1068 1.383 . S
C1067 H1075 0.929 . S
C1068 C1067 1.383 . S
C1068 C1069 1.377 . S
C1069 H1053 0.930 . S
C1069 C1068 1.377 . S
C1069 C1070 1.379 . S
C1070 H1054 0.931 . S
C1070 C1064 1.383 . S
C1070 C1069 1.379 . S
H1071 C1065 0.959 . S
H1072 C1065 0.961 . S
H1073 C1065 0.960 . S
H1074 C1066 0.930 . S
H1075 C1067 0.929 . S
H1076 C1084 0.929 . S
H1077 C1086 0.930 . S
H1078 C1088 0.930 . S
H1079 C1091 0.929 . S
H1080 C1094 0.930 . S
H1081 C1096 0.960 . S
H1082 C1096 0.960 . S
H1083 C1096 0.960 . S
C1084 H1076 0.929 . S
C1084 C1085 1.377 . S
C1084 C1086 1.384 . S
C1085 C1084 1.377 . S
C1085 C1091 1.390 . S
C1086 H1077 0.930 . S
C1086 C1084 1.384 . S
C1086 C1087 1.372 . S
C1087 C1086 1.372 . S
C1087 C1088 1.400 . S
C1087 C1092 1.490 . S
C1088 H1078 0.930 . S
C1088 C1087 1.400 . S
C1088 C1091 1.386 . S
H1089 C1105 0.930 . S
H1090 C1106 0.931 . S
C1091 H1079 0.929 . S
C1091 C1085 1.390 . S
C1091 C1088 1.386 . S
C1092 C1087 1.490 . S
C1092 C1094 1.395 1_554 S
C1092 C1095 1.403 . S
H1093 C1099 0.930 . S
C1094 H1080 0.930 . S
C1094 C1092 1.395 1_556 S
C1094 C1097 1.403 . S
C1095 C1092 1.403 . S
C1095 C1096 1.524 . S
C1095 C1099 1.400 1_554 S
C1096 H1081 0.960 . S
C1096 H1082 0.960 . S
C1096 H1083 0.960 . S
C1096 C1095 1.524 . S
C1097 C1094 1.403 . S
C1097 C1098 1.392 . S
C1097 C1101 1.495 . S
C1098 C1097 1.392 . S
C1098 C1099 1.385 . S
C1098 C1100 1.478 . S
C1099 H1093 0.930 . S
C1099 C1095 1.400 1_556 S
C1099 C1098 1.385 . S
C1100 C1098 1.478 . S
C1100 C1102 1.381 . S
C1100 C1106 1.383 . S
C1101 C1097 1.495 . S
C1101 H1107 0.959 . S
C1101 H1108 0.961 . S
C1101 H1109 0.960 . S
C1102 C1100 1.381 . S
C1102 C1103 1.394 . S
C1102 H1110 0.930 . S
C1103 C1102 1.394 . S
C1103 C1104 1.383 . S
C1103 H1111 0.929 . S
C1104 C1103 1.383 . S
C1104 C1105 1.377 . S
C1105 H1089 0.930 . S
C1105 C1104 1.377 . S
C1105 C1106 1.379 . S
C1106 H1090 0.931 . S
C1106 C1100 1.383 . S
C1106 C1105 1.379 . S
H1107 C1101 0.959 . S
H1108 C1101 0.961 . S
H1109 C1101 0.960 . S
H1110 C1102 0.930 . S
H1111 C1103 0.929 . S
H1112 C1120 0.929 . S
H1113 C1122 0.930 . S
H1114 C1124 0.930 . S
H1115 C1127 0.929 . S
H1116 C1130 0.930 . S
H1117 C1132 0.960 . S
H1118 C1132 0.960 . S
H1119 C1132 0.960 . S
C1120 H1112 0.929 . S
C1120 C1121 1.377 . S
C1120 C1122 1.384 . S
C1121 C1120 1.377 . S
C1121 C1127 1.390 . S
C1122 H1113 0.930 . S
C1122 C1120 1.384 . S
C1122 C1123 1.372 . S
C1123 C1122 1.372 . S
C1123 C1124 1.400 . S
C1123 C1128 1.490 . S
C1124 H1114 0.930 . S
C1124 C1123 1.400 . S
C1124 C1127 1.386 . S
H1125 C1141 0.930 . S
H1126 C1142 0.931 . S
C1127 H1115 0.929 . S
C1127 C1121 1.390 . S
C1127 C1124 1.386 . S
C1128 C1123 1.490 . S
C1128 C1130 1.395 . S
C1128 C1131 1.403 . S
H1129 C1135 0.930 . S
C1130 H1116 0.930 . S
C1130 C1128 1.395 . S
C1130 C1133 1.403 . S
C1131 C1128 1.403 . S
C1131 C1132 1.524 . S
C1131 C1135 1.400 . S
C1132 H1117 0.960 . S
C1132 H1118 0.960 . S
C1132 H1119 0.960 . S
C1132 C1131 1.524 . S
C1133 C1130 1.403 . S
C1133 C1134 1.392 . S
C1133 C1137 1.495 . S
C1134 C1133 1.392 . S
C1134 C1135 1.385 . S
C1134 C1136 1.478 . S
C1135 H1129 0.930 . S
C1135 C1131 1.400 . S
C1135 C1134 1.385 . S
C1136 C1134 1.478 . S
C1136 C1138 1.381 . S
C1136 C1142 1.383 . S
C1137 C1133 1.495 . S
C1137 H1143 0.959 . S
C1137 H1144 0.961 . S
C1137 H1145 0.960 . S
C1138 C1136 1.381 . S
C1138 C1139 1.394 . S
C1138 H1146 0.930 . S
C1139 C1138 1.394 . S
C1139 C1140 1.383 . S
C1139 H1147 0.929 . S
C1140 C1139 1.383 . S
C1140 C1141 1.377 . S
C1141 H1125 0.930 . S
C1141 C1140 1.377 . S
C1141 C1142 1.379 . S
C1142 H1126 0.931 . S
C1142 C1136 1.383 . S
C1142 C1141 1.379 . S
H1143 C1137 0.959 . S
H1144 C1137 0.961 . S
H1145 C1137 0.960 . S
H1146 C1138 0.930 . S
H1147 C1139 0.929 . S
H1148 C1156 0.929 . S
H1149 C1158 0.930 . S
H1150 C1160 0.930 . S
H1151 C1163 0.929 . S
H1152 C1166 0.930 . S
H1153 C1168 0.960 . S
H1154 C1168 0.960 . S
H1155 C1168 0.960 . S
C1156 H1148 0.929 . S
C1156 C1157 1.377 . S
C1156 C1158 1.384 . S
C1157 C1156 1.377 . S
C1157 C1163 1.390 . S
C1158 H1149 0.930 . S
C1158 C1156 1.384 . S
C1158 C1159 1.372 . S
C1159 C1158 1.372 . S
C1159 C1160 1.400 . S
C1159 C1164 1.490 . S
C1160 H1150 0.930 . S
C1160 C1159 1.400 . S
C1160 C1163 1.386 . S
H1161 C1177 0.930 . S
H1162 C1178 0.931 . S
C1163 H1151 0.929 . S
C1163 C1157 1.390 . S
C1163 C1160 1.386 . S
C1164 C1159 1.490 . S
C1164 C1166 1.395 . S
C1164 C1167 1.403 . S
H1165 C1171 0.930 . S
C1166 H1152 0.930 . S
C1166 C1164 1.395 . S
C1166 C1169 1.403 . S
C1167 C1164 1.403 . S
C1167 C1168 1.524 . S
C1167 C1171 1.400 . S
C1168 H1153 0.960 . S
C1168 H1154 0.960 . S
C1168 H1155 0.960 . S
C1168 C1167 1.524 . S
C1169 C1166 1.403 . S
C1169 C1170 1.392 . S
C1169 C1173 1.495 . S
C1170 C1169 1.392 . S
C1170 C1171 1.385 . S
C1170 C1172 1.478 . S
C1171 H1165 0.930 . S
C1171 C1167 1.400 . S
C1171 C1170 1.385 . S
C1172 C1170 1.478 . S
C1172 C1174 1.381 . S
C1172 C1178 1.383 . S
C1173 C1169 1.495 . S
C1173 H1179 0.959 . S
C1173 H1180 0.961 . S
C1173 H1181 0.960 . S
C1174 C1172 1.381 . S
C1174 C1175 1.394 . S
C1174 H1182 0.930 . S
C1175 C1174 1.394 . S
C1175 C1176 1.383 . S
C1175 H1183 0.929 . S
C1176 C1175 1.383 . S
C1176 C1177 1.377 . S
C1177 H1161 0.930 . S
C1177 C1176 1.377 . S
C1177 C1178 1.379 . S
C1178 H1162 0.931 . S
C1178 C1172 1.383 . S
C1178 C1177 1.379 . S
H1179 C1173 0.959 . S
H1180 C1173 0.961 . S
H1181 C1173 0.960 . S
H1182 C1174 0.930 . S
H1183 C1175 0.929 . S
H1184 C1192 0.929 . S
H1185 C1194 0.930 . S
H1186 C1196 0.930 . S
H1187 C1199 0.929 . S
H1188 C1202 0.930 1_556 S
H1189 C1204 0.960 . S
H1190 C1204 0.960 . S
H1191 C1204 0.960 . S
C1192 H1184 0.929 . S
C1192 C1193 1.377 . S
C1192 C1194 1.384 . S
C1193 C1192 1.377 . S
C1193 C1199 1.390 . S
C1194 H1185 0.930 . S
C1194 C1192 1.384 . S
C1194 C1195 1.372 . S
C1195 C1194 1.372 . S
C1195 C1196 1.400 . S
C1195 C1200 1.490 . S
C1196 H1186 0.930 . S
C1196 C1195 1.400 . S
C1196 C1199 1.386 . S
H1197 C1213 0.930 . S
H1198 C1214 0.931 . S
C1199 H1187 0.929 . S
C1199 C1193 1.390 . S
C1199 C1196 1.386 . S
C1200 C1195 1.490 . S
C1200 C1202 1.395 1_556 S
C1200 C1203 1.403 . S
H1201 C1207 0.930 . S
C1202 H1188 0.930 1_554 S
C1202 C1200 1.395 1_554 S
C1202 C1205 1.403 . S
C1203 C1200 1.403 . S
C1203 C1204 1.524 . S
C1203 C1207 1.400 1_556 S
C1204 H1189 0.960 . S
C1204 H1190 0.960 . S
C1204 H1191 0.960 . S
C1204 C1203 1.524 . S
C1205 C1202 1.403 . S
C1205 C1206 1.392 . S
C1205 C1209 1.495 . S
C1206 C1205 1.392 . S
C1206 C1207 1.385 . S
C1206 C1208 1.478 . S
C1207 H1201 0.930 . S
C1207 C1203 1.400 1_554 S
C1207 C1206 1.385 . S
C1208 C1206 1.478 . S
C1208 C1210 1.381 . S
C1208 C1214 1.383 . S
C1209 C1205 1.495 . S
C1209 H1215 0.959 . S
C1209 H1216 0.961 . S
C1209 H1217 0.960 . S
C1210 C1208 1.381 . S
C1210 C1211 1.394 . S
C1210 H1218 0.930 . S
C1211 C1210 1.394 . S
C1211 C1212 1.383 . S
C1211 H1219 0.929 . S
C1212 C1211 1.383 . S
C1212 C1213 1.377 . S
C1213 H1197 0.930 . S
C1213 C1212 1.377 . S
C1213 C1214 1.379 . S
C1214 H1198 0.931 . S
C1214 C1208 1.383 . S
C1214 C1213 1.379 . S
H1215 C1209 0.959 . S
H1216 C1209 0.961 . S
H1217 C1209 0.960 . S
H1218 C1210 0.930 . S
H1219 C1211 0.929 . S
H1220 C1228 0.929 . S
H1221 C1230 0.930 . S
H1222 C1232 0.930 . S
H1223 C1235 0.929 . S
H1224 C1238 0.930 . S
H1225 C1240 0.960 . S
H1226 C1240 0.960 . S
H1227 C1240 0.960 . S
C1228 H1220 0.929 . S
C1228 C1229 1.377 . S
C1228 C1230 1.384 . S
C1229 C1228 1.377 . S
C1229 C1235 1.390 . S
C1230 H1221 0.930 . S
C1230 C1228 1.384 . S
C1230 C1231 1.372 . S
C1231 C1230 1.372 . S
C1231 C1232 1.400 . S
C1231 C1236 1.490 . S
C1232 H1222 0.930 . S
C1232 C1231 1.400 . S
C1232 C1235 1.386 . S
H1233 C1249 0.930 . S
H1234 C1250 0.931 . S
C1235 H1223 0.929 . S
C1235 C1229 1.390 . S
C1235 C1232 1.386 . S
C1236 C1231 1.490 . S
C1236 C1238 1.395 . S
C1236 C1239 1.403 1_556 S
H1237 C1243 0.930 . S
C1238 H1224 0.930 . S
C1238 C1236 1.395 . S
C1238 C1241 1.403 1_556 S
C1239 C1236 1.403 1_554 S
C1239 C1240 1.524 . S
C1239 C1243 1.400 . S
C1240 H1225 0.960 . S
C1240 H1226 0.960 . S
C1240 H1227 0.960 . S
C1240 C1239 1.524 . S
C1241 C1238 1.403 1_554 S
C1241 C1242 1.392 . S
C1241 C1245 1.495 . S
C1242 C1241 1.392 . S
C1242 C1243 1.385 . S
C1242 C1244 1.478 . S
C1243 H1237 0.930 . S
C1243 C1239 1.400 . S
C1243 C1242 1.385 . S
C1244 C1242 1.478 . S
C1244 C1246 1.381 . S
C1244 C1250 1.383 . S
C1245 C1241 1.495 . S
C1245 H1251 0.959 1_554 S
C1245 H1252 0.961 . S
C1245 H1253 0.960 . S
C1246 C1244 1.381 . S
C1246 C1247 1.394 . S
C1246 H1254 0.930 . S
C1247 C1246 1.394 . S
C1247 C1248 1.383 . S
C1247 H1255 0.929 . S
C1248 C1247 1.383 . S
C1248 C1249 1.377 . S
C1249 H1233 0.930 . S
C1249 C1248 1.377 . S
C1249 C1250 1.379 . S
C1250 H1234 0.931 . S
C1250 C1244 1.383 . S
C1250 C1249 1.379 . S
H1251 C1245 0.959 1_556 S
H1252 C1245 0.961 . S
H1253 C1245 0.960 . S
H1254 C1246 0.930 . S
H1255 C1247 0.929 . S
H1256 C1264 0.929 . S
H1257 C1266 0.930 . S
H1258 C1268 0.930 . S
H1259 C1271 0.929 . S
H1260 C1274 0.930 . S
H1261 C1276 0.960 . S
H1262 C1276 0.960 . S
H1263 C1276 0.960 . S
C1264 H1256 0.929 . S
C1264 C1265 1.377 . S
C1264 C1266 1.384 . S
C1265 C1264 1.377 . S
C1265 C1271 1.390 . S
C1266 H1257 0.930 . S
C1266 C1264 1.384 . S
C1266 C1267 1.372 . S
C1267 C1266 1.372 . S
C1267 C1268 1.400 . S
C1267 C1272 1.490 . S
C1268 H1258 0.930 . S
C1268 C1267 1.400 . S
C1268 C1271 1.386 . S
H1269 C1285 0.930 . S
H1270 C1286 0.931 . S
C1271 H1259 0.929 . S
C1271 C1265 1.390 . S
C1271 C1268 1.386 . S
C1272 C1267 1.490 . S
C1272 C1274 1.395 . S
C1272 C1275 1.403 . S
H1273 C1279 0.930 . S
C1274 H1260 0.930 . S
C1274 C1272 1.395 . S
C1274 C1277 1.403 . S
C1275 C1272 1.403 . S
C1275 C1276 1.524 . S
C1275 C1279 1.400 . S
C1276 H1261 0.960 . S
C1276 H1262 0.960 . S
C1276 H1263 0.960 . S
C1276 C1275 1.524 . S
C1277 C1274 1.403 . S
C1277 C1278 1.392 . S
C1277 C1281 1.495 . S
C1278 C1277 1.392 . S
C1278 C1279 1.385 . S
C1278 C1280 1.478 . S
C1279 H1273 0.930 . S
C1279 C1275 1.400 . S
C1279 C1278 1.385 . S
C1280 C1278 1.478 . S
C1280 C1282 1.381 . S
C1280 C1286 1.383 . S
C1281 C1277 1.495 . S
C1281 H1287 0.959 . S
C1281 H1288 0.961 . S
C1281 H1289 0.960 . S
C1282 C1280 1.381 . S
C1282 C1283 1.394 . S
C1282 H1290 0.930 . S
C1283 C1282 1.394 . S
C1283 C1284 1.383 . S
C1283 H1291 0.929 . S
C1284 C1283 1.383 . S
C1284 C1285 1.377 . S
C1285 H1269 0.930 . S
C1285 C1284 1.377 . S
C1285 C1286 1.379 . S
C1286 H1270 0.931 . S
C1286 C1280 1.383 . S
C1286 C1285 1.379 . S
H1287 C1281 0.959 . S
H1288 C1281 0.961 . S
H1289 C1281 0.960 . S
H1290 C1282 0.930 . S
H1291 C1283 0.929 . S
H1292 C1300 0.929 . S
H1293 C1302 0.930 . S
H1294 C1304 0.930 . S
H1295 C1307 0.929 . S
H1296 C1310 0.930 . S
H1297 C1312 0.960 . S
H1298 C1312 0.960 . S
H1299 C1312 0.960 . S
C1300 H1292 0.929 . S
C1300 C1301 1.377 . S
C1300 C1302 1.384 . S
C1301 C1300 1.377 . S
C1301 C1307 1.390 . S
C1302 H1293 0.930 . S
C1302 C1300 1.384 . S
C1302 C1303 1.372 . S
C1303 C1302 1.372 . S
C1303 C1304 1.400 . S
C1303 C1308 1.490 . S
C1304 H1294 0.930 . S
C1304 C1303 1.400 . S
C1304 C1307 1.386 . S
H1305 C1321 0.930 . S
H1306 C1322 0.931 . S
C1307 H1295 0.929 . S
C1307 C1301 1.390 . S
C1307 C1304 1.386 . S
C1308 C1303 1.490 . S
C1308 C1310 1.395 . S
C1308 C1311 1.403 . S
H1309 C1315 0.930 . S
C1310 H1296 0.930 . S
C1310 C1308 1.395 . S
C1310 C1313 1.403 . S
C1311 C1308 1.403 . S
C1311 C1312 1.524 . S
C1311 C1315 1.400 . S
C1312 H1297 0.960 . S
C1312 H1298 0.960 . S
C1312 H1299 0.960 . S
C1312 C1311 1.524 . S
C1313 C1310 1.403 . S
C1313 C1314 1.392 . S
C1313 C1317 1.495 . S
C1314 C1313 1.392 . S
C1314 C1315 1.385 . S
C1314 C1316 1.478 . S
C1315 H1309 0.930 . S
C1315 C1311 1.400 . S
C1315 C1314 1.385 . S
C1316 C1314 1.478 . S
C1316 C1318 1.381 . S
C1316 C1322 1.383 . S
C1317 C1313 1.495 . S
C1317 H1323 0.959 . S
C1317 H1324 0.961 . S
C1317 H1325 0.960 . S
C1318 C1316 1.381 . S
C1318 C1319 1.394 . S
C1318 H1326 0.930 . S
C1319 C1318 1.394 . S
C1319 C1320 1.383 . S
C1319 H1327 0.929 . S
C1320 C1319 1.383 . S
C1320 C1321 1.377 . S
C1321 H1305 0.930 . S
C1321 C1320 1.377 . S
C1321 C1322 1.379 . S
C1322 H1306 0.931 . S
C1322 C1316 1.383 . S
C1322 C1321 1.379 . S
H1323 C1317 0.959 . S
H1324 C1317 0.961 . S
H1325 C1317 0.960 . S
H1326 C1318 0.930 . S
H1327 C1319 0.929 . S
H1328 C1336 0.929 . S
H1329 C1338 0.930 . S
H1330 C1340 0.930 . S
H1331 C1343 0.929 . S
H1332 C1346 0.930 . S
H1333 C1348 0.960 . S
H1334 C1348 0.960 . S
H1335 C1348 0.960 1_554 S
C1336 H1328 0.929 . S
C1336 C1337 1.377 . S
C1336 C1338 1.384 . S
C1337 C1336 1.377 . S
C1337 C1343 1.390 . S
C1338 H1329 0.930 . S
C1338 C1336 1.384 . S
C1338 C1339 1.372 . S
C1339 C1338 1.372 . S
C1339 C1340 1.400 . S
C1339 C1344 1.490 . S
C1340 H1330 0.930 . S
C1340 C1339 1.400 . S
C1340 C1343 1.386 . S
H1341 C1357 0.930 . S
H1342 C1358 0.931 . S
C1343 H1331 0.929 . S
C1343 C1337 1.390 . S
C1343 C1340 1.386 . S
C1344 C1339 1.490 . S
C1344 C1346 1.395 . S
C1344 C1347 1.403 1_554 S
H1345 C1351 0.930 . S
C1346 H1332 0.930 . S
C1346 C1344 1.395 . S
C1346 C1349 1.403 1_554 S
C1347 C1344 1.403 1_556 S
C1347 C1348 1.524 . S
C1347 C1351 1.400 . S
C1348 H1333 0.960 . S
C1348 H1334 0.960 . S
C1348 H1335 0.960 1_556 S
C1348 C1347 1.524 . S
C1349 C1346 1.403 1_556 S
C1349 C1350 1.392 . S
C1349 C1353 1.495 . S
C1350 C1349 1.392 . S
C1350 C1351 1.385 . S
C1350 C1352 1.478 . S
C1351 H1345 0.930 . S
C1351 C1347 1.400 . S
C1351 C1350 1.385 . S
C1352 C1350 1.478 . S
C1352 C1354 1.381 . S
C1352 C1358 1.383 . S
C1353 C1349 1.495 . S
C1353 H1359 0.959 1_556 S
C1353 H1360 0.961 . S
C1353 H1361 0.960 . S
C1354 C1352 1.381 . S
C1354 C1355 1.394 . S
C1354 H1362 0.930 . S
C1355 C1354 1.394 . S
C1355 C1356 1.383 . S
C1355 H1363 0.929 . S
C1356 C1355 1.383 . S
C1356 C1357 1.377 . S
C1357 H1341 0.930 . S
C1357 C1356 1.377 . S
C1357 C1358 1.379 . S
C1358 H1342 0.931 . S
C1358 C1352 1.383 . S
C1358 C1357 1.379 . S
H1359 C1353 0.959 1_554 S
H1360 C1353 0.961 . S
H1361 C1353 0.960 . S
H1362 C1354 0.930 . S
H1363 C1355 0.929 . S
H1364 C1372 0.929 . S
H1365 C1374 0.930 . S
H1366 C1376 0.930 . S
H1367 C1379 0.929 . S
H1368 C1382 0.930 . S
H1369 C1384 0.960 . S
H1370 C1384 0.960 . S
H1371 C1384 0.960 . S
C1372 H1364 0.929 . S
C1372 C1373 1.377 . S
C1372 C1374 1.384 . S
C1373 C1372 1.377 . S
C1373 C1379 1.390 . S
C1374 H1365 0.930 . S
C1374 C1372 1.384 . S
C1374 C1375 1.372 . S
C1375 C1374 1.372 . S
C1375 C1376 1.400 . S
C1375 C1380 1.490 . S
C1376 H1366 0.930 . S
C1376 C1375 1.400 . S
C1376 C1379 1.386 . S
H1377 C1393 0.930 . S
H1378 C1394 0.931 . S
C1379 H1367 0.929 . S
C1379 C1373 1.390 . S
C1379 C1376 1.386 . S
C1380 C1375 1.490 . S
C1380 C1382 1.395 . S
C1380 C1383 1.403 . S
H1381 C1387 0.930 . S
C1382 H1368 0.930 . S
C1382 C1380 1.395 . S
C1382 C1385 1.427 . S
C1383 C1380 1.403 . S
C1383 C1384 1.524 . S
C1383 C1387 1.400 1_556 S
C1384 H1369 0.960 . S
C1384 H1370 0.960 . S
C1384 H1371 0.960 . S
C1384 C1383 1.524 . S
C1385 C1382 1.427 . S
C1385 C1386 1.378 1_556 S
C1385 C1389 1.487 1_556 S
C1386 C1385 1.378 1_554 S
C1386 C1387 1.385 . S
C1386 C1388 1.478 . S
C1387 H1381 0.930 . S
C1387 C1383 1.400 1_554 S
C1387 C1386 1.385 . S
C1388 C1386 1.478 . S
C1388 C1390 1.381 . S
C1388 C1394 1.383 . S
C1389 C1385 1.487 1_554 S
C1389 H1395 0.959 1_554 S
C1389 H1396 0.961 . S
C1389 H1397 0.960 . S
C1390 C1388 1.381 . S
C1390 C1391 1.394 . S
C1390 H1398 0.930 . S
C1391 C1390 1.394 . S
C1391 C1392 1.383 . S
C1391 H1399 0.929 . S
C1392 C1391 1.383 . S
C1392 C1393 1.377 . S
C1393 H1377 0.930 . S
C1393 C1392 1.377 . S
C1393 C1394 1.379 . S
C1394 H1378 0.931 . S
C1394 C1388 1.383 . S
C1394 C1393 1.379 . S
H1395 C1389 0.959 1_556 S
H1396 C1389 0.961 . S
H1397 C1389 0.960 . S
H1398 C1390 0.930 . S
H1399 C1391 0.929 . S
H1400 C1408 0.929 . S
H1401 C1410 0.930 . S
H1402 C1412 0.930 . S
H1403 C1415 0.929 . S
H1404 C1418 0.930 . S
H1405 C1420 0.960 . S
H1406 C1420 0.960 . S
H1407 C1420 0.960 . S
C1408 H1400 0.929 . S
C1408 C1409 1.377 . S
C1408 C1410 1.384 . S
C1409 C1408 1.377 . S
C1409 C1415 1.390 . S
C1410 H1401 0.930 . S
C1410 C1408 1.384 . S
C1410 C1411 1.372 . S
C1411 C1410 1.372 . S
C1411 C1412 1.400 . S
C1411 C1416 1.490 . S
C1412 H1402 0.930 . S
C1412 C1411 1.400 . S
C1412 C1415 1.386 . S
H1413 C1429 0.930 . S
H1414 C1430 0.931 . S
C1415 H1403 0.929 . S
C1415 C1409 1.390 . S
C1415 C1412 1.386 . S
C1416 C1411 1.490 . S
C1416 C1418 1.395 . S
C1416 C1419 1.403 . S
H1417 C1423 0.930 . S
C1418 H1404 0.930 . S
C1418 C1416 1.395 . S
C1418 C1421 1.403 . S
C1419 C1416 1.403 . S
C1419 C1420 1.524 . S
C1419 C1423 1.400 . S
C1420 H1405 0.960 . S
C1420 H1406 0.960 . S
C1420 H1407 0.960 . S
C1420 C1419 1.524 . S
C1421 C1418 1.403 . S
C1421 C1422 1.392 . S
C1421 C1425 1.495 . S
C1422 C1421 1.392 . S
C1422 C1423 1.385 . S
C1422 C1424 1.478 . S
C1423 H1417 0.930 . S
C1423 C1419 1.400 . S
C1423 C1422 1.385 . S
C1424 C1422 1.478 . S
C1424 C1426 1.381 . S
C1424 C1430 1.383 . S
C1425 C1421 1.495 . S
C1425 H1431 0.959 . S
C1425 H1432 0.961 . S
C1425 H1433 0.960 . S
C1426 C1424 1.381 . S
C1426 C1427 1.394 . S
C1426 H1434 0.930 . S
C1427 C1426 1.394 . S
C1427 C1428 1.383 . S
C1427 H1435 0.929 . S
C1428 C1427 1.383 . S
C1428 C1429 1.377 . S
C1429 H1413 0.930 . S
C1429 C1428 1.377 . S
C1429 C1430 1.379 . S
C1430 H1414 0.931 . S
C1430 C1424 1.383 . S
C1430 C1429 1.379 . S
H1431 C1425 0.959 . S
H1432 C1425 0.961 . S
H1433 C1425 0.960 . S
H1434 C1426 0.930 . S
H1435 C1427 0.929 . S
H1436 C1444 0.929 . S
H1437 C1446 0.930 . S
H1438 C1448 0.930 . S
H1439 C1451 0.929 . S
H1440 C1454 0.930 . S
H1441 C1456 0.960 . S
H1442 C1456 0.960 . S
H1443 C1456 0.960 . S
C1444 H1436 0.929 . S
C1444 C1445 1.377 . S
C1444 C1446 1.384 . S
C1445 C1444 1.377 . S
C1445 C1451 1.390 . S
C1446 H1437 0.930 . S
C1446 C1444 1.384 . S
C1446 C1447 1.372 . S
C1447 C1446 1.372 . S
C1447 C1448 1.400 . S
C1447 C1452 1.490 . S
C1448 H1438 0.930 . S
C1448 C1447 1.400 . S
C1448 C1451 1.386 . S
H1449 C1465 0.930 . S
H1450 C1466 0.931 . S
C1451 H1439 0.929 . S
C1451 C1445 1.390 . S
C1451 C1448 1.386 . S
C1452 C1447 1.490 . S
C1452 C1454 1.395 . S
C1452 C1455 1.403 . S
H1453 C1459 0.930 . S
C1454 H1440 0.930 . S
C1454 C1452 1.395 . S
C1454 C1457 1.403 . S
C1455 C1452 1.403 . S
C1455 C1456 1.524 . S
C1455 C1459 1.400 . S
C1456 H1441 0.960 . S
C1456 H1442 0.960 . S
C1456 H1443 0.960 . S
C1456 C1455 1.524 . S
C1457 C1454 1.403 . S
C1457 C1458 1.392 . S
C1457 C1461 1.495 . S
C1458 C1457 1.392 . S
C1458 C1459 1.385 . S
C1458 C1460 1.478 . S
C1459 H1453 0.930 . S
C1459 C1455 1.400 . S
C1459 C1458 1.385 . S
C1460 C1458 1.478 . S
C1460 C1462 1.381 . S
C1460 C1466 1.383 . S
C1461 C1457 1.495 . S
C1461 H1467 0.959 . S
C1461 H1468 0.961 . S
C1461 H1469 0.960 . S
C1462 C1460 1.381 . S
C1462 C1463 1.394 . S
C1462 H1470 0.930 . S
C1463 C1462 1.394 . S
C1463 C1464 1.383 . S
C1463 H1471 0.929 . S
C1464 C1463 1.383 . S
C1464 C1465 1.377 . S
C1465 H1449 0.930 . S
C1465 C1464 1.377 . S
C1465 C1466 1.379 . S
C1466 H1450 0.931 . S
C1466 C1460 1.383 . S
C1466 C1465 1.379 . S
H1467 C1461 0.959 . S
H1468 C1461 0.961 . S
H1469 C1461 0.960 . S
H1470 C1462 0.930 . S
H1471 C1463 0.929 . S
H1472 C1480 0.929 . S
H1473 C1482 0.930 . S
H1474 C1484 0.930 . S
H1475 C1487 0.929 . S
H1476 C1490 0.930 . S
H1477 C1492 0.960 . S
H1478 C1492 0.960 . S
H1479 C1492 0.960 . S
C1480 H1472 0.929 . S
C1480 C1481 1.377 . S
C1480 C1482 1.384 . S
C1481 C1480 1.377 . S
C1481 C1487 1.390 . S
C1482 H1473 0.930 . S
C1482 C1480 1.384 . S
C1482 C1483 1.372 . S
C1483 C1482 1.372 . S
C1483 C1484 1.400 . S
C1483 C1488 1.490 . S
C1484 H1474 0.930 . S
C1484 C1483 1.400 . S
C1484 C1487 1.386 . S
H1485 C1501 0.930 . S
H1486 C1502 0.931 . S
C1487 H1475 0.929 . S
C1487 C1481 1.390 . S
C1487 C1484 1.386 . S
C1488 C1483 1.490 . S
C1488 C1490 1.395 . S
C1488 C1491 1.403 . S
H1489 C1495 0.930 . S
C1490 H1476 0.930 . S
C1490 C1488 1.395 . S
C1490 C1493 1.403 1_554 S
C1491 C1488 1.403 . S
C1491 C1492 1.524 . S
C1491 C1495 1.400 . S
C1492 H1477 0.960 . S
C1492 H1478 0.960 . S
C1492 H1479 0.960 . S
C1492 C1491 1.524 . S
C1493 C1490 1.403 1_556 S
C1493 C1494 1.392 . S
C1493 C1497 1.495 . S
C1494 C1493 1.392 . S
C1494 C1495 1.385 1_556 S
C1494 C1496 1.478 . S
C1495 H1489 0.930 . S
C1495 C1491 1.400 . S
C1495 C1494 1.385 1_554 S
C1496 C1494 1.478 . S
C1496 C1498 1.381 . S
C1496 C1502 1.383 . S
C1497 C1493 1.495 . S
C1497 H1503 0.959 . S
C1497 H1504 0.961 . S
C1497 H1505 0.960 . S
C1498 C1496 1.381 . S
C1498 C1499 1.394 . S
C1498 H1506 0.930 . S
C1499 C1498 1.394 . S
C1499 C1500 1.383 . S
C1499 H1507 0.929 . S
C1500 C1499 1.383 . S
C1500 C1501 1.377 . S
C1501 H1485 0.930 . S
C1501 C1500 1.377 . S
C1501 C1502 1.379 . S
C1502 H1486 0.931 . S
C1502 C1496 1.383 . S
C1502 C1501 1.379 . S
H1503 C1497 0.959 . S
H1504 C1497 0.961 . S
H1505 C1497 0.960 . S
H1506 C1498 0.930 . S
H1507 C1499 0.929 . S
H1508 C1516 0.929 . S
H1509 C1518 0.930 . S
H1510 C1520 0.930 . S
H1511 C1523 0.929 . S
H1512 C1526 0.930 . S
H1513 C1528 0.960 1_554 S
H1514 C1528 0.960 . S
H1515 C1528 0.960 . S
C1516 H1508 0.929 . S
C1516 C1517 1.377 . S
C1516 C1518 1.384 . S
C1517 C1516 1.377 . S
C1517 C1523 1.390 . S
C1518 H1509 0.930 . S
C1518 C1516 1.384 . S
C1518 C1519 1.372 . S
C1519 C1518 1.372 . S
C1519 C1520 1.400 . S
C1519 C1524 1.490 . S
C1520 H1510 0.930 . S
C1520 C1519 1.400 . S
C1520 C1523 1.386 . S
H1521 C1537 0.930 . S
H1522 C1538 0.931 . S
C1523 H1511 0.929 . S
C1523 C1517 1.390 . S
C1523 C1520 1.386 . S
C1524 C1519 1.490 . S
C1524 C1526 1.395 . S
C1524 C1527 1.403 1_556 S
H1525 C1531 0.930 . S
C1526 H1512 0.930 . S
C1526 C1524 1.395 . S
C1526 C1529 1.403 1_556 S
C1527 C1524 1.403 1_554 S
C1527 C1528 1.524 1_554 S
C1527 C1531 1.400 . S
C1528 H1513 0.960 1_556 S
C1528 H1514 0.960 . S
C1528 H1515 0.960 . S
C1528 C1527 1.524 1_556 S
C1529 C1526 1.403 1_554 S
C1529 C1530 1.392 . S
C1529 C1533 1.495 . S
C1530 C1529 1.392 . S
C1530 C1531 1.385 . S
C1530 C1532 1.478 . S
C1531 H1525 0.930 . S
C1531 C1527 1.400 . S
C1531 C1530 1.385 . S
C1532 C1530 1.478 . S
C1532 C1534 1.381 . S
C1532 C1538 1.383 . S
C1533 C1529 1.495 . S
C1533 H1539 0.959 . S
C1533 H1540 0.961 . S
C1533 H1541 0.960 . S
C1534 C1532 1.381 . S
C1534 C1535 1.394 . S
C1534 H1542 0.930 . S
C1535 C1534 1.394 . S
C1535 C1536 1.383 . S
C1535 H1543 0.929 . S
C1536 C1535 1.383 . S
C1536 C1537 1.377 . S
C1537 H1521 0.930 . S
C1537 C1536 1.377 . S
C1537 C1538 1.379 . S
C1538 H1522 0.931 . S
C1538 C1532 1.383 . S
C1538 C1537 1.379 . S
H1539 C1533 0.959 . S
H1540 C1533 0.961 . S
H1541 C1533 0.960 . S
H1542 C1534 0.930 . S
H1543 C1535 0.929 . S
H1544 C1552 0.929 . S
H1545 C1554 0.930 . S
H1546 C1556 0.930 . S
H1547 C1559 0.929 . S
H1548 C1562 0.930 . S
H1549 C1564 0.960 . S
H1550 C1564 0.960 . S
H1551 C1564 0.960 . S
C1552 H1544 0.929 . S
C1552 C1553 1.377 . S
C1552 C1554 1.384 . S
C1553 C1552 1.377 . S
C1553 C1559 1.390 . S
C1554 H1545 0.930 . S
C1554 C1552 1.384 . S
C1554 C1555 1.372 . S
C1555 C1554 1.372 . S
C1555 C1556 1.400 . S
C1555 C1560 1.490 . S
C1556 H1546 0.930 . S
C1556 C1555 1.400 . S
C1556 C1559 1.386 . S
H1557 C1573 0.930 . S
H1558 C1574 0.931 . S
C1559 H1547 0.929 . S
C1559 C1553 1.390 . S
C1559 C1556 1.386 . S
C1560 C1555 1.490 . S
C1560 C1562 1.395 . S
C1560 C1563 1.403 . S
H1561 C1567 0.930 . S
C1562 H1548 0.930 . S
C1562 C1560 1.395 . S
C1562 C1565 1.403 . S
C1563 C1560 1.403 . S
C1563 C1564 1.524 . S
C1563 C1567 1.400 . S
C1564 H1549 0.960 . S
C1564 H1550 0.960 . S
C1564 H1551 0.960 . S
C1564 C1563 1.524 . S
C1565 C1562 1.403 . S
C1565 C1566 1.392 . S
C1565 C1569 1.495 . S
C1566 C1565 1.392 . S
C1566 C1567 1.385 . S
C1566 C1568 1.478 . S
C1567 H1561 0.930 . S
C1567 C1563 1.400 . S
C1567 C1566 1.385 . S
C1568 C1566 1.478 . S
C1568 C1570 1.381 . S
C1568 C1574 1.383 . S
C1569 C1565 1.495 . S
C1569 H1575 0.959 . S
C1569 H1576 0.961 . S
C1569 H1577 0.960 . S
C1570 C1568 1.381 . S
C1570 C1571 1.394 . S
C1570 H1578 0.930 . S
C1571 C1570 1.394 . S
C1571 C1572 1.383 . S
C1571 H1579 0.929 . S
C1572 C1571 1.383 . S
C1572 C1573 1.377 . S
C1573 H1557 0.930 . S
C1573 C1572 1.377 . S
C1573 C1574 1.379 . S
C1574 H1558 0.931 . S
C1574 C1568 1.383 . S
C1574 C1573 1.379 . S
H1575 C1569 0.959 . S
H1576 C1569 0.961 . S
H1577 C1569 0.960 . S
H1578 C1570 0.930 . S
H1579 C1571 0.929 . S
H1580 C1588 0.929 . S
H1581 C1590 0.930 . S
H1582 C1592 0.930 . S
H1583 C1595 0.929 . S
H1584 C1598 0.930 . S
H1585 C1600 0.960 . S
H1586 C1600 0.960 . S
H1587 C1600 0.960 . S
C1588 H1580 0.929 . S
C1588 C1589 1.377 . S
C1588 C1590 1.384 . S
C1589 C1588 1.377 . S
C1589 C1595 1.390 . S
C1590 H1581 0.930 . S
C1590 C1588 1.384 . S
C1590 C1591 1.372 . S
C1591 C1590 1.372 . S
C1591 C1592 1.400 . S
C1591 C1596 1.490 . S
C1592 H1582 0.930 . S
C1592 C1591 1.400 . S
C1592 C1595 1.386 . S
H1593 C1609 0.930 . S
H1594 C1610 0.931 . S
C1595 H1583 0.929 . S
C1595 C1589 1.390 . S
C1595 C1592 1.386 . S
C1596 C1591 1.490 . S
C1596 C1598 1.395 . S
C1596 C1599 1.403 . S
H1597 C1603 0.930 . S
C1598 H1584 0.930 . S
C1598 C1596 1.395 . S
C1598 C1601 1.403 . S
C1599 C1596 1.403 . S
C1599 C1600 1.524 . S
C1599 C1603 1.400 . S
C1600 H1585 0.960 . S
C1600 H1586 0.960 . S
C1600 H1587 0.960 . S
C1600 C1599 1.524 . S
C1601 C1598 1.403 . S
C1601 C1602 1.392 . S
C1601 C1605 1.495 . S
C1602 C1601 1.392 . S
C1602 C1603 1.385 . S
C1602 C1604 1.478 . S
C1603 H1597 0.930 . S
C1603 C1599 1.400 . S
C1603 C1602 1.385 . S
C1604 C1602 1.478 . S
C1604 C1606 1.381 . S
C1604 C1610 1.383 . S
C1605 C1601 1.495 . S
C1605 H1611 0.959 . S
C1605 H1612 0.961 . S
C1605 H1613 0.960 . S
C1606 C1604 1.381 . S
C1606 C1607 1.394 . S
C1606 H1614 0.930 . S
C1607 C1606 1.394 . S
C1607 C1608 1.383 . S
C1607 H1615 0.929 . S
C1608 C1607 1.383 . S
C1608 C1609 1.377 . S
C1609 H1593 0.930 . S
C1609 C1608 1.377 . S
C1609 C1610 1.379 . S
C1610 H1594 0.931 . S
C1610 C1604 1.383 . S
C1610 C1609 1.379 . S
H1611 C1605 0.959 . S
H1612 C1605 0.961 . S
H1613 C1605 0.960 . S
H1614 C1606 0.930 . S
H1615 C1607 0.929 . S
H1616 C1624 0.929 . S
H1617 C1626 0.930 . S
H1618 C1628 0.930 . S
H1619 C1631 0.929 . S
H1620 C1634 0.930 . S
H1621 C1636 0.976 . S
H1622 C1636 0.960 . S
H1623 C1636 0.960 . S
C1624 H1616 0.929 . S
C1624 C1625 1.377 . S
C1624 C1626 1.384 . S
C1625 C1624 1.377 . S
C1625 C1631 1.390 . S
C1626 H1617 0.930 . S
C1626 C1624 1.384 . S
C1626 C1627 1.372 . S
C1627 C1626 1.372 . S
C1627 C1628 1.400 . S
C1627 C1632 1.490 . S
C1628 H1618 0.930 . S
C1628 C1627 1.400 . S
C1628 C1631 1.386 . S
H1629 C1645 0.930 . S
H1630 C1646 0.931 . S
C1631 H1619 0.929 . S
C1631 C1625 1.390 . S
C1631 C1628 1.386 . S
C1632 C1627 1.490 . S
C1632 C1634 1.395 . S
C1632 C1635 1.403 . S
H1633 C1639 0.930 . S
C1634 H1620 0.930 . S
C1634 C1632 1.395 . S
C1634 C1637 1.403 1_545 S
C1635 C1632 1.403 . S
C1635 C1636 1.524 . S
C1635 C1639 1.400 1_545 S
C1636 H1621 0.976 . S
C1636 H1622 0.960 . S
C1636 H1623 0.960 . S
C1636 C1635 1.524 . S
C1637 C1634 1.403 1_565 S
C1637 C1638 1.392 . S
C1637 C1641 1.495 . S
C1638 C1637 1.392 . S
C1638 C1639 1.385 . S
C1638 C1640 1.478 . S
C1639 H1633 0.930 . S
C1639 C1635 1.400 1_565 S
C1639 C1638 1.385 . S
C1640 C1638 1.478 . S
C1640 C1642 1.381 . S
C1640 C1646 1.383 . S
C1641 C1637 1.495 . S
C1641 H1647 0.959 1_565 S
C1641 H1648 0.961 . S
C1641 H1649 0.960 . S
C1642 C1640 1.381 . S
C1642 C1643 1.394 . S
C1642 H1650 0.930 . S
C1643 C1642 1.394 . S
C1643 C1644 1.383 . S
C1643 H1651 0.929 . S
C1644 C1643 1.383 . S
C1644 C1645 1.377 . S
C1645 H1629 0.930 . S
C1645 C1644 1.377 . S
C1645 C1646 1.379 . S
C1646 H1630 0.931 . S
C1646 C1640 1.383 . S
C1646 C1645 1.379 . S
H1647 C1641 0.959 1_545 S
H1648 C1641 0.961 . S
H1649 C1641 0.960 . S
H1650 C1642 0.930 . S
H1651 C1643 0.929 . S
H1652 C1660 0.929 . S
H1653 C1662 0.930 . S
H1654 C1664 0.930 . S
H1655 C1667 0.929 . S
H1656 C1670 0.930 . S
H1657 C1672 0.960 . S
H1658 C1672 0.960 . S
H1659 C1672 0.960 . S
C1660 H1652 0.929 . S
C1660 C1661 1.377 . S
C1660 C1662 1.384 . S
C1661 C1660 1.377 . S
C1661 C1667 1.390 . S
C1662 H1653 0.930 . S
C1662 C1660 1.384 . S
C1662 C1663 1.372 . S
C1663 C1662 1.372 . S
C1663 C1664 1.400 . S
C1663 C1668 1.490 . S
C1664 H1654 0.930 . S
C1664 C1663 1.400 . S
C1664 C1667 1.386 . S
H1665 C1681 0.930 . S
H1666 C1682 0.931 . S
C1667 H1655 0.929 . S
C1667 C1661 1.390 . S
C1667 C1664 1.386 . S
C1668 C1663 1.490 . S
C1668 C1670 1.395 . S
C1668 C1671 1.403 . S
H1669 C1675 0.930 . S
C1670 H1656 0.930 . S
C1670 C1668 1.395 . S
C1670 C1673 1.403 1_545 S
C1671 C1668 1.403 . S
C1671 C1672 1.524 . S
C1671 C1675 1.400 1_545 S
C1672 H1657 0.960 . S
C1672 H1658 0.960 . S
C1672 H1659 0.960 . S
C1672 C1671 1.524 . S
C1673 C1670 1.403 1_565 S
C1673 C1674 1.392 . S
C1673 C1677 1.495 . S
C1674 C1673 1.392 . S
C1674 C1675 1.385 . S
C1674 C1676 1.478 . S
C1675 H1669 0.930 . S
C1675 C1671 1.400 1_565 S
C1675 C1674 1.385 . S
C1676 C1674 1.478 . S
C1676 C1678 1.381 . S
C1676 C1682 1.383 . S
C1677 C1673 1.495 . S
C1677 H1683 0.945 1_565 S
C1677 H1684 0.961 . S
C1677 H1685 0.960 . S
C1678 C1676 1.381 . S
C1678 C1679 1.394 . S
C1678 H1686 0.930 . S
C1679 C1678 1.394 . S
C1679 C1680 1.383 . S
C1679 H1687 0.929 . S
C1680 C1679 1.383 . S
C1680 C1681 1.377 . S
C1681 H1665 0.930 . S
C1681 C1680 1.377 . S
C1681 C1682 1.379 . S
C1682 H1666 0.931 . S
C1682 C1676 1.383 . S
C1682 C1681 1.379 . S
H1683 C1677 0.945 1_545 S
H1684 C1677 0.961 . S
H1685 C1677 0.960 . S
H1686 C1678 0.930 . S
H1687 C1679 0.929 . S
H1688 C1696 0.929 . S
H1689 C1698 0.930 . S
H1690 C1700 0.930 . S
H1691 C1703 0.929 . S
H1692 C1706 0.930 . S
H1693 C1708 0.960 . S
H1694 C1708 0.960 . S
H1695 C1708 0.960 . S
C1696 H1688 0.929 . S
C1696 C1697 1.377 . S
C1696 C1698 1.384 . S
C1697 C1696 1.377 . S
C1697 C1703 1.390 . S
C1698 H1689 0.930 . S
C1698 C1696 1.384 . S
C1698 C1699 1.372 . S
C1699 C1698 1.372 . S
C1699 C1700 1.400 . S
C1699 C1704 1.490 . S
C1700 H1690 0.930 . S
C1700 C1699 1.400 . S
C1700 C1703 1.386 . S
H1701 C1717 0.930 . S
H1702 C1718 0.931 . S
C1703 H1691 0.929 . S
C1703 C1697 1.390 . S
C1703 C1700 1.386 . S
C1704 C1699 1.490 . S
C1704 C1706 1.395 . S
C1704 C1707 1.403 1_565 S
H1705 C1711 0.930 . S
C1706 H1692 0.930 . S
C1706 C1704 1.395 . S
C1706 C1709 1.403 . S
C1707 C1704 1.403 1_545 S
C1707 C1708 1.524 . S
C1707 C1711 1.400 . S
C1708 H1693 0.960 . S
C1708 H1694 0.960 . S
C1708 H1695 0.960 . S
C1708 C1707 1.524 . S
C1709 C1706 1.403 . S
C1709 C1710 1.392 1_565 S
C1709 C1713 1.495 . S
C1710 C1709 1.392 1_545 S
C1710 C1711 1.385 . S
C1710 C1712 1.478 . S
C1711 H1705 0.930 . S
C1711 C1707 1.400 . S
C1711 C1710 1.385 . S
C1712 C1710 1.478 . S
C1712 C1714 1.381 . S
C1712 C1718 1.383 . S
C1713 C1709 1.495 . S
C1713 H1719 0.959 . S
C1713 H1720 0.961 . S
C1713 H1721 0.960 . S
C1714 C1712 1.381 . S
C1714 C1715 1.394 . S
C1714 H1722 0.930 . S
C1715 C1714 1.394 . S
C1715 C1716 1.383 . S
C1715 H1723 0.929 . S
C1716 C1715 1.383 . S
C1716 C1717 1.377 . S
C1717 H1701 0.930 . S
C1717 C1716 1.377 . S
C1717 C1718 1.379 . S
C1718 H1702 0.931 . S
C1718 C1712 1.383 . S
C1718 C1717 1.379 . S
H1719 C1713 0.959 . S
H1720 C1713 0.961 . S
H1721 C1713 0.960 . S
H1722 C1714 0.930 . S
H1723 C1715 0.929 . S
H1724 C1732 0.929 . S
H1725 C1734 0.930 . S
H1726 C1736 0.930 . S
H1727 C1739 0.929 . S
H1728 C1742 0.930 . S
H1729 C1744 0.960 . S
H1730 C1744 0.960 . S
H1731 C1744 0.960 . S
C1732 H1724 0.929 . S
C1732 C1733 1.377 . S
C1732 C1734 1.384 . S
C1733 C1732 1.377 . S
C1733 C1739 1.390 . S
C1734 H1725 0.930 . S
C1734 C1732 1.384 . S
C1734 C1735 1.372 . S
C1735 C1734 1.372 . S
C1735 C1736 1.400 . S
C1735 C1740 1.490 . S
C1736 H1726 0.930 . S
C1736 C1735 1.400 . S
C1736 C1739 1.386 . S
H1737 C1753 0.930 . S
H1738 C1754 0.931 . S
C1739 H1727 0.929 . S
C1739 C1733 1.390 . S
C1739 C1736 1.386 . S
C1740 C1735 1.490 . S
C1740 C1742 1.395 1_565 S
C1740 C1743 1.403 . S
H1741 C1747 0.929 1_565 S
C1742 H1728 0.930 . S
C1742 C1740 1.395 1_545 S
C1742 C1745 1.403 . S
C1743 C1740 1.403 . S
C1743 C1744 1.524 . S
C1743 C1747 1.373 1_565 S
C1744 H1729 0.960 . S
C1744 H1730 0.960 . S
C1744 H1731 0.960 . S
C1744 C1743 1.524 . S
C1745 C1742 1.403 . S
C1745 C1746 1.392 . S
C1745 C1749 1.495 . S
C1746 C1745 1.392 . S
C1746 C1747 1.414 . S
C1746 C1748 1.478 . S
C1747 H1741 0.929 1_545 S
C1747 C1743 1.373 1_545 S
C1747 C1746 1.414 . S
C1748 C1746 1.478 . S
C1748 C1750 1.381 . S
C1748 C1754 1.383 . S
C1749 C1745 1.495 . S
C1749 H1755 0.959 . S
C1749 H1756 0.961 . S
C1749 H1757 0.960 . S
C1750 C1748 1.381 . S
C1750 C1751 1.394 . S
C1750 H1758 0.930 . S
C1751 C1750 1.394 . S
C1751 C1752 1.383 . S
C1751 H1759 0.929 . S
C1752 C1751 1.383 . S
C1752 C1753 1.377 . S
C1753 H1737 0.930 . S
C1753 C1752 1.377 . S
C1753 C1754 1.379 . S
C1754 H1738 0.931 . S
C1754 C1748 1.383 . S
C1754 C1753 1.379 . S
H1755 C1749 0.959 . S
H1756 C1749 0.961 . S
H1757 C1749 0.960 . S
H1758 C1750 0.930 . S
H1759 C1751 0.929 . S
H1760 C1768 0.929 . S
H1761 C1770 0.930 . S
H1762 C1772 0.930 . S
H1763 C1775 0.929 . S
H1764 C1778 0.930 . S
H1765 C1780 0.960 . S
H1766 C1780 0.960 . S
H1767 C1780 0.960 . S
C1768 H1760 0.929 . S
C1768 C1769 1.377 . S
C1768 C1770 1.384 . S
C1769 C1768 1.377 . S
C1769 C1775 1.390 . S
C1770 H1761 0.930 . S
C1770 C1768 1.384 . S
C1770 C1771 1.372 . S
C1771 C1770 1.372 . S
C1771 C1772 1.400 . S
C1771 C1776 1.490 . S
C1772 H1762 0.930 . S
C1772 C1771 1.400 . S
C1772 C1775 1.386 . S
H1773 C1789 0.930 . S
H1774 C1790 0.931 . S
C1775 H1763 0.929 . S
C1775 C1769 1.390 . S
C1775 C1772 1.386 . S
C1776 C1771 1.490 . S
C1776 C1778 1.395 . S
C1776 C1779 1.403 . S
H1777 C1783 0.930 . S
C1778 H1764 0.930 . S
C1778 C1776 1.395 . S
C1778 C1781 1.403 . S
C1779 C1776 1.403 . S
C1779 C1780 1.524 . S
C1779 C1783 1.400 . S
C1780 H1765 0.960 . S
C1780 H1766 0.960 . S
C1780 H1767 0.960 . S
C1780 C1779 1.524 . S
C1781 C1778 1.403 . S
C1781 C1782 1.392 . S
C1781 C1785 1.495 . S
C1782 C1781 1.392 . S
C1782 C1783 1.385 . S
C1782 C1784 1.478 . S
C1783 H1777 0.930 . S
C1783 C1779 1.400 . S
C1783 C1782 1.385 . S
C1784 C1782 1.478 . S
C1784 C1786 1.381 . S
C1784 C1790 1.383 . S
C1785 C1781 1.495 . S
C1785 H1791 0.959 . S
C1785 H1792 0.961 . S
C1785 H1793 0.960 . S
C1786 C1784 1.381 . S
C1786 C1787 1.394 . S
C1786 H1794 0.930 . S
C1787 C1786 1.394 . S
C1787 C1788 1.383 . S
C1787 H1795 0.929 . S
C1788 C1787 1.383 . S
C1788 C1789 1.377 . S
C1789 H1773 0.930 . S
C1789 C1788 1.377 . S
C1789 C1790 1.379 . S
C1790 H1774 0.931 . S
C1790 C1784 1.383 . S
C1790 C1789 1.379 . S
H1791 C1785 0.959 . S
H1792 C1785 0.961 . S
H1793 C1785 0.960 . S
H1794 C1786 0.930 . S
H1795 C1787 0.929 . S
H1796 C1804 0.929 . S
H1797 C1806 0.930 . S
H1798 C1808 0.930 . S
H1799 C1811 0.929 . S
H1800 C1814 0.930 . S
H1801 C1816 0.960 . S
H1802 C1816 0.960 . S
H1803 C1816 0.960 . S
C1804 H1796 0.929 . S
C1804 C1805 1.377 . S
C1804 C1806 1.384 . S
C1805 C1804 1.377 . S
C1805 C1811 1.390 . S
C1806 H1797 0.930 . S
C1806 C1804 1.384 . S
C1806 C1807 1.372 . S
C1807 C1806 1.372 . S
C1807 C1808 1.400 . S
C1807 C1812 1.490 . S
C1808 H1798 0.930 . S
C1808 C1807 1.400 . S
C1808 C1811 1.386 . S
H1809 C1825 0.930 . S
H1810 C1826 0.931 . S
C1811 H1799 0.929 . S
C1811 C1805 1.390 . S
C1811 C1808 1.386 . S
C1812 C1807 1.490 . S
C1812 C1814 1.395 . S
C1812 C1815 1.403 . S
H1813 C1819 0.930 . S
C1814 H1800 0.930 . S
C1814 C1812 1.395 . S
C1814 C1817 1.403 . S
C1815 C1812 1.403 . S
C1815 C1816 1.524 . S
C1815 C1819 1.400 . S
C1816 H1801 0.960 . S
C1816 H1802 0.960 . S
C1816 H1803 0.960 . S
C1816 C1815 1.524 . S
C1817 C1814 1.403 . S
C1817 C1818 1.392 . S
C1817 C1821 1.495 . S
C1818 C1817 1.392 . S
C1818 C1819 1.385 . S
C1818 C1820 1.478 . S
C1819 H1813 0.930 . S
C1819 C1815 1.400 . S
C1819 C1818 1.385 . S
C1820 C1818 1.478 . S
C1820 C1822 1.381 . S
C1820 C1826 1.383 . S
C1821 C1817 1.495 . S
C1821 H1827 0.959 . S
C1821 H1828 0.961 . S
C1821 H1829 0.960 . S
C1822 C1820 1.381 . S
C1822 C1823 1.394 . S
C1822 H1830 0.930 . S
C1823 C1822 1.394 . S
C1823 C1824 1.383 . S
C1823 H1831 0.929 . S
C1824 C1823 1.383 . S
C1824 C1825 1.377 . S
C1825 H1809 0.930 . S
C1825 C1824 1.377 . S
C1825 C1826 1.379 . S
C1826 H1810 0.931 . S
C1826 C1820 1.383 . S
C1826 C1825 1.379 . S
H1827 C1821 0.959 . S
H1828 C1821 0.961 . S
H1829 C1821 0.960 . S
H1830 C1822 0.930 . S
H1831 C1823 0.929 . S
H1832 C1840 0.929 . S
H1833 C1842 0.930 . S
H1834 C1844 0.930 . S
H1835 C1847 0.929 . S
H1836 C1850 0.930 . S
H1837 C1852 0.960 . S
H1838 C1852 0.960 . S
H1839 C1852 0.960 . S
C1840 H1832 0.929 . S
C1840 C1841 1.377 . S
C1840 C1842 1.384 . S
C1841 C1840 1.377 . S
C1841 C1847 1.390 . S
C1842 H1833 0.930 . S
C1842 C1840 1.384 . S
C1842 C1843 1.372 . S
C1843 C1842 1.372 . S
C1843 C1844 1.400 . S
C1843 C1848 1.490 . S
C1844 H1834 0.930 . S
C1844 C1843 1.400 . S
C1844 C1847 1.386 . S
H1845 C1861 0.930 . S
H1846 C1862 0.931 . S
C1847 H1835 0.929 . S
C1847 C1841 1.390 . S
C1847 C1844 1.386 . S
C1848 C1843 1.490 . S
C1848 C1850 1.395 . S
C1848 C1851 1.403 . S
H1849 C1855 0.930 . S
C1850 H1836 0.930 . S
C1850 C1848 1.395 . S
C1850 C1853 1.403 . S
C1851 C1848 1.403 . S
C1851 C1852 1.524 . S
C1851 C1855 1.400 . S
C1852 H1837 0.960 . S
C1852 H1838 0.960 . S
C1852 H1839 0.960 . S
C1852 C1851 1.524 . S
C1853 C1850 1.403 . S
C1853 C1854 1.392 . S
C1853 C1857 1.495 . S
C1854 C1853 1.392 . S
C1854 C1855 1.385 . S
C1854 C1856 1.478 . S
C1855 H1849 0.930 . S
C1855 C1851 1.400 . S
C1855 C1854 1.385 . S
C1856 C1854 1.478 . S
C1856 C1858 1.381 . S
C1856 C1862 1.383 . S
C1857 C1853 1.495 . S
C1857 H1863 0.959 . S
C1857 H1864 0.961 . S
C1857 H1865 0.960 . S
C1858 C1856 1.381 . S
C1858 C1859 1.394 . S
C1858 H1866 0.930 . S
C1859 C1858 1.394 . S
C1859 C1860 1.383 . S
C1859 H1867 0.929 . S
C1860 C1859 1.383 . S
C1860 C1861 1.377 . S
C1861 H1845 0.930 . S
C1861 C1860 1.377 . S
C1861 C1862 1.379 . S
C1862 H1846 0.931 . S
C1862 C1856 1.383 . S
C1862 C1861 1.379 . S
H1863 C1857 0.959 . S
H1864 C1857 0.961 . S
H1865 C1857 0.960 . S
H1866 C1858 0.930 . S
H1867 C1859 0.929 . S
H1868 C1876 0.929 . S
H1869 C1878 0.930 . S
H1870 C1880 0.930 . S
H1871 C1883 0.929 . S
H1872 C1886 0.930 . S
H1873 C1888 0.960 . S
H1874 C1888 0.960 . S
H1875 C1888 0.960 . S
C1876 H1868 0.929 . S
C1876 C1877 1.377 . S
C1876 C1878 1.384 . S
C1877 C1876 1.377 . S
C1877 C1883 1.390 . S
C1878 H1869 0.930 . S
C1878 C1876 1.384 . S
C1878 C1879 1.372 . S
C1879 C1878 1.372 . S
C1879 C1880 1.400 . S
C1879 C1884 1.490 . S
C1880 H1870 0.930 . S
C1880 C1879 1.400 . S
C1880 C1883 1.386 . S
H1881 C1897 0.930 . S
H1882 C1898 0.931 . S
C1883 H1871 0.929 . S
C1883 C1877 1.390 . S
C1883 C1880 1.386 . S
C1884 C1879 1.490 . S
C1884 C1886 1.395 . S
C1884 C1887 1.403 . S
H1885 C1891 0.930 . S
C1886 H1872 0.930 . S
C1886 C1884 1.395 . S
C1886 C1889 1.403 . S
C1887 C1884 1.403 . S
C1887 C1888 1.524 . S
C1887 C1891 1.400 . S
C1888 H1873 0.960 . S
C1888 H1874 0.960 . S
C1888 H1875 0.960 . S
C1888 C1887 1.524 . S
C1889 C1886 1.403 . S
C1889 C1890 1.392 . S
C1889 C1893 1.495 . S
C1890 C1889 1.392 . S
C1890 C1891 1.385 . S
C1890 C1892 1.478 . S
C1891 H1885 0.930 . S
C1891 C1887 1.400 . S
C1891 C1890 1.385 . S
C1892 C1890 1.478 . S
C1892 C1894 1.381 . S
C1892 C1898 1.383 . S
C1893 C1889 1.495 . S
C1893 H1899 0.959 . S
C1893 H1900 0.961 . S
C1893 H1901 0.960 . S
C1894 C1892 1.381 . S
C1894 C1895 1.394 . S
C1894 H1902 0.930 . S
C1895 C1894 1.394 . S
C1895 C1896 1.383 . S
C1895 H1903 0.929 . S
C1896 C1895 1.383 . S
C1896 C1897 1.377 . S
C1897 H1881 0.930 . S
C1897 C1896 1.377 . S
C1897 C1898 1.379 . S
C1898 H1882 0.931 . S
C1898 C1892 1.383 . S
C1898 C1897 1.379 . S
H1899 C1893 0.959 . S
H1900 C1893 0.961 . S
H1901 C1893 0.960 . S
H1902 C1894 0.930 . S
H1903 C1895 0.929 . S
H1904 C1912 0.929 . S
H1905 C1914 0.930 . S
H1906 C1916 0.930 . S
H1907 C1919 0.929 . S
H1908 C1922 0.930 . S
H1909 C1924 0.960 . S
H1910 C1924 0.960 . S
H1911 C1924 0.960 . S
C1912 H1904 0.929 . S
C1912 C1913 1.377 . S
C1912 C1914 1.384 . S
C1913 C1912 1.377 . S
C1913 C1919 1.390 1_455 S
C1914 H1905 0.930 . S
C1914 C1912 1.384 . S
C1914 C1915 1.372 . S
C1915 C1914 1.372 . S
C1915 C1916 1.400 1_455 S
C1915 C1920 1.490 . S
C1916 H1906 0.930 . S
C1916 C1915 1.400 1_655 S
C1916 C1919 1.386 . S
H1917 C1933 0.930 . S
H1918 C1934 0.931 . S
C1919 H1907 0.929 . S
C1919 C1913 1.390 1_655 S
C1919 C1916 1.386 . S
C1920 C1915 1.490 . S
C1920 C1922 1.395 1_455 S
C1920 C1923 1.403 . S
H1921 C1927 0.930 . S
C1922 H1908 0.930 . S
C1922 C1920 1.395 1_655 S
C1922 C1925 1.403 . S
C1923 C1920 1.403 . S
C1923 C1924 1.524 . S
C1923 C1927 1.400 . S
C1924 H1909 0.960 . S
C1924 H1910 0.960 . S
C1924 H1911 0.960 . S
C1924 C1923 1.524 . S
C1925 C1922 1.403 . S
C1925 C1926 1.392 . S
C1925 C1929 1.495 . S
C1926 C1925 1.392 . S
C1926 C1927 1.385 1_655 S
C1926 C1928 1.478 . S
C1927 H1921 0.930 . S
C1927 C1923 1.400 . S
C1927 C1926 1.385 1_455 S
C1928 C1926 1.478 . S
C1928 C1930 1.381 1_655 S
C1928 C1934 1.383 . S
C1929 C1925 1.495 . S
C1929 H1935 0.959 . S
C1929 H1936 0.961 . S
C1929 H1937 0.960 . S
C1930 C1928 1.381 1_455 S
C1930 C1931 1.394 . S
C1930 H1938 0.930 . S
C1931 C1930 1.394 . S
C1931 C1932 1.383 1_455 S
C1931 H1939 0.929 . S
C1932 C1931 1.383 1_655 S
C1932 C1933 1.377 . S
C1933 H1917 0.930 . S
C1933 C1932 1.377 . S
C1933 C1934 1.379 . S
C1934 H1918 0.931 . S
C1934 C1928 1.383 . S
C1934 C1933 1.379 . S
H1935 C1929 0.959 . S
H1936 C1929 0.961 . S
H1937 C1929 0.960 . S
H1938 C1930 0.930 . S
H1939 C1931 0.929 . S
H1940 C1948 0.929 . S
H1941 C1950 0.930 . S
H1942 C1952 0.930 . S
H1943 C1955 0.929 . S
H1944 C1958 0.930 . S
H1945 C1960 0.960 . S
H1946 C1960 0.960 . S
H1947 C1960 0.960 . S
C1948 H1940 0.929 . S
C1948 C1949 1.377 . S
C1948 C1950 1.384 . S
C1949 C1948 1.377 . S
C1949 C1955 1.390 . S
C1950 H1941 0.930 . S
C1950 C1948 1.384 . S
C1950 C1951 1.372 . S
C1951 C1950 1.372 . S
C1951 C1952 1.400 . S
C1951 C1956 1.490 . S
C1952 H1942 0.930 . S
C1952 C1951 1.400 . S
C1952 C1955 1.386 . S
H1953 C1969 0.930 . S
H1954 C1970 0.931 . S
C1955 H1943 0.929 . S
C1955 C1949 1.390 . S
C1955 C1952 1.386 . S
C1956 C1951 1.490 . S
C1956 C1958 1.395 . S
C1956 C1959 1.403 . S
H1957 C1963 0.930 . S
C1958 H1944 0.930 . S
C1958 C1956 1.395 . S
C1958 C1961 1.403 . S
C1959 C1956 1.403 . S
C1959 C1960 1.524 . S
C1959 C1963 1.400 . S
C1960 H1945 0.960 . S
C1960 H1946 0.960 . S
C1960 H1947 0.960 . S
C1960 C1959 1.524 . S
C1961 C1958 1.403 . S
C1961 C1962 1.392 . S
C1961 C1965 1.495 . S
C1962 C1961 1.392 . S
C1962 C1963 1.385 . S
C1962 C1964 1.478 . S
C1963 H1957 0.930 . S
C1963 C1959 1.400 . S
C1963 C1962 1.385 . S
C1964 C1962 1.478 . S
C1964 C1966 1.381 . S
C1964 C1970 1.383 . S
C1965 C1961 1.495 . S
C1965 H1971 0.959 . S
C1965 H1972 0.961 . S
C1965 H1973 0.960 . S
C1966 C1964 1.381 . S
C1966 C1967 1.394 . S
C1966 H1974 0.930 . S
C1967 C1966 1.394 . S
C1967 C1968 1.383 . S
C1967 H1975 0.929 . S
C1968 C1967 1.383 . S
C1968 C1969 1.377 . S
C1969 H1953 0.930 . S
C1969 C1968 1.377 . S
C1969 C1970 1.379 . S
C1970 H1954 0.931 . S
C1970 C1964 1.383 . S
C1970 C1969 1.379 . S
H1971 C1965 0.959 . S
H1972 C1965 0.961 . S
H1973 C1965 0.960 . S
H1974 C1966 0.930 . S
H1975 C1967 0.929 . S
H1976 C1984 0.929 . S
H1977 C1986 0.930 . S
H1978 C1988 0.930 . S
H1979 C1991 0.929 . S
H1980 C1994 0.930 . S
H1981 C1996 0.960 . S
H1982 C1996 0.960 . S
H1983 C1996 0.960 . S
C1984 H1976 0.929 . S
C1984 C1985 1.377 . S
C1984 C1986 1.384 . S
C1985 C1984 1.377 . S
C1985 C1991 1.390 . S
C1986 H1977 0.930 . S
C1986 C1984 1.384 . S
C1986 C1987 1.372 . S
C1987 C1986 1.372 . S
C1987 C1988 1.400 . S
C1987 C1992 1.490 . S
C1988 H1978 0.930 . S
C1988 C1987 1.400 . S
C1988 C1991 1.386 . S
H1989 C2005 0.930 . S
H1990 C2006 0.931 . S
C1991 H1979 0.929 . S
C1991 C1985 1.390 . S
C1991 C1988 1.386 . S
C1992 C1987 1.490 . S
C1992 C1994 1.395 . S
C1992 C1995 1.403 . S
H1993 C1999 0.930 . S
C1994 H1980 0.930 . S
C1994 C1992 1.395 . S
C1994 C1997 1.403 . S
C1995 C1992 1.403 . S
C1995 C1996 1.524 . S
C1995 C1999 1.400 . S
C1996 H1981 0.960 . S
C1996 H1982 0.960 . S
C1996 H1983 0.960 . S
C1996 C1995 1.524 . S
C1997 C1994 1.403 . S
C1997 C1998 1.392 . S
C1997 C2001 1.495 . S
C1998 C1997 1.392 . S
C1998 C1999 1.385 . S
C1998 C2000 1.478 . S
C1999 H1993 0.930 . S
C1999 C1995 1.400 . S
C1999 C1998 1.385 . S
C2000 C1998 1.478 . S
C2000 C2002 1.381 . S
C2000 C2006 1.383 . S
C2001 C1997 1.495 . S
C2001 H2007 0.959 . S
C2001 H2008 0.961 . S
C2001 H2009 0.960 . S
C2002 C2000 1.381 . S
C2002 C2003 1.394 . S
C2002 H2010 0.930 . S
C2003 C2002 1.394 . S
C2003 C2004 1.383 . S
C2003 H2011 0.929 . S
C2004 C2003 1.383 . S
C2004 C2005 1.377 . S
C2005 H1989 0.930 . S
C2005 C2004 1.377 . S
C2005 C2006 1.379 . S
C2006 H1990 0.931 . S
C2006 C2000 1.383 . S
C2006 C2005 1.379 . S
H2007 C2001 0.959 . S
H2008 C2001 0.961 . S
H2009 C2001 0.960 . S
H2010 C2002 0.930 . S
H2011 C2003 0.929 . S
H2012 C2020 0.929 . S
H2013 C2022 0.930 . S
H2014 C2024 0.930 . S
H2015 C2027 0.929 . S
H2016 C2030 0.930 . S
H2017 C2032 0.960 . S
H2018 C2032 0.960 1_655 S
H2019 C2032 0.960 . S
C2020 H2012 0.929 . S
C2020 C2021 1.377 1_655 S
C2020 C2022 1.384 . S
C2021 C2020 1.377 1_455 S
C2021 C2027 1.390 . S
C2022 H2013 0.930 . S
C2022 C2020 1.384 . S
C2022 C2023 1.384 . S
C2023 C2022 1.384 . S
C2023 C2024 1.387 1_655 S
C2023 C2028 1.490 . S
C2024 H2014 0.930 . S
C2024 C2023 1.387 1_455 S
C2024 C2027 1.386 . S
H2025 C2041 0.930 . S
H2026 C2042 0.931 . S
C2027 H2015 0.929 . S
C2027 C2021 1.390 . S
C2027 C2024 1.386 . S
C2028 C2023 1.490 . S
C2028 C2030 1.395 . S
C2028 C2031 1.403 1_655 S
H2029 C2035 0.930 . S
C2030 H2016 0.930 . S
C2030 C2028 1.395 . S
C2030 C2033 1.403 . S
C2031 C2028 1.403 1_455 S
C2031 C2032 1.524 . S
C2031 C2035 1.400 . S
C2032 H2017 0.960 . S
C2032 H2018 0.960 1_455 S
C2032 H2019 0.960 . S
C2032 C2031 1.524 . S
C2033 C2030 1.403 . S
C2033 C2034 1.392 . S
C2033 C2037 1.495 . S
C2034 C2033 1.392 . S
C2034 C2035 1.385 1_655 S
C2034 C2036 1.478 . S
C2035 H2029 0.930 . S
C2035 C2031 1.400 . S
C2035 C2034 1.385 1_455 S
C2036 C2034 1.478 . S
C2036 C2038 1.381 . S
C2036 C2042 1.383 1_655 S
C2037 C2033 1.495 . S
C2037 H2043 0.959 . S
C2037 H2044 0.951 1_655 S
C2037 H2045 0.960 . S
C2038 C2036 1.381 . S
C2038 C2039 1.394 . S
C2038 H2046 0.930 . S
C2039 C2038 1.394 . S
C2039 C2040 1.383 . S
C2039 H2047 0.929 . S
C2040 C2039 1.383 . S
C2040 C2041 1.377 1_655 S
C2041 H2025 0.930 . S
C2041 C2040 1.377 1_455 S
C2041 C2042 1.379 . S
C2042 H2026 0.931 . S
C2042 C2036 1.383 1_455 S
C2042 C2041 1.379 . S
H2043 C2037 0.959 . S
H2044 C2037 0.951 1_455 S
H2045 C2037 0.960 . S
H2046 C2038 0.930 . S
H2047 C2039 0.929 . S
H2048 C2056 0.929 . S
H2049 C2058 0.930 . S
H2050 C2060 0.930 . S
H2051 C2063 0.929 . S
H2052 C2066 0.930 . S
H2053 C2068 0.960 . S
H2054 C2068 0.960 1_455 S
H2055 C2068 0.960 . S
C2056 H2048 0.929 . S
C2056 C2057 1.377 1_455 S
C2056 C2058 1.384 . S
C2057 C2056 1.377 1_655 S
C2057 C2063 1.390 . S
C2058 H2049 0.930 . S
C2058 C2056 1.384 . S
C2058 C2059 1.384 . S
C2059 C2058 1.384 . S
C2059 C2060 1.387 1_455 S
C2059 C2064 1.490 . S
C2060 H2050 0.930 . S
C2060 C2059 1.387 1_655 S
C2060 C2063 1.386 . S
H2061 C2077 0.930 . S
H2062 C2078 0.931 . S
C2063 H2051 0.929 . S
C2063 C2057 1.390 . S
C2063 C2060 1.386 . S
C2064 C2059 1.490 . S
C2064 C2066 1.395 . S
C2064 C2067 1.403 1_455 S
H2065 C2071 0.930 . S
C2066 H2052 0.930 . S
C2066 C2064 1.395 . S
C2066 C2069 1.403 . S
C2067 C2064 1.403 1_655 S
C2067 C2068 1.524 . S
C2067 C2071 1.400 . S
C2068 H2053 0.960 . S
C2068 H2054 0.960 1_655 S
C2068 H2055 0.960 . S
C2068 C2067 1.524 . S
C2069 C2066 1.403 . S
C2069 C2070 1.392 . S
C2069 C2073 1.495 . S
C2070 C2069 1.392 . S
C2070 C2071 1.385 1_455 S
C2070 C2072 1.478 . S
C2071 H2065 0.930 . S
C2071 C2067 1.400 . S
C2071 C2070 1.385 1_655 S
C2072 C2070 1.478 . S
C2072 C2074 1.381 . S
C2072 C2078 1.383 1_455 S
C2073 C2069 1.495 . S
C2073 H2079 0.959 . S
C2073 H2080 0.951 1_455 S
C2073 H2081 0.960 . S
C2074 C2072 1.381 . S
C2074 C2075 1.394 . S
C2074 H2082 0.930 . S
C2075 C2074 1.394 . S
C2075 C2076 1.383 . S
C2075 H2083 0.929 . S
C2076 C2075 1.383 . S
C2076 C2077 1.377 1_455 S
C2077 H2061 0.930 . S
C2077 C2076 1.377 1_655 S
C2077 C2078 1.379 . S
C2078 H2062 0.931 . S
C2078 C2072 1.383 1_655 S
C2078 C2077 1.379 . S
H2079 C2073 0.959 . S
H2080 C2073 0.951 1_655 S
H2081 C2073 0.960 . S
H2082 C2074 0.930 . S
H2083 C2075 0.929 . S
H2084 C2092 0.929 . S
H2085 C2094 0.930 . S
H2086 C2096 0.930 . S
H2087 C2099 0.929 . S
H2088 C2102 0.930 . S
H2089 C2104 0.960 . S
H2090 C2104 0.960 . S
H2091 C2104 0.960 . S
C2092 H2084 0.929 . S
C2092 C2093 1.377 . S
C2092 C2094 1.384 . S
C2093 C2092 1.377 . S
C2093 C2099 1.390 . S
C2094 H2085 0.930 . S
C2094 C2092 1.384 . S
C2094 C2095 1.372 . S
C2095 C2094 1.372 . S
C2095 C2096 1.400 . S
C2095 C2100 1.490 . S
C2096 H2086 0.930 . S
C2096 C2095 1.400 . S
C2096 C2099 1.386 . S
H2097 C2113 0.930 . S
H2098 C2114 0.931 . S
C2099 H2087 0.929 . S
C2099 C2093 1.390 . S
C2099 C2096 1.386 . S
C2100 C2095 1.490 . S
C2100 C2102 1.395 . S
C2100 C2103 1.403 . S
H2101 C2107 0.930 . S
C2102 H2088 0.930 . S
C2102 C2100 1.395 . S
C2102 C2105 1.403 . S
C2103 C2100 1.403 . S
C2103 C2104 1.524 . S
C2103 C2107 1.400 . S
C2104 H2089 0.960 . S
C2104 H2090 0.960 . S
C2104 H2091 0.960 . S
C2104 C2103 1.524 . S
C2105 C2102 1.403 . S
C2105 C2106 1.392 . S
C2105 C2109 1.495 . S
C2106 C2105 1.392 . S
C2106 C2107 1.385 . S
C2106 C2108 1.478 . S
C2107 H2101 0.930 . S
C2107 C2103 1.400 . S
C2107 C2106 1.385 . S
C2108 C2106 1.478 . S
C2108 C2110 1.381 . S
C2108 C2114 1.383 . S
C2109 C2105 1.495 . S
C2109 H2115 0.959 . S
C2109 H2116 0.961 . S
C2109 H2117 0.960 . S
C2110 C2108 1.381 . S
C2110 C2111 1.394 . S
C2110 H2118 0.930 . S
C2111 C2110 1.394 . S
C2111 C2112 1.383 . S
C2111 H2119 0.929 . S
C2112 C2111 1.383 . S
C2112 C2113 1.377 . S
C2113 H2097 0.930 . S
C2113 C2112 1.377 . S
C2113 C2114 1.379 . S
C2114 H2098 0.931 . S
C2114 C2108 1.383 . S
C2114 C2113 1.379 . S
H2115 C2109 0.959 . S
H2116 C2109 0.961 . S
H2117 C2109 0.960 . S
H2118 C2110 0.930 . S
H2119 C2111 0.929 . S
H2120 C2128 0.929 . S
H2121 C2130 0.930 . S
H2122 C2132 0.930 . S
H2123 C2135 0.929 . S
H2124 C2138 0.930 . S
H2125 C2140 0.960 . S
H2126 C2140 0.960 . S
H2127 C2140 0.960 . S
C2128 H2120 0.929 . S
C2128 C2129 1.377 . S
C2128 C2130 1.384 . S
C2129 C2128 1.377 . S
C2129 C2135 1.390 . S
C2130 H2121 0.930 . S
C2130 C2128 1.384 . S
C2130 C2131 1.372 . S
C2131 C2130 1.372 . S
C2131 C2132 1.400 . S
C2131 C2136 1.490 . S
C2132 H2122 0.930 . S
C2132 C2131 1.400 . S
C2132 C2135 1.386 . S
H2133 C2149 0.930 . S
H2134 C2150 0.931 . S
C2135 H2123 0.929 . S
C2135 C2129 1.390 . S
C2135 C2132 1.386 . S
C2136 C2131 1.490 . S
C2136 C2138 1.395 . S
C2136 C2139 1.403 . S
H2137 C2143 0.930 . S
C2138 H2124 0.930 . S
C2138 C2136 1.395 . S
C2138 C2141 1.403 . S
C2139 C2136 1.403 . S
C2139 C2140 1.524 . S
C2139 C2143 1.400 . S
C2140 H2125 0.960 . S
C2140 H2126 0.960 . S
C2140 H2127 0.960 . S
C2140 C2139 1.524 . S
C2141 C2138 1.403 . S
C2141 C2142 1.392 . S
C2141 C2145 1.495 . S
C2142 C2141 1.392 . S
C2142 C2143 1.385 . S
C2142 C2144 1.478 . S
C2143 H2137 0.930 . S
C2143 C2139 1.400 . S
C2143 C2142 1.385 . S
C2144 C2142 1.478 . S
C2144 C2146 1.381 . S
C2144 C2150 1.383 . S
C2145 C2141 1.495 . S
C2145 H2151 0.959 . S
C2145 H2152 0.961 . S
C2145 H2153 0.960 . S
C2146 C2144 1.381 . S
C2146 C2147 1.394 . S
C2146 H2154 0.930 . S
C2147 C2146 1.394 . S
C2147 C2148 1.383 . S
C2147 H2155 0.929 . S
C2148 C2147 1.383 . S
C2148 C2149 1.377 . S
C2149 H2133 0.930 . S
C2149 C2148 1.377 . S
C2149 C2150 1.379 . S
C2150 H2134 0.931 . S
C2150 C2144 1.383 . S
C2150 C2149 1.379 . S
H2151 C2145 0.959 . S
H2152 C2145 0.961 . S
H2153 C2145 0.960 . S
H2154 C2146 0.930 . S
H2155 C2147 0.929 . S
H2156 C2164 0.929 . S
H2157 C2166 0.930 . S
H2158 C2168 0.930 . S
H2159 C2171 0.931 . S
H2160 C2174 0.930 . S
H2161 C2176 0.960 . S
H2162 C2176 0.960 . S
H2163 C2176 0.960 . S
C2164 H2156 0.929 . S
C2164 C2165 1.377 . S
C2164 C2166 1.384 . S
C2165 C2164 1.377 . S
C2165 C2171 1.389 1_655 S
C2166 H2157 0.930 . S
C2166 C2164 1.384 . S
C2166 C2167 1.372 . S
C2167 C2166 1.372 . S
C2167 C2168 1.400 1_655 S
C2167 C2172 1.490 . S
C2168 H2158 0.930 . S
C2168 C2167 1.400 1_455 S
C2168 C2171 1.386 . S
H2169 C2185 0.930 . S
H2170 C2186 0.931 . S
C2171 H2159 0.931 . S
C2171 C2165 1.389 1_455 S
C2171 C2168 1.386 . S
C2172 C2167 1.490 . S
C2172 C2174 1.389 1_655 S
C2172 C2175 1.407 . S
H2173 C2179 0.930 . S
C2174 H2160 0.930 . S
C2174 C2172 1.389 1_455 S
C2174 C2177 1.403 . S
C2175 C2172 1.407 . S
C2175 C2176 1.524 . S
C2175 C2179 1.400 . S
C2176 H2161 0.960 . S
C2176 H2162 0.960 . S
C2176 H2163 0.960 . S
C2176 C2175 1.524 . S
C2177 C2174 1.403 . S
C2177 C2178 1.392 . S
C2177 C2181 1.495 . S
C2178 C2177 1.392 . S
C2178 C2179 1.385 1_455 S
C2178 C2180 1.478 . S
C2179 H2173 0.930 . S
C2179 C2175 1.400 . S
C2179 C2178 1.385 1_655 S
C2180 C2178 1.478 . S
C2180 C2182 1.382 1_455 S
C2180 C2186 1.383 . S
C2181 C2177 1.495 . S
C2181 H2187 0.959 . S
C2181 H2188 0.961 . S
C2181 H2189 0.960 . S
C2182 C2180 1.382 1_655 S
C2182 C2183 1.394 . S
C2182 H2190 0.930 . S
C2183 C2182 1.394 . S
C2183 C2184 1.383 1_655 S
C2183 H2191 0.929 . S
C2184 C2183 1.383 1_455 S
C2184 C2185 1.377 . S
C2185 H2169 0.930 . S
C2185 C2184 1.377 . S
C2185 C2186 1.379 . S
C2186 H2170 0.931 . S
C2186 C2180 1.383 . S
C2186 C2185 1.379 . S
H2187 C2181 0.959 . S
H2188 C2181 0.961 . S
H2189 C2181 0.960 . S
H2190 C2182 0.930 . S
H2191 C2183 0.929 . S
H2192 C2200 0.929 . S
H2193 C2202 0.930 . S
H2194 C2204 0.930 . S
H2195 C2207 0.929 1_655 S
H2196 C2210 0.930 . S
H2197 C2212 0.960 . S
H2198 C2212 0.960 . S
H2199 C2212 0.960 . S
C2200 H2192 0.929 . S
C2200 C2201 1.377 . S
C2200 C2202 1.384 . S
C2201 C2200 1.377 . S
C2201 C2207 1.390 . S
C2202 H2193 0.930 . S
C2202 C2200 1.384 . S
C2202 C2203 1.372 . S
C2203 C2202 1.372 . S
C2203 C2204 1.400 1_455 S
C2203 C2208 1.490 . S
C2204 H2194 0.930 . S
C2204 C2203 1.400 1_655 S
C2204 C2207 1.386 1_655 S
H2205 C2221 0.930 . S
H2206 C2222 0.931 . S
C2207 H2195 0.929 1_455 S
C2207 C2201 1.390 . S
C2207 C2204 1.386 1_455 S
C2208 C2203 1.490 . S
C2208 C2210 1.395 . S
C2208 C2211 1.403 1_455 S
H2209 C2215 0.930 . S
C2210 H2196 0.930 . S
C2210 C2208 1.395 . S
C2210 C2213 1.403 . S
C2211 C2208 1.403 1_655 S
C2211 C2212 1.524 . S
C2211 C2215 1.400 . S
C2212 H2197 0.960 . S
C2212 H2198 0.960 . S
C2212 H2199 0.960 . S
C2212 C2211 1.524 . S
C2213 C2210 1.403 . S
C2213 C2214 1.392 . S
C2213 C2217 1.495 . S
C2214 C2213 1.392 . S
C2214 C2215 1.385 1_455 S
C2214 C2216 1.479 . S
C2215 H2209 0.930 . S
C2215 C2211 1.400 . S
C2215 C2214 1.385 1_655 S
C2216 C2214 1.479 . S
C2216 C2218 1.383 . S
C2216 C2222 1.378 1_455 S
C2217 C2213 1.495 . S
C2217 H2223 0.959 . S
C2217 H2224 0.961 . S
C2217 H2225 0.960 . S
C2218 C2216 1.383 . S
C2218 C2219 1.394 1_455 S
C2218 H2226 0.930 . S
C2219 C2218 1.394 1_655 S
C2219 C2220 1.383 . S
C2219 H2227 0.929 1_655 S
C2220 C2219 1.383 . S
C2220 C2221 1.377 . S
C2221 H2205 0.930 . S
C2221 C2220 1.377 . S
C2221 C2222 1.379 . S
C2222 H2206 0.931 . S
C2222 C2216 1.378 1_655 S
C2222 C2221 1.379 . S
H2223 C2217 0.959 . S
H2224 C2217 0.961 . S
H2225 C2217 0.960 . S
H2226 C2218 0.930 . S
H2227 C2219 0.929 1_455 S
H2228 C2236 0.929 . S
H2229 C2238 0.930 . S
H2230 C2240 0.930 . S
H2231 C2243 0.929 . S
H2232 C2246 0.930 . S
H2233 C2248 0.960 . S
H2234 C2248 0.960 . S
H2235 C2248 0.960 . S
C2236 H2228 0.929 . S
C2236 C2237 1.377 . S
C2236 C2238 1.384 . S
C2237 C2236 1.377 . S
C2237 C2243 1.390 . S
C2238 H2229 0.930 . S
C2238 C2236 1.384 . S
C2238 C2239 1.372 . S
C2239 C2238 1.372 . S
C2239 C2240 1.400 . S
C2239 C2244 1.490 . S
C2240 H2230 0.930 . S
C2240 C2239 1.400 . S
C2240 C2243 1.386 . S
H2241 C2257 0.930 . S
H2242 C2258 0.931 . S
C2243 H2231 0.929 . S
C2243 C2237 1.390 . S
C2243 C2240 1.386 . S
C2244 C2239 1.490 . S
C2244 C2246 1.395 . S
C2244 C2247 1.403 . S
H2245 C2251 0.930 . S
C2246 H2232 0.930 . S
C2246 C2244 1.395 . S
C2246 C2249 1.403 . S
C2247 C2244 1.403 . S
C2247 C2248 1.524 . S
C2247 C2251 1.400 . S
C2248 H2233 0.960 . S
C2248 H2234 0.960 . S
C2248 H2235 0.960 . S
C2248 C2247 1.524 . S
C2249 C2246 1.403 . S
C2249 C2250 1.392 . S
C2249 C2253 1.495 . S
C2250 C2249 1.392 . S
C2250 C2251 1.385 . S
C2250 C2252 1.478 . S
C2251 H2245 0.930 . S
C2251 C2247 1.400 . S
C2251 C2250 1.385 . S
C2252 C2250 1.478 . S
C2252 C2254 1.381 . S
C2252 C2258 1.383 . S
C2253 C2249 1.495 . S
C2253 H2259 0.959 . S
C2253 H2260 0.961 . S
C2253 H2261 0.960 . S
C2254 C2252 1.381 . S
C2254 C2255 1.394 . S
C2254 H2262 0.930 . S
C2255 C2254 1.394 . S
C2255 C2256 1.383 . S
C2255 H2263 0.929 . S
C2256 C2255 1.383 . S
C2256 C2257 1.377 . S
C2257 H2241 0.930 . S
C2257 C2256 1.377 . S
C2257 C2258 1.379 . S
C2258 H2242 0.931 . S
C2258 C2252 1.383 . S
C2258 C2257 1.379 . S
H2259 C2253 0.959 . S
H2260 C2253 0.961 . S
H2261 C2253 0.960 . S
H2262 C2254 0.930 . S
H2263 C2255 0.929 . S
H2264 C2272 0.929 . S
H2265 C2274 0.930 . S
H2266 C2276 0.930 . S
H2267 C2279 0.929 . S
H2268 C2282 0.930 . S
H2269 C2284 0.960 . S
H2270 C2284 0.960 1_655 S
H2271 C2284 0.960 . S
C2272 H2264 0.929 . S
C2272 C2273 1.377 . S
C2272 C2274 1.384 . S
C2273 C2272 1.377 . S
C2273 C2279 1.390 1_655 S
C2274 H2265 0.930 . S
C2274 C2272 1.384 . S
C2274 C2275 1.372 . S
C2275 C2274 1.372 . S
C2275 C2276 1.400 1_655 S
C2275 C2280 1.490 . S
C2276 H2266 0.930 . S
C2276 C2275 1.400 1_455 S
C2276 C2279 1.386 . S
H2277 C2293 0.930 . S
H2278 C2294 0.931 . S
C2279 H2267 0.929 . S
C2279 C2273 1.390 1_455 S
C2279 C2276 1.386 . S
C2280 C2275 1.490 . S
C2280 C2282 1.395 . S
C2280 C2283 1.403 1_655 S
H2281 C2287 0.930 . S
C2282 H2268 0.930 . S
C2282 C2280 1.395 . S
C2282 C2285 1.403 . S
C2283 C2280 1.403 1_455 S
C2283 C2284 1.524 . S
C2283 C2287 1.400 . S
C2284 H2269 0.960 . S
C2284 H2270 0.960 1_455 S
C2284 H2271 0.960 . S
C2284 C2283 1.524 . S
C2285 C2282 1.403 . S
C2285 C2286 1.389 1_655 S
C2285 C2289 1.495 . S
C2286 C2285 1.389 1_455 S
C2286 C2287 1.387 . S
C2286 C2288 1.479 . S
C2287 H2281 0.930 . S
C2287 C2283 1.400 . S
C2287 C2286 1.387 . S
C2288 C2286 1.479 . S
C2288 C2290 1.381 1_455 S
C2288 C2294 1.383 . S
C2289 C2285 1.495 . S
C2289 H2295 0.959 . S
C2289 H2296 0.961 1_655 S
C2289 H2297 0.960 . S
C2290 C2288 1.381 1_655 S
C2290 C2291 1.394 . S
C2290 H2298 0.930 . S
C2291 C2290 1.394 . S
C2291 C2292 1.383 1_655 S
C2291 H2299 0.929 . S
C2292 C2291 1.383 1_455 S
C2292 C2293 1.377 . S
C2293 H2277 0.930 . S
C2293 C2292 1.377 . S
C2293 C2294 1.379 . S
C2294 H2278 0.931 . S
C2294 C2288 1.383 . S
C2294 C2293 1.379 . S
H2295 C2289 0.959 . S
H2296 C2289 0.961 1_455 S
H2297 C2289 0.960 . S
H2298 C2290 0.930 . S
H2299 C2291 0.929 . S
H2300 C2308 0.929 . S
H2301 C2310 0.930 . S
H2302 C2312 0.930 . S
H2303 C2315 0.929 . S
H2304 C2318 0.930 . S
H2305 C2320 0.960 . S
H2306 C2320 0.960 . S
H2307 C2320 0.960 . S
C2308 H2300 0.929 . S
C2308 C2309 1.377 . S
C2308 C2310 1.384 . S
C2309 C2308 1.377 . S
C2309 C2315 1.390 . S
C2310 H2301 0.930 . S
C2310 C2308 1.384 . S
C2310 C2311 1.372 . S
C2311 C2310 1.372 . S
C2311 C2312 1.400 . S
C2311 C2316 1.490 . S
C2312 H2302 0.930 . S
C2312 C2311 1.400 . S
C2312 C2315 1.386 . S
H2313 C2329 0.930 . S
H2314 C2330 0.931 . S
C2315 H2303 0.929 . S
C2315 C2309 1.390 . S
C2315 C2312 1.386 . S
C2316 C2311 1.490 . S
C2316 C2318 1.395 . S
C2316 C2319 1.403 . S
H2317 C2323 0.930 . S
C2318 H2304 0.930 . S
C2318 C2316 1.395 . S
C2318 C2321 1.403 . S
C2319 C2316 1.403 . S
C2319 C2320 1.524 . S
C2319 C2323 1.400 . S
C2320 H2305 0.960 . S
C2320 H2306 0.960 . S
C2320 H2307 0.960 . S
C2320 C2319 1.524 . S
C2321 C2318 1.403 . S
C2321 C2322 1.392 . S
C2321 C2325 1.495 . S
C2322 C2321 1.392 . S
C2322 C2323 1.385 . S
C2322 C2324 1.478 . S
C2323 H2317 0.930 . S
C2323 C2319 1.400 . S
C2323 C2322 1.385 . S
C2324 C2322 1.478 . S
C2324 C2326 1.381 . S
C2324 C2330 1.383 . S
C2325 C2321 1.495 . S
C2325 H2331 0.959 . S
C2325 H2332 0.961 . S
C2325 H2333 0.960 . S
C2326 C2324 1.381 . S
C2326 C2327 1.394 . S
C2326 H2334 0.930 . S
C2327 C2326 1.394 . S
C2327 C2328 1.383 . S
C2327 H2335 0.929 . S
C2328 C2327 1.383 . S
C2328 C2329 1.377 . S
C2329 H2313 0.930 . S
C2329 C2328 1.377 . S
C2329 C2330 1.379 . S
C2330 H2314 0.931 . S
C2330 C2324 1.383 . S
C2330 C2329 1.379 . S
H2331 C2325 0.959 . S
H2332 C2325 0.961 . S
H2333 C2325 0.960 . S
H2334 C2326 0.930 . S
H2335 C2327 0.929 . S
H2336 C2344 0.929 . S
H2337 C2346 0.930 . S
H2338 C2348 0.930 . S
H2339 C2351 0.929 . S
H2340 C2354 0.930 . S
H2341 C2356 0.960 . S
H2342 C2356 0.960 . S
H2343 C2356 0.960 . S
C2344 H2336 0.929 . S
C2344 C2345 1.377 . S
C2344 C2346 1.384 . S
C2345 C2344 1.377 . S
C2345 C2351 1.390 . S
C2346 H2337 0.930 . S
C2346 C2344 1.384 . S
C2346 C2347 1.372 . S
C2347 C2346 1.372 . S
C2347 C2348 1.400 . S
C2347 C2352 1.490 . S
C2348 H2338 0.930 . S
C2348 C2347 1.400 . S
C2348 C2351 1.386 . S
H2349 C2365 0.930 . S
H2350 C2366 0.931 . S
C2351 H2339 0.929 . S
C2351 C2345 1.390 . S
C2351 C2348 1.386 . S
C2352 C2347 1.490 . S
C2352 C2354 1.395 . S
C2352 C2355 1.403 . S
H2353 C2359 0.930 . S
C2354 H2340 0.930 . S
C2354 C2352 1.395 . S
C2354 C2357 1.403 . S
C2355 C2352 1.403 . S
C2355 C2356 1.524 . S
C2355 C2359 1.400 . S
C2356 H2341 0.960 . S
C2356 H2342 0.960 . S
C2356 H2343 0.960 . S
C2356 C2355 1.524 . S
C2357 C2354 1.403 . S
C2357 C2358 1.392 . S
C2357 C2361 1.495 . S
C2358 C2357 1.392 . S
C2358 C2359 1.385 . S
C2358 C2360 1.478 . S
C2359 H2353 0.930 . S
C2359 C2355 1.400 . S
C2359 C2358 1.385 . S
C2360 C2358 1.478 . S
C2360 C2362 1.381 . S
C2360 C2366 1.383 . S
C2361 C2357 1.495 . S
C2361 H2367 0.959 . S
C2361 H2368 0.961 . S
C2361 H2369 0.960 . S
C2362 C2360 1.381 . S
C2362 C2363 1.394 . S
C2362 H2370 0.930 . S
C2363 C2362 1.394 . S
C2363 C2364 1.383 . S
C2363 H2371 0.929 . S
C2364 C2363 1.383 . S
C2364 C2365 1.377 . S
C2365 H2349 0.930 . S
C2365 C2364 1.377 . S
C2365 C2366 1.379 . S
C2366 H2350 0.931 . S
C2366 C2360 1.383 . S
C2366 C2365 1.379 . S
H2367 C2361 0.959 . S
H2368 C2361 0.961 . S
H2369 C2361 0.960 . S
H2370 C2362 0.930 . S
H2371 C2363 0.929 . S
H2372 C2380 0.929 . S
H2373 C2382 0.930 . S
H2374 C2384 0.930 . S
H2375 C2387 0.929 . S
H2376 C2390 0.930 . S
H2377 C2392 0.960 . S
H2378 C2392 0.960 1_655 S
H2379 C2392 0.960 . S
C2380 H2372 0.929 . S
C2380 C2381 1.377 1_655 S
C2380 C2382 1.384 . S
C2381 C2380 1.377 1_455 S
C2381 C2387 1.390 . S
C2382 H2373 0.930 . S
C2382 C2380 1.384 . S
C2382 C2383 1.372 1_655 S
C2383 C2382 1.372 1_455 S
C2383 C2384 1.400 . S
C2383 C2388 1.490 . S
C2384 H2374 0.930 . S
C2384 C2383 1.400 . S
C2384 C2387 1.386 . S
H2385 C2401 0.930 . S
H2386 C2402 0.931 . S
C2387 H2375 0.929 . S
C2387 C2381 1.390 . S
C2387 C2384 1.386 . S
C2388 C2383 1.490 . S
C2388 C2390 1.395 1_455 S
C2388 C2391 1.403 . S
H2389 C2395 0.930 . S
C2390 H2376 0.930 . S
C2390 C2388 1.395 1_655 S
C2390 C2393 1.403 . S
C2391 C2388 1.403 . S
C2391 C2392 1.524 . S
C2391 C2395 1.400 . S
C2392 H2377 0.960 . S
C2392 H2378 0.960 1_455 S
C2392 H2379 0.960 . S
C2392 C2391 1.524 . S
C2393 C2390 1.403 . S
C2393 C2394 1.392 . S
C2393 C2397 1.495 . S
C2394 C2393 1.392 . S
C2394 C2395 1.385 1_655 S
C2394 C2396 1.478 . S
C2395 H2389 0.930 . S
C2395 C2391 1.400 . S
C2395 C2394 1.385 1_455 S
C2396 C2394 1.478 . S
C2396 C2398 1.381 . S
C2396 C2402 1.383 1_655 S
C2397 C2393 1.495 . S
C2397 H2403 0.959 . S
C2397 H2404 0.961 . S
C2397 H2405 0.960 . S
C2398 C2396 1.381 . S
C2398 C2399 1.394 . S
C2398 H2406 0.930 . S
C2399 C2398 1.394 . S
C2399 C2400 1.383 . S
C2399 H2407 0.929 . S
C2400 C2399 1.383 . S
C2400 C2401 1.377 1_655 S
C2401 H2385 0.930 . S
C2401 C2400 1.377 1_455 S
C2401 C2402 1.379 . S
C2402 H2386 0.931 . S
C2402 C2396 1.383 1_455 S
C2402 C2401 1.379 . S
H2403 C2397 0.959 . S
H2404 C2397 0.961 . S
H2405 C2397 0.960 . S
H2406 C2398 0.930 . S
H2407 C2399 0.929 . S
H2408 C2416 0.929 . S
H2409 C2418 0.930 . S
H2410 C2420 0.930 . S
H2411 C2423 0.929 . S
H2412 C2426 0.930 . S
H2413 C2428 0.960 . S
H2414 C2428 0.960 . S
H2415 C2428 0.960 . S
C2416 H2408 0.929 . S
C2416 C2417 1.377 . S
C2416 C2418 1.384 . S
C2417 C2416 1.377 . S
C2417 C2423 1.390 . S
C2418 H2409 0.930 . S
C2418 C2416 1.384 . S
C2418 C2419 1.372 . S
C2419 C2418 1.372 . S
C2419 C2420 1.400 . S
C2419 C2424 1.490 . S
C2420 H2410 0.930 . S
C2420 C2419 1.400 . S
C2420 C2423 1.386 . S
H2421 C2437 0.930 . S
H2422 C2438 0.931 . S
C2423 H2411 0.929 . S
C2423 C2417 1.390 . S
C2423 C2420 1.386 . S
C2424 C2419 1.490 . S
C2424 C2426 1.395 . S
C2424 C2427 1.403 . S
H2425 C2431 0.930 . S
C2426 H2412 0.930 . S
C2426 C2424 1.395 . S
C2426 C2429 1.403 . S
C2427 C2424 1.403 . S
C2427 C2428 1.524 . S
C2427 C2431 1.400 . S
C2428 H2413 0.960 . S
C2428 H2414 0.960 . S
C2428 H2415 0.960 . S
C2428 C2427 1.524 . S
C2429 C2426 1.403 . S
C2429 C2430 1.392 . S
C2429 C2433 1.495 . S
C2430 C2429 1.392 . S
C2430 C2431 1.385 . S
C2430 C2432 1.478 . S
C2431 H2425 0.930 . S
C2431 C2427 1.400 . S
C2431 C2430 1.385 . S
C2432 C2430 1.478 . S
C2432 C2434 1.381 . S
C2432 C2438 1.383 . S
C2433 C2429 1.495 . S
C2433 H2439 0.959 . S
C2433 H2440 0.961 . S
C2433 H2441 0.960 . S
C2434 C2432 1.381 . S
C2434 C2435 1.394 . S
C2434 H2442 0.930 . S
C2435 C2434 1.394 . S
C2435 C2436 1.383 . S
C2435 H2443 0.929 . S
C2436 C2435 1.383 . S
C2436 C2437 1.377 . S
C2437 H2421 0.930 . S
C2437 C2436 1.377 . S
C2437 C2438 1.379 . S
C2438 H2422 0.931 . S
C2438 C2432 1.383 . S
C2438 C2437 1.379 . S
H2439 C2433 0.959 . S
H2440 C2433 0.961 . S
H2441 C2433 0.960 . S
H2442 C2434 0.930 . S
H2443 C2435 0.929 . S
H2444 C2452 0.929 . S
H2445 C2454 0.930 . S
H2446 C2456 0.930 . S
H2447 C2459 0.929 . S
H2448 C2462 0.930 . S
H2449 C2464 0.960 . S
H2450 C2464 0.960 . S
H2451 C2464 0.960 . S
C2452 H2444 0.929 . S
C2452 C2453 1.377 1_655 S
C2452 C2454 1.384 . S
C2453 C2452 1.377 1_455 S
C2453 C2459 1.390 . S
C2454 H2445 0.930 . S
C2454 C2452 1.384 . S
C2454 C2455 1.372 1_655 S
C2455 C2454 1.372 1_455 S
C2455 C2456 1.400 . S
C2455 C2460 1.490 . S
C2456 H2446 0.930 . S
C2456 C2455 1.400 . S
C2456 C2459 1.386 . S
H2457 C2473 0.930 1_455 S
H2458 C2474 0.931 1_455 S
C2459 H2447 0.929 . S
C2459 C2453 1.390 . S
C2459 C2456 1.386 . S
C2460 C2455 1.490 . S
C2460 C2462 1.395 1_455 S
C2460 C2463 1.403 . S
H2461 C2467 0.930 . S
C2462 H2448 0.930 . S
C2462 C2460 1.395 1_655 S
C2462 C2465 1.403 . S
C2463 C2460 1.403 . S
C2463 C2464 1.524 . S
C2463 C2467 1.400 . S
C2464 H2449 0.960 . S
C2464 H2450 0.960 . S
C2464 H2451 0.960 . S
C2464 C2463 1.524 . S
C2465 C2462 1.403 . S
C2465 C2466 1.392 . S
C2465 C2469 1.495 . S
C2466 C2465 1.392 . S
C2466 C2467 1.385 1_655 S
C2466 C2468 1.478 . S
C2467 H2461 0.930 . S
C2467 C2463 1.400 . S
C2467 C2466 1.385 1_455 S
C2468 C2466 1.478 . S
C2468 C2470 1.381 . S
C2468 C2474 1.383 . S
C2469 C2465 1.495 . S
C2469 H2475 0.959 . S
C2469 H2476 0.961 . S
C2469 H2477 0.960 . S
C2470 C2468 1.381 . S
C2470 C2471 1.394 . S
C2470 H2478 0.930 . S
C2471 C2470 1.394 . S
C2471 C2472 1.383 . S
C2471 H2479 0.929 . S
C2472 C2471 1.383 . S
C2472 C2473 1.377 . S
C2473 H2457 0.930 1_655 S
C2473 C2472 1.377 . S
C2473 C2474 1.379 . S
C2474 H2458 0.931 1_655 S
C2474 C2468 1.383 . S
C2474 C2473 1.379 . S
H2475 C2469 0.959 . S
H2476 C2469 0.961 . S
H2477 C2469 0.960 . S
H2478 C2470 0.930 . S
H2479 C2471 0.929 . S
C473 C15 2.247 . S
C492 C21 2.124 . S
C509 C50 2.150 . S
C528 C44 2.249 . S
C545 C79 2.149 . S
C564 C73 2.249 . S
C581 C108 2.156 . S
C600 C102 2.230 . S
C617 C131 2.241 . S
C636 C137 2.135 . S
C653 C160 2.243 . S
C672 C166 2.125 . S
C689 C189 2.243 . S
C708 C195 2.125 . S
C725 C224 2.157 . S
C744 C218 2.252 . S
C761 C253 2.156 . S
C780 C247 2.229 . S
C797 C276 2.241 . S
C816 C282 2.172 . S
C833 C305 2.244 . S
C852 C311 2.144 . S
C869 C340 2.156 . S
C888 C334 2.228 . S
C905 C369 2.147 . S
C924 C363 2.227 . S
C941 C398 2.150 . S
C960 C392 2.248 . S
C977 C427 2.151 . S
C996 C421 2.250 . S
C1013 C450 2.247 . S
C1032 C456 2.172 . S
C1049 C3 0.844 . S
C1068 C158 0.792 . S
C1085 C32 0.844 . S
C1104 C129 0.789 . S
C1121 C61 0.839 . S
C1140 C216 0.825 . S
C1157 C90 0.845 . S
C1176 C187 0.784 . S
C1193 C119 0.841 . S
C1212 C42 0.800 . S
C1229 C148 0.842 . S
C1248 C13 0.881 . S
C1265 C100 0.839 . S
C1284 C177 0.872 . S
C1301 C71 0.820 . S
C1320 C206 0.810 . S
C1337 C235 0.832 . S
C1356 C390 0.867 . S
C1373 C361 0.841 . S
C1392 C264 0.799 . S
C1409 C293 0.845 . S
C1428 C448 0.782 . S
C1445 C419 0.833 . S
C1464 C322 0.828 . S
C1481 C274 0.821 . S
C1500 C351 0.839 . S
C1517 C380 0.845 . S
C1536 C245 0.839 . S
C1553 C409 0.841 . S
C1572 C332 0.881 . S
C1589 C438 0.840 . S
C1608 C303 0.879 . S
C1625 C5 1.260 . S
C1644 C34 1.232 . S
C1661 C92 1.260 . S
C1680 C63 1.232 . S
C1697 C121 1.253 . S
C1716 C150 1.266 . S
C1733 C208 1.263 . S
C1752 C179 1.245 . S
C1769 C266 1.262 . S
C1788 C237 1.267 . S
C1805 C295 1.263 . S
C1824 C324 1.246 . S
C1841 C353 1.263 . S
C1860 C382 1.245 . S
C1877 C411 1.254 . S
C1896 C440 1.280 . S
C1913 C10 1.515 . S
C1932 C271 1.486 . S
C1949 C39 1.519 . S
C1968 C242 1.502 . S
C1985 C329 1.516 . S
C2004 C68 1.488 . S
C2021 C300 1.522 . S
C2040 C97 1.534 . S
C2057 C126 1.527 . S
C2076 C387 1.494 . S
C2093 C155 1.527 . S
C2112 C358 1.494 . S
C2129 C184 1.518 . S
C2148 C445 1.547 . S
C2165 C416 1.518 . S
C2184 C213 1.506 . S
C2201 C95 1.322 . S
C2220 C8 1.284 . S
C2237 C37 1.322 . S
C2256 C66 1.284 . S
C2273 C211 1.328 . S
C2292 C124 1.334 . S
C2309 C153 1.321 . S
C2328 C182 1.298 . S
C2345 C240 1.319 . S
C2364 C327 1.297 . S
C2381 C269 1.315 . S
C2400 C298 1.345 . S
C2417 C443 1.315 . S
C2436 C356 1.278 . S
C2453 C414 1.331 . S
C2472 C385 1.359 . S
