# Generated by pormake.
# Topology upa, (4)-cn, num edge types: 1
# Building blocks:
#     Node 0, Type 0, BuildingBlock: ICAMEG_clean_sbu_1, # of connection points: 4
#     Node 1, Type 0, BuildingBlock: ICAMEG_clean_sbu_1, # of connection points: 4
#     Node 2, Type 0, BuildingBlock: ICAMEG_clean_sbu_1, # of connection points: 4
#     Node 3, Type 0, BuildingBlock: ICAMEG_clean_sbu_1, # of connection points: 4
#     Node 4, Type 0, BuildingBlock: ICAMEG_clean_sbu_1, # of connection points: 4
#     Node 5, Type 0, BuildingBlock: ICAMEG_clean_sbu_1, # of connection points: 4
#     Node 6, Type 0, BuildingBlock: ICAMEG_clean_sbu_1, # of connection points: 4
#     Node 7, Type 0, BuildingBlock: ICAMEG_clean_sbu_1, # of connection points: 4
#     Edge 8, Type (0, 0), BuildingBlock: TEMPAE_clean_linker_10, # of connection points: 2
#     Edge 9, Type (0, 0), BuildingBlock: TEMPAE_clean_linker_10, # of connection points: 2
#     Edge 10, Type (0, 0), BuildingBlock: TEMPAE_clean_linker_10, # of connection points: 2
#     Edge 11, Type (0, 0), BuildingBlock: TEMPAE_clean_linker_10, # of connection points: 2
#     Edge 12, Type (0, 0), BuildingBlock: TEMPAE_clean_linker_10, # of connection points: 2
#     Edge 13, Type (0, 0), BuildingBlock: TEMPAE_clean_linker_10, # of connection points: 2
#     Edge 14, Type (0, 0), BuildingBlock: TEMPAE_clean_linker_10, # of connection points: 2
#     Edge 15, Type (0, 0), BuildingBlock: TEMPAE_clean_linker_10, # of connection points: 2
#     Edge 16, Type (0, 0), BuildingBlock: TEMPAE_clean_linker_10, # of connection points: 2
#     Edge 17, Type (0, 0), BuildingBlock: TEMPAE_clean_linker_10, # of connection points: 2
#     Edge 18, Type (0, 0), BuildingBlock: TEMPAE_clean_linker_10, # of connection points: 2
#     Edge 19, Type (0, 0), BuildingBlock: TEMPAE_clean_linker_10, # of connection points: 2
#     Edge 20, Type (0, 0), BuildingBlock: TEMPAE_clean_linker_10, # of connection points: 2
#     Edge 21, Type (0, 0), BuildingBlock: TEMPAE_clean_linker_10, # of connection points: 2
#     Edge 22, Type (0, 0), BuildingBlock: TEMPAE_clean_linker_10, # of connection points: 2
#     Edge 23, Type (0, 0), BuildingBlock: TEMPAE_clean_linker_10, # of connection points: 2
# Relax obj value: 0.137
# Max RMSD: 0.082
# Mean RMSD: 0.082
data_MOF--net-upa--node1-ICAMEG_clean_sbu_1--edge1-TEMPAE_clean_linker_10
_symmetry_space_group_name_H-M    P1
_symmetry_Int_Tables_number       1
_symmetry_cell_setting            triclinic
loop_
_symmetry_equiv_pos_as_xyz
'x, y, z'
_cell_length_a     26.504294
_cell_length_b     26.498905
_cell_length_c     51.226142
_cell_angle_alpha  90.045119
_cell_angle_beta   90.021936
_cell_angle_gamma 90.048811
loop_
_atom_site_label
_atom_site_type_symbol
_atom_site_fract_x
_atom_site_fract_y
_atom_site_fract_z
_atom_type_partial_charge
Co0 Co 0.16183 0.24654 0.35596 0.0
Co1 Co 0.21901 0.16167 0.31451 0.0
O2 O 0.22178 0.21432 0.34133 0.0
C3 C 0.21032 0.21089 0.40452 0.0
O4 O 0.21338 0.1661 0.39364 0.0
C5 C 0.29608 0.23378 0.29232 0.0
O6 O 0.26441 0.27163 0.29459 0.0
O7 O 0.17411 0.20401 0.2915 0.0
O8 O 0.12808 0.24529 0.32142 0.0
H9 H 0.13377 0.04668 0.25001 0.0
H10 H 0.26229 0.29242 0.36485 0.0
O11 O 0.19353 0.24813 0.39146 0.0
H12 H 0.16421 0.42146 0.31763 0.0
H13 H 0.06993 0.37125 0.41289 0.0
H14 H 0.0514 0.23181 0.3498 0.0
H15 H 0.12562 0.33977 0.32924 0.0
H16 H 0.145 0.3303 0.39392 0.0
O17 O 0.28235 0.18918 0.29825 0.0
H18 H 0.13746 0.11301 0.2837 0.0
H19 H 0.2968 0.09783 0.28824 0.0
H20 H 0.97539 0.27207 0.36806 0.0
H21 H 0.30231 0.37379 0.35382 0.0
H22 H 0.98437 0.34231 0.39987 0.0
H23 H 0.25318 0.4389 0.32997 0.0
O24 O 0.13044 0.17977 0.3639 0.0
H25 H 0.36535 0.12736 0.37438 0.0
H26 H 0.21468 0.05447 0.33229 0.0
H27 H 0.26616 1.0016 0.36153 0.0
H28 H 0.34224 0.03797 0.38276 0.0
H29 H 0.31246 0.17906 0.34524 0.0
H30 H 0.29482 0.03161 0.25441 0.0
H31 H 0.21286 0.00546 0.23513 0.0
O32 O 0.15753 0.13174 0.33064 0.0
C33 C 0.13553 0.23023 0.29812 0.0
C34 C 0.16972 0.05772 0.25827 0.0
C35 C 0.26011 0.04932 0.26072 0.0
N36 N 0.21728 0.10936 0.28795 0.0
C37 C 0.17206 0.09525 0.27738 0.0
C38 C 0.26101 0.08702 0.27979 0.0
C39 C 0.21411 0.03464 0.24992 0.0
C40 C 0.24058 0.32077 0.35467 0.0
N41 N 0.19165 0.31148 0.34779 0.0
C42 C 0.26348 0.36668 0.3484 0.0
C43 C 0.23591 0.40318 0.33498 0.0
C44 C 0.186 0.3934 0.32804 0.0
C45 C 0.16438 0.34703 0.33461 0.0
C46 C 0.06553 0.34074 0.39902 0.0
C47 C 0.05567 0.26256 0.3635 0.0
C48 C 0.1079 0.31732 0.38826 0.0
N49 N 0.10262 0.27893 0.37062 0.0
C50 C 0.01246 0.28511 0.37383 0.0
C51 C 0.01753 0.32449 0.3917 0.0
C52 C 0.12905 0.13941 0.35029 0.0
C53 C 0.33237 0.11103 0.36521 0.0
C54 C 0.24753 0.07067 0.34154 0.0
C55 C 0.27665 0.04049 0.35803 0.0
C56 C 0.31934 0.06091 0.36992 0.0
N57 N 0.26061 0.11977 0.33694 0.0
C58 C 0.30235 0.14008 0.3486 0.0
Co59 Co 0.27151 0.6645 0.85778 0.0
Co60 Co 0.34963 0.72925 0.81628 0.0
O61 O 0.29528 0.72785 0.84229 0.0
C62 C 0.28976 0.72743 0.90464 0.0
O63 O 0.33129 0.74378 0.89356 0.0
C64 C 0.27251 0.80072 0.79319 0.0
O65 O 0.23597 0.76785 0.79653 0.0
O66 O 0.31204 0.68013 0.79338 0.0
O67 O 0.28306 0.62771 0.82435 0.0
H68 H 0.474 0.65219 0.75385 0.0
H69 H 0.20789 0.75576 0.8623 0.0
O70 O 0.26006 0.69818 0.89228 0.0
H71 H 0.10445 0.63227 0.81396 0.0
H72 H 0.15689 0.55779 0.91348 0.0
H73 H 0.30653 0.55812 0.85637 0.0
H74 H 0.18993 0.60996 0.82911 0.0
H75 H 0.18637 0.63676 0.89308 0.0
O76 O 0.31781 0.78921 0.79887 0.0
H77 H 0.40582 0.65125 0.78655 0.0
H78 H 0.40828 0.81144 0.79025 0.0
H79 H 0.27813 0.47827 0.87613 0.0
H80 H 0.12238 0.77958 0.84771 0.0
H81 H 0.20277 0.47775 0.90496 0.0
H82 H 0.07012 0.71761 0.82329 0.0
O83 O 0.34127 0.64687 0.86881 0.0
H84 H 0.36845 0.88177 0.87393 0.0
H85 H 0.45578 0.73507 0.83573 0.0
H86 H 0.50258 0.79283 0.86469 0.0
H87 H 0.45894 0.86695 0.88394 0.0
H88 H 0.32287 0.82259 0.8452 0.0
H89 H 0.47609 0.81406 0.75735 0.0
H90 H 0.5096 0.73403 0.73901 0.0
O91 O 0.38458 0.67123 0.83345 0.0
C92 C 0.29509 0.63719 0.80077 0.0
C93 C 0.45975 0.68732 0.76171 0.0
C94 C 0.46088 0.77816 0.76366 0.0
N95 N 0.40311 0.73122 0.79039 0.0
C96 C 0.42118 0.68704 0.78028 0.0
C97 C 0.42231 0.77643 0.78222 0.0
C98 C 0.47969 0.73325 0.75338 0.0
C99 C 0.18514 0.7285 0.85189 0.0
N100 N 0.2037 0.6815 0.84668 0.0
C101 C 0.13685 0.74223 0.84359 0.0
C102 C 0.10758 0.70746 0.82986 0.0
C103 C 0.12683 0.65959 0.8246 0.0
C104 C 0.1753 0.64721 0.83317 0.0
C105 C 0.18967 0.55749 0.90088 0.0
C106 C 0.27346 0.55817 0.86866 0.0
C107 C 0.20657 0.6021 0.88929 0.0
N108 N 0.24785 0.60199 0.8733 0.0
C109 C 0.25766 0.51284 0.8799 0.0
C110 C 0.21543 0.5126 0.89609 0.0
C111 C 0.38097 0.64665 0.85477 0.0
C112 C 0.38793 0.84967 0.86561 0.0
C113 C 0.43639 0.76696 0.84418 0.0
C114 C 0.46316 0.79968 0.86048 0.0
C115 C 0.43867 0.84129 0.87125 0.0
N116 N 0.38663 0.77543 0.8387 0.0
C117 C 0.36237 0.81614 0.84922 0.0
Co118 Co 0.84091 0.76287 0.35786 0.0
Co119 Co 0.78161 0.83689 0.31153 0.0
O120 O 0.78002 0.78776 0.34033 0.0
C121 C 0.78488 0.80064 0.40393 0.0
O122 O 0.77939 0.84381 0.39168 0.0
C123 C 0.70436 0.75808 0.29597 0.0
O124 O 0.72605 0.72482 0.3112 0.0
O125 O 0.83262 0.79567 0.29177 0.0
O126 O 0.87846 0.76218 0.32424 0.0
H127 H 0.86638 0.94921 0.24576 0.0
H128 H 0.74541 0.7079 0.36799 0.0
O129 O 0.80567 0.76347 0.39245 0.0
H130 H 0.85823 0.58346 0.32662 0.0
H131 H 0.9368 0.6557 0.42209 0.0
H132 H 0.95008 0.78688 0.3542 0.0
H133 H 0.88729 0.67046 0.33474 0.0
H134 H 0.86073 0.68652 0.39943 0.0
O135 O 0.72364 0.80189 0.2932 0.0
H136 H 0.86315 0.88763 0.28176 0.0
H137 H 0.70289 0.89074 0.28039 0.0
H138 H 0.02711 0.75678 0.37618 0.0
H139 H 0.7151 0.62099 0.36068 0.0
H140 H 0.02077 0.69074 0.41042 0.0
H141 H 0.7716 0.55816 0.33971 0.0
O142 O 0.8652 0.8329 0.3641 0.0
H143 H 0.62547 0.86616 0.36527 0.0
H144 H 0.77432 0.94615 0.32504 0.0
H145 H 0.71471 0.99824 0.35025 0.0
H146 H 0.63951 0.95829 0.37051 0.0
H147 H 0.68628 0.81541 0.34016 0.0
H148 H 0.70444 0.952 0.24419 0.0
H149 H 0.78661 0.98182 0.22671 0.0
O150 O 0.83782 0.87459 0.32874 0.0
C151 C 0.87221 0.7734 0.30028 0.0
C152 C 0.83033 0.93655 0.25323 0.0
C153 C 0.73945 0.93805 0.25233 0.0
N154 N 0.7829 0.88559 0.28322 0.0
C155 C 0.82825 0.90172 0.27364 0.0
C156 C 0.73883 0.90319 0.27276 0.0
C157 C 0.78557 0.9548 0.24253 0.0
C158 C 0.7704 0.68062 0.35912 0.0
N159 N 0.81798 0.69433 0.3517 0.0
C160 C 0.75294 0.63153 0.35491 0.0
C161 C 0.78463 0.59633 0.3431 0.0
C162 C 0.8332 0.61053 0.3357 0.0
C163 C 0.84934 0.65997 0.3402 0.0
C164 C 0.94006 0.68441 0.40716 0.0
C165 C 0.947 0.75788 0.36894 0.0
C166 C 0.89711 0.70207 0.39429 0.0
N167 N 0.90097 0.73818 0.37535 0.0
C168 C 0.99076 0.74109 0.38138 0.0
C169 C 0.98717 0.70408 0.4006 0.0
C170 C 0.86436 0.87177 0.34946 0.0
C171 C 0.65795 0.88406 0.35642 0.0
C172 C 0.74175 0.92842 0.3338 0.0
C173 C 0.70807 0.95816 0.34804 0.0
C174 C 0.66589 0.93573 0.35939 0.0
N175 N 0.73354 0.8778 0.3308 0.0
C176 C 0.69242 0.85552 0.34203 0.0
Co177 Co 0.75186 0.34784 0.85751 0.0
Co178 Co 0.66833 0.29296 0.8146 0.0
O179 O 0.72025 0.2887 0.84167 0.0
C180 C 0.71489 0.29496 0.90437 0.0
O181 O 0.67099 0.29172 0.89259 0.0
C182 C 0.74111 0.21691 0.79222 0.0
O183 O 0.77878 0.24868 0.79503 0.0
O184 O 0.71154 0.33886 0.7926 0.0
O185 O 0.7512 0.38395 0.82352 0.0
H186 H 0.55601 0.38153 0.75021 0.0
H187 H 0.79819 0.24721 0.86487 0.0
O188 O 0.75258 0.31375 0.89241 0.0
H189 H 0.92755 0.34932 0.82016 0.0
H190 H 0.87458 0.43668 0.91693 0.0
H191 H 0.73653 0.45851 0.85338 0.0
H192 H 0.84534 0.38649 0.83195 0.0
H193 H 0.83459 0.36265 0.89625 0.0
O194 O 0.69625 0.23033 0.79778 0.0
H195 H 0.62108 0.37607 0.78447 0.0
H196 H 0.6051 0.21659 0.78676 0.0
H197 H 0.77579 0.53353 0.87337 0.0
H198 H 0.88007 0.20858 0.85362 0.0
H199 H 0.84533 0.52288 0.90542 0.0
H200 H 0.94534 0.25975 0.83103 0.0
O201 O 0.68481 0.37802 0.86566 0.0
H202 H 0.63165 0.14382 0.87221 0.0
H203 H 0.56061 0.29662 0.83152 0.0
H204 H 0.50662 0.24378 0.85957 0.0
H205 H 0.54205 0.16664 0.88008 0.0
H206 H 0.68448 0.19808 0.84429 0.0
H207 H 0.54011 0.22033 0.75236 0.0
H208 H 0.51501 0.30327 0.73392 0.0
O209 O 0.63794 0.35371 0.83138 0.0
C210 C 0.73705 0.37746 0.79998 0.0
C211 C 0.56657 0.34517 0.75811 0.0
C212 C 0.55772 0.2547 0.75929 0.0
N213 N 0.6169 0.29608 0.78765 0.0
C214 C 0.60338 0.34183 0.77754 0.0
C215 C 0.5947 0.2528 0.7787 0.0
C216 C 0.54362 0.30124 0.74896 0.0
C217 C 0.82661 0.26979 0.85525 0.0
N218 N 0.81714 0.31907 0.84918 0.0
C219 C 0.87281 0.24769 0.84884 0.0
C220 C 0.9094 0.2764 0.83614 0.0
C221 C 0.89942 0.32665 0.83001 0.0
C222 C 0.85277 0.34746 0.83669 0.0
C223 C 0.84438 0.44181 0.90295 0.0
C224 C 0.76699 0.45354 0.86717 0.0
C225 C 0.82153 0.40004 0.89122 0.0
N226 N 0.78355 0.40625 0.87346 0.0
C227 C 0.78898 0.49618 0.87849 0.0
C228 C 0.82796 0.49017 0.89648 0.0
C229 C 0.64488 0.38042 0.85179 0.0
C230 C 0.61572 0.17726 0.86332 0.0
C231 C 0.5764 0.26327 0.84045 0.0
C232 C 0.54559 0.2334 0.85627 0.0
C233 C 0.56548 0.19011 0.86776 0.0
N234 N 0.62561 0.25034 0.83611 0.0
C235 C 0.6454 0.20803 0.84739 0.0
Co236 Co 0.66364 0.25278 0.14676 0.0
Co237 Co 0.71984 0.33314 0.19075 0.0
O238 O 0.7233 0.28285 0.16282 0.0
C239 C 0.7162 0.2915 0.10012 0.0
O240 O 0.71978 0.33496 0.11233 0.0
C241 C 0.79578 0.25898 0.21211 0.0
O242 O 0.76341 0.2217 0.20976 0.0
O243 O 0.67424 0.28874 0.21229 0.0
O244 O 0.62798 0.25198 0.18087 0.0
H245 H 0.63326 0.44175 0.25757 0.0
H246 H 0.76367 0.20574 0.13849 0.0
O247 O 0.69733 0.25347 0.11175 0.0
H248 H 0.66037 0.07502 0.18139 0.0
H249 H 0.57258 0.13451 0.08582 0.0
H250 H 0.55326 0.26919 0.15154 0.0
H251 H 0.6241 0.1583 0.17095 0.0
H252 H 0.64734 0.17238 0.10684 0.0
O253 O 0.78276 0.30399 0.20663 0.0
H254 H 0.63764 0.3789 0.22216 0.0
H255 H 0.79711 0.39425 0.21917 0.0
H256 H 0.47753 0.23201 0.13122 0.0
H257 H 0.80142 0.12281 0.14839 0.0
H258 H 0.48692 0.16417 0.09808 0.0
H259 H 0.74965 0.05684 0.17006 0.0
O260 O 0.63422 0.32063 0.13972 0.0
H261 H 0.86757 0.37287 0.1327 0.0
H262 H 0.71627 0.44192 0.17576 0.0
H263 H 0.76864 0.49749 0.1483 0.0
H264 H 0.84503 0.46306 0.12661 0.0
H265 H 0.81377 0.31848 0.16006 0.0
H266 H 0.79445 0.45701 0.25471 0.0
H267 H 0.71208 0.4813 0.27409 0.0
O268 O 0.65886 0.36478 0.17489 0.0
C269 C 0.63514 0.26431 0.20464 0.0
C270 C 0.66939 0.43152 0.24927 0.0
C271 C 0.75986 0.44002 0.24769 0.0
N272 N 0.71756 0.38288 0.21857 0.0
C273 C 0.67211 0.39597 0.22918 0.0
C274 C 0.76113 0.4043 0.22763 0.0
C275 C 0.71362 0.45366 0.25854 0.0
C276 C 0.74083 0.17704 0.14772 0.0
N277 N 0.69171 0.18672 0.15402 0.0
C278 C 0.76244 0.13023 0.15336 0.0
C279 C 0.73339 0.09326 0.16555 0.0
C280 C 0.6833 0.10345 0.17193 0.0
C281 C 0.663 0.1507 0.16602 0.0
C282 C 0.568 0.16396 0.10028 0.0
C283 C 0.55768 0.23945 0.13727 0.0
C284 C 0.61019 0.18562 0.1122 0.0
N285 N 0.60467 0.22267 0.13056 0.0
C286 C 0.51464 0.21864 0.12577 0.0
C287 C 0.51994 0.18062 0.10717 0.0
C288 C 0.6321 0.35954 0.15437 0.0
C289 C 0.83447 0.38837 0.14212 0.0
C290 C 0.7493 0.42658 0.16632 0.0
C291 C 0.7789 0.45828 0.15083 0.0
C292 C 0.82177 0.43894 0.13868 0.0
N293 N 0.76209 0.37705 0.16969 0.0
C294 C 0.80397 0.35779 0.15774 0.0
Co295 Co 0.24177 0.17019 0.64642 0.0
Co296 Co 0.16636 0.22771 0.69266 0.0
O297 O 0.21585 0.23048 0.66409 0.0
C298 C 0.20425 0.2259 0.6002 0.0
O299 O 0.16066 0.23058 0.61214 0.0
C300 C 0.2452 0.30304 0.71011 0.0
O301 O 0.28005 0.27811 0.69732 0.0
O302 O 0.20806 0.17707 0.71244 0.0
O303 O 0.24226 0.13212 0.67983 0.0
H304 H 0.05446 0.14065 0.75781 0.0
H305 H 0.29524 0.26693 0.63753 0.0
O306 O 0.24151 0.20595 0.61198 0.0
H307 H 0.42068 0.15486 0.6786 0.0
H308 H 0.35158 0.07674 0.58239 0.0
H309 H 0.21901 0.06064 0.64939 0.0
H310 H 0.33445 0.12449 0.66956 0.0
H311 H 0.31932 0.15203 0.60523 0.0
O312 O 0.20018 0.2861 0.71106 0.0
H313 H 0.11666 0.14514 0.72213 0.0
H314 H 0.11053 0.30532 0.72362 0.0
H315 H 0.25055 0.98437 0.62721 0.0
H316 H 0.38133 0.29863 0.64583 0.0
H317 H 0.3173 0.99213 0.59342 0.0
H318 H 0.44464 0.24249 0.66664 0.0
O319 O 0.17213 0.14504 0.63973 0.0
H320 H 0.13593 0.38437 0.6396 0.0
H321 H 0.05726 0.23349 0.67849 0.0
H322 H 0.00494 0.29266 0.65314 0.0
H323 H 0.04423 0.36888 0.63355 0.0
H324 H 0.18694 0.32393 0.66485 0.0
H325 H 0.04861 0.30253 0.7595 0.0
H326 H 0.01998 0.21975 0.77677 0.0
O327 O 0.12982 0.1711 0.67517 0.0
C328 C 0.23075 0.1378 0.70379 0.0
C329 C 0.06659 0.17696 0.75045 0.0
C330 C 0.06338 0.2678 0.75142 0.0
N331 N 0.11725 0.22543 0.72077 0.0
C332 C 0.10178 0.17975 0.73021 0.0
C333 C 0.09863 0.26914 0.73117 0.0
C334 C 0.0473 0.22135 0.76108 0.0
C335 C 0.32276 0.24211 0.64632 0.0
N336 N 0.30981 0.19396 0.65309 0.0
C337 C 0.37137 0.26034 0.65109 0.0
C338 C 0.40684 0.22886 0.66281 0.0
C339 C 0.3934 0.17971 0.66957 0.0
C340 C 0.34442 0.1628 0.66453 0.0
C341 C 0.32257 0.07285 0.59712 0.0
C342 C 0.2483 0.06435 0.63484 0.0
C343 C 0.30409 0.11537 0.61009 0.0
N344 N 0.26759 0.11073 0.62879 0.0
C345 C 0.26591 0.02101 0.62229 0.0
C346 C 0.30333 0.02539 0.60332 0.0
C347 C 0.13317 0.14501 0.65432 0.0
C348 C 0.11833 0.3514 0.64812 0.0
C349 C 0.0747 0.26644 0.66997 0.0
C350 C 0.04484 0.29989 0.65568 0.0
C351 C 0.0669 0.34265 0.64471 0.0
N352 N 0.12509 0.27539 0.67336 0.0
C353 C 0.147 0.31713 0.66255 0.0
Co354 Co 0.35142 0.73832 0.1482 0.0
Co355 Co 0.28119 0.65888 0.18695 0.0
O356 O 0.28608 0.71389 0.16123 0.0
C357 C 0.28287 0.73835 0.10064 0.0
O358 O 0.244 0.72184 0.11396 0.0
C359 C 0.20839 0.73505 0.2098 0.0
O360 O 0.24273 0.77079 0.20914 0.0
O361 O 0.32694 0.69588 0.21177 0.0
O362 O 0.38258 0.72759 0.18312 0.0
H363 H 0.34958 0.53328 0.25137 0.0
H364 H 0.25931 0.8017 0.14168 0.0
O365 O 0.32466 0.74818 0.11184 0.0
H366 H 0.37845 0.90614 0.19211 0.0
H367 H 0.467 0.85241 0.09708 0.0
H368 H 0.45733 0.70442 0.15516 0.0
H369 H 0.40232 0.82064 0.17775 0.0
H370 H 0.38481 0.82259 0.1136 0.0
O371 O 0.21919 0.69045 0.20246 0.0
H372 H 0.35496 0.60216 0.21919 0.0
H373 H 0.19573 0.59964 0.20955 0.0
H374 H 0.54023 0.73322 0.1393 0.0
H375 H 0.2341 0.88706 0.15538 0.0
H376 H 0.54547 0.80775 0.11003 0.0
H377 H 0.29384 0.93998 0.18085 0.0
O378 O 0.37104 0.66874 0.13797 0.0
H379 H 0.13492 0.63985 0.12515 0.0
H380 H 0.27923 0.55349 0.16617 0.0
H381 H 0.22541 0.50698 0.13516 0.0
H382 H 0.15251 0.55014 0.11446 0.0
H383 H 0.19019 0.68518 0.15598 0.0
H384 H 0.18865 0.53111 0.24186 0.0
H385 H 0.26596 0.49728 0.26292 0.0
O386 O 0.34144 0.62425 0.17181 0.0
C387 C 0.37005 0.71468 0.20614 0.0
C388 C 0.31562 0.54766 0.2423 0.0
C389 C 0.2253 0.54649 0.23699 0.0
N390 N 0.27574 0.60488 0.2124 0.0
C391 C 0.31842 0.58664 0.22402 0.0
C392 C 0.22955 0.58545 0.21877 0.0
C393 C 0.26869 0.5275 0.24879 0.0
C394 C 0.28585 0.8246 0.15235 0.0
N395 N 0.33257 0.80636 0.15844 0.0
C396 C 0.27122 0.87289 0.16023 0.0
C397 C 0.30471 0.90253 0.17457 0.0
C398 C 0.35217 0.88356 0.18089 0.0
C399 C 0.36546 0.83508 0.1727 0.0
C400 C 0.46521 0.81995 0.10986 0.0
C401 C 0.45925 0.73707 0.14257 0.0
C402 C 0.41877 0.80282 0.11923 0.0
N403 N 0.41626 0.76202 0.13549 0.0
C404 C 0.50633 0.75311 0.13358 0.0
C405 C 0.50923 0.79489 0.11714 0.0
C406 C 0.36924 0.62863 0.15164 0.0
C407 C 0.16659 0.62063 0.13403 0.0
C408 C 0.248 0.57276 0.15703 0.0
C409 C 0.21745 0.54611 0.13959 0.0
C410 C 0.17651 0.57032 0.12801 0.0
N411 N 0.23815 0.62217 0.16278 0.0
C412 C 0.19797 0.64607 0.15156 0.0
Co413 Co 0.75736 0.84953 0.64753 0.0
Co414 Co 0.84036 0.79294 0.69009 0.0
O415 O 0.78856 0.78974 0.66288 0.0
C416 C 0.79395 0.79902 0.59972 0.0
O417 O 0.83832 0.79584 0.61103 0.0
C418 C 0.76727 0.71675 0.71238 0.0
O419 O 0.72969 0.74869 0.71001 0.0
O420 O 0.79745 0.83861 0.71244 0.0
O421 O 0.75794 0.88441 0.68181 0.0
H422 H 0.95339 0.87922 0.75512 0.0
H423 H 0.71072 0.74922 0.63919 0.0
O424 O 0.75647 0.81667 0.61229 0.0
H425 H 0.58143 0.85016 0.68461 0.0
H426 H 0.63524 0.94078 0.5889 0.0
H427 H 0.77308 0.96001 0.65283 0.0
H428 H 0.66378 0.88756 0.67324 0.0
H429 H 0.67486 0.86593 0.60882 0.0
O430 O 0.81201 0.73008 0.70648 0.0
H431 H 0.88821 0.875 0.72087 0.0
H432 H 0.90296 0.71549 0.71739 0.0
H433 H 0.73417 0.03582 0.6336 0.0
H434 H 0.62869 0.71036 0.64999 0.0
H435 H 0.66473 0.02648 0.60137 0.0
H436 H 0.56344 0.76093 0.67294 0.0
O437 O 0.82465 0.87994 0.63981 0.0
H438 H 0.87581 0.64505 0.63137 0.0
H439 H 0.94819 0.79616 0.67331 0.0
H440 H 1.00174 0.74369 0.64485 0.0
H441 H 0.96562 0.66739 0.62371 0.0
H442 H 0.82344 0.69893 0.65972 0.0
H443 H 0.96803 0.718 0.75178 0.0
H444 H 0.99381 0.80032 0.77082 0.0
O445 O 0.8712 0.85387 0.67382 0.0
C446 C 0.77197 0.87734 0.70531 0.0
C447 C 0.94252 0.84312 0.74697 0.0
C448 C 0.95067 0.75263 0.74512 0.0
N449 N 0.89175 0.79507 0.7171 0.0
C450 C 0.90564 0.84048 0.72754 0.0
C451 C 0.91363 0.75144 0.72572 0.0
C452 C 0.96515 0.79884 0.75578 0.0
C453 C 0.68232 0.77155 0.64897 0.0
N454 N 0.69191 0.82063 0.65547 0.0
C455 C 0.63603 0.74932 0.65512 0.0
C456 C 0.59946 0.77769 0.66802 0.0
C457 C 0.60954 0.82775 0.67459 0.0
C458 C 0.65628 0.8487 0.66816 0.0
C459 C 0.6654 0.94534 0.60295 0.0
C460 C 0.74268 0.95559 0.63894 0.0
C461 C 0.68806 0.9031 0.61426 0.0
N462 N 0.726 0.90858 0.63212 0.0
C463 C 0.72089 0.99868 0.62806 0.0
C464 C 0.68196 0.99342 0.60996 0.0
C465 C 0.86452 0.88154 0.65377 0.0
C466 C 0.89202 0.67813 0.64052 0.0
C467 C 0.9321 0.76322 0.66409 0.0
C468 C 0.96266 0.73354 0.64805 0.0
C469 C 0.94239 0.69072 0.6362 0.0
N470 N 0.88276 0.75057 0.66829 0.0
C471 C 0.8626 0.70871 0.65668 0.0
C472 C 0.05119 0.10902 0.3737 0.0
C473 C 0.09104 0.09996 0.35628 0.0
C474 C 0.01231 0.07337 0.37697 0.0
C475 C 0.01351 0.02779 0.36251 0.0
C476 C 0.05477 0.01757 0.34583 0.0
C477 C 0.09284 0.05367 0.34293 0.0
C478 C 0.96893 0.08541 0.39499 0.0
C479 C 0.05762 0.96943 0.33003 0.0
C480 C 0.9339 0.91161 0.37575 0.0
C481 C 0.89798 0.91494 0.35568 0.0
C482 C 0.96993 0.94989 0.37946 0.0
C483 C 0.97 0.99235 0.3627 0.0
C484 C 0.93195 0.99737 0.34349 0.0
C485 C 0.89648 0.95868 0.34023 0.0
C486 C 0.00976 0.94336 0.40025 0.0
C487 C 0.93065 0.04205 0.32518 0.0
H488 H 0.04939 0.14461 0.3841 0.0
H489 H 0.12341 0.04596 0.32949 0.0
H490 H 0.93442 0.09241 0.38328 0.0
H491 H 0.96092 0.05295 0.40802 0.0
H492 H 0.97654 0.1193 0.40716 0.0
H493 H 0.09387 0.96583 0.3193 0.0
H494 H 0.05317 0.93611 0.34292 0.0
H495 H 0.02635 0.96849 0.31562 0.0
H496 H 0.93526 0.87819 0.38792 0.0
H497 H 0.86869 0.96205 0.32481 0.0
H498 H 0.01506 0.97892 0.41137 0.0
H499 H 0.04634 0.93409 0.39089 0.0
H500 H 1.00009 0.91263 0.41412 0.0
H501 H 0.93373 0.07788 0.33627 0.0
H502 H 0.89556 0.04307 0.31331 0.0
H503 H 0.96336 0.0402 0.31169 0.0
C504 C 0.41742 0.5746 0.8805 0.0
C505 C 0.42324 0.61253 0.86163 0.0
C506 C 0.4545 0.53725 0.88385 0.0
C507 C 0.4983 0.5381 0.86801 0.0
C508 C 0.50591 0.57829 0.85029 0.0
C509 C 0.46835 0.6149 0.84732 0.0
C510 C 0.44521 0.49511 0.90305 0.0
C511 C 0.55209 0.58074 0.83303 0.0
C512 C 0.61316 0.45446 0.87783 0.0
C513 C 0.60512 0.41752 0.85862 0.0
C514 C 0.5774 0.49273 0.88223 0.0
C515 C 0.53275 0.49393 0.86705 0.0
C516 C 0.52334 0.45533 0.84859 0.0
C517 C 0.55956 0.41775 0.8446 0.0
C518 C 0.58854 0.53317 0.90217 0.0
C519 C 0.47616 0.45513 0.83197 0.0
H520 H 0.38288 0.57254 0.89177 0.0
H521 H 0.47361 0.64423 0.83284 0.0
H522 H 0.43501 0.46024 0.89226 0.0
H523 H 0.47984 0.48692 0.91445 0.0
H524 H 0.41406 0.50419 0.91678 0.0
H525 H 0.5549 0.61716 0.82238 0.0
H526 H 0.58688 0.57552 0.84475 0.0
H527 H 0.55064 0.54976 0.81845 0.0
H528 H 0.64811 0.45459 0.88883 0.0
H529 H 0.55261 0.38934 0.82981 0.0
H530 H 0.55508 0.53999 0.91469 0.0
H531 H 0.5973 0.5691 0.89202 0.0
H532 H 0.62111 0.52315 0.91479 0.0
H533 H 0.44211 0.45862 0.84443 0.0
H534 H 0.47266 0.42026 0.82004 0.0
H535 H 0.47663 0.48805 0.81859 0.0
C536 C 0.59532 0.44446 0.1634 0.0
C537 C 0.59548 0.40018 0.14831 0.0
C538 C 0.55852 0.48162 0.15986 0.0
C539 C 0.52064 0.47452 0.14075 0.0
C540 C 0.52164 0.43108 0.12463 0.0
C541 C 0.55912 0.39432 0.1286 0.0
C542 C 0.55887 0.52743 0.17748 0.0
C543 C 0.4819 0.42239 0.10401 0.0
C544 C 0.39988 0.54084 0.15934 0.0
C545 C 0.40397 0.58641 0.14552 0.0
C546 C 0.43604 0.50275 0.15663 0.0
C547 C 0.47758 0.51033 0.13975 0.0
C548 C 0.48056 0.55492 0.1246 0.0
C549 C 0.44361 0.59249 0.12763 0.0
C550 C 0.43138 0.45574 0.17315 0.0
C551 C 0.52431 0.56429 0.1064 0.0
H552 H 0.62325 0.44971 0.17861 0.0
H553 H 0.55894 0.36036 0.11679 0.0
H554 H 0.55703 0.5625 0.16572 0.0
H555 H 0.52513 0.5268 0.1903 0.0
H556 H 0.59303 0.52907 0.19003 0.0
H557 H 0.4913 0.39002 0.09111 0.0
H558 H 0.4451 0.41467 0.11354 0.0
H559 H 0.47711 0.45665 0.09183 0.0
H560 H 0.36934 0.53546 0.17311 0.0
H561 H 0.4471 0.62746 0.11682 0.0
H562 H 0.46153 0.45556 0.1882 0.0
H563 H 0.43639 0.42147 0.16099 0.0
H564 H 0.39431 0.45333 0.1832 0.0
H565 H 0.55879 0.5721 0.11801 0.0
H566 H 0.51739 0.59695 0.09329 0.0
H567 H 0.53194 0.53039 0.09431 0.0
C568 C 0.04608 0.11285 0.66287 0.0
C569 C 0.09042 0.11098 0.6479 0.0
C570 C 0.00759 0.07722 0.65949 0.0
C571 C 0.01347 0.03852 0.6407 0.0
C572 C 0.05664 0.03808 0.62442 0.0
C573 C 0.09468 0.07437 0.6282 0.0
C574 C 0.96214 0.07915 0.67728 0.0
C575 C 0.06411 0.99751 0.6041 0.0
C576 C 0.95047 0.91711 0.66135 0.0
C577 C 0.90463 0.91878 0.64762 0.0
C578 C 0.98715 0.95456 0.65819 0.0
C579 C 0.97794 0.99508 0.64089 0.0
C580 C 0.93287 0.99601 0.62601 0.0
C581 C 0.89665 0.95775 0.62953 0.0
C582 C 0.03471 0.95199 0.67444 0.0
C583 C 0.92187 0.03861 0.60734 0.0
H584 H 0.04201 0.14112 0.67801 0.0
H585 H 0.12861 0.07269 0.61642 0.0
H586 H 0.9268 0.07579 0.6658 0.0
H587 H 0.96333 0.04683 0.69104 0.0
H588 H 0.96065 0.1146 0.68885 0.0
H589 H 0.09539 0.00675 0.59047 0.0
H590 H 0.07307 0.96129 0.61391 0.0
H591 H 0.02904 0.9917 0.59265 0.0
H592 H 0.95735 0.8872 0.6753 0.0
H593 H 0.86143 0.95942 0.61881 0.0
H594 H 0.03523 0.98365 0.68864 0.0
H595 H 0.0685 0.956 0.66184 0.0
H596 H 0.03781 0.91602 0.68546 0.0
H597 H 0.91434 0.07364 0.61854 0.0
H598 H 0.88861 0.03051 0.59481 0.0
H599 H 0.95499 0.046 0.59466 0.0
C600 C 0.21972 0.26543 0.44417 0.0
C601 C 0.21851 0.21704 0.43298 0.0
C602 C 0.22084 0.27192 0.47138 0.0
C603 C 0.22007 0.22903 0.48782 0.0
C604 C 0.22065 0.18011 0.47664 0.0
C605 C 0.22023 0.17471 0.44936 0.0
C606 C 0.22119 0.32468 0.48253 0.0
C607 C 0.21958 0.13338 0.4935 0.0
C608 C 0.25588 0.23488 0.55959 0.0
C609 C 0.20837 0.23487 0.57172 0.0
C610 C 0.26036 0.23528 0.53228 0.0
C611 C 0.21627 0.23501 0.51669 0.0
C612 C 0.16826 0.2373 0.5288 0.0
C613 C 0.1649 0.23758 0.55618 0.0
C614 C 0.31224 0.23381 0.52014 0.0
C615 C 0.12031 0.23682 0.51287 0.0
H616 H 0.21866 0.29839 0.43166 0.0
H617 H 0.21911 0.13721 0.44091 0.0
H618 H 0.18512 0.33198 0.49284 0.0
H619 H 0.25196 0.32871 0.49708 0.0
H620 H 0.22617 0.35388 0.46719 0.0
H621 H 0.22203 0.09813 0.48181 0.0
H622 H 0.25133 0.13407 0.5076 0.0
H623 H 0.1841 0.13251 0.50499 0.0
H624 H 0.28971 0.23309 0.57146 0.0
H625 H 0.12806 0.23736 0.56536 0.0
H626 H 0.31573 0.26326 0.50486 0.0
H627 H 0.31818 0.19676 0.51053 0.0
H628 H 0.3426 0.23951 0.53481 0.0
H629 H 0.12116 0.26731 0.49806 0.0
H630 H 0.08612 0.24166 0.52516 0.0
H631 H 0.11719 0.20047 0.50222 0.0
C632 C 0.29823 0.77925 0.94539 0.0
C633 C 0.28162 0.73523 0.9329 0.0
C634 C 0.29399 0.78462 0.97264 0.0
C635 C 0.27469 0.74414 0.98774 0.0
C636 C 0.25717 0.69996 0.97508 0.0
C637 C 0.26002 0.69645 0.9478 0.0
C638 C 0.31141 0.83302 0.98532 0.0
C639 C 0.23805 0.65516 0.9904 0.0
C640 C 0.32302 0.72947 0.05707 0.0
C641 C 0.28037 0.74198 0.07189 0.0
C642 C 0.32162 0.73027 0.02972 0.0
C643 C 0.27701 0.7458 0.01681 0.0
C644 C 0.23428 0.76015 0.03171 0.0
C645 C 0.23613 0.75707 0.05914 0.0
C646 C 0.36747 0.71293 0.01466 0.0
C647 C 0.18668 0.7786 0.01869 0.0
H648 H 0.3147 0.80935 0.93387 0.0
H649 H 0.24768 0.66206 0.93824 0.0
H650 H 0.28262 0.84675 0.99935 0.0
H651 H 0.34658 0.8261 0.99648 0.0
H652 H 0.3189 0.86313 0.97074 0.0
H653 H 0.22421 0.62432 0.97754 0.0
H654 H 0.26887 0.64009 0.00282 0.0
H655 H 0.20698 0.6667 0.00358 0.0
H656 H 0.35717 0.71739 0.06691 0.0
H657 H 0.2033 0.76717 0.07062 0.0
H658 H 0.38113 0.74357 1.00174 0.0
H659 H 0.35728 0.68047 1.002 0.0
H660 H 0.3989 0.70133 0.02769 0.0
H661 H 0.19569 0.80953 0.00485 0.0
H662 H 0.15848 0.79249 0.03303 0.0
H663 H 0.16936 0.74762 0.0072 0.0
C664 C 0.83159 0.78786 0.55529 0.0
C665 C 0.78872 0.78999 0.57128 0.0
C666 C 0.8271 0.78674 0.52797 0.0
C667 C 0.77856 0.78698 0.51636 0.0
C668 C 0.73514 0.78655 0.53243 0.0
C669 C 0.74072 0.78843 0.55969 0.0
C670 C 0.87437 0.78752 0.51152 0.0
C671 C 0.68277 0.78579 0.52083 0.0
C672 C 0.77203 0.84078 0.44768 0.0
C673 C 0.77538 0.79701 0.43238 0.0
C674 C 0.77149 0.83795 0.47506 0.0
C675 C 0.77355 0.79017 0.48743 0.0
C676 C 0.77397 0.74577 0.47206 0.0
C677 C 0.77525 0.74972 0.44474 0.0
C678 C 0.77133 0.88622 0.49075 0.0
C679 C 0.77515 0.69413 0.48447 0.0
H680 H 0.86879 0.78926 0.56406 0.0
H681 H 0.70736 0.78979 0.57191 0.0
H682 H 0.87421 0.75546 0.49759 0.0
H683 H 0.87557 0.82275 0.49984 0.0
H684 H 0.90922 0.78538 0.52353 0.0
H685 H 0.6531 0.78097 0.53594 0.0
H686 H 0.67568 0.82166 0.51031 0.0
H687 H 0.67933 0.75475 0.50639 0.0
H688 H 0.77235 0.87744 0.43831 0.0
H689 H 0.77752 0.71568 0.43304 0.0
H690 H 0.80727 0.88959 0.50175 0.0
H691 H 0.74029 0.88563 0.50526 0.0
H692 H 0.76693 0.92017 0.47825 0.0
H693 H 0.81186 0.68848 0.49445 0.0
H694 H 0.77005 0.66346 0.46991 0.0
H695 H 0.74518 0.69085 0.49949 0.0
C696 C 0.76656 0.2834 0.94487 0.0
C697 C 0.71907 0.28467 0.93273 0.0
C698 C 0.77093 0.28042 0.97216 0.0
C699 C 0.72679 0.27946 0.98768 0.0
C700 C 0.6788 0.2788 0.97549 0.0
C701 C 0.67554 0.281 0.94815 0.0
C702 C 0.82276 0.28014 0.98439 0.0
C703 C 0.63078 0.27817 0.99135 0.0
C704 C 0.72745 0.24115 0.05916 0.0
C705 C 0.72616 0.28826 0.07171 0.0
C706 C 0.72995 0.23761 0.03183 0.0
C707 C 0.73039 0.28224 0.01667 0.0
C708 C 0.73112 0.32986 0.02926 0.0
C709 C 0.72941 0.33229 0.05663 0.0
C710 C 0.73018 0.18615 0.01918 0.0
C711 C 0.73122 0.37837 0.0138 0.0
H712 H 0.80042 0.28593 0.93308 0.0
H713 H 0.63871 0.28212 0.93896 0.0
H714 H 0.829 0.31598 0.99512 0.0
H715 H 0.82589 0.24898 0.99875 0.0
H716 H 0.85315 0.27588 0.96961 0.0
H717 H 0.59655 0.27549 0.9789 0.0
H718 H 0.63097 0.24586 0.0051 0.0
H719 H 0.6283 0.31315 0.00321 0.0
H720 H 0.72527 0.20692 0.07069 0.0
H721 H 0.72827 0.36883 0.06614 0.0
H722 H 0.76093 0.18363 0.00454 0.0
H723 H 0.69407 0.18002 0.00869 0.0
H724 H 0.73505 0.15535 0.03366 0.0
H725 H 0.76308 0.37864 0.99977 0.0
H726 H 0.73425 0.41223 0.0265 0.0
H727 H 0.69587 0.38115 1.00227 0.0
C728 C 0.55075 0.22599 0.21372 0.0
C729 C 0.59169 0.25517 0.22264 0.0
C730 C 0.50469 0.2246 0.22713 0.0
C731 C 0.49913 0.25197 0.25067 0.0
C732 C 0.54105 0.27915 0.26075 0.0
C733 C 0.58677 0.2807 0.24654 0.0
C734 C 0.46125 0.19525 0.21545 0.0
C735 C 0.53711 0.30784 0.2861 0.0
C736 C 0.36234 0.28321 0.26783 0.0
C737 C 0.34902 0.24193 0.28351 0.0
C738 C 0.41174 0.28827 0.25788 0.0
C739 C 0.44904 0.25184 0.26427 0.0
C740 C 0.43633 0.21171 0.28127 0.0
C741 C 0.38654 0.20692 0.29039 0.0
C742 C 0.42331 0.33116 0.23945 0.0
C743 C 0.47486 0.17258 0.28908 0.0
H744 H 0.55381 0.20558 0.19545 0.0
H745 H 0.61787 0.3034 0.25369 0.0
H746 H 0.44805 0.16607 0.22938 0.0
H747 H 0.42904 0.22096 0.21167 0.0
H748 H 0.4716 0.17639 0.19683 0.0
H749 H 0.57407 0.3234 0.29245 0.0
H750 H 0.51014 0.33952 0.28383 0.0
H751 H 0.52221 0.28292 0.3017 0.0
H752 H 0.33368 0.31045 0.26247 0.0
H753 H 0.37689 0.17527 0.30282 0.0
H754 H 0.43097 0.31586 0.21967 0.0
H755 H 0.45772 0.35155 0.24587 0.0
H756 H 0.39168 0.35851 0.23806 0.0
H757 H 0.48411 0.14854 0.272 0.0
H758 H 0.461 0.14785 0.30505 0.0
H759 H 0.51034 0.19105 0.29551 0.0
C760 C 0.29728 0.89143 0.78872 0.0
C761 C 0.26217 0.85283 0.78369 0.0
C762 C 0.29046 0.94047 0.77897 0.0
C763 C 0.24788 0.95143 0.76329 0.0
C764 C 0.21135 0.91314 0.75882 0.0
C765 C 0.21868 0.86441 0.76928 0.0
C766 C 0.33002 0.98006 0.78462 0.0
C767 C 0.16574 0.92295 0.74193 0.0
C768 C 0.21693 0.08871 0.7457 0.0
C769 C 0.23965 0.0932 0.72104 0.0
C770 C 0.21956 0.04306 0.75991 0.0
C771 C 0.24502 1.0008 0.74911 0.0
C772 C 0.269 0.00566 0.72458 0.0
C773 C 0.26647 0.05159 0.71109 0.0
C774 C 0.19427 0.03972 0.78622 0.0
C775 C 0.2965 0.96183 0.71216 0.0
H776 H 0.33067 0.88322 0.80018 0.0
H777 H 0.1913 0.83496 0.76537 0.0
H778 H 0.35104 0.98892 0.76646 0.0
H779 H 0.31203 0.01551 0.7914 0.0
H780 H 0.3575 0.96742 0.79964 0.0
H781 H 0.13864 0.89095 0.74222 0.0
H782 H 0.14598 0.9576 0.74848 0.0
H783 H 0.17797 0.92932 0.72148 0.0
H784 H 0.19589 0.12027 0.75359 0.0
H785 H 0.28451 0.05421 0.69217 0.0
H786 H 0.22177 0.02702 0.80117 0.0
H787 H 0.1636 0.01124 0.78554 0.0
H788 H 0.178 0.07642 0.79247 0.0
H789 H 0.32794 0.94945 0.72493 0.0
H790 H 0.31218 0.97144 0.69267 0.0
H791 H 0.27047 0.9293 0.70989 0.0
C792 C 0.63542 0.77726 0.26386 0.0
C793 C 0.65391 0.74742 0.28436 0.0
C794 C 0.58685 0.76946 0.25351 0.0
C795 C 0.55531 0.73149 0.2642 0.0
C796 C 0.57356 0.70152 0.28506 0.0
C797 C 0.62274 0.7095 0.29472 0.0
C798 C 0.56952 0.80155 0.23086 0.0
C799 C 0.54104 0.66113 0.29724 0.0
C800 C 0.41551 0.74434 0.24652 0.0
C801 C 0.41222 0.71208 0.22495 0.0
C802 C 0.46128 0.74919 0.26048 0.0
C803 C 0.5045 0.72152 0.2524 0.0
C804 C 0.50014 0.687 0.23142 0.0
C805 C 0.45416 0.68272 0.21806 0.0
C806 C 0.46414 0.78593 0.28293 0.0
C807 C 0.54487 0.65686 0.22191 0.0
H808 H 0.65914 0.80666 0.25573 0.0
H809 H 0.63637 0.68668 0.31079 0.0
H810 H 0.56088 0.77715 0.21381 0.0
H811 H 0.5343 0.82173 0.23609 0.0
H812 H 0.59832 0.82979 0.22494 0.0
H813 H 0.55988 0.64251 0.31404 0.0
H814 H 0.50494 0.67775 0.30404 0.0
H815 H 0.5316 0.63196 0.28249 0.0
H816 H 0.38336 0.76762 0.25158 0.0
H817 H 0.4516 0.65798 0.20121 0.0
H818 H 0.48758 0.81883 0.27722 0.0
H819 H 0.48252 0.76805 0.30004 0.0
H820 H 0.42626 0.7998 0.28881 0.0
H821 H 0.57368 0.6828 0.21372 0.0
H822 H 0.53425 0.62912 0.20659 0.0
H823 H 0.5627 0.63632 0.23836 0.0
C824 C 0.71603 0.1259 0.79124 0.0
C825 C 0.74985 0.16397 0.7836 0.0
C826 C 0.72139 0.07596 0.78242 0.0
C827 C 0.76071 0.06371 0.76482 0.0
C828 C 0.79598 0.10163 0.75764 0.0
C829 C 0.79053 0.15115 0.76741 0.0
C830 C 0.68364 0.03675 0.79114 0.0
C831 C 0.83786 0.09058 0.73852 0.0
C832 C 0.79067 0.9263 0.74682 0.0
C833 C 0.76335 0.92063 0.7235 0.0
C834 C 0.78938 0.97215 0.76096 0.0
C835 C 0.76074 0.01345 0.75136 0.0
C836 C 0.73164 0.0071 0.72845 0.0
C837 C 0.73271 0.96089 0.71515 0.0
C838 C 0.81985 0.9769 0.78571 0.0
C839 C 0.70075 0.04988 0.71725 0.0
H840 H 0.68487 0.1352 0.80406 0.0
H841 H 0.81685 0.18029 0.76147 0.0
H842 H 0.65843 0.02682 0.77463 0.0
H843 H 0.70324 1.00171 0.79726 0.0
H844 H 0.65996 0.05035 0.8076 0.0
H845 H 0.86452 0.12273 0.73653 0.0
H846 H 0.85928 0.05669 0.74469 0.0
H847 H 0.82144 0.08228 0.71904 0.0
H848 H 0.81452 0.89574 0.75351 0.0
H849 H 0.7109 0.95723 0.69736 0.0
H850 H 0.796 0.99191 0.80172 0.0
H851 H 0.85114 1.00409 0.78267 0.0
H852 H 0.83615 0.94021 0.79192 0.0
H853 H 0.67222 0.06253 0.73166 0.0
H854 H 0.68093 0.03904 0.69897 0.0
H855 H 0.72558 0.08261 0.71302 0.0
C856 C 0.05279 0.27011 0.28738 0.0
C857 C 0.09262 0.23833 0.27966 0.0
C858 C 0.00653 0.27057 0.27415 0.0
C859 C 0.99973 0.23965 0.2519 0.0
C860 C 0.04069 0.20989 0.24284 0.0
C861 C 0.08659 0.20927 0.25693 0.0
C862 C 0.96413 0.30274 0.28475 0.0
C863 C 0.03549 0.17747 0.21878 0.0
C864 C 0.86155 0.21006 0.23713 0.0
C865 C 0.84887 0.24972 0.22027 0.0
C866 C 0.91121 0.20471 0.24669 0.0
C867 C 0.94936 0.23899 0.2386 0.0
C868 C 0.93722 0.27703 0.22027 0.0
C869 C 0.88717 0.2824 0.21168 0.0
C870 C 0.92216 0.16422 0.26661 0.0
C871 C 0.97667 0.31362 0.21055 0.0
H872 H 0.05677 0.29327 0.3047 0.0
H873 H 0.11684 0.18455 0.25072 0.0
H874 H 0.95159 0.33017 0.26976 0.0
H875 H 0.93124 0.27858 0.28962 0.0
H876 H 0.9753 0.32398 0.30256 0.0
H877 H 0.07205 0.16064 0.21275 0.0
H878 H 0.00836 0.14646 0.22263 0.0
H879 H 0.02021 0.20002 0.20234 0.0
H880 H 0.8322 0.18466 0.24381 0.0
H881 H 0.87792 0.31275 0.19834 0.0
H882 H 0.93075 0.18205 0.28572 0.0
H883 H 0.95583 0.1421 0.26079 0.0
H884 H 0.88985 0.13796 0.26921 0.0
H885 H 0.98696 0.3402 0.22643 0.0
H886 H 0.9631 0.33593 0.19359 0.0
H887 H 0.01148 0.2932 0.20481 0.0
C888 C 0.30082 0.37977 0.71519 0.0
C889 C 0.25639 0.35361 0.72158 0.0
C890 C 0.31031 0.4286 0.72503 0.0
C891 C 0.27486 0.45175 0.74195 0.0
C892 C 0.22995 0.42551 0.74841 0.0
C893 C 0.22119 0.37709 0.73808 0.0
C894 C 0.35849 0.45527 0.71751 0.0
C895 C 0.19146 0.44817 0.76671 0.0
C896 C 0.316 0.54751 0.79285 0.0
C897 C 0.29618 0.59284 0.78308 0.0
C898 C 0.31127 0.50199 0.77913 0.0
C899 C 0.2862 0.5014 0.75475 0.0
C900 C 0.2687 0.54764 0.74396 0.0
C901 C 0.27396 0.59302 0.75828 0.0
C902 C 0.33085 0.45409 0.7915 0.0
C903 C 0.24237 0.54876 0.71787 0.0
H904 H 0.32804 0.36233 0.70223 0.0
H905 H 0.18672 0.3574 0.74317 0.0
H906 H 0.34983 0.49315 0.70947 0.0
H907 H 0.38235 0.461 0.73507 0.0
H908 H 0.38057 0.43375 0.70283 0.0
H909 H 0.15761 0.42382 0.769 0.0
H910 H 0.20868 0.45408 0.78623 0.0
H911 H 0.17925 0.48563 0.75941 0.0
H912 H 0.33425 0.54742 0.81179 0.0
H913 H 0.25863 0.62795 0.75066 0.0
H914 H 0.35538 0.43334 0.77764 0.0
H915 H 0.29868 0.429 0.79641 0.0
H916 H 0.35266 0.46157 0.80964 0.0
H917 H 0.26463 0.52774 0.7031 0.0
H918 H 0.23626 0.5879 0.7108 0.0
H919 H 0.20518 0.52979 0.71953 0.0
C920 C 0.11738 0.71061 0.21341 0.0
C921 C 0.15611 0.74517 0.21915 0.0
C922 C 0.06843 0.71673 0.22343 0.0
C923 C 0.05764 0.75815 0.23996 0.0
C924 C 0.09599 0.79431 0.24505 0.0
C925 C 0.14467 0.78759 0.23445 0.0
C926 C 0.02882 0.67752 0.2172 0.0
C927 C 0.08628 0.83883 0.26274 0.0
C928 C 0.92067 0.78838 0.25833 0.0
C929 C 0.91646 0.76474 0.28277 0.0
C930 C 0.96611 0.78628 0.24394 0.0
C931 C 0.00838 0.76015 0.25427 0.0
C932 C 1.00372 0.73503 0.27851 0.0
C933 C 0.95805 0.73733 0.29226 0.0
C934 C 0.96929 0.81298 0.21801 0.0
C935 C 0.04753 0.70664 0.29036 0.0
H936 H 0.12546 0.67803 0.2013 0.0
H937 H 0.17419 0.81456 0.23893 0.0
H938 H 0.02008 0.65541 0.23502 0.0
H939 H 0.99333 0.6959 0.21079 0.0
H940 H 0.04136 0.65097 0.20171 0.0
H941 H 0.11821 0.86602 0.26281 0.0
H942 H 0.05152 0.85892 0.25664 0.0
H943 H 0.08017 0.82532 0.283 0.0
H944 H 0.8891 0.80988 0.2508 0.0
H945 H 0.95562 0.71864 0.31102 0.0
H946 H 0.98191 0.78633 0.20263 0.0
H947 H 0.99777 0.84362 0.21911 0.0
H948 H 0.93257 0.82959 0.21207 0.0
H949 H 0.06003 0.67624 0.27695 0.0
H950 H 0.03788 0.68944 0.3095 0.0
H951 H 0.07999 0.73254 0.29321 0.0
C952 C 0.7188 0.42646 0.75849 0.0
C953 C 0.74548 0.42113 0.78203 0.0
C954 C 0.72008 0.47228 0.74436 0.0
C955 C 0.7481 0.5139 0.75416 0.0
C956 C 0.77648 0.50796 0.77734 0.0
C957 C 0.77538 0.46179 0.79067 0.0
C958 C 0.6903 0.47662 0.71937 0.0
C959 C 0.80673 0.55108 0.78872 0.0
C960 C 0.79295 0.62594 0.71399 0.0
C961 C 0.75869 0.6639 0.72122 0.0
C962 C 0.78787 0.57621 0.72313 0.0
C963 C 0.74827 0.564 0.74057 0.0
C964 C 0.71257 0.60176 0.74733 0.0
C965 C 0.71784 0.6511 0.73731 0.0
C966 C 0.82618 0.53717 0.7149 0.0
C967 C 0.6703 0.59074 0.76623 0.0
H968 H 0.69552 0.3956 0.75157 0.0
H969 H 0.79666 0.45841 0.80864 0.0
H970 H 0.65912 0.50404 0.72203 0.0
H971 H 0.71471 0.49116 0.70347 0.0
H972 H 0.67394 0.43987 0.71322 0.0
H973 H 0.82611 0.54054 0.80716 0.0
H974 H 0.83557 0.56389 0.77451 0.0
H975 H 0.78155 0.58362 0.79273 0.0
H976 H 0.82426 0.63521 0.70125 0.0
H977 H 0.69119 0.68012 0.74296 0.0
H978 H 0.80702 0.50191 0.70868 0.0
H979 H 0.8508 0.52764 0.7317 0.0
H980 H 0.85041 0.55072 0.69865 0.0
H981 H 0.64928 0.55653 0.76008 0.0
H982 H 0.64337 0.62269 0.76788 0.0
H983 H 0.6863 0.583 0.78585 0.0
loop_
_geom_bond_atom_site_label_1
_geom_bond_atom_site_label_2
_geom_bond_distance
_geom_bond_site_symmetry_2
_ccdc_geom_bond_type
Co0 O2 2.143 . S
Co0 O8 2.074 . S
Co0 O11 2.093 . S
Co0 O24 2.097 . S
Co0 N41 2.151 . S
Co0 N49 2.214 . S
Co1 O2 2.160 . S
Co1 O7 2.058 . S
Co1 O17 2.057 . S
Co1 O32 2.037 . S
Co1 N36 2.145 . S
Co1 N57 2.257 . S
O2 Co0 2.143 . S
O2 Co1 2.160 . S
C3 O4 1.278 . S
C3 O11 1.224 . S
O4 C3 1.278 . S
C5 O6 1.245 . S
C5 O17 1.232 . S
O6 C5 1.245 . S
O7 Co1 2.058 . S
O7 C33 1.269 . S
O8 Co0 2.074 . S
O8 C33 1.257 . S
H9 C34 0.930 . S
H10 C40 0.930 . S
O11 Co0 2.093 . S
O11 C3 1.224 . S
H12 C44 0.929 . S
H13 C46 0.930 . S
H14 C47 0.931 . S
H15 C45 0.929 . S
H16 C48 0.928 . S
O17 Co1 2.057 . S
O17 C5 1.232 . S
H18 C37 0.929 . S
H19 C38 0.929 . S
H20 C50 0.931 . S
H21 C42 0.929 . S
H22 C51 0.930 . S
H23 C43 0.931 . S
O24 Co0 2.097 . S
O24 C52 1.214 . S
H25 C53 0.929 . S
H26 C54 0.929 . S
H27 C55 0.930 . S
H28 C56 0.929 . S
H29 C58 0.930 . S
H30 C35 0.930 . S
H31 C39 0.930 . S
O32 Co1 2.037 . S
O32 C52 1.234 . S
C33 O7 1.269 . S
C33 O8 1.257 . S
C34 H9 0.930 . S
C34 C37 1.388 . S
C34 C39 1.418 . S
C35 H30 0.930 . S
C35 C38 1.404 . S
C35 C39 1.353 . S
N36 Co1 2.145 . S
N36 C37 1.397 . S
N36 C38 1.334 . S
C37 H18 0.929 . S
C37 C34 1.388 . S
C37 N36 1.397 . S
C38 H19 0.929 . S
C38 C35 1.404 . S
C38 N36 1.334 . S
C39 H31 0.930 . S
C39 C34 1.418 . S
C39 C35 1.353 . S
C40 H10 0.930 . S
C40 N41 1.330 . S
C40 C42 1.446 . S
N41 Co0 2.151 . S
N41 C40 1.330 . S
N41 C45 1.418 . S
C42 H21 0.929 . S
C42 C40 1.446 . S
C42 C43 1.332 . S
C43 H23 0.931 . S
C43 C42 1.332 . S
C43 C44 1.267 . S
C44 H12 0.929 . S
C44 C43 1.267 . S
C44 C45 1.251 . S
C45 H15 0.929 . S
C45 N41 1.418 . S
C45 C44 1.251 . S
C46 H13 0.930 . S
C46 C48 1.406 1_655 S
C46 C51 1.261 . S
C47 H14 0.931 . S
C47 N49 1.325 1_655 S
C47 C50 1.357 . S
C48 H16 0.928 . S
C48 C46 1.406 1_455 S
C48 N49 1.261 . S
N49 Co0 2.214 . S
N49 C47 1.325 1_455 S
N49 C48 1.261 . S
C50 H20 0.931 . S
C50 C47 1.357 . S
C50 C51 1.312 . S
C51 H22 0.930 . S
C51 C46 1.261 . S
C51 C50 1.312 . S
C52 O24 1.214 . S
C52 O32 1.234 . S
C53 H25 0.929 . S
C53 C56 1.391 . S
C53 C58 1.391 . S
C54 H26 0.929 . S
C54 C55 1.390 . S
C54 N57 1.391 . S
C55 H27 0.930 . S
C55 C54 1.390 . S
C55 C56 1.392 . S
C56 H28 0.929 . S
C56 C53 1.391 . S
C56 C55 1.392 . S
N57 Co1 2.257 . S
N57 C54 1.391 . S
N57 C58 1.388 . S
C58 H29 0.930 . S
C58 C53 1.391 . S
C58 N57 1.388 . S
Co59 O61 2.143 . S
Co59 O67 2.074 . S
Co59 O70 2.093 . S
Co59 O83 2.097 . S
Co59 N100 2.151 . S
Co59 N108 2.214 . S
Co60 O61 2.160 . S
Co60 O66 2.058 . S
Co60 O76 2.057 . S
Co60 O91 2.037 . S
Co60 N95 2.145 . S
Co60 N116 2.257 . S
O61 Co59 2.143 . S
O61 Co60 2.160 . S
C62 O63 1.278 . S
C62 O70 1.224 . S
O63 C62 1.278 . S
C64 O65 1.245 . S
C64 O76 1.232 . S
O65 C64 1.245 . S
O66 Co60 2.058 . S
O66 C92 1.269 . S
O67 Co59 2.074 . S
O67 C92 1.257 . S
H68 C93 0.930 . S
H69 C99 0.930 . S
O70 Co59 2.093 . S
O70 C62 1.224 . S
H71 C103 0.929 . S
H72 C105 0.930 . S
H73 C106 0.930 . S
H74 C104 0.929 . S
H75 C107 0.928 . S
O76 Co60 2.057 . S
O76 C64 1.232 . S
H77 C96 0.929 . S
H78 C97 0.929 . S
H79 C109 0.931 . S
H80 C101 0.929 . S
H81 C110 0.930 . S
H82 C102 0.931 . S
O83 Co59 2.097 . S
O83 C111 1.214 . S
H84 C112 0.929 . S
H85 C113 0.929 . S
H86 C114 0.930 . S
H87 C115 0.929 . S
H88 C117 0.930 . S
H89 C94 0.930 . S
H90 C98 0.930 . S
O91 Co60 2.037 . S
O91 C111 1.234 . S
C92 O66 1.269 . S
C92 O67 1.257 . S
C93 H68 0.930 . S
C93 C96 1.388 . S
C93 C98 1.418 . S
C94 H89 0.930 . S
C94 C97 1.404 . S
C94 C98 1.353 . S
N95 Co60 2.145 . S
N95 C96 1.397 . S
N95 C97 1.334 . S
C96 H77 0.929 . S
C96 C93 1.388 . S
C96 N95 1.397 . S
C97 H78 0.929 . S
C97 C94 1.404 . S
C97 N95 1.334 . S
C98 H90 0.930 . S
C98 C93 1.418 . S
C98 C94 1.353 . S
C99 H69 0.930 . S
C99 N100 1.330 . S
C99 C101 1.446 . S
N100 Co59 2.151 . S
N100 C99 1.330 . S
N100 C104 1.418 . S
C101 H80 0.929 . S
C101 C99 1.446 . S
C101 C102 1.332 . S
C102 H82 0.931 . S
C102 C101 1.332 . S
C102 C103 1.267 . S
C103 H71 0.929 . S
C103 C102 1.267 . S
C103 C104 1.251 . S
C104 H74 0.929 . S
C104 N100 1.418 . S
C104 C103 1.251 . S
C105 H72 0.930 . S
C105 C107 1.406 . S
C105 C110 1.261 . S
C106 H73 0.930 . S
C106 N108 1.325 . S
C106 C109 1.357 . S
C107 H75 0.928 . S
C107 C105 1.406 . S
C107 N108 1.261 . S
N108 Co59 2.214 . S
N108 C106 1.325 . S
N108 C107 1.261 . S
C109 H79 0.931 . S
C109 C106 1.357 . S
C109 C110 1.312 . S
C110 H81 0.930 . S
C110 C105 1.261 . S
C110 C109 1.312 . S
C111 O83 1.214 . S
C111 O91 1.234 . S
C112 H84 0.929 . S
C112 C115 1.391 . S
C112 C117 1.391 . S
C113 H85 0.929 . S
C113 C114 1.390 . S
C113 N116 1.391 . S
C114 H86 0.930 . S
C114 C113 1.390 . S
C114 C115 1.392 . S
C115 H87 0.929 . S
C115 C112 1.391 . S
C115 C114 1.392 . S
N116 Co60 2.257 . S
N116 C113 1.391 . S
N116 C117 1.388 . S
C117 H88 0.930 . S
C117 C112 1.391 . S
C117 N116 1.388 . S
Co118 O120 2.143 . S
Co118 O126 2.074 . S
Co118 O129 2.093 . S
Co118 O142 2.097 . S
Co118 N159 2.151 . S
Co118 N167 2.214 . S
Co119 O120 2.160 . S
Co119 O125 2.058 . S
Co119 O135 2.057 . S
Co119 O150 2.037 . S
Co119 N154 2.145 . S
Co119 N175 2.257 . S
O120 Co118 2.143 . S
O120 Co119 2.160 . S
C121 O122 1.278 . S
C121 O129 1.224 . S
O122 C121 1.278 . S
C123 O124 1.245 . S
C123 O135 1.232 . S
O124 C123 1.245 . S
O125 Co119 2.058 . S
O125 C151 1.269 . S
O126 Co118 2.074 . S
O126 C151 1.257 . S
H127 C152 0.930 . S
H128 C158 0.930 . S
O129 Co118 2.093 . S
O129 C121 1.224 . S
H130 C162 0.929 . S
H131 C164 0.930 . S
H132 C165 0.931 . S
H133 C163 0.929 . S
H134 C166 0.928 . S
O135 Co119 2.057 . S
O135 C123 1.232 . S
H136 C155 0.929 . S
H137 C156 0.929 . S
H138 C168 0.931 . S
H139 C160 0.929 . S
H140 C169 0.930 . S
H141 C161 0.931 . S
O142 Co118 2.097 . S
O142 C170 1.214 . S
H143 C171 0.929 . S
H144 C172 0.929 . S
H145 C173 0.930 . S
H146 C174 0.929 . S
H147 C176 0.930 . S
H148 C153 0.930 . S
H149 C157 0.930 . S
O150 Co119 2.037 . S
O150 C170 1.234 . S
C151 O125 1.269 . S
C151 O126 1.257 . S
C152 H127 0.930 . S
C152 C155 1.388 . S
C152 C157 1.418 . S
C153 H148 0.930 . S
C153 C156 1.404 . S
C153 C157 1.353 . S
N154 Co119 2.145 . S
N154 C155 1.397 . S
N154 C156 1.334 . S
C155 H136 0.929 . S
C155 C152 1.388 . S
C155 N154 1.397 . S
C156 H137 0.929 . S
C156 C153 1.404 . S
C156 N154 1.334 . S
C157 H149 0.930 . S
C157 C152 1.418 . S
C157 C153 1.353 . S
C158 H128 0.930 . S
C158 N159 1.330 . S
C158 C160 1.446 . S
N159 Co118 2.151 . S
N159 C158 1.330 . S
N159 C163 1.418 . S
C160 H139 0.929 . S
C160 C158 1.446 . S
C160 C161 1.332 . S
C161 H141 0.931 . S
C161 C160 1.332 . S
C161 C162 1.267 . S
C162 H130 0.929 . S
C162 C161 1.267 . S
C162 C163 1.251 . S
C163 H133 0.929 . S
C163 N159 1.418 . S
C163 C162 1.251 . S
C164 H131 0.930 . S
C164 C166 1.406 1_455 S
C164 C169 1.261 . S
C165 H132 0.931 . S
C165 N167 1.325 1_455 S
C165 C168 1.357 . S
C166 H134 0.928 . S
C166 C164 1.406 1_655 S
C166 N167 1.261 . S
N167 Co118 2.214 . S
N167 C165 1.325 1_655 S
N167 C166 1.261 . S
C168 H138 0.931 . S
C168 C165 1.357 . S
C168 C169 1.312 . S
C169 H140 0.930 . S
C169 C164 1.261 . S
C169 C168 1.312 . S
C170 O142 1.214 . S
C170 O150 1.234 . S
C171 H143 0.929 . S
C171 C174 1.391 . S
C171 C176 1.391 . S
C172 H144 0.929 . S
C172 C173 1.390 . S
C172 N175 1.391 . S
C173 H145 0.930 . S
C173 C172 1.390 . S
C173 C174 1.392 . S
C174 H146 0.929 . S
C174 C171 1.391 . S
C174 C173 1.392 . S
N175 Co119 2.257 . S
N175 C172 1.391 . S
N175 C176 1.388 . S
C176 H147 0.930 . S
C176 C171 1.391 . S
C176 N175 1.388 . S
Co177 O179 2.143 . S
Co177 O185 2.074 . S
Co177 O188 2.093 . S
Co177 O201 2.097 . S
Co177 N218 2.151 . S
Co177 N226 2.214 . S
Co178 O179 2.160 . S
Co178 O184 2.058 . S
Co178 O194 2.057 . S
Co178 O209 2.037 . S
Co178 N213 2.145 . S
Co178 N234 2.257 . S
O179 Co177 2.143 . S
O179 Co178 2.160 . S
C180 O181 1.278 . S
C180 O188 1.224 . S
O181 C180 1.278 . S
C182 O183 1.245 . S
C182 O194 1.232 . S
O183 C182 1.245 . S
O184 Co178 2.058 . S
O184 C210 1.269 . S
O185 Co177 2.074 . S
O185 C210 1.257 . S
H186 C211 0.930 . S
H187 C217 0.930 . S
O188 Co177 2.093 . S
O188 C180 1.224 . S
H189 C221 0.929 . S
H190 C223 0.930 . S
H191 C224 0.930 . S
H192 C222 0.929 . S
H193 C225 0.928 . S
O194 Co178 2.057 . S
O194 C182 1.232 . S
H195 C214 0.929 . S
H196 C215 0.929 . S
H197 C227 0.931 . S
H198 C219 0.929 . S
H199 C228 0.930 . S
H200 C220 0.931 . S
O201 Co177 2.097 . S
O201 C229 1.214 . S
H202 C230 0.929 . S
H203 C231 0.929 . S
H204 C232 0.930 . S
H205 C233 0.929 . S
H206 C235 0.930 . S
H207 C212 0.930 . S
H208 C216 0.930 . S
O209 Co178 2.037 . S
O209 C229 1.234 . S
C210 O184 1.269 . S
C210 O185 1.257 . S
C211 H186 0.930 . S
C211 C214 1.388 . S
C211 C216 1.418 . S
C212 H207 0.930 . S
C212 C215 1.404 . S
C212 C216 1.353 . S
N213 Co178 2.145 . S
N213 C214 1.397 . S
N213 C215 1.334 . S
C214 H195 0.929 . S
C214 C211 1.388 . S
C214 N213 1.397 . S
C215 H196 0.929 . S
C215 C212 1.404 . S
C215 N213 1.334 . S
C216 H208 0.930 . S
C216 C211 1.418 . S
C216 C212 1.353 . S
C217 H187 0.930 . S
C217 N218 1.330 . S
C217 C219 1.446 . S
N218 Co177 2.151 . S
N218 C217 1.330 . S
N218 C222 1.418 . S
C219 H198 0.929 . S
C219 C217 1.446 . S
C219 C220 1.332 . S
C220 H200 0.931 . S
C220 C219 1.332 . S
C220 C221 1.267 . S
C221 H189 0.929 . S
C221 C220 1.267 . S
C221 C222 1.251 . S
C222 H192 0.929 . S
C222 N218 1.418 . S
C222 C221 1.251 . S
C223 H190 0.930 . S
C223 C225 1.406 . S
C223 C228 1.261 . S
C224 H191 0.930 . S
C224 N226 1.325 . S
C224 C227 1.357 . S
C225 H193 0.928 . S
C225 C223 1.406 . S
C225 N226 1.261 . S
N226 Co177 2.214 . S
N226 C224 1.325 . S
N226 C225 1.261 . S
C227 H197 0.931 . S
C227 C224 1.357 . S
C227 C228 1.312 . S
C228 H199 0.930 . S
C228 C223 1.261 . S
C228 C227 1.312 . S
C229 O201 1.214 . S
C229 O209 1.234 . S
C230 H202 0.929 . S
C230 C233 1.391 . S
C230 C235 1.391 . S
C231 H203 0.929 . S
C231 C232 1.390 . S
C231 N234 1.391 . S
C232 H204 0.930 . S
C232 C231 1.390 . S
C232 C233 1.392 . S
C233 H205 0.929 . S
C233 C230 1.391 . S
C233 C232 1.392 . S
N234 Co178 2.257 . S
N234 C231 1.391 . S
N234 C235 1.388 . S
C235 H206 0.930 . S
C235 C230 1.391 . S
C235 N234 1.388 . S
Co236 O238 2.143 . S
Co236 O244 2.074 . S
Co236 O247 2.093 . S
Co236 O260 2.097 . S
Co236 N277 2.151 . S
Co236 N285 2.214 . S
Co237 O238 2.160 . S
Co237 O243 2.058 . S
Co237 O253 2.057 . S
Co237 O268 2.037 . S
Co237 N272 2.145 . S
Co237 N293 2.257 . S
O238 Co236 2.143 . S
O238 Co237 2.160 . S
C239 O240 1.278 . S
C239 O247 1.224 . S
O240 C239 1.278 . S
C241 O242 1.245 . S
C241 O253 1.232 . S
O242 C241 1.245 . S
O243 Co237 2.058 . S
O243 C269 1.269 . S
O244 Co236 2.074 . S
O244 C269 1.257 . S
H245 C270 0.930 . S
H246 C276 0.930 . S
O247 Co236 2.093 . S
O247 C239 1.224 . S
H248 C280 0.929 . S
H249 C282 0.930 . S
H250 C283 0.930 . S
H251 C281 0.929 . S
H252 C284 0.928 . S
O253 Co237 2.057 . S
O253 C241 1.232 . S
H254 C273 0.929 . S
H255 C274 0.929 . S
H256 C286 0.931 . S
H257 C278 0.929 . S
H258 C287 0.930 . S
H259 C279 0.931 . S
O260 Co236 2.097 . S
O260 C288 1.214 . S
H261 C289 0.929 . S
H262 C290 0.929 . S
H263 C291 0.930 . S
H264 C292 0.929 . S
H265 C294 0.930 . S
H266 C271 0.930 . S
H267 C275 0.930 . S
O268 Co237 2.037 . S
O268 C288 1.234 . S
C269 O243 1.269 . S
C269 O244 1.257 . S
C270 H245 0.930 . S
C270 C273 1.388 . S
C270 C275 1.418 . S
C271 H266 0.930 . S
C271 C274 1.404 . S
C271 C275 1.353 . S
N272 Co237 2.145 . S
N272 C273 1.397 . S
N272 C274 1.334 . S
C273 H254 0.929 . S
C273 C270 1.388 . S
C273 N272 1.397 . S
C274 H255 0.929 . S
C274 C271 1.404 . S
C274 N272 1.334 . S
C275 H267 0.930 . S
C275 C270 1.418 . S
C275 C271 1.353 . S
C276 H246 0.930 . S
C276 N277 1.330 . S
C276 C278 1.446 . S
N277 Co236 2.151 . S
N277 C276 1.330 . S
N277 C281 1.418 . S
C278 H257 0.929 . S
C278 C276 1.446 . S
C278 C279 1.332 . S
C279 H259 0.931 . S
C279 C278 1.332 . S
C279 C280 1.267 . S
C280 H248 0.929 . S
C280 C279 1.267 . S
C280 C281 1.251 . S
C281 H251 0.929 . S
C281 N277 1.418 . S
C281 C280 1.251 . S
C282 H249 0.930 . S
C282 C284 1.406 . S
C282 C287 1.261 . S
C283 H250 0.930 . S
C283 N285 1.325 . S
C283 C286 1.357 . S
C284 H252 0.928 . S
C284 C282 1.406 . S
C284 N285 1.261 . S
N285 Co236 2.214 . S
N285 C283 1.325 . S
N285 C284 1.261 . S
C286 H256 0.931 . S
C286 C283 1.357 . S
C286 C287 1.312 . S
C287 H258 0.930 . S
C287 C282 1.261 . S
C287 C286 1.312 . S
C288 O260 1.214 . S
C288 O268 1.234 . S
C289 H261 0.929 . S
C289 C292 1.391 . S
C289 C294 1.391 . S
C290 H262 0.929 . S
C290 C291 1.390 . S
C290 N293 1.391 . S
C291 H263 0.930 . S
C291 C290 1.390 . S
C291 C292 1.392 . S
C292 H264 0.929 . S
C292 C289 1.391 . S
C292 C291 1.392 . S
N293 Co237 2.257 . S
N293 C290 1.391 . S
N293 C294 1.388 . S
C294 H265 0.930 . S
C294 C289 1.391 . S
C294 N293 1.388 . S
Co295 O297 2.143 . S
Co295 O303 2.074 . S
Co295 O306 2.093 . S
Co295 O319 2.097 . S
Co295 N336 2.151 . S
Co295 N344 2.214 . S
Co296 O297 2.160 . S
Co296 O302 2.058 . S
Co296 O312 2.057 . S
Co296 O327 2.037 . S
Co296 N331 2.145 . S
Co296 N352 2.257 . S
O297 Co295 2.143 . S
O297 Co296 2.160 . S
C298 O299 1.278 . S
C298 O306 1.224 . S
O299 C298 1.278 . S
C300 O301 1.245 . S
C300 O312 1.232 . S
O301 C300 1.245 . S
O302 Co296 2.058 . S
O302 C328 1.269 . S
O303 Co295 2.074 . S
O303 C328 1.257 . S
H304 C329 0.930 . S
H305 C335 0.930 . S
O306 Co295 2.093 . S
O306 C298 1.224 . S
H307 C339 0.929 . S
H308 C341 0.930 . S
H309 C342 0.931 . S
H310 C340 0.929 . S
H311 C343 0.928 . S
O312 Co296 2.057 . S
O312 C300 1.232 . S
H313 C332 0.929 . S
H314 C333 0.929 . S
H315 C345 0.931 . S
H316 C337 0.929 . S
H317 C346 0.930 . S
H318 C338 0.931 . S
O319 Co295 2.097 . S
O319 C347 1.214 . S
H320 C348 0.929 . S
H321 C349 0.929 . S
H322 C350 0.930 . S
H323 C351 0.929 . S
H324 C353 0.930 . S
H325 C330 0.930 . S
H326 C334 0.930 . S
O327 Co296 2.037 . S
O327 C347 1.234 . S
C328 O302 1.269 . S
C328 O303 1.257 . S
C329 H304 0.930 . S
C329 C332 1.388 . S
C329 C334 1.418 . S
C330 H325 0.930 . S
C330 C333 1.404 . S
C330 C334 1.353 . S
N331 Co296 2.145 . S
N331 C332 1.397 . S
N331 C333 1.334 . S
C332 H313 0.929 . S
C332 C329 1.388 . S
C332 N331 1.397 . S
C333 H314 0.929 . S
C333 C330 1.404 . S
C333 N331 1.334 . S
C334 H326 0.930 . S
C334 C329 1.418 . S
C334 C330 1.353 . S
C335 H305 0.930 . S
C335 N336 1.330 . S
C335 C337 1.446 . S
N336 Co295 2.151 . S
N336 C335 1.330 . S
N336 C340 1.418 . S
C337 H316 0.929 . S
C337 C335 1.446 . S
C337 C338 1.332 . S
C338 H318 0.931 . S
C338 C337 1.332 . S
C338 C339 1.267 . S
C339 H307 0.929 . S
C339 C338 1.267 . S
C339 C340 1.251 . S
C340 H310 0.929 . S
C340 N336 1.418 . S
C340 C339 1.251 . S
C341 H308 0.930 . S
C341 C343 1.406 1_565 S
C341 C346 1.261 . S
C342 H309 0.931 . S
C342 N344 1.325 1_565 S
C342 C345 1.357 . S
C343 H311 0.928 . S
C343 C341 1.406 1_545 S
C343 N344 1.261 . S
N344 Co295 2.214 . S
N344 C342 1.325 1_545 S
N344 C343 1.261 . S
C345 H315 0.931 . S
C345 C342 1.357 . S
C345 C346 1.312 . S
C346 H317 0.930 . S
C346 C341 1.261 . S
C346 C345 1.312 . S
C347 O319 1.214 . S
C347 O327 1.234 . S
C348 H320 0.929 . S
C348 C351 1.391 . S
C348 C353 1.391 . S
C349 H321 0.929 . S
C349 C350 1.390 . S
C349 N352 1.391 . S
C350 H322 0.930 . S
C350 C349 1.390 . S
C350 C351 1.392 . S
C351 H323 0.929 . S
C351 C348 1.391 . S
C351 C350 1.392 . S
N352 Co296 2.257 . S
N352 C349 1.391 . S
N352 C353 1.388 . S
C353 H324 0.930 . S
C353 C348 1.391 . S
C353 N352 1.388 . S
Co354 O356 2.143 . S
Co354 O362 2.074 . S
Co354 O365 2.093 . S
Co354 O378 2.097 . S
Co354 N395 2.151 . S
Co354 N403 2.214 . S
Co355 O356 2.160 . S
Co355 O361 2.058 . S
Co355 O371 2.057 . S
Co355 O386 2.037 . S
Co355 N390 2.145 . S
Co355 N411 2.257 . S
O356 Co354 2.143 . S
O356 Co355 2.160 . S
C357 O358 1.278 . S
C357 O365 1.224 . S
O358 C357 1.278 . S
C359 O360 1.245 . S
C359 O371 1.232 . S
O360 C359 1.245 . S
O361 Co355 2.058 . S
O361 C387 1.269 . S
O362 Co354 2.074 . S
O362 C387 1.257 . S
H363 C388 0.930 . S
H364 C394 0.930 . S
O365 Co354 2.093 . S
O365 C357 1.224 . S
H366 C398 0.929 . S
H367 C400 0.930 . S
H368 C401 0.930 . S
H369 C399 0.929 . S
H370 C402 0.928 . S
O371 Co355 2.057 . S
O371 C359 1.232 . S
H372 C391 0.929 . S
H373 C392 0.929 . S
H374 C404 0.931 . S
H375 C396 0.929 . S
H376 C405 0.930 . S
H377 C397 0.931 . S
O378 Co354 2.097 . S
O378 C406 1.214 . S
H379 C407 0.929 . S
H380 C408 0.929 . S
H381 C409 0.930 . S
H382 C410 0.929 . S
H383 C412 0.930 . S
H384 C389 0.930 . S
H385 C393 0.930 . S
O386 Co355 2.037 . S
O386 C406 1.234 . S
C387 O361 1.269 . S
C387 O362 1.257 . S
C388 H363 0.930 . S
C388 C391 1.388 . S
C388 C393 1.418 . S
C389 H384 0.930 . S
C389 C392 1.404 . S
C389 C393 1.353 . S
N390 Co355 2.145 . S
N390 C391 1.397 . S
N390 C392 1.334 . S
C391 H372 0.929 . S
C391 C388 1.388 . S
C391 N390 1.397 . S
C392 H373 0.929 . S
C392 C389 1.404 . S
C392 N390 1.334 . S
C393 H385 0.930 . S
C393 C388 1.418 . S
C393 C389 1.353 . S
C394 H364 0.930 . S
C394 N395 1.330 . S
C394 C396 1.446 . S
N395 Co354 2.151 . S
N395 C394 1.330 . S
N395 C399 1.418 . S
C396 H375 0.929 . S
C396 C394 1.446 . S
C396 C397 1.332 . S
C397 H377 0.931 . S
C397 C396 1.332 . S
C397 C398 1.267 . S
C398 H366 0.929 . S
C398 C397 1.267 . S
C398 C399 1.251 . S
C399 H369 0.929 . S
C399 N395 1.418 . S
C399 C398 1.251 . S
C400 H367 0.930 . S
C400 C402 1.406 . S
C400 C405 1.261 . S
C401 H368 0.930 . S
C401 N403 1.325 . S
C401 C404 1.357 . S
C402 H370 0.928 . S
C402 C400 1.406 . S
C402 N403 1.261 . S
N403 Co354 2.214 . S
N403 C401 1.325 . S
N403 C402 1.261 . S
C404 H374 0.931 . S
C404 C401 1.357 . S
C404 C405 1.312 . S
C405 H376 0.930 . S
C405 C400 1.261 . S
C405 C404 1.312 . S
C406 O378 1.214 . S
C406 O386 1.234 . S
C407 H379 0.929 . S
C407 C410 1.391 . S
C407 C412 1.391 . S
C408 H380 0.929 . S
C408 C409 1.390 . S
C408 N411 1.391 . S
C409 H381 0.930 . S
C409 C408 1.390 . S
C409 C410 1.392 . S
C410 H382 0.929 . S
C410 C407 1.391 . S
C410 C409 1.392 . S
N411 Co355 2.257 . S
N411 C408 1.391 . S
N411 C412 1.388 . S
C412 H383 0.930 . S
C412 C407 1.391 . S
C412 N411 1.388 . S
Co413 O415 2.143 . S
Co413 O421 2.074 . S
Co413 O424 2.093 . S
Co413 O437 2.097 . S
Co413 N454 2.151 . S
Co413 N462 2.214 . S
Co414 O415 2.160 . S
Co414 O420 2.058 . S
Co414 O430 2.057 . S
Co414 O445 2.037 . S
Co414 N449 2.145 . S
Co414 N470 2.257 . S
O415 Co413 2.143 . S
O415 Co414 2.160 . S
C416 O417 1.278 . S
C416 O424 1.224 . S
O417 C416 1.278 . S
C418 O419 1.245 . S
C418 O430 1.232 . S
O419 C418 1.245 . S
O420 Co414 2.058 . S
O420 C446 1.269 . S
O421 Co413 2.074 . S
O421 C446 1.257 . S
H422 C447 0.930 . S
H423 C453 0.930 . S
O424 Co413 2.093 . S
O424 C416 1.224 . S
H425 C457 0.929 . S
H426 C459 0.930 . S
H427 C460 0.931 . S
H428 C458 0.929 . S
H429 C461 0.928 . S
O430 Co414 2.057 . S
O430 C418 1.232 . S
H431 C450 0.929 . S
H432 C451 0.929 . S
H433 C463 0.931 . S
H434 C455 0.929 . S
H435 C464 0.930 . S
H436 C456 0.931 . S
O437 Co413 2.097 . S
O437 C465 1.214 . S
H438 C466 0.929 . S
H439 C467 0.929 . S
H440 C468 0.930 . S
H441 C469 0.929 . S
H442 C471 0.930 . S
H443 C448 0.930 . S
H444 C452 0.930 . S
O445 Co414 2.037 . S
O445 C465 1.234 . S
C446 O420 1.269 . S
C446 O421 1.257 . S
C447 H422 0.930 . S
C447 C450 1.388 . S
C447 C452 1.418 . S
C448 H443 0.930 . S
C448 C451 1.404 . S
C448 C452 1.353 . S
N449 Co414 2.145 . S
N449 C450 1.397 . S
N449 C451 1.334 . S
C450 H431 0.929 . S
C450 C447 1.388 . S
C450 N449 1.397 . S
C451 H432 0.929 . S
C451 C448 1.404 . S
C451 N449 1.334 . S
C452 H444 0.930 . S
C452 C447 1.418 . S
C452 C448 1.353 . S
C453 H423 0.930 . S
C453 N454 1.330 . S
C453 C455 1.446 . S
N454 Co413 2.151 . S
N454 C453 1.330 . S
N454 C458 1.418 . S
C455 H434 0.929 . S
C455 C453 1.446 . S
C455 C456 1.332 . S
C456 H436 0.931 . S
C456 C455 1.332 . S
C456 C457 1.267 . S
C457 H425 0.929 . S
C457 C456 1.267 . S
C457 C458 1.251 . S
C458 H428 0.929 . S
C458 N454 1.418 . S
C458 C457 1.251 . S
C459 H426 0.930 . S
C459 C461 1.406 1_545 S
C459 C464 1.261 . S
C460 H427 0.931 . S
C460 N462 1.325 1_545 S
C460 C463 1.357 . S
C461 H429 0.928 . S
C461 C459 1.406 1_565 S
C461 N462 1.261 . S
N462 Co413 2.214 . S
N462 C460 1.325 1_565 S
N462 C461 1.261 . S
C463 H433 0.931 . S
C463 C460 1.357 . S
C463 C464 1.312 . S
C464 H435 0.930 . S
C464 C459 1.261 . S
C464 C463 1.312 . S
C465 O437 1.214 . S
C465 O445 1.234 . S
C466 H438 0.929 . S
C466 C469 1.391 . S
C466 C471 1.391 . S
C467 H439 0.929 . S
C467 C468 1.390 . S
C467 N470 1.391 . S
C468 H440 0.930 . S
C468 C467 1.390 . S
C468 C469 1.392 . S
C469 H441 0.929 . S
C469 C466 1.391 . S
C469 C468 1.392 . S
N470 Co414 2.257 . S
N470 C467 1.391 . S
N470 C471 1.388 . S
C471 H442 0.930 . S
C471 C466 1.391 . S
C471 N470 1.388 . S
C472 C473 1.391 . S
C472 C474 1.394 . S
C472 H488 0.931 . S
C473 C472 1.391 . S
C473 C477 1.376 . S
C474 C472 1.394 . S
C474 C475 1.369 . S
C474 C478 1.531 1_455 S
C475 C474 1.369 . S
C475 C476 1.410 . S
C475 C483 1.503 1_445 S
C476 C475 1.410 . S
C476 C477 1.392 . S
C476 C479 1.511 1_545 S
C477 C473 1.376 . S
C477 C476 1.392 . S
C477 H489 0.929 . S
C478 C474 1.531 1_655 S
C478 H490 0.960 . S
C478 H491 0.962 . S
C478 H492 0.960 . S
C479 C476 1.511 1_565 S
C479 H493 0.961 . S
C479 H494 0.961 . S
C479 H495 0.961 . S
C480 C481 1.370 . S
C480 C482 1.363 . S
C480 H496 0.931 . S
C481 C480 1.370 . S
C481 C485 1.408 . S
C482 C480 1.363 . S
C482 C483 1.370 . S
C482 C486 1.524 1_565 S
C483 C475 1.503 1_665 S
C483 C482 1.370 . S
C483 C484 1.403 . S
C484 C483 1.403 . S
C484 C485 1.404 . S
C484 C487 1.539 1_655 S
C485 C481 1.408 . S
C485 C484 1.404 . S
C485 H497 0.930 . S
C486 C482 1.524 1_545 S
C486 H498 0.956 . S
C486 H499 0.961 . S
C486 H500 0.961 1_545 S
C487 C484 1.539 1_455 S
C487 H501 0.958 . S
C487 H502 0.961 . S
C487 H503 0.960 . S
H488 C472 0.931 . S
H489 C477 0.929 . S
H490 C478 0.960 . S
H491 C478 0.962 . S
H492 C478 0.960 . S
H493 C479 0.961 . S
H494 C479 0.961 . S
H495 C479 0.961 . S
H496 C480 0.931 . S
H497 C485 0.930 . S
H498 C486 0.956 . S
H499 C486 0.961 . S
H500 C486 0.961 1_565 S
H501 C487 0.958 . S
H502 C487 0.961 . S
H503 C487 0.960 . S
C504 C505 1.391 . S
C504 C506 1.394 . S
C504 H520 0.931 . S
C505 C504 1.391 . S
C505 C509 1.376 . S
C506 C504 1.394 . S
C506 C507 1.369 . S
C506 C510 1.531 . S
C507 C506 1.369 . S
C507 C508 1.410 . S
C507 C515 1.503 . S
C508 C507 1.410 . S
C508 C509 1.392 . S
C508 C511 1.511 . S
C509 C505 1.376 . S
C509 C508 1.392 . S
C509 H521 0.929 . S
C510 C506 1.531 . S
C510 H522 0.960 . S
C510 H523 0.962 . S
C510 H524 0.960 . S
C511 C508 1.511 . S
C511 H525 0.961 . S
C511 H526 0.961 . S
C511 H527 0.961 . S
C512 C513 1.370 . S
C512 C514 1.363 . S
C512 H528 0.931 . S
C513 C512 1.370 . S
C513 C517 1.408 . S
C514 C512 1.363 . S
C514 C515 1.370 . S
C514 C518 1.524 . S
C515 C507 1.503 . S
C515 C514 1.370 . S
C515 C516 1.403 . S
C516 C515 1.403 . S
C516 C517 1.404 . S
C516 C519 1.539 . S
C517 C513 1.408 . S
C517 C516 1.404 . S
C517 H529 0.930 . S
C518 C514 1.524 . S
C518 H530 0.956 . S
C518 H531 0.961 . S
C518 H532 0.961 . S
C519 C516 1.539 . S
C519 H533 0.958 . S
C519 H534 0.961 . S
C519 H535 0.960 . S
H520 C504 0.931 . S
H521 C509 0.929 . S
H522 C510 0.960 . S
H523 C510 0.962 . S
H524 C510 0.960 . S
H525 C511 0.961 . S
H526 C511 0.961 . S
H527 C511 0.961 . S
H528 C512 0.931 . S
H529 C517 0.930 . S
H530 C518 0.956 . S
H531 C518 0.961 . S
H532 C518 0.961 . S
H533 C519 0.958 . S
H534 C519 0.961 . S
H535 C519 0.960 . S
C536 C537 1.391 . S
C536 C538 1.394 . S
C536 H552 0.931 . S
C537 C536 1.391 . S
C537 C541 1.376 . S
C538 C536 1.394 . S
C538 C539 1.369 . S
C538 C542 1.531 . S
C539 C538 1.369 . S
C539 C540 1.410 . S
C539 C547 1.503 . S
C540 C539 1.410 . S
C540 C541 1.392 . S
C540 C543 1.511 . S
C541 C537 1.376 . S
C541 C540 1.392 . S
C541 H553 0.929 . S
C542 C538 1.531 . S
C542 H554 0.960 . S
C542 H555 0.962 . S
C542 H556 0.960 . S
C543 C540 1.511 . S
C543 H557 0.961 . S
C543 H558 0.961 . S
C543 H559 0.961 . S
C544 C545 1.370 . S
C544 C546 1.363 . S
C544 H560 0.931 . S
C545 C544 1.370 . S
C545 C549 1.408 . S
C546 C544 1.363 . S
C546 C547 1.370 . S
C546 C550 1.524 . S
C547 C539 1.503 . S
C547 C546 1.370 . S
C547 C548 1.403 . S
C548 C547 1.403 . S
C548 C549 1.404 . S
C548 C551 1.539 . S
C549 C545 1.408 . S
C549 C548 1.404 . S
C549 H561 0.930 . S
C550 C546 1.524 . S
C550 H562 0.956 . S
C550 H563 0.961 . S
C550 H564 0.961 . S
C551 C548 1.539 . S
C551 H565 0.958 . S
C551 H566 0.961 . S
C551 H567 0.960 . S
H552 C536 0.931 . S
H553 C541 0.929 . S
H554 C542 0.960 . S
H555 C542 0.962 . S
H556 C542 0.960 . S
H557 C543 0.961 . S
H558 C543 0.961 . S
H559 C543 0.961 . S
H560 C544 0.931 . S
H561 C549 0.930 . S
H562 C550 0.956 . S
H563 C550 0.961 . S
H564 C550 0.961 . S
H565 C551 0.958 . S
H566 C551 0.961 . S
H567 C551 0.960 . S
C568 C569 1.391 . S
C568 C570 1.394 . S
C568 H584 0.931 . S
C569 C568 1.391 . S
C569 C573 1.376 . S
C570 C568 1.394 . S
C570 C571 1.369 . S
C570 C574 1.531 . S
C571 C570 1.369 . S
C571 C572 1.410 . S
C571 C579 1.503 1_445 S
C572 C571 1.410 . S
C572 C573 1.392 . S
C572 C575 1.511 . S
C573 C569 1.376 . S
C573 C572 1.392 . S
C573 H585 0.929 . S
C574 C570 1.531 . S
C574 H586 0.960 1_455 S
C574 H587 0.962 1_545 S
C574 H588 0.960 . S
C575 C572 1.511 . S
C575 H589 0.961 . S
C575 H590 0.961 1_445 S
C575 H591 0.961 1_455 S
C576 C577 1.370 . S
C576 C578 1.363 . S
C576 H592 0.931 . S
C577 C576 1.370 . S
C577 C581 1.408 . S
C578 C576 1.363 . S
C578 C579 1.370 . S
C578 C582 1.524 1_655 S
C579 C571 1.503 1_665 S
C579 C578 1.370 . S
C579 C580 1.403 1_565 S
C580 C579 1.403 1_545 S
C580 C581 1.404 1_545 S
C580 C583 1.539 . S
C581 C577 1.408 . S
C581 C580 1.404 1_565 S
C581 H593 0.930 . S
C582 C578 1.524 1_455 S
C582 H594 0.956 . S
C582 H595 0.961 . S
C582 H596 0.961 . S
C583 C580 1.539 . S
C583 H597 0.958 . S
C583 H598 0.961 . S
C583 H599 0.960 . S
H584 C568 0.931 . S
H585 C573 0.929 . S
H586 C574 0.960 1_655 S
H587 C574 0.962 1_565 S
H588 C574 0.960 . S
H589 C575 0.961 . S
H590 C575 0.961 1_665 S
H591 C575 0.961 1_655 S
H592 C576 0.931 . S
H593 C581 0.930 . S
H594 C582 0.956 . S
H595 C582 0.961 . S
H596 C582 0.961 . S
H597 C583 0.958 . S
H598 C583 0.961 . S
H599 C583 0.960 . S
C600 C601 1.391 . S
C600 C602 1.394 . S
C600 H616 0.931 . S
C601 C600 1.391 . S
C601 C605 1.376 . S
C602 C600 1.394 . S
C602 C603 1.369 . S
C602 C606 1.531 . S
C603 C602 1.369 . S
C603 C604 1.410 . S
C603 C611 1.503 . S
C604 C603 1.410 . S
C604 C605 1.392 . S
C604 C607 1.511 . S
C605 C601 1.376 . S
C605 C604 1.392 . S
C605 H617 0.929 . S
C606 C602 1.531 . S
C606 H618 0.960 . S
C606 H619 0.962 . S
C606 H620 0.960 . S
C607 C604 1.511 . S
C607 H621 0.961 . S
C607 H622 0.961 . S
C607 H623 0.961 . S
C608 C609 1.370 . S
C608 C610 1.363 . S
C608 H624 0.931 . S
C609 C608 1.370 . S
C609 C613 1.408 . S
C610 C608 1.363 . S
C610 C611 1.370 . S
C610 C614 1.524 . S
C611 C603 1.503 . S
C611 C610 1.370 . S
C611 C612 1.403 . S
C612 C611 1.403 . S
C612 C613 1.404 . S
C612 C615 1.539 . S
C613 C609 1.408 . S
C613 C612 1.404 . S
C613 H625 0.930 . S
C614 C610 1.524 . S
C614 H626 0.956 . S
C614 H627 0.961 . S
C614 H628 0.961 . S
C615 C612 1.539 . S
C615 H629 0.958 . S
C615 H630 0.961 . S
C615 H631 0.960 . S
H616 C600 0.931 . S
H617 C605 0.929 . S
H618 C606 0.960 . S
H619 C606 0.962 . S
H620 C606 0.960 . S
H621 C607 0.961 . S
H622 C607 0.961 . S
H623 C607 0.961 . S
H624 C608 0.931 . S
H625 C613 0.930 . S
H626 C614 0.956 . S
H627 C614 0.961 . S
H628 C614 0.961 . S
H629 C615 0.958 . S
H630 C615 0.961 . S
H631 C615 0.960 . S
C632 C633 1.391 . S
C632 C634 1.394 . S
C632 H648 0.931 . S
C633 C632 1.391 . S
C633 C637 1.376 . S
C634 C632 1.394 . S
C634 C635 1.369 . S
C634 C638 1.531 . S
C635 C634 1.369 . S
C635 C636 1.410 . S
C635 C643 1.503 1_556 S
C636 C635 1.410 . S
C636 C637 1.392 . S
C636 C639 1.511 . S
C637 C633 1.376 . S
C637 C636 1.392 . S
C637 H649 0.929 . S
C638 C634 1.531 . S
C638 H650 0.960 . S
C638 H651 0.962 . S
C638 H652 0.960 . S
C639 C636 1.511 . S
C639 H653 0.961 . S
C639 H654 0.961 1_556 S
C639 H655 0.961 . S
C640 C641 1.370 . S
C640 C642 1.363 . S
C640 H656 0.931 . S
C641 C640 1.370 . S
C641 C645 1.408 . S
C642 C640 1.363 . S
C642 C643 1.370 . S
C642 C646 1.524 . S
C643 C635 1.503 1_554 S
C643 C642 1.370 . S
C643 C644 1.403 . S
C644 C643 1.403 . S
C644 C645 1.404 . S
C644 C647 1.539 . S
C645 C641 1.408 . S
C645 C644 1.404 . S
C645 H657 0.930 . S
C646 C642 1.524 . S
C646 H658 0.956 1_554 S
C646 H659 0.963 . S
C646 H660 0.961 . S
C647 C644 1.539 . S
C647 H661 0.958 . S
C647 H662 0.961 . S
C647 H663 0.960 . S
H648 C632 0.931 . S
H649 C637 0.929 . S
H650 C638 0.960 . S
H651 C638 0.962 . S
H652 C638 0.960 . S
H653 C639 0.961 . S
H654 C639 0.961 1_554 S
H655 C639 0.961 . S
H656 C640 0.931 . S
H657 C645 0.930 . S
H658 C646 0.956 1_556 S
H659 C646 0.963 . S
H660 C646 0.961 . S
H661 C647 0.958 . S
H662 C647 0.961 . S
H663 C647 0.960 . S
C664 C665 1.391 . S
C664 C666 1.394 . S
C664 H680 0.931 . S
C665 C664 1.391 . S
C665 C669 1.376 . S
C666 C664 1.394 . S
C666 C667 1.369 . S
C666 C670 1.531 . S
C667 C666 1.369 . S
C667 C668 1.410 . S
C667 C675 1.503 . S
C668 C667 1.410 . S
C668 C669 1.392 . S
C668 C671 1.511 . S
C669 C665 1.376 . S
C669 C668 1.392 . S
C669 H681 0.929 . S
C670 C666 1.531 . S
C670 H682 0.960 . S
C670 H683 0.962 . S
C670 H684 0.960 . S
C671 C668 1.511 . S
C671 H685 0.961 . S
C671 H686 0.961 . S
C671 H687 0.961 . S
C672 C673 1.370 . S
C672 C674 1.363 . S
C672 H688 0.931 . S
C673 C672 1.370 . S
C673 C677 1.408 . S
C674 C672 1.363 . S
C674 C675 1.370 . S
C674 C678 1.524 . S
C675 C667 1.503 . S
C675 C674 1.370 . S
C675 C676 1.403 . S
C676 C675 1.403 . S
C676 C677 1.404 . S
C676 C679 1.539 . S
C677 C673 1.408 . S
C677 C676 1.404 . S
C677 H689 0.930 . S
C678 C674 1.524 . S
C678 H690 0.956 . S
C678 H691 0.961 . S
C678 H692 0.961 . S
C679 C676 1.539 . S
C679 H693 0.958 . S
C679 H694 0.961 . S
C679 H695 0.960 . S
H680 C664 0.931 . S
H681 C669 0.929 . S
H682 C670 0.960 . S
H683 C670 0.962 . S
H684 C670 0.960 . S
H685 C671 0.961 . S
H686 C671 0.961 . S
H687 C671 0.961 . S
H688 C672 0.931 . S
H689 C677 0.930 . S
H690 C678 0.956 . S
H691 C678 0.961 . S
H692 C678 0.961 . S
H693 C679 0.958 . S
H694 C679 0.961 . S
H695 C679 0.960 . S
C696 C697 1.391 . S
C696 C698 1.394 . S
C696 H712 0.931 . S
C697 C696 1.391 . S
C697 C701 1.376 . S
C698 C696 1.394 . S
C698 C699 1.369 . S
C698 C702 1.531 . S
C699 C698 1.369 . S
C699 C700 1.410 . S
C699 C707 1.503 1_556 S
C700 C699 1.410 . S
C700 C701 1.392 . S
C700 C703 1.511 . S
C701 C697 1.376 . S
C701 C700 1.392 . S
C701 H713 0.929 . S
C702 C698 1.531 . S
C702 H714 0.960 1_556 S
C702 H715 0.962 . S
C702 H716 0.960 . S
C703 C700 1.511 . S
C703 H717 0.961 . S
C703 H718 0.961 . S
C703 H719 0.961 . S
C704 C705 1.370 . S
C704 C706 1.363 . S
C704 H720 0.931 . S
C705 C704 1.370 . S
C705 C709 1.408 . S
C706 C704 1.363 . S
C706 C707 1.370 . S
C706 C710 1.524 . S
C707 C699 1.503 1_554 S
C707 C706 1.370 . S
C707 C708 1.403 . S
C708 C707 1.403 . S
C708 C709 1.404 . S
C708 C711 1.539 . S
C709 C705 1.408 . S
C709 C708 1.404 . S
C709 H721 0.930 . S
C710 C706 1.524 . S
C710 H722 0.956 1_554 S
C710 H723 0.961 1_554 S
C710 H724 0.961 . S
C711 C708 1.539 . S
C711 H725 0.958 . S
C711 H726 0.961 . S
C711 H727 0.960 . S
H712 C696 0.931 . S
H713 C701 0.929 . S
H714 C702 0.960 1_554 S
H715 C702 0.962 . S
H716 C702 0.960 . S
H717 C703 0.961 . S
H718 C703 0.961 . S
H719 C703 0.961 . S
H720 C704 0.931 . S
H721 C709 0.930 . S
H722 C710 0.956 1_556 S
H723 C710 0.961 1_556 S
H724 C710 0.961 . S
H725 C711 0.958 . S
H726 C711 0.961 . S
H727 C711 0.960 . S
C728 C729 1.391 . S
C728 C730 1.394 . S
C728 H744 0.931 . S
C729 C728 1.391 . S
C729 C733 1.376 . S
C730 C728 1.394 . S
C730 C731 1.369 . S
C730 C734 1.531 . S
C731 C730 1.369 . S
C731 C732 1.410 . S
C731 C739 1.503 . S
C732 C731 1.410 . S
C732 C733 1.392 . S
C732 C735 1.511 . S
C733 C729 1.376 . S
C733 C732 1.392 . S
C733 H745 0.929 . S
C734 C730 1.531 . S
C734 H746 0.960 . S
C734 H747 0.962 . S
C734 H748 0.960 . S
C735 C732 1.511 . S
C735 H749 0.961 . S
C735 H750 0.961 . S
C735 H751 0.961 . S
C736 C737 1.370 . S
C736 C738 1.363 . S
C736 H752 0.931 . S
C737 C736 1.370 . S
C737 C741 1.408 . S
C738 C736 1.363 . S
C738 C739 1.370 . S
C738 C742 1.524 . S
C739 C731 1.503 . S
C739 C738 1.370 . S
C739 C740 1.403 . S
C740 C739 1.403 . S
C740 C741 1.404 . S
C740 C743 1.539 . S
C741 C737 1.408 . S
C741 C740 1.404 . S
C741 H753 0.930 . S
C742 C738 1.524 . S
C742 H754 0.956 . S
C742 H755 0.961 . S
C742 H756 0.961 . S
C743 C740 1.539 . S
C743 H757 0.958 . S
C743 H758 0.961 . S
C743 H759 0.960 . S
H744 C728 0.931 . S
H745 C733 0.929 . S
H746 C734 0.960 . S
H747 C734 0.962 . S
H748 C734 0.960 . S
H749 C735 0.961 . S
H750 C735 0.961 . S
H751 C735 0.961 . S
H752 C736 0.931 . S
H753 C741 0.930 . S
H754 C742 0.956 . S
H755 C742 0.961 . S
H756 C742 0.961 . S
H757 C743 0.958 . S
H758 C743 0.961 . S
H759 C743 0.960 . S
C760 C761 1.391 . S
C760 C762 1.394 . S
C760 H776 0.931 . S
C761 C760 1.391 . S
C761 C765 1.376 . S
C762 C760 1.394 . S
C762 C763 1.369 . S
C762 C766 1.531 . S
C763 C762 1.369 . S
C763 C764 1.410 . S
C763 C771 1.503 . S
C764 C763 1.410 . S
C764 C765 1.392 . S
C764 C767 1.511 . S
C765 C761 1.376 . S
C765 C764 1.392 . S
C765 H777 0.929 . S
C766 C762 1.531 . S
C766 H778 0.960 . S
C766 H779 0.962 . S
C766 H780 0.960 . S
C767 C764 1.511 . S
C767 H781 0.961 . S
C767 H782 0.961 . S
C767 H783 0.961 . S
C768 C769 1.370 . S
C768 C770 1.363 1_545 S
C768 H784 0.931 . S
C769 C768 1.370 . S
C769 C773 1.408 1_545 S
C770 C768 1.363 1_565 S
C770 C771 1.370 . S
C770 C774 1.524 . S
C771 C763 1.503 . S
C771 C770 1.370 . S
C771 C772 1.403 . S
C772 C771 1.403 . S
C772 C773 1.404 . S
C772 C775 1.539 . S
C773 C769 1.408 1_565 S
C773 C772 1.404 . S
C773 H785 0.930 . S
C774 C770 1.524 . S
C774 H786 0.956 . S
C774 H787 0.961 . S
C774 H788 0.961 1_565 S
C775 C772 1.539 . S
C775 H789 0.958 . S
C775 H790 0.961 . S
C775 H791 0.960 . S
H776 C760 0.931 . S
H777 C765 0.929 . S
H778 C766 0.960 . S
H779 C766 0.962 . S
H780 C766 0.960 . S
H781 C767 0.961 . S
H782 C767 0.961 . S
H783 C767 0.961 . S
H784 C768 0.931 . S
H785 C773 0.930 . S
H786 C774 0.956 . S
H787 C774 0.961 . S
H788 C774 0.961 1_545 S
H789 C775 0.958 . S
H790 C775 0.961 . S
H791 C775 0.960 . S
C792 C793 1.391 . S
C792 C794 1.394 . S
C792 H808 0.931 . S
C793 C792 1.391 . S
C793 C797 1.376 . S
C794 C792 1.394 . S
C794 C795 1.369 . S
C794 C798 1.531 . S
C795 C794 1.369 . S
C795 C796 1.410 . S
C795 C803 1.503 . S
C796 C795 1.410 . S
C796 C797 1.392 . S
C796 C799 1.511 . S
C797 C793 1.376 . S
C797 C796 1.392 . S
C797 H809 0.929 . S
C798 C794 1.531 . S
C798 H810 0.960 . S
C798 H811 0.962 . S
C798 H812 0.960 . S
C799 C796 1.511 . S
C799 H813 0.961 . S
C799 H814 0.961 . S
C799 H815 0.961 . S
C800 C801 1.370 . S
C800 C802 1.363 . S
C800 H816 0.931 . S
C801 C800 1.370 . S
C801 C805 1.408 . S
C802 C800 1.363 . S
C802 C803 1.370 . S
C802 C806 1.524 . S
C803 C795 1.503 . S
C803 C802 1.370 . S
C803 C804 1.403 . S
C804 C803 1.403 . S
C804 C805 1.404 . S
C804 C807 1.539 . S
C805 C801 1.408 . S
C805 C804 1.404 . S
C805 H817 0.930 . S
C806 C802 1.524 . S
C806 H818 0.956 . S
C806 H819 0.961 . S
C806 H820 0.961 . S
C807 C804 1.539 . S
C807 H821 0.958 . S
C807 H822 0.961 . S
C807 H823 0.960 . S
H808 C792 0.931 . S
H809 C797 0.929 . S
H810 C798 0.960 . S
H811 C798 0.962 . S
H812 C798 0.960 . S
H813 C799 0.961 . S
H814 C799 0.961 . S
H815 C799 0.961 . S
H816 C800 0.931 . S
H817 C805 0.930 . S
H818 C806 0.956 . S
H819 C806 0.961 . S
H820 C806 0.961 . S
H821 C807 0.958 . S
H822 C807 0.961 . S
H823 C807 0.960 . S
C824 C825 1.391 . S
C824 C826 1.394 . S
C824 H840 0.931 . S
C825 C824 1.391 . S
C825 C829 1.376 . S
C826 C824 1.394 . S
C826 C827 1.369 . S
C826 C830 1.531 . S
C827 C826 1.369 . S
C827 C828 1.410 . S
C827 C835 1.503 . S
C828 C827 1.410 . S
C828 C829 1.392 . S
C828 C831 1.511 . S
C829 C825 1.376 . S
C829 C828 1.392 . S
C829 H841 0.929 . S
C830 C826 1.531 . S
C830 H842 0.960 . S
C830 H843 0.962 . S
C830 H844 0.960 . S
C831 C828 1.511 . S
C831 H845 0.961 . S
C831 H846 0.961 . S
C831 H847 0.961 . S
C832 C833 1.370 . S
C832 C834 1.363 1_565 S
C832 H848 0.931 . S
C833 C832 1.370 . S
C833 C837 1.408 1_565 S
C834 C832 1.363 1_545 S
C834 C835 1.370 . S
C834 C838 1.524 . S
C835 C827 1.503 . S
C835 C834 1.370 . S
C835 C836 1.403 . S
C836 C835 1.403 . S
C836 C837 1.404 . S
C836 C839 1.539 . S
C837 C833 1.408 1_545 S
C837 C836 1.404 . S
C837 H849 0.930 . S
C838 C834 1.524 . S
C838 H850 0.956 . S
C838 H851 0.961 . S
C838 H852 0.961 1_545 S
C839 C836 1.539 . S
C839 H853 0.958 . S
C839 H854 0.961 . S
C839 H855 0.960 . S
H840 C824 0.931 . S
H841 C829 0.929 . S
H842 C830 0.960 . S
H843 C830 0.962 . S
H844 C830 0.960 . S
H845 C831 0.961 . S
H846 C831 0.961 . S
H847 C831 0.961 . S
H848 C832 0.931 . S
H849 C837 0.930 . S
H850 C838 0.956 . S
H851 C838 0.961 . S
H852 C838 0.961 1_565 S
H853 C839 0.958 . S
H854 C839 0.961 . S
H855 C839 0.960 . S
C856 C857 1.391 1_655 S
C856 C858 1.394 . S
C856 H872 0.931 . S
C857 C856 1.391 1_455 S
C857 C861 1.376 . S
C858 C856 1.394 . S
C858 C859 1.369 . S
C858 C862 1.531 . S
C859 C858 1.369 . S
C859 C860 1.410 . S
C859 C867 1.503 . S
C860 C859 1.410 . S
C860 C861 1.392 1_655 S
C860 C863 1.511 . S
C861 C857 1.376 . S
C861 C860 1.392 1_455 S
C861 H873 0.929 . S
C862 C858 1.531 . S
C862 H874 0.960 . S
C862 H875 0.962 . S
C862 H876 0.960 . S
C863 C860 1.511 . S
C863 H877 0.961 1_655 S
C863 H878 0.961 . S
C863 H879 0.961 1_655 S
C864 C865 1.370 . S
C864 C866 1.363 . S
C864 H880 0.931 . S
C865 C864 1.370 . S
C865 C869 1.408 . S
C866 C864 1.363 . S
C866 C867 1.370 . S
C866 C870 1.524 . S
C867 C859 1.503 . S
C867 C866 1.370 . S
C867 C868 1.403 . S
C868 C867 1.403 . S
C868 C869 1.404 . S
C868 C871 1.539 . S
C869 C865 1.408 . S
C869 C868 1.404 . S
C869 H881 0.930 . S
C870 C866 1.524 . S
C870 H882 0.956 . S
C870 H883 0.961 . S
C870 H884 0.961 . S
C871 C868 1.539 . S
C871 H885 0.958 . S
C871 H886 0.961 . S
C871 H887 0.960 . S
H872 C856 0.931 . S
H873 C861 0.929 . S
H874 C862 0.960 . S
H875 C862 0.962 . S
H876 C862 0.960 . S
H877 C863 0.961 1_455 S
H878 C863 0.961 . S
H879 C863 0.961 1_455 S
H880 C864 0.931 . S
H881 C869 0.930 . S
H882 C870 0.956 . S
H883 C870 0.961 . S
H884 C870 0.961 . S
H885 C871 0.958 . S
H886 C871 0.961 . S
H887 C871 0.960 . S
C888 C889 1.391 . S
C888 C890 1.394 . S
C888 H904 0.931 . S
C889 C888 1.391 . S
C889 C893 1.376 . S
C890 C888 1.394 . S
C890 C891 1.369 . S
C890 C894 1.531 . S
C891 C890 1.369 . S
C891 C892 1.410 . S
C891 C899 1.503 . S
C892 C891 1.410 . S
C892 C893 1.392 . S
C892 C895 1.511 . S
C893 C889 1.376 . S
C893 C892 1.392 . S
C893 H905 0.929 . S
C894 C890 1.531 . S
C894 H906 0.960 . S
C894 H907 0.962 . S
C894 H908 0.960 . S
C895 C892 1.511 . S
C895 H909 0.961 . S
C895 H910 0.961 . S
C895 H911 0.961 . S
C896 C897 1.370 . S
C896 C898 1.363 . S
C896 H912 0.931 . S
C897 C896 1.370 . S
C897 C901 1.408 . S
C898 C896 1.363 . S
C898 C899 1.370 . S
C898 C902 1.524 . S
C899 C891 1.503 . S
C899 C898 1.370 . S
C899 C900 1.403 . S
C900 C899 1.403 . S
C900 C901 1.404 . S
C900 C903 1.539 . S
C901 C897 1.408 . S
C901 C900 1.404 . S
C901 H913 0.930 . S
C902 C898 1.524 . S
C902 H914 0.956 . S
C902 H915 0.961 . S
C902 H916 0.961 . S
C903 C900 1.539 . S
C903 H917 0.958 . S
C903 H918 0.961 . S
C903 H919 0.960 . S
H904 C888 0.931 . S
H905 C893 0.929 . S
H906 C894 0.960 . S
H907 C894 0.962 . S
H908 C894 0.960 . S
H909 C895 0.961 . S
H910 C895 0.961 . S
H911 C895 0.961 . S
H912 C896 0.931 . S
H913 C901 0.930 . S
H914 C902 0.956 . S
H915 C902 0.961 . S
H916 C902 0.961 . S
H917 C903 0.958 . S
H918 C903 0.961 . S
H919 C903 0.960 . S
C920 C921 1.391 . S
C920 C922 1.394 . S
C920 H936 0.931 . S
C921 C920 1.391 . S
C921 C925 1.376 . S
C922 C920 1.394 . S
C922 C923 1.369 . S
C922 C926 1.531 . S
C923 C922 1.369 . S
C923 C924 1.410 . S
C923 C931 1.503 . S
C924 C923 1.410 . S
C924 C925 1.392 . S
C924 C927 1.511 . S
C925 C921 1.376 . S
C925 C924 1.392 . S
C925 H937 0.929 . S
C926 C922 1.531 . S
C926 H938 0.960 . S
C926 H939 0.962 . S
C926 H940 0.960 . S
C927 C924 1.511 . S
C927 H941 0.961 . S
C927 H942 0.961 . S
C927 H943 0.961 . S
C928 C929 1.370 . S
C928 C930 1.363 1_655 S
C928 H944 0.931 . S
C929 C928 1.370 . S
C929 C933 1.408 1_655 S
C930 C928 1.363 1_455 S
C930 C931 1.370 . S
C930 C934 1.524 . S
C931 C923 1.503 . S
C931 C930 1.370 . S
C931 C932 1.403 . S
C932 C931 1.403 . S
C932 C933 1.404 . S
C932 C935 1.539 . S
C933 C929 1.408 1_455 S
C933 C932 1.404 . S
C933 H945 0.930 . S
C934 C930 1.524 . S
C934 H946 0.956 . S
C934 H947 0.961 . S
C934 H948 0.961 1_455 S
C935 C932 1.539 . S
C935 H949 0.958 . S
C935 H950 0.961 . S
C935 H951 0.960 . S
H936 C920 0.931 . S
H937 C925 0.929 . S
H938 C926 0.960 . S
H939 C926 0.962 . S
H940 C926 0.960 . S
H941 C927 0.961 . S
H942 C927 0.961 . S
H943 C927 0.961 . S
H944 C928 0.931 . S
H945 C933 0.930 . S
H946 C934 0.956 . S
H947 C934 0.961 . S
H948 C934 0.961 1_655 S
H949 C935 0.958 . S
H950 C935 0.961 . S
H951 C935 0.960 . S
C952 C953 1.391 . S
C952 C954 1.394 . S
C952 H968 0.931 . S
C953 C952 1.391 . S
C953 C957 1.376 . S
C954 C952 1.394 . S
C954 C955 1.369 . S
C954 C958 1.531 . S
C955 C954 1.369 . S
C955 C956 1.410 . S
C955 C963 1.503 . S
C956 C955 1.410 . S
C956 C957 1.392 . S
C956 C959 1.511 . S
C957 C953 1.376 . S
C957 C956 1.392 . S
C957 H969 0.929 . S
C958 C954 1.531 . S
C958 H970 0.960 . S
C958 H971 0.962 . S
C958 H972 0.960 . S
C959 C956 1.511 . S
C959 H973 0.961 . S
C959 H974 0.961 . S
C959 H975 0.961 . S
C960 C961 1.370 . S
C960 C962 1.363 . S
C960 H976 0.931 . S
C961 C960 1.370 . S
C961 C965 1.408 . S
C962 C960 1.363 . S
C962 C963 1.370 . S
C962 C966 1.524 . S
C963 C955 1.503 . S
C963 C962 1.370 . S
C963 C964 1.403 . S
C964 C963 1.403 . S
C964 C965 1.404 . S
C964 C967 1.539 . S
C965 C961 1.408 . S
C965 C964 1.404 . S
C965 H977 0.930 . S
C966 C962 1.524 . S
C966 H978 0.956 . S
C966 H979 0.961 . S
C966 H980 0.961 . S
C967 C964 1.539 . S
C967 H981 0.958 . S
C967 H982 0.961 . S
C967 H983 0.960 . S
H968 C952 0.931 . S
H969 C957 0.929 . S
H970 C958 0.960 . S
H971 C958 0.962 . S
H972 C958 0.960 . S
H973 C959 0.961 . S
H974 C959 0.961 . S
H975 C959 0.961 . S
H976 C960 0.931 . S
H977 C965 0.930 . S
H978 C966 0.956 . S
H979 C966 0.961 . S
H980 C966 0.961 . S
H981 C967 0.958 . S
H982 C967 0.961 . S
H983 C967 0.960 . S
C473 C52 0.899 . S
C481 C170 0.906 . S
C505 C111 0.899 . S
C513 C229 0.906 . S
C537 C288 0.898 . S
C545 C406 0.907 . S
C569 C347 0.899 . S
C577 C465 0.908 . S
C601 C3 1.401 . S
C609 C298 1.405 . S
C633 C62 1.437 . S
C641 C357 1.423 . S
C665 C416 1.435 . S
C673 C121 1.423 . S
C697 C180 1.390 . S
C705 C239 1.401 . S
C729 C269 1.776 . S
C737 C5 1.780 . S
C761 C64 1.782 . S
C769 C328 1.748 . S
C793 C123 1.797 . S
C801 C387 1.746 . S
C825 C182 1.778 . S
C833 C446 1.749 . S
C857 C33 1.773 . S
C865 C241 1.782 . S
C889 C300 1.767 . S
C897 C92 1.766 . S
C921 C359 1.765 . S
C929 C151 1.758 . S
C953 C210 1.727 . S
C961 C418 1.790 . S
