# Generated by pormake.
# Topology wji, (4)-cn, num edge types: 1
# Building blocks:
#     Node 0, Type 0, BuildingBlock: QUQFOY_clean_sbu_3, # of connection points: 4
#     Node 1, Type 0, BuildingBlock: QUQFOY_clean_sbu_3, # of connection points: 4
#     Node 2, Type 0, BuildingBlock: QUQFOY_clean_sbu_3, # of connection points: 4
#     Node 3, Type 0, BuildingBlock: QUQFOY_clean_sbu_3, # of connection points: 4
#     Node 4, Type 0, BuildingBlock: QUQFOY_clean_sbu_3, # of connection points: 4
#     Node 5, Type 0, BuildingBlock: QUQFOY_clean_sbu_3, # of connection points: 4
#     Node 6, Type 0, BuildingBlock: QUQFOY_clean_sbu_3, # of connection points: 4
#     Node 7, Type 0, BuildingBlock: QUQFOY_clean_sbu_3, # of connection points: 4
#     Node 8, Type 0, BuildingBlock: QUQFOY_clean_sbu_3, # of connection points: 4
#     Node 9, Type 0, BuildingBlock: QUQFOY_clean_sbu_3, # of connection points: 4
#     Node 10, Type 0, BuildingBlock: QUQFOY_clean_sbu_3, # of connection points: 4
#     Node 11, Type 0, BuildingBlock: QUQFOY_clean_sbu_3, # of connection points: 4
#     Edge 12, Type (0, 0), BuildingBlock: KIFKEQ_clean_linker_1, # of connection points: 2
#     Edge 13, Type (0, 0), BuildingBlock: KIFKEQ_clean_linker_1, # of connection points: 2
#     Edge 14, Type (0, 0), BuildingBlock: KIFKEQ_clean_linker_1, # of connection points: 2
#     Edge 15, Type (0, 0), BuildingBlock: KIFKEQ_clean_linker_1, # of connection points: 2
#     Edge 16, Type (0, 0), BuildingBlock: KIFKEQ_clean_linker_1, # of connection points: 2
#     Edge 17, Type (0, 0), BuildingBlock: KIFKEQ_clean_linker_1, # of connection points: 2
#     Edge 18, Type (0, 0), BuildingBlock: KIFKEQ_clean_linker_1, # of connection points: 2
#     Edge 19, Type (0, 0), BuildingBlock: KIFKEQ_clean_linker_1, # of connection points: 2
#     Edge 20, Type (0, 0), BuildingBlock: KIFKEQ_clean_linker_1, # of connection points: 2
#     Edge 21, Type (0, 0), BuildingBlock: KIFKEQ_clean_linker_1, # of connection points: 2
#     Edge 22, Type (0, 0), BuildingBlock: KIFKEQ_clean_linker_1, # of connection points: 2
#     Edge 23, Type (0, 0), BuildingBlock: KIFKEQ_clean_linker_1, # of connection points: 2
#     Edge 24, Type (0, 0), BuildingBlock: KIFKEQ_clean_linker_1, # of connection points: 2
#     Edge 25, Type (0, 0), BuildingBlock: KIFKEQ_clean_linker_1, # of connection points: 2
#     Edge 26, Type (0, 0), BuildingBlock: KIFKEQ_clean_linker_1, # of connection points: 2
#     Edge 27, Type (0, 0), BuildingBlock: KIFKEQ_clean_linker_1, # of connection points: 2
#     Edge 28, Type (0, 0), BuildingBlock: KIFKEQ_clean_linker_1, # of connection points: 2
#     Edge 29, Type (0, 0), BuildingBlock: KIFKEQ_clean_linker_1, # of connection points: 2
#     Edge 30, Type (0, 0), BuildingBlock: KIFKEQ_clean_linker_1, # of connection points: 2
#     Edge 31, Type (0, 0), BuildingBlock: KIFKEQ_clean_linker_1, # of connection points: 2
#     Edge 32, Type (0, 0), BuildingBlock: KIFKEQ_clean_linker_1, # of connection points: 2
#     Edge 33, Type (0, 0), BuildingBlock: KIFKEQ_clean_linker_1, # of connection points: 2
#     Edge 34, Type (0, 0), BuildingBlock: KIFKEQ_clean_linker_1, # of connection points: 2
#     Edge 35, Type (0, 0), BuildingBlock: KIFKEQ_clean_linker_1, # of connection points: 2
# Relax obj value: 0.217
# Max RMSD: 0.129
# Mean RMSD: 0.129
data_MOF--net-wji--node1-QUQFOY_clean_sbu_3--edge1-KIFKEQ_clean_linker_1
_symmetry_space_group_name_H-M    P1
_symmetry_Int_Tables_number       1
_symmetry_cell_setting            triclinic
loop_
_symmetry_equiv_pos_as_xyz
'x, y, z'
_cell_length_a     62.362455
_cell_length_b     62.680847
_cell_length_c     24.16039
_cell_angle_alpha  89.558033
_cell_angle_beta   90.052507
_cell_angle_gamma 119.77031
loop_
_atom_site_label
_atom_site_type_symbol
_atom_site_fract_x
_atom_site_fract_y
_atom_site_fract_z
_atom_type_partial_charge
C0 C 0.42879 0.3562 0.43538 0.0
O1 O 0.41585 0.36384 0.45948 0.0
Cd2 Cd 0.37224 0.3413 0.46579 0.0
O3 O 0.41891 0.33417 0.4175 0.0
Cd4 Cd 0.37665 0.29562 0.42586 0.0
C5 C 0.35579 0.32096 0.32966 0.0
O6 O 0.36349 0.30456 0.51231 0.0
O7 O 0.3338 0.27896 0.46087 0.0
O8 O 0.39913 0.2778 0.47219 0.0
C9 C 0.34075 0.28917 0.50756 0.0
O10 O 0.35693 0.3342 0.37057 0.0
C11 C 0.38595 0.25601 0.45502 0.0
O12 O 0.363 0.30512 0.33502 0.0
O13 O 0.3696 0.2527 0.41918 0.0
C14 C 0.03748 0.43023 0.59239 0.0
O15 O 0.01633 0.41472 0.61113 0.0
Cd16 Cd 0.00066 0.37239 0.62906 0.0
O17 O 0.05358 0.42373 0.58239 0.0
Cd18 Cd 0.05408 0.38339 0.593 0.0
C19 C 0.00776 0.35581 0.49707 0.0
O20 O 0.03176 0.36989 0.67966 0.0
O21 O 0.03147 0.34106 0.63148 0.0
O22 O 0.09443 0.40773 0.63781 0.0
C23 C 0.02711 0.34786 0.67732 0.0
O24 O -0.00606 0.35404 0.53766 0.0
C25 C 0.10398 0.39523 0.62072 0.0
O26 O 0.03134 0.36743 0.50229 0.0
O27 O 0.09145 0.37864 0.58549 0.0
C28 C 0.58219 0.0563 0.77961 0.0
O29 O 0.57503 0.03532 0.80121 0.0
Cd30 Cd 0.59778 0.01432 0.80173 0.0
O31 O 0.60402 0.06895 0.75977 0.0
Cd32 Cd 0.64268 0.06476 0.76163 0.0
C33 C 0.61677 0.0192 0.66433 0.0
O34 O 0.63504 0.04154 0.84642 0.0
O35 O 0.66121 0.03933 0.79221 0.0
O36 O 0.66001 0.10134 0.81827 0.0
C37 C 0.65115 0.03517 0.83963 0.0
O38 O 0.60386 0.00674 0.70571 0.0
C39 C 0.681 0.11314 0.79523 0.0
O40 O 0.63252 0.04213 0.66972 0.0
O41 O 0.68409 0.10357 0.75166 0.0
C42 C 0.50097 0.59352 0.93769 0.0
O43 O 0.51437 0.58566 0.95901 0.0
Cd44 Cd 0.55817 0.6087 0.96653 0.0
O45 O 0.51039 0.61595 0.92217 0.0
Cd46 Cd 0.55244 0.65435 0.93015 0.0
C47 C 0.57514 0.63131 0.83227 0.0
O48 O 0.56681 0.64476 0.01436 0.0
O49 O 0.59568 0.67191 0.96226 0.0
O50 O 0.53285 0.67148 -0.01234 0.0
C51 C 0.58928 0.66103 0.00881 0.0
O52 O 0.57508 0.61805 0.87259 0.0
C53 C 0.54229 0.69256 0.96512 0.0
O54 O 0.56624 0.64574 0.83827 0.0
O55 O 0.55513 0.69574 0.92154 0.0
C56 C 0.88459 0.50936 0.10437 0.0
O57 O 0.90584 0.52469 0.12239 0.0
Cd58 Cd 0.92331 0.56788 0.12735 0.0
O59 O 0.86951 0.51654 0.08919 0.0
Cd60 Cd 0.87032 0.55765 0.09262 0.0
C61 C 0.91527 0.58142 -0.00781 0.0
O62 O 0.89413 0.57401 0.17583 0.0
O63 O 0.89445 0.60144 0.12117 0.0
O64 O 0.83361 0.53762 0.15077 0.0
C65 C 0.89919 0.59601 0.16858 0.0
O66 O 0.9293 0.58333 0.03244 0.0
C67 C 0.8214 0.54642 0.12771 0.0
O68 O 0.89179 0.57093 -0.00087 0.0
O69 O 0.83072 0.5589 0.08349 0.0
C70 C 0.3414 0.88873 0.23663 0.0
O71 O 0.34968 0.91021 0.25568 0.0
Cd72 Cd 0.32756 0.92944 0.28575 0.0
O73 O 0.31813 0.87405 0.23168 0.0
Cd74 Cd 0.27933 0.87701 0.25157 0.0
C75 C 0.29919 0.92569 0.15952 0.0
O76 O 0.29449 0.89851 0.33656 0.0
O77 O 0.26372 0.90076 0.30391 0.0
O78 O 0.26191 0.83566 0.29264 0.0
C79 C 0.27861 0.90513 0.34357 0.0
O80 O 0.31389 0.93784 0.19847 0.0
C81 C 0.23958 0.82822 0.2798 0.0
O82 O 0.28482 0.90238 0.16445 0.0
O83 O 0.23576 0.84242 0.24844 0.0
C84 C 0.58245 0.51204 0.36144 0.0
O85 O 0.5751 0.52592 0.34054 0.0
Cd86 Cd 0.59933 0.56946 0.33336 0.0
O87 O 0.60489 0.52083 0.37676 0.0
Cd88 Cd 0.64417 0.56215 0.36903 0.0
C89 C 0.6217 0.58513 0.46749 0.0
O90 O 0.63533 0.57718 0.28488 0.0
O91 O 0.66288 0.60543 0.33643 0.0
O92 O 0.66027 0.54159 0.31177 0.0
C93 C 0.65203 0.59937 0.29004 0.0
O94 O 0.60877 0.58576 0.42731 0.0
C95 C 0.68144 0.55042 0.33358 0.0
O96 O 0.63569 0.57571 0.46126 0.0
O97 O 0.68515 0.56346 0.37665 0.0
C98 C 0.03939 0.5878 0.5142 0.0
O99 O 0.01817 0.58176 0.49514 0.0
Cd100 Cd 1e-05 0.607 0.48785 0.0
O101 O 0.05396 0.60987 0.52969 0.0
Cd102 Cd 0.05227 0.64979 0.52571 0.0
C103 C 0.00617 0.62737 0.6233 0.0
O104 O 0.02995 0.64209 0.43965 0.0
O105 O 0.02807 0.66891 0.49114 0.0
O106 O 0.09264 0.66699 0.47975 0.0
C107 C 0.02431 0.65876 0.44425 0.0
O108 O -0.00729 0.61555 0.58237 0.0
C109 C 0.10167 0.68868 0.49792 0.0
O110 O 0.02966 0.64059 0.61758 0.0
O111 O 0.08887 0.69203 0.53422 0.0
C112 C 0.42593 0.0567 0.72097 0.0
O113 O 0.41271 0.03521 0.70197 0.0
Cd114 Cd 0.37141 0.01606 0.67174 0.0
O115 O 0.41737 0.07143 0.72571 0.0
Cd116 Cd 0.37568 0.06854 0.70539 0.0
C117 C 0.34675 0.02 0.79763 0.0
O118 O 0.36926 0.04693 0.62047 0.0
O119 O 0.33634 0.04488 0.65307 0.0
O120 O 0.39956 0.10974 0.66376 0.0
C121 C 0.34678 0.04042 0.61344 0.0
O122 O 0.34929 0.00778 0.75883 0.0
C123 C 0.38474 0.11728 0.67651 0.0
O124 O 0.35574 0.04332 0.79257 0.0
O125 O 0.36683 0.10324 0.70815 0.0
C126 C 0.34532 0.4417 0.8578 0.0
O127 O 0.35333 0.42916 0.83349 0.0
Cd128 Cd 0.33117 0.38578 0.82653 0.0
O129 O 0.32305 0.43154 0.87557 0.0
Cd130 Cd 0.28457 0.38933 0.86684 0.0
C131 C 0.31006 0.36837 0.96263 0.0
O132 O 0.2943 0.37679 0.78037 0.0
O133 O 0.26821 0.34706 0.83202 0.0
O134 O 0.26635 0.41155 0.82092 0.0
C135 C 0.27877 0.35415 0.78535 0.0
O136 O 0.32367 0.36992 0.9217 0.0
C137 C 0.24443 0.39809 0.83836 0.0
O138 O 0.29398 0.37532 0.95737 0.0
O139 O 0.24127 0.38171 0.87409 0.0
C140 C 0.88782 0.35441 0.02996 0.0
O141 O 0.90912 0.3599 0.01233 0.0
Cd142 Cd 0.9253 0.33325 -0.00123 0.0
O143 O 0.8718 0.332 0.04057 0.0
Cd144 Cd 0.87181 0.29144 0.03202 0.0
C145 C 0.91684 0.30947 0.13136 0.0
O146 O 0.89555 0.29948 0.94816 0.0
O147 O 0.89588 0.27178 0.00059 0.0
O148 O 0.835 0.27555 0.97449 0.0
C149 C 0.90069 0.28247 0.95376 0.0
O150 O 0.9311 0.32156 0.09133 0.0
C151 C 0.8228 0.25457 -0.00276 0.0
O152 O 0.89333 0.29766 0.12476 0.0
O153 O 0.83216 0.25107 0.04098 0.0
C154 C 0.49868 0.8903 0.18171 0.0
O155 O 0.51237 0.91137 0.1604 0.0
Cd156 Cd 0.5561 0.9327 0.15998 0.0
O157 O 0.50801 0.87773 0.20143 0.0
Cd158 Cd 0.551 0.8823 0.19979 0.0
C159 C 0.57052 0.92782 0.29722 0.0
O160 O 0.56641 0.90568 0.11514 0.0
O161 O 0.59484 0.9078 0.16919 0.0
O162 O 0.53222 0.8458 0.1429 0.0
C163 C 0.58888 0.91204 0.12187 0.0
O164 O 0.56986 0.94025 0.25596 0.0
C165 C 0.54153 0.83411 0.16613 0.0
O166 O 0.56351 0.90492 0.29169 0.0
O167 O 0.55401 0.84369 0.20992 0.0
H168 H 0.28656 0.36268 0.0635 0.0
H169 H 0.34281 0.35241 -0.01575 0.0
H170 H 0.29491 0.3484 0.15126 0.0
H171 H 0.35152 0.33893 0.07134 0.0
H172 H 0.35178 0.29883 0.22829 0.0
H173 H 0.33796 0.30757 0.14038 0.0
H174 H 0.32567 0.36183 0.22116 0.0
H175 H 0.33869 0.35272 0.30834 0.0
C176 C 0.30065 0.35738 0.06463 0.0
C177 C 0.31401 0.35887 0.01651 0.0
C178 C 0.30556 0.34928 0.1151 0.0
C179 C 0.32399 0.34247 0.11883 0.0
C180 C 0.33695 0.34357 0.07037 0.0
C181 C 0.33205 0.35159 0.02019 0.0
C182 C 0.34594 0.31247 0.2273 0.0
C183 C 0.34653 0.32507 0.27569 0.0
C184 C 0.33812 0.31762 0.17676 0.0
C185 C 0.33067 0.33551 0.17322 0.0
C186 C 0.33083 0.34769 0.22195 0.0
C187 C 0.33859 0.34256 0.2722 0.0
H188 H 0.96063 0.31883 0.48066 0.0
H189 H 0.02668 0.36936 0.3913 0.0
H190 H 0.93832 0.30447 0.39408 0.0
H191 H 0.00409 0.35575 0.30418 0.0
H192 H 0.96306 0.31704 0.15047 0.0
H193 H -0.01494 0.32531 0.2377 0.0
H194 H 0.92004 0.31563 0.32381 0.0
H195 H 0.89771 0.30628 0.23606 0.0
C196 C -0.02954 0.32686 0.44234 0.0
C197 C -0.00449 0.34533 0.4431 0.0
C198 C 0.95752 0.31875 0.39247 0.0
C199 C -0.0309 0.32905 0.34153 0.0
C200 C -0.00556 0.34704 0.34221 0.0
C201 C 0.00751 0.35495 0.39228 0.0
C202 C 0.95331 0.31632 0.18815 0.0
C203 C 0.92857 0.31102 0.18614 0.0
C204 C -0.03392 0.32135 0.23836 0.0
C205 C 0.95467 0.3216 0.28836 0.0
C206 C 0.92956 0.31541 0.28656 0.0
C207 C 0.91663 0.31003 0.23615 0.0
H208 H 0.58616 -0.02394 0.31859 0.0
H209 H 0.57502 0.90954 0.39912 0.0
H210 H 0.59908 -0.00219 0.40537 0.0
H211 H 0.58875 0.93175 0.48673 0.0
H212 H 0.58461 0.97082 0.64337 0.0
H213 H 0.57549 0.94907 0.55655 0.0
H214 H 0.63008 0.01539 0.47429 0.0
H215 H 0.63885 0.03759 0.56196 0.0
C216 C 0.58664 0.966 0.35477 0.0
C217 C 0.57932 0.94082 0.35142 0.0
C218 C 0.59435 -0.02131 0.40483 0.0
C219 C 0.59511 0.96676 0.45363 0.0
C220 C 0.58815 0.94161 0.45033 0.0
C221 C 0.58036 0.92882 0.39994 0.0
C222 C 0.59484 -0.01907 0.60698 0.0
C223 C 0.61246 0.00619 0.61011 0.0
C224 C 0.58969 0.96824 0.5569 0.0
C225 C 0.60197 -0.01974 0.50782 0.0
C226 C 0.61994 0.00546 0.5109 0.0
C227 C 0.62511 0.01825 0.56133 0.0
H228 H 0.62528 0.57005 0.57304 0.0
H229 H 0.61172 0.62215 0.48451 0.0
H230 H 0.61533 0.58281 0.66009 0.0
H231 H 0.60322 0.63601 0.57105 0.0
H232 H 0.56148 0.63653 0.72653 0.0
H233 H 0.5744 0.62664 0.63957 0.0
H234 H 0.62513 0.61098 0.72927 0.0
H235 H 0.61108 0.61947 0.81569 0.0
C236 C 0.62076 0.58465 0.57233 0.0
C237 C 0.61921 0.59496 0.52173 0.0
C238 C 0.61507 0.59211 0.62241 0.0
C239 C 0.60813 0.61046 0.6234 0.0
C240 C 0.6077 0.62141 0.57262 0.0
C241 C 0.61289 0.61363 0.52271 0.0
C242 C 0.57557 0.63123 0.72742 0.0
C243 C 0.58512 0.62871 0.77816 0.0
C244 C 0.58313 0.62557 0.67739 0.0
C245 C 0.60082 0.61768 0.67659 0.0
C246 C 0.61103 0.61623 0.72754 0.0
C247 C 0.60314 0.62141 0.77738 0.0
H248 H 0.95834 0.61525 0.64163 0.0
H249 H 0.0253 0.63199 0.72846 0.0
H250 H 0.93613 0.60645 0.72888 0.0
H251 H 0.00283 0.62197 0.81624 0.0
H252 H 0.96183 0.61879 0.97199 0.0
H253 H -0.01633 0.63221 0.8843 0.0
H254 H 0.91834 0.57787 0.7996 0.0
H255 H 0.89613 0.56537 0.88784 0.0
C256 C -0.03163 0.61705 0.67955 0.0
C257 C -0.00632 0.62435 0.67786 0.0
C258 C 0.95549 0.61172 0.72986 0.0
C259 C -0.03263 0.61312 0.78037 0.0
C260 C -0.0071 0.62095 0.7787 0.0
C261 C 0.00591 0.62668 0.7282 0.0
C262 C 0.952 0.60988 0.93453 0.0
C263 C 0.92717 0.59095 0.93709 0.0
C264 C -0.03532 0.61743 0.88399 0.0
C265 C 0.95313 0.60603 0.83414 0.0
C266 C 0.92799 0.58745 0.83661 0.0
C267 C 0.91514 0.58017 0.88734 0.0
H268 H 0.3262 0.9708 0.81734 0.0
H269 H 0.33999 0.03788 0.89704 0.0
H270 H 0.31112 0.94847 0.9034 0.0
H271 H 0.32362 0.01502 -0.01617 0.0
H272 H 0.32803 -0.02512 0.13993 0.0
H273 H 0.3355 -0.00274 0.05385 0.0
H274 H 0.28138 0.93087 0.97307 0.0
H275 H 0.27465 0.90796 0.0599 0.0
C276 C 0.32565 -0.01917 0.85311 0.0
C277 C 0.3347 0.00638 0.84998 0.0
C278 C 0.31665 0.9678 0.90279 0.0
C279 C 0.31613 -0.02027 0.95132 0.0
C280 C 0.32412 0.00514 0.94777 0.0
C281 C 0.33336 0.01831 0.8978 0.0
C282 C 0.31748 0.9649 0.10409 0.0
C283 C 0.30089 0.93937 0.10713 0.0
C284 C 0.32164 -0.02204 0.05438 0.0
C285 C 0.30923 0.96608 0.00574 0.0
C286 C 0.29173 0.94071 0.00922 0.0
C287 C 0.28767 0.92751 0.0592 0.0
H288 H 0.54302 0.48417 0.29617 0.0
H289 H 0.58048 0.48039 0.44311 0.0
H290 H 0.50958 0.4424 0.31352 0.0
H291 H 0.54649 0.43847 0.46122 0.0
H292 H 0.45972 0.39123 0.5063 0.0
H293 H 0.5009 0.42555 0.48669 0.0
H294 H 0.49859 0.39655 0.32398 0.0
H295 H 0.4573 0.36166 0.34424 0.0
C296 C 0.54427 0.47423 0.33177 0.0
C297 C 0.56426 0.4856 0.36854 0.0
C298 C 0.52521 0.45023 0.34142 0.0
C299 C 0.52544 0.43718 0.38868 0.0
C300 C 0.5459 0.44814 0.42441 0.0
C301 C 0.56533 0.47206 0.41403 0.0
C302 C 0.46828 0.39182 0.46689 0.0
C303 C 0.45532 0.37388 0.42667 0.0
C304 C 0.49192 0.4114 0.4558 0.0
C305 C 0.50291 0.41376 0.40378 0.0
C306 C 0.4905 0.39514 0.36444 0.0
C307 C 0.46698 0.37517 0.37607 0.0
H308 H 0.08182 0.47234 0.56656 0.0
H309 H 0.00385 0.44563 0.59118 0.0
H310 H 0.08784 0.51354 0.54472 0.0
H311 H 0.00993 0.48596 0.5692 0.0
H312 H 0.02105 0.54624 0.45398 0.0
H313 H 0.0255 0.51039 0.4709 0.0
H314 H 0.07721 0.5484 0.60212 0.0
H315 H 0.0728 0.58491 0.58515 0.0
C316 C 0.06607 0.4752 0.56748 0.0
C317 C 0.04234 0.45558 0.58041 0.0
C318 C 0.06955 0.49874 0.5553 0.0
C319 C 0.04929 0.50278 0.55503 0.0
C320 C 0.02582 0.4833 0.56874 0.0
C321 C 0.0224 0.46013 0.58144 0.0
C322 C 0.03373 0.54726 0.48591 0.0
C323 C 0.04621 0.56828 0.51898 0.0
C324 C 0.03634 0.52672 0.49534 0.0
C325 C 0.05149 0.52658 0.53809 0.0
C326 C 0.0655 0.54815 0.5687 0.0
C327 C 0.06291 0.56895 0.55911 0.0
H328 H 0.47007 0.09987 0.70399 0.0
H329 H 0.43823 0.0277 0.77859 0.0
H330 H 0.51181 0.1065 0.72376 0.0
H331 H 0.47907 0.0341 0.7981 0.0
H332 H 0.55048 0.05153 0.86081 0.0
H333 H 0.51548 0.05845 0.8547 0.0
H334 H 0.53764 0.08748 0.689 0.0
H335 H 0.57354 0.08127 0.69611 0.0
C336 C 0.47201 0.08575 0.72573 0.0
C337 C 0.451 0.0633 0.73994 0.0
C338 C 0.49581 0.08942 0.73655 0.0
C339 C 0.49878 0.07088 0.76275 0.0
C340 C 0.47758 0.04896 0.77876 0.0
C341 C 0.4541 0.04521 0.76733 0.0
C342 C 0.54824 0.05995 0.82355 0.0
C343 C 0.56445 0.06549 0.77859 0.0
C344 C 0.52816 0.06388 0.81999 0.0
C345 C 0.52345 0.07299 0.77091 0.0
C346 C 0.5408 0.08047 0.72742 0.0
C347 C 0.56128 0.07685 0.73136 0.0
H348 H 0.47047 0.59245 0.85441 0.0
H349 H 0.47162 0.55427 0.00285 0.0
H350 H 0.42848 0.55901 0.83465 0.0
H351 H 0.42979 0.52134 -0.01618 0.0
H352 H 0.3815 0.47318 0.78835 0.0
H353 H 0.41562 0.51401 0.80935 0.0
H354 H 0.38407 0.51026 0.97052 0.0
H355 H 0.34941 0.46931 0.94888 0.0
C356 C 0.46152 0.57727 0.88349 0.0
C357 C 0.47436 0.57583 0.92987 0.0
C358 C 0.43757 0.55814 0.87215 0.0
C359 C 0.42587 0.53759 0.90776 0.0
C360 C 0.43818 0.53703 0.95596 0.0
C361 C 0.46222 0.55581 0.9666 0.0
C362 C 0.38149 0.48135 0.82771 0.0
C363 C 0.3629 0.46806 0.86713 0.0
C364 C 0.40096 0.5048 0.83959 0.0
C365 C 0.40256 0.51529 0.89162 0.0
C366 C 0.38328 0.50256 0.93008 0.0
C367 C 0.36343 0.47923 0.91766 0.0
H368 H 0.92044 0.40326 0.02183 0.0
H369 H 0.84387 0.3523 0.06099 0.0
H370 H 0.91422 0.43745 0.04287 0.0
H371 H 0.83771 0.38741 0.08178 0.0
H372 H 0.90554 0.48706 0.16116 0.0
H373 H 0.90148 0.44707 0.14449 0.0
H374 H 0.8458 0.43204 0.02119 0.0
H375 H 0.84983 0.47265 0.03781 0.0
C376 C 0.90215 0.39924 0.03451 0.0
C377 C 0.88269 0.37486 0.04009 0.0
C378 C 0.89865 0.41896 0.0466 0.0
C379 C 0.87556 0.41504 0.06422 0.0
C380 C 0.85569 0.39083 0.06814 0.0
C381 C 0.85927 0.37082 0.0565 0.0
C382 C 0.8921 0.47519 0.13103 0.0
C383 C 0.87835 0.48328 0.10002 0.0
C384 C 0.88972 0.45222 0.12175 0.0
C385 C 0.87351 0.43663 0.08128 0.0
C386 C 0.85835 0.44375 0.05284 0.0
C387 C 0.86072 0.46697 0.06223 0.0
H388 H 0.38216 0.91731 0.17735 0.0
H389 H 0.3429 0.84593 0.25582 0.0
H390 H 0.41682 0.91116 0.15872 0.0
H391 H 0.3782 0.83952 0.23693 0.0
H392 H 0.46511 0.86559 0.26524 0.0
H393 H 0.42286 0.859 0.27133 0.0
H394 H 0.42957 0.88692 0.10449 0.0
H395 H 0.47166 0.89427 0.09945 0.0
C396 C 0.38079 0.9 0.18957 0.0
C397 C 0.35984 0.88208 0.21781 0.0
C398 C 0.40065 0.89639 0.17867 0.0
C399 C 0.4003 0.87478 0.19609 0.0
C400 C 0.37901 0.85637 0.22305 0.0
C401 C 0.35876 0.8599 0.23336 0.0
C402 C 0.45722 0.86969 0.22956 0.0
C403 C 0.47173 0.88086 0.18228 0.0
C404 C 0.43303 0.86585 0.2329 0.0
C405 C 0.42305 0.87292 0.18875 0.0
C406 C 0.43689 0.88183 0.1397 0.0
C407 C 0.46099 0.88599 0.13674 0.0
H408 H 0.28415 0.3617 0.67477 0.0
H409 H 0.27156 0.30787 0.80184 0.0
H410 H 0.29045 0.33674 0.60679 0.0
H411 H 0.27859 0.2831 0.73376 0.0
H412 H 0.34718 0.2924 0.61828 0.0
H413 H 0.3228 0.29984 0.6863 0.0
H414 H 0.27125 0.29283 0.55864 0.0
H415 H 0.29539 0.28464 0.49053 0.0
C416 C 0.28214 0.34421 0.68773 0.0
C417 C 0.27763 0.33676 0.74341 0.0
C418 C 0.28553 0.32984 0.64882 0.0
C419 C 0.28499 0.30805 0.66522 0.0
C420 C 0.27896 0.2998 0.72025 0.0
C421 C 0.27497 0.31394 0.75903 0.0
C422 C 0.33019 0.29163 0.60521 0.0
C423 C 0.32321 0.28819 0.54939 0.0
C424 C 0.31615 0.29569 0.64412 0.0
C425 C 0.29522 0.29692 0.62751 0.0
C426 C 0.28729 0.29184 0.5723 0.0
C427 C 0.30106 0.28717 0.53352 0.0
H428 H 0.94171 0.27882 0.97494 0.0
H429 H 0.89735 0.28295 0.84265 0.0
H430 H -0.02538 0.28686 0.90823 0.0
H431 H 0.92971 0.29018 0.77605 0.0
H432 H -0.00962 0.30035 0.66384 0.0
H433 H 0.95905 0.27486 0.73292 0.0
H434 H -0.00202 0.33034 0.85631 0.0
H435 H 0.02875 0.35598 0.78725 0.0
C436 C 0.93861 0.28037 0.93133 0.0
C437 C 0.91722 0.28046 0.91361 0.0
C438 C 0.95738 0.28499 0.89334 0.0
C439 C 0.95461 0.2891 0.83718 0.0
C440 C 0.93217 0.28677 0.81899 0.0
C441 C 0.91374 0.28279 0.85703 0.0
C442 C -0.00741 0.30668 0.70617 0.0
C443 C 0.01172 0.33017 0.72037 0.0
C444 C -0.02527 0.29212 0.74554 0.0
C445 C -0.0238 0.30067 0.79977 0.0
C446 C -0.00339 0.3232 0.81496 0.0
C447 C 0.01407 0.33795 0.77542 0.0
H448 H 0.58327 0.90819 0.01114 0.0
H449 H 0.63517 0.95109 0.13835 0.0
H450 H 0.60883 0.93872 0.94187 0.0
H451 H 0.66069 -0.01783 0.0688 0.0
H452 H 0.65022 0.03935 0.95036 0.0
H453 H 0.64471 0.00858 0.0196 0.0
H454 H 0.65119 0.96412 0.89226 0.0
H455 H 0.6573 -0.00456 0.82271 0.0
C456 C 0.60058 0.92388 0.0239 0.0
C457 C 0.60719 0.92755 0.07995 0.0
C458 C 0.61531 0.94122 -0.01581 0.0
C459 C 0.63668 0.96282 6e-05 0.0
C460 C 0.64431 0.96561 0.05562 0.0
C461 C 0.62977 0.9479 0.09533 0.0
C462 C 0.65134 0.0234 0.93752 0.0
C463 C 0.65389 0.01953 0.8814 0.0
C464 C 0.6484 0.00589 0.97718 0.0
C465 C 0.64744 -0.01605 0.96118 0.0
C466 C 0.65193 -0.01906 0.90553 0.0
C467 C 0.65542 -0.0012 0.86587 0.0
H468 H 0.58281 0.65782 0.11948 0.0
H469 H 0.63585 0.66838 -0.00768 0.0
H470 H 0.60829 0.65241 0.18845 0.0
H471 H 0.66122 0.66228 0.06153 0.0
H472 H 0.65046 0.59389 0.17937 0.0
H473 H 0.6446 0.61907 0.11026 0.0
H474 H 0.65159 0.67018 0.23737 0.0
H475 H 0.65817 0.64514 0.30664 0.0
C476 C 0.6003 0.65965 0.10671 0.0
C477 C 0.60731 0.66323 0.05079 0.0
C478 C 0.61499 0.65679 0.14619 0.0
C479 C 0.63668 0.65691 0.13019 0.0
C480 C 0.64461 0.66223 0.07479 0.0
C481 C 0.63013 0.66569 0.03537 0.0
C482 C 0.65164 0.61099 0.19212 0.0
C483 C 0.65451 0.61755 0.2481 0.0
C484 C 0.6485 0.6255 0.15259 0.0
C485 C 0.6476 0.64651 0.16863 0.0
C486 C 0.65232 0.65409 0.22409 0.0
C487 C 0.65608 0.63982 0.26358 0.0
H488 H 0.02743 0.65513 0.33371 0.0
H489 H -0.01425 0.66721 0.4599 0.0
H490 H -0.00352 0.64967 0.26508 0.0
H491 H 0.95426 0.66112 0.3911 0.0
H492 H 0.89558 0.59218 0.2797 0.0
H493 H 0.92706 0.61791 0.34635 0.0
H494 H -0.02894 0.66693 0.21429 0.0
H495 H 0.93901 0.64132 0.14742 0.0
C496 C 0.01197 0.65733 0.34628 0.0
C497 C 0.00875 0.6613 0.40195 0.0
C498 C -0.00563 0.65442 0.30697 0.0
C499 C -0.02702 0.65492 0.32292 0.0
C500 C -0.02933 0.66075 0.37787 0.0
C501 C -0.01138 0.66421 0.4171 0.0
C502 C 0.91156 0.60897 0.26529 0.0
C503 C 0.91507 0.61476 0.20865 0.0
C504 C 0.92948 0.62379 0.30342 0.0
C505 C 0.95149 0.64435 0.28536 0.0
C506 C 0.95417 0.6512 0.22913 0.0
C507 C 0.93589 0.63661 0.191 0.0
H508 H 0.3069 0.9145 0.43468 0.0
H509 H 0.25846 0.93537 0.35199 0.0
H510 H 0.3194 0.94836 0.49873 0.0
H511 H 0.27114 0.96951 0.41722 0.0
H512 H 0.2964 0.01073 0.60453 0.0
H513 H 0.27471 -0.02329 0.53915 0.0
H514 H 0.34397 -0.00304 0.4584 0.0
H515 H 0.36555 0.03071 0.5226 0.0
C516 C 0.29857 0.92605 0.43082 0.0
C517 C 0.28206 0.9226 0.38777 0.0
C518 C 0.30572 0.94537 0.46749 0.0
C519 C 0.29642 0.96154 0.46207 0.0
C520 C 0.27849 0.95715 0.42185 0.0
C521 C 0.27131 0.93771 0.38472 0.0
C522 C 0.30683 0.00822 0.57194 0.0
C523 C 0.3327 0.02304 0.56916 0.0
C524 C 0.29444 -0.01115 0.53471 0.0
C525 C 0.30786 -0.01577 0.49467 0.0
C526 C 0.33337 0.00013 0.48951 0.0
C527 C 0.34567 0.01938 0.52626 0.0
H528 H 0.35164 0.20676 0.45487 0.0
H529 H 0.42373 0.25865 0.5176 0.0
H530 H 0.35199 0.17412 0.51063 0.0
H531 H 0.42413 0.22607 0.5729 0.0
H532 H 0.42411 0.15372 0.62006 0.0
H533 H 0.4252 0.18687 0.56403 0.0
H534 H 0.35018 0.16386 0.61254 0.0
H535 H 0.34913 0.13074 0.66898 0.0
C536 C 0.36776 0.21112 0.47968 0.0
C537 C 0.38769 0.23535 0.48149 0.0
C538 C 0.36783 0.19248 0.51221 0.0
C539 C 0.38799 0.19749 0.54676 0.0
C540 C 0.40834 0.2215 0.54674 0.0
C541 C 0.40811 0.24019 0.5149 0.0
C542 C 0.40797 0.15596 0.61956 0.0
C543 C 0.38657 0.13959 0.64937 0.0
C544 C 0.40858 0.17496 0.58729 0.0
C545 C 0.38769 0.17791 0.5832 0.0
C546 C 0.36648 0.16191 0.61406 0.0
C547 C 0.36599 0.1431 0.64702 0.0
H548 H 0.24635 0.43624 0.7786 0.0
H549 H 0.19538 0.36281 0.83655 0.0
H550 H 0.21343 0.43648 0.72403 0.0
H551 H 0.16249 0.36296 0.78126 0.0
H552 H 0.12029 0.36185 0.62211 0.0
H553 H 0.15387 0.36328 0.67757 0.0
H554 H 0.17234 0.43527 0.73598 0.0
H555 H 0.1386 0.43373 0.68121 0.0
C556 C 0.22802 0.42027 0.78038 0.0
C557 C 0.22351 0.39955 0.81229 0.0
C558 C 0.20916 0.42041 0.74895 0.0
C559 C 0.18537 0.39964 0.74773 0.0
C560 C 0.18069 0.37913 0.7807 0.0
C561 C 0.19946 0.37916 0.81295 0.0
C562 C 0.13177 0.37817 0.64601 0.0
C563 C 0.12678 0.39773 0.64692 0.0
C564 C 0.15083 0.37885 0.67837 0.0
C565 C 0.16565 0.39928 0.71173 0.0
C566 C 0.16132 0.41927 0.71077 0.0
C567 C 0.142 0.41841 0.67922 0.0
H568 H 0.80567 0.25547 0.89381 0.0
H569 H 0.78959 0.20826 0.03709 0.0
H570 H 0.7717 0.22212 0.84396 0.0
H571 H 0.75516 0.17485 -0.01293 0.0
H572 H 0.68015 0.13085 0.8973 0.0
H573 H 0.71356 0.16488 0.94651 0.0
H574 H 0.7614 0.18027 0.80511 0.0
H575 H 0.72783 0.1457 0.7556 0.0
C576 C 0.79471 0.23805 0.91505 0.0
C577 C 0.80038 0.23465 0.96978 0.0
C578 C 0.77534 0.21885 0.88611 0.0
C579 C 0.76077 0.19575 0.91127 0.0
C580 C 0.76597 0.19246 0.9665 0.0
C581 C 0.78568 0.21161 -0.00475 0.0
C582 C 0.6977 0.14154 0.87625 0.0
C583 C 0.70119 0.13549 0.82217 0.0
C584 C 0.71695 0.16096 0.90485 0.0
C585 C 0.74022 0.17524 0.88003 0.0
C586 C 0.74364 0.16968 0.82539 0.0
C587 C 0.72441 0.14989 0.79696 0.0
H588 H 0.55585 0.80162 0.20639 0.0
H589 H 0.52364 0.81662 0.06349 0.0
H590 H 0.5553 0.76721 0.15706 0.0
H591 H 0.52348 0.78276 0.01447 0.0
H592 H 0.55624 0.73915 0.92534 0.0
H593 H 0.55536 0.77274 0.97504 0.0
H594 H 0.52385 0.72544 0.11777 0.0
H595 H 0.52434 0.69196 0.06829 0.0
C596 C 0.54849 0.79751 0.16478 0.0
C597 C 0.5397 0.81189 0.1392 0.0
C598 C 0.54819 0.77781 0.13646 0.0
C599 C 0.53951 0.77234 0.08157 0.0
C600 C 0.53057 0.78662 0.05634 0.0
C601 C 0.53048 0.80594 0.08482 0.0
C602 C 0.54888 0.73586 0.96706 0.0
C603 C 0.54024 0.71276 -0.00749 0.0
C604 C 0.54839 0.7551 -0.00439 0.0
C605 C 0.53967 0.75183 0.05062 0.0
C606 C 0.53093 0.7287 0.0758 0.0
C607 C 0.53103 0.70942 0.04706 0.0
H608 H 0.67969 0.53139 0.23156 0.0
H609 H 0.7282 0.56343 0.37136 0.0
H610 H 0.71256 0.52961 0.1811 0.0
H611 H 0.76118 0.56126 0.32067 0.0
H612 H 0.80417 0.52867 0.23133 0.0
H613 H 0.7705 0.52894 0.28182 0.0
H614 H 0.75431 0.56018 0.13902 0.0
H615 H 0.78846 0.5603 0.08829 0.0
C616 C 0.6973 0.53782 0.25192 0.0
C617 C 0.7012 0.54749 0.30584 0.0
C618 C 0.71623 0.53698 0.22261 0.0
C619 C 0.73956 0.5454 0.24658 0.0
C620 C 0.74336 0.55451 0.30105 0.0
C621 C 0.72448 0.55575 0.33016 0.0
C622 C 0.79334 0.53542 0.21026 0.0
C623 C 0.79905 0.54438 0.15543 0.0
C624 C 0.77414 0.53576 0.23958 0.0
C625 C 0.75978 0.54473 0.21473 0.0
C626 C 0.76497 0.55306 0.15936 0.0
C627 C 0.78451 0.5531 0.13021 0.0
H628 H 0.13641 0.68594 0.43401 0.0
H629 H 0.11724 0.73804 0.50044 0.0
H630 H 0.16955 0.71874 0.37953 0.0
H631 H 0.15032 0.77085 0.44544 0.0
H632 H 0.19063 0.81503 0.28777 0.0
H633 H 0.1585 0.78165 0.34336 0.0
H634 H 0.21016 0.7578 0.38979 0.0
H635 H 0.24231 0.79126 0.33468 0.0
C636 C 0.13951 0.70448 0.4377 0.0
C637 C 0.12419 0.70933 0.47192 0.0
C638 C 0.15851 0.72329 0.40633 0.0
C639 C 0.16246 0.74741 0.40755 0.0
C640 C 0.14757 0.75242 0.4429 0.0
C641 C 0.1288 0.73366 0.47499 0.0
C642 C 0.19504 0.80244 0.30909 0.0
C643 C 0.21907 0.80581 0.30645 0.0
C644 C 0.1767 0.78348 0.34155 0.0
C645 C 0.18179 0.76716 0.37158 0.0
C646 C 0.20555 0.76997 0.36718 0.0
C647 C 0.22399 0.78915 0.33544 0.0
loop_
_geom_bond_atom_site_label_1
_geom_bond_atom_site_label_2
_geom_bond_distance
_geom_bond_site_symmetry_2
_ccdc_geom_bond_type
C0 O1 1.306 . S
C0 O3 1.160 . S
O1 C0 1.306 . S
O1 Cd2 2.228 . S
Cd2 O1 2.228 . S
Cd2 O6 2.273 . S
Cd2 O10 2.277 . S
O3 C0 1.160 . S
O3 Cd4 2.203 . S
Cd4 O3 2.203 . S
Cd4 O6 2.411 . S
Cd4 O7 2.333 . S
Cd4 O8 2.352 . S
Cd4 O12 2.277 . S
Cd4 O13 2.356 . S
C5 O10 1.209 . S
C5 O12 1.226 . S
O6 Cd2 2.273 . S
O6 Cd4 2.411 . S
O6 C9 1.320 . S
O7 Cd4 2.333 . S
O7 C9 1.214 . S
O8 Cd4 2.352 . S
O8 C11 1.258 . S
C9 O6 1.320 . S
C9 O7 1.214 . S
O10 Cd2 2.277 . S
O10 C5 1.209 . S
C11 O8 1.258 . S
C11 O13 1.282 . S
O12 Cd4 2.277 . S
O12 C5 1.226 . S
O13 Cd4 2.356 . S
O13 C11 1.282 . S
C14 O15 1.306 . S
C14 O17 1.160 . S
O15 C14 1.306 . S
O15 Cd16 2.228 . S
Cd16 O15 2.228 . S
Cd16 O20 2.273 . S
Cd16 O24 2.277 . S
O17 C14 1.160 . S
O17 Cd18 2.203 . S
Cd18 O17 2.203 . S
Cd18 O20 2.411 . S
Cd18 O21 2.333 . S
Cd18 O22 2.352 . S
Cd18 O26 2.277 . S
Cd18 O27 2.356 . S
C19 O24 1.209 . S
C19 O26 1.226 . S
O20 Cd16 2.273 . S
O20 Cd18 2.411 . S
O20 C23 1.320 . S
O21 Cd18 2.333 . S
O21 C23 1.214 . S
O22 Cd18 2.352 . S
O22 C25 1.258 . S
C23 O20 1.320 . S
C23 O21 1.214 . S
O24 Cd16 2.277 . S
O24 C19 1.209 . S
C25 O22 1.258 . S
C25 O27 1.282 . S
O26 Cd18 2.277 . S
O26 C19 1.226 . S
O27 Cd18 2.356 . S
O27 C25 1.282 . S
C28 O29 1.306 . S
C28 O31 1.160 . S
O29 C28 1.306 . S
O29 Cd30 2.228 . S
Cd30 O29 2.228 . S
Cd30 O34 2.273 . S
Cd30 O38 2.277 . S
O31 C28 1.160 . S
O31 Cd32 2.203 . S
Cd32 O31 2.203 . S
Cd32 O34 2.411 . S
Cd32 O35 2.333 . S
Cd32 O36 2.352 . S
Cd32 O40 2.277 . S
Cd32 O41 2.356 . S
C33 O38 1.209 . S
C33 O40 1.226 . S
O34 Cd30 2.273 . S
O34 Cd32 2.411 . S
O34 C37 1.320 . S
O35 Cd32 2.333 . S
O35 C37 1.214 . S
O36 Cd32 2.352 . S
O36 C39 1.258 . S
C37 O34 1.320 . S
C37 O35 1.214 . S
O38 Cd30 2.277 . S
O38 C33 1.209 . S
C39 O36 1.258 . S
C39 O41 1.282 . S
O40 Cd32 2.277 . S
O40 C33 1.226 . S
O41 Cd32 2.356 . S
O41 C39 1.282 . S
C42 O43 1.306 . S
C42 O45 1.160 . S
O43 C42 1.306 . S
O43 Cd44 2.228 . S
Cd44 O43 2.228 . S
Cd44 O48 2.284 . S
Cd44 O52 2.277 . S
O45 C42 1.160 . S
O45 Cd46 2.203 . S
Cd46 O45 2.203 . S
Cd46 O48 2.424 . S
Cd46 O49 2.333 . S
Cd46 O50 2.352 . S
Cd46 O54 2.277 . S
Cd46 O55 2.356 . S
C47 O52 1.209 . S
C47 O54 1.226 . S
O48 Cd44 2.284 . S
O48 Cd46 2.424 . S
O48 C51 1.317 1_556 S
O49 Cd46 2.333 . S
O49 C51 1.214 1_556 S
O50 Cd46 2.352 . S
O50 C53 1.258 . S
C51 O48 1.317 1_554 S
C51 O49 1.214 1_554 S
O52 Cd44 2.277 . S
O52 C47 1.209 . S
C53 O50 1.258 . S
C53 O55 1.282 . S
O54 Cd46 2.277 . S
O54 C47 1.226 . S
O55 Cd46 2.356 . S
O55 C53 1.282 . S
C56 O57 1.306 . S
C56 O59 1.160 . S
O57 C56 1.306 . S
O57 Cd58 2.228 . S
Cd58 O57 2.228 . S
Cd58 O62 2.273 . S
Cd58 O66 2.277 . S
O59 C56 1.160 . S
O59 Cd60 2.203 . S
Cd60 O59 2.203 . S
Cd60 O62 2.411 . S
Cd60 O63 2.333 . S
Cd60 O64 2.352 . S
Cd60 O68 2.277 . S
Cd60 O69 2.356 . S
C61 O66 1.209 . S
C61 O68 1.226 . S
O62 Cd58 2.273 . S
O62 Cd60 2.411 . S
O62 C65 1.320 . S
O63 Cd60 2.333 . S
O63 C65 1.214 . S
O64 Cd60 2.352 . S
O64 C67 1.258 . S
C65 O62 1.320 . S
C65 O63 1.214 . S
O66 Cd58 2.277 . S
O66 C61 1.209 . S
C67 O64 1.258 . S
C67 O69 1.282 . S
O68 Cd60 2.277 . S
O68 C61 1.226 . S
O69 Cd60 2.356 . S
O69 C67 1.282 . S
C70 O71 1.306 . S
C70 O73 1.160 . S
O71 C70 1.306 . S
O71 Cd72 2.228 . S
Cd72 O71 2.228 . S
Cd72 O76 2.273 . S
Cd72 O80 2.277 . S
O73 C70 1.160 . S
O73 Cd74 2.203 . S
Cd74 O73 2.203 . S
Cd74 O76 2.411 . S
Cd74 O77 2.333 . S
Cd74 O78 2.352 . S
Cd74 O82 2.277 . S
Cd74 O83 2.356 . S
C75 O80 1.209 . S
C75 O82 1.226 . S
O76 Cd72 2.273 . S
O76 Cd74 2.411 . S
O76 C79 1.320 . S
O77 Cd74 2.333 . S
O77 C79 1.214 . S
O78 Cd74 2.352 . S
O78 C81 1.258 . S
C79 O76 1.320 . S
C79 O77 1.214 . S
O80 Cd72 2.277 . S
O80 C75 1.209 . S
C81 O78 1.258 . S
C81 O83 1.282 . S
O82 Cd74 2.277 . S
O82 C75 1.226 . S
O83 Cd74 2.356 . S
O83 C81 1.282 . S
C84 O85 1.306 . S
C84 O87 1.160 . S
O85 C84 1.306 . S
O85 Cd86 2.228 . S
Cd86 O85 2.228 . S
Cd86 O90 2.273 . S
Cd86 O94 2.277 . S
O87 C84 1.160 . S
O87 Cd88 2.203 . S
Cd88 O87 2.203 . S
Cd88 O90 2.411 . S
Cd88 O91 2.333 . S
Cd88 O92 2.352 . S
Cd88 O96 2.277 . S
Cd88 O97 2.356 . S
C89 O94 1.209 . S
C89 O96 1.226 . S
O90 Cd86 2.273 . S
O90 Cd88 2.411 . S
O90 C93 1.320 . S
O91 Cd88 2.333 . S
O91 C93 1.214 . S
O92 Cd88 2.352 . S
O92 C95 1.258 . S
C93 O90 1.320 . S
C93 O91 1.214 . S
O94 Cd86 2.277 . S
O94 C89 1.209 . S
C95 O92 1.258 . S
C95 O97 1.282 . S
O96 Cd88 2.277 . S
O96 C89 1.226 . S
O97 Cd88 2.356 . S
O97 C95 1.282 . S
C98 O99 1.306 . S
C98 O101 1.160 . S
O99 C98 1.306 . S
O99 Cd100 2.228 . S
Cd100 O99 2.228 . S
Cd100 O104 2.273 . S
Cd100 O108 2.277 . S
O101 C98 1.160 . S
O101 Cd102 2.203 . S
Cd102 O101 2.203 . S
Cd102 O104 2.411 . S
Cd102 O105 2.333 . S
Cd102 O106 2.352 . S
Cd102 O110 2.277 . S
Cd102 O111 2.356 . S
C103 O108 1.209 . S
C103 O110 1.226 . S
O104 Cd100 2.273 . S
O104 Cd102 2.411 . S
O104 C107 1.320 . S
O105 Cd102 2.333 . S
O105 C107 1.214 . S
O106 Cd102 2.352 . S
O106 C109 1.258 . S
C107 O104 1.320 . S
C107 O105 1.214 . S
O108 Cd100 2.277 . S
O108 C103 1.209 . S
C109 O106 1.258 . S
C109 O111 1.282 . S
O110 Cd102 2.277 . S
O110 C103 1.226 . S
O111 Cd102 2.356 . S
O111 C109 1.282 . S
C112 O113 1.306 . S
C112 O115 1.160 . S
O113 C112 1.306 . S
O113 Cd114 2.228 . S
Cd114 O113 2.228 . S
Cd114 O118 2.273 . S
Cd114 O122 2.277 . S
O115 C112 1.160 . S
O115 Cd116 2.203 . S
Cd116 O115 2.203 . S
Cd116 O118 2.411 . S
Cd116 O119 2.333 . S
Cd116 O120 2.352 . S
Cd116 O124 2.277 . S
Cd116 O125 2.356 . S
C117 O122 1.209 . S
C117 O124 1.226 . S
O118 Cd114 2.273 . S
O118 Cd116 2.411 . S
O118 C121 1.320 . S
O119 Cd116 2.333 . S
O119 C121 1.214 . S
O120 Cd116 2.352 . S
O120 C123 1.258 . S
C121 O118 1.320 . S
C121 O119 1.214 . S
O122 Cd114 2.277 . S
O122 C117 1.209 . S
C123 O120 1.258 . S
C123 O125 1.282 . S
O124 Cd116 2.277 . S
O124 C117 1.226 . S
O125 Cd116 2.356 . S
O125 C123 1.282 . S
C126 O127 1.306 . S
C126 O129 1.160 . S
O127 C126 1.306 . S
O127 Cd128 2.228 . S
Cd128 O127 2.228 . S
Cd128 O132 2.273 . S
Cd128 O136 2.277 . S
O129 C126 1.160 . S
O129 Cd130 2.203 . S
Cd130 O129 2.203 . S
Cd130 O132 2.411 . S
Cd130 O133 2.333 . S
Cd130 O134 2.352 . S
Cd130 O138 2.277 . S
Cd130 O139 2.356 . S
C131 O136 1.209 . S
C131 O138 1.226 . S
O132 Cd128 2.273 . S
O132 Cd130 2.411 . S
O132 C135 1.320 . S
O133 Cd130 2.333 . S
O133 C135 1.214 . S
O134 Cd130 2.352 . S
O134 C137 1.258 . S
C135 O132 1.320 . S
C135 O133 1.214 . S
O136 Cd128 2.277 . S
O136 C131 1.209 . S
C137 O134 1.258 . S
C137 O139 1.282 . S
O138 Cd130 2.277 . S
O138 C131 1.226 . S
O139 Cd130 2.356 . S
O139 C137 1.282 . S
C140 O141 1.306 . S
C140 O143 1.160 . S
O141 C140 1.306 . S
O141 Cd142 2.228 . S
Cd142 O141 2.228 . S
Cd142 O146 2.285 . S
Cd142 O150 2.277 . S
O143 C140 1.160 . S
O143 Cd144 2.203 . S
Cd144 O143 2.203 . S
Cd144 O146 2.425 . S
Cd144 O147 2.333 . S
Cd144 O148 2.352 . S
Cd144 O152 2.277 . S
Cd144 O153 2.356 . S
C145 O150 1.209 . S
C145 O152 1.226 . S
O146 Cd142 2.285 . S
O146 Cd144 2.425 . S
O146 C149 1.316 1_554 S
O147 Cd144 2.333 . S
O147 C149 1.214 1_554 S
O148 Cd144 2.352 . S
O148 C151 1.258 . S
C149 O146 1.316 1_556 S
C149 O147 1.214 1_556 S
O150 Cd142 2.277 . S
O150 C145 1.209 . S
C151 O148 1.258 . S
C151 O153 1.282 . S
O152 Cd144 2.277 . S
O152 C145 1.226 . S
O153 Cd144 2.356 . S
O153 C151 1.282 . S
C154 O155 1.306 . S
C154 O157 1.160 . S
O155 C154 1.306 . S
O155 Cd156 2.228 . S
Cd156 O155 2.228 . S
Cd156 O160 2.273 . S
Cd156 O164 2.277 . S
O157 C154 1.160 . S
O157 Cd158 2.203 . S
Cd158 O157 2.203 . S
Cd158 O160 2.411 . S
Cd158 O161 2.333 . S
Cd158 O162 2.352 . S
Cd158 O166 2.277 . S
Cd158 O167 2.356 . S
C159 O164 1.209 . S
C159 O166 1.226 . S
O160 Cd156 2.273 . S
O160 Cd158 2.411 . S
O160 C163 1.320 . S
O161 Cd158 2.333 . S
O161 C163 1.214 . S
O162 Cd158 2.352 . S
O162 C165 1.258 . S
C163 O160 1.320 . S
C163 O161 1.214 . S
O164 Cd156 2.277 . S
O164 C159 1.209 . S
C165 O162 1.258 . S
C165 O167 1.282 . S
O166 Cd158 2.277 . S
O166 C159 1.226 . S
O167 Cd158 2.356 . S
O167 C165 1.282 . S
H168 C176 0.950 . S
H169 C181 0.950 . S
H170 C178 0.950 . S
H171 C180 0.950 . S
H172 C182 0.950 . S
H173 C184 0.950 . S
H174 C186 0.950 . S
H175 C187 0.950 . S
C176 H168 0.950 . S
C176 C177 1.386 . S
C176 C178 1.391 . S
C177 C176 1.386 . S
C177 C181 1.393 . S
C178 H170 0.950 . S
C178 C176 1.391 . S
C178 C179 1.400 . S
C179 C178 1.400 . S
C179 C180 1.398 . S
C179 C185 1.491 . S
C180 H171 0.950 . S
C180 C179 1.398 . S
C180 C181 1.391 . S
C181 H169 0.950 . S
C181 C177 1.393 . S
C181 C180 1.391 . S
C182 H172 0.950 . S
C182 C183 1.386 . S
C182 C184 1.391 . S
C183 C182 1.386 . S
C183 C187 1.393 . S
C184 H173 0.950 . S
C184 C182 1.391 . S
C184 C185 1.400 . S
C185 C179 1.491 . S
C185 C184 1.400 . S
C185 C186 1.398 . S
C186 H174 0.950 . S
C186 C185 1.398 . S
C186 C187 1.391 . S
C187 H175 0.950 . S
C187 C183 1.393 . S
C187 C186 1.391 . S
H188 C196 0.950 . S
H189 C201 0.950 . S
H190 C198 0.950 1_655 S
H191 C200 0.950 . S
H192 C202 0.950 . S
H193 C204 0.950 1_455 S
H194 C206 0.950 . S
H195 C207 0.950 . S
C196 H188 0.950 . S
C196 C197 1.386 . S
C196 C198 1.391 . S
C197 C196 1.386 . S
C197 C201 1.393 . S
C198 H190 0.950 1_455 S
C198 C196 1.391 . S
C198 C199 1.400 . S
C199 C198 1.400 . S
C199 C200 1.398 . S
C199 C205 1.491 1_455 S
C200 H191 0.950 . S
C200 C199 1.398 . S
C200 C201 1.391 . S
C201 H189 0.950 . S
C201 C197 1.393 . S
C201 C200 1.391 . S
C202 H192 0.950 . S
C202 C203 1.386 . S
C202 C204 1.391 . S
C203 C202 1.386 . S
C203 C207 1.393 . S
C204 H193 0.950 1_655 S
C204 C202 1.391 . S
C204 C205 1.400 . S
C205 C199 1.491 1_655 S
C205 C204 1.400 . S
C205 C206 1.398 . S
C206 H194 0.950 . S
C206 C205 1.398 . S
C206 C207 1.391 . S
C207 H195 0.950 . S
C207 C203 1.393 . S
C207 C206 1.391 . S
H208 C216 0.950 . S
H209 C221 0.950 . S
H210 C218 0.950 . S
H211 C220 0.950 . S
H212 C222 0.950 . S
H213 C224 0.950 . S
H214 C226 0.950 . S
H215 C227 0.950 . S
C216 H208 0.950 . S
C216 C217 1.386 . S
C216 C218 1.391 . S
C217 C216 1.386 . S
C217 C221 1.393 . S
C218 H210 0.950 . S
C218 C216 1.391 . S
C218 C219 1.400 . S
C219 C218 1.400 . S
C219 C220 1.398 . S
C219 C225 1.491 1_565 S
C220 H211 0.950 . S
C220 C219 1.398 . S
C220 C221 1.391 . S
C221 H209 0.950 . S
C221 C217 1.393 . S
C221 C220 1.391 . S
C222 H212 0.950 . S
C222 C223 1.386 . S
C222 C224 1.391 . S
C223 C222 1.386 . S
C223 C227 1.393 . S
C224 H213 0.950 . S
C224 C222 1.391 . S
C224 C225 1.400 . S
C225 C219 1.491 1_545 S
C225 C224 1.400 . S
C225 C226 1.398 . S
C226 H214 0.950 . S
C226 C225 1.398 . S
C226 C227 1.391 . S
C227 H215 0.950 . S
C227 C223 1.393 . S
C227 C226 1.391 . S
H228 C236 0.950 . S
H229 C241 0.950 . S
H230 C238 0.950 . S
H231 C240 0.950 . S
H232 C242 0.950 . S
H233 C244 0.950 . S
H234 C246 0.950 . S
H235 C247 0.950 . S
C236 H228 0.950 . S
C236 C237 1.386 . S
C236 C238 1.391 . S
C237 C236 1.386 . S
C237 C241 1.393 . S
C238 H230 0.950 . S
C238 C236 1.391 . S
C238 C239 1.400 . S
C239 C238 1.400 . S
C239 C240 1.398 . S
C239 C245 1.491 . S
C240 H231 0.950 . S
C240 C239 1.398 . S
C240 C241 1.391 . S
C241 H229 0.950 . S
C241 C237 1.393 . S
C241 C240 1.391 . S
C242 H232 0.950 . S
C242 C243 1.386 . S
C242 C244 1.391 . S
C243 C242 1.386 . S
C243 C247 1.393 . S
C244 H233 0.950 . S
C244 C242 1.391 . S
C244 C245 1.400 . S
C245 C239 1.491 . S
C245 C244 1.400 . S
C245 C246 1.398 . S
C246 H234 0.950 . S
C246 C245 1.398 . S
C246 C247 1.391 . S
C247 H235 0.950 . S
C247 C243 1.393 . S
C247 C246 1.391 . S
H248 C256 0.950 . S
H249 C261 0.950 . S
H250 C258 0.950 1_655 S
H251 C260 0.950 . S
H252 C262 0.950 . S
H253 C264 0.950 1_455 S
H254 C266 0.950 . S
H255 C267 0.950 . S
C256 H248 0.950 . S
C256 C257 1.386 . S
C256 C258 1.391 . S
C257 C256 1.386 . S
C257 C261 1.393 . S
C258 H250 0.950 1_455 S
C258 C256 1.391 . S
C258 C259 1.400 . S
C259 C258 1.400 . S
C259 C260 1.398 . S
C259 C265 1.491 1_455 S
C260 H251 0.950 . S
C260 C259 1.398 . S
C260 C261 1.391 . S
C261 H249 0.950 . S
C261 C257 1.393 . S
C261 C260 1.391 . S
C262 H252 0.950 . S
C262 C263 1.386 . S
C262 C264 1.391 . S
C263 C262 1.386 . S
C263 C267 1.393 . S
C264 H253 0.950 1_655 S
C264 C262 1.391 . S
C264 C265 1.400 . S
C265 C259 1.491 1_655 S
C265 C264 1.400 . S
C265 C266 1.398 . S
C266 H254 0.950 . S
C266 C265 1.398 . S
C266 C267 1.391 . S
C267 H255 0.950 . S
C267 C263 1.393 . S
C267 C266 1.391 . S
H268 C276 0.950 . S
H269 C281 0.950 . S
H270 C278 0.950 . S
H271 C280 0.950 . S
H272 C282 0.950 . S
H273 C284 0.950 . S
H274 C286 0.950 . S
H275 C287 0.950 . S
C276 H268 0.950 . S
C276 C277 1.386 . S
C276 C278 1.391 . S
C277 C276 1.386 . S
C277 C281 1.393 . S
C278 H270 0.950 . S
C278 C276 1.391 . S
C278 C279 1.400 . S
C279 C278 1.400 . S
C279 C280 1.398 . S
C279 C285 1.491 1_546 S
C280 H271 0.950 . S
C280 C279 1.398 . S
C280 C281 1.391 . S
C281 H269 0.950 . S
C281 C277 1.393 . S
C281 C280 1.391 . S
C282 H272 0.950 . S
C282 C283 1.386 . S
C282 C284 1.391 . S
C283 C282 1.386 . S
C283 C287 1.393 . S
C284 H273 0.950 . S
C284 C282 1.391 . S
C284 C285 1.400 . S
C285 C279 1.491 1_564 S
C285 C284 1.400 . S
C285 C286 1.398 . S
C286 H274 0.950 . S
C286 C285 1.398 . S
C286 C287 1.391 . S
C287 H275 0.950 . S
C287 C283 1.393 . S
C287 C286 1.391 . S
H288 C296 0.950 . S
H289 C301 0.950 . S
H290 C298 0.950 . S
H291 C300 0.950 . S
H292 C302 0.950 . S
H293 C304 0.950 . S
H294 C306 0.950 . S
H295 C307 0.950 . S
C296 H288 0.950 . S
C296 C297 1.386 . S
C296 C298 1.391 . S
C297 C296 1.386 . S
C297 C301 1.393 . S
C298 H290 0.950 . S
C298 C296 1.391 . S
C298 C299 1.400 . S
C299 C298 1.400 . S
C299 C300 1.398 . S
C299 C305 1.491 . S
C300 H291 0.950 . S
C300 C299 1.398 . S
C300 C301 1.391 . S
C301 H289 0.950 . S
C301 C297 1.393 . S
C301 C300 1.391 . S
C302 H292 0.950 . S
C302 C303 1.386 . S
C302 C304 1.391 . S
C303 C302 1.386 . S
C303 C307 1.393 . S
C304 H293 0.950 . S
C304 C302 1.391 . S
C304 C305 1.400 . S
C305 C299 1.491 . S
C305 C304 1.400 . S
C305 C306 1.398 . S
C306 H294 0.950 . S
C306 C305 1.398 . S
C306 C307 1.391 . S
C307 H295 0.950 . S
C307 C303 1.393 . S
C307 C306 1.391 . S
H308 C316 0.950 . S
H309 C321 0.950 . S
H310 C318 0.950 . S
H311 C320 0.950 . S
H312 C322 0.950 . S
H313 C324 0.950 . S
H314 C326 0.950 . S
H315 C327 0.950 . S
C316 H308 0.950 . S
C316 C317 1.386 . S
C316 C318 1.391 . S
C317 C316 1.386 . S
C317 C321 1.393 . S
C318 H310 0.950 . S
C318 C316 1.391 . S
C318 C319 1.400 . S
C319 C318 1.400 . S
C319 C320 1.398 . S
C319 C325 1.491 . S
C320 H311 0.950 . S
C320 C319 1.398 . S
C320 C321 1.391 . S
C321 H309 0.950 . S
C321 C317 1.393 . S
C321 C320 1.391 . S
C322 H312 0.950 . S
C322 C323 1.386 . S
C322 C324 1.391 . S
C323 C322 1.386 . S
C323 C327 1.393 . S
C324 H313 0.950 . S
C324 C322 1.391 . S
C324 C325 1.400 . S
C325 C319 1.491 . S
C325 C324 1.400 . S
C325 C326 1.398 . S
C326 H314 0.950 . S
C326 C325 1.398 . S
C326 C327 1.391 . S
C327 H315 0.950 . S
C327 C323 1.393 . S
C327 C326 1.391 . S
H328 C336 0.950 . S
H329 C341 0.950 . S
H330 C338 0.950 . S
H331 C340 0.950 . S
H332 C342 0.950 . S
H333 C344 0.950 . S
H334 C346 0.950 . S
H335 C347 0.950 . S
C336 H328 0.950 . S
C336 C337 1.386 . S
C336 C338 1.391 . S
C337 C336 1.386 . S
C337 C341 1.393 . S
C338 H330 0.950 . S
C338 C336 1.391 . S
C338 C339 1.400 . S
C339 C338 1.400 . S
C339 C340 1.398 . S
C339 C345 1.491 . S
C340 H331 0.950 . S
C340 C339 1.398 . S
C340 C341 1.391 . S
C341 H329 0.950 . S
C341 C337 1.393 . S
C341 C340 1.391 . S
C342 H332 0.950 . S
C342 C343 1.386 . S
C342 C344 1.391 . S
C343 C342 1.386 . S
C343 C347 1.393 . S
C344 H333 0.950 . S
C344 C342 1.391 . S
C344 C345 1.400 . S
C345 C339 1.491 . S
C345 C344 1.400 . S
C345 C346 1.398 . S
C346 H334 0.950 . S
C346 C345 1.398 . S
C346 C347 1.391 . S
C347 H335 0.950 . S
C347 C343 1.393 . S
C347 C346 1.391 . S
H348 C356 0.950 . S
H349 C361 0.950 . S
H350 C358 0.957 . S
H351 C360 0.950 . S
H352 C362 0.950 . S
H353 C364 0.950 . S
H354 C366 0.950 1_554 S
H355 C367 0.950 1_554 S
C356 H348 0.950 . S
C356 C357 1.386 . S
C356 C358 1.391 . S
C357 C356 1.386 . S
C357 C361 1.393 . S
C358 H350 0.957 . S
C358 C356 1.391 . S
C358 C359 1.400 . S
C359 C358 1.400 . S
C359 C360 1.398 . S
C359 C365 1.491 . S
C360 H351 0.950 . S
C360 C359 1.398 . S
C360 C361 1.391 . S
C361 H349 0.950 . S
C361 C357 1.393 . S
C361 C360 1.391 . S
C362 H352 0.950 . S
C362 C363 1.386 . S
C362 C364 1.391 . S
C363 C362 1.386 . S
C363 C367 1.393 . S
C364 H353 0.950 . S
C364 C362 1.391 . S
C364 C365 1.400 . S
C365 C359 1.491 . S
C365 C364 1.400 . S
C365 C366 1.398 . S
C366 H354 0.950 1_556 S
C366 C365 1.398 . S
C366 C367 1.391 . S
C367 H355 0.950 1_556 S
C367 C363 1.393 . S
C367 C366 1.391 . S
H368 C376 0.950 . S
H369 C381 0.950 . S
H370 C378 0.950 . S
H371 C380 0.950 . S
H372 C382 0.950 . S
H373 C384 0.950 . S
H374 C386 0.950 . S
H375 C387 0.950 . S
C376 H368 0.950 . S
C376 C377 1.386 . S
C376 C378 1.391 . S
C377 C376 1.386 . S
C377 C381 1.393 . S
C378 H370 0.950 . S
C378 C376 1.391 . S
C378 C379 1.400 . S
C379 C378 1.400 . S
C379 C380 1.398 . S
C379 C385 1.491 . S
C380 H371 0.950 . S
C380 C379 1.398 . S
C380 C381 1.391 . S
C381 H369 0.950 . S
C381 C377 1.393 . S
C381 C380 1.391 . S
C382 H372 0.950 . S
C382 C383 1.386 . S
C382 C384 1.391 . S
C383 C382 1.386 . S
C383 C387 1.393 . S
C384 H373 0.950 . S
C384 C382 1.391 . S
C384 C385 1.400 . S
C385 C379 1.491 . S
C385 C384 1.400 . S
C385 C386 1.398 . S
C386 H374 0.950 . S
C386 C385 1.398 . S
C386 C387 1.391 . S
C387 H375 0.950 . S
C387 C383 1.393 . S
C387 C386 1.391 . S
H388 C396 0.950 . S
H389 C401 0.950 . S
H390 C398 0.950 . S
H391 C400 0.950 . S
H392 C402 0.950 . S
H393 C404 0.950 . S
H394 C406 0.950 . S
H395 C407 0.950 . S
C396 H388 0.950 . S
C396 C397 1.386 . S
C396 C398 1.391 . S
C397 C396 1.386 . S
C397 C401 1.393 . S
C398 H390 0.950 . S
C398 C396 1.391 . S
C398 C399 1.400 . S
C399 C398 1.400 . S
C399 C400 1.398 . S
C399 C405 1.491 . S
C400 H391 0.950 . S
C400 C399 1.398 . S
C400 C401 1.391 . S
C401 H389 0.950 . S
C401 C397 1.393 . S
C401 C400 1.391 . S
C402 H392 0.950 . S
C402 C403 1.386 . S
C402 C404 1.391 . S
C403 C402 1.386 . S
C403 C407 1.393 . S
C404 H393 0.950 . S
C404 C402 1.391 . S
C404 C405 1.400 . S
C405 C399 1.491 . S
C405 C404 1.400 . S
C405 C406 1.398 . S
C406 H394 0.950 . S
C406 C405 1.398 . S
C406 C407 1.391 . S
C407 H395 0.950 . S
C407 C403 1.393 . S
C407 C406 1.391 . S
H408 C416 0.950 . S
H409 C421 0.950 . S
H410 C418 0.950 . S
H411 C420 0.950 . S
H412 C422 0.950 . S
H413 C424 0.950 . S
H414 C426 0.950 . S
H415 C427 0.950 . S
C416 H408 0.950 . S
C416 C417 1.386 . S
C416 C418 1.391 . S
C417 C416 1.386 . S
C417 C421 1.393 . S
C418 H410 0.950 . S
C418 C416 1.391 . S
C418 C419 1.400 . S
C419 C418 1.400 . S
C419 C420 1.398 . S
C419 C425 1.491 . S
C420 H411 0.950 . S
C420 C419 1.398 . S
C420 C421 1.391 . S
C421 H409 0.950 . S
C421 C417 1.393 . S
C421 C420 1.391 . S
C422 H412 0.950 . S
C422 C423 1.386 . S
C422 C424 1.391 . S
C423 C422 1.386 . S
C423 C427 1.393 . S
C424 H413 0.950 . S
C424 C422 1.391 . S
C424 C425 1.400 . S
C425 C419 1.491 . S
C425 C424 1.400 . S
C425 C426 1.398 . S
C426 H414 0.950 . S
C426 C425 1.398 . S
C426 C427 1.391 . S
C427 H415 0.950 . S
C427 C423 1.393 . S
C427 C426 1.391 . S
H428 C436 0.950 . S
H429 C441 0.950 . S
H430 C438 0.950 . S
H431 C440 0.950 . S
H432 C442 0.950 . S
H433 C444 0.950 . S
H434 C446 0.950 . S
H435 C447 0.950 . S
C436 H428 0.950 . S
C436 C437 1.386 . S
C436 C438 1.391 . S
C437 C436 1.386 . S
C437 C441 1.393 . S
C438 H430 0.950 . S
C438 C436 1.391 . S
C438 C439 1.400 . S
C439 C438 1.400 . S
C439 C440 1.398 . S
C439 C445 1.491 1_655 S
C440 H431 0.950 . S
C440 C439 1.398 . S
C440 C441 1.391 . S
C441 H429 0.950 . S
C441 C437 1.393 . S
C441 C440 1.391 . S
C442 H432 0.950 . S
C442 C443 1.386 . S
C442 C444 1.391 . S
C443 C442 1.386 . S
C443 C447 1.393 . S
C444 H433 0.950 . S
C444 C442 1.391 . S
C444 C445 1.400 . S
C445 C439 1.491 1_455 S
C445 C444 1.400 . S
C445 C446 1.398 . S
C446 H434 0.950 . S
C446 C445 1.398 . S
C446 C447 1.391 . S
C447 H435 0.950 . S
C447 C443 1.393 . S
C447 C446 1.391 . S
H448 C456 0.950 . S
H449 C461 0.950 . S
H450 C458 0.950 1_556 S
H451 C460 0.950 1_545 S
H452 C462 0.950 . S
H453 C464 0.950 1_554 S
H454 C466 0.950 1_565 S
H455 C467 0.950 . S
C456 H448 0.950 . S
C456 C457 1.386 . S
C456 C458 1.391 . S
C457 C456 1.386 . S
C457 C461 1.393 . S
C458 H450 0.950 1_554 S
C458 C456 1.391 . S
C458 C459 1.400 . S
C459 C458 1.400 . S
C459 C460 1.398 . S
C459 C465 1.491 1_564 S
C460 H451 0.950 1_565 S
C460 C459 1.398 . S
C460 C461 1.391 . S
C461 H449 0.950 . S
C461 C457 1.393 . S
C461 C460 1.391 . S
C462 H452 0.950 . S
C462 C463 1.386 . S
C462 C464 1.391 . S
C463 C462 1.386 . S
C463 C467 1.393 . S
C464 H453 0.950 1_556 S
C464 C462 1.391 . S
C464 C465 1.400 . S
C465 C459 1.491 1_546 S
C465 C464 1.400 . S
C465 C466 1.398 . S
C466 H454 0.950 1_545 S
C466 C465 1.398 . S
C466 C467 1.391 . S
C467 H455 0.950 . S
C467 C463 1.393 . S
C467 C466 1.391 . S
H468 C476 0.950 . S
H469 C481 0.950 . S
H470 C478 0.950 . S
H471 C480 0.950 . S
H472 C482 0.950 . S
H473 C484 0.950 . S
H474 C486 0.950 . S
H475 C487 0.950 . S
C476 H468 0.950 . S
C476 C477 1.386 . S
C476 C478 1.391 . S
C477 C476 1.386 . S
C477 C481 1.393 . S
C478 H470 0.950 . S
C478 C476 1.391 . S
C478 C479 1.400 . S
C479 C478 1.400 . S
C479 C480 1.398 . S
C479 C485 1.491 . S
C480 H471 0.950 . S
C480 C479 1.398 . S
C480 C481 1.391 . S
C481 H469 0.950 . S
C481 C477 1.393 . S
C481 C480 1.391 . S
C482 H472 0.950 . S
C482 C483 1.386 . S
C482 C484 1.391 . S
C483 C482 1.386 . S
C483 C487 1.393 . S
C484 H473 0.950 . S
C484 C482 1.391 . S
C484 C485 1.400 . S
C485 C479 1.491 . S
C485 C484 1.400 . S
C485 C486 1.398 . S
C486 H474 0.950 . S
C486 C485 1.398 . S
C486 C487 1.391 . S
C487 H475 0.950 . S
C487 C483 1.393 . S
C487 C486 1.391 . S
H488 C496 0.950 . S
H489 C501 0.950 . S
H490 C498 0.950 . S
H491 C500 0.950 1_655 S
H492 C502 0.950 . S
H493 C504 0.950 . S
H494 C506 0.950 1_455 S
H495 C507 0.950 . S
C496 H488 0.950 . S
C496 C497 1.386 . S
C496 C498 1.391 . S
C497 C496 1.386 . S
C497 C501 1.393 . S
C498 H490 0.950 . S
C498 C496 1.391 . S
C498 C499 1.400 . S
C499 C498 1.400 . S
C499 C500 1.398 . S
C499 C505 1.491 1_455 S
C500 H491 0.950 1_455 S
C500 C499 1.398 . S
C500 C501 1.391 . S
C501 H489 0.950 . S
C501 C497 1.393 . S
C501 C500 1.391 . S
C502 H492 0.950 . S
C502 C503 1.386 . S
C502 C504 1.391 . S
C503 C502 1.386 . S
C503 C507 1.393 . S
C504 H493 0.950 . S
C504 C502 1.391 . S
C504 C505 1.400 . S
C505 C499 1.491 1_655 S
C505 C504 1.400 . S
C505 C506 1.398 . S
C506 H494 0.950 1_655 S
C506 C505 1.398 . S
C506 C507 1.391 . S
C507 H495 0.950 . S
C507 C503 1.393 . S
C507 C506 1.391 . S
H508 C516 0.950 . S
H509 C521 0.950 . S
H510 C518 0.950 . S
H511 C520 0.950 1_545 S
H512 C522 0.950 . S
H513 C524 0.950 . S
H514 C526 0.950 1_565 S
H515 C527 0.950 . S
C516 H508 0.950 . S
C516 C517 1.386 . S
C516 C518 1.391 . S
C517 C516 1.386 . S
C517 C521 1.393 . S
C518 H510 0.950 . S
C518 C516 1.391 . S
C518 C519 1.400 . S
C519 C518 1.400 . S
C519 C520 1.398 . S
C519 C525 1.491 1_565 S
C520 H511 0.950 1_565 S
C520 C519 1.398 . S
C520 C521 1.391 . S
C521 H509 0.950 . S
C521 C517 1.393 . S
C521 C520 1.391 . S
C522 H512 0.950 . S
C522 C523 1.386 . S
C522 C524 1.391 . S
C523 C522 1.386 . S
C523 C527 1.393 . S
C524 H513 0.950 . S
C524 C522 1.391 . S
C524 C525 1.400 . S
C525 C519 1.491 1_545 S
C525 C524 1.400 . S
C525 C526 1.398 . S
C526 H514 0.950 1_545 S
C526 C525 1.398 . S
C526 C527 1.391 . S
C527 H515 0.950 . S
C527 C523 1.393 . S
C527 C526 1.391 . S
H528 C536 0.950 . S
H529 C541 0.950 . S
H530 C538 0.950 . S
H531 C540 0.950 . S
H532 C542 0.950 . S
H533 C544 0.950 . S
H534 C546 0.950 . S
H535 C547 0.950 . S
C536 H528 0.950 . S
C536 C537 1.386 . S
C536 C538 1.391 . S
C537 C536 1.386 . S
C537 C541 1.393 . S
C538 H530 0.950 . S
C538 C536 1.391 . S
C538 C539 1.400 . S
C539 C538 1.400 . S
C539 C540 1.398 . S
C539 C545 1.491 . S
C540 H531 0.950 . S
C540 C539 1.398 . S
C540 C541 1.391 . S
C541 H529 0.950 . S
C541 C537 1.393 . S
C541 C540 1.391 . S
C542 H532 0.950 . S
C542 C543 1.386 . S
C542 C544 1.391 . S
C543 C542 1.386 . S
C543 C547 1.393 . S
C544 H533 0.950 . S
C544 C542 1.391 . S
C544 C545 1.400 . S
C545 C539 1.491 . S
C545 C544 1.400 . S
C545 C546 1.398 . S
C546 H534 0.950 . S
C546 C545 1.398 . S
C546 C547 1.391 . S
C547 H535 0.950 . S
C547 C543 1.393 . S
C547 C546 1.391 . S
H548 C556 0.950 . S
H549 C561 0.950 . S
H550 C558 0.950 . S
H551 C560 0.950 . S
H552 C562 0.950 . S
H553 C564 0.950 . S
H554 C566 0.950 . S
H555 C567 0.950 . S
C556 H548 0.950 . S
C556 C557 1.386 . S
C556 C558 1.391 . S
C557 C556 1.386 . S
C557 C561 1.393 . S
C558 H550 0.950 . S
C558 C556 1.391 . S
C558 C559 1.400 . S
C559 C558 1.400 . S
C559 C560 1.398 . S
C559 C565 1.491 . S
C560 H551 0.950 . S
C560 C559 1.398 . S
C560 C561 1.391 . S
C561 H549 0.950 . S
C561 C557 1.393 . S
C561 C560 1.391 . S
C562 H552 0.950 . S
C562 C563 1.386 . S
C562 C564 1.391 . S
C563 C562 1.386 . S
C563 C567 1.393 . S
C564 H553 0.950 . S
C564 C562 1.391 . S
C564 C565 1.400 . S
C565 C559 1.491 . S
C565 C564 1.400 . S
C565 C566 1.398 . S
C566 H554 0.950 . S
C566 C565 1.398 . S
C566 C567 1.391 . S
C567 H555 0.950 . S
C567 C563 1.393 . S
C567 C566 1.391 . S
H568 C576 0.950 . S
H569 C581 0.950 . S
H570 C578 0.950 . S
H571 C580 0.950 1_554 S
H572 C582 0.950 . S
H573 C584 0.950 . S
H574 C586 0.950 . S
H575 C587 0.950 . S
C576 H568 0.950 . S
C576 C577 1.386 1_556 S
C576 C578 1.391 . S
C577 C576 1.386 1_554 S
C577 C581 1.393 . S
C578 H570 0.950 . S
C578 C576 1.391 . S
C578 C579 1.400 . S
C579 C578 1.400 . S
C579 C580 1.398 . S
C579 C585 1.491 . S
C580 H571 0.950 1_556 S
C580 C579 1.398 . S
C580 C581 1.391 1_556 S
C581 H569 0.950 . S
C581 C577 1.393 . S
C581 C580 1.391 1_554 S
C582 H572 0.950 . S
C582 C583 1.386 . S
C582 C584 1.391 . S
C583 C582 1.386 . S
C583 C587 1.393 . S
C584 H573 0.950 . S
C584 C582 1.391 . S
C584 C585 1.400 . S
C585 C579 1.491 . S
C585 C584 1.400 . S
C585 C586 1.398 . S
C586 H574 0.950 . S
C586 C585 1.398 . S
C586 C587 1.391 . S
C587 H575 0.950 . S
C587 C583 1.393 . S
C587 C586 1.391 . S
H588 C596 0.950 . S
H589 C601 0.950 . S
H590 C598 0.950 . S
H591 C600 0.950 . S
H592 C602 0.950 . S
H593 C604 0.950 . S
H594 C606 0.950 . S
H595 C607 0.950 . S
C596 H588 0.950 . S
C596 C597 1.386 . S
C596 C598 1.391 . S
C597 C596 1.386 . S
C597 C601 1.393 . S
C598 H590 0.950 . S
C598 C596 1.391 . S
C598 C599 1.400 . S
C599 C598 1.400 . S
C599 C600 1.398 . S
C599 C605 1.491 . S
C600 H591 0.950 . S
C600 C599 1.398 . S
C600 C601 1.391 . S
C601 H589 0.950 . S
C601 C597 1.393 . S
C601 C600 1.391 . S
C602 H592 0.950 . S
C602 C603 1.386 . S
C602 C604 1.391 1_556 S
C603 C602 1.386 . S
C603 C607 1.393 1_556 S
C604 H593 0.950 . S
C604 C602 1.391 1_554 S
C604 C605 1.400 . S
C605 C599 1.491 . S
C605 C604 1.400 . S
C605 C606 1.398 . S
C606 H594 0.950 . S
C606 C605 1.398 . S
C606 C607 1.391 . S
C607 H595 0.950 . S
C607 C603 1.393 1_554 S
C607 C606 1.391 . S
H608 C616 0.950 . S
H609 C621 0.950 . S
H610 C618 0.950 . S
H611 C620 0.950 . S
H612 C622 0.950 . S
H613 C624 0.950 . S
H614 C626 0.950 . S
H615 C627 0.950 . S
C616 H608 0.950 . S
C616 C617 1.386 . S
C616 C618 1.391 . S
C617 C616 1.386 . S
C617 C621 1.393 . S
C618 H610 0.950 . S
C618 C616 1.391 . S
C618 C619 1.400 . S
C619 C618 1.400 . S
C619 C620 1.398 . S
C619 C625 1.491 . S
C620 H611 0.950 . S
C620 C619 1.398 . S
C620 C621 1.391 . S
C621 H609 0.950 . S
C621 C617 1.393 . S
C621 C620 1.391 . S
C622 H612 0.950 . S
C622 C623 1.386 . S
C622 C624 1.391 . S
C623 C622 1.386 . S
C623 C627 1.393 . S
C624 H613 0.950 . S
C624 C622 1.391 . S
C624 C625 1.400 . S
C625 C619 1.491 . S
C625 C624 1.400 . S
C625 C626 1.398 . S
C626 H614 0.950 . S
C626 C625 1.398 . S
C626 C627 1.391 . S
C627 H615 0.950 . S
C627 C623 1.393 . S
C627 C626 1.391 . S
H628 C636 0.950 . S
H629 C641 0.950 . S
H630 C638 0.950 . S
H631 C640 0.950 . S
H632 C642 0.950 . S
H633 C644 0.950 . S
H634 C646 0.950 . S
H635 C647 0.950 . S
C636 H628 0.950 . S
C636 C637 1.386 . S
C636 C638 1.391 . S
C637 C636 1.386 . S
C637 C641 1.393 . S
C638 H630 0.950 . S
C638 C636 1.391 . S
C638 C639 1.400 . S
C639 C638 1.400 . S
C639 C640 1.398 . S
C639 C645 1.491 . S
C640 H631 0.950 . S
C640 C639 1.398 . S
C640 C641 1.391 . S
C641 H629 0.950 . S
C641 C637 1.393 . S
C641 C640 1.391 . S
C642 H632 0.950 . S
C642 C643 1.386 . S
C642 C644 1.391 . S
C643 C642 1.386 . S
C643 C647 1.393 . S
C644 H633 0.950 . S
C644 C642 1.391 . S
C644 C645 1.400 . S
C645 C639 1.491 . S
C645 C644 1.400 . S
C645 C646 1.398 . S
C646 H634 0.950 . S
C646 C645 1.398 . S
C646 C647 1.391 . S
C647 H635 0.950 . S
C647 C643 1.393 . S
C647 C646 1.391 . S
C177 C131 1.596 1_554 S
C183 C5 1.596 . S
C197 C19 1.598 . S
C203 C145 1.605 . S
C217 C159 1.595 . S
C223 C33 1.598 . S
C237 C89 1.604 . S
C243 C47 1.596 . S
C257 C103 1.596 . S
C263 C61 1.604 1_556 S
C277 C117 1.595 . S
C283 C75 1.598 . S
C297 C84 1.488 . S
C303 C0 1.491 . S
C317 C14 1.509 . S
C323 C98 1.487 . S
C337 C112 1.508 . S
C343 C28 1.492 . S
C357 C42 1.508 . S
C363 C126 1.486 . S
C377 C140 1.494 . S
C383 C56 1.486 . S
C397 C70 1.483 . S
C403 C154 1.501 . S
C417 C135 1.312 . S
C423 C9 1.317 . S
C437 C149 1.314 . S
C443 C23 1.315 . S
C457 C163 1.309 . S
C463 C37 1.317 . S
C477 C51 1.311 . S
C483 C93 1.317 . S
C497 C107 1.307 . S
C503 C65 1.316 . S
C517 C79 1.311 . S
C523 C121 1.317 . S
C537 C11 1.199 . S
C543 C123 1.203 . S
C557 C137 1.192 . S
C563 C25 1.188 . S
C577 C151 1.190 . S
C583 C39 1.198 . S
C597 C165 1.202 . S
C603 C53 1.195 . S
C617 C95 1.197 . S
C623 C67 1.203 . S
C637 C109 1.189 . S
C643 C81 1.188 . S
