# Generated by pormake.
# Topology vme, (6)-cn, num edge types: 1
# Building blocks:
#     Node 0, Type 0, BuildingBlock: IZENUY_clean_sbu_0, # of connection points: 6
#     Node 1, Type 0, BuildingBlock: IZENUY_clean_sbu_0, # of connection points: 6
#     Node 2, Type 0, BuildingBlock: IZENUY_clean_sbu_0, # of connection points: 6
#     Node 3, Type 0, BuildingBlock: IZENUY_clean_sbu_0, # of connection points: 6
#     Edge 4, Type (0, 0), BuildingBlock: CIFDUS_clean_linker_0, # of connection points: 2
#     Edge 5, Type (0, 0), BuildingBlock: CIFDUS_clean_linker_0, # of connection points: 2
#     Edge 6, Type (0, 0), BuildingBlock: CIFDUS_clean_linker_0, # of connection points: 2
#     Edge 7, Type (0, 0), BuildingBlock: CIFDUS_clean_linker_0, # of connection points: 2
#     Edge 8, Type (0, 0), BuildingBlock: CIFDUS_clean_linker_0, # of connection points: 2
#     Edge 9, Type (0, 0), BuildingBlock: CIFDUS_clean_linker_0, # of connection points: 2
#     Edge 10, Type (0, 0), BuildingBlock: CIFDUS_clean_linker_0, # of connection points: 2
#     Edge 11, Type (0, 0), BuildingBlock: CIFDUS_clean_linker_0, # of connection points: 2
#     Edge 12, Type (0, 0), BuildingBlock: CIFDUS_clean_linker_0, # of connection points: 2
#     Edge 13, Type (0, 0), BuildingBlock: CIFDUS_clean_linker_0, # of connection points: 2
#     Edge 14, Type (0, 0), BuildingBlock: CIFDUS_clean_linker_0, # of connection points: 2
#     Edge 15, Type (0, 0), BuildingBlock: CIFDUS_clean_linker_0, # of connection points: 2
# Relax obj value: 0.239
# Max RMSD: 0.243
# Mean RMSD: 0.243
data_MOF--net-vme--node1-IZENUY_clean_sbu_0--edge1-CIFDUS_clean_linker_0
_symmetry_space_group_name_H-M    P1
_symmetry_Int_Tables_number       1
_symmetry_cell_setting            triclinic
loop_
_symmetry_equiv_pos_as_xyz
'x, y, z'
_cell_length_a     22.874678
_cell_length_b     22.25099
_cell_length_c     24.510361
_cell_angle_alpha  89.924293
_cell_angle_beta   117.30053
_cell_angle_gamma 90.542415
loop_
_atom_site_label
_atom_site_type_symbol
_atom_site_fract_x
_atom_site_fract_y
_atom_site_fract_z
_atom_type_partial_charge
Fe0 Fe 0.12963 0.39874 0.33693 0.0
Fe1 Fe 0.26044 0.33373 0.4118 0.0
O2 O 0.20748 0.39479 0.40178 0.0
Fe3 Fe 0.23248 0.45179 0.45821 0.0
O4 O 0.16574 0.434 0.47467 0.0
O5 O 0.08917 0.43542 0.37874 0.0
O6 O 0.10391 0.32814 0.35496 0.0
C7 C 0.13268 0.27907 0.36001 0.0
C8 C 0.16118 0.51643 0.34667 0.0
O9 O 0.19321 0.27786 0.37288 0.0
C10 C 0.34493 0.43655 0.44992 0.0
O11 O 0.15716 0.36281 0.28465 0.0
O12 O 0.26396 0.35033 0.3414 0.0
O13 O 0.18554 0.51221 0.40456 0.0
O14 O 0.14958 0.46995 0.31413 0.0
C15 C 0.27368 0.34634 0.52737 0.0
O16 O 0.33726 0.37989 0.45231 0.0
O17 O 0.30004 0.47207 0.44373 0.0
C18 C 0.2141 0.35291 0.28959 0.0
O19 O 0.25821 0.31247 0.4818 0.0
O20 O 0.28313 0.40202 0.52311 0.0
C21 C 0.10638 0.43896 0.43598 0.0
Fe22 Fe 0.777 0.82872 0.13574 0.0
Fe23 Fe 0.8036 0.94773 0.08863 0.0
O24 O 0.82898 0.89153 0.14563 0.0
Fe25 Fe 0.9065 0.89773 0.21089 0.0
O26 O 0.93356 0.82795 0.19364 0.0
O27 O 0.84482 0.77516 0.17571 0.0
O28 O 0.78064 0.80747 0.06644 0.0
C29 C 0.76525 0.84078 1.0206 0.0
C30 C 0.8217 0.84915 0.25759 0.0
O31 O 0.75508 0.89623 1.024 0.0
C32 C 0.87362 1.01445 0.20016 0.0
O33 O 0.6995 0.87185 0.09375 0.0
O34 O 0.73419 0.96535 0.1009 0.0
O35 O 0.87869 0.8608 0.26288 0.0
O36 O 0.77215 0.84524 0.20556 0.0
C37 C 0.93057 0.9392 0.11244 0.0
O38 O 0.84882 1.00971 0.14221 0.0
O39 O 0.88523 0.96823 0.23287 0.0
C40 C 0.68887 0.92821 0.09187 0.0
O41 O 0.87147 0.93258 0.07344 0.0
O42 O 0.94731 0.93582 0.16958 0.0
C43 C 0.90518 0.77807 0.18829 0.0
Fe44 Fe 0.80607 0.58384 0.59032 0.0
Fe45 Fe 0.9089 0.63701 0.71154 0.0
O46 O 0.83104 0.6409 0.64669 0.0
Fe47 Fe 0.77806 0.70194 0.63662 0.0
O48 O 0.78028 0.72315 0.5666 0.0
O49 O 0.7554 0.63356 0.52538 0.0
O50 O 0.8728 0.6016 0.57383 0.0
C51 C 0.93216 0.59669 0.61252 0.0
C52 C 0.69361 0.5991 0.59859 0.0
O53 O 0.94938 0.60028 0.66976 0.0
C54 C 0.82443 0.68286 0.75885 0.0
O55 O 0.85303 0.52347 0.64404 0.0
O56 O 0.889 0.56583 0.73441 0.0
O57 O 0.70126 0.65575 0.59615 0.0
O58 O 0.73852 0.56358 0.60482 0.0
C59 C 0.9058 0.75665 0.68836 0.0
O60 O 0.88137 0.67299 0.76378 0.0
O61 O 0.77455 0.6854 0.70704 0.0
C62 C 0.8774 0.51932 0.70193 0.0
O63 O 0.93458 0.70759 0.69342 0.0
O64 O 0.84527 0.75785 0.6755 0.0
C65 C 0.76484 0.68923 0.52107 0.0
Fe66 Fe 0.26164 0.20694 0.91274 0.0
Fe67 Fe 0.23492 0.08802 0.9599 0.0
O68 O 0.2096 0.14419 0.90288 0.0
Fe69 Fe 0.13206 0.13805 0.83763 0.0
O70 O 0.1051 0.20789 0.85489 0.0
O71 O 0.19389 0.26055 0.87273 0.0
O72 O 0.25801 0.22828 0.98202 0.0
C73 C 0.27336 0.19499 0.02788 0.0
C74 C 0.21692 0.18644 0.7909 0.0
O75 O 0.28349 0.13953 0.02451 0.0
C76 C 0.1648 0.02129 0.84839 0.0
O77 O 0.33909 0.16375 0.95476 0.0
O78 O 0.30431 0.07029 0.94764 0.0
O79 O 0.15991 0.17487 0.78563 0.0
O80 O 0.26647 0.19033 0.84293 0.0
C81 C 0.10796 0.09671 0.9361 0.0
O82 O 0.18963 0.02604 0.90634 0.0
O83 O 0.15323 0.06749 0.81566 0.0
C84 C 0.34966 0.10738 0.95665 0.0
O85 O 0.16707 0.10326 0.97509 0.0
O86 O 0.09122 0.10006 0.87896 0.0
C87 C 0.13353 0.25773 0.86017 0.0
H88 H 0.99628 0.0232 0.29356 0.0
H89 H 0.83255 0.13018 0.17029 0.0
H90 H 0.89789 0.22216 0.21263 0.0
H91 H 1.00319 0.27094 0.28013 0.0
H92 H 0.17046 0.1632 0.39566 0.0
H93 H 0.102 0.07203 0.36066 0.0
C94 C 0.97448 0.06678 0.27688 0.0
C95 C 0.90925 0.07028 0.22982 0.0
C96 C 1.01322 0.11889 0.29948 0.0
C97 C 0.88231 0.1267 0.20704 0.0
C98 C 0.91975 0.17905 0.23102 0.0
C99 C 0.0246 0.22756 0.29821 0.0
C100 C 0.09176 0.22375 0.34084 0.0
C101 C 0.98551 0.17555 0.27659 0.0
C102 C 0.11899 0.16718 0.36286 0.0
C103 C 0.07984 0.11521 0.34294 0.0
H104 H 0.03999 0.52427 0.25124 0.0
H105 H 0.20328 0.63226 0.37814 0.0
H106 H 0.1391 0.72373 0.33627 0.0
H107 H 0.03441 0.7716 0.26869 0.0
H108 H 0.86739 0.66249 0.14969 0.0
H109 H 0.93526 0.57219 0.18353 0.0
C110 C 0.06198 0.56798 0.26878 0.0
C111 C 0.12665 0.57194 0.31684 0.0
C112 C 0.02383 0.61973 0.24648 0.0
C113 C 0.15389 0.62848 0.34065 0.0
C114 C 0.11711 0.68053 0.31695 0.0
C115 C 1.013 0.72811 0.24962 0.0
C116 C 0.94606 0.72358 0.20649 0.0
C117 C 0.05171 0.67653 0.27062 0.0
C118 C 0.91871 0.66693 0.18302 0.0
C119 C 0.95752 0.61546 0.20225 0.0
H120 H 0.04222 1.01252 0.75485 0.0
H121 H 0.20579 0.90555 0.87842 0.0
H122 H 0.14046 0.81357 0.83606 0.0
H123 H 0.03521 0.76479 0.76843 0.0
H124 H 0.86807 0.87251 0.65259 0.0
H125 H 0.93653 0.96368 0.68765 0.0
C126 C 0.06399 0.96894 0.77159 0.0
C127 C 0.12917 0.96544 0.81875 0.0
C128 C 0.02524 0.91683 0.74898 0.0
C129 C 0.15607 0.90903 0.84159 0.0
C130 C 0.11863 0.85668 0.8176 0.0
C131 C 1.01383 0.80817 0.75029 0.0
C132 C 0.94671 0.81198 0.70756 0.0
C133 C 0.05292 0.86018 0.77194 0.0
C134 C 0.91951 0.86854 0.68547 0.0
C135 C 0.95866 0.92051 0.70542 0.0
H136 H 0.99915 0.51171 0.79643 0.0
H137 H 0.83492 0.40343 0.67149 0.0
H138 H 0.89909 0.31198 0.71356 0.0
H139 H 1.00396 0.26417 0.78073 0.0
H140 H 0.1718 0.37348 0.8977 0.0
H141 H 0.10407 0.46385 0.86371 0.0
C142 C 0.97697 0.46795 0.77937 0.0
C143 C 0.91204 0.46389 0.73182 0.0
C144 C 1.01509 0.41619 0.80176 0.0
C145 C 0.88453 0.40728 0.70859 0.0
C146 C 0.9213 0.35524 0.73241 0.0
C147 C 0.02559 0.30771 0.79934 0.0
C148 C 0.09272 0.31227 0.84194 0.0
C149 C 0.98694 0.35932 0.77823 0.0
C150 C 0.12032 0.369 0.86481 0.0
C151 C 0.0816 0.42051 0.84548 0.0
H152 H 0.9072 0.58365 0.49406 0.0
H153 H 0.05548 0.55039 0.68002 0.0
H154 H 0.11958 0.49394 0.64082 0.0
H155 H 0.13135 0.452 0.55445 0.0
H156 H 0.98306 0.48524 0.36849 0.0
H157 H 0.91896 0.5417 0.40769 0.0
C158 C 0.9538 0.56448 0.52626 0.0
C159 C 0.97654 0.57124 0.59003 0.0
C160 C 0.98924 0.53084 0.50353 0.0
C161 C 0.03714 0.54634 0.63083 0.0
C162 C 0.07335 0.51346 0.60844 0.0
C163 C 0.08474 0.47116 0.52226 0.0
C164 C 0.06201 0.46441 0.45848 0.0
C165 C 0.0493 0.5048 0.54498 0.0
C166 C 1.0014 0.4893 0.41769 0.0
C167 C 0.96519 0.52217 0.44007 0.0
H168 H 0.90653 0.95107 0.99408 0.0
H169 H 0.0538 0.98803 0.18011 0.0
H170 H 0.11891 0.04436 0.14091 0.0
H171 H 0.13196 0.08495 0.05447 0.0
H172 H 0.98468 0.04798 0.86844 0.0
H173 H 0.91955 0.9917 0.90764 0.0
C174 C 0.95311 0.97105 0.02631 0.0
C175 C 0.97529 0.9653 0.09011 0.0
C176 C 0.98919 1.00451 1.00355 0.0
C177 C 0.03587 0.99128 0.13092 0.0
C178 C 0.07267 0.02405 0.10852 0.0
C179 C 0.08537 0.06498 1.02223 0.0
C180 C 0.0632 0.0707 0.95844 0.0
C181 C 0.04928 0.03153 0.045 0.0
C182 C 1.00261 0.04474 0.91763 0.0
C183 C 0.96579 1.012 0.94003 0.0
H184 H 0.20145 0.28746 0.03415 0.0
H185 H 0.34666 0.1588 0.14695 0.0
H186 H 0.34416 0.19975 0.2387 0.0
H187 H 0.29758 0.26967 0.28581 0.0
H188 H 0.14452 0.39134 0.1714 0.0
H189 H 0.15322 0.35571 0.08082 0.0
C190 C 0.23316 0.26885 0.07896 0.0
C191 C 0.27491 0.22072 0.08406 0.0
C192 C 0.22975 0.29125 0.13089 0.0
C193 C 0.31445 0.19603 0.14206 0.0
C194 C 0.31295 0.21942 0.19437 0.0
C195 C 0.26666 0.28886 0.2411 0.0
C196 C 0.22097 0.3336 0.23519 0.0
C197 C 0.27044 0.26671 0.18922 0.0
C198 C 0.18013 0.35706 0.17693 0.0
C199 C 0.18512 0.33669 0.12529 0.0
H200 H 0.73966 0.76277 0.26203 0.0
H201 H 0.88974 0.89002 0.37529 0.0
H202 H 0.88158 0.85405 0.46611 0.0
H203 H 0.83481 0.78412 0.51347 0.0
H204 H 0.69269 0.65006 0.40227 0.0
H205 H 0.69451 0.691 0.31005 0.0
C206 C 0.77002 0.78308 0.30654 0.0
C207 C 0.81473 0.82953 0.31201 0.0
C208 C 0.7666 0.76073 0.35868 0.0
C209 C 0.85487 0.85444 0.37005 0.0
C210 C 0.8502 0.83385 0.42185 0.0
C211 C 0.8036 0.76426 0.46891 0.0
C212 C 0.76291 0.71463 0.46445 0.0
C213 C 0.80661 0.78675 0.41673 0.0
C214 C 0.72407 0.68844 0.40673 0.0
C215 C 0.72518 0.71184 0.35413 0.0
H216 H 0.83707 0.74825 1.01428 0.0
H217 H 0.69206 0.8771 0.90156 0.0
H218 H 0.69456 0.83618 0.80979 0.0
H219 H 0.74106 0.76621 0.76264 0.0
H220 H 0.89391 0.64434 0.877 0.0
H221 H 0.88523 0.67997 0.96759 0.0
C222 C 0.80539 0.76691 0.96948 0.0
C223 C 0.76371 0.81508 0.9644 0.0
C224 C 0.8088 0.74453 0.91755 0.0
C225 C 0.72422 0.83984 0.90643 0.0
C226 C 0.72572 0.81647 0.8541 0.0
C227 C 0.77194 0.74698 0.80734 0.0
C228 C 0.81757 0.70219 0.81324 0.0
C229 C 0.76816 0.76913 0.85924 0.0
C230 C 0.85835 0.67867 0.87149 0.0
C231 C 0.85337 0.69904 0.92313 0.0
H232 H 0.29908 0.27267 0.78645 0.0
H233 H 0.14876 0.14561 0.67319 0.0
H234 H 0.15689 0.18158 0.58235 0.0
H235 H 0.20366 0.25149 0.53497 0.0
H236 H 0.34602 0.38537 0.64619 0.0
H237 H 0.34427 0.34439 0.73843 0.0
C238 C 0.26867 0.2524 0.74194 0.0
C239 C 0.2239 0.20601 0.73647 0.0
C240 C 0.27206 0.27475 0.68978 0.0
C241 C 0.18368 0.18114 0.67843 0.0
C242 C 0.18833 0.20173 0.62661 0.0
C243 C 0.23494 0.27129 0.57953 0.0
C244 C 0.27567 0.3209 0.584 0.0
C245 C 0.23196 0.24878 0.63172 0.0
C246 C 0.3146 0.34702 0.64173 0.0
C247 C 0.31353 0.32359 0.69434 0.0
H248 H 0.45883 0.42401 0.55494 0.0
H249 H 0.37158 0.51609 0.38143 0.0
H250 H 0.46946 0.58027 0.41424 0.0
H251 H 0.57971 0.61162 0.49356 0.0
H252 H 0.66697 0.51954 0.66707 0.0
H253 H 0.56909 0.45535 0.63426 0.0
C254 C 0.46233 0.45703 0.52394 0.0
C255 C 0.40925 0.46437 0.46533 0.0
C256 C 0.51784 0.49521 0.54402 0.0
C257 C 0.41288 0.50885 0.42623 0.0
C258 C 0.46833 0.54608 0.44529 0.0
C259 C 0.57621 0.5786 0.52456 0.0
C260 C 0.62929 0.57127 0.58318 0.0
C261 C 0.52071 0.54042 0.50448 0.0
C262 C 0.62567 0.52678 0.62227 0.0
C263 C 0.57022 0.48954 0.60322 0.0
H264 H 0.38705 0.99048 0.97734 0.0
H265 H 0.46495 0.17043 0.9898 0.0
H266 H 0.57663 0.13047 0.03472 0.0
H267 H 0.65146 0.04509 0.07119 0.0
H268 H 0.57358 0.86513 0.05872 0.0
H269 H 0.4619 0.90508 1.01381 0.0
C270 C 0.42827 0.02122 0.98955 0.0
C271 C 0.41737 0.08363 0.98007 0.0
C272 C 0.4922 0.99803 1.01593 0.0
C273 C 0.47169 0.12237 0.99638 0.0
C274 C 0.53557 0.09952 1.02231 0.0
C275 C 0.61024 1.01434 0.05898 0.0
C276 C 0.62115 0.95194 0.06846 0.0
C277 C 0.54632 0.03752 0.0326 0.0
C278 C 0.56683 0.91318 0.05214 0.0
C279 C 0.50295 0.93603 0.02621 0.0
loop_
_geom_bond_atom_site_label_1
_geom_bond_atom_site_label_2
_geom_bond_distance
_geom_bond_site_symmetry_2
_ccdc_geom_bond_type
Fe0 O2 1.918 . S
Fe0 O5 1.997 . S
Fe0 O6 2.002 . S
Fe0 O11 1.976 . S
Fe0 O14 1.996 . S
Fe1 O2 1.918 . S
Fe1 O9 1.997 . S
Fe1 O12 1.996 . S
Fe1 O16 1.976 . S
Fe1 O19 2.002 . S
O2 Fe0 1.918 . S
O2 Fe1 1.918 . S
O2 Fe3 1.918 . S
Fe3 O2 1.918 . S
Fe3 O4 2.002 . S
Fe3 O13 1.976 . S
Fe3 O17 1.996 . S
Fe3 O20 1.997 . S
O4 Fe3 2.002 . S
O4 C21 1.295 . S
O5 Fe0 1.997 . S
O5 C21 1.235 . S
O6 Fe0 2.002 . S
O6 C7 1.295 . S
C7 O6 1.295 . S
C7 O9 1.235 . S
C8 O13 1.287 . S
C8 O14 1.255 . S
O9 Fe1 1.997 . S
O9 C7 1.235 . S
C10 O16 1.287 . S
C10 O17 1.255 . S
O11 Fe0 1.976 . S
O11 C18 1.287 . S
O12 Fe1 1.996 . S
O12 C18 1.255 . S
O13 Fe3 1.976 . S
O13 C8 1.287 . S
O14 Fe0 1.996 . S
O14 C8 1.255 . S
C15 O19 1.295 . S
C15 O20 1.235 . S
O16 Fe1 1.976 . S
O16 C10 1.287 . S
O17 Fe3 1.996 . S
O17 C10 1.255 . S
C18 O11 1.287 . S
C18 O12 1.255 . S
O19 Fe1 2.002 . S
O19 C15 1.295 . S
O20 Fe3 1.997 . S
O20 C15 1.235 . S
C21 O4 1.295 . S
C21 O5 1.235 . S
Fe22 O24 1.918 . S
Fe22 O27 1.997 . S
Fe22 O28 2.002 . S
Fe22 O33 1.976 . S
Fe22 O36 1.996 . S
Fe23 O24 1.918 . S
Fe23 O31 1.997 1_554 S
Fe23 O34 1.996 . S
Fe23 O38 1.976 1_565 S
Fe23 O41 2.002 . S
O24 Fe22 1.918 . S
O24 Fe23 1.918 . S
O24 Fe25 1.918 . S
Fe25 O24 1.918 . S
Fe25 O26 2.002 . S
Fe25 O35 1.976 . S
Fe25 O39 1.996 . S
Fe25 O42 1.997 . S
O26 Fe25 2.002 . S
O26 C43 1.295 . S
O27 Fe22 1.997 . S
O27 C43 1.235 . S
O28 Fe22 2.002 . S
O28 C29 1.295 1_554 S
C29 O28 1.295 1_556 S
C29 O31 1.235 . S
C30 O35 1.287 . S
C30 O36 1.255 . S
O31 Fe23 1.997 1_556 S
O31 C29 1.235 . S
C32 O38 1.287 . S
C32 O39 1.255 1_545 S
O33 Fe22 1.976 . S
O33 C40 1.287 . S
O34 Fe23 1.996 . S
O34 C40 1.255 . S
O35 Fe25 1.976 . S
O35 C30 1.287 . S
O36 Fe22 1.996 . S
O36 C30 1.255 . S
C37 O41 1.295 . S
C37 O42 1.235 . S
O38 Fe23 1.976 1_545 S
O38 C32 1.287 . S
O39 Fe25 1.996 . S
O39 C32 1.255 1_565 S
C40 O33 1.287 . S
C40 O34 1.255 . S
O41 Fe23 2.002 . S
O41 C37 1.295 . S
O42 Fe25 1.997 . S
O42 C37 1.235 . S
C43 O26 1.295 . S
C43 O27 1.235 . S
Fe44 O46 1.918 . S
Fe44 O49 1.997 . S
Fe44 O50 2.002 . S
Fe44 O55 1.976 . S
Fe44 O58 1.996 . S
Fe45 O46 1.918 . S
Fe45 O53 1.997 . S
Fe45 O56 1.996 . S
Fe45 O60 1.976 . S
Fe45 O63 2.002 . S
O46 Fe44 1.918 . S
O46 Fe45 1.918 . S
O46 Fe47 1.918 . S
Fe47 O46 1.918 . S
Fe47 O48 2.002 . S
Fe47 O57 1.976 . S
Fe47 O61 1.996 . S
Fe47 O64 1.997 . S
O48 Fe47 2.002 . S
O48 C65 1.295 . S
O49 Fe44 1.997 . S
O49 C65 1.235 . S
O50 Fe44 2.002 . S
O50 C51 1.295 . S
C51 O50 1.295 . S
C51 O53 1.235 . S
C52 O57 1.287 . S
C52 O58 1.255 . S
O53 Fe45 1.997 . S
O53 C51 1.235 . S
C54 O60 1.287 . S
C54 O61 1.255 . S
O55 Fe44 1.976 . S
O55 C62 1.287 . S
O56 Fe45 1.996 . S
O56 C62 1.255 . S
O57 Fe47 1.976 . S
O57 C52 1.287 . S
O58 Fe44 1.996 . S
O58 C52 1.255 . S
C59 O63 1.295 . S
C59 O64 1.235 . S
O60 Fe45 1.976 . S
O60 C54 1.287 . S
O61 Fe47 1.996 . S
O61 C54 1.255 . S
C62 O55 1.287 . S
C62 O56 1.255 . S
O63 Fe45 2.002 . S
O63 C59 1.295 . S
O64 Fe47 1.997 . S
O64 C59 1.235 . S
C65 O48 1.295 . S
C65 O49 1.235 . S
Fe66 O68 1.918 . S
Fe66 O71 1.997 . S
Fe66 O72 2.002 . S
Fe66 O77 1.976 . S
Fe66 O80 1.996 . S
Fe67 O68 1.918 . S
Fe67 O75 1.997 1_556 S
Fe67 O78 1.996 . S
Fe67 O82 1.976 1_545 S
Fe67 O85 2.002 . S
O68 Fe66 1.918 . S
O68 Fe67 1.918 . S
O68 Fe69 1.918 . S
Fe69 O68 1.918 . S
Fe69 O70 2.002 . S
Fe69 O79 1.976 . S
Fe69 O83 1.996 . S
Fe69 O86 1.997 . S
O70 Fe69 2.002 . S
O70 C87 1.295 . S
O71 Fe66 1.997 . S
O71 C87 1.235 . S
O72 Fe66 2.002 . S
O72 C73 1.295 1_556 S
C73 O72 1.295 1_554 S
C73 O75 1.235 . S
C74 O79 1.287 . S
C74 O80 1.255 . S
O75 Fe67 1.997 1_554 S
O75 C73 1.235 . S
C76 O82 1.287 . S
C76 O83 1.255 1_565 S
O77 Fe66 1.976 . S
O77 C84 1.287 . S
O78 Fe67 1.996 . S
O78 C84 1.255 . S
O79 Fe69 1.976 . S
O79 C74 1.287 . S
O80 Fe66 1.996 . S
O80 C74 1.255 . S
C81 O85 1.295 . S
C81 O86 1.235 . S
O82 Fe67 1.976 1_565 S
O82 C76 1.287 . S
O83 Fe69 1.996 . S
O83 C76 1.255 1_545 S
C84 O77 1.287 . S
C84 O78 1.255 . S
O85 Fe67 2.002 . S
O85 C81 1.295 . S
O86 Fe69 1.997 . S
O86 C81 1.235 . S
C87 O70 1.295 . S
C87 O71 1.235 . S
H88 C94 0.930 . S
H89 C97 0.930 . S
H90 C98 0.930 . S
H91 C99 0.930 1_655 S
H92 C102 0.930 . S
H93 C103 0.930 . S
C94 H88 0.930 . S
C94 C95 1.355 . S
C94 C96 1.415 . S
C95 C94 1.355 . S
C95 C97 1.419 . S
C96 C94 1.415 . S
C96 C101 1.425 . S
C96 C103 1.409 1_655 S
C97 H89 0.930 . S
C97 C95 1.419 . S
C97 C98 1.362 . S
C98 H90 0.930 . S
C98 C97 1.362 . S
C98 C101 1.409 . S
C99 H91 0.930 1_455 S
C99 C100 1.355 . S
C99 C101 1.415 1_455 S
C100 C99 1.355 . S
C100 C102 1.419 . S
C101 C96 1.425 . S
C101 C98 1.409 . S
C101 C99 1.415 1_655 S
C102 H92 0.930 . S
C102 C100 1.419 . S
C102 C103 1.362 . S
C103 H93 0.930 . S
C103 C96 1.409 1_455 S
C103 C102 1.362 . S
H104 C110 0.930 . S
H105 C113 0.930 . S
H106 C114 0.930 . S
H107 C115 0.930 . S
H108 C118 0.930 . S
H109 C119 0.930 . S
C110 H104 0.930 . S
C110 C111 1.355 . S
C110 C112 1.415 . S
C111 C110 1.355 . S
C111 C113 1.419 . S
C112 C110 1.415 . S
C112 C117 1.425 . S
C112 C119 1.409 . S
C113 H105 0.930 . S
C113 C111 1.419 . S
C113 C114 1.362 . S
C114 H106 0.930 . S
C114 C113 1.362 . S
C114 C117 1.409 . S
C115 H107 0.930 . S
C115 C116 1.355 . S
C115 C117 1.415 1_655 S
C116 C115 1.355 . S
C116 C118 1.419 . S
C117 C112 1.425 . S
C117 C114 1.409 . S
C117 C115 1.415 1_455 S
C118 H108 0.930 . S
C118 C116 1.419 . S
C118 C119 1.362 1_655 S
C119 H109 0.930 . S
C119 C112 1.409 . S
C119 C118 1.362 1_455 S
H120 C126 0.930 . S
H121 C129 0.930 . S
H122 C130 0.930 . S
H123 C131 0.930 . S
H124 C134 0.930 . S
H125 C135 0.930 . S
C126 H120 0.930 . S
C126 C127 1.355 . S
C126 C128 1.415 . S
C127 C126 1.355 . S
C127 C129 1.419 . S
C128 C126 1.415 . S
C128 C133 1.425 1_455 S
C128 C135 1.409 . S
C129 H121 0.930 . S
C129 C127 1.419 . S
C129 C130 1.362 1_455 S
C130 H122 0.930 . S
C130 C129 1.362 1_655 S
C130 C133 1.409 . S
C131 H123 0.930 . S
C131 C132 1.355 . S
C131 C133 1.415 . S
C132 C131 1.355 . S
C132 C134 1.419 1_655 S
C133 C128 1.425 1_655 S
C133 C130 1.409 . S
C133 C131 1.415 . S
C134 H124 0.930 . S
C134 C132 1.419 1_455 S
C134 C135 1.362 . S
C135 H125 0.930 . S
C135 C128 1.409 . S
C135 C134 1.362 . S
H136 C142 0.930 . S
H137 C145 0.930 . S
H138 C146 0.937 . S
H139 C147 0.930 . S
H140 C150 0.930 . S
H141 C151 0.930 . S
C142 H136 0.930 . S
C142 C143 1.355 . S
C142 C144 1.415 . S
C143 C142 1.355 . S
C143 C145 1.419 . S
C144 C142 1.415 . S
C144 C149 1.425 1_655 S
C144 C151 1.409 . S
C145 H137 0.930 . S
C145 C143 1.419 . S
C145 C146 1.356 1_655 S
C146 H138 0.937 . S
C146 C145 1.356 1_455 S
C146 C149 1.409 . S
C147 H139 0.930 . S
C147 C148 1.355 . S
C147 C149 1.415 . S
C148 C147 1.355 . S
C148 C150 1.430 . S
C149 C144 1.425 1_455 S
C149 C146 1.409 . S
C149 C147 1.415 . S
C150 H140 0.930 . S
C150 C148 1.430 . S
C150 C151 1.352 1_455 S
C151 H141 0.930 . S
C151 C144 1.409 . S
C151 C150 1.352 1_655 S
H152 C158 0.930 . S
H153 C161 0.930 . S
H154 C162 0.930 . S
H155 C163 0.930 . S
H156 C166 0.930 . S
H157 C167 0.930 . S
C158 H152 0.930 . S
C158 C159 1.355 . S
C158 C160 1.415 . S
C159 C158 1.355 . S
C159 C161 1.419 1_655 S
C160 C158 1.415 . S
C160 C165 1.425 1_655 S
C160 C167 1.409 . S
C161 H153 0.930 . S
C161 C159 1.419 1_455 S
C161 C162 1.362 . S
C162 H154 0.930 . S
C162 C161 1.362 . S
C162 C165 1.409 . S
C163 H155 0.930 . S
C163 C164 1.355 . S
C163 C165 1.415 . S
C164 C163 1.355 . S
C164 C166 1.419 1_455 S
C165 C160 1.425 1_455 S
C165 C162 1.409 . S
C165 C163 1.415 . S
C166 H156 0.930 . S
C166 C164 1.419 1_655 S
C166 C167 1.362 . S
C167 H157 0.930 . S
C167 C160 1.409 . S
C167 C166 1.362 . S
H168 C174 0.930 . S
H169 C177 0.930 1_545 S
H170 C178 0.930 . S
H171 C179 0.930 . S
H172 C182 0.930 1_565 S
H173 C183 0.930 . S
C174 H168 0.930 . S
C174 C175 1.355 . S
C174 C176 1.415 1_554 S
C175 C174 1.355 . S
C175 C177 1.419 1_655 S
C176 C174 1.415 1_556 S
C176 C181 1.425 1_666 S
C176 C183 1.409 . S
C177 H169 0.930 1_565 S
C177 C175 1.419 1_455 S
C177 C178 1.362 1_565 S
C178 H170 0.930 . S
C178 C177 1.362 1_545 S
C178 C181 1.409 . S
C179 H171 0.930 . S
C179 C180 1.355 . S
C179 C181 1.415 1_556 S
C180 C179 1.355 . S
C180 C182 1.419 1_455 S
C181 C176 1.425 1_444 S
C181 C178 1.409 . S
C181 C179 1.415 1_554 S
C182 H172 0.930 1_545 S
C182 C180 1.419 1_655 S
C182 C183 1.362 1_545 S
C183 H173 0.930 . S
C183 C176 1.409 . S
C183 C182 1.362 1_565 S
H184 C190 0.930 . S
H185 C193 0.930 . S
H186 C194 0.930 . S
H187 C195 0.930 . S
H188 C198 0.930 . S
H189 C199 0.930 . S
C190 H184 0.930 . S
C190 C191 1.355 . S
C190 C192 1.415 . S
C191 C190 1.355 . S
C191 C193 1.419 . S
C192 C190 1.415 . S
C192 C197 1.425 . S
C192 C199 1.409 . S
C193 H185 0.930 . S
C193 C191 1.419 . S
C193 C194 1.362 . S
C194 H186 0.930 . S
C194 C193 1.362 . S
C194 C197 1.409 . S
C195 H187 0.930 . S
C195 C196 1.355 . S
C195 C197 1.415 . S
C196 C195 1.355 . S
C196 C198 1.419 . S
C197 C192 1.425 . S
C197 C194 1.409 . S
C197 C195 1.415 . S
C198 H188 0.930 . S
C198 C196 1.419 . S
C198 C199 1.362 . S
C199 H189 0.930 . S
C199 C192 1.409 . S
C199 C198 1.362 . S
H200 C206 0.930 . S
H201 C209 0.930 . S
H202 C210 0.930 . S
H203 C211 0.930 . S
H204 C214 0.930 . S
H205 C215 0.930 . S
C206 H200 0.930 . S
C206 C207 1.355 . S
C206 C208 1.415 . S
C207 C206 1.355 . S
C207 C209 1.419 . S
C208 C206 1.415 . S
C208 C213 1.425 . S
C208 C215 1.409 . S
C209 H201 0.930 . S
C209 C207 1.419 . S
C209 C210 1.362 . S
C210 H202 0.930 . S
C210 C209 1.362 . S
C210 C213 1.409 . S
C211 H203 0.930 . S
C211 C212 1.355 . S
C211 C213 1.415 . S
C212 C211 1.355 . S
C212 C214 1.419 . S
C213 C208 1.425 . S
C213 C210 1.409 . S
C213 C211 1.415 . S
C214 H204 0.930 . S
C214 C212 1.419 . S
C214 C215 1.362 . S
C215 H205 0.930 . S
C215 C208 1.409 . S
C215 C214 1.362 . S
H216 C222 0.930 . S
H217 C225 0.930 . S
H218 C226 0.930 . S
H219 C227 0.930 . S
H220 C230 0.930 . S
H221 C231 0.930 . S
C222 H216 0.930 . S
C222 C223 1.355 . S
C222 C224 1.415 . S
C223 C222 1.355 . S
C223 C225 1.419 . S
C224 C222 1.415 . S
C224 C229 1.425 . S
C224 C231 1.409 . S
C225 H217 0.930 . S
C225 C223 1.419 . S
C225 C226 1.362 . S
C226 H218 0.930 . S
C226 C225 1.362 . S
C226 C229 1.409 . S
C227 H219 0.930 . S
C227 C228 1.355 . S
C227 C229 1.415 . S
C228 C227 1.355 . S
C228 C230 1.419 . S
C229 C224 1.425 . S
C229 C226 1.409 . S
C229 C227 1.415 . S
C230 H220 0.930 . S
C230 C228 1.419 . S
C230 C231 1.362 . S
C231 H221 0.930 . S
C231 C224 1.409 . S
C231 C230 1.362 . S
H232 C238 0.930 . S
H233 C241 0.930 . S
H234 C242 0.930 . S
H235 C243 0.930 . S
H236 C246 0.930 . S
H237 C247 0.930 . S
C238 H232 0.930 . S
C238 C239 1.355 . S
C238 C240 1.415 . S
C239 C238 1.355 . S
C239 C241 1.419 . S
C240 C238 1.415 . S
C240 C245 1.425 . S
C240 C247 1.409 . S
C241 H233 0.930 . S
C241 C239 1.419 . S
C241 C242 1.362 . S
C242 H234 0.930 . S
C242 C241 1.362 . S
C242 C245 1.409 . S
C243 H235 0.930 . S
C243 C244 1.355 . S
C243 C245 1.415 . S
C244 C243 1.355 . S
C244 C246 1.419 . S
C245 C240 1.425 . S
C245 C242 1.409 . S
C245 C243 1.415 . S
C246 H236 0.930 . S
C246 C244 1.419 . S
C246 C247 1.362 . S
C247 H237 0.930 . S
C247 C240 1.409 . S
C247 C246 1.362 . S
H248 C254 0.930 . S
H249 C257 0.930 . S
H250 C258 0.930 . S
H251 C259 0.930 . S
H252 C262 0.930 . S
H253 C263 0.930 . S
C254 H248 0.930 . S
C254 C255 1.355 . S
C254 C256 1.415 . S
C255 C254 1.355 . S
C255 C257 1.419 . S
C256 C254 1.415 . S
C256 C261 1.425 . S
C256 C263 1.409 . S
C257 H249 0.930 . S
C257 C255 1.419 . S
C257 C258 1.362 . S
C258 H250 0.930 . S
C258 C257 1.362 . S
C258 C261 1.409 . S
C259 H251 0.930 . S
C259 C260 1.355 . S
C259 C261 1.415 . S
C260 C259 1.355 . S
C260 C262 1.419 . S
C261 C256 1.425 . S
C261 C258 1.409 . S
C261 C259 1.415 . S
C262 H252 0.930 . S
C262 C260 1.419 . S
C262 C263 1.362 . S
C263 H253 0.930 . S
C263 C256 1.409 . S
C263 C262 1.362 . S
H264 C270 0.930 1_565 S
H265 C273 0.930 . S
H266 C274 0.930 . S
H267 C275 0.930 1_545 S
H268 C278 0.930 . S
H269 C279 0.930 . S
C270 H264 0.930 1_545 S
C270 C271 1.355 . S
C270 C272 1.415 1_545 S
C271 C270 1.355 . S
C271 C273 1.419 1_556 S
C272 C270 1.415 1_565 S
C272 C277 1.425 1_566 S
C272 C279 1.409 . S
C273 H265 0.930 . S
C273 C271 1.419 1_554 S
C273 C274 1.362 . S
C274 H266 0.930 . S
C274 C273 1.362 . S
C274 C277 1.409 . S
C275 H267 0.930 1_565 S
C275 C276 1.355 . S
C275 C277 1.415 1_565 S
C276 C275 1.355 . S
C276 C278 1.419 1_554 S
C277 C272 1.425 1_544 S
C277 C274 1.409 . S
C277 C275 1.415 1_545 S
C278 H268 0.930 . S
C278 C276 1.419 1_556 S
C278 C279 1.362 . S
C279 H269 0.930 . S
C279 C272 1.409 . S
C279 C278 1.362 . S
C95 C32 1.542 . S
C100 C7 1.545 . S
C111 C8 1.509 . S
C116 C43 1.565 . S
C127 C76 1.459 . S
C132 C59 1.511 . S
C143 C62 1.472 . S
C148 C87 1.500 . S
C159 C51 1.133 . S
C164 C21 1.133 . S
C175 C37 1.107 . S
C180 C81 1.107 . S
C191 C73 1.607 . S
C196 C18 1.591 . S
C207 C30 1.546 . S
C212 C65 1.581 . S
C223 C29 1.573 . S
C228 C54 1.586 . S
C239 C74 1.594 . S
C244 C15 1.606 . S
C255 C10 1.539 . S
C260 C52 1.539 . S
C271 C84 1.564 . S
C276 C40 1.564 . S
