# Generated by pormake.
# Topology wjx, (5)-cn, num edge types: 1
# Building blocks:
#     Node 0, Type 0, BuildingBlock: BEQFEK_clean_sbu_0, # of connection points: 5
#     Node 1, Type 0, BuildingBlock: BEQFEK_clean_sbu_0, # of connection points: 5
#     Node 2, Type 0, BuildingBlock: BEQFEK_clean_sbu_0, # of connection points: 5
#     Node 3, Type 0, BuildingBlock: BEQFEK_clean_sbu_0, # of connection points: 5
#     Node 4, Type 0, BuildingBlock: BEQFEK_clean_sbu_0, # of connection points: 5
#     Node 5, Type 0, BuildingBlock: BEQFEK_clean_sbu_0, # of connection points: 5
#     Node 6, Type 0, BuildingBlock: BEQFEK_clean_sbu_0, # of connection points: 5
#     Node 7, Type 0, BuildingBlock: BEQFEK_clean_sbu_0, # of connection points: 5
#     Node 8, Type 0, BuildingBlock: BEQFEK_clean_sbu_0, # of connection points: 5
#     Node 9, Type 0, BuildingBlock: BEQFEK_clean_sbu_0, # of connection points: 5
#     Node 10, Type 0, BuildingBlock: BEQFEK_clean_sbu_0, # of connection points: 5
#     Node 11, Type 0, BuildingBlock: BEQFEK_clean_sbu_0, # of connection points: 5
#     Edge 12, Type (0, 0), BuildingBlock: AJUNOK_clean_linker_0, # of connection points: 2
#     Edge 13, Type (0, 0), BuildingBlock: AJUNOK_clean_linker_0, # of connection points: 2
#     Edge 14, Type (0, 0), BuildingBlock: AJUNOK_clean_linker_0, # of connection points: 2
#     Edge 15, Type (0, 0), BuildingBlock: AJUNOK_clean_linker_0, # of connection points: 2
#     Edge 16, Type (0, 0), BuildingBlock: AJUNOK_clean_linker_0, # of connection points: 2
#     Edge 17, Type (0, 0), BuildingBlock: AJUNOK_clean_linker_0, # of connection points: 2
#     Edge 18, Type (0, 0), BuildingBlock: AJUNOK_clean_linker_0, # of connection points: 2
#     Edge 19, Type (0, 0), BuildingBlock: AJUNOK_clean_linker_0, # of connection points: 2
#     Edge 20, Type (0, 0), BuildingBlock: AJUNOK_clean_linker_0, # of connection points: 2
#     Edge 21, Type (0, 0), BuildingBlock: AJUNOK_clean_linker_0, # of connection points: 2
#     Edge 22, Type (0, 0), BuildingBlock: AJUNOK_clean_linker_0, # of connection points: 2
#     Edge 23, Type (0, 0), BuildingBlock: AJUNOK_clean_linker_0, # of connection points: 2
#     Edge 24, Type (0, 0), BuildingBlock: AJUNOK_clean_linker_0, # of connection points: 2
#     Edge 25, Type (0, 0), BuildingBlock: AJUNOK_clean_linker_0, # of connection points: 2
#     Edge 26, Type (0, 0), BuildingBlock: AJUNOK_clean_linker_0, # of connection points: 2
#     Edge 27, Type (0, 0), BuildingBlock: AJUNOK_clean_linker_0, # of connection points: 2
#     Edge 28, Type (0, 0), BuildingBlock: AJUNOK_clean_linker_0, # of connection points: 2
#     Edge 29, Type (0, 0), BuildingBlock: AJUNOK_clean_linker_0, # of connection points: 2
#     Edge 30, Type (0, 0), BuildingBlock: AJUNOK_clean_linker_0, # of connection points: 2
#     Edge 31, Type (0, 0), BuildingBlock: AJUNOK_clean_linker_0, # of connection points: 2
#     Edge 32, Type (0, 0), BuildingBlock: AJUNOK_clean_linker_0, # of connection points: 2
#     Edge 33, Type (0, 0), BuildingBlock: AJUNOK_clean_linker_0, # of connection points: 2
#     Edge 34, Type (0, 0), BuildingBlock: AJUNOK_clean_linker_0, # of connection points: 2
#     Edge 35, Type (0, 0), BuildingBlock: AJUNOK_clean_linker_0, # of connection points: 2
#     Edge 36, Type (0, 0), BuildingBlock: AJUNOK_clean_linker_0, # of connection points: 2
#     Edge 37, Type (0, 0), BuildingBlock: AJUNOK_clean_linker_0, # of connection points: 2
#     Edge 38, Type (0, 0), BuildingBlock: AJUNOK_clean_linker_0, # of connection points: 2
#     Edge 39, Type (0, 0), BuildingBlock: AJUNOK_clean_linker_0, # of connection points: 2
#     Edge 40, Type (0, 0), BuildingBlock: AJUNOK_clean_linker_0, # of connection points: 2
#     Edge 41, Type (0, 0), BuildingBlock: AJUNOK_clean_linker_0, # of connection points: 2
# Relax obj value: 0.091
# Max RMSD: 0.107
# Mean RMSD: 0.107
data_MOF--net-wjx--node1-BEQFEK_clean_sbu_0--edge1-AJUNOK_clean_linker_0
_symmetry_space_group_name_H-M    P1
_symmetry_Int_Tables_number       1
_symmetry_cell_setting            triclinic
loop_
_symmetry_equiv_pos_as_xyz
'x, y, z'
_cell_length_a     54.976941
_cell_length_b     54.989443
_cell_length_c     15.31413
_cell_angle_alpha  89.966746
_cell_angle_beta   90.031795
_cell_angle_gamma 119.98872
loop_
_atom_site_label
_atom_site_type_symbol
_atom_site_fract_x
_atom_site_fract_y
_atom_site_fract_z
_atom_type_partial_charge
Co0 Co 0.11786 0.45581 0.21449 0.0
Co1 Co 0.10801 0.46192 0.01549 0.0
C2 C 0.0611 0.42128 0.12799 0.0
O3 O 0.07765 0.42905 0.19308 0.0
O4 O 0.06995 0.43168 0.05238 0.0
C5 C 0.10734 0.43185 0.38607 0.0
O6 O 0.08525 0.41108 0.3486 0.0
C7 C 0.09921 0.4486 0.82716 0.0
C8 C 0.12448 0.49108 0.77068 0.0
C9 C 0.10915 0.46292 0.74854 0.0
N10 N 0.10883 0.46754 0.89235 0.0
N11 N 0.12337 0.49288 0.85793 0.0
C12 C 0.08373 0.41752 0.84179 0.0
H13 H 0.08831 0.41254 0.90792 0.0
H14 H 0.0894 0.40671 0.7914 0.0
H15 H 0.06083 0.40961 0.83787 0.0
C16 C 0.16405 0.44858 0.14049 0.0
N17 N 0.14133 0.45168 0.13185 0.0
N18 N 0.13714 0.45416 0.04836 0.0
C19 C 0.15713 0.45268 0.00138 0.0
C20 C 0.17485 0.44913 0.05792 0.0
C21 C 0.17631 0.44749 0.22662 0.0
H22 H 0.17664 0.46359 0.27101 0.0
H23 H 0.1627 0.42663 0.25688 0.0
H24 H 0.19788 0.45093 0.21926 0.0
O25 O 0.12315 0.49399 0.20772 0.0
O26 O 0.11497 0.49791 0.06839 0.0
H27 H 0.16174 0.47482 0.88185 0.0
H28 H 0.17715 0.45255 0.87883 0.0
C29 C 0.15933 0.45453 0.90385 0.0
H30 H 0.13997 0.43721 0.87518 0.0
H31 H 0.13371 0.51135 0.89437 0.0
O32 O 0.12575 0.45144 0.33867 0.0
C33 C 0.12082 0.50797 0.14537 0.0
Co34 Co 0.66169 0.1181 0.5419 0.0
Co35 Co 0.64732 0.10859 0.34225 0.0
C36 C 0.639 0.06117 0.45542 0.0
O37 O 0.64762 0.07756 0.52095 0.0
O38 O 0.63839 0.0704 0.37957 0.0
C39 C 0.67589 0.10765 0.71254 0.0
O40 O 0.6752 0.08594 0.67449 0.0
C41 C 0.65139 0.09936 0.15375 0.0
C42 C 0.63698 0.12709 0.09783 0.0
C43 C 0.64807 0.11021 0.07538 0.0
N44 N 0.64315 0.10995 0.21912 0.0
N45 N 0.63401 0.12597 0.185 0.0
C46 C 0.66513 0.08206 0.16805 0.0
H47 H 0.67463 0.08596 0.2342 0.0
H48 H 0.68141 0.08674 0.11769 0.0
H49 H 0.64898 0.0595 0.16388 0.0
C50 C 0.71582 0.16422 0.47021 0.0
N51 N 0.69007 0.14144 0.4606 0.0
N52 N 0.68415 0.13695 0.37675 0.0
C53 C 0.70612 0.15653 0.33047 0.0
C54 C 0.72686 0.17458 0.38781 0.0
C55 C 0.72828 0.17705 0.55666 0.0
H56 H 0.71179 0.17652 0.59971 0.0
H57 H 0.73645 0.16443 0.58837 0.0
H58 H 0.74567 0.19903 0.54932 0.0
O59 O 0.62918 0.1242 0.53344 0.0
O60 O 0.61864 0.11631 0.393 0.0
H61 H 0.69117 0.16229 0.20744 0.0
H62 H 0.72832 0.17424 0.20857 0.0
C63 C 0.70749 0.15792 0.23281 0.0
H64 H 0.70361 0.13757 0.20686 0.0
H65 H 0.62712 0.13736 0.22161 0.0
O66 O 0.67377 0.12569 0.66599 0.0
C67 C 0.61377 0.12232 0.46882 0.0
Co68 Co 0.54528 0.66148 0.87353 0.0
Co69 Co 0.54137 0.64744 0.67428 0.0
C70 C 0.58112 0.64047 0.78951 0.0
O71 O 0.57267 0.6484 0.85514 0.0
O72 O 0.57153 0.64001 0.7133 0.0
C73 C 0.56882 0.67747 0.04588 0.0
O74 O 0.59024 0.67648 0.01193 0.0
C75 C 0.55474 0.65481 0.48594 0.0
C76 C 0.51184 0.63306 0.4306 0.0
C77 C 0.53987 0.64949 0.40828 0.0
N78 N 0.53614 0.64279 0.55133 0.0
N79 N 0.51063 0.6293 0.51747 0.0
C80 C 0.58567 0.6732 0.49926 0.0
H81 H 0.59027 0.68046 0.56806 0.0
H82 H 0.5942 0.69147 0.45428 0.0
H83 H 0.59621 0.66095 0.48456 0.0
C84 C 0.5531 0.71544 0.80183 0.0
N85 N 0.55009 0.68971 0.79181 0.0
N86 N 0.54809 0.68369 0.70793 0.0
C87 C 0.54947 0.70535 0.66216 0.0
C88 C 0.55302 0.72626 0.71982 0.0
C89 C 0.55501 0.7288 0.88848 0.0
H90 H 0.57123 0.72782 0.92902 0.0
H91 H 0.56024 0.75098 0.88114 0.0
H92 H 0.53462 0.71677 0.92295 0.0
O93 O 0.50693 0.62812 0.86469 0.0
O94 O 0.50577 0.61794 0.72458 0.0
H95 H 0.53925 0.72159 0.54725 0.0
H96 H 0.56276 0.70833 0.52958 0.0
C97 C 0.54395 0.7049 0.56621 0.0
H98 H 0.52582 0.68438 0.54758 0.0
H99 H 0.49224 0.61874 0.55416 0.0
O100 O 0.54873 0.67401 0.99644 0.0
C101 C 0.4944 0.61241 0.7996 0.0
Co102 Co 0.88515 0.54485 0.20861 0.0
Co103 Co 0.89616 0.54226 0.01031 0.0
C104 C 0.94242 0.58135 0.1282 0.0
O105 O 0.92547 0.57244 0.19242 0.0
O106 O 0.93407 0.5721 0.05106 0.0
C107 C 0.88983 0.56791 0.38069 0.0
O108 O 0.90751 0.59234 0.34618 0.0
C109 C 0.90458 0.55545 0.8206 0.0
C110 C 0.87757 0.51277 0.76754 0.0
C111 C 0.8936 0.54065 0.74331 0.0
N112 N 0.89461 0.53705 0.88725 0.0
N113 N 0.87889 0.51159 0.85476 0.0
C114 C 0.9248 0.58614 0.83165 0.0
H115 H 0.94021 0.58927 0.8833 0.0
H116 H 0.91333 0.5969 0.85319 0.0
H117 H 0.93605 0.5957 0.76976 0.0
C118 C 0.83929 0.55323 0.13806 0.0
N119 N 0.86211 0.55037 0.12828 0.0
N120 N 0.86699 0.54966 0.04442 0.0
C121 C 0.84748 0.55227 0.99827 0.0
C122 C 0.8294 0.55472 0.05587 0.0
C123 C 0.82671 0.55335 0.22446 0.0
H124 H 0.8432 0.56935 0.26741 0.0
H125 H 0.80925 0.55784 0.21723 0.0
H126 H 0.81879 0.53259 0.25621 0.0
O127 O 0.87996 0.50681 0.19743 0.0
O128 O 0.88916 0.50565 0.0577 0.0
H129 H 0.84206 0.52931 0.88031 0.0
H130 H 0.8255 0.55036 0.87817 0.0
C131 C 0.84423 0.54957 0.9011 0.0
H132 H 0.86306 0.56689 0.8698 0.0
H133 H 0.86806 0.49347 0.89249 0.0
O134 O 0.87631 0.54664 0.33176 0.0
C135 C 0.88274 0.49406 0.13245 0.0
Co136 Co 0.33997 0.88361 0.55072 0.0
Co137 Co 0.35531 0.89622 0.35164 0.0
C138 C 0.36177 0.94144 0.47327 0.0
O139 O 0.35291 0.92381 0.53555 0.0
O140 O 0.36328 0.93385 0.39559 0.0
C141 C 0.322 0.88917 0.72313 0.0
O142 O 0.31501 0.90643 0.68674 0.0
C143 C 0.35073 0.90588 0.1613 0.0
C144 C 0.37125 0.88359 0.10576 0.0
C145 C 0.3573 0.89776 0.0829 0.0
N146 N 0.35999 0.89641 0.22742 0.0
N147 N 0.37253 0.88346 0.19334 0.0
C148 C 0.33665 0.92295 0.17313 0.0
H149 H 0.33562 0.92736 0.24329 0.0
H150 H 0.31509 0.91165 0.14602 0.0
H151 H 0.34845 0.94297 0.13657 0.0
C152 C 0.28667 0.8379 0.47491 0.0
N153 N 0.31222 0.86103 0.46747 0.0
N154 N 0.31858 0.86648 0.38409 0.0
C155 C 0.2971 0.84696 0.33598 0.0
C156 C 0.2762 0.82818 0.39161 0.0
C157 C 0.27385 0.82423 0.56017 0.0
H158 H 0.29031 0.82508 0.60415 0.0
H159 H 0.26479 0.83606 0.59187 0.0
H160 H 0.25704 0.80208 0.55101 0.0
O161 O 0.37285 0.87871 0.53907 0.0
O162 O 0.38473 0.88882 0.40031 0.0
H163 H 0.31398 0.84411 0.21292 0.0
H164 H 0.27631 0.82926 0.21215 0.0
C165 C 0.29637 0.84643 0.23828 0.0
H166 H 0.29871 0.86644 0.21438 0.0
H167 H 0.38127 0.87373 0.23002 0.0
O168 O 0.3293 0.87502 0.67528 0.0
C169 C 0.3891 0.88197 0.4757 0.0
Co170 Co 0.45857 0.34185 0.87521 0.0
Co171 Co 0.46204 0.35585 0.67558 0.0
C172 C 0.42292 0.36338 0.79001 0.0
O173 O 0.43175 0.35545 0.85467 0.0
O174 O 0.43216 0.36397 0.71322 0.0
C175 C 0.43375 0.32719 0.04521 0.0
O176 O 0.41262 0.32757 0.00662 0.0
C177 C 0.44875 0.35141 0.48674 0.0
C178 C 0.49105 0.36622 0.43157 0.0
C179 C 0.46307 0.35481 0.40866 0.0
N180 N 0.46752 0.35993 0.55241 0.0
N181 N 0.49277 0.36929 0.5187 0.0
C182 C 0.41768 0.33735 0.5005 0.0
H183 H 0.41209 0.32805 0.56689 0.0
H184 H 0.40631 0.32089 0.45045 0.0
H185 H 0.41097 0.35327 0.49524 0.0
C186 C 0.45158 0.2882 0.80365 0.0
N187 N 0.45371 0.3136 0.79402 0.0
N188 N 0.45448 0.31928 0.71016 0.0
C189 C 0.4525 0.29747 0.66391 0.0
C190 C 0.45097 0.27723 0.72132 0.0
C191 C 0.45238 0.27594 0.89004 0.0
H192 H 0.46894 0.29243 0.93165 0.0
H193 H 0.43196 0.26842 0.92355 0.0
H194 H 0.45636 0.25815 0.88249 0.0
O195 O 0.49697 0.37452 0.86607 0.0
O196 O 0.49841 0.38502 0.72592 0.0
H197 H 0.47189 0.3121 0.53904 0.0
H198 H 0.44734 0.27483 0.54273 0.0
C199 C 0.45161 0.29566 0.5663 0.0
H200 H 0.43461 0.299 0.5418 0.0
H201 H 0.51102 0.37635 0.55561 0.0
O202 O 0.45417 0.32973 0.99919 0.0
C203 C 0.50986 0.39002 0.80098 0.0
Co204 Co 0.54403 0.88282 0.45444 0.0
Co205 Co 0.54252 0.89605 0.65359 0.0
C206 C 0.57953 0.94127 0.53254 0.0
O207 O 0.56997 0.92335 0.47118 0.0
O208 O 0.57207 0.93389 0.61148 0.0
C209 C 0.56949 0.89175 0.28515 0.0
O210 O 0.5912 0.91234 0.32474 0.0
C211 C 0.5567 0.90496 0.84255 0.0
C212 C 0.5141 0.88042 0.89875 0.0
C213 C 0.54227 0.89495 0.92125 0.0
N214 N 0.53773 0.89598 0.77728 0.0
N215 N 0.51236 0.88191 0.81173 0.0
C216 C 0.58776 0.91988 0.8275 0.0
H217 H 0.59243 0.91603 0.76005 0.0
H218 H 0.59825 0.91304 0.87558 0.0
H219 H 0.5963 0.94281 0.8347 0.0
C220 C 0.55163 0.83715 0.53028 0.0
N221 N 0.54981 0.86062 0.53802 0.0
N222 N 0.5495 0.86631 0.62149 0.0
C223 C 0.55118 0.84655 0.66929 0.0
C224 C 0.55236 0.82733 0.61337 0.0
C225 C 0.55021 0.82328 0.44499 0.0
H226 H 0.53322 0.82265 0.40419 0.0
H227 H 0.5703 0.83598 0.40954 0.0
H228 H 0.54651 0.80167 0.45436 0.0
O229 O 0.50561 0.8769 0.46485 0.0
O230 O 0.50589 0.88855 0.60349 0.0
H231 H 0.53198 0.84408 0.79315 0.0
H232 H 0.55372 0.82805 0.79218 0.0
C233 C 0.55155 0.84577 0.76701 0.0
H234 H 0.56975 0.86528 0.79128 0.0
H235 H 0.49388 0.87182 0.77542 0.0
O236 O 0.54837 0.87465 0.33051 0.0
C237 C 0.4936 0.8809 0.52978 0.0
Co238 Co 0.6645 0.54565 0.78717 0.0
Co239 Co 0.64792 0.5419 0.98576 0.0
C240 C 0.64116 0.58049 0.86512 0.0
O241 O 0.65031 0.57185 0.80342 0.0
O242 O 0.63998 0.5718 0.94317 0.0
C243 C 0.68073 0.57014 0.61635 0.0
O244 O 0.68201 0.59209 0.65471 0.0
C245 C 0.65376 0.55621 0.17426 0.0
C246 C 0.63258 0.51363 0.23169 0.0
C247 C 0.64817 0.54182 0.25345 0.0
N248 N 0.64256 0.53719 0.10945 0.0
N249 N 0.62938 0.51186 0.14456 0.0
C250 C 0.67187 0.58707 0.15839 0.0
H251 H 0.68063 0.59098 0.09124 0.0
H252 H 0.68912 0.59667 0.20701 0.0
H253 H 0.65883 0.5972 0.16404 0.0
C254 C 0.71743 0.55339 0.86512 0.0
N255 N 0.69181 0.55084 0.87216 0.0
N256 N 0.68486 0.54885 0.95534 0.0
C257 C 0.70588 0.54976 0.00365 0.0
C258 C 0.72714 0.55265 0.94829 0.0
C259 C 0.73096 0.55397 0.77988 0.0
H260 H 0.7161 0.53575 0.7397 0.0
H261 H 0.73546 0.57328 0.7437 0.0
H262 H 0.75071 0.55346 0.78916 0.0
O263 O 0.63185 0.50744 0.79637 0.0
O264 O 0.61895 0.50547 0.93435 0.0
H265 H 0.68616 0.52829 0.12241 0.0
H266 H 0.72401 0.5464 0.12638 0.0
C267 C 0.70561 0.54732 0.10112 0.0
H268 H 0.7064 0.56604 0.13037 0.0
H269 H 0.61948 0.49326 0.10866 0.0
O270 O 0.67708 0.54942 0.66318 0.0
C271 C 0.61515 0.49438 0.8589 0.0
Co272 Co 0.11967 0.66179 0.12906 0.0
Co273 Co 0.10742 0.64758 0.32766 0.0
C274 C 0.0621 0.64124 0.20627 0.0
O275 O 0.07957 0.6494 0.14359 0.0
O276 O 0.06981 0.64 0.28409 0.0
C277 C 0.11631 0.68185 0.95708 0.0
O278 O 0.10074 0.69103 0.99295 0.0
C279 C 0.09898 0.65401 0.51667 0.0
C280 C 0.12133 0.63366 0.57347 0.0
C281 C 0.10793 0.64843 0.59541 0.0
N282 N 0.10754 0.64361 0.45147 0.0
N283 N 0.12049 0.63117 0.48626 0.0
C284 C 0.0818 0.6679 0.50301 0.0
H285 H 0.09554 0.6898 0.48065 0.0
H286 H 0.07103 0.66801 0.56415 0.0
H287 H 0.06603 0.65677 0.45097 0.0
C288 C 0.16489 0.71594 0.20208 0.0
N289 N 0.14227 0.69009 0.21077 0.0
N290 N 0.13735 0.68397 0.29444 0.0
C291 C 0.157 0.70572 0.34147 0.0
C292 C 0.1748 0.7268 0.28476 0.0
C293 C 0.17706 0.72944 0.11613 0.0
H294 H 0.16005 0.72767 0.07286 0.0
H295 H 0.19327 0.75187 0.12405 0.0
H296 H 0.18658 0.71805 0.08433 0.0
O297 O 0.12442 0.62863 0.14188 0.0
O298 O 0.11427 0.61776 0.28114 0.0
H299 H 0.1598 0.68508 0.45658 0.0
H300 H 0.18181 0.72255 0.45939 0.0
C301 C 0.16111 0.70514 0.438 0.0
H302 H 0.14453 0.70711 0.47267 0.0
H303 H 0.12984 0.62195 0.4502 0.0
O304 O 0.12845 0.67223 0.00504 0.0
C305 C 0.12108 0.61281 0.20669 0.0
Co306 Co 0.45639 0.11819 0.46242 0.0
Co307 Co 0.46268 0.10831 0.66123 0.0
C308 C 0.42219 0.06138 0.54683 0.0
O309 O 0.42972 0.07794 0.48179 0.0
O310 O 0.4327 0.07028 0.62231 0.0
C311 C 0.43239 0.109 0.29083 0.0
O312 O 0.41112 0.08728 0.32807 0.0
C313 C 0.44811 0.10113 0.84843 0.0
C314 C 0.49036 0.12043 0.90799 0.0
C315 C 0.46216 0.10896 0.92806 0.0
N316 N 0.46731 0.10815 0.78464 0.0
N317 N 0.49243 0.11916 0.82088 0.0
C318 C 0.41753 0.09001 0.83155 0.0
H319 H 0.41441 0.09631 0.76546 0.0
H320 H 0.40834 0.09758 0.88181 0.0
H321 H 0.40641 0.06674 0.83368 0.0
C322 C 0.44818 0.16356 0.53691 0.0
N323 N 0.45167 0.1411 0.54564 0.0
N324 N 0.45486 0.1374 0.62902 0.0
C325 C 0.45384 0.15772 0.67568 0.0
C326 C 0.44921 0.17467 0.61918 0.0
C327 C 0.44531 0.1748 0.45097 0.0
H328 H 0.42958 0.15731 0.41019 0.0
H329 H 0.43896 0.1909 0.45957 0.0
H330 H 0.46572 0.18427 0.41612 0.0
O331 O 0.49478 0.12382 0.47024 0.0
O332 O 0.49895 0.11584 0.60956 0.0
H333 H 0.46665 0.18517 0.78851 0.0
H334 H 0.44252 0.14883 0.81025 0.0
C335 C 0.46096 0.16341 0.77065 0.0
H336 H 0.47888 0.16036 0.78674 0.0
H337 H 0.51114 0.12703 0.78583 0.0
O338 O 0.45246 0.12667 0.33847 0.0
C339 C 0.50898 0.12182 0.53258 0.0
Co340 Co 0.33907 0.45745 0.7891 0.0
Co341 Co 0.35581 0.46167 0.98538 0.0
C342 C 0.36153 0.42192 0.86565 0.0
O343 O 0.35184 0.42991 0.80338 0.0
O344 O 0.36379 0.43178 0.94274 0.0
C345 C 0.32306 0.43699 0.61394 0.0
O346 O 0.31935 0.41291 0.64297 0.0
C347 C 0.3542 0.45142 0.17725 0.0
C348 C 0.36784 0.49455 0.22178 0.0
C349 C 0.35767 0.46741 0.25213 0.0
N350 N 0.3612 0.46847 0.10728 0.0
N351 N 0.36996 0.49427 0.13484 0.0
C352 C 0.3446 0.42078 0.1708 0.0
H353 H 0.35253 0.41636 0.10973 0.0
H354 H 0.32133 0.40854 0.16907 0.0
H355 H 0.35212 0.41388 0.22778 0.0
C356 C 0.28594 0.44926 0.86664 0.0
N357 N 0.31192 0.45269 0.87322 0.0
N358 N 0.31865 0.45389 0.95623 0.0
C359 C 0.29689 0.45101 0.00512 0.0
C360 C 0.27548 0.44787 0.9501 0.0
C361 C 0.27189 0.44806 0.78186 0.0
H362 H 0.27298 0.43254 0.73814 0.0
H363 H 0.24963 0.44228 0.7916 0.0
H364 H 0.28338 0.46887 0.7495 0.0
O365 O 0.37267 0.49504 0.796 0.0
O366 O 0.38488 0.49795 0.93473 0.0
H367 H 0.27772 0.45215 0.12799 0.0
H368 H 0.30018 0.4371 0.13254 0.0
C369 C 0.29736 0.45381 0.1024 0.0
H370 H 0.31506 0.47452 0.12166 0.0
H371 H 0.37593 0.51149 0.0938 0.0
O372 O 0.32672 0.45605 0.66791 0.0
C373 C 0.38917 0.50835 0.85847 0.0
Co374 Co 0.88349 0.33928 0.12105 0.0
Co375 Co 0.89556 0.35548 0.31882 0.0
C376 C 0.94103 0.36103 0.19875 0.0
O377 O 0.92362 0.35186 0.13585 0.0
O378 O 0.9332 0.36309 0.27563 0.0
C379 C 0.88747 0.32062 0.94769 0.0
O380 O 0.90486 0.31335 0.98153 0.0
C381 C 0.90442 0.35042 0.50818 0.0
C382 C 0.88038 0.36917 0.56333 0.0
C383 C 0.89454 0.35521 0.58645 0.0
N384 N 0.89544 0.36021 0.44233 0.0
N385 N 0.88161 0.37186 0.4761 0.0
C386 C 0.92293 0.33797 0.49531 0.0
H387 H 0.93851 0.3496 0.44326 0.0
H388 H 0.91011 0.31589 0.47328 0.0
H389 H 0.93406 0.3387 0.55658 0.0
C390 C 0.83852 0.28571 0.19777 0.0
N391 N 0.86099 0.31172 0.20475 0.0
N392 N 0.86592 0.31858 0.28796 0.0
C393 C 0.84651 0.29705 0.33637 0.0
C394 C 0.82877 0.27547 0.28108 0.0
C395 C 0.82623 0.2715 0.11276 0.0
H396 H 0.84329 0.27416 0.06819 0.0
H397 H 0.81104 0.24882 0.12213 0.0
H398 H 0.81534 0.28167 0.08172 0.0
O399 O 0.87892 0.37245 0.13077 0.0
O400 O 0.88839 0.38479 0.26926 0.0
H401 H 0.82254 0.28033 0.45583 0.0
H402 H 0.86002 0.29739 0.46739 0.0
C403 C 0.84274 0.29815 0.43285 0.0
H404 H 0.84312 0.31789 0.44987 0.0
H405 H 0.87191 0.3806 0.43925 0.0
O406 O 0.8741 0.32835 0.99748 0.0
C407 C 0.88196 0.38895 0.19308 0.0
C408 C 0.02014 0.39763 0.23012 0.0
C409 C 0.03057 0.40225 0.14388 0.0
C410 C 0.99124 0.38315 0.24749 0.0
C411 C 0.97141 0.37244 0.17947 0.0
H412 H 0.03434 0.40632 0.28507 0.0
H413 H 0.98446 0.38122 0.3148 0.0
S414 S 0.98773 0.37572 0.94225 0.0
N415 N 0.01874 0.39268 0.99007 0.0
N416 N 0.9645 0.36532 0.02206 0.0
C417 C 0.98157 0.37542 0.09301 0.0
C418 C 0.01107 0.39036 0.0754 0.0
C419 C 0.62724 0.02032 0.55483 0.0
C420 C 0.6268 0.03045 0.47042 0.0
C421 C 0.61273 0.99149 0.57395 0.0
C422 C 0.59726 0.97149 0.50939 0.0
H423 H 0.63818 0.03477 0.6077 0.0
H424 H 0.61316 0.98489 0.64034 0.0
S425 S 0.58951 0.98678 0.27745 0.0
N426 N 0.60998 0.01788 0.32123 0.0
N427 N 0.5827 0.96393 0.35669 0.0
C428 C 0.59736 0.98125 0.42392 0.0
C429 C 0.61212 0.01061 0.40457 0.0
C430 C 0.62355 0.61311 0.9085 0.0
C431 C 0.62897 0.59858 0.84287 0.0
C432 C 0.60939 0.62783 0.88974 0.0
C433 C 0.59986 0.62851 0.80461 0.0
H434 H 0.62972 0.6126 0.97538 0.0
H435 H 0.6051 0.63796 0.94334 0.0
S436 S 0.6091 0.59423 0.60858 0.0
N437 N 0.62407 0.58629 0.68835 0.0
N438 N 0.59777 0.61397 0.65353 0.0
C439 C 0.60602 0.61488 0.73777 0.0
C440 C 0.62045 0.59992 0.75677 0.0
C441 C 0.01155 0.61845 0.25246 0.0
C442 C 0.0318 0.63005 0.18581 0.0
C443 C 0.98275 0.60404 0.23328 0.0
C444 C 0.97285 0.60038 0.1465 0.0
H445 H 0.01793 0.61956 0.31996 0.0
H446 H 0.96819 0.59465 0.28711 0.0
S447 S 0.01694 0.62987 0.94843 0.0
N448 N 0.03966 0.63934 0.0295 0.0
N449 N 0.98566 0.61207 0.99408 0.0
C450 C 0.99278 0.61327 0.07962 0.0
C451 C 0.02216 0.62814 0.09908 0.0
C452 C 0.39739 0.0206 0.44451 0.0
C453 C 0.4032 0.03082 0.531 0.0
C454 C 0.3829 0.99174 0.42646 0.0
C455 C 0.37338 0.97175 0.49402 0.0
H456 H 0.40506 0.03494 0.38966 0.0
H457 H 0.37997 0.98513 0.35879 0.0
S458 S 0.38035 0.98739 0.73232 0.0
N459 N 0.39617 0.01853 0.68508 0.0
N460 N 0.36891 0.9644 0.65176 0.0
C461 C 0.37765 0.98167 0.58104 0.0
C462 C 0.39255 0.01112 0.59934 0.0
C463 C 0.38417 0.39404 0.91235 0.0
C464 C 0.3734 0.40338 0.8451 0.0
C465 C 0.39895 0.37997 0.89383 0.0
C466 C 0.40379 0.37472 0.80716 0.0
H467 H 0.38201 0.3984 0.97999 0.0
H468 H 0.40761 0.3742 0.94829 0.0
S469 S 0.37766 0.39227 0.60689 0.0
N470 N 0.36689 0.40437 0.68773 0.0
N471 N 0.39457 0.37799 0.65362 0.0
C472 C 0.39192 0.38264 0.73937 0.0
C473 C 0.37677 0.39691 0.75813 0.0
C474 C 0.13305 0.46389 0.60962 0.0
C475 C 0.10835 0.45177 0.65998 0.0
C476 C 0.13284 0.45611 0.52247 0.0
C477 C 0.10788 0.4359 0.48202 0.0
H478 H 0.1527 0.47999 0.63733 0.0
H479 H 0.15226 0.46668 0.48576 0.0
S480 S 0.03739 0.39785 0.58595 0.0
N481 N 0.05826 0.41864 0.66354 0.0
N482 N 0.05774 0.40339 0.5003 0.0
C483 C 0.08314 0.42284 0.53277 0.0
C484 C 0.08339 0.43097 0.62158 0.0
C485 C 0.6791 0.13339 0.84989 0.0
C486 C 0.67281 0.1081 0.80852 0.0
C487 C 0.67194 0.13381 0.9373 0.0
C488 C 0.65816 0.10898 0.98686 0.0
H489 H 0.68884 0.15294 0.81367 0.0
H490 H 0.67666 0.15374 0.96576 0.0
S491 S 0.63699 0.03719 0.90994 0.0
N492 N 0.65255 0.05752 0.82477 0.0
N493 N 0.63851 0.05842 0.98862 0.0
C494 C 0.65251 0.08364 0.94749 0.0
C495 C 0.66002 0.08319 0.85841 0.0
C496 C 0.57291 0.66001 0.28297 0.0
C497 C 0.5502 0.66116 0.3204 0.0
C498 C 0.58014 0.66726 0.19509 0.0
C499 C 0.56485 0.67584 0.14184 0.0
H500 H 0.58416 0.65202 0.32022 0.0
H501 H 0.5968 0.66457 0.1677 0.0
S502 S 0.50679 0.68706 0.21427 0.0
N503 N 0.51484 0.67491 0.30163 0.0
N504 N 0.52837 0.68857 0.13679 0.0
C505 C 0.54345 0.67903 0.18072 0.0
C506 C 0.53609 0.6716 0.26988 0.0
C507 C 0.89727 0.53416 0.58519 0.0
C508 C 0.89559 0.55059 0.65252 0.0
C509 C 0.89536 0.5401 0.49773 0.0
C510 C 0.89191 0.56287 0.47397 0.0
H511 H 0.8996 0.51617 0.60028 0.0
H512 H 0.89663 0.52671 0.44817 0.0
S513 S 0.88496 0.61172 0.62416 0.0
N514 N 0.88877 0.58988 0.68925 0.0
N515 N 0.88677 0.60195 0.52347 0.0
C516 C 0.89075 0.57991 0.53996 0.0
C517 C 0.89216 0.57353 0.62971 0.0
C518 C 0.32057 0.88998 0.97124 0.0
C519 C 0.34892 0.8997 0.99251 0.0
C520 C 0.31179 0.8872 0.88361 0.0
C521 C 0.33102 0.89351 0.81514 0.0
H522 H 0.30485 0.88312 0.02212 0.0
H523 H 0.28975 0.87907 0.86938 0.0
S524 S 0.40782 0.92256 0.83618 0.0
N525 N 0.39632 0.91776 0.93786 0.0
N526 N 0.37982 0.91217 0.77388 0.0
C527 C 0.35947 0.90423 0.83565 0.0
C528 C 0.36841 0.90732 0.92423 0.0
C529 C 0.45607 0.32404 0.18322 0.0
C530 C 0.43701 0.33015 0.14126 0.0
C531 C 0.46337 0.33113 0.27085 0.0
C532 C 0.45196 0.34465 0.32 0.0
H533 H 0.46614 0.31451 0.14732 0.0
H534 H 0.47864 0.32657 0.29979 0.0
S535 S 0.40107 0.36529 0.24135 0.0
N536 N 0.40626 0.34995 0.15643 0.0
N537 N 0.42067 0.36387 0.32068 0.0
C538 C 0.43221 0.35011 0.27999 0.0
C539 C 0.42453 0.34266 0.19071 0.0
C540 C 0.53831 0.86937 0.05932 0.0
C541 C 0.55282 0.89418 0.00984 0.0
C542 C 0.54503 0.8683 0.14684 0.0
C543 C 0.56668 0.89197 0.18871 0.0
H544 H 0.521 0.85069 0.03082 0.0
H545 H 0.53246 0.84898 0.18274 0.0
S546 S 0.61225 0.96179 0.08695 0.0
N547 N 0.59028 0.94287 0.00863 0.0
N548 N 0.60398 0.94062 0.17198 0.0
C549 C 0.58247 0.91654 0.13865 0.0
C550 C 0.57526 0.91773 0.04955 0.0
C551 C 0.67701 0.54365 0.47965 0.0
C552 C 0.67696 0.56658 0.52006 0.0
C553 C 0.66864 0.53664 0.39258 0.0
C554 C 0.65978 0.55218 0.34198 0.0
H555 H 0.68269 0.53037 0.51636 0.0
H556 H 0.66853 0.51842 0.36523 0.0
S557 S 0.6566 0.6148 0.41504 0.0
N558 N 0.6687 0.60587 0.50063 0.0
N559 N 0.65175 0.59176 0.33827 0.0
C560 C 0.6605 0.57572 0.38025 0.0
C561 C 0.66943 0.58317 0.46887 0.0
C562 C 0.10151 0.63815 0.75367 0.0
C563 C 0.10664 0.65728 0.68566 0.0
C564 C 0.10454 0.64646 0.84099 0.0
C565 C 0.11268 0.67423 0.86393 0.0
H566 H 0.09574 0.61663 0.7392 0.0
H567 H 0.10063 0.63099 0.89112 0.0
S568 S 0.1294 0.73282 0.71173 0.0
N569 N 0.12117 0.70566 0.64746 0.0
N570 N 0.12561 0.72091 0.81283 0.0
C571 C 0.11714 0.6935 0.79725 0.0
C572 C 0.11446 0.68513 0.70767 0.0
C573 C 0.45853 0.13367 0.15557 0.0
C574 C 0.43622 0.10974 0.19459 0.0
C575 C 0.46595 0.1334 0.06829 0.0
C576 C 0.4513 0.10928 0.01619 0.0
H577 H 0.47109 0.15251 0.19356 0.0
H578 H 0.4838 0.1521 0.04191 0.0
S579 S 0.39077 0.04127 0.08506 0.0
N580 N 0.39877 0.0614 0.17248 0.0
N581 N 0.41323 0.06099 0.00884 0.0
C582 C 0.42829 0.08555 0.05284 0.0
C583 C 0.42059 0.08578 0.1419 0.0
C584 C 0.31962 0.42467 0.45516 0.0
C585 C 0.331 0.44488 0.52173 0.0
C586 C 0.32836 0.43172 0.36807 0.0
C587 C 0.34965 0.459 0.34488 0.0
H588 H 0.30349 0.40336 0.47027 0.0
H589 H 0.31765 0.41572 0.31925 0.0
S590 S 0.38694 0.51939 0.4967 0.0
N591 N 0.36464 0.49332 0.55918 0.0
N592 N 0.3822 0.50615 0.39758 0.0
C593 C 0.36146 0.47923 0.41181 0.0
C594 C 0.35194 0.47229 0.49957 0.0
C595 C 0.89776 0.36407 0.74587 0.0
C596 C 0.89549 0.34614 0.67702 0.0
C597 C 0.89497 0.3554 0.83285 0.0
C598 C 0.89006 0.3285 0.85477 0.0
H599 H 0.90126 0.38493 0.73239 0.0
H600 H 0.89678 0.36998 0.88351 0.0
S601 S 0.88084 0.27277 0.70045 0.0
N602 N 0.88631 0.29939 0.63725 0.0
N603 N 0.8828 0.28381 0.80193 0.0
C604 C 0.88822 0.31043 0.78736 0.0
C605 C 0.89048 0.31905 0.6981 0.0
C606 C 0.12353 0.55253 0.09351 0.0
C607 C 0.12335 0.53575 0.16328 0.0
C608 C 0.12369 0.57776 0.1083 0.0
C609 C 0.12345 0.58726 0.19354 0.0
H610 H 0.1231 0.54596 0.02657 0.0
H611 H 0.12322 0.58949 0.05211 0.0
S612 S 0.12479 0.55214 0.3994 0.0
N613 N 0.1244 0.53128 0.32136 0.0
N614 N 0.12453 0.57852 0.34889 0.0
C615 C 0.12412 0.57113 0.26401 0.0
C616 C 0.12414 0.54549 0.24898 0.0
C617 C 0.57839 0.12374 0.56866 0.0
C618 C 0.58855 0.12516 0.48335 0.0
C619 C 0.55312 0.12348 0.58394 0.0
C620 C 0.53697 0.12481 0.51463 0.0
H621 H 0.58954 0.1219 0.62431 0.0
H622 H 0.54596 0.12162 0.65079 0.0
S623 S 0.55565 0.13154 0.27906 0.0
N624 N 0.58142 0.1299 0.3288 0.0
N625 N 0.53409 0.12952 0.35727 0.0
C626 C 0.54751 0.12747 0.4291 0.0
C627 C 0.5732 0.1276 0.41355 0.0
C628 C 0.45176 0.5816 0.89041 0.0
C629 C 0.4668 0.58639 0.81176 0.0
C630 C 0.42642 0.55648 0.90478 0.0
C631 C 0.41502 0.53536 0.84071 0.0
H632 H 0.45972 0.59723 0.94178 0.0
H633 H 0.41571 0.55356 0.96657 0.0
S634 S 0.44708 0.5362 0.62685 0.0
N635 N 0.46886 0.56691 0.67085 0.0
N636 N 0.42131 0.52009 0.69792 0.0
C637 C 0.42976 0.53979 0.76196 0.0
C638 C 0.4556 0.56519 0.74748 0.0
C639 C 0.87992 0.4311 0.24544 0.0
C640 C 0.8797 0.41437 0.17557 0.0
C641 C 0.88001 0.45631 0.23078 0.0
C642 C 0.88013 0.46605 0.14557 0.0
H643 H 0.88047 0.42495 0.31231 0.0
H644 H 0.88077 0.46861 0.28702 0.0
S645 S 0.87795 0.42936 0.9395 0.0
N646 N 0.87827 0.40879 0.01744 0.0
N647 N 0.8786 0.45615 0.99015 0.0
C648 C 0.8791 0.44914 0.07501 0.0
C649 C 0.87882 0.42334 0.08991 0.0
C650 C 0.45596 0.87931 0.43317 0.0
C651 C 0.46565 0.87853 0.51773 0.0
C652 C 0.43094 0.87979 0.42014 0.0
C653 C 0.41438 0.87925 0.49107 0.0
H654 H 0.4682 0.88041 0.37635 0.0
H655 H 0.42481 0.88104 0.35379 0.0
S656 S 0.42922 0.87483 0.72574 0.0
N657 N 0.4558 0.87559 0.67338 0.0
N658 N 0.40885 0.87632 0.6493 0.0
C659 C 0.42329 0.8774 0.57596 0.0
C660 C 0.44887 0.87711 0.58915 0.0
C661 C 0.57264 0.45072 0.91273 0.0
C662 C 0.58979 0.46654 0.84247 0.0
C663 C 0.54736 0.42559 0.8988 0.0
C664 C 0.538 0.41528 0.81395 0.0
H665 H 0.57847 0.458 0.97927 0.0
H666 H 0.5347 0.41463 0.95516 0.0
S667 S 0.57598 0.44755 0.60744 0.0
N668 N 0.59623 0.4691 0.68463 0.0
N669 N 0.54878 0.42206 0.65871 0.0
C670 C 0.55537 0.43037 0.74317 0.0
C671 C 0.58122 0.45589 0.75734 0.0
C672 C 0.24545 0.47 0.95523 0.0
C673 C 0.2493 0.44729 0.97609 0.0
C674 C 0.22167 0.47079 0.98431 0.0
C675 C 0.20077 0.44871 0.03415 0.0
H676 H 0.26115 0.48745 0.91734 0.0
H677 H 0.21949 0.48872 0.96716 0.0
S678 S 0.20106 0.38447 0.10532 0.0
N679 N 0.23061 0.40238 0.04989 0.0
N680 N 0.18547 0.40353 0.10278 0.0
C681 C 0.20447 0.42596 0.05566 0.0
C682 C 0.2288 0.42528 0.02671 0.0
C683 C 0.7767 0.24424 0.27988 0.0
C684 C 0.8032 0.24917 0.30668 0.0
C685 C 0.75211 0.22047 0.3088 0.0
C686 C 0.75319 0.2006 0.36436 0.0
H687 H 0.77498 0.25911 0.23759 0.0
H688 H 0.73204 0.21749 0.28707 0.0
S689 S 0.81758 0.20399 0.45238 0.0
N690 N 0.82926 0.23267 0.39237 0.0
N691 N 0.78297 0.18747 0.44467 0.0
C692 C 0.77958 0.20539 0.39178 0.0
C693 C 0.80461 0.22976 0.36311 0.0
C694 C 0.57362 0.79629 0.61342 0.0
C695 C 0.55172 0.80097 0.63844 0.0
C696 C 0.57426 0.77232 0.6419 0.0
C697 C 0.55316 0.75247 0.69689 0.0
H698 H 0.5905 0.8114 0.57249 0.0
H699 H 0.59131 0.76922 0.62069 0.0
S700 S 0.49007 0.75382 0.77434 0.0
N701 N 0.50745 0.78283 0.71609 0.0
N702 N 0.50904 0.73817 0.77098 0.0
C703 C 0.53096 0.75668 0.72111 0.0
C704 C 0.53012 0.78083 0.69133 0.0
C705 C 0.80422 0.57692 0.98572 0.0
C706 C 0.80314 0.55439 0.03257 0.0
C707 C 0.77953 0.57603 0.95683 0.0
C708 C 0.75308 0.55248 0.97337 0.0
H709 H 0.82431 0.59527 0.97112 0.0
H710 H 0.78109 0.59394 0.92224 0.0
S711 S 0.73926 0.48718 0.08662 0.0
N712 N 0.77376 0.50746 0.09035 0.0
N713 N 0.72737 0.50547 0.0346 0.0
C714 C 0.75184 0.52957 0.01818 0.0
C715 C 0.77689 0.53063 0.04838 0.0
C716 C 0.25132 0.78261 0.31055 0.0
C717 C 0.25002 0.80229 0.3663 0.0
C718 C 0.22683 0.75864 0.28193 0.0
C719 C 0.20025 0.75339 0.30905 0.0
H720 H 0.27147 0.78579 0.28894 0.0
H721 H 0.22871 0.74383 0.23989 0.0
S722 S 0.18536 0.79826 0.45435 0.0
N723 N 0.21997 0.81505 0.44654 0.0
N724 N 0.17391 0.7696 0.39444 0.0
C725 C 0.19864 0.77276 0.36512 0.0
C726 C 0.22355 0.79726 0.39363 0.0
C727 C 0.4298 0.22493 0.72597 0.0
C728 C 0.45143 0.25129 0.69812 0.0
C729 C 0.42895 0.20011 0.69889 0.0
C730 C 0.44952 0.20092 0.64241 0.0
H731 H 0.41325 0.2235 0.76782 0.0
H732 H 0.41208 0.18013 0.72196 0.0
S733 S 0.51195 0.26466 0.55822 0.0
N734 N 0.49509 0.27677 0.61686 0.0
N735 N 0.49299 0.23009 0.56435 0.0
C736 C 0.47151 0.22711 0.61567 0.0
C737 C 0.47262 0.25232 0.64409 0.0
loop_
_geom_bond_atom_site_label_1
_geom_bond_atom_site_label_2
_geom_bond_distance
_geom_bond_site_symmetry_2
_ccdc_geom_bond_type
Co0 O3 1.970 . S
Co0 N17 1.989 . S
Co0 O25 1.967 . S
Co0 O32 1.920 . S
Co1 O4 1.966 . S
Co1 N10 2.022 1_554 S
Co1 N18 1.993 . S
Co1 O26 1.941 . S
C2 O3 1.258 . S
C2 O4 1.263 . S
O3 Co0 1.970 . S
O3 C2 1.258 . S
O4 Co1 1.966 . S
O4 C2 1.263 . S
C5 O6 1.235 . S
C5 O32 1.289 . S
O6 C5 1.235 . S
C7 C9 1.400 . S
C7 N10 1.351 . S
C7 C12 1.501 . S
C8 C9 1.387 . S
C8 N11 1.341 . S
C9 C7 1.400 . S
C9 C8 1.387 . S
N10 Co1 2.022 1_556 S
N10 C7 1.351 . S
N10 N11 1.365 . S
N11 C8 1.341 . S
N11 N10 1.365 . S
N11 H31 0.862 . S
C12 C7 1.501 . S
C12 H13 0.961 . S
C12 H14 0.961 . S
C12 H15 0.960 . S
H13 C12 0.961 . S
H14 C12 0.961 . S
H15 C12 0.960 . S
C16 N17 1.342 . S
C16 C20 1.401 . S
C16 C21 1.499 . S
N17 Co0 1.989 . S
N17 C16 1.342 . S
N17 N18 1.388 . S
N18 Co1 1.993 . S
N18 N17 1.388 . S
N18 C19 1.346 . S
C19 N18 1.346 . S
C19 C20 1.396 . S
C19 C29 1.510 1_554 S
C20 C16 1.401 . S
C20 C19 1.396 . S
C21 C16 1.499 . S
C21 H22 0.959 . S
C21 H23 0.960 . S
C21 H24 0.961 . S
H22 C21 0.959 . S
H23 C21 0.960 . S
H24 C21 0.961 . S
O25 Co0 1.967 . S
O25 C33 1.258 . S
O26 Co1 1.941 . S
O26 C33 1.266 . S
H27 C29 0.959 . S
H28 C29 0.961 . S
C29 C19 1.510 1_556 S
C29 H27 0.959 . S
C29 H28 0.961 . S
C29 H30 0.960 . S
H30 C29 0.960 . S
H31 N11 0.862 . S
O32 Co0 1.920 . S
O32 C5 1.289 . S
C33 O25 1.258 . S
C33 O26 1.266 . S
Co34 O37 1.970 . S
Co34 N51 1.989 . S
Co34 O59 1.967 . S
Co34 O66 1.920 . S
Co35 O38 1.966 . S
Co35 N44 2.022 . S
Co35 N52 1.993 . S
Co35 O60 1.941 . S
C36 O37 1.258 . S
C36 O38 1.263 . S
O37 Co34 1.970 . S
O37 C36 1.258 . S
O38 Co35 1.966 . S
O38 C36 1.263 . S
C39 O40 1.235 . S
C39 O66 1.289 . S
O40 C39 1.235 . S
C41 C43 1.400 . S
C41 N44 1.351 . S
C41 C46 1.501 . S
C42 C43 1.387 . S
C42 N45 1.341 . S
C43 C41 1.400 . S
C43 C42 1.387 . S
N44 Co35 2.022 . S
N44 C41 1.351 . S
N44 N45 1.365 . S
N45 C42 1.341 . S
N45 N44 1.365 . S
N45 H65 0.862 . S
C46 C41 1.501 . S
C46 H47 0.961 . S
C46 H48 0.961 . S
C46 H49 0.960 . S
H47 C46 0.961 . S
H48 C46 0.961 . S
H49 C46 0.960 . S
C50 N51 1.342 . S
C50 C54 1.401 . S
C50 C55 1.499 . S
N51 Co34 1.989 . S
N51 C50 1.342 . S
N51 N52 1.388 . S
N52 Co35 1.993 . S
N52 N51 1.388 . S
N52 C53 1.346 . S
C53 N52 1.346 . S
C53 C54 1.396 . S
C53 C63 1.510 . S
C54 C50 1.401 . S
C54 C53 1.396 . S
C55 C50 1.499 . S
C55 H56 0.959 . S
C55 H57 0.960 . S
C55 H58 0.961 . S
H56 C55 0.959 . S
H57 C55 0.960 . S
H58 C55 0.961 . S
O59 Co34 1.967 . S
O59 C67 1.258 . S
O60 Co35 1.941 . S
O60 C67 1.266 . S
H61 C63 0.959 . S
H62 C63 0.961 . S
C63 C53 1.510 . S
C63 H61 0.959 . S
C63 H62 0.961 . S
C63 H64 0.960 . S
H64 C63 0.960 . S
H65 N45 0.862 . S
O66 Co34 1.920 . S
O66 C39 1.289 . S
C67 O59 1.258 . S
C67 O60 1.266 . S
Co68 O71 1.970 . S
Co68 N85 1.989 . S
Co68 O93 1.967 . S
Co68 O100 1.920 . S
Co69 O72 1.966 . S
Co69 N78 2.022 . S
Co69 N86 1.993 . S
Co69 O94 1.941 . S
C70 O71 1.258 . S
C70 O72 1.263 . S
O71 Co68 1.970 . S
O71 C70 1.258 . S
O72 Co69 1.966 . S
O72 C70 1.263 . S
C73 O74 1.235 . S
C73 O100 1.289 1_554 S
O74 C73 1.235 . S
C75 C77 1.400 . S
C75 N78 1.351 . S
C75 C80 1.501 . S
C76 C77 1.387 . S
C76 N79 1.341 . S
C77 C75 1.400 . S
C77 C76 1.387 . S
N78 Co69 2.022 . S
N78 C75 1.351 . S
N78 N79 1.365 . S
N79 C76 1.341 . S
N79 N78 1.365 . S
N79 H99 0.862 . S
C80 C75 1.501 . S
C80 H81 0.961 . S
C80 H82 0.961 . S
C80 H83 0.960 . S
H81 C80 0.961 . S
H82 C80 0.961 . S
H83 C80 0.960 . S
C84 N85 1.342 . S
C84 C88 1.401 . S
C84 C89 1.499 . S
N85 Co68 1.989 . S
N85 C84 1.342 . S
N85 N86 1.388 . S
N86 Co69 1.993 . S
N86 N85 1.388 . S
N86 C87 1.346 . S
C87 N86 1.346 . S
C87 C88 1.396 . S
C87 C97 1.510 . S
C88 C84 1.401 . S
C88 C87 1.396 . S
C89 C84 1.499 . S
C89 H90 0.959 . S
C89 H91 0.960 . S
C89 H92 0.961 . S
H90 C89 0.959 . S
H91 C89 0.960 . S
H92 C89 0.961 . S
O93 Co68 1.967 . S
O93 C101 1.258 . S
O94 Co69 1.941 . S
O94 C101 1.266 . S
H95 C97 0.959 . S
H96 C97 0.961 . S
C97 C87 1.510 . S
C97 H95 0.959 . S
C97 H96 0.961 . S
C97 H98 0.960 . S
H98 C97 0.960 . S
H99 N79 0.862 . S
O100 Co68 1.920 . S
O100 C73 1.289 1_556 S
C101 O93 1.258 . S
C101 O94 1.266 . S
Co102 O105 1.970 . S
Co102 N119 1.989 . S
Co102 O127 1.967 . S
Co102 O134 1.920 . S
Co103 O106 1.966 . S
Co103 N112 2.022 1_554 S
Co103 N120 1.993 . S
Co103 O128 1.941 . S
C104 O105 1.258 . S
C104 O106 1.263 . S
O105 Co102 1.970 . S
O105 C104 1.258 . S
O106 Co103 1.966 . S
O106 C104 1.263 . S
C107 O108 1.235 . S
C107 O134 1.289 . S
O108 C107 1.235 . S
C109 C111 1.400 . S
C109 N112 1.351 . S
C109 C114 1.501 . S
C110 C111 1.387 . S
C110 N113 1.341 . S
C111 C109 1.400 . S
C111 C110 1.387 . S
N112 Co103 2.022 1_556 S
N112 C109 1.351 . S
N112 N113 1.365 . S
N113 C110 1.341 . S
N113 N112 1.365 . S
N113 H133 0.862 . S
C114 C109 1.501 . S
C114 H115 0.961 . S
C114 H116 0.961 . S
C114 H117 0.960 . S
H115 C114 0.961 . S
H116 C114 0.961 . S
H117 C114 0.960 . S
C118 N119 1.342 . S
C118 C122 1.401 . S
C118 C123 1.499 . S
N119 Co102 1.989 . S
N119 C118 1.342 . S
N119 N120 1.388 . S
N120 Co103 1.993 . S
N120 N119 1.388 . S
N120 C121 1.346 . S
C121 N120 1.346 . S
C121 C122 1.396 . S
C121 C131 1.510 1_554 S
C122 C118 1.401 . S
C122 C121 1.396 . S
C123 C118 1.499 . S
C123 H124 0.959 . S
C123 H125 0.960 . S
C123 H126 0.961 . S
H124 C123 0.959 . S
H125 C123 0.960 . S
H126 C123 0.961 . S
O127 Co102 1.967 . S
O127 C135 1.258 . S
O128 Co103 1.941 . S
O128 C135 1.266 . S
H129 C131 0.959 . S
H130 C131 0.961 . S
C131 C121 1.510 1_556 S
C131 H129 0.959 . S
C131 H130 0.961 . S
C131 H132 0.960 . S
H132 C131 0.960 . S
H133 N113 0.862 . S
O134 Co102 1.920 . S
O134 C107 1.289 . S
C135 O127 1.258 . S
C135 O128 1.266 . S
Co136 O139 1.970 . S
Co136 N153 1.989 . S
Co136 O161 1.967 . S
Co136 O168 1.920 . S
Co137 O140 1.966 . S
Co137 N146 2.022 . S
Co137 N154 1.993 . S
Co137 O162 1.941 . S
C138 O139 1.258 . S
C138 O140 1.263 . S
O139 Co136 1.970 . S
O139 C138 1.258 . S
O140 Co137 1.966 . S
O140 C138 1.263 . S
C141 O142 1.235 . S
C141 O168 1.289 . S
O142 C141 1.235 . S
C143 C145 1.400 . S
C143 N146 1.351 . S
C143 C148 1.501 . S
C144 C145 1.387 . S
C144 N147 1.341 . S
C145 C143 1.400 . S
C145 C144 1.387 . S
N146 Co137 2.022 . S
N146 C143 1.351 . S
N146 N147 1.365 . S
N147 C144 1.341 . S
N147 N146 1.365 . S
N147 H167 0.862 . S
C148 C143 1.501 . S
C148 H149 0.961 . S
C148 H150 0.961 . S
C148 H151 0.960 . S
H149 C148 0.961 . S
H150 C148 0.961 . S
H151 C148 0.960 . S
C152 N153 1.342 . S
C152 C156 1.401 . S
C152 C157 1.499 . S
N153 Co136 1.989 . S
N153 C152 1.342 . S
N153 N154 1.388 . S
N154 Co137 1.993 . S
N154 N153 1.388 . S
N154 C155 1.346 . S
C155 N154 1.346 . S
C155 C156 1.396 . S
C155 C165 1.510 . S
C156 C152 1.401 . S
C156 C155 1.396 . S
C157 C152 1.499 . S
C157 H158 0.959 . S
C157 H159 0.960 . S
C157 H160 0.961 . S
H158 C157 0.959 . S
H159 C157 0.960 . S
H160 C157 0.961 . S
O161 Co136 1.967 . S
O161 C169 1.258 . S
O162 Co137 1.941 . S
O162 C169 1.266 . S
H163 C165 0.959 . S
H164 C165 0.961 . S
C165 C155 1.510 . S
C165 H163 0.959 . S
C165 H164 0.961 . S
C165 H166 0.960 . S
H166 C165 0.960 . S
H167 N147 0.862 . S
O168 Co136 1.920 . S
O168 C141 1.289 . S
C169 O161 1.258 . S
C169 O162 1.266 . S
Co170 O173 1.970 . S
Co170 N187 1.989 . S
Co170 O195 1.967 . S
Co170 O202 1.920 . S
Co171 O174 1.966 . S
Co171 N180 2.022 . S
Co171 N188 1.993 . S
Co171 O196 1.941 . S
C172 O173 1.258 . S
C172 O174 1.263 . S
O173 Co170 1.970 . S
O173 C172 1.258 . S
O174 Co171 1.966 . S
O174 C172 1.263 . S
C175 O176 1.235 . S
C175 O202 1.289 1_554 S
O176 C175 1.235 . S
C177 C179 1.400 . S
C177 N180 1.351 . S
C177 C182 1.501 . S
C178 C179 1.387 . S
C178 N181 1.341 . S
C179 C177 1.400 . S
C179 C178 1.387 . S
N180 Co171 2.022 . S
N180 C177 1.351 . S
N180 N181 1.365 . S
N181 C178 1.341 . S
N181 N180 1.365 . S
N181 H201 0.862 . S
C182 C177 1.501 . S
C182 H183 0.961 . S
C182 H184 0.961 . S
C182 H185 0.960 . S
H183 C182 0.961 . S
H184 C182 0.961 . S
H185 C182 0.960 . S
C186 N187 1.342 . S
C186 C190 1.401 . S
C186 C191 1.499 . S
N187 Co170 1.989 . S
N187 C186 1.342 . S
N187 N188 1.388 . S
N188 Co171 1.993 . S
N188 N187 1.388 . S
N188 C189 1.346 . S
C189 N188 1.346 . S
C189 C190 1.396 . S
C189 C199 1.510 . S
C190 C186 1.401 . S
C190 C189 1.396 . S
C191 C186 1.499 . S
C191 H192 0.959 . S
C191 H193 0.960 . S
C191 H194 0.961 . S
H192 C191 0.959 . S
H193 C191 0.960 . S
H194 C191 0.961 . S
O195 Co170 1.967 . S
O195 C203 1.258 . S
O196 Co171 1.941 . S
O196 C203 1.266 . S
H197 C199 0.959 . S
H198 C199 0.961 . S
C199 C189 1.510 . S
C199 H197 0.959 . S
C199 H198 0.961 . S
C199 H200 0.960 . S
H200 C199 0.960 . S
H201 N181 0.862 . S
O202 Co170 1.920 . S
O202 C175 1.289 1_556 S
C203 O195 1.258 . S
C203 O196 1.266 . S
Co204 O207 1.970 . S
Co204 N221 1.989 . S
Co204 O229 1.967 . S
Co204 O236 1.920 . S
Co205 O208 1.966 . S
Co205 N214 2.022 . S
Co205 N222 1.993 . S
Co205 O230 1.941 . S
C206 O207 1.258 . S
C206 O208 1.263 . S
O207 Co204 1.970 . S
O207 C206 1.258 . S
O208 Co205 1.966 . S
O208 C206 1.263 . S
C209 O210 1.235 . S
C209 O236 1.289 . S
O210 C209 1.235 . S
C211 C213 1.400 . S
C211 N214 1.351 . S
C211 C216 1.501 . S
C212 C213 1.387 . S
C212 N215 1.341 . S
C213 C211 1.400 . S
C213 C212 1.387 . S
N214 Co205 2.022 . S
N214 C211 1.351 . S
N214 N215 1.365 . S
N215 C212 1.341 . S
N215 N214 1.365 . S
N215 H235 0.862 . S
C216 C211 1.501 . S
C216 H217 0.961 . S
C216 H218 0.961 . S
C216 H219 0.960 . S
H217 C216 0.961 . S
H218 C216 0.961 . S
H219 C216 0.960 . S
C220 N221 1.342 . S
C220 C224 1.401 . S
C220 C225 1.499 . S
N221 Co204 1.989 . S
N221 C220 1.342 . S
N221 N222 1.388 . S
N222 Co205 1.993 . S
N222 N221 1.388 . S
N222 C223 1.346 . S
C223 N222 1.346 . S
C223 C224 1.396 . S
C223 C233 1.510 . S
C224 C220 1.401 . S
C224 C223 1.396 . S
C225 C220 1.499 . S
C225 H226 0.959 . S
C225 H227 0.960 . S
C225 H228 0.961 . S
H226 C225 0.959 . S
H227 C225 0.960 . S
H228 C225 0.961 . S
O229 Co204 1.967 . S
O229 C237 1.258 . S
O230 Co205 1.941 . S
O230 C237 1.266 . S
H231 C233 0.959 . S
H232 C233 0.961 . S
C233 C223 1.510 . S
C233 H231 0.959 . S
C233 H232 0.961 . S
C233 H234 0.960 . S
H234 C233 0.960 . S
H235 N215 0.862 . S
O236 Co204 1.920 . S
O236 C209 1.289 . S
C237 O229 1.258 . S
C237 O230 1.266 . S
Co238 O241 1.970 . S
Co238 N255 1.989 . S
Co238 O263 1.967 . S
Co238 O270 1.920 . S
Co239 O242 1.966 . S
Co239 N248 2.022 1_556 S
Co239 N256 1.993 . S
Co239 O264 1.941 . S
C240 O241 1.258 . S
C240 O242 1.263 . S
O241 Co238 1.970 . S
O241 C240 1.258 . S
O242 Co239 1.966 . S
O242 C240 1.263 . S
C243 O244 1.235 . S
C243 O270 1.289 . S
O244 C243 1.235 . S
C245 C247 1.400 . S
C245 N248 1.351 . S
C245 C250 1.501 . S
C246 C247 1.387 . S
C246 N249 1.341 . S
C247 C245 1.400 . S
C247 C246 1.387 . S
N248 Co239 2.022 1_554 S
N248 C245 1.351 . S
N248 N249 1.365 . S
N249 C246 1.341 . S
N249 N248 1.365 . S
N249 H269 0.862 . S
C250 C245 1.501 . S
C250 H251 0.961 . S
C250 H252 0.961 . S
C250 H253 0.960 . S
H251 C250 0.961 . S
H252 C250 0.961 . S
H253 C250 0.960 . S
C254 N255 1.342 . S
C254 C258 1.401 . S
C254 C259 1.499 . S
N255 Co238 1.989 . S
N255 C254 1.342 . S
N255 N256 1.388 . S
N256 Co239 1.993 . S
N256 N255 1.388 . S
N256 C257 1.346 . S
C257 N256 1.346 . S
C257 C258 1.396 . S
C257 C267 1.510 1_556 S
C258 C254 1.401 . S
C258 C257 1.396 . S
C259 C254 1.499 . S
C259 H260 0.959 . S
C259 H261 0.960 . S
C259 H262 0.961 . S
H260 C259 0.959 . S
H261 C259 0.960 . S
H262 C259 0.961 . S
O263 Co238 1.967 . S
O263 C271 1.258 . S
O264 Co239 1.941 . S
O264 C271 1.266 . S
H265 C267 0.959 . S
H266 C267 0.961 . S
C267 C257 1.510 1_554 S
C267 H265 0.959 . S
C267 H266 0.961 . S
C267 H268 0.960 . S
H268 C267 0.960 . S
H269 N249 0.862 . S
O270 Co238 1.920 . S
O270 C243 1.289 . S
C271 O263 1.258 . S
C271 O264 1.266 . S
Co272 O275 1.970 . S
Co272 N289 1.989 . S
Co272 O297 1.967 . S
Co272 O304 1.920 . S
Co273 O276 1.966 . S
Co273 N282 2.022 . S
Co273 N290 1.993 . S
Co273 O298 1.941 . S
C274 O275 1.258 . S
C274 O276 1.263 . S
O275 Co272 1.970 . S
O275 C274 1.258 . S
O276 Co273 1.966 . S
O276 C274 1.263 . S
C277 O278 1.235 . S
C277 O304 1.289 1_556 S
O278 C277 1.235 . S
C279 C281 1.400 . S
C279 N282 1.351 . S
C279 C284 1.501 . S
C280 C281 1.387 . S
C280 N283 1.341 . S
C281 C279 1.400 . S
C281 C280 1.387 . S
N282 Co273 2.022 . S
N282 C279 1.351 . S
N282 N283 1.365 . S
N283 C280 1.341 . S
N283 N282 1.365 . S
N283 H303 0.862 . S
C284 C279 1.501 . S
C284 H285 0.961 . S
C284 H286 0.961 . S
C284 H287 0.960 . S
H285 C284 0.961 . S
H286 C284 0.961 . S
H287 C284 0.960 . S
C288 N289 1.342 . S
C288 C292 1.401 . S
C288 C293 1.499 . S
N289 Co272 1.989 . S
N289 C288 1.342 . S
N289 N290 1.388 . S
N290 Co273 1.993 . S
N290 N289 1.388 . S
N290 C291 1.346 . S
C291 N290 1.346 . S
C291 C292 1.396 . S
C291 C301 1.510 . S
C292 C288 1.401 . S
C292 C291 1.396 . S
C293 C288 1.499 . S
C293 H294 0.959 . S
C293 H295 0.960 . S
C293 H296 0.961 . S
H294 C293 0.959 . S
H295 C293 0.960 . S
H296 C293 0.961 . S
O297 Co272 1.967 . S
O297 C305 1.258 . S
O298 Co273 1.941 . S
O298 C305 1.266 . S
H299 C301 0.959 . S
H300 C301 0.961 . S
C301 C291 1.510 . S
C301 H299 0.959 . S
C301 H300 0.961 . S
C301 H302 0.960 . S
H302 C301 0.960 . S
H303 N283 0.862 . S
O304 Co272 1.920 . S
O304 C277 1.289 1_554 S
C305 O297 1.258 . S
C305 O298 1.266 . S
Co306 O309 1.970 . S
Co306 N323 1.989 . S
Co306 O331 1.967 . S
Co306 O338 1.920 . S
Co307 O310 1.966 . S
Co307 N316 2.022 . S
Co307 N324 1.993 . S
Co307 O332 1.941 . S
C308 O309 1.258 . S
C308 O310 1.263 . S
O309 Co306 1.970 . S
O309 C308 1.258 . S
O310 Co307 1.966 . S
O310 C308 1.263 . S
C311 O312 1.235 . S
C311 O338 1.289 . S
O312 C311 1.235 . S
C313 C315 1.400 . S
C313 N316 1.351 . S
C313 C318 1.501 . S
C314 C315 1.387 . S
C314 N317 1.341 . S
C315 C313 1.400 . S
C315 C314 1.387 . S
N316 Co307 2.022 . S
N316 C313 1.351 . S
N316 N317 1.365 . S
N317 C314 1.341 . S
N317 N316 1.365 . S
N317 H337 0.862 . S
C318 C313 1.501 . S
C318 H319 0.961 . S
C318 H320 0.961 . S
C318 H321 0.960 . S
H319 C318 0.961 . S
H320 C318 0.961 . S
H321 C318 0.960 . S
C322 N323 1.342 . S
C322 C326 1.401 . S
C322 C327 1.499 . S
N323 Co306 1.989 . S
N323 C322 1.342 . S
N323 N324 1.388 . S
N324 Co307 1.993 . S
N324 N323 1.388 . S
N324 C325 1.346 . S
C325 N324 1.346 . S
C325 C326 1.396 . S
C325 C335 1.510 . S
C326 C322 1.401 . S
C326 C325 1.396 . S
C327 C322 1.499 . S
C327 H328 0.959 . S
C327 H329 0.960 . S
C327 H330 0.961 . S
H328 C327 0.959 . S
H329 C327 0.960 . S
H330 C327 0.961 . S
O331 Co306 1.967 . S
O331 C339 1.258 . S
O332 Co307 1.941 . S
O332 C339 1.266 . S
H333 C335 0.959 . S
H334 C335 0.961 . S
C335 C325 1.510 . S
C335 H333 0.959 . S
C335 H334 0.961 . S
C335 H336 0.960 . S
H336 C335 0.960 . S
H337 N317 0.862 . S
O338 Co306 1.920 . S
O338 C311 1.289 . S
C339 O331 1.258 . S
C339 O332 1.266 . S
Co340 O343 1.970 . S
Co340 N357 1.989 . S
Co340 O365 1.967 . S
Co340 O372 1.920 . S
Co341 O344 1.966 . S
Co341 N350 2.022 1_556 S
Co341 N358 1.993 . S
Co341 O366 1.941 . S
C342 O343 1.258 . S
C342 O344 1.263 . S
O343 Co340 1.970 . S
O343 C342 1.258 . S
O344 Co341 1.966 . S
O344 C342 1.263 . S
C345 O346 1.235 . S
C345 O372 1.289 . S
O346 C345 1.235 . S
C347 C349 1.400 . S
C347 N350 1.351 . S
C347 C352 1.501 . S
C348 C349 1.387 . S
C348 N351 1.341 . S
C349 C347 1.400 . S
C349 C348 1.387 . S
N350 Co341 2.022 1_554 S
N350 C347 1.351 . S
N350 N351 1.365 . S
N351 C348 1.341 . S
N351 N350 1.365 . S
N351 H371 0.862 . S
C352 C347 1.501 . S
C352 H353 0.961 . S
C352 H354 0.961 . S
C352 H355 0.960 . S
H353 C352 0.961 . S
H354 C352 0.961 . S
H355 C352 0.960 . S
C356 N357 1.342 . S
C356 C360 1.401 . S
C356 C361 1.499 . S
N357 Co340 1.989 . S
N357 C356 1.342 . S
N357 N358 1.388 . S
N358 Co341 1.993 . S
N358 N357 1.388 . S
N358 C359 1.346 . S
C359 N358 1.346 . S
C359 C360 1.396 . S
C359 C369 1.510 1_556 S
C360 C356 1.401 . S
C360 C359 1.396 . S
C361 C356 1.499 . S
C361 H362 0.959 . S
C361 H363 0.960 . S
C361 H364 0.961 . S
H362 C361 0.959 . S
H363 C361 0.960 . S
H364 C361 0.961 . S
O365 Co340 1.967 . S
O365 C373 1.258 . S
O366 Co341 1.941 . S
O366 C373 1.266 . S
H367 C369 0.959 . S
H368 C369 0.961 . S
C369 C359 1.510 1_554 S
C369 H367 0.959 . S
C369 H368 0.961 . S
C369 H370 0.960 . S
H370 C369 0.960 . S
H371 N351 0.862 . S
O372 Co340 1.920 . S
O372 C345 1.289 . S
C373 O365 1.258 . S
C373 O366 1.266 . S
Co374 O377 1.970 . S
Co374 N391 1.989 . S
Co374 O399 1.967 . S
Co374 O406 1.920 . S
Co375 O378 1.966 . S
Co375 N384 2.022 . S
Co375 N392 1.993 . S
Co375 O400 1.941 . S
C376 O377 1.258 . S
C376 O378 1.263 . S
O377 Co374 1.970 . S
O377 C376 1.258 . S
O378 Co375 1.966 . S
O378 C376 1.263 . S
C379 O380 1.235 . S
C379 O406 1.289 1_556 S
O380 C379 1.235 . S
C381 C383 1.400 . S
C381 N384 1.351 . S
C381 C386 1.501 . S
C382 C383 1.387 . S
C382 N385 1.341 . S
C383 C381 1.400 . S
C383 C382 1.387 . S
N384 Co375 2.022 . S
N384 C381 1.351 . S
N384 N385 1.365 . S
N385 C382 1.341 . S
N385 N384 1.365 . S
N385 H405 0.862 . S
C386 C381 1.501 . S
C386 H387 0.961 . S
C386 H388 0.961 . S
C386 H389 0.960 . S
H387 C386 0.961 . S
H388 C386 0.961 . S
H389 C386 0.960 . S
C390 N391 1.342 . S
C390 C394 1.401 . S
C390 C395 1.499 . S
N391 Co374 1.989 . S
N391 C390 1.342 . S
N391 N392 1.388 . S
N392 Co375 1.993 . S
N392 N391 1.388 . S
N392 C393 1.346 . S
C393 N392 1.346 . S
C393 C394 1.396 . S
C393 C403 1.510 . S
C394 C390 1.401 . S
C394 C393 1.396 . S
C395 C390 1.499 . S
C395 H396 0.959 . S
C395 H397 0.960 . S
C395 H398 0.961 . S
H396 C395 0.959 . S
H397 C395 0.960 . S
H398 C395 0.961 . S
O399 Co374 1.967 . S
O399 C407 1.258 . S
O400 Co375 1.941 . S
O400 C407 1.266 . S
H401 C403 0.959 . S
H402 C403 0.961 . S
C403 C393 1.510 . S
C403 H401 0.959 . S
C403 H402 0.961 . S
C403 H404 0.960 . S
H404 C403 0.960 . S
H405 N385 0.862 . S
O406 Co374 1.920 . S
O406 C379 1.289 1_554 S
C407 O399 1.258 . S
C407 O400 1.266 . S
C408 C409 1.369 . S
C408 C410 1.419 1_455 S
C408 H412 0.930 . S
C409 C408 1.369 . S
C409 C418 1.429 . S
C410 C408 1.419 1_655 S
C410 C411 1.363 . S
C410 H413 0.929 . S
C411 C410 1.363 . S
C411 C417 1.428 . S
H412 C408 0.930 . S
H413 C410 0.929 . S
S414 N415 1.613 1_655 S
S414 N416 1.610 . S
N415 S414 1.613 1_455 S
N415 C418 1.350 . S
N416 S414 1.610 . S
N416 C417 1.351 . S
C417 C411 1.428 . S
C417 N416 1.351 . S
C417 C418 1.434 1_655 S
C418 C409 1.429 . S
C418 N415 1.350 . S
C418 C417 1.434 1_455 S
C419 C420 1.369 . S
C419 C421 1.419 1_545 S
C419 H423 0.930 . S
C420 C419 1.369 . S
C420 C429 1.429 . S
C421 C419 1.419 1_565 S
C421 C422 1.363 . S
C421 H424 0.929 . S
C422 C421 1.363 . S
C422 C428 1.428 . S
H423 C419 0.930 . S
H424 C421 0.929 . S
S425 N426 1.613 1_565 S
S425 N427 1.610 . S
N426 S425 1.613 1_545 S
N426 C429 1.350 . S
N427 S425 1.610 . S
N427 C428 1.351 . S
C428 C422 1.428 . S
C428 N427 1.351 . S
C428 C429 1.434 1_565 S
C429 C420 1.429 . S
C429 N426 1.350 . S
C429 C428 1.434 1_545 S
C430 C431 1.369 . S
C430 C432 1.419 . S
C430 H434 0.930 . S
C431 C430 1.369 . S
C431 C440 1.429 . S
C432 C430 1.419 . S
C432 C433 1.363 . S
C432 H435 0.929 . S
C433 C432 1.363 . S
C433 C439 1.428 . S
H434 C430 0.930 . S
H435 C432 0.929 . S
S436 N437 1.613 . S
S436 N438 1.610 . S
N437 S436 1.613 . S
N437 C440 1.350 . S
N438 S436 1.610 . S
N438 C439 1.351 . S
C439 C433 1.428 . S
C439 N438 1.351 . S
C439 C440 1.434 . S
C440 C431 1.429 . S
C440 N437 1.350 . S
C440 C439 1.434 . S
C441 C442 1.369 . S
C441 C443 1.419 1_455 S
C441 H445 0.930 . S
C442 C441 1.369 . S
C442 C451 1.429 . S
C443 C441 1.419 1_655 S
C443 C444 1.363 . S
C443 H446 0.929 . S
C444 C443 1.363 . S
C444 C450 1.428 . S
H445 C441 0.930 . S
H446 C443 0.929 . S
S447 N448 1.613 . S
S447 N449 1.610 1_455 S
N448 S447 1.613 . S
N448 C451 1.350 . S
N449 S447 1.610 1_655 S
N449 C450 1.351 . S
C450 C444 1.428 . S
C450 N449 1.351 . S
C450 C451 1.434 1_655 S
C451 C442 1.429 . S
C451 N448 1.350 . S
C451 C450 1.434 1_455 S
C452 C453 1.369 . S
C452 C454 1.419 1_545 S
C452 H456 0.930 . S
C453 C452 1.369 . S
C453 C462 1.429 . S
C454 C452 1.419 1_565 S
C454 C455 1.363 . S
C454 H457 0.929 . S
C455 C454 1.363 . S
C455 C461 1.428 . S
H456 C452 0.930 . S
H457 C454 0.929 . S
S458 N459 1.613 1_565 S
S458 N460 1.610 . S
N459 S458 1.613 1_545 S
N459 C462 1.350 . S
N460 S458 1.610 . S
N460 C461 1.351 . S
C461 C455 1.428 . S
C461 N460 1.351 . S
C461 C462 1.434 1_565 S
C462 C453 1.429 . S
C462 N459 1.350 . S
C462 C461 1.434 1_545 S
C463 C464 1.369 . S
C463 C465 1.419 . S
C463 H467 0.930 . S
C464 C463 1.369 . S
C464 C473 1.429 . S
C465 C463 1.419 . S
C465 C466 1.363 . S
C465 H468 0.929 . S
C466 C465 1.363 . S
C466 C472 1.428 . S
H467 C463 0.930 . S
H468 C465 0.929 . S
S469 N470 1.613 . S
S469 N471 1.610 . S
N470 S469 1.613 . S
N470 C473 1.350 . S
N471 S469 1.610 . S
N471 C472 1.351 . S
C472 C466 1.428 . S
C472 N471 1.351 . S
C472 C473 1.434 . S
C473 C464 1.429 . S
C473 N470 1.350 . S
C473 C472 1.434 . S
C474 C475 1.369 . S
C474 C476 1.419 . S
C474 H478 0.930 . S
C475 C474 1.369 . S
C475 C484 1.429 . S
C476 C474 1.419 . S
C476 C477 1.363 . S
C476 H479 0.929 . S
C477 C476 1.363 . S
C477 C483 1.428 . S
H478 C474 0.930 . S
H479 C476 0.929 . S
S480 N481 1.613 . S
S480 N482 1.610 . S
N481 S480 1.613 . S
N481 C484 1.350 . S
N482 S480 1.610 . S
N482 C483 1.351 . S
C483 C477 1.428 . S
C483 N482 1.351 . S
C483 C484 1.434 . S
C484 C475 1.429 . S
C484 N481 1.350 . S
C484 C483 1.434 . S
C485 C486 1.369 . S
C485 C487 1.419 . S
C485 H489 0.930 . S
C486 C485 1.369 . S
C486 C495 1.429 . S
C487 C485 1.419 . S
C487 C488 1.363 . S
C487 H490 0.929 . S
C488 C487 1.363 . S
C488 C494 1.428 . S
H489 C485 0.930 . S
H490 C487 0.929 . S
S491 N492 1.613 . S
S491 N493 1.610 . S
N492 S491 1.613 . S
N492 C495 1.350 . S
N493 S491 1.610 . S
N493 C494 1.351 . S
C494 C488 1.428 . S
C494 N493 1.351 . S
C494 C495 1.434 . S
C495 C486 1.429 . S
C495 N492 1.350 . S
C495 C494 1.434 . S
C496 C497 1.369 . S
C496 C498 1.419 . S
C496 H500 0.930 . S
C497 C496 1.369 . S
C497 C506 1.429 . S
C498 C496 1.419 . S
C498 C499 1.363 . S
C498 H501 0.929 . S
C499 C498 1.363 . S
C499 C505 1.428 . S
H500 C496 0.930 . S
H501 C498 0.929 . S
S502 N503 1.613 . S
S502 N504 1.610 . S
N503 S502 1.613 . S
N503 C506 1.350 . S
N504 S502 1.610 . S
N504 C505 1.351 . S
C505 C499 1.428 . S
C505 N504 1.351 . S
C505 C506 1.434 . S
C506 C497 1.429 . S
C506 N503 1.350 . S
C506 C505 1.434 . S
C507 C508 1.369 . S
C507 C509 1.419 . S
C507 H511 0.930 . S
C508 C507 1.369 . S
C508 C517 1.429 . S
C509 C507 1.419 . S
C509 C510 1.363 . S
C509 H512 0.929 . S
C510 C509 1.363 . S
C510 C516 1.428 . S
H511 C507 0.930 . S
H512 C509 0.929 . S
S513 N514 1.613 . S
S513 N515 1.610 . S
N514 S513 1.613 . S
N514 C517 1.350 . S
N515 S513 1.610 . S
N515 C516 1.351 . S
C516 C510 1.428 . S
C516 N515 1.351 . S
C516 C517 1.434 . S
C517 C508 1.429 . S
C517 N514 1.350 . S
C517 C516 1.434 . S
C518 C519 1.369 . S
C518 C520 1.419 . S
C518 H522 0.930 . S
C519 C518 1.369 . S
C519 C528 1.429 . S
C520 C518 1.419 . S
C520 C521 1.363 . S
C520 H523 0.929 . S
C521 C520 1.363 . S
C521 C527 1.428 . S
H522 C518 0.930 . S
H523 C520 0.929 . S
S524 N525 1.613 . S
S524 N526 1.610 . S
N525 S524 1.613 . S
N525 C528 1.350 . S
N526 S524 1.610 . S
N526 C527 1.351 . S
C527 C521 1.428 . S
C527 N526 1.351 . S
C527 C528 1.434 . S
C528 C519 1.429 . S
C528 N525 1.350 . S
C528 C527 1.434 . S
C529 C530 1.369 . S
C529 C531 1.419 . S
C529 H533 0.930 . S
C530 C529 1.369 . S
C530 C539 1.429 . S
C531 C529 1.419 . S
C531 C532 1.363 . S
C531 H534 0.929 . S
C532 C531 1.363 . S
C532 C538 1.428 . S
H533 C529 0.930 . S
H534 C531 0.929 . S
S535 N536 1.613 . S
S535 N537 1.610 . S
N536 S535 1.613 . S
N536 C539 1.350 . S
N537 S535 1.610 . S
N537 C538 1.351 . S
C538 C532 1.428 . S
C538 N537 1.351 . S
C538 C539 1.434 . S
C539 C530 1.429 . S
C539 N536 1.350 . S
C539 C538 1.434 . S
C540 C541 1.369 . S
C540 C542 1.419 . S
C540 H544 0.930 . S
C541 C540 1.369 . S
C541 C550 1.429 . S
C542 C540 1.419 . S
C542 C543 1.363 . S
C542 H545 0.929 . S
C543 C542 1.363 . S
C543 C549 1.428 . S
H544 C540 0.930 . S
H545 C542 0.929 . S
S546 N547 1.613 . S
S546 N548 1.610 . S
N547 S546 1.613 . S
N547 C550 1.350 . S
N548 S546 1.610 . S
N548 C549 1.351 . S
C549 C543 1.428 . S
C549 N548 1.351 . S
C549 C550 1.434 . S
C550 C541 1.429 . S
C550 N547 1.350 . S
C550 C549 1.434 . S
C551 C552 1.369 . S
C551 C553 1.419 . S
C551 H555 0.930 . S
C552 C551 1.369 . S
C552 C561 1.429 . S
C553 C551 1.419 . S
C553 C554 1.363 . S
C553 H556 0.929 . S
C554 C553 1.363 . S
C554 C560 1.428 . S
H555 C551 0.930 . S
H556 C553 0.929 . S
S557 N558 1.613 . S
S557 N559 1.610 . S
N558 S557 1.613 . S
N558 C561 1.350 . S
N559 S557 1.610 . S
N559 C560 1.351 . S
C560 C554 1.428 . S
C560 N559 1.351 . S
C560 C561 1.434 . S
C561 C552 1.429 . S
C561 N558 1.350 . S
C561 C560 1.434 . S
C562 C563 1.369 . S
C562 C564 1.419 . S
C562 H566 0.930 . S
C563 C562 1.369 . S
C563 C572 1.429 . S
C564 C562 1.419 . S
C564 C565 1.363 . S
C564 H567 0.929 . S
C565 C564 1.363 . S
C565 C571 1.428 . S
H566 C562 0.930 . S
H567 C564 0.929 . S
S568 N569 1.613 . S
S568 N570 1.610 . S
N569 S568 1.613 . S
N569 C572 1.350 . S
N570 S568 1.610 . S
N570 C571 1.351 . S
C571 C565 1.428 . S
C571 N570 1.351 . S
C571 C572 1.434 . S
C572 C563 1.429 . S
C572 N569 1.350 . S
C572 C571 1.434 . S
C573 C574 1.369 . S
C573 C575 1.419 . S
C573 H577 0.930 . S
C574 C573 1.369 . S
C574 C583 1.429 . S
C575 C573 1.419 . S
C575 C576 1.363 . S
C575 H578 0.929 . S
C576 C575 1.363 . S
C576 C582 1.428 . S
H577 C573 0.930 . S
H578 C575 0.929 . S
S579 N580 1.613 . S
S579 N581 1.610 . S
N580 S579 1.613 . S
N580 C583 1.350 . S
N581 S579 1.610 . S
N581 C582 1.351 . S
C582 C576 1.428 . S
C582 N581 1.351 . S
C582 C583 1.434 . S
C583 C574 1.429 . S
C583 N580 1.350 . S
C583 C582 1.434 . S
C584 C585 1.369 . S
C584 C586 1.419 . S
C584 H588 0.930 . S
C585 C584 1.369 . S
C585 C594 1.429 . S
C586 C584 1.419 . S
C586 C587 1.363 . S
C586 H589 0.929 . S
C587 C586 1.363 . S
C587 C593 1.428 . S
H588 C584 0.930 . S
H589 C586 0.929 . S
S590 N591 1.613 . S
S590 N592 1.610 . S
N591 S590 1.613 . S
N591 C594 1.350 . S
N592 S590 1.610 . S
N592 C593 1.351 . S
C593 C587 1.428 . S
C593 N592 1.351 . S
C593 C594 1.434 . S
C594 C585 1.429 . S
C594 N591 1.350 . S
C594 C593 1.434 . S
C595 C596 1.369 . S
C595 C597 1.419 . S
C595 H599 0.930 . S
C596 C595 1.369 . S
C596 C605 1.429 . S
C597 C595 1.419 . S
C597 C598 1.363 . S
C597 H600 0.929 . S
C598 C597 1.363 . S
C598 C604 1.428 . S
H599 C595 0.930 . S
H600 C597 0.929 . S
S601 N602 1.613 . S
S601 N603 1.610 . S
N602 S601 1.613 . S
N602 C605 1.350 . S
N603 S601 1.610 . S
N603 C604 1.351 . S
C604 C598 1.428 . S
C604 N603 1.351 . S
C604 C605 1.434 . S
C605 C596 1.429 . S
C605 N602 1.350 . S
C605 C604 1.434 . S
C606 C607 1.369 . S
C606 C608 1.419 . S
C606 H610 0.930 . S
C607 C606 1.369 . S
C607 C616 1.429 . S
C608 C606 1.419 . S
C608 C609 1.363 . S
C608 H611 0.929 . S
C609 C608 1.363 . S
C609 C615 1.428 . S
H610 C606 0.930 . S
H611 C608 0.929 . S
S612 N613 1.613 . S
S612 N614 1.610 . S
N613 S612 1.613 . S
N613 C616 1.350 . S
N614 S612 1.610 . S
N614 C615 1.351 . S
C615 C609 1.428 . S
C615 N614 1.351 . S
C615 C616 1.434 . S
C616 C607 1.429 . S
C616 N613 1.350 . S
C616 C615 1.434 . S
C617 C618 1.369 . S
C617 C619 1.419 . S
C617 H621 0.930 . S
C618 C617 1.369 . S
C618 C627 1.429 . S
C619 C617 1.419 . S
C619 C620 1.363 . S
C619 H622 0.929 . S
C620 C619 1.363 . S
C620 C626 1.428 . S
H621 C617 0.930 . S
H622 C619 0.929 . S
S623 N624 1.613 . S
S623 N625 1.610 . S
N624 S623 1.613 . S
N624 C627 1.350 . S
N625 S623 1.610 . S
N625 C626 1.351 . S
C626 C620 1.428 . S
C626 N625 1.351 . S
C626 C627 1.434 . S
C627 C618 1.429 . S
C627 N624 1.350 . S
C627 C626 1.434 . S
C628 C629 1.369 . S
C628 C630 1.419 . S
C628 H632 0.930 . S
C629 C628 1.369 . S
C629 C638 1.429 . S
C630 C628 1.419 . S
C630 C631 1.363 . S
C630 H633 0.929 . S
C631 C630 1.363 . S
C631 C637 1.428 . S
H632 C628 0.930 . S
H633 C630 0.929 . S
S634 N635 1.613 . S
S634 N636 1.610 . S
N635 S634 1.613 . S
N635 C638 1.350 . S
N636 S634 1.610 . S
N636 C637 1.351 . S
C637 C631 1.428 . S
C637 N636 1.351 . S
C637 C638 1.434 . S
C638 C629 1.429 . S
C638 N635 1.350 . S
C638 C637 1.434 . S
C639 C640 1.369 . S
C639 C641 1.419 . S
C639 H643 0.930 . S
C640 C639 1.369 . S
C640 C649 1.429 . S
C641 C639 1.419 . S
C641 C642 1.363 . S
C641 H644 0.929 . S
C642 C641 1.363 . S
C642 C648 1.428 . S
H643 C639 0.930 . S
H644 C641 0.929 . S
S645 N646 1.613 1_556 S
S645 N647 1.609 1_556 S
N646 S645 1.613 1_554 S
N646 C649 1.350 . S
N647 S645 1.609 1_554 S
N647 C648 1.355 . S
C648 C642 1.428 . S
C648 N647 1.355 . S
C648 C649 1.434 . S
C649 C640 1.429 . S
C649 N646 1.350 . S
C649 C648 1.434 . S
C650 C651 1.369 . S
C650 C652 1.419 . S
C650 H654 0.930 . S
C651 C650 1.369 . S
C651 C660 1.429 . S
C652 C650 1.419 . S
C652 C653 1.363 . S
C652 H655 0.929 . S
C653 C652 1.363 . S
C653 C659 1.428 . S
H654 C650 0.930 . S
H655 C652 0.929 . S
S656 N657 1.613 . S
S656 N658 1.610 . S
N657 S656 1.613 . S
N657 C660 1.350 . S
N658 S656 1.610 . S
N658 C659 1.351 . S
C659 C653 1.428 . S
C659 N658 1.351 . S
C659 C660 1.434 . S
C660 C651 1.429 . S
C660 N657 1.350 . S
C660 C659 1.434 . S
C661 C662 1.369 . S
C661 C663 1.419 . S
C661 H665 0.930 . S
C662 C661 1.369 . S
C662 C671 1.429 . S
C663 C661 1.419 . S
C663 C664 1.363 . S
C663 H666 0.929 . S
C664 C663 1.363 . S
C664 C670 1.428 . S
H665 C661 0.930 . S
H666 C663 0.929 . S
S667 N668 1.613 . S
S667 N669 1.610 . S
N668 S667 1.613 . S
N668 C671 1.350 . S
N669 S667 1.610 . S
N669 C670 1.351 . S
C670 C664 1.428 . S
C670 N669 1.351 . S
C670 C671 1.434 . S
C671 C662 1.429 . S
C671 N668 1.350 . S
C671 C670 1.434 . S
C672 C673 1.369 . S
C672 C674 1.419 . S
C672 H676 0.930 . S
C673 C672 1.369 . S
C673 C682 1.429 1_556 S
C674 C672 1.419 . S
C674 C675 1.363 1_556 S
C674 H677 0.929 . S
C675 C674 1.363 1_554 S
C675 C681 1.428 . S
H676 C672 0.930 . S
H677 C674 0.929 . S
S678 N679 1.613 . S
S678 N680 1.610 . S
N679 S678 1.613 . S
N679 C682 1.350 . S
N680 S678 1.610 . S
N680 C681 1.351 . S
C681 C675 1.428 . S
C681 N680 1.351 . S
C681 C682 1.434 . S
C682 C673 1.429 1_554 S
C682 N679 1.350 . S
C682 C681 1.434 . S
C683 C684 1.369 . S
C683 C685 1.419 . S
C683 H687 0.930 . S
C684 C683 1.369 . S
C684 C693 1.429 . S
C685 C683 1.419 . S
C685 C686 1.363 . S
C685 H688 0.929 . S
C686 C685 1.363 . S
C686 C692 1.428 . S
H687 C683 0.930 . S
H688 C685 0.929 . S
S689 N690 1.613 . S
S689 N691 1.610 . S
N690 S689 1.613 . S
N690 C693 1.350 . S
N691 S689 1.610 . S
N691 C692 1.351 . S
C692 C686 1.428 . S
C692 N691 1.351 . S
C692 C693 1.434 . S
C693 C684 1.429 . S
C693 N690 1.350 . S
C693 C692 1.434 . S
C694 C695 1.369 . S
C694 C696 1.419 . S
C694 H698 0.930 . S
C695 C694 1.369 . S
C695 C704 1.429 . S
C696 C694 1.419 . S
C696 C697 1.363 . S
C696 H699 0.929 . S
C697 C696 1.363 . S
C697 C703 1.428 . S
H698 C694 0.930 . S
H699 C696 0.929 . S
S700 N701 1.613 . S
S700 N702 1.610 . S
N701 S700 1.613 . S
N701 C704 1.350 . S
N702 S700 1.610 . S
N702 C703 1.351 . S
C703 C697 1.428 . S
C703 N702 1.351 . S
C703 C704 1.434 . S
C704 C695 1.429 . S
C704 N701 1.350 . S
C704 C703 1.434 . S
C705 C706 1.369 1_556 S
C705 C707 1.419 . S
C705 H709 0.930 . S
C706 C705 1.369 1_554 S
C706 C715 1.429 . S
C707 C705 1.419 . S
C707 C708 1.363 . S
C707 H710 0.929 . S
C708 C707 1.363 . S
C708 C714 1.428 1_556 S
H709 C705 0.930 . S
H710 C707 0.929 . S
S711 N712 1.613 . S
S711 N713 1.610 . S
N712 S711 1.613 . S
N712 C715 1.350 . S
N713 S711 1.610 . S
N713 C714 1.351 . S
C714 C708 1.428 1_554 S
C714 N713 1.351 . S
C714 C715 1.434 . S
C715 C706 1.429 . S
C715 N712 1.350 . S
C715 C714 1.434 . S
C716 C717 1.369 . S
C716 C718 1.419 . S
C716 H720 0.930 . S
C717 C716 1.369 . S
C717 C726 1.429 . S
C718 C716 1.419 . S
C718 C719 1.363 . S
C718 H721 0.929 . S
C719 C718 1.363 . S
C719 C725 1.428 . S
H720 C716 0.930 . S
H721 C718 0.929 . S
S722 N723 1.613 . S
S722 N724 1.610 . S
N723 S722 1.613 . S
N723 C726 1.350 . S
N724 S722 1.610 . S
N724 C725 1.351 . S
C725 C719 1.428 . S
C725 N724 1.351 . S
C725 C726 1.434 . S
C726 C717 1.429 . S
C726 N723 1.350 . S
C726 C725 1.434 . S
C727 C728 1.369 . S
C727 C729 1.419 . S
C727 H731 0.930 . S
C728 C727 1.369 . S
C728 C737 1.429 . S
C729 C727 1.419 . S
C729 C730 1.363 . S
C729 H732 0.929 . S
C730 C729 1.363 . S
C730 C736 1.428 . S
H731 C727 0.930 . S
H732 C729 0.929 . S
S733 N734 1.613 . S
S733 N735 1.610 . S
N734 S733 1.613 . S
N734 C737 1.350 . S
N735 S733 1.610 . S
N735 C736 1.351 . S
C736 C730 1.428 . S
C736 N735 1.351 . S
C736 C737 1.434 . S
C737 C728 1.429 . S
C737 N734 1.350 . S
C737 C736 1.434 . S
C409 C2 1.481 . S
C411 C376 1.481 . S
C420 C36 1.482 . S
C422 C206 1.480 . S
C431 C240 1.479 . S
C433 C70 1.484 . S
C442 C274 1.481 . S
C444 C104 1.484 . S
C453 C308 1.485 . S
C455 C138 1.480 . S
C464 C342 1.479 . S
C466 C172 1.483 . S
C475 C9 1.344 . S
C477 C5 1.413 . S
C486 C39 1.413 . S
C488 C43 1.337 1_556 S
C497 C77 1.331 . S
C499 C73 1.418 . S
C508 C111 1.337 . S
C510 C107 1.417 . S
C519 C145 1.340 1_556 S
C521 C141 1.413 . S
C530 C175 1.411 . S
C532 C179 1.341 . S
C541 C213 1.342 1_554 S
C543 C209 1.412 . S
C552 C243 1.413 . S
C554 C247 1.337 . S
C563 C281 1.334 . S
C565 C277 1.417 . S
C574 C311 1.412 . S
C576 C315 1.342 1_554 S
C585 C345 1.417 . S
C587 C349 1.333 . S
C596 C383 1.343 . S
C598 C379 1.414 . S
C607 C33 1.474 . S
C609 C305 1.475 . S
C618 C67 1.476 . S
C620 C339 1.475 . S
C629 C101 1.476 . S
C631 C373 1.475 . S
C640 C407 1.474 . S
C642 C135 1.475 . S
C651 C237 1.475 . S
C653 C169 1.475 . S
C662 C271 1.474 . S
C664 C203 1.475 . S
C673 C360 1.531 . S
C675 C20 1.534 . S
C684 C394 1.531 . S
C686 C54 1.534 . S
C695 C224 1.530 . S
C697 C88 1.534 . S
C706 C122 1.533 . S
C708 C258 1.533 . S
C717 C156 1.534 . S
C719 C292 1.532 . S
C728 C190 1.531 . S
C730 C326 1.534 . S
