# Generated by pormake.
# Topology sra, (4)-cn, num edge types: 1
# Building blocks:
#     Node 0, Type 0, BuildingBlock: UXUYUI_clean_sbu_0, # of connection points: 4
#     Node 1, Type 0, BuildingBlock: UXUYUI_clean_sbu_0, # of connection points: 4
#     Node 2, Type 0, BuildingBlock: UXUYUI_clean_sbu_0, # of connection points: 4
#     Node 3, Type 0, BuildingBlock: UXUYUI_clean_sbu_0, # of connection points: 4
#     Node 4, Type 0, BuildingBlock: UXUYUI_clean_sbu_0, # of connection points: 4
#     Node 5, Type 0, BuildingBlock: UXUYUI_clean_sbu_0, # of connection points: 4
#     Node 6, Type 0, BuildingBlock: UXUYUI_clean_sbu_0, # of connection points: 4
#     Node 7, Type 0, BuildingBlock: UXUYUI_clean_sbu_0, # of connection points: 4
#     Edge 8, Type (0, 0), BuildingBlock: CIFDUS_clean_linker_0, # of connection points: 2
#     Edge 9, Type (0, 0), BuildingBlock: CIFDUS_clean_linker_0, # of connection points: 2
#     Edge 10, Type (0, 0), BuildingBlock: CIFDUS_clean_linker_0, # of connection points: 2
#     Edge 11, Type (0, 0), BuildingBlock: CIFDUS_clean_linker_0, # of connection points: 2
#     Edge 12, Type (0, 0), BuildingBlock: CIFDUS_clean_linker_0, # of connection points: 2
#     Edge 13, Type (0, 0), BuildingBlock: CIFDUS_clean_linker_0, # of connection points: 2
#     Edge 14, Type (0, 0), BuildingBlock: CIFDUS_clean_linker_0, # of connection points: 2
#     Edge 15, Type (0, 0), BuildingBlock: CIFDUS_clean_linker_0, # of connection points: 2
#     Edge 16, Type (0, 0), BuildingBlock: CIFDUS_clean_linker_0, # of connection points: 2
#     Edge 17, Type (0, 0), BuildingBlock: CIFDUS_clean_linker_0, # of connection points: 2
#     Edge 18, Type (0, 0), BuildingBlock: CIFDUS_clean_linker_0, # of connection points: 2
#     Edge 19, Type (0, 0), BuildingBlock: CIFDUS_clean_linker_0, # of connection points: 2
#     Edge 20, Type (0, 0), BuildingBlock: CIFDUS_clean_linker_0, # of connection points: 2
#     Edge 21, Type (0, 0), BuildingBlock: CIFDUS_clean_linker_0, # of connection points: 2
#     Edge 22, Type (0, 0), BuildingBlock: CIFDUS_clean_linker_0, # of connection points: 2
#     Edge 23, Type (0, 0), BuildingBlock: CIFDUS_clean_linker_0, # of connection points: 2
# Relax obj value: 0.133
# Max RMSD: 0.099
# Mean RMSD: 0.099
data_MOF--net-sra--node1-UXUYUI_clean_sbu_0--edge1-CIFDUS_clean_linker_0
_symmetry_space_group_name_H-M    P1
_symmetry_Int_Tables_number       1
_symmetry_cell_setting            triclinic
loop_
_symmetry_equiv_pos_as_xyz
'x, y, z'
_cell_length_a     34.533309
_cell_length_b     57.949807
_cell_length_c     57.226021
_cell_angle_alpha  89.940047
_cell_angle_beta   90.040694
_cell_angle_gamma 89.907476
loop_
_atom_site_label
_atom_site_type_symbol
_atom_site_fract_x
_atom_site_fract_y
_atom_site_fract_z
_atom_type_partial_charge
Li0 Li 1.00164 0.10648 0.15905 0.0
Li1 Li 0.03868 0.07482 0.17935 0.0
Li2 Li 0.00635 0.06693 0.1417 0.0
Li3 Li 0.96966 0.07254 0.1764 0.0
C4 C 0.07479 0.08421 0.13157 0.0
N5 N 0.12418 0.07102 0.09603 0.0
C6 C 0.10335 0.06758 0.13568 0.0
C7 C 0.07136 0.09416 0.1094 0.0
C8 C 0.12807 0.06115 0.11749 0.0
C9 C 0.09659 0.08724 0.09166 0.0
C10 C 0.01332 0.10429 0.21293 0.0
C11 C 0.02523 0.0983 0.25401 0.0
N12 N 0.0427 0.11929 0.25516 0.0
C13 C 0.0311 0.12588 0.21454 0.0
C14 C 0.01007 0.09045 0.23284 0.0
C15 C 0.04588 0.13313 0.23605 0.0
C16 C 0.97084 0.15076 0.16543 0.0
N17 N 0.99903 0.1388 0.15412 0.0
C18 C 0.0249 0.17366 0.13819 0.0
C19 C 0.02584 0.14967 0.14069 0.0
C20 C 0.99634 0.18654 0.14987 0.0
C21 C 0.96894 0.17476 0.16354 0.0
H22 H 0.95026 0.14165 0.17627 0.0
H23 H 0.04841 0.13977 0.13228 0.0
C24 C 0.09313 0.04863 0.20645 0.0
N25 N 0.08355 0.06994 0.19826 0.0
C26 C 0.12593 0.0457 0.22055 0.0
C27 C 0.13821 0.08665 0.21745 0.0
C28 C 0.10574 0.08869 0.20308 0.0
C29 C 0.14857 0.06495 0.22643 0.0
H30 H 0.07537 0.03393 0.20203 0.0
H31 H 0.09809 0.1053 0.19578 0.0
C32 C 0.9223 0.08265 0.14164 0.0
N33 N 0.84434 0.07327 0.13661 0.0
C34 C 0.91031 0.06185 0.13164 0.0
C35 C 0.89468 0.09872 0.14899 0.0
C36 C 0.87075 0.05744 0.12924 0.0
C37 C 0.85539 0.09363 0.14634 0.0
C38 C 0.99162 0.02804 0.17874 0.0
C39 C 0.97573 0.01166 0.16362 0.0
C40 C 0.99074 0.02424 0.20285 0.0
C41 C 0.95874 0.99182 0.17294 0.0
C42 C 0.9734 0.00421 0.21149 0.0
N43 N 0.95788 0.98856 0.19648 0.0
C44 C 0.03214 0.0318 0.11054 0.0
C45 C 0.99405 0.06138 0.0934 0.0
C46 C 0.0365 0.02102 0.08885 0.0
N47 N 0.01111 0.05156 0.11238 0.0
C48 C 0.99764 0.0512 0.07141 0.0
C49 C 0.01907 0.03071 0.06889 0.0
H50 H 0.04566 0.02449 0.12592 0.0
H51 H 0.97796 0.07729 0.09536 0.0
C52 C 0.91082 0.08131 0.20884 0.0
N53 N 0.92248 0.06534 0.19293 0.0
C54 C 0.87555 0.07888 0.22046 0.0
C55 C 0.86459 0.04349 0.19926 0.0
C56 C 0.90006 0.04668 0.18795 0.0
C57 C 0.85174 0.0598 0.21571 0.0
H58 H 0.92845 0.09637 0.21205 0.0
H59 H 0.90904 0.03455 0.17474 0.0
O60 O 0.04944 0.0901 0.14892 0.0
O61 O 0.99892 0.09681 0.19201 0.0
O62 O 0.96087 0.08705 0.14461 0.0
O63 O 0.00868 0.04745 0.16994 0.0
H64 H 0.10613 0.05951 0.15266 0.0
H65 H 0.04897 0.10676 0.1058 0.0
H66 H 0.15021 0.04824 0.1204 0.0
H67 H 0.0941 0.09466 0.07437 0.0
H68 H 0.02306 0.08773 0.26955 0.0
H69 H 0.03386 0.13682 0.19931 0.0
H70 H 0.99595 0.07383 0.23194 0.0
H71 H 0.05994 0.14973 0.23752 0.0
H72 H 0.04691 0.18208 0.12777 0.0
H73 H 0.94629 0.184 0.1727 0.0
H74 H 0.13314 0.02869 0.22711 0.0
H75 H 0.15534 0.10182 0.22128 0.0
H76 H 0.93129 0.0491 0.12612 0.0
H77 H 0.9035 0.11485 0.15685 0.0
H78 H 0.86105 0.04136 0.12165 0.0
H79 H 0.83367 0.10585 0.15207 0.0
H80 H 0.9762 0.01433 0.14491 0.0
H81 H 1.00327 0.03664 0.21475 0.0
H82 H 0.94614 0.97904 0.16147 0.0
H83 H 0.97233 1.0011 0.23012 0.0
H84 H 0.053 0.00515 0.08778 0.0
H85 H 0.98429 0.05952 0.05648 0.0
H86 H 0.86656 0.09222 0.23255 0.0
H87 H 0.84735 0.02848 0.19505 0.0
Li88 Li 0.99681 0.44051 0.14192 0.0
Li89 Li 0.03501 0.43765 0.17684 0.0
Li90 Li 0.99694 0.40487 0.16387 0.0
Li91 Li 0.9646 0.43938 0.18202 0.0
C92 C 0.06126 0.42087 0.12753 0.0
N93 N 0.10105 0.42456 0.08581 0.0
C94 C 0.09442 0.43461 0.12609 0.0
C95 C 0.04846 0.40893 0.10778 0.0
C96 C 0.11413 0.43624 0.10484 0.0
C97 C 0.06891 0.41106 0.08684 0.0
C98 C 0.01448 0.4834 0.17588 0.0
C99 C 0.01397 0.51561 0.20252 0.0
N100 N 0.04565 0.52441 0.19159 0.0
C101 C 0.04692 0.4928 0.16485 0.0
C102 C 0.99775 0.49489 0.19483 0.0
C103 C 0.06231 0.51354 0.17309 0.0
C104 C 0.95886 0.4501 0.09893 0.0
N105 N 0.99182 0.45393 0.11136 0.0
C106 C 0.01774 0.47672 0.08021 0.0
C107 C 0.02076 0.46726 0.10258 0.0
C108 C 0.98422 0.47288 0.06689 0.0
C109 C 0.95436 0.45952 0.07657 0.0
H110 H 0.93595 0.43977 0.10638 0.0
H111 H 0.04632 0.47052 0.11288 0.0
C112 C 0.11216 0.42845 0.18778 0.0
N113 N 0.0839 0.44433 0.19182 0.0
C114 C 0.14779 0.42999 0.19918 0.0
C115 C 0.12513 0.46442 0.2186 0.0
C116 C 0.08962 0.462 0.2071 0.0
C117 C 0.15456 0.44813 0.21485 0.0
H118 H 0.10663 0.41418 0.17608 0.0
H119 H 0.06636 0.47377 0.2111 0.0
C120 C 0.92589 0.40523 0.1469 0.0
N121 N 0.87656 0.36922 0.13635 0.0
C122 C 0.89585 0.39946 0.16218 0.0
C123 C 0.93069 0.39279 0.12619 0.0
C124 C 0.87124 0.38118 0.15654 0.0
C125 C 0.90551 0.3746 0.1212 0.0
C126 C 0.02506 0.41181 0.21422 0.0
C127 C 0.04767 0.3918 0.21342 0.0
C128 C 0.02868 0.42689 0.23316 0.0
C129 C 0.07365 0.38723 0.23158 0.0
C130 C 0.05501 0.42171 0.25096 0.0
N131 N 0.07678 0.40216 0.2498 0.0
C132 C 0.01864 0.35976 0.14888 0.0
C133 C 0.9684 0.36134 0.17701 0.0
C134 C 0.01757 0.33565 0.14898 0.0
N135 N 0.99418 0.37203 0.16272 0.0
C136 C 0.96611 0.33731 0.17753 0.0
C137 C 0.99112 0.32407 0.16352 0.0
H138 H 0.03955 0.36865 0.13813 0.0
H139 H 0.94983 0.37153 0.18819 0.0
C140 C 0.89042 0.45865 0.18898 0.0
N141 N 0.92113 0.44881 0.20006 0.0
C142 C 0.85623 0.46321 0.20122 0.0
C143 C 0.88656 0.44832 0.23622 0.0
C144 C 0.91992 0.44375 0.22324 0.0
C145 C 0.85392 0.45779 0.22512 0.0
H146 H 0.89207 0.46221 0.17044 0.0
H147 H 0.94434 0.43541 0.2315 0.0
O148 O 0.04139 0.41916 0.14814 0.0
O149 O 0.99868 0.46326 0.16799 0.0
O150 O 0.95074 0.42279 0.15231 0.0
O151 O 1.00039 0.41696 0.19623 0.0
H152 H 0.10452 0.44421 0.14109 0.0
H153 H 0.02281 0.39828 0.10855 0.0
H154 H 0.1397 0.44691 0.10344 0.0
H155 H 0.05919 0.40201 0.07139 0.0
H156 H 1.00139 0.52468 0.21719 0.0
H157 H 0.06046 0.484 0.15035 0.0
H158 H 0.97255 0.48785 0.20351 0.0
H159 H 0.08757 0.52094 0.16482 0.0
H160 H 0.04116 0.48724 0.07353 0.0
H161 H 0.92805 0.45615 0.06685 0.0
H162 H 0.16977 0.41705 0.19586 0.0
H163 H 0.12903 0.47839 0.23094 0.0
H164 H 0.89184 0.40879 0.17835 0.0
H165 H 0.95376 0.39703 0.11418 0.0
H166 H 0.84799 0.37645 0.16825 0.0
H167 H 0.90902 0.36475 0.1053 0.0
H168 H 0.04558 0.38006 0.19879 0.0
H169 H 0.01204 0.44271 0.23382 0.0
H170 H 0.09147 0.37187 0.23112 0.0
H171 H 0.05837 0.43332 0.2656 0.0
H172 H 0.03794 0.32621 0.13824 0.0
H173 H 0.94498 0.32921 0.18883 0.0
H174 H 0.83168 0.47055 0.19205 0.0
H175 H 0.88572 0.44353 0.25452 0.0
Li176 Li 0.00882 0.93926 0.86731 0.0
Li177 Li 0.97372 0.93387 0.83223 0.0
Li178 Li 0.00812 0.90175 0.84999 0.0
Li179 Li 0.04463 0.93308 0.82922 0.0
C180 C 0.94465 0.92396 0.88291 0.0
N181 N 0.90965 0.93593 0.92463 0.0
C182 C 0.91761 0.94193 0.88361 0.0
C183 C 0.95378 0.91205 0.90345 0.0
C184 C 0.90023 0.94772 0.90486 0.0
C185 C 0.93581 0.91837 0.92436 0.0
C186 C 0.99642 0.97737 0.82605 0.0
C187 C 1.00088 0.00348 0.7933 0.0
N188 N 0.96693 0.01346 0.79988 0.0
C189 C 0.96168 0.98798 0.83256 0.0
C190 C 0.01628 0.98522 0.80631 0.0
C191 C 0.9472 0.00616 0.81906 0.0
C192 C 0.02967 0.94604 0.91508 0.0
N193 N 0.0109 0.9556 0.89654 0.0
C194 C 0.9896 0.98715 0.92021 0.0
C195 C 0.99171 0.97599 0.89862 0.0
C196 C 0.0076 0.9773 0.93988 0.0
C197 C 0.02834 0.95661 0.93701 0.0
H198 H 0.04486 0.92989 0.91301 0.0
H199 H 0.97724 0.98334 0.88365 0.0
C200 C 0.89356 0.93234 0.82151 0.0
N201 N 0.92825 0.94043 0.81384 0.0
C202 C 0.8605 0.93443 0.80759 0.0
C203 C 0.89939 0.95296 0.77797 0.0
C204 C 0.93166 0.95056 0.79248 0.0
C205 C 0.86324 0.94463 0.78537 0.0
H206 H 0.8918 0.92347 0.83809 0.0
H207 H 0.95971 0.95608 0.78633 0.0
C208 C 0.07874 0.90178 0.8677 0.0
N209 N 0.12621 0.8655 0.88069 0.0
C210 C 0.1117 0.89651 0.85456 0.0
C211 C 0.07013 0.88869 0.88757 0.0
C212 C 0.1353 0.8781 0.8614 0.0
C213 C 0.09441 0.87038 0.8938 0.0
C214 C 0.98456 0.90146 0.79968 0.0
C215 C 0.95514 0.88604 0.80576 0.0
C216 C 0.98893 0.90819 0.77636 0.0
C217 C 0.93059 0.87756 0.78837 0.0
C218 C 0.96378 0.89932 0.75949 0.0
N219 N 0.93538 0.88433 0.76579 0.0
C220 C 0.98376 0.85783 0.86798 0.0
C221 C 0.0359 0.8573 0.84108 0.0
C222 C 0.98536 0.83382 0.87016 0.0
N223 N 0.00913 0.86902 0.8538 0.0
C224 C 0.03867 0.83335 0.84281 0.0
C225 C 0.01324 0.82127 0.85754 0.0
H226 H 0.9621 0.86749 0.87744 0.0
H227 H 0.05512 0.86662 0.82953 0.0
C228 C 0.11532 0.95538 0.81687 0.0
N229 N 0.08912 0.93902 0.81059 0.0
C230 C 0.14882 0.9587 0.80353 0.0
C231 C 0.12737 0.92847 0.7775 0.0
C232 C 0.09461 0.92557 0.79144 0.0
C233 C 0.15509 0.94513 0.78354 0.0
H234 H 0.11035 0.96566 0.83235 0.0
H235 H 0.07393 0.91224 0.78726 0.0
O236 O 0.96283 0.91849 0.86239 0.0
O237 O 0.01119 0.95955 0.83902 0.0
O238 O 0.05491 0.91953 0.86104 0.0
O239 O 0.00797 0.91058 0.81661 0.0
H240 H 0.91047 0.95155 0.86799 0.0
H241 H 0.97507 0.89836 0.90338 0.0
H242 H 0.87943 0.96167 0.90565 0.0
H243 H 0.94286 0.90941 0.9404 0.0
H244 H 0.01587 0.00967 0.77794 0.0
H245 H 0.94567 0.98201 0.84759 0.0
H246 H 0.04318 0.97726 0.80099 0.0
H247 H 0.9202 0.0144 0.8238 0.0
H248 H 0.97385 0.00327 0.92149 0.0
H249 H 0.0424 0.94828 0.95169 0.0
H250 H 0.83341 0.9273 0.81378 0.0
H251 H 0.90284 0.96094 0.76098 0.0
H252 H 0.11895 0.90643 0.83918 0.0
H253 H 0.04452 0.89226 0.89778 0.0
H254 H 0.1608 0.87379 0.85133 0.0
H255 H 0.08785 0.85997 0.90899 0.0
H256 H 0.95081 0.881 0.82376 0.0
H257 H 0.01098 0.92048 0.77139 0.0
H258 H 0.90758 0.86572 0.79285 0.0
H259 H 0.96668 0.90448 0.7414 0.0
H260 H 0.96521 0.82519 0.88171 0.0
H261 H 0.06007 0.82434 0.8324 0.0
H262 H 0.16953 0.97173 0.80875 0.0
H263 H 0.13149 0.91733 0.76252 0.0
Li264 Li 0.96999 0.5695 0.82841 0.0
Li265 Li 0.9983 0.60362 0.84763 0.0
Li266 Li 0.03931 0.57352 0.8324 0.0
Li267 Li 1.00191 0.56614 0.86661 0.0
C268 C 0.01886 0.59274 0.79281 0.0
N269 N 0.05321 0.58987 0.74932 0.0
C270 C 0.03572 0.61226 0.78273 0.0
C271 C 0.01924 0.57179 0.7807 0.0
C272 C 0.053 0.61045 0.76074 0.0
C273 C 0.03681 0.57069 0.75875 0.0
C274 C 0.91911 0.59419 0.85619 0.0
C275 C 0.85341 0.60031 0.86905 0.0
N276 N 0.84726 0.61446 0.85043 0.0
C277 C 0.91214 0.60879 0.83717 0.0
C278 C 0.88954 0.58988 0.87225 0.0
C279 C 0.87563 0.61887 0.83457 0.0
C280 C 0.90191 0.54391 0.81686 0.0
N281 N 0.927 0.56044 0.80946 0.0
C282 C 0.88767 0.56816 0.77596 0.0
C283 C 0.9204 0.57255 0.78949 0.0
C284 C 0.86095 0.55141 0.78322 0.0
C285 C 0.86838 0.53913 0.80395 0.0
H286 H 0.90747 0.53485 0.83306 0.0
H287 H 0.93989 0.58619 0.78438 0.0
C288 C 0.02095 0.64939 0.84109 0.0
N289 N 0.99453 0.63614 0.85242 0.0
C290 C 0.01985 0.67338 0.8431 0.0
C291 C 0.96522 0.66967 0.8692 0.0
C292 C 0.96741 0.64572 0.86668 0.0
C293 C 0.99146 0.68386 0.85714 0.0
H294 H 0.04291 0.64126 0.83045 0.0
H295 H 0.94748 0.63482 0.87614 0.0
C296 C 0.02959 0.52684 0.84487 0.0
N297 N 0.07366 0.48908 0.85778 0.0
C298 C 0.06475 0.52994 0.85656 0.0
C299 C 0.01681 0.50454 0.83977 0.0
C300 C 0.08662 0.51064 0.86293 0.0
C301 C 0.03953 0.48567 0.84643 0.0
C302 C 0.05104 0.60082 0.88315 0.0
C303 C 0.08867 0.60786 0.88854 0.0
C304 C 0.02083 0.6057 0.89864 0.0
C305 C 0.09551 0.61962 0.90943 0.0
C306 C 0.02885 0.61751 0.91934 0.0
N307 N 0.06571 0.62417 0.92427 0.0
C308 C 0.11071 0.58892 0.81676 0.0
C309 C 0.10012 0.54974 0.80694 0.0
C310 C 0.14664 0.58862 0.80565 0.0
N311 N 0.08832 0.56969 0.81723 0.0
C312 C 0.13633 0.54851 0.79606 0.0
C313 C 0.16027 0.56815 0.79526 0.0
H314 H 0.10026 0.60465 0.82475 0.0
H315 H 0.08148 0.53478 0.80709 0.0
C316 C 0.96865 0.54005 0.90382 0.0
N317 N 1.00165 0.55023 0.896 0.0
C318 C 0.96852 0.52806 0.92508 0.0
C319 C 0.0362 0.53743 0.92985 0.0
C320 C 0.03508 0.54905 0.90852 0.0
C321 C 1.00271 0.52659 0.93841 0.0
H322 H 0.94252 0.5411 0.89343 0.0
H323 H 0.06108 0.5571 0.90194 0.0
O324 O 1.00278 0.59389 0.81464 0.0
O325 O 0.95437 0.58374 0.85894 0.0
O326 O 0.0073 0.54542 0.8387 0.0
O327 O 0.04406 0.58943 0.86264 0.0
H328 H 0.03551 0.62863 0.79174 0.0
H329 H 0.00657 0.55647 0.78834 0.0
H330 H 0.06626 0.6254 0.75275 0.0
H331 H 0.03754 0.55456 0.74926 0.0
H332 H 0.83025 0.59712 0.88135 0.0
H333 H 0.93464 0.61233 0.82454 0.0
H334 H 0.89446 0.57854 0.88701 0.0
H335 H 0.86983 0.63019 0.81994 0.0
H336 H 0.88262 0.57839 0.7604 0.0
H337 H 0.84839 0.52611 0.81016 0.0
H338 H 0.04058 0.6836 0.8334 0.0
H339 H 0.94339 0.67697 0.88059 0.0
H340 H 0.07517 0.54706 0.8606 0.0
H341 H 0.98958 0.50187 0.8308 0.0
H342 H 0.11389 0.5128 0.87197 0.0
H343 H 0.02999 0.46831 0.84259 0.0
H344 H 0.11233 0.60426 0.87668 0.0
H345 H 0.9915 0.60042 0.8948 0.0
H346 H 0.12451 0.62516 0.91384 0.0
H347 H 0.00577 0.62138 0.9315 0.0
H348 H 0.16323 0.60444 0.80499 0.0
H349 H 0.14546 0.53225 0.78858 0.0
H350 H 0.94211 0.51976 0.93081 0.0
H351 H 0.06307 0.53716 0.93961 0.0
Li352 Li 0.54011 0.5676 0.6814 0.0
Li353 Li 0.50606 0.59958 0.66098 0.0
Li354 Li 0.46909 0.56744 0.67793 0.0
Li355 Li 0.50706 0.56245 0.64266 0.0
C356 C 0.48226 0.59888 0.71255 0.0
N357 N 0.43818 0.61581 0.74907 0.0
C358 C 0.461 0.61928 0.70983 0.0
C359 C 0.48141 0.58728 0.73398 0.0
C360 C 0.43883 0.62751 0.72846 0.0
C361 C 0.45885 0.59606 0.75218 0.0
C362 C 0.57635 0.59942 0.64379 0.0
C363 C 0.593 0.63004 0.61706 0.0
N364 N 0.62296 0.63609 0.63122 0.0
C365 C 0.6074 0.60587 0.65803 0.0
C366 C 0.56917 0.61151 0.62308 0.0
C367 C 0.63061 0.62448 0.65137 0.0
C368 C 0.60949 0.54386 0.69349 0.0
N369 N 0.58374 0.56027 0.70035 0.0
C370 C 0.62163 0.56868 0.73423 0.0
C371 C 0.58907 0.57256 0.72029 0.0
C372 C 0.64916 0.5521 0.72747 0.0
C373 C 0.64266 0.5395 0.70685 0.0
H374 H 0.60451 0.53442 0.67748 0.0
H375 H 0.56838 0.58572 0.72515 0.0
C376 C 0.48067 0.642 0.64149 0.0
N377 N 0.5065 0.63218 0.65642 0.0
C378 C 0.47905 0.66596 0.63905 0.0
C379 C 0.53089 0.66923 0.66727 0.0
C380 C 0.53138 0.64521 0.66924 0.0
C381 C 0.5042 0.67992 0.65217 0.0
H382 H 0.46081 0.63127 0.6318 0.0
H383 H 0.55108 0.63693 0.68133 0.0
C384 C 0.50321 0.52264 0.6843 0.0
N385 N 0.49835 0.48362 0.71194 0.0
C386 C 0.49349 0.5014 0.67437 0.0
C387 C 0.51076 0.52398 0.70825 0.0
C388 C 0.49108 0.48188 0.68864 0.0
C389 C 0.50809 0.50408 0.72194 0.0
C390 C 0.44013 0.57799 0.62827 0.0
C391 C 0.40871 0.56291 0.63 0.0
C392 C 0.45005 0.5873 0.60654 0.0
C393 C 0.38784 0.55727 0.60987 0.0
C394 C 0.42852 0.58119 0.58682 0.0
N395 N 0.39813 0.56643 0.58888 0.0
C396 C 0.39639 0.57942 0.69446 0.0
C397 C 0.41079 0.54025 0.7027 0.0
C398 C 0.36124 0.57776 0.70631 0.0
N399 N 0.42089 0.56104 0.69342 0.0
C400 C 0.37534 0.53766 0.71425 0.0
C401 C 0.35054 0.55671 0.71644 0.0
H402 H 0.40433 0.59548 0.68616 0.0
H403 H 0.42997 0.52565 0.70124 0.0
C404 C 0.53488 0.55269 0.5968 0.0
N405 N 0.50913 0.54632 0.61356 0.0
C406 C 0.53531 0.54145 0.5752 0.0
C407 C 0.48312 0.5171 0.58864 0.0
C408 C 0.48368 0.52881 0.60995 0.0
C409 C 0.50911 0.52341 0.57087 0.0
H410 H 0.55503 0.56652 0.60017 0.0
H411 H 0.46338 0.52418 0.62354 0.0
O412 O 0.50379 0.59037 0.69438 0.0
O413 O 0.55288 0.58152 0.65023 0.0
O414 O 0.50587 0.54187 0.67052 0.0
O415 O 0.46141 0.58334 0.64768 0.0
H416 H 0.46092 0.62846 0.6934 0.0
H417 H 0.49793 0.57166 0.73661 0.0
H418 H 0.422 0.64316 0.7265 0.0
H419 H 0.4578 0.58717 0.7688 0.0
H420 H 0.58758 0.63967 0.60118 0.0
H421 H 0.61337 0.59673 0.67412 0.0
H422 H 0.54506 0.60687 0.61196 0.0
H423 H 0.65464 0.62973 0.66226 0.0
H424 H 0.62578 0.57906 0.74975 0.0
H425 H 0.66302 0.52646 0.70109 0.0
H426 H 0.4582 0.67349 0.62712 0.0
H427 H 0.55036 0.67934 0.67798 0.0
H428 H 0.48786 0.49999 0.65583 0.0
H429 H 0.51852 0.54019 0.71618 0.0
H430 H 0.48347 0.46535 0.68119 0.0
H431 H 0.51376 0.50491 0.74051 0.0
H432 H 0.40075 0.55543 0.64663 0.0
H433 H 0.47448 0.59884 0.60485 0.0
H434 H 0.36357 0.54554 0.61093 0.0
H435 H 0.43606 0.58812 0.56987 0.0
H436 H 0.34243 0.5927 0.70738 0.0
H437 H 0.36771 0.52112 0.72176 0.0
H438 H 0.5562 0.54667 0.56213 0.0
H439 H 0.46208 0.50351 0.58599 0.0
Li440 Li 0.50703 0.93489 0.64271 0.0
Li441 Li 0.54558 0.93071 0.67701 0.0
Li442 Li 0.51232 0.89761 0.66168 0.0
Li443 Li 0.4761 0.92918 0.68067 0.0
C444 C 0.56373 0.90498 0.62599 0.0
N445 N 0.58316 0.88378 0.58438 0.0
C446 C 0.60259 0.90178 0.62004 0.0
C447 C 0.53472 0.89738 0.61079 0.0
C448 C 0.61183 0.89104 0.59891 0.0
C449 C 0.54514 0.88671 0.58984 0.0
C450 C 0.52614 0.97596 0.66436 0.0
C451 C 0.52772 0.01753 0.6626 0.0
N452 N 0.56282 0.01648 0.65188 0.0
C453 C 0.56225 0.97529 0.65335 0.0
C454 C 0.50871 0.99723 0.66904 0.0
C455 C 0.58032 0.99596 0.64717 0.0
C456 C 0.46601 0.95478 0.60483 0.0
N457 N 0.50204 0.94994 0.61308 0.0
C458 C 0.53082 0.9649 0.57822 0.0
C459 C 0.53421 0.95494 0.60036 0.0
C460 C 0.49396 0.96985 0.56904 0.0
C461 C 0.46126 0.96478 0.58275 0.0
H462 H 0.44093 0.95071 0.61536 0.0
H463 H 0.56257 0.95087 0.60722 0.0
C464 C 0.62187 0.92325 0.69116 0.0
N465 N 0.59234 0.93866 0.69289 0.0
C466 C 0.65577 0.92637 0.70405 0.0
C467 C 0.62848 0.96141 0.72003 0.0
C468 C 0.5951 0.95764 0.70675 0.0
C469 C 0.65925 0.94552 0.71896 0.0
H470 H 0.61855 0.90813 0.68027 0.0
H471 H 0.57096 0.96949 0.70802 0.0
C472 C 0.43189 0.90008 0.65326 0.0
N473 N 0.36637 0.87339 0.65917 0.0
C474 C 0.42888 0.88518 0.67241 0.0
C475 C 0.40157 0.9014 0.63713 0.0
C476 C 0.39553 0.87184 0.67508 0.0
C477 C 0.36869 0.88776 0.64042 0.0
C478 C 0.52845 0.91019 0.71683 0.0
C479 C 0.55173 0.89299 0.72669 0.0
C480 C 0.52085 0.93033 0.72947 0.0
C481 C 0.56714 0.89627 0.74902 0.0
C482 C 0.53675 0.93294 0.75176 0.0
N483 N 0.55941 0.91602 0.76099 0.0
C484 C 0.54516 0.85398 0.66852 0.0
C485 C 0.49184 0.85346 0.64247 0.0
C486 C 0.54941 0.83009 0.6666 0.0
N487 N 0.51625 0.86506 0.65694 0.0
C488 C 0.49505 0.82956 0.63999 0.0
C489 C 0.52387 0.8175 0.65238 0.0
H490 H 0.56491 0.86373 0.67929 0.0
H491 H 0.46986 0.86271 0.6328 0.0
C492 C 0.40618 0.9523 0.69283 0.0
N493 N 0.43162 0.93557 0.6994 0.0
C494 C 0.3726 0.95625 0.70593 0.0
C495 C 0.39242 0.9259 0.73238 0.0
C496 C 0.42524 0.92235 0.71866 0.0
C497 C 0.3655 0.94296 0.72603 0.0
H498 H 0.41179 0.96238 0.67728 0.0
H499 H 0.44537 0.90878 0.7232 0.0
O500 O 0.55448 0.91546 0.64668 0.0
O501 O 0.50764 0.956 0.67051 0.0
O502 O 0.46402 0.91357 0.65034 0.0
O503 O 0.51405 0.90769 0.69467 0.0
H504 H 0.62538 0.90757 0.63163 0.0
H505 H 0.50448 0.89972 0.61501 0.0
H506 H 0.64181 0.88846 0.59408 0.0
H507 H 0.52299 0.88076 0.57791 0.0
H508 H 0.51455 0.03412 0.6661 0.0
H509 H 0.57626 0.95902 0.6496 0.0
H510 H 0.48074 0.99802 0.67754 0.0
H511 H 0.60825 0.99569 0.63863 0.0
H512 H 0.55683 0.96817 0.5682 0.0
H513 H 0.43232 0.96856 0.57653 0.0
H514 H 0.67845 0.91349 0.70297 0.0
H515 H 0.63006 0.97647 0.73117 0.0
H516 H 0.45205 0.88383 0.68504 0.0
H517 H 0.40343 0.91285 0.62222 0.0
H518 H 0.39284 0.86024 0.68981 0.0
H519 H 0.345 0.88861 0.62806 0.0
H520 H 0.55792 0.87728 0.71726 0.0
H521 H 0.50344 0.944 0.72197 0.0
H522 H 0.58529 0.88313 0.75684 0.0
H523 H 0.53129 0.9485 0.76166 0.0
H524 H 0.57198 0.82157 0.67653 0.0
H525 H 0.4753 0.82064 0.62841 0.0
H526 H 0.35251 0.96958 0.70048 0.0
H527 H 0.38765 0.91498 0.74748 0.0
Li528 Li 0.46659 0.4291 0.33175 0.0
Li529 Li 0.5035 0.43604 0.368 0.0
Li530 Li 0.53818 0.43128 0.33127 0.0
Li531 Li 0.50424 0.39913 0.35046 0.0
C532 C 0.48061 0.47602 0.34299 0.0
N533 N 0.4403 0.51644 0.35112 0.0
C534 C 0.45036 0.47643 0.35921 0.0
C535 C 0.49044 0.49617 0.33096 0.0
C536 C 0.43035 0.49704 0.36308 0.0
C537 C 0.46964 0.51642 0.33527 0.0
C538 C 0.43922 0.39711 0.37253 0.0
C539 C 0.43274 0.36794 0.40241 0.0
N540 N 0.40234 0.35871 0.39057 0.0
C541 C 0.4077 0.38743 0.36078 0.0
C542 C 0.45167 0.38739 0.39361 0.0
C543 C 0.38951 0.36799 0.37014 0.0
C544 C 0.40909 0.41386 0.30152 0.0
N545 N 0.42003 0.43308 0.31341 0.0
C546 C 0.3635 0.45314 0.29994 0.0
C547 C 0.39832 0.45269 0.31249 0.0
C548 C 0.35107 0.43331 0.28792 0.0
C549 C 0.37493 0.41364 0.28851 0.0
H550 H 0.42658 0.3984 0.30253 0.0
H551 H 0.40737 0.46793 0.32171 0.0
C552 C 0.52986 0.47051 0.39955 0.0
N553 N 0.50431 0.45287 0.39691 0.0
C554 C 0.53195 0.48252 0.42068 0.0
C555 C 0.48047 0.45853 0.43569 0.0
C556 C 0.47943 0.44698 0.4143 0.0
C557 C 0.50722 0.47645 0.4392 0.0
H558 H 0.54894 0.47507 0.3853 0.0
H559 H 0.45859 0.4334 0.41156 0.0
C560 C 0.504 0.41082 0.29316 0.0
N561 N 0.50517 0.41713 0.2453 0.0
C562 C 0.50817 0.39188 0.27828 0.0
C563 C 0.5005 0.43299 0.2837 0.0
C564 C 0.50867 0.39543 0.25413 0.0
C565 C 0.50113 0.43581 0.25947 0.0
C566 C 0.57402 0.42277 0.37937 0.0
C567 C 0.60489 0.4377 0.3749 0.0
C568 C 0.56775 0.41482 0.40214 0.0
C569 C 0.62872 0.44465 0.39333 0.0
C570 C 0.59215 0.42222 0.4201 0.0
N571 N 0.62187 0.43686 0.41537 0.0
C572 C 0.59657 0.46024 0.31052 0.0
C573 C 0.59854 0.42038 0.30125 0.0
C574 C 0.6291 0.46433 0.29651 0.0
N575 N 0.58213 0.43851 0.31259 0.0
C576 C 0.63044 0.42374 0.28676 0.0
C577 C 0.64614 0.44592 0.28428 0.0
H578 H 0.58299 0.47432 0.31985 0.0
H579 H 0.58669 0.40325 0.30345 0.0
C580 C 0.48922 0.3535 0.33761 0.0
N581 N 0.50598 0.36652 0.35452 0.0
C582 C 0.49 0.32947 0.33907 0.0
C583 C 0.52437 0.33267 0.37572 0.0
C584 C 0.52358 0.35666 0.37329 0.0
C585 C 0.50766 0.31864 0.35837 0.0
H586 H 0.47546 0.36183 0.32286 0.0
H587 H 0.53672 0.36741 0.38649 0.0
O588 O 0.50158 0.45629 0.33943 0.0
O589 O 0.45797 0.41585 0.36336 0.0
O590 O 0.50375 0.40756 0.31687 0.0
O591 O 0.55002 0.41606 0.36159 0.0
H592 H 0.44207 0.46098 0.36854 0.0
H593 H 0.51395 0.49615 0.31846 0.0
H594 H 0.40682 0.4976 0.37554 0.0
H595 H 0.4769 0.53214 0.32606 0.0
H596 H 0.44235 0.36013 0.41858 0.0
H597 H 0.3973 0.39482 0.34464 0.0
H598 H 0.47615 0.39449 0.40289 0.0
H599 H 0.36519 0.36028 0.36116 0.0
H600 H 0.3461 0.46869 0.3002 0.0
H601 H 0.36727 0.39808 0.27915 0.0
H602 H 0.55313 0.49614 0.42261 0.0
H603 H 0.46023 0.45363 0.44925 0.0
H604 H 0.51109 0.37462 0.28532 0.0
H605 H 0.49734 0.44789 0.2949 0.0
H606 H 0.51188 0.38092 0.2424 0.0
H607 H 0.49844 0.45286 0.25191 0.0
H608 H 0.61032 0.44398 0.35743 0.0
H609 H 0.5439 0.4034 0.406 0.0
H610 H 0.6526 0.45629 0.39012 0.0
H611 H 0.58737 0.41638 0.43783 0.0
H612 H 0.64051 0.48167 0.29499 0.0
H613 H 0.64312 0.40908 0.27785 0.0
H614 H 0.47742 0.31956 0.32496 0.0
H615 H 0.53773 0.32528 0.39112 0.0
Li616 Li 0.49864 0.10029 0.3465 0.0
Li617 Li 0.46724 0.06443 0.32924 0.0
Li618 Li 0.50421 0.0627 0.36765 0.0
Li619 Li 0.53751 0.06857 0.33076 0.0
C620 C 0.43897 0.09184 0.37826 0.0
N621 N 0.4049 0.11481 0.41523 0.0
C622 C 0.3989 0.09529 0.37866 0.0
C623 C 0.46169 0.10014 0.39662 0.0
C624 C 0.38223 0.10694 0.39751 0.0
C625 C 0.44394 0.11168 0.41517 0.0
C626 C 0.51921 0.09329 0.29383 0.0
C627 C 0.54766 0.08086 0.25745 0.0
N628 N 0.56236 0.10238 0.25422 0.0
C629 C 0.53447 0.11531 0.29009 0.0
C630 C 0.52569 0.07594 0.27732 0.0
C631 C 0.55623 0.11956 0.26997 0.0
C632 C 0.52732 0.14568 0.34886 0.0
N633 N 0.49443 0.13287 0.34964 0.0
C634 C 0.45579 0.16691 0.35326 0.0
C635 C 0.45906 0.14295 0.35166 0.0
C636 C 0.48918 0.18076 0.35209 0.0
C637 C 0.52536 0.16973 0.34989 0.0
H638 H 0.55505 0.13719 0.34686 0.0
H639 H 0.43326 0.13244 0.35179 0.0
C640 C 0.38884 0.05143 0.32554 0.0
N641 N 0.42185 0.05456 0.313 0.0
C642 C 0.35359 0.04768 0.31413 0.0
C643 C 0.38734 0.04902 0.27719 0.0
C644 C 0.42182 0.05309 0.28929 0.0
C645 C 0.35249 0.04683 0.28961 0.0
H646 H 0.3897 0.0526 0.34438 0.0
H647 H 0.44823 0.0559 0.27967 0.0
C648 C 0.57532 0.08877 0.37469 0.0
N649 N 0.63824 0.09545 0.40377 0.0
C650 C 0.60723 0.07392 0.37354 0.0
C651 C 0.57565 0.10717 0.39046 0.0
C652 C 0.63869 0.07754 0.38843 0.0
C653 C 0.60766 0.11021 0.40507 0.0
C654 C 0.52293 0.02148 0.33355 0.0
C655 C 0.55463 0.01288 0.34601 0.0
C656 C 0.50901 0.00947 0.31412 0.0
C657 C 0.57226 0.99244 0.33862 0.0
C658 C 0.5274 0.98906 0.30733 0.0
N659 N 0.5584 0.98106 0.3196 0.0
C660 C 0.47134 0.04477 0.40974 0.0
C661 C 0.53967 0.0424 0.40786 0.0
C662 C 0.47157 0.03585 0.43248 0.0
N663 N 0.50517 0.04841 0.39812 0.0
C664 C 0.54128 0.03347 0.43049 0.0
C665 C 0.50699 0.03042 0.4433 0.0
H666 H 0.4441 0.04911 0.40152 0.0
H667 H 0.56607 0.0445 0.39813 0.0
C668 C 0.61053 0.08281 0.31655 0.0
N669 N 0.58628 0.06445 0.31458 0.0
C670 C 0.64698 0.08247 0.30608 0.0
C671 C 0.63255 0.0447 0.29062 0.0
C672 C 0.59636 0.04571 0.30157 0.0
C673 C 0.65857 0.06315 0.29306 0.0
H674 H 0.60148 0.09783 0.32634 0.0
H675 H 0.57634 0.03165 0.29935 0.0
O676 O 0.45588 0.08072 0.35979 0.0
O677 O 0.49858 0.08868 0.3137 0.0
O678 O 0.54451 0.08582 0.35991 0.0
O679 O 0.50507 0.04134 0.34055 0.0
H680 H 0.38088 0.08923 0.36447 0.0
H681 H 0.49266 0.09756 0.39661 0.0
H682 H 0.35127 0.10976 0.39803 0.0
H683 H 0.46121 0.11813 0.42952 0.0
H684 H 0.55329 0.06751 0.24469 0.0
H685 H 0.52961 0.12898 0.30259 0.0
H686 H 0.51495 0.05864 0.28019 0.0
H687 H 0.5683 0.13651 0.2669 0.0
H688 H 0.42728 0.17443 0.35532 0.0
H689 H 0.5519 0.17952 0.34838 0.0
H690 H 0.32735 0.0459 0.32434 0.0
H691 H 0.38766 0.04872 0.25826 0.0
H692 H 0.6075 0.05955 0.36149 0.0
H693 H 0.55152 0.11907 0.39137 0.0
H694 H 0.66344 0.0661 0.38782 0.0
H695 H 0.60823 0.12434 0.4174 0.0
H696 H 0.56564 0.02197 0.3611 0.0
H697 H 0.48437 0.0159 0.30437 0.0
H698 H 0.59696 0.98562 0.34801 0.0
H699 H 0.51707 0.9796 0.29228 0.0
H700 H 0.4444 0.03376 0.44166 0.0
H701 H 0.56917 0.02892 0.43786 0.0
H702 H 0.66574 0.09731 0.30796 0.0
H703 H 0.64027 0.02953 0.28061 0.0
H704 H 0.99965 0.29344 0.12757 0.0
H705 H 0.9813 0.29682 0.20213 0.0
H706 H 0.98009 0.25484 0.20427 0.0
H707 H 0.98579 0.21709 0.18527 0.0
H708 H 0.00599 0.21342 0.11099 0.0
H709 H 0.00592 0.25556 0.10857 0.0
C710 C 0.99573 0.28502 0.14433 0.0
C711 C 0.99038 0.29839 0.16462 0.0
C712 C 0.99564 0.26079 0.14553 0.0
C713 C 0.98478 0.28708 0.18613 0.0
C714 C 0.98438 0.26302 0.18743 0.0
C715 C 0.98978 0.22551 0.16851 0.0
C716 C 0.99576 0.21213 0.14833 0.0
C717 C 0.98981 0.24971 0.16726 0.0
C718 C 1.00163 0.22332 0.12681 0.0
C719 C 1.00143 0.24741 0.12541 0.0
H720 H 0.9535 0.79063 0.85792 0.0
H721 H 0.07817 0.79453 0.86099 0.0
H722 H 0.08239 0.75247 0.86179 0.0
H723 H 0.0508 0.71459 0.86078 0.0
H724 H 0.92616 0.71063 0.85708 0.0
H725 H 0.9218 0.75267 0.85804 0.0
C726 C 0.98156 0.78228 0.85908 0.0
C727 C 0.01546 0.79572 0.85928 0.0
C728 C 0.9838 0.75807 0.85949 0.0
C729 C 0.05164 0.7846 0.86047 0.0
C730 C 0.05409 0.76055 0.86103 0.0
C731 C 0.02268 0.72292 0.86006 0.0
C732 C 0.98889 0.70943 0.85878 0.0
C733 C 0.02038 0.74711 0.86031 0.0
C734 C 0.95264 0.72054 0.85832 0.0
C735 C 0.95011 0.74461 0.8587 0.0
H736 H 0.56343 0.71087 0.65011 0.0
H737 H 0.43874 0.70636 0.65155 0.0
H738 H 0.43385 0.74838 0.65089 0.0
H739 H 0.46491 0.78638 0.6516 0.0
H740 H 0.58961 0.79107 0.64993 0.0
H741 H 0.59454 0.74903 0.64948 0.0
C742 C 0.53521 0.7191 0.65036 0.0
C743 C 0.50152 0.70548 0.65089 0.0
C744 C 0.53258 0.7433 0.65012 0.0
C745 C 0.46513 0.71641 0.65086 0.0
C746 C 0.4623 0.74045 0.65063 0.0
C747 C 0.49318 0.77824 0.65078 0.0
C748 C 0.52682 0.79192 0.65089 0.0
C749 C 0.49582 0.75406 0.65041 0.0
C750 C 0.56322 0.781 0.65023 0.0
C751 C 0.56608 0.75695 0.64984 0.0
H752 H 0.45333 0.2875 0.34375 0.0
H753 H 0.56559 0.29161 0.3769 0.0
H754 H 0.56845 0.2497 0.37925 0.0
H755 H 0.54007 0.21182 0.37102 0.0
H756 H 0.43149 0.20791 0.33362 0.0
H757 H 0.42648 0.24976 0.33387 0.0
C758 C 0.47877 0.27934 0.35121 0.0
C759 C 0.50914 0.29295 0.36013 0.0
C760 C 0.48092 0.25515 0.35182 0.0
C761 C 0.54133 0.2818 0.37025 0.0
C762 C 0.54322 0.25773 0.37142 0.0
C763 C 0.5155 0.22003 0.36263 0.0
C764 C 0.48616 0.20646 0.35244 0.0
C765 C 0.51332 0.24424 0.3621 0.0
C766 C 0.4542 0.21766 0.34211 0.0
C767 C 0.45143 0.2417 0.34201 0.0
H768 H 0.28794 0.07228 0.29737 0.0
H769 H 0.33361 0.01867 0.25303 0.0
H770 H 0.27343 0.01848 0.23034 0.0
H771 H 0.20889 0.03501 0.22197 0.0
H772 H 0.16517 0.09006 0.26521 0.0
H773 H 0.22327 0.08816 0.28959 0.0
C774 C 0.28444 0.06031 0.28296 0.0
C775 C 0.31504 0.04542 0.27694 0.0
C776 C 0.25017 0.06066 0.26973 0.0
C777 C 0.31046 0.03033 0.25794 0.0
C778 C 0.27608 0.03021 0.24499 0.0
C779 C 0.21202 0.04638 0.2369 0.0
C780 C 0.18291 0.06266 0.24182 0.0
C781 C 0.2459 0.0455 0.25055 0.0
C782 C 0.18739 0.07751 0.26102 0.0
C783 C 0.22053 0.0764 0.27497 0.0
H784 H 0.71392 0.46693 0.29565 0.0
H785 H 0.65529 0.43224 0.23923 0.0
H786 H 0.71368 0.43454 0.2152 0.0
H787 H 0.78262 0.44392 0.21127 0.0
H788 H 0.84262 0.47678 0.2683 0.0
H789 H 0.78262 0.47778 0.29106 0.0
C790 C 0.71389 0.46022 0.27796 0.0
C791 C 0.68048 0.44943 0.26918 0.0
C792 C 0.74787 0.46112 0.26445 0.0
C793 C 0.68082 0.4405 0.24636 0.0
C794 C 0.71415 0.44181 0.23264 0.0
C795 C 0.78237 0.45167 0.22852 0.0
C796 C 0.81693 0.46032 0.23808 0.0
C797 C 0.74802 0.45173 0.24164 0.0
C798 C 0.81638 0.46991 0.26063 0.0
C799 C 0.7821 0.4705 0.27362 0.0
H800 H 0.22917 0.94792 0.79934 0.0
H801 H 0.16131 0.94735 0.73606 0.0
H802 H 0.22045 0.94815 0.71261 0.0
H803 H 0.29156 0.94672 0.71011 0.0
H804 H 0.35934 0.94605 0.77343 0.0
H805 H 0.30026 0.94818 0.79684 0.0
C806 C 0.22737 0.94834 0.78042 0.0
C807 C 0.19095 0.94754 0.76945 0.0
C808 C 0.2615 0.94844 0.76706 0.0
C809 C 0.18904 0.94774 0.7449 0.0
C810 C 0.22283 0.94825 0.73149 0.0
C811 C 0.29336 0.94741 0.72902 0.0
C812 C 0.32973 0.94619 0.74003 0.0
C813 C 0.25923 0.94827 0.74237 0.0
C814 C 0.33163 0.94675 0.76457 0.0
C815 C 0.29789 0.94802 0.77795 0.0
H816 H 0.72279 0.54753 0.71121 0.0
H817 H 0.65645 0.54974 0.77502 0.0
H818 H 0.71609 0.54798 0.79799 0.0
H819 H 0.78733 0.54844 0.79989 0.0
H820 H 0.85346 0.5469 0.736 0.0
H821 H 0.79372 0.54547 0.71314 0.0
C822 C 0.72133 0.5472 0.73014 0.0
C823 C 0.6852 0.54887 0.74137 0.0
C824 C 0.75575 0.54641 0.74324 0.0
C825 C 0.68391 0.54878 0.76594 0.0
C826 C 0.71799 0.54769 0.77909 0.0
C827 C 0.78863 0.54735 0.78099 0.0
C828 C 0.82475 0.54785 0.76965 0.0
C829 C 0.75412 0.54688 0.76793 0.0
C830 C 0.82598 0.54677 0.74512 0.0
C831 C 0.79185 0.54593 0.73204 0.0
H832 H 0.7347 0.93865 0.70694 0.0
H833 H 0.66195 0.95831 0.7649 0.0
H834 H 0.71867 0.9607 0.7903 0.0
H835 H 0.78872 0.95575 0.79646 0.0
H836 H 0.86105 0.93498 0.7387 0.0
H837 H 0.80479 0.93453 0.71287 0.0
C838 C 0.73124 0.9434 0.72515 0.0
C839 C 0.69409 0.94824 0.73399 0.0
C840 C 0.76393 0.94453 0.73973 0.0
C841 C 0.69023 0.95475 0.75755 0.0
C842 C 0.72263 0.95596 0.77215 0.0
C843 C 0.79213 0.95107 0.77823 0.0
C844 C 0.82907 0.94542 0.76956 0.0
C845 C 0.75957 0.95066 0.76349 0.0
C846 C 0.83307 0.93971 0.7458 0.0
C847 C 0.80086 0.93929 0.73103 0.0
H848 H 0.32997 0.58029 0.75508 0.0
H849 H 0.28898 0.52913 0.70651 0.0
H850 H 0.2262 0.52803 0.72655 0.0
H851 H 0.18246 0.54297 0.75685 0.0
H852 H 0.22614 0.59168 0.80758 0.0
H853 H 0.28806 0.59268 0.78746 0.0
C854 C 0.30723 0.56885 0.74903 0.0
C855 C 0.31368 0.55491 0.72937 0.0
C856 C 0.27165 0.56806 0.76084 0.0
C857 C 0.28442 0.53995 0.72169 0.0
C858 C 0.2486 0.5394 0.73308 0.0
C859 C 0.2056 0.55352 0.76385 0.0
C860 C 0.19899 0.56751 0.78362 0.0
C861 C 0.2418 0.55352 0.75259 0.0
C862 C 0.22961 0.58123 0.79205 0.0
C863 C 0.26534 0.58168 0.78068 0.0
H864 H 0.67768 0.04926 0.24898 0.0
H865 H 0.72725 0.07553 0.31284 0.0
H866 H 0.79133 0.07606 0.29487 0.0
H867 H 0.83314 0.06973 0.26091 0.0
H868 H 0.78352 0.04475 0.19648 0.0
H869 H 0.71998 0.04242 0.21498 0.0
C870 C 0.7026 0.05486 0.25902 0.0
C871 C 0.69764 0.06244 0.28219 0.0
C872 C 0.73943 0.05526 0.24852 0.0
C873 C 0.73017 0.0699 0.29488 0.0
C874 C 0.76686 0.07011 0.28466 0.0
C875 C 0.80842 0.06392 0.25082 0.0
C876 C 0.81328 0.05747 0.22729 0.0
C877 C 0.77178 0.06303 0.26143 0.0
C878 C 0.78091 0.04954 0.2147 0.0
C879 C 0.74441 0.04838 0.22521 0.0
H880 H 0.18985 0.41391 0.23905 0.0
H881 H 0.20204 0.48546 0.21987 0.0
H882 H 0.26406 0.48732 0.24064 0.0
H883 H 0.31543 0.4682 0.26348 0.0
H884 H 0.30046 0.39713 0.28453 0.0
H885 H 0.23947 0.3954 0.26338 0.0
C886 C 0.20624 0.42987 0.23935 0.0
C887 C 0.19168 0.44946 0.22782 0.0
C888 C 0.24152 0.43085 0.2515 0.0
C889 C 0.21273 0.47017 0.22868 0.0
C890 C 0.24819 0.4712 0.24048 0.0
C891 C 0.29869 0.4524 0.26372 0.0
C892 C 0.31312 0.43275 0.27542 0.0
C893 C 0.26294 0.45161 0.25192 0.0
C894 C 0.2909 0.41239 0.27522 0.0
C895 C 0.25569 0.4114 0.26329 0.0
H896 H 0.9638 0.02567 0.03529 0.0
H897 H 0.08387 0.0108 0.04999 0.0
H898 H 0.09088 0.99284 0.01162 0.0
H899 H 0.06321 0.98197 0.97354 0.0
H900 H 0.94309 0.99695 0.95903 0.0
H901 H 0.93618 0.01479 0.99739 0.0
C902 C 0.99163 0.0187 0.03004 0.0
C903 C 0.02324 0.01962 0.04555 0.0
C904 C 0.99556 0.00856 0.00788 0.0
C905 C 0.05889 0.01009 0.03856 0.0
C906 C 0.06301 0.99994 0.01654 0.0
C907 C 0.03544 0.98898 0.97883 0.0
C908 C 1.0038 0.9882 0.96332 0.0
C909 C 0.03154 0.99909 1.00104 0.0
C910 C 0.96814 0.99765 0.97041 0.0
C911 C 0.96406 0.00772 0.99243 0.0
H912 H 0.94686 0.52487 0.97233 0.0
H913 H 0.06116 0.49949 0.95556 0.0
H914 H 0.06539 0.48078 0.9936 0.0
H915 H 0.03742 0.47219 0.03205 0.0
H916 H 0.92243 0.4962 0.04854 0.0
H917 H 0.91733 0.51436 0.01002 0.0
C918 C 0.97248 0.51497 0.97682 0.0
C919 C 1.00382 0.51391 0.9611 0.0
C920 C 0.97461 0.50395 0.9987 0.0
C921 C 0.03692 0.50113 0.96744 0.0
C922 C 0.03931 0.49025 0.98917 0.0
C923 C 0.01129 0.48145 0.02719 0.0
C924 C 0.98046 0.483 0.04315 0.0
C925 C 0.00853 0.49176 1.00503 0.0
C926 C 0.94649 0.49468 0.03651 0.0
C927 C 0.94364 0.50515 0.01453 0.0
H928 H 0.50259 0.45774 0.48277 0.0
H929 H 0.51635 0.52277 0.44693 0.0
H930 H 0.51904 0.54291 0.48438 0.0
H931 H 0.51584 0.54219 0.52732 0.0
H932 H 0.50172 0.47711 0.56302 0.0
H933 H 0.4999 0.45697 0.5256 0.0
C934 C 0.50583 0.47635 0.48313 0.0
C935 C 0.50918 0.4887 0.46202 0.0
C936 C 0.50706 0.48785 0.50471 0.0
C937 C 0.51412 0.51277 0.46287 0.0
C938 C 0.51544 0.52434 0.48429 0.0
C939 C 0.51276 0.52357 0.52693 0.0
C940 C 0.50882 0.51121 0.54799 0.0
C941 C 0.51186 0.51206 0.50532 0.0
C942 C 0.50427 0.48711 0.5471 0.0
C943 C 0.50344 0.47555 0.52571 0.0
H944 H 0.53822 0.00316 0.54864 0.0
H945 H 0.44033 0.9588 0.53558 0.0
H946 H 0.43483 0.97409 0.49593 0.0
H947 H 0.45943 0.99899 0.46436 0.0
H948 H 0.5579 0.04289 0.47749 0.0
H949 H 0.56206 0.02843 0.51746 0.0
C950 C 0.51583 0.9967 0.53709 0.0
C951 C 0.48981 0.97979 0.54514 0.0
C952 C 0.51311 0.00534 0.5142 0.0
C953 C 0.4605 0.97199 0.53001 0.0
C954 C 0.45749 0.98061 0.50724 0.0
C955 C 0.48156 0.00556 0.47604 0.0
C956 C 0.50846 0.0219 0.46784 0.0
C957 C 0.48379 0.99719 0.49909 0.0
C958 C 0.53721 0.03003 0.48318 0.0
C959 C 0.53949 0.02188 0.50611 0.0
loop_
_geom_bond_atom_site_label_1
_geom_bond_atom_site_label_2
_geom_bond_distance
_geom_bond_site_symmetry_2
_ccdc_geom_bond_type
Li0 N17 1.990 . S
Li0 O60 1.956 . S
Li0 O61 1.970 1_455 S
Li0 O62 1.961 1_455 S
Li1 N25 1.990 . S
Li1 O60 1.970 . S
Li1 O61 1.942 1_455 S
Li1 O63 1.961 . S
Li2 N47 1.990 . S
Li2 O60 1.946 1_655 S
Li2 O62 1.970 . S
Li2 O63 1.970 1_655 S
Li3 N53 1.990 . S
Li3 O61 1.974 . S
Li3 O62 1.970 . S
Li3 O63 1.956 1_655 S
C4 C6 1.348 . S
C4 C7 1.356 . S
C4 O60 1.325 . S
N5 C8 1.314 . S
N5 C9 1.279 . S
C6 C4 1.348 . S
C6 C8 1.353 . S
C6 H64 0.929 . S
C7 C4 1.356 . S
C7 C9 1.358 . S
C7 H65 0.930 . S
C8 N5 1.314 . S
C8 C6 1.353 . S
C8 H66 0.930 . S
C9 N5 1.279 . S
C9 C7 1.358 . S
C9 H67 0.930 . S
C10 C13 1.350 . S
C10 C14 1.355 1_455 S
C10 O61 1.324 1_455 S
C11 N12 1.279 1_655 S
C11 C14 1.358 . S
C11 H68 0.930 . S
N12 C11 1.279 1_455 S
N12 C15 1.314 . S
C13 C10 1.350 . S
C13 C15 1.353 . S
C13 H69 0.929 . S
C14 C10 1.355 1_655 S
C14 C11 1.358 . S
C14 H70 0.930 . S
C15 N12 1.314 . S
C15 C13 1.353 . S
C15 H71 0.930 . S
C16 N17 1.314 1_655 S
C16 C21 1.353 . S
C16 H22 0.930 . S
N17 Li0 1.990 . S
N17 C16 1.314 1_455 S
N17 C19 1.279 . S
C18 C19 1.358 . S
C18 C20 1.367 . S
C18 H72 0.930 . S
C19 N17 1.279 . S
C19 C18 1.358 . S
C19 H23 0.930 . S
C20 C18 1.367 . S
C20 C21 1.336 1_455 S
C21 C16 1.353 . S
C21 C20 1.336 1_655 S
C21 H73 0.929 . S
H22 C16 0.930 . S
H23 C19 0.930 . S
C24 N25 1.314 . S
C24 C26 1.353 . S
C24 H30 0.930 . S
N25 Li1 1.990 . S
N25 C24 1.314 . S
N25 C28 1.279 . S
C26 C24 1.353 . S
C26 C29 1.348 . S
C26 H74 0.929 . S
C27 C28 1.358 . S
C27 C29 1.356 . S
C27 H75 0.930 . S
C28 N25 1.279 . S
C28 C27 1.358 . S
C28 H31 0.930 . S
C29 C26 1.348 . S
C29 C27 1.356 . S
H30 C24 0.930 . S
H31 C28 0.930 . S
C32 C34 1.348 . S
C32 C35 1.356 . S
C32 O62 1.325 . S
N33 C36 1.314 . S
N33 C37 1.279 . S
C34 C32 1.348 . S
C34 C36 1.353 . S
C34 H76 0.929 . S
C35 C32 1.356 . S
C35 C37 1.358 . S
C35 H77 0.930 . S
C36 N33 1.314 . S
C36 C34 1.353 . S
C36 H78 0.930 . S
C37 N33 1.279 . S
C37 C35 1.358 . S
C37 H79 0.930 . S
C38 C39 1.343 1_455 S
C38 C40 1.359 . S
C38 O63 1.325 . S
C39 C38 1.343 1_655 S
C39 C41 1.353 1_545 S
C39 H80 0.929 . S
C40 C38 1.359 . S
C40 C42 1.358 1_545 S
C40 H81 0.930 . S
C41 C39 1.353 1_565 S
C41 N43 1.314 . S
C41 H82 0.930 . S
C42 C40 1.358 1_565 S
C42 N43 1.279 1_455 S
C42 H83 0.930 . S
N43 C41 1.314 . S
N43 C42 1.279 1_655 S
C44 C46 1.353 . S
C44 N47 1.314 1_455 S
C44 H50 0.930 . S
C45 N47 1.279 . S
C45 C48 1.358 . S
C45 H51 0.930 . S
C46 C44 1.353 . S
C46 C49 1.355 . S
C46 H84 0.929 . S
N47 Li2 1.990 . S
N47 C44 1.314 1_655 S
N47 C45 1.279 . S
C48 C45 1.358 . S
C48 C49 1.349 1_655 S
C48 H85 0.930 . S
C49 C46 1.355 . S
C49 C48 1.349 1_455 S
H50 C44 0.930 . S
H51 C45 0.930 . S
C52 N53 1.314 . S
C52 C54 1.353 . S
C52 H58 0.930 . S
N53 Li3 1.990 . S
N53 C52 1.314 . S
N53 C56 1.279 . S
C54 C52 1.353 . S
C54 C57 1.348 . S
C54 H86 0.929 . S
C55 C56 1.358 . S
C55 C57 1.356 . S
C55 H87 0.930 . S
C56 N53 1.279 . S
C56 C55 1.358 . S
C56 H59 0.930 . S
C57 C54 1.348 . S
C57 C55 1.356 . S
H58 C52 0.930 . S
H59 C56 0.930 . S
O60 Li0 1.956 . S
O60 Li1 1.970 . S
O60 Li2 1.946 1_455 S
O60 C4 1.325 . S
O61 Li0 1.970 1_655 S
O61 Li1 1.942 1_655 S
O61 Li3 1.974 . S
O61 C10 1.324 1_655 S
O62 Li0 1.961 1_655 S
O62 Li2 1.970 . S
O62 Li3 1.970 . S
O62 C32 1.325 . S
O63 Li1 1.961 . S
O63 Li2 1.970 1_455 S
O63 Li3 1.956 1_455 S
O63 C38 1.325 . S
H64 C6 0.929 . S
H65 C7 0.930 . S
H66 C8 0.930 . S
H67 C9 0.930 . S
H68 C11 0.930 . S
H69 C13 0.929 . S
H70 C14 0.930 . S
H71 C15 0.930 . S
H72 C18 0.930 . S
H73 C21 0.929 . S
H74 C26 0.929 . S
H75 C27 0.930 . S
H76 C34 0.929 . S
H77 C35 0.930 . S
H78 C36 0.930 . S
H79 C37 0.930 . S
H80 C39 0.929 . S
H81 C40 0.930 . S
H82 C41 0.930 . S
H83 C42 0.930 . S
H84 C46 0.929 . S
H85 C48 0.930 . S
H86 C54 0.929 . S
H87 C55 0.930 . S
Li88 N105 1.990 . S
Li88 O148 1.956 . S
Li88 O149 1.969 1_455 S
Li88 O150 1.961 1_455 S
Li89 N113 1.990 . S
Li89 O148 1.970 . S
Li89 O149 1.936 1_455 S
Li89 O151 1.961 . S
Li90 N135 1.991 . S
Li90 O148 1.939 1_655 S
Li90 O150 1.977 . S
Li90 O151 1.969 1_655 S
Li91 N141 1.990 . S
Li91 O149 1.980 . S
Li91 O150 1.970 . S
Li91 O151 1.956 1_655 S
C92 C94 1.348 . S
C92 C95 1.356 . S
C92 O148 1.325 . S
N93 C96 1.314 . S
N93 C97 1.279 . S
C94 C92 1.348 . S
C94 C96 1.353 . S
C94 H152 0.929 . S
C95 C92 1.356 . S
C95 C97 1.358 . S
C95 H153 0.930 . S
C96 N93 1.314 . S
C96 C94 1.353 . S
C96 H154 0.930 . S
C97 N93 1.279 . S
C97 C95 1.358 . S
C97 H155 0.930 . S
C98 C101 1.347 . S
C98 C102 1.356 1_455 S
C98 O149 1.324 1_455 S
C99 N100 1.279 1_655 S
C99 C102 1.358 . S
C99 H156 0.930 . S
N100 C99 1.279 1_455 S
N100 C103 1.314 . S
C101 C98 1.347 . S
C101 C103 1.353 . S
C101 H157 0.929 . S
C102 C98 1.356 1_655 S
C102 C99 1.358 . S
C102 H158 0.930 . S
C103 N100 1.314 . S
C103 C101 1.353 . S
C103 H159 0.930 . S
C104 N105 1.314 1_655 S
C104 C109 1.353 . S
C104 H110 0.930 . S
N105 Li88 1.990 . S
N105 C104 1.314 1_455 S
N105 C107 1.279 . S
C106 C107 1.358 . S
C106 C108 1.360 . S
C106 H160 0.930 . S
C107 N105 1.279 . S
C107 C106 1.358 . S
C107 H111 0.930 . S
C108 C106 1.360 . S
C108 C109 1.344 1_455 S
C109 C104 1.353 . S
C109 C108 1.344 1_655 S
C109 H161 0.929 . S
H110 C104 0.930 . S
H111 C107 0.930 . S
C112 N113 1.314 . S
C112 C114 1.353 . S
C112 H118 0.930 . S
N113 Li89 1.990 . S
N113 C112 1.314 . S
N113 C116 1.279 . S
C114 C112 1.353 . S
C114 C117 1.348 . S
C114 H162 0.929 . S
C115 C116 1.358 . S
C115 C117 1.356 . S
C115 H163 0.930 . S
C116 N113 1.279 . S
C116 C115 1.358 . S
C116 H119 0.930 . S
C117 C114 1.348 . S
C117 C115 1.356 . S
H118 C112 0.930 . S
H119 C116 0.930 . S
C120 C122 1.348 . S
C120 C123 1.356 . S
C120 O150 1.325 . S
N121 C124 1.314 . S
N121 C125 1.279 . S
C122 C120 1.348 . S
C122 C124 1.353 . S
C122 H164 0.929 . S
C123 C120 1.356 . S
C123 C125 1.358 . S
C123 H165 0.930 . S
C124 N121 1.314 . S
C124 C122 1.353 . S
C124 H166 0.930 . S
C125 N121 1.279 . S
C125 C123 1.358 . S
C125 H167 0.930 . S
C126 C127 1.346 1_455 S
C126 C128 1.357 . S
C126 O151 1.325 . S
C127 C126 1.346 1_655 S
C127 C129 1.353 . S
C127 H168 0.929 . S
C128 C126 1.357 . S
C128 C130 1.358 . S
C128 H169 0.930 . S
C129 C127 1.353 . S
C129 N131 1.314 . S
C129 H170 0.930 . S
C130 C128 1.358 . S
C130 N131 1.279 1_455 S
C130 H171 0.930 . S
N131 C129 1.314 . S
N131 C130 1.279 1_655 S
C132 C134 1.353 . S
C132 N135 1.314 1_455 S
C132 H138 0.930 . S
C133 N135 1.279 . S
C133 C136 1.358 . S
C133 H139 0.930 . S
C134 C132 1.353 . S
C134 C137 1.347 . S
C134 H172 0.929 . S
N135 Li90 1.991 . S
N135 C132 1.314 1_655 S
N135 C133 1.279 . S
C136 C133 1.358 . S
C136 C137 1.356 1_655 S
C136 H173 0.930 . S
C137 C134 1.347 . S
C137 C136 1.356 1_455 S
H138 C132 0.930 . S
H139 C133 0.930 . S
C140 N141 1.314 . S
C140 C142 1.353 . S
C140 H146 0.930 . S
N141 Li91 1.990 . S
N141 C140 1.314 . S
N141 C144 1.279 . S
C142 C140 1.353 . S
C142 C145 1.348 . S
C142 H174 0.929 . S
C143 C144 1.358 . S
C143 C145 1.356 . S
C143 H175 0.930 . S
C144 N141 1.279 . S
C144 C143 1.358 . S
C144 H147 0.930 . S
C145 C142 1.348 . S
C145 C143 1.356 . S
H146 C140 0.930 . S
H147 C144 0.930 . S
O148 Li88 1.956 . S
O148 Li89 1.970 . S
O148 Li90 1.939 1_455 S
O148 C92 1.325 . S
O149 Li88 1.969 1_655 S
O149 Li89 1.936 1_655 S
O149 Li91 1.980 . S
O149 C98 1.324 1_655 S
O150 Li88 1.961 1_655 S
O150 Li90 1.977 . S
O150 Li91 1.970 . S
O150 C120 1.325 . S
O151 Li89 1.961 . S
O151 Li90 1.969 1_455 S
O151 Li91 1.956 1_455 S
O151 C126 1.325 . S
H152 C94 0.929 . S
H153 C95 0.930 . S
H154 C96 0.930 . S
H155 C97 0.930 . S
H156 C99 0.930 . S
H157 C101 0.929 . S
H158 C102 0.930 . S
H159 C103 0.930 . S
H160 C106 0.930 . S
H161 C109 0.929 . S
H162 C114 0.929 . S
H163 C115 0.930 . S
H164 C122 0.929 . S
H165 C123 0.930 . S
H166 C124 0.930 . S
H167 C125 0.930 . S
H168 C127 0.929 . S
H169 C128 0.930 . S
H170 C129 0.930 . S
H171 C130 0.930 . S
H172 C134 0.929 . S
H173 C136 0.930 . S
H174 C142 0.929 . S
H175 C143 0.930 . S
Li176 N193 1.990 . S
Li176 O236 1.970 . S
Li176 O237 1.970 1_655 S
Li176 O238 1.946 1_655 S
Li177 N201 1.990 . S
Li177 O236 1.970 . S
Li177 O237 1.956 1_655 S
Li177 O239 1.974 . S
Li178 N223 1.990 . S
Li178 O236 1.961 1_455 S
Li178 O238 1.956 . S
Li178 O239 1.970 1_455 S
Li179 N229 1.990 . S
Li179 O237 1.961 . S
Li179 O238 1.970 . S
Li179 O239 1.942 1_455 S
C180 C182 1.348 . S
C180 C183 1.356 . S
C180 O236 1.325 . S
N181 C184 1.314 . S
N181 C185 1.279 . S
C182 C180 1.348 . S
C182 C184 1.353 . S
C182 H240 0.929 . S
C183 C180 1.356 . S
C183 C185 1.358 . S
C183 H241 0.930 . S
C184 N181 1.314 . S
C184 C182 1.353 . S
C184 H242 0.930 . S
C185 N181 1.279 . S
C185 C183 1.358 . S
C185 H243 0.930 . S
C186 C189 1.343 1_455 S
C186 C190 1.359 . S
C186 O237 1.325 . S
C187 N188 1.279 1_455 S
C187 C190 1.358 1_545 S
C187 H244 0.930 . S
N188 C187 1.279 1_655 S
N188 C191 1.314 . S
C189 C186 1.343 1_655 S
C189 C191 1.353 1_565 S
C189 H245 0.929 . S
C190 C186 1.359 . S
C190 C187 1.358 1_565 S
C190 H246 0.930 . S
C191 N188 1.314 . S
C191 C189 1.353 1_545 S
C191 H247 0.930 . S
C192 N193 1.314 1_455 S
C192 C197 1.353 . S
C192 H198 0.930 . S
N193 Li176 1.990 . S
N193 C192 1.314 1_655 S
N193 C195 1.279 . S
C194 C195 1.358 . S
C194 C196 1.349 1_655 S
C194 H248 0.930 . S
C195 N193 1.279 . S
C195 C194 1.358 . S
C195 H199 0.930 . S
C196 C194 1.349 1_455 S
C196 C197 1.355 . S
C197 C192 1.353 . S
C197 C196 1.355 . S
C197 H249 0.929 . S
H198 C192 0.930 . S
H199 C195 0.930 . S
C200 N201 1.314 . S
C200 C202 1.353 . S
C200 H206 0.930 . S
N201 Li177 1.990 . S
N201 C200 1.314 . S
N201 C204 1.279 . S
C202 C200 1.353 . S
C202 C205 1.348 . S
C202 H250 0.929 . S
C203 C204 1.358 . S
C203 C205 1.356 . S
C203 H251 0.930 . S
C204 N201 1.279 . S
C204 C203 1.358 . S
C204 H207 0.930 . S
C205 C202 1.348 . S
C205 C203 1.356 . S
H206 C200 0.930 . S
H207 C204 0.930 . S
C208 C210 1.348 . S
C208 C211 1.356 . S
C208 O238 1.325 . S
N209 C212 1.314 . S
N209 C213 1.279 . S
C210 C208 1.348 . S
C210 C212 1.353 . S
C210 H252 0.929 . S
C211 C208 1.356 . S
C211 C213 1.358 . S
C211 H253 0.930 . S
C212 N209 1.314 . S
C212 C210 1.353 . S
C212 H254 0.930 . S
C213 N209 1.279 . S
C213 C211 1.358 . S
C213 H255 0.930 . S
C214 C215 1.350 . S
C214 C216 1.355 1_455 S
C214 O239 1.324 1_455 S
C215 C214 1.350 . S
C215 C217 1.353 . S
C215 H256 0.929 . S
C216 C214 1.355 1_655 S
C216 C218 1.358 . S
C216 H257 0.930 . S
C217 C215 1.353 . S
C217 N219 1.314 . S
C217 H258 0.930 . S
C218 C216 1.358 . S
C218 N219 1.279 1_655 S
C218 H259 0.930 . S
N219 C217 1.314 . S
N219 C218 1.279 1_455 S
C220 C222 1.353 . S
C220 N223 1.314 1_655 S
C220 H226 0.930 . S
C221 N223 1.279 . S
C221 C224 1.358 . S
C221 H227 0.930 . S
C222 C220 1.353 . S
C222 C225 1.336 1_655 S
C222 H260 0.929 . S
N223 Li178 1.990 . S
N223 C220 1.314 1_455 S
N223 C221 1.279 . S
C224 C221 1.358 . S
C224 C225 1.367 . S
C224 H261 0.930 . S
C225 C222 1.336 1_455 S
C225 C224 1.367 . S
H226 C220 0.930 . S
H227 C221 0.930 . S
C228 N229 1.314 . S
C228 C230 1.353 . S
C228 H234 0.930 . S
N229 Li179 1.990 . S
N229 C228 1.314 . S
N229 C232 1.279 . S
C230 C228 1.353 . S
C230 C233 1.348 . S
C230 H262 0.929 . S
C231 C232 1.358 . S
C231 C233 1.356 . S
C231 H263 0.930 . S
C232 N229 1.279 . S
C232 C231 1.358 . S
C232 H235 0.930 . S
C233 C230 1.348 . S
C233 C231 1.356 . S
H234 C228 0.930 . S
H235 C232 0.930 . S
O236 Li176 1.970 . S
O236 Li177 1.970 . S
O236 Li178 1.961 1_655 S
O236 C180 1.325 . S
O237 Li176 1.970 1_455 S
O237 Li177 1.956 1_455 S
O237 Li179 1.961 . S
O237 C186 1.325 . S
O238 Li176 1.946 1_455 S
O238 Li178 1.956 . S
O238 Li179 1.970 . S
O238 C208 1.325 . S
O239 Li177 1.974 . S
O239 Li178 1.970 1_655 S
O239 Li179 1.942 1_655 S
O239 C214 1.324 1_655 S
H240 C182 0.929 . S
H241 C183 0.930 . S
H242 C184 0.930 . S
H243 C185 0.930 . S
H244 C187 0.930 . S
H245 C189 0.929 . S
H246 C190 0.930 . S
H247 C191 0.930 . S
H248 C194 0.930 . S
H249 C197 0.929 . S
H250 C202 0.929 . S
H251 C203 0.930 . S
H252 C210 0.929 . S
H253 C211 0.930 . S
H254 C212 0.930 . S
H255 C213 0.930 . S
H256 C215 0.929 . S
H257 C216 0.930 . S
H258 C217 0.930 . S
H259 C218 0.930 . S
H260 C222 0.929 . S
H261 C224 0.930 . S
H262 C230 0.929 . S
H263 C231 0.930 . S
Li264 N281 1.990 . S
Li264 O324 1.956 1_655 S
Li264 O325 1.970 . S
Li264 O326 1.980 . S
Li265 N289 1.991 . S
Li265 O324 1.969 1_655 S
Li265 O325 1.977 . S
Li265 O327 1.939 1_655 S
Li266 N311 1.990 . S
Li266 O324 1.961 . S
Li266 O326 1.936 1_455 S
Li266 O327 1.970 . S
Li267 N317 1.990 . S
Li267 O325 1.961 1_455 S
Li267 O326 1.969 1_455 S
Li267 O327 1.956 . S
C268 C270 1.346 1_455 S
C268 C271 1.357 . S
C268 O324 1.325 . S
N269 C272 1.314 . S
N269 C273 1.279 1_655 S
C270 C268 1.346 1_655 S
C270 C272 1.353 . S
C270 H328 0.929 . S
C271 C268 1.357 . S
C271 C273 1.358 . S
C271 H329 0.930 . S
C272 N269 1.314 . S
C272 C270 1.353 . S
C272 H330 0.930 . S
C273 N269 1.279 1_455 S
C273 C271 1.358 . S
C273 H331 0.930 . S
C274 C277 1.348 . S
C274 C278 1.356 . S
C274 O325 1.325 . S
C275 N276 1.279 . S
C275 C278 1.358 . S
C275 H332 0.930 . S
N276 C275 1.279 . S
N276 C279 1.314 . S
C277 C274 1.348 . S
C277 C279 1.353 . S
C277 H333 0.929 . S
C278 C274 1.356 . S
C278 C275 1.358 . S
C278 H334 0.930 . S
C279 N276 1.314 . S
C279 C277 1.353 . S
C279 H335 0.930 . S
C280 N281 1.314 . S
C280 C285 1.353 . S
C280 H286 0.930 . S
N281 Li264 1.990 . S
N281 C280 1.314 . S
N281 C283 1.279 . S
C282 C283 1.358 . S
C282 C284 1.356 . S
C282 H336 0.930 . S
C283 N281 1.279 . S
C283 C282 1.358 . S
C283 H287 0.930 . S
C284 C282 1.356 . S
C284 C285 1.348 . S
C285 C280 1.353 . S
C285 C284 1.348 . S
C285 H337 0.929 . S
H286 C280 0.930 . S
H287 C283 0.930 . S
C288 N289 1.314 1_455 S
C288 C290 1.353 . S
C288 H294 0.930 . S
N289 Li265 1.991 . S
N289 C288 1.314 1_655 S
N289 C292 1.279 . S
C290 C288 1.353 . S
C290 C293 1.347 . S
C290 H338 0.929 . S
C291 C292 1.358 . S
C291 C293 1.356 1_655 S
C291 H339 0.930 . S
C292 N289 1.279 . S
C292 C291 1.358 . S
C292 H295 0.930 . S
C293 C290 1.347 . S
C293 C291 1.356 1_455 S
H294 C288 0.930 . S
H295 C292 0.930 . S
C296 C298 1.347 . S
C296 C299 1.356 1_455 S
C296 O326 1.324 1_455 S
N297 C300 1.314 . S
N297 C301 1.279 1_455 S
C298 C296 1.347 . S
C298 C300 1.353 . S
C298 H340 0.929 . S
C299 C296 1.356 1_655 S
C299 C301 1.358 . S
C299 H341 0.930 . S
C300 N297 1.314 . S
C300 C298 1.353 . S
C300 H342 0.930 . S
C301 N297 1.279 1_655 S
C301 C299 1.358 . S
C301 H343 0.930 . S
C302 C303 1.348 . S
C302 C304 1.356 . S
C302 O327 1.325 . S
C303 C302 1.348 . S
C303 C305 1.353 . S
C303 H344 0.929 . S
C304 C302 1.356 . S
C304 C306 1.358 . S
C304 H345 0.930 . S
C305 C303 1.353 . S
C305 N307 1.314 . S
C305 H346 0.930 . S
C306 C304 1.358 . S
C306 N307 1.279 . S
C306 H347 0.930 . S
N307 C305 1.314 . S
N307 C306 1.279 . S
C308 C310 1.353 . S
C308 N311 1.314 . S
C308 H314 0.930 . S
C309 N311 1.279 . S
C309 C312 1.358 . S
C309 H315 0.930 . S
C310 C308 1.353 . S
C310 C313 1.348 . S
C310 H348 0.929 . S
N311 Li266 1.990 . S
N311 C308 1.314 . S
N311 C309 1.279 . S
C312 C309 1.358 . S
C312 C313 1.356 . S
C312 H349 0.930 . S
C313 C310 1.348 . S
C313 C312 1.356 . S
H314 C308 0.930 . S
H315 C309 0.930 . S
C316 N317 1.314 1_655 S
C316 C318 1.353 . S
C316 H322 0.930 . S
N317 Li267 1.990 . S
N317 C316 1.314 1_455 S
N317 C320 1.279 . S
C318 C316 1.353 . S
C318 C321 1.344 1_655 S
C318 H350 0.929 . S
C319 C320 1.358 . S
C319 C321 1.360 . S
C319 H351 0.930 . S
C320 N317 1.279 . S
C320 C319 1.358 . S
C320 H323 0.930 . S
C321 C318 1.344 1_455 S
C321 C319 1.360 . S
H322 C316 0.930 . S
H323 C320 0.930 . S
O324 Li264 1.956 1_455 S
O324 Li265 1.969 1_455 S
O324 Li266 1.961 . S
O324 C268 1.325 . S
O325 Li264 1.970 . S
O325 Li265 1.977 . S
O325 Li267 1.961 1_655 S
O325 C274 1.325 . S
O326 Li264 1.980 . S
O326 Li266 1.936 1_655 S
O326 Li267 1.969 1_655 S
O326 C296 1.324 1_655 S
O327 Li265 1.939 1_455 S
O327 Li266 1.970 . S
O327 Li267 1.956 . S
O327 C302 1.325 . S
H328 C270 0.929 . S
H329 C271 0.930 . S
H330 C272 0.930 . S
H331 C273 0.930 . S
H332 C275 0.930 . S
H333 C277 0.929 . S
H334 C278 0.930 . S
H335 C279 0.930 . S
H336 C282 0.930 . S
H337 C285 0.929 . S
H338 C290 0.929 . S
H339 C291 0.930 . S
H340 C298 0.929 . S
H341 C299 0.930 . S
H342 C300 0.930 . S
H343 C301 0.930 . S
H344 C303 0.929 . S
H345 C304 0.930 . S
H346 C305 0.930 . S
H347 C306 0.930 . S
H348 C310 0.929 . S
H349 C312 0.930 . S
H350 C318 0.929 . S
H351 C319 0.930 . S
Li352 N369 1.990 . S
Li352 O412 1.956 . S
Li352 O413 1.970 . S
Li352 O414 1.961 . S
Li353 N377 1.990 . S
Li353 O412 1.970 . S
Li353 O413 1.956 . S
Li353 O415 1.961 . S
Li354 N399 1.990 . S
Li354 O412 1.961 . S
Li354 O414 1.956 . S
Li354 O415 1.970 . S
Li355 N405 1.990 . S
Li355 O413 1.961 . S
Li355 O414 1.970 . S
Li355 O415 1.956 . S
C356 C358 1.348 . S
C356 C359 1.356 . S
C356 O412 1.325 . S
N357 C360 1.314 . S
N357 C361 1.279 . S
C358 C356 1.348 . S
C358 C360 1.353 . S
C358 H416 0.929 . S
C359 C356 1.356 . S
C359 C361 1.358 . S
C359 H417 0.930 . S
C360 N357 1.314 . S
C360 C358 1.353 . S
C360 H418 0.930 . S
C361 N357 1.279 . S
C361 C359 1.358 . S
C361 H419 0.930 . S
C362 C365 1.348 . S
C362 C366 1.356 . S
C362 O413 1.325 . S
C363 N364 1.279 . S
C363 C366 1.358 . S
C363 H420 0.930 . S
N364 C363 1.279 . S
N364 C367 1.314 . S
C365 C362 1.348 . S
C365 C367 1.353 . S
C365 H421 0.929 . S
C366 C362 1.356 . S
C366 C363 1.358 . S
C366 H422 0.930 . S
C367 N364 1.314 . S
C367 C365 1.353 . S
C367 H423 0.930 . S
C368 N369 1.314 . S
C368 C373 1.353 . S
C368 H374 0.930 . S
N369 Li352 1.990 . S
N369 C368 1.314 . S
N369 C371 1.279 . S
C370 C371 1.358 . S
C370 C372 1.356 . S
C370 H424 0.930 . S
C371 N369 1.279 . S
C371 C370 1.358 . S
C371 H375 0.930 . S
C372 C370 1.356 . S
C372 C373 1.348 . S
C373 C368 1.353 . S
C373 C372 1.348 . S
C373 H425 0.929 . S
H374 C368 0.930 . S
H375 C371 0.930 . S
C376 N377 1.314 . S
C376 C378 1.353 . S
C376 H382 0.930 . S
N377 Li353 1.990 . S
N377 C376 1.314 . S
N377 C380 1.279 . S
C378 C376 1.353 . S
C378 C381 1.348 . S
C378 H426 0.929 . S
C379 C380 1.358 . S
C379 C381 1.356 . S
C379 H427 0.930 . S
C380 N377 1.279 . S
C380 C379 1.358 . S
C380 H383 0.930 . S
C381 C378 1.348 . S
C381 C379 1.356 . S
H382 C376 0.930 . S
H383 C380 0.930 . S
C384 C386 1.348 . S
C384 C387 1.356 . S
C384 O414 1.325 . S
N385 C388 1.314 . S
N385 C389 1.279 . S
C386 C384 1.348 . S
C386 C388 1.353 . S
C386 H428 0.929 . S
C387 C384 1.356 . S
C387 C389 1.358 . S
C387 H429 0.930 . S
C388 N385 1.314 . S
C388 C386 1.353 . S
C388 H430 0.930 . S
C389 N385 1.279 . S
C389 C387 1.358 . S
C389 H431 0.930 . S
C390 C391 1.348 . S
C390 C392 1.356 . S
C390 O415 1.325 . S
C391 C390 1.348 . S
C391 C393 1.353 . S
C391 H432 0.929 . S
C392 C390 1.356 . S
C392 C394 1.358 . S
C392 H433 0.930 . S
C393 C391 1.353 . S
C393 N395 1.314 . S
C393 H434 0.930 . S
C394 C392 1.358 . S
C394 N395 1.279 . S
C394 H435 0.930 . S
N395 C393 1.314 . S
N395 C394 1.279 . S
C396 C398 1.353 . S
C396 N399 1.314 . S
C396 H402 0.930 . S
C397 N399 1.279 . S
C397 C400 1.358 . S
C397 H403 0.930 . S
C398 C396 1.353 . S
C398 C401 1.348 . S
C398 H436 0.929 . S
N399 Li354 1.990 . S
N399 C396 1.314 . S
N399 C397 1.279 . S
C400 C397 1.358 . S
C400 C401 1.356 . S
C400 H437 0.930 . S
C401 C398 1.348 . S
C401 C400 1.356 . S
H402 C396 0.930 . S
H403 C397 0.930 . S
C404 N405 1.314 . S
C404 C406 1.353 . S
C404 H410 0.930 . S
N405 Li355 1.990 . S
N405 C404 1.314 . S
N405 C408 1.279 . S
C406 C404 1.353 . S
C406 C409 1.348 . S
C406 H438 0.929 . S
C407 C408 1.358 . S
C407 C409 1.356 . S
C407 H439 0.930 . S
C408 N405 1.279 . S
C408 C407 1.358 . S
C408 H411 0.930 . S
C409 C406 1.348 . S
C409 C407 1.356 . S
H410 C404 0.930 . S
H411 C408 0.930 . S
O412 Li352 1.956 . S
O412 Li353 1.970 . S
O412 Li354 1.961 . S
O412 C356 1.325 . S
O413 Li352 1.970 . S
O413 Li353 1.956 . S
O413 Li355 1.961 . S
O413 C362 1.325 . S
O414 Li352 1.961 . S
O414 Li354 1.956 . S
O414 Li355 1.970 . S
O414 C384 1.325 . S
O415 Li353 1.961 . S
O415 Li354 1.970 . S
O415 Li355 1.956 . S
O415 C390 1.325 . S
H416 C358 0.929 . S
H417 C359 0.930 . S
H418 C360 0.930 . S
H419 C361 0.930 . S
H420 C363 0.930 . S
H421 C365 0.929 . S
H422 C366 0.930 . S
H423 C367 0.930 . S
H424 C370 0.930 . S
H425 C373 0.929 . S
H426 C378 0.929 . S
H427 C379 0.930 . S
H428 C386 0.929 . S
H429 C387 0.930 . S
H430 C388 0.930 . S
H431 C389 0.930 . S
H432 C391 0.929 . S
H433 C392 0.930 . S
H434 C393 0.930 . S
H435 C394 0.930 . S
H436 C398 0.929 . S
H437 C400 0.930 . S
H438 C406 0.929 . S
H439 C407 0.930 . S
Li440 N457 1.990 . S
Li440 O500 1.956 . S
Li440 O501 1.970 . S
Li440 O502 1.961 . S
Li441 N465 1.990 . S
Li441 O500 1.970 . S
Li441 O501 1.956 . S
Li441 O503 1.961 . S
Li442 N487 1.990 . S
Li442 O500 1.961 . S
Li442 O502 1.956 . S
Li442 O503 1.970 . S
Li443 N493 1.990 . S
Li443 O501 1.961 . S
Li443 O502 1.970 . S
Li443 O503 1.956 . S
C444 C446 1.348 . S
C444 C447 1.356 . S
C444 O500 1.325 . S
N445 C448 1.314 . S
N445 C449 1.279 . S
C446 C444 1.348 . S
C446 C448 1.353 . S
C446 H504 0.929 . S
C447 C444 1.356 . S
C447 C449 1.358 . S
C447 H505 0.930 . S
C448 N445 1.314 . S
C448 C446 1.353 . S
C448 H506 0.930 . S
C449 N445 1.279 . S
C449 C447 1.358 . S
C449 H507 0.930 . S
C450 C453 1.348 . S
C450 C454 1.356 . S
C450 O501 1.325 . S
C451 N452 1.279 . S
C451 C454 1.358 1_545 S
C451 H508 0.930 . S
N452 C451 1.279 . S
N452 C455 1.314 . S
C453 C450 1.348 . S
C453 C455 1.353 1_565 S
C453 H509 0.929 . S
C454 C450 1.356 . S
C454 C451 1.358 1_565 S
C454 H510 0.930 . S
C455 N452 1.314 . S
C455 C453 1.353 1_545 S
C455 H511 0.930 . S
C456 N457 1.314 . S
C456 C461 1.353 . S
C456 H462 0.930 . S
N457 Li440 1.990 . S
N457 C456 1.314 . S
N457 C459 1.279 . S
C458 C459 1.358 . S
C458 C460 1.356 . S
C458 H512 0.930 . S
C459 N457 1.279 . S
C459 C458 1.358 . S
C459 H463 0.930 . S
C460 C458 1.356 . S
C460 C461 1.348 . S
C461 C456 1.353 . S
C461 C460 1.348 . S
C461 H513 0.929 . S
H462 C456 0.930 . S
H463 C459 0.930 . S
C464 N465 1.314 . S
C464 C466 1.353 . S
C464 H470 0.930 . S
N465 Li441 1.990 . S
N465 C464 1.314 . S
N465 C468 1.279 . S
C466 C464 1.353 . S
C466 C469 1.348 . S
C466 H514 0.929 . S
C467 C468 1.358 . S
C467 C469 1.356 . S
C467 H515 0.930 . S
C468 N465 1.279 . S
C468 C467 1.358 . S
C468 H471 0.930 . S
C469 C466 1.348 . S
C469 C467 1.356 . S
H470 C464 0.930 . S
H471 C468 0.930 . S
C472 C474 1.348 . S
C472 C475 1.356 . S
C472 O502 1.325 . S
N473 C476 1.314 . S
N473 C477 1.279 . S
C474 C472 1.348 . S
C474 C476 1.353 . S
C474 H516 0.929 . S
C475 C472 1.356 . S
C475 C477 1.358 . S
C475 H517 0.930 . S
C476 N473 1.314 . S
C476 C474 1.353 . S
C476 H518 0.930 . S
C477 N473 1.279 . S
C477 C475 1.358 . S
C477 H519 0.930 . S
C478 C479 1.348 . S
C478 C480 1.356 . S
C478 O503 1.325 . S
C479 C478 1.348 . S
C479 C481 1.353 . S
C479 H520 0.929 . S
C480 C478 1.356 . S
C480 C482 1.358 . S
C480 H521 0.930 . S
C481 C479 1.353 . S
C481 N483 1.314 . S
C481 H522 0.930 . S
C482 C480 1.358 . S
C482 N483 1.279 . S
C482 H523 0.930 . S
N483 C481 1.314 . S
N483 C482 1.279 . S
C484 C486 1.353 . S
C484 N487 1.314 . S
C484 H490 0.930 . S
C485 N487 1.279 . S
C485 C488 1.358 . S
C485 H491 0.930 . S
C486 C484 1.353 . S
C486 C489 1.348 . S
C486 H524 0.929 . S
N487 Li442 1.990 . S
N487 C484 1.314 . S
N487 C485 1.279 . S
C488 C485 1.358 . S
C488 C489 1.356 . S
C488 H525 0.930 . S
C489 C486 1.348 . S
C489 C488 1.356 . S
H490 C484 0.930 . S
H491 C485 0.930 . S
C492 N493 1.314 . S
C492 C494 1.353 . S
C492 H498 0.930 . S
N493 Li443 1.990 . S
N493 C492 1.314 . S
N493 C496 1.279 . S
C494 C492 1.353 . S
C494 C497 1.348 . S
C494 H526 0.929 . S
C495 C496 1.358 . S
C495 C497 1.356 . S
C495 H527 0.930 . S
C496 N493 1.279 . S
C496 C495 1.358 . S
C496 H499 0.930 . S
C497 C494 1.348 . S
C497 C495 1.356 . S
H498 C492 0.930 . S
H499 C496 0.930 . S
O500 Li440 1.956 . S
O500 Li441 1.970 . S
O500 Li442 1.961 . S
O500 C444 1.325 . S
O501 Li440 1.970 . S
O501 Li441 1.956 . S
O501 Li443 1.961 . S
O501 C450 1.325 . S
O502 Li440 1.961 . S
O502 Li442 1.956 . S
O502 Li443 1.970 . S
O502 C472 1.325 . S
O503 Li441 1.961 . S
O503 Li442 1.970 . S
O503 Li443 1.956 . S
O503 C478 1.325 . S
H504 C446 0.929 . S
H505 C447 0.930 . S
H506 C448 0.930 . S
H507 C449 0.930 . S
H508 C451 0.930 . S
H509 C453 0.929 . S
H510 C454 0.930 . S
H511 C455 0.930 . S
H512 C458 0.930 . S
H513 C461 0.929 . S
H514 C466 0.929 . S
H515 C467 0.930 . S
H516 C474 0.929 . S
H517 C475 0.930 . S
H518 C476 0.930 . S
H519 C477 0.930 . S
H520 C479 0.929 . S
H521 C480 0.930 . S
H522 C481 0.930 . S
H523 C482 0.930 . S
H524 C486 0.929 . S
H525 C488 0.930 . S
H526 C494 0.929 . S
H527 C495 0.930 . S
Li528 N545 1.990 . S
Li528 O588 1.956 . S
Li528 O589 1.970 . S
Li528 O590 1.961 . S
Li529 N553 1.990 . S
Li529 O588 1.970 . S
Li529 O589 1.956 . S
Li529 O591 1.961 . S
Li530 N575 1.990 . S
Li530 O588 1.961 . S
Li530 O590 1.956 . S
Li530 O591 1.970 . S
Li531 N581 1.990 . S
Li531 O589 1.961 . S
Li531 O590 1.970 . S
Li531 O591 1.956 . S
C532 C534 1.348 . S
C532 C535 1.356 . S
C532 O588 1.325 . S
N533 C536 1.314 . S
N533 C537 1.279 . S
C534 C532 1.348 . S
C534 C536 1.353 . S
C534 H592 0.929 . S
C535 C532 1.356 . S
C535 C537 1.358 . S
C535 H593 0.930 . S
C536 N533 1.314 . S
C536 C534 1.353 . S
C536 H594 0.930 . S
C537 N533 1.279 . S
C537 C535 1.358 . S
C537 H595 0.930 . S
C538 C541 1.348 . S
C538 C542 1.356 . S
C538 O589 1.325 . S
C539 N540 1.279 . S
C539 C542 1.358 . S
C539 H596 0.930 . S
N540 C539 1.279 . S
N540 C543 1.314 . S
C541 C538 1.348 . S
C541 C543 1.353 . S
C541 H597 0.929 . S
C542 C538 1.356 . S
C542 C539 1.358 . S
C542 H598 0.930 . S
C543 N540 1.314 . S
C543 C541 1.353 . S
C543 H599 0.930 . S
C544 N545 1.314 . S
C544 C549 1.353 . S
C544 H550 0.930 . S
N545 Li528 1.990 . S
N545 C544 1.314 . S
N545 C547 1.279 . S
C546 C547 1.358 . S
C546 C548 1.356 . S
C546 H600 0.930 . S
C547 N545 1.279 . S
C547 C546 1.358 . S
C547 H551 0.930 . S
C548 C546 1.356 . S
C548 C549 1.348 . S
C549 C544 1.353 . S
C549 C548 1.348 . S
C549 H601 0.929 . S
H550 C544 0.930 . S
H551 C547 0.930 . S
C552 N553 1.314 . S
C552 C554 1.353 . S
C552 H558 0.930 . S
N553 Li529 1.990 . S
N553 C552 1.314 . S
N553 C556 1.279 . S
C554 C552 1.353 . S
C554 C557 1.348 . S
C554 H602 0.929 . S
C555 C556 1.358 . S
C555 C557 1.356 . S
C555 H603 0.930 . S
C556 N553 1.279 . S
C556 C555 1.358 . S
C556 H559 0.930 . S
C557 C554 1.348 . S
C557 C555 1.356 . S
H558 C552 0.930 . S
H559 C556 0.930 . S
C560 C562 1.348 . S
C560 C563 1.356 . S
C560 O590 1.325 . S
N561 C564 1.314 . S
N561 C565 1.279 . S
C562 C560 1.348 . S
C562 C564 1.353 . S
C562 H604 0.929 . S
C563 C560 1.356 . S
C563 C565 1.358 . S
C563 H605 0.930 . S
C564 N561 1.314 . S
C564 C562 1.353 . S
C564 H606 0.930 . S
C565 N561 1.279 . S
C565 C563 1.358 . S
C565 H607 0.930 . S
C566 C567 1.348 . S
C566 C568 1.356 . S
C566 O591 1.325 . S
C567 C566 1.348 . S
C567 C569 1.353 . S
C567 H608 0.929 . S
C568 C566 1.356 . S
C568 C570 1.358 . S
C568 H609 0.930 . S
C569 C567 1.353 . S
C569 N571 1.314 . S
C569 H610 0.930 . S
C570 C568 1.358 . S
C570 N571 1.279 . S
C570 H611 0.930 . S
N571 C569 1.314 . S
N571 C570 1.279 . S
C572 C574 1.353 . S
C572 N575 1.314 . S
C572 H578 0.930 . S
C573 N575 1.279 . S
C573 C576 1.358 . S
C573 H579 0.930 . S
C574 C572 1.353 . S
C574 C577 1.348 . S
C574 H612 0.929 . S
N575 Li530 1.990 . S
N575 C572 1.314 . S
N575 C573 1.279 . S
C576 C573 1.358 . S
C576 C577 1.356 . S
C576 H613 0.930 . S
C577 C574 1.348 . S
C577 C576 1.356 . S
H578 C572 0.930 . S
H579 C573 0.930 . S
C580 N581 1.314 . S
C580 C582 1.353 . S
C580 H586 0.930 . S
N581 Li531 1.990 . S
N581 C580 1.314 . S
N581 C584 1.279 . S
C582 C580 1.353 . S
C582 C585 1.348 . S
C582 H614 0.929 . S
C583 C584 1.358 . S
C583 C585 1.356 . S
C583 H615 0.930 . S
C584 N581 1.279 . S
C584 C583 1.358 . S
C584 H587 0.930 . S
C585 C582 1.348 . S
C585 C583 1.356 . S
H586 C580 0.930 . S
H587 C584 0.930 . S
O588 Li528 1.956 . S
O588 Li529 1.970 . S
O588 Li530 1.961 . S
O588 C532 1.325 . S
O589 Li528 1.970 . S
O589 Li529 1.956 . S
O589 Li531 1.961 . S
O589 C538 1.325 . S
O590 Li528 1.961 . S
O590 Li530 1.956 . S
O590 Li531 1.970 . S
O590 C560 1.325 . S
O591 Li529 1.961 . S
O591 Li530 1.970 . S
O591 Li531 1.956 . S
O591 C566 1.325 . S
H592 C534 0.929 . S
H593 C535 0.930 . S
H594 C536 0.930 . S
H595 C537 0.930 . S
H596 C539 0.930 . S
H597 C541 0.929 . S
H598 C542 0.930 . S
H599 C543 0.930 . S
H600 C546 0.930 . S
H601 C549 0.929 . S
H602 C554 0.929 . S
H603 C555 0.930 . S
H604 C562 0.929 . S
H605 C563 0.930 . S
H606 C564 0.930 . S
H607 C565 0.930 . S
H608 C567 0.929 . S
H609 C568 0.930 . S
H610 C569 0.930 . S
H611 C570 0.930 . S
H612 C574 0.929 . S
H613 C576 0.930 . S
H614 C582 0.929 . S
H615 C583 0.930 . S
Li616 N633 1.990 . S
Li616 O676 1.956 . S
Li616 O677 1.970 . S
Li616 O678 1.961 . S
Li617 N641 1.990 . S
Li617 O676 1.970 . S
Li617 O677 1.956 . S
Li617 O679 1.961 . S
Li618 N663 1.990 . S
Li618 O676 1.961 . S
Li618 O678 1.956 . S
Li618 O679 1.970 . S
Li619 N669 1.990 . S
Li619 O677 1.961 . S
Li619 O678 1.970 . S
Li619 O679 1.956 . S
C620 C622 1.348 . S
C620 C623 1.356 . S
C620 O676 1.325 . S
N621 C624 1.314 . S
N621 C625 1.279 . S
C622 C620 1.348 . S
C622 C624 1.353 . S
C622 H680 0.929 . S
C623 C620 1.356 . S
C623 C625 1.358 . S
C623 H681 0.930 . S
C624 N621 1.314 . S
C624 C622 1.353 . S
C624 H682 0.930 . S
C625 N621 1.279 . S
C625 C623 1.358 . S
C625 H683 0.930 . S
C626 C629 1.348 . S
C626 C630 1.356 . S
C626 O677 1.325 . S
C627 N628 1.279 . S
C627 C630 1.358 . S
C627 H684 0.930 . S
N628 C627 1.279 . S
N628 C631 1.314 . S
C629 C626 1.348 . S
C629 C631 1.353 . S
C629 H685 0.929 . S
C630 C626 1.356 . S
C630 C627 1.358 . S
C630 H686 0.930 . S
C631 N628 1.314 . S
C631 C629 1.353 . S
C631 H687 0.930 . S
C632 N633 1.314 . S
C632 C637 1.353 . S
C632 H638 0.930 . S
N633 Li616 1.990 . S
N633 C632 1.314 . S
N633 C635 1.279 . S
C634 C635 1.358 . S
C634 C636 1.356 . S
C634 H688 0.930 . S
C635 N633 1.279 . S
C635 C634 1.358 . S
C635 H639 0.930 . S
C636 C634 1.356 . S
C636 C637 1.348 . S
C637 C632 1.353 . S
C637 C636 1.348 . S
C637 H689 0.929 . S
H638 C632 0.930 . S
H639 C635 0.930 . S
C640 N641 1.314 . S
C640 C642 1.353 . S
C640 H646 0.930 . S
N641 Li617 1.990 . S
N641 C640 1.314 . S
N641 C644 1.279 . S
C642 C640 1.353 . S
C642 C645 1.348 . S
C642 H690 0.929 . S
C643 C644 1.358 . S
C643 C645 1.356 . S
C643 H691 0.930 . S
C644 N641 1.279 . S
C644 C643 1.358 . S
C644 H647 0.930 . S
C645 C642 1.348 . S
C645 C643 1.356 . S
H646 C640 0.930 . S
H647 C644 0.930 . S
C648 C650 1.348 . S
C648 C651 1.356 . S
C648 O678 1.325 . S
N649 C652 1.314 . S
N649 C653 1.279 . S
C650 C648 1.348 . S
C650 C652 1.353 . S
C650 H692 0.929 . S
C651 C648 1.356 . S
C651 C653 1.358 . S
C651 H693 0.930 . S
C652 N649 1.314 . S
C652 C650 1.353 . S
C652 H694 0.930 . S
C653 N649 1.279 . S
C653 C651 1.358 . S
C653 H695 0.930 . S
C654 C655 1.348 . S
C654 C656 1.356 . S
C654 O679 1.325 . S
C655 C654 1.348 . S
C655 C657 1.353 1_545 S
C655 H696 0.929 . S
C656 C654 1.356 . S
C656 C658 1.358 1_545 S
C656 H697 0.930 . S
C657 C655 1.353 1_565 S
C657 N659 1.314 . S
C657 H698 0.930 . S
C658 C656 1.358 1_565 S
C658 N659 1.279 . S
C658 H699 0.930 . S
N659 C657 1.314 . S
N659 C658 1.279 . S
C660 C662 1.353 . S
C660 N663 1.314 . S
C660 H666 0.930 . S
C661 N663 1.279 . S
C661 C664 1.358 . S
C661 H667 0.930 . S
C662 C660 1.353 . S
C662 C665 1.348 . S
C662 H700 0.929 . S
N663 Li618 1.990 . S
N663 C660 1.314 . S
N663 C661 1.279 . S
C664 C661 1.358 . S
C664 C665 1.356 . S
C664 H701 0.930 . S
C665 C662 1.348 . S
C665 C664 1.356 . S
H666 C660 0.930 . S
H667 C661 0.930 . S
C668 N669 1.314 . S
C668 C670 1.353 . S
C668 H674 0.930 . S
N669 Li619 1.990 . S
N669 C668 1.314 . S
N669 C672 1.279 . S
C670 C668 1.353 . S
C670 C673 1.348 . S
C670 H702 0.929 . S
C671 C672 1.358 . S
C671 C673 1.356 . S
C671 H703 0.930 . S
C672 N669 1.279 . S
C672 C671 1.358 . S
C672 H675 0.930 . S
C673 C670 1.348 . S
C673 C671 1.356 . S
H674 C668 0.930 . S
H675 C672 0.930 . S
O676 Li616 1.956 . S
O676 Li617 1.970 . S
O676 Li618 1.961 . S
O676 C620 1.325 . S
O677 Li616 1.970 . S
O677 Li617 1.956 . S
O677 Li619 1.961 . S
O677 C626 1.325 . S
O678 Li616 1.961 . S
O678 Li618 1.956 . S
O678 Li619 1.970 . S
O678 C648 1.325 . S
O679 Li617 1.961 . S
O679 Li618 1.970 . S
O679 Li619 1.956 . S
O679 C654 1.325 . S
H680 C622 0.929 . S
H681 C623 0.930 . S
H682 C624 0.930 . S
H683 C625 0.930 . S
H684 C627 0.930 . S
H685 C629 0.929 . S
H686 C630 0.930 . S
H687 C631 0.930 . S
H688 C634 0.930 . S
H689 C637 0.929 . S
H690 C642 0.929 . S
H691 C643 0.930 . S
H692 C650 0.929 . S
H693 C651 0.930 . S
H694 C652 0.930 . S
H695 C653 0.930 . S
H696 C655 0.929 . S
H697 C656 0.930 . S
H698 C657 0.930 . S
H699 C658 0.930 . S
H700 C662 0.929 . S
H701 C664 0.930 . S
H702 C670 0.929 . S
H703 C671 0.930 . S
H704 C710 0.930 . S
H705 C713 0.930 . S
H706 C714 0.930 . S
H707 C715 0.930 . S
H708 C718 0.930 . S
H709 C719 0.930 . S
C710 H704 0.930 . S
C710 C711 1.355 1_455 S
C710 C712 1.415 . S
C711 C710 1.355 1_655 S
C711 C713 1.419 . S
C712 C710 1.415 . S
C712 C717 1.425 1_455 S
C712 C719 1.409 . S
C713 H705 0.930 . S
C713 C711 1.419 . S
C713 C714 1.362 . S
C714 H706 0.930 . S
C714 C713 1.362 . S
C714 C717 1.409 . S
C715 H707 0.930 . S
C715 C716 1.355 1_655 S
C715 C717 1.415 . S
C716 C715 1.355 1_455 S
C716 C718 1.419 . S
C717 C712 1.425 1_655 S
C717 C714 1.409 . S
C717 C715 1.415 . S
C718 H708 0.930 . S
C718 C716 1.419 . S
C718 C719 1.362 . S
C719 H709 0.930 . S
C719 C712 1.409 . S
C719 C718 1.362 . S
H720 C726 0.930 . S
H721 C729 0.930 . S
H722 C730 0.930 . S
H723 C731 0.930 . S
H724 C734 0.930 . S
H725 C735 0.930 . S
C726 H720 0.930 . S
C726 C727 1.355 1_655 S
C726 C728 1.415 . S
C727 C726 1.355 1_455 S
C727 C729 1.419 . S
C728 C726 1.415 . S
C728 C733 1.425 1_655 S
C728 C735 1.409 . S
C729 H721 0.930 . S
C729 C727 1.419 . S
C729 C730 1.362 . S
C730 H722 0.930 . S
C730 C729 1.362 . S
C730 C733 1.409 . S
C731 H723 0.930 . S
C731 C732 1.355 1_455 S
C731 C733 1.415 . S
C732 C731 1.355 1_655 S
C732 C734 1.419 . S
C733 C728 1.425 1_455 S
C733 C730 1.409 . S
C733 C731 1.415 . S
C734 H724 0.930 . S
C734 C732 1.419 . S
C734 C735 1.362 . S
C735 H725 0.930 . S
C735 C728 1.409 . S
C735 C734 1.362 . S
H736 C742 0.930 . S
H737 C745 0.930 . S
H738 C746 0.930 . S
H739 C747 0.930 . S
H740 C750 0.930 . S
H741 C751 0.930 . S
C742 H736 0.930 . S
C742 C743 1.355 . S
C742 C744 1.415 . S
C743 C742 1.355 . S
C743 C745 1.419 . S
C744 C742 1.415 . S
C744 C749 1.425 . S
C744 C751 1.409 . S
C745 H737 0.930 . S
C745 C743 1.419 . S
C745 C746 1.362 . S
C746 H738 0.930 . S
C746 C745 1.362 . S
C746 C749 1.409 . S
C747 H739 0.930 . S
C747 C748 1.355 . S
C747 C749 1.415 . S
C748 C747 1.355 . S
C748 C750 1.419 . S
C749 C744 1.425 . S
C749 C746 1.409 . S
C749 C747 1.415 . S
C750 H740 0.930 . S
C750 C748 1.419 . S
C750 C751 1.362 . S
C751 H741 0.930 . S
C751 C744 1.409 . S
C751 C750 1.362 . S
H752 C758 0.930 . S
H753 C761 0.930 . S
H754 C762 0.930 . S
H755 C763 0.930 . S
H756 C766 0.930 . S
H757 C767 0.930 . S
C758 H752 0.930 . S
C758 C759 1.355 . S
C758 C760 1.415 . S
C759 C758 1.355 . S
C759 C761 1.419 . S
C760 C758 1.415 . S
C760 C765 1.425 . S
C760 C767 1.409 . S
C761 H753 0.930 . S
C761 C759 1.419 . S
C761 C762 1.362 . S
C762 H754 0.930 . S
C762 C761 1.362 . S
C762 C765 1.409 . S
C763 H755 0.930 . S
C763 C764 1.355 . S
C763 C765 1.415 . S
C764 C763 1.355 . S
C764 C766 1.419 . S
C765 C760 1.425 . S
C765 C762 1.409 . S
C765 C763 1.415 . S
C766 H756 0.930 . S
C766 C764 1.419 . S
C766 C767 1.362 . S
C767 H757 0.930 . S
C767 C760 1.409 . S
C767 C766 1.362 . S
H768 C774 0.930 . S
H769 C777 0.930 . S
H770 C778 0.930 . S
H771 C779 0.930 . S
H772 C782 0.930 . S
H773 C783 0.930 . S
C774 H768 0.930 . S
C774 C775 1.355 . S
C774 C776 1.415 . S
C775 C774 1.355 . S
C775 C777 1.419 . S
C776 C774 1.415 . S
C776 C781 1.425 . S
C776 C783 1.409 . S
C777 H769 0.930 . S
C777 C775 1.419 . S
C777 C778 1.362 . S
C778 H770 0.930 . S
C778 C777 1.362 . S
C778 C781 1.409 . S
C779 H771 0.930 . S
C779 C780 1.355 . S
C779 C781 1.415 . S
C780 C779 1.355 . S
C780 C782 1.419 . S
C781 C776 1.425 . S
C781 C778 1.409 . S
C781 C779 1.415 . S
C782 H772 0.930 . S
C782 C780 1.419 . S
C782 C783 1.362 . S
C783 H773 0.930 . S
C783 C776 1.409 . S
C783 C782 1.362 . S
H784 C790 0.930 . S
H785 C793 0.930 . S
H786 C794 0.930 . S
H787 C795 0.930 . S
H788 C798 0.930 . S
H789 C799 0.930 . S
C790 H784 0.930 . S
C790 C791 1.355 . S
C790 C792 1.415 . S
C791 C790 1.355 . S
C791 C793 1.419 . S
C792 C790 1.415 . S
C792 C797 1.425 . S
C792 C799 1.409 . S
C793 H785 0.930 . S
C793 C791 1.419 . S
C793 C794 1.362 . S
C794 H786 0.930 . S
C794 C793 1.362 . S
C794 C797 1.409 . S
C795 H787 0.930 . S
C795 C796 1.355 . S
C795 C797 1.415 . S
C796 C795 1.355 . S
C796 C798 1.419 . S
C797 C792 1.425 . S
C797 C794 1.409 . S
C797 C795 1.415 . S
C798 H788 0.930 . S
C798 C796 1.419 . S
C798 C799 1.362 . S
C799 H789 0.930 . S
C799 C792 1.409 . S
C799 C798 1.362 . S
H800 C806 0.930 . S
H801 C809 0.930 . S
H802 C810 0.930 . S
H803 C811 0.930 . S
H804 C814 0.930 . S
H805 C815 0.930 . S
C806 H800 0.930 . S
C806 C807 1.355 . S
C806 C808 1.415 . S
C807 C806 1.355 . S
C807 C809 1.419 . S
C808 C806 1.415 . S
C808 C813 1.425 . S
C808 C815 1.409 . S
C809 H801 0.930 . S
C809 C807 1.419 . S
C809 C810 1.362 . S
C810 H802 0.930 . S
C810 C809 1.362 . S
C810 C813 1.409 . S
C811 H803 0.930 . S
C811 C812 1.355 . S
C811 C813 1.415 . S
C812 C811 1.355 . S
C812 C814 1.419 . S
C813 C808 1.425 . S
C813 C810 1.409 . S
C813 C811 1.415 . S
C814 H804 0.930 . S
C814 C812 1.419 . S
C814 C815 1.362 . S
C815 H805 0.930 . S
C815 C808 1.409 . S
C815 C814 1.362 . S
H816 C822 0.930 . S
H817 C825 0.930 . S
H818 C826 0.930 . S
H819 C827 0.930 . S
H820 C830 0.930 . S
H821 C831 0.930 . S
C822 H816 0.930 . S
C822 C823 1.355 . S
C822 C824 1.415 . S
C823 C822 1.355 . S
C823 C825 1.419 . S
C824 C822 1.415 . S
C824 C829 1.425 . S
C824 C831 1.409 . S
C825 H817 0.930 . S
C825 C823 1.419 . S
C825 C826 1.362 . S
C826 H818 0.930 . S
C826 C825 1.362 . S
C826 C829 1.409 . S
C827 H819 0.930 . S
C827 C828 1.355 . S
C827 C829 1.415 . S
C828 C827 1.355 . S
C828 C830 1.419 . S
C829 C824 1.425 . S
C829 C826 1.409 . S
C829 C827 1.415 . S
C830 H820 0.930 . S
C830 C828 1.419 . S
C830 C831 1.362 . S
C831 H821 0.930 . S
C831 C824 1.409 . S
C831 C830 1.362 . S
H832 C838 0.930 . S
H833 C841 0.930 . S
H834 C842 0.930 . S
H835 C843 0.930 . S
H836 C846 0.930 . S
H837 C847 0.930 . S
C838 H832 0.930 . S
C838 C839 1.355 . S
C838 C840 1.415 . S
C839 C838 1.355 . S
C839 C841 1.419 . S
C840 C838 1.415 . S
C840 C845 1.425 . S
C840 C847 1.409 . S
C841 H833 0.930 . S
C841 C839 1.419 . S
C841 C842 1.362 . S
C842 H834 0.930 . S
C842 C841 1.362 . S
C842 C845 1.409 . S
C843 H835 0.930 . S
C843 C844 1.355 . S
C843 C845 1.415 . S
C844 C843 1.355 . S
C844 C846 1.419 . S
C845 C840 1.425 . S
C845 C842 1.409 . S
C845 C843 1.415 . S
C846 H836 0.930 . S
C846 C844 1.419 . S
C846 C847 1.362 . S
C847 H837 0.930 . S
C847 C840 1.409 . S
C847 C846 1.362 . S
H848 C854 0.930 . S
H849 C857 0.930 . S
H850 C858 0.930 . S
H851 C859 0.930 . S
H852 C862 0.930 . S
H853 C863 0.930 . S
C854 H848 0.930 . S
C854 C855 1.355 . S
C854 C856 1.415 . S
C855 C854 1.355 . S
C855 C857 1.419 . S
C856 C854 1.415 . S
C856 C861 1.425 . S
C856 C863 1.409 . S
C857 H849 0.930 . S
C857 C855 1.419 . S
C857 C858 1.362 . S
C858 H850 0.930 . S
C858 C857 1.362 . S
C858 C861 1.409 . S
C859 H851 0.930 . S
C859 C860 1.355 . S
C859 C861 1.415 . S
C860 C859 1.355 . S
C860 C862 1.419 . S
C861 C856 1.425 . S
C861 C858 1.409 . S
C861 C859 1.415 . S
C862 H852 0.930 . S
C862 C860 1.419 . S
C862 C863 1.362 . S
C863 H853 0.930 . S
C863 C856 1.409 . S
C863 C862 1.362 . S
H864 C870 0.930 . S
H865 C873 0.930 . S
H866 C874 0.930 . S
H867 C875 0.930 . S
H868 C878 0.930 . S
H869 C879 0.930 . S
C870 H864 0.930 . S
C870 C871 1.355 . S
C870 C872 1.415 . S
C871 C870 1.355 . S
C871 C873 1.419 . S
C872 C870 1.415 . S
C872 C877 1.425 . S
C872 C879 1.409 . S
C873 H865 0.930 . S
C873 C871 1.419 . S
C873 C874 1.362 . S
C874 H866 0.930 . S
C874 C873 1.362 . S
C874 C877 1.409 . S
C875 H867 0.930 . S
C875 C876 1.355 . S
C875 C877 1.415 . S
C876 C875 1.355 . S
C876 C878 1.419 . S
C877 C872 1.425 . S
C877 C874 1.409 . S
C877 C875 1.415 . S
C878 H868 0.930 . S
C878 C876 1.419 . S
C878 C879 1.362 . S
C879 H869 0.930 . S
C879 C872 1.409 . S
C879 C878 1.362 . S
H880 C886 0.930 . S
H881 C889 0.930 . S
H882 C890 0.930 . S
H883 C891 0.930 . S
H884 C894 0.930 . S
H885 C895 0.930 . S
C886 H880 0.930 . S
C886 C887 1.355 . S
C886 C888 1.415 . S
C887 C886 1.355 . S
C887 C889 1.419 . S
C888 C886 1.415 . S
C888 C893 1.425 . S
C888 C895 1.409 . S
C889 H881 0.930 . S
C889 C887 1.419 . S
C889 C890 1.362 . S
C890 H882 0.930 . S
C890 C889 1.362 . S
C890 C893 1.409 . S
C891 H883 0.930 . S
C891 C892 1.355 . S
C891 C893 1.415 . S
C892 C891 1.355 . S
C892 C894 1.419 . S
C893 C888 1.425 . S
C893 C890 1.409 . S
C893 C891 1.415 . S
C894 H884 0.930 . S
C894 C892 1.419 . S
C894 C895 1.362 . S
C895 H885 0.930 . S
C895 C888 1.409 . S
C895 C894 1.362 . S
H896 C902 0.930 . S
H897 C905 0.930 . S
H898 C906 0.930 1_556 S
H899 C907 0.930 . S
H900 C910 0.930 . S
H901 C911 0.930 1_554 S
C902 H896 0.930 . S
C902 C903 1.355 1_665 S
C902 C904 1.415 . S
C903 C902 1.355 1_445 S
C903 C905 1.419 . S
C904 C902 1.415 . S
C904 C909 1.425 1_664 S
C904 C911 1.409 1_554 S
C905 H897 0.930 . S
C905 C903 1.419 . S
C905 C906 1.362 . S
C906 H898 0.930 1_554 S
C906 C905 1.362 . S
C906 C909 1.409 1_554 S
C907 H899 0.930 . S
C907 C908 1.355 1_445 S
C907 C909 1.415 . S
C908 C907 1.355 1_665 S
C908 C910 1.419 . S
C909 C904 1.425 1_446 S
C909 C906 1.409 1_556 S
C909 C907 1.415 . S
C910 H900 0.930 . S
C910 C908 1.419 . S
C910 C911 1.362 . S
C911 H901 0.930 1_556 S
C911 C904 1.409 1_556 S
C911 C910 1.362 . S
H912 C918 0.930 . S
H913 C921 0.930 . S
H914 C922 0.930 . S
H915 C923 0.930 . S
H916 C926 0.930 . S
H917 C927 0.930 . S
C918 H912 0.930 . S
C918 C919 1.355 1_655 S
C918 C920 1.415 . S
C919 C918 1.355 1_455 S
C919 C921 1.419 . S
C920 C918 1.415 . S
C920 C925 1.425 1_656 S
C920 C927 1.409 1_556 S
C921 H913 0.930 . S
C921 C919 1.419 . S
C921 C922 1.362 . S
C922 H914 0.930 . S
C922 C921 1.362 . S
C922 C925 1.409 1_556 S
C923 H915 0.930 . S
C923 C924 1.355 1_455 S
C923 C925 1.415 . S
C924 C923 1.355 1_655 S
C924 C926 1.419 . S
C925 C920 1.425 1_454 S
C925 C922 1.409 1_554 S
C925 C923 1.415 . S
C926 H916 0.930 . S
C926 C924 1.419 . S
C926 C927 1.362 . S
C927 H917 0.930 . S
C927 C920 1.409 1_554 S
C927 C926 1.362 . S
H928 C934 0.930 . S
H929 C937 0.930 . S
H930 C938 0.930 . S
H931 C939 0.930 . S
H932 C942 0.930 . S
H933 C943 0.930 . S
C934 H928 0.930 . S
C934 C935 1.355 . S
C934 C936 1.415 . S
C935 C934 1.355 . S
C935 C937 1.419 . S
C936 C934 1.415 . S
C936 C941 1.425 . S
C936 C943 1.409 . S
C937 H929 0.930 . S
C937 C935 1.419 . S
C937 C938 1.362 . S
C938 H930 0.930 . S
C938 C937 1.362 . S
C938 C941 1.409 . S
C939 H931 0.930 . S
C939 C940 1.355 . S
C939 C941 1.415 . S
C940 C939 1.355 . S
C940 C942 1.419 . S
C941 C936 1.425 . S
C941 C938 1.409 . S
C941 C939 1.415 . S
C942 H932 0.930 . S
C942 C940 1.419 . S
C942 C943 1.362 . S
C943 H933 0.930 . S
C943 C936 1.409 . S
C943 C942 1.362 . S
H944 C950 0.930 . S
H945 C953 0.930 . S
H946 C954 0.930 . S
H947 C955 0.930 . S
H948 C958 0.930 . S
H949 C959 0.930 . S
C950 H944 0.930 . S
C950 C951 1.355 1_545 S
C950 C952 1.415 . S
C951 C950 1.355 1_565 S
C951 C953 1.419 . S
C952 C950 1.415 . S
C952 C957 1.425 1_545 S
C952 C959 1.409 . S
C953 H945 0.930 . S
C953 C951 1.419 . S
C953 C954 1.362 . S
C954 H946 0.930 . S
C954 C953 1.362 . S
C954 C957 1.409 . S
C955 H947 0.930 . S
C955 C956 1.355 1_565 S
C955 C957 1.415 . S
C956 C955 1.355 1_545 S
C956 C958 1.419 . S
C957 C952 1.425 1_565 S
C957 C954 1.409 . S
C957 C955 1.415 . S
C958 H948 0.930 . S
C958 C956 1.419 . S
C958 C959 1.362 . S
C959 H949 0.930 . S
C959 C952 1.409 . S
C959 C958 1.362 . S
C711 C137 1.517 1_655 S
C716 C20 1.532 . S
C727 C225 1.533 . S
C732 C293 1.517 1_655 S
C743 C381 1.522 . S
C748 C489 1.530 . S
C759 C585 1.526 . S
C764 C636 1.522 . S
C775 C645 1.463 . S
C780 C29 1.438 . S
C791 C577 1.459 . S
C796 C145 1.442 . S
C807 C233 1.455 . S
C812 C497 1.446 . S
C823 C372 1.457 . S
C828 C284 1.445 . S
C839 C469 1.448 . S
C844 C205 1.466 . S
C855 C401 1.467 . S
C860 C313 1.441 . S
C871 C673 1.451 . S
C876 C57 1.455 . S
C887 C117 1.471 . S
C892 C548 1.439 . S
C903 C49 1.196 . S
C908 C196 1.193 1_655 S
C919 C321 1.221 . S
C924 C108 1.222 1_655 S
C935 C557 1.241 . S
C940 C409 1.241 . S
C951 C460 1.214 . S
C956 C665 1.212 . S
