# Generated by pormake.
# Topology ukk, (4)-cn, num edge types: 1
# Building blocks:
#     Node 0, Type 0, BuildingBlock: MUDLON_clean_sbu_0, # of connection points: 4
#     Node 1, Type 0, BuildingBlock: MUDLON_clean_sbu_0, # of connection points: 4
#     Node 2, Type 0, BuildingBlock: MUDLON_clean_sbu_0, # of connection points: 4
#     Node 3, Type 0, BuildingBlock: MUDLON_clean_sbu_0, # of connection points: 4
#     Node 4, Type 0, BuildingBlock: MUDLON_clean_sbu_0, # of connection points: 4
#     Node 5, Type 0, BuildingBlock: MUDLON_clean_sbu_0, # of connection points: 4
#     Node 6, Type 0, BuildingBlock: MUDLON_clean_sbu_0, # of connection points: 4
#     Node 7, Type 0, BuildingBlock: MUDLON_clean_sbu_0, # of connection points: 4
#     Node 8, Type 0, BuildingBlock: MUDLON_clean_sbu_0, # of connection points: 4
#     Node 9, Type 0, BuildingBlock: MUDLON_clean_sbu_0, # of connection points: 4
#     Node 10, Type 0, BuildingBlock: MUDLON_clean_sbu_0, # of connection points: 4
#     Node 11, Type 0, BuildingBlock: MUDLON_clean_sbu_0, # of connection points: 4
#     Node 12, Type 0, BuildingBlock: MUDLON_clean_sbu_0, # of connection points: 4
#     Node 13, Type 0, BuildingBlock: MUDLON_clean_sbu_0, # of connection points: 4
#     Node 14, Type 0, BuildingBlock: MUDLON_clean_sbu_0, # of connection points: 4
#     Node 15, Type 0, BuildingBlock: MUDLON_clean_sbu_0, # of connection points: 4
#     Edge 16, Type (0, 0), BuildingBlock: ZUJKAS_clean_linker_0, # of connection points: 2
#     Edge 17, Type (0, 0), BuildingBlock: ZUJKAS_clean_linker_0, # of connection points: 2
#     Edge 18, Type (0, 0), BuildingBlock: ZUJKAS_clean_linker_0, # of connection points: 2
#     Edge 19, Type (0, 0), BuildingBlock: ZUJKAS_clean_linker_0, # of connection points: 2
#     Edge 20, Type (0, 0), BuildingBlock: ZUJKAS_clean_linker_0, # of connection points: 2
#     Edge 21, Type (0, 0), BuildingBlock: ZUJKAS_clean_linker_0, # of connection points: 2
#     Edge 22, Type (0, 0), BuildingBlock: ZUJKAS_clean_linker_0, # of connection points: 2
#     Edge 23, Type (0, 0), BuildingBlock: ZUJKAS_clean_linker_0, # of connection points: 2
#     Edge 24, Type (0, 0), BuildingBlock: ZUJKAS_clean_linker_0, # of connection points: 2
#     Edge 25, Type (0, 0), BuildingBlock: ZUJKAS_clean_linker_0, # of connection points: 2
#     Edge 26, Type (0, 0), BuildingBlock: ZUJKAS_clean_linker_0, # of connection points: 2
#     Edge 27, Type (0, 0), BuildingBlock: ZUJKAS_clean_linker_0, # of connection points: 2
#     Edge 28, Type (0, 0), BuildingBlock: ZUJKAS_clean_linker_0, # of connection points: 2
#     Edge 29, Type (0, 0), BuildingBlock: ZUJKAS_clean_linker_0, # of connection points: 2
#     Edge 30, Type (0, 0), BuildingBlock: ZUJKAS_clean_linker_0, # of connection points: 2
#     Edge 31, Type (0, 0), BuildingBlock: ZUJKAS_clean_linker_0, # of connection points: 2
#     Edge 32, Type (0, 0), BuildingBlock: ZUJKAS_clean_linker_0, # of connection points: 2
#     Edge 33, Type (0, 0), BuildingBlock: ZUJKAS_clean_linker_0, # of connection points: 2
#     Edge 34, Type (0, 0), BuildingBlock: ZUJKAS_clean_linker_0, # of connection points: 2
#     Edge 35, Type (0, 0), BuildingBlock: ZUJKAS_clean_linker_0, # of connection points: 2
#     Edge 36, Type (0, 0), BuildingBlock: ZUJKAS_clean_linker_0, # of connection points: 2
#     Edge 37, Type (0, 0), BuildingBlock: ZUJKAS_clean_linker_0, # of connection points: 2
#     Edge 38, Type (0, 0), BuildingBlock: ZUJKAS_clean_linker_0, # of connection points: 2
#     Edge 39, Type (0, 0), BuildingBlock: ZUJKAS_clean_linker_0, # of connection points: 2
#     Edge 40, Type (0, 0), BuildingBlock: ZUJKAS_clean_linker_0, # of connection points: 2
#     Edge 41, Type (0, 0), BuildingBlock: ZUJKAS_clean_linker_0, # of connection points: 2
#     Edge 42, Type (0, 0), BuildingBlock: ZUJKAS_clean_linker_0, # of connection points: 2
#     Edge 43, Type (0, 0), BuildingBlock: ZUJKAS_clean_linker_0, # of connection points: 2
#     Edge 44, Type (0, 0), BuildingBlock: ZUJKAS_clean_linker_0, # of connection points: 2
#     Edge 45, Type (0, 0), BuildingBlock: ZUJKAS_clean_linker_0, # of connection points: 2
#     Edge 46, Type (0, 0), BuildingBlock: ZUJKAS_clean_linker_0, # of connection points: 2
#     Edge 47, Type (0, 0), BuildingBlock: ZUJKAS_clean_linker_0, # of connection points: 2
# Relax obj value: 0.000
# Max RMSD: 0.071
# Mean RMSD: 0.071
data_MOF--net-ukk--node1-MUDLON_clean_sbu_0--edge1-ZUJKAS_clean_linker_0
_symmetry_space_group_name_H-M    P1
_symmetry_Int_Tables_number       1
_symmetry_cell_setting            triclinic
loop_
_symmetry_equiv_pos_as_xyz
'x, y, z'
_cell_length_a     78.161915
_cell_length_b     78.193549
_cell_length_c     11.737038
_cell_angle_alpha  89.945689
_cell_angle_beta   90.020687
_cell_angle_gamma 90.018708
loop_
_atom_site_label
_atom_site_type_symbol
_atom_site_fract_x
_atom_site_fract_y
_atom_site_fract_z
_atom_type_partial_charge
Mg0 Mg 0.38284 0.12899 0.13046 0.0
C1 C 0.38258 0.16563 0.10267 0.0
O2 O 0.38517 0.15879 0.00189 0.0
C3 C 0.37794 0.09361 0.20303 0.0
O4 O 0.37488 0.09393 0.09297 0.0
C5 C 0.34659 0.12563 0.08558 0.0
O6 O 0.34845 0.12673 0.19663 0.0
O7 O 0.36001 0.126 0.02384 0.0
O8 O 0.38081 0.1556 0.18763 0.0
O9 O 0.40863 0.12777 0.05779 0.0
C10 C 0.41939 0.13232 0.13357 0.0
O11 O 0.41351 0.13646 0.23476 0.0
O12 O 0.38183 0.10762 0.25224 0.0
Mg13 Mg 0.12785 0.63478 0.86139 0.0
C14 C 0.16467 0.63235 0.89053 0.0
O15 O 0.15775 0.62915 0.99033 0.0
C16 C 0.09437 0.64502 0.74757 0.0
O17 O 0.09499 0.65644 0.8294 0.0
C18 C 0.12977 0.67137 0.9047 0.0
O19 O 0.13492 0.66905 0.79925 0.0
O20 O 0.12544 0.65825 0.96257 0.0
O21 O 0.15471 0.63532 0.80669 0.0
O22 O 0.12541 0.60953 0.94194 0.0
C23 C 0.12359 0.59798 0.8663 0.0
O24 O 0.1229 0.60274 0.75901 0.0
O25 O 0.10707 0.63499 0.73394 0.0
Mg26 Mg 0.63557 0.88661 0.12051 0.0
C27 C 0.63847 0.85008 0.09371 0.0
O28 O 0.63693 0.85675 0.99139 0.0
C29 C 0.62961 0.9214 0.19384 0.0
O30 O 0.62515 0.92045 0.08606 0.0
C31 C 0.67175 0.89135 0.07815 0.0
O32 O 0.66988 0.88979 0.18896 0.0
O33 O 0.65836 0.89094 0.01612 0.0
O34 O 0.63862 0.8602 0.17883 0.0
O35 O 0.60991 0.8868 0.04439 0.0
C36 C 0.59908 0.88044 0.1137 0.0
O37 O 0.60473 0.87467 0.21195 0.0
O38 O 0.63511 0.90787 0.24221 0.0
Mg39 Mg 0.88863 0.38338 0.87735 0.0
C40 C 0.8523 0.37758 0.90715 0.0
O41 O 0.85928 0.37701 0.00897 0.0
C42 C 0.92285 0.39137 0.79339 0.0
O43 O 0.92199 0.39771 0.89686 0.0
C44 C 0.89586 0.3473 0.91773 0.0
O45 O 0.8961 0.34943 0.80666 0.0
O46 O 0.89344 0.36042 0.98021 0.0
O47 O 0.86209 0.3799 0.82163 0.0
O48 O 0.88858 0.409 0.9547 0.0
C49 C 0.88085 0.41978 0.89144 0.0
O50 O 0.87378 0.41423 0.79686 0.0
O51 O 0.90957 0.38414 0.75273 0.0
Mg52 Mg 0.38369 0.38633 0.13153 0.0
C53 C 0.37714 0.34993 0.15827 0.0
O54 O 0.37619 0.35671 0.26052 0.0
C55 C 0.39106 0.42099 0.05175 0.0
O56 O 0.39738 0.41997 0.15528 0.0
C57 C 0.34751 0.39241 0.17155 0.0
O58 O 0.34949 0.39153 0.06051 0.0
O59 O 0.36078 0.3911 0.23421 0.0
O60 O 0.37997 0.35987 0.0741 0.0
O61 O 0.40911 0.38654 0.21245 0.0
C62 C 0.41994 0.3764 0.16742 0.0
O63 O 0.41475 0.36623 0.08538 0.0
O64 O 0.38419 0.40765 0.0092 0.0
Mg65 Mg 0.3858 0.63303 0.86602 0.0
C66 C 0.34921 0.64117 0.84485 0.0
O67 O 0.35601 0.64518 0.746 0.0
C68 C 0.42092 0.62887 0.93911 0.0
O69 O 0.42033 0.62576 0.82914 0.0
C70 C 0.39138 0.66951 0.83091 0.0
O71 O 0.38983 0.66724 0.9414 0.0
O72 O 0.39064 0.65637 0.76673 0.0
O73 O 0.35911 0.63572 0.92341 0.0
O74 O 0.38778 0.60768 0.78482 0.0
C75 C 0.37483 0.59776 0.78114 0.0
O76 O 0.3598 0.60385 0.81008 0.0
O77 O 0.40697 0.63267 0.98948 0.0
Mg78 Mg 0.63417 0.62944 0.13498 0.0
C79 C 0.63871 0.66583 0.16339 0.0
O80 O 0.63828 0.65901 0.26574 0.0
C81 C 0.62679 0.59505 0.05255 0.0
O82 O 0.6206 0.59585 0.15648 0.0
C83 C 0.6704 0.62313 0.17497 0.0
O84 O 0.66822 0.62314 0.06394 0.0
O85 O 0.65724 0.62504 0.23798 0.0
O86 O 0.63745 0.65589 0.07777 0.0
O87 O 0.6084 0.62932 0.21081 0.0
C88 C 0.59755 0.63634 0.14433 0.0
O89 O 0.60316 0.64287 0.04813 0.0
O90 O 0.63372 0.60843 0.01103 0.0
Mg91 Mg 0.6313 0.38111 0.8747 0.0
C92 C 0.66791 0.38074 0.84774 0.0
O93 O 0.66111 0.38324 0.74664 0.0
C94 C 0.59581 0.38083 0.94023 0.0
O95 O 0.59654 0.38104 0.82835 0.0
C96 C 0.62865 0.34481 0.83341 0.0
O97 O 0.63091 0.34694 0.94347 0.0
O98 O 0.62789 0.35812 0.77063 0.0
O99 O 0.65785 0.37912 0.93257 0.0
O100 O 0.62994 0.40684 0.80086 0.0
C101 C 0.63384 0.4177 0.87753 0.0
O102 O 0.63781 0.4119 0.97931 0.0
O103 O 0.60988 0.38057 0.99521 0.0
Mg104 Mg 0.88209 0.63094 0.61175 0.0
C105 C 0.88068 0.66762 0.5849 0.0
O106 O 0.88119 0.66086 0.48247 0.0
C107 C 0.87481 0.59623 0.70059 0.0
O108 O 0.86788 0.59636 0.59865 0.0
C109 C 0.84516 0.63063 0.57456 0.0
O110 O 0.84754 0.63432 0.68265 0.0
O111 O 0.85834 0.62825 0.51244 0.0
O112 O 0.88078 0.65752 0.67035 0.0
O113 O 0.90722 0.63028 0.52796 0.0
C114 C 0.91727 0.61752 0.53695 0.0
O115 O 0.91143 0.60324 0.58143 0.0
O116 O 0.88194 0.60988 0.73657 0.0
Mg117 Mg 0.63171 0.1347 0.37509 0.0
C118 C 0.66833 0.1374 0.40149 0.0
O119 O 0.6616 0.13787 0.50407 0.0
C120 C 0.59629 0.13793 0.30762 0.0
O121 O 0.59687 0.13907 0.41928 0.0
C122 C 0.62834 0.17111 0.41725 0.0
O123 O 0.62947 0.16916 0.3063 0.0
O124 O 0.62871 0.15775 0.47961 0.0
O125 O 0.65823 0.1361 0.31655 0.0
O126 O 0.62952 0.10911 0.45043 0.0
C127 C 0.62733 0.09795 0.37268 0.0
O128 O 0.62642 0.10322 0.2665 0.0
O129 O 0.61034 0.13607 0.25404 0.0
Mg130 Mg 0.13711 0.38718 0.62567 0.0
C131 C 0.13779 0.35058 0.59544 0.0
O132 O 0.13634 0.35755 0.49391 0.0
C133 C 0.14186 0.42227 0.70347 0.0
O134 O 0.14563 0.42223 0.59439 0.0
C135 C 0.17358 0.3891 0.58472 0.0
O136 O 0.17144 0.38633 0.69427 0.0
O137 O 0.16028 0.39038 0.52236 0.0
O138 O 0.13862 0.3605 0.68144 0.0
O139 O 0.11144 0.38896 0.55123 0.0
C140 C 0.10049 0.38527 0.62789 0.0
O141 O 0.1062 0.38135 0.72999 0.0
O142 O 0.13779 0.40812 0.75018 0.0
Mg143 Mg 0.38713 0.88019 0.38119 0.0
C144 C 0.35062 0.87499 0.40661 0.0
O145 O 0.35732 0.87401 0.50913 0.0
C146 C 0.42209 0.88524 0.30907 0.0
O147 O 0.42126 0.88908 0.41793 0.0
C148 C 0.39127 0.84381 0.4218 0.0
O149 O 0.38908 0.84582 0.31155 0.0
O150 O 0.39149 0.85716 0.48422 0.0
O151 O 0.36067 0.87735 0.32251 0.0
O152 O 0.38745 0.90588 0.45678 0.0
C153 C 0.38156 0.91669 0.38542 0.0
O154 O 0.37631 0.91097 0.28611 0.0
O155 O 0.40836 0.8806 0.25923 0.0
Mg156 Mg 0.8817 0.8889 0.6143 0.0
C157 C 0.8805 0.85224 0.64407 0.0
O158 O 0.88093 0.85916 0.74606 0.0
C159 C 0.87649 0.92423 0.53951 0.0
O160 O 0.87328 0.92406 0.64939 0.0
C161 C 0.84517 0.89089 0.65514 0.0
O162 O 0.84725 0.88888 0.54483 0.0
O163 O 0.8585 0.89159 0.71766 0.0
O164 O 0.88065 0.86221 0.55796 0.0
O165 O 0.9071 0.89116 0.69281 0.0
C166 C 0.91854 0.89508 0.6199 0.0
O167 O 0.91372 0.89799 0.51441 0.0
O168 O 0.88028 0.91012 0.49131 0.0
Mg169 Mg 0.88939 0.13653 0.36874 0.0
C170 C 0.85276 0.13567 0.33881 0.0
O171 O 0.8597 0.13399 0.23743 0.0
C172 C 0.92415 0.1434 0.45136 0.0
O173 O 0.9242 0.14799 0.34366 0.0
C174 C 0.88922 0.17317 0.32687 0.0
O175 O 0.88539 0.17096 0.43493 0.0
O176 O 0.89186 0.15991 0.26612 0.0
O177 O 0.8627 0.13712 0.42441 0.0
O178 O 0.89208 0.11111 0.2908 0.0
C179 C 0.8961 0.09965 0.36348 0.0
O180 O 0.89898 0.10442 0.46904 0.0
O181 O 0.91014 0.13816 0.49464 0.0
Mg182 Mg 0.13688 0.12948 0.61709 0.0
C183 C 0.13865 0.16604 0.64737 0.0
O184 O 0.13856 0.15904 0.74924 0.0
C185 C 0.14198 0.09432 0.54193 0.0
O186 O 0.14521 0.09449 0.65181 0.0
C187 C 0.17336 0.12816 0.6598 0.0
O188 O 0.17136 0.13094 0.55014 0.0
O189 O 0.15998 0.12664 0.72117 0.0
O190 O 0.13805 0.15616 0.56106 0.0
O191 O 0.1114 0.1272 0.69352 0.0
C192 C 0.10009 0.12549 0.61602 0.0
O193 O 0.10524 0.12479 0.50955 0.0
O194 O 0.13818 0.10842 0.49358 0.0
Mg195 Mg 0.12965 0.88137 0.3667 0.0
C196 C 0.16636 0.88227 0.34169 0.0
O197 O 0.15971 0.8851 0.24054 0.0
C198 C 0.09422 0.87726 0.43778 0.0
O199 O 0.09448 0.87516 0.32671 0.0
C200 C 0.12583 0.84497 0.32211 0.0
O201 O 0.12611 0.84672 0.43345 0.0
O202 O 0.12693 0.85842 0.26094 0.0
O203 O 0.15618 0.88005 0.42528 0.0
O204 O 0.12752 0.90698 0.29101 0.0
C205 C 0.12467 0.91827 0.36699 0.0
O206 O 0.1228 0.91316 0.47295 0.0
O207 O 0.10838 0.87996 0.48862 0.0
H208 H 0.36494 0.9407 0.26093 0.0
H209 H 0.36504 0.97155 0.28488 0.0
H210 H 0.39663 0.96647 0.58418 0.0
H211 H 0.39672 0.93514 0.56005 0.0
H212 H 0.35413 0.99179 0.47235 0.0
H213 H 0.42348 1.00031 0.37656 0.0
H214 H 0.41233 0.98073 0.34278 0.0
H215 H 0.41751 0.98564 0.48798 0.0
C216 C 0.37191 0.94603 0.33236 0.0
C217 C 0.38093 0.93539 0.4082 0.0
C218 C 0.37189 0.96374 0.34605 0.0
C219 C 0.38097 0.97139 0.43553 0.0
C220 C 0.38971 0.96086 0.51356 0.0
H221 H 0.39294 0.08454 0.40795 0.0
H222 H 0.39375 0.05574 0.49406 0.0
C223 C 0.38967 0.94297 0.50014 0.0
C224 C 0.38128 0.9904 0.44282 0.0
H225 H 0.40647 0.02498 0.38143 0.0
C226 C 0.36565 0.99907 0.45505 0.0
C227 C 0.39632 0.99995 0.42075 0.0
C228 C 0.4134 0.99128 0.40564 0.0
C229 C 0.36449 0.01685 0.43915 0.0
C230 C 0.37928 0.02622 0.40867 0.0
C231 C 0.39513 0.01778 0.40465 0.0
C232 C 0.37808 0.04399 0.36379 0.0
C233 C 0.34726 0.02536 0.45051 0.0
C234 C 0.36906 0.04691 0.26235 0.0
C235 C 0.3687 0.06315 0.21309 0.0
C236 C 0.37732 0.07696 0.26397 0.0
C237 C 0.38606 0.07419 0.36722 0.0
C238 C 0.38659 0.05775 0.41617 0.0
H239 H 0.33871 0.01803 0.50829 0.0
H240 H 0.34856 0.03862 0.48332 0.0
H241 H 0.34106 0.02594 0.36553 0.0
H242 H 0.36264 0.03647 0.21928 0.0
H243 H 0.36183 0.0648 0.13365 0.0
H244 H 0.08304 0.61594 0.6398 0.0
H245 H 0.05398 0.61027 0.56926 0.0
H246 H 0.03939 0.66202 0.64962 0.0
H247 H 0.06821 0.66772 0.72123 0.0
H248 H 0.02387 0.6154 0.72201 0.0
H249 H 0.01965 0.65276 0.32019 0.0
H250 H 0.03977 0.6454 0.37832 0.0
H251 H 0.02917 0.66352 0.43995 0.0
C252 C 0.07376 0.62623 0.63978 0.0
C253 C 0.07795 0.64229 0.68618 0.0
C254 C 0.05714 0.62295 0.5999 0.0
C255 C 0.04454 0.63576 0.60345 0.0
C256 C 0.04894 0.65201 0.64465 0.0
H257 H 0.93551 0.6474 0.51961 0.0
H258 H 0.96662 0.65079 0.52547 0.0
C259 C 0.06543 0.65523 0.68591 0.0
C260 C 0.02639 0.63178 0.57583 0.0
H261 H 0.99353 0.64224 0.39651 0.0
C262 C 0.01726 0.62106 0.64997 0.0
C263 C 0.01776 0.6394 0.48289 0.0
C264 C 0.02706 0.65084 0.39998 0.0
C265 C 0.99962 0.61821 0.63616 0.0
C266 C 0.99089 0.62581 0.54292 0.0
C267 C 1.00015 0.63632 0.46754 0.0
C268 C 0.97206 0.62364 0.52584 0.0
C269 C 0.99039 0.60774 0.72519 0.0
C270 C 0.96467 0.60728 0.51903 0.0
C271 C 0.94685 0.60531 0.51718 0.0
C272 C 0.93601 0.61966 0.51939 0.0
C273 C 0.94345 0.63606 0.51776 0.0
C274 C 0.96128 0.63801 0.52135 0.0
H275 H 0.99774 0.60704 0.80609 0.0
H276 H 0.97757 0.61316 0.74399 0.0
H277 H 0.98869 0.59449 0.6934 0.0
H278 H 0.97267 0.59598 0.51845 0.0
H279 H 0.94157 0.5925 0.5172 0.0
H280 H 0.64321 0.93098 0.40229 0.0
H281 H 0.64227 0.95965 0.4895 0.0
H282 H 0.61287 0.97817 0.20407 0.0
H283 H 0.61364 0.94998 0.11788 0.0
H284 H 0.65462 0.99085 0.3929 0.0
H285 H 0.58527 0.99527 0.47675 0.0
H286 H 0.59594 0.97509 0.45261 0.0
H287 H 0.58947 0.98824 0.33408 0.0
C288 C 0.63637 0.94114 0.35918 0.0
C289 C 0.62847 0.93815 0.2532 0.0
C290 C 0.63587 0.95751 0.4089 0.0
C291 C 0.62724 0.97101 0.35424 0.0
C292 C 0.61928 0.96791 0.24923 0.0
H293 H 0.61546 0.07332 0.23124 0.0
H294 H 0.61575 0.04248 0.25838 0.0
C295 C 0.61985 0.95174 0.19956 0.0
C296 C 0.62719 0.9887 0.40094 0.0
H297 H 0.60009 0.02225 0.44695 0.0
C298 C 0.64275 0.99764 0.40838 0.0
C299 C 0.61171 0.99754 0.42171 0.0
C300 C 0.59467 0.98848 0.42207 0.0
C301 C 0.64309 0.01546 0.42586 0.0
C302 C 0.62749 0.02448 0.43678 0.0
C303 C 0.61204 0.01533 0.4381 0.0
C304 C 0.62673 0.04342 0.42732 0.0
C305 C 0.66 0.02474 0.4238 0.0
C306 C 0.63256 0.0543 0.51447 0.0
C307 C 0.63231 0.07216 0.49945 0.0
C308 C 0.62637 0.07931 0.39664 0.0
C309 C 0.62022 0.0683 0.31123 0.0
C310 C 0.62034 0.05062 0.32661 0.0
H311 H 0.67095 0.01594 0.40968 0.0
H312 H 0.65995 0.03454 0.35527 0.0
H313 H 0.66195 0.03147 0.50599 0.0
H314 H 0.63743 0.04899 0.5933 0.0
H315 H 0.63716 0.08031 0.5667 0.0
H316 H 0.08275 0.39325 0.43004 0.0
H317 H 0.05146 0.39359 0.40387 0.0
H318 H 0.04477 0.37809 0.75371 0.0
H319 H 0.07554 0.37747 0.77985 0.0
H320 H 0.02424 0.35982 0.60476 0.0
H321 H 0.01866 0.43 0.53154 0.0
H322 H 0.03264 0.41815 0.43898 0.0
H323 H 0.03795 0.42043 0.58694 0.0
C324 C 0.07457 0.3899 0.50106 0.0
C325 C 0.08171 0.38541 0.60712 0.0
C326 C 0.0567 0.39016 0.48618 0.0
C327 C 0.04573 0.38599 0.5772 0.0
C328 C 0.05292 0.38132 0.68212 0.0
H329 H 0.95116 0.40947 0.85137 0.0
H330 H 0.97965 0.40782 0.76938 0.0
C331 C 0.07061 0.38104 0.69694 0.0
C332 C 0.02674 0.38663 0.5671 0.0
H333 H 0.99322 0.41466 0.5576 0.0
C334 C 0.01739 0.37173 0.59201 0.0
C335 C 0.01785 0.4022 0.55092 0.0
C336 C 0.0272 0.41867 0.5262 0.0
C337 C 0.99957 0.37217 0.60847 0.0
C338 C 0.99076 0.3879 0.59751 0.0
C339 C 0.99997 0.40259 0.5655 0.0
C340 C 0.97273 0.38992 0.63668 0.0
C341 C 0.99055 0.35603 0.64566 0.0
C342 C 0.9591 0.38073 0.58771 0.0
C343 C 0.94261 0.38159 0.63526 0.0
C344 C 0.93952 0.39167 0.73238 0.0
C345 C 0.95305 0.40144 0.77731 0.0
C346 C 0.9694 0.40058 0.73007 0.0
H347 H 0.99967 0.34563 0.66736 0.0
H348 H 0.98236 0.35855 0.72108 0.0
H349 H 0.98219 0.35145 0.57563 0.0
H350 H 0.96128 0.37264 0.51437 0.0
H351 H 0.93245 0.37397 0.59834 0.0
H352 H 0.37333 0.43079 0.85814 0.0
H353 H 0.37092 0.45992 0.77967 0.0
H354 H 0.4058 0.47836 0.03621 0.0
H355 H 0.40824 0.44965 0.11457 0.0
H356 H 0.37404 0.49593 0.02581 0.0
H357 H 0.40537 0.4913 0.60122 0.0
H358 H 0.38965 0.47528 0.63603 0.0
H359 H 0.40938 0.47604 0.7139 0.0
C360 C 0.38071 0.44101 0.89634 0.0
C361 C 0.39089 0.43787 0.99312 0.0
C362 C 0.37936 0.45764 0.85128 0.0
C363 C 0.38823 0.47133 0.90192 0.0
C364 C 0.39883 0.46804 0.99572 0.0
H365 H 0.40469 0.57908 0.77214 0.0
H366 H 0.40749 0.54788 0.78612 0.0
C367 C 0.40019 0.45155 0.04051 0.0
C368 C 0.38552 0.48936 0.86514 0.0
H369 H 0.39339 0.51806 0.65108 0.0
C370 C 0.37817 0.50073 0.94356 0.0
C371 C 0.39106 0.49564 0.75823 0.0
C372 C 0.39942 0.48402 0.67227 0.0
C373 C 0.37632 0.51819 0.91862 0.0
C374 C 0.3818 0.52451 0.81165 0.0
C375 C 0.38912 0.51317 0.73272 0.0
C376 C 0.38026 0.54299 0.78308 0.0
C377 C 0.36888 0.52986 0.00824 0.0
C378 C 0.36406 0.55054 0.77219 0.0
C379 C 0.36241 0.56831 0.76428 0.0
C380 C 0.37694 0.57896 0.76688 0.0
C381 C 0.39323 0.57129 0.7699 0.0
C382 C 0.39486 0.55345 0.77794 0.0
H383 H 0.36845 0.52367 0.09343 0.0
H384 H 0.37647 0.54184 0.01489 0.0
H385 H 0.35562 0.53338 0.98385 0.0
H386 H 0.35263 0.54271 0.77479 0.0
H387 H 0.34967 0.57373 0.76116 0.0
H388 H 0.451 0.61747 0.85254 0.0
H389 H 0.47915 0.61778 0.93957 0.0
H390 H 0.45783 0.63912 0.24688 0.0
H391 H 0.4292 0.63907 0.15859 0.0
H392 H 0.48681 0.65619 0.17673 0.0
H393 H 0.50015 0.587 0.17808 0.0
H394 H 0.49331 0.59378 0.03947 0.0
H395 H 0.47884 0.59543 0.15851 0.0
C396 C 0.45214 0.6221 0.93915 0.0
C397 C 0.43775 0.62823 -0.00147 0.0
C398 C 0.46832 0.62211 0.98932 0.0
C399 C 0.47065 0.62812 0.10077 0.0
C400 C 0.45633 0.63423 0.16115 0.0
H401 H 0.57933 0.61815 0.30647 0.0
H402 H 0.54799 0.6167 0.32681 0.0
C403 C 0.43998 0.63417 0.11074 0.0
C404 C 0.48831 0.62902 0.14872 0.0
H405 H 0.52511 0.60562 0.17021 0.0
C406 C 0.49508 0.64506 0.1779 0.0
C407 C 0.49913 0.61449 0.153 0.0
C408 C 0.49241 0.59669 0.1318 0.0
C409 C 0.51261 0.64715 0.20175 0.0
C410 C 0.52375 0.6329 0.194 0.0
C411 C 0.51671 0.61664 0.17442 0.0
C412 C 0.54275 0.63486 0.19183 0.0
C413 C 0.51907 0.66475 0.23204 0.0
C414 C 0.55027 0.64548 0.1095 0.0
C415 C 0.56802 0.64631 0.09786 0.0
C416 C 0.57883 0.63642 0.16758 0.0
C417 C 0.57138 0.62601 0.25194 0.0
C418 C 0.55347 0.62515 0.2634 0.0
H419 H 0.50903 0.67229 0.27628 0.0
H420 H 0.53057 0.6641 0.28748 0.0
H421 H 0.52248 0.6717 0.15275 0.0
H422 H 0.54237 0.65274 0.05104 0.0
H423 H 0.57324 0.65446 0.03177 0.0
H424 H 0.64262 0.44246 0.02829 0.0
H425 H 0.64178 0.47324 0.00387 0.0
H426 H 0.62443 0.46693 0.65766 0.0
H427 H 0.62497 0.43563 0.6822 0.0
H428 H 0.65898 0.49423 0.85256 0.0
H429 H 0.58839 0.49908 0.79574 0.0
H430 H 0.59847 0.47981 0.84718 0.0
H431 H 0.5999 0.48544 0.69923 0.0
C432 C 0.63861 0.44748 0.94652 0.0
C433 C 0.63376 0.43649 0.85733 0.0
C434 C 0.63821 0.46518 0.93266 0.0
C435 C 0.63292 0.47247 0.82936 0.0
C436 C 0.62833 0.46161 0.73879 0.0
H437 H 0.64355 0.58585 0.85414 0.0
H438 H 0.64497 0.55712 0.76895 0.0
C439 C 0.62872 0.44373 0.7527 0.0
C440 C 0.63202 0.49147 0.82068 0.0
H441 H 0.60357 0.52465 0.81959 0.0
C442 C 0.64693 0.50095 0.84292 0.0
C443 C 0.61627 0.5002 0.80858 0.0
C444 C 0.59978 0.4907 0.78699 0.0
C445 C 0.64637 0.51873 0.86064 0.0
C446 C 0.63049 0.52736 0.85375 0.0
C447 C 0.61575 0.51803 0.82439 0.0
C448 C 0.62844 0.5453 0.89443 0.0
C449 C 0.66258 0.52788 0.89481 0.0
C450 C 0.61819 0.54837 0.99025 0.0
C451 C 0.61729 0.56466 0.03822 0.0
C452 C 0.62659 0.57839 0.99161 0.0
C453 C 0.63629 0.57554 0.89239 0.0
C454 C 0.6372 0.55911 0.84411 0.0
H455 H 0.6732 0.51886 0.91358 0.0
H456 H 0.66672 0.5364 0.82436 0.0
H457 H 0.66034 0.53593 0.97129 0.0
H458 H 0.6113 0.53798 0.03066 0.0
H459 H 0.60956 0.56635 0.11396 0.0
H460 H 0.44406 0.35272 0.11486 0.0
H461 H 0.47497 0.3554 0.12937 0.0
H462 H 0.4692 0.40435 0.29383 0.0
H463 H 0.43793 0.40184 0.27786 0.0
H464 H 0.49079 0.40613 0.11549 0.0
H465 H 0.50997 0.35101 0.3789 0.0
H466 H 0.49608 0.34421 0.26618 0.0
H467 H 0.48816 0.35862 0.37372 0.0
C468 C 0.44929 0.36393 0.15632 0.0
C469 C 0.43849 0.37709 0.19492 0.0
C470 C 0.46704 0.36537 0.16558 0.0
C471 C 0.47451 0.37995 0.2143 0.0
C472 C 0.46375 0.39289 0.25688 0.0
H473 H 0.58824 0.3823 0.17079 0.0
H474 H 0.55961 0.38396 0.2582 0.0
C475 C 0.44588 0.39142 0.24807 0.0
C476 C 0.4934 0.38237 0.20696 0.0
H477 H 0.53128 0.36109 0.24208 0.0
C478 C 0.49966 0.39648 0.14574 0.0
C479 C 0.50514 0.36997 0.24764 0.0
C480 C 0.49949 0.35521 0.32136 0.0
C481 C 0.51704 0.3978 0.11649 0.0
C482 C 0.52846 0.38454 0.14752 0.0
C483 C 0.5225 0.37114 0.21659 0.0
C484 C 0.54595 0.38342 0.0978 0.0
C485 C 0.52291 0.41316 0.04904 0.0
C486 C 0.54775 0.38214 0.97933 0.0
C487 C 0.56392 0.38116 0.9297 0.0
C488 C 0.57882 0.38132 -0.00285 0.0
C489 C 0.57705 0.38222 0.1164 0.0
C490 C 0.56071 0.38318 0.16638 0.0
H491 H 0.51457 0.42441 0.06507 0.0
H492 H 0.53632 0.41662 0.07016 0.0
H493 H 0.52221 0.41016 0.95675 0.0
H494 H 0.53657 0.38185 0.92476 0.0
H495 H 0.56469 0.38032 0.83774 0.0
H496 H 0.85982 0.44345 0.79737 0.0
H497 H 0.86067 0.47438 0.81848 0.0
H498 H 0.90178 0.46975 0.06155 0.0
H499 H 0.90108 0.43839 0.04009 0.0
H500 H 0.85701 0.49567 0.01428 0.0
H501 H 0.92114 0.50201 0.8107 0.0
H502 H 0.90873 0.48261 0.79973 0.0
H503 H 0.9191 0.48793 0.93135 0.0
C504 C 0.869 0.44891 0.85614 0.0
C505 C 0.88048 0.43841 0.91644 0.0
C506 C 0.86943 0.46665 0.8683 0.0
C507 C 0.88141 0.47444 0.94043 0.0
C508 C 0.89256 0.46403 0.00419 0.0
H509 H 0.89671 0.58653 0.87395 0.0
H510 H 0.89909 0.55793 0.96092 0.0
C511 C 0.89207 0.44612 0.99253 0.0
C512 C 0.88232 0.49346 0.94347 0.0
H513 H 0.90551 0.52717 0.84019 0.0
C514 C 0.86777 0.50259 0.9784 0.0
C515 C 0.89638 0.50253 0.89718 0.0
C516 C 0.91224 0.49337 0.85688 0.0
C517 C 0.86654 0.52037 0.9628 0.0
C518 C 0.88008 0.52927 0.90898 0.0
C519 C 0.89511 0.52035 0.88121 0.0
C520 C 0.87794 0.54709 0.86633 0.0
C521 C 0.85047 0.5294 0.00076 0.0
C522 C 0.86528 0.55052 0.78469 0.0
C523 C 0.86397 0.56668 0.73493 0.0
C524 C 0.87528 0.5799 0.76534 0.0
C525 C 0.8877 0.57667 0.84954 0.0
C526 C 0.88912 0.56032 0.89886 0.0
H527 H 0.84427 0.52253 0.07266 0.0
H528 H 0.8532 0.54275 0.0274 0.0
H529 H 0.84124 0.52975 0.92896 0.0
H530 H 0.85673 0.54048 0.75631 0.0
H531 H 0.85427 0.56869 0.67031 0.0
H532 H 0.56603 0.14771 0.39926 0.0
H533 H 0.53773 0.14683 0.31363 0.0
H534 H 0.55936 0.12817 -0.00029 0.0
H535 H 0.58815 0.12898 0.08585 0.0
H536 H 0.5261 0.16379 0.10289 0.0
H537 H 0.52081 0.09266 0.09457 0.0
H538 H 0.53603 0.10327 0.18626 0.0
H539 H 0.53949 0.10286 0.03537 0.0
C540 C 0.5649 0.14346 0.31177 0.0
C541 C 0.5794 0.13834 0.2496 0.0
C542 C 0.54865 0.14301 0.26285 0.0
C543 C 0.5464 0.13731 0.15071 0.0
C544 C 0.56082 0.13246 0.08686 0.0
H545 H 0.4378 0.12136 0.94527 0.0
H546 H 0.4691 0.12278 0.91868 0.0
C547 C 0.57725 0.13303 0.13588 0.0
C548 C 0.52873 0.13639 0.10432 0.0
H549 H 0.49553 0.10842 0.06846 0.0
C550 C 0.5195 0.15168 0.09234 0.0
C551 C 0.52014 0.1206 0.09003 0.0
C552 C 0.5295 0.10384 0.10227 0.0
C553 C 0.50176 0.15159 0.07389 0.0
C554 C 0.49292 0.13581 0.06933 0.0
C555 C 0.50231 0.12051 0.07228 0.0
C556 C 0.47398 0.13506 0.08064 0.0
C557 C 0.49247 0.16845 0.06489 0.0
C558 C 0.46643 0.14123 0.18072 0.0
C559 C 0.44878 0.14037 0.19621 0.0
C560 C 0.43812 0.13325 0.11209 0.0
C561 C 0.44565 0.12699 0.01141 0.0
C562 C 0.4635 0.12778 0.9962 0.0
H563 H 0.50105 0.17868 0.03247 0.0
H564 H 0.48118 0.16745 0.00783 0.0
H565 H 0.48797 0.17232 0.15075 0.0
H566 H 0.47427 0.14659 0.24801 0.0
H567 H 0.44353 0.14528 0.27502 0.0
H568 H 0.1332 0.58156 0.06553 0.0
H569 H 0.13541 0.55045 0.09624 0.0
H570 H 0.1159 0.54164 0.75763 0.0
H571 H 0.11346 0.57228 0.72725 0.0
H572 H 0.10203 0.51941 0.91921 0.0
H573 H 0.17319 0.52167 0.94398 0.0
H574 H 0.16132 0.53447 0.04367 0.0
H575 H 0.16078 0.53968 0.89477 0.0
C576 C 0.12916 0.57294 -0.00148 0.0
C577 C 0.12331 0.57942 0.89358 0.0
C578 C 0.13055 0.55518 0.0158 0.0
C579 C 0.12604 0.54369 0.92855 0.0
C580 C 0.11949 0.5502 0.82615 0.0
H581 H 0.15497 0.45257 0.63259 0.0
H582 H 0.1513 0.48068 0.71732 0.0
C583 C 0.11817 0.56779 0.80878 0.0
C584 C 0.12884 0.5249 0.93844 0.0
H585 H 0.16044 0.49474 0.92657 0.0
C586 C 0.11476 0.51394 0.92357 0.0
C587 C 0.14548 0.5178 0.94337 0.0
C588 C 0.16113 0.52893 0.95669 0.0
C589 C 0.11693 0.49627 0.90632 0.0
C590 C 0.13365 0.48929 0.9056 0.0
C591 C 0.14764 0.50009 0.92769 0.0
C592 C 0.13707 0.47165 0.8635 0.0
C593 C 0.10143 0.48543 0.88062 0.0
C594 C 0.13066 0.45701 0.91886 0.0
C595 C 0.13273 0.44072 0.87 0.0
C596 C 0.14122 0.43887 0.76498 0.0
C597 C 0.14823 0.45349 0.71296 0.0
C598 C 0.14621 0.46963 0.76164 0.0
H599 H 0.08969 0.49325 0.86892 0.0
H600 H 0.10354 0.47776 0.8023 0.0
H601 H 0.09919 0.47642 0.95218 0.0
H602 H 0.12378 0.45822 -0.0015 0.0
H603 H 0.12722 0.42971 0.91233 0.0
H604 H 0.43037 0.87542 0.08907 0.0
H605 H 0.459 0.87538 0.00139 0.0
H606 H 0.48036 0.89609 0.31073 0.0
H607 H 0.45216 0.89646 0.3971 0.0
H608 H 0.49324 0.91182 0.11889 0.0
H609 H 0.49661 0.8409 0.08083 0.0
H610 H 0.47904 0.85145 0.01122 0.0
H611 H 0.48029 0.85138 0.16394 0.0
C612 C 0.44118 0.88006 0.13782 0.0
C613 C 0.43895 0.88583 0.25045 0.0
C614 C 0.45755 0.87995 0.08789 0.0
C615 C 0.47191 0.88555 0.14995 0.0
C616 C 0.46954 0.89171 0.26096 0.0
H617 H 0.57466 0.86429 0.23773 0.0
H618 H 0.5438 0.86573 0.21624 0.0
C619 C 0.45333 0.89184 0.3105 0.0
C620 C 0.48963 0.88464 0.10359 0.0
H621 H 0.5217 0.8563 0.04477 0.0
C622 C 0.49941 0.89972 0.10025 0.0
C623 C 0.49768 0.86883 0.07978 0.0
C624 C 0.48798 0.85216 0.08455 0.0
C625 C 0.51718 0.89933 0.08104 0.0
C626 C 0.52537 0.88344 0.06245 0.0
C627 C 0.5154 0.86848 0.05856 0.0
C628 C 0.54435 0.88172 0.06577 0.0
C629 C 0.52719 0.9158 0.08908 0.0
C630 C 0.55512 0.88995 0.98673 0.0
C631 C 0.57301 0.88922 -0.00082 0.0
C632 C 0.58037 0.88021 0.0908 0.0
C633 C 0.5695 0.87147 0.16665 0.0
C634 C 0.55178 0.87221 0.15422 0.0
H635 H 0.51926 0.92656 0.12103 0.0
H636 H 0.53836 0.91421 0.14656 0.0
H637 H 0.53206 0.9193 0.0034 0.0
H638 H 0.5497 0.89714 0.91661 0.0
H639 H 0.58102 0.89603 0.93906 0.0
H640 H 0.8635 0.95441 0.61339 0.0
H641 H 0.86654 0.98257 0.52822 0.0
H642 H 0.89339 0.96056 0.24297 0.0
H643 H 0.89055 0.93198 0.32949 0.0
H644 H 0.91035 0.9881 0.33306 0.0
H645 H 0.84292 1.00599 0.26493 0.0
H646 H 0.84608 0.99855 0.40787 0.0
H647 H 0.84944 0.98415 0.29014 0.0
C648 C 0.86985 0.95542 0.53164 0.0
C649 C 0.87679 0.94089 0.47833 0.0
C650 C 0.87144 0.9716 0.4824 0.0
C651 C 0.87993 0.97373 0.37805 0.0
C652 C 0.88663 0.95922 0.32301 0.0
H653 H 0.8818 0.08303 0.17863 0.0
H654 H 0.87914 0.05191 0.15164 0.0
C655 C 0.88495 0.9429 0.3723 0.0
C656 C 0.88298 0.99136 0.3338 0.0
H657 H 0.86275 0.02964 0.29394 0.0
C658 C 0.89992 0.99709 0.32179 0.0
C659 C 0.86944 1.00311 0.31661 0.0
C660 C 0.85096 0.99757 0.31932 0.0
C661 C 0.90366 0.01446 0.30262 0.0
C662 C 0.89013 0.02649 0.29737 0.0
C663 C 0.87318 0.02053 0.29967 0.0
C664 C 0.89325 0.04528 0.30422 0.0
C665 C 0.92212 0.0198 0.29159 0.0
C666 C 0.90208 0.05193 0.39833 0.0
C667 C 0.90357 0.06956 0.41382 0.0
C668 C 0.89619 0.08109 0.33599 0.0
C669 C 0.88775 0.0745 0.23962 0.0
C670 C 0.88617 0.05672 0.22439 0.0
H671 H 0.92999 0.00933 0.25492 0.0
H672 H 0.9235 0.03135 0.23715 0.0
H673 H 0.92731 0.02273 0.37741 0.0
H674 H 0.90728 0.04348 0.46274 0.0
H675 H 0.91014 0.07415 0.48912 0.0
H676 H 0.95396 0.15868 0.39116 0.0
H677 H 0.98213 0.15482 0.47543 0.0
H678 H 0.96031 0.12308 0.73855 0.0
H679 H 0.93179 0.12669 0.65269 0.0
H680 H 0.99616 0.16128 0.6889 0.0
H681 H 0.99584 0.09162 0.58947 0.0
H682 H 0.98003 0.10605 0.53194 0.0
H683 H 0.9789 0.09956 0.6785 0.0
C684 C 0.95504 0.15099 0.46765 0.0
C685 C 0.94062 0.14283 0.51438 0.0
C686 C 0.9712 0.14886 0.5161 0.0
C687 C 0.97343 0.13845 0.61234 0.0
C688 C 0.95895 0.13095 0.66314 0.0
H689 H 0.08326 0.13312 0.81728 0.0
H690 H 0.05209 0.13503 0.84614 0.0
C691 C 0.94265 0.13312 0.61454 0.0
C692 C 0.99114 0.1348 0.65244 0.0
H693 H 0.02173 0.10359 0.64907 0.0
C694 C 1.00171 0.14861 0.68279 0.0
C695 C 0.99837 0.11826 0.64368 0.0
C696 C 0.9878 0.10299 0.60852 0.0
C697 C 0.01945 0.14652 0.69784 0.0
C698 C 0.0268 0.13012 0.68372 0.0
C699 C 0.01607 0.11613 0.6604 0.0
C700 C 0.04564 0.12769 0.67352 0.0
C701 C 0.03034 0.16208 0.72061 0.0
C702 C 0.05234 0.12241 0.56854 0.0
C703 C 0.06997 0.12125 0.55219 0.0
C704 C 0.08144 0.12529 0.64055 0.0
C705 C 0.07477 0.12997 0.74745 0.0
C706 C 0.05697 0.13117 0.76378 0.0
H707 H 0.02292 0.17416 0.71407 0.0
H708 H 0.03576 0.16125 0.80781 0.0
H709 H 0.04118 0.16267 0.65955 0.0
H710 H 0.0439 0.11964 0.49764 0.0
H711 H 0.07459 0.11748 0.46893 0.0
H712 H 0.13579 0.9352 0.1734 0.0
H713 H 0.13819 0.96637 0.14681 0.0
H714 H 0.11611 0.97435 0.47918 0.0
H715 H 0.11348 0.94363 0.50543 0.0
H716 H 0.10346 0.99695 0.31609 0.0
H717 H 0.17471 0.99484 0.31366 0.0
H718 H 0.16365 0.98227 0.20862 0.0
H719 H 0.16198 0.9767 0.35658 0.0
C720 C 0.13125 0.94364 0.23991 0.0
C721 C 0.12459 0.9369 0.34196 0.0
C722 C 0.13273 0.96144 0.225 0.0
C723 C 0.12755 0.97272 0.31177 0.0
C724 C 0.12023 0.96596 0.4111 0.0
H725 H 0.15454 0.06404 0.61767 0.0
H726 H 0.15134 0.03587 0.53293 0.0
C727 C 0.1188 0.94832 0.42612 0.0
C728 C 0.13039 0.99154 0.3046 0.0
H729 H 0.16182 0.02176 0.32677 0.0
C730 C 0.1162 1.00245 0.31581 0.0
C731 C 0.14703 0.99867 0.30501 0.0
C732 C 0.16278 0.98759 0.29601 0.0
C733 C 0.11823 0.02012 0.33421 0.0
C734 C 0.13491 0.02713 0.3399 0.0
C735 C 0.14905 0.01638 0.32181 0.0
C736 C 0.13802 0.0448 0.38267 0.0
C737 C 0.10255 0.03091 0.35558 0.0
C738 C 0.13196 0.0594 0.32514 0.0
C739 C 0.13377 0.07572 0.37397 0.0
C740 C 0.14163 0.07766 0.48111 0.0
C741 C 0.14828 0.06306 0.53556 0.0
C742 C 0.14653 0.04689 0.48692 0.0
H743 H 0.09077 0.02305 0.36408 0.0
H744 H 0.10417 0.0386 0.43435 0.0
H745 H 0.10072 0.0399 0.28339 0.0
H746 H 0.12558 0.05814 0.2437 0.0
H747 H 0.12854 0.0867 0.32976 0.0
H748 H 0.94411 0.90857 0.49243 0.0
H749 H 0.9748 0.90537 0.51841 0.0
H750 H 0.96623 0.87829 0.8335 0.0
H751 H 0.9351 0.88125 0.80691 0.0
H752 H 0.99761 0.91492 0.68903 0.0
H753 H 0.994 0.84409 0.64272 0.0
H754 H 0.97612 0.85779 0.60919 0.0
H755 H 0.98166 0.85367 0.75509 0.0
C756 C 0.94867 0.90205 0.56804 0.0
C757 C 0.93711 0.89499 0.64698 0.0
C758 C 0.96629 0.90029 0.58298 0.0
C759 C 0.97287 0.89138 0.67696 0.0
C760 C 0.96144 0.88499 0.7593 0.0
H761 H 0.08688 0.88785 0.65732 0.0
H762 H 0.05836 0.8904 0.74492 0.0
C763 C 0.94367 0.8868 0.7445 0.0
C764 C 0.99162 0.88809 0.68223 0.0
H765 H 0.02118 0.85657 0.63833 0.0
C766 C 1.00284 0.90214 0.68059 0.0
C767 C 0.99841 0.8714 0.67041 0.0
C768 C 0.987 0.85582 0.66868 0.0
C769 C 0.02047 0.90005 0.66064 0.0
C770 C 0.02712 0.88342 0.64344 0.0
C771 C 0.01607 0.8693 0.65207 0.0
C772 C 0.0447 0.88061 0.59824 0.0
C773 C 0.03161 0.91573 0.64996 0.0
C774 C 0.04657 0.87375 0.48863 0.0
C775 C 0.06271 0.87223 0.43905 0.0
C776 C 0.07749 0.87748 0.49786 0.0
C777 C 0.07575 0.88373 0.60968 0.0
C778 C 0.05946 0.8853 0.6595 0.0
H779 H 0.02402 0.92774 0.65021 0.0
H780 H 0.04069 0.91618 0.72257 0.0
H781 H 0.03921 0.91522 0.57012 0.0
H782 H 0.03542 0.87002 0.43965 0.0
H783 H 0.06352 0.86724 0.35318 0.0
H784 H 0.38324 0.33014 0.96773 0.0
H785 H 0.383 0.29873 0.9561 0.0
H786 H 0.36884 0.29578 0.31054 0.0
H787 H 0.3688 0.32684 0.3225 0.0
H788 H 0.40306 0.2759 0.08192 0.0
H789 H 0.33432 0.26372 0.16446 0.0
H790 H 0.34238 0.28457 0.12576 0.0
H791 H 0.34419 0.27704 0.27015 0.0
C792 C 0.37984 0.32278 0.0426 0.0
C793 C 0.37599 0.33104 0.14586 0.0
C794 C 0.37976 0.30484 0.036 0.0
C795 C 0.37565 0.29487 0.13209 0.0
C796 C 0.37167 0.30314 0.23461 0.0
H797 H 0.37572 0.18525 0.29332 0.0
H798 H 0.37441 0.21668 0.30412 0.0
C799 C 0.37178 0.32097 0.24135 0.0
C800 C 0.3764 0.27584 0.12793 0.0
H801 H 0.35293 0.23963 0.177 0.0
C802 C 0.39206 0.26798 0.10177 0.0
C803 C 0.36209 0.26548 0.15502 0.0
C804 C 0.34475 0.27311 0.17941 0.0
C805 C 0.39387 0.25008 0.10371 0.0
C806 C 0.37957 0.23972 0.13085 0.0
C807 C 0.36392 0.24757 0.15714 0.0
C808 C 0.38041 0.22072 0.12609 0.0
C809 C 0.41118 0.24243 0.07869 0.0
C810 C 0.38396 0.21259 0.02248 0.0
C811 C 0.38469 0.19478 0.01612 0.0
C812 C 0.3818 0.18457 0.1132 0.0
C813 C 0.37809 0.19271 0.21715 0.0
C814 C 0.37731 0.21065 0.22335 0.0
H815 H 0.42163 0.25188 0.09116 0.0
H816 H 0.41369 0.23115 0.13383 0.0
H817 H 0.41154 0.23816 0.98858 0.0
H818 H 0.38605 0.22004 0.94587 0.0
H819 H 0.38751 0.18902 0.93435 0.0
H820 H 0.18798 0.62344 0.05208 0.0
H821 H 0.21901 0.62548 0.0437 0.0
H822 H 0.21585 0.64489 0.70045 0.0
H823 H 0.18445 0.64265 0.70749 0.0
H824 H 0.24122 0.6201 0.72848 0.0
H825 H 0.24683 0.66919 0.06664 0.0
H826 H 0.23508 0.65063 0.1111 0.0
H827 H 0.22671 0.66402 -0.00053 0.0
C828 C 0.19379 0.62817 0.97446 0.0
C829 C 0.18365 0.63301 0.88062 0.0
C830 C 0.2116 0.62944 0.97026 0.0
C831 C 0.2198 0.63573 0.87261 0.0
C832 C 0.20979 0.64016 0.77728 0.0
H833 H 0.32598 0.65315 0.6916 0.0
H834 H 0.29489 0.65178 0.70092 0.0
C835 C 0.19186 0.63885 0.78128 0.0
C836 C 0.2388 0.63733 0.87041 0.0
H837 H 0.2727 0.65549 0.01001 0.0
C838 C 0.24809 0.62795 0.78944 0.0
C839 C 0.24781 0.6475 0.95042 0.0
C840 C 0.23861 0.65854 0.03614 0.0
C841 C 0.26609 0.62818 0.78775 0.0
C842 C 0.27508 0.63826 0.86821 0.0
C843 C 0.26582 0.64767 0.94901 0.0
C844 C 0.29408 0.63969 0.86651 0.0
C845 C 0.27537 0.61737 0.70113 0.0
C846 C 0.30405 0.63391 0.95863 0.0
C847 C 0.32201 0.63471 0.95389 0.0
C848 C 0.33026 0.64144 0.85719 0.0
C849 C 0.32014 0.64774 0.76714 0.0
C850 C 0.3023 0.6469 0.77187 0.0
H851 H 0.267 0.60718 0.66581 0.0
H852 H 0.27959 0.62561 0.62946 0.0
H853 H 0.28689 0.61132 0.73919 0.0
H854 H 0.29795 0.62842 0.03304 0.0
H855 H 0.32939 0.62976 0.02469 0.0
H856 H 0.63788 0.82641 0.92414 0.0
H857 H 0.6387 0.79541 0.94019 0.0
H858 H 0.6425 0.79954 0.30565 0.0
H859 H 0.64138 0.83088 0.29048 0.0
H860 H 0.66332 0.77423 0.02758 0.0
H861 H 0.60237 0.76673 0.26567 0.0
H862 H 0.6084 0.78655 0.19777 0.0
H863 H 0.61771 0.78062 0.33218 0.0
C864 C 0.63886 0.82081 0.00832 0.0
C865 C 0.63947 0.83119 0.10624 0.0
C866 C 0.63936 0.80302 0.01716 0.0
C867 C 0.64043 0.79509 0.12403 0.0
C868 C 0.64133 0.80536 0.22227 0.0
H869 H 0.64273 0.68905 0.33367 0.0
H870 H 0.64376 0.72009 0.31989 0.0
C871 C 0.6408 0.82327 0.21352 0.0
C872 C 0.64065 0.77608 0.13102 0.0
H873 H 0.61863 0.74167 0.23473 0.0
C874 C 0.65354 0.76711 0.07282 0.0
C875 C 0.62783 0.76677 0.18945 0.0
C876 C 0.61319 0.77561 0.24902 0.0
C877 C 0.65411 0.74913 0.07287 0.0
C878 C 0.64129 0.73984 0.13129 0.0
C879 C 0.62843 0.7488 0.18972 0.0
C880 C 0.64126 0.72083 0.13652 0.0
C881 C 0.66862 0.74023 0.01242 0.0
C882 C 0.63952 0.71081 0.03765 0.0
C883 C 0.63894 0.69289 0.04509 0.0
C884 C 0.64001 0.68471 0.15167 0.0
C885 C 0.64185 0.69485 0.25004 0.0
C886 C 0.64243 0.71265 0.24252 0.0
H887 H 0.67943 0.74907 0.99478 0.0
H888 H 0.67345 0.7293 0.0636 0.0
H889 H 0.66395 0.73517 0.92978 0.0
H890 H 0.63831 0.71685 0.95499 0.0
H891 H 0.63742 0.68548 0.96784 0.0
H892 H 0.69141 0.38501 0.6794 0.0
H893 H 0.72242 0.3834 0.69218 0.0
H894 H 0.71877 0.37272 0.05176 0.0
H895 H 0.68738 0.37453 0.04009 0.0
H896 H 0.74348 0.39751 0.99679 0.0
H897 H 0.75137 0.34038 0.72281 0.0
H898 H 0.73908 0.35705 0.65685 0.0
H899 H 0.73097 0.34653 0.78204 0.0
C900 C 0.69711 0.38224 0.76152 0.0
C901 C 0.68684 0.37979 0.85876 0.0
C902 C 0.7149 0.38122 0.76833 0.0
C903 C 0.72294 0.37757 0.87227 0.0
C904 C 0.71282 0.37538 0.97031 0.0
H905 H 0.82948 0.37018 0.07491 0.0
H906 H 0.79837 0.37003 0.06465 0.0
C907 C 0.69489 0.37642 0.9636 0.0
C908 C 0.74194 0.37663 0.878 0.0
H909 H 0.77667 0.35628 0.76372 0.0
C910 C 0.75073 0.3884 0.94669 0.0
C911 C 0.75142 0.36481 0.81183 0.0
C912 C 0.74274 0.35137 0.74002 0.0
C913 C 0.76871 0.38893 0.94911 0.0
C914 C 0.77819 0.37717 0.88246 0.0
C915 C 0.76941 0.36535 0.81413 0.0
C916 C 0.7972 0.3766 0.88586 0.0
C917 C 0.77741 0.40234 0.02108 0.0
C918 C 0.807 0.37971 0.78745 0.0
C919 C 0.82495 0.37971 0.79271 0.0
C920 C 0.83338 0.37651 0.89647 0.0
C921 C 0.82347 0.37288 0.9937 0.0
C922 C 0.80563 0.37287 0.98831 0.0
H923 H 0.76865 0.41309 0.04162 0.0
H924 H 0.78161 0.39648 0.10255 0.0
H925 H 0.78888 0.40755 0.97727 0.0
H926 H 0.80074 0.38248 0.70714 0.0
H927 H 0.8322 0.38252 0.7163 0.0
H928 H 0.88067 0.69113 0.41403 0.0
H929 H 0.88039 0.72216 0.42819 0.0
H930 H 0.87906 0.71851 0.79464 0.0
H931 H 0.8796 0.68713 0.7813 0.0
H932 H 0.85642 0.74357 0.52192 0.0
H933 H 0.91906 0.75116 0.73984 0.0
H934 H 0.91251 0.73129 0.6749 0.0
H935 H 0.90416 0.73737 0.81163 0.0
C936 C 0.88036 0.69683 0.49806 0.0
C937 C 0.88024 0.68656 0.59672 0.0
C938 C 0.88017 0.71465 0.50581 0.0
C939 C 0.87992 0.72273 0.6123 0.0
C940 C 0.87959 0.71257 0.71141 0.0
H941 H 0.8793 0.82899 0.81638 0.0
H942 H 0.87878 0.79794 0.80417 0.0
C943 C 0.87979 0.69464 0.70374 0.0
C944 C 0.87984 0.74177 0.6179 0.0
H945 H 0.90272 0.77626 0.71167 0.0
C946 C 0.86656 0.75072 0.56333 0.0
C947 C 0.89311 0.75112 0.67135 0.0
C948 C 0.90811 0.7423 0.72695 0.0
C949 C 0.86604 0.76871 0.56233 0.0
C950 C 0.87931 0.77805 0.61567 0.0
C951 C 0.89257 0.7691 0.6704 0.0
C952 C 0.87936 0.7971 0.62012 0.0
C953 C 0.85106 0.77755 0.50647 0.0
C954 C 0.87995 0.8071 0.52039 0.0
C955 C 0.88021 0.82505 0.52693 0.0
C956 C 0.88 0.83328 0.63344 0.0
C957 C 0.87947 0.82316 0.73272 0.0
C958 C 0.8792 0.80534 0.72609 0.0
H959 H 0.84008 0.76871 0.49392 0.0
H960 H 0.84671 0.78861 0.55815 0.0
H961 H 0.85503 0.78239 0.42162 0.0
H962 H 0.8804 0.80103 0.43756 0.0
H963 H 0.88071 0.83244 0.44892 0.0
H964 H 0.82944 0.13197 0.16858 0.0
H965 H 0.79838 0.13284 0.18091 0.0
H966 H 0.80168 0.14067 0.54382 0.0
H967 H 0.83308 0.14002 0.53212 0.0
H968 H 0.77643 0.11188 0.30197 0.0
H969 H 0.77003 0.17952 0.43983 0.0
H970 H 0.78973 0.17097 0.38344 0.0
H971 H 0.78364 0.16657 0.52814 0.0
C972 C 0.82365 0.13393 0.25135 0.0
C973 C 0.83382 0.136 0.34946 0.0
C974 C 0.80583 0.1344 0.25809 0.0
C975 C 0.79767 0.13703 0.36288 0.0
C976 C 0.80771 0.13893 0.46159 0.0
H977 H 0.69184 0.14194 0.56954 0.0
H978 H 0.7229 0.14186 0.55467 0.0
C979 C 0.82565 0.13845 0.45496 0.0
C980 C 0.77864 0.13749 0.3676 0.0
H981 H 0.7446 0.16311 0.43231 0.0
C982 C 0.76946 0.1231 0.33022 0.0
C983 C 0.76956 0.15216 0.40389 0.0
C984 C 0.77869 0.16826 0.44021 0.0
C985 C 0.75147 0.12285 0.33019 0.0
C986 C 0.74239 0.1375 0.36662 0.0
C987 C 0.75157 0.15191 0.40387 0.0
C988 C 0.72337 0.13786 0.37248 0.0
C989 C 0.74234 0.10673 0.294 0.0
C990 C 0.7132 0.13587 0.27443 0.0
C991 C 0.69527 0.13589 0.28253 0.0
C992 C 0.68724 0.13795 0.38888 0.0
C993 C 0.69753 0.14024 0.48619 0.0
C994 C 0.71535 0.14024 0.47799 0.0
H995 H 0.75104 0.0955 0.29348 0.0
H996 H 0.73141 0.10395 0.35146 0.0
H997 H 0.73726 0.10846 0.20648 0.0
H998 H 0.71912 0.13432 0.19169 0.0
H999 H 0.68773 0.13417 0.20596 0.0
H1000 H 0.13606 0.32735 0.42352 0.0
H1001 H 0.13652 0.2963 0.43588 0.0
H1002 H 0.14141 0.29941 0.80118 0.0
H1003 H 0.14072 0.33081 0.78978 0.0
H1004 H 0.16157 0.27488 0.51939 0.0
H1005 H 0.10095 0.26675 0.76038 0.0
H1006 H 0.10681 0.2867 0.69343 0.0
H1007 H 0.11638 0.28057 0.82661 0.0
C1008 C 0.13719 0.32152 0.50692 0.0
C1009 C 0.13827 0.33164 0.60588 0.0
C1010 C 0.13748 0.3037 0.51362 0.0
C1011 C 0.13879 0.29548 0.61937 0.0
C1012 C 0.14007 0.30547 0.71868 0.0
H1013 H 0.14145 0.1891 0.81959 0.0
H1014 H 0.1419 0.22016 0.80802 0.0
C1015 C 0.13976 0.32341 0.71206 0.0
C1016 C 0.139 0.27645 0.62401 0.0
H1017 H 0.11713 0.24176 0.72509 0.0
C1018 C 0.15184 0.26763 0.56428 0.0
C1019 C 0.12626 0.26699 0.68204 0.0
C1020 C 0.11171 0.27568 0.7435 0.0
C1021 C 0.15246 0.24965 0.56258 0.0
C1022 C 0.13971 0.24019 0.62055 0.0
C1023 C 0.12688 0.24901 0.68034 0.0
C1024 C 0.13979 0.22116 0.62448 0.0
C1025 C 0.16699 0.24095 0.50102 0.0
C1026 C 0.1384 0.21125 0.52482 0.0
C1027 C 0.13819 0.19331 0.53098 0.0
C1028 C 0.13924 0.18499 0.63706 0.0
C1029 C 0.14061 0.19501 0.73628 0.0
C1030 C 0.14085 0.21283 0.73002 0.0
H1031 H 0.1778 0.24985 0.48479 0.0
H1032 H 0.17181 0.22986 0.55062 0.0
H1033 H 0.16234 0.23618 0.41757 0.0
H1034 H 0.13726 0.21739 0.44244 0.0
H1035 H 0.13703 0.18599 0.45308 0.0
H1036 H 0.18549 0.87436 0.53263 0.0
H1037 H 0.21681 0.87234 0.54597 0.0
H1038 H 0.22117 0.88637 0.19179 0.0
H1039 H 0.19016 0.88816 0.1773 0.0
H1040 H 0.24117 0.85862 0.24647 0.0
H1041 H 0.25145 0.91149 0.55476 0.0
H1042 H 0.23677 0.89526 0.60152 0.0
H1043 H 0.23141 0.90842 0.48107 0.0
C1044 C 0.19314 0.8771 0.45792 0.0
C1045 C 0.18528 0.88145 0.35406 0.0
C1046 C 0.21105 0.87602 0.46571 0.0
C1047 C 0.22137 0.87939 0.37006 0.0
C1048 C 0.21351 0.88372 0.2667 0.0
H1049 H 0.33111 0.88131 0.21497 0.0
H1050 H 0.29973 0.88192 0.2023 0.0
C1051 C 0.19572 0.88477 0.25879 0.0
C1052 C 0.24037 0.87814 0.37567 0.0
H1053 H 0.27575 0.89523 0.50321 0.0
C1054 C 0.24874 0.86664 0.30254 0.0
C1055 C 0.25024 0.88865 0.44844 0.0
C1056 C 0.24207 0.90177 0.52527 0.0
C1057 C 0.26668 0.86518 0.30141 0.0
C1058 C 0.27656 0.87571 0.37405 0.0
C1059 C 0.26818 0.88718 0.44735 0.0
C1060 C 0.29557 0.87471 0.37837 0.0
C1061 C 0.27488 0.85211 0.22427 0.0
C1062 C 0.30367 0.87063 0.48138 0.0
C1063 C 0.3215 0.87037 0.48889 0.0
C1064 C 0.33172 0.87426 0.39357 0.0
C1065 C 0.32362 0.87814 0.28968 0.0
C1066 C 0.30569 0.87843 0.2823 0.0
H1067 H 0.26554 0.84231 0.19546 0.0
H1068 H 0.28001 0.85866 0.14763 0.0
H1069 H 0.28566 0.84558 0.2679 0.0
H1070 H 0.29617 0.86772 0.55657 0.0
H1071 H 0.32725 0.86729 0.57032 0.0
H1072 H 0.18324 0.12318 0.88334 0.0
H1073 H 0.21261 0.12167 0.95773 0.0
H1074 H 0.23243 0.12913 0.61854 0.0
H1075 H 0.2034 0.13043 0.54381 0.0
H1076 H 0.24895 0.10305 0.73482 0.0
H1077 H 0.24555 0.16205 -0.00275 0.0
H1078 H 0.22926 0.14645 0.02692 0.0
H1079 H 0.22973 0.15691 0.89058 0.0
C1080 C 0.19387 0.1245 0.82479 0.0
C1081 C 0.19093 0.127 0.70771 0.0
C1082 C 0.21064 0.12373 0.86742 0.0
C1083 C 0.22474 0.12551 0.79382 0.0
C1084 C 0.22179 0.12777 0.67701 0.0
H1085 H 0.33659 0.1273 0.86006 0.0
H1086 H 0.30719 0.12681 0.78563 0.0
C1087 C 0.20512 0.12854 0.63452 0.0
C1088 C 0.24263 0.12499 0.83714 0.0
H1089 H 0.27095 0.14579 0.0102 0.0
C1090 C 0.25378 0.11239 0.79504 0.0
C1091 C 0.24895 0.13725 0.91516 0.0
C1092 C 0.23783 0.15154 0.95958 0.0
C1093 C 0.27097 0.11153 0.83028 0.0
C1094 C 0.27728 0.1238 0.90823 0.0
C1095 C 0.26613 0.1364 0.95029 0.0
C1096 C 0.29524 0.12353 0.9507 0.0
C1097 C 0.28209 0.09726 0.78576 0.0
C1098 C 0.29832 0.12209 0.06796 0.0
C1099 C 0.315 0.1225 0.11044 0.0
C1100 C 0.32908 0.12442 0.03679 0.0
C1101 C 0.32605 0.1257 0.91896 0.0
C1102 C 0.30925 0.12534 0.87634 0.0
H1103 H 0.27435 0.08662 0.75011 0.0
H1104 H 0.29039 0.10229 0.71674 0.0
H1105 H 0.29046 0.0921 0.85409 0.0
H1106 H 0.28776 0.12069 0.12704 0.0
H1107 H 0.3168 0.12143 0.20167 0.0
H1108 H 0.11967 0.81519 0.43474 0.0
H1109 H 0.11953 0.78618 0.35918 0.0
H1110 H 0.12936 0.80578 0.02208 0.0
H1111 H 0.12966 0.83511 0.09763 0.0
H1112 H 0.09895 0.77116 0.18845 0.0
H1113 H 0.16795 0.77041 0.07387 0.0
H1114 H 0.15883 0.78643 0.16628 0.0
H1115 H 0.15569 0.78773 0.01494 0.0
C1116 C 0.12179 0.81342 0.34432 0.0
C1117 C 0.1248 0.82752 0.27233 0.0
C1118 C 0.12165 0.79677 0.30129 0.0
C1119 C 0.12465 0.79376 0.18536 0.0
C1120 C 0.12728 0.80779 0.11229 0.0
H1121 H 0.13584 0.70105 0.7906 0.0
H1122 H 0.1339 0.73025 0.86089 0.0
C1123 C 0.12735 0.82455 0.15538 0.0
C1124 C 0.12519 0.77585 0.14258 0.0
H1125 H 0.15185 0.74587 0.02746 0.0
C1126 C 0.1105 0.76561 0.15309 0.0
C1127 C 0.1403 0.76861 0.09717 0.0
C1128 C 0.15666 0.77877 0.08799 0.0
C1129 C 0.11042 0.74843 0.11757 0.0
C1130 C 0.12556 0.74114 0.07264 0.0
C1131 C 0.14025 0.75141 0.06219 0.0
C1132 C 0.12635 0.72312 0.03168 0.0
C1133 C 0.09399 0.73837 0.12593 0.0
C1134 C 0.12286 0.70922 0.10446 0.0
C1135 C 0.12387 0.69234 0.0641 0.0
C1136 C 0.12856 0.68906 0.95052 0.0
C1137 C 0.13219 0.70303 0.87861 0.0
C1138 C 0.1311 0.7198 0.91867 0.0
H1139 H 0.08267 0.74688 0.13376 0.0
H1140 H 0.09223 0.73004 0.05026 0.0
H1141 H 0.09445 0.7301 0.20276 0.0
H1142 H 0.11953 0.71142 0.19277 0.0
H1143 H 0.12109 0.68189 0.12186 0.0
H1144 H 0.68156 0.89236 0.85213 0.0
H1145 H 0.7109 0.89342 0.77698 0.0
H1146 H 0.73076 0.89425 0.11969 0.0
H1147 H 0.70175 0.89346 0.19495 0.0
H1148 H 0.74684 0.91762 0.97994 0.0
H1149 H 0.74471 0.85351 0.77693 0.0
H1150 H 0.72819 0.86796 0.7317 0.0
H1151 H 0.72867 0.86061 0.8768 0.0
C1152 C 0.69219 0.89283 0.9113 0.0
C1153 C 0.68927 0.89273 0.02955 0.0
C1154 C 0.70895 0.89332 0.86831 0.0
C1155 C 0.72307 0.89364 0.94279 0.0
C1156 C 0.72012 0.89394 0.06054 0.0
H1157 H 0.835 0.89287 0.88018 0.0
H1158 H 0.80554 0.89393 0.95313 0.0
C1159 C 0.70346 0.89345 0.10338 0.0
C1160 C 0.74097 0.89359 0.89944 0.0
H1161 H 0.76979 0.86985 0.74834 0.0
C1162 C 0.75187 0.90717 0.9293 0.0
C1163 C 0.74757 0.87991 0.83402 0.0
C1164 C 0.73676 0.86458 0.80363 0.0
C1165 C 0.76907 0.90759 0.89395 0.0
C1166 C 0.77566 0.89389 0.82857 0.0
C1167 C 0.76475 0.88032 0.79867 0.0
C1168 C 0.79363 0.89362 0.78648 0.0
C1169 C 0.77992 0.92286 0.92475 0.0
C1170 C 0.79676 0.89281 0.66903 0.0
C1171 C 0.81347 0.89208 0.62749 0.0
C1172 C 0.82756 0.89209 0.70233 0.0
C1173 C 0.82446 0.89294 0.82025 0.0
C1174 C 0.80763 0.89363 0.86196 0.0
H1175 H 0.77198 0.93399 0.95039 0.0
H1176 H 0.78832 0.91947 -0.00245 0.0
H1177 H 0.78818 0.92672 0.85218 0.0
H1178 H 0.7862 0.89275 0.60912 0.0
H1179 H 0.81531 0.89145 0.53613 0.0
H1180 H 0.89751 0.18361 0.10856 0.0
H1181 H 0.90008 0.21318 0.03855 0.0
H1182 H 0.88646 0.23212 0.37115 0.0
H1183 H 0.88404 0.20295 0.44154 0.0
H1184 H 0.87523 0.23936 0.03486 0.0
H1185 H 0.93039 0.25841 0.30324 0.0
H1186 H 0.92434 0.23634 0.28249 0.0
H1187 H 0.91296 0.24946 0.38291 0.0
C1188 C 0.89512 0.19409 0.16671 0.0
C1189 C 0.89066 0.19086 0.28085 0.0
C1190 C 0.89661 0.21098 0.12667 0.0
C1191 C 0.8938 0.2249 0.20024 0.0
C1192 C 0.88911 0.22165 0.31346 0.0
H1193 H 0.89017 0.33635 0.13847 0.0
H1194 H 0.88986 0.30664 0.20787 0.0
C1195 C 0.88762 0.20488 0.35333 0.0
C1196 C 0.89519 0.24287 0.1589 0.0
H1197 H 0.9155 0.28092 0.20875 0.0
C1198 C 0.88415 0.2484 0.07211 0.0
C1199 C 0.90673 0.25473 0.20826 0.0
C1200 C 0.91939 0.24943 0.29866 0.0
C1201 C 0.88405 0.26552 0.03509 0.0
C1202 C 0.89555 0.2774 0.08465 0.0
C1203 C 0.90664 0.27186 0.17119 0.0
C1204 C 0.89655 0.29549 0.04515 0.0
C1205 C 0.87131 0.27083 0.94508 0.0
C1206 C 0.90092 0.29913 0.93187 0.0
C1207 C 0.9011 0.31598 0.89229 0.0
C1208 C 0.89706 0.32969 0.96522 0.0
C1209 C 0.89333 0.32611 0.08006 0.0
C1210 C 0.89311 0.30914 0.11971 0.0
H1211 H 0.86047 0.26168 0.93915 0.0
H1212 H 0.86613 0.28377 0.96281 0.0
H1213 H 0.87778 0.27117 0.86097 0.0
H1214 H 0.90405 0.28888 0.87344 0.0
H1215 H 0.90422 0.31822 0.80361 0.0
H1216 H 0.20341 0.38751 0.70361 0.0
H1217 H 0.23256 0.38936 0.63196 0.0
H1218 H 0.2134 0.39541 0.28978 0.0
H1219 H 0.18388 0.39377 0.36151 0.0
H1220 H 0.2487 0.36816 0.47875 0.0
H1221 H 0.2475 0.43499 0.31825 0.0
H1222 H 0.23122 0.42657 0.41191 0.0
H1223 H 0.23095 0.42139 0.26281 0.0
C1224 C 0.20529 0.38933 0.61298 0.0
C1225 C 0.19123 0.39053 0.53831 0.0
C1226 C 0.22204 0.39036 0.57219 0.0
C1227 C 0.22523 0.39271 0.45573 0.0
C1228 C 0.21126 0.39391 0.38038 0.0
H1229 H 0.31784 0.39719 0.05439 0.0
H1230 H 0.28869 0.39753 0.12756 0.0
C1231 C 0.1944 0.39288 0.42134 0.0
C1232 C 0.24323 0.39336 0.41432 0.0
H1233 H 0.27253 0.41889 0.28073 0.0
C1234 C 0.25393 0.37927 0.43572 0.0
C1235 C 0.25006 0.40787 0.35846 0.0
C1236 C 0.23942 0.42365 0.33717 0.0
C1237 C 0.27116 0.37919 0.4012 0.0
C1238 C 0.27801 0.39372 0.34555 0.0
C1239 C 0.26731 0.4078 0.32399 0.0
C1240 C 0.29601 0.39421 0.30386 0.0
C1241 C 0.28173 0.36334 0.42193 0.0
C1242 C 0.30996 0.39257 0.37891 0.0
C1243 C 0.3268 0.39234 0.33712 0.0
C1244 C 0.32996 0.3938 0.21954 0.0
C1245 C 0.31594 0.39593 0.14542 0.0
C1246 C 0.29921 0.39617 0.18709 0.0
H1247 H 0.27361 0.35202 0.44054 0.0
H1248 H 0.2899 0.36042 0.34704 0.0
H1249 H 0.29022 0.3655 0.49634 0.0
H1250 H 0.30783 0.39138 0.46972 0.0
H1251 H 0.33728 0.39075 0.39653 0.0
H1252 H 0.39167 0.81391 0.30348 0.0
H1253 H 0.39281 0.78482 0.377 0.0
H1254 H 0.39566 0.80425 0.72014 0.0
H1255 H 0.39422 0.83369 0.6468 0.0
H1256 H 0.41722 0.76824 0.5031 0.0
H1257 H 0.35573 0.77078 0.73951 0.0
H1258 H 0.36189 0.78696 0.63776 0.0
H1259 H 0.3709 0.787 0.77869 0.0
C1260 C 0.39253 0.8121 0.39479 0.0
C1261 C 0.39274 0.82621 0.46928 0.0
C1262 C 0.39322 0.79538 0.43665 0.0
C1263 C 0.39407 0.79227 0.55414 0.0
C1264 C 0.39465 0.80631 0.62914 0.0
H1265 H 0.39495 0.6989 0.95256 0.0
H1266 H 0.39636 0.72819 0.88258 0.0
C1267 C 0.39394 0.82313 0.58713 0.0
C1268 C 0.39431 0.77429 0.59657 0.0
H1269 H 0.37202 0.74548 0.75786 0.0
C1270 C 0.40734 0.76326 0.55884 0.0
C1271 C 0.38136 0.76773 0.66872 0.0
C1272 C 0.36658 0.77865 0.70791 0.0
C1273 C 0.4079 0.74599 0.59248 0.0
C1274 C 0.39494 0.73944 0.66447 0.0
C1275 C 0.38195 0.75047 0.7025 0.0
C1276 C 0.39481 0.72134 0.70447 0.0
C1277 C 0.42257 0.73499 0.55258 0.0
C1278 C 0.3935 0.70759 0.6276 0.0
C1279 C 0.39272 0.69065 0.66755 0.0
C1280 C 0.39312 0.68719 0.78518 0.0
C1281 C 0.39458 0.70102 0.86139 0.0
C1282 C 0.39537 0.71784 0.82157 0.0
H1283 H 0.43349 0.74281 0.52163 0.0
H1284 H 0.42715 0.7265 0.62212 0.0
H1285 H 0.41817 0.7268 0.48117 0.0
H1286 H 0.39274 0.70996 0.53684 0.0
H1287 H 0.39149 0.68033 0.60661 0.0
H1288 H 0.68141 0.62802 0.39662 0.0
H1289 H 0.71118 0.62854 0.46521 0.0
H1290 H 0.72898 0.61637 0.12735 0.0
H1291 H 0.6996 0.61598 0.05842 0.0
H1292 H 0.73741 0.60333 0.45944 0.0
H1293 H 0.75551 0.66003 0.20202 0.0
H1294 H 0.73352 0.6539 0.22532 0.0
H1295 H 0.74621 0.64303 0.12013 0.0
C1296 C 0.69167 0.62536 0.33726 0.0
C1297 C 0.68808 0.62212 0.22178 0.0
C1298 C 0.70868 0.62569 0.37645 0.0
C1299 C 0.72236 0.62288 0.30081 0.0
C1300 C 0.71871 0.61902 0.18674 0.0
H1301 H 0.83437 0.6232 0.35564 0.0
H1302 H 0.80468 0.62052 0.28785 0.0
C1303 C 0.70183 0.61871 0.14765 0.0
C1304 C 0.74048 0.62398 0.33989 0.0
H1305 H 0.77819 0.64505 0.29234 0.0
C1306 C 0.7463 0.61251 0.42344 0.0
C1307 C 0.75214 0.63589 0.29235 0.0
C1308 C 0.74653 0.64902 0.20574 0.0
C1309 C 0.7635 0.61246 0.4593 0.0
C1310 C 0.77515 0.62439 0.41181 0.0
C1311 C 0.76932 0.63583 0.32814 0.0
C1312 C 0.7932 0.62577 0.45195 0.0
C1313 C 0.7691 0.59939 0.54626 0.0
C1314 C 0.79663 0.62989 0.56591 0.0
C1315 C 0.81347 0.63144 0.60452 0.0
C1316 C 0.82739 0.62902 0.53006 0.0
C1317 C 0.82398 0.62509 0.41531 0.0
C1318 C 0.80702 0.62356 0.37653 0.0
H1319 H 0.76026 0.58827 0.54903 0.0
H1320 H 0.78222 0.59468 0.52785 0.0
H1321 H 0.76917 0.60537 0.63194 0.0
H1322 H 0.78623 0.63207 0.62516 0.0
H1323 H 0.81553 0.63459 0.6933 0.0
H1324 H 0.62505 0.20092 0.2997 0.0
H1325 H 0.62432 0.22999 0.37362 0.0
H1326 H 0.62789 0.21057 0.7167 0.0
H1327 H 0.62885 0.18117 0.64285 0.0
H1328 H 0.60149 0.24571 0.52136 0.0
H1329 H 0.6673 0.2452 0.7004 0.0
H1330 H 0.65975 0.229 0.60312 0.0
H1331 H 0.65361 0.22834 0.75056 0.0
C1332 C 0.62569 0.20274 0.39107 0.0
C1333 C 0.62714 0.18865 0.46534 0.0
C1334 C 0.62522 0.21943 0.43315 0.0
C1335 C 0.62628 0.22252 0.55051 0.0
C1336 C 0.62737 0.20851 0.62555 0.0
H1337 H 0.62946 0.31501 0.95282 0.0
H1338 H 0.6283 0.28587 0.8808 0.0
C1339 C 0.62781 0.19171 0.58335 0.0
C1340 C 0.62632 0.24047 0.59288 0.0
H1341 H 0.65071 0.26996 0.73344 0.0
C1342 C 0.61225 0.25102 0.56772 0.0
C1343 C 0.64041 0.24744 0.65264 0.0
C1344 C 0.65621 0.237 0.67762 0.0
C1345 C 0.61178 0.26824 0.60242 0.0
C1346 C 0.62587 0.2752 0.66222 0.0
C1347 C 0.63993 0.26464 0.68734 0.0
C1348 C 0.62607 0.29319 0.70377 0.0
C1349 C 0.59602 0.27872 0.57711 0.0
C1350 C 0.62526 0.30714 0.6281 0.0
C1351 C 0.6259 0.324 0.66925 0.0
C1352 C 0.62746 0.32717 0.78677 0.0
C1353 C 0.62825 0.31312 0.86177 0.0
C1354 C 0.62761 0.29638 0.82078 0.0
H1355 H 0.58489 0.27053 0.555 0.0
H1356 H 0.59255 0.28683 0.65117 0.0
H1357 H 0.59864 0.28726 0.5036 0.0
H1358 H 0.62437 0.305 0.53716 0.0
H1359 H 0.62536 0.33451 0.60917 0.0
loop_
_geom_bond_atom_site_label_1
_geom_bond_atom_site_label_2
_geom_bond_distance
_geom_bond_site_symmetry_2
_ccdc_geom_bond_type
Mg0 O7 2.141 . S
Mg0 O8 2.048 . S
Mg0 O9 2.048 . S
Mg0 O12 2.141 . S
C1 O2 1.313 . S
C1 O8 1.195 . S
O2 C1 1.313 . S
C3 O4 1.245 . S
C3 O12 1.289 . S
O4 C3 1.245 . S
C5 O6 1.245 1_554 S
C5 O7 1.289 . S
O6 C5 1.245 1_556 S
O7 Mg0 2.141 . S
O7 C5 1.289 . S
O8 Mg0 2.048 . S
O8 C1 1.195 . S
O9 Mg0 2.048 . S
O9 C10 1.195 . S
C10 O9 1.195 . S
C10 O11 1.313 . S
O11 C10 1.313 . S
O12 Mg0 2.141 . S
O12 C3 1.289 . S
Mg13 O20 2.141 . S
Mg13 O21 2.048 . S
Mg13 O22 2.048 . S
Mg13 O25 2.141 . S
C14 O15 1.313 . S
C14 O21 1.195 . S
O15 C14 1.313 . S
C16 O17 1.245 . S
C16 O25 1.289 . S
O17 C16 1.245 . S
C18 O19 1.245 . S
C18 O20 1.289 . S
O19 C18 1.245 . S
O20 Mg13 2.141 . S
O20 C18 1.289 . S
O21 Mg13 2.048 . S
O21 C14 1.195 . S
O22 Mg13 2.048 . S
O22 C23 1.195 . S
C23 O22 1.195 . S
C23 O24 1.313 . S
O24 C23 1.313 . S
O25 Mg13 2.141 . S
O25 C16 1.289 . S
Mg26 O33 2.141 . S
Mg26 O34 2.048 . S
Mg26 O35 2.048 . S
Mg26 O38 2.141 . S
C27 O28 1.313 . S
C27 O34 1.195 . S
O28 C27 1.313 . S
C29 O30 1.245 . S
C29 O38 1.289 . S
O30 C29 1.245 . S
C31 O32 1.245 1_554 S
C31 O33 1.289 . S
O32 C31 1.245 1_556 S
O33 Mg26 2.141 . S
O33 C31 1.289 . S
O34 Mg26 2.048 . S
O34 C27 1.195 . S
O35 Mg26 2.048 . S
O35 C36 1.195 . S
C36 O35 1.195 . S
C36 O37 1.313 . S
O37 C36 1.313 . S
O38 Mg26 2.141 . S
O38 C29 1.289 . S
Mg39 O46 2.141 . S
Mg39 O47 2.048 . S
Mg39 O48 2.048 . S
Mg39 O51 2.141 . S
C40 O41 1.313 . S
C40 O47 1.195 . S
O41 C40 1.313 . S
C42 O43 1.245 . S
C42 O51 1.289 . S
O43 C42 1.245 . S
C44 O45 1.245 . S
C44 O46 1.289 . S
O45 C44 1.245 . S
O46 Mg39 2.141 . S
O46 C44 1.289 . S
O47 Mg39 2.048 . S
O47 C40 1.195 . S
O48 Mg39 2.048 . S
O48 C49 1.195 . S
C49 O48 1.195 . S
C49 O50 1.313 . S
O50 C49 1.313 . S
O51 Mg39 2.141 . S
O51 C42 1.289 . S
Mg52 O59 2.141 . S
Mg52 O60 2.048 . S
Mg52 O61 2.048 . S
Mg52 O64 2.141 . S
C53 O54 1.313 . S
C53 O60 1.195 . S
O54 C53 1.313 . S
C55 O56 1.245 . S
C55 O64 1.289 . S
O56 C55 1.245 . S
C57 O58 1.245 . S
C57 O59 1.289 . S
O58 C57 1.245 . S
O59 Mg52 2.141 . S
O59 C57 1.289 . S
O60 Mg52 2.048 . S
O60 C53 1.195 . S
O61 Mg52 2.048 . S
O61 C62 1.195 . S
C62 O61 1.195 . S
C62 O63 1.313 . S
O63 C62 1.313 . S
O64 Mg52 2.141 . S
O64 C55 1.289 . S
Mg65 O72 2.141 . S
Mg65 O73 2.048 . S
Mg65 O74 2.048 . S
Mg65 O77 2.141 . S
C66 O67 1.313 . S
C66 O73 1.195 . S
O67 C66 1.313 . S
C68 O69 1.245 1_556 S
C68 O77 1.289 . S
O69 C68 1.245 1_554 S
C70 O71 1.245 . S
C70 O72 1.289 . S
O71 C70 1.245 . S
O72 Mg65 2.141 . S
O72 C70 1.289 . S
O73 Mg65 2.048 . S
O73 C66 1.195 . S
O74 Mg65 2.048 . S
O74 C75 1.195 . S
C75 O74 1.195 . S
C75 O76 1.313 1_556 S
O76 C75 1.313 1_554 S
O77 Mg65 2.141 . S
O77 C68 1.289 . S
Mg78 O85 2.141 . S
Mg78 O86 2.048 . S
Mg78 O87 2.048 . S
Mg78 O90 2.141 . S
C79 O80 1.313 . S
C79 O86 1.195 . S
O80 C79 1.313 . S
C81 O82 1.245 . S
C81 O90 1.289 . S
O82 C81 1.245 . S
C83 O84 1.245 . S
C83 O85 1.289 . S
O84 C83 1.245 . S
O85 Mg78 2.141 . S
O85 C83 1.289 . S
O86 Mg78 2.048 . S
O86 C79 1.195 . S
O87 Mg78 2.048 . S
O87 C88 1.195 . S
C88 O87 1.195 . S
C88 O89 1.313 . S
O89 C88 1.313 . S
O90 Mg78 2.141 . S
O90 C81 1.289 . S
Mg91 O98 2.141 . S
Mg91 O99 2.048 . S
Mg91 O100 2.048 . S
Mg91 O103 2.141 . S
C92 O93 1.313 . S
C92 O99 1.195 . S
O93 C92 1.313 . S
C94 O95 1.245 1_556 S
C94 O103 1.289 . S
O95 C94 1.245 1_554 S
C96 O97 1.245 . S
C96 O98 1.289 . S
O97 C96 1.245 . S
O98 Mg91 2.141 . S
O98 C96 1.289 . S
O99 Mg91 2.048 . S
O99 C92 1.195 . S
O100 Mg91 2.048 . S
O100 C101 1.195 . S
C101 O100 1.195 . S
C101 O102 1.313 1_556 S
O102 C101 1.313 1_554 S
O103 Mg91 2.141 . S
O103 C94 1.289 . S
Mg104 O111 2.141 . S
Mg104 O112 2.048 . S
Mg104 O113 2.048 . S
Mg104 O116 2.141 . S
C105 O106 1.313 . S
C105 O112 1.195 . S
O106 C105 1.313 . S
C107 O108 1.245 . S
C107 O116 1.289 . S
O108 C107 1.245 . S
C109 O110 1.245 . S
C109 O111 1.289 . S
O110 C109 1.245 . S
O111 Mg104 2.141 . S
O111 C109 1.289 . S
O112 Mg104 2.048 . S
O112 C105 1.195 . S
O113 Mg104 2.048 . S
O113 C114 1.195 . S
C114 O113 1.195 . S
C114 O115 1.313 . S
O115 C114 1.313 . S
O116 Mg104 2.141 . S
O116 C107 1.289 . S
Mg117 O124 2.141 . S
Mg117 O125 2.048 . S
Mg117 O126 2.048 . S
Mg117 O129 2.141 . S
C118 O119 1.313 . S
C118 O125 1.195 . S
O119 C118 1.313 . S
C120 O121 1.245 . S
C120 O129 1.289 . S
O121 C120 1.245 . S
C122 O123 1.245 . S
C122 O124 1.289 . S
O123 C122 1.245 . S
O124 Mg117 2.141 . S
O124 C122 1.289 . S
O125 Mg117 2.048 . S
O125 C118 1.195 . S
O126 Mg117 2.048 . S
O126 C127 1.195 . S
C127 O126 1.195 . S
C127 O128 1.313 . S
O128 C127 1.313 . S
O129 Mg117 2.141 . S
O129 C120 1.289 . S
Mg130 O137 2.141 . S
Mg130 O138 2.048 . S
Mg130 O139 2.048 . S
Mg130 O142 2.141 . S
C131 O132 1.313 . S
C131 O138 1.195 . S
O132 C131 1.313 . S
C133 O134 1.245 . S
C133 O142 1.289 . S
O134 C133 1.245 . S
C135 O136 1.245 . S
C135 O137 1.289 . S
O136 C135 1.245 . S
O137 Mg130 2.141 . S
O137 C135 1.289 . S
O138 Mg130 2.048 . S
O138 C131 1.195 . S
O139 Mg130 2.048 . S
O139 C140 1.195 . S
C140 O139 1.195 . S
C140 O141 1.313 . S
O141 C140 1.313 . S
O142 Mg130 2.141 . S
O142 C133 1.289 . S
Mg143 O150 2.141 . S
Mg143 O151 2.048 . S
Mg143 O152 2.048 . S
Mg143 O155 2.141 . S
C144 O145 1.313 . S
C144 O151 1.195 . S
O145 C144 1.313 . S
C146 O147 1.245 . S
C146 O155 1.289 . S
O147 C146 1.245 . S
C148 O149 1.245 . S
C148 O150 1.289 . S
O149 C148 1.245 . S
O150 Mg143 2.141 . S
O150 C148 1.289 . S
O151 Mg143 2.048 . S
O151 C144 1.195 . S
O152 Mg143 2.048 . S
O152 C153 1.195 . S
C153 O152 1.195 . S
C153 O154 1.313 . S
O154 C153 1.313 . S
O155 Mg143 2.141 . S
O155 C146 1.289 . S
Mg156 O163 2.141 . S
Mg156 O164 2.048 . S
Mg156 O165 2.048 . S
Mg156 O168 2.141 . S
C157 O158 1.313 . S
C157 O164 1.195 . S
O158 C157 1.313 . S
C159 O160 1.245 . S
C159 O168 1.289 . S
O160 C159 1.245 . S
C161 O162 1.245 . S
C161 O163 1.289 . S
O162 C161 1.245 . S
O163 Mg156 2.141 . S
O163 C161 1.289 . S
O164 Mg156 2.048 . S
O164 C157 1.195 . S
O165 Mg156 2.048 . S
O165 C166 1.195 . S
C166 O165 1.195 . S
C166 O167 1.313 . S
O167 C166 1.313 . S
O168 Mg156 2.141 . S
O168 C159 1.289 . S
Mg169 O176 2.141 . S
Mg169 O177 2.048 . S
Mg169 O178 2.048 . S
Mg169 O181 2.141 . S
C170 O171 1.313 . S
C170 O177 1.195 . S
O171 C170 1.313 . S
C172 O173 1.245 . S
C172 O181 1.289 . S
O173 C172 1.245 . S
C174 O175 1.245 . S
C174 O176 1.289 . S
O175 C174 1.245 . S
O176 Mg169 2.141 . S
O176 C174 1.289 . S
O177 Mg169 2.048 . S
O177 C170 1.195 . S
O178 Mg169 2.048 . S
O178 C179 1.195 . S
C179 O178 1.195 . S
C179 O180 1.313 . S
O180 C179 1.313 . S
O181 Mg169 2.141 . S
O181 C172 1.289 . S
Mg182 O189 2.141 . S
Mg182 O190 2.048 . S
Mg182 O191 2.048 . S
Mg182 O194 2.141 . S
C183 O184 1.313 . S
C183 O190 1.195 . S
O184 C183 1.313 . S
C185 O186 1.245 . S
C185 O194 1.289 . S
O186 C185 1.245 . S
C187 O188 1.245 . S
C187 O189 1.289 . S
O188 C187 1.245 . S
O189 Mg182 2.141 . S
O189 C187 1.289 . S
O190 Mg182 2.048 . S
O190 C183 1.195 . S
O191 Mg182 2.048 . S
O191 C192 1.195 . S
C192 O191 1.195 . S
C192 O193 1.313 . S
O193 C192 1.313 . S
O194 Mg182 2.141 . S
O194 C185 1.289 . S
Mg195 O202 2.141 . S
Mg195 O203 2.048 . S
Mg195 O204 2.048 . S
Mg195 O207 2.141 . S
C196 O197 1.313 . S
C196 O203 1.195 . S
O197 C196 1.313 . S
C198 O199 1.245 . S
C198 O207 1.289 . S
O199 C198 1.245 . S
C200 O201 1.245 . S
C200 O202 1.289 . S
O201 C200 1.245 . S
O202 Mg195 2.141 . S
O202 C200 1.289 . S
O203 Mg195 2.048 . S
O203 C196 1.195 . S
O204 Mg195 2.048 . S
O204 C205 1.195 . S
C205 O204 1.195 . S
C205 O206 1.313 . S
O206 C205 1.313 . S
O207 Mg195 2.141 . S
O207 C198 1.289 . S
H208 C216 0.929 . S
H209 C218 0.930 . S
H210 C220 0.930 . S
H211 C223 0.929 . S
H212 C226 0.930 . S
H213 C228 0.960 . S
H214 C228 0.960 . S
H215 C228 0.960 . S
C216 H208 0.929 . S
C216 C217 1.377 . S
C216 C218 1.384 . S
C217 C216 1.377 . S
C217 C223 1.390 . S
C218 H209 0.930 . S
C218 C216 1.384 . S
C218 C219 1.372 . S
C219 C218 1.372 . S
C219 C220 1.400 . S
C219 C224 1.490 . S
C220 H210 0.930 . S
C220 C219 1.400 . S
C220 C223 1.386 . S
H221 C237 0.930 . S
H222 C238 0.931 . S
C223 H211 0.929 . S
C223 C217 1.390 . S
C223 C220 1.386 . S
C224 C219 1.490 . S
C224 C226 1.395 . S
C224 C227 1.403 . S
H225 C231 0.930 . S
C226 H212 0.930 . S
C226 C224 1.395 . S
C226 C229 1.403 1_565 S
C227 C224 1.403 . S
C227 C228 1.524 . S
C227 C231 1.400 1_565 S
C228 H213 0.960 . S
C228 H214 0.960 . S
C228 H215 0.960 . S
C228 C227 1.524 . S
C229 C226 1.403 1_545 S
C229 C230 1.392 . S
C229 C233 1.495 1_554 S
C230 C229 1.392 . S
C230 C231 1.385 . S
C230 C232 1.478 . S
C231 H225 0.930 . S
C231 C227 1.400 1_545 S
C231 C230 1.385 . S
C232 C230 1.478 . S
C232 C234 1.381 . S
C232 C238 1.383 . S
C233 C229 1.495 1_556 S
C233 H239 0.959 1_545 S
C233 H240 0.961 . S
C233 H241 0.960 . S
C234 C232 1.381 . S
C234 C235 1.394 . S
C234 H242 0.930 . S
C235 C234 1.394 . S
C235 C236 1.383 . S
C235 H243 0.929 . S
C236 C235 1.383 . S
C236 C237 1.377 . S
C237 H221 0.930 . S
C237 C236 1.377 . S
C237 C238 1.379 . S
C238 H222 0.931 . S
C238 C232 1.383 . S
C238 C237 1.379 . S
H239 C233 0.959 1_565 S
H240 C233 0.961 . S
H241 C233 0.960 . S
H242 C234 0.930 . S
H243 C235 0.929 . S
H244 C252 0.929 . S
H245 C254 0.930 . S
H246 C256 0.930 . S
H247 C259 0.929 . S
H248 C262 0.930 . S
H249 C264 0.960 . S
H250 C264 0.960 . S
H251 C264 0.960 . S
C252 H244 0.929 . S
C252 C253 1.377 . S
C252 C254 1.384 . S
C253 C252 1.377 . S
C253 C259 1.390 . S
C254 H245 0.930 . S
C254 C252 1.384 . S
C254 C255 1.372 . S
C255 C254 1.372 . S
C255 C256 1.400 . S
C255 C260 1.490 . S
C256 H246 0.930 . S
C256 C255 1.400 . S
C256 C259 1.386 . S
H257 C273 0.930 . S
H258 C274 0.931 . S
C259 H247 0.929 . S
C259 C253 1.390 . S
C259 C256 1.386 . S
C260 C255 1.490 . S
C260 C262 1.395 . S
C260 C263 1.403 . S
H261 C267 0.930 . S
C262 H248 0.930 . S
C262 C260 1.395 . S
C262 C265 1.403 1_455 S
C263 C260 1.403 . S
C263 C264 1.524 . S
C263 C267 1.400 1_455 S
C264 H249 0.960 . S
C264 H250 0.960 . S
C264 H251 0.960 . S
C264 C263 1.524 . S
C265 C262 1.403 1_655 S
C265 C266 1.392 . S
C265 C269 1.495 . S
C266 C265 1.392 . S
C266 C267 1.385 . S
C266 C268 1.478 . S
C267 H261 0.930 . S
C267 C263 1.400 1_655 S
C267 C266 1.385 . S
C268 C266 1.478 . S
C268 C270 1.381 . S
C268 C274 1.383 . S
C269 C265 1.495 . S
C269 H275 0.959 . S
C269 H276 0.961 . S
C269 H277 0.960 . S
C270 C268 1.381 . S
C270 C271 1.394 . S
C270 H278 0.930 . S
C271 C270 1.394 . S
C271 C272 1.383 . S
C271 H279 0.929 . S
C272 C271 1.383 . S
C272 C273 1.377 . S
C273 H257 0.930 . S
C273 C272 1.377 . S
C273 C274 1.379 . S
C274 H258 0.931 . S
C274 C268 1.383 . S
C274 C273 1.379 . S
H275 C269 0.959 . S
H276 C269 0.961 . S
H277 C269 0.960 . S
H278 C270 0.930 . S
H279 C271 0.929 . S
H280 C288 0.929 . S
H281 C290 0.930 . S
H282 C292 0.930 . S
H283 C295 0.929 . S
H284 C298 0.930 . S
H285 C300 0.943 1_545 S
H286 C300 0.960 . S
H287 C300 0.960 1_556 S
C288 H280 0.929 . S
C288 C289 1.377 . S
C288 C290 1.384 . S
C289 C288 1.377 . S
C289 C295 1.390 . S
C290 H281 0.930 . S
C290 C288 1.384 . S
C290 C291 1.372 . S
C291 C290 1.372 . S
C291 C292 1.400 . S
C291 C296 1.490 . S
C292 H282 0.930 . S
C292 C291 1.400 . S
C292 C295 1.386 . S
H293 C309 0.930 . S
H294 C310 0.931 . S
C295 H283 0.929 . S
C295 C289 1.390 . S
C295 C292 1.386 . S
C296 C291 1.490 . S
C296 C298 1.395 . S
C296 C299 1.403 . S
H297 C303 0.930 . S
C298 H284 0.930 . S
C298 C296 1.395 . S
C298 C301 1.403 1_565 S
C299 C296 1.403 . S
C299 C300 1.524 . S
C299 C303 1.400 1_565 S
C300 H285 0.943 1_565 S
C300 H286 0.960 . S
C300 H287 0.960 1_554 S
C300 C299 1.524 . S
C301 C298 1.403 1_545 S
C301 C302 1.392 . S
C301 C305 1.495 . S
C302 C301 1.392 . S
C302 C303 1.385 . S
C302 C304 1.478 . S
C303 H297 0.930 . S
C303 C299 1.400 1_545 S
C303 C302 1.385 . S
C304 C302 1.478 . S
C304 C306 1.381 . S
C304 C310 1.383 . S
C305 C301 1.495 . S
C305 H311 0.959 . S
C305 H312 0.961 . S
C305 H313 0.960 . S
C306 C304 1.381 . S
C306 C307 1.394 . S
C306 H314 0.930 . S
C307 C306 1.394 . S
C307 C308 1.383 . S
C307 H315 0.929 . S
C308 C307 1.383 . S
C308 C309 1.377 . S
C309 H293 0.930 . S
C309 C308 1.377 . S
C309 C310 1.379 . S
C310 H294 0.931 . S
C310 C304 1.383 . S
C310 C309 1.379 . S
H311 C305 0.959 . S
H312 C305 0.961 . S
H313 C305 0.960 . S
H314 C306 0.930 . S
H315 C307 0.929 . S
H316 C324 0.929 . S
H317 C326 0.930 . S
H318 C328 0.930 . S
H319 C331 0.929 . S
H320 C334 0.930 . S
H321 C336 0.960 . S
H322 C336 0.960 . S
H323 C336 0.960 . S
C324 H316 0.929 . S
C324 C325 1.377 . S
C324 C326 1.384 . S
C325 C324 1.377 . S
C325 C331 1.390 . S
C326 H317 0.930 . S
C326 C324 1.384 . S
C326 C327 1.372 . S
C327 C326 1.372 . S
C327 C328 1.400 . S
C327 C332 1.490 . S
C328 H318 0.930 . S
C328 C327 1.400 . S
C328 C331 1.386 . S
H329 C345 0.930 . S
H330 C346 0.931 . S
C331 H319 0.929 . S
C331 C325 1.390 . S
C331 C328 1.386 . S
C332 C327 1.490 . S
C332 C334 1.395 . S
C332 C335 1.403 . S
H333 C339 0.930 . S
C334 H320 0.930 . S
C334 C332 1.395 . S
C334 C337 1.403 1_455 S
C335 C332 1.403 . S
C335 C336 1.524 . S
C335 C339 1.400 1_455 S
C336 H321 0.960 . S
C336 H322 0.960 . S
C336 H323 0.960 . S
C336 C335 1.524 . S
C337 C334 1.403 1_655 S
C337 C338 1.392 . S
C337 C341 1.495 1_556 S
C338 C337 1.392 . S
C338 C339 1.385 . S
C338 C340 1.478 . S
C339 H333 0.930 . S
C339 C335 1.400 1_655 S
C339 C338 1.385 . S
C340 C338 1.478 . S
C340 C342 1.381 . S
C340 C346 1.383 . S
C341 C337 1.495 1_554 S
C341 H347 0.907 1_655 S
C341 H348 0.961 . S
C341 H349 0.960 . S
C342 C340 1.381 . S
C342 C343 1.394 . S
C342 H350 0.930 . S
C343 C342 1.394 . S
C343 C344 1.383 . S
C343 H351 0.929 . S
C344 C343 1.383 . S
C344 C345 1.377 . S
C345 H329 0.930 . S
C345 C344 1.377 . S
C345 C346 1.379 . S
C346 H330 0.931 . S
C346 C340 1.383 . S
C346 C345 1.379 . S
H347 C341 0.907 1_455 S
H348 C341 0.961 . S
H349 C341 0.960 . S
H350 C342 0.930 . S
H351 C343 0.929 . S
H352 C360 0.929 . S
H353 C362 0.930 . S
H354 C364 0.930 . S
H355 C367 0.929 . S
H356 C370 0.930 . S
H357 C372 0.960 . S
H358 C372 0.960 . S
H359 C372 0.960 . S
C360 H352 0.929 . S
C360 C361 1.377 . S
C360 C362 1.384 . S
C361 C360 1.377 . S
C361 C367 1.390 . S
C362 H353 0.930 . S
C362 C360 1.384 . S
C362 C363 1.372 . S
C363 C362 1.372 . S
C363 C364 1.400 . S
C363 C368 1.490 . S
C364 H354 0.930 . S
C364 C363 1.400 . S
C364 C367 1.386 . S
H365 C381 0.930 . S
H366 C382 0.931 . S
C367 H355 0.929 . S
C367 C361 1.390 . S
C367 C364 1.386 . S
C368 C363 1.490 . S
C368 C370 1.395 . S
C368 C371 1.403 1_554 S
H369 C375 0.930 . S
C370 H356 0.930 . S
C370 C368 1.395 . S
C370 C373 1.403 . S
C371 C368 1.403 1_556 S
C371 C372 1.524 . S
C371 C375 1.400 . S
C372 H357 0.960 . S
C372 H358 0.960 . S
C372 H359 0.960 . S
C372 C371 1.524 . S
C373 C370 1.403 . S
C373 C374 1.392 . S
C373 C377 1.495 . S
C374 C373 1.392 . S
C374 C375 1.385 1_554 S
C374 C376 1.478 . S
C375 H369 0.930 . S
C375 C371 1.400 . S
C375 C374 1.385 1_556 S
C376 C374 1.478 . S
C376 C378 1.381 1_554 S
C376 C382 1.383 . S
C377 C373 1.495 . S
C377 H383 0.959 . S
C377 H384 0.961 . S
C377 H385 0.960 . S
C378 C376 1.381 1_556 S
C378 C379 1.394 . S
C378 H386 0.930 . S
C379 C378 1.394 . S
C379 C380 1.383 . S
C379 H387 0.929 . S
C380 C379 1.383 . S
C380 C381 1.377 1_556 S
C381 H365 0.930 . S
C381 C380 1.377 1_554 S
C381 C382 1.379 . S
C382 H366 0.931 . S
C382 C376 1.383 . S
C382 C381 1.379 . S
H383 C377 0.959 . S
H384 C377 0.961 . S
H385 C377 0.960 . S
H386 C378 0.930 . S
H387 C379 0.929 . S
H388 C396 0.929 . S
H389 C398 0.930 . S
H390 C400 0.930 . S
H391 C403 0.929 . S
H392 C406 0.930 . S
H393 C408 0.960 . S
H394 C408 0.960 . S
H395 C408 0.960 . S
C396 H388 0.929 . S
C396 C397 1.377 . S
C396 C398 1.384 . S
C397 C396 1.377 . S
C397 C403 1.390 . S
C398 H389 0.930 . S
C398 C396 1.384 . S
C398 C399 1.372 . S
C399 C398 1.372 . S
C399 C400 1.400 . S
C399 C404 1.490 . S
C400 H390 0.930 . S
C400 C399 1.400 . S
C400 C403 1.386 . S
H401 C417 0.930 . S
H402 C418 0.931 . S
C403 H391 0.929 . S
C403 C397 1.390 . S
C403 C400 1.386 . S
C404 C399 1.490 . S
C404 C406 1.395 1_556 S
C404 C407 1.403 . S
H405 C411 0.930 . S
C406 H392 0.930 . S
C406 C404 1.395 1_554 S
C406 C409 1.403 . S
C407 C404 1.403 . S
C407 C408 1.524 . S
C407 C411 1.400 . S
C408 H393 0.960 . S
C408 H394 0.960 . S
C408 H395 0.960 . S
C408 C407 1.524 . S
C409 C406 1.403 . S
C409 C410 1.392 . S
C409 C413 1.495 . S
C410 C409 1.392 . S
C410 C411 1.385 1_554 S
C410 C412 1.478 . S
C411 H405 0.930 . S
C411 C407 1.400 . S
C411 C410 1.385 1_556 S
C412 C410 1.478 . S
C412 C414 1.381 . S
C412 C418 1.383 . S
C413 C409 1.495 . S
C413 H419 0.959 . S
C413 H420 0.961 . S
C413 H421 0.960 . S
C414 C412 1.381 . S
C414 C415 1.394 . S
C414 H422 0.930 . S
C415 C414 1.394 . S
C415 C416 1.383 . S
C415 H423 0.929 . S
C416 C415 1.383 . S
C416 C417 1.377 . S
C417 H401 0.930 . S
C417 C416 1.377 . S
C417 C418 1.379 . S
C418 H402 0.931 . S
C418 C412 1.383 . S
C418 C417 1.379 . S
H419 C413 0.959 . S
H420 C413 0.961 . S
H421 C413 0.960 . S
H422 C414 0.930 . S
H423 C415 0.929 . S
H424 C432 0.929 . S
H425 C434 0.930 . S
H426 C436 0.930 . S
H427 C439 0.929 . S
H428 C442 0.930 . S
H429 C444 0.960 . S
H430 C444 0.960 . S
H431 C444 0.960 . S
C432 H424 0.929 . S
C432 C433 1.377 1_554 S
C432 C434 1.384 . S
C433 C432 1.377 1_556 S
C433 C439 1.390 . S
C434 H425 0.930 . S
C434 C432 1.384 . S
C434 C435 1.372 1_554 S
C435 C434 1.372 1_556 S
C435 C436 1.400 . S
C435 C440 1.490 1_556 S
C436 H426 0.930 . S
C436 C435 1.400 . S
C436 C439 1.386 . S
H437 C453 0.930 . S
H438 C454 0.931 1_556 S
C439 H427 0.929 . S
C439 C433 1.390 . S
C439 C436 1.386 . S
C440 C435 1.490 1_554 S
C440 C442 1.395 . S
C440 C443 1.403 1_554 S
H441 C447 0.930 . S
C442 H428 0.930 . S
C442 C440 1.395 . S
C442 C445 1.403 . S
C443 C440 1.403 1_556 S
C443 C444 1.524 . S
C443 C447 1.400 . S
C444 H429 0.960 . S
C444 H430 0.960 . S
C444 H431 0.960 . S
C444 C443 1.524 . S
C445 C442 1.403 . S
C445 C446 1.392 . S
C445 C449 1.495 . S
C446 C445 1.392 . S
C446 C447 1.385 1_554 S
C446 C448 1.478 . S
C447 H441 0.930 . S
C447 C443 1.400 . S
C447 C446 1.385 1_556 S
C448 C446 1.478 . S
C448 C450 1.381 . S
C448 C454 1.383 . S
C449 C445 1.495 . S
C449 H455 0.959 . S
C449 H456 0.961 . S
C449 H457 0.960 . S
C450 C448 1.381 . S
C450 C451 1.394 . S
C450 H458 0.930 . S
C451 C450 1.394 . S
C451 C452 1.383 . S
C451 H459 0.929 . S
C452 C451 1.383 . S
C452 C453 1.377 . S
C453 H437 0.930 . S
C453 C452 1.377 . S
C453 C454 1.379 . S
C454 H438 0.931 1_554 S
C454 C448 1.383 . S
C454 C453 1.379 . S
H455 C449 0.959 . S
H456 C449 0.961 . S
H457 C449 0.960 . S
H458 C450 0.930 . S
H459 C451 0.929 . S
H460 C468 0.929 . S
H461 C470 0.930 . S
H462 C472 0.930 . S
H463 C475 0.929 . S
H464 C478 0.930 . S
H465 C480 0.960 . S
H466 C480 0.960 . S
H467 C480 0.960 1_556 S
C468 H460 0.929 . S
C468 C469 1.377 . S
C468 C470 1.384 . S
C469 C468 1.377 . S
C469 C475 1.390 1_554 S
C470 H461 0.930 . S
C470 C468 1.384 . S
C470 C471 1.372 . S
C471 C470 1.372 . S
C471 C472 1.400 1_554 S
C471 C476 1.490 1_554 S
C472 H462 0.930 . S
C472 C471 1.400 1_556 S
C472 C475 1.386 . S
H473 C489 0.930 . S
H474 C490 0.931 . S
C475 H463 0.929 . S
C475 C469 1.390 1_556 S
C475 C472 1.386 . S
C476 C471 1.490 1_556 S
C476 C478 1.395 . S
C476 C479 1.403 1_556 S
H477 C483 0.930 . S
C478 H464 0.930 . S
C478 C476 1.395 . S
C478 C481 1.403 . S
C479 C476 1.403 1_554 S
C479 C480 1.524 . S
C479 C483 1.400 1_554 S
C480 H465 0.960 . S
C480 H466 0.960 . S
C480 H467 0.960 1_554 S
C480 C479 1.524 . S
C481 C478 1.403 . S
C481 C482 1.392 . S
C481 C485 1.495 . S
C482 C481 1.392 . S
C482 C483 1.385 . S
C482 C484 1.478 . S
C483 H477 0.930 . S
C483 C479 1.400 1_556 S
C483 C482 1.385 . S
C484 C482 1.478 . S
C484 C486 1.381 1_556 S
C484 C490 1.383 . S
C485 C481 1.495 . S
C485 H491 0.959 . S
C485 H492 0.961 . S
C485 H493 0.960 1_556 S
C486 C484 1.381 1_554 S
C486 C487 1.394 . S
C486 H494 0.930 . S
C487 C486 1.394 . S
C487 C488 1.383 1_554 S
C487 H495 0.929 . S
C488 C487 1.383 1_556 S
C488 C489 1.377 . S
C489 H473 0.930 . S
C489 C488 1.377 . S
C489 C490 1.379 . S
C490 H474 0.931 . S
C490 C484 1.383 . S
C490 C489 1.379 . S
H491 C485 0.959 . S
H492 C485 0.961 . S
H493 C485 0.960 1_554 S
H494 C486 0.930 . S
H495 C487 0.929 . S
H496 C504 0.929 . S
H497 C506 0.930 . S
H498 C508 0.930 . S
H499 C511 0.929 . S
H500 C514 0.930 . S
H501 C516 0.960 . S
H502 C516 0.960 . S
H503 C516 0.960 . S
C504 H496 0.929 . S
C504 C505 1.377 . S
C504 C506 1.384 . S
C505 C504 1.377 . S
C505 C511 1.390 . S
C506 H497 0.930 . S
C506 C504 1.384 . S
C506 C507 1.372 . S
C507 C506 1.372 . S
C507 C508 1.400 . S
C507 C512 1.490 . S
C508 H498 0.930 . S
C508 C507 1.400 . S
C508 C511 1.386 . S
H509 C525 0.930 . S
H510 C526 0.931 . S
C511 H499 0.929 . S
C511 C505 1.390 . S
C511 C508 1.386 . S
C512 C507 1.490 . S
C512 C514 1.395 . S
C512 C515 1.403 . S
H513 C519 0.930 . S
C514 H500 0.930 . S
C514 C512 1.395 . S
C514 C517 1.403 . S
C515 C512 1.403 . S
C515 C516 1.524 . S
C515 C519 1.400 . S
C516 H501 0.960 . S
C516 H502 0.960 . S
C516 H503 0.960 . S
C516 C515 1.524 . S
C517 C514 1.403 . S
C517 C518 1.392 . S
C517 C521 1.495 . S
C518 C517 1.392 . S
C518 C519 1.385 . S
C518 C520 1.478 . S
C519 H513 0.930 . S
C519 C515 1.400 . S
C519 C518 1.385 . S
C520 C518 1.478 . S
C520 C522 1.381 . S
C520 C526 1.383 . S
C521 C517 1.495 . S
C521 H527 0.959 . S
C521 H528 0.961 . S
C521 H529 0.960 . S
C522 C520 1.381 . S
C522 C523 1.394 . S
C522 H530 0.930 . S
C523 C522 1.394 . S
C523 C524 1.383 . S
C523 H531 0.929 . S
C524 C523 1.383 . S
C524 C525 1.377 . S
C525 H509 0.930 . S
C525 C524 1.377 . S
C525 C526 1.379 . S
C526 H510 0.931 . S
C526 C520 1.383 . S
C526 C525 1.379 . S
H527 C521 0.959 . S
H528 C521 0.961 . S
H529 C521 0.960 . S
H530 C522 0.930 . S
H531 C523 0.929 . S
H532 C540 0.929 . S
H533 C542 0.930 . S
H534 C544 0.930 . S
H535 C547 0.929 . S
H536 C550 0.930 . S
H537 C552 0.960 . S
H538 C552 0.960 . S
H539 C552 0.960 . S
C540 H532 0.929 . S
C540 C541 1.377 . S
C540 C542 1.384 . S
C541 C540 1.377 . S
C541 C547 1.390 . S
C542 H533 0.930 . S
C542 C540 1.384 . S
C542 C543 1.372 . S
C543 C542 1.372 . S
C543 C544 1.400 . S
C543 C548 1.490 . S
C544 H534 0.930 . S
C544 C543 1.400 . S
C544 C547 1.386 . S
H545 C561 0.930 . S
H546 C562 0.931 . S
C547 H535 0.929 . S
C547 C541 1.390 . S
C547 C544 1.386 . S
C548 C543 1.490 . S
C548 C550 1.395 . S
C548 C551 1.403 . S
H549 C555 0.930 . S
C550 H536 0.930 . S
C550 C548 1.395 . S
C550 C553 1.403 . S
C551 C548 1.403 . S
C551 C552 1.524 . S
C551 C555 1.400 . S
C552 H537 0.960 . S
C552 H538 0.960 . S
C552 H539 0.960 . S
C552 C551 1.524 . S
C553 C550 1.403 . S
C553 C554 1.392 . S
C553 C557 1.495 . S
C554 C553 1.392 . S
C554 C555 1.385 . S
C554 C556 1.478 . S
C555 H549 0.930 . S
C555 C551 1.400 . S
C555 C554 1.385 . S
C556 C554 1.478 . S
C556 C558 1.381 . S
C556 C562 1.383 . S
C557 C553 1.495 . S
C557 H563 0.959 . S
C557 H564 0.961 . S
C557 H565 0.960 . S
C558 C556 1.381 . S
C558 C559 1.394 . S
C558 H566 0.930 . S
C559 C558 1.394 . S
C559 C560 1.383 . S
C559 H567 0.929 . S
C560 C559 1.383 . S
C560 C561 1.377 . S
C561 H545 0.930 . S
C561 C560 1.377 . S
C561 C562 1.379 . S
C562 H546 0.931 . S
C562 C556 1.383 . S
C562 C561 1.379 . S
H563 C557 0.959 . S
H564 C557 0.961 . S
H565 C557 0.960 . S
H566 C558 0.930 . S
H567 C559 0.929 . S
H568 C576 0.929 . S
H569 C578 0.930 . S
H570 C580 0.930 . S
H571 C583 0.929 . S
H572 C586 0.930 . S
H573 C588 0.960 . S
H574 C588 0.960 . S
H575 C588 0.960 . S
C576 H568 0.929 . S
C576 C577 1.377 . S
C576 C578 1.384 . S
C577 C576 1.377 . S
C577 C583 1.390 . S
C578 H569 0.930 . S
C578 C576 1.384 . S
C578 C579 1.372 . S
C579 C578 1.372 . S
C579 C580 1.400 . S
C579 C584 1.490 . S
C580 H570 0.930 . S
C580 C579 1.400 . S
C580 C583 1.386 . S
H581 C597 0.930 . S
H582 C598 0.931 . S
C583 H571 0.929 . S
C583 C577 1.390 . S
C583 C580 1.386 . S
C584 C579 1.490 . S
C584 C586 1.395 . S
C584 C587 1.403 . S
H585 C591 0.930 . S
C586 H572 0.930 . S
C586 C584 1.395 . S
C586 C589 1.403 . S
C587 C584 1.403 . S
C587 C588 1.524 . S
C587 C591 1.400 . S
C588 H573 0.960 . S
C588 H574 0.960 . S
C588 H575 0.960 . S
C588 C587 1.524 . S
C589 C586 1.403 . S
C589 C590 1.392 . S
C589 C593 1.495 . S
C590 C589 1.392 . S
C590 C591 1.385 . S
C590 C592 1.478 . S
C591 H585 0.930 . S
C591 C587 1.400 . S
C591 C590 1.385 . S
C592 C590 1.478 . S
C592 C594 1.381 . S
C592 C598 1.383 . S
C593 C589 1.495 . S
C593 H599 0.959 . S
C593 H600 0.961 . S
C593 H601 0.960 . S
C594 C592 1.381 . S
C594 C595 1.394 . S
C594 H602 0.930 . S
C595 C594 1.394 . S
C595 C596 1.383 . S
C595 H603 0.929 . S
C596 C595 1.383 . S
C596 C597 1.377 . S
C597 H581 0.930 . S
C597 C596 1.377 . S
C597 C598 1.379 . S
C598 H582 0.931 . S
C598 C592 1.383 . S
C598 C597 1.379 . S
H599 C593 0.959 . S
H600 C593 0.961 . S
H601 C593 0.960 . S
H602 C594 0.930 . S
H603 C595 0.929 . S
H604 C612 0.929 . S
H605 C614 0.930 . S
H606 C616 0.930 . S
H607 C619 0.929 . S
H608 C622 0.930 . S
H609 C624 0.960 . S
H610 C624 0.960 . S
H611 C624 0.960 . S
C612 H604 0.929 . S
C612 C613 1.377 . S
C612 C614 1.384 . S
C613 C612 1.377 . S
C613 C619 1.390 . S
C614 H605 0.930 . S
C614 C612 1.384 . S
C614 C615 1.372 . S
C615 C614 1.372 . S
C615 C616 1.400 . S
C615 C620 1.490 . S
C616 H606 0.930 . S
C616 C615 1.400 . S
C616 C619 1.386 . S
H617 C633 0.930 . S
H618 C634 0.931 . S
C619 H607 0.929 . S
C619 C613 1.390 . S
C619 C616 1.386 . S
C620 C615 1.490 . S
C620 C622 1.395 . S
C620 C623 1.403 . S
H621 C627 0.930 . S
C622 H608 0.930 . S
C622 C620 1.395 . S
C622 C625 1.403 . S
C623 C620 1.403 . S
C623 C624 1.524 . S
C623 C627 1.400 . S
C624 H609 0.960 . S
C624 H610 0.960 . S
C624 H611 0.960 . S
C624 C623 1.524 . S
C625 C622 1.403 . S
C625 C626 1.392 . S
C625 C629 1.495 . S
C626 C625 1.392 . S
C626 C627 1.385 . S
C626 C628 1.478 . S
C627 H621 0.930 . S
C627 C623 1.400 . S
C627 C626 1.385 . S
C628 C626 1.478 . S
C628 C630 1.381 . S
C628 C634 1.383 . S
C629 C625 1.495 . S
C629 H635 0.959 . S
C629 H636 0.961 . S
C629 H637 0.960 . S
C630 C628 1.381 . S
C630 C631 1.394 . S
C630 H638 0.930 . S
C631 C630 1.394 . S
C631 C632 1.383 . S
C631 H639 0.929 . S
C632 C631 1.383 . S
C632 C633 1.377 . S
C633 H617 0.930 . S
C633 C632 1.377 . S
C633 C634 1.379 . S
C634 H618 0.931 . S
C634 C628 1.383 . S
C634 C633 1.379 . S
H635 C629 0.959 . S
H636 C629 0.961 . S
H637 C629 0.960 . S
H638 C630 0.930 . S
H639 C631 0.929 . S
H640 C648 0.929 . S
H641 C650 0.930 . S
H642 C652 0.930 . S
H643 C655 0.929 . S
H644 C658 0.930 . S
H645 C660 0.910 1_545 S
H646 C660 0.960 . S
H647 C660 0.960 . S
C648 H640 0.929 . S
C648 C649 1.377 . S
C648 C650 1.384 . S
C649 C648 1.377 . S
C649 C655 1.390 . S
C650 H641 0.930 . S
C650 C648 1.384 . S
C650 C651 1.372 . S
C651 C650 1.372 . S
C651 C652 1.400 . S
C651 C656 1.490 . S
C652 H642 0.930 . S
C652 C651 1.400 . S
C652 C655 1.386 . S
H653 C669 0.930 . S
H654 C670 0.931 . S
C655 H643 0.929 . S
C655 C649 1.390 . S
C655 C652 1.386 . S
C656 C651 1.490 . S
C656 C658 1.395 . S
C656 C659 1.403 . S
H657 C663 0.930 . S
C658 H644 0.930 . S
C658 C656 1.395 . S
C658 C661 1.403 1_565 S
C659 C656 1.403 . S
C659 C660 1.524 . S
C659 C663 1.400 1_565 S
C660 H645 0.910 1_565 S
C660 H646 0.960 . S
C660 H647 0.960 . S
C660 C659 1.524 . S
C661 C658 1.403 1_545 S
C661 C662 1.392 . S
C661 C665 1.495 . S
C662 C661 1.392 . S
C662 C663 1.385 . S
C662 C664 1.478 . S
C663 H657 0.930 . S
C663 C659 1.400 1_545 S
C663 C662 1.385 . S
C664 C662 1.478 . S
C664 C666 1.381 . S
C664 C670 1.383 . S
C665 C661 1.495 . S
C665 H671 0.959 . S
C665 H672 0.961 . S
C665 H673 0.960 . S
C666 C664 1.381 . S
C666 C667 1.394 . S
C666 H674 0.930 . S
C667 C666 1.394 . S
C667 C668 1.383 . S
C667 H675 0.929 . S
C668 C667 1.383 . S
C668 C669 1.377 . S
C669 H653 0.930 . S
C669 C668 1.377 . S
C669 C670 1.379 . S
C670 H654 0.931 . S
C670 C664 1.383 . S
C670 C669 1.379 . S
H671 C665 0.959 . S
H672 C665 0.961 . S
H673 C665 0.960 . S
H674 C666 0.930 . S
H675 C667 0.929 . S
H676 C684 0.929 . S
H677 C686 0.930 . S
H678 C688 0.930 . S
H679 C691 0.929 . S
H680 C694 0.930 . S
H681 C696 0.960 1_455 S
H682 C696 0.960 . S
H683 C696 0.960 . S
C684 H676 0.929 . S
C684 C685 1.377 . S
C684 C686 1.384 . S
C685 C684 1.377 . S
C685 C691 1.390 . S
C686 H677 0.930 . S
C686 C684 1.384 . S
C686 C687 1.372 . S
C687 C686 1.372 . S
C687 C688 1.400 . S
C687 C692 1.490 . S
C688 H678 0.930 . S
C688 C687 1.400 . S
C688 C691 1.386 . S
H689 C705 0.930 . S
H690 C706 0.931 . S
C691 H679 0.929 . S
C691 C685 1.390 . S
C691 C688 1.386 . S
C692 C687 1.490 . S
C692 C694 1.395 . S
C692 C695 1.403 . S
H693 C699 0.930 . S
C694 H680 0.930 . S
C694 C692 1.395 . S
C694 C697 1.403 1_655 S
C695 C692 1.403 . S
C695 C696 1.524 . S
C695 C699 1.400 1_655 S
C696 H681 0.960 1_655 S
C696 H682 0.960 . S
C696 H683 0.960 . S
C696 C695 1.524 . S
C697 C694 1.403 1_455 S
C697 C698 1.392 . S
C697 C701 1.495 . S
C698 C697 1.392 . S
C698 C699 1.385 . S
C698 C700 1.478 . S
C699 H693 0.930 . S
C699 C695 1.400 1_455 S
C699 C698 1.385 . S
C700 C698 1.478 . S
C700 C702 1.381 . S
C700 C706 1.383 . S
C701 C697 1.495 . S
C701 H707 0.959 . S
C701 H708 0.961 . S
C701 H709 0.960 . S
C702 C700 1.381 . S
C702 C703 1.394 . S
C702 H710 0.930 . S
C703 C702 1.394 . S
C703 C704 1.383 . S
C703 H711 0.929 . S
C704 C703 1.383 . S
C704 C705 1.377 . S
C705 H689 0.930 . S
C705 C704 1.377 . S
C705 C706 1.379 . S
C706 H690 0.931 . S
C706 C700 1.383 . S
C706 C705 1.379 . S
H707 C701 0.959 . S
H708 C701 0.961 . S
H709 C701 0.960 . S
H710 C702 0.930 . S
H711 C703 0.929 . S
H712 C720 0.929 . S
H713 C722 0.930 . S
H714 C724 0.930 . S
H715 C727 0.929 . S
H716 C730 0.930 . S
H717 C732 0.960 . S
H718 C732 0.960 . S
H719 C732 0.960 . S
C720 H712 0.929 . S
C720 C721 1.377 . S
C720 C722 1.384 . S
C721 C720 1.377 . S
C721 C727 1.390 . S
C722 H713 0.930 . S
C722 C720 1.384 . S
C722 C723 1.372 . S
C723 C722 1.372 . S
C723 C724 1.400 . S
C723 C728 1.490 . S
C724 H714 0.930 . S
C724 C723 1.400 . S
C724 C727 1.386 . S
H725 C741 0.930 . S
H726 C742 0.931 . S
C727 H715 0.929 . S
C727 C721 1.390 . S
C727 C724 1.386 . S
C728 C723 1.490 . S
C728 C730 1.395 . S
C728 C731 1.403 . S
H729 C735 0.930 . S
C730 H716 0.930 . S
C730 C728 1.395 . S
C730 C733 1.403 1_565 S
C731 C728 1.403 . S
C731 C732 1.524 . S
C731 C735 1.400 1_565 S
C732 H717 0.960 . S
C732 H718 0.960 . S
C732 H719 0.960 . S
C732 C731 1.524 . S
C733 C730 1.403 1_545 S
C733 C734 1.392 . S
C733 C737 1.495 . S
C734 C733 1.392 . S
C734 C735 1.385 . S
C734 C736 1.478 . S
C735 H729 0.930 . S
C735 C731 1.400 1_545 S
C735 C734 1.385 . S
C736 C734 1.478 . S
C736 C738 1.381 . S
C736 C742 1.383 . S
C737 C733 1.495 . S
C737 H743 0.959 . S
C737 H744 0.961 . S
C737 H745 0.960 . S
C738 C736 1.381 . S
C738 C739 1.394 . S
C738 H746 0.930 . S
C739 C738 1.394 . S
C739 C740 1.383 . S
C739 H747 0.929 . S
C740 C739 1.383 . S
C740 C741 1.377 . S
C741 H725 0.930 . S
C741 C740 1.377 . S
C741 C742 1.379 . S
C742 H726 0.931 . S
C742 C736 1.383 . S
C742 C741 1.379 . S
H743 C737 0.959 . S
H744 C737 0.961 . S
H745 C737 0.960 . S
H746 C738 0.930 . S
H747 C739 0.929 . S
H748 C756 0.929 . S
H749 C758 0.930 . S
H750 C760 0.930 . S
H751 C763 0.929 . S
H752 C766 0.930 . S
H753 C768 0.960 . S
H754 C768 0.960 . S
H755 C768 0.960 . S
C756 H748 0.929 . S
C756 C757 1.377 . S
C756 C758 1.384 . S
C757 C756 1.377 . S
C757 C763 1.390 . S
C758 H749 0.930 . S
C758 C756 1.384 . S
C758 C759 1.372 . S
C759 C758 1.372 . S
C759 C760 1.400 . S
C759 C764 1.490 . S
C760 H750 0.930 . S
C760 C759 1.400 . S
C760 C763 1.386 . S
H761 C777 0.930 . S
H762 C778 0.931 . S
C763 H751 0.929 . S
C763 C757 1.390 . S
C763 C760 1.386 . S
C764 C759 1.490 . S
C764 C766 1.395 . S
C764 C767 1.403 . S
H765 C771 0.930 . S
C766 H752 0.930 . S
C766 C764 1.395 . S
C766 C769 1.403 1_655 S
C767 C764 1.403 . S
C767 C768 1.524 . S
C767 C771 1.400 1_655 S
C768 H753 0.960 . S
C768 H754 0.960 . S
C768 H755 0.960 . S
C768 C767 1.524 . S
C769 C766 1.403 1_455 S
C769 C770 1.392 . S
C769 C773 1.495 . S
C770 C769 1.392 . S
C770 C771 1.385 . S
C770 C772 1.478 . S
C771 H765 0.930 . S
C771 C767 1.400 1_455 S
C771 C770 1.385 . S
C772 C770 1.478 . S
C772 C774 1.381 . S
C772 C778 1.383 . S
C773 C769 1.495 . S
C773 H779 0.959 . S
C773 H780 0.961 . S
C773 H781 0.960 . S
C774 C772 1.381 . S
C774 C775 1.394 . S
C774 H782 0.930 . S
C775 C774 1.394 . S
C775 C776 1.383 . S
C775 H783 0.929 . S
C776 C775 1.383 . S
C776 C777 1.377 . S
C777 H761 0.930 . S
C777 C776 1.377 . S
C777 C778 1.379 . S
C778 H762 0.931 . S
C778 C772 1.383 . S
C778 C777 1.379 . S
H779 C773 0.959 . S
H780 C773 0.961 . S
H781 C773 0.960 . S
H782 C774 0.930 . S
H783 C775 0.929 . S
H784 C792 0.930 . S
H785 C794 0.930 1_556 S
H786 C796 0.930 . S
H787 C799 0.929 . S
H788 C802 0.930 . S
H789 C804 0.960 . S
H790 C804 0.960 1_556 S
H791 C804 0.960 . S
C792 H784 0.930 . S
C792 C793 1.377 . S
C792 C794 1.384 . S
C793 C792 1.377 . S
C793 C799 1.390 . S
C794 H785 0.930 1_554 S
C794 C792 1.384 . S
C794 C795 1.372 . S
C795 C794 1.372 . S
C795 C796 1.400 . S
C795 C800 1.490 . S
C796 H786 0.930 . S
C796 C795 1.400 . S
C796 C799 1.386 . S
H797 C813 0.930 . S
H798 C814 0.931 . S
C799 H787 0.929 . S
C799 C793 1.390 . S
C799 C796 1.386 . S
C800 C795 1.490 . S
C800 C802 1.395 . S
C800 C803 1.403 . S
H801 C807 0.930 . S
C802 H788 0.930 . S
C802 C800 1.395 . S
C802 C805 1.403 . S
C803 C800 1.403 . S
C803 C804 1.524 . S
C803 C807 1.400 . S
C804 H789 0.960 . S
C804 H790 0.960 1_554 S
C804 H791 0.960 . S
C804 C803 1.524 . S
C805 C802 1.403 . S
C805 C806 1.392 . S
C805 C809 1.495 . S
C806 C805 1.392 . S
C806 C807 1.385 . S
C806 C808 1.478 . S
C807 H801 0.930 . S
C807 C803 1.400 . S
C807 C806 1.385 . S
C808 C806 1.478 . S
C808 C810 1.381 . S
C808 C814 1.383 . S
C809 C805 1.495 . S
C809 H815 0.959 . S
C809 H816 0.961 . S
C809 H817 0.960 . S
C810 C808 1.381 . S
C810 C811 1.394 . S
C810 H818 0.930 1_554 S
C811 C810 1.394 . S
C811 C812 1.383 . S
C811 H819 0.929 1_554 S
C812 C811 1.383 . S
C812 C813 1.377 . S
C813 H797 0.930 . S
C813 C812 1.377 . S
C813 C814 1.379 . S
C814 H798 0.931 . S
C814 C808 1.383 . S
C814 C813 1.379 . S
H815 C809 0.959 . S
H816 C809 0.961 . S
H817 C809 0.960 . S
H818 C810 0.930 1_556 S
H819 C811 0.929 1_556 S
H820 C828 0.929 . S
H821 C830 0.930 . S
H822 C832 0.930 . S
H823 C835 0.929 . S
H824 C838 0.930 . S
H825 C840 0.960 . S
H826 C840 0.960 . S
H827 C840 0.960 . S
C828 H820 0.929 . S
C828 C829 1.377 . S
C828 C830 1.384 . S
C829 C828 1.377 . S
C829 C835 1.390 . S
C830 H821 0.930 . S
C830 C828 1.384 . S
C830 C831 1.372 . S
C831 C830 1.372 . S
C831 C832 1.400 . S
C831 C836 1.490 . S
C832 H822 0.930 . S
C832 C831 1.400 . S
C832 C835 1.386 . S
H833 C849 0.930 . S
H834 C850 0.931 . S
C835 H823 0.929 . S
C835 C829 1.390 . S
C835 C832 1.386 . S
C836 C831 1.490 . S
C836 C838 1.395 . S
C836 C839 1.403 . S
H837 C843 0.930 1_554 S
C838 H824 0.930 . S
C838 C836 1.395 . S
C838 C841 1.403 . S
C839 C836 1.403 . S
C839 C840 1.524 1_556 S
C839 C843 1.400 . S
C840 H825 0.960 . S
C840 H826 0.960 . S
C840 H827 0.960 . S
C840 C839 1.524 1_554 S
C841 C838 1.403 . S
C841 C842 1.392 . S
C841 C845 1.495 . S
C842 C841 1.392 . S
C842 C843 1.385 . S
C842 C844 1.478 . S
C843 H837 0.930 1_556 S
C843 C839 1.400 . S
C843 C842 1.385 . S
C844 C842 1.478 . S
C844 C846 1.381 . S
C844 C850 1.383 . S
C845 C841 1.495 . S
C845 H851 0.959 . S
C845 H852 0.961 . S
C845 H853 0.960 . S
C846 C844 1.381 . S
C846 C847 1.394 . S
C846 H854 0.930 . S
C847 C846 1.394 . S
C847 C848 1.383 . S
C847 H855 0.929 . S
C848 C847 1.383 . S
C848 C849 1.377 . S
C849 H833 0.930 . S
C849 C848 1.377 . S
C849 C850 1.379 . S
C850 H834 0.931 . S
C850 C844 1.383 . S
C850 C849 1.379 . S
H851 C845 0.959 . S
H852 C845 0.961 . S
H853 C845 0.960 . S
H854 C846 0.930 . S
H855 C847 0.929 . S
H856 C864 0.929 . S
H857 C866 0.930 . S
H858 C868 0.930 . S
H859 C871 0.929 . S
H860 C874 0.930 1_556 S
H861 C876 0.960 . S
H862 C876 0.960 . S
H863 C876 0.960 . S
C864 H856 0.929 . S
C864 C865 1.377 . S
C864 C866 1.384 . S
C865 C864 1.377 . S
C865 C871 1.390 . S
C866 H857 0.930 . S
C866 C864 1.384 . S
C866 C867 1.372 . S
C867 C866 1.372 . S
C867 C868 1.400 . S
C867 C872 1.490 . S
C868 H858 0.930 . S
C868 C867 1.400 . S
C868 C871 1.386 . S
H869 C885 0.930 . S
H870 C886 0.931 . S
C871 H859 0.929 . S
C871 C865 1.390 . S
C871 C868 1.386 . S
C872 C867 1.490 . S
C872 C874 1.395 . S
C872 C875 1.403 . S
H873 C879 0.930 . S
C874 H860 0.930 1_554 S
C874 C872 1.395 . S
C874 C877 1.403 . S
C875 C872 1.403 . S
C875 C876 1.524 . S
C875 C879 1.400 . S
C876 H861 0.960 . S
C876 H862 0.960 . S
C876 H863 0.960 . S
C876 C875 1.524 . S
C877 C874 1.403 . S
C877 C878 1.392 . S
C877 C881 1.495 1_554 S
C878 C877 1.392 . S
C878 C879 1.385 . S
C878 C880 1.478 . S
C879 H873 0.930 . S
C879 C875 1.400 . S
C879 C878 1.385 . S
C880 C878 1.478 . S
C880 C882 1.381 . S
C880 C886 1.383 . S
C881 C877 1.495 1_556 S
C881 H887 0.959 . S
C881 H888 0.961 . S
C881 H889 0.960 . S
C882 C880 1.381 . S
C882 C883 1.394 . S
C882 H890 0.930 . S
C883 C882 1.394 . S
C883 C884 1.383 . S
C883 H891 0.929 . S
C884 C883 1.383 . S
C884 C885 1.377 . S
C885 H869 0.930 . S
C885 C884 1.377 . S
C885 C886 1.379 . S
C886 H870 0.931 . S
C886 C880 1.383 . S
C886 C885 1.379 . S
H887 C881 0.959 . S
H888 C881 0.961 . S
H889 C881 0.960 . S
H890 C882 0.930 . S
H891 C883 0.929 . S
H892 C900 0.929 1_554 S
H893 C902 0.930 1_554 S
H894 C904 0.930 . S
H895 C907 0.929 . S
H896 C910 0.930 . S
H897 C912 0.960 . S
H898 C912 0.960 . S
H899 C912 0.960 . S
C900 H892 0.929 1_556 S
C900 C901 1.377 . S
C900 C902 1.384 . S
C901 C900 1.377 . S
C901 C907 1.390 . S
C902 H893 0.930 1_556 S
C902 C900 1.384 . S
C902 C903 1.372 . S
C903 C902 1.372 . S
C903 C904 1.400 . S
C903 C908 1.490 . S
C904 H894 0.930 . S
C904 C903 1.400 . S
C904 C907 1.386 . S
H905 C921 0.930 . S
H906 C922 0.931 . S
C907 H895 0.929 . S
C907 C901 1.390 . S
C907 C904 1.386 . S
C908 C903 1.490 . S
C908 C910 1.395 . S
C908 C911 1.403 . S
H909 C915 0.930 . S
C910 H896 0.930 . S
C910 C908 1.395 . S
C910 C913 1.403 . S
C911 C908 1.403 . S
C911 C912 1.524 . S
C911 C915 1.400 . S
C912 H897 0.960 . S
C912 H898 0.960 . S
C912 H899 0.960 . S
C912 C911 1.524 . S
C913 C910 1.403 . S
C913 C914 1.392 . S
C913 C917 1.495 1_556 S
C914 C913 1.392 . S
C914 C915 1.385 . S
C914 C916 1.478 . S
C915 H909 0.930 . S
C915 C911 1.400 . S
C915 C914 1.385 . S
C916 C914 1.478 . S
C916 C918 1.381 . S
C916 C922 1.383 . S
C917 C913 1.495 1_554 S
C917 H923 0.959 . S
C917 H924 0.961 1_554 S
C917 H925 0.960 . S
C918 C916 1.381 . S
C918 C919 1.394 . S
C918 H926 0.930 1_556 S
C919 C918 1.394 . S
C919 C920 1.383 . S
C919 H927 0.929 1_556 S
C920 C919 1.383 . S
C920 C921 1.377 . S
C921 H905 0.930 . S
C921 C920 1.377 . S
C921 C922 1.379 . S
C922 H906 0.931 . S
C922 C916 1.383 . S
C922 C921 1.379 . S
H923 C917 0.959 . S
H924 C917 0.961 1_556 S
H925 C917 0.960 . S
H926 C918 0.930 1_554 S
H927 C919 0.929 1_554 S
H928 C936 0.929 . S
H929 C938 0.930 . S
H930 C940 0.930 . S
H931 C943 0.929 . S
H932 C946 0.930 . S
H933 C948 0.960 . S
H934 C948 0.960 . S
H935 C948 0.960 . S
C936 H928 0.929 . S
C936 C937 1.377 . S
C936 C938 1.384 . S
C937 C936 1.377 . S
C937 C943 1.390 . S
C938 H929 0.930 . S
C938 C936 1.384 . S
C938 C939 1.372 . S
C939 C938 1.372 . S
C939 C940 1.400 . S
C939 C944 1.490 . S
C940 H930 0.930 . S
C940 C939 1.400 . S
C940 C943 1.386 . S
H941 C957 0.930 . S
H942 C958 0.931 . S
C943 H931 0.929 . S
C943 C937 1.390 . S
C943 C940 1.386 . S
C944 C939 1.490 . S
C944 C946 1.395 . S
C944 C947 1.403 . S
H945 C951 0.930 . S
C946 H932 0.930 . S
C946 C944 1.395 . S
C946 C949 1.403 . S
C947 C944 1.403 . S
C947 C948 1.524 . S
C947 C951 1.400 . S
C948 H933 0.960 . S
C948 H934 0.960 . S
C948 H935 0.960 . S
C948 C947 1.524 . S
C949 C946 1.403 . S
C949 C950 1.392 . S
C949 C953 1.495 . S
C950 C949 1.392 . S
C950 C951 1.385 . S
C950 C952 1.478 . S
C951 H945 0.930 . S
C951 C947 1.400 . S
C951 C950 1.385 . S
C952 C950 1.478 . S
C952 C954 1.381 . S
C952 C958 1.383 . S
C953 C949 1.495 . S
C953 H959 0.959 . S
C953 H960 0.961 . S
C953 H961 0.960 . S
C954 C952 1.381 . S
C954 C955 1.394 . S
C954 H962 0.930 . S
C955 C954 1.394 . S
C955 C956 1.383 . S
C955 H963 0.929 . S
C956 C955 1.383 . S
C956 C957 1.377 . S
C957 H941 0.930 . S
C957 C956 1.377 . S
C957 C958 1.379 . S
C958 H942 0.931 . S
C958 C952 1.383 . S
C958 C957 1.379 . S
H959 C953 0.959 . S
H960 C953 0.961 . S
H961 C953 0.960 . S
H962 C954 0.930 . S
H963 C955 0.929 . S
H964 C972 0.929 . S
H965 C974 0.930 . S
H966 C976 0.930 . S
H967 C979 0.929 . S
H968 C982 0.930 . S
H969 C984 0.960 . S
H970 C984 0.960 . S
H971 C984 0.960 . S
C972 H964 0.929 . S
C972 C973 1.377 . S
C972 C974 1.384 . S
C973 C972 1.377 . S
C973 C979 1.390 . S
C974 H965 0.930 . S
C974 C972 1.384 . S
C974 C975 1.372 . S
C975 C974 1.372 . S
C975 C976 1.400 . S
C975 C980 1.490 . S
C976 H966 0.930 . S
C976 C975 1.400 . S
C976 C979 1.386 . S
H977 C993 0.930 . S
H978 C994 0.931 . S
C979 H967 0.929 . S
C979 C973 1.390 . S
C979 C976 1.386 . S
C980 C975 1.490 . S
C980 C982 1.395 . S
C980 C983 1.403 . S
H981 C987 0.930 . S
C982 H968 0.930 . S
C982 C980 1.395 . S
C982 C985 1.403 . S
C983 C980 1.403 . S
C983 C984 1.524 . S
C983 C987 1.400 . S
C984 H969 0.960 . S
C984 H970 0.960 . S
C984 H971 0.960 . S
C984 C983 1.524 . S
C985 C982 1.403 . S
C985 C986 1.392 . S
C985 C989 1.495 . S
C986 C985 1.392 . S
C986 C987 1.385 . S
C986 C988 1.478 . S
C987 H981 0.930 . S
C987 C983 1.400 . S
C987 C986 1.385 . S
C988 C986 1.478 . S
C988 C990 1.381 . S
C988 C994 1.383 . S
C989 C985 1.495 . S
C989 H995 0.959 . S
C989 H996 0.961 . S
C989 H997 0.960 . S
C990 C988 1.381 . S
C990 C991 1.394 . S
C990 H998 0.930 . S
C991 C990 1.394 . S
C991 C992 1.383 . S
C991 H999 0.929 . S
C992 C991 1.383 . S
C992 C993 1.377 . S
C993 H977 0.930 . S
C993 C992 1.377 . S
C993 C994 1.379 . S
C994 H978 0.931 . S
C994 C988 1.383 . S
C994 C993 1.379 . S
H995 C989 0.959 . S
H996 C989 0.961 . S
H997 C989 0.960 . S
H998 C990 0.930 . S
H999 C991 0.929 . S
H1000 C1008 0.929 . S
H1001 C1010 0.930 . S
H1002 C1012 0.930 . S
H1003 C1015 0.929 . S
H1004 C1018 0.930 . S
H1005 C1020 0.960 . S
H1006 C1020 0.960 . S
H1007 C1020 0.960 . S
C1008 H1000 0.929 . S
C1008 C1009 1.377 . S
C1008 C1010 1.384 . S
C1009 C1008 1.377 . S
C1009 C1015 1.390 . S
C1010 H1001 0.930 . S
C1010 C1008 1.384 . S
C1010 C1011 1.372 . S
C1011 C1010 1.372 . S
C1011 C1012 1.400 . S
C1011 C1016 1.490 . S
C1012 H1002 0.930 . S
C1012 C1011 1.400 . S
C1012 C1015 1.386 . S
H1013 C1029 0.930 . S
H1014 C1030 0.931 . S
C1015 H1003 0.929 . S
C1015 C1009 1.390 . S
C1015 C1012 1.386 . S
C1016 C1011 1.490 . S
C1016 C1018 1.395 . S
C1016 C1019 1.403 . S
H1017 C1023 0.930 . S
C1018 H1004 0.930 . S
C1018 C1016 1.395 . S
C1018 C1021 1.403 . S
C1019 C1016 1.403 . S
C1019 C1020 1.524 . S
C1019 C1023 1.400 . S
C1020 H1005 0.960 . S
C1020 H1006 0.960 . S
C1020 H1007 0.960 . S
C1020 C1019 1.524 . S
C1021 C1018 1.403 . S
C1021 C1022 1.392 . S
C1021 C1025 1.495 . S
C1022 C1021 1.392 . S
C1022 C1023 1.385 . S
C1022 C1024 1.478 . S
C1023 H1017 0.930 . S
C1023 C1019 1.400 . S
C1023 C1022 1.385 . S
C1024 C1022 1.478 . S
C1024 C1026 1.381 . S
C1024 C1030 1.383 . S
C1025 C1021 1.495 . S
C1025 H1031 0.959 . S
C1025 H1032 0.961 . S
C1025 H1033 0.960 . S
C1026 C1024 1.381 . S
C1026 C1027 1.394 . S
C1026 H1034 0.930 . S
C1027 C1026 1.394 . S
C1027 C1028 1.383 . S
C1027 H1035 0.929 . S
C1028 C1027 1.383 . S
C1028 C1029 1.377 . S
C1029 H1013 0.930 . S
C1029 C1028 1.377 . S
C1029 C1030 1.379 . S
C1030 H1014 0.931 . S
C1030 C1024 1.383 . S
C1030 C1029 1.379 . S
H1031 C1025 0.959 . S
H1032 C1025 0.961 . S
H1033 C1025 0.960 . S
H1034 C1026 0.930 . S
H1035 C1027 0.929 . S
H1036 C1044 0.929 . S
H1037 C1046 0.930 . S
H1038 C1048 0.930 . S
H1039 C1051 0.929 . S
H1040 C1054 0.930 . S
H1041 C1056 0.960 . S
H1042 C1056 0.960 . S
H1043 C1056 0.960 . S
C1044 H1036 0.929 . S
C1044 C1045 1.377 . S
C1044 C1046 1.384 . S
C1045 C1044 1.377 . S
C1045 C1051 1.390 . S
C1046 H1037 0.930 . S
C1046 C1044 1.384 . S
C1046 C1047 1.372 . S
C1047 C1046 1.372 . S
C1047 C1048 1.400 . S
C1047 C1052 1.490 . S
C1048 H1038 0.930 . S
C1048 C1047 1.400 . S
C1048 C1051 1.386 . S
H1049 C1065 0.930 . S
H1050 C1066 0.931 . S
C1051 H1039 0.929 . S
C1051 C1045 1.390 . S
C1051 C1048 1.386 . S
C1052 C1047 1.490 . S
C1052 C1054 1.395 . S
C1052 C1055 1.403 . S
H1053 C1059 0.930 . S
C1054 H1040 0.930 . S
C1054 C1052 1.395 . S
C1054 C1057 1.403 . S
C1055 C1052 1.403 . S
C1055 C1056 1.524 . S
C1055 C1059 1.400 . S
C1056 H1041 0.960 . S
C1056 H1042 0.960 . S
C1056 H1043 0.960 . S
C1056 C1055 1.524 . S
C1057 C1054 1.403 . S
C1057 C1058 1.392 . S
C1057 C1061 1.495 . S
C1058 C1057 1.392 . S
C1058 C1059 1.385 . S
C1058 C1060 1.478 . S
C1059 H1053 0.930 . S
C1059 C1055 1.400 . S
C1059 C1058 1.385 . S
C1060 C1058 1.478 . S
C1060 C1062 1.381 . S
C1060 C1066 1.383 . S
C1061 C1057 1.495 . S
C1061 H1067 0.959 . S
C1061 H1068 0.961 . S
C1061 H1069 0.960 . S
C1062 C1060 1.381 . S
C1062 C1063 1.394 . S
C1062 H1070 0.930 . S
C1063 C1062 1.394 . S
C1063 C1064 1.383 . S
C1063 H1071 0.929 . S
C1064 C1063 1.383 . S
C1064 C1065 1.377 . S
C1065 H1049 0.930 . S
C1065 C1064 1.377 . S
C1065 C1066 1.379 . S
C1066 H1050 0.931 . S
C1066 C1060 1.383 . S
C1066 C1065 1.379 . S
H1067 C1061 0.959 . S
H1068 C1061 0.961 . S
H1069 C1061 0.960 . S
H1070 C1062 0.930 . S
H1071 C1063 0.929 . S
H1072 C1080 0.929 . S
H1073 C1082 0.930 . S
H1074 C1084 0.930 . S
H1075 C1087 0.929 . S
H1076 C1090 0.930 . S
H1077 C1092 0.960 . S
H1078 C1092 0.960 . S
H1079 C1092 0.960 . S
C1080 H1072 0.929 . S
C1080 C1081 1.377 . S
C1080 C1082 1.384 . S
C1081 C1080 1.377 . S
C1081 C1087 1.390 . S
C1082 H1073 0.930 . S
C1082 C1080 1.384 . S
C1082 C1083 1.372 . S
C1083 C1082 1.372 . S
C1083 C1084 1.400 . S
C1083 C1088 1.490 . S
C1084 H1074 0.930 . S
C1084 C1083 1.400 . S
C1084 C1087 1.386 . S
H1085 C1101 0.930 . S
H1086 C1102 0.931 . S
C1087 H1075 0.929 . S
C1087 C1081 1.390 . S
C1087 C1084 1.386 . S
C1088 C1083 1.490 . S
C1088 C1090 1.395 . S
C1088 C1091 1.403 . S
H1089 C1095 0.930 1_554 S
C1090 H1076 0.930 . S
C1090 C1088 1.395 . S
C1090 C1093 1.403 . S
C1091 C1088 1.403 . S
C1091 C1092 1.524 1_556 S
C1091 C1095 1.400 . S
C1092 H1077 0.960 . S
C1092 H1078 0.960 . S
C1092 H1079 0.960 . S
C1092 C1091 1.524 1_554 S
C1093 C1090 1.403 . S
C1093 C1094 1.392 . S
C1093 C1097 1.495 . S
C1094 C1093 1.392 . S
C1094 C1095 1.385 . S
C1094 C1096 1.478 . S
C1095 H1089 0.930 1_556 S
C1095 C1091 1.400 . S
C1095 C1094 1.385 . S
C1096 C1094 1.478 . S
C1096 C1098 1.381 . S
C1096 C1102 1.383 1_556 S
C1097 C1093 1.495 . S
C1097 H1103 0.959 . S
C1097 H1104 0.961 . S
C1097 H1105 0.960 . S
C1098 C1096 1.381 . S
C1098 C1099 1.394 . S
C1098 H1106 0.930 . S
C1099 C1098 1.394 . S
C1099 C1100 1.383 1_556 S
C1099 H1107 0.929 . S
C1100 C1099 1.383 1_554 S
C1100 C1101 1.377 . S
C1101 H1085 0.930 . S
C1101 C1100 1.377 . S
C1101 C1102 1.379 . S
C1102 H1086 0.931 . S
C1102 C1096 1.383 1_554 S
C1102 C1101 1.379 . S
H1103 C1097 0.959 . S
H1104 C1097 0.961 . S
H1105 C1097 0.960 . S
H1106 C1098 0.930 . S
H1107 C1099 0.929 . S
H1108 C1116 0.929 . S
H1109 C1118 0.930 . S
H1110 C1120 0.930 . S
H1111 C1123 0.929 . S
H1112 C1126 0.930 . S
H1113 C1128 0.960 . S
H1114 C1128 0.960 . S
H1115 C1128 0.960 . S
C1116 H1108 0.929 . S
C1116 C1117 1.377 . S
C1116 C1118 1.384 . S
C1117 C1116 1.377 . S
C1117 C1123 1.390 . S
C1118 H1109 0.930 . S
C1118 C1116 1.384 . S
C1118 C1119 1.372 . S
C1119 C1118 1.372 . S
C1119 C1120 1.400 . S
C1119 C1124 1.490 . S
C1120 H1110 0.930 . S
C1120 C1119 1.400 . S
C1120 C1123 1.386 . S
H1121 C1137 0.930 . S
H1122 C1138 0.931 . S
C1123 H1111 0.929 . S
C1123 C1117 1.390 . S
C1123 C1120 1.386 . S
C1124 C1119 1.490 . S
C1124 C1126 1.395 . S
C1124 C1127 1.403 . S
H1125 C1131 0.930 . S
C1126 H1112 0.930 . S
C1126 C1124 1.395 . S
C1126 C1129 1.403 . S
C1127 C1124 1.403 . S
C1127 C1128 1.524 . S
C1127 C1131 1.400 . S
C1128 H1113 0.960 . S
C1128 H1114 0.960 . S
C1128 H1115 0.960 . S
C1128 C1127 1.524 . S
C1129 C1126 1.403 . S
C1129 C1130 1.392 . S
C1129 C1133 1.495 1_554 S
C1130 C1129 1.392 . S
C1130 C1131 1.385 . S
C1130 C1132 1.478 . S
C1131 H1125 0.930 . S
C1131 C1127 1.400 . S
C1131 C1130 1.385 . S
C1132 C1130 1.478 . S
C1132 C1134 1.381 . S
C1132 C1138 1.383 1_554 S
C1133 C1129 1.495 1_556 S
C1133 H1139 0.959 . S
C1133 H1140 0.961 . S
C1133 H1141 0.960 . S
C1134 C1132 1.381 . S
C1134 C1135 1.394 . S
C1134 H1142 0.930 . S
C1135 C1134 1.394 . S
C1135 C1136 1.383 1_554 S
C1135 H1143 0.929 . S
C1136 C1135 1.383 1_556 S
C1136 C1137 1.377 . S
C1137 H1121 0.930 . S
C1137 C1136 1.377 . S
C1137 C1138 1.379 . S
C1138 H1122 0.931 . S
C1138 C1132 1.383 1_556 S
C1138 C1137 1.379 . S
H1139 C1133 0.959 . S
H1140 C1133 0.961 . S
H1141 C1133 0.960 . S
H1142 C1134 0.930 . S
H1143 C1135 0.929 . S
H1144 C1152 0.929 . S
H1145 C1154 0.930 . S
H1146 C1156 0.930 . S
H1147 C1159 0.929 . S
H1148 C1162 0.930 . S
H1149 C1164 0.960 . S
H1150 C1164 0.960 . S
H1151 C1164 0.960 . S
C1152 H1144 0.929 . S
C1152 C1153 1.377 . S
C1152 C1154 1.384 . S
C1153 C1152 1.377 . S
C1153 C1159 1.390 1_554 S
C1154 H1145 0.930 . S
C1154 C1152 1.384 . S
C1154 C1155 1.372 1_554 S
C1155 C1154 1.372 1_556 S
C1155 C1156 1.400 . S
C1155 C1160 1.490 . S
C1156 H1146 0.930 . S
C1156 C1155 1.400 . S
C1156 C1159 1.386 . S
H1157 C1173 0.930 . S
H1158 C1174 0.931 . S
C1159 H1147 0.929 . S
C1159 C1153 1.390 1_556 S
C1159 C1156 1.386 . S
C1160 C1155 1.490 . S
C1160 C1162 1.395 1_556 S
C1160 C1163 1.403 . S
H1161 C1167 0.930 . S
C1162 H1148 0.930 . S
C1162 C1160 1.395 1_554 S
C1162 C1165 1.403 1_554 S
C1163 C1160 1.403 . S
C1163 C1164 1.524 . S
C1163 C1167 1.400 . S
C1164 H1149 0.960 . S
C1164 H1150 0.960 . S
C1164 H1151 0.960 . S
C1164 C1163 1.524 . S
C1165 C1162 1.403 1_556 S
C1165 C1166 1.392 . S
C1165 C1169 1.495 1_556 S
C1166 C1165 1.392 . S
C1166 C1167 1.385 . S
C1166 C1168 1.478 . S
C1167 H1161 0.930 . S
C1167 C1163 1.400 . S
C1167 C1166 1.385 . S
C1168 C1166 1.478 . S
C1168 C1170 1.381 . S
C1168 C1174 1.383 . S
C1169 C1165 1.495 1_554 S
C1169 H1175 0.959 . S
C1169 H1176 0.961 . S
C1169 H1177 0.960 . S
C1170 C1168 1.381 . S
C1170 C1171 1.394 . S
C1170 H1178 0.930 . S
C1171 C1170 1.394 . S
C1171 C1172 1.383 . S
C1171 H1179 0.929 . S
C1172 C1171 1.383 . S
C1172 C1173 1.377 . S
C1173 H1157 0.930 . S
C1173 C1172 1.377 . S
C1173 C1174 1.379 . S
C1174 H1158 0.931 . S
C1174 C1168 1.383 . S
C1174 C1173 1.379 . S
H1175 C1169 0.959 . S
H1176 C1169 0.961 . S
H1177 C1169 0.960 . S
H1178 C1170 0.930 . S
H1179 C1171 0.929 . S
H1180 C1188 0.929 . S
H1181 C1190 0.930 . S
H1182 C1192 0.930 . S
H1183 C1195 0.929 . S
H1184 C1198 0.930 . S
H1185 C1200 0.960 1_556 S
H1186 C1200 0.960 1_556 S
H1187 C1200 0.960 . S
C1188 H1180 0.929 . S
C1188 C1189 1.377 . S
C1188 C1190 1.384 . S
C1189 C1188 1.377 . S
C1189 C1195 1.390 . S
C1190 H1181 0.930 . S
C1190 C1188 1.384 . S
C1190 C1191 1.372 . S
C1191 C1190 1.372 . S
C1191 C1192 1.400 . S
C1191 C1196 1.490 . S
C1192 H1182 0.930 . S
C1192 C1191 1.400 . S
C1192 C1195 1.386 . S
H1193 C1209 0.930 . S
H1194 C1210 0.931 . S
C1195 H1183 0.929 . S
C1195 C1189 1.390 . S
C1195 C1192 1.386 . S
C1196 C1191 1.490 . S
C1196 C1198 1.395 . S
C1196 C1199 1.403 . S
H1197 C1203 0.930 1_556 S
C1198 H1184 0.930 . S
C1198 C1196 1.395 . S
C1198 C1201 1.403 . S
C1199 C1196 1.403 . S
C1199 C1200 1.524 . S
C1199 C1203 1.400 . S
C1200 H1185 0.960 1_554 S
C1200 H1186 0.960 1_554 S
C1200 H1187 0.960 . S
C1200 C1199 1.524 . S
C1201 C1198 1.403 . S
C1201 C1202 1.392 . S
C1201 C1205 1.495 . S
C1202 C1201 1.392 . S
C1202 C1203 1.385 . S
C1202 C1204 1.478 . S
C1203 H1197 0.930 1_554 S
C1203 C1199 1.400 . S
C1203 C1202 1.385 . S
C1204 C1202 1.478 . S
C1204 C1206 1.381 1_554 S
C1204 C1210 1.383 . S
C1205 C1201 1.495 . S
C1205 H1211 0.959 . S
C1205 H1212 0.961 . S
C1205 H1213 0.960 . S
C1206 C1204 1.381 1_556 S
C1206 C1207 1.394 . S
C1206 H1214 0.930 . S
C1207 C1206 1.394 . S
C1207 C1208 1.383 . S
C1207 H1215 0.929 . S
C1208 C1207 1.383 . S
C1208 C1209 1.377 1_556 S
C1209 H1193 0.930 . S
C1209 C1208 1.377 1_554 S
C1209 C1210 1.379 . S
C1210 H1194 0.931 . S
C1210 C1204 1.383 . S
C1210 C1209 1.379 . S
H1211 C1205 0.959 . S
H1212 C1205 0.961 . S
H1213 C1205 0.960 . S
H1214 C1206 0.930 . S
H1215 C1207 0.929 . S
H1216 C1224 0.929 . S
H1217 C1226 0.930 . S
H1218 C1228 0.930 . S
H1219 C1231 0.929 . S
H1220 C1234 0.930 . S
H1221 C1236 0.960 . S
H1222 C1236 0.960 . S
H1223 C1236 0.960 . S
C1224 H1216 0.929 . S
C1224 C1225 1.377 . S
C1224 C1226 1.384 . S
C1225 C1224 1.377 . S
C1225 C1231 1.390 . S
C1226 H1217 0.930 . S
C1226 C1224 1.384 . S
C1226 C1227 1.372 . S
C1227 C1226 1.372 . S
C1227 C1228 1.400 . S
C1227 C1232 1.490 . S
C1228 H1218 0.930 . S
C1228 C1227 1.400 . S
C1228 C1231 1.386 . S
H1229 C1245 0.930 . S
H1230 C1246 0.931 . S
C1231 H1219 0.929 . S
C1231 C1225 1.390 . S
C1231 C1228 1.386 . S
C1232 C1227 1.490 . S
C1232 C1234 1.395 . S
C1232 C1235 1.403 . S
H1233 C1239 0.930 . S
C1234 H1220 0.930 . S
C1234 C1232 1.395 . S
C1234 C1237 1.403 . S
C1235 C1232 1.403 . S
C1235 C1236 1.524 . S
C1235 C1239 1.400 . S
C1236 H1221 0.960 . S
C1236 H1222 0.960 . S
C1236 H1223 0.960 . S
C1236 C1235 1.524 . S
C1237 C1234 1.403 . S
C1237 C1238 1.392 . S
C1237 C1241 1.495 . S
C1238 C1237 1.392 . S
C1238 C1239 1.385 . S
C1238 C1240 1.478 . S
C1239 H1233 0.930 . S
C1239 C1235 1.400 . S
C1239 C1238 1.385 . S
C1240 C1238 1.478 . S
C1240 C1242 1.381 . S
C1240 C1246 1.383 . S
C1241 C1237 1.495 . S
C1241 H1247 0.959 . S
C1241 H1248 0.961 . S
C1241 H1249 0.960 . S
C1242 C1240 1.381 . S
C1242 C1243 1.394 . S
C1242 H1250 0.930 . S
C1243 C1242 1.394 . S
C1243 C1244 1.383 . S
C1243 H1251 0.929 . S
C1244 C1243 1.383 . S
C1244 C1245 1.377 . S
C1245 H1229 0.930 . S
C1245 C1244 1.377 . S
C1245 C1246 1.379 . S
C1246 H1230 0.931 . S
C1246 C1240 1.383 . S
C1246 C1245 1.379 . S
H1247 C1241 0.959 . S
H1248 C1241 0.961 . S
H1249 C1241 0.960 . S
H1250 C1242 0.930 . S
H1251 C1243 0.929 . S
H1252 C1260 0.929 . S
H1253 C1262 0.930 . S
H1254 C1264 0.930 . S
H1255 C1267 0.929 . S
H1256 C1270 0.930 . S
H1257 C1272 0.960 . S
H1258 C1272 0.960 . S
H1259 C1272 0.960 . S
C1260 H1252 0.929 . S
C1260 C1261 1.377 . S
C1260 C1262 1.384 . S
C1261 C1260 1.377 . S
C1261 C1267 1.390 . S
C1262 H1253 0.930 . S
C1262 C1260 1.384 . S
C1262 C1263 1.372 . S
C1263 C1262 1.372 . S
C1263 C1264 1.400 . S
C1263 C1268 1.490 . S
C1264 H1254 0.930 . S
C1264 C1263 1.400 . S
C1264 C1267 1.386 . S
H1265 C1281 0.930 . S
H1266 C1282 0.931 . S
C1267 H1255 0.929 . S
C1267 C1261 1.390 . S
C1267 C1264 1.386 . S
C1268 C1263 1.490 . S
C1268 C1270 1.395 . S
C1268 C1271 1.403 . S
H1269 C1275 0.930 . S
C1270 H1256 0.930 . S
C1270 C1268 1.395 . S
C1270 C1273 1.403 . S
C1271 C1268 1.403 . S
C1271 C1272 1.524 . S
C1271 C1275 1.400 . S
C1272 H1257 0.960 . S
C1272 H1258 0.960 . S
C1272 H1259 0.960 . S
C1272 C1271 1.524 . S
C1273 C1270 1.403 . S
C1273 C1274 1.392 . S
C1273 C1277 1.495 . S
C1274 C1273 1.392 . S
C1274 C1275 1.385 . S
C1274 C1276 1.478 . S
C1275 H1269 0.930 . S
C1275 C1271 1.400 . S
C1275 C1274 1.385 . S
C1276 C1274 1.478 . S
C1276 C1278 1.381 . S
C1276 C1282 1.383 . S
C1277 C1273 1.495 . S
C1277 H1283 0.959 . S
C1277 H1284 0.961 . S
C1277 H1285 0.960 . S
C1278 C1276 1.381 . S
C1278 C1279 1.394 . S
C1278 H1286 0.930 . S
C1279 C1278 1.394 . S
C1279 C1280 1.383 . S
C1279 H1287 0.929 . S
C1280 C1279 1.383 . S
C1280 C1281 1.377 . S
C1281 H1265 0.930 . S
C1281 C1280 1.377 . S
C1281 C1282 1.379 . S
C1282 H1266 0.931 . S
C1282 C1276 1.383 . S
C1282 C1281 1.379 . S
H1283 C1277 0.959 . S
H1284 C1277 0.961 . S
H1285 C1277 0.960 . S
H1286 C1278 0.930 . S
H1287 C1279 0.929 . S
H1288 C1296 0.929 . S
H1289 C1298 0.930 . S
H1290 C1300 0.930 . S
H1291 C1303 0.929 . S
H1292 C1306 0.930 . S
H1293 C1308 0.960 . S
H1294 C1308 0.960 . S
H1295 C1308 0.960 . S
C1296 H1288 0.929 . S
C1296 C1297 1.377 . S
C1296 C1298 1.384 . S
C1297 C1296 1.377 . S
C1297 C1303 1.390 . S
C1298 H1289 0.930 . S
C1298 C1296 1.384 . S
C1298 C1299 1.372 . S
C1299 C1298 1.372 . S
C1299 C1300 1.400 . S
C1299 C1304 1.490 . S
C1300 H1290 0.930 . S
C1300 C1299 1.400 . S
C1300 C1303 1.386 . S
H1301 C1317 0.930 . S
H1302 C1318 0.931 . S
C1303 H1291 0.929 . S
C1303 C1297 1.390 . S
C1303 C1300 1.386 . S
C1304 C1299 1.490 . S
C1304 C1306 1.395 . S
C1304 C1307 1.403 . S
H1305 C1311 0.930 . S
C1306 H1292 0.930 . S
C1306 C1304 1.395 . S
C1306 C1309 1.403 . S
C1307 C1304 1.403 . S
C1307 C1308 1.524 . S
C1307 C1311 1.400 . S
C1308 H1293 0.960 . S
C1308 H1294 0.960 . S
C1308 H1295 0.960 . S
C1308 C1307 1.524 . S
C1309 C1306 1.403 . S
C1309 C1310 1.392 . S
C1309 C1313 1.495 . S
C1310 C1309 1.392 . S
C1310 C1311 1.385 . S
C1310 C1312 1.478 . S
C1311 H1305 0.930 . S
C1311 C1307 1.400 . S
C1311 C1310 1.385 . S
C1312 C1310 1.478 . S
C1312 C1314 1.381 . S
C1312 C1318 1.383 . S
C1313 C1309 1.495 . S
C1313 H1319 0.959 . S
C1313 H1320 0.961 . S
C1313 H1321 0.960 . S
C1314 C1312 1.381 . S
C1314 C1315 1.394 . S
C1314 H1322 0.930 . S
C1315 C1314 1.394 . S
C1315 C1316 1.383 . S
C1315 H1323 0.929 . S
C1316 C1315 1.383 . S
C1316 C1317 1.377 . S
C1317 H1301 0.930 . S
C1317 C1316 1.377 . S
C1317 C1318 1.379 . S
C1318 H1302 0.931 . S
C1318 C1312 1.383 . S
C1318 C1317 1.379 . S
H1319 C1313 0.959 . S
H1320 C1313 0.961 . S
H1321 C1313 0.960 . S
H1322 C1314 0.930 . S
H1323 C1315 0.929 . S
H1324 C1332 0.929 . S
H1325 C1334 0.930 . S
H1326 C1336 0.930 . S
H1327 C1339 0.929 . S
H1328 C1342 0.930 . S
H1329 C1344 0.960 . S
H1330 C1344 0.960 . S
H1331 C1344 0.960 . S
C1332 H1324 0.929 . S
C1332 C1333 1.377 . S
C1332 C1334 1.384 . S
C1333 C1332 1.377 . S
C1333 C1339 1.390 . S
C1334 H1325 0.930 . S
C1334 C1332 1.384 . S
C1334 C1335 1.372 . S
C1335 C1334 1.372 . S
C1335 C1336 1.400 . S
C1335 C1340 1.490 . S
C1336 H1326 0.930 . S
C1336 C1335 1.400 . S
C1336 C1339 1.386 . S
H1337 C1353 0.930 . S
H1338 C1354 0.931 . S
C1339 H1327 0.929 . S
C1339 C1333 1.390 . S
C1339 C1336 1.386 . S
C1340 C1335 1.490 . S
C1340 C1342 1.395 . S
C1340 C1343 1.403 . S
H1341 C1347 0.930 . S
C1342 H1328 0.930 . S
C1342 C1340 1.395 . S
C1342 C1345 1.403 . S
C1343 C1340 1.403 . S
C1343 C1344 1.524 . S
C1343 C1347 1.400 . S
C1344 H1329 0.960 . S
C1344 H1330 0.960 . S
C1344 H1331 0.960 . S
C1344 C1343 1.524 . S
C1345 C1342 1.403 . S
C1345 C1346 1.392 . S
C1345 C1349 1.495 . S
C1346 C1345 1.392 . S
C1346 C1347 1.385 . S
C1346 C1348 1.478 . S
C1347 H1341 0.930 . S
C1347 C1343 1.400 . S
C1347 C1346 1.385 . S
C1348 C1346 1.478 . S
C1348 C1350 1.381 . S
C1348 C1354 1.383 . S
C1349 C1345 1.495 . S
C1349 H1355 0.959 . S
C1349 H1356 0.961 . S
C1349 H1357 0.960 . S
C1350 C1348 1.381 . S
C1350 C1351 1.394 . S
C1350 H1358 0.930 . S
C1351 C1350 1.394 . S
C1351 C1352 1.383 . S
C1351 H1359 0.929 . S
C1352 C1351 1.383 . S
C1352 C1353 1.377 . S
C1353 H1337 0.930 . S
C1353 C1352 1.377 . S
C1353 C1354 1.379 . S
C1354 H1338 0.931 . S
C1354 C1348 1.383 . S
C1354 C1353 1.379 . S
H1355 C1349 0.959 . S
H1356 C1349 0.961 . S
H1357 C1349 0.960 . S
H1358 C1350 0.930 . S
H1359 C1351 0.929 . S
C217 C153 1.527 . S
C236 C3 1.508 . S
C253 C16 1.510 . S
C272 C114 1.515 . S
C289 C29 1.521 . S
C308 C127 1.523 . S
C325 C140 1.511 . S
C344 C42 1.523 . S
C361 C55 1.522 . S
C380 C75 1.518 . S
C397 C68 1.514 . S
C416 C88 1.495 . S
C433 C101 1.527 . S
C452 C81 1.507 . S
C469 C62 1.509 . S
C488 C94 1.507 . S
C505 C49 1.526 . S
C524 C107 1.516 . S
C541 C120 1.511 . S
C560 C10 1.522 . S
C577 C23 1.527 . S
C596 C133 1.510 . S
C613 C146 1.513 . S
C632 C36 1.522 . S
C649 C159 1.518 . S
C668 C179 1.527 . S
C685 C172 1.512 . S
C704 C192 1.496 . S
C721 C205 1.527 . S
C740 C185 1.512 . S
C757 C166 1.514 . S
C776 C198 1.497 . S
C793 C53 1.514 . S
C812 C1 1.505 . S
C829 C14 1.503 . S
C848 C66 1.511 . S
C865 C27 1.512 . S
C884 C79 1.513 . S
C901 C92 1.500 . S
C920 C40 1.506 . S
C937 C105 1.512 . S
C956 C157 1.514 . S
C973 C170 1.503 . S
C992 C118 1.512 . S
C1009 C131 1.512 . S
C1028 C183 1.515 . S
C1045 C196 1.503 . S
C1064 C144 1.489 . S
C1081 C187 1.523 . S
C1100 C5 1.504 . S
C1117 C200 1.549 . S
C1136 C18 1.543 . S
C1153 C31 1.522 . S
C1172 C161 1.503 . S
C1189 C174 1.551 . S
C1208 C44 1.551 . S
C1225 C135 1.528 . S
C1244 C57 1.539 . S
C1261 C148 1.549 . S
C1280 C70 1.546 . S
C1297 C83 1.529 . S
C1316 C109 1.535 . S
C1333 C122 1.549 . S
C1352 C96 1.543 . S
