# Generated by pormake.
# Topology uoj, (4)-cn, num edge types: 1
# Building blocks:
#     Node 0, Type 0, BuildingBlock: QUQFOY_clean_sbu_3, # of connection points: 4
#     Node 1, Type 0, BuildingBlock: QUQFOY_clean_sbu_3, # of connection points: 4
#     Node 2, Type 0, BuildingBlock: QUQFOY_clean_sbu_3, # of connection points: 4
#     Node 3, Type 0, BuildingBlock: QUQFOY_clean_sbu_3, # of connection points: 4
#     Node 4, Type 0, BuildingBlock: QUQFOY_clean_sbu_3, # of connection points: 4
#     Node 5, Type 0, BuildingBlock: QUQFOY_clean_sbu_3, # of connection points: 4
#     Node 6, Type 0, BuildingBlock: QUQFOY_clean_sbu_3, # of connection points: 4
#     Node 7, Type 0, BuildingBlock: QUQFOY_clean_sbu_3, # of connection points: 4
#     Edge 8, Type (0, 0), BuildingBlock: AJUNOK_clean_linker_0, # of connection points: 2
#     Edge 9, Type (0, 0), BuildingBlock: AJUNOK_clean_linker_0, # of connection points: 2
#     Edge 10, Type (0, 0), BuildingBlock: AJUNOK_clean_linker_0, # of connection points: 2
#     Edge 11, Type (0, 0), BuildingBlock: AJUNOK_clean_linker_0, # of connection points: 2
#     Edge 12, Type (0, 0), BuildingBlock: AJUNOK_clean_linker_0, # of connection points: 2
#     Edge 13, Type (0, 0), BuildingBlock: AJUNOK_clean_linker_0, # of connection points: 2
#     Edge 14, Type (0, 0), BuildingBlock: AJUNOK_clean_linker_0, # of connection points: 2
#     Edge 15, Type (0, 0), BuildingBlock: AJUNOK_clean_linker_0, # of connection points: 2
#     Edge 16, Type (0, 0), BuildingBlock: AJUNOK_clean_linker_0, # of connection points: 2
#     Edge 17, Type (0, 0), BuildingBlock: AJUNOK_clean_linker_0, # of connection points: 2
#     Edge 18, Type (0, 0), BuildingBlock: AJUNOK_clean_linker_0, # of connection points: 2
#     Edge 19, Type (0, 0), BuildingBlock: AJUNOK_clean_linker_0, # of connection points: 2
#     Edge 20, Type (0, 0), BuildingBlock: AJUNOK_clean_linker_0, # of connection points: 2
#     Edge 21, Type (0, 0), BuildingBlock: AJUNOK_clean_linker_0, # of connection points: 2
#     Edge 22, Type (0, 0), BuildingBlock: AJUNOK_clean_linker_0, # of connection points: 2
#     Edge 23, Type (0, 0), BuildingBlock: AJUNOK_clean_linker_0, # of connection points: 2
# Relax obj value: 0.109
# Max RMSD: 0.138
# Mean RMSD: 0.137
data_MOF--net-uoj--node1-QUQFOY_clean_sbu_3--edge1-AJUNOK_clean_linker_0
_symmetry_space_group_name_H-M    P1
_symmetry_Int_Tables_number       1
_symmetry_cell_setting            triclinic
loop_
_symmetry_equiv_pos_as_xyz
'x, y, z'
_cell_length_a     25.432661
_cell_length_b     25.377692
_cell_length_c     27.078853
_cell_angle_alpha  90.116028
_cell_angle_beta   90.060299
_cell_angle_gamma 91.744164
loop_
_atom_site_label
_atom_site_type_symbol
_atom_site_fract_x
_atom_site_fract_y
_atom_site_fract_z
_atom_type_partial_charge
C0 C 0.06634 0.31856 0.334 0.0
O1 O 0.0163 0.31806 0.33201 0.0
Cd2 Cd 0.95735 0.30314 0.39668 0.0
O3 O 0.0914 0.30779 0.37376 0.0
Cd4 Cd 0.07946 0.27664 0.46298 0.0
C5 C 0.03298 0.37845 0.48094 0.0
O6 O 0.00092 0.23208 0.42992 0.0
O7 O 0.00423 0.23351 0.50874 0.0
O8 O 0.14829 0.21943 0.43808 0.0
C9 C 0.97898 0.22008 0.47007 0.0
O10 O 0.01342 0.34299 0.45381 0.0
C11 C 0.1589 0.20338 0.48114 0.0
O12 O 0.07552 0.36806 0.50285 0.0
O13 O 0.13705 0.22676 0.51682 0.0
C14 C 0.20276 0.81164 0.47371 0.0
O15 O 0.22846 0.82122 0.43446 0.0
Cd16 Cd 0.29903 0.88938 0.43639 0.0
O17 O 0.21666 0.83291 0.514 0.0
Cd18 Cd 0.2844 0.88818 0.54757 0.0
C19 C 0.23458 -0.00928 0.49192 0.0
O20 O 0.36639 0.89167 0.49934 0.0
O21 O 0.34185 0.95985 0.54147 0.0
O22 O 0.31556 0.83014 0.6116 0.0
C23 C 0.37688 0.93801 0.51623 0.0
O24 O 0.25769 0.97294 0.45384 0.0
C25 C 0.29828 0.858 0.64672 0.0
O26 O 0.23172 0.96371 0.53147 0.0
O27 O 0.2732 0.89863 0.63503 0.0
C28 C 0.89602 0.65738 0.32787 0.0
O29 O 0.94575 0.66025 0.32304 0.0
Cd30 Cd 0.00476 0.66379 0.38946 0.0
O31 O 0.87426 0.66161 0.37027 0.0
Cd32 Cd 0.88873 0.68423 0.46028 0.0
C33 C 0.93088 0.57637 0.47202 0.0
O34 O 0.96872 0.72997 0.43556 0.0
O35 O 0.96329 0.71429 0.51359 0.0
O36 O 0.82681 0.74491 0.43136 0.0
C37 C -0.01074 0.73371 0.47776 0.0
O38 O 0.95648 0.60676 0.44337 0.0
C39 C 0.81378 0.76279 0.47305 0.0
O40 O 0.88891 0.59239 0.49174 0.0
O41 O 0.8298 0.73831 0.5109 0.0
C42 C 0.76023 0.15186 0.47597 0.0
O43 O 0.73299 0.14544 0.4371 0.0
Cd44 Cd 0.66759 0.07586 0.43361 0.0
O45 O 0.74713 0.12743 0.51508 0.0
Cd46 Cd 0.6742 0.07036 0.5418 0.0
C47 C 0.73028 0.97193 0.48976 0.0
O48 O 0.5964 0.08359 0.49013 0.0
O49 O 0.61143 0.00433 0.51508 0.0
O50 O 0.64786 0.13058 0.60666 0.0
C51 C 0.58011 0.03619 0.4959 0.0
O52 O 0.71104 -0.00732 0.45113 0.0
C53 C 0.65224 0.0975 0.64138 0.0
O54 O 0.72689 -0.00563 0.53157 0.0
O55 O 0.66722 0.0519 0.62963 0.0
C56 C 0.32054 0.70276 0.02104 0.0
O57 O 0.33754 0.72558 0.05989 0.0
Cd58 Cd 0.39768 0.80124 0.06073 0.0
O59 O 0.33294 0.72037 0.97882 0.0
Cd60 Cd 0.38765 0.79103 0.94622 0.0
C61 C 0.49853 0.7476 -0.0061 0.0
O62 O 0.38356 0.86832 0.00118 0.0
O63 O 0.45351 0.85688 0.95667 0.0
O64 O 0.32852 0.82658 0.88583 0.0
C65 C 0.42847 0.88539 0.98635 0.0
O66 O 0.48229 0.7683 0.03382 0.0
C67 C 0.35286 0.80893 0.84872 0.0
O68 O 0.46864 0.74338 0.95617 0.0
O69 O 0.39288 0.78157 0.8571 0.0
C70 C 0.79302 0.5802 0.15382 0.0
O71 O 0.78126 0.53202 0.16171 0.0
Cd72 Cd 0.76911 0.46755 0.09964 0.0
O73 O 0.79372 0.59939 0.11027 0.0
Cd74 Cd 0.76474 0.57423 0.02481 0.0
C75 C 0.87241 0.50549 0.0165 0.0
O76 O 0.70598 0.50693 0.05297 0.0
O77 O 0.72729 0.49849 0.97706 0.0
O78 O 0.71551 0.65061 0.04153 0.0
C79 C 0.70273 0.47975 0.01408 0.0
O80 O 0.84771 0.47571 0.0472 0.0
C81 C 0.70425 0.66133 -0.00279 0.0
O82 O 0.85395 0.54948 0.00285 0.0
O83 O 0.72598 0.63429 0.96371 0.0
C84 C 0.64656 0.25845 0.02279 0.0
O85 O 0.62596 0.23557 0.06003 0.0
Cd86 Cd 0.56359 0.1616 0.05814 0.0
O87 O 0.6365 0.24192 0.97948 0.0
Cd88 Cd 0.5786 0.17623 0.94192 0.0
C89 C 0.46941 0.22347 0.99046 0.0
O90 O 0.57788 0.09872 -0.00473 0.0
O91 O 0.50931 0.11273 0.94969 0.0
O92 O 0.63166 0.13476 0.87974 0.0
C93 C 0.53285 0.08305 0.97947 0.0
O94 O 0.4814 0.19847 0.02948 0.0
C95 C 0.6103 0.15743 0.84349 0.0
O96 O 0.5011 0.22841 0.95422 0.0
O97 O 0.57585 0.19116 0.85299 0.0
C98 C 0.16656 0.39779 0.1572 0.0
O99 O 0.17363 0.4475 0.15763 0.0
Cd100 Cd 0.19224 0.50242 0.08963 0.0
O101 O 0.17133 0.37098 0.11761 0.0
Cd102 Cd 0.19939 0.38954 0.03054 0.0
C103 C 0.08872 0.45339 0.01414 0.0
O104 O 0.25959 0.45867 0.05124 0.0
O105 O 0.23054 0.46382 0.97732 0.0
O106 O 0.25772 0.31975 0.04652 0.0
C107 C 0.26076 0.48268 0.0106 0.0
O108 O 0.11319 0.48947 0.0387 0.0
C109 C 0.26346 0.30625 0.00188 0.0
O110 O 0.10861 0.40826 0.00753 0.0
O111 O 0.2339 0.32721 0.97001 0.0
C112 C 0.09645 0.39586 0.21897 0.0
C113 C 0.14253 0.37375 0.20113 0.0
C114 C 0.07268 0.37738 0.26203 0.0
C115 C 0.09463 0.33669 0.28958 0.0
H116 H 0.07847 0.42787 0.19932 0.0
H117 H 0.03699 0.39572 0.27419 0.0
S118 S 0.21487 0.2648 0.25806 0.0
N119 N 0.20915 0.30819 0.21301 0.0
N120 N 0.16476 0.27386 0.29572 0.0
C121 C 0.14088 0.31393 0.27229 0.0
C122 C 0.1647 0.33224 0.22742 0.0
C123 C 0.3354 0.79866 0.71038 0.0
C124 C 0.3092 0.8451 0.69879 0.0
C125 C 0.34903 0.787 0.75912 0.0
C126 C 0.33647 0.8211 0.798 0.0
H127 H 0.34607 0.7713 0.68158 0.0
H128 H 0.36953 0.75102 0.76638 0.0
S129 S 0.27015 0.94878 0.78735 0.0
N130 N 0.2725 0.92612 0.73026 0.0
N131 N 0.29776 0.90379 0.82189 0.0
C132 C 0.31007 0.86749 0.78709 0.0
C133 C 0.29652 0.8796 0.73745 0.0
C134 C 0.88731 0.65436 0.23626 0.0
C135 C 0.86378 0.64774 0.28308 0.0
C136 C 0.86167 0.637 0.19327 0.0
C137 C 0.81192 0.61199 0.1958 0.0
H138 H 0.92696 0.67078 0.23285 0.0
H139 H 0.8826 0.63945 0.15848 0.0
S140 S 0.72825 0.59544 0.30686 0.0
N141 N 0.78382 0.62248 0.32787 0.0
N142 N 0.73619 0.58893 0.24665 0.0
C143 C 0.78578 0.60965 0.24137 0.0
C144 C 0.81155 0.62788 0.28521 0.0
C145 C 0.62923 0.18008 0.75571 0.0
C146 C 0.62171 0.1418 0.79253 0.0
C147 C 0.63912 0.16535 0.70679 0.0
C148 C 0.64111 0.11186 0.6931 0.0
H149 H 0.62804 0.2216 0.76491 0.0
H150 H 0.64559 0.19613 0.67961 0.0
S151 S 0.61685 -0.00317 0.77535 0.0
N152 N 0.61276 0.04861 0.81201 0.0
N153 N 0.63032 0.02065 0.71993 0.0
C154 C 0.63209 0.07327 0.72958 0.0
C155 C 0.62263 0.08833 0.77938 0.0
C156 C 0.22079 0.07522 0.44763 0.0
C157 C 0.21641 0.04566 0.49142 0.0
C158 C 0.2059 0.12769 0.44586 0.0
C159 C 0.18571 0.15296 0.48771 0.0
H160 H 0.23531 0.05766 0.41401 0.0
H161 H 0.20846 0.14793 0.41072 0.0
S162 S 0.17055 0.09492 0.61287 0.0
N163 N 0.19372 0.04686 0.57884 0.0
N164 N 0.16542 0.14566 0.57531 0.0
C165 C 0.18323 0.12479 0.53242 0.0
C166 C 0.19835 0.07107 0.53425 0.0
C167 C 0.10834 0.82272 0.48487 0.0
C168 C 0.14919 0.78922 0.47196 0.0
C169 C 0.05666 0.80352 0.4895 0.0
C170 C 0.04442 0.75007 0.48215 0.0
H171 H 0.11651 0.86434 0.49139 0.0
H172 H 0.02593 0.83085 0.49777 0.0
S173 S 0.13723 0.64522 0.45083 0.0
N174 N 0.17445 0.69978 0.45329 0.0
N175 N 0.07672 0.66297 0.46358 0.0
C176 C 0.08487 0.71564 0.47036 0.0
C177 C 0.13761 0.73544 0.46479 0.0
C178 C 0.74676 0.88272 0.52463 0.0
C179 C 0.75327 0.91952 0.48608 0.0
C180 C 0.76506 0.83129 0.51996 0.0
C181 C 0.7902 0.81513 0.47653 0.0
H182 H 0.7266 0.89342 0.55824 0.0
H183 H 0.75951 0.80412 0.55044 0.0
S184 S 0.82234 0.89913 0.36754 0.0
N185 N 0.79004 0.93785 0.40509 0.0
N186 N 0.82435 0.84175 0.39588 0.0
C187 C 0.79784 0.85219 0.43822 0.0
C188 C 0.77943 0.90428 0.44313 0.0
C189 C 0.84198 0.18602 0.51763 0.0
C190 C 0.81252 0.17888 0.47388 0.0
C191 C 0.89572 0.19965 0.51622 0.0
C192 C 0.92211 0.20611 0.47101 0.0
H193 H 0.82392 0.17907 0.55333 0.0
H194 H 0.91689 0.2039 0.5508 0.0
S195 S 0.86161 0.19732 0.34586 0.0
N196 N 0.81247 0.18517 0.38424 0.0
N197 N 0.91387 0.20694 0.38117 0.0
C198 C 0.89257 0.20116 0.42697 0.0
C199 C 0.8376 0.18893 0.42853 0.0
C200 C 0.24874 0.57619 0.98522 0.0
C201 C 0.27777 0.53851 0.01072 0.0
C202 C 0.26033 0.63024 0.9911 0.0
C203 C 0.30048 0.64805 0.02335 0.0
H204 H 0.21646 0.56398 0.96126 0.0
H205 H 0.23837 0.65824 0.96982 0.0
S206 S 0.39018 0.56505 0.09528 0.0
N207 N 0.3501 0.52256 0.06681 0.0
N208 N 0.3708 0.62398 0.07891 0.0
C209 C 0.32952 0.61072 0.04896 0.0
C210 C 0.31854 0.55597 0.04221 0.0
C211 C 0.62033 0.67615 0.95301 0.0
C212 C 0.65835 0.69379 0.98751 0.0
C213 C 0.56889 0.69463 0.95448 0.0
C214 C 0.55381 0.73117 0.99062 0.0
H215 H 0.62912 0.64499 0.92717 0.0
H216 H 0.5402 0.67829 0.92863 0.0
S217 S 0.64192 0.79628 0.08343 0.0
N218 N 0.67978 0.75477 0.05418 0.0
N219 N 0.58334 0.78933 0.05749 0.0
C220 C 0.59275 0.75193 0.02285 0.0
C221 C 0.64501 0.73343 0.02101 0.0
C222 C 0.71107 0.38711 0.9841 0.0
C223 C 0.68998 0.42279 0.01799 0.0
C224 C 0.70124 0.33277 0.98879 0.0
C225 C 0.67004 0.31213 0.02752 0.0
H226 H 0.73498 0.40116 0.95348 0.0
H227 H 0.7162 0.30687 0.96056 0.0
S228 S 0.60894 0.38881 0.12801 0.0
N229 N 0.63887 0.4336 0.09302 0.0
N230 N 0.62116 0.3315 0.10226 0.0
C231 C 0.65135 0.34719 0.06325 0.0
C232 C 0.66081 0.40252 0.05816 0.0
C233 C 0.37238 0.21011 0.992 0.0
C234 C 0.41656 0.24432 0.98638 0.0
C235 C 0.32139 0.22963 0.99283 0.0
C236 C 0.31351 0.28377 0.98782 0.0
H237 H 0.37746 0.16824 -0.00284 0.0
H238 H 0.28833 0.20273 -0.00028 0.0
S239 S 0.41643 0.3895 0.97474 0.0
N240 N 0.4494 0.33443 0.9766 0.0
N241 N 0.35361 0.37136 0.97843 0.0
C242 C 0.35735 0.31809 0.98105 0.0
C243 C 0.40905 0.29827 0.98017 0.0
C244 C 0.96797 0.50366 0.52206 0.0
C245 C 0.94941 0.52272 0.47672 0.0
C246 C -0.00236 0.45772 0.52376 0.0
C247 C 0.00935 0.43039 0.4801 0.0
H248 H 0.9611 0.52525 0.55588 0.0
H249 H 0.01072 0.44317 0.55914 0.0
S250 S 0.97072 0.46585 0.35253 0.0
N251 N 0.94481 0.51132 0.38781 0.0
N252 N 0.0013 0.42643 0.39065 0.0
C253 C -0.00902 0.44954 0.43484 0.0
C254 C 0.96067 0.49532 0.43326 0.0
C255 C 0.51053 0.97564 0.46352 0.0
C256 C 0.52499 0.02018 0.49185 0.0
C257 C 0.46167 0.94979 0.47037 0.0
C258 C 0.42664 0.96728 0.50652 0.0
H259 H 0.53818 0.9593 0.43766 0.0
H260 H 0.45209 0.91503 0.44848 0.0
S261 S 0.44835 0.08191 0.59101 0.0
N262 N 0.50169 0.08115 0.55647 0.0
N263 N 0.4104 0.03246 0.57096 0.0
C264 C 0.44053 0.01299 0.53407 0.0
C265 C 0.48968 0.03958 0.52627 0.0
C266 C 0.45078 0.03061 -0.00473 0.0
C267 C 0.50618 0.03448 -0.0032 0.0
C268 C 0.42426 0.98166 -0.00153 0.0
C269 C 0.45267 0.93551 0.00253 0.0
H270 H 0.42797 0.06516 0.98809 0.0
H271 H 0.38208 0.97959 0.99265 0.0
S272 S 0.59675 0.92577 0.01951 0.0
N273 N 0.58751 -0.01063 0.01185 0.0
N274 N 0.53769 0.89695 0.01704 0.0
C275 C 0.50736 0.93952 0.01018 0.0
C276 C 0.53426 -0.01066 0.00755 0.0
C277 C 0.01846 0.51584 0.99312 0.0
C278 C 0.03373 0.46337 -0.00019 0.0
C279 C 0.96535 0.52904 -0.00628 0.0
C280 C 0.92577 0.4902 0.00155 0.0
H281 H 0.04793 0.54747 0.99071 0.0
H282 H 0.95572 0.57029 0.99213 0.0
S283 S 0.94398 0.34592 0.01004 0.0
N284 N 0.00434 0.37151 0.00624 0.0
N285 N 0.90452 0.39628 0.00722 0.0
C286 C 0.94013 0.43704 0.00268 0.0
C287 C -0.00582 0.42356 0.00176 0.0
loop_
_geom_bond_atom_site_label_1
_geom_bond_atom_site_label_2
_geom_bond_distance
_geom_bond_site_symmetry_2
_ccdc_geom_bond_type
C0 O1 1.306 . S
C0 O3 1.160 . S
O1 C0 1.306 . S
O1 Cd2 2.228 1_455 S
Cd2 O1 2.228 1_655 S
Cd2 O6 2.273 1_655 S
Cd2 O10 2.277 1_655 S
O3 C0 1.160 . S
O3 Cd4 2.203 . S
Cd4 O3 2.203 . S
Cd4 O6 2.411 . S
Cd4 O7 2.333 . S
Cd4 O8 2.352 . S
Cd4 O12 2.277 . S
Cd4 O13 2.356 . S
C5 O10 1.209 . S
C5 O12 1.226 . S
O6 Cd2 2.273 1_455 S
O6 Cd4 2.411 . S
O6 C9 1.320 1_455 S
O7 Cd4 2.333 . S
O7 C9 1.214 1_455 S
O8 Cd4 2.352 . S
O8 C11 1.258 . S
C9 O6 1.320 1_655 S
C9 O7 1.214 1_655 S
O10 Cd2 2.277 1_455 S
O10 C5 1.209 . S
C11 O8 1.258 . S
C11 O13 1.282 . S
O12 Cd4 2.277 . S
O12 C5 1.226 . S
O13 Cd4 2.356 . S
O13 C11 1.282 . S
C14 O15 1.306 . S
C14 O17 1.160 . S
O15 C14 1.306 . S
O15 Cd16 2.228 . S
Cd16 O15 2.228 . S
Cd16 O20 2.273 . S
Cd16 O24 2.277 . S
O17 C14 1.160 . S
O17 Cd18 2.203 . S
Cd18 O17 2.203 . S
Cd18 O20 2.411 . S
Cd18 O21 2.333 . S
Cd18 O22 2.352 . S
Cd18 O26 2.277 1_565 S
Cd18 O27 2.356 . S
C19 O24 1.209 1_545 S
C19 O26 1.226 . S
O20 Cd16 2.273 . S
O20 Cd18 2.411 . S
O20 C23 1.320 . S
O21 Cd18 2.333 . S
O21 C23 1.214 . S
O22 Cd18 2.352 . S
O22 C25 1.258 . S
C23 O20 1.320 . S
C23 O21 1.214 . S
O24 Cd16 2.277 . S
O24 C19 1.209 1_565 S
C25 O22 1.258 . S
C25 O27 1.282 . S
O26 Cd18 2.277 1_545 S
O26 C19 1.226 . S
O27 Cd18 2.356 . S
O27 C25 1.282 . S
C28 O29 1.306 . S
C28 O31 1.160 . S
O29 C28 1.306 . S
O29 Cd30 2.228 1_655 S
Cd30 O29 2.228 1_455 S
Cd30 O34 2.273 1_455 S
Cd30 O38 2.277 1_455 S
O31 C28 1.160 . S
O31 Cd32 2.203 . S
Cd32 O31 2.203 . S
Cd32 O34 2.411 . S
Cd32 O35 2.333 . S
Cd32 O36 2.352 . S
Cd32 O40 2.277 . S
Cd32 O41 2.356 . S
C33 O38 1.209 . S
C33 O40 1.226 . S
O34 Cd30 2.273 1_655 S
O34 Cd32 2.411 . S
O34 C37 1.320 1_655 S
O35 Cd32 2.333 . S
O35 C37 1.214 1_655 S
O36 Cd32 2.352 . S
O36 C39 1.258 . S
C37 O34 1.320 1_455 S
C37 O35 1.214 1_455 S
O38 Cd30 2.277 1_655 S
O38 C33 1.209 . S
C39 O36 1.258 . S
C39 O41 1.282 . S
O40 Cd32 2.277 . S
O40 C33 1.226 . S
O41 Cd32 2.356 . S
O41 C39 1.282 . S
C42 O43 1.306 . S
C42 O45 1.160 . S
O43 C42 1.306 . S
O43 Cd44 2.228 . S
Cd44 O43 2.228 . S
Cd44 O48 2.273 . S
Cd44 O52 2.277 . S
O45 C42 1.160 . S
O45 Cd46 2.203 . S
Cd46 O45 2.203 . S
Cd46 O48 2.411 . S
Cd46 O49 2.333 . S
Cd46 O50 2.352 . S
Cd46 O54 2.277 1_545 S
Cd46 O55 2.356 . S
C47 O52 1.209 1_565 S
C47 O54 1.226 . S
O48 Cd44 2.273 . S
O48 Cd46 2.411 . S
O48 C51 1.320 . S
O49 Cd46 2.333 . S
O49 C51 1.214 . S
O50 Cd46 2.352 . S
O50 C53 1.258 . S
C51 O48 1.320 . S
C51 O49 1.214 . S
O52 Cd44 2.277 . S
O52 C47 1.209 1_545 S
C53 O50 1.258 . S
C53 O55 1.282 . S
O54 Cd46 2.277 1_565 S
O54 C47 1.226 . S
O55 Cd46 2.356 . S
O55 C53 1.282 . S
C56 O57 1.306 . S
C56 O59 1.160 1_554 S
O57 C56 1.306 . S
O57 Cd58 2.228 . S
Cd58 O57 2.228 . S
Cd58 O62 2.273 . S
Cd58 O66 2.277 . S
O59 C56 1.160 1_556 S
O59 Cd60 2.203 . S
Cd60 O59 2.203 . S
Cd60 O62 2.411 1_556 S
Cd60 O63 2.333 . S
Cd60 O64 2.352 . S
Cd60 O68 2.277 . S
Cd60 O69 2.356 . S
C61 O66 1.209 1_556 S
C61 O68 1.226 . S
O62 Cd58 2.273 . S
O62 Cd60 2.411 1_554 S
O62 C65 1.320 1_554 S
O63 Cd60 2.333 . S
O63 C65 1.214 . S
O64 Cd60 2.352 . S
O64 C67 1.258 . S
C65 O62 1.320 1_556 S
C65 O63 1.214 . S
O66 Cd58 2.277 . S
O66 C61 1.209 1_554 S
C67 O64 1.258 . S
C67 O69 1.282 . S
O68 Cd60 2.277 . S
O68 C61 1.226 . S
O69 Cd60 2.356 . S
O69 C67 1.282 . S
C70 O71 1.306 . S
C70 O73 1.160 . S
O71 C70 1.306 . S
O71 Cd72 2.228 . S
Cd72 O71 2.228 . S
Cd72 O76 2.273 . S
Cd72 O80 2.277 . S
O73 C70 1.160 . S
O73 Cd74 2.203 . S
Cd74 O73 2.203 . S
Cd74 O76 2.411 . S
Cd74 O77 2.333 1_554 S
Cd74 O78 2.352 . S
Cd74 O82 2.277 . S
Cd74 O83 2.356 1_554 S
C75 O80 1.209 . S
C75 O82 1.226 . S
O76 Cd72 2.273 . S
O76 Cd74 2.411 . S
O76 C79 1.320 . S
O77 Cd74 2.333 1_556 S
O77 C79 1.214 1_556 S
O78 Cd74 2.352 . S
O78 C81 1.258 . S
C79 O76 1.320 . S
C79 O77 1.214 1_554 S
O80 Cd72 2.277 . S
O80 C75 1.209 . S
C81 O78 1.258 . S
C81 O83 1.282 1_554 S
O82 Cd74 2.277 . S
O82 C75 1.226 . S
O83 Cd74 2.356 1_556 S
O83 C81 1.282 1_556 S
C84 O85 1.306 . S
C84 O87 1.160 1_554 S
O85 C84 1.306 . S
O85 Cd86 2.228 . S
Cd86 O85 2.228 . S
Cd86 O90 2.273 . S
Cd86 O94 2.277 . S
O87 C84 1.160 1_556 S
O87 Cd88 2.203 . S
Cd88 O87 2.203 . S
Cd88 O90 2.411 1_556 S
Cd88 O91 2.333 . S
Cd88 O92 2.352 . S
Cd88 O96 2.277 . S
Cd88 O97 2.356 . S
C89 O94 1.209 1_556 S
C89 O96 1.226 . S
O90 Cd86 2.273 . S
O90 Cd88 2.411 1_554 S
O90 C93 1.320 1_554 S
O91 Cd88 2.333 . S
O91 C93 1.214 . S
O92 Cd88 2.352 . S
O92 C95 1.258 . S
C93 O90 1.320 1_556 S
C93 O91 1.214 . S
O94 Cd86 2.277 . S
O94 C89 1.209 1_554 S
C95 O92 1.258 . S
C95 O97 1.282 . S
O96 Cd88 2.277 . S
O96 C89 1.226 . S
O97 Cd88 2.356 . S
O97 C95 1.282 . S
C98 O99 1.306 . S
C98 O101 1.160 . S
O99 C98 1.306 . S
O99 Cd100 2.228 . S
Cd100 O99 2.228 . S
Cd100 O104 2.273 . S
Cd100 O108 2.277 . S
O101 C98 1.160 . S
O101 Cd102 2.203 . S
Cd102 O101 2.203 . S
Cd102 O104 2.411 . S
Cd102 O105 2.333 1_554 S
Cd102 O106 2.352 . S
Cd102 O110 2.277 . S
Cd102 O111 2.356 1_554 S
C103 O108 1.209 . S
C103 O110 1.226 . S
O104 Cd100 2.273 . S
O104 Cd102 2.411 . S
O104 C107 1.320 . S
O105 Cd102 2.333 1_556 S
O105 C107 1.214 1_556 S
O106 Cd102 2.352 . S
O106 C109 1.258 . S
C107 O104 1.320 . S
C107 O105 1.214 1_554 S
O108 Cd100 2.277 . S
O108 C103 1.209 . S
C109 O106 1.258 . S
C109 O111 1.282 1_554 S
O110 Cd102 2.277 . S
O110 C103 1.226 . S
O111 Cd102 2.356 1_556 S
O111 C109 1.282 1_556 S
C112 C113 1.369 . S
C112 C114 1.419 . S
C112 H116 0.930 . S
C113 C112 1.369 . S
C113 C122 1.429 . S
C114 C112 1.419 . S
C114 C115 1.363 . S
C114 H117 0.929 . S
C115 C114 1.363 . S
C115 C121 1.428 . S
H116 C112 0.930 . S
H117 C114 0.929 . S
S118 N119 1.613 . S
S118 N120 1.610 . S
N119 S118 1.613 . S
N119 C122 1.350 . S
N120 S118 1.610 . S
N120 C121 1.351 . S
C121 C115 1.428 . S
C121 N120 1.351 . S
C121 C122 1.434 . S
C122 C113 1.429 . S
C122 N119 1.350 . S
C122 C121 1.434 . S
C123 C124 1.369 . S
C123 C125 1.419 . S
C123 H127 0.930 . S
C124 C123 1.369 . S
C124 C133 1.429 . S
C125 C123 1.419 . S
C125 C126 1.363 . S
C125 H128 0.929 . S
C126 C125 1.363 . S
C126 C132 1.428 . S
H127 C123 0.930 . S
H128 C125 0.929 . S
S129 N130 1.613 . S
S129 N131 1.610 . S
N130 S129 1.613 . S
N130 C133 1.350 . S
N131 S129 1.610 . S
N131 C132 1.351 . S
C132 C126 1.428 . S
C132 N131 1.351 . S
C132 C133 1.434 . S
C133 C124 1.429 . S
C133 N130 1.350 . S
C133 C132 1.434 . S
C134 C135 1.369 . S
C134 C136 1.419 . S
C134 H138 0.930 . S
C135 C134 1.369 . S
C135 C144 1.429 . S
C136 C134 1.419 . S
C136 C137 1.363 . S
C136 H139 0.929 . S
C137 C136 1.363 . S
C137 C143 1.428 . S
H138 C134 0.930 . S
H139 C136 0.929 . S
S140 N141 1.613 . S
S140 N142 1.610 . S
N141 S140 1.613 . S
N141 C144 1.350 . S
N142 S140 1.610 . S
N142 C143 1.351 . S
C143 C137 1.428 . S
C143 N142 1.351 . S
C143 C144 1.434 . S
C144 C135 1.429 . S
C144 N141 1.350 . S
C144 C143 1.434 . S
C145 C146 1.369 . S
C145 C147 1.419 . S
C145 H149 0.930 . S
C146 C145 1.369 . S
C146 C155 1.429 . S
C147 C145 1.419 . S
C147 C148 1.363 . S
C147 H150 0.929 . S
C148 C147 1.363 . S
C148 C154 1.428 . S
H149 C145 0.930 . S
H150 C147 0.929 . S
S151 N152 1.613 . S
S151 N153 1.610 . S
N152 S151 1.613 . S
N152 C155 1.350 . S
N153 S151 1.610 . S
N153 C154 1.351 . S
C154 C148 1.428 . S
C154 N153 1.351 . S
C154 C155 1.434 . S
C155 C146 1.429 . S
C155 N152 1.350 . S
C155 C154 1.434 . S
C156 C157 1.369 . S
C156 C158 1.419 . S
C156 H160 0.930 . S
C157 C156 1.369 . S
C157 C166 1.429 . S
C158 C156 1.419 . S
C158 C159 1.363 . S
C158 H161 0.929 . S
C159 C158 1.363 . S
C159 C165 1.428 . S
H160 C156 0.930 . S
H161 C158 0.929 . S
S162 N163 1.613 . S
S162 N164 1.610 . S
N163 S162 1.613 . S
N163 C166 1.350 . S
N164 S162 1.610 . S
N164 C165 1.351 . S
C165 C159 1.428 . S
C165 N164 1.351 . S
C165 C166 1.434 . S
C166 C157 1.429 . S
C166 N163 1.350 . S
C166 C165 1.434 . S
C167 C168 1.369 . S
C167 C169 1.419 . S
C167 H171 0.930 . S
C168 C167 1.369 . S
C168 C177 1.429 . S
C169 C167 1.419 . S
C169 C170 1.363 . S
C169 H172 0.929 . S
C170 C169 1.363 . S
C170 C176 1.428 . S
H171 C167 0.930 . S
H172 C169 0.929 . S
S173 N174 1.613 . S
S173 N175 1.610 . S
N174 S173 1.613 . S
N174 C177 1.350 . S
N175 S173 1.610 . S
N175 C176 1.351 . S
C176 C170 1.428 . S
C176 N175 1.351 . S
C176 C177 1.434 . S
C177 C168 1.429 . S
C177 N174 1.350 . S
C177 C176 1.434 . S
C178 C179 1.369 . S
C178 C180 1.419 . S
C178 H182 0.930 . S
C179 C178 1.369 . S
C179 C188 1.429 . S
C180 C178 1.419 . S
C180 C181 1.363 . S
C180 H183 0.929 . S
C181 C180 1.363 . S
C181 C187 1.428 . S
H182 C178 0.930 . S
H183 C180 0.929 . S
S184 N185 1.613 . S
S184 N186 1.610 . S
N185 S184 1.613 . S
N185 C188 1.350 . S
N186 S184 1.610 . S
N186 C187 1.351 . S
C187 C181 1.428 . S
C187 N186 1.351 . S
C187 C188 1.434 . S
C188 C179 1.429 . S
C188 N185 1.350 . S
C188 C187 1.434 . S
C189 C190 1.369 . S
C189 C191 1.419 . S
C189 H193 0.930 . S
C190 C189 1.369 . S
C190 C199 1.429 . S
C191 C189 1.419 . S
C191 C192 1.363 . S
C191 H194 0.929 . S
C192 C191 1.363 . S
C192 C198 1.428 . S
H193 C189 0.930 . S
H194 C191 0.929 . S
S195 N196 1.613 . S
S195 N197 1.610 . S
N196 S195 1.613 . S
N196 C199 1.350 . S
N197 S195 1.610 . S
N197 C198 1.351 . S
C198 C192 1.428 . S
C198 N197 1.351 . S
C198 C199 1.434 . S
C199 C190 1.429 . S
C199 N196 1.350 . S
C199 C198 1.434 . S
C200 C201 1.369 1_556 S
C200 C202 1.419 . S
C200 H204 0.930 . S
C201 C200 1.369 1_554 S
C201 C210 1.429 . S
C202 C200 1.419 . S
C202 C203 1.363 1_556 S
C202 H205 0.929 . S
C203 C202 1.363 1_554 S
C203 C209 1.428 . S
H204 C200 0.930 . S
H205 C202 0.929 . S
S206 N207 1.613 . S
S206 N208 1.610 . S
N207 S206 1.613 . S
N207 C210 1.350 . S
N208 S206 1.610 . S
N208 C209 1.351 . S
C209 C203 1.428 . S
C209 N208 1.351 . S
C209 C210 1.434 . S
C210 C201 1.429 . S
C210 N207 1.350 . S
C210 C209 1.434 . S
C211 C212 1.369 1_556 S
C211 C213 1.419 . S
C211 H215 0.930 . S
C212 C211 1.369 1_554 S
C212 C221 1.429 . S
C213 C211 1.419 . S
C213 C214 1.363 1_556 S
C213 H216 0.929 . S
C214 C213 1.363 1_554 S
C214 C220 1.428 . S
H215 C211 0.930 . S
H216 C213 0.929 . S
S217 N218 1.613 . S
S217 N219 1.610 . S
N218 S217 1.613 . S
N218 C221 1.350 . S
N219 S217 1.610 . S
N219 C220 1.351 . S
C220 C214 1.428 . S
C220 N219 1.351 . S
C220 C221 1.434 . S
C221 C212 1.429 . S
C221 N218 1.350 . S
C221 C220 1.434 . S
C222 C223 1.369 1_556 S
C222 C224 1.419 . S
C222 H226 0.930 . S
C223 C222 1.369 1_554 S
C223 C232 1.429 . S
C224 C222 1.419 . S
C224 C225 1.363 1_556 S
C224 H227 0.929 . S
C225 C224 1.363 1_554 S
C225 C231 1.428 . S
H226 C222 0.930 . S
H227 C224 0.929 . S
S228 N229 1.613 . S
S228 N230 1.610 . S
N229 S228 1.613 . S
N229 C232 1.350 . S
N230 S228 1.610 . S
N230 C231 1.351 . S
C231 C225 1.428 . S
C231 N230 1.351 . S
C231 C232 1.434 . S
C232 C223 1.429 . S
C232 N229 1.350 . S
C232 C231 1.434 . S
C233 C234 1.369 . S
C233 C235 1.419 . S
C233 H237 0.930 1_554 S
C234 C233 1.369 . S
C234 C243 1.430 . S
C235 C233 1.419 . S
C235 C236 1.363 . S
C235 H238 0.929 . S
C236 C235 1.363 . S
C236 C242 1.428 . S
H237 C233 0.930 1_556 S
H238 C235 0.929 . S
S239 N240 1.613 . S
S239 N241 1.610 . S
N240 S239 1.613 . S
N240 C243 1.350 . S
N241 S239 1.610 . S
N241 C242 1.351 . S
C242 C236 1.428 . S
C242 N241 1.351 . S
C242 C243 1.434 . S
C243 C234 1.430 . S
C243 N240 1.350 . S
C243 C242 1.434 . S
C244 C245 1.369 . S
C244 C246 1.419 1_655 S
C244 H248 0.930 . S
C245 C244 1.369 . S
C245 C254 1.429 . S
C246 C244 1.419 1_455 S
C246 C247 1.363 . S
C246 H249 0.929 . S
C247 C246 1.363 . S
C247 C253 1.428 . S
H248 C244 0.930 . S
H249 C246 0.929 . S
S250 N251 1.613 . S
S250 N252 1.610 1_655 S
N251 S250 1.613 . S
N251 C254 1.350 . S
N252 S250 1.610 1_455 S
N252 C253 1.351 . S
C253 C247 1.428 . S
C253 N252 1.351 . S
C253 C254 1.434 1_455 S
C254 C245 1.429 . S
C254 N251 1.350 . S
C254 C253 1.434 1_655 S
C255 C256 1.369 1_565 S
C255 C257 1.419 . S
C255 H259 0.930 . S
C256 C255 1.369 1_545 S
C256 C265 1.429 . S
C257 C255 1.419 . S
C257 C258 1.363 . S
C257 H260 0.929 . S
C258 C257 1.363 . S
C258 C264 1.428 1_565 S
H259 C255 0.930 . S
H260 C257 0.929 . S
S261 N262 1.613 . S
S261 N263 1.610 . S
N262 S261 1.613 . S
N262 C265 1.350 . S
N263 S261 1.610 . S
N263 C264 1.351 . S
C264 C258 1.428 1_545 S
C264 N263 1.351 . S
C264 C265 1.434 . S
C265 C256 1.429 . S
C265 N262 1.350 . S
C265 C264 1.434 . S
C266 C267 1.369 . S
C266 C268 1.433 . S
C266 H270 0.930 . S
C267 C266 1.369 . S
C267 C276 1.429 1_546 S
C268 C266 1.433 . S
C268 C269 1.346 1_545 S
C268 H271 0.932 . S
C269 C268 1.346 1_565 S
C269 C275 1.428 1_556 S
H270 C266 0.930 . S
H271 C268 0.932 . S
S272 N273 1.613 . S
S272 N274 1.610 . S
N273 S272 1.613 . S
N273 C276 1.350 . S
N274 S272 1.610 . S
N274 C275 1.351 . S
C275 C269 1.428 1_554 S
C275 N274 1.351 . S
C275 C276 1.434 . S
C276 C267 1.429 1_564 S
C276 N273 1.350 . S
C276 C275 1.434 . S
C277 C278 1.369 . S
C277 C279 1.419 . S
C277 H281 0.930 . S
C278 C277 1.369 . S
C278 C287 1.429 1_455 S
C279 C277 1.419 . S
C279 C280 1.363 1_455 S
C279 H282 0.929 . S
C280 C279 1.363 1_655 S
C280 C286 1.428 . S
H281 C277 0.930 . S
H282 C279 0.929 . S
S283 N284 1.613 . S
S283 N285 1.610 . S
N284 S283 1.613 . S
N284 C287 1.350 . S
N285 S283 1.610 . S
N285 C286 1.351 . S
C286 C280 1.428 . S
C286 N285 1.351 . S
C286 C287 1.434 . S
C287 C278 1.429 1_655 S
C287 N284 1.350 . S
C287 C286 1.434 . S
C113 C98 1.514 . S
C115 C0 1.513 . S
C124 C25 1.551 . S
C126 C67 1.553 . S
C135 C28 1.513 . S
C137 C70 1.512 . S
C146 C95 1.554 . S
C148 C53 1.551 . S
C157 C19 1.543 . S
C159 C11 1.522 . S
C168 C14 1.474 . S
C170 C37 1.514 . S
C179 C47 1.547 . S
C181 C39 1.519 . S
C190 C42 1.471 . S
C192 C9 1.514 . S
C201 C107 1.514 . S
C203 C56 1.469 . S
C212 C81 1.522 . S
C214 C61 1.545 1_554 S
C223 C79 1.514 . S
C225 C84 1.470 . S
C234 C89 1.543 1_554 S
C236 C109 1.519 . S
C245 C33 1.242 . S
C247 C5 1.238 . S
C256 C51 1.248 . S
C258 C23 1.247 . S
C267 C93 1.254 . S
C269 C65 1.248 . S
C278 C103 1.247 . S
C280 C75 1.239 . S
