# Generated by pormake.
# Topology snp, (6)-cn, num edge types: 1
# Building blocks:
#     Node 0, Type 0, BuildingBlock: CUKXOW_clean_sbu_0, # of connection points: 6
#     Node 1, Type 0, BuildingBlock: CUKXOW_clean_sbu_0, # of connection points: 6
#     Node 2, Type 0, BuildingBlock: CUKXOW_clean_sbu_0, # of connection points: 6
#     Node 3, Type 0, BuildingBlock: CUKXOW_clean_sbu_0, # of connection points: 6
#     Edge 4, Type (0, 0), BuildingBlock: TEMPAE_clean_linker_10, # of connection points: 2
#     Edge 5, Type (0, 0), BuildingBlock: TEMPAE_clean_linker_10, # of connection points: 2
#     Edge 6, Type (0, 0), BuildingBlock: TEMPAE_clean_linker_10, # of connection points: 2
#     Edge 7, Type (0, 0), BuildingBlock: TEMPAE_clean_linker_10, # of connection points: 2
#     Edge 8, Type (0, 0), BuildingBlock: TEMPAE_clean_linker_10, # of connection points: 2
#     Edge 9, Type (0, 0), BuildingBlock: TEMPAE_clean_linker_10, # of connection points: 2
#     Edge 10, Type (0, 0), BuildingBlock: TEMPAE_clean_linker_10, # of connection points: 2
#     Edge 11, Type (0, 0), BuildingBlock: TEMPAE_clean_linker_10, # of connection points: 2
#     Edge 12, Type (0, 0), BuildingBlock: TEMPAE_clean_linker_10, # of connection points: 2
#     Edge 13, Type (0, 0), BuildingBlock: TEMPAE_clean_linker_10, # of connection points: 2
#     Edge 14, Type (0, 0), BuildingBlock: TEMPAE_clean_linker_10, # of connection points: 2
#     Edge 15, Type (0, 0), BuildingBlock: TEMPAE_clean_linker_10, # of connection points: 2
# Relax obj value: 0.224
# Max RMSD: 0.185
# Mean RMSD: 0.180
data_MOF--net-snp--node1-CUKXOW_clean_sbu_0--edge1-TEMPAE_clean_linker_10
_symmetry_space_group_name_H-M    P1
_symmetry_Int_Tables_number       1
_symmetry_cell_setting            triclinic
loop_
_symmetry_equiv_pos_as_xyz
'x, y, z'
_cell_length_a     24.9599
_cell_length_b     25.736902
_cell_length_c     27.170195
_cell_angle_alpha  101.11934
_cell_angle_beta   97.775997
_cell_angle_gamma 103.20547
loop_
_atom_site_label
_atom_site_type_symbol
_atom_site_fract_x
_atom_site_fract_y
_atom_site_fract_z
_atom_type_partial_charge
Tb0 Tb 0.26972 0.09831 0.1273 0.0
C1 C 0.396 0.13 0.11227 0.0
Tb2 Tb 0.30953 0.19512 0.0816 0.0
O3 O 0.24018 0.02926 0.06212 0.0
O4 O 0.27124 0.10764 0.05015 0.0
O5 O 0.35597 0.09454 0.12541 0.0
C6 C 0.34133 0.26291 1.02076 0.0
O7 O 0.38796 0.17353 0.09625 0.0
C8 C 0.29438 0.22097 0.17771 0.0
C9 C 0.18502 0.15849 0.08442 0.0
O10 O 0.33927 0.27793 0.06868 0.0
O11 O 0.32667 0.20975 1.00758 0.0
O12 O 0.28969 0.25103 0.14496 0.0
O13 O 0.31251 0.18155 0.15713 0.0
O14 O 0.2217 0.17864 0.05795 0.0
O15 O 0.19959 0.13611 0.12257 0.0
C16 C 0.24715 0.04106 0.1976 0.0
O17 O 0.21069 0.0447 0.16051 0.0
O18 O 0.29622 0.07008 0.19545 0.0
C19 C 0.24855 0.05685 1.02744 0.0
Tb20 Tb 0.17796 0.34501 0.62882 0.0
C21 C 0.08557 0.38581 0.56928 0.0
Tb22 Tb 0.08921 0.25994 0.54205 0.0
O23 O 0.24233 0.33961 0.58014 0.0
O24 O 0.15924 0.32521 0.54756 0.0
O25 O 0.12819 0.39891 0.60836 0.0
C26 C 0.04227 0.2059 0.44682 0.0
O27 O 0.06695 0.33634 0.53791 0.0
C28 C 0.0564 0.2522 0.62996 0.0
C29 C 0.17953 0.22322 0.60823 0.0
O30 O 0.01971 0.23586 0.47749 0.0
O31 O 0.09068 0.20471 0.4704 0.0
O32 O 0.02873 0.22348 0.58527 0.0
O33 O 0.10043 0.2844 0.62278 0.0
O34 O 0.14936 0.21418 0.56178 0.0
O35 O 0.19013 0.26991 0.64199 0.0
C36 C 0.22956 0.39951 0.72417 0.0
O37 O 0.25399 0.39208 0.68496 0.0
O38 O 0.17596 0.38001 0.70811 0.0
C39 C 0.20646 0.32319 0.53718 0.0
Tb40 Tb 0.83179 0.95819 0.05781 0.0
C41 C 0.89678 0.92933 0.96928 0.0
Tb42 Tb 0.84342 0.03301 0.9754 0.0
O43 O 0.7806 0.8847 1.00258 0.0
O44 O 0.78739 0.96221 0.9876 0.0
O45 O 0.88845 0.92278 1.01531 0.0
C46 C 0.87816 0.08964 0.90471 0.0
O47 O 0.87851 0.96571 0.94725 0.0
C48 C 0.89654 0.07641 0.06983 0.0
C49 C 0.75315 0.04053 0.04375 0.0
O50 O 0.83304 0.04889 0.89679 0.0
O51 O 0.90233 0.09765 0.95185 0.0
O52 O 0.87923 0.10461 0.0395 0.0
O53 O 0.88748 0.0274 0.0457 0.0
O54 O 0.76693 0.04668 0.99884 0.0
O55 O 0.77775 0.0141 0.07435 0.0
C56 C 0.8571 0.93061 0.14782 0.0
O57 O 0.80694 0.91971 0.12049 0.0
O58 O 0.89232 0.95719 0.12444 0.0
C59 C 0.76909 0.91125 0.96776 0.0
Tb60 Tb 0.05696 0.84775 0.54978 0.0
C61 C 0.98786 0.7249 0.53381 0.0
Tb62 Tb 0.95078 0.82555 0.59026 0.0
O63 O 0.12198 0.85559 0.61555 0.0
O64 O 0.03858 0.84102 0.62361 0.0
O65 O 0.0295 0.75934 0.52158 0.0
C66 C 0.86021 0.80442 0.63336 0.0
O67 O 0.95243 0.74146 0.56149 0.0
C68 C 0.94389 0.85418 0.501 0.0
C69 C 0.02859 0.93881 0.62506 0.0
O70 O 0.90202 0.78253 0.63876 0.0
O71 O 0.87017 0.83773 0.60375 0.0
O72 O 0.91751 0.86961 0.53653 0.0
O73 O 0.97112 0.82254 0.51575 0.0
O74 O 0.99468 0.90194 0.64149 0.0
O75 O 0.04021 0.92628 0.57899 0.0
C76 C 0.11658 0.88813 0.48504 0.0
O77 O 0.1202 0.84418 0.50085 0.0
O78 O 0.08037 0.90887 0.5061 0.0
C79 C 0.08884 0.85146 0.64853 0.0
C80 C 0.98412 0.90083 0.97605 0.0
C81 C 0.93682 0.9037 0.94366 0.0
C82 C 0.0336 0.94311 0.98311 0.0
C83 C 0.03003 0.98849 0.96101 0.0
C84 C 0.9887 0.97722 0.91561 0.0
C85 C 0.94956 0.92551 0.90203 0.0
C86 C 0.08572 0.94171 1.01739 0.0
C87 C 0.97663 0.01982 0.88779 0.0
C88 C 0.08811 0.1069 0.07793 0.0
C89 C 0.12637 0.14156 0.05833 0.0
C90 C 0.05198 0.05938 0.04557 0.0
C91 C 0.05677 0.04558 0.99277 0.0
C92 C 0.08956 0.08684 0.97306 0.0
C93 C 0.1175 0.13742 1.00575 0.0
C94 C 0.01409 0.02289 0.07081 0.0
C95 C 0.10209 0.07806 0.92004 0.0
H96 H 0.98031 0.87265 1.00107 0.0
H97 H 0.91651 0.91638 0.86897 0.0
H98 H 0.1181 0.98152 1.02763 0.0
H99 H 0.07558 0.92873 0.05244 0.0
H100 H 0.10356 0.90999 0.99698 0.0
H101 H 0.93186 0.00914 0.86952 0.0
H102 H 0.9866 0.06097 0.9137 0.0
H103 H 0.00057 0.0212 0.85644 0.0
H104 H 0.09161 0.11276 0.11901 0.0
H105 H 0.1435 0.16802 0.99048 0.0
H106 H 0.97668 -0.00275 0.04353 0.0
H107 H 0.00088 0.04732 0.10291 0.0
H108 H 0.03692 -0.00332 0.08803 0.0
H109 H 0.146 0.09963 0.92023 0.0
H110 H 0.07608 0.0975 0.89685 0.0
H111 H 0.09544 0.03428 0.90215 0.0
C112 C 0.06008 0.00156 0.71098 0.0
C113 C 0.07173 0.97848 0.66392 0.0
C114 C 0.10007 0.04681 0.74303 0.0
C115 C 0.14842 0.06897 0.72487 0.0
C116 C 0.16776 0.03159 0.69107 0.0
C117 C 0.12729 0.9895 0.65652 0.0
C118 C 0.08759 0.07432 0.79208 0.0
C119 C 0.22743 0.04275 0.68301 0.0
C120 C 0.1245 0.14311 0.62688 0.0
C121 C 0.1777 0.17773 0.63258 0.0
C122 C 0.109 0.11979 0.66646 0.0
C123 C 0.1511 0.12065 0.70794 0.0
C124 C 0.20436 0.15745 0.71493 0.0
C125 C 0.21738 0.18536 0.67696 0.0
C126 C 0.04685 0.09944 0.66445 0.0
C127 C 0.24648 0.1694 0.76346 0.0
H128 H 0.01926 0.98781 0.72066 0.0
H129 H 0.13904 0.96628 0.62389 0.0
H130 H 0.08368 0.04451 0.81654 0.0
H131 H 0.12135 0.11159 0.8119 0.0
H132 H 0.04664 0.08431 0.78566 0.0
H133 H 0.23769 0.00387 0.66707 0.0
H134 H 0.23328 0.06909 0.65524 0.0
H135 H 0.25703 0.0635 0.71941 0.0
H136 H 0.09211 0.14102 0.595 0.0
H137 H 0.25707 0.21605 0.68352 0.0
H138 H 0.03664 0.10037 0.7028 0.0
H139 H 0.03029 0.05796 0.63908 0.0
H140 H 0.02381 0.12574 0.64726 0.0
H141 H 0.24361 0.13359 0.78061 0.0
H142 H 0.23751 0.20211 0.79168 0.0
H143 H 0.28981 0.18364 0.75686 0.0
C144 C 0.66369 0.06579 1.0215 0.0
C145 C 0.70489 0.05954 0.05874 0.0
C146 C 0.61496 0.07864 1.03436 0.0
C147 C 0.60777 0.08638 0.08585 0.0
C148 C 0.65008 0.08197 0.12391 0.0
C149 C 0.69799 0.06812 0.10982 0.0
C150 C 0.57048 0.08247 0.9926 0.0
C151 C 0.64437 0.09111 0.17933 0.0
C152 C 0.49875 0.16271 0.1156 0.0
C153 C 0.45171 0.1194 0.11254 0.0
C154 C 0.55069 0.15278 0.10961 0.0
C155 C 0.55534 0.09814 0.09934 0.0
C156 C 0.50856 0.05442 0.0982 0.0
C157 C 0.45733 0.06566 0.1053 0.0
C158 C 0.59994 0.20056 0.11222 0.0
C159 C 0.51179 0.99555 0.08678 0.0
H160 H 0.66857 0.05878 0.98191 0.0
H161 H 0.72995 0.06373 0.13883 0.0
H162 H 0.53067 0.05165 0.99085 0.0
H163 H 0.56217 0.1235 1.00107 0.0
H164 H 0.58264 0.07549 0.9545 0.0
H165 H 0.68244 0.08915 0.20457 0.0
H166 H 0.63623 0.13171 0.19222 0.0
H167 H 0.60803 0.0596 0.18396 0.0
H168 H 0.49472 0.20443 0.12173 0.0
H169 H 0.421 0.03205 0.10263 0.0
H170 H 0.61072 0.199 0.07376 0.0
H171 H 0.63729 0.19811 0.138 0.0
H172 H 0.59103 0.2407 0.12593 0.0
H173 H 0.51919 0.98388 0.04726 0.0
H174 H 0.47281 0.96668 0.09049 0.0
H175 H 0.54755 0.99067 0.11289 0.0
C176 C 0.0202 0.41918 0.51265 0.0
C177 C 0.05984 0.4292 0.55764 0.0
C178 C 0.99796 0.46108 0.49973 0.0
C179 C 0.01605 0.51395 0.53254 0.0
C180 C 0.05472 0.52388 0.5787 0.0
C181 C 0.07613 0.48131 0.59069 0.0
C182 C 0.95666 0.44918 0.45033 0.0
C183 C 0.07471 0.57992 0.61487 0.0
C184 C 0.02435 0.64754 0.49492 0.0
C185 C 0.98436 0.66584 0.52021 0.0
C186 C 0.03136 0.59501 0.4938 0.0
C187 C 0.99733 0.56032 0.51832 0.0
C188 C 0.95231 0.57592 0.53803 0.0
C189 C 0.94632 0.62879 0.53879 0.0
C190 C 0.07928 0.57929 0.47158 0.0
C191 C 0.91434 0.53928 0.56334 0.0
H192 H 0.00726 0.37892 0.48688 0.0
H193 H 0.10631 0.48923 0.62569 0.0
H194 H 0.92048 0.46623 0.45656 0.0
H195 H 0.97723 0.46925 0.42263 0.0
H196 H 0.94085 0.40448 0.43297 0.0
H197 H 0.10357 0.58019 0.6499 0.0
H198 H 0.0969 0.61012 0.59541 0.0
H199 H 0.03843 0.59393 0.62639 0.0
H200 H 0.05306 0.67549 0.47931 0.0
H201 H 0.91441 0.64219 0.55736 0.0
H202 H 0.06643 0.53604 0.4495 0.0
H203 H 0.11428 0.58315 0.50312 0.0
H204 H 0.0951 0.60608 0.44631 0.0
H205 H 0.90331 0.4959 0.54173 0.0
H206 H 0.87513 0.55205 0.56685 0.0
H207 H 0.93648 0.54143 0.60226 0.0
C208 C 0.27191 0.29955 0.47771 0.0
C209 C 0.21883 0.30613 0.48452 0.0
C210 C 0.28412 0.2838 0.42839 0.0
C211 C 0.24239 0.27411 0.38412 0.0
C212 C 0.18852 0.28026 0.39086 0.0
C213 C 0.17761 0.29646 0.44061 0.0
C214 C 0.34208 0.27798 0.42364 0.0
C215 C 0.14229 0.26991 0.34533 0.0
C216 C 0.28725 0.28815 0.25597 0.0
C217 C 0.28233 0.23364 0.23099 0.0
C218 C 0.27515 0.30169 0.30555 0.0
C219 C 0.25572 0.25971 0.33097 0.0
C220 C 0.24925 0.20433 0.30531 0.0
C221 C 0.2635 0.19222 0.25632 0.0
C222 C 0.28337 0.36127 0.33085 0.0
C223 C 0.22713 0.15758 0.3294 0.0
H224 H 0.30416 0.30682 0.51111 0.0
H225 H 0.13663 0.30195 0.44509 0.0
H226 H 0.33951 0.23564 0.40285 0.0
H227 H 0.36128 0.30631 0.40102 0.0
H228 H 0.37003 0.28691 0.4614 0.0
H229 H 0.10209 0.27413 0.35665 0.0
H230 H 0.15446 0.29924 0.32126 0.0
H231 H 0.13566 0.22806 0.32132 0.0
H232 H 0.30139 0.32063 0.23687 0.0
H233 H 0.25821 0.15009 0.2372 0.0
H234 H 0.31307 0.37217 0.36781 0.0
H235 H 0.24303 0.36839 0.33928 0.0
H236 H 0.29978 0.38921 0.30673 0.0
H237 H 0.26062 0.15526 0.35959 0.0
H238 H 0.21331 0.11755 0.30105 0.0
H239 H 0.19127 0.16412 0.34764 0.0
C240 C 0.06999 0.23827 0.72132 0.0
C241 C 0.03573 0.24412 0.67838 0.0
C242 C 0.0466 0.21676 0.76062 0.0
C243 C 0.98716 0.20142 0.75787 0.0
C244 C 0.95342 0.21276 0.71682 0.0
C245 C 0.97767 0.23202 0.67741 0.0
C246 C 0.08663 0.21086 0.80459 0.0
C247 C 0.89092 0.20335 0.71329 0.0
C248 C 0.89809 0.09171 0.81551 0.0
C249 C 0.90311 0.11891 0.86645 0.0
C250 C 0.92667 0.1167 0.78084 0.0
C251 C 0.95945 0.17256 0.79606 0.0
C252 C 0.96271 0.20093 0.84743 0.0
C253 C 0.93645 0.17339 0.88195 0.0
C254 C 0.92206 0.08091 0.7286 0.0
C255 C 0.99364 0.2607 0.86707 0.0
H256 H 0.11488 0.24729 0.72284 0.0
H257 H 0.95048 0.23664 0.64476 0.0
H258 H 0.10328 0.25135 0.83176 0.0
H259 H 0.06662 0.18121 0.82554 0.0
H260 H 0.12307 0.19865 0.79127 0.0
H261 H 0.87413 0.22922 0.69008 0.0
H262 H 0.86976 0.15984 0.69452 0.0
H263 H 0.87989 0.21244 0.7517 0.0
H264 H 0.8734 0.04969 0.80304 0.0
H265 H 0.94127 0.19522 0.92129 0.0
H266 H 0.94111 0.10304 0.70159 0.0
H267 H 0.87729 0.06074 0.71165 0.0
H268 H 0.94274 0.04766 0.73264 0.0
H269 H 0.03595 0.26381 0.88821 0.0
H270 H 0.97173 0.28169 0.89445 0.0
H271 H 0.99815 0.28291 0.83609 0.0
C272 C 0.90964 0.90727 0.44057 0.0
C273 C 0.93654 0.86662 0.44926 0.0
C274 C 0.89953 0.91842 0.39179 0.0
C275 C 0.91539 0.88739 0.34982 0.0
C276 C 0.94387 0.84716 0.35864 0.0
C277 C 0.95444 0.83753 0.40818 0.0
C278 C 0.87183 0.96362 0.38516 0.0
C279 C 0.96288 0.81402 0.31553 0.0
C280 C 0.83403 0.88089 0.21711 0.0
C281 C 0.87227 0.91773 0.19851 0.0
C282 C 0.84822 0.86945 0.26536 0.0
C283 C 0.9014 0.89667 0.29683 0.0
C284 C 0.9401 0.93403 0.27807 0.0
C285 C 0.92543 0.94327 0.22904 0.0
C286 C 0.80602 0.82831 0.28285 0.0
C287 C 0.99614 0.96664 0.31034 0.0
H288 H 0.89634 0.93056 0.47215 0.0
H289 H 0.9757 0.80642 0.41452 0.0
H290 H 0.89845 0.99361 0.36827 0.0
H291 H 0.83111 0.9463 0.35832 0.0
H292 H 0.86433 0.98576 0.42186 0.0
H293 H 0.99249 0.84185 0.29902 0.0
H294 H 0.98387 0.78389 0.32819 0.0
H295 H 0.92637 0.7917 0.28466 0.0
H296 H 0.79302 0.86066 0.19376 0.0
H297 H 0.9552 0.9721 0.21523 0.0
H298 H 0.79314 0.84899 0.31731 0.0
H299 H 0.82525 0.79627 0.29362 0.0
H300 H 0.76799 0.80814 0.25294 0.0
H301 H 0.99099 0.00483 0.33398 0.0
H302 H 0.02711 0.97858 0.28612 0.0
H303 H 0.01339 0.94381 0.33649 0.0
C304 C 0.16914 0.89437 0.72384 0.0
C305 C 0.11083 0.87563 0.70545 0.0
C306 C 0.19265 0.92314 0.77513 0.0
C307 C 0.15762 0.9361 0.81038 0.0
C308 C 0.0983 0.91523 0.79226 0.0
C309 C 0.07607 0.88564 0.74072 0.0
C310 C 0.25565 0.93963 0.79077 0.0
C311 C 0.05635 0.92369 0.82582 0.0
C312 C 0.20364 0.97142 0.95782 0.0
C313 C 0.22921 0.02843 0.97109 0.0
C314 C 0.18152 0.94153 0.90677 0.0
C315 C 0.18322 0.96859 0.86588 0.0
C316 C 0.21199 0.02591 0.87893 0.0
C317 C 0.23419 0.05482 0.93079 0.0
C318 C 0.1568 0.88036 0.89722 0.0
C319 C 0.22087 0.05828 0.83907 0.0
H320 H 0.19718 0.8872 0.69762 0.0
H321 H 0.03105 0.87161 0.72785 0.0
H322 H 0.27235 0.98073 0.78362 0.0
H323 H 0.26939 0.94137 0.83177 0.0
H324 H 0.27465 0.9106 0.7678 0.0
H325 H 0.02952 0.94755 0.80967 0.0
H326 H 0.0282 0.88335 0.82553 0.0
H327 H 0.07559 0.9447 0.86578 0.0
H328 H 0.20083 0.94929 0.98788 0.0
H329 H 0.25474 0.09833 0.93958 0.0
H330 H 0.16461 0.85823 0.86071 0.0
H331 H 0.11087 0.87177 0.89538 0.0
H332 H 0.17426 0.86346 0.92858 0.0
H333 H 0.26639 0.07121 0.83877 0.0
H334 H 0.20695 0.0963 0.84913 0.0
H335 H 0.19893 0.03485 0.80046 0.0
C336 C 0.78472 0.84294 0.89815 0.0
C337 C 0.76041 0.88591 0.91311 0.0
C338 C 0.78819 0.82496 0.84714 0.0
C339 C 0.76196 0.84701 0.80952 0.0
C340 C 0.7309 0.88545 0.824 0.0
C341 C 0.73245 0.90623 0.8761 0.0
C342 C 0.82418 0.78602 0.83465 0.0
C343 C 0.69902 0.90764 0.78539 0.0
C344 C 0.844 0.86756 0.70544 0.0
C345 C 0.82822 0.81508 0.67356 0.0
C346 C 0.82003 0.87951 0.74824 0.0
C347 C 0.77739 0.83827 0.75829 0.0
C348 C 0.75762 0.78635 0.72315 0.0
C349 C 0.78455 0.77477 0.68165 0.0
C350 C 0.8418 0.93636 0.78247 0.0
C351 C 0.70914 0.74235 0.72923 0.0
H352 H 0.80568 0.82671 0.92695 0.0
H353 H 0.71252 0.93868 0.8878 0.0
H354 H 0.7973 0.74564 0.81229 0.0
H355 H 0.8546 0.8019 0.81134 0.0
H356 H 0.84809 0.77947 0.86948 0.0
H357 H 0.65757 0.90922 0.79524 0.0
H358 H 0.72213 0.95038 0.78691 0.0
H359 H 0.69238 0.88259 0.74588 0.0
H360 H 0.87732 0.89888 0.69819 0.0
H361 H 0.7716 0.73447 0.65589 0.0
H362 H 0.88563 0.95531 0.77955 0.0
H363 H 0.84036 0.93715 0.82315 0.0
H364 H 0.81535 0.96223 0.7697 0.0
H365 H 0.72456 0.70761 0.73864 0.0
H366 H 0.67902 0.72585 0.69239 0.0
H367 H 0.68644 0.7573 0.75909 0.0
C368 C 0.18207 0.97524 0.23242 0.0
C369 C 0.23396 0.01306 0.23848 0.0
C370 C 0.16724 0.95121 0.27246 0.0
C371 C 0.20508 0.96615 0.3198 0.0
C372 C 0.25825 0.00324 0.32551 0.0
C373 C 0.27225 0.02597 0.28452 0.0
C374 C 0.11102 0.91005 0.26386 0.0
C375 C 0.29938 0.02067 0.37552 0.0
C376 C 0.13729 0.95904 0.43547 0.0
C377 C 0.14413 0.90941 0.44572 0.0
C378 C 0.15824 0.97849 0.39538 0.0
C379 C 0.18672 0.94745 0.36468 0.0
C380 C 0.19496 0.89786 0.37557 0.0
C381 C 0.17359 0.87938 0.41624 0.0
C382 C 0.14814 0.03129 0.38472 0.0
C383 C 0.2247 0.86359 0.34328 0.0
H384 H 0.1528 0.96475 0.19647 0.0
H385 H 0.31236 0.05545 0.28918 0.0
H386 H 0.11719 0.8681 0.25685 0.0
H387 H 0.09096 0.91549 0.2978 0.0
H388 H 0.08185 0.91281 0.23032 0.0
H389 H 0.34089 0.04546 0.37219 0.0
H390 H 0.28262 0.04556 0.40473 0.0
H391 H 0.30517 0.98422 0.38954 0.0
H392 H 0.11443 0.98231 0.45824 0.0
H393 H 0.17853 0.84082 0.42403 0.0
H394 H 0.12431 0.02328 0.34533 0.0
H395 H 0.1887 0.06132 0.38719 0.0
H396 H 0.12439 0.0501 0.4117 0.0
H397 H 0.19934 0.84726 0.30416 0.0
H398 H 0.23174 0.82854 0.35921 0.0
H399 H 0.26572 0.88917 0.3399 0.0
C400 C 0.31522 0.41985 0.79251 0.0
C401 C 0.25674 0.40397 0.77737 0.0
C402 C 0.34108 0.41092 0.83848 0.0
C403 C 0.30766 0.38336 0.86874 0.0
C404 C 0.24845 0.37068 0.85504 0.0
C405 C 0.22391 0.38211 0.81019 0.0
C406 C 0.40414 0.42829 0.85242 0.0
C407 C 0.21051 0.33967 0.88458 0.0
C408 C 0.34912 0.27746 0.93374 0.0
C409 C 0.3468 0.29916 0.98452 0.0
C410 C 0.34282 0.30741 0.89624 0.0
C411 C 0.33272 0.35983 0.90967 0.0
C412 C 0.33714 0.38446 0.96189 0.0
C413 C 0.34369 0.35363 0.99882 0.0
C414 C 0.34566 0.28225 0.84208 0.0
C415 C 0.33196 0.44222 0.97834 0.0
H416 H 0.34091 0.43701 0.76743 0.0
H417 H 0.17867 0.36939 0.79868 0.0
H418 H 0.41972 0.43058 0.89322 0.0
H419 H 0.42147 0.39867 0.82838 0.0
H420 H 0.42046 0.46903 0.84424 0.0
H421 H 0.16615 0.33997 0.87329 0.0
H422 H 0.21307 0.29641 0.87731 0.0
H423 H 0.22351 0.3573 0.9262 0.0
H424 H 0.35356 0.23606 0.92289 0.0
H425 H 0.34326 0.37116 0.03834 0.0
H426 H 0.30979 0.2853 0.81485 0.0
H427 H 0.3467 0.23867 0.83697 0.0
H428 H 0.38448 0.3051 0.83218 0.0
H429 H 0.35495 0.46923 0.95651 0.0
H430 H 0.34839 0.45948 1.01982 0.0
H431 H 0.28728 0.44252 0.97039 0.0
C432 C 0.9655 0.1434 0.1414 0.0
C433 C 0.91882 0.09803 0.12469 0.0
C434 C 0.9885 0.16344 0.19365 0.0
C435 C 0.96385 0.13724 0.22948 0.0
C436 C 0.9157 0.09237 0.21261 0.0
C437 C 0.89352 0.07374 0.16037 0.0
C438 C 0.03923 0.21214 0.21017 0.0
C439 C 0.88732 0.06433 0.24981 0.0
C440 C 0.04617 0.15156 0.36151 0.0
C441 C 0.02162 0.1866 0.39155 0.0
C442 C 0.02887 0.13618 0.30825 0.0
C443 C 0.98678 0.15713 0.28492 0.0
C444 C 0.96322 0.19387 0.31515 0.0
C445 C 0.98036 0.20752 0.36824 0.0
C446 C 0.05584 0.09799 0.27696 0.0
C447 C 0.92035 0.21922 0.29134 0.0
H448 H 0.98464 0.16245 0.11353 0.0
H449 H 0.85593 0.04055 0.14767 0.0
H450 H 0.03557 0.2411 0.24477 0.0
H451 H 0.07715 0.19781 0.21976 0.0
H452 H 0.04554 0.23462 0.17949 0.0
H453 H 0.85265 0.02761 0.23024 0.0
H454 H 0.91825 0.05193 0.27533 0.0
H455 H 0.86974 0.09321 0.27442 0.0
H456 H 0.07898 0.13638 0.3796 0.0
H457 H 0.96239 0.23576 0.39145 0.0
H458 H 0.08074 0.12024 0.253 0.0
H459 H 0.02333 0.06323 0.25086 0.0
H460 H 0.08419 0.0816 0.30121 0.0
H461 H 0.93674 0.23939 0.26183 0.0
H462 H 0.90921 0.25007 0.31998 0.0
H463 H 0.8816 0.18692 0.272 0.0
loop_
_geom_bond_atom_site_label_1
_geom_bond_atom_site_label_2
_geom_bond_distance
_geom_bond_site_symmetry_2
_ccdc_geom_bond_type
Tb0 O3 2.453 1_554 S
Tb0 O4 2.596 . S
Tb0 O5 2.374 . S
Tb0 O13 2.343 . S
Tb0 O15 2.353 . S
Tb0 O17 2.427 . S
Tb0 O18 2.513 . S
C1 O5 1.251 . S
C1 O7 1.263 . S
Tb2 O4 2.343 . S
Tb2 O7 2.353 . S
Tb2 O10 2.427 1_554 S
Tb2 O11 2.513 1_554 S
Tb2 O12 2.453 . S
Tb2 O13 2.596 . S
Tb2 O14 2.374 . S
O3 Tb0 2.453 1_556 S
O3 C19 1.245 . S
O4 Tb0 2.596 . S
O4 Tb2 2.343 . S
O4 C19 1.259 1_554 S
O5 Tb0 2.374 . S
O5 C1 1.251 . S
C6 O10 1.275 . S
C6 O11 1.246 . S
O7 C1 1.263 . S
O7 Tb2 2.353 . S
C8 O12 1.245 . S
C8 O13 1.259 . S
C9 O14 1.250 . S
C9 O15 1.263 . S
O10 Tb2 2.427 1_556 S
O10 C6 1.275 . S
O11 Tb2 2.513 1_556 S
O11 C6 1.246 . S
O12 Tb2 2.453 . S
O12 C8 1.245 . S
O13 Tb0 2.343 . S
O13 Tb2 2.596 . S
O13 C8 1.259 . S
O14 Tb2 2.374 . S
O14 C9 1.250 . S
O15 Tb0 2.353 . S
O15 C9 1.263 . S
C16 O17 1.275 . S
C16 O18 1.246 . S
O17 Tb0 2.427 . S
O17 C16 1.275 . S
O18 Tb0 2.513 . S
O18 C16 1.246 . S
C19 O3 1.245 . S
C19 O4 1.259 1_556 S
Tb20 O23 2.453 . S
Tb20 O24 2.596 . S
Tb20 O25 2.374 . S
Tb20 O33 2.343 . S
Tb20 O35 2.353 . S
Tb20 O37 2.427 . S
Tb20 O38 2.513 . S
C21 O25 1.251 . S
C21 O27 1.263 . S
Tb22 O24 2.343 1_655 S
Tb22 O27 2.353 1_655 S
Tb22 O30 2.427 . S
Tb22 O31 2.513 . S
Tb22 O32 2.453 . S
Tb22 O33 2.596 1_655 S
Tb22 O34 2.374 1_655 S
O23 Tb20 2.453 . S
O23 C39 1.245 . S
O24 Tb20 2.596 . S
O24 Tb22 2.343 1_455 S
O24 C39 1.259 . S
O25 Tb20 2.374 . S
O25 C21 1.251 . S
C26 O30 1.275 . S
C26 O31 1.246 . S
O27 C21 1.263 . S
O27 Tb22 2.353 1_455 S
C28 O32 1.253 . S
C28 O33 1.250 1_655 S
C29 O34 1.250 . S
C29 O35 1.263 . S
O30 Tb22 2.427 . S
O30 C26 1.275 . S
O31 Tb22 2.513 . S
O31 C26 1.246 . S
O32 Tb22 2.453 . S
O32 C28 1.253 . S
O33 Tb20 2.343 . S
O33 Tb22 2.596 1_455 S
O33 C28 1.250 1_455 S
O34 Tb22 2.374 1_455 S
O34 C29 1.250 . S
O35 Tb20 2.353 . S
O35 C29 1.263 . S
C36 O37 1.275 . S
C36 O38 1.246 . S
O37 Tb20 2.427 . S
O37 C36 1.275 . S
O38 Tb20 2.513 . S
O38 C36 1.246 . S
C39 O23 1.245 . S
C39 O24 1.259 . S
Tb40 O43 2.453 1_554 S
Tb40 O44 2.602 1_554 S
Tb40 O45 2.374 . S
Tb40 O53 2.343 1_565 S
Tb40 O55 2.357 . S
Tb40 O57 2.427 . S
Tb40 O58 2.513 . S
C41 O45 1.251 1_545 S
C41 O47 1.263 . S
Tb42 O44 2.335 1_545 S
Tb42 O47 2.353 1_556 S
Tb42 O50 2.427 . S
Tb42 O51 2.513 . S
Tb42 O52 2.453 1_556 S
Tb42 O53 2.596 1_556 S
Tb42 O54 2.374 . S
O43 Tb40 2.453 1_556 S
O43 C59 1.245 . S
O44 Tb40 2.602 1_556 S
O44 Tb42 2.335 1_565 S
O44 C59 1.266 . S
O45 Tb40 2.374 . S
O45 C41 1.251 1_565 S
C46 O50 1.275 . S
C46 O51 1.246 . S
O47 C41 1.263 . S
O47 Tb42 2.353 1_554 S
C48 O52 1.245 . S
C48 O53 1.259 . S
C49 O54 1.250 1_554 S
C49 O55 1.259 1_545 S
O50 Tb42 2.427 . S
O50 C46 1.275 . S
O51 Tb42 2.513 . S
O51 C46 1.246 . S
O52 Tb42 2.453 1_554 S
O52 C48 1.245 . S
O53 Tb40 2.343 1_545 S
O53 Tb42 2.596 1_554 S
O53 C48 1.259 . S
O54 Tb42 2.374 . S
O54 C49 1.250 1_556 S
O55 Tb40 2.357 . S
O55 C49 1.259 1_565 S
C56 O57 1.275 . S
C56 O58 1.246 . S
O57 Tb40 2.427 . S
O57 C56 1.275 . S
O58 Tb40 2.513 . S
O58 C56 1.246 . S
C59 O43 1.245 . S
C59 O44 1.266 . S
Tb60 O63 2.453 . S
Tb60 O64 2.596 . S
Tb60 O65 2.374 . S
Tb60 O73 2.343 . S
Tb60 O75 2.353 . S
Tb60 O77 2.427 . S
Tb60 O78 2.513 . S
C61 O65 1.251 . S
C61 O67 1.263 . S
Tb62 O64 2.343 1_655 S
Tb62 O67 2.353 1_655 S
Tb62 O70 2.427 . S
Tb62 O71 2.513 . S
Tb62 O72 2.453 . S
Tb62 O73 2.596 1_655 S
Tb62 O74 2.374 1_655 S
O63 Tb60 2.453 . S
O63 C79 1.245 . S
O64 Tb60 2.596 . S
O64 Tb62 2.343 1_455 S
O64 C79 1.259 . S
O65 Tb60 2.374 . S
O65 C61 1.251 . S
C66 O70 1.275 . S
C66 O71 1.246 . S
O67 C61 1.263 . S
O67 Tb62 2.353 1_455 S
C68 O72 1.245 1_455 S
C68 O73 1.259 . S
C69 O74 1.250 . S
C69 O75 1.263 . S
O70 Tb62 2.427 . S
O70 C66 1.275 . S
O71 Tb62 2.513 . S
O71 C66 1.246 . S
O72 Tb62 2.453 . S
O72 C68 1.245 1_655 S
O73 Tb60 2.343 . S
O73 Tb62 2.596 1_455 S
O73 C68 1.259 . S
O74 Tb62 2.374 1_455 S
O74 C69 1.250 . S
O75 Tb60 2.353 . S
O75 C69 1.263 . S
C76 O77 1.275 . S
C76 O78 1.246 . S
O77 Tb60 2.427 . S
O77 C76 1.275 . S
O78 Tb60 2.513 . S
O78 C76 1.246 . S
C79 O63 1.245 . S
C79 O64 1.259 . S
C80 C81 1.391 1_554 S
C80 C82 1.398 1_655 S
C80 H96 0.931 . S
C81 C80 1.391 1_556 S
C81 C85 1.376 1_565 S
C82 C80 1.398 1_455 S
C82 C83 1.356 1_565 S
C82 C86 1.540 . S
C83 C82 1.356 1_545 S
C83 C84 1.410 1_554 S
C83 C91 1.503 . S
C84 C83 1.410 1_556 S
C84 C85 1.392 1_455 S
C84 C87 1.511 . S
C85 C81 1.376 1_545 S
C85 C84 1.392 1_655 S
C85 H97 0.929 . S
C86 C82 1.540 . S
C86 H98 0.960 . S
C86 H99 0.962 . S
C86 H100 0.960 . S
C87 C84 1.511 . S
C87 H101 0.961 1_455 S
C87 H102 0.961 . S
C87 H103 0.961 . S
C88 C89 1.370 . S
C88 C90 1.363 . S
C88 H104 0.931 . S
C89 C88 1.370 . S
C89 C93 1.408 . S
C90 C88 1.363 . S
C90 C91 1.370 . S
C90 C94 1.524 . S
C91 C83 1.503 . S
C91 C90 1.370 . S
C91 C92 1.403 . S
C92 C91 1.403 . S
C92 C93 1.404 . S
C92 C95 1.539 1_554 S
C93 C89 1.408 . S
C93 C92 1.404 . S
C93 H105 0.930 . S
C94 C90 1.524 . S
C94 H106 0.956 . S
C94 H107 0.961 . S
C94 H108 0.961 . S
C95 C92 1.539 1_556 S
C95 H109 0.958 . S
C95 H110 0.961 . S
C95 H111 0.960 . S
H96 C80 0.931 . S
H97 C85 0.929 . S
H98 C86 0.960 . S
H99 C86 0.962 . S
H100 C86 0.960 . S
H101 C87 0.961 1_655 S
H102 C87 0.961 . S
H103 C87 0.961 . S
H104 C88 0.931 . S
H105 C93 0.930 . S
H106 C94 0.956 . S
H107 C94 0.961 . S
H108 C94 0.961 . S
H109 C95 0.958 . S
H110 C95 0.961 . S
H111 C95 0.960 . S
C112 C113 1.391 . S
C112 C114 1.394 1_565 S
C112 H128 0.931 . S
C113 C112 1.391 . S
C113 C117 1.376 . S
C114 C112 1.394 1_545 S
C114 C115 1.369 . S
C114 C118 1.531 1_455 S
C115 C114 1.369 . S
C115 C116 1.410 . S
C115 C123 1.503 . S
C116 C115 1.410 . S
C116 C117 1.392 1_545 S
C116 C119 1.511 . S
C117 C113 1.376 . S
C117 C116 1.392 1_565 S
C117 H129 0.929 . S
C118 C114 1.531 1_655 S
C118 H130 0.960 1_655 S
C118 H131 0.962 . S
C118 H132 0.960 . S
C119 C116 1.511 . S
C119 H133 0.961 . S
C119 H134 0.961 . S
C119 H135 0.961 . S
C120 C121 1.370 . S
C120 C122 1.363 . S
C120 H136 0.931 1_455 S
C121 C120 1.370 . S
C121 C125 1.408 . S
C122 C120 1.363 . S
C122 C123 1.370 . S
C122 C126 1.524 1_455 S
C123 C115 1.503 . S
C123 C122 1.370 . S
C123 C124 1.403 . S
C124 C123 1.403 . S
C124 C125 1.404 . S
C124 C127 1.539 . S
C125 C121 1.408 . S
C125 C124 1.404 . S
C125 H137 0.930 . S
C126 C122 1.524 1_655 S
C126 H138 0.956 . S
C126 H139 0.961 1_655 S
C126 H140 0.961 . S
C127 C124 1.539 . S
C127 H141 0.958 . S
C127 H142 0.961 . S
C127 H143 0.960 . S
H128 C112 0.931 . S
H129 C117 0.929 . S
H130 C118 0.960 1_455 S
H131 C118 0.962 . S
H132 C118 0.960 . S
H133 C119 0.961 . S
H134 C119 0.961 . S
H135 C119 0.961 . S
H136 C120 0.931 1_655 S
H137 C125 0.930 . S
H138 C126 0.956 . S
H139 C126 0.961 1_455 S
H140 C126 0.961 . S
H141 C127 0.958 . S
H142 C127 0.961 . S
H143 C127 0.960 . S
C144 C145 1.391 . S
C144 C146 1.394 . S
C144 H160 0.931 . S
C145 C144 1.391 . S
C145 C149 1.376 1_545 S
C146 C144 1.394 . S
C146 C147 1.369 . S
C146 C150 1.531 . S
C147 C146 1.369 . S
C147 C148 1.410 . S
C147 C155 1.503 . S
C148 C147 1.410 . S
C148 C149 1.392 1_545 S
C148 C151 1.511 1_545 S
C149 C145 1.376 1_565 S
C149 C148 1.392 1_565 S
C149 H161 0.929 1_554 S
C150 C146 1.531 . S
C150 H162 0.960 . S
C150 H163 0.962 . S
C150 H164 0.960 . S
C151 C148 1.511 1_565 S
C151 H165 0.961 . S
C151 H166 0.961 . S
C151 H167 0.961 1_554 S
C152 C153 1.370 . S
C152 C154 1.363 . S
C152 H168 0.931 . S
C153 C152 1.370 . S
C153 C157 1.408 . S
C154 C152 1.363 . S
C154 C155 1.370 . S
C154 C158 1.524 . S
C155 C147 1.503 . S
C155 C154 1.370 . S
C155 C156 1.403 1_554 S
C156 C155 1.403 1_556 S
C156 C157 1.404 1_556 S
C156 C159 1.539 . S
C157 C153 1.408 . S
C157 C156 1.404 1_554 S
C157 H169 0.930 1_554 S
C158 C154 1.524 . S
C158 H170 0.956 . S
C158 H171 0.961 . S
C158 H172 0.961 . S
C159 C156 1.539 . S
C159 H173 0.958 . S
C159 H174 0.961 . S
C159 H175 0.960 . S
H160 C144 0.931 . S
H161 C149 0.929 1_556 S
H162 C150 0.960 . S
H163 C150 0.962 . S
H164 C150 0.960 . S
H165 C151 0.961 . S
H166 C151 0.961 . S
H167 C151 0.961 1_556 S
H168 C152 0.931 . S
H169 C157 0.930 1_556 S
H170 C158 0.956 . S
H171 C158 0.961 . S
H172 C158 0.961 . S
H173 C159 0.958 . S
H174 C159 0.961 . S
H175 C159 0.960 . S
C176 C177 1.391 . S
C176 C178 1.394 . S
C176 H192 0.931 . S
C177 C176 1.391 . S
C177 C181 1.376 . S
C178 C176 1.394 . S
C178 C179 1.369 . S
C178 C182 1.531 . S
C179 C178 1.369 . S
C179 C180 1.410 . S
C179 C187 1.503 . S
C180 C179 1.410 . S
C180 C181 1.392 . S
C180 C183 1.511 . S
C181 C177 1.376 . S
C181 C180 1.392 . S
C181 H193 0.929 . S
C182 C178 1.531 . S
C182 H194 0.960 . S
C182 H195 0.962 1_455 S
C182 H196 0.960 1_455 S
C183 C180 1.511 . S
C183 H197 0.961 . S
C183 H198 0.961 . S
C183 H199 0.961 . S
C184 C185 1.370 . S
C184 C186 1.363 . S
C184 H200 0.931 . S
C185 C184 1.370 . S
C185 C189 1.408 . S
C186 C184 1.363 . S
C186 C187 1.370 . S
C186 C190 1.524 . S
C187 C179 1.503 . S
C187 C186 1.370 . S
C187 C188 1.403 . S
C188 C187 1.403 . S
C188 C189 1.404 . S
C188 C191 1.539 . S
C189 C185 1.408 . S
C189 C188 1.404 . S
C189 H201 0.930 . S
C190 C186 1.524 . S
C190 H202 0.956 1_455 S
C190 H203 0.961 . S
C190 H204 0.961 1_455 S
C191 C188 1.539 . S
C191 H205 0.958 . S
C191 H206 0.961 . S
C191 H207 0.960 . S
H192 C176 0.931 . S
H193 C181 0.929 . S
H194 C182 0.960 . S
H195 C182 0.962 1_655 S
H196 C182 0.960 1_655 S
H197 C183 0.961 . S
H198 C183 0.961 . S
H199 C183 0.961 . S
H200 C184 0.931 . S
H201 C189 0.930 . S
H202 C190 0.956 1_655 S
H203 C190 0.961 . S
H204 C190 0.961 1_655 S
H205 C191 0.958 . S
H206 C191 0.961 . S
H207 C191 0.960 . S
C208 C209 1.391 . S
C208 C210 1.394 . S
C208 H224 0.931 . S
C209 C208 1.391 . S
C209 C213 1.376 . S
C210 C208 1.394 . S
C210 C211 1.369 . S
C210 C214 1.531 . S
C211 C210 1.369 . S
C211 C212 1.410 . S
C211 C219 1.503 . S
C212 C211 1.410 . S
C212 C213 1.392 . S
C212 C215 1.511 . S
C213 C209 1.376 . S
C213 C212 1.392 . S
C213 H225 0.929 . S
C214 C210 1.531 . S
C214 H226 0.960 . S
C214 H227 0.962 . S
C214 H228 0.960 . S
C215 C212 1.511 . S
C215 H229 0.961 . S
C215 H230 0.961 . S
C215 H231 0.961 . S
C216 C217 1.370 . S
C216 C218 1.363 . S
C216 H232 0.931 . S
C217 C216 1.370 . S
C217 C221 1.408 . S
C218 C216 1.363 . S
C218 C219 1.370 . S
C218 C222 1.524 . S
C219 C211 1.503 . S
C219 C218 1.370 . S
C219 C220 1.403 . S
C220 C219 1.403 . S
C220 C221 1.404 . S
C220 C223 1.539 . S
C221 C217 1.408 . S
C221 C220 1.404 . S
C221 H233 0.930 . S
C222 C218 1.524 . S
C222 H234 0.956 . S
C222 H235 0.961 . S
C222 H236 0.961 . S
C223 C220 1.539 . S
C223 H237 0.958 . S
C223 H238 0.961 . S
C223 H239 0.960 . S
H224 C208 0.931 . S
H225 C213 0.929 . S
H226 C214 0.960 . S
H227 C214 0.962 . S
H228 C214 0.960 . S
H229 C215 0.961 . S
H230 C215 0.961 . S
H231 C215 0.961 . S
H232 C216 0.931 . S
H233 C221 0.930 . S
H234 C222 0.956 . S
H235 C222 0.961 . S
H236 C222 0.961 . S
H237 C223 0.958 . S
H238 C223 0.961 . S
H239 C223 0.960 . S
C240 C241 1.391 1_455 S
C240 C242 1.394 1_455 S
C240 H256 0.931 . S
C241 C240 1.391 1_655 S
C241 C245 1.376 . S
C242 C240 1.394 1_655 S
C242 C243 1.369 . S
C242 C246 1.531 1_655 S
C243 C242 1.369 . S
C243 C244 1.410 . S
C243 C251 1.503 . S
C244 C243 1.410 . S
C244 C245 1.392 . S
C244 C247 1.511 . S
C245 C241 1.376 . S
C245 C244 1.392 . S
C245 H257 0.929 . S
C246 C242 1.531 1_455 S
C246 H258 0.971 . S
C246 H259 0.962 . S
C246 H260 0.960 . S
C247 C244 1.511 . S
C247 H261 0.961 . S
C247 H262 0.961 . S
C247 H263 0.961 . S
C248 C249 1.370 . S
C248 C250 1.363 . S
C248 H264 0.931 . S
C249 C248 1.370 . S
C249 C253 1.408 . S
C250 C248 1.363 . S
C250 C251 1.370 . S
C250 C254 1.524 . S
C251 C243 1.503 . S
C251 C250 1.370 . S
C251 C252 1.403 . S
C252 C251 1.403 . S
C252 C253 1.404 . S
C252 C255 1.539 . S
C253 C249 1.408 . S
C253 C252 1.404 . S
C253 H265 0.930 . S
C254 C250 1.524 . S
C254 H266 0.956 . S
C254 H267 0.961 . S
C254 H268 0.961 . S
C255 C252 1.539 . S
C255 H269 0.958 . S
C255 H270 0.961 . S
C255 H271 0.960 . S
H256 C240 0.931 . S
H257 C245 0.929 . S
H258 C246 0.971 . S
H259 C246 0.962 . S
H260 C246 0.960 . S
H261 C247 0.961 . S
H262 C247 0.961 . S
H263 C247 0.961 . S
H264 C248 0.931 . S
H265 C253 0.930 . S
H266 C254 0.956 . S
H267 C254 0.961 . S
H268 C254 0.961 . S
H269 C255 0.958 . S
H270 C255 0.961 . S
H271 C255 0.960 . S
C272 C273 1.391 . S
C272 C274 1.394 . S
C272 H288 0.931 . S
C273 C272 1.391 . S
C273 C277 1.376 1_655 S
C274 C272 1.394 . S
C274 C275 1.369 . S
C274 C278 1.531 . S
C275 C274 1.369 . S
C275 C276 1.410 . S
C275 C283 1.503 . S
C276 C275 1.410 . S
C276 C277 1.392 1_655 S
C276 C279 1.511 1_655 S
C277 C273 1.376 1_455 S
C277 C276 1.392 1_455 S
C277 H289 0.929 . S
C278 C274 1.531 . S
C278 H290 0.960 . S
C278 H291 0.962 . S
C278 H292 0.960 . S
C279 C276 1.511 1_455 S
C279 H293 0.961 . S
C279 H294 0.961 . S
C279 H295 0.961 . S
C280 C281 1.370 . S
C280 C282 1.363 . S
C280 H296 0.931 . S
C281 C280 1.370 . S
C281 C285 1.408 . S
C282 C280 1.363 . S
C282 C283 1.370 . S
C282 C286 1.524 . S
C283 C275 1.503 . S
C283 C282 1.370 . S
C283 C284 1.403 . S
C284 C283 1.403 . S
C284 C285 1.404 . S
C284 C287 1.539 1_565 S
C285 C281 1.408 . S
C285 C284 1.404 . S
C285 H297 0.930 1_565 S
C286 C282 1.524 . S
C286 H298 0.956 . S
C286 H299 0.961 . S
C286 H300 0.961 . S
C287 C284 1.539 1_545 S
C287 H301 0.958 . S
C287 H302 0.961 . S
C287 H303 0.960 . S
H288 C272 0.931 . S
H289 C277 0.929 . S
H290 C278 0.960 . S
H291 C278 0.962 . S
H292 C278 0.960 . S
H293 C279 0.961 . S
H294 C279 0.961 . S
H295 C279 0.961 . S
H296 C280 0.931 . S
H297 C285 0.930 1_545 S
H298 C286 0.956 . S
H299 C286 0.961 . S
H300 C286 0.961 . S
H301 C287 0.958 . S
H302 C287 0.961 . S
H303 C287 0.960 . S
C304 C305 1.391 . S
C304 C306 1.394 . S
C304 H320 0.931 . S
C305 C304 1.391 . S
C305 C309 1.376 . S
C306 C304 1.394 . S
C306 C307 1.369 . S
C306 C310 1.531 1_565 S
C307 C306 1.369 . S
C307 C308 1.410 . S
C307 C315 1.503 . S
C308 C307 1.410 . S
C308 C309 1.392 . S
C308 C311 1.511 . S
C309 C305 1.376 . S
C309 C308 1.392 . S
C309 H321 0.929 . S
C310 C306 1.531 1_545 S
C310 H322 0.960 . S
C310 H323 0.962 . S
C310 H324 0.960 . S
C311 C308 1.511 . S
C311 H325 0.961 . S
C311 H326 0.961 . S
C311 H327 0.961 . S
C312 C313 1.370 1_565 S
C312 C314 1.363 . S
C312 H328 0.931 . S
C313 C312 1.370 1_545 S
C313 C317 1.408 . S
C314 C312 1.363 . S
C314 C315 1.370 . S
C314 C318 1.524 . S
C315 C307 1.503 . S
C315 C314 1.370 . S
C315 C316 1.403 1_565 S
C316 C315 1.403 1_545 S
C316 C317 1.404 . S
C316 C319 1.539 . S
C317 C313 1.408 . S
C317 C316 1.404 . S
C317 H329 0.930 . S
C318 C314 1.524 . S
C318 H330 0.956 . S
C318 H331 0.961 . S
C318 H332 0.961 . S
C319 C316 1.539 . S
C319 H333 0.958 . S
C319 H334 0.961 . S
C319 H335 0.960 . S
H320 C304 0.931 . S
H321 C309 0.929 . S
H322 C310 0.960 . S
H323 C310 0.962 . S
H324 C310 0.960 . S
H325 C311 0.961 . S
H326 C311 0.961 . S
H327 C311 0.961 . S
H328 C312 0.931 . S
H329 C317 0.930 . S
H330 C318 0.956 . S
H331 C318 0.961 . S
H332 C318 0.961 . S
H333 C319 0.958 . S
H334 C319 0.961 . S
H335 C319 0.960 . S
C336 C337 1.391 . S
C336 C338 1.394 . S
C336 H352 0.931 . S
C337 C336 1.391 . S
C337 C341 1.376 . S
C338 C336 1.394 . S
C338 C339 1.369 . S
C338 C342 1.531 . S
C339 C338 1.369 . S
C339 C340 1.410 . S
C339 C347 1.503 . S
C340 C339 1.410 . S
C340 C341 1.392 . S
C340 C343 1.511 . S
C341 C337 1.376 . S
C341 C340 1.392 . S
C341 H353 0.929 . S
C342 C338 1.531 . S
C342 H354 0.960 . S
C342 H355 0.962 1_655 S
C342 H356 0.960 . S
C343 C340 1.511 . S
C343 H357 0.961 . S
C343 H358 0.961 . S
C343 H359 0.961 . S
C344 C345 1.370 . S
C344 C346 1.363 . S
C344 H360 0.931 1_655 S
C345 C344 1.370 . S
C345 C349 1.408 . S
C346 C344 1.363 . S
C346 C347 1.370 . S
C346 C350 1.524 . S
C347 C339 1.503 . S
C347 C346 1.370 . S
C347 C348 1.403 . S
C348 C347 1.403 . S
C348 C349 1.404 . S
C348 C351 1.539 . S
C349 C345 1.408 . S
C349 C348 1.404 . S
C349 H361 0.930 . S
C350 C346 1.524 . S
C350 H362 0.956 . S
C350 H363 0.961 1_565 S
C350 H364 0.961 1_665 S
C351 C348 1.539 . S
C351 H365 0.958 . S
C351 H366 0.961 . S
C351 H367 0.960 . S
H352 C336 0.931 . S
H353 C341 0.929 . S
H354 C342 0.960 . S
H355 C342 0.962 1_455 S
H356 C342 0.960 . S
H357 C343 0.961 . S
H358 C343 0.961 . S
H359 C343 0.961 . S
H360 C344 0.931 1_455 S
H361 C349 0.930 . S
H362 C350 0.956 . S
H363 C350 0.961 1_545 S
H364 C350 0.961 1_445 S
H365 C351 0.958 . S
H366 C351 0.961 . S
H367 C351 0.960 . S
C368 C369 1.391 1_565 S
C368 C370 1.394 . S
C368 H384 0.931 . S
C369 C368 1.391 1_545 S
C369 C373 1.376 . S
C370 C368 1.394 . S
C370 C371 1.369 . S
C370 C374 1.531 . S
C371 C370 1.369 . S
C371 C372 1.410 1_565 S
C371 C379 1.503 . S
C372 C371 1.410 1_545 S
C372 C373 1.392 . S
C372 C375 1.511 . S
C373 C369 1.376 . S
C373 C372 1.392 . S
C373 H385 0.929 . S
C374 C370 1.531 . S
C374 H386 0.960 . S
C374 H387 0.962 . S
C374 H388 0.960 . S
C375 C372 1.511 . S
C375 H389 0.961 . S
C375 H390 0.961 . S
C375 H391 0.961 . S
C376 C377 1.370 . S
C376 C378 1.363 . S
C376 H392 0.931 . S
C377 C376 1.370 . S
C377 C381 1.408 . S
C378 C376 1.363 . S
C378 C379 1.370 . S
C378 C382 1.524 . S
C379 C371 1.503 . S
C379 C378 1.370 . S
C379 C380 1.403 . S
C380 C379 1.403 . S
C380 C381 1.404 . S
C380 C383 1.539 . S
C381 C377 1.408 . S
C381 C380 1.404 . S
C381 H393 0.930 . S
C382 C378 1.524 . S
C382 H394 0.956 . S
C382 H395 0.961 1_565 S
C382 H396 0.961 . S
C383 C380 1.539 . S
C383 H397 0.958 . S
C383 H398 0.961 . S
C383 H399 0.960 . S
H384 C368 0.931 . S
H385 C373 0.929 . S
H386 C374 0.960 . S
H387 C374 0.962 . S
H388 C374 0.960 . S
H389 C375 0.961 . S
H390 C375 0.961 . S
H391 C375 0.961 . S
H392 C376 0.931 . S
H393 C381 0.930 . S
H394 C382 0.956 . S
H395 C382 0.961 1_545 S
H396 C382 0.961 . S
H397 C383 0.958 . S
H398 C383 0.961 . S
H399 C383 0.960 . S
C400 C401 1.391 . S
C400 C402 1.394 . S
C400 H416 0.931 . S
C401 C400 1.391 . S
C401 C405 1.376 . S
C402 C400 1.394 . S
C402 C403 1.369 . S
C402 C406 1.531 . S
C403 C402 1.369 . S
C403 C404 1.410 . S
C403 C411 1.503 . S
C404 C403 1.410 . S
C404 C405 1.392 . S
C404 C407 1.511 . S
C405 C401 1.376 . S
C405 C404 1.392 . S
C405 H417 0.929 . S
C406 C402 1.531 . S
C406 H418 0.960 . S
C406 H419 0.962 . S
C406 H420 0.960 . S
C407 C404 1.511 . S
C407 H421 0.961 . S
C407 H422 0.961 . S
C407 H423 0.961 . S
C408 C409 1.370 . S
C408 C410 1.363 . S
C408 H424 0.931 . S
C409 C408 1.370 . S
C409 C413 1.408 . S
C410 C408 1.363 . S
C410 C411 1.370 . S
C410 C414 1.524 . S
C411 C403 1.503 . S
C411 C410 1.370 . S
C411 C412 1.403 . S
C412 C411 1.403 . S
C412 C413 1.404 . S
C412 C415 1.539 . S
C413 C409 1.408 . S
C413 C412 1.404 . S
C413 H425 0.930 . S
C414 C410 1.524 . S
C414 H426 0.956 . S
C414 H427 0.961 . S
C414 H428 0.961 . S
C415 C412 1.539 . S
C415 H429 0.958 . S
C415 H430 0.961 . S
C415 H431 0.960 . S
H416 C400 0.931 . S
H417 C405 0.929 . S
H418 C406 0.960 . S
H419 C406 0.962 . S
H420 C406 0.960 . S
H421 C407 0.961 . S
H422 C407 0.961 . S
H423 C407 0.961 . S
H424 C408 0.931 . S
H425 C413 0.930 . S
H426 C414 0.956 . S
H427 C414 0.961 . S
H428 C414 0.961 . S
H429 C415 0.958 . S
H430 C415 0.961 . S
H431 C415 0.960 . S
C432 C433 1.391 . S
C432 C434 1.394 . S
C432 H448 0.931 . S
C433 C432 1.391 . S
C433 C437 1.376 . S
C434 C432 1.394 . S
C434 C435 1.369 . S
C434 C438 1.531 . S
C435 C434 1.369 . S
C435 C436 1.410 . S
C435 C443 1.503 . S
C436 C435 1.410 . S
C436 C437 1.392 . S
C436 C439 1.511 . S
C437 C433 1.376 . S
C437 C436 1.392 . S
C437 H449 0.929 . S
C438 C434 1.531 . S
C438 H450 0.960 . S
C438 H451 0.962 . S
C438 H452 0.960 . S
C439 C436 1.511 . S
C439 H453 0.961 . S
C439 H454 0.961 . S
C439 H455 0.961 . S
C440 C441 1.370 . S
C440 C442 1.363 . S
C440 H456 0.931 1_655 S
C441 C440 1.370 . S
C441 C445 1.408 . S
C442 C440 1.363 . S
C442 C443 1.370 . S
C442 C446 1.524 . S
C443 C435 1.503 . S
C443 C442 1.370 . S
C443 C444 1.403 . S
C444 C443 1.403 . S
C444 C445 1.404 . S
C444 C447 1.539 . S
C445 C441 1.408 . S
C445 C444 1.404 . S
C445 H457 0.930 . S
C446 C442 1.524 . S
C446 H458 0.956 . S
C446 H459 0.961 . S
C446 H460 0.961 . S
C447 C444 1.539 . S
C447 H461 0.958 . S
C447 H462 0.961 . S
C447 H463 0.960 . S
H448 C432 0.931 . S
H449 C437 0.929 . S
H450 C438 0.960 . S
H451 C438 0.962 . S
H452 C438 0.960 . S
H453 C439 0.961 . S
H454 C439 0.961 . S
H455 C439 0.961 . S
H456 C440 0.931 1_455 S
H457 C445 0.930 . S
H458 C446 0.956 . S
H459 C446 0.961 . S
H460 C446 0.961 . S
H461 C447 0.958 . S
H462 C447 0.961 . S
H463 C447 0.960 . S
C81 C41 1.154 1_566 S
C89 C9 1.060 . S
C113 C69 1.094 . S
C121 C29 1.125 . S
C145 C49 1.332 . S
C153 C1 1.347 . S
C177 C21 1.135 . S
C185 C61 1.153 . S
C209 C39 2.094 . S
C217 C8 2.234 . S
C241 C28 2.175 . S
C249 C46 2.190 . S
C273 C68 1.983 1_655 S
C281 C56 1.976 . S
C305 C79 1.723 . S
C313 C19 1.744 . S
C337 C59 1.333 . S
C345 C66 1.345 . S
C369 C16 1.501 . S
C377 C76 1.485 . S
C401 C36 1.332 . S
C409 C6 1.292 . S
C433 C48 0.943 . S
C441 C26 0.972 . S
