# Generated by pormake.
# Topology wns, (7)-cn, num edge types: 1
# Building blocks:
#     Node 0, Type 0, BuildingBlock: NUHQUE_clean_sbu_2, # of connection points: 7
#     Node 1, Type 0, BuildingBlock: NUHQUE_clean_sbu_2, # of connection points: 7
#     Node 2, Type 0, BuildingBlock: NUHQUE_clean_sbu_2, # of connection points: 7
#     Node 3, Type 0, BuildingBlock: NUHQUE_clean_sbu_2, # of connection points: 7
#     Node 4, Type 0, BuildingBlock: NUHQUE_clean_sbu_2, # of connection points: 7
#     Node 5, Type 0, BuildingBlock: NUHQUE_clean_sbu_2, # of connection points: 7
#     Node 6, Type 0, BuildingBlock: NUHQUE_clean_sbu_2, # of connection points: 7
#     Node 7, Type 0, BuildingBlock: NUHQUE_clean_sbu_2, # of connection points: 7
#     Node 8, Type 0, BuildingBlock: NUHQUE_clean_sbu_2, # of connection points: 7
#     Node 9, Type 0, BuildingBlock: NUHQUE_clean_sbu_2, # of connection points: 7
#     Node 10, Type 0, BuildingBlock: NUHQUE_clean_sbu_2, # of connection points: 7
#     Node 11, Type 0, BuildingBlock: NUHQUE_clean_sbu_2, # of connection points: 7
#     Edge 12, Type (0, 0), None
#     Edge 13, Type (0, 0), None
#     Edge 14, Type (0, 0), None
#     Edge 15, Type (0, 0), None
#     Edge 16, Type (0, 0), None
#     Edge 17, Type (0, 0), None
#     Edge 18, Type (0, 0), None
#     Edge 19, Type (0, 0), None
#     Edge 20, Type (0, 0), None
#     Edge 21, Type (0, 0), None
#     Edge 22, Type (0, 0), None
#     Edge 23, Type (0, 0), None
#     Edge 24, Type (0, 0), None
#     Edge 25, Type (0, 0), None
#     Edge 26, Type (0, 0), None
#     Edge 27, Type (0, 0), None
#     Edge 28, Type (0, 0), None
#     Edge 29, Type (0, 0), None
#     Edge 30, Type (0, 0), None
#     Edge 31, Type (0, 0), None
#     Edge 32, Type (0, 0), None
#     Edge 33, Type (0, 0), None
#     Edge 34, Type (0, 0), None
#     Edge 35, Type (0, 0), None
#     Edge 36, Type (0, 0), None
#     Edge 37, Type (0, 0), None
#     Edge 38, Type (0, 0), None
#     Edge 39, Type (0, 0), None
#     Edge 40, Type (0, 0), None
#     Edge 41, Type (0, 0), None
#     Edge 42, Type (0, 0), None
#     Edge 43, Type (0, 0), None
#     Edge 44, Type (0, 0), None
#     Edge 45, Type (0, 0), None
#     Edge 46, Type (0, 0), None
#     Edge 47, Type (0, 0), None
#     Edge 48, Type (0, 0), None
#     Edge 49, Type (0, 0), None
#     Edge 50, Type (0, 0), None
#     Edge 51, Type (0, 0), None
#     Edge 52, Type (0, 0), None
#     Edge 53, Type (0, 0), None
# Relax obj value: 0.216
# Max RMSD: 0.269
# Mean RMSD: 0.269
data_MOF--net-wns--node1-NUHQUE_clean_sbu_2--edge1-none
_symmetry_space_group_name_H-M    P1
_symmetry_Int_Tables_number       1
_symmetry_cell_setting            triclinic
loop_
_symmetry_equiv_pos_as_xyz
'x, y, z'
_cell_length_a     26.499083
_cell_length_b     26.498527
_cell_length_c     19.371849
_cell_angle_alpha  89.999646
_cell_angle_beta   90.000801
_cell_angle_gamma 119.99731
loop_
_atom_site_label
_atom_site_type_symbol
_atom_site_fract_x
_atom_site_fract_y
_atom_site_fract_z
_atom_type_partial_charge
O0 O 0.50574 0.18777 0.81476 0.0
Tb1 Tb 0.52756 0.2101 0.9226 0.0
Eu2 Eu 0.42592 0.23235 0.0597 0.0
C3 C 0.49817 0.22277 0.77307 0.0
O4 O 0.50646 0.27306 0.7955 0.0
C5 C 0.40479 0.11812 0.96551 0.0
O6 O 0.46314 0.22843 0.16214 0.0
C7 C 0.34344 0.25424 0.08982 0.0
C8 C 0.47734 0.27346 0.20278 0.0
O9 O 0.46955 0.31597 0.18085 0.0
C10 C 0.53839 0.31984 0.98061 0.0
C11 C 0.32985 0.29017 0.13626 0.0
C12 C 0.31282 0.32748 0.10665 0.0
C13 C 0.29983 0.36243 0.14824 0.0
C14 C 0.30393 0.36048 0.22037 0.0
C15 C 0.31898 0.32186 0.2521 0.0
C16 C 0.33168 0.28655 0.20888 0.0
O17 O 0.45916 0.13052 0.96556 0.0
O18 O 0.38785 0.15542 0.98405 0.0
O19 O 0.61591 0.22936 0.89963 0.0
O20 O 0.58467 0.20852 1.00318 0.0
C21 C 0.62809 0.22065 0.96212 0.0
O22 O 0.51208 0.31465 1.03933 0.0
O23 O 0.51072 0.28058 0.9339 0.0
O24 O 0.34815 0.21166 0.11809 0.0
O25 O 0.38145 0.2814 1.03999 0.0
H26 H 0.31059 0.33009 0.05093 0.0
H27 H 0.29617 0.38996 0.25128 0.0
H28 H 0.34243 0.25575 0.23142 0.0
O29 O 0.81258 0.31805 0.81476 0.0
Tb30 Tb 0.79024 0.31752 0.92259 0.0
Eu31 Eu 0.76803 0.19363 0.0597 0.0
C32 C 0.77759 0.27547 0.77306 0.0
O33 O 0.72731 0.23347 0.79548 0.0
C34 C 0.88225 0.28675 0.96551 0.0
O35 O 0.77195 0.23478 0.16214 0.0
C36 C 0.74616 0.08927 0.08983 0.0
C37 C 0.72692 0.20396 0.20278 0.0
O38 O 0.68442 0.15367 0.18085 0.0
C39 C 0.68053 0.21858 0.98059 0.0
C40 C 0.71021 0.03975 0.13627 0.0
C41 C 0.6729 0.98541 0.10667 0.0
C42 C 0.63794 0.93749 0.14825 0.0
C43 C 0.63988 0.94354 0.22038 0.0
C44 C 0.67851 0.9972 0.25211 0.0
C45 C 0.71383 0.04521 0.2089 0.0
O46 O 0.86983 0.32871 0.96555 0.0
O47 O 0.84497 0.23251 0.98407 0.0
O48 O 0.77093 0.38658 0.89964 0.0
O49 O 0.79182 0.3762 1.00318 0.0
C50 C 0.77966 0.40748 0.96213 0.0
O51 O 0.68572 0.19749 1.03933 0.0
O52 O 0.7198 0.23019 0.9339 0.0
O53 O 0.78873 0.13656 0.11811 0.0
O54 O 0.719 0.10011 1.03999 0.0
H55 H 0.67029 0.98057 0.05095 0.0
H56 H 0.61039 0.90631 0.2513 0.0
H57 H 0.74464 0.08676 0.23143 0.0
O58 O 0.68233 0.49467 0.81477 0.0
Tb59 Tb 0.68284 0.47283 0.92261 0.0
Eu60 Eu 0.80676 0.57447 0.05969 0.0
C61 C 0.72489 0.50221 0.77308 0.0
O62 O 0.76686 0.49387 0.79549 0.0
C63 C 0.71365 0.59561 0.96553 0.0
O64 O 0.7656 0.53727 0.16213 0.0
C65 C 0.91112 0.65693 0.08982 0.0
C66 C 0.79641 0.52304 0.20278 0.0
O67 O 0.84669 0.53079 0.18085 0.0
C68 C 0.78174 0.46199 0.9806 0.0
C69 C 0.96064 0.67051 0.13626 0.0
C70 C 0.01498 0.68755 0.10666 0.0
C71 C 0.0629 0.70052 0.14825 0.0
C72 C 0.05685 0.69641 0.22038 0.0
C73 C 0.00319 0.68136 0.2521 0.0
C74 C 0.95517 0.66866 0.20888 0.0
O75 O 0.67168 0.54125 0.9656 0.0
O76 O 0.7679 0.61255 0.98403 0.0
O77 O 0.61374 0.38449 0.89962 0.0
O78 O 0.62416 0.41572 1.00319 0.0
C79 C 0.59284 0.37232 0.96211 0.0
O80 O 0.80286 0.48828 1.03933 0.0
O81 O 0.77015 0.48966 0.9339 0.0
O82 O 0.86384 0.65224 0.11808 0.0
O83 O 0.90027 0.61892 1.03999 0.0
H84 H 0.01982 0.68979 0.05094 0.0
H85 H 0.09409 0.70416 0.2513 0.0
H86 H 0.91362 0.65791 0.23142 0.0
O87 O 0.18781 0.50565 0.76695 0.0
Tb88 Tb 0.21016 0.52748 0.65911 0.0
Eu89 Eu 0.23238 0.42584 0.52203 0.0
C90 C 0.22281 0.49809 0.80865 0.0
O91 O 0.27311 0.5064 0.78625 0.0
C92 C 0.11815 0.40472 0.6162 0.0
O93 O 0.22847 0.46307 0.41958 0.0
C94 C 0.25427 0.34337 0.4919 0.0
C95 C 0.2735 0.47728 0.37895 0.0
O96 O 0.31601 0.4695 0.40089 0.0
C97 C 0.31991 0.5383 0.60114 0.0
C98 C 0.29021 0.32979 0.44546 0.0
C99 C 0.32753 0.31277 0.47507 0.0
C100 C 0.36249 0.2998 0.43349 0.0
C101 C 0.36054 0.30389 0.36136 0.0
C102 C 0.32191 0.31893 0.32963 0.0
C103 C 0.28659 0.33162 0.37284 0.0
O104 O 0.13057 0.45909 0.61614 0.0
O105 O 0.15544 0.38776 0.59765 0.0
O106 O 0.22941 0.61582 0.68212 0.0
O107 O 0.20865 0.58463 0.57854 0.0
C108 C 0.22075 0.62803 0.61962 0.0
O109 O 0.31468 0.51201 0.5424 0.0
O110 O 0.28065 0.51065 0.64786 0.0
O111 O 0.21169 0.34808 0.46362 0.0
O112 O 0.28143 0.38137 0.54174 0.0
H113 H 0.33014 0.31054 0.53079 0.0
H114 H 0.39002 0.29614 0.33045 0.0
H115 H 0.25578 0.34236 0.3503 0.0
O116 O 0.49477 0.68224 0.76694 0.0
Tb117 Tb 0.47293 0.68274 0.6591 0.0
Eu118 Eu 0.57453 0.80663 0.52204 0.0
C119 C 0.5023 0.72479 0.80864 0.0
O120 O 0.49394 0.76675 0.78624 0.0
C121 C 0.5957 0.71354 0.61619 0.0
O122 O 0.53733 0.76549 0.41959 0.0
C123 C 0.65699 0.91099 0.49192 0.0
C124 C 0.5231 0.79629 0.37896 0.0
O125 O 0.53085 0.84657 0.4009 0.0
C126 C 0.46205 0.78163 0.60114 0.0
C127 C 0.67057 0.96052 0.44548 0.0
C128 C 0.6876 0.01486 0.47508 0.0
C129 C 0.70058 0.06278 0.4335 0.0
C130 C 0.69649 0.05674 0.36137 0.0
C131 C 0.68144 0.00307 0.32964 0.0
C132 C 0.66873 0.95505 0.37286 0.0
O133 O 0.54133 0.67157 0.61612 0.0
O134 O 0.61262 0.76779 0.59769 0.0
O135 O 0.38461 0.61361 0.68213 0.0
O136 O 0.41577 0.62408 0.57853 0.0
C137 C 0.37241 0.59274 0.61964 0.0
O138 O 0.48835 0.80273 0.54241 0.0
O139 O 0.48971 0.77004 0.64786 0.0
O140 O 0.6523 0.86371 0.46366 0.0
O141 O 0.61897 0.90014 0.54175 0.0
H142 H 0.68983 0.01969 0.53081 0.0
H143 H 0.70425 0.09398 0.33045 0.0
H144 H 0.65799 0.9135 0.35032 0.0
O145 O 0.31814 0.8126 0.76694 0.0
Tb146 Tb 0.31763 0.79024 0.65911 0.0
Eu147 Eu 0.19375 0.76799 0.52204 0.0
C148 C 0.2756 0.77759 0.80865 0.0
O149 O 0.23363 0.72727 0.78626 0.0
C150 C 0.28684 0.88223 0.61619 0.0
O151 O 0.2349 0.77193 0.41959 0.0
C152 C 0.08938 0.74607 0.49191 0.0
C153 C 0.20411 0.72689 0.37896 0.0
O154 O 0.15383 0.68436 0.4009 0.0
C155 C 0.21871 0.68049 0.60116 0.0
C156 C 0.03986 0.71012 0.44547 0.0
C157 C 0.98552 0.67281 0.47507 0.0
C158 C 0.9376 0.63785 0.43349 0.0
C159 C 0.94365 0.6398 0.36136 0.0
C160 C 0.99731 0.67842 0.32963 0.0
C161 C 0.04533 0.71374 0.37285 0.0
O162 O 0.3288 0.86982 0.61612 0.0
O163 O 0.23259 0.84492 0.59768 0.0
O164 O 0.38673 0.77102 0.68212 0.0
O165 O 0.37628 0.79175 0.57853 0.0
C166 C 0.40761 0.7797 0.61964 0.0
O167 O 0.19766 0.68571 0.5424 0.0
O168 O 0.23032 0.71975 0.64787 0.0
O169 O 0.13666 0.78866 0.46364 0.0
O170 O 0.10024 0.71891 0.54175 0.0
H171 H 0.98069 0.67021 0.5308 0.0
H172 H 0.90642 0.61031 0.33044 0.0
H173 H 0.08687 0.74455 0.35031 0.0
O174 O 0.49469 0.81253 0.26694 0.0
Tb175 Tb 0.47289 0.79021 0.1591 0.0
Eu176 Eu 0.57457 0.76796 1.02206 0.0
C177 C 0.50225 0.77752 0.30863 0.0
O178 O 0.49396 0.72724 0.2862 0.0
C179 C 0.59567 0.88221 0.11616 0.0
O180 O 0.53735 0.77189 0.91961 0.0
C181 C 0.65705 0.74609 0.99193 0.0
C182 C 0.52316 0.72687 0.87896 0.0
O183 O 0.53095 0.68436 0.90089 0.0
C184 C 0.46207 0.68048 0.10109 0.0
C185 C 0.67064 0.71016 0.94548 0.0
C186 C 0.68766 0.67283 0.97506 0.0
C187 C 0.70063 0.63788 0.93347 0.0
C188 C 0.69654 0.63985 0.86134 0.0
C189 C 0.68151 0.67848 0.82963 0.0
C190 C 0.66881 0.7138 0.87285 0.0
O191 O 0.5413 0.86981 0.11617 0.0
O192 O 0.61258 0.84485 0.09778 0.0
O193 O 0.38453 0.77093 0.18206 0.0
O194 O 0.41578 0.79181 0.07852 0.0
C195 C 0.37236 0.77966 0.11958 0.0
O196 O 0.4884 0.68565 0.04239 0.0
O197 O 0.48974 0.71974 0.1478 0.0
O198 O 0.65235 0.78868 0.96368 0.0
O199 O 0.61904 0.71891 0.04175 0.0
H200 H 0.68989 0.67021 1.03079 0.0
H201 H 0.7043 0.61037 0.83042 0.0
H202 H 0.65807 0.74461 0.85032 0.0
O203 O 0.18789 0.68225 0.26695 0.0
Tb204 Tb 0.21022 0.68279 0.1591 0.0
Eu205 Eu 0.23243 0.80672 1.02206 0.0
C206 C 0.22288 0.72482 0.30864 0.0
O207 O 0.27316 0.76682 0.28621 0.0
C208 C 0.11819 0.71354 0.11616 0.0
O209 O 0.2285 0.76556 0.91962 0.0
C210 C 0.25429 0.91107 0.99192 0.0
C211 C 0.27352 0.79638 0.87896 0.0
O212 O 0.31602 0.84667 0.90088 0.0
C213 C 0.31993 0.78174 0.10111 0.0
C214 C 0.29023 0.96058 0.94546 0.0
C215 C 0.32756 0.01492 0.97505 0.0
C216 C 0.36252 0.06283 0.93345 0.0
C217 C 0.36056 0.05677 0.86132 0.0
C218 C 0.32192 0.00311 0.82961 0.0
C219 C 0.28659 0.95511 0.87284 0.0
O220 O 0.13061 0.67159 0.11618 0.0
O221 O 0.15553 0.76782 0.09776 0.0
O222 O 0.22954 0.61374 0.18205 0.0
O223 O 0.20862 0.62409 0.07852 0.0
C224 C 0.22079 0.59283 0.11957 0.0
O225 O 0.31475 0.80287 0.04239 0.0
O226 O 0.28064 0.77012 0.1478 0.0
O227 O 0.21171 0.86377 0.96366 0.0
O228 O 0.28146 0.90023 0.04175 0.0
H229 H 0.33017 0.01977 1.03077 0.0
H230 H 0.39005 0.094 0.8304 0.0
H231 H 0.25578 0.91356 0.85031 0.0
O232 O 0.31814 0.50567 0.26693 0.0
Tb233 Tb 0.31763 0.52749 0.15909 0.0
Eu234 Eu 0.19367 0.42581 1.02207 0.0
C235 C 0.27559 0.49814 0.30862 0.0
O236 O 0.23361 0.50647 0.2862 0.0
C237 C 0.28682 0.4047 0.11614 0.0
O238 O 0.23483 0.46302 0.91963 0.0
C239 C 0.08931 0.34335 0.99193 0.0
C240 C 0.20402 0.47723 0.87897 0.0
O241 O 0.15374 0.46948 0.90089 0.0
C242 C 0.21871 0.53831 0.1011 0.0
C243 C 0.0398 0.32977 0.94548 0.0
C244 C 0.98545 0.31275 0.97506 0.0
C245 C 0.93754 0.29979 0.93345 0.0
C246 C 0.9436 0.30389 0.86133 0.0
C247 C 0.99727 0.31893 0.82962 0.0
C248 C 0.04528 0.33162 0.87285 0.0
O249 O 0.32879 0.45906 0.11614 0.0
O250 O 0.23255 0.3878 0.0978 0.0
O251 O 0.38672 0.61583 0.18207 0.0
O252 O 0.37631 0.5846 0.07851 0.0
C253 C 0.40762 0.628 0.11959 0.0
O254 O 0.19756 0.512 0.04239 0.0
O255 O 0.23032 0.51064 0.1478 0.0
O256 O 0.1366 0.34803 0.96369 0.0
O257 O 0.10015 0.38137 0.04175 0.0
H258 H 0.9806 0.31051 1.03078 0.0
H259 H 0.90637 0.29614 0.8304 0.0
H260 H 0.08683 0.34236 0.85032 0.0
O261 O 0.81263 0.49464 0.3148 0.0
Tb262 Tb 0.7903 0.47283 0.42264 0.0
Eu263 Eu 0.76807 0.5745 0.55967 0.0
C264 C 0.77763 0.50219 0.2731 0.0
O265 O 0.72733 0.49388 0.29551 0.0
C266 C 0.88232 0.59559 0.46558 0.0
O267 O 0.772 0.53728 0.66211 0.0
C268 C 0.7462 0.65698 0.5898 0.0
C269 C 0.72698 0.52308 0.70276 0.0
O270 O 0.68447 0.53086 0.68083 0.0
C271 C 0.68055 0.46202 0.48061 0.0
C272 C 0.71026 0.67056 0.63625 0.0
C273 C 0.67292 0.68756 0.60666 0.0
C274 C 0.63797 0.70052 0.64826 0.0
C275 C 0.63993 0.69644 0.72038 0.0
C276 C 0.67857 0.68142 0.7521 0.0
C277 C 0.7139 0.66873 0.70888 0.0
O278 O 0.8699 0.54122 0.46557 0.0
O279 O 0.84497 0.61252 0.48397 0.0
O280 O 0.77103 0.38448 0.39964 0.0
O281 O 0.79182 0.41569 0.50321 0.0
C282 C 0.7797 0.37228 0.46213 0.0
O283 O 0.68576 0.48833 0.53933 0.0
O284 O 0.71982 0.48967 0.43389 0.0
O285 O 0.78878 0.65227 0.61806 0.0
O286 O 0.71903 0.61897 0.53997 0.0
H287 H 0.67031 0.68979 0.55094 0.0
H288 H 0.61045 0.70419 0.75131 0.0
H289 H 0.74471 0.658 0.73141 0.0
O290 O 0.50571 0.31809 0.31481 0.0
Tb291 Tb 0.52753 0.31758 0.42265 0.0
Eu292 Eu 0.4259 0.19366 0.55965 0.0
C293 C 0.49819 0.27554 0.27311 0.0
O294 O 0.50655 0.23358 0.29551 0.0
C295 C 0.40476 0.28679 0.46559 0.0
O296 O 0.4631 0.2348 0.6621 0.0
C297 C 0.34343 0.08929 0.58978 0.0
C298 C 0.47731 0.20399 0.70275 0.0
O299 O 0.46956 0.15372 0.68081 0.0
C300 C 0.5384 0.21867 0.48061 0.0
C301 C 0.32985 0.03978 0.63623 0.0
C302 C 0.31283 0.98544 0.60665 0.0
C303 C 0.29987 0.93752 0.64825 0.0
C304 C 0.30396 0.94357 0.72038 0.0
C305 C 0.31899 0.99724 0.75209 0.0
C306 C 0.33168 0.04525 0.70886 0.0
O307 O 0.45912 0.32876 0.4656 0.0
O308 O 0.38786 0.23252 0.48393 0.0
O309 O 0.61585 0.3867 0.39963 0.0
O310 O 0.58468 0.37625 0.50322 0.0
C311 C 0.62806 0.40758 0.46211 0.0
O312 O 0.51207 0.19754 0.53932 0.0
O313 O 0.51075 0.23028 0.43389 0.0
O314 O 0.34812 0.13658 0.61802 0.0
O315 O 0.38145 0.10014 0.53996 0.0
H316 H 0.31061 0.98059 0.55092 0.0
H317 H 0.2962 0.90634 0.7513 0.0
H318 H 0.34242 0.0868 0.73139 0.0
O319 O 0.6823 0.18772 0.3148 0.0
Tb320 Tb 0.68282 0.21007 0.42264 0.0
Eu321 Eu 0.80673 0.23233 0.55965 0.0
C322 C 0.72484 0.22274 0.2731 0.0
O323 O 0.7668 0.27306 0.2955 0.0
C324 C 0.7136 0.11806 0.46559 0.0
O325 O 0.76558 0.22837 0.6621 0.0
C326 C 0.9111 0.25423 0.58979 0.0
C327 C 0.79637 0.2734 0.70274 0.0
O328 O 0.84665 0.31593 0.68081 0.0
C329 C 0.78175 0.31982 0.48059 0.0
C330 C 0.96061 0.29017 0.63624 0.0
C331 C 0.01495 0.3275 0.60666 0.0
C332 C 0.06286 0.36246 0.64826 0.0
C333 C 0.0568 0.3605 0.72038 0.0
C334 C 0.00314 0.32187 0.75209 0.0
C335 C 0.95514 0.28654 0.70886 0.0
O336 O 0.67164 0.13047 0.4656 0.0
O337 O 0.76787 0.15543 0.48394 0.0
O338 O 0.61373 0.22931 0.39963 0.0
O339 O 0.62416 0.20855 0.50322 0.0
C340 C 0.59284 0.22062 0.46212 0.0
O341 O 0.80284 0.31462 0.53933 0.0
O342 O 0.77013 0.28056 0.43388 0.0
O343 O 0.86382 0.21163 0.61804 0.0
O344 O 0.90025 0.2814 0.53996 0.0
H345 H 0.0198 0.33012 0.55093 0.0
H346 H 0.09403 0.38998 0.75131 0.0
H347 H 0.91359 0.25573 0.73139 0.0
loop_
_geom_bond_atom_site_label_1
_geom_bond_atom_site_label_2
_geom_bond_distance
_geom_bond_site_symmetry_2
_ccdc_geom_bond_type
O0 Tb1 2.292 . S
O0 C3 1.255 . S
Tb1 O0 2.292 . S
Tb1 O17 2.326 1_556 S
Tb1 O19 2.500 . S
Tb1 O20 2.473 1_556 S
Tb1 O23 2.324 1_556 S
Eu2 O6 2.292 . S
Eu2 C7 2.852 . S
Eu2 O18 2.324 . S
Eu2 O22 2.326 . S
Eu2 O24 2.500 . S
Eu2 O25 2.473 . S
C3 O0 1.255 . S
C3 O4 1.247 . S
O4 C3 1.247 . S
C5 O17 1.242 . S
C5 O18 1.258 . S
O6 Eu2 2.292 . S
O6 C8 1.255 . S
C7 Eu2 2.852 . S
C7 C11 1.503 . S
C7 O24 1.273 . S
C7 O25 1.257 . S
C8 O6 1.255 . S
C8 O9 1.247 . S
O9 C8 1.247 . S
C10 O22 1.242 . S
C10 O23 1.258 . S
C11 C7 1.503 . S
C11 C12 1.379 . S
C11 C16 1.392 . S
C12 C11 1.379 . S
C12 C13 1.404 . S
C12 H26 0.929 . S
C13 C12 1.404 . S
C13 C14 1.389 . S
C14 C13 1.389 . S
C14 C15 1.399 . S
C14 H27 0.931 . S
C15 C14 1.399 . S
C15 C16 1.390 . S
C16 C11 1.392 . S
C16 C15 1.390 . S
C16 H28 0.929 . S
O17 Tb1 2.326 1_554 S
O17 C5 1.242 . S
O18 Eu2 2.324 . S
O18 C5 1.258 . S
O19 Tb1 2.500 . S
O19 C21 1.273 . S
O20 Tb1 2.473 1_554 S
O20 C21 1.257 1_554 S
C21 O19 1.273 . S
C21 O20 1.257 1_556 S
O22 Eu2 2.326 . S
O22 C10 1.242 . S
O23 Tb1 2.324 1_554 S
O23 C10 1.258 . S
O24 Eu2 2.500 . S
O24 C7 1.273 . S
O25 Eu2 2.473 . S
O25 C7 1.257 . S
H26 C12 0.929 . S
H27 C14 0.931 . S
H28 C16 0.929 . S
O29 Tb30 2.292 . S
O29 C32 1.255 . S
Tb30 O29 2.292 . S
Tb30 O46 2.326 1_556 S
Tb30 O48 2.500 . S
Tb30 O49 2.473 1_556 S
Tb30 O52 2.324 1_556 S
Eu31 O35 2.292 . S
Eu31 C36 2.852 . S
Eu31 O47 2.324 . S
Eu31 O51 2.326 . S
Eu31 O53 2.500 . S
Eu31 O54 2.473 . S
C32 O29 1.255 . S
C32 O33 1.247 . S
O33 C32 1.247 . S
C34 O46 1.242 . S
C34 O47 1.258 . S
O35 Eu31 2.292 . S
O35 C37 1.255 . S
C36 Eu31 2.852 . S
C36 C40 1.503 . S
C36 O53 1.273 . S
C36 O54 1.257 . S
C37 O35 1.255 . S
C37 O38 1.247 . S
O38 C37 1.247 . S
C39 O51 1.242 . S
C39 O52 1.258 . S
C40 C36 1.503 . S
C40 C41 1.379 . S
C40 C45 1.392 . S
C41 C40 1.379 . S
C41 C42 1.404 1_545 S
C41 H55 0.929 . S
C42 C41 1.404 1_565 S
C42 C43 1.389 . S
C43 C42 1.389 . S
C43 C44 1.399 . S
C43 H56 0.931 . S
C44 C43 1.399 . S
C44 C45 1.390 1_565 S
C45 C40 1.392 . S
C45 C44 1.390 1_545 S
C45 H57 0.929 . S
O46 Tb30 2.326 1_554 S
O46 C34 1.242 . S
O47 Eu31 2.324 . S
O47 C34 1.258 . S
O48 Tb30 2.500 . S
O48 C50 1.273 . S
O49 Tb30 2.473 1_554 S
O49 C50 1.257 1_554 S
C50 O48 1.273 . S
C50 O49 1.257 1_556 S
O51 Eu31 2.326 . S
O51 C39 1.242 . S
O52 Tb30 2.324 1_554 S
O52 C39 1.258 . S
O53 Eu31 2.500 . S
O53 C36 1.273 . S
O54 Eu31 2.473 . S
O54 C36 1.257 . S
H55 C41 0.929 . S
H56 C43 0.931 . S
H57 C45 0.929 . S
O58 Tb59 2.292 . S
O58 C61 1.255 . S
Tb59 O58 2.292 . S
Tb59 O75 2.326 1_556 S
Tb59 O77 2.500 . S
Tb59 O78 2.473 1_556 S
Tb59 O81 2.324 1_556 S
Eu60 O64 2.292 . S
Eu60 C65 2.852 . S
Eu60 O76 2.324 . S
Eu60 O80 2.326 . S
Eu60 O82 2.500 . S
Eu60 O83 2.473 . S
C61 O58 1.255 . S
C61 O62 1.247 . S
O62 C61 1.247 . S
C63 O75 1.242 . S
C63 O76 1.258 . S
O64 Eu60 2.292 . S
O64 C66 1.255 . S
C65 Eu60 2.852 . S
C65 C69 1.503 . S
C65 O82 1.273 . S
C65 O83 1.257 . S
C66 O64 1.255 . S
C66 O67 1.247 . S
O67 C66 1.247 . S
C68 O80 1.242 . S
C68 O81 1.258 . S
C69 C65 1.503 . S
C69 C70 1.379 . S
C69 C74 1.392 . S
C70 C69 1.379 . S
C70 C71 1.404 1_655 S
C70 H84 0.929 . S
C71 C70 1.404 1_455 S
C71 C72 1.389 . S
C72 C71 1.389 . S
C72 C73 1.399 . S
C72 H85 0.931 . S
C73 C72 1.399 . S
C73 C74 1.390 1_455 S
C74 C69 1.392 . S
C74 C73 1.390 1_655 S
C74 H86 0.929 . S
O75 Tb59 2.326 1_554 S
O75 C63 1.242 . S
O76 Eu60 2.324 . S
O76 C63 1.258 . S
O77 Tb59 2.500 . S
O77 C79 1.273 . S
O78 Tb59 2.473 1_554 S
O78 C79 1.257 1_554 S
C79 O77 1.273 . S
C79 O78 1.257 1_556 S
O80 Eu60 2.326 . S
O80 C68 1.242 . S
O81 Tb59 2.324 1_554 S
O81 C68 1.258 . S
O82 Eu60 2.500 . S
O82 C65 1.273 . S
O83 Eu60 2.473 . S
O83 C65 1.257 . S
H84 C70 0.929 . S
H85 C72 0.931 . S
H86 C74 0.929 . S
O87 Tb88 2.292 . S
O87 C90 1.255 . S
Tb88 O87 2.292 . S
Tb88 O104 2.326 . S
Tb88 O106 2.500 . S
Tb88 O107 2.473 . S
Tb88 O110 2.324 . S
Eu89 O93 2.292 . S
Eu89 C94 2.852 . S
Eu89 O105 2.324 . S
Eu89 O109 2.326 . S
Eu89 O111 2.500 . S
Eu89 O112 2.473 . S
C90 O87 1.255 . S
C90 O91 1.247 . S
O91 C90 1.247 . S
C92 O104 1.242 . S
C92 O105 1.258 . S
O93 Eu89 2.292 . S
O93 C95 1.255 . S
C94 Eu89 2.852 . S
C94 C98 1.503 . S
C94 O111 1.273 . S
C94 O112 1.257 . S
C95 O93 1.255 . S
C95 O96 1.247 . S
O96 C95 1.247 . S
C97 O109 1.242 . S
C97 O110 1.258 . S
C98 C94 1.503 . S
C98 C99 1.379 . S
C98 C103 1.392 . S
C99 C98 1.379 . S
C99 C100 1.404 . S
C99 H113 0.929 . S
C100 C99 1.404 . S
C100 C101 1.389 . S
C101 C100 1.389 . S
C101 C102 1.399 . S
C101 H114 0.931 . S
C102 C101 1.399 . S
C102 C103 1.390 . S
C103 C98 1.392 . S
C103 C102 1.390 . S
C103 H115 0.929 . S
O104 Tb88 2.326 . S
O104 C92 1.242 . S
O105 Eu89 2.324 . S
O105 C92 1.258 . S
O106 Tb88 2.500 . S
O106 C108 1.273 . S
O107 Tb88 2.473 . S
O107 C108 1.257 . S
C108 O106 1.273 . S
C108 O107 1.257 . S
O109 Eu89 2.326 . S
O109 C97 1.242 . S
O110 Tb88 2.324 . S
O110 C97 1.258 . S
O111 Eu89 2.500 . S
O111 C94 1.273 . S
O112 Eu89 2.473 . S
O112 C94 1.257 . S
H113 C99 0.929 . S
H114 C101 0.931 . S
H115 C103 0.929 . S
O116 Tb117 2.292 . S
O116 C119 1.255 . S
Tb117 O116 2.292 . S
Tb117 O133 2.326 . S
Tb117 O135 2.500 . S
Tb117 O136 2.473 . S
Tb117 O139 2.324 . S
Eu118 O122 2.292 . S
Eu118 C123 2.852 . S
Eu118 O134 2.324 . S
Eu118 O138 2.326 . S
Eu118 O140 2.500 . S
Eu118 O141 2.473 . S
C119 O116 1.255 . S
C119 O120 1.247 . S
O120 C119 1.247 . S
C121 O133 1.242 . S
C121 O134 1.258 . S
O122 Eu118 2.292 . S
O122 C124 1.255 . S
C123 Eu118 2.852 . S
C123 C127 1.503 . S
C123 O140 1.273 . S
C123 O141 1.257 . S
C124 O122 1.255 . S
C124 O125 1.247 . S
O125 C124 1.247 . S
C126 O138 1.242 . S
C126 O139 1.258 . S
C127 C123 1.503 . S
C127 C128 1.379 . S
C127 C132 1.392 . S
C128 C127 1.379 . S
C128 C129 1.404 1_565 S
C128 H142 0.929 . S
C129 C128 1.404 1_545 S
C129 C130 1.389 . S
C130 C129 1.389 . S
C130 C131 1.399 . S
C130 H143 0.931 . S
C131 C130 1.399 . S
C131 C132 1.390 1_545 S
C132 C127 1.392 . S
C132 C131 1.390 1_565 S
C132 H144 0.929 . S
O133 Tb117 2.326 . S
O133 C121 1.242 . S
O134 Eu118 2.324 . S
O134 C121 1.258 . S
O135 Tb117 2.500 . S
O135 C137 1.273 . S
O136 Tb117 2.473 . S
O136 C137 1.257 . S
C137 O135 1.273 . S
C137 O136 1.257 . S
O138 Eu118 2.326 . S
O138 C126 1.242 . S
O139 Tb117 2.324 . S
O139 C126 1.258 . S
O140 Eu118 2.500 . S
O140 C123 1.273 . S
O141 Eu118 2.473 . S
O141 C123 1.257 . S
H142 C128 0.929 . S
H143 C130 0.931 . S
H144 C132 0.929 . S
O145 Tb146 2.292 . S
O145 C148 1.255 . S
Tb146 O145 2.292 . S
Tb146 O162 2.326 . S
Tb146 O164 2.500 . S
Tb146 O165 2.473 . S
Tb146 O168 2.324 . S
Eu147 O151 2.292 . S
Eu147 C152 2.852 . S
Eu147 O163 2.324 . S
Eu147 O167 2.326 . S
Eu147 O169 2.500 . S
Eu147 O170 2.473 . S
C148 O145 1.255 . S
C148 O149 1.247 . S
O149 C148 1.247 . S
C150 O162 1.242 . S
C150 O163 1.258 . S
O151 Eu147 2.292 . S
O151 C153 1.255 . S
C152 Eu147 2.852 . S
C152 C156 1.503 . S
C152 O169 1.273 . S
C152 O170 1.257 . S
C153 O151 1.255 . S
C153 O154 1.247 . S
O154 C153 1.247 . S
C155 O167 1.242 . S
C155 O168 1.258 . S
C156 C152 1.503 . S
C156 C157 1.379 . S
C156 C161 1.392 . S
C157 C156 1.379 . S
C157 C158 1.404 1_455 S
C157 H171 0.929 . S
C158 C157 1.404 1_655 S
C158 C159 1.389 . S
C159 C158 1.389 . S
C159 C160 1.399 . S
C159 H172 0.931 . S
C160 C159 1.399 . S
C160 C161 1.390 1_655 S
C161 C156 1.392 . S
C161 C160 1.390 1_455 S
C161 H173 0.929 . S
O162 Tb146 2.326 . S
O162 C150 1.242 . S
O163 Eu147 2.324 . S
O163 C150 1.258 . S
O164 Tb146 2.500 . S
O164 C166 1.273 . S
O165 Tb146 2.473 . S
O165 C166 1.257 . S
C166 O164 1.273 . S
C166 O165 1.257 . S
O167 Eu147 2.326 . S
O167 C155 1.242 . S
O168 Tb146 2.324 . S
O168 C155 1.258 . S
O169 Eu147 2.500 . S
O169 C152 1.273 . S
O170 Eu147 2.473 . S
O170 C152 1.257 . S
H171 C157 0.929 . S
H172 C159 0.931 . S
H173 C161 0.929 . S
O174 Tb175 2.292 . S
O174 C177 1.255 . S
Tb175 O174 2.292 . S
Tb175 O191 2.326 1_554 S
Tb175 O193 2.500 . S
Tb175 O194 2.473 1_554 S
Tb175 O197 2.324 1_554 S
Eu176 O180 2.292 . S
Eu176 C181 2.852 . S
Eu176 O192 2.324 . S
Eu176 O196 2.326 . S
Eu176 O198 2.500 . S
Eu176 O199 2.473 . S
C177 O174 1.255 . S
C177 O178 1.247 . S
O178 C177 1.247 . S
C179 O191 1.242 . S
C179 O192 1.258 . S
O180 Eu176 2.292 . S
O180 C182 1.255 . S
C181 Eu176 2.852 . S
C181 C185 1.503 . S
C181 O198 1.273 . S
C181 O199 1.257 . S
C182 O180 1.255 . S
C182 O183 1.247 . S
O183 C182 1.247 . S
C184 O196 1.242 . S
C184 O197 1.258 . S
C185 C181 1.503 . S
C185 C186 1.379 . S
C185 C190 1.392 . S
C186 C185 1.379 . S
C186 C187 1.404 . S
C186 H200 0.929 . S
C187 C186 1.404 . S
C187 C188 1.389 . S
C188 C187 1.389 . S
C188 C189 1.399 . S
C188 H201 0.931 . S
C189 C188 1.399 . S
C189 C190 1.390 . S
C190 C185 1.392 . S
C190 C189 1.390 . S
C190 H202 0.929 . S
O191 Tb175 2.326 1_556 S
O191 C179 1.242 . S
O192 Eu176 2.324 . S
O192 C179 1.258 . S
O193 Tb175 2.500 . S
O193 C195 1.273 . S
O194 Tb175 2.473 1_556 S
O194 C195 1.257 1_556 S
C195 O193 1.273 . S
C195 O194 1.257 1_554 S
O196 Eu176 2.326 . S
O196 C184 1.242 . S
O197 Tb175 2.324 1_556 S
O197 C184 1.258 . S
O198 Eu176 2.500 . S
O198 C181 1.273 . S
O199 Eu176 2.473 . S
O199 C181 1.257 . S
H200 C186 0.929 . S
H201 C188 0.931 . S
H202 C190 0.929 . S
O203 Tb204 2.292 . S
O203 C206 1.255 . S
Tb204 O203 2.292 . S
Tb204 O220 2.326 1_554 S
Tb204 O222 2.500 . S
Tb204 O223 2.473 1_554 S
Tb204 O226 2.324 1_554 S
Eu205 O209 2.292 . S
Eu205 C210 2.852 . S
Eu205 O221 2.324 . S
Eu205 O225 2.326 . S
Eu205 O227 2.500 . S
Eu205 O228 2.473 . S
C206 O203 1.255 . S
C206 O207 1.247 . S
O207 C206 1.247 . S
C208 O220 1.242 . S
C208 O221 1.258 . S
O209 Eu205 2.292 . S
O209 C211 1.255 . S
C210 Eu205 2.852 . S
C210 C214 1.503 . S
C210 O227 1.273 . S
C210 O228 1.257 . S
C211 O209 1.255 . S
C211 O212 1.247 . S
O212 C211 1.247 . S
C213 O225 1.242 . S
C213 O226 1.258 . S
C214 C210 1.503 . S
C214 C215 1.379 . S
C214 C219 1.392 . S
C215 C214 1.379 . S
C215 C216 1.404 1_565 S
C215 H229 0.929 . S
C216 C215 1.404 1_545 S
C216 C217 1.389 . S
C217 C216 1.389 . S
C217 C218 1.399 . S
C217 H230 0.931 . S
C218 C217 1.399 . S
C218 C219 1.390 1_545 S
C219 C214 1.392 . S
C219 C218 1.390 1_565 S
C219 H231 0.929 . S
O220 Tb204 2.326 1_556 S
O220 C208 1.242 . S
O221 Eu205 2.324 . S
O221 C208 1.258 . S
O222 Tb204 2.500 . S
O222 C224 1.273 . S
O223 Tb204 2.473 1_556 S
O223 C224 1.257 1_556 S
C224 O222 1.273 . S
C224 O223 1.257 1_554 S
O225 Eu205 2.326 . S
O225 C213 1.242 . S
O226 Tb204 2.324 1_556 S
O226 C213 1.258 . S
O227 Eu205 2.500 . S
O227 C210 1.273 . S
O228 Eu205 2.473 . S
O228 C210 1.257 . S
H229 C215 0.929 . S
H230 C217 0.931 . S
H231 C219 0.929 . S
O232 Tb233 2.292 . S
O232 C235 1.255 . S
Tb233 O232 2.292 . S
Tb233 O249 2.326 1_554 S
Tb233 O251 2.500 . S
Tb233 O252 2.473 1_554 S
Tb233 O255 2.324 1_554 S
Eu234 O238 2.292 . S
Eu234 C239 2.852 . S
Eu234 O250 2.324 . S
Eu234 O254 2.326 . S
Eu234 O256 2.500 . S
Eu234 O257 2.473 . S
C235 O232 1.255 . S
C235 O236 1.247 . S
O236 C235 1.247 . S
C237 O249 1.242 . S
C237 O250 1.258 . S
O238 Eu234 2.292 . S
O238 C240 1.255 . S
C239 Eu234 2.852 . S
C239 C243 1.503 . S
C239 O256 1.273 . S
C239 O257 1.257 . S
C240 O238 1.255 . S
C240 O241 1.247 . S
O241 C240 1.247 . S
C242 O254 1.242 . S
C242 O255 1.258 . S
C243 C239 1.503 . S
C243 C244 1.379 . S
C243 C248 1.392 . S
C244 C243 1.379 . S
C244 C245 1.404 1_455 S
C244 H258 0.929 . S
C245 C244 1.404 1_655 S
C245 C246 1.389 . S
C246 C245 1.389 . S
C246 C247 1.399 . S
C246 H259 0.931 . S
C247 C246 1.399 . S
C247 C248 1.390 1_655 S
C248 C243 1.392 . S
C248 C247 1.390 1_455 S
C248 H260 0.929 . S
O249 Tb233 2.326 1_556 S
O249 C237 1.242 . S
O250 Eu234 2.324 . S
O250 C237 1.258 . S
O251 Tb233 2.500 . S
O251 C253 1.273 . S
O252 Tb233 2.473 1_556 S
O252 C253 1.257 1_556 S
C253 O251 1.273 . S
C253 O252 1.257 1_554 S
O254 Eu234 2.326 . S
O254 C242 1.242 . S
O255 Tb233 2.324 1_556 S
O255 C242 1.258 . S
O256 Eu234 2.500 . S
O256 C239 1.273 . S
O257 Eu234 2.473 . S
O257 C239 1.257 . S
H258 C244 0.929 . S
H259 C246 0.931 . S
H260 C248 0.929 . S
O261 Tb262 2.292 . S
O261 C264 1.255 . S
Tb262 O261 2.292 . S
Tb262 O278 2.326 . S
Tb262 O280 2.500 . S
Tb262 O281 2.473 . S
Tb262 O284 2.324 . S
Eu263 O267 2.292 . S
Eu263 C268 2.852 . S
Eu263 O279 2.324 . S
Eu263 O283 2.326 . S
Eu263 O285 2.500 . S
Eu263 O286 2.473 . S
C264 O261 1.255 . S
C264 O265 1.247 . S
O265 C264 1.247 . S
C266 O278 1.242 . S
C266 O279 1.258 . S
O267 Eu263 2.292 . S
O267 C269 1.255 . S
C268 Eu263 2.852 . S
C268 C272 1.503 . S
C268 O285 1.273 . S
C268 O286 1.257 . S
C269 O267 1.255 . S
C269 O270 1.247 . S
O270 C269 1.247 . S
C271 O283 1.242 . S
C271 O284 1.258 . S
C272 C268 1.503 . S
C272 C273 1.379 . S
C272 C277 1.392 . S
C273 C272 1.379 . S
C273 C274 1.404 . S
C273 H287 0.929 . S
C274 C273 1.404 . S
C274 C275 1.389 . S
C275 C274 1.389 . S
C275 C276 1.399 . S
C275 H288 0.931 . S
C276 C275 1.399 . S
C276 C277 1.390 . S
C277 C272 1.392 . S
C277 C276 1.390 . S
C277 H289 0.929 . S
O278 Tb262 2.326 . S
O278 C266 1.242 . S
O279 Eu263 2.324 . S
O279 C266 1.258 . S
O280 Tb262 2.500 . S
O280 C282 1.273 . S
O281 Tb262 2.473 . S
O281 C282 1.257 . S
C282 O280 1.273 . S
C282 O281 1.257 . S
O283 Eu263 2.326 . S
O283 C271 1.242 . S
O284 Tb262 2.324 . S
O284 C271 1.258 . S
O285 Eu263 2.500 . S
O285 C268 1.273 . S
O286 Eu263 2.473 . S
O286 C268 1.257 . S
H287 C273 0.929 . S
H288 C275 0.931 . S
H289 C277 0.929 . S
O290 Tb291 2.292 . S
O290 C293 1.255 . S
Tb291 O290 2.292 . S
Tb291 O307 2.326 . S
Tb291 O309 2.500 . S
Tb291 O310 2.473 . S
Tb291 O313 2.324 . S
Eu292 O296 2.292 . S
Eu292 C297 2.852 . S
Eu292 O308 2.324 . S
Eu292 O312 2.326 . S
Eu292 O314 2.500 . S
Eu292 O315 2.473 . S
C293 O290 1.255 . S
C293 O294 1.247 . S
O294 C293 1.247 . S
C295 O307 1.242 . S
C295 O308 1.258 . S
O296 Eu292 2.292 . S
O296 C298 1.255 . S
C297 Eu292 2.852 . S
C297 C301 1.503 . S
C297 O314 1.273 . S
C297 O315 1.257 . S
C298 O296 1.255 . S
C298 O299 1.247 . S
O299 C298 1.247 . S
C300 O312 1.242 . S
C300 O313 1.258 . S
C301 C297 1.503 . S
C301 C302 1.379 . S
C301 C306 1.392 . S
C302 C301 1.379 . S
C302 C303 1.404 1_545 S
C302 H316 0.929 . S
C303 C302 1.404 1_565 S
C303 C304 1.389 . S
C304 C303 1.389 . S
C304 C305 1.399 . S
C304 H317 0.931 . S
C305 C304 1.399 . S
C305 C306 1.390 1_565 S
C306 C301 1.392 . S
C306 C305 1.390 1_545 S
C306 H318 0.929 . S
O307 Tb291 2.326 . S
O307 C295 1.242 . S
O308 Eu292 2.324 . S
O308 C295 1.258 . S
O309 Tb291 2.500 . S
O309 C311 1.273 . S
O310 Tb291 2.473 . S
O310 C311 1.257 . S
C311 O309 1.273 . S
C311 O310 1.257 . S
O312 Eu292 2.326 . S
O312 C300 1.242 . S
O313 Tb291 2.324 . S
O313 C300 1.258 . S
O314 Eu292 2.500 . S
O314 C297 1.273 . S
O315 Eu292 2.473 . S
O315 C297 1.257 . S
H316 C302 0.929 . S
H317 C304 0.931 . S
H318 C306 0.929 . S
O319 Tb320 2.292 . S
O319 C322 1.255 . S
Tb320 O319 2.292 . S
Tb320 O336 2.326 . S
Tb320 O338 2.500 . S
Tb320 O339 2.473 . S
Tb320 O342 2.324 . S
Eu321 O325 2.292 . S
Eu321 C326 2.852 . S
Eu321 O337 2.324 . S
Eu321 O341 2.326 . S
Eu321 O343 2.500 . S
Eu321 O344 2.473 . S
C322 O319 1.255 . S
C322 O323 1.247 . S
O323 C322 1.247 . S
C324 O336 1.242 . S
C324 O337 1.258 . S
O325 Eu321 2.292 . S
O325 C327 1.255 . S
C326 Eu321 2.852 . S
C326 C330 1.503 . S
C326 O343 1.273 . S
C326 O344 1.257 . S
C327 O325 1.255 . S
C327 O328 1.247 . S
O328 C327 1.247 . S
C329 O341 1.242 . S
C329 O342 1.258 . S
C330 C326 1.503 . S
C330 C331 1.379 . S
C330 C335 1.392 . S
C331 C330 1.379 . S
C331 C332 1.404 1_655 S
C331 H345 0.929 . S
C332 C331 1.404 1_455 S
C332 C333 1.389 . S
C333 C332 1.389 . S
C333 C334 1.399 . S
C333 H346 0.931 . S
C334 C333 1.399 . S
C334 C335 1.390 1_455 S
C335 C330 1.392 . S
C335 C334 1.390 1_655 S
C335 H347 0.929 . S
O336 Tb320 2.326 . S
O336 C324 1.242 . S
O337 Eu321 2.324 . S
O337 C324 1.258 . S
O338 Tb320 2.500 . S
O338 C340 1.273 . S
O339 Tb320 2.473 . S
O339 C340 1.257 . S
C340 O338 1.273 . S
C340 O339 1.257 . S
O341 Eu321 2.326 . S
O341 C329 1.242 . S
O342 Tb320 2.324 . S
O342 C329 1.258 . S
O343 Eu321 2.500 . S
O343 C326 1.273 . S
O344 Eu321 2.473 . S
O344 C326 1.257 . S
H345 C331 0.929 . S
H346 C333 0.931 . S
H347 C335 0.929 . S
C216 C5 3.031 1_556 S
C34 C245 3.031 1_554 S
C63 C187 3.031 1_554 S
C92 C332 3.031 . S
C274 C121 3.031 . S
C150 C303 3.031 . S
C179 C42 3.031 1_556 S
C208 C71 3.031 1_556 S
C13 C237 3.031 1_554 S
C266 C158 3.031 . S
C295 C100 3.031 . S
C129 C324 3.031 . S
C15 C102 4.232 . S
C44 C131 4.232 1_565 S
C73 C160 4.232 1_455 S
C276 C189 4.232 . S
C305 C218 4.232 1_565 S
C334 C247 4.232 1_455 S
C21 C39 2.975 1_556 S
C50 C68 2.975 1_556 S
C79 C10 2.975 1_556 S
C155 C108 2.975 . S
C137 C97 2.975 . S
C126 C166 2.975 . S
C213 C195 2.975 1_556 S
C224 C242 2.975 1_554 S
C253 C184 2.975 1_554 S
C282 C329 2.975 . S
C311 C271 2.975 . S
C340 C300 2.975 . S
C298 C3 2.342 . S
C327 C32 2.342 . S
C61 C269 2.342 . S
C90 C240 2.342 . S
C119 C182 2.342 . S
C211 C148 2.342 . S
C177 C124 2.342 . S
C206 C153 2.342 . S
C235 C95 2.342 . S
C264 C66 2.342 . S
C293 C8 2.342 . S
C322 C37 2.342 . S
