# Generated by pormake.
# Topology uka, (4)-cn, num edge types: 1
# Building blocks:
#     Node 0, Type 0, BuildingBlock: NAHDIM_clean_sbu_0, # of connection points: 4
#     Node 1, Type 0, BuildingBlock: NAHDIM_clean_sbu_0, # of connection points: 4
#     Node 2, Type 0, BuildingBlock: NAHDIM_clean_sbu_0, # of connection points: 4
#     Node 3, Type 0, BuildingBlock: NAHDIM_clean_sbu_0, # of connection points: 4
#     Node 4, Type 0, BuildingBlock: NAHDIM_clean_sbu_0, # of connection points: 4
#     Node 5, Type 0, BuildingBlock: NAHDIM_clean_sbu_0, # of connection points: 4
#     Node 6, Type 0, BuildingBlock: NAHDIM_clean_sbu_0, # of connection points: 4
#     Node 7, Type 0, BuildingBlock: NAHDIM_clean_sbu_0, # of connection points: 4
#     Node 8, Type 0, BuildingBlock: NAHDIM_clean_sbu_0, # of connection points: 4
#     Node 9, Type 0, BuildingBlock: NAHDIM_clean_sbu_0, # of connection points: 4
#     Node 10, Type 0, BuildingBlock: NAHDIM_clean_sbu_0, # of connection points: 4
#     Node 11, Type 0, BuildingBlock: NAHDIM_clean_sbu_0, # of connection points: 4
#     Node 12, Type 0, BuildingBlock: NAHDIM_clean_sbu_0, # of connection points: 4
#     Node 13, Type 0, BuildingBlock: NAHDIM_clean_sbu_0, # of connection points: 4
#     Node 14, Type 0, BuildingBlock: NAHDIM_clean_sbu_0, # of connection points: 4
#     Node 15, Type 0, BuildingBlock: NAHDIM_clean_sbu_0, # of connection points: 4
#     Node 16, Type 0, BuildingBlock: NAHDIM_clean_sbu_0, # of connection points: 4
#     Node 17, Type 0, BuildingBlock: NAHDIM_clean_sbu_0, # of connection points: 4
#     Node 18, Type 0, BuildingBlock: NAHDIM_clean_sbu_0, # of connection points: 4
#     Node 19, Type 0, BuildingBlock: NAHDIM_clean_sbu_0, # of connection points: 4
#     Node 20, Type 0, BuildingBlock: NAHDIM_clean_sbu_0, # of connection points: 4
#     Node 21, Type 0, BuildingBlock: NAHDIM_clean_sbu_0, # of connection points: 4
#     Node 22, Type 0, BuildingBlock: NAHDIM_clean_sbu_0, # of connection points: 4
#     Node 23, Type 0, BuildingBlock: NAHDIM_clean_sbu_0, # of connection points: 4
#     Node 24, Type 0, BuildingBlock: NAHDIM_clean_sbu_0, # of connection points: 4
#     Node 25, Type 0, BuildingBlock: NAHDIM_clean_sbu_0, # of connection points: 4
#     Node 26, Type 0, BuildingBlock: NAHDIM_clean_sbu_0, # of connection points: 4
#     Node 27, Type 0, BuildingBlock: NAHDIM_clean_sbu_0, # of connection points: 4
#     Node 28, Type 0, BuildingBlock: NAHDIM_clean_sbu_0, # of connection points: 4
#     Node 29, Type 0, BuildingBlock: NAHDIM_clean_sbu_0, # of connection points: 4
#     Node 30, Type 0, BuildingBlock: NAHDIM_clean_sbu_0, # of connection points: 4
#     Node 31, Type 0, BuildingBlock: NAHDIM_clean_sbu_0, # of connection points: 4
#     Edge 32, Type (0, 0), BuildingBlock: XUDNAN_clean_linker_2, # of connection points: 2
#     Edge 33, Type (0, 0), BuildingBlock: XUDNAN_clean_linker_2, # of connection points: 2
#     Edge 34, Type (0, 0), BuildingBlock: XUDNAN_clean_linker_2, # of connection points: 2
#     Edge 35, Type (0, 0), BuildingBlock: XUDNAN_clean_linker_2, # of connection points: 2
#     Edge 36, Type (0, 0), BuildingBlock: XUDNAN_clean_linker_2, # of connection points: 2
#     Edge 37, Type (0, 0), BuildingBlock: XUDNAN_clean_linker_2, # of connection points: 2
#     Edge 38, Type (0, 0), BuildingBlock: XUDNAN_clean_linker_2, # of connection points: 2
#     Edge 39, Type (0, 0), BuildingBlock: XUDNAN_clean_linker_2, # of connection points: 2
#     Edge 40, Type (0, 0), BuildingBlock: XUDNAN_clean_linker_2, # of connection points: 2
#     Edge 41, Type (0, 0), BuildingBlock: XUDNAN_clean_linker_2, # of connection points: 2
#     Edge 42, Type (0, 0), BuildingBlock: XUDNAN_clean_linker_2, # of connection points: 2
#     Edge 43, Type (0, 0), BuildingBlock: XUDNAN_clean_linker_2, # of connection points: 2
#     Edge 44, Type (0, 0), BuildingBlock: XUDNAN_clean_linker_2, # of connection points: 2
#     Edge 45, Type (0, 0), BuildingBlock: XUDNAN_clean_linker_2, # of connection points: 2
#     Edge 46, Type (0, 0), BuildingBlock: XUDNAN_clean_linker_2, # of connection points: 2
#     Edge 47, Type (0, 0), BuildingBlock: XUDNAN_clean_linker_2, # of connection points: 2
#     Edge 48, Type (0, 0), BuildingBlock: XUDNAN_clean_linker_2, # of connection points: 2
#     Edge 49, Type (0, 0), BuildingBlock: XUDNAN_clean_linker_2, # of connection points: 2
#     Edge 50, Type (0, 0), BuildingBlock: XUDNAN_clean_linker_2, # of connection points: 2
#     Edge 51, Type (0, 0), BuildingBlock: XUDNAN_clean_linker_2, # of connection points: 2
#     Edge 52, Type (0, 0), BuildingBlock: XUDNAN_clean_linker_2, # of connection points: 2
#     Edge 53, Type (0, 0), BuildingBlock: XUDNAN_clean_linker_2, # of connection points: 2
#     Edge 54, Type (0, 0), BuildingBlock: XUDNAN_clean_linker_2, # of connection points: 2
#     Edge 55, Type (0, 0), BuildingBlock: XUDNAN_clean_linker_2, # of connection points: 2
#     Edge 56, Type (0, 0), BuildingBlock: XUDNAN_clean_linker_2, # of connection points: 2
#     Edge 57, Type (0, 0), BuildingBlock: XUDNAN_clean_linker_2, # of connection points: 2
#     Edge 58, Type (0, 0), BuildingBlock: XUDNAN_clean_linker_2, # of connection points: 2
#     Edge 59, Type (0, 0), BuildingBlock: XUDNAN_clean_linker_2, # of connection points: 2
#     Edge 60, Type (0, 0), BuildingBlock: XUDNAN_clean_linker_2, # of connection points: 2
#     Edge 61, Type (0, 0), BuildingBlock: XUDNAN_clean_linker_2, # of connection points: 2
#     Edge 62, Type (0, 0), BuildingBlock: XUDNAN_clean_linker_2, # of connection points: 2
#     Edge 63, Type (0, 0), BuildingBlock: XUDNAN_clean_linker_2, # of connection points: 2
#     Edge 64, Type (0, 0), BuildingBlock: XUDNAN_clean_linker_2, # of connection points: 2
#     Edge 65, Type (0, 0), BuildingBlock: XUDNAN_clean_linker_2, # of connection points: 2
#     Edge 66, Type (0, 0), BuildingBlock: XUDNAN_clean_linker_2, # of connection points: 2
#     Edge 67, Type (0, 0), BuildingBlock: XUDNAN_clean_linker_2, # of connection points: 2
#     Edge 68, Type (0, 0), BuildingBlock: XUDNAN_clean_linker_2, # of connection points: 2
#     Edge 69, Type (0, 0), BuildingBlock: XUDNAN_clean_linker_2, # of connection points: 2
#     Edge 70, Type (0, 0), BuildingBlock: XUDNAN_clean_linker_2, # of connection points: 2
#     Edge 71, Type (0, 0), BuildingBlock: XUDNAN_clean_linker_2, # of connection points: 2
#     Edge 72, Type (0, 0), BuildingBlock: XUDNAN_clean_linker_2, # of connection points: 2
#     Edge 73, Type (0, 0), BuildingBlock: XUDNAN_clean_linker_2, # of connection points: 2
#     Edge 74, Type (0, 0), BuildingBlock: XUDNAN_clean_linker_2, # of connection points: 2
#     Edge 75, Type (0, 0), BuildingBlock: XUDNAN_clean_linker_2, # of connection points: 2
#     Edge 76, Type (0, 0), BuildingBlock: XUDNAN_clean_linker_2, # of connection points: 2
#     Edge 77, Type (0, 0), BuildingBlock: XUDNAN_clean_linker_2, # of connection points: 2
#     Edge 78, Type (0, 0), BuildingBlock: XUDNAN_clean_linker_2, # of connection points: 2
#     Edge 79, Type (0, 0), BuildingBlock: XUDNAN_clean_linker_2, # of connection points: 2
#     Edge 80, Type (0, 0), BuildingBlock: XUDNAN_clean_linker_2, # of connection points: 2
#     Edge 81, Type (0, 0), BuildingBlock: XUDNAN_clean_linker_2, # of connection points: 2
#     Edge 82, Type (0, 0), BuildingBlock: XUDNAN_clean_linker_2, # of connection points: 2
#     Edge 83, Type (0, 0), BuildingBlock: XUDNAN_clean_linker_2, # of connection points: 2
#     Edge 84, Type (0, 0), BuildingBlock: XUDNAN_clean_linker_2, # of connection points: 2
#     Edge 85, Type (0, 0), BuildingBlock: XUDNAN_clean_linker_2, # of connection points: 2
#     Edge 86, Type (0, 0), BuildingBlock: XUDNAN_clean_linker_2, # of connection points: 2
#     Edge 87, Type (0, 0), BuildingBlock: XUDNAN_clean_linker_2, # of connection points: 2
#     Edge 88, Type (0, 0), BuildingBlock: XUDNAN_clean_linker_2, # of connection points: 2
#     Edge 89, Type (0, 0), BuildingBlock: XUDNAN_clean_linker_2, # of connection points: 2
#     Edge 90, Type (0, 0), BuildingBlock: XUDNAN_clean_linker_2, # of connection points: 2
#     Edge 91, Type (0, 0), BuildingBlock: XUDNAN_clean_linker_2, # of connection points: 2
#     Edge 92, Type (0, 0), BuildingBlock: XUDNAN_clean_linker_2, # of connection points: 2
#     Edge 93, Type (0, 0), BuildingBlock: XUDNAN_clean_linker_2, # of connection points: 2
#     Edge 94, Type (0, 0), BuildingBlock: XUDNAN_clean_linker_2, # of connection points: 2
#     Edge 95, Type (0, 0), BuildingBlock: XUDNAN_clean_linker_2, # of connection points: 2
# Relax obj value: 0.247
# Max RMSD: 0.250
# Mean RMSD: 0.250
data_MOF--net-uka--node1-NAHDIM_clean_sbu_0--edge1-XUDNAN_clean_linker_2
_symmetry_space_group_name_H-M    P1
_symmetry_Int_Tables_number       1
_symmetry_cell_setting            triclinic
loop_
_symmetry_equiv_pos_as_xyz
'x, y, z'
_cell_length_a     59.885034
_cell_length_b     59.925288
_cell_length_c     40.983804
_cell_angle_alpha  90.008267
_cell_angle_beta   89.995826
_cell_angle_gamma 89.974302
loop_
_atom_site_label
_atom_site_type_symbol
_atom_site_fract_x
_atom_site_fract_y
_atom_site_fract_z
_atom_type_partial_charge
C0 C 0.1894 0.30458 0.28306 0.0
O1 O 0.18056 0.31622 0.30695 0.0
O2 O 0.12929 0.27178 0.26317 0.0
Zn3 Zn 0.14348 0.30214 0.26129 0.0
O4 O 0.13016 0.3188 0.22304 0.0
C5 C 0.13057 0.30573 0.32837 0.0
O6 O 0.13529 0.28433 0.32758 0.0
O7 O 0.17701 0.29818 0.25966 0.0
C8 C 0.10947 0.32294 0.22668 0.0
O9 O 0.0996 0.31638 0.25366 0.0
C10 C 0.1398 0.25338 0.26176 0.0
O11 O 0.16131 0.25344 0.2555 0.0
O12 O 0.13387 0.3175 0.30299 0.0
C13 C 0.99439 0.91303 0.48132 0.0
O14 O 0.99302 0.90735 0.51222 0.0
O15 O -0.00022 0.85095 0.49181 0.0
Zn16 Zn 0.97479 0.87048 0.4758 0.0
O17 O 0.95628 0.8549 0.44171 0.0
C18 C 0.93541 0.87117 0.51782 0.0
O19 O 0.92518 0.86238 0.49254 0.0
O20 O 0.98729 0.89956 0.45972 0.0
C21 C 0.964 0.84462 0.41705 0.0
O22 O 0.98568 0.84414 0.41218 0.0
C23 C 0.02018 0.85381 0.48442 0.0
O24 O 0.02554 0.86912 0.46286 0.0
O25 O 0.95588 0.87642 0.51545 0.0
C26 C 0.34942 0.74273 0.72742 0.0
O27 O 0.35665 0.74317 0.75768 0.0
O28 O 0.41019 0.75826 0.73422 0.0
Zn29 Zn 0.39442 0.73045 0.7189 0.0
O30 O 0.4115 0.71391 0.68419 0.0
C31 C 0.40666 0.71138 0.78052 0.0
O32 O 0.424 0.72453 0.77657 0.0
O33 O 0.36305 0.73775 0.70474 0.0
C34 C 0.41319 0.71946 0.65436 0.0
O35 O 0.40357 0.73789 0.64415 0.0
C36 C 0.40235 0.77787 0.73139 0.0
O37 O 0.38424 0.78105 0.71391 0.0
O38 O 0.39193 0.71043 0.75825 0.0
C39 C 0.4764 0.10197 0.98373 0.0
O40 O 0.48269 0.1098 0.01222 0.0
O41 O 0.45447 0.16231 0.99181 0.0
Zn42 Zn 0.48002 0.14804 0.96787 0.0
O43 O 0.48887 0.16441 0.92702 0.0
C44 C 0.52543 0.14439 0.99507 0.0
O45 O 0.53061 0.13308 0.96866 0.0
O46 O 0.47404 0.11541 0.95997 0.0
C47 C 0.47719 0.1686 0.90187 0.0
O48 O 0.45634 0.16187 0.90065 0.0
C49 C 0.43606 0.15277 0.99842 0.0
O50 O 0.43142 0.13347 0.98484 0.0
O51 O 0.5056 0.15142 -0.00108 0.0
C52 C 0.18813 0.72411 0.27159 0.0
O53 O 0.17789 0.73646 0.29347 0.0
O54 O 0.12969 0.73946 0.2478 0.0
Zn55 Zn 0.14339 0.70892 0.25274 0.0
O56 O 0.12995 0.69151 0.28972 0.0
C57 C 0.11573 0.69579 0.20057 0.0
O58 O 0.10131 0.70711 0.2182 0.0
O59 O 0.17681 0.7108 0.25405 0.0
C60 C 0.12497 0.69948 0.31749 0.0
O61 O 0.12956 0.72046 0.32394 0.0
C62 C 0.14026 0.75405 0.23144 0.0
O63 O 0.16077 0.74978 0.22198 0.0
O64 O 0.1355 0.69331 0.21114 0.0
C65 C 0.49876 0.88031 0.56586 0.0
O66 O 0.49772 0.87565 0.5346 0.0
O67 O 0.47229 0.82153 0.55494 0.0
Zn68 Zn 0.50183 0.83227 0.57234 0.0
O69 O 0.51184 0.81389 0.61069 0.0
C70 C 0.51664 0.83023 0.50584 0.0
O71 O 0.4953 0.83395 0.50088 0.0
O72 O 0.50032 0.86446 0.58634 0.0
C73 C 0.49843 0.80896 0.63362 0.0
O74 O 0.47747 0.81529 0.63146 0.0
C75 C 0.45489 0.83349 0.55166 0.0
O76 O 0.45414 0.85319 0.56564 0.0
O77 O 0.5239 0.82905 0.53501 0.0
C78 C 0.33517 0.24596 0.77525 0.0
O79 O 0.34529 0.22815 0.7867 0.0
O80 O 0.38716 0.22661 0.75199 0.0
Zn81 Zn 0.38007 0.25909 0.75905 0.0
O82 O 0.3967 0.27249 0.79709 0.0
C83 C 0.37525 0.27337 0.69324 0.0
O84 O 0.35603 0.26313 0.69703 0.0
O85 O 0.34683 0.26199 0.76427 0.0
C86 C 0.41778 0.27478 0.79563 0.0
O87 O 0.42845 0.26826 0.76927 0.0
C88 C 0.40236 0.21475 0.76493 0.0
O89 O 0.41549 0.22343 0.78722 0.0
O90 O 0.3887 0.27445 0.7172 0.0
C91 C -0.00085 0.07186 0.99776 0.0
O92 O 0.99647 0.07767 0.96709 0.0
O93 O 0.02278 0.126 0.97855 0.0
Zn94 Zn 0.99496 0.11821 0.00357 0.0
O95 O 0.98837 0.13946 0.04048 0.0
C96 C 0.97029 0.1248 0.94335 0.0
O97 O 0.99032 0.12699 0.93068 0.0
O98 O -0.00136 0.08688 0.01962 0.0
C99 C 0.9788 0.15772 0.03298 0.0
O100 O 0.9758 0.16251 0.002 0.0
C101 C 0.0331 0.1445 0.97801 0.0
O102 O 0.02619 0.16099 0.99656 0.0
O103 O 0.96838 0.11988 0.97338 0.0
C104 C 0.81992 0.76323 0.73207 0.0
O105 O 0.82117 0.77645 0.70657 0.0
O106 O 0.86933 0.79042 0.70326 0.0
Zn107 Zn 0.86775 0.76017 0.72392 0.0
O108 O 0.89126 0.75598 0.75852 0.0
C109 C 0.88426 0.74228 0.66318 0.0
O110 O 0.8902 0.76312 0.65842 0.0
O111 O 0.83765 0.75464 0.74352 0.0
C112 C 0.91158 0.7531 0.75055 0.0
O113 O 0.9173 0.75469 0.71971 0.0
C114 C 0.88018 0.80716 0.71369 0.0
O115 O 0.89031 0.80596 0.74206 0.0
O116 O 0.87372 0.73714 0.68907 0.0
C117 C 0.0379 0.06953 0.46053 0.0
O118 O 0.03258 0.07984 0.48774 0.0
O119 O 0.00672 0.12027 0.42036 0.0
Zn120 Zn 0.03834 0.11421 0.43433 0.0
O121 O 0.04466 0.12853 0.47813 0.0
C122 C 0.05346 0.1462 0.38821 0.0
O123 O 0.03471 0.15573 0.39731 0.0
O124 O 0.04208 0.08098 0.4352 0.0
C125 C 0.0341 0.14608 0.48632 0.0
O126 O 0.01907 0.15434 0.46635 0.0
C127 C 0.98956 0.11657 0.43779 0.0
O128 O 0.99199 0.10826 0.46724 0.0
O129 O 0.05893 0.12762 0.40085 0.0
C130 C 0.66252 0.26613 0.20927 0.0
O131 O 0.66043 0.28394 0.19085 0.0
O132 O 0.60384 0.2355 0.17096 0.0
Zn133 Zn 0.61491 0.26142 0.19748 0.0
O134 O 0.59257 0.26794 0.23293 0.0
C135 C 0.62197 0.28872 0.13906 0.0
O136 O 0.63178 0.27093 0.12699 0.0
O137 O 0.64534 0.25452 0.21584 0.0
C138 C 0.57273 0.27209 0.22364 0.0
O139 O 0.56801 0.27097 0.19236 0.0
C140 C 0.61666 0.22194 0.15618 0.0
O141 O 0.63839 0.22416 0.15905 0.0
O142 O 0.6149 0.28836 0.1683 0.0
C143 C 0.4686 0.93854 0.9917 0.0
O144 O 0.48084 0.93123 0.01606 0.0
O145 O 0.50064 0.88796 0.96208 0.0
Zn146 Zn 0.46794 0.89192 0.97144 0.0
O147 O 0.45988 0.87692 0.01427 0.0
C148 C 0.45985 0.8616 0.918 0.0
O149 O 0.47882 0.85294 0.92794 0.0
O150 O 0.46097 0.9247 0.97106 0.0
C151 C 0.46903 0.8583 0.02096 0.0
O152 O 0.48276 0.84934 -0.00032 0.0
C153 C 0.51656 0.88741 0.98256 0.0
O154 O 0.51237 0.89064 0.01367 0.0
O155 O 0.45146 0.87792 0.93364 0.0
C156 C 0.82766 0.26107 0.77804 0.0
O157 O 0.83901 0.25067 0.7552 0.0
O158 O 0.88101 0.23744 0.81781 0.0
Zn159 Zn 0.87179 0.2679 0.80253 0.0
O160 O 0.88514 0.27357 0.75813 0.0
C161 C 0.87738 0.30899 0.84087 0.0
O162 O 0.85816 0.31518 0.82835 0.0
O163 O 0.83819 0.2703 0.80133 0.0
C164 C 0.8912 0.2577 0.73952 0.0
O165 O 0.88797 0.23698 0.74888 0.0
C166 C 0.86871 0.22445 0.83445 0.0
O167 O 0.84831 0.23068 0.84197 0.0
O168 O 0.88541 0.29001 0.83354 0.0
C169 C 0.49268 0.04273 0.59556 0.0
O170 O 0.49653 0.05514 0.62136 0.0
O171 O 0.51661 0.09825 0.57763 0.0
Zn172 Zn 0.48639 0.08562 0.56742 0.0
O173 O 0.47527 0.0965 0.52377 0.0
C174 C 0.47253 0.10395 0.62946 0.0
O175 O 0.4941 0.10364 0.63522 0.0
O176 O 0.48787 0.05215 0.56869 0.0
C177 C 0.47048 0.11705 0.52038 0.0
O178 O 0.47352 0.13064 0.54516 0.0
C179 C 0.5305 0.10744 0.55848 0.0
O180 O 0.52604 0.10862 0.52715 0.0
O181 O 0.46524 0.09662 0.60232 0.0
C182 C 0.64874 0.76758 0.24882 0.0
O183 O 0.64616 0.77267 0.27977 0.0
O184 O 0.59946 0.77403 0.29489 0.0
Zn185 Zn 0.60478 0.75162 0.25904 0.0
O186 O 0.5774 0.74771 0.23074 0.0
C187 C 0.61519 0.72044 0.3108 0.0
O188 O 0.61969 0.73867 0.32733 0.0
O189 O 0.6325 0.75885 0.23346 0.0
C190 C 0.56053 0.73899 0.24468 0.0
O191 O 0.56167 0.73457 0.27605 0.0
C192 C 0.58238 0.78639 0.29821 0.0
O193 O 0.56702 0.78653 0.27535 0.0
O194 O 0.60955 0.72197 0.28099 0.0
C195 C 0.02754 0.91085 0.00746 0.0
O196 O 0.01967 0.90135 0.98094 0.0
O197 O 0.00332 0.85656 0.02927 0.0
Zn198 Zn 0.03549 0.86553 0.02453 0.0
O199 O 0.04783 0.85754 0.98031 0.0
C200 C 0.04795 0.84027 0.08331 0.0
O201 O 0.0268 0.8346 0.08474 0.0
O202 O 0.03593 0.8987 0.02966 0.0
C203 C 0.05658 0.83868 0.97414 0.0
O204 O 0.05723 0.82341 0.99711 0.0
C205 C 0.99511 0.83717 0.02587 0.0
O206 O 0.00824 0.82044 0.01799 0.0
O207 O 0.05479 0.85262 0.06015 0.0
C208 C 0.66574 0.75466 0.81228 0.0
O209 O 0.65311 0.76916 0.79686 0.0
O210 O 0.61642 0.72129 0.87749 0.0
Zn211 Zn 0.62615 0.74781 0.85116 0.0
O212 O 0.60459 0.7524 0.81384 0.0
C213 C 0.61948 0.7937 0.86848 0.0
O214 O 0.61777 0.79588 0.83668 0.0
O215 O 0.65758 0.74357 0.83582 0.0
C216 C 0.58399 0.75414 0.82099 0.0
O217 O 0.57786 0.75227 0.85166 0.0
C218 C 0.60571 0.70517 0.86484 0.0
O219 O 0.602 0.70507 0.83325 0.0
O220 O 0.62409 0.77467 0.88039 0.0
C221 C 0.46117 0.42507 0.02392 0.0
O222 O 0.47122 0.41883 0.99692 0.0
O223 O 0.50425 0.38046 0.04987 0.0
Zn224 Zn 0.47097 0.37991 0.04398 0.0
O225 O 0.46322 0.36459 0.00153 0.0
C226 C 0.46882 0.36078 0.10838 0.0
O227 O 0.48714 0.37249 0.11251 0.0
O228 O 0.45881 0.41106 0.04689 0.0
C229 C 0.47401 0.34696 0.99441 0.0
O230 O 0.48933 0.33963 0.0147 0.0
C231 C 0.51948 0.3814 0.02833 0.0
O232 O 0.51401 0.3836 0.99746 0.0
O233 O 0.45867 0.36168 0.08112 0.0
C234 C 0.82147 0.23749 0.25015 0.0
O235 O 0.83353 0.25316 0.23628 0.0
O236 O 0.87455 0.25008 0.29308 0.0
Zn237 Zn 0.86461 0.22234 0.26995 0.0
O238 O 0.87967 0.22045 0.22607 0.0
C239 C 0.86836 0.1923 0.3257 0.0
O240 O 0.8521 0.20423 0.33832 0.0
O241 O 0.83125 0.22205 0.26583 0.0
C242 C 0.89932 0.21244 0.22488 0.0
O243 O 0.90902 0.20593 0.25201 0.0
C244 C 0.88195 0.26738 0.2788 0.0
O245 O 0.88258 0.26796 0.24677 0.0
O246 O 0.87513 0.19658 0.29701 0.0
C247 C 0.98992 0.567 0.53178 0.0
O248 O 0.97579 0.58207 0.521 0.0
O249 O 0.98723 0.62275 0.55287 0.0
Zn250 Zn 0.01581 0.60602 0.54387 0.0
O251 O 0.02949 0.61542 0.50103 0.0
C252 C 0.03335 0.62375 0.60462 0.0
O253 O 0.01272 0.63062 0.60881 0.0
O254 O 0.00877 0.57327 0.54269 0.0
C255 C 0.04273 0.63201 0.49998 0.0
O256 O 0.04686 0.64321 0.52687 0.0
C257 C 0.98388 0.64318 0.54619 0.0
O258 O -0.00041 0.65467 0.53149 0.0
O259 O 0.03821 0.6123 0.57949 0.0
C260 C 0.66782 0.24921 0.72767 0.0
O261 O 0.66569 0.24396 0.6967 0.0
O262 O 0.61394 0.27678 0.69633 0.0
Zn263 Zn 0.62063 0.249 0.72205 0.0
O264 O 0.59539 0.24188 0.75314 0.0
C265 C 0.61729 0.2041 0.69712 0.0
O266 O 0.61383 0.1993 0.72799 0.0
O267 O 0.65032 0.25215 0.74471 0.0
C268 C 0.57627 0.23817 0.74069 0.0
O269 O 0.57376 0.2402 0.70897 0.0
C270 C 0.59901 0.29103 0.7035 0.0
O271 O 0.58763 0.2888 0.7307 0.0
O272 O 0.62165 0.2241 0.68914 0.0
C273 C 0.04016 0.44131 0.97202 0.0
O274 O 0.03414 0.43552 0.00165 0.0
O275 O 0.01219 0.3821 0.95157 0.0
Zn276 Zn 0.0435 0.39329 0.96005 0.0
O277 O 0.05375 0.38532 0.00556 0.0
C278 C 0.05933 0.35846 0.91852 0.0
O279 O 0.04307 0.3475 0.93288 0.0
O280 O 0.04502 0.42627 0.95139 0.0
C281 C 0.03987 0.38458 0.02899 0.0
O282 O 0.01885 0.38949 0.02332 0.0
C283 C 0.99468 0.3941 0.95087 0.0
O284 O 0.99613 0.41547 0.95756 0.0
O285 O 0.0633 0.37844 0.92707 0.0
C286 C 0.80894 0.76872 0.20615 0.0
O287 O 0.81949 0.78021 0.22866 0.0
O288 O 0.86292 0.72146 0.18328 0.0
Zn289 Zn 0.85336 0.753 0.19174 0.0
O290 O 0.86419 0.76375 0.23552 0.0
C291 C 0.86418 0.78984 0.14622 0.0
O292 O 0.84694 0.80066 0.15816 0.0
O293 O 0.82003 0.756 0.18735 0.0
C294 C 0.88488 0.76744 0.23989 0.0
O295 O 0.89894 0.76315 0.21607 0.0
C296 C 0.85983 0.71532 0.15395 0.0
O297 O 0.84866 0.72858 0.13429 0.0
O298 O 0.86898 0.77061 0.1571 0.0
C299 C 0.46342 0.55564 0.43936 0.0
O300 O 0.44687 0.56851 0.44879 0.0
O301 O 0.51727 0.60386 0.41345 0.0
Zn302 Zn 0.48542 0.59755 0.42562 0.0
O303 O 0.47721 0.61272 0.46803 0.0
C304 C 0.44728 0.6171 0.39131 0.0
O305 O 0.43709 0.61607 0.41966 0.0
O306 O 0.4813 0.5645 0.42887 0.0
C307 C 0.47328 0.63356 0.46989 0.0
O308 O 0.47475 0.6459 0.44347 0.0
C309 C 0.53082 0.6157 0.42983 0.0
O310 O 0.52459 0.62376 0.45822 0.0
O311 O 0.46704 0.60966 0.38863 0.0
C312 C 0.33247 0.22467 0.27382 0.0
O313 O 0.33422 0.21464 0.24544 0.0
O314 O 0.39908 0.2402 0.27127 0.0
Zn315 Zn 0.37946 0.21335 0.27901 0.0
O316 O 0.3929 0.19266 0.31246 0.0
C317 C 0.39566 0.19721 0.21889 0.0
O318 O 0.41402 0.2052 0.23197 0.0
O319 O 0.34927 0.22509 0.2928 0.0
C320 C 0.40064 0.19943 0.33959 0.0
O321 O 0.3996 0.22078 0.3467 0.0
C322 C 0.39222 0.25231 0.24786 0.0
O323 O 0.37323 0.24716 0.23368 0.0
O324 O 0.37772 0.1975 0.23546 0.0
C325 C 0.44857 0.58764 0.02517 0.0
O326 O 0.45487 0.59524 0.99658 0.0
O327 O 0.43525 0.64864 0.00876 0.0
Zn328 Zn 0.45546 0.63335 0.04083 0.0
O329 O 0.45787 0.65121 0.08237 0.0
C330 C 0.48851 0.63572 0.98956 0.0
O331 O 0.4707 0.63599 0.97087 0.0
O332 O 0.44675 0.60123 0.04887 0.0
C333 C 0.46756 0.67001 0.07969 0.0
O334 O 0.47368 0.67682 0.05056 0.0
C335 C 0.41783 0.64083 0.99527 0.0
O336 O 0.40962 0.6217 0.00526 0.0
O337 O 0.48617 0.63391 0.0203 0.0
C338 C 0.18778 0.76999 0.7265 0.0
O339 O 0.18003 0.76937 0.75647 0.0
O340 O 0.12731 0.74317 0.70734 0.0
Zn341 Zn 0.14085 0.77388 0.70715 0.0
O342 O 0.13103 0.79105 0.74696 0.0
C343 C 0.10877 0.78664 0.65907 0.0
O344 O 0.09573 0.77458 0.67787 0.0
O345 O 0.17423 0.77206 0.70286 0.0
C346 C 0.12598 0.78132 0.77352 0.0
O347 O 0.12814 0.75955 0.7756 0.0
C348 C 0.13815 0.72516 0.70315 0.0
O349 O 0.15998 0.72592 0.70032 0.0
O350 O 0.1291 0.78925 0.66708 0.0
C351 C 0.98183 0.40372 0.52916 0.0
O352 O 0.00132 0.39538 0.53745 0.0
O353 O 0.00648 0.35659 0.49419 0.0
Zn354 Zn 0.97424 0.35882 0.50792 0.0
O355 O 0.96657 0.33964 0.54677 0.0
C356 C 0.95706 0.35904 0.44258 0.0
O357 O 0.97033 0.37638 0.43977 0.0
O358 O 0.96716 0.39093 0.5169 0.0
C359 C 0.96051 0.31952 0.54235 0.0
O360 O 0.96028 0.31136 0.5126 0.0
C361 C 0.01624 0.33818 0.48844 0.0
O362 O 0.00558 0.31942 0.49401 0.0
O363 O 0.95575 0.34902 0.46983 0.0
C364 C 0.34168 0.77663 0.23947 0.0
O365 O 0.35667 0.77011 0.21808 0.0
O366 O 0.39011 0.75592 0.27948 0.0
Zn367 Zn 0.38111 0.78799 0.27325 0.0
O368 O 0.39777 0.80186 0.23536 0.0
C369 C 0.40175 0.79552 0.33495 0.0
O370 O 0.41396 0.77877 0.3245 0.0
O371 O 0.34816 0.78677 0.26497 0.0
C372 C 0.4184 0.79767 0.23131 0.0
O373 O 0.42881 0.78519 0.25284 0.0
C374 C 0.39719 0.74164 0.25903 0.0
O375 O 0.3998 0.74727 0.22829 0.0
O376 O 0.38687 0.80364 0.31622 0.0
C377 C 0.01393 0.60138 0.93958 0.0
O378 O 0.01947 0.61518 0.91602 0.0
O379 O 0.02193 0.65389 0.00113 0.0
Zn380 Zn 0.99758 0.64111 0.97346 0.0
O381 O 0.99383 0.65904 0.93228 0.0
C382 C 0.96912 0.63392 0.02835 0.0
O383 O 0.98648 0.62237 0.03835 0.0
O384 O 0.00434 0.6089 0.96493 0.0
C385 C 0.98147 0.67628 0.93339 0.0
O386 O 0.97198 0.68179 0.96114 0.0
C387 C 0.04228 0.64808 -0.00089 0.0
O388 O 0.0484 0.63387 0.97642 0.0
O389 O 0.96967 0.64295 0.00032 0.0
C390 C 0.17635 0.21171 0.74482 0.0
O391 O 0.17056 0.1952 0.76411 0.0
O392 O 0.11486 0.24544 0.74943 0.0
Zn393 Zn 0.12847 0.2166 0.73426 0.0
O394 O 0.11348 0.20622 0.69284 0.0
C395 C 0.12294 0.20218 0.79962 0.0
O396 O 0.12892 0.22298 0.80475 0.0
O397 O 0.1614 0.22195 0.72869 0.0
C398 C 0.09295 0.21098 0.68906 0.0
O399 O 0.08263 0.22243 0.71187 0.0
C400 C 0.12445 0.26431 0.74798 0.0
O401 O 0.14362 0.26613 0.73262 0.0
O402 O 0.12242 0.19476 0.77054 0.0
C403 C 0.48679 0.39413 0.45062 0.0
O404 O 0.50704 0.38943 0.44034 0.0
O405 O 0.46671 0.33047 0.49793 0.0
Zn406 Zn 0.48862 0.34882 0.47263 0.0
O407 O 0.49785 0.33395 0.43079 0.0
C408 C 0.51187 0.35629 0.5316 0.0
O409 O 0.49133 0.36013 0.54137 0.0
O410 O 0.47546 0.37904 0.46466 0.0
C411 C 0.4854 0.33292 0.40573 0.0
O412 O 0.46529 0.34163 0.40691 0.0
C413 C 0.44566 0.33177 0.49484 0.0
O414 O 0.43715 0.34431 0.47168 0.0
O415 O 0.51538 0.35187 0.50171 0.0
H416 H 0.04788 0.1875 0.36124 0.0
H417 H 0.09273 0.13056 0.3621 0.0
H418 H 0.11821 0.15048 0.32462 0.0
H419 H 0.05665 0.20357 0.2759 0.0
H420 H 0.05548 0.23296 0.28513 0.0
H421 H 0.03988 0.21339 0.3095 0.0
H422 H 0.05929 0.22823 0.36176 0.0
H423 H 0.07486 0.24782 0.33756 0.0
H424 H 0.08937 0.22854 0.36381 0.0
H425 H 0.1402 0.17796 0.29065 0.0
H426 H 0.15722 0.21099 0.26442 0.0
H427 H 0.09747 0.24937 0.28582 0.0
C428 C 0.06288 0.17904 0.35321 0.0
C429 C 0.06827 0.15744 0.3645 0.0
C430 C 0.08823 0.1471 0.35369 0.0
C431 C 0.10276 0.15824 0.33231 0.0
C432 C 0.09702 0.17963 0.32192 0.0
C433 C 0.07753 0.1899 0.33201 0.0
C434 C 0.07585 0.21347 0.31912 0.0
C435 C 0.05577 0.21599 0.29603 0.0
C436 C 0.07479 0.2305 0.34723 0.0
C437 C 0.09767 0.21507 0.30074 0.0
C438 C 0.10959 0.19535 0.30233 0.0
C439 C 0.13089 0.19339 0.28887 0.0
C440 C 0.14041 0.21223 0.27401 0.0
C441 C 0.12865 0.23273 0.2729 0.0
C442 C 0.10682 0.23389 0.28583 0.0
H443 H 0.01434 0.82364 0.53383 0.0
H444 H 0.0656 0.85877 0.4793 0.0
H445 H 0.09436 0.84347 0.51629 0.0
H446 H 0.03608 0.83381 0.61085 0.0
H447 H 0.02885 0.80702 0.62782 0.0
H448 H 0.01262 0.81844 0.59488 0.0
H449 H 0.01968 0.78286 0.56044 0.0
H450 H 0.03576 0.77118 0.59344 0.0
H451 H 0.04793 0.77363 0.55338 0.0
H452 H 0.11696 0.82737 0.56248 0.0
H453 H 0.13191 0.8103 0.61281 0.0
H454 H 0.06566 0.78585 0.63681 0.0
C455 C 0.03165 0.82776 0.52917 0.0
C456 C 0.03772 0.84238 0.5036 0.0
C457 C 0.06055 0.84753 0.49863 0.0
C458 C 0.07701 0.83893 0.51953 0.0
C459 C 0.07035 0.82511 0.54509 0.0
C460 C 0.04824 0.81936 0.54975 0.0
C461 C 0.04527 0.80526 0.58008 0.0
C462 C 0.02979 0.81683 0.60486 0.0
C463 C 0.03666 0.78185 0.5713 0.0
C464 C 0.0691 0.80443 0.59223 0.0
C465 C 0.08335 0.81584 0.57163 0.0
C466 C 0.10601 0.81816 0.57858 0.0
C467 C 0.11431 0.80849 0.6073 0.0
C468 C 0.09997 0.7967 0.62873 0.0
C469 C 0.0771 0.79463 0.62088 0.0
H470 H 0.47031 0.82381 0.88358 0.0
H471 H 0.4253 0.88063 0.88409 0.0
H472 H 0.4082 0.86723 0.83286 0.0
H473 H 0.4783 0.82064 0.79558 0.0
H474 H 0.47832 0.79059 0.79508 0.0
H475 H 0.48812 0.8053 0.83062 0.0
H476 H 0.45972 0.78386 0.86664 0.0
H477 H 0.45012 0.76891 0.83125 0.0
H478 H 0.43052 0.78429 0.85593 0.0
H479 H 0.39525 0.84704 0.78255 0.0
H480 H 0.38506 0.81983 0.73986 0.0
H481 H 0.4383 0.77604 0.77274 0.0
C482 C 0.45695 0.83353 0.87284 0.0
C483 C 0.44918 0.85332 0.88778 0.0
C484 C 0.4315 0.86541 0.8731 0.0
C485 C 0.42179 0.85801 0.84389 0.0
C486 C 0.42992 0.8385 0.82971 0.0
C487 C 0.44698 0.82632 0.84384 0.0
C488 C 0.45174 0.80521 0.82476 0.0
C489 C 0.47554 0.80548 0.81069 0.0
C490 C 0.44778 0.78434 0.8459 0.0
C491 C 0.43444 0.80723 0.798 0.0
C492 C 0.42224 0.8267 0.801 0.0
C493 C 0.40476 0.8318 0.77983 0.0
C494 C 0.39915 0.81626 0.75558 0.0
C495 C 0.41085 0.79578 0.75292 0.0
C496 C 0.42909 0.79157 0.77396 0.0
H497 H 0.42625 0.20793 0.17249 0.0
H498 H 0.36517 0.17042 0.18752 0.0
H499 H 0.36638 0.15792 0.12985 0.0
H500 H 0.41358 0.2257 0.08888 0.0
H501 H 0.44233 0.22348 0.07627 0.0
H502 H 0.43567 0.23043 0.11793 0.0
H503 H 0.45944 0.19699 0.13821 0.0
H504 H 0.4663 0.19009 0.09673 0.0
H505 H 0.45366 0.16941 0.12277 0.0
H506 H 0.37676 0.14664 0.07198 0.0
H507 H 0.3951 0.13784 0.01941 0.0
H508 H 0.44796 0.18479 0.04245 0.0
C509 C 0.41306 0.19715 0.16367 0.0
C510 C 0.39573 0.18994 0.18447 0.0
C511 C 0.37863 0.17607 0.17192 0.0
C512 C 0.37915 0.16897 0.13923 0.0
C513 C 0.39662 0.1763 0.1194 0.0
C514 C 0.41314 0.19025 0.13116 0.0
C515 C 0.43051 0.19525 0.10543 0.0
C516 C 0.43051 0.2202 0.09661 0.0
C517 C 0.45384 0.18746 0.11644 0.0
C518 C 0.42171 0.18122 0.07761 0.0
C519 C 0.40206 0.17053 0.08594 0.0
C520 C 0.39191 0.15524 0.06499 0.0
C521 C 0.40243 0.15035 0.03517 0.0
C522 C 0.42286 0.16075 0.02665 0.0
C523 C 0.43216 0.17684 0.04786 0.0
H524 H 0.09588 0.75663 0.21664 0.0
H525 H 0.15813 0.79339 0.21097 0.0
H526 H 0.13978 0.82187 0.1766 0.0
H527 H 0.08214 0.76295 0.13599 0.0
H528 H 0.05243 0.76559 0.14174 0.0
H529 H 0.06889 0.7504 0.17095 0.0
H530 H 0.05429 0.77573 0.21757 0.0
H531 H 0.03745 0.79083 0.18855 0.0
H532 H 0.05697 0.8056 0.21413 0.0
H533 H 0.11661 0.84305 0.13688 0.0
H534 H 0.08954 0.85673 0.09617 0.0
H535 H 0.04232 0.80592 0.1268 0.0
C536 C 0.10538 0.77115 0.20926 0.0
C537 C 0.12831 0.77307 0.21682 0.0
C538 C 0.14047 0.79181 0.20567 0.0
C539 C 0.1302 0.80803 0.18616 0.0
C540 C 0.1078 0.80518 0.17798 0.0
C541 C 0.09545 0.78732 0.18938 0.0
C542 C 0.07241 0.78682 0.17411 0.0
C543 C 0.06877 0.76517 0.15455 0.0
C544 C 0.05421 0.78994 0.20015 0.0
C545 C 0.07392 0.80693 0.15184 0.0
C546 C 0.09441 0.81735 0.15463 0.0
C547 C 0.10035 0.8353 0.13488 0.0
C548 C 0.08492 0.84285 0.1117 0.0
C549 C 0.06379 0.83248 0.10847 0.0
C550 C 0.05821 0.8144 0.12905 0.0
H551 H 0.42853 0.77786 0.38223 0.0
H552 H 0.3809 0.83113 0.36453 0.0
H553 H 0.3855 0.84391 0.42158 0.0
H554 H 0.41215 0.76602 0.46645 0.0
H555 H 0.4405 0.76086 0.47916 0.0
H556 H 0.43216 0.755 0.43779 0.0
H557 H 0.46377 0.78075 0.41591 0.0
H558 H 0.47235 0.78617 0.45719 0.0
H559 H 0.4655 0.80909 0.43057 0.0
H560 H 0.39792 0.85261 0.4793 0.0
H561 H 0.41844 0.85761 0.53111 0.0
H562 H 0.45651 0.79752 0.51084 0.0
C563 C 0.4189 0.79213 0.39031 0.0
C564 C 0.40436 0.80353 0.36889 0.0
C565 C 0.39214 0.82215 0.38052 0.0
C566 C 0.39454 0.82943 0.41293 0.0
C567 C 0.40901 0.81774 0.43342 0.0
C568 C 0.42096 0.79947 0.4225 0.0
C569 C 0.43643 0.79056 0.44859 0.0
C570 C 0.42991 0.7667 0.45858 0.0
C571 C 0.46096 0.79171 0.43739 0.0
C572 C 0.43177 0.80701 0.4757 0.0
C573 C 0.41578 0.82246 0.46669 0.0
C574 C 0.41022 0.8404 0.4868 0.0
C575 C 0.42192 0.84307 0.51625 0.0
C576 C 0.43904 0.82793 0.52516 0.0
C577 C 0.44332 0.80924 0.50507 0.0
H578 H 0.44217 0.19248 0.76515 0.0
H579 H 0.37378 0.18798 0.73112 0.0
H580 H 0.38351 0.15466 0.69877 0.0
H581 H 0.46645 0.18209 0.69235 0.0
H582 H 0.48967 0.16587 0.70725 0.0
H583 H 0.47651 0.18599 0.73341 0.0
H584 H 0.46916 0.15537 0.7767 0.0
H585 H 0.48256 0.13513 0.75067 0.0
H586 H 0.45455 0.1303 0.76515 0.0
H587 H 0.40162 0.12649 0.66319 0.0
H588 H 0.42683 0.10497 0.62742 0.0
H589 H 0.48369 0.12782 0.68399 0.0
C590 C 0.42908 0.18391 0.75197 0.0
C591 C 0.40721 0.19263 0.75084 0.0
C592 C 0.39063 0.18146 0.73241 0.0
C593 C 0.39598 0.16248 0.71407 0.0
C594 C 0.41794 0.15484 0.71455 0.0
C595 C 0.43422 0.16506 0.73327 0.0
C596 C 0.45708 0.15533 0.72628 0.0
C597 C 0.47337 0.17339 0.71408 0.0
C598 C 0.46638 0.14331 0.7565 0.0
C599 C 0.45125 0.1389 0.69953 0.0
C600 C 0.42853 0.13855 0.69359 0.0
C601 C 0.41938 0.12621 0.66805 0.0
C602 C 0.43384 0.11413 0.64776 0.0
C603 C 0.4572 0.11462 0.653 0.0
C604 C 0.46588 0.12681 0.67966 0.0
H605 H 0.10762 0.21709 0.85837 0.0
H606 H 0.11792 0.15679 0.80168 0.0
H607 H 0.09993 0.13467 0.84528 0.0
H608 H 0.11449 0.19195 0.94066 0.0
H609 H 0.09253 0.20892 0.95769 0.0
H610 H 0.10925 0.21945 0.92451 0.0
H611 H 0.07341 0.22673 0.89092 0.0
H612 H 0.05654 0.21614 0.92371 0.0
H613 H 0.05421 0.20412 0.88353 0.0
H614 H 0.07765 0.11984 0.89197 0.0
H615 H 0.05137 0.11336 0.93721 0.0
H616 H 0.05467 0.18361 0.96286 0.0
C617 C 0.10667 0.19914 0.85553 0.0
C618 C 0.11439 0.18857 0.82686 0.0
C619 C 0.11223 0.16516 0.82358 0.0
C620 C 0.10213 0.15248 0.84825 0.0
C621 C 0.09427 0.16349 0.87594 0.0
C622 C 0.09641 0.18631 0.87971 0.0
C623 C 0.08452 0.19441 0.91011 0.0
C624 C 0.1012 0.20426 0.9347 0.0
C625 C 0.06607 0.21134 0.90153 0.0
C626 C 0.0748 0.17267 0.92238 0.0
C627 C 0.08094 0.155 0.90261 0.0
C628 C 0.07296 0.13349 0.90786 0.0
C629 C 0.05799 0.13 0.93361 0.0
C630 C 0.05098 0.14798 0.95365 0.0
C631 C 0.05989 0.16948 0.94825 0.0
H632 H 0.89709 0.84977 0.53564 0.0
H633 H 0.95011 0.89172 0.5735 0.0
H634 H 0.93612 0.88572 0.62942 0.0
H635 H 0.8535 0.86366 0.60023 0.0
H636 H 0.84394 0.83514 0.60059 0.0
H637 H 0.85447 0.84726 0.56337 0.0
H638 H 0.88313 0.81499 0.55831 0.0
H639 H 0.87282 0.80289 0.59539 0.0
H640 H 0.90204 0.80959 0.59164 0.0
H641 H 0.92148 0.86917 0.68101 0.0
H642 H 0.90777 0.84323 0.72331 0.0
H643 H 0.86421 0.81221 0.65187 0.0
C644 C 0.9052 0.85844 0.55555 0.0
C645 C 0.92459 0.87129 0.55022 0.0
C646 C 0.93514 0.88186 0.57702 0.0
C647 C 0.92724 0.87865 0.60888 0.0
C648 C 0.90868 0.865 0.6135 0.0
C649 C 0.89764 0.85524 0.58748 0.0
C650 C 0.88029 0.83869 0.59903 0.0
C651 C 0.85664 0.84667 0.59029 0.0
C652 C 0.88487 0.81517 0.5853 0.0
C653 C 0.8842 0.83968 0.63546 0.0
C654 C 0.90024 0.85531 0.64346 0.0
C655 C 0.90848 0.85729 0.67518 0.0
C656 C 0.90062 0.84244 0.69906 0.0
C657 C 0.88489 0.82572 0.69093 0.0
C658 C 0.87602 0.82499 0.65901 0.0
H659 H 0.9786 0.12881 0.37577 0.0
H660 H 0.95045 0.12006 0.4725 0.0
H661 H 0.91432 0.13487 0.45274 0.0
H662 H 0.95396 0.17962 0.35894 0.0
H663 H 0.94915 0.1741 0.31627 0.0
H664 H 0.97169 0.16038 0.33718 0.0
H665 H 0.95591 0.12186 0.31987 0.0
H666 H 0.93328 0.13552 0.29884 0.0
H667 H 0.92741 0.11483 0.32958 0.0
H668 H 0.88279 0.15498 0.4237 0.0
H669 H 0.85859 0.17772 0.38773 0.0
H670 H 0.90756 0.17177 0.31011 0.0
C671 C 0.96475 0.12962 0.39272 0.0
C672 C 0.96732 0.1233 0.42567 0.0
C673 C 0.94881 0.12472 0.44709 0.0
C674 C 0.92823 0.13308 0.43608 0.0
C675 C 0.92641 0.13961 0.40352 0.0
C676 C 0.94415 0.13773 0.38211 0.0
C677 C 0.93848 0.14712 0.34892 0.0
C678 C 0.95425 0.16645 0.33982 0.0
C679 C 0.93878 0.12873 0.32276 0.0
C680 C 0.91502 0.15531 0.35524 0.0
C681 C 0.90821 0.15071 0.38675 0.0
C682 C 0.88778 0.15831 0.39879 0.0
C683 C 0.87417 0.17123 0.37822 0.0
C684 C 0.8811 0.17639 0.34605 0.0
C685 C 0.90158 0.16786 0.33438 0.0
H686 H 0.5196 0.16904 0.05036 0.0
H687 H 0.57026 0.13418 0.99422 0.0
H688 H 0.59916 0.14746 0.03279 0.0
H689 H 0.55068 0.21683 0.06516 0.0
H690 H 0.54006 0.22135 0.10578 0.0
H691 H 0.52326 0.20693 0.07616 0.0
H692 H 0.51949 0.17324 0.11532 0.0
H693 H 0.53627 0.18754 0.14522 0.0
H694 H 0.54428 0.16014 0.13136 0.0
H695 H 0.6228 0.16742 0.07499 0.0
H696 H 0.63909 0.19254 0.11651 0.0
H697 H 0.57248 0.21415 0.14398 0.0
C698 C 0.5367 0.16382 0.04638 0.0
C699 C 0.54267 0.15051 0.01929 0.0
C700 C 0.56529 0.1443 0.01488 0.0
C701 C 0.5818 0.15173 0.03668 0.0
C702 C 0.57535 0.16521 0.06279 0.0
C703 C 0.5533 0.1711 0.06774 0.0
C704 C 0.55076 0.18696 0.09618 0.0
C705 C 0.5406 0.20934 0.08514 0.0
C706 C 0.53688 0.17632 0.12365 0.0
C707 C 0.57492 0.18956 0.10606 0.0
C708 C 0.58887 0.17672 0.08681 0.0
C709 C 0.61201 0.17734 0.09044 0.0
C710 C 0.62111 0.19167 0.11407 0.0
C711 C 0.60707 0.20528 0.13355 0.0
C712 C 0.58368 0.20386 0.12968 0.0
H713 H 0.53134 0.88347 0.92001 0.0
H714 H 0.55095 0.87164 0.02042 0.0
H715 H 0.58423 0.8511 0.0012 0.0
H716 H 0.5425 0.83196 0.8921 0.0
H717 H 0.55282 0.84004 0.85252 0.0
H718 H 0.53357 0.85781 0.87378 0.0
H719 H 0.56151 0.89075 0.86984 0.0
H720 H 0.58087 0.87306 0.84823 0.0
H721 H 0.58961 0.88732 0.8848 0.0
H722 H 0.61042 0.82554 0.97145 0.0
H723 H 0.62836 0.79884 0.93363 0.0
H724 H 0.59235 0.82847 0.8527 0.0
C725 C 0.54303 0.87722 0.93798 0.0
C726 C 0.5386 0.87917 0.9717 0.0
C727 C 0.55412 0.87051 0.99446 0.0
C728 C 0.57308 0.85882 0.98375 0.0
C729 C 0.57642 0.85633 0.95026 0.0
C730 C 0.56199 0.86564 0.92771 0.0
C731 C 0.56775 0.85854 0.8933 0.0
C732 C 0.548 0.84636 0.87701 0.0
C733 C 0.5754 0.87862 0.87284 0.0
C734 C 0.58694 0.84282 0.90009 0.0
C735 C 0.59192 0.84196 0.93302 0.0
C736 C 0.60715 0.82656 0.94552 0.0
C737 C 0.61718 0.8114 0.92391 0.0
C738 C 0.61196 0.81183 0.89022 0.0
C739 C 0.59715 0.82817 0.87818 0.0
H740 H 0.91021 0.20722 0.82306 0.0
H741 H 0.84918 0.19523 0.87741 0.0
H742 H 0.86729 0.16357 0.90552 0.0
H743 H 0.92842 0.1474 0.81675 0.0
H744 H 0.95732 0.15502 0.82193 0.0
H745 H 0.93832 0.17395 0.80197 0.0
H746 H 0.94893 0.20496 0.84327 0.0
H747 H 0.96785 0.18618 0.86332 0.0
H748 H 0.94603 0.19965 0.88637 0.0
H749 H 0.89377 0.13762 0.93393 0.0
H750 H 0.92626 0.11945 0.95985 0.0
H751 H 0.96966 0.14796 0.88605 0.0
C752 C 0.90042 0.19758 0.84023 0.0
C753 C 0.87827 0.20369 0.84803 0.0
C754 C 0.86614 0.1908 0.87093 0.0
C755 C 0.87627 0.17274 0.88695 0.0
C756 C 0.8984 0.16762 0.87942 0.0
C757 C 0.91024 0.17954 0.85632 0.0
C758 C 0.93442 0.17228 0.85503 0.0
C759 C 0.93993 0.16152 0.82195 0.0
C760 C 0.95022 0.19193 0.86246 0.0
C761 C 0.93463 0.15517 0.88213 0.0
C762 C 0.91363 0.15243 0.89558 0.0
C763 C 0.91018 0.13923 0.92312 0.0
C764 C 0.92874 0.12901 0.93773 0.0
C765 C 0.95046 0.13215 0.92481 0.0
C766 C 0.95323 0.14486 0.89611 0.0
H767 H 0.59405 0.16523 0.704 0.0
H768 H 0.62758 0.20642 0.63208 0.0
H769 H 0.61325 0.18211 0.58814 0.0
H770 H 0.59956 0.11049 0.66003 0.0
H771 H 0.57203 0.102 0.67271 0.0
H772 H 0.58853 0.11986 0.6986 0.0
H773 H 0.55632 0.14879 0.69957 0.0
H774 H 0.53983 0.13117 0.67356 0.0
H775 H 0.54562 0.15952 0.66156 0.0
H776 H 0.59064 0.15694 0.55184 0.0
H777 H 0.5616 0.13325 0.52658 0.0
H778 H 0.54285 0.10893 0.62251 0.0
C779 C 0.59907 0.16868 0.67912 0.0
C780 C 0.61209 0.18758 0.67146 0.0
C781 C 0.61773 0.19192 0.6385 0.0
C782 C 0.60972 0.17817 0.61338 0.0
C783 C 0.59619 0.16012 0.62167 0.0
C784 C 0.59105 0.15526 0.65381 0.0
C785 C 0.57407 0.13665 0.65613 0.0
C786 C 0.58416 0.11603 0.67285 0.0
C787 C 0.55271 0.14452 0.67373 0.0
C788 C 0.56983 0.13237 0.62031 0.0
C789 C 0.58298 0.14577 0.60075 0.0
C790 C 0.58057 0.14604 0.56688 0.0
C791 C 0.564 0.13256 0.55274 0.0
C792 C 0.54998 0.11919 0.57252 0.0
C793 C 0.55341 0.11878 0.60663 0.0
H794 H 0.54357 0.80558 0.3197 0.0
H795 H 0.61167 0.79099 0.34906 0.0
H796 H 0.60317 0.80399 0.40482 0.0
H797 H 0.53549 0.85534 0.37293 0.0
H798 H 0.50691 0.84791 0.38139 0.0
H799 H 0.5193 0.84058 0.34277 0.0
H800 H 0.50917 0.79892 0.35248 0.0
H801 H 0.4966 0.8065 0.39067 0.0
H802 H 0.51817 0.78552 0.38963 0.0
H803 H 0.58609 0.81442 0.45881 0.0
H804 H 0.56189 0.82235 0.50633 0.0
H805 H 0.50505 0.82967 0.44141 0.0
C806 C 0.55688 0.80571 0.33758 0.0
C807 C 0.5783 0.79737 0.32996 0.0
C808 C 0.59514 0.7974 0.35429 0.0
C809 C 0.59049 0.80477 0.38604 0.0
C810 C 0.56897 0.81219 0.39303 0.0
C811 C 0.5525 0.81291 0.3694 0.0
C812 C 0.53029 0.81987 0.38375 0.0
C813 C 0.52255 0.84226 0.36935 0.0
C814 C 0.51254 0.80159 0.37885 0.0
C815 C 0.53667 0.82225 0.41929 0.0
C816 C 0.5591 0.81803 0.42415 0.0
C817 C 0.56856 0.81809 0.45525 0.0
C818 C 0.55468 0.82254 0.4821 0.0
C819 C 0.53161 0.82671 0.47761 0.0
C820 C 0.52265 0.82674 0.4457 0.0
H821 H 0.89917 0.77025 0.11455 0.0
H822 H 0.86315 0.83287 0.12309 0.0
H823 H 0.89058 0.85075 0.08636 0.0
H824 H 0.95195 0.79228 0.11913 0.0
H825 H 0.9646 0.77341 0.09028 0.0
H826 H 0.9404 0.76482 0.11295 0.0
H827 H 0.91962 0.756 0.05904 0.0
H828 H 0.94383 0.76453 0.03608 0.0
H829 H 0.91711 0.7773 0.02819 0.0
H830 H 0.92446 0.86282 0.05519 0.0
H831 H 0.96201 0.86825 0.03176 0.0
H832 H 0.97558 0.79752 0.04293 0.0
C833 C 0.89674 0.78763 0.10821 0.0
C834 C 0.87901 0.8002 0.12169 0.0
C835 C 0.87655 0.82291 0.11295 0.0
C836 C 0.89201 0.83318 0.09203 0.0
C837 C 0.90961 0.8204 0.07981 0.0
C838 C 0.91192 0.79806 0.08737 0.0
C839 C 0.93327 0.78846 0.07338 0.0
C840 C 0.94844 0.77922 0.10056 0.0
C841 C 0.92814 0.77051 0.04764 0.0
C842 C 0.94313 0.80915 0.0579 0.0
C843 C 0.92908 0.82732 0.06148 0.0
C844 C 0.9354 0.84865 0.05169 0.0
C845 C 0.9568 0.85157 0.03851 0.0
C846 C 0.97164 0.83327 0.03534 0.0
C847 C 0.96444 0.81173 0.04444 0.0
H848 H 0.49847 0.64182 0.92518 0.0
H849 H 0.52847 0.6404 0.02159 0.0
H850 H 0.56428 0.65287 0.99801 0.0
H851 H 0.54963 0.62474 0.87854 0.0
H852 H 0.54283 0.64336 0.84545 0.0
H853 H 0.52083 0.63062 0.86901 0.0
H854 H 0.50451 0.6697 0.88155 0.0
H855 H 0.52644 0.68262 0.8584 0.0
H856 H 0.52203 0.69051 0.90035 0.0
H857 H 0.5945 0.67132 0.9658 0.0
H858 H 0.61706 0.69349 0.92711 0.0
H859 H 0.56777 0.68181 0.8515 0.0
C860 C 0.51273 0.64349 0.94125 0.0
C861 C 0.5107 0.64006 0.9752 0.0
C862 C 0.52966 0.64281 0.99546 0.0
C863 C 0.5501 0.64982 0.98227 0.0
C864 C 0.55134 0.65372 0.94879 0.0
C865 C 0.53321 0.65041 0.92849 0.0
C866 C 0.53817 0.65787 0.89397 0.0
C867 C 0.53785 0.63796 0.87035 0.0
C868 C 0.52183 0.67627 0.88295 0.0
C869 C 0.56158 0.66684 0.89832 0.0
C870 C 0.569 0.66404 0.93002 0.0
C871 C 0.58914 0.67311 0.94072 0.0
C872 C 0.6018 0.68572 0.91864 0.0
C873 C 0.59428 0.68906 0.88626 0.0
C874 C 0.57422 0.679 0.87585 0.0
H875 H 0.59705 0.32507 0.1554 0.0
H876 H 0.63135 0.29412 0.07387 0.0
H877 H 0.6142 0.32154 0.03649 0.0
H878 H 0.54779 0.32982 0.11874 0.0
H879 H 0.53963 0.35609 0.13655 0.0
H880 H 0.55903 0.33842 0.15758 0.0
H881 H 0.58787 0.37067 0.1595 0.0
H882 H 0.56841 0.38858 0.13845 0.0
H883 H 0.59607 0.38436 0.12222 0.0
H884 H 0.58755 0.34681 0.00712 0.0
H885 H 0.55342 0.36634 0.98889 0.0
H886 H 0.53655 0.38049 0.08969 0.0
C887 C 0.60167 0.32456 0.12987 0.0
C888 C 0.6156 0.3075 0.11758 0.0
C889 C 0.62083 0.30713 0.08389 0.0
C890 C 0.61123 0.32272 0.06248 0.0
C891 C 0.59667 0.33868 0.07521 0.0
C892 C 0.59211 0.33981 0.10827 0.0
C893 C 0.57337 0.35602 0.11541 0.0
C894 C 0.55382 0.34438 0.13307 0.0
C895 C 0.58195 0.3761 0.13505 0.0
C896 C 0.56712 0.36278 0.08109 0.0
C897 C 0.5811 0.35314 0.05821 0.0
C898 C 0.57686 0.35491 0.02481 0.0
C899 C 0.55743 0.36607 0.01465 0.0
C900 C 0.54237 0.37494 0.0379 0.0
C901 C 0.54788 0.37407 0.07135 0.0
H902 H 0.88614 0.26929 0.34511 0.0
H903 H 0.89974 0.30684 0.25672 0.0
H904 H 0.91828 0.33606 0.28959 0.0
H905 H 0.87612 0.31722 0.39871 0.0
H906 H 0.88964 0.30402 0.43293 0.0
H907 H 0.87568 0.28726 0.40266 0.0
H908 H 0.91212 0.26476 0.39339 0.0
H909 H 0.9262 0.28147 0.42349 0.0
H910 H 0.93743 0.27935 0.3828 0.0
H911 H 0.93781 0.35973 0.33199 0.0
H912 H 0.9566 0.37584 0.38027 0.0
H913 H 0.93004 0.32232 0.44019 0.0
C914 C 0.89268 0.28381 0.33262 0.0
C915 C 0.89144 0.28581 0.29833 0.0
C916 C 0.90044 0.30498 0.28298 0.0
C917 C 0.91097 0.32168 0.30144 0.0
C918 C 0.91224 0.31895 0.33518 0.0
C919 C 0.90324 0.30053 0.35059 0.0
C920 C 0.90787 0.30085 0.38685 0.0
C921 C 0.88602 0.30244 0.40644 0.0
C922 C 0.92173 0.2804 0.39722 0.0
C923 C 0.92128 0.32213 0.3894 0.0
C924 C 0.92349 0.33246 0.35943 0.0
C925 C 0.936 0.3519 0.35564 0.0
C926 C 0.94663 0.3609 0.38318 0.0
C927 C 0.94475 0.35038 0.41401 0.0
C928 C 0.93169 0.33087 0.41704 0.0
H929 H 0.91652 0.74614 0.61641 0.0
H930 H 0.87181 0.6983 0.66169 0.0
H931 H 0.8896 0.66794 0.63028 0.0
H932 H 0.92124 0.71796 0.53532 0.0
H933 H 0.95044 0.72489 0.53203 0.0
H934 H 0.93171 0.74323 0.55365 0.0
H935 H 0.95703 0.7408 0.6048 0.0
H936 H 0.97573 0.72241 0.58349 0.0
H937 H 0.96362 0.71382 0.62175 0.0
H938 H 0.91522 0.64245 0.59989 0.0
H939 H 0.94696 0.62363 0.57317 0.0
H940 H 0.9753 0.68808 0.54822 0.0
C941 C 0.91 0.72938 0.61901 0.0
C942 C 0.89267 0.72458 0.64131 0.0
C943 C 0.885 0.70235 0.64461 0.0
C944 C 0.89494 0.68502 0.62679 0.0
C945 C 0.91246 0.69023 0.60573 0.0
C946 C 0.91986 0.71189 0.60163 0.0
C947 C 0.94046 0.71277 0.58025 0.0
C948 C 0.93567 0.72546 0.54842 0.0
C949 C 0.96038 0.72305 0.59869 0.0
C950 C 0.94397 0.68815 0.5739 0.0
C951 C 0.92744 0.67545 0.58838 0.0
C952 C 0.92804 0.65222 0.58797 0.0
C953 C 0.94619 0.64168 0.57283 0.0
C954 C 0.96357 0.65439 0.55849 0.0
C955 C 0.96212 0.67791 0.55851 0.0
H956 H 0.50756 0.35112 0.59746 0.0
H957 H 0.55685 0.35412 0.51999 0.0
H958 H 0.58632 0.34377 0.55931 0.0
H959 H 0.54505 0.36995 0.66613 0.0
H960 H 0.53226 0.35054 0.69405 0.0
H961 H 0.51599 0.36274 0.66161 0.0
H962 H 0.50513 0.32321 0.64149 0.0
H963 H 0.52139 0.31091 0.67362 0.0
H964 H 0.52686 0.30346 0.63176 0.0
H965 H 0.60893 0.3272 0.60407 0.0
H966 H 0.62291 0.3052 0.65066 0.0
H967 H 0.55896 0.31277 0.69919 0.0
C968 C 0.52468 0.3504 0.58899 0.0
C969 C 0.52998 0.35362 0.55575 0.0
C970 C 0.55246 0.35185 0.54541 0.0
C971 C 0.56932 0.34609 0.5676 0.0
C972 C 0.56342 0.34225 0.60002 0.0
C973 C 0.54164 0.34447 0.61076 0.0
C974 C 0.53915 0.33664 0.64571 0.0
C975 C 0.53274 0.35614 0.6682 0.0
C976 C 0.52214 0.31742 0.64826 0.0
C977 C 0.5627 0.32871 0.65247 0.0
C978 C 0.57654 0.33249 0.62602 0.0
C979 C 0.59842 0.3246 0.62521 0.0
C980 C 0.60618 0.31206 0.65173 0.0
C981 C 0.59207 0.30745 0.67863 0.0
C982 C 0.57029 0.31647 0.67932 0.0
H983 H 0.98706 0.35124 0.93064 0.0
H984 H 0.95406 0.41501 0.94508 0.0
H985 H 0.9193 0.39938 0.92197 0.0
H986 H 0.96345 0.33941 0.85472 0.0
H987 H 0.96078 0.30984 0.86166 0.0
H988 H 0.98225 0.32537 0.88227 0.0
H989 H 0.96749 0.31148 0.93814 0.0
H990 H 0.94598 0.29579 0.91768 0.0
H991 H 0.93858 0.31581 0.94867 0.0
H992 H 0.88901 0.37748 0.89315 0.0
H993 H 0.86576 0.35107 0.86157 0.0
H994 H 0.91898 0.30195 0.86646 0.0
C995 C 0.97244 0.36186 0.92949 0.0
C996 C 0.97328 0.38435 0.93977 0.0
C997 C 0.95381 0.39771 0.93746 0.0
C998 C 0.93398 0.38897 0.9244 0.0
C999 C 0.93387 0.36684 0.91393 0.0
C1000 C 0.95258 0.35344 0.91653 0.0
C1001 C 0.94857 0.33061 0.90194 0.0
C1002 C 0.96472 0.32606 0.87346 0.0
C1003 C 0.95025 0.31234 0.92818 0.0
C1004 C 0.92482 0.33337 0.89009 0.0
C1005 C 0.91653 0.3543 0.89742 0.0
C1006 C 0.89524 0.36095 0.8876 0.0
C1007 C 0.88218 0.34586 0.86963 0.0
C1008 C 0.8905 0.32441 0.8616 0.0
C1009 C 0.91202 0.31813 0.87237 0.0
H1010 H 0.93235 0.65965 0.01627 0.0
H1011 H 0.96424 0.62007 0.09175 0.0
H1012 H 0.93578 0.63265 0.13131 0.0
H1013 H 0.9221 0.70554 0.06376 0.0
H1014 H 0.89559 0.71251 0.04564 0.0
H1015 H 0.91608 0.69754 0.02227 0.0
H1016 H 0.8874 0.66598 0.01134 0.0
H1017 H 0.86674 0.68092 0.03472 0.0
H1018 H 0.87371 0.65256 0.04525 0.0
H1019 H 0.90756 0.65409 0.16429 0.0
H1020 H 0.88155 0.68202 0.18739 0.0
H1021 H 0.8677 0.70652 0.08984 0.0
C1022 C 0.93303 0.65312 0.04088 0.0
C1023 C 0.95048 0.63882 0.05089 0.0
C1024 C 0.95095 0.63095 0.08348 0.0
C1025 C 0.93483 0.63796 0.10612 0.0
C1026 C 0.91822 0.65262 0.09566 0.0
C1027 C 0.9171 0.65992 0.0637 0.0
C1028 C 0.89899 0.67724 0.05925 0.0
C1029 C 0.90878 0.69951 0.04703 0.0
C1030 C 0.88062 0.66865 0.03628 0.0
C1031 C 0.89059 0.67914 0.09393 0.0
C1032 C 0.90171 0.66468 0.11458 0.0
C1033 C 0.89836 0.66511 0.14826 0.0
C1034 C 0.8836 0.68104 0.16117 0.0
C1035 C 0.87241 0.69626 0.14039 0.0
C1036 C 0.87558 0.6948 0.10633 0.0
H1037 H 0.60662 0.71443 0.37541 0.0
H1038 H 0.61503 0.67859 0.28437 0.0
H1039 H 0.60177 0.64408 0.31084 0.0
H1040 H 0.61791 0.66523 0.43322 0.0
H1041 H 0.59627 0.6748 0.46042 0.0
H1042 H 0.61258 0.69469 0.43757 0.0
H1043 H 0.5762 0.71164 0.41394 0.0
H1044 H 0.55986 0.69182 0.43637 0.0
H1045 H 0.55683 0.69376 0.39269 0.0
H1046 H 0.5802 0.6165 0.34243 0.0
H1047 H 0.55128 0.59836 0.37592 0.0
H1048 H 0.55587 0.65204 0.4466 0.0
C1049 C 0.60668 0.69907 0.36151 0.0
C1050 C 0.61209 0.69905 0.328 0.0
C1051 C 0.61114 0.67886 0.31018 0.0
C1052 C 0.60375 0.65916 0.32508 0.0
C1053 C 0.59742 0.65995 0.35781 0.0
C1054 C 0.59899 0.67937 0.37593 0.0
C1055 C 0.58752 0.67692 0.40869 0.0
C1056 C 0.6046 0.67797 0.43663 0.0
C1057 C 0.56901 0.69456 0.41313 0.0
C1058 C 0.57794 0.65367 0.40525 0.0
C1059 C 0.58442 0.64391 0.37615 0.0
C1060 C 0.57549 0.62368 0.36566 0.0
C1061 C 0.55898 0.61354 0.38479 0.0
C1062 C 0.55142 0.62376 0.41392 0.0
C1063 C 0.56168 0.6436 0.42483 0.0
H1064 H 0.43044 0.33604 0.10869 0.0
H1065 H 0.48852 0.35219 0.16753 0.0
H1066 H 0.47494 0.3269 0.21086 0.0
H1067 H 0.39088 0.33294 0.17446 0.0
H1068 H 0.37585 0.30986 0.15678 0.0
H1069 H 0.39012 0.32943 0.13078 0.0
H1070 H 0.41229 0.29694 0.10419 0.0
H1071 H 0.39804 0.27729 0.13006 0.0
H1072 H 0.42811 0.27825 0.12976 0.0
H1073 H 0.45527 0.29857 0.24705 0.0
H1074 H 0.43092 0.27025 0.27306 0.0
H1075 H 0.3858 0.27398 0.19032 0.0
C1076 C 0.44029 0.33438 0.13072 0.0
C1077 C 0.4605 0.34614 0.13476 0.0
C1078 C 0.47291 0.34341 0.16396 0.0
C1079 C 0.46535 0.32907 0.1887 0.0
C1080 C 0.44534 0.31769 0.18386 0.0
C1081 C 0.43299 0.32024 0.1556 0.0
C1082 C 0.41221 0.30595 0.15606 0.0
C1083 C 0.39102 0.32042 0.15444 0.0
C1084 C 0.41271 0.28858 0.12838 0.0
C1085 C 0.41472 0.295 0.18905 0.0
C1086 C 0.43395 0.30183 0.20475 0.0
C1087 C 0.44006 0.29325 0.23511 0.0
C1088 C 0.42615 0.2772 0.24968 0.0
C1089 C 0.40637 0.27007 0.23387 0.0
C1090 C 0.40063 0.27928 0.2033 0.0
H1091 H 0.43794 0.67423 0.96087 0.0
H1092 H 0.38053 0.63001 0.95944 0.0
H1093 H 0.37049 0.64417 0.90461 0.0
H1094 H 0.41292 0.72089 0.91671 0.0
H1095 H 0.43843 0.72689 0.89509 0.0
H1096 H 0.43952 0.71486 0.93534 0.0
H1097 H 0.46361 0.68228 0.91304 0.0
H1098 H 0.4624 0.69405 0.87269 0.0
H1099 H 0.45328 0.66578 0.87952 0.0
H1100 H 0.3682 0.66177 0.84844 0.0
H1101 H 0.37338 0.68173 0.79618 0.0
H1102 H 0.4332 0.71305 0.83475 0.0
C1103 C 0.42295 0.66781 0.94945 0.0
C1104 C 0.4099 0.65111 0.96458 0.0
C1105 C 0.39068 0.64291 0.9484 0.0
C1106 C 0.38489 0.65082 0.91725 0.0
C1107 C 0.39854 0.66684 0.90269 0.0
C1108 C 0.41713 0.67529 0.91838 0.0
C1109 C 0.42986 0.69138 0.89689 0.0
C1110 C 0.43019 0.7149 0.91191 0.0
C1111 C 0.45368 0.68286 0.89014 0.0
C1112 C 0.4156 0.69062 0.86649 0.0
C1113 C 0.39755 0.67648 0.8703 0.0
C1114 C 0.38221 0.67295 0.84525 0.0
C1115 C 0.38534 0.68431 0.81565 0.0
C1116 C 0.40372 0.69891 0.81134 0.0
C1117 C 0.41901 0.70198 0.83718 0.0
H1118 H 0.09296 0.71887 0.70406 0.0
H1119 H 0.15554 0.68448 0.68584 0.0
H1120 H 0.13466 0.65166 0.66599 0.0
H1121 H 0.05941 0.66818 0.72723 0.0
H1122 H 0.03502 0.67895 0.70682 0.0
H1123 H 0.0547 0.69787 0.72532 0.0
H1124 H 0.05901 0.71854 0.67012 0.0
H1125 H 0.03953 0.69967 0.65146 0.0
H1126 H 0.06706 0.70298 0.63434 0.0
H1127 H 0.10752 0.62568 0.63926 0.0
H1128 H 0.0762 0.60811 0.6096 0.0
H1129 H 0.03137 0.65912 0.64643 0.0
C1130 C 0.1023 0.70419 0.69686 0.0
C1131 C 0.12589 0.70423 0.69654 0.0
C1132 C 0.13747 0.68481 0.68645 0.0
C1133 C 0.12574 0.66606 0.6752 0.0
C1134 C 0.10248 0.66691 0.67464 0.0
C1135 C 0.09087 0.68539 0.68563 0.0
C1136 C 0.06608 0.68312 0.67935 0.0
C1137 C 0.05304 0.68195 0.71161 0.0
C1138 C 0.05743 0.7022 0.65752 0.0
C1139 C 0.06564 0.66096 0.66171 0.0
C1140 C 0.08675 0.6517 0.65961 0.0
C1141 C 0.09084 0.63246 0.64145 0.0
C1142 C 0.07297 0.62265 0.62458 0.0
C1143 C 0.05133 0.63213 0.62601 0.0
C1144 C 0.04761 0.65119 0.64549 0.0
H1145 H 0.04052 0.30178 0.469 0.0
H1146 H 0.04042 0.37422 0.46737 0.0
H1147 H 0.07328 0.37381 0.43111 0.0
H1148 H 0.1027 0.29463 0.46445 0.0
H1149 H 0.10005 0.27047 0.43852 0.0
H1150 H 0.07881 0.27653 0.46843 0.0
H1151 H 0.04872 0.27605 0.42293 0.0
H1152 H 0.06987 0.27008 0.39311 0.0
H1153 H 0.05199 0.29402 0.38796 0.0
H1154 H 0.10199 0.36554 0.3883 0.0
H1155 H 0.12561 0.34986 0.3444 0.0
H1156 H 0.1078 0.28295 0.37534 0.0
C1157 C 0.04777 0.31757 0.46178 0.0
C1158 C 0.03789 0.33802 0.47106 0.0
C1159 C 0.04774 0.35832 0.4607 0.0
C1160 C 0.06644 0.35828 0.44012 0.0
C1161 C 0.07531 0.33781 0.43051 0.0
C1162 C 0.06649 0.31782 0.44137 0.0
C1163 C 0.07792 0.29812 0.42536 0.0
C1164 C 0.09063 0.28412 0.45071 0.0
C1165 C 0.06111 0.28374 0.4062 0.0
C1166 C 0.09385 0.31016 0.40276 0.0
C1167 C 0.09227 0.33305 0.40629 0.0
C1168 C 0.10379 0.34765 0.38583 0.0
C1169 C 0.11708 0.33861 0.36091 0.0
C1170 C 0.11875 0.31522 0.35677 0.0
C1171 C 0.1073 0.3009 0.37841 0.0
H1172 H 0.41606 0.65012 0.39553 0.0
H1173 H 0.45796 0.61458 0.32658 0.0
H1174 H 0.44621 0.64045 0.28285 0.0
H1175 H 0.37072 0.66615 0.33775 0.0
H1176 H 0.36763 0.69319 0.35649 0.0
H1177 H 0.37628 0.66961 0.38069 0.0
H1178 H 0.41142 0.69148 0.39919 0.0
H1179 H 0.40303 0.71499 0.37487 0.0
H1180 H 0.43014 0.7026 0.36882 0.0
H1181 H 0.43328 0.67277 0.24831 0.0
H1182 H 0.42051 0.70904 0.22624 0.0
H1183 H 0.38825 0.72369 0.31867 0.0
C1184 C 0.42216 0.64731 0.37099 0.0
C1185 C 0.43767 0.63021 0.36428 0.0
C1186 C 0.4459 0.62752 0.33211 0.0
C1187 C 0.43929 0.64208 0.30713 0.0
C1188 C 0.42451 0.65926 0.31479 0.0
C1189 C 0.41598 0.66188 0.34594 0.0
C1190 C 0.40234 0.68303 0.34877 0.0
C1191 C 0.37778 0.67767 0.35636 0.0
C1192 C 0.41234 0.69895 0.37441 0.0
C1193 C 0.40499 0.69217 0.31462 0.0
C1194 C 0.41754 0.67812 0.29517 0.0
C1195 C 0.42315 0.68376 0.26317 0.0
C1196 C 0.41586 0.70438 0.25085 0.0
C1197 C 0.40338 0.71916 0.27071 0.0
C1198 C 0.39769 0.71273 0.30281 0.0
H1199 H 0.03367 0.67505 0.05137 0.0
H1200 H 0.08659 0.63699 0.00492 0.0
H1201 H 0.11185 0.6462 0.0507 0.0
H1202 H 0.06916 0.71906 0.08595 0.0
H1203 H 0.05259 0.72071 0.12259 0.0
H1204 H 0.03973 0.71275 0.08462 0.0
H1205 H 0.02517 0.67651 0.11204 0.0
H1206 H 0.03839 0.68426 0.1498 0.0
H1207 H 0.04477 0.65778 0.13115 0.0
H1208 H 0.13043 0.65755 0.10346 0.0
H1209 H 0.14124 0.67115 0.15816 0.0
H1210 H 0.07573 0.70128 0.16954 0.0
C1211 C 0.05068 0.66893 0.05046 0.0
C1212 C 0.05819 0.65533 0.02453 0.0
C1213 C 0.08051 0.64751 0.02449 0.0
C1214 C 0.09496 0.65263 0.05038 0.0
C1215 C 0.08683 0.66565 0.07594 0.0
C1216 C 0.06525 0.67384 0.07602 0.0
C1217 C 0.06021 0.68659 0.107 0.0
C1218 C 0.05513 0.71124 0.09958 0.0
C1219 C 0.041 0.67562 0.12611 0.0
C1220 C 0.08221 0.68402 0.12461 0.0
C1221 C 0.09741 0.672 0.10629 0.0
C1222 C 0.11872 0.66711 0.11793 0.0
C1223 C 0.12467 0.67484 0.14904 0.0
C1224 C 0.10931 0.68723 0.16813 0.0
C1225 C 0.08784 0.69182 0.15561 0.0
H1226 H 0.0896 0.26314 0.79094 0.0
H1227 H 0.14049 0.30716 0.75157 0.0
H1228 H 0.12882 0.33659 0.79031 0.0
H1229 H 0.04729 0.30575 0.8066 0.0
H1230 H 0.03826 0.29256 0.84385 0.0
H1231 H 0.04947 0.2759 0.81113 0.0
H1232 H 0.07896 0.2594 0.85066 0.0
H1233 H 0.06791 0.27607 0.88344 0.0
H1234 H 0.09708 0.27795 0.87293 0.0
H1235 H 0.11297 0.36028 0.83567 0.0
H1236 H 0.09325 0.37699 0.88265 0.0
H1237 H 0.05343 0.31681 0.89247 0.0
C1238 C 0.09805 0.2791 0.78994 0.0
C1239 C 0.1159 0.28291 0.7681 0.0
C1240 C 0.1267 0.30393 0.76799 0.0
C1241 C 0.12022 0.32071 0.78993 0.0
C1242 C 0.10294 0.31616 0.81173 0.0
C1243 C 0.09191 0.29591 0.81172 0.0
C1244 C 0.07458 0.29477 0.83851 0.0
C1245 C 0.051 0.29209 0.82415 0.0
C1246 C 0.07997 0.27594 0.86282 0.0
C1247 C 0.07767 0.3175 0.85383 0.0
C1248 C 0.09405 0.32963 0.83801 0.0
C1249 C 0.10002 0.351 0.84812 0.0
C1250 C 0.08878 0.36031 0.87489 0.0
C1251 C 0.0718 0.34821 0.89124 0.0
C1252 C 0.06632 0.3265 0.88054 0.0
H1253 H 0.45811 0.31642 0.55488 0.0
H1254 H 0.4004 0.32506 0.49202 0.0
H1255 H 0.376 0.31064 0.53597 0.0
H1256 H 0.43984 0.26578 0.59527 0.0
H1257 H 0.45107 0.27408 0.63424 0.0
H1258 H 0.46394 0.28377 0.59713 0.0
H1259 H 0.4593 0.32462 0.61651 0.0
H1260 H 0.44625 0.31514 0.65356 0.0
H1261 H 0.43196 0.33474 0.62754 0.0
H1262 H 0.35801 0.29571 0.58708 0.0
H1263 H 0.34756 0.2819 0.64176 0.0
H1264 H 0.41704 0.28485 0.67167 0.0
C1265 C 0.44038 0.31498 0.55011 0.0
C1266 C 0.43113 0.32166 0.51992 0.0
C1267 C 0.40781 0.31993 0.51492 0.0
C1268 C 0.39385 0.31177 0.53972 0.0
C1269 C 0.4035 0.30564 0.56936 0.0
C1270 C 0.42623 0.30718 0.57465 0.0
C1271 C 0.43236 0.30037 0.60907 0.0
C1272 C 0.4477 0.27977 0.6089 0.0
C1273 C 0.44309 0.31989 0.62776 0.0
C1274 C 0.40948 0.2948 0.62243 0.0
C1275 C 0.39309 0.29778 0.59908 0.0
C1276 C 0.3707 0.29335 0.60557 0.0
C1277 C 0.36493 0.28552 0.63668 0.0
C1278 C 0.38147 0.28242 0.66098 0.0
C1279 C 0.404 0.28727 0.65371 0.0
H1280 H 0.29381 0.22775 0.2382 0.0
H1281 H 0.32531 0.25128 0.32723 0.0
H1282 H 0.29263 0.27524 0.33826 0.0
H1283 H 0.2694 0.2796 0.21474 0.0
H1284 H 0.24401 0.26733 0.19939 0.0
H1285 H 0.26963 0.25158 0.19872 0.0
H1286 H 0.25081 0.21981 0.23167 0.0
H1287 H 0.22507 0.23535 0.23211 0.0
H1288 H 0.2374 0.22619 0.26993 0.0
H1289 H 0.25698 0.29736 0.33886 0.0
H1290 H 0.21969 0.31406 0.33109 0.0
H1291 H 0.21147 0.27597 0.24172 0.0
C1292 C 0.2938 0.2378 0.26016 0.0
C1293 C 0.31215 0.23763 0.28185 0.0
C1294 C 0.31144 0.25107 0.31029 0.0
C1295 C 0.29299 0.26482 0.3167 0.0
C1296 C 0.27537 0.26488 0.2945 0.0
C1297 C 0.27552 0.25157 0.26697 0.0
C1298 C 0.25439 0.25463 0.24715 0.0
C1299 C 0.25969 0.26384 0.21298 0.0
C1300 C 0.24113 0.23269 0.24511 0.0
C1301 C 0.24236 0.27179 0.2678 0.0
C1302 C 0.25479 0.27755 0.29493 0.0
C1303 C 0.24708 0.29296 0.31773 0.0
C1304 C 0.22589 0.30241 0.31303 0.0
C1305 C 0.21264 0.29637 0.28577 0.0
C1306 C 0.22121 0.28106 0.2627 0.0
H1307 H 0.00202 0.94879 0.52111 0.0
H1308 H 0.00783 0.92669 0.42059 0.0
H1309 H 0.02295 0.96361 0.40524 0.0
H1310 H 0.98298 0.00296 0.50299 0.0
H1311 H -0.00229 0.01621 0.5361 0.0
H1312 H 0.98933 0.98748 0.53955 0.0
H1313 H 0.03032 0.97614 0.5514 0.0
H1314 H 0.03884 0.00487 0.54786 0.0
H1315 H 0.05196 0.98382 0.52295 0.0
H1316 H 0.03584 0.00336 0.40056 0.0
H1317 H 0.04318 0.04368 0.40595 0.0
H1318 H 0.02798 0.03992 0.50943 0.0
C1319 C 0.00674 0.95159 0.49593 0.0
C1320 C 0.00388 0.93486 0.47205 0.0
C1321 C 0.0099 0.9393 0.43927 0.0
C1322 C 0.01861 0.96016 0.43037 0.0
C1323 C 0.0211 0.97635 0.45453 0.0
C1324 C 0.01524 0.97234 0.4866 0.0
C1325 C 0.01811 0.99299 0.50745 0.0
C1326 C 0.9957 0.00034 0.52238 0.0
C1327 C 0.03587 0.98922 0.53398 0.0
C1328 C 0.02616 0.00938 0.48197 0.0
C1329 C 0.02808 -0.00062 0.45171 0.0
C1330 C 0.03452 0.01135 0.42416 0.0
C1331 C 0.03868 0.03425 0.42751 0.0
C1332 C 0.03616 0.04497 0.45813 0.0
C1333 C 0.03018 0.03221 0.48574 0.0
H1334 H 0.31577 0.74988 0.77128 0.0
H1335 H 0.32955 0.7468 0.66735 0.0
H1336 H 0.28978 0.75463 0.6558 0.0
H1337 H 0.26299 0.72268 0.76821 0.0
H1338 H 0.25062 0.73973 0.79962 0.0
H1339 H 0.28027 0.73478 0.79959 0.0
H1340 H 0.28749 0.77742 0.79947 0.0
H1341 H 0.25785 0.78251 0.79951 0.0
H1342 H 0.27514 0.79448 0.76805 0.0
H1343 H 0.24844 0.76212 0.65575 0.0
H1344 H 0.20841 0.76796 0.66697 0.0
H1345 H 0.22177 0.76568 0.77108 0.0
C1346 C 0.3105 0.75098 0.74606 0.0
C1347 C 0.32577 0.74778 0.72019 0.0
C1348 C 0.31813 0.7492 0.68755 0.0
C1349 C 0.2956 0.75367 0.68076 0.0
C1350 C 0.28098 0.75665 0.70687 0.0
C1351 C 0.28812 0.75533 0.73886 0.0
C1352 C 0.26896 0.75859 0.7625 0.0
C1353 C 0.26551 0.7377 0.78372 0.0
C1354 C 0.27258 0.7795 0.78362 0.0
C1355 C 0.24986 0.76182 0.73881 0.0
C1356 C 0.25717 0.76076 0.70685 0.0
C1357 C 0.24254 0.76303 0.68067 0.0
C1358 C 0.21982 0.76636 0.68733 0.0
C1359 C 0.21192 0.76729 0.71993 0.0
C1360 C 0.22725 0.76508 0.74592 0.0
H1361 H 0.48726 0.06821 0.02579 0.0
H1362 H 0.45573 0.08126 0.93233 0.0
H1363 H 0.44847 0.04092 0.92567 0.0
H1364 H 0.51488 0.01828 0.00171 0.0
H1365 H 0.51117 0.00457 0.04048 0.0
H1366 H 0.51278 0.03454 0.0386 0.0
H1367 H 0.47463 0.03752 0.06819 0.0
H1368 H 0.47287 0.00754 0.07007 0.0
H1369 H 0.45066 0.02337 0.05149 0.0
H1370 H 0.44518 -0.0008 0.92888 0.0
H1371 H 0.44792 0.95887 0.94008 0.0
H1372 H 0.48245 0.97305 0.03095 0.0
C1373 C 0.47867 0.06263 0.00402 0.0
C1374 C 0.47196 0.07788 0.97962 0.0
C1375 C 0.46103 0.06986 0.95132 0.0
C1376 C 0.45675 0.047 0.94738 0.0
C1377 C 0.46361 0.03242 0.97191 0.0
C1378 C 0.47444 0.03989 -0.00041 0.0
C1379 C 0.48095 0.02068 0.02164 0.0
C1380 C 0.50646 0.01945 0.02583 0.0
C1381 C 0.46906 0.02239 0.05481 0.0
C1382 C 0.47223 0.00119 0.00191 0.0
C1383 C 0.46209 0.00835 0.97348 0.0
C1384 C 0.45304 0.9934 0.9511 0.0
C1385 C 0.45466 0.97051 0.95773 0.0
C1386 C 0.46542 0.96277 0.9864 0.0
C1387 C 0.47408 0.97841 0.00887 0.0
H1388 H 0.21823 0.75137 0.30312 0.0
H1389 H 0.21114 0.70727 0.2196 0.0
H1390 H 0.24881 0.71757 0.20107 0.0
H1391 H 0.2482 0.79473 0.2626 0.0
H1392 H 0.26656 0.80052 0.29641 0.0
H1393 H 0.239 0.7896 0.30381 0.0
H1394 H 0.25585 0.75647 0.3362 0.0
H1395 H 0.28342 0.7675 0.32934 0.0
H1396 H 0.27694 0.73929 0.31738 0.0
H1397 H 0.28645 0.73351 0.1902 0.0
H1398 H 0.32373 0.75088 0.19113 0.0
H1399 H 0.30706 0.78406 0.28221 0.0
C1400 C 0.22468 0.74373 0.28111 0.0
C1401 C 0.21167 0.72855 0.26281 0.0
C1402 C 0.22076 0.7189 0.23414 0.0
C1403 C 0.24211 0.72473 0.22325 0.0
C1404 C 0.25427 0.74011 0.24141 0.0
C1405 C 0.24609 0.74923 0.26999 0.0
C1406 C 0.2629 0.76498 0.28523 0.0
C1407 C 0.2536 0.78887 0.2871 0.0
C1408 C 0.27021 0.75655 0.31903 0.0
C1409 C 0.28173 0.76332 0.26064 0.0
C1410 C 0.27629 0.74903 0.23543 0.0
C1411 C 0.29097 0.74468 0.20987 0.0
C1412 C 0.31208 0.75471 0.21056 0.0
C1413 C 0.31835 0.7688 0.23675 0.0
C1414 C 0.30276 0.77344 0.26178 0.0
H1415 H 0.49267 0.91779 0.52867 0.0
H1416 H 0.50339 0.89579 0.62842 0.0
H1417 H 0.5028 0.935 0.64692 0.0
H1418 H 0.52687 0.96665 0.53269 0.0
H1419 H 0.50857 0.98323 0.50756 0.0
H1420 H 0.50964 0.95343 0.50224 0.0
H1421 H 0.46687 0.95104 0.51126 0.0
H1422 H 0.46566 0.98085 0.51659 0.0
H1423 H 0.45485 0.96267 0.54785 0.0
H1424 H 0.50169 0.97659 0.65438 0.0
H1425 H 0.49942 0.01762 0.65044 0.0
H1426 H 0.48895 0.01226 0.54587 0.0
C1427 C 0.49488 0.92118 0.55442 0.0
C1428 C 0.49811 0.90373 0.5771 0.0
C1429 C 0.50088 0.9089 0.61059 0.0
C1430 C 0.50058 0.93111 0.62135 0.0
C1431 C 0.49742 0.9479 0.59831 0.0
C1432 C 0.49455 0.94321 0.56558 0.0
C1433 C 0.49143 0.96432 0.54582 0.0
C1434 C 0.51025 0.96706 0.5206 0.0
C1435 C 0.46833 0.96474 0.52943 0.0
C1436 C 0.49309 0.98164 0.57256 0.0
C1437 C 0.49657 0.97184 0.60265 0.0
C1438 C 0.4989 0.98447 0.63097 0.0
C1439 C 0.49761 0.00776 0.62846 0.0
C1440 C 0.49397 0.01815 0.59786 0.0
C1441 C 0.49167 0.00483 0.56962 0.0
H1442 H 0.21302 0.19301 0.77433 0.0
H1443 H 0.19206 0.24973 0.71587 0.0
H1444 H 0.23002 0.26544 0.7195 0.0
H1445 H 0.24921 0.22297 0.82824 0.0
H1446 H 0.26998 0.20123 0.83016 0.0
H1447 H 0.24116 0.19421 0.82292 0.0
H1448 H 0.25216 0.17348 0.76977 0.0
H1449 H 0.28104 0.1802 0.77706 0.0
H1450 H 0.26808 0.18796 0.73903 0.0
H1451 H 0.26988 0.27549 0.73056 0.0
H1452 H 0.30994 0.27756 0.74412 0.0
H1453 H 0.30514 0.21402 0.79466 0.0
C1454 C 0.21643 0.20867 0.76213 0.0
C1455 C 0.19954 0.22015 0.74485 0.0
C1456 C 0.20472 0.24058 0.72917 0.0
C1457 C 0.22621 0.24972 0.73123 0.0
C1458 C 0.24235 0.23816 0.7489 0.0
C1459 C 0.23782 0.21797 0.76377 0.0
C1460 C 0.2583 0.20875 0.78073 0.0
C1461 C 0.25442 0.20668 0.8177 0.0
C1462 C 0.26531 0.18627 0.76574 0.0
C1463 C 0.27505 0.22692 0.77305 0.0
C1464 C 0.26545 0.24381 0.7549 0.0
C1465 C 0.27761 0.26235 0.74472 0.0
C1466 C 0.30034 0.26341 0.75268 0.0
C1467 C 0.3107 0.24595 0.77046 0.0
C1468 C 0.29773 0.22766 0.78112 0.0
H1469 H 0.9968 0.03554 0.95761 0.0
H1470 H 0.01232 0.05519 0.05704 0.0
H1471 H 0.02185 0.01609 0.07024 0.0
H1472 H 0.97146 0.98278 0.97787 0.0
H1473 H 0.98252 0.96881 0.94242 0.0
H1474 H 0.9769 -0.00168 0.94106 0.0
H1475 H 0.01783 0.0057 0.9235 0.0
H1476 H 0.02361 0.97622 0.925 0.0
H1477 H 0.04036 0.99538 0.94847 0.0
H1478 H 0.0307 0.97503 0.07199 0.0
H1479 H 0.03606 0.93462 0.06317 0.0
H1480 H 0.01394 0.94202 0.96284 0.0
C1481 C 0.00214 0.03164 0.9822 0.0
C1482 C 0.00387 0.0484 0.00629 0.0
C1483 C 0.01083 0.04259 0.03822 0.0
C1484 C 0.01635 0.02046 0.04591 0.0
C1485 C 0.01467 0.00439 0.02146 0.0
C1486 C 0.00756 0.00968 0.99034 0.0
C1487 C 0.00695 0.9893 0.96858 0.0
C1488 C 0.98304 0.98452 0.9568 0.0
C1489 C 0.02316 0.99181 0.93969 0.0
C1490 C 0.01492 0.97169 0.9923 0.0
C1491 C 0.01939 0.98074 0.02262 0.0
C1492 C 0.02717 0.96774 0.04839 0.0
C1493 C 0.03023 0.94482 0.0431 0.0
C1494 C 0.02537 0.93517 0.01233 0.0
C1495 C 0.01773 0.94888 0.98665 0.0
H1496 H 0.77906 0.78158 0.71759 0.0
H1497 H 0.81159 0.73369 0.78142 0.0
H1498 H 0.77544 0.72551 0.80754 0.0
H1499 H 0.74151 0.80339 0.77731 0.0
H1500 H 0.7186 0.80675 0.74921 0.0
H1501 H 0.74692 0.80831 0.73463 0.0
H1502 H 0.73865 0.77703 0.69267 0.0
H1503 H 0.71029 0.77535 0.70714 0.0
H1504 H 0.7276 0.75073 0.70665 0.0
H1505 H 0.73615 0.7229 0.82735 0.0
H1506 H 0.69617 0.72665 0.84052 0.0
H1507 H 0.68911 0.77647 0.7642 0.0
C1508 C 0.77858 0.76929 0.73694 0.0
C1509 C 0.79816 0.75825 0.74741 0.0
C1510 C 0.79682 0.74238 0.77297 0.0
C1511 C 0.77636 0.73756 0.78793 0.0
C1512 C 0.75741 0.74878 0.77708 0.0
C1513 C 0.7583 0.76433 0.75223 0.0
C1514 C 0.73552 0.77441 0.7458 0.0
C1515 C 0.73566 0.79971 0.75213 0.0
C1516 C 0.72755 0.76905 0.711 0.0
C1517 C 0.72174 0.76217 0.77107 0.0
C1518 C 0.73469 0.74739 0.78872 0.0
C1519 C 0.72581 0.73438 0.81367 0.0
C1520 C 0.70307 0.73664 0.82095 0.0
C1521 C 0.68949 0.75185 0.80339 0.0
C1522 C 0.69901 0.76466 0.77801 0.0
H1523 H 0.703 0.2851 0.19505 0.0
H1524 H 0.67248 0.23056 0.2487 0.0
H1525 H 0.70985 0.21749 0.26551 0.0
H1526 H 0.74952 0.25427 0.16504 0.0
H1527 H 0.76894 0.2771 0.16878 0.0
H1528 H 0.73977 0.28266 0.16194 0.0
H1529 H 0.7386 0.30743 0.21377 0.0
H1530 H 0.76781 0.30203 0.2207 0.0
H1531 H 0.74771 0.29603 0.25225 0.0
H1532 H 0.75057 0.20982 0.27528 0.0
H1533 H 0.79173 0.20846 0.27807 0.0
H1534 H 0.79546 0.26797 0.21782 0.0
C1535 C 0.70412 0.27051 0.21055 0.0
C1536 C 0.6848 0.25888 0.22062 0.0
C1537 C 0.68704 0.23977 0.24072 0.0
C1538 C 0.70819 0.2322 0.25039 0.0
C1539 C 0.7269 0.24394 0.23975 0.0
C1540 C 0.72507 0.26271 0.22036 0.0
C1541 C 0.7478 0.27206 0.21178 0.0
C1542 C 0.75173 0.27148 0.17469 0.0
C1543 C 0.75064 0.2958 0.22545 0.0
C1544 C 0.7627 0.25558 0.22932 0.0
C1545 C 0.75034 0.23949 0.24531 0.0
C1546 C 0.76044 0.22236 0.26293 0.0
C1547 C 0.78382 0.22172 0.26432 0.0
C1548 C 0.79683 0.23811 0.24818 0.0
C1549 C 0.78602 0.25521 0.23046 0.0
H1550 H 0.70803 0.23978 0.69927 0.0
H1551 H 0.67845 0.26552 0.78837 0.0
H1552 H 0.71621 0.27157 0.8112 0.0
H1553 H 0.75354 0.21051 0.73774 0.0
H1554 H 0.77305 0.21692 0.70558 0.0
H1555 H 0.7437 0.2146 0.69659 0.0
H1556 H 0.7441 0.25434 0.6716 0.0
H1557 H 0.77342 0.25681 0.68062 0.0
H1558 H 0.75408 0.27743 0.69573 0.0
H1559 H 0.75748 0.27568 0.82354 0.0
H1560 H 0.79876 0.27601 0.82527 0.0
H1561 H 0.80074 0.24687 0.72832 0.0
C1562 C 0.70944 0.24666 0.72362 0.0
C1563 C 0.69029 0.25223 0.74201 0.0
C1564 C 0.6929 0.2611 0.77384 0.0
C1565 C 0.71426 0.26463 0.78698 0.0
C1566 C 0.73279 0.25909 0.76805 0.0
C1567 C 0.73056 0.25016 0.73713 0.0
C1568 C 0.75306 0.24547 0.72181 0.0
C1569 C 0.756 0.22038 0.71505 0.0
C1570 C 0.75635 0.25935 0.6906 0.0
C1571 C 0.76835 0.25327 0.74885 0.0
C1572 C 0.75639 0.26114 0.7753 0.0
C1573 C 0.767 0.26948 0.80301 0.0
C1574 C 0.79045 0.26965 0.80373 0.0
C1575 C 0.80298 0.26143 0.77697 0.0
C1576 C 0.79167 0.25319 0.74924 0.0
H1577 H 0.7798 0.78656 0.25042 0.0
H1578 H 0.78246 0.75237 0.15713 0.0
H1579 H 0.74123 0.75182 0.15516 0.0
H1580 H 0.73564 0.75562 0.28239 0.0
H1581 H 0.723 0.77858 0.30401 0.0
H1582 H 0.75254 0.77868 0.29612 0.0
H1583 H 0.74892 0.81702 0.26729 0.0
H1584 H 0.71931 0.81704 0.2751 0.0
H1585 H 0.72952 0.82021 0.23399 0.0
H1586 H 0.69977 0.75257 0.16538 0.0
H1587 H 0.66155 0.75304 0.1881 0.0
H1588 H 0.68637 0.78609 0.27512 0.0
C1589 C 0.77174 0.77933 0.22926 0.0
C1590 C 0.78433 0.76962 0.20383 0.0
C1591 C 0.77313 0.75995 0.17687 0.0
C1592 C 0.74972 0.75965 0.17546 0.0
C1593 C 0.7378 0.76909 0.2012 0.0
C1594 C 0.74844 0.77874 0.2276 0.0
C1595 C 0.73187 0.78614 0.25329 0.0
C1596 C 0.73601 0.77402 0.28586 0.0
C1597 C 0.73244 0.81162 0.25766 0.0
C1598 C 0.71028 0.77867 0.23759 0.0
C1599 C 0.71399 0.76918 0.20734 0.0
C1600 C 0.69663 0.76017 0.1889 0.0
C1601 C 0.67498 0.76052 0.202 0.0
C1602 C 0.67096 0.76961 0.23338 0.0
C1603 C 0.68885 0.77913 0.25101 0.0
H1604 H 0.4652 0.45975 0.98068 0.0
H1605 H 0.44193 0.44362 0.07821 0.0
H1606 H 0.43328 0.48335 0.08781 0.0
H1607 H 0.49234 0.50931 0.00114 0.0
H1608 H 0.48484 0.52399 0.96436 0.0
H1609 H 0.4871 0.49406 0.964 0.0
H1610 H 0.44658 0.49098 0.9422 0.0
H1611 H 0.44422 0.52096 0.9424 0.0
H1612 H 0.42416 0.50425 0.96426 0.0
H1613 H 0.43045 0.52531 0.08856 0.0
H1614 H 0.43298 0.56607 0.07978 0.0
H1615 H 0.45751 0.55437 0.98156 0.0
C1616 C 0.45794 0.46448 0.00388 0.0
C1617 C 0.45423 0.44855 0.02867 0.0
C1618 C 0.44488 0.45551 0.05879 0.0
C1619 C 0.43988 0.47804 0.06448 0.0
C1620 C 0.44414 0.49338 0.03972 0.0
C1621 C 0.4528 0.48687 0.00993 0.0
C1622 C 0.4569 0.50675 0.98799 0.0
C1623 C 0.48177 0.50863 0.97886 0.0
C1624 C 0.44208 0.50566 0.95741 0.0
C1625 C 0.44976 0.5255 0.0104 0.0
C1626 C 0.44229 0.51748 0.04005 0.0
C1627 C 0.43598 0.53178 0.06528 0.0
C1628 C 0.43752 0.55489 0.0601 0.0
C1629 C 0.44534 0.56341 0.02996 0.0
C1630 C 0.45123 0.54843 0.00476 0.0
H1631 H 0.0112 0.43623 0.54837 0.0
H1632 H 0.94337 0.42616 0.51389 0.0
H1633 H 0.93756 0.46692 0.51305 0.0
H1634 H -0.00063 0.48472 0.60004 0.0
H1635 H 0.02535 0.4982 0.58984 0.0
H1636 H 0.02358 0.46819 0.59 0.0
H1637 H 0.03781 0.46722 0.53028 0.0
H1638 H 0.03949 0.4972 0.52985 0.0
H1639 H 0.02316 0.48288 0.49942 0.0
H1640 H 0.93992 0.50869 0.51252 0.0
H1641 H 0.94996 0.54861 0.5138 0.0
H1642 H 0.01623 0.53132 0.54867 0.0
C1643 C 0.99501 0.44255 0.5411 0.0
C1644 C 0.97773 0.428 0.53126 0.0
C1645 C 0.95685 0.43698 0.52161 0.0
C1646 C 0.95338 0.46011 0.52105 0.0
C1647 C 0.97091 0.47399 0.53034 0.0
C1648 C 0.99126 0.46557 0.54038 0.0
C1649 C 0.00763 0.48411 0.54789 0.0
C1650 C 0.01437 0.48378 0.58409 0.0
C1651 C 0.02823 0.48276 0.52552 0.0
C1652 C 0.99341 0.50427 0.54 0.0
C1653 C 0.97226 0.49808 0.53005 0.0
C1654 C 0.95637 0.51376 0.52053 0.0
C1655 C 0.96226 0.53639 0.52125 0.0
C1656 C 0.98386 0.5431 0.53138 0.0
C1657 C -0.00045 0.52675 0.54096 0.0
H1658 H 0.0243 0.47711 0.00666 0.0
H1659 H 0.05425 0.4589 0.91389 0.0
H1660 H 0.05126 0.49801 0.89549 0.0
H1661 H 0.98465 0.51526 0.97451 0.0
H1662 H 0.98675 0.5346 0.00805 0.0
H1663 H 0.99225 0.50541 0.01456 0.0
H1664 H 0.03134 0.51496 0.03788 0.0
H1665 H 0.0259 0.54422 0.03163 0.0
H1666 H 0.05036 0.53154 0.0139 0.0
H1667 H 0.04406 0.53906 0.88669 0.0
H1668 H 0.03354 0.57896 0.8886 0.0
H1669 H 0.00788 0.56974 0.9868 0.0
C1670 C 0.03045 0.48135 0.9826 0.0
C1671 C 0.03955 0.46495 0.96176 0.0
C1672 C 0.04722 0.47119 0.93032 0.0
C1673 C 0.0456 0.49336 0.91963 0.0
C1674 C 0.03626 0.50906 0.94064 0.0
C1675 C 0.02887 0.50335 0.97149 0.0
C1676 C 0.019 0.52325 0.98902 0.0
C1677 C 0.99419 0.51939 0.99699 0.0
C1678 C 0.03246 0.52882 0.01993 0.0
C1679 C 0.02187 0.54101 0.96315 0.0
C1680 C 0.03192 0.53256 0.93545 0.0
C1681 C 0.03622 0.54588 0.90828 0.0
C1682 C 0.03016 0.5685 0.90957 0.0
C1683 C 0.01986 0.57747 0.93779 0.0
C1684 C 0.01567 0.56342 0.9648 0.0
H1685 H 0.5076 0.43085 0.42499 0.0
H1686 H 0.44604 0.4094 0.47136 0.0
H1687 H 0.43238 0.44826 0.47097 0.0
H1688 H 0.51385 0.48068 0.4688 0.0
H1689 H 0.52463 0.49658 0.43495 0.0
H1690 H 0.52878 0.46686 0.43636 0.0
H1691 H 0.51008 0.46278 0.37961 0.0
H1692 H 0.50597 0.49255 0.37794 0.0
H1693 H 0.4825 0.47402 0.37316 0.0
H1694 H 0.42646 0.48988 0.46864 0.0
H1695 H 0.42867 0.53096 0.46396 0.0
H1696 H 0.49416 0.52478 0.41933 0.0
C1697 C 0.49112 0.43424 0.43467 0.0
C1698 C 0.47789 0.41708 0.44817 0.0
C1699 C 0.45647 0.42227 0.46081 0.0
C1700 C 0.44854 0.4443 0.46068 0.0
C1701 C 0.46218 0.46088 0.44767 0.0
C1702 C 0.48296 0.45609 0.43473 0.0
C1703 C 0.49472 0.47703 0.42344 0.0
C1704 C 0.51679 0.48049 0.44201 0.0
C1705 C 0.49854 0.47656 0.38633 0.0
C1706 C 0.47755 0.49441 0.43276 0.0
C1707 C 0.4588 0.48478 0.44643 0.0
C1708 C 0.44098 0.49761 0.45772 0.0
C1709 C 0.4424 0.52091 0.455 0.0
C1710 C 0.46158 0.53109 0.44129 0.0
C1711 C 0.47925 0.51755 0.42989 0.0
H1712 H 0.08128 0.36943 0.04823 0.0
H1713 H 0.0147 0.38397 0.08457 0.0
H1714 H 0.02599 0.37131 0.13935 0.0
H1715 H 0.08939 0.31963 0.09382 0.0
H1716 H 0.1186 0.32449 0.10163 0.0
H1717 H 0.10578 0.33583 0.06552 0.0
H1718 H 0.11886 0.37547 0.08199 0.0
H1719 H 0.13176 0.36424 0.11816 0.0
H1720 H 0.11148 0.38636 0.12156 0.0
H1721 H 0.04368 0.35573 0.1893 0.0
H1722 H 0.06673 0.33808 0.23178 0.0
H1723 H 0.12215 0.33351 0.16371 0.0
C1724 C 0.06913 0.37015 0.06777 0.0
C1725 C 0.04709 0.37774 0.06208 0.0
C1726 C 0.03166 0.37824 0.08828 0.0
C1727 C 0.03793 0.37112 0.11952 0.0
C1728 C 0.05969 0.36358 0.12423 0.0
C1729 C 0.07509 0.36306 0.09916 0.0
C1730 C 0.0972 0.35349 0.11066 0.0
C1731 C 0.10308 0.33209 0.09179 0.0
C1732 C 0.11593 0.37094 0.10793 0.0
C1733 C 0.09169 0.34848 0.14601 0.0
C1734 C 0.06998 0.35453 0.15327 0.0
C1735 C 0.06075 0.35103 0.184 0.0
C1736 C 0.074 0.34094 0.20795 0.0
C1737 C 0.09628 0.33443 0.20113 0.0
C1738 C 0.10525 0.33844 0.16975 0.0
H1739 H 0.92801 0.77791 0.25664 0.0
H1740 H 0.85975 0.78082 0.29221 0.0
H1741 H 0.87276 0.80011 0.34189 0.0
H1742 H 0.95426 0.76844 0.33566 0.0
H1743 H 0.97818 0.78549 0.32617 0.0
H1744 H 0.96359 0.77108 0.29402 0.0
H1745 H 0.95793 0.80855 0.26356 0.0
H1746 H 0.97239 0.82309 0.29567 0.0
H1747 H 0.94454 0.83147 0.28431 0.0
H1748 H 0.89286 0.82052 0.3864 0.0
H1749 H 0.91881 0.83974 0.42367 0.0
H1750 H 0.97413 0.82332 0.35942 0.0
C1751 C 0.9158 0.78241 0.27499 0.0
C1752 C 0.89284 0.77782 0.27053 0.0
C1753 C 0.87742 0.78409 0.2951 0.0
C1754 C 0.88465 0.79507 0.32341 0.0
C1755 C 0.90735 0.79957 0.32684 0.0
C1756 C 0.92272 0.79333 0.30342 0.0
C1757 C 0.94612 0.80053 0.31282 0.0
C1758 C 0.96143 0.78017 0.31745 0.0
C1759 C 0.9558 0.81688 0.28759 0.0
C1760 C 0.94144 0.81204 0.345 0.0
C1761 C 0.91898 0.81126 0.35264 0.0
C1762 C 0.91051 0.82113 0.38079 0.0
C1763 C 0.92541 0.83206 0.40176 0.0
C1764 C 0.94854 0.83303 0.39452 0.0
C1765 C 0.95658 0.82281 0.36573 0.0
H1766 H 0.41961 0.72523 0.58822 0.0
H1767 H 0.4332 0.67961 0.6682 0.0
H1768 H 0.4511 0.65352 0.6299 0.0
H1769 H 0.40621 0.68389 0.52925 0.0
H1770 H 0.41939 0.69808 0.49558 0.0
H1771 H 0.40851 0.7139 0.52938 0.0
H1772 H 0.44721 0.7322 0.53795 0.0
H1773 H 0.45819 0.71649 0.50409 0.0
H1774 H 0.47146 0.71476 0.54349 0.0
H1775 H 0.46548 0.63133 0.58312 0.0
H1776 H 0.47685 0.61493 0.53047 0.0
H1777 H 0.45492 0.67499 0.48054 0.0
C1778 C 0.42653 0.70985 0.59772 0.0
C1779 C 0.42496 0.70449 0.63127 0.0
C1780 C 0.43417 0.68414 0.64266 0.0
C1781 C 0.44441 0.66918 0.62109 0.0
C1782 C 0.44545 0.67482 0.5882 0.0
C1783 C 0.43692 0.69471 0.5765 0.0
C1784 C 0.43986 0.69641 0.53981 0.0
C1785 C 0.41714 0.69816 0.5225 0.0
C1786 C 0.45509 0.71613 0.53082 0.0
C1787 C 0.45111 0.67423 0.53279 0.0
C1788 C 0.45414 0.66208 0.56108 0.0
C1789 C 0.4634 0.64075 0.5608 0.0
C1790 C 0.46973 0.63155 0.53077 0.0
C1791 C 0.46688 0.6437 0.50143 0.0
C1792 C 0.45754 0.66538 0.50259 0.0
H1793 H 0.57726 0.2259 0.80518 0.0
H1794 H 0.5328 0.23207 0.72201 0.0
H1795 H 0.5019 0.21664 0.75487 0.0
H1796 H 0.55681 0.17409 0.83269 0.0
H1797 H 0.55957 0.18055 0.87546 0.0
H1798 H 0.57769 0.1937 0.84619 0.0
H1799 H 0.56536 0.23268 0.86696 0.0
H1800 H 0.54725 0.21963 0.89643 0.0
H1801 H 0.53607 0.23963 0.86793 0.0
H1802 H 0.47631 0.19856 0.79624 0.0
H1803 H 0.45818 0.17936 0.8427 0.0
H1804 H 0.51973 0.18496 0.89816 0.0
C1805 C 0.56096 0.22429 0.79397 0.0
C1806 C 0.55744 0.23028 0.76105 0.0
C1807 C 0.53591 0.22763 0.74721 0.0
C1808 C 0.51823 0.21888 0.76568 0.0
C1809 C 0.52235 0.21284 0.79794 0.0
C1810 C 0.54318 0.2155 0.81198 0.0
C1811 C 0.54351 0.20686 0.84666 0.0
C1812 C 0.56039 0.18766 0.85045 0.0
C1813 C 0.54833 0.22584 0.87093 0.0
C1814 C 0.51973 0.19862 0.84977 0.0
C1815 C 0.50771 0.20234 0.82155 0.0
C1816 C 0.4855 0.19564 0.81854 0.0
C1817 C 0.47536 0.18475 0.84505 0.0
C1818 C 0.4875 0.18065 0.87412 0.0
C1819 C 0.50993 0.18785 0.87636 0.0
H1820 H 0.06587 0.67043 0.48701 0.0
H1821 H 0.04465 0.60795 0.44323 0.0
H1822 H 0.06411 0.61815 0.39222 0.0
H1823 H 0.0591 0.70391 0.41471 0.0
H1824 H 0.08312 0.7211 0.42306 0.0
H1825 H 0.0678 0.70871 0.45623 0.0
H1826 H 0.10416 0.69028 0.47743 0.0
H1827 H 0.11959 0.70253 0.44424 0.0
H1828 H 0.12026 0.67276 0.45047 0.0
H1829 H 0.0864 0.63476 0.34652 0.0
H1830 H 0.10816 0.65757 0.30791 0.0
H1831 H 0.11403 0.70977 0.38095 0.0
C1832 C 0.06532 0.65887 0.46671 0.0
C1833 C 0.05381 0.63835 0.46912 0.0
C1834 C 0.05333 0.62377 0.44191 0.0
C1835 C 0.06439 0.62938 0.41289 0.0
C1836 C 0.07568 0.64969 0.41141 0.0
C1837 C 0.07608 0.66429 0.43749 0.0
C1838 C 0.08903 0.68528 0.4293 0.0
C1839 C 0.07385 0.70597 0.43091 0.0
C1840 C 0.10947 0.68785 0.45169 0.0
C1841 C 0.09593 0.68015 0.39456 0.0
C1842 C 0.08816 0.65948 0.38481 0.0
C1843 C 0.09251 0.651 0.35384 0.0
C1844 C 0.10495 0.66409 0.3321 0.0
C1845 C 0.11279 0.6855 0.34136 0.0
C1846 C 0.10825 0.69351 0.3731 0.0
H1847 H 0.59154 0.76583 0.75722 0.0
H1848 H 0.53852 0.75436 0.8275 0.0
H1849 H 0.51054 0.76476 0.786 0.0
H1850 H 0.56796 0.81383 0.72154 0.0
H1851 H 0.57702 0.80739 0.68066 0.0
H1852 H 0.59271 0.79727 0.71505 0.0
H1853 H 0.58878 0.75675 0.69365 0.0
H1854 H 0.57307 0.76676 0.65912 0.0
H1855 H 0.56138 0.74566 0.68537 0.0
H1856 H 0.48843 0.7787 0.73774 0.0
H1857 H 0.47411 0.79523 0.68668 0.0
H1858 H 0.54164 0.79762 0.6482 0.0
C1859 C 0.57403 0.76522 0.76377 0.0
C1860 C 0.56722 0.75921 0.79557 0.0
C1861 C 0.54415 0.75891 0.80328 0.0
C1862 C 0.52811 0.76477 0.77987 0.0
C1863 C 0.5354 0.77091 0.74887 0.0
C1864 C 0.55781 0.77113 0.74077 0.0
C1865 C 0.56135 0.77936 0.70625 0.0
C1866 C 0.57559 0.80073 0.70587 0.0
C1867 C 0.57176 0.76104 0.68483 0.0
C1868 C 0.53746 0.78409 0.69637 0.0
C1869 C 0.52271 0.77896 0.72118 0.0
C1870 C 0.49982 0.78265 0.71809 0.0
C1871 C 0.49185 0.79206 0.68897 0.0
C1872 C 0.50673 0.79768 0.66338 0.0
C1873 C 0.52979 0.79337 0.66716 0.0
H1874 H 0.40221 0.30273 0.84342 0.0
H1875 H 0.46155 0.26758 0.81088 0.0
H1876 H 0.48243 0.28236 0.85819 0.0
H1877 H 0.4311 0.35236 0.87051 0.0
H1878 H 0.41287 0.35684 0.90489 0.0
H1879 H 0.40248 0.34313 0.86884 0.0
H1880 H 0.39009 0.3093 0.90382 0.0
H1881 H 0.40044 0.3229 0.93996 0.0
H1882 H 0.41026 0.29539 0.92939 0.0
H1883 H 0.49629 0.29959 0.91022 0.0
H1884 H 0.50306 0.32025 0.96143 0.0
H1885 H 0.43546 0.34627 0.95818 0.0
C1886 C 0.41959 0.29813 0.84632 0.0
C1887 C 0.43027 0.28395 0.82363 0.0
C1888 C 0.45309 0.27849 0.82796 0.0
C1889 C 0.46505 0.28674 0.85478 0.0
C1890 C 0.45403 0.3007 0.87672 0.0
C1891 C 0.43189 0.30656 0.87261 0.0
C1892 C 0.42416 0.32228 0.89928 0.0
C1893 C 0.41725 0.345 0.88502 0.0
C1894 C 0.40512 0.31184 0.9193 0.0
C1895 C 0.44536 0.32418 0.91922 0.0
C1896 C 0.46233 0.31143 0.90593 0.0
C1897 C 0.48321 0.30979 0.92069 0.0
C1898 C 0.48687 0.32152 0.94979 0.0
C1899 C 0.46984 0.33495 0.96357 0.0
C1900 C 0.44887 0.33636 0.94793 0.0
H1901 H 0.93418 0.18455 0.21141 0.0
H1902 H 0.89018 0.23348 0.1671 0.0
H1903 H 0.9088 0.22753 0.11392 0.0
H1904 H 0.98428 0.19687 0.16286 0.0
H1905 H 0.99211 0.16789 0.15999 0.0
H1906 H 0.97705 0.1778 0.1952 0.0
H1907 H 0.94642 0.148 0.18539 0.0
H1908 H 0.96139 0.13797 0.15027 0.0
H1909 H 0.93271 0.1467 0.14627 0.0
H1910 H 0.9308 0.21485 0.0653 0.0
H1911 H 0.95234 0.19434 0.02375 0.0
H1912 H 0.98099 0.15256 0.09955 0.0
C1913 C 0.92872 0.19431 0.19065 0.0
C1914 C 0.91088 0.20962 0.19335 0.0
C1915 C 0.90386 0.2217 0.1655 0.0
C1916 C 0.91441 0.21852 0.13529 0.0
C1917 C 0.93185 0.20315 0.13339 0.0
C1918 C 0.93885 0.19113 0.16028 0.0
C1919 C 0.95662 0.17425 0.15118 0.0
C1920 C 0.97883 0.17953 0.16833 0.0
C1921 C 0.9488 0.15032 0.15871 0.0
C1922 C 0.9582 0.17832 0.11482 0.0
C1923 C 0.94407 0.19533 0.10516 0.0
C1924 C 0.94203 0.2016 0.07259 0.0
C1925 C 0.95437 0.18984 0.04917 0.0
C1926 C 0.96836 0.17182 0.05838 0.0
C1927 C 0.97056 0.16633 0.09174 0.0
H1928 H 0.94698 0.70522 0.92337 0.0
H1929 H 0.00488 0.67618 0.8759 0.0
H1930 H 0.99554 0.69657 0.82521 0.0
H1931 H 0.91113 0.6996 0.857 0.0
H1932 H 0.89611 0.72521 0.86417 0.0
H1933 H 0.90905 0.71082 0.89771 0.0
H1934 H 0.93115 0.7466 0.91254 0.0
H1935 H 0.91828 0.76113 0.87894 0.0
H1936 H 0.94828 0.75987 0.88201 0.0
H1937 H 0.97843 0.7181 0.77883 0.0
H1938 H 0.95352 0.73663 0.73924 0.0
H1939 H 0.90606 0.75029 0.81681 0.0
C1940 C 0.95796 0.70349 0.90252 0.0
C1941 C 0.97677 0.6893 0.90359 0.0
C1942 C 0.99043 0.68705 0.87558 0.0
C1943 C 0.98532 0.69865 0.84678 0.0
C1944 C 0.96648 0.71232 0.84643 0.0
C1945 C 0.95295 0.7147 0.87354 0.0
C1946 C 0.93254 0.72868 0.866 0.0
C1947 C 0.91094 0.71527 0.87154 0.0
C1948 C 0.93257 0.75036 0.88607 0.0
C1949 C 0.93638 0.73334 0.83017 0.0
C1950 C 0.95625 0.72415 0.81948 0.0
C1951 C 0.96292 0.72552 0.78698 0.0
C1952 C 0.94866 0.73611 0.76468 0.0
C1953 C 0.92783 0.74489 0.77493 0.0
C1954 C 0.92191 0.74384 0.80825 0.0
H1955 H 0.10586 0.17999 0.6432 0.0
H1956 H 0.05211 0.22548 0.66856 0.0
H1957 H 0.03116 0.21345 0.61985 0.0
H1958 H 0.10282 0.1873 0.55622 0.0
H1959 H 0.10837 0.15839 0.54714 0.0
H1960 H 0.11931 0.17071 0.5839 0.0
H1961 H 0.10007 0.13993 0.61827 0.0
H1962 H 0.08901 0.12755 0.58161 0.0
H1963 H 0.07042 0.13554 0.61417 0.0
H1964 H 0.01644 0.19733 0.56797 0.0
H1965 H 0.00829 0.17722 0.51683 0.0
H1966 H 0.07081 0.14103 0.52598 0.0
C1967 C 0.08972 0.18747 0.63844 0.0
C1968 C 0.08064 0.20373 0.65963 0.0
C1969 C 0.05939 0.21297 0.6527 0.0
C1970 C 0.04736 0.20627 0.62508 0.0
C1971 C 0.05672 0.19017 0.60476 0.0
C1972 C 0.07735 0.18079 0.61113 0.0
C1973 C 0.08344 0.16358 0.58551 0.0
C1974 C 0.10475 0.17041 0.5671 0.0
C1975 C 0.08587 0.14027 0.60081 0.0
C1976 C 0.06306 0.16488 0.56367 0.0
C1977 C 0.04792 0.1804 0.57519 0.0
C1978 C 0.0281 0.18504 0.55879 0.0
C1979 C 0.02364 0.17355 0.52974 0.0
C1980 C 0.03886 0.15749 0.51751 0.0
C1981 C 0.05876 0.15304 0.53489 0.0
H1982 H 0.52704 0.31552 0.39478 0.0
H1983 H 0.46317 0.3274 0.34771 0.0
H1984 H 0.47804 0.31149 0.29648 0.0
H1985 H 0.56083 0.33035 0.3273 0.0
H1986 H 0.58169 0.30931 0.33501 0.0
H1987 H 0.56561 0.32053 0.36829 0.0
H1988 H 0.55303 0.28061 0.38428 0.0
H1989 H 0.56909 0.26925 0.35102 0.0
H1990 H 0.5397 0.26314 0.35424 0.0
H1991 H 0.5005 0.29567 0.24975 0.0
H1992 H 0.52876 0.28139 0.2112 0.0
H1993 H 0.57779 0.27988 0.28924 0.0
C1994 C 0.51607 0.31462 0.37382 0.0
C1995 C 0.4939 0.32267 0.3753 0.0
C1996 C 0.48019 0.3213 0.34719 0.0
C1997 C 0.48847 0.31226 0.31799 0.0
C1998 C 0.51046 0.30462 0.31736 0.0
C1999 C 0.52404 0.30568 0.34456 0.0
C2000 C 0.54726 0.29703 0.33726 0.0
C2001 C 0.56488 0.3154 0.34225 0.0
C2002 C 0.55258 0.27627 0.35793 0.0
C2003 C 0.54472 0.29111 0.30158 0.0
C2004 C 0.52335 0.29553 0.29056 0.0
C2005 C 0.51723 0.29201 0.25818 0.0
C2006 C 0.53342 0.2839 0.23646 0.0
C2007 C 0.55549 0.27943 0.2472 0.0
C2008 C 0.56105 0.28296 0.28029 0.0
H2009 H 0.43487 0.86549 0.06477 0.0
H2010 H 0.49456 0.82581 0.04878 0.0
H2011 H 0.48871 0.80702 0.1016 0.0
H2012 H 0.44112 0.87242 0.15202 0.0
H2013 H 0.41169 0.86968 0.16033 0.0
H2014 H 0.42093 0.8807 0.12172 0.0
H2015 H 0.39813 0.85039 0.09135 0.0
H2016 H 0.38879 0.83932 0.12985 0.0
H2017 H 0.4027 0.82138 0.10096 0.0
H2018 H 0.47679 0.79279 0.15623 0.0
H2019 H 0.45805 0.78213 0.20751 0.0
H2020 H 0.40509 0.82969 0.18728 0.0
C2021 C 0.44676 0.85294 0.0725 0.0
C2022 C 0.46522 0.84718 0.05271 0.0
C2023 C 0.48027 0.83047 0.06348 0.0
C2024 C 0.47715 0.81976 0.09352 0.0
C2025 C 0.4588 0.82579 0.11243 0.0
C2026 C 0.44374 0.84183 0.10228 0.0
C2027 C 0.42493 0.84452 0.12674 0.0
C2028 C 0.42466 0.86824 0.14105 0.0
C2029 C 0.4023 0.83854 0.1113 0.0
C2030 C 0.4318 0.82747 0.15217 0.0
C2031 C 0.45151 0.81704 0.14356 0.0
C2032 C 0.46132 0.80081 0.16323 0.0
C2033 C 0.45057 0.79493 0.19237 0.0
C2034 C 0.4301 0.80506 0.2014 0.0
C2035 C 0.42069 0.8216 0.18099 0.0
H2036 H 0.94807 0.3339 0.60324 0.0
H2037 H 0.95375 0.27444 0.54328 0.0
H2038 H 0.93764 0.25191 0.58788 0.0
H2039 H 0.96071 0.30751 0.68131 0.0
H2040 H 0.94063 0.32415 0.70329 0.0
H2041 H 0.95403 0.33528 0.66746 0.0
H2042 H 0.91527 0.34302 0.64168 0.0
H2043 H 0.90176 0.33179 0.67731 0.0
H2044 H 0.89554 0.32047 0.63759 0.0
H2045 H 0.91984 0.23607 0.6383 0.0
H2046 H 0.90127 0.2281 0.69082 0.0
H2047 H 0.90616 0.29814 0.71706 0.0
C2048 C 0.94623 0.31608 0.59966 0.0
C2049 C 0.95227 0.30588 0.56986 0.0
C2050 C 0.94926 0.28259 0.56593 0.0
C2051 C 0.94015 0.26965 0.59113 0.0
C2052 C 0.93405 0.28028 0.62001 0.0
C2053 C 0.93696 0.30296 0.62442 0.0
C2054 C 0.92811 0.31045 0.65725 0.0
C2055 C 0.947 0.3199 0.67859 0.0
C2056 C 0.90904 0.32743 0.6532 0.0
C2057 C 0.91961 0.28846 0.6705 0.0
C2058 C 0.92334 0.27124 0.64876 0.0
C2059 C 0.91686 0.24941 0.65556 0.0
C2060 C 0.90631 0.24505 0.68544 0.0
C2061 C 0.9022 0.26249 0.708 0.0
C2062 C 0.90896 0.28446 0.70028 0.0
H2063 H 0.41733 0.20793 0.40082 0.0
H2064 H 0.40746 0.15465 0.33045 0.0
H2065 H 0.42494 0.12795 0.36852 0.0
H2066 H 0.47088 0.18936 0.43049 0.0
H2067 H 0.46523 0.19714 0.47217 0.0
H2068 H 0.45216 0.21216 0.43923 0.0
H2069 H 0.41319 0.20385 0.46391 0.0
H2070 H 0.42614 0.18886 0.49694 0.0
H2071 H 0.40529 0.17537 0.47211 0.0
H2072 H 0.44337 0.10696 0.41436 0.0
H2073 H 0.46066 0.09309 0.46518 0.0
H2074 H 0.45829 0.16004 0.50566 0.0
C2075 C 0.41886 0.19066 0.39336 0.0
C2076 C 0.41102 0.18341 0.3626 0.0
C2077 C 0.41331 0.16063 0.35387 0.0
C2078 C 0.42325 0.14532 0.37531 0.0
C2079 C 0.43081 0.15303 0.40541 0.0
C2080 C 0.42869 0.17515 0.41448 0.0
C2081 C 0.43793 0.17906 0.44841 0.0
C2082 C 0.45773 0.1954 0.4475 0.0
C2083 C 0.41954 0.18726 0.47171 0.0
C2084 C 0.44551 0.15568 0.45703 0.0
C2085 C 0.44132 0.14092 0.43186 0.0
C2086 C 0.44674 0.11836 0.43424 0.0
C2087 C 0.45658 0.11065 0.4632 0.0
C2088 C 0.46084 0.12545 0.48944 0.0
C2089 C 0.45528 0.14827 0.48608 0.0
H2090 H 0.49789 0.70394 0.08256 0.0
H2091 H 0.45401 0.66387 0.14308 0.0
H2092 H 0.4696 0.68184 0.19237 0.0
H2093 H 0.54425 0.69834 0.12987 0.0
H2094 H 0.55494 0.72615 0.12381 0.0
H2095 H 0.5374 0.71364 0.09333 0.0
H2096 H 0.5101 0.74714 0.09693 0.0
H2097 H 0.52766 0.75989 0.12742 0.0
H2098 H 0.49854 0.75496 0.1359 0.0
H2099 H 0.49323 0.70041 0.23486 0.0
H2100 H 0.52368 0.71693 0.26727 0.0
H2101 H 0.55306 0.74398 0.17888 0.0
C2102 C 0.49106 0.6994 0.1061 0.0
C2103 C 0.47461 0.68261 0.10898 0.0
C2104 C 0.46653 0.67676 0.14031 0.0
C2105 C 0.47523 0.68695 0.16841 0.0
C2106 C 0.49194 0.70297 0.16474 0.0
C2107 C 0.49971 0.70923 0.13434 0.0
C2108 C 0.51947 0.7249 0.13706 0.0
C2109 C 0.54023 0.71516 0.12002 0.0
C2110 C 0.51358 0.7481 0.12353 0.0
C2111 C 0.52236 0.72558 0.17373 0.0
C2112 C 0.50597 0.7133 0.18928 0.0
C2113 C 0.50596 0.71033 0.22298 0.0
C2114 C 0.5234 0.71975 0.24118 0.0
C2115 C 0.54081 0.73174 0.22562 0.0
C2116 C 0.53993 0.73506 0.19152 0.0
H2117 H 0.1141 0.76581 0.83415 0.0
H2118 H 0.11625 0.82598 0.77517 0.0
H2119 H 0.09884 0.84715 0.82012 0.0
H2120 H 0.06119 0.77616 0.87123 0.0
H2121 H 0.06908 0.7651 0.91046 0.0
H2122 H 0.08222 0.75471 0.87397 0.0
H2123 H 0.12115 0.76443 0.89766 0.0
H2124 H 0.10813 0.77476 0.9343 0.0
H2125 H 0.12667 0.79249 0.91134 0.0
H2126 H 0.08005 0.86151 0.87066 0.0
H2127 H 0.06264 0.86846 0.92427 0.0
H2128 H 0.07323 0.79907 0.95068 0.0
C2129 C 0.11104 0.78346 0.83071 0.0
C2130 C 0.11655 0.79422 0.80109 0.0
C2131 C 0.11223 0.81736 0.79763 0.0
C2132 C 0.1023 0.82953 0.82301 0.0
C2133 C 0.09688 0.81836 0.85174 0.0
C2134 C 0.10122 0.79588 0.85582 0.0
C2135 C 0.09367 0.78787 0.88911 0.0
C2136 C 0.07545 0.7699 0.88599 0.0
C2137 C 0.11359 0.7794 0.90929 0.0
C2138 C 0.08432 0.80934 0.90303 0.0
C2139 C 0.08628 0.82671 0.88104 0.0
C2140 C 0.07851 0.84807 0.88815 0.0
C2141 C 0.06859 0.85183 0.91865 0.0
C2142 C 0.06661 0.83433 0.94174 0.0
C2143 C 0.07458 0.81282 0.93366 0.0
loop_
_geom_bond_atom_site_label_1
_geom_bond_atom_site_label_2
_geom_bond_distance
_geom_bond_site_symmetry_2
_ccdc_geom_bond_type
C0 O1 1.160 . S
C0 O7 1.185 . S
O1 C0 1.160 . S
O2 Zn3 1.899 . S
O2 C10 1.284 . S
Zn3 O2 1.899 . S
Zn3 O4 2.032 . S
Zn3 O7 2.086 . S
Zn3 O12 1.977 . S
O4 Zn3 2.032 . S
O4 C8 1.278 . S
C5 O6 1.203 . S
C5 O12 1.267 . S
O6 C5 1.203 . S
O7 C0 1.185 . S
O7 Zn3 2.086 . S
C8 O4 1.278 . S
C8 O9 1.211 . S
O9 C8 1.211 . S
C10 O2 1.284 . S
C10 O11 1.273 . S
O11 C10 1.273 . S
O12 Zn3 1.977 . S
O12 C5 1.267 . S
C13 O14 1.160 . S
C13 O20 1.185 . S
O14 C13 1.160 . S
O15 Zn16 1.899 . S
O15 C23 1.284 1_655 S
Zn16 O15 1.899 . S
Zn16 O17 2.032 . S
Zn16 O20 2.086 . S
Zn16 O25 1.977 . S
O17 Zn16 2.032 . S
O17 C21 1.278 . S
C18 O19 1.203 . S
C18 O25 1.267 . S
O19 C18 1.203 . S
O20 C13 1.185 . S
O20 Zn16 2.086 . S
C21 O17 1.278 . S
C21 O22 1.211 . S
O22 C21 1.211 . S
C23 O15 1.284 1_455 S
C23 O24 1.273 . S
O24 C23 1.273 . S
O25 Zn16 1.977 . S
O25 C18 1.267 . S
C26 O27 1.160 . S
C26 O33 1.185 . S
O27 C26 1.160 . S
O28 Zn29 1.899 . S
O28 C36 1.284 . S
Zn29 O28 1.899 . S
Zn29 O30 2.032 . S
Zn29 O33 2.086 . S
Zn29 O38 1.977 . S
O30 Zn29 2.032 . S
O30 C34 1.278 . S
C31 O32 1.203 . S
C31 O38 1.267 . S
O32 C31 1.203 . S
O33 C26 1.185 . S
O33 Zn29 2.086 . S
C34 O30 1.278 . S
C34 O35 1.211 . S
O35 C34 1.211 . S
C36 O28 1.284 . S
C36 O37 1.273 . S
O37 C36 1.273 . S
O38 Zn29 1.977 . S
O38 C31 1.267 . S
C39 O40 1.160 . S
C39 O46 1.185 . S
O40 C39 1.160 . S
O41 Zn42 1.899 . S
O41 C49 1.284 . S
Zn42 O41 1.899 . S
Zn42 O43 2.032 1_554 S
Zn42 O46 2.086 . S
Zn42 O51 1.977 . S
O43 Zn42 2.032 1_556 S
O43 C47 1.278 . S
C44 O45 1.203 . S
C44 O51 1.267 . S
O45 C44 1.203 . S
O46 C39 1.185 . S
O46 Zn42 2.086 . S
C47 O43 1.278 . S
C47 O48 1.211 . S
O48 C47 1.211 . S
C49 O41 1.284 . S
C49 O50 1.273 . S
O50 C49 1.273 . S
O51 Zn42 1.977 . S
O51 C44 1.267 . S
C52 O53 1.160 . S
C52 O59 1.185 . S
O53 C52 1.160 . S
O54 Zn55 1.899 . S
O54 C62 1.284 . S
Zn55 O54 1.899 . S
Zn55 O56 2.032 . S
Zn55 O59 2.086 . S
Zn55 O64 1.977 . S
O56 Zn55 2.032 . S
O56 C60 1.278 . S
C57 O58 1.203 . S
C57 O64 1.267 . S
O58 C57 1.203 . S
O59 C52 1.185 . S
O59 Zn55 2.086 . S
C60 O56 1.278 . S
C60 O61 1.211 . S
O61 C60 1.211 . S
C62 O54 1.284 . S
C62 O63 1.273 . S
O63 C62 1.273 . S
O64 Zn55 1.977 . S
O64 C57 1.267 . S
C65 O66 1.160 . S
C65 O72 1.185 . S
O66 C65 1.160 . S
O67 Zn68 1.899 . S
O67 C75 1.284 . S
Zn68 O67 1.899 . S
Zn68 O69 2.032 . S
Zn68 O72 2.086 . S
Zn68 O77 1.977 . S
O69 Zn68 2.032 . S
O69 C73 1.278 . S
C70 O71 1.203 . S
C70 O77 1.267 . S
O71 C70 1.203 . S
O72 C65 1.185 . S
O72 Zn68 2.086 . S
C73 O69 1.278 . S
C73 O74 1.211 . S
O74 C73 1.211 . S
C75 O67 1.284 . S
C75 O76 1.273 . S
O76 C75 1.273 . S
O77 Zn68 1.977 . S
O77 C70 1.267 . S
C78 O79 1.160 . S
C78 O85 1.185 . S
O79 C78 1.160 . S
O80 Zn81 1.899 . S
O80 C88 1.284 . S
Zn81 O80 1.899 . S
Zn81 O82 2.032 . S
Zn81 O85 2.086 . S
Zn81 O90 1.977 . S
O82 Zn81 2.032 . S
O82 C86 1.278 . S
C83 O84 1.203 . S
C83 O90 1.267 . S
O84 C83 1.203 . S
O85 C78 1.185 . S
O85 Zn81 2.086 . S
C86 O82 1.278 . S
C86 O87 1.211 . S
O87 C86 1.211 . S
C88 O80 1.284 . S
C88 O89 1.273 . S
O89 C88 1.273 . S
O90 Zn81 1.977 . S
O90 C83 1.267 . S
C91 O92 1.160 . S
C91 O98 1.185 . S
O92 C91 1.160 . S
O93 Zn94 1.899 . S
O93 C101 1.284 1_655 S
Zn94 O93 1.899 . S
Zn94 O95 2.032 1_556 S
Zn94 O98 2.086 . S
Zn94 O103 1.977 . S
O95 Zn94 2.032 1_554 S
O95 C99 1.278 . S
C96 O97 1.203 . S
C96 O103 1.267 . S
O97 C96 1.203 . S
O98 C91 1.185 . S
O98 Zn94 2.086 . S
C99 O95 1.278 . S
C99 O100 1.211 . S
O100 C99 1.211 . S
C101 O93 1.284 1_455 S
C101 O102 1.273 . S
O102 C101 1.273 . S
O103 Zn94 1.977 . S
O103 C96 1.267 . S
C104 O105 1.160 . S
C104 O111 1.185 . S
O105 C104 1.160 . S
O106 Zn107 1.899 . S
O106 C114 1.284 . S
Zn107 O106 1.899 . S
Zn107 O108 2.032 . S
Zn107 O111 2.086 . S
Zn107 O116 1.977 . S
O108 Zn107 2.032 . S
O108 C112 1.278 . S
C109 O110 1.203 . S
C109 O116 1.267 . S
O110 C109 1.203 . S
O111 C104 1.185 . S
O111 Zn107 2.086 . S
C112 O108 1.278 . S
C112 O113 1.211 . S
O113 C112 1.211 . S
C114 O106 1.284 . S
C114 O115 1.273 . S
O115 C114 1.273 . S
O116 Zn107 1.977 . S
O116 C109 1.267 . S
C117 O118 1.160 . S
C117 O124 1.185 . S
O118 C117 1.160 . S
O119 Zn120 1.899 . S
O119 C127 1.284 1_455 S
Zn120 O119 1.899 . S
Zn120 O121 2.032 . S
Zn120 O124 2.086 . S
Zn120 O129 1.977 . S
O121 Zn120 2.032 . S
O121 C125 1.278 . S
C122 O123 1.203 . S
C122 O129 1.267 . S
O123 C122 1.203 . S
O124 C117 1.185 . S
O124 Zn120 2.086 . S
C125 O121 1.278 . S
C125 O126 1.211 . S
O126 C125 1.211 . S
C127 O119 1.284 1_655 S
C127 O128 1.273 . S
O128 C127 1.273 . S
O129 Zn120 1.977 . S
O129 C122 1.267 . S
C130 O131 1.160 . S
C130 O137 1.185 . S
O131 C130 1.160 . S
O132 Zn133 1.899 . S
O132 C140 1.284 . S
Zn133 O132 1.899 . S
Zn133 O134 2.032 . S
Zn133 O137 2.086 . S
Zn133 O142 1.977 . S
O134 Zn133 2.032 . S
O134 C138 1.278 . S
C135 O136 1.203 . S
C135 O142 1.267 . S
O136 C135 1.203 . S
O137 C130 1.185 . S
O137 Zn133 2.086 . S
C138 O134 1.278 . S
C138 O139 1.211 . S
O139 C138 1.211 . S
C140 O132 1.284 . S
C140 O141 1.273 . S
O141 C140 1.273 . S
O142 Zn133 1.977 . S
O142 C135 1.267 . S
C143 O144 1.160 . S
C143 O150 1.185 . S
O144 C143 1.160 . S
O145 Zn146 1.899 . S
O145 C153 1.284 . S
Zn146 O145 1.899 . S
Zn146 O147 2.032 1_556 S
Zn146 O150 2.086 . S
Zn146 O155 1.977 . S
O147 Zn146 2.032 1_554 S
O147 C151 1.278 . S
C148 O149 1.203 . S
C148 O155 1.267 . S
O149 C148 1.203 . S
O150 C143 1.185 . S
O150 Zn146 2.086 . S
C151 O147 1.278 . S
C151 O152 1.211 . S
O152 C151 1.211 . S
C153 O145 1.284 . S
C153 O154 1.273 . S
O154 C153 1.273 . S
O155 Zn146 1.977 . S
O155 C148 1.267 . S
C156 O157 1.160 . S
C156 O163 1.185 . S
O157 C156 1.160 . S
O158 Zn159 1.899 . S
O158 C166 1.284 . S
Zn159 O158 1.899 . S
Zn159 O160 2.032 . S
Zn159 O163 2.086 . S
Zn159 O168 1.977 . S
O160 Zn159 2.032 . S
O160 C164 1.278 . S
C161 O162 1.203 . S
C161 O168 1.267 . S
O162 C161 1.203 . S
O163 C156 1.185 . S
O163 Zn159 2.086 . S
C164 O160 1.278 . S
C164 O165 1.211 . S
O165 C164 1.211 . S
C166 O158 1.284 . S
C166 O167 1.273 . S
O167 C166 1.273 . S
O168 Zn159 1.977 . S
O168 C161 1.267 . S
C169 O170 1.160 . S
C169 O176 1.185 . S
O170 C169 1.160 . S
O171 Zn172 1.899 . S
O171 C179 1.284 . S
Zn172 O171 1.899 . S
Zn172 O173 2.032 . S
Zn172 O176 2.086 . S
Zn172 O181 1.977 . S
O173 Zn172 2.032 . S
O173 C177 1.278 . S
C174 O175 1.203 . S
C174 O181 1.267 . S
O175 C174 1.203 . S
O176 C169 1.185 . S
O176 Zn172 2.086 . S
C177 O173 1.278 . S
C177 O178 1.211 . S
O178 C177 1.211 . S
C179 O171 1.284 . S
C179 O180 1.273 . S
O180 C179 1.273 . S
O181 Zn172 1.977 . S
O181 C174 1.267 . S
C182 O183 1.160 . S
C182 O189 1.185 . S
O183 C182 1.160 . S
O184 Zn185 1.899 . S
O184 C192 1.284 . S
Zn185 O184 1.899 . S
Zn185 O186 2.032 . S
Zn185 O189 2.086 . S
Zn185 O194 1.977 . S
O186 Zn185 2.032 . S
O186 C190 1.278 . S
C187 O188 1.203 . S
C187 O194 1.267 . S
O188 C187 1.203 . S
O189 C182 1.185 . S
O189 Zn185 2.086 . S
C190 O186 1.278 . S
C190 O191 1.211 . S
O191 C190 1.211 . S
C192 O184 1.284 . S
C192 O193 1.273 . S
O193 C192 1.273 . S
O194 Zn185 1.977 . S
O194 C187 1.267 . S
C195 O196 1.160 . S
C195 O202 1.185 . S
O196 C195 1.160 . S
O197 Zn198 1.899 . S
O197 C205 1.284 1_455 S
Zn198 O197 1.899 . S
Zn198 O199 2.032 1_554 S
Zn198 O202 2.086 . S
Zn198 O207 1.977 . S
O199 Zn198 2.032 1_556 S
O199 C203 1.278 . S
C200 O201 1.203 . S
C200 O207 1.267 . S
O201 C200 1.203 . S
O202 C195 1.185 . S
O202 Zn198 2.086 . S
C203 O199 1.278 . S
C203 O204 1.211 . S
O204 C203 1.211 . S
C205 O197 1.284 1_655 S
C205 O206 1.273 . S
O206 C205 1.273 . S
O207 Zn198 1.977 . S
O207 C200 1.267 . S
C208 O209 1.160 . S
C208 O215 1.185 . S
O209 C208 1.160 . S
O210 Zn211 1.899 . S
O210 C218 1.284 . S
Zn211 O210 1.899 . S
Zn211 O212 2.032 . S
Zn211 O215 2.086 . S
Zn211 O220 1.977 . S
O212 Zn211 2.032 . S
O212 C216 1.278 . S
C213 O214 1.203 . S
C213 O220 1.267 . S
O214 C213 1.203 . S
O215 C208 1.185 . S
O215 Zn211 2.086 . S
C216 O212 1.278 . S
C216 O217 1.211 . S
O217 C216 1.211 . S
C218 O210 1.284 . S
C218 O219 1.273 . S
O219 C218 1.273 . S
O220 Zn211 1.977 . S
O220 C213 1.267 . S
C221 O222 1.160 . S
C221 O228 1.185 . S
O222 C221 1.160 . S
O223 Zn224 1.899 . S
O223 C231 1.284 . S
Zn224 O223 1.899 . S
Zn224 O225 2.032 1_554 S
Zn224 O228 2.086 . S
Zn224 O233 1.977 . S
O225 Zn224 2.032 1_556 S
O225 C229 1.278 . S
C226 O227 1.203 . S
C226 O233 1.267 . S
O227 C226 1.203 . S
O228 C221 1.185 . S
O228 Zn224 2.086 . S
C229 O225 1.278 . S
C229 O230 1.211 . S
O230 C229 1.211 . S
C231 O223 1.284 . S
C231 O232 1.273 . S
O232 C231 1.273 . S
O233 Zn224 1.977 . S
O233 C226 1.267 . S
C234 O235 1.160 . S
C234 O241 1.185 . S
O235 C234 1.160 . S
O236 Zn237 1.899 . S
O236 C244 1.284 . S
Zn237 O236 1.899 . S
Zn237 O238 2.032 . S
Zn237 O241 2.086 . S
Zn237 O246 1.977 . S
O238 Zn237 2.032 . S
O238 C242 1.278 . S
C239 O240 1.203 . S
C239 O246 1.267 . S
O240 C239 1.203 . S
O241 C234 1.185 . S
O241 Zn237 2.086 . S
C242 O238 1.278 . S
C242 O243 1.211 . S
O243 C242 1.211 . S
C244 O236 1.284 . S
C244 O245 1.273 . S
O245 C244 1.273 . S
O246 Zn237 1.977 . S
O246 C239 1.267 . S
C247 O248 1.160 . S
C247 O254 1.185 . S
O248 C247 1.160 . S
O249 Zn250 1.899 . S
O249 C257 1.284 1_455 S
Zn250 O249 1.899 . S
Zn250 O251 2.032 . S
Zn250 O254 2.086 . S
Zn250 O259 1.977 . S
O251 Zn250 2.032 . S
O251 C255 1.278 . S
C252 O253 1.203 . S
C252 O259 1.267 . S
O253 C252 1.203 . S
O254 C247 1.185 . S
O254 Zn250 2.086 . S
C255 O251 1.278 . S
C255 O256 1.211 . S
O256 C255 1.211 . S
C257 O249 1.284 1_655 S
C257 O258 1.273 . S
O258 C257 1.273 . S
O259 Zn250 1.977 . S
O259 C252 1.267 . S
C260 O261 1.160 . S
C260 O267 1.185 . S
O261 C260 1.160 . S
O262 Zn263 1.899 . S
O262 C270 1.284 . S
Zn263 O262 1.899 . S
Zn263 O264 2.032 . S
Zn263 O267 2.086 . S
Zn263 O272 1.977 . S
O264 Zn263 2.032 . S
O264 C268 1.278 . S
C265 O266 1.203 . S
C265 O272 1.267 . S
O266 C265 1.203 . S
O267 C260 1.185 . S
O267 Zn263 2.086 . S
C268 O264 1.278 . S
C268 O269 1.211 . S
O269 C268 1.211 . S
C270 O262 1.284 . S
C270 O271 1.273 . S
O271 C270 1.273 . S
O272 Zn263 1.977 . S
O272 C265 1.267 . S
C273 O274 1.160 . S
C273 O280 1.185 . S
O274 C273 1.160 . S
O275 Zn276 1.899 . S
O275 C283 1.284 1_455 S
Zn276 O275 1.899 . S
Zn276 O277 2.032 1_556 S
Zn276 O280 2.086 . S
Zn276 O285 1.977 . S
O277 Zn276 2.032 1_554 S
O277 C281 1.278 . S
C278 O279 1.203 . S
C278 O285 1.267 . S
O279 C278 1.203 . S
O280 C273 1.185 . S
O280 Zn276 2.086 . S
C281 O277 1.278 . S
C281 O282 1.211 . S
O282 C281 1.211 . S
C283 O275 1.284 1_655 S
C283 O284 1.273 . S
O284 C283 1.273 . S
O285 Zn276 1.977 . S
O285 C278 1.267 . S
C286 O287 1.160 . S
C286 O293 1.185 . S
O287 C286 1.160 . S
O288 Zn289 1.899 . S
O288 C296 1.284 . S
Zn289 O288 1.899 . S
Zn289 O290 2.032 . S
Zn289 O293 2.086 . S
Zn289 O298 1.977 . S
O290 Zn289 2.032 . S
O290 C294 1.278 . S
C291 O292 1.203 . S
C291 O298 1.267 . S
O292 C291 1.203 . S
O293 C286 1.185 . S
O293 Zn289 2.086 . S
C294 O290 1.278 . S
C294 O295 1.211 . S
O295 C294 1.211 . S
C296 O288 1.284 . S
C296 O297 1.273 . S
O297 C296 1.273 . S
O298 Zn289 1.977 . S
O298 C291 1.267 . S
C299 O300 1.160 . S
C299 O306 1.185 . S
O300 C299 1.160 . S
O301 Zn302 1.899 . S
O301 C309 1.284 . S
Zn302 O301 1.899 . S
Zn302 O303 2.032 . S
Zn302 O306 2.086 . S
Zn302 O311 1.977 . S
O303 Zn302 2.032 . S
O303 C307 1.278 . S
C304 O305 1.203 . S
C304 O311 1.267 . S
O305 C304 1.203 . S
O306 C299 1.185 . S
O306 Zn302 2.086 . S
C307 O303 1.278 . S
C307 O308 1.211 . S
O308 C307 1.211 . S
C309 O301 1.284 . S
C309 O310 1.273 . S
O310 C309 1.273 . S
O311 Zn302 1.977 . S
O311 C304 1.267 . S
C312 O313 1.160 . S
C312 O319 1.185 . S
O313 C312 1.160 . S
O314 Zn315 1.899 . S
O314 C322 1.284 . S
Zn315 O314 1.899 . S
Zn315 O316 2.032 . S
Zn315 O319 2.086 . S
Zn315 O324 1.977 . S
O316 Zn315 2.032 . S
O316 C320 1.278 . S
C317 O318 1.203 . S
C317 O324 1.267 . S
O318 C317 1.203 . S
O319 C312 1.185 . S
O319 Zn315 2.086 . S
C320 O316 1.278 . S
C320 O321 1.211 . S
O321 C320 1.211 . S
C322 O314 1.284 . S
C322 O323 1.273 . S
O323 C322 1.273 . S
O324 Zn315 1.977 . S
O324 C317 1.267 . S
C325 O326 1.160 . S
C325 O332 1.185 . S
O326 C325 1.160 . S
O327 Zn328 1.899 . S
O327 C335 1.284 . S
Zn328 O327 1.899 . S
Zn328 O329 2.032 1_556 S
Zn328 O332 2.086 . S
Zn328 O337 1.977 . S
O329 Zn328 2.032 1_554 S
O329 C333 1.278 . S
C330 O331 1.203 . S
C330 O337 1.267 . S
O331 C330 1.203 . S
O332 C325 1.185 . S
O332 Zn328 2.086 . S
C333 O329 1.278 . S
C333 O334 1.211 . S
O334 C333 1.211 . S
C335 O327 1.284 . S
C335 O336 1.273 . S
O336 C335 1.273 . S
O337 Zn328 1.977 . S
O337 C330 1.267 . S
C338 O339 1.160 . S
C338 O345 1.185 . S
O339 C338 1.160 . S
O340 Zn341 1.899 . S
O340 C348 1.284 . S
Zn341 O340 1.899 . S
Zn341 O342 2.032 . S
Zn341 O345 2.086 . S
Zn341 O350 1.977 . S
O342 Zn341 2.032 . S
O342 C346 1.278 . S
C343 O344 1.203 . S
C343 O350 1.267 . S
O344 C343 1.203 . S
O345 C338 1.185 . S
O345 Zn341 2.086 . S
C346 O342 1.278 . S
C346 O347 1.211 . S
O347 C346 1.211 . S
C348 O340 1.284 . S
C348 O349 1.273 . S
O349 C348 1.273 . S
O350 Zn341 1.977 . S
O350 C343 1.267 . S
C351 O352 1.160 . S
C351 O358 1.185 . S
O352 C351 1.160 . S
O353 Zn354 1.899 . S
O353 C361 1.284 1_655 S
Zn354 O353 1.899 . S
Zn354 O355 2.032 . S
Zn354 O358 2.086 . S
Zn354 O363 1.977 . S
O355 Zn354 2.032 . S
O355 C359 1.278 . S
C356 O357 1.203 . S
C356 O363 1.267 . S
O357 C356 1.203 . S
O358 C351 1.185 . S
O358 Zn354 2.086 . S
C359 O355 1.278 . S
C359 O360 1.211 . S
O360 C359 1.211 . S
C361 O353 1.284 1_455 S
C361 O362 1.273 . S
O362 C361 1.273 . S
O363 Zn354 1.977 . S
O363 C356 1.267 . S
C364 O365 1.160 . S
C364 O371 1.185 . S
O365 C364 1.160 . S
O366 Zn367 1.899 . S
O366 C374 1.284 . S
Zn367 O366 1.899 . S
Zn367 O368 2.032 . S
Zn367 O371 2.086 . S
Zn367 O376 1.977 . S
O368 Zn367 2.032 . S
O368 C372 1.278 . S
C369 O370 1.203 . S
C369 O376 1.267 . S
O370 C369 1.203 . S
O371 C364 1.185 . S
O371 Zn367 2.086 . S
C372 O368 1.278 . S
C372 O373 1.211 . S
O373 C372 1.211 . S
C374 O366 1.284 . S
C374 O375 1.273 . S
O375 C374 1.273 . S
O376 Zn367 1.977 . S
O376 C369 1.267 . S
C377 O378 1.160 . S
C377 O384 1.185 . S
O378 C377 1.160 . S
O379 Zn380 1.899 . S
O379 C387 1.284 1_655 S
Zn380 O379 1.899 . S
Zn380 O381 2.032 1_554 S
Zn380 O384 2.086 . S
Zn380 O389 1.977 . S
O381 Zn380 2.032 1_556 S
O381 C385 1.278 . S
C382 O383 1.203 . S
C382 O389 1.267 . S
O383 C382 1.203 . S
O384 C377 1.185 . S
O384 Zn380 2.086 . S
C385 O381 1.278 . S
C385 O386 1.211 . S
O386 C385 1.211 . S
C387 O379 1.284 1_455 S
C387 O388 1.273 . S
O388 C387 1.273 . S
O389 Zn380 1.977 . S
O389 C382 1.267 . S
C390 O391 1.160 . S
C390 O397 1.185 . S
O391 C390 1.160 . S
O392 Zn393 1.899 . S
O392 C400 1.284 . S
Zn393 O392 1.899 . S
Zn393 O394 2.032 . S
Zn393 O397 2.086 . S
Zn393 O402 1.977 . S
O394 Zn393 2.032 . S
O394 C398 1.278 . S
C395 O396 1.203 . S
C395 O402 1.267 . S
O396 C395 1.203 . S
O397 C390 1.185 . S
O397 Zn393 2.086 . S
C398 O394 1.278 . S
C398 O399 1.211 . S
O399 C398 1.211 . S
C400 O392 1.284 . S
C400 O401 1.273 . S
O401 C400 1.273 . S
O402 Zn393 1.977 . S
O402 C395 1.267 . S
C403 O404 1.160 . S
C403 O410 1.185 . S
O404 C403 1.160 . S
O405 Zn406 1.899 . S
O405 C413 1.284 . S
Zn406 O405 1.899 . S
Zn406 O407 2.032 . S
Zn406 O410 2.086 . S
Zn406 O415 1.977 . S
O407 Zn406 2.032 . S
O407 C411 1.278 . S
C408 O409 1.203 . S
C408 O415 1.267 . S
O409 C408 1.203 . S
O410 C403 1.185 . S
O410 Zn406 2.086 . S
C411 O407 1.278 . S
C411 O412 1.211 . S
O412 C411 1.211 . S
C413 O405 1.284 . S
C413 O414 1.273 . S
O414 C413 1.273 . S
O415 Zn406 1.977 . S
O415 C408 1.267 . S
H416 C428 0.930 . S
H417 C430 0.930 . S
H418 C431 0.930 . S
H419 C435 0.959 . S
H420 C435 0.959 . S
H421 C435 0.961 . S
H422 C436 0.960 . S
H423 C436 0.961 . S
H424 C436 0.959 . S
H425 C439 0.929 . S
H426 C440 0.931 . S
H427 C442 0.930 . S
C428 H416 0.930 . S
C428 C429 1.399 . S
C428 C433 1.399 . S
C429 C428 1.399 . S
C429 C430 1.376 . S
C430 H417 0.930 . S
C430 C429 1.376 . S
C430 C431 1.388 . S
C431 H418 0.930 . S
C431 C430 1.388 . S
C431 C432 1.390 . S
C432 C431 1.390 . S
C432 C433 1.394 . S
C432 C438 1.465 . S
C433 C428 1.399 . S
C433 C432 1.394 . S
C433 C434 1.516 . S
C434 C433 1.516 . S
C434 C435 1.502 . S
C434 C436 1.561 . S
C434 C437 1.526 . S
C435 H419 0.959 . S
C435 H420 0.959 . S
C435 H421 0.961 . S
C435 C434 1.502 . S
C436 H422 0.960 . S
C436 H423 0.961 . S
C436 H424 0.959 . S
C436 C434 1.561 . S
C437 C434 1.526 . S
C437 C438 1.396 . S
C437 C442 1.390 . S
C438 C432 1.465 . S
C438 C437 1.396 . S
C438 C439 1.399 . S
C439 H425 0.929 . S
C439 C438 1.399 . S
C439 C440 1.385 . S
C440 H426 0.931 . S
C440 C439 1.385 . S
C440 C441 1.389 . S
C441 C440 1.389 . S
C441 C442 1.387 . S
C442 H427 0.930 . S
C442 C437 1.390 . S
C442 C441 1.387 . S
H443 C455 0.930 . S
H444 C457 0.930 . S
H445 C458 0.930 . S
H446 C462 0.959 . S
H447 C462 0.959 . S
H448 C462 0.961 . S
H449 C463 0.960 . S
H450 C463 0.961 . S
H451 C463 0.959 . S
H452 C466 0.929 . S
H453 C467 0.931 . S
H454 C469 0.930 . S
C455 H443 0.930 . S
C455 C456 1.399 . S
C455 C460 1.399 . S
C456 C455 1.399 . S
C456 C457 1.376 . S
C457 H444 0.930 . S
C457 C456 1.376 . S
C457 C458 1.388 . S
C458 H445 0.930 . S
C458 C457 1.388 . S
C458 C459 1.390 . S
C459 C458 1.390 . S
C459 C460 1.394 . S
C459 C465 1.465 . S
C460 C455 1.399 . S
C460 C459 1.394 . S
C460 C461 1.516 . S
C461 C460 1.516 . S
C461 C462 1.502 . S
C461 C463 1.561 . S
C461 C464 1.526 . S
C462 H446 0.959 . S
C462 H447 0.959 . S
C462 H448 0.961 . S
C462 C461 1.502 . S
C463 H449 0.960 . S
C463 H450 0.961 . S
C463 H451 0.959 . S
C463 C461 1.561 . S
C464 C461 1.526 . S
C464 C465 1.396 . S
C464 C469 1.390 . S
C465 C459 1.465 . S
C465 C464 1.396 . S
C465 C466 1.399 . S
C466 H452 0.929 . S
C466 C465 1.399 . S
C466 C467 1.385 . S
C467 H453 0.931 . S
C467 C466 1.385 . S
C467 C468 1.389 . S
C468 C467 1.389 . S
C468 C469 1.387 . S
C469 H454 0.930 . S
C469 C464 1.390 . S
C469 C468 1.387 . S
H470 C482 0.930 . S
H471 C484 0.930 . S
H472 C485 0.930 . S
H473 C489 0.959 . S
H474 C489 0.959 . S
H475 C489 0.961 . S
H476 C490 0.960 . S
H477 C490 0.961 . S
H478 C490 0.959 . S
H479 C493 0.929 . S
H480 C494 0.931 . S
H481 C496 0.930 . S
C482 H470 0.930 . S
C482 C483 1.399 . S
C482 C487 1.399 . S
C483 C482 1.399 . S
C483 C484 1.376 . S
C484 H471 0.930 . S
C484 C483 1.376 . S
C484 C485 1.388 . S
C485 H472 0.930 . S
C485 C484 1.388 . S
C485 C486 1.390 . S
C486 C485 1.390 . S
C486 C487 1.394 . S
C486 C492 1.465 . S
C487 C482 1.399 . S
C487 C486 1.394 . S
C487 C488 1.516 . S
C488 C487 1.516 . S
C488 C489 1.502 . S
C488 C490 1.561 . S
C488 C491 1.526 . S
C489 H473 0.959 . S
C489 H474 0.959 . S
C489 H475 0.961 . S
C489 C488 1.502 . S
C490 H476 0.960 . S
C490 H477 0.961 . S
C490 H478 0.959 . S
C490 C488 1.561 . S
C491 C488 1.526 . S
C491 C492 1.396 . S
C491 C496 1.390 . S
C492 C486 1.465 . S
C492 C491 1.396 . S
C492 C493 1.399 . S
C493 H479 0.929 . S
C493 C492 1.399 . S
C493 C494 1.385 . S
C494 H480 0.931 . S
C494 C493 1.385 . S
C494 C495 1.389 . S
C495 C494 1.389 . S
C495 C496 1.387 . S
C496 H481 0.930 . S
C496 C491 1.390 . S
C496 C495 1.387 . S
H497 C509 0.930 . S
H498 C511 0.930 . S
H499 C512 0.930 . S
H500 C516 0.959 . S
H501 C516 0.959 . S
H502 C516 0.961 . S
H503 C517 0.960 . S
H504 C517 0.961 . S
H505 C517 0.959 . S
H506 C520 0.929 . S
H507 C521 0.931 . S
H508 C523 0.930 . S
C509 H497 0.930 . S
C509 C510 1.399 . S
C509 C514 1.399 . S
C510 C509 1.399 . S
C510 C511 1.376 . S
C511 H498 0.930 . S
C511 C510 1.376 . S
C511 C512 1.388 . S
C512 H499 0.930 . S
C512 C511 1.388 . S
C512 C513 1.390 . S
C513 C512 1.390 . S
C513 C514 1.394 . S
C513 C519 1.465 . S
C514 C509 1.399 . S
C514 C513 1.394 . S
C514 C515 1.516 . S
C515 C514 1.516 . S
C515 C516 1.502 . S
C515 C517 1.561 . S
C515 C518 1.526 . S
C516 H500 0.959 . S
C516 H501 0.959 . S
C516 H502 0.961 . S
C516 C515 1.502 . S
C517 H503 0.960 . S
C517 H504 0.961 . S
C517 H505 0.959 . S
C517 C515 1.561 . S
C518 C515 1.526 . S
C518 C519 1.396 . S
C518 C523 1.390 . S
C519 C513 1.465 . S
C519 C518 1.396 . S
C519 C520 1.399 . S
C520 H506 0.929 . S
C520 C519 1.399 . S
C520 C521 1.385 . S
C521 H507 0.931 . S
C521 C520 1.385 . S
C521 C522 1.389 . S
C522 C521 1.389 . S
C522 C523 1.387 . S
C523 H508 0.930 . S
C523 C518 1.390 . S
C523 C522 1.387 . S
H524 C536 0.930 . S
H525 C538 0.930 . S
H526 C539 0.930 . S
H527 C543 0.959 . S
H528 C543 0.959 . S
H529 C543 0.961 . S
H530 C544 0.960 . S
H531 C544 0.961 . S
H532 C544 0.959 . S
H533 C547 0.929 . S
H534 C548 0.931 . S
H535 C550 0.930 . S
C536 H524 0.930 . S
C536 C537 1.399 . S
C536 C541 1.399 . S
C537 C536 1.399 . S
C537 C538 1.376 . S
C538 H525 0.930 . S
C538 C537 1.376 . S
C538 C539 1.388 . S
C539 H526 0.930 . S
C539 C538 1.388 . S
C539 C540 1.390 . S
C540 C539 1.390 . S
C540 C541 1.394 . S
C540 C546 1.465 . S
C541 C536 1.399 . S
C541 C540 1.394 . S
C541 C542 1.516 . S
C542 C541 1.516 . S
C542 C543 1.502 . S
C542 C544 1.561 . S
C542 C545 1.526 . S
C543 H527 0.959 . S
C543 H528 0.959 . S
C543 H529 0.961 . S
C543 C542 1.502 . S
C544 H530 0.960 . S
C544 H531 0.961 . S
C544 H532 0.959 . S
C544 C542 1.561 . S
C545 C542 1.526 . S
C545 C546 1.396 . S
C545 C550 1.390 . S
C546 C540 1.465 . S
C546 C545 1.396 . S
C546 C547 1.399 . S
C547 H533 0.929 . S
C547 C546 1.399 . S
C547 C548 1.385 . S
C548 H534 0.931 . S
C548 C547 1.385 . S
C548 C549 1.389 . S
C549 C548 1.389 . S
C549 C550 1.387 . S
C550 H535 0.930 . S
C550 C545 1.390 . S
C550 C549 1.387 . S
H551 C563 0.930 . S
H552 C565 0.930 . S
H553 C566 0.930 . S
H554 C570 0.959 . S
H555 C570 0.959 . S
H556 C570 0.961 . S
H557 C571 0.960 . S
H558 C571 0.961 . S
H559 C571 0.959 . S
H560 C574 0.929 . S
H561 C575 0.931 . S
H562 C577 0.930 . S
C563 H551 0.930 . S
C563 C564 1.399 . S
C563 C568 1.399 . S
C564 C563 1.399 . S
C564 C565 1.376 . S
C565 H552 0.930 . S
C565 C564 1.376 . S
C565 C566 1.388 . S
C566 H553 0.930 . S
C566 C565 1.388 . S
C566 C567 1.390 . S
C567 C566 1.390 . S
C567 C568 1.394 . S
C567 C573 1.465 . S
C568 C563 1.399 . S
C568 C567 1.394 . S
C568 C569 1.516 . S
C569 C568 1.516 . S
C569 C570 1.502 . S
C569 C571 1.561 . S
C569 C572 1.526 . S
C570 H554 0.959 . S
C570 H555 0.959 . S
C570 H556 0.961 . S
C570 C569 1.502 . S
C571 H557 0.960 . S
C571 H558 0.961 . S
C571 H559 0.959 . S
C571 C569 1.561 . S
C572 C569 1.526 . S
C572 C573 1.396 . S
C572 C577 1.390 . S
C573 C567 1.465 . S
C573 C572 1.396 . S
C573 C574 1.399 . S
C574 H560 0.929 . S
C574 C573 1.399 . S
C574 C575 1.385 . S
C575 H561 0.931 . S
C575 C574 1.385 . S
C575 C576 1.389 . S
C576 C575 1.389 . S
C576 C577 1.387 . S
C577 H562 0.930 . S
C577 C572 1.390 . S
C577 C576 1.387 . S
H578 C590 0.930 . S
H579 C592 0.930 . S
H580 C593 0.930 . S
H581 C597 0.959 . S
H582 C597 0.959 . S
H583 C597 0.961 . S
H584 C598 0.960 . S
H585 C598 0.961 . S
H586 C598 0.959 . S
H587 C601 0.929 . S
H588 C602 0.931 . S
H589 C604 0.930 . S
C590 H578 0.930 . S
C590 C591 1.399 . S
C590 C595 1.399 . S
C591 C590 1.399 . S
C591 C592 1.376 . S
C592 H579 0.930 . S
C592 C591 1.376 . S
C592 C593 1.388 . S
C593 H580 0.930 . S
C593 C592 1.388 . S
C593 C594 1.390 . S
C594 C593 1.390 . S
C594 C595 1.394 . S
C594 C600 1.465 . S
C595 C590 1.399 . S
C595 C594 1.394 . S
C595 C596 1.516 . S
C596 C595 1.516 . S
C596 C597 1.502 . S
C596 C598 1.561 . S
C596 C599 1.526 . S
C597 H581 0.959 . S
C597 H582 0.959 . S
C597 H583 0.961 . S
C597 C596 1.502 . S
C598 H584 0.960 . S
C598 H585 0.961 . S
C598 H586 0.959 . S
C598 C596 1.561 . S
C599 C596 1.526 . S
C599 C600 1.396 . S
C599 C604 1.390 . S
C600 C594 1.465 . S
C600 C599 1.396 . S
C600 C601 1.399 . S
C601 H587 0.929 . S
C601 C600 1.399 . S
C601 C602 1.385 . S
C602 H588 0.931 . S
C602 C601 1.385 . S
C602 C603 1.389 . S
C603 C602 1.389 . S
C603 C604 1.387 . S
C604 H589 0.930 . S
C604 C599 1.390 . S
C604 C603 1.387 . S
H605 C617 0.930 . S
H606 C619 0.930 . S
H607 C620 0.930 . S
H608 C624 0.959 . S
H609 C624 0.959 . S
H610 C624 0.961 . S
H611 C625 0.960 . S
H612 C625 0.961 . S
H613 C625 0.959 . S
H614 C628 0.929 . S
H615 C629 0.931 . S
H616 C631 0.930 . S
C617 H605 0.930 . S
C617 C618 1.399 . S
C617 C622 1.399 . S
C618 C617 1.399 . S
C618 C619 1.376 . S
C619 H606 0.930 . S
C619 C618 1.376 . S
C619 C620 1.388 . S
C620 H607 0.930 . S
C620 C619 1.388 . S
C620 C621 1.390 . S
C621 C620 1.390 . S
C621 C622 1.394 . S
C621 C627 1.465 . S
C622 C617 1.399 . S
C622 C621 1.394 . S
C622 C623 1.516 . S
C623 C622 1.516 . S
C623 C624 1.502 . S
C623 C625 1.561 . S
C623 C626 1.526 . S
C624 H608 0.959 . S
C624 H609 0.959 . S
C624 H610 0.961 . S
C624 C623 1.502 . S
C625 H611 0.960 . S
C625 H612 0.961 . S
C625 H613 0.959 . S
C625 C623 1.561 . S
C626 C623 1.526 . S
C626 C627 1.396 . S
C626 C631 1.390 . S
C627 C621 1.465 . S
C627 C626 1.396 . S
C627 C628 1.399 . S
C628 H614 0.929 . S
C628 C627 1.399 . S
C628 C629 1.385 . S
C629 H615 0.931 . S
C629 C628 1.385 . S
C629 C630 1.389 . S
C630 C629 1.389 . S
C630 C631 1.387 . S
C631 H616 0.930 . S
C631 C626 1.390 . S
C631 C630 1.387 . S
H632 C644 0.930 . S
H633 C646 0.930 . S
H634 C647 0.930 . S
H635 C651 0.959 . S
H636 C651 0.959 . S
H637 C651 0.961 . S
H638 C652 0.960 . S
H639 C652 0.961 . S
H640 C652 0.959 . S
H641 C655 0.929 . S
H642 C656 0.931 . S
H643 C658 0.930 . S
C644 H632 0.930 . S
C644 C645 1.399 . S
C644 C649 1.399 . S
C645 C644 1.399 . S
C645 C646 1.376 . S
C646 H633 0.930 . S
C646 C645 1.376 . S
C646 C647 1.388 . S
C647 H634 0.930 . S
C647 C646 1.388 . S
C647 C648 1.390 . S
C648 C647 1.390 . S
C648 C649 1.394 . S
C648 C654 1.465 . S
C649 C644 1.399 . S
C649 C648 1.394 . S
C649 C650 1.516 . S
C650 C649 1.516 . S
C650 C651 1.502 . S
C650 C652 1.561 . S
C650 C653 1.526 . S
C651 H635 0.959 . S
C651 H636 0.959 . S
C651 H637 0.961 . S
C651 C650 1.502 . S
C652 H638 0.960 . S
C652 H639 0.961 . S
C652 H640 0.959 . S
C652 C650 1.561 . S
C653 C650 1.526 . S
C653 C654 1.396 . S
C653 C658 1.390 . S
C654 C648 1.465 . S
C654 C653 1.396 . S
C654 C655 1.399 . S
C655 H641 0.929 . S
C655 C654 1.399 . S
C655 C656 1.385 . S
C656 H642 0.931 . S
C656 C655 1.385 . S
C656 C657 1.389 . S
C657 C656 1.389 . S
C657 C658 1.387 . S
C658 H643 0.930 . S
C658 C653 1.390 . S
C658 C657 1.387 . S
H659 C671 0.930 . S
H660 C673 0.930 . S
H661 C674 0.930 . S
H662 C678 0.959 . S
H663 C678 0.959 . S
H664 C678 0.961 . S
H665 C679 0.960 . S
H666 C679 0.961 . S
H667 C679 0.959 . S
H668 C682 0.929 . S
H669 C683 0.931 . S
H670 C685 0.930 . S
C671 H659 0.930 . S
C671 C672 1.399 . S
C671 C676 1.399 . S
C672 C671 1.399 . S
C672 C673 1.376 . S
C673 H660 0.930 . S
C673 C672 1.376 . S
C673 C674 1.388 . S
C674 H661 0.930 . S
C674 C673 1.388 . S
C674 C675 1.390 . S
C675 C674 1.390 . S
C675 C676 1.394 . S
C675 C681 1.465 . S
C676 C671 1.399 . S
C676 C675 1.394 . S
C676 C677 1.516 . S
C677 C676 1.516 . S
C677 C678 1.502 . S
C677 C679 1.561 . S
C677 C680 1.526 . S
C678 H662 0.959 . S
C678 H663 0.959 . S
C678 H664 0.961 . S
C678 C677 1.502 . S
C679 H665 0.960 . S
C679 H666 0.961 . S
C679 H667 0.959 . S
C679 C677 1.561 . S
C680 C677 1.526 . S
C680 C681 1.396 . S
C680 C685 1.390 . S
C681 C675 1.465 . S
C681 C680 1.396 . S
C681 C682 1.399 . S
C682 H668 0.929 . S
C682 C681 1.399 . S
C682 C683 1.385 . S
C683 H669 0.931 . S
C683 C682 1.385 . S
C683 C684 1.389 . S
C684 C683 1.389 . S
C684 C685 1.387 . S
C685 H670 0.930 . S
C685 C680 1.390 . S
C685 C684 1.387 . S
H686 C698 0.930 . S
H687 C700 0.930 . S
H688 C701 0.930 . S
H689 C705 0.959 . S
H690 C705 0.959 . S
H691 C705 0.961 . S
H692 C706 0.960 . S
H693 C706 0.961 . S
H694 C706 0.959 . S
H695 C709 0.929 . S
H696 C710 0.931 . S
H697 C712 0.930 . S
C698 H686 0.930 . S
C698 C699 1.399 . S
C698 C703 1.399 . S
C699 C698 1.399 . S
C699 C700 1.376 . S
C700 H687 0.930 . S
C700 C699 1.376 . S
C700 C701 1.388 . S
C701 H688 0.930 . S
C701 C700 1.388 . S
C701 C702 1.390 . S
C702 C701 1.390 . S
C702 C703 1.394 . S
C702 C708 1.465 . S
C703 C698 1.399 . S
C703 C702 1.394 . S
C703 C704 1.516 . S
C704 C703 1.516 . S
C704 C705 1.502 . S
C704 C706 1.561 . S
C704 C707 1.526 . S
C705 H689 0.959 . S
C705 H690 0.959 . S
C705 H691 0.961 . S
C705 C704 1.502 . S
C706 H692 0.960 . S
C706 H693 0.961 . S
C706 H694 0.959 . S
C706 C704 1.561 . S
C707 C704 1.526 . S
C707 C708 1.396 . S
C707 C712 1.390 . S
C708 C702 1.465 . S
C708 C707 1.396 . S
C708 C709 1.399 . S
C709 H695 0.929 . S
C709 C708 1.399 . S
C709 C710 1.385 . S
C710 H696 0.931 . S
C710 C709 1.385 . S
C710 C711 1.389 . S
C711 C710 1.389 . S
C711 C712 1.387 . S
C712 H697 0.930 . S
C712 C707 1.390 . S
C712 C711 1.387 . S
H713 C725 0.930 . S
H714 C727 0.930 . S
H715 C728 0.930 . S
H716 C732 0.959 . S
H717 C732 0.959 . S
H718 C732 0.961 . S
H719 C733 0.960 . S
H720 C733 0.961 . S
H721 C733 0.959 . S
H722 C736 0.929 . S
H723 C737 0.931 . S
H724 C739 0.930 . S
C725 H713 0.930 . S
C725 C726 1.399 . S
C725 C730 1.399 . S
C726 C725 1.399 . S
C726 C727 1.376 . S
C727 H714 0.930 . S
C727 C726 1.376 . S
C727 C728 1.388 . S
C728 H715 0.930 . S
C728 C727 1.388 . S
C728 C729 1.390 . S
C729 C728 1.390 . S
C729 C730 1.394 . S
C729 C735 1.465 . S
C730 C725 1.399 . S
C730 C729 1.394 . S
C730 C731 1.516 . S
C731 C730 1.516 . S
C731 C732 1.502 . S
C731 C733 1.561 . S
C731 C734 1.526 . S
C732 H716 0.959 . S
C732 H717 0.959 . S
C732 H718 0.961 . S
C732 C731 1.502 . S
C733 H719 0.960 . S
C733 H720 0.961 . S
C733 H721 0.959 . S
C733 C731 1.561 . S
C734 C731 1.526 . S
C734 C735 1.396 . S
C734 C739 1.390 . S
C735 C729 1.465 . S
C735 C734 1.396 . S
C735 C736 1.399 . S
C736 H722 0.929 . S
C736 C735 1.399 . S
C736 C737 1.385 . S
C737 H723 0.931 . S
C737 C736 1.385 . S
C737 C738 1.389 . S
C738 C737 1.389 . S
C738 C739 1.387 . S
C739 H724 0.930 . S
C739 C734 1.390 . S
C739 C738 1.387 . S
H740 C752 0.930 . S
H741 C754 0.930 . S
H742 C755 0.930 . S
H743 C759 0.959 . S
H744 C759 0.959 . S
H745 C759 0.961 . S
H746 C760 0.960 . S
H747 C760 0.961 . S
H748 C760 0.959 . S
H749 C763 0.929 . S
H750 C764 0.931 . S
H751 C766 0.930 . S
C752 H740 0.930 . S
C752 C753 1.399 . S
C752 C757 1.399 . S
C753 C752 1.399 . S
C753 C754 1.376 . S
C754 H741 0.930 . S
C754 C753 1.376 . S
C754 C755 1.388 . S
C755 H742 0.930 . S
C755 C754 1.388 . S
C755 C756 1.390 . S
C756 C755 1.390 . S
C756 C757 1.394 . S
C756 C762 1.465 . S
C757 C752 1.399 . S
C757 C756 1.394 . S
C757 C758 1.516 . S
C758 C757 1.516 . S
C758 C759 1.502 . S
C758 C760 1.561 . S
C758 C761 1.526 . S
C759 H743 0.959 . S
C759 H744 0.959 . S
C759 H745 0.961 . S
C759 C758 1.502 . S
C760 H746 0.960 . S
C760 H747 0.961 . S
C760 H748 0.959 . S
C760 C758 1.561 . S
C761 C758 1.526 . S
C761 C762 1.396 . S
C761 C766 1.390 . S
C762 C756 1.465 . S
C762 C761 1.396 . S
C762 C763 1.399 . S
C763 H749 0.929 . S
C763 C762 1.399 . S
C763 C764 1.385 . S
C764 H750 0.931 . S
C764 C763 1.385 . S
C764 C765 1.389 . S
C765 C764 1.389 . S
C765 C766 1.387 . S
C766 H751 0.930 . S
C766 C761 1.390 . S
C766 C765 1.387 . S
H767 C779 0.930 . S
H768 C781 0.930 . S
H769 C782 0.930 . S
H770 C786 0.959 . S
H771 C786 0.959 . S
H772 C786 0.961 . S
H773 C787 0.960 . S
H774 C787 0.961 . S
H775 C787 0.959 . S
H776 C790 0.929 . S
H777 C791 0.931 . S
H778 C793 0.930 . S
C779 H767 0.930 . S
C779 C780 1.399 . S
C779 C784 1.399 . S
C780 C779 1.399 . S
C780 C781 1.376 . S
C781 H768 0.930 . S
C781 C780 1.376 . S
C781 C782 1.388 . S
C782 H769 0.930 . S
C782 C781 1.388 . S
C782 C783 1.390 . S
C783 C782 1.390 . S
C783 C784 1.394 . S
C783 C789 1.465 . S
C784 C779 1.399 . S
C784 C783 1.394 . S
C784 C785 1.516 . S
C785 C784 1.516 . S
C785 C786 1.502 . S
C785 C787 1.561 . S
C785 C788 1.526 . S
C786 H770 0.959 . S
C786 H771 0.959 . S
C786 H772 0.961 . S
C786 C785 1.502 . S
C787 H773 0.960 . S
C787 H774 0.961 . S
C787 H775 0.959 . S
C787 C785 1.561 . S
C788 C785 1.526 . S
C788 C789 1.396 . S
C788 C793 1.390 . S
C789 C783 1.465 . S
C789 C788 1.396 . S
C789 C790 1.399 . S
C790 H776 0.929 . S
C790 C789 1.399 . S
C790 C791 1.385 . S
C791 H777 0.931 . S
C791 C790 1.385 . S
C791 C792 1.389 . S
C792 C791 1.389 . S
C792 C793 1.387 . S
C793 H778 0.930 . S
C793 C788 1.390 . S
C793 C792 1.387 . S
H794 C806 0.930 . S
H795 C808 0.930 . S
H796 C809 0.930 . S
H797 C813 0.959 . S
H798 C813 0.959 . S
H799 C813 0.961 . S
H800 C814 0.960 . S
H801 C814 0.961 . S
H802 C814 0.959 . S
H803 C817 0.929 . S
H804 C818 0.931 . S
H805 C820 0.930 . S
C806 H794 0.930 . S
C806 C807 1.399 . S
C806 C811 1.399 . S
C807 C806 1.399 . S
C807 C808 1.376 . S
C808 H795 0.930 . S
C808 C807 1.376 . S
C808 C809 1.388 . S
C809 H796 0.930 . S
C809 C808 1.388 . S
C809 C810 1.390 . S
C810 C809 1.390 . S
C810 C811 1.394 . S
C810 C816 1.465 . S
C811 C806 1.399 . S
C811 C810 1.394 . S
C811 C812 1.516 . S
C812 C811 1.516 . S
C812 C813 1.502 . S
C812 C814 1.561 . S
C812 C815 1.526 . S
C813 H797 0.959 . S
C813 H798 0.959 . S
C813 H799 0.961 . S
C813 C812 1.502 . S
C814 H800 0.960 . S
C814 H801 0.961 . S
C814 H802 0.959 . S
C814 C812 1.561 . S
C815 C812 1.526 . S
C815 C816 1.396 . S
C815 C820 1.390 . S
C816 C810 1.465 . S
C816 C815 1.396 . S
C816 C817 1.399 . S
C817 H803 0.929 . S
C817 C816 1.399 . S
C817 C818 1.385 . S
C818 H804 0.931 . S
C818 C817 1.385 . S
C818 C819 1.389 . S
C819 C818 1.389 . S
C819 C820 1.387 . S
C820 H805 0.930 . S
C820 C815 1.390 . S
C820 C819 1.387 . S
H821 C833 0.930 . S
H822 C835 0.930 . S
H823 C836 0.930 . S
H824 C840 0.959 . S
H825 C840 0.959 . S
H826 C840 0.961 . S
H827 C841 0.960 . S
H828 C841 0.961 . S
H829 C841 0.959 . S
H830 C844 0.929 . S
H831 C845 0.931 . S
H832 C847 0.930 . S
C833 H821 0.930 . S
C833 C834 1.399 . S
C833 C838 1.399 . S
C834 C833 1.399 . S
C834 C835 1.376 . S
C835 H822 0.930 . S
C835 C834 1.376 . S
C835 C836 1.388 . S
C836 H823 0.930 . S
C836 C835 1.388 . S
C836 C837 1.390 . S
C837 C836 1.390 . S
C837 C838 1.394 . S
C837 C843 1.465 . S
C838 C833 1.399 . S
C838 C837 1.394 . S
C838 C839 1.516 . S
C839 C838 1.516 . S
C839 C840 1.502 . S
C839 C841 1.561 . S
C839 C842 1.526 . S
C840 H824 0.959 . S
C840 H825 0.959 . S
C840 H826 0.961 . S
C840 C839 1.502 . S
C841 H827 0.960 . S
C841 H828 0.961 . S
C841 H829 0.959 . S
C841 C839 1.561 . S
C842 C839 1.526 . S
C842 C843 1.396 . S
C842 C847 1.390 . S
C843 C837 1.465 . S
C843 C842 1.396 . S
C843 C844 1.399 . S
C844 H830 0.929 . S
C844 C843 1.399 . S
C844 C845 1.385 . S
C845 H831 0.931 . S
C845 C844 1.385 . S
C845 C846 1.389 . S
C846 C845 1.389 . S
C846 C847 1.387 . S
C847 H832 0.930 . S
C847 C842 1.390 . S
C847 C846 1.387 . S
H848 C860 0.930 . S
H849 C862 0.930 . S
H850 C863 0.930 . S
H851 C867 0.959 . S
H852 C867 0.959 . S
H853 C867 0.961 . S
H854 C868 0.960 . S
H855 C868 0.961 . S
H856 C868 0.959 . S
H857 C871 0.929 . S
H858 C872 0.931 . S
H859 C874 0.930 . S
C860 H848 0.930 . S
C860 C861 1.399 . S
C860 C865 1.399 . S
C861 C860 1.399 . S
C861 C862 1.376 . S
C862 H849 0.930 . S
C862 C861 1.376 . S
C862 C863 1.388 . S
C863 H850 0.930 . S
C863 C862 1.388 . S
C863 C864 1.390 . S
C864 C863 1.390 . S
C864 C865 1.394 . S
C864 C870 1.465 . S
C865 C860 1.399 . S
C865 C864 1.394 . S
C865 C866 1.516 . S
C866 C865 1.516 . S
C866 C867 1.502 . S
C866 C868 1.561 . S
C866 C869 1.526 . S
C867 H851 0.959 . S
C867 H852 0.959 . S
C867 H853 0.961 . S
C867 C866 1.502 . S
C868 H854 0.960 . S
C868 H855 0.961 . S
C868 H856 0.959 . S
C868 C866 1.561 . S
C869 C866 1.526 . S
C869 C870 1.396 . S
C869 C874 1.390 . S
C870 C864 1.465 . S
C870 C869 1.396 . S
C870 C871 1.399 . S
C871 H857 0.929 . S
C871 C870 1.399 . S
C871 C872 1.385 . S
C872 H858 0.931 . S
C872 C871 1.385 . S
C872 C873 1.389 . S
C873 C872 1.389 . S
C873 C874 1.387 . S
C874 H859 0.930 . S
C874 C869 1.390 . S
C874 C873 1.387 . S
H875 C887 0.930 . S
H876 C889 0.930 . S
H877 C890 0.930 . S
H878 C894 0.959 . S
H879 C894 0.959 . S
H880 C894 0.961 . S
H881 C895 0.960 . S
H882 C895 0.961 . S
H883 C895 0.959 . S
H884 C898 0.929 . S
H885 C899 0.931 . S
H886 C901 0.930 . S
C887 H875 0.930 . S
C887 C888 1.399 . S
C887 C892 1.399 . S
C888 C887 1.399 . S
C888 C889 1.376 . S
C889 H876 0.930 . S
C889 C888 1.376 . S
C889 C890 1.388 . S
C890 H877 0.930 . S
C890 C889 1.388 . S
C890 C891 1.390 . S
C891 C890 1.390 . S
C891 C892 1.394 . S
C891 C897 1.465 . S
C892 C887 1.399 . S
C892 C891 1.394 . S
C892 C893 1.516 . S
C893 C892 1.516 . S
C893 C894 1.502 . S
C893 C895 1.561 . S
C893 C896 1.526 . S
C894 H878 0.959 . S
C894 H879 0.959 . S
C894 H880 0.961 . S
C894 C893 1.502 . S
C895 H881 0.960 . S
C895 H882 0.961 . S
C895 H883 0.959 . S
C895 C893 1.561 . S
C896 C893 1.526 . S
C896 C897 1.396 . S
C896 C901 1.390 . S
C897 C891 1.465 . S
C897 C896 1.396 . S
C897 C898 1.399 . S
C898 H884 0.929 . S
C898 C897 1.399 . S
C898 C899 1.385 . S
C899 H885 0.931 . S
C899 C898 1.385 . S
C899 C900 1.389 . S
C900 C899 1.389 . S
C900 C901 1.387 . S
C901 H886 0.930 . S
C901 C896 1.390 . S
C901 C900 1.387 . S
H902 C914 0.930 . S
H903 C916 0.930 . S
H904 C917 0.930 . S
H905 C921 0.959 . S
H906 C921 0.959 . S
H907 C921 0.961 . S
H908 C922 0.960 . S
H909 C922 0.961 . S
H910 C922 0.959 . S
H911 C925 0.929 . S
H912 C926 0.931 . S
H913 C928 0.930 . S
C914 H902 0.930 . S
C914 C915 1.399 . S
C914 C919 1.399 . S
C915 C914 1.399 . S
C915 C916 1.376 . S
C916 H903 0.930 . S
C916 C915 1.376 . S
C916 C917 1.388 . S
C917 H904 0.930 . S
C917 C916 1.388 . S
C917 C918 1.390 . S
C918 C917 1.390 . S
C918 C919 1.394 . S
C918 C924 1.465 . S
C919 C914 1.399 . S
C919 C918 1.394 . S
C919 C920 1.516 . S
C920 C919 1.516 . S
C920 C921 1.502 . S
C920 C922 1.561 . S
C920 C923 1.526 . S
C921 H905 0.959 . S
C921 H906 0.959 . S
C921 H907 0.961 . S
C921 C920 1.502 . S
C922 H908 0.960 . S
C922 H909 0.961 . S
C922 H910 0.959 . S
C922 C920 1.561 . S
C923 C920 1.526 . S
C923 C924 1.396 . S
C923 C928 1.390 . S
C924 C918 1.465 . S
C924 C923 1.396 . S
C924 C925 1.399 . S
C925 H911 0.929 . S
C925 C924 1.399 . S
C925 C926 1.385 . S
C926 H912 0.931 . S
C926 C925 1.385 . S
C926 C927 1.389 . S
C927 C926 1.389 . S
C927 C928 1.387 . S
C928 H913 0.930 . S
C928 C923 1.390 . S
C928 C927 1.387 . S
H929 C941 0.930 . S
H930 C943 0.930 . S
H931 C944 0.930 . S
H932 C948 0.959 . S
H933 C948 0.959 . S
H934 C948 0.961 . S
H935 C949 0.960 . S
H936 C949 0.961 . S
H937 C949 0.959 . S
H938 C952 0.929 . S
H939 C953 0.931 . S
H940 C955 0.930 . S
C941 H929 0.930 . S
C941 C942 1.399 . S
C941 C946 1.399 . S
C942 C941 1.399 . S
C942 C943 1.376 . S
C943 H930 0.930 . S
C943 C942 1.376 . S
C943 C944 1.388 . S
C944 H931 0.930 . S
C944 C943 1.388 . S
C944 C945 1.390 . S
C945 C944 1.390 . S
C945 C946 1.394 . S
C945 C951 1.465 . S
C946 C941 1.399 . S
C946 C945 1.394 . S
C946 C947 1.516 . S
C947 C946 1.516 . S
C947 C948 1.502 . S
C947 C949 1.561 . S
C947 C950 1.526 . S
C948 H932 0.959 . S
C948 H933 0.959 . S
C948 H934 0.961 . S
C948 C947 1.502 . S
C949 H935 0.960 . S
C949 H936 0.961 . S
C949 H937 0.959 . S
C949 C947 1.561 . S
C950 C947 1.526 . S
C950 C951 1.396 . S
C950 C955 1.390 . S
C951 C945 1.465 . S
C951 C950 1.396 . S
C951 C952 1.399 . S
C952 H938 0.929 . S
C952 C951 1.399 . S
C952 C953 1.385 . S
C953 H939 0.931 . S
C953 C952 1.385 . S
C953 C954 1.389 . S
C954 C953 1.389 . S
C954 C955 1.387 . S
C955 H940 0.930 . S
C955 C950 1.390 . S
C955 C954 1.387 . S
H956 C968 0.930 . S
H957 C970 0.930 . S
H958 C971 0.930 . S
H959 C975 0.959 . S
H960 C975 0.959 . S
H961 C975 0.961 . S
H962 C976 0.960 . S
H963 C976 0.961 . S
H964 C976 0.959 . S
H965 C979 0.929 . S
H966 C980 0.931 . S
H967 C982 0.930 . S
C968 H956 0.930 . S
C968 C969 1.399 . S
C968 C973 1.399 . S
C969 C968 1.399 . S
C969 C970 1.376 . S
C970 H957 0.930 . S
C970 C969 1.376 . S
C970 C971 1.388 . S
C971 H958 0.930 . S
C971 C970 1.388 . S
C971 C972 1.390 . S
C972 C971 1.390 . S
C972 C973 1.394 . S
C972 C978 1.465 . S
C973 C968 1.399 . S
C973 C972 1.394 . S
C973 C974 1.516 . S
C974 C973 1.516 . S
C974 C975 1.502 . S
C974 C976 1.561 . S
C974 C977 1.526 . S
C975 H959 0.959 . S
C975 H960 0.959 . S
C975 H961 0.961 . S
C975 C974 1.502 . S
C976 H962 0.960 . S
C976 H963 0.961 . S
C976 H964 0.959 . S
C976 C974 1.561 . S
C977 C974 1.526 . S
C977 C978 1.396 . S
C977 C982 1.390 . S
C978 C972 1.465 . S
C978 C977 1.396 . S
C978 C979 1.399 . S
C979 H965 0.929 . S
C979 C978 1.399 . S
C979 C980 1.385 . S
C980 H966 0.931 . S
C980 C979 1.385 . S
C980 C981 1.389 . S
C981 C980 1.389 . S
C981 C982 1.387 . S
C982 H967 0.930 . S
C982 C977 1.390 . S
C982 C981 1.387 . S
H983 C995 0.930 . S
H984 C997 0.930 . S
H985 C998 0.930 . S
H986 C1002 0.959 . S
H987 C1002 0.959 . S
H988 C1002 0.961 . S
H989 C1003 0.960 . S
H990 C1003 0.961 . S
H991 C1003 0.959 . S
H992 C1006 0.929 . S
H993 C1007 0.931 . S
H994 C1009 0.930 . S
C995 H983 0.930 . S
C995 C996 1.399 . S
C995 C1000 1.399 . S
C996 C995 1.399 . S
C996 C997 1.376 . S
C997 H984 0.930 . S
C997 C996 1.376 . S
C997 C998 1.388 . S
C998 H985 0.930 . S
C998 C997 1.388 . S
C998 C999 1.390 . S
C999 C998 1.390 . S
C999 C1000 1.394 . S
C999 C1005 1.465 . S
C1000 C995 1.399 . S
C1000 C999 1.394 . S
C1000 C1001 1.516 . S
C1001 C1000 1.516 . S
C1001 C1002 1.502 . S
C1001 C1003 1.561 . S
C1001 C1004 1.526 . S
C1002 H986 0.959 . S
C1002 H987 0.959 . S
C1002 H988 0.961 . S
C1002 C1001 1.502 . S
C1003 H989 0.960 . S
C1003 H990 0.961 . S
C1003 H991 0.959 . S
C1003 C1001 1.561 . S
C1004 C1001 1.526 . S
C1004 C1005 1.396 . S
C1004 C1009 1.390 . S
C1005 C999 1.465 . S
C1005 C1004 1.396 . S
C1005 C1006 1.399 . S
C1006 H992 0.929 . S
C1006 C1005 1.399 . S
C1006 C1007 1.385 . S
C1007 H993 0.931 . S
C1007 C1006 1.385 . S
C1007 C1008 1.389 . S
C1008 C1007 1.389 . S
C1008 C1009 1.387 . S
C1009 H994 0.930 . S
C1009 C1004 1.390 . S
C1009 C1008 1.387 . S
H1010 C1022 0.930 . S
H1011 C1024 0.930 . S
H1012 C1025 0.930 . S
H1013 C1029 0.959 . S
H1014 C1029 0.959 . S
H1015 C1029 0.961 . S
H1016 C1030 0.960 . S
H1017 C1030 0.961 . S
H1018 C1030 0.959 . S
H1019 C1033 0.929 . S
H1020 C1034 0.931 . S
H1021 C1036 0.930 . S
C1022 H1010 0.930 . S
C1022 C1023 1.399 . S
C1022 C1027 1.399 . S
C1023 C1022 1.399 . S
C1023 C1024 1.376 . S
C1024 H1011 0.930 . S
C1024 C1023 1.376 . S
C1024 C1025 1.388 . S
C1025 H1012 0.930 . S
C1025 C1024 1.388 . S
C1025 C1026 1.390 . S
C1026 C1025 1.390 . S
C1026 C1027 1.394 . S
C1026 C1032 1.465 . S
C1027 C1022 1.399 . S
C1027 C1026 1.394 . S
C1027 C1028 1.516 . S
C1028 C1027 1.516 . S
C1028 C1029 1.502 . S
C1028 C1030 1.561 . S
C1028 C1031 1.526 . S
C1029 H1013 0.959 . S
C1029 H1014 0.959 . S
C1029 H1015 0.961 . S
C1029 C1028 1.502 . S
C1030 H1016 0.960 . S
C1030 H1017 0.961 . S
C1030 H1018 0.959 . S
C1030 C1028 1.561 . S
C1031 C1028 1.526 . S
C1031 C1032 1.396 . S
C1031 C1036 1.390 . S
C1032 C1026 1.465 . S
C1032 C1031 1.396 . S
C1032 C1033 1.399 . S
C1033 H1019 0.929 . S
C1033 C1032 1.399 . S
C1033 C1034 1.385 . S
C1034 H1020 0.931 . S
C1034 C1033 1.385 . S
C1034 C1035 1.389 . S
C1035 C1034 1.389 . S
C1035 C1036 1.387 . S
C1036 H1021 0.930 . S
C1036 C1031 1.390 . S
C1036 C1035 1.387 . S
H1037 C1049 0.930 . S
H1038 C1051 0.930 . S
H1039 C1052 0.930 . S
H1040 C1056 0.959 . S
H1041 C1056 0.959 . S
H1042 C1056 0.961 . S
H1043 C1057 0.960 . S
H1044 C1057 0.961 . S
H1045 C1057 0.959 . S
H1046 C1060 0.929 . S
H1047 C1061 0.931 . S
H1048 C1063 0.930 . S
C1049 H1037 0.930 . S
C1049 C1050 1.399 . S
C1049 C1054 1.399 . S
C1050 C1049 1.399 . S
C1050 C1051 1.376 . S
C1051 H1038 0.930 . S
C1051 C1050 1.376 . S
C1051 C1052 1.388 . S
C1052 H1039 0.930 . S
C1052 C1051 1.388 . S
C1052 C1053 1.390 . S
C1053 C1052 1.390 . S
C1053 C1054 1.394 . S
C1053 C1059 1.465 . S
C1054 C1049 1.399 . S
C1054 C1053 1.394 . S
C1054 C1055 1.516 . S
C1055 C1054 1.516 . S
C1055 C1056 1.502 . S
C1055 C1057 1.561 . S
C1055 C1058 1.526 . S
C1056 H1040 0.959 . S
C1056 H1041 0.959 . S
C1056 H1042 0.961 . S
C1056 C1055 1.502 . S
C1057 H1043 0.960 . S
C1057 H1044 0.961 . S
C1057 H1045 0.959 . S
C1057 C1055 1.561 . S
C1058 C1055 1.526 . S
C1058 C1059 1.396 . S
C1058 C1063 1.390 . S
C1059 C1053 1.465 . S
C1059 C1058 1.396 . S
C1059 C1060 1.399 . S
C1060 H1046 0.929 . S
C1060 C1059 1.399 . S
C1060 C1061 1.385 . S
C1061 H1047 0.931 . S
C1061 C1060 1.385 . S
C1061 C1062 1.389 . S
C1062 C1061 1.389 . S
C1062 C1063 1.387 . S
C1063 H1048 0.930 . S
C1063 C1058 1.390 . S
C1063 C1062 1.387 . S
H1064 C1076 0.930 . S
H1065 C1078 0.930 . S
H1066 C1079 0.930 . S
H1067 C1083 0.959 . S
H1068 C1083 0.959 . S
H1069 C1083 0.961 . S
H1070 C1084 0.960 . S
H1071 C1084 0.961 . S
H1072 C1084 0.959 . S
H1073 C1087 0.929 . S
H1074 C1088 0.931 . S
H1075 C1090 0.930 . S
C1076 H1064 0.930 . S
C1076 C1077 1.399 . S
C1076 C1081 1.399 . S
C1077 C1076 1.399 . S
C1077 C1078 1.376 . S
C1078 H1065 0.930 . S
C1078 C1077 1.376 . S
C1078 C1079 1.388 . S
C1079 H1066 0.930 . S
C1079 C1078 1.388 . S
C1079 C1080 1.390 . S
C1080 C1079 1.390 . S
C1080 C1081 1.394 . S
C1080 C1086 1.465 . S
C1081 C1076 1.399 . S
C1081 C1080 1.394 . S
C1081 C1082 1.516 . S
C1082 C1081 1.516 . S
C1082 C1083 1.502 . S
C1082 C1084 1.561 . S
C1082 C1085 1.526 . S
C1083 H1067 0.959 . S
C1083 H1068 0.959 . S
C1083 H1069 0.961 . S
C1083 C1082 1.502 . S
C1084 H1070 0.960 . S
C1084 H1071 0.961 . S
C1084 H1072 0.959 . S
C1084 C1082 1.561 . S
C1085 C1082 1.526 . S
C1085 C1086 1.396 . S
C1085 C1090 1.390 . S
C1086 C1080 1.465 . S
C1086 C1085 1.396 . S
C1086 C1087 1.399 . S
C1087 H1073 0.929 . S
C1087 C1086 1.399 . S
C1087 C1088 1.385 . S
C1088 H1074 0.931 . S
C1088 C1087 1.385 . S
C1088 C1089 1.389 . S
C1089 C1088 1.389 . S
C1089 C1090 1.387 . S
C1090 H1075 0.930 . S
C1090 C1085 1.390 . S
C1090 C1089 1.387 . S
H1091 C1103 0.930 . S
H1092 C1105 0.930 . S
H1093 C1106 0.930 . S
H1094 C1110 0.959 . S
H1095 C1110 0.959 . S
H1096 C1110 0.961 . S
H1097 C1111 0.960 . S
H1098 C1111 0.961 . S
H1099 C1111 0.959 . S
H1100 C1114 0.929 . S
H1101 C1115 0.931 . S
H1102 C1117 0.930 . S
C1103 H1091 0.930 . S
C1103 C1104 1.399 . S
C1103 C1108 1.399 . S
C1104 C1103 1.399 . S
C1104 C1105 1.376 . S
C1105 H1092 0.930 . S
C1105 C1104 1.376 . S
C1105 C1106 1.388 . S
C1106 H1093 0.930 . S
C1106 C1105 1.388 . S
C1106 C1107 1.390 . S
C1107 C1106 1.390 . S
C1107 C1108 1.394 . S
C1107 C1113 1.465 . S
C1108 C1103 1.399 . S
C1108 C1107 1.394 . S
C1108 C1109 1.516 . S
C1109 C1108 1.516 . S
C1109 C1110 1.502 . S
C1109 C1111 1.561 . S
C1109 C1112 1.526 . S
C1110 H1094 0.959 . S
C1110 H1095 0.959 . S
C1110 H1096 0.961 . S
C1110 C1109 1.502 . S
C1111 H1097 0.960 . S
C1111 H1098 0.961 . S
C1111 H1099 0.959 . S
C1111 C1109 1.561 . S
C1112 C1109 1.526 . S
C1112 C1113 1.396 . S
C1112 C1117 1.390 . S
C1113 C1107 1.465 . S
C1113 C1112 1.396 . S
C1113 C1114 1.399 . S
C1114 H1100 0.929 . S
C1114 C1113 1.399 . S
C1114 C1115 1.385 . S
C1115 H1101 0.931 . S
C1115 C1114 1.385 . S
C1115 C1116 1.389 . S
C1116 C1115 1.389 . S
C1116 C1117 1.387 . S
C1117 H1102 0.930 . S
C1117 C1112 1.390 . S
C1117 C1116 1.387 . S
H1118 C1130 0.930 . S
H1119 C1132 0.930 . S
H1120 C1133 0.930 . S
H1121 C1137 0.959 . S
H1122 C1137 0.959 . S
H1123 C1137 0.961 . S
H1124 C1138 0.960 . S
H1125 C1138 0.961 . S
H1126 C1138 0.959 . S
H1127 C1141 0.929 . S
H1128 C1142 0.931 . S
H1129 C1144 0.930 . S
C1130 H1118 0.930 . S
C1130 C1131 1.399 . S
C1130 C1135 1.399 . S
C1131 C1130 1.399 . S
C1131 C1132 1.376 . S
C1132 H1119 0.930 . S
C1132 C1131 1.376 . S
C1132 C1133 1.388 . S
C1133 H1120 0.930 . S
C1133 C1132 1.388 . S
C1133 C1134 1.390 . S
C1134 C1133 1.390 . S
C1134 C1135 1.394 . S
C1134 C1140 1.465 . S
C1135 C1130 1.399 . S
C1135 C1134 1.394 . S
C1135 C1136 1.516 . S
C1136 C1135 1.516 . S
C1136 C1137 1.502 . S
C1136 C1138 1.561 . S
C1136 C1139 1.526 . S
C1137 H1121 0.959 . S
C1137 H1122 0.959 . S
C1137 H1123 0.961 . S
C1137 C1136 1.502 . S
C1138 H1124 0.960 . S
C1138 H1125 0.961 . S
C1138 H1126 0.959 . S
C1138 C1136 1.561 . S
C1139 C1136 1.526 . S
C1139 C1140 1.396 . S
C1139 C1144 1.390 . S
C1140 C1134 1.465 . S
C1140 C1139 1.396 . S
C1140 C1141 1.399 . S
C1141 H1127 0.929 . S
C1141 C1140 1.399 . S
C1141 C1142 1.385 . S
C1142 H1128 0.931 . S
C1142 C1141 1.385 . S
C1142 C1143 1.389 . S
C1143 C1142 1.389 . S
C1143 C1144 1.387 . S
C1144 H1129 0.930 . S
C1144 C1139 1.390 . S
C1144 C1143 1.387 . S
H1145 C1157 0.930 . S
H1146 C1159 0.930 . S
H1147 C1160 0.930 . S
H1148 C1164 0.959 . S
H1149 C1164 0.959 . S
H1150 C1164 0.961 . S
H1151 C1165 0.960 . S
H1152 C1165 0.961 . S
H1153 C1165 0.959 . S
H1154 C1168 0.929 . S
H1155 C1169 0.931 . S
H1156 C1171 0.930 . S
C1157 H1145 0.930 . S
C1157 C1158 1.399 . S
C1157 C1162 1.399 . S
C1158 C1157 1.399 . S
C1158 C1159 1.376 . S
C1159 H1146 0.930 . S
C1159 C1158 1.376 . S
C1159 C1160 1.388 . S
C1160 H1147 0.930 . S
C1160 C1159 1.388 . S
C1160 C1161 1.390 . S
C1161 C1160 1.390 . S
C1161 C1162 1.394 . S
C1161 C1167 1.465 . S
C1162 C1157 1.399 . S
C1162 C1161 1.394 . S
C1162 C1163 1.516 . S
C1163 C1162 1.516 . S
C1163 C1164 1.502 . S
C1163 C1165 1.561 . S
C1163 C1166 1.526 . S
C1164 H1148 0.959 . S
C1164 H1149 0.959 . S
C1164 H1150 0.961 . S
C1164 C1163 1.502 . S
C1165 H1151 0.960 . S
C1165 H1152 0.961 . S
C1165 H1153 0.959 . S
C1165 C1163 1.561 . S
C1166 C1163 1.526 . S
C1166 C1167 1.396 . S
C1166 C1171 1.390 . S
C1167 C1161 1.465 . S
C1167 C1166 1.396 . S
C1167 C1168 1.399 . S
C1168 H1154 0.929 . S
C1168 C1167 1.399 . S
C1168 C1169 1.385 . S
C1169 H1155 0.931 . S
C1169 C1168 1.385 . S
C1169 C1170 1.389 . S
C1170 C1169 1.389 . S
C1170 C1171 1.387 . S
C1171 H1156 0.930 . S
C1171 C1166 1.390 . S
C1171 C1170 1.387 . S
H1172 C1184 0.930 . S
H1173 C1186 0.930 . S
H1174 C1187 0.930 . S
H1175 C1191 0.959 . S
H1176 C1191 0.959 . S
H1177 C1191 0.961 . S
H1178 C1192 0.960 . S
H1179 C1192 0.961 . S
H1180 C1192 0.959 . S
H1181 C1195 0.929 . S
H1182 C1196 0.931 . S
H1183 C1198 0.930 . S
C1184 H1172 0.930 . S
C1184 C1185 1.399 . S
C1184 C1189 1.399 . S
C1185 C1184 1.399 . S
C1185 C1186 1.376 . S
C1186 H1173 0.930 . S
C1186 C1185 1.376 . S
C1186 C1187 1.388 . S
C1187 H1174 0.930 . S
C1187 C1186 1.388 . S
C1187 C1188 1.390 . S
C1188 C1187 1.390 . S
C1188 C1189 1.394 . S
C1188 C1194 1.465 . S
C1189 C1184 1.399 . S
C1189 C1188 1.394 . S
C1189 C1190 1.516 . S
C1190 C1189 1.516 . S
C1190 C1191 1.502 . S
C1190 C1192 1.561 . S
C1190 C1193 1.526 . S
C1191 H1175 0.959 . S
C1191 H1176 0.959 . S
C1191 H1177 0.961 . S
C1191 C1190 1.502 . S
C1192 H1178 0.960 . S
C1192 H1179 0.961 . S
C1192 H1180 0.959 . S
C1192 C1190 1.561 . S
C1193 C1190 1.526 . S
C1193 C1194 1.396 . S
C1193 C1198 1.390 . S
C1194 C1188 1.465 . S
C1194 C1193 1.396 . S
C1194 C1195 1.399 . S
C1195 H1181 0.929 . S
C1195 C1194 1.399 . S
C1195 C1196 1.385 . S
C1196 H1182 0.931 . S
C1196 C1195 1.385 . S
C1196 C1197 1.389 . S
C1197 C1196 1.389 . S
C1197 C1198 1.387 . S
C1198 H1183 0.930 . S
C1198 C1193 1.390 . S
C1198 C1197 1.387 . S
H1199 C1211 0.930 . S
H1200 C1213 0.930 . S
H1201 C1214 0.930 . S
H1202 C1218 0.959 . S
H1203 C1218 0.959 . S
H1204 C1218 0.961 . S
H1205 C1219 0.960 . S
H1206 C1219 0.961 . S
H1207 C1219 0.959 . S
H1208 C1222 0.929 . S
H1209 C1223 0.931 . S
H1210 C1225 0.930 . S
C1211 H1199 0.930 . S
C1211 C1212 1.399 . S
C1211 C1216 1.399 . S
C1212 C1211 1.399 . S
C1212 C1213 1.376 . S
C1213 H1200 0.930 . S
C1213 C1212 1.376 . S
C1213 C1214 1.388 . S
C1214 H1201 0.930 . S
C1214 C1213 1.388 . S
C1214 C1215 1.390 . S
C1215 C1214 1.390 . S
C1215 C1216 1.394 . S
C1215 C1221 1.465 . S
C1216 C1211 1.399 . S
C1216 C1215 1.394 . S
C1216 C1217 1.516 . S
C1217 C1216 1.516 . S
C1217 C1218 1.502 . S
C1217 C1219 1.561 . S
C1217 C1220 1.526 . S
C1218 H1202 0.959 . S
C1218 H1203 0.959 . S
C1218 H1204 0.961 . S
C1218 C1217 1.502 . S
C1219 H1205 0.960 . S
C1219 H1206 0.961 . S
C1219 H1207 0.959 . S
C1219 C1217 1.561 . S
C1220 C1217 1.526 . S
C1220 C1221 1.396 . S
C1220 C1225 1.390 . S
C1221 C1215 1.465 . S
C1221 C1220 1.396 . S
C1221 C1222 1.399 . S
C1222 H1208 0.929 . S
C1222 C1221 1.399 . S
C1222 C1223 1.385 . S
C1223 H1209 0.931 . S
C1223 C1222 1.385 . S
C1223 C1224 1.389 . S
C1224 C1223 1.389 . S
C1224 C1225 1.387 . S
C1225 H1210 0.930 . S
C1225 C1220 1.390 . S
C1225 C1224 1.387 . S
H1226 C1238 0.930 . S
H1227 C1240 0.930 . S
H1228 C1241 0.930 . S
H1229 C1245 0.959 . S
H1230 C1245 0.959 . S
H1231 C1245 0.961 . S
H1232 C1246 0.960 . S
H1233 C1246 0.961 . S
H1234 C1246 0.959 . S
H1235 C1249 0.929 . S
H1236 C1250 0.931 . S
H1237 C1252 0.930 . S
C1238 H1226 0.930 . S
C1238 C1239 1.399 . S
C1238 C1243 1.399 . S
C1239 C1238 1.399 . S
C1239 C1240 1.376 . S
C1240 H1227 0.930 . S
C1240 C1239 1.376 . S
C1240 C1241 1.388 . S
C1241 H1228 0.930 . S
C1241 C1240 1.388 . S
C1241 C1242 1.390 . S
C1242 C1241 1.390 . S
C1242 C1243 1.394 . S
C1242 C1248 1.465 . S
C1243 C1238 1.399 . S
C1243 C1242 1.394 . S
C1243 C1244 1.516 . S
C1244 C1243 1.516 . S
C1244 C1245 1.502 . S
C1244 C1246 1.561 . S
C1244 C1247 1.526 . S
C1245 H1229 0.959 . S
C1245 H1230 0.959 . S
C1245 H1231 0.961 . S
C1245 C1244 1.502 . S
C1246 H1232 0.960 . S
C1246 H1233 0.961 . S
C1246 H1234 0.959 . S
C1246 C1244 1.561 . S
C1247 C1244 1.526 . S
C1247 C1248 1.396 . S
C1247 C1252 1.390 . S
C1248 C1242 1.465 . S
C1248 C1247 1.396 . S
C1248 C1249 1.399 . S
C1249 H1235 0.929 . S
C1249 C1248 1.399 . S
C1249 C1250 1.385 . S
C1250 H1236 0.931 . S
C1250 C1249 1.385 . S
C1250 C1251 1.389 . S
C1251 C1250 1.389 . S
C1251 C1252 1.387 . S
C1252 H1237 0.930 . S
C1252 C1247 1.390 . S
C1252 C1251 1.387 . S
H1253 C1265 0.930 . S
H1254 C1267 0.930 . S
H1255 C1268 0.930 . S
H1256 C1272 0.959 . S
H1257 C1272 0.959 . S
H1258 C1272 0.961 . S
H1259 C1273 0.960 . S
H1260 C1273 0.961 . S
H1261 C1273 0.959 . S
H1262 C1276 0.929 . S
H1263 C1277 0.931 . S
H1264 C1279 0.930 . S
C1265 H1253 0.930 . S
C1265 C1266 1.399 . S
C1265 C1270 1.399 . S
C1266 C1265 1.399 . S
C1266 C1267 1.376 . S
C1267 H1254 0.930 . S
C1267 C1266 1.376 . S
C1267 C1268 1.388 . S
C1268 H1255 0.930 . S
C1268 C1267 1.388 . S
C1268 C1269 1.390 . S
C1269 C1268 1.390 . S
C1269 C1270 1.394 . S
C1269 C1275 1.465 . S
C1270 C1265 1.399 . S
C1270 C1269 1.394 . S
C1270 C1271 1.516 . S
C1271 C1270 1.516 . S
C1271 C1272 1.502 . S
C1271 C1273 1.561 . S
C1271 C1274 1.526 . S
C1272 H1256 0.959 . S
C1272 H1257 0.959 . S
C1272 H1258 0.961 . S
C1272 C1271 1.502 . S
C1273 H1259 0.960 . S
C1273 H1260 0.961 . S
C1273 H1261 0.959 . S
C1273 C1271 1.561 . S
C1274 C1271 1.526 . S
C1274 C1275 1.396 . S
C1274 C1279 1.390 . S
C1275 C1269 1.465 . S
C1275 C1274 1.396 . S
C1275 C1276 1.399 . S
C1276 H1262 0.929 . S
C1276 C1275 1.399 . S
C1276 C1277 1.385 . S
C1277 H1263 0.931 . S
C1277 C1276 1.385 . S
C1277 C1278 1.389 . S
C1278 C1277 1.389 . S
C1278 C1279 1.387 . S
C1279 H1264 0.930 . S
C1279 C1274 1.390 . S
C1279 C1278 1.387 . S
H1280 C1292 0.930 . S
H1281 C1294 0.930 . S
H1282 C1295 0.930 . S
H1283 C1299 0.959 . S
H1284 C1299 0.959 . S
H1285 C1299 0.961 . S
H1286 C1300 0.960 . S
H1287 C1300 0.961 . S
H1288 C1300 0.959 . S
H1289 C1303 0.929 . S
H1290 C1304 0.931 . S
H1291 C1306 0.930 . S
C1292 H1280 0.930 . S
C1292 C1293 1.399 . S
C1292 C1297 1.399 . S
C1293 C1292 1.399 . S
C1293 C1294 1.376 . S
C1294 H1281 0.930 . S
C1294 C1293 1.376 . S
C1294 C1295 1.388 . S
C1295 H1282 0.930 . S
C1295 C1294 1.388 . S
C1295 C1296 1.390 . S
C1296 C1295 1.390 . S
C1296 C1297 1.394 . S
C1296 C1302 1.465 . S
C1297 C1292 1.399 . S
C1297 C1296 1.394 . S
C1297 C1298 1.516 . S
C1298 C1297 1.516 . S
C1298 C1299 1.502 . S
C1298 C1300 1.561 . S
C1298 C1301 1.526 . S
C1299 H1283 0.959 . S
C1299 H1284 0.959 . S
C1299 H1285 0.961 . S
C1299 C1298 1.502 . S
C1300 H1286 0.960 . S
C1300 H1287 0.961 . S
C1300 H1288 0.959 . S
C1300 C1298 1.561 . S
C1301 C1298 1.526 . S
C1301 C1302 1.396 . S
C1301 C1306 1.390 . S
C1302 C1296 1.465 . S
C1302 C1301 1.396 . S
C1302 C1303 1.399 . S
C1303 H1289 0.929 . S
C1303 C1302 1.399 . S
C1303 C1304 1.385 . S
C1304 H1290 0.931 . S
C1304 C1303 1.385 . S
C1304 C1305 1.389 . S
C1305 C1304 1.389 . S
C1305 C1306 1.387 . S
C1306 H1291 0.930 . S
C1306 C1301 1.390 . S
C1306 C1305 1.387 . S
H1307 C1319 0.930 . S
H1308 C1321 0.930 1_455 S
H1309 C1322 0.930 . S
H1310 C1326 0.959 . S
H1311 C1326 0.959 . S
H1312 C1326 0.961 . S
H1313 C1327 0.960 . S
H1314 C1327 0.961 . S
H1315 C1327 0.959 1_455 S
H1316 C1330 0.929 . S
H1317 C1331 0.931 . S
H1318 C1333 0.930 1_655 S
C1319 H1307 0.930 . S
C1319 C1320 1.399 . S
C1319 C1324 1.399 . S
C1320 C1319 1.399 . S
C1320 C1321 1.376 . S
C1321 H1308 0.930 1_655 S
C1321 C1320 1.376 . S
C1321 C1322 1.388 1_655 S
C1322 H1309 0.930 . S
C1322 C1321 1.388 1_455 S
C1322 C1323 1.390 . S
C1323 C1322 1.390 . S
C1323 C1324 1.394 1_455 S
C1323 C1329 1.465 1_565 S
C1324 C1319 1.399 . S
C1324 C1323 1.394 1_655 S
C1324 C1325 1.516 1_565 S
C1325 C1324 1.516 1_545 S
C1325 C1326 1.502 . S
C1325 C1327 1.561 . S
C1325 C1328 1.526 1_655 S
C1326 H1310 0.959 . S
C1326 H1311 0.959 . S
C1326 H1312 0.961 . S
C1326 C1325 1.502 . S
C1327 H1313 0.960 . S
C1327 H1314 0.961 . S
C1327 H1315 0.959 1_655 S
C1327 C1325 1.561 . S
C1328 C1325 1.526 1_455 S
C1328 C1329 1.396 . S
C1328 C1333 1.390 . S
C1329 C1323 1.465 1_545 S
C1329 C1328 1.396 . S
C1329 C1330 1.399 . S
C1330 H1316 0.929 . S
C1330 C1329 1.399 . S
C1330 C1331 1.385 . S
C1331 H1317 0.931 . S
C1331 C1330 1.385 . S
C1331 C1332 1.389 . S
C1332 C1331 1.389 . S
C1332 C1333 1.387 . S
C1333 H1318 0.930 1_455 S
C1333 C1328 1.390 . S
C1333 C1332 1.387 . S
H1334 C1346 0.930 . S
H1335 C1348 0.930 . S
H1336 C1349 0.930 . S
H1337 C1353 0.959 . S
H1338 C1353 0.959 . S
H1339 C1353 0.961 . S
H1340 C1354 0.960 . S
H1341 C1354 0.961 . S
H1342 C1354 0.959 . S
H1343 C1357 0.929 . S
H1344 C1358 0.931 . S
H1345 C1360 0.930 . S
C1346 H1334 0.930 . S
C1346 C1347 1.399 . S
C1346 C1351 1.399 . S
C1347 C1346 1.399 . S
C1347 C1348 1.376 . S
C1348 H1335 0.930 . S
C1348 C1347 1.376 . S
C1348 C1349 1.388 . S
C1349 H1336 0.930 . S
C1349 C1348 1.388 . S
C1349 C1350 1.390 . S
C1350 C1349 1.390 . S
C1350 C1351 1.394 . S
C1350 C1356 1.465 . S
C1351 C1346 1.399 . S
C1351 C1350 1.394 . S
C1351 C1352 1.516 . S
C1352 C1351 1.516 . S
C1352 C1353 1.502 . S
C1352 C1354 1.561 . S
C1352 C1355 1.526 . S
C1353 H1337 0.959 . S
C1353 H1338 0.959 . S
C1353 H1339 0.961 . S
C1353 C1352 1.502 . S
C1354 H1340 0.960 . S
C1354 H1341 0.961 . S
C1354 H1342 0.959 . S
C1354 C1352 1.561 . S
C1355 C1352 1.526 . S
C1355 C1356 1.396 . S
C1355 C1360 1.390 . S
C1356 C1350 1.465 . S
C1356 C1355 1.396 . S
C1356 C1357 1.399 . S
C1357 H1343 0.929 . S
C1357 C1356 1.399 . S
C1357 C1358 1.385 . S
C1358 H1344 0.931 . S
C1358 C1357 1.385 . S
C1358 C1359 1.389 . S
C1359 C1358 1.389 . S
C1359 C1360 1.387 . S
C1360 H1345 0.930 . S
C1360 C1355 1.390 . S
C1360 C1359 1.387 . S
H1361 C1373 0.930 . S
H1362 C1375 0.930 . S
H1363 C1376 0.930 . S
H1364 C1380 0.959 . S
H1365 C1380 0.959 . S
H1366 C1380 0.961 1_545 S
H1367 C1381 0.960 . S
H1368 C1381 0.935 1_565 S
H1369 C1381 0.959 . S
H1370 C1384 0.929 . S
H1371 C1385 0.931 . S
H1372 C1387 0.930 . S
C1373 H1361 0.930 . S
C1373 C1374 1.399 . S
C1373 C1378 1.399 . S
C1374 C1373 1.399 . S
C1374 C1375 1.376 1_554 S
C1375 H1362 0.930 . S
C1375 C1374 1.376 1_556 S
C1375 C1376 1.388 . S
C1376 H1363 0.930 . S
C1376 C1375 1.388 . S
C1376 C1377 1.390 . S
C1377 C1376 1.390 . S
C1377 C1378 1.394 1_556 S
C1377 C1383 1.465 1_545 S
C1378 C1373 1.399 . S
C1378 C1377 1.394 1_554 S
C1378 C1379 1.516 . S
C1379 C1378 1.516 . S
C1379 C1380 1.502 1_545 S
C1379 C1381 1.561 . S
C1379 C1382 1.526 1_545 S
C1380 H1364 0.959 . S
C1380 H1365 0.959 . S
C1380 H1366 0.961 1_565 S
C1380 C1379 1.502 1_565 S
C1381 H1367 0.960 . S
C1381 H1368 0.935 1_545 S
C1381 H1369 0.959 . S
C1381 C1379 1.561 . S
C1382 C1379 1.526 1_565 S
C1382 C1383 1.396 1_554 S
C1382 C1387 1.390 . S
C1383 C1377 1.465 1_565 S
C1383 C1382 1.396 1_556 S
C1383 C1384 1.399 . S
C1384 H1370 0.929 . S
C1384 C1383 1.399 . S
C1384 C1385 1.385 . S
C1385 H1371 0.931 . S
C1385 C1384 1.385 . S
C1385 C1386 1.389 . S
C1386 C1385 1.389 . S
C1386 C1387 1.387 1_556 S
C1387 H1372 0.930 . S
C1387 C1382 1.390 . S
C1387 C1386 1.387 1_554 S
H1388 C1400 0.930 . S
H1389 C1402 0.930 . S
H1390 C1403 0.930 . S
H1391 C1407 0.959 . S
H1392 C1407 0.959 . S
H1393 C1407 0.961 . S
H1394 C1408 0.960 . S
H1395 C1408 0.961 . S
H1396 C1408 0.959 . S
H1397 C1411 0.929 . S
H1398 C1412 0.931 . S
H1399 C1414 0.930 . S
C1400 H1388 0.930 . S
C1400 C1401 1.399 . S
C1400 C1405 1.399 . S
C1401 C1400 1.399 . S
C1401 C1402 1.376 . S
C1402 H1389 0.930 . S
C1402 C1401 1.376 . S
C1402 C1403 1.388 . S
C1403 H1390 0.930 . S
C1403 C1402 1.388 . S
C1403 C1404 1.390 . S
C1404 C1403 1.390 . S
C1404 C1405 1.394 . S
C1404 C1410 1.465 . S
C1405 C1400 1.399 . S
C1405 C1404 1.394 . S
C1405 C1406 1.516 . S
C1406 C1405 1.516 . S
C1406 C1407 1.502 . S
C1406 C1408 1.561 . S
C1406 C1409 1.526 . S
C1407 H1391 0.959 . S
C1407 H1392 0.959 . S
C1407 H1393 0.961 . S
C1407 C1406 1.502 . S
C1408 H1394 0.960 . S
C1408 H1395 0.961 . S
C1408 H1396 0.959 . S
C1408 C1406 1.561 . S
C1409 C1406 1.526 . S
C1409 C1410 1.396 . S
C1409 C1414 1.390 . S
C1410 C1404 1.465 . S
C1410 C1409 1.396 . S
C1410 C1411 1.399 . S
C1411 H1397 0.929 . S
C1411 C1410 1.399 . S
C1411 C1412 1.385 . S
C1412 H1398 0.931 . S
C1412 C1411 1.385 . S
C1412 C1413 1.389 . S
C1413 C1412 1.389 . S
C1413 C1414 1.387 . S
C1414 H1399 0.930 . S
C1414 C1409 1.390 . S
C1414 C1413 1.387 . S
H1415 C1427 0.930 . S
H1416 C1429 0.930 . S
H1417 C1430 0.930 . S
H1418 C1434 0.959 . S
H1419 C1434 0.959 . S
H1420 C1434 0.961 . S
H1421 C1435 0.960 . S
H1422 C1435 0.961 . S
H1423 C1435 0.959 . S
H1424 C1438 0.929 . S
H1425 C1439 0.931 . S
H1426 C1441 0.930 . S
C1427 H1415 0.930 . S
C1427 C1428 1.399 . S
C1427 C1432 1.399 . S
C1428 C1427 1.399 . S
C1428 C1429 1.376 . S
C1429 H1416 0.930 . S
C1429 C1428 1.376 . S
C1429 C1430 1.388 . S
C1430 H1417 0.930 . S
C1430 C1429 1.388 . S
C1430 C1431 1.390 . S
C1431 C1430 1.390 . S
C1431 C1432 1.394 . S
C1431 C1437 1.465 1_565 S
C1432 C1427 1.399 . S
C1432 C1431 1.394 . S
C1432 C1433 1.516 . S
C1433 C1432 1.516 . S
C1433 C1434 1.502 . S
C1433 C1435 1.561 . S
C1433 C1436 1.526 1_565 S
C1434 H1418 0.959 . S
C1434 H1419 0.959 . S
C1434 H1420 0.961 . S
C1434 C1433 1.502 . S
C1435 H1421 0.960 . S
C1435 H1422 0.961 . S
C1435 H1423 0.959 . S
C1435 C1433 1.561 . S
C1436 C1433 1.526 1_545 S
C1436 C1437 1.396 . S
C1436 C1441 1.390 . S
C1437 C1431 1.465 1_545 S
C1437 C1436 1.396 . S
C1437 C1438 1.399 . S
C1438 H1424 0.929 . S
C1438 C1437 1.399 . S
C1438 C1439 1.385 . S
C1439 H1425 0.931 . S
C1439 C1438 1.385 . S
C1439 C1440 1.389 . S
C1440 C1439 1.389 . S
C1440 C1441 1.387 . S
C1441 H1426 0.930 . S
C1441 C1436 1.390 . S
C1441 C1440 1.387 . S
H1442 C1454 0.930 . S
H1443 C1456 0.930 . S
H1444 C1457 0.930 . S
H1445 C1461 0.959 . S
H1446 C1461 0.959 . S
H1447 C1461 0.961 . S
H1448 C1462 0.960 . S
H1449 C1462 0.961 . S
H1450 C1462 0.959 . S
H1451 C1465 0.929 . S
H1452 C1466 0.931 . S
H1453 C1468 0.930 . S
C1454 H1442 0.930 . S
C1454 C1455 1.399 . S
C1454 C1459 1.399 . S
C1455 C1454 1.399 . S
C1455 C1456 1.376 . S
C1456 H1443 0.930 . S
C1456 C1455 1.376 . S
C1456 C1457 1.388 . S
C1457 H1444 0.930 . S
C1457 C1456 1.388 . S
C1457 C1458 1.390 . S
C1458 C1457 1.390 . S
C1458 C1459 1.394 . S
C1458 C1464 1.465 . S
C1459 C1454 1.399 . S
C1459 C1458 1.394 . S
C1459 C1460 1.516 . S
C1460 C1459 1.516 . S
C1460 C1461 1.502 . S
C1460 C1462 1.561 . S
C1460 C1463 1.526 . S
C1461 H1445 0.959 . S
C1461 H1446 0.959 . S
C1461 H1447 0.961 . S
C1461 C1460 1.502 . S
C1462 H1448 0.960 . S
C1462 H1449 0.961 . S
C1462 H1450 0.959 . S
C1462 C1460 1.561 . S
C1463 C1460 1.526 . S
C1463 C1464 1.396 . S
C1463 C1468 1.390 . S
C1464 C1458 1.465 . S
C1464 C1463 1.396 . S
C1464 C1465 1.399 . S
C1465 H1451 0.929 . S
C1465 C1464 1.399 . S
C1465 C1466 1.385 . S
C1466 H1452 0.931 . S
C1466 C1465 1.385 . S
C1466 C1467 1.389 . S
C1467 C1466 1.389 . S
C1467 C1468 1.387 . S
C1468 H1453 0.930 . S
C1468 C1463 1.390 . S
C1468 C1467 1.387 . S
H1469 C1481 0.930 . S
H1470 C1483 0.940 . S
H1471 C1484 0.930 . S
H1472 C1488 0.959 1_554 S
H1473 C1488 0.959 . S
H1474 C1488 0.961 . S
H1475 C1489 0.960 . S
H1476 C1489 0.961 . S
H1477 C1489 0.959 1_455 S
H1478 C1492 0.929 . S
H1479 C1493 0.931 . S
H1480 C1495 0.930 1_655 S
C1481 H1469 0.930 . S
C1481 C1482 1.399 . S
C1481 C1486 1.399 . S
C1482 C1481 1.399 . S
C1482 C1483 1.352 1_656 S
C1483 H1470 0.940 . S
C1483 C1482 1.352 1_454 S
C1483 C1484 1.404 . S
C1484 H1471 0.930 . S
C1484 C1483 1.404 . S
C1484 C1485 1.390 . S
C1485 C1484 1.390 . S
C1485 C1486 1.394 1_454 S
C1485 C1491 1.465 1_545 S
C1486 C1481 1.399 . S
C1486 C1485 1.394 1_656 S
C1486 C1487 1.516 1_545 S
C1487 C1486 1.516 1_565 S
C1487 C1488 1.502 . S
C1487 C1489 1.561 . S
C1487 C1490 1.506 1_655 S
C1488 H1472 0.959 1_556 S
C1488 H1473 0.959 . S
C1488 H1474 0.961 . S
C1488 C1487 1.502 . S
C1489 H1475 0.960 . S
C1489 H1476 0.961 . S
C1489 H1477 0.959 1_655 S
C1489 C1487 1.561 . S
C1490 C1487 1.506 1_455 S
C1490 C1491 1.412 1_556 S
C1490 C1495 1.395 . S
C1491 C1485 1.465 1_565 S
C1491 C1490 1.412 1_554 S
C1491 C1492 1.399 . S
C1492 H1478 0.929 . S
C1492 C1491 1.399 . S
C1492 C1493 1.385 . S
C1493 H1479 0.931 . S
C1493 C1492 1.385 . S
C1493 C1494 1.389 . S
C1494 C1493 1.389 . S
C1494 C1495 1.387 1_554 S
C1495 H1480 0.930 1_455 S
C1495 C1490 1.395 . S
C1495 C1494 1.387 1_556 S
H1496 C1508 0.930 . S
H1497 C1510 0.930 . S
H1498 C1511 0.930 . S
H1499 C1515 0.959 . S
H1500 C1515 0.959 . S
H1501 C1515 0.961 . S
H1502 C1516 0.960 . S
H1503 C1516 0.961 . S
H1504 C1516 0.959 . S
H1505 C1519 0.929 . S
H1506 C1520 0.931 . S
H1507 C1522 0.930 . S
C1508 H1496 0.930 . S
C1508 C1509 1.399 . S
C1508 C1513 1.399 . S
C1509 C1508 1.399 . S
C1509 C1510 1.376 . S
C1510 H1497 0.930 . S
C1510 C1509 1.376 . S
C1510 C1511 1.388 . S
C1511 H1498 0.930 . S
C1511 C1510 1.388 . S
C1511 C1512 1.390 . S
C1512 C1511 1.390 . S
C1512 C1513 1.394 . S
C1512 C1518 1.465 . S
C1513 C1508 1.399 . S
C1513 C1512 1.394 . S
C1513 C1514 1.516 . S
C1514 C1513 1.516 . S
C1514 C1515 1.502 . S
C1514 C1516 1.561 . S
C1514 C1517 1.526 . S
C1515 H1499 0.959 . S
C1515 H1500 0.959 . S
C1515 H1501 0.961 . S
C1515 C1514 1.502 . S
C1516 H1502 0.960 . S
C1516 H1503 0.961 . S
C1516 H1504 0.959 . S
C1516 C1514 1.561 . S
C1517 C1514 1.526 . S
C1517 C1518 1.396 . S
C1517 C1522 1.390 . S
C1518 C1512 1.465 . S
C1518 C1517 1.396 . S
C1518 C1519 1.399 . S
C1519 H1505 0.929 . S
C1519 C1518 1.399 . S
C1519 C1520 1.385 . S
C1520 H1506 0.931 . S
C1520 C1519 1.385 . S
C1520 C1521 1.389 . S
C1521 C1520 1.389 . S
C1521 C1522 1.387 . S
C1522 H1507 0.930 . S
C1522 C1517 1.390 . S
C1522 C1521 1.387 . S
H1523 C1535 0.930 . S
H1524 C1537 0.930 . S
H1525 C1538 0.930 . S
H1526 C1542 0.959 . S
H1527 C1542 0.959 . S
H1528 C1542 0.961 . S
H1529 C1543 0.960 . S
H1530 C1543 0.961 . S
H1531 C1543 0.959 . S
H1532 C1546 0.929 . S
H1533 C1547 0.931 . S
H1534 C1549 0.930 . S
C1535 H1523 0.930 . S
C1535 C1536 1.399 . S
C1535 C1540 1.399 . S
C1536 C1535 1.399 . S
C1536 C1537 1.376 . S
C1537 H1524 0.930 . S
C1537 C1536 1.376 . S
C1537 C1538 1.388 . S
C1538 H1525 0.930 . S
C1538 C1537 1.388 . S
C1538 C1539 1.390 . S
C1539 C1538 1.390 . S
C1539 C1540 1.394 . S
C1539 C1545 1.465 . S
C1540 C1535 1.399 . S
C1540 C1539 1.394 . S
C1540 C1541 1.516 . S
C1541 C1540 1.516 . S
C1541 C1542 1.502 . S
C1541 C1543 1.561 . S
C1541 C1544 1.526 . S
C1542 H1526 0.959 . S
C1542 H1527 0.959 . S
C1542 H1528 0.961 . S
C1542 C1541 1.502 . S
C1543 H1529 0.960 . S
C1543 H1530 0.961 . S
C1543 H1531 0.959 . S
C1543 C1541 1.561 . S
C1544 C1541 1.526 . S
C1544 C1545 1.396 . S
C1544 C1549 1.390 . S
C1545 C1539 1.465 . S
C1545 C1544 1.396 . S
C1545 C1546 1.399 . S
C1546 H1532 0.929 . S
C1546 C1545 1.399 . S
C1546 C1547 1.385 . S
C1547 H1533 0.931 . S
C1547 C1546 1.385 . S
C1547 C1548 1.389 . S
C1548 C1547 1.389 . S
C1548 C1549 1.387 . S
C1549 H1534 0.930 . S
C1549 C1544 1.390 . S
C1549 C1548 1.387 . S
H1550 C1562 0.930 . S
H1551 C1564 0.930 . S
H1552 C1565 0.930 . S
H1553 C1569 0.959 . S
H1554 C1569 0.959 . S
H1555 C1569 0.961 . S
H1556 C1570 0.960 . S
H1557 C1570 0.961 . S
H1558 C1570 0.959 . S
H1559 C1573 0.929 . S
H1560 C1574 0.931 . S
H1561 C1576 0.930 . S
C1562 H1550 0.930 . S
C1562 C1563 1.399 . S
C1562 C1567 1.399 . S
C1563 C1562 1.399 . S
C1563 C1564 1.376 . S
C1564 H1551 0.930 . S
C1564 C1563 1.376 . S
C1564 C1565 1.388 . S
C1565 H1552 0.930 . S
C1565 C1564 1.388 . S
C1565 C1566 1.390 . S
C1566 C1565 1.390 . S
C1566 C1567 1.394 . S
C1566 C1572 1.465 . S
C1567 C1562 1.399 . S
C1567 C1566 1.394 . S
C1567 C1568 1.516 . S
C1568 C1567 1.516 . S
C1568 C1569 1.502 . S
C1568 C1570 1.561 . S
C1568 C1571 1.526 . S
C1569 H1553 0.959 . S
C1569 H1554 0.959 . S
C1569 H1555 0.961 . S
C1569 C1568 1.502 . S
C1570 H1556 0.960 . S
C1570 H1557 0.961 . S
C1570 H1558 0.959 . S
C1570 C1568 1.561 . S
C1571 C1568 1.526 . S
C1571 C1572 1.396 . S
C1571 C1576 1.390 . S
C1572 C1566 1.465 . S
C1572 C1571 1.396 . S
C1572 C1573 1.399 . S
C1573 H1559 0.929 . S
C1573 C1572 1.399 . S
C1573 C1574 1.385 . S
C1574 H1560 0.931 . S
C1574 C1573 1.385 . S
C1574 C1575 1.389 . S
C1575 C1574 1.389 . S
C1575 C1576 1.387 . S
C1576 H1561 0.930 . S
C1576 C1571 1.390 . S
C1576 C1575 1.387 . S
H1577 C1589 0.930 . S
H1578 C1591 0.930 . S
H1579 C1592 0.930 . S
H1580 C1596 0.959 . S
H1581 C1596 0.959 . S
H1582 C1596 0.961 . S
H1583 C1597 0.960 . S
H1584 C1597 0.961 . S
H1585 C1597 0.959 . S
H1586 C1600 0.929 . S
H1587 C1601 0.931 . S
H1588 C1603 0.930 . S
C1589 H1577 0.930 . S
C1589 C1590 1.399 . S
C1589 C1594 1.399 . S
C1590 C1589 1.399 . S
C1590 C1591 1.376 . S
C1591 H1578 0.930 . S
C1591 C1590 1.376 . S
C1591 C1592 1.388 . S
C1592 H1579 0.930 . S
C1592 C1591 1.388 . S
C1592 C1593 1.390 . S
C1593 C1592 1.390 . S
C1593 C1594 1.394 . S
C1593 C1599 1.465 . S
C1594 C1589 1.399 . S
C1594 C1593 1.394 . S
C1594 C1595 1.516 . S
C1595 C1594 1.516 . S
C1595 C1596 1.502 . S
C1595 C1597 1.561 . S
C1595 C1598 1.526 . S
C1596 H1580 0.959 . S
C1596 H1581 0.959 . S
C1596 H1582 0.961 . S
C1596 C1595 1.502 . S
C1597 H1583 0.960 . S
C1597 H1584 0.961 . S
C1597 H1585 0.959 . S
C1597 C1595 1.561 . S
C1598 C1595 1.526 . S
C1598 C1599 1.396 . S
C1598 C1603 1.390 . S
C1599 C1593 1.465 . S
C1599 C1598 1.396 . S
C1599 C1600 1.399 . S
C1600 H1586 0.929 . S
C1600 C1599 1.399 . S
C1600 C1601 1.385 . S
C1601 H1587 0.931 . S
C1601 C1600 1.385 . S
C1601 C1602 1.389 . S
C1602 C1601 1.389 . S
C1602 C1603 1.387 . S
C1603 H1588 0.930 . S
C1603 C1598 1.390 . S
C1603 C1602 1.387 . S
H1604 C1616 0.930 . S
H1605 C1618 0.930 . S
H1606 C1619 0.930 . S
H1607 C1623 0.959 . S
H1608 C1623 0.959 . S
H1609 C1623 0.961 . S
H1610 C1624 0.960 . S
H1611 C1624 0.961 . S
H1612 C1624 0.959 . S
H1613 C1627 0.929 . S
H1614 C1628 0.931 . S
H1615 C1630 0.930 . S
C1616 H1604 0.930 . S
C1616 C1617 1.399 1_556 S
C1616 C1621 1.399 . S
C1617 C1616 1.399 1_554 S
C1617 C1618 1.376 . S
C1618 H1605 0.930 . S
C1618 C1617 1.376 . S
C1618 C1619 1.388 . S
C1619 H1606 0.930 . S
C1619 C1618 1.388 . S
C1619 C1620 1.390 . S
C1620 C1619 1.390 . S
C1620 C1621 1.394 1_554 S
C1620 C1626 1.465 . S
C1621 C1616 1.399 . S
C1621 C1620 1.394 1_556 S
C1621 C1622 1.516 . S
C1622 C1621 1.516 . S
C1622 C1623 1.502 . S
C1622 C1624 1.561 . S
C1622 C1625 1.526 . S
C1623 H1607 0.959 . S
C1623 H1608 0.959 . S
C1623 H1609 0.961 . S
C1623 C1622 1.502 . S
C1624 H1610 0.960 . S
C1624 H1611 0.961 . S
C1624 H1612 0.959 . S
C1624 C1622 1.561 . S
C1625 C1622 1.526 . S
C1625 C1626 1.396 1_556 S
C1625 C1630 1.390 . S
C1626 C1620 1.465 . S
C1626 C1625 1.396 1_554 S
C1626 C1627 1.399 . S
C1627 H1613 0.929 . S
C1627 C1626 1.399 . S
C1627 C1628 1.385 . S
C1628 H1614 0.931 . S
C1628 C1627 1.385 . S
C1628 C1629 1.389 1_554 S
C1629 C1628 1.389 1_556 S
C1629 C1630 1.387 . S
C1630 H1615 0.930 . S
C1630 C1625 1.390 . S
C1630 C1629 1.387 . S
H1631 C1643 0.930 . S
H1632 C1645 0.930 . S
H1633 C1646 0.929 1_455 S
H1634 C1650 0.959 . S
H1635 C1650 0.959 . S
H1636 C1650 0.961 . S
H1637 C1651 0.960 . S
H1638 C1651 0.961 . S
H1639 C1651 0.959 . S
H1640 C1654 0.929 . S
H1641 C1655 0.931 . S
H1642 C1657 0.930 . S
C1643 H1631 0.930 . S
C1643 C1644 1.399 . S
C1643 C1648 1.399 . S
C1644 C1643 1.399 . S
C1644 C1645 1.376 . S
C1645 H1632 0.930 . S
C1645 C1644 1.376 . S
C1645 C1646 1.390 . S
C1646 H1633 0.929 1_655 S
C1646 C1645 1.390 . S
C1646 C1647 1.389 1_655 S
C1647 C1646 1.389 1_455 S
C1647 C1648 1.380 1_455 S
C1647 C1653 1.479 . S
C1648 C1643 1.399 . S
C1648 C1647 1.380 1_655 S
C1648 C1649 1.516 . S
C1649 C1648 1.516 . S
C1649 C1650 1.502 . S
C1649 C1651 1.561 1_655 S
C1649 C1652 1.526 1_655 S
C1650 H1634 0.959 . S
C1650 H1635 0.959 . S
C1650 H1636 0.961 . S
C1650 C1649 1.502 . S
C1651 H1637 0.960 . S
C1651 H1638 0.961 . S
C1651 H1639 0.959 . S
C1651 C1649 1.561 1_455 S
C1652 C1649 1.526 1_455 S
C1652 C1653 1.396 . S
C1652 C1657 1.390 . S
C1653 C1647 1.479 . S
C1653 C1652 1.396 . S
C1653 C1654 1.399 . S
C1654 H1640 0.929 . S
C1654 C1653 1.399 . S
C1654 C1655 1.385 . S
C1655 H1641 0.931 . S
C1655 C1654 1.385 . S
C1655 C1656 1.389 . S
C1656 C1655 1.389 . S
C1656 C1657 1.387 . S
C1657 H1642 0.930 . S
C1657 C1652 1.390 . S
C1657 C1656 1.387 . S
H1658 C1670 0.930 . S
H1659 C1672 0.930 . S
H1660 C1673 0.930 . S
H1661 C1677 0.959 . S
H1662 C1677 0.959 . S
H1663 C1677 0.961 . S
H1664 C1678 0.960 . S
H1665 C1678 0.961 . S
H1666 C1678 0.959 . S
H1667 C1681 0.929 . S
H1668 C1682 0.931 . S
H1669 C1684 0.930 . S
C1670 H1658 0.930 . S
C1670 C1671 1.399 1_554 S
C1670 C1675 1.399 . S
C1671 C1670 1.399 1_556 S
C1671 C1672 1.376 . S
C1672 H1659 0.930 . S
C1672 C1671 1.376 . S
C1672 C1673 1.388 . S
C1673 H1660 0.930 . S
C1673 C1672 1.388 . S
C1673 C1674 1.390 . S
C1674 C1673 1.390 . S
C1674 C1675 1.394 1_556 S
C1674 C1680 1.465 1_455 S
C1675 C1670 1.399 . S
C1675 C1674 1.394 1_554 S
C1675 C1676 1.516 . S
C1676 C1675 1.516 . S
C1676 C1677 1.502 1_455 S
C1676 C1678 1.561 . S
C1676 C1679 1.526 1_455 S
C1677 H1661 0.959 . S
C1677 H1662 0.959 . S
C1677 H1663 0.961 . S
C1677 C1676 1.502 1_655 S
C1678 H1664 0.960 . S
C1678 H1665 0.961 . S
C1678 H1666 0.959 . S
C1678 C1676 1.561 . S
C1679 C1676 1.526 1_655 S
C1679 C1680 1.396 1_554 S
C1679 C1684 1.390 . S
C1680 C1674 1.465 1_655 S
C1680 C1679 1.396 1_556 S
C1680 C1681 1.399 . S
C1681 H1667 0.929 . S
C1681 C1680 1.399 . S
C1681 C1682 1.385 . S
C1682 H1668 0.931 . S
C1682 C1681 1.385 . S
C1682 C1683 1.389 1_556 S
C1683 C1682 1.389 1_554 S
C1683 C1684 1.387 . S
C1684 H1669 0.930 . S
C1684 C1679 1.390 . S
C1684 C1683 1.387 . S
H1685 C1697 0.930 . S
H1686 C1699 0.930 . S
H1687 C1700 0.930 . S
H1688 C1704 0.959 . S
H1689 C1704 0.959 . S
H1690 C1704 0.961 . S
H1691 C1705 0.960 . S
H1692 C1705 0.961 . S
H1693 C1705 0.959 . S
H1694 C1708 0.929 . S
H1695 C1709 0.931 . S
H1696 C1711 0.930 . S
C1697 H1685 0.930 . S
C1697 C1698 1.399 . S
C1697 C1702 1.399 . S
C1698 C1697 1.399 . S
C1698 C1699 1.376 . S
C1699 H1686 0.930 . S
C1699 C1698 1.376 . S
C1699 C1700 1.388 . S
C1700 H1687 0.930 . S
C1700 C1699 1.388 . S
C1700 C1701 1.390 . S
C1701 C1700 1.390 . S
C1701 C1702 1.394 . S
C1701 C1707 1.465 . S
C1702 C1697 1.399 . S
C1702 C1701 1.394 . S
C1702 C1703 1.516 . S
C1703 C1702 1.516 . S
C1703 C1704 1.502 . S
C1703 C1705 1.561 . S
C1703 C1706 1.526 . S
C1704 H1688 0.959 . S
C1704 H1689 0.959 . S
C1704 H1690 0.961 . S
C1704 C1703 1.502 . S
C1705 H1691 0.960 . S
C1705 H1692 0.961 . S
C1705 H1693 0.959 . S
C1705 C1703 1.561 . S
C1706 C1703 1.526 . S
C1706 C1707 1.396 . S
C1706 C1711 1.390 . S
C1707 C1701 1.465 . S
C1707 C1706 1.396 . S
C1707 C1708 1.399 . S
C1708 H1694 0.929 . S
C1708 C1707 1.399 . S
C1708 C1709 1.385 . S
C1709 H1695 0.931 . S
C1709 C1708 1.385 . S
C1709 C1710 1.389 . S
C1710 C1709 1.389 . S
C1710 C1711 1.387 . S
C1711 H1696 0.930 . S
C1711 C1706 1.390 . S
C1711 C1710 1.387 . S
H1712 C1724 0.930 . S
H1713 C1726 0.930 . S
H1714 C1727 0.930 . S
H1715 C1731 0.959 . S
H1716 C1731 0.959 . S
H1717 C1731 0.961 . S
H1718 C1732 0.960 . S
H1719 C1732 0.961 . S
H1720 C1732 0.959 . S
H1721 C1735 0.929 . S
H1722 C1736 0.931 . S
H1723 C1738 0.930 . S
C1724 H1712 0.930 . S
C1724 C1725 1.399 . S
C1724 C1729 1.399 . S
C1725 C1724 1.399 . S
C1725 C1726 1.376 . S
C1726 H1713 0.930 . S
C1726 C1725 1.376 . S
C1726 C1727 1.388 . S
C1727 H1714 0.930 . S
C1727 C1726 1.388 . S
C1727 C1728 1.390 . S
C1728 C1727 1.390 . S
C1728 C1729 1.394 . S
C1728 C1734 1.465 . S
C1729 C1724 1.399 . S
C1729 C1728 1.394 . S
C1729 C1730 1.516 . S
C1730 C1729 1.516 . S
C1730 C1731 1.502 . S
C1730 C1732 1.561 . S
C1730 C1733 1.526 . S
C1731 H1715 0.959 . S
C1731 H1716 0.959 . S
C1731 H1717 0.961 . S
C1731 C1730 1.502 . S
C1732 H1718 0.960 . S
C1732 H1719 0.961 . S
C1732 H1720 0.959 . S
C1732 C1730 1.561 . S
C1733 C1730 1.526 . S
C1733 C1734 1.396 . S
C1733 C1738 1.390 . S
C1734 C1728 1.465 . S
C1734 C1733 1.396 . S
C1734 C1735 1.399 . S
C1735 H1721 0.929 . S
C1735 C1734 1.399 . S
C1735 C1736 1.385 . S
C1736 H1722 0.931 . S
C1736 C1735 1.385 . S
C1736 C1737 1.389 . S
C1737 C1736 1.389 . S
C1737 C1738 1.387 . S
C1738 H1723 0.930 . S
C1738 C1733 1.390 . S
C1738 C1737 1.387 . S
H1739 C1751 0.930 . S
H1740 C1753 0.930 . S
H1741 C1754 0.930 . S
H1742 C1758 0.959 . S
H1743 C1758 0.959 . S
H1744 C1758 0.961 . S
H1745 C1759 0.960 . S
H1746 C1759 0.961 . S
H1747 C1759 0.959 . S
H1748 C1762 0.929 . S
H1749 C1763 0.931 . S
H1750 C1765 0.930 . S
C1751 H1739 0.930 . S
C1751 C1752 1.399 . S
C1751 C1756 1.399 . S
C1752 C1751 1.399 . S
C1752 C1753 1.376 . S
C1753 H1740 0.930 . S
C1753 C1752 1.376 . S
C1753 C1754 1.388 . S
C1754 H1741 0.930 . S
C1754 C1753 1.388 . S
C1754 C1755 1.390 . S
C1755 C1754 1.390 . S
C1755 C1756 1.394 . S
C1755 C1761 1.465 . S
C1756 C1751 1.399 . S
C1756 C1755 1.394 . S
C1756 C1757 1.516 . S
C1757 C1756 1.516 . S
C1757 C1758 1.502 . S
C1757 C1759 1.561 . S
C1757 C1760 1.526 . S
C1758 H1742 0.959 . S
C1758 H1743 0.959 . S
C1758 H1744 0.961 . S
C1758 C1757 1.502 . S
C1759 H1745 0.960 . S
C1759 H1746 0.961 . S
C1759 H1747 0.959 . S
C1759 C1757 1.561 . S
C1760 C1757 1.526 . S
C1760 C1761 1.396 . S
C1760 C1765 1.390 . S
C1761 C1755 1.465 . S
C1761 C1760 1.396 . S
C1761 C1762 1.399 . S
C1762 H1748 0.929 . S
C1762 C1761 1.399 . S
C1762 C1763 1.385 . S
C1763 H1749 0.931 . S
C1763 C1762 1.385 . S
C1763 C1764 1.389 . S
C1764 C1763 1.389 . S
C1764 C1765 1.387 . S
C1765 H1750 0.930 . S
C1765 C1760 1.390 . S
C1765 C1764 1.387 . S
H1766 C1778 0.930 . S
H1767 C1780 0.930 . S
H1768 C1781 0.930 . S
H1769 C1785 0.959 . S
H1770 C1785 0.959 . S
H1771 C1785 0.961 . S
H1772 C1786 0.960 . S
H1773 C1786 0.961 . S
H1774 C1786 0.959 . S
H1775 C1789 0.929 . S
H1776 C1790 0.931 . S
H1777 C1792 0.930 . S
C1778 H1766 0.930 . S
C1778 C1779 1.399 . S
C1778 C1783 1.399 . S
C1779 C1778 1.399 . S
C1779 C1780 1.376 . S
C1780 H1767 0.930 . S
C1780 C1779 1.376 . S
C1780 C1781 1.388 . S
C1781 H1768 0.930 . S
C1781 C1780 1.388 . S
C1781 C1782 1.390 . S
C1782 C1781 1.390 . S
C1782 C1783 1.394 . S
C1782 C1788 1.465 . S
C1783 C1778 1.399 . S
C1783 C1782 1.394 . S
C1783 C1784 1.516 . S
C1784 C1783 1.516 . S
C1784 C1785 1.502 . S
C1784 C1786 1.561 . S
C1784 C1787 1.526 . S
C1785 H1769 0.959 . S
C1785 H1770 0.959 . S
C1785 H1771 0.961 . S
C1785 C1784 1.502 . S
C1786 H1772 0.960 . S
C1786 H1773 0.961 . S
C1786 H1774 0.959 . S
C1786 C1784 1.561 . S
C1787 C1784 1.526 . S
C1787 C1788 1.396 . S
C1787 C1792 1.390 . S
C1788 C1782 1.465 . S
C1788 C1787 1.396 . S
C1788 C1789 1.399 . S
C1789 H1775 0.929 . S
C1789 C1788 1.399 . S
C1789 C1790 1.385 . S
C1790 H1776 0.931 . S
C1790 C1789 1.385 . S
C1790 C1791 1.389 . S
C1791 C1790 1.389 . S
C1791 C1792 1.387 . S
C1792 H1777 0.930 . S
C1792 C1787 1.390 . S
C1792 C1791 1.387 . S
H1793 C1805 0.930 . S
H1794 C1807 0.930 . S
H1795 C1808 0.930 . S
H1796 C1812 0.959 . S
H1797 C1812 0.959 . S
H1798 C1812 0.961 . S
H1799 C1813 0.960 . S
H1800 C1813 0.961 . S
H1801 C1813 0.959 . S
H1802 C1816 0.929 . S
H1803 C1817 0.931 . S
H1804 C1819 0.930 . S
C1805 H1793 0.930 . S
C1805 C1806 1.399 . S
C1805 C1810 1.399 . S
C1806 C1805 1.399 . S
C1806 C1807 1.376 . S
C1807 H1794 0.930 . S
C1807 C1806 1.376 . S
C1807 C1808 1.388 . S
C1808 H1795 0.930 . S
C1808 C1807 1.388 . S
C1808 C1809 1.390 . S
C1809 C1808 1.390 . S
C1809 C1810 1.394 . S
C1809 C1815 1.465 . S
C1810 C1805 1.399 . S
C1810 C1809 1.394 . S
C1810 C1811 1.516 . S
C1811 C1810 1.516 . S
C1811 C1812 1.502 . S
C1811 C1813 1.561 . S
C1811 C1814 1.526 . S
C1812 H1796 0.959 . S
C1812 H1797 0.959 . S
C1812 H1798 0.961 . S
C1812 C1811 1.502 . S
C1813 H1799 0.960 . S
C1813 H1800 0.961 . S
C1813 H1801 0.959 . S
C1813 C1811 1.561 . S
C1814 C1811 1.526 . S
C1814 C1815 1.396 . S
C1814 C1819 1.390 . S
C1815 C1809 1.465 . S
C1815 C1814 1.396 . S
C1815 C1816 1.399 . S
C1816 H1802 0.929 . S
C1816 C1815 1.399 . S
C1816 C1817 1.385 . S
C1817 H1803 0.931 . S
C1817 C1816 1.385 . S
C1817 C1818 1.389 . S
C1818 C1817 1.389 . S
C1818 C1819 1.387 . S
C1819 H1804 0.930 . S
C1819 C1814 1.390 . S
C1819 C1818 1.387 . S
H1820 C1832 0.930 . S
H1821 C1834 0.930 . S
H1822 C1835 0.930 . S
H1823 C1839 0.959 . S
H1824 C1839 0.959 . S
H1825 C1839 0.961 . S
H1826 C1840 0.960 . S
H1827 C1840 0.961 . S
H1828 C1840 0.959 . S
H1829 C1843 0.929 . S
H1830 C1844 0.931 . S
H1831 C1846 0.930 . S
C1832 H1820 0.930 . S
C1832 C1833 1.399 . S
C1832 C1837 1.399 . S
C1833 C1832 1.399 . S
C1833 C1834 1.376 . S
C1834 H1821 0.930 . S
C1834 C1833 1.376 . S
C1834 C1835 1.388 . S
C1835 H1822 0.930 . S
C1835 C1834 1.388 . S
C1835 C1836 1.390 . S
C1836 C1835 1.390 . S
C1836 C1837 1.394 . S
C1836 C1842 1.465 . S
C1837 C1832 1.399 . S
C1837 C1836 1.394 . S
C1837 C1838 1.516 . S
C1838 C1837 1.516 . S
C1838 C1839 1.502 . S
C1838 C1840 1.561 . S
C1838 C1841 1.526 . S
C1839 H1823 0.959 . S
C1839 H1824 0.959 . S
C1839 H1825 0.961 . S
C1839 C1838 1.502 . S
C1840 H1826 0.960 . S
C1840 H1827 0.961 . S
C1840 H1828 0.959 . S
C1840 C1838 1.561 . S
C1841 C1838 1.526 . S
C1841 C1842 1.396 . S
C1841 C1846 1.390 . S
C1842 C1836 1.465 . S
C1842 C1841 1.396 . S
C1842 C1843 1.399 . S
C1843 H1829 0.929 . S
C1843 C1842 1.399 . S
C1843 C1844 1.385 . S
C1844 H1830 0.931 . S
C1844 C1843 1.385 . S
C1844 C1845 1.389 . S
C1845 C1844 1.389 . S
C1845 C1846 1.387 . S
C1846 H1831 0.930 . S
C1846 C1841 1.390 . S
C1846 C1845 1.387 . S
H1847 C1859 0.930 . S
H1848 C1861 0.930 . S
H1849 C1862 0.930 . S
H1850 C1866 0.959 . S
H1851 C1866 0.959 . S
H1852 C1866 0.961 . S
H1853 C1867 0.960 . S
H1854 C1867 0.961 . S
H1855 C1867 0.959 . S
H1856 C1870 0.929 . S
H1857 C1871 0.931 . S
H1858 C1873 0.930 . S
C1859 H1847 0.930 . S
C1859 C1860 1.399 . S
C1859 C1864 1.399 . S
C1860 C1859 1.399 . S
C1860 C1861 1.376 . S
C1861 H1848 0.930 . S
C1861 C1860 1.376 . S
C1861 C1862 1.388 . S
C1862 H1849 0.930 . S
C1862 C1861 1.388 . S
C1862 C1863 1.390 . S
C1863 C1862 1.390 . S
C1863 C1864 1.394 . S
C1863 C1869 1.465 . S
C1864 C1859 1.399 . S
C1864 C1863 1.394 . S
C1864 C1865 1.516 . S
C1865 C1864 1.516 . S
C1865 C1866 1.502 . S
C1865 C1867 1.561 . S
C1865 C1868 1.526 . S
C1866 H1850 0.959 . S
C1866 H1851 0.959 . S
C1866 H1852 0.961 . S
C1866 C1865 1.502 . S
C1867 H1853 0.960 . S
C1867 H1854 0.961 . S
C1867 H1855 0.959 . S
C1867 C1865 1.561 . S
C1868 C1865 1.526 . S
C1868 C1869 1.396 . S
C1868 C1873 1.390 . S
C1869 C1863 1.465 . S
C1869 C1868 1.396 . S
C1869 C1870 1.399 . S
C1870 H1856 0.929 . S
C1870 C1869 1.399 . S
C1870 C1871 1.385 . S
C1871 H1857 0.931 . S
C1871 C1870 1.385 . S
C1871 C1872 1.389 . S
C1872 C1871 1.389 . S
C1872 C1873 1.387 . S
C1873 H1858 0.930 . S
C1873 C1868 1.390 . S
C1873 C1872 1.387 . S
H1874 C1886 0.930 . S
H1875 C1888 0.930 . S
H1876 C1889 0.930 . S
H1877 C1893 0.959 . S
H1878 C1893 0.959 . S
H1879 C1893 0.961 . S
H1880 C1894 0.960 . S
H1881 C1894 0.961 . S
H1882 C1894 0.959 . S
H1883 C1897 0.929 . S
H1884 C1898 0.931 . S
H1885 C1900 0.930 . S
C1886 H1874 0.930 . S
C1886 C1887 1.399 . S
C1886 C1891 1.399 . S
C1887 C1886 1.399 . S
C1887 C1888 1.376 . S
C1888 H1875 0.930 . S
C1888 C1887 1.376 . S
C1888 C1889 1.388 . S
C1889 H1876 0.930 . S
C1889 C1888 1.388 . S
C1889 C1890 1.390 . S
C1890 C1889 1.390 . S
C1890 C1891 1.394 . S
C1890 C1896 1.465 . S
C1891 C1886 1.399 . S
C1891 C1890 1.394 . S
C1891 C1892 1.516 . S
C1892 C1891 1.516 . S
C1892 C1893 1.502 . S
C1892 C1894 1.561 . S
C1892 C1895 1.526 . S
C1893 H1877 0.959 . S
C1893 H1878 0.959 . S
C1893 H1879 0.961 . S
C1893 C1892 1.502 . S
C1894 H1880 0.960 . S
C1894 H1881 0.961 . S
C1894 H1882 0.959 . S
C1894 C1892 1.561 . S
C1895 C1892 1.526 . S
C1895 C1896 1.396 . S
C1895 C1900 1.390 . S
C1896 C1890 1.465 . S
C1896 C1895 1.396 . S
C1896 C1897 1.399 . S
C1897 H1883 0.929 . S
C1897 C1896 1.399 . S
C1897 C1898 1.385 . S
C1898 H1884 0.931 . S
C1898 C1897 1.385 . S
C1898 C1899 1.389 . S
C1899 C1898 1.389 . S
C1899 C1900 1.387 . S
C1900 H1885 0.930 . S
C1900 C1895 1.390 . S
C1900 C1899 1.387 . S
H1901 C1913 0.930 . S
H1902 C1915 0.930 . S
H1903 C1916 0.930 . S
H1904 C1920 0.959 . S
H1905 C1920 0.959 . S
H1906 C1920 0.961 . S
H1907 C1921 0.960 . S
H1908 C1921 0.961 . S
H1909 C1921 0.959 . S
H1910 C1924 0.929 . S
H1911 C1925 0.931 . S
H1912 C1927 0.930 . S
C1913 H1901 0.930 . S
C1913 C1914 1.399 . S
C1913 C1918 1.399 . S
C1914 C1913 1.399 . S
C1914 C1915 1.376 . S
C1915 H1902 0.930 . S
C1915 C1914 1.376 . S
C1915 C1916 1.388 . S
C1916 H1903 0.930 . S
C1916 C1915 1.388 . S
C1916 C1917 1.390 . S
C1917 C1916 1.390 . S
C1917 C1918 1.394 . S
C1917 C1923 1.465 . S
C1918 C1913 1.399 . S
C1918 C1917 1.394 . S
C1918 C1919 1.516 . S
C1919 C1918 1.516 . S
C1919 C1920 1.502 . S
C1919 C1921 1.561 . S
C1919 C1922 1.526 . S
C1920 H1904 0.959 . S
C1920 H1905 0.959 . S
C1920 H1906 0.961 . S
C1920 C1919 1.502 . S
C1921 H1907 0.960 . S
C1921 H1908 0.961 . S
C1921 H1909 0.959 . S
C1921 C1919 1.561 . S
C1922 C1919 1.526 . S
C1922 C1923 1.396 . S
C1922 C1927 1.390 . S
C1923 C1917 1.465 . S
C1923 C1922 1.396 . S
C1923 C1924 1.399 . S
C1924 H1910 0.929 . S
C1924 C1923 1.399 . S
C1924 C1925 1.385 . S
C1925 H1911 0.931 . S
C1925 C1924 1.385 . S
C1925 C1926 1.389 . S
C1926 C1925 1.389 . S
C1926 C1927 1.387 . S
C1927 H1912 0.930 . S
C1927 C1922 1.390 . S
C1927 C1926 1.387 . S
H1928 C1940 0.930 . S
H1929 C1942 0.930 . S
H1930 C1943 0.930 . S
H1931 C1947 0.959 . S
H1932 C1947 0.959 . S
H1933 C1947 0.961 . S
H1934 C1948 0.960 . S
H1935 C1948 0.961 . S
H1936 C1948 0.959 . S
H1937 C1951 0.929 . S
H1938 C1952 0.931 . S
H1939 C1954 0.930 . S
C1940 H1928 0.930 . S
C1940 C1941 1.399 . S
C1940 C1945 1.399 . S
C1941 C1940 1.399 . S
C1941 C1942 1.376 . S
C1942 H1929 0.930 . S
C1942 C1941 1.376 . S
C1942 C1943 1.388 . S
C1943 H1930 0.930 . S
C1943 C1942 1.388 . S
C1943 C1944 1.390 . S
C1944 C1943 1.390 . S
C1944 C1945 1.394 . S
C1944 C1950 1.465 . S
C1945 C1940 1.399 . S
C1945 C1944 1.394 . S
C1945 C1946 1.516 . S
C1946 C1945 1.516 . S
C1946 C1947 1.502 . S
C1946 C1948 1.561 . S
C1946 C1949 1.526 . S
C1947 H1931 0.959 . S
C1947 H1932 0.959 . S
C1947 H1933 0.961 . S
C1947 C1946 1.502 . S
C1948 H1934 0.960 . S
C1948 H1935 0.961 . S
C1948 H1936 0.959 . S
C1948 C1946 1.561 . S
C1949 C1946 1.526 . S
C1949 C1950 1.396 . S
C1949 C1954 1.390 . S
C1950 C1944 1.465 . S
C1950 C1949 1.396 . S
C1950 C1951 1.399 . S
C1951 H1937 0.929 . S
C1951 C1950 1.399 . S
C1951 C1952 1.385 . S
C1952 H1938 0.931 . S
C1952 C1951 1.385 . S
C1952 C1953 1.389 . S
C1953 C1952 1.389 . S
C1953 C1954 1.387 . S
C1954 H1939 0.930 . S
C1954 C1949 1.390 . S
C1954 C1953 1.387 . S
H1955 C1967 0.930 . S
H1956 C1969 0.930 . S
H1957 C1970 0.930 . S
H1958 C1974 0.959 . S
H1959 C1974 0.959 . S
H1960 C1974 0.961 . S
H1961 C1975 0.960 . S
H1962 C1975 0.961 . S
H1963 C1975 0.959 . S
H1964 C1978 0.929 . S
H1965 C1979 0.931 . S
H1966 C1981 0.930 . S
C1967 H1955 0.930 . S
C1967 C1968 1.399 . S
C1967 C1972 1.399 . S
C1968 C1967 1.399 . S
C1968 C1969 1.376 . S
C1969 H1956 0.930 . S
C1969 C1968 1.376 . S
C1969 C1970 1.388 . S
C1970 H1957 0.930 . S
C1970 C1969 1.388 . S
C1970 C1971 1.390 . S
C1971 C1970 1.390 . S
C1971 C1972 1.394 . S
C1971 C1977 1.465 . S
C1972 C1967 1.399 . S
C1972 C1971 1.394 . S
C1972 C1973 1.516 . S
C1973 C1972 1.516 . S
C1973 C1974 1.502 . S
C1973 C1975 1.561 . S
C1973 C1976 1.526 . S
C1974 H1958 0.959 . S
C1974 H1959 0.959 . S
C1974 H1960 0.961 . S
C1974 C1973 1.502 . S
C1975 H1961 0.960 . S
C1975 H1962 0.961 . S
C1975 H1963 0.959 . S
C1975 C1973 1.561 . S
C1976 C1973 1.526 . S
C1976 C1977 1.396 . S
C1976 C1981 1.390 . S
C1977 C1971 1.465 . S
C1977 C1976 1.396 . S
C1977 C1978 1.399 . S
C1978 H1964 0.929 . S
C1978 C1977 1.399 . S
C1978 C1979 1.385 . S
C1979 H1965 0.931 . S
C1979 C1978 1.385 . S
C1979 C1980 1.389 . S
C1980 C1979 1.389 . S
C1980 C1981 1.387 . S
C1981 H1966 0.930 . S
C1981 C1976 1.390 . S
C1981 C1980 1.387 . S
H1982 C1994 0.930 . S
H1983 C1996 0.930 . S
H1984 C1997 0.930 . S
H1985 C2001 0.959 . S
H1986 C2001 0.959 . S
H1987 C2001 0.961 . S
H1988 C2002 0.960 . S
H1989 C2002 0.961 . S
H1990 C2002 0.959 . S
H1991 C2005 0.929 . S
H1992 C2006 0.931 . S
H1993 C2008 0.930 . S
C1994 H1982 0.930 . S
C1994 C1995 1.399 . S
C1994 C1999 1.399 . S
C1995 C1994 1.399 . S
C1995 C1996 1.376 . S
C1996 H1983 0.930 . S
C1996 C1995 1.376 . S
C1996 C1997 1.388 . S
C1997 H1984 0.930 . S
C1997 C1996 1.388 . S
C1997 C1998 1.390 . S
C1998 C1997 1.390 . S
C1998 C1999 1.394 . S
C1998 C2004 1.465 . S
C1999 C1994 1.399 . S
C1999 C1998 1.394 . S
C1999 C2000 1.516 . S
C2000 C1999 1.516 . S
C2000 C2001 1.502 . S
C2000 C2002 1.561 . S
C2000 C2003 1.526 . S
C2001 H1985 0.959 . S
C2001 H1986 0.959 . S
C2001 H1987 0.961 . S
C2001 C2000 1.502 . S
C2002 H1988 0.960 . S
C2002 H1989 0.961 . S
C2002 H1990 0.959 . S
C2002 C2000 1.561 . S
C2003 C2000 1.526 . S
C2003 C2004 1.396 . S
C2003 C2008 1.390 . S
C2004 C1998 1.465 . S
C2004 C2003 1.396 . S
C2004 C2005 1.399 . S
C2005 H1991 0.929 . S
C2005 C2004 1.399 . S
C2005 C2006 1.385 . S
C2006 H1992 0.931 . S
C2006 C2005 1.385 . S
C2006 C2007 1.389 . S
C2007 C2006 1.389 . S
C2007 C2008 1.387 . S
C2008 H1993 0.930 . S
C2008 C2003 1.390 . S
C2008 C2007 1.387 . S
H2009 C2021 0.930 . S
H2010 C2023 0.930 . S
H2011 C2024 0.930 . S
H2012 C2028 0.959 . S
H2013 C2028 0.959 . S
H2014 C2028 0.961 . S
H2015 C2029 0.960 . S
H2016 C2029 0.961 . S
H2017 C2029 0.959 . S
H2018 C2032 0.929 . S
H2019 C2033 0.931 . S
H2020 C2035 0.930 . S
C2021 H2009 0.930 . S
C2021 C2022 1.399 . S
C2021 C2026 1.399 . S
C2022 C2021 1.399 . S
C2022 C2023 1.376 . S
C2023 H2010 0.930 . S
C2023 C2022 1.376 . S
C2023 C2024 1.388 . S
C2024 H2011 0.930 . S
C2024 C2023 1.388 . S
C2024 C2025 1.390 . S
C2025 C2024 1.390 . S
C2025 C2026 1.394 . S
C2025 C2031 1.465 . S
C2026 C2021 1.399 . S
C2026 C2025 1.394 . S
C2026 C2027 1.516 . S
C2027 C2026 1.516 . S
C2027 C2028 1.502 . S
C2027 C2029 1.561 . S
C2027 C2030 1.526 . S
C2028 H2012 0.959 . S
C2028 H2013 0.959 . S
C2028 H2014 0.961 . S
C2028 C2027 1.502 . S
C2029 H2015 0.960 . S
C2029 H2016 0.961 . S
C2029 H2017 0.959 . S
C2029 C2027 1.561 . S
C2030 C2027 1.526 . S
C2030 C2031 1.396 . S
C2030 C2035 1.390 . S
C2031 C2025 1.465 . S
C2031 C2030 1.396 . S
C2031 C2032 1.399 . S
C2032 H2018 0.929 . S
C2032 C2031 1.399 . S
C2032 C2033 1.385 . S
C2033 H2019 0.931 . S
C2033 C2032 1.385 . S
C2033 C2034 1.389 . S
C2034 C2033 1.389 . S
C2034 C2035 1.387 . S
C2035 H2020 0.930 . S
C2035 C2030 1.390 . S
C2035 C2034 1.387 . S
H2036 C2048 0.930 . S
H2037 C2050 0.930 . S
H2038 C2051 0.930 . S
H2039 C2055 0.959 . S
H2040 C2055 0.959 . S
H2041 C2055 0.961 . S
H2042 C2056 0.960 . S
H2043 C2056 0.961 . S
H2044 C2056 0.959 . S
H2045 C2059 0.929 . S
H2046 C2060 0.931 . S
H2047 C2062 0.930 . S
C2048 H2036 0.930 . S
C2048 C2049 1.399 . S
C2048 C2053 1.399 . S
C2049 C2048 1.399 . S
C2049 C2050 1.376 . S
C2050 H2037 0.930 . S
C2050 C2049 1.376 . S
C2050 C2051 1.388 . S
C2051 H2038 0.930 . S
C2051 C2050 1.388 . S
C2051 C2052 1.390 . S
C2052 C2051 1.390 . S
C2052 C2053 1.394 . S
C2052 C2058 1.465 . S
C2053 C2048 1.399 . S
C2053 C2052 1.394 . S
C2053 C2054 1.516 . S
C2054 C2053 1.516 . S
C2054 C2055 1.502 . S
C2054 C2056 1.561 . S
C2054 C2057 1.526 . S
C2055 H2039 0.959 . S
C2055 H2040 0.959 . S
C2055 H2041 0.961 . S
C2055 C2054 1.502 . S
C2056 H2042 0.960 . S
C2056 H2043 0.961 . S
C2056 H2044 0.959 . S
C2056 C2054 1.561 . S
C2057 C2054 1.526 . S
C2057 C2058 1.396 . S
C2057 C2062 1.390 . S
C2058 C2052 1.465 . S
C2058 C2057 1.396 . S
C2058 C2059 1.399 . S
C2059 H2045 0.929 . S
C2059 C2058 1.399 . S
C2059 C2060 1.385 . S
C2060 H2046 0.931 . S
C2060 C2059 1.385 . S
C2060 C2061 1.389 . S
C2061 C2060 1.389 . S
C2061 C2062 1.387 . S
C2062 H2047 0.930 . S
C2062 C2057 1.390 . S
C2062 C2061 1.387 . S
H2063 C2075 0.930 . S
H2064 C2077 0.930 . S
H2065 C2078 0.930 . S
H2066 C2082 0.959 . S
H2067 C2082 0.959 . S
H2068 C2082 0.961 . S
H2069 C2083 0.960 . S
H2070 C2083 0.961 . S
H2071 C2083 0.959 . S
H2072 C2086 0.929 . S
H2073 C2087 0.931 . S
H2074 C2089 0.930 . S
C2075 H2063 0.930 . S
C2075 C2076 1.399 . S
C2075 C2080 1.399 . S
C2076 C2075 1.399 . S
C2076 C2077 1.376 . S
C2077 H2064 0.930 . S
C2077 C2076 1.376 . S
C2077 C2078 1.388 . S
C2078 H2065 0.930 . S
C2078 C2077 1.388 . S
C2078 C2079 1.390 . S
C2079 C2078 1.390 . S
C2079 C2080 1.394 . S
C2079 C2085 1.465 . S
C2080 C2075 1.399 . S
C2080 C2079 1.394 . S
C2080 C2081 1.516 . S
C2081 C2080 1.516 . S
C2081 C2082 1.502 . S
C2081 C2083 1.561 . S
C2081 C2084 1.526 . S
C2082 H2066 0.959 . S
C2082 H2067 0.959 . S
C2082 H2068 0.961 . S
C2082 C2081 1.502 . S
C2083 H2069 0.960 . S
C2083 H2070 0.961 . S
C2083 H2071 0.959 . S
C2083 C2081 1.561 . S
C2084 C2081 1.526 . S
C2084 C2085 1.396 . S
C2084 C2089 1.390 . S
C2085 C2079 1.465 . S
C2085 C2084 1.396 . S
C2085 C2086 1.399 . S
C2086 H2072 0.929 . S
C2086 C2085 1.399 . S
C2086 C2087 1.385 . S
C2087 H2073 0.931 . S
C2087 C2086 1.385 . S
C2087 C2088 1.389 . S
C2088 C2087 1.389 . S
C2088 C2089 1.387 . S
C2089 H2074 0.930 . S
C2089 C2084 1.390 . S
C2089 C2088 1.387 . S
H2090 C2102 0.930 . S
H2091 C2104 0.930 . S
H2092 C2105 0.930 . S
H2093 C2109 0.959 . S
H2094 C2109 0.959 . S
H2095 C2109 0.961 . S
H2096 C2110 0.960 . S
H2097 C2110 0.961 . S
H2098 C2110 0.959 . S
H2099 C2113 0.929 . S
H2100 C2114 0.931 . S
H2101 C2116 0.930 . S
C2102 H2090 0.930 . S
C2102 C2103 1.399 . S
C2102 C2107 1.399 . S
C2103 C2102 1.399 . S
C2103 C2104 1.376 . S
C2104 H2091 0.930 . S
C2104 C2103 1.376 . S
C2104 C2105 1.388 . S
C2105 H2092 0.930 . S
C2105 C2104 1.388 . S
C2105 C2106 1.390 . S
C2106 C2105 1.390 . S
C2106 C2107 1.394 . S
C2106 C2112 1.465 . S
C2107 C2102 1.399 . S
C2107 C2106 1.394 . S
C2107 C2108 1.516 . S
C2108 C2107 1.516 . S
C2108 C2109 1.502 . S
C2108 C2110 1.561 . S
C2108 C2111 1.526 . S
C2109 H2093 0.959 . S
C2109 H2094 0.959 . S
C2109 H2095 0.961 . S
C2109 C2108 1.502 . S
C2110 H2096 0.960 . S
C2110 H2097 0.961 . S
C2110 H2098 0.959 . S
C2110 C2108 1.561 . S
C2111 C2108 1.526 . S
C2111 C2112 1.396 . S
C2111 C2116 1.390 . S
C2112 C2106 1.465 . S
C2112 C2111 1.396 . S
C2112 C2113 1.399 . S
C2113 H2099 0.929 . S
C2113 C2112 1.399 . S
C2113 C2114 1.385 . S
C2114 H2100 0.931 . S
C2114 C2113 1.385 . S
C2114 C2115 1.389 . S
C2115 C2114 1.389 . S
C2115 C2116 1.387 . S
C2116 H2101 0.930 . S
C2116 C2111 1.390 . S
C2116 C2115 1.387 . S
H2117 C2129 0.930 . S
H2118 C2131 0.930 . S
H2119 C2132 0.930 . S
H2120 C2136 0.959 . S
H2121 C2136 0.959 . S
H2122 C2136 0.961 . S
H2123 C2137 0.960 . S
H2124 C2137 0.961 . S
H2125 C2137 0.959 . S
H2126 C2140 0.929 . S
H2127 C2141 0.931 . S
H2128 C2143 0.930 . S
C2129 H2117 0.930 . S
C2129 C2130 1.399 . S
C2129 C2134 1.399 . S
C2130 C2129 1.399 . S
C2130 C2131 1.376 . S
C2131 H2118 0.930 . S
C2131 C2130 1.376 . S
C2131 C2132 1.388 . S
C2132 H2119 0.930 . S
C2132 C2131 1.388 . S
C2132 C2133 1.390 . S
C2133 C2132 1.390 . S
C2133 C2134 1.394 . S
C2133 C2139 1.465 . S
C2134 C2129 1.399 . S
C2134 C2133 1.394 . S
C2134 C2135 1.516 . S
C2135 C2134 1.516 . S
C2135 C2136 1.502 . S
C2135 C2137 1.561 . S
C2135 C2138 1.526 . S
C2136 H2120 0.959 . S
C2136 H2121 0.959 . S
C2136 H2122 0.961 . S
C2136 C2135 1.502 . S
C2137 H2123 0.960 . S
C2137 H2124 0.961 . S
C2137 H2125 0.959 . S
C2137 C2135 1.561 . S
C2138 C2135 1.526 . S
C2138 C2139 1.396 . S
C2138 C2143 1.390 . S
C2139 C2133 1.465 . S
C2139 C2138 1.396 . S
C2139 C2140 1.399 . S
C2140 H2126 0.929 . S
C2140 C2139 1.399 . S
C2140 C2141 1.385 . S
C2141 H2127 0.931 . S
C2141 C2140 1.385 . S
C2141 C2142 1.389 . S
C2142 C2141 1.389 . S
C2142 C2143 1.387 . S
C2143 H2128 0.930 . S
C2143 C2138 1.390 . S
C2143 C2142 1.387 . S
C429 C122 0.927 . S
C441 C10 0.884 . S
C456 C23 0.864 . S
C468 C343 0.818 . S
C483 C148 0.898 . S
C495 C36 0.873 . S
C510 C317 0.916 . S
C522 C49 0.879 . S
C537 C62 0.882 . S
C549 C200 0.903 . S
C564 C369 0.908 . S
C576 C75 0.883 . S
C591 C88 0.863 . S
C603 C174 0.857 . S
C618 C395 0.879 . S
C630 C101 0.868 . S
C645 C18 0.780 . S
C657 C114 0.869 . S
C672 C127 0.873 . S
C684 C239 0.801 . S
C699 C44 0.844 . S
C711 C140 0.880 . S
C726 C153 0.870 . S
C738 C213 0.786 . S
C753 C166 0.838 . S
C765 C96 0.773 . S
C780 C265 0.727 . S
C792 C179 0.848 . S
C807 C192 0.839 . S
C819 C70 0.747 . S
C834 C291 0.869 . S
C846 C205 0.852 . S
C861 C330 0.738 . S
C873 C218 0.839 . S
C888 C135 0.823 . S
C900 C231 0.865 . S
C915 C244 0.840 . S
C927 C356 0.730 . S
C942 C109 0.870 . S
C954 C257 0.866 . S
C969 C408 0.743 . S
C981 C270 0.840 . S
C996 C283 0.842 . S
C1008 C161 0.737 . S
C1023 C382 0.727 . S
C1035 C296 0.839 . S
C1050 C187 0.764 . S
C1062 C309 0.843 . S
C1077 C226 0.762 . S
C1089 C322 0.839 . S
C1104 C335 0.875 . S
C1116 C31 0.807 . S
C1131 C348 0.883 . S
C1143 C252 0.917 . S
C1158 C361 0.845 . S
C1170 C5 0.835 . S
C1185 C304 0.824 . S
C1197 C374 0.877 . S
C1212 C387 0.884 . S
C1224 C57 0.907 . S
C1239 C400 0.884 . S
C1251 C278 0.868 . S
C1266 C413 0.857 . S
C1278 C83 0.743 . S
C1293 C312 1.280 . S
C1305 C0 1.190 . S
C1320 C13 1.179 . S
C1332 C117 1.271 . S
C1347 C26 1.202 . S
C1359 C338 1.243 . S
C1374 C39 1.237 . S
C1386 C143 1.208 . S
C1401 C52 1.275 . S
C1413 C364 1.178 . S
C1428 C65 1.279 . S
C1440 C169 1.191 . S
C1455 C390 1.281 . S
C1467 C78 1.188 . S
C1482 C91 1.176 . S
C1494 C195 1.275 . S
C1509 C104 1.281 . S
C1521 C208 1.187 . S
C1536 C130 1.267 . S
C1548 C234 1.208 . S
C1563 C260 1.231 . S
C1575 C156 1.214 . S
C1590 C286 1.195 . S
C1602 C182 1.250 . S
C1617 C221 1.281 . S
C1629 C325 1.188 . S
C1644 C351 1.194 . S
C1656 C247 1.252 . S
C1671 C273 1.247 . S
C1683 C377 1.231 . S
C1698 C403 1.189 . S
C1710 C299 1.258 . S
C1725 C281 1.635 . S
C1737 C8 1.609 . S
C1752 C294 1.565 . S
C1764 C21 1.643 . S
C1779 C34 1.564 . S
C1791 C307 1.647 . S
C1806 C268 1.653 . S
C1818 C47 1.572 . S
C1833 C255 1.578 . S
C1845 C60 1.618 . S
C1860 C216 1.653 . S
C1872 C73 1.572 . S
C1887 C86 1.653 . S
C1899 C229 1.578 . S
C1914 C242 1.653 . S
C1926 C99 1.575 . S
C1941 C385 1.653 . S
C1953 C112 1.566 . S
C1968 C398 1.622 . S
C1980 C125 1.596 . S
C1995 C411 1.619 . S
C2007 C138 1.599 . S
C2022 C151 1.567 . S
C2034 C372 1.650 . S
C2049 C359 1.567 . S
C2061 C164 1.650 . S
C2076 C320 1.603 . S
C2088 C177 1.617 . S
C2103 C333 1.649 . S
C2115 C190 1.570 . S
C2130 C346 1.576 . S
C2142 C203 1.642 . S
