# Generated by pormake.
# Topology unv, (4)-cn, num edge types: 1
# Building blocks:
#     Node 0, Type 0, BuildingBlock: QUQFOY_clean_sbu_1, # of connection points: 4
#     Node 1, Type 0, BuildingBlock: QUQFOY_clean_sbu_1, # of connection points: 4
#     Node 2, Type 0, BuildingBlock: QUQFOY_clean_sbu_1, # of connection points: 4
#     Node 3, Type 0, BuildingBlock: QUQFOY_clean_sbu_1, # of connection points: 4
#     Node 4, Type 0, BuildingBlock: QUQFOY_clean_sbu_1, # of connection points: 4
#     Node 5, Type 0, BuildingBlock: QUQFOY_clean_sbu_1, # of connection points: 4
#     Node 6, Type 0, BuildingBlock: QUQFOY_clean_sbu_1, # of connection points: 4
#     Node 7, Type 0, BuildingBlock: QUQFOY_clean_sbu_1, # of connection points: 4
#     Node 8, Type 0, BuildingBlock: QUQFOY_clean_sbu_1, # of connection points: 4
#     Node 9, Type 0, BuildingBlock: QUQFOY_clean_sbu_1, # of connection points: 4
#     Node 10, Type 0, BuildingBlock: QUQFOY_clean_sbu_1, # of connection points: 4
#     Node 11, Type 0, BuildingBlock: QUQFOY_clean_sbu_1, # of connection points: 4
#     Node 12, Type 0, BuildingBlock: QUQFOY_clean_sbu_1, # of connection points: 4
#     Node 13, Type 0, BuildingBlock: QUQFOY_clean_sbu_1, # of connection points: 4
#     Node 14, Type 0, BuildingBlock: QUQFOY_clean_sbu_1, # of connection points: 4
#     Node 15, Type 0, BuildingBlock: QUQFOY_clean_sbu_1, # of connection points: 4
#     Node 16, Type 0, BuildingBlock: QUQFOY_clean_sbu_1, # of connection points: 4
#     Node 17, Type 0, BuildingBlock: QUQFOY_clean_sbu_1, # of connection points: 4
#     Node 18, Type 0, BuildingBlock: QUQFOY_clean_sbu_1, # of connection points: 4
#     Node 19, Type 0, BuildingBlock: QUQFOY_clean_sbu_1, # of connection points: 4
#     Node 20, Type 0, BuildingBlock: QUQFOY_clean_sbu_1, # of connection points: 4
#     Node 21, Type 0, BuildingBlock: QUQFOY_clean_sbu_1, # of connection points: 4
#     Node 22, Type 0, BuildingBlock: QUQFOY_clean_sbu_1, # of connection points: 4
#     Node 23, Type 0, BuildingBlock: QUQFOY_clean_sbu_1, # of connection points: 4
#     Edge 24, Type (0, 0), BuildingBlock: KIFKEQ_clean_linker_1, # of connection points: 2
#     Edge 25, Type (0, 0), BuildingBlock: KIFKEQ_clean_linker_1, # of connection points: 2
#     Edge 26, Type (0, 0), BuildingBlock: KIFKEQ_clean_linker_1, # of connection points: 2
#     Edge 27, Type (0, 0), BuildingBlock: KIFKEQ_clean_linker_1, # of connection points: 2
#     Edge 28, Type (0, 0), BuildingBlock: KIFKEQ_clean_linker_1, # of connection points: 2
#     Edge 29, Type (0, 0), BuildingBlock: KIFKEQ_clean_linker_1, # of connection points: 2
#     Edge 30, Type (0, 0), BuildingBlock: KIFKEQ_clean_linker_1, # of connection points: 2
#     Edge 31, Type (0, 0), BuildingBlock: KIFKEQ_clean_linker_1, # of connection points: 2
#     Edge 32, Type (0, 0), BuildingBlock: KIFKEQ_clean_linker_1, # of connection points: 2
#     Edge 33, Type (0, 0), BuildingBlock: KIFKEQ_clean_linker_1, # of connection points: 2
#     Edge 34, Type (0, 0), BuildingBlock: KIFKEQ_clean_linker_1, # of connection points: 2
#     Edge 35, Type (0, 0), BuildingBlock: KIFKEQ_clean_linker_1, # of connection points: 2
#     Edge 36, Type (0, 0), BuildingBlock: KIFKEQ_clean_linker_1, # of connection points: 2
#     Edge 37, Type (0, 0), BuildingBlock: KIFKEQ_clean_linker_1, # of connection points: 2
#     Edge 38, Type (0, 0), BuildingBlock: KIFKEQ_clean_linker_1, # of connection points: 2
#     Edge 39, Type (0, 0), BuildingBlock: KIFKEQ_clean_linker_1, # of connection points: 2
#     Edge 40, Type (0, 0), BuildingBlock: KIFKEQ_clean_linker_1, # of connection points: 2
#     Edge 41, Type (0, 0), BuildingBlock: KIFKEQ_clean_linker_1, # of connection points: 2
#     Edge 42, Type (0, 0), BuildingBlock: KIFKEQ_clean_linker_1, # of connection points: 2
#     Edge 43, Type (0, 0), BuildingBlock: KIFKEQ_clean_linker_1, # of connection points: 2
#     Edge 44, Type (0, 0), BuildingBlock: KIFKEQ_clean_linker_1, # of connection points: 2
#     Edge 45, Type (0, 0), BuildingBlock: KIFKEQ_clean_linker_1, # of connection points: 2
#     Edge 46, Type (0, 0), BuildingBlock: KIFKEQ_clean_linker_1, # of connection points: 2
#     Edge 47, Type (0, 0), BuildingBlock: KIFKEQ_clean_linker_1, # of connection points: 2
#     Edge 48, Type (0, 0), BuildingBlock: KIFKEQ_clean_linker_1, # of connection points: 2
#     Edge 49, Type (0, 0), BuildingBlock: KIFKEQ_clean_linker_1, # of connection points: 2
#     Edge 50, Type (0, 0), BuildingBlock: KIFKEQ_clean_linker_1, # of connection points: 2
#     Edge 51, Type (0, 0), BuildingBlock: KIFKEQ_clean_linker_1, # of connection points: 2
#     Edge 52, Type (0, 0), BuildingBlock: KIFKEQ_clean_linker_1, # of connection points: 2
#     Edge 53, Type (0, 0), BuildingBlock: KIFKEQ_clean_linker_1, # of connection points: 2
#     Edge 54, Type (0, 0), BuildingBlock: KIFKEQ_clean_linker_1, # of connection points: 2
#     Edge 55, Type (0, 0), BuildingBlock: KIFKEQ_clean_linker_1, # of connection points: 2
#     Edge 56, Type (0, 0), BuildingBlock: KIFKEQ_clean_linker_1, # of connection points: 2
#     Edge 57, Type (0, 0), BuildingBlock: KIFKEQ_clean_linker_1, # of connection points: 2
#     Edge 58, Type (0, 0), BuildingBlock: KIFKEQ_clean_linker_1, # of connection points: 2
#     Edge 59, Type (0, 0), BuildingBlock: KIFKEQ_clean_linker_1, # of connection points: 2
#     Edge 60, Type (0, 0), BuildingBlock: KIFKEQ_clean_linker_1, # of connection points: 2
#     Edge 61, Type (0, 0), BuildingBlock: KIFKEQ_clean_linker_1, # of connection points: 2
#     Edge 62, Type (0, 0), BuildingBlock: KIFKEQ_clean_linker_1, # of connection points: 2
#     Edge 63, Type (0, 0), BuildingBlock: KIFKEQ_clean_linker_1, # of connection points: 2
#     Edge 64, Type (0, 0), BuildingBlock: KIFKEQ_clean_linker_1, # of connection points: 2
#     Edge 65, Type (0, 0), BuildingBlock: KIFKEQ_clean_linker_1, # of connection points: 2
#     Edge 66, Type (0, 0), BuildingBlock: KIFKEQ_clean_linker_1, # of connection points: 2
#     Edge 67, Type (0, 0), BuildingBlock: KIFKEQ_clean_linker_1, # of connection points: 2
#     Edge 68, Type (0, 0), BuildingBlock: KIFKEQ_clean_linker_1, # of connection points: 2
#     Edge 69, Type (0, 0), BuildingBlock: KIFKEQ_clean_linker_1, # of connection points: 2
#     Edge 70, Type (0, 0), BuildingBlock: KIFKEQ_clean_linker_1, # of connection points: 2
#     Edge 71, Type (0, 0), BuildingBlock: KIFKEQ_clean_linker_1, # of connection points: 2
# Relax obj value: 0.133
# Max RMSD: 0.148
# Mean RMSD: 0.122
data_MOF--net-unv--node1-QUQFOY_clean_sbu_1--edge1-KIFKEQ_clean_linker_1
_symmetry_space_group_name_H-M    P1
_symmetry_Int_Tables_number       1
_symmetry_cell_setting            triclinic
loop_
_symmetry_equiv_pos_as_xyz
'x, y, z'
_cell_length_a     52.744292
_cell_length_b     52.760589
_cell_length_c     52.729393
_cell_angle_alpha  89.928845
_cell_angle_beta   89.916539
_cell_angle_gamma 89.956964
loop_
_atom_site_label
_atom_site_type_symbol
_atom_site_fract_x
_atom_site_fract_y
_atom_site_fract_z
_atom_type_partial_charge
O0 O 0.0375 0.10309 0.42344 0.0
Cd1 Cd 0.00738 0.10919 0.39938 0.0
Cd2 Cd 0.03441 0.06813 0.37099 0.0
O3 O 0.05869 0.07465 0.40107 0.0
O4 O 0.99133 0.14039 0.41323 0.0
O5 O 0.00796 0.13869 0.37481 0.0
C6 C 0.9968 0.15173 0.39229 0.0
C7 C 0.05205 0.04784 0.33533 0.0
C8 C 0.0565 0.08853 0.42067 0.0
C9 C 0.97959 0.06067 0.39025 0.0
O10 O 0.99923 0.05307 0.37856 0.0
O11 O 0.97875 0.08256 0.4002 0.0
O12 O 0.05045 0.03682 0.35699 0.0
O13 O 0.04469 0.07113 0.33395 0.0
O14 O 0.94022 0.39496 0.4207 0.0
Cd15 Cd 0.96918 0.38522 0.39629 0.0
Cd16 Cd 0.94683 0.43043 0.36912 0.0
O17 O 0.92294 0.42719 0.40012 0.0
O18 O 0.98195 0.35309 0.41142 0.0
O19 O 0.96585 0.35495 0.37287 0.0
C20 C 0.97569 0.34156 0.39087 0.0
C21 C 0.93137 0.45279 0.33377 0.0
C22 C 0.92359 0.41233 0.41913 0.0
C23 C 0.00276 0.42999 0.38619 0.0
O24 O 0.98399 0.44034 0.37525 0.0
O25 O 0.00088 0.40817 0.3962 0.0
O26 O 0.93464 0.46351 0.35536 0.0
O27 O 0.93558 0.42874 0.33235 0.0
O28 O 0.02612 0.89429 0.09163 0.0
Cd29 Cd 0.00155 0.8916 0.12183 0.0
Cd30 Cd 0.03394 0.92647 0.14299 0.0
O31 O 0.05596 0.91486 0.11249 0.0
O32 O 0.98498 0.85783 0.12069 0.0
O33 O 0.01191 0.8693 0.15087 0.0
C34 C 0.99763 0.85209 0.14085 0.0
C35 C 0.05355 0.94192 0.17971 0.0
C36 C 0.04832 0.90358 0.09259 0.0
C37 C 0.97965 0.94201 0.12918 0.0
O38 O 0.00202 0.94789 0.13577 0.0
O39 O 0.9741 0.91925 0.12377 0.0
O40 O 0.05549 0.95343 0.15829 0.0
O41 O 0.04193 0.92039 0.18002 0.0
O42 O 0.97515 0.62305 0.10018 0.0
Cd43 Cd 0.00137 0.62574 0.12885 0.0
Cd44 Cd 0.97222 0.58513 0.15008 0.0
O45 O 0.95029 0.59515 0.11911 0.0
O46 O 0.01749 0.65957 0.12511 0.0
O47 O 0.99315 0.64918 0.15779 0.0
C48 C 0.00642 0.66606 0.14594 0.0
C49 C 0.95112 0.56564 0.18419 0.0
C50 C 0.95506 0.60981 0.10052 0.0
C51 C 0.02788 0.57641 0.13528 0.0
O52 O 0.00687 0.56817 0.14369 0.0
O53 O 0.03031 0.5994 0.12856 0.0
O54 O 0.95292 0.55499 0.16237 0.0
O55 O 0.96046 0.58811 0.18659 0.0
O56 O 0.42392 0.03737 0.10974 0.0
Cd57 Cd 0.39623 0.00984 0.11297 0.0
Cd58 Cd 0.37302 0.03983 0.07517 0.0
O59 O 0.40228 0.06365 0.08533 0.0
O60 O 0.40169 0.99239 0.14598 0.0
O61 O 0.36773 0.01571 0.13771 0.0
C62 C 0.38048 0.00196 0.15351 0.0
C63 C 0.33609 0.05738 0.05755 0.0
C64 C 0.42203 0.05844 0.09815 0.0
C65 C 0.39067 0.98593 0.06258 0.0
O66 O 0.38248 0.00749 0.05571 0.0
O67 O 0.39622 0.98179 0.08564 0.0
O68 O 0.35771 0.05913 0.04645 0.0
O69 O 0.33552 0.04701 0.07973 0.0
O70 O 0.57221 0.48027 0.10018 0.0
Cd71 Cd 0.59759 0.50917 0.1059 0.0
Cd72 Cd 0.62461 0.48344 0.06815 0.0
O73 O 0.59626 0.45726 0.07485 0.0
O74 O 0.58898 0.52246 0.13996 0.0
O75 O 0.62551 0.50364 0.1313 0.0
C76 C 0.61044 0.51373 0.14781 0.0
C77 C 0.66313 0.46815 0.05194 0.0
C78 C 0.57585 0.46025 0.08735 0.0
C79 C 0.6036 0.53679 0.05772 0.0
O80 O 0.61465 0.51672 0.05032 0.0
O81 O 0.59561 0.53877 0.08037 0.0
O82 O 0.64239 0.46672 0.03931 0.0
O83 O 0.66197 0.47726 0.07463 0.0
O84 O 0.41865 0.95436 0.38421 0.0
Cd85 Cd 0.38891 0.97977 0.38151 0.0
Cd86 Cd 0.36856 0.94675 0.41836 0.0
O87 O 0.39884 0.92496 0.40654 0.0
O88 O 0.39431 0.99885 0.34937 0.0
O89 O 0.36197 0.97276 0.35541 0.0
C90 C 0.37433 0.9879 0.34059 0.0
C91 C 0.33238 0.92749 0.43569 0.0
C92 C 0.41826 0.93247 0.39432 0.0
C93 C 0.38219 0.00116 0.43284 0.0
O94 O 0.37675 0.97857 0.43909 0.0
O95 O 0.38609 0.00682 0.40974 0.0
O96 O 0.35423 0.92555 0.44627 0.0
O97 O 0.33126 0.93879 0.41399 0.0
O98 O 0.57479 0.5182 0.38316 0.0
Cd99 Cd 0.60185 0.49083 0.37713 0.0
Cd100 Cd 0.62849 0.51883 0.41252 0.0
O101 O 0.59845 0.54337 0.40661 0.0
O102 O 0.59349 0.47643 0.3435 0.0
O103 O 0.62871 0.498 0.35096 0.0
C104 C 0.61405 0.48661 0.33498 0.0
C105 C 0.66714 0.53595 0.42615 0.0
C106 C 0.57774 0.53882 0.39517 0.0
C107 C 0.61158 0.46477 0.42554 0.0
O108 O 0.62134 0.48575 0.43205 0.0
O109 O 0.60301 0.46168 0.40326 0.0
O110 O 0.64691 0.53721 0.43968 0.0
O111 O 0.66526 0.5262 0.40379 0.0
O112 O 0.1128 0.42872 0.03572 0.0
Cd113 Cd 0.11601 0.40252 0.00695 0.0
Cd114 Cd 0.07848 0.37652 0.03576 0.0
O115 O 0.08662 0.40643 0.0597 0.0
O116 O 0.14856 0.40924 0.98917 0.0
O117 O 0.14107 0.37405 0.01094 0.0
C118 C 0.15643 0.38762 0.99745 0.0
C119 C 0.06199 0.33934 0.0538 0.0
C120 C 0.09993 0.4262 0.05597 0.0
C121 C 0.06613 0.39496 0.98208 0.0
O122 O 0.05951 0.38431 0.00263 0.0
O123 O 0.08843 0.40357 0.97931 0.0
O124 O 0.04997 0.36049 0.05471 0.0
O125 O 0.08438 0.33942 0.04389 0.0
O126 O 0.102 0.57218 0.47542 0.0
Cd127 Cd 0.1071 0.59899 0.50317 0.0
Cd128 Cd 0.06972 0.62492 0.47441 0.0
O129 O 0.07728 0.59488 0.45045 0.0
O130 O 0.14034 0.5904 0.51845 0.0
O131 O 0.1333 0.62622 0.49771 0.0
C132 C 0.14897 0.61141 0.50939 0.0
C133 C 0.05236 0.66161 0.45605 0.0
C134 C 0.08963 0.57466 0.45493 0.0
C135 C 0.05817 0.60724 0.52892 0.0
O136 O 0.05146 0.61722 0.50806 0.0
O137 O 0.08058 0.59896 0.53193 0.0
O138 O 0.04053 0.64036 0.45604 0.0
O139 O 0.07496 0.66195 0.4654 0.0
O140 O 0.89846 0.90599 0.48229 0.0
Cd141 Cd 0.89342 0.87747 0.50839 0.0
Cd142 Cd 0.93156 0.85395 0.47814 0.0
O143 O 0.92375 0.88541 0.45604 0.0
O144 O 0.85993 0.88495 0.52385 0.0
O145 O 0.86728 0.85069 0.50081 0.0
C146 C 0.8514 0.86471 0.51317 0.0
C147 C 0.94898 0.81835 0.45798 0.0
C148 C 0.91093 0.90503 0.46171 0.0
C149 C 0.94225 0.86757 0.5339 0.0
O150 O 0.94932 0.85932 0.51242 0.0
O151 O 0.91975 0.87551 0.53728 0.0
O152 O 0.96085 0.83956 0.45907 0.0
O153 O 0.92627 0.81757 0.4671 0.0
O154 O 0.3869 0.57944 0.52831 0.0
Cd155 Cd 0.38074 0.60673 0.50116 0.0
Cd156 Cd 0.42277 0.62996 0.52822 0.0
O157 O 0.4154 0.59931 0.5516 0.0
O158 O 0.34764 0.59637 0.48668 0.0
O159 O 0.35301 0.63251 0.5071 0.0
C160 C 0.33797 0.61684 0.49583 0.0
C161 C 0.44302 0.66525 0.54614 0.0
C162 C 0.40114 0.58028 0.54767 0.0
C163 C 0.42843 0.61453 0.47216 0.0
O164 O 0.43747 0.62317 0.4927 0.0
O165 O 0.40554 0.60719 0.47087 0.0
O166 O 0.45394 0.64354 0.54468 0.0
O167 O 0.41977 0.6668 0.53867 0.0
O168 O 0.5081 0.61461 0.89864 0.0
Cd169 Cd 0.48093 0.62981 0.87373 0.0
Cd170 Cd 0.51006 0.57186 0.84878 0.0
O171 O 0.52726 0.57982 0.88302 0.0
O172 O 0.47178 0.66533 0.882 0.0
O173 O 0.49417 0.65425 0.848 0.0
C174 C 0.48402 0.67186 0.86175 0.0
C175 C 0.52384 0.54056 0.82134 0.0
C176 C 0.52431 0.59655 0.90035 0.0
C177 C 0.45767 0.58971 0.85231 0.0
O178 O 0.47911 0.59327 0.84198 0.0
O179 O 0.44938 0.60793 0.86539 0.0
O180 O 0.5074 0.53557 0.83887 0.0
O181 O 0.53261 0.56343 0.81967 0.0
O182 O 0.4918 0.90005 0.91458 0.0
Cd183 Cd 0.51491 0.8961 0.88348 0.0
Cd184 Cd 0.48247 0.93056 0.86222 0.0
O185 O 0.46136 0.91966 0.89361 0.0
O186 O 0.52951 0.86147 0.88368 0.0
O187 O 0.50146 0.87478 0.85522 0.0
C188 C 0.5151 0.85661 0.8645 0.0
C189 C 0.46113 0.94585 0.82638 0.0
C190 C 0.4695 0.90911 0.91373 0.0
C191 C 0.53759 0.94543 0.87358 0.0
O192 O 0.51507 0.95152 0.86763 0.0
O193 O 0.54298 0.92276 0.87954 0.0
O194 O 0.46065 0.95774 0.84763 0.0
O195 O 0.47244 0.92415 0.82576 0.0
O196 O 0.52156 0.38144 0.58091 0.0
Cd197 Cd 0.49439 0.37509 0.60816 0.0
Cd198 Cd 0.52252 0.41248 0.63375 0.0
O199 O 0.54632 0.40688 0.60297 0.0
O200 O 0.4798 0.34178 0.59879 0.0
O201 O 0.50089 0.34814 0.63447 0.0
C202 C 0.48942 0.33267 0.61935 0.0
C203 C 0.5396 0.4282 0.67167 0.0
C204 C 0.54167 0.39451 0.5828 0.0
C205 C 0.46748 0.42309 0.61787 0.0
O206 O 0.48845 0.43027 0.62717 0.0
O207 O 0.46485 0.40072 0.6094 0.0
O208 O 0.54002 0.44105 0.65097 0.0
O209 O 0.53103 0.40531 0.67063 0.0
O210 O 0.47728 0.09534 0.57892 0.0
Cd211 Cd 0.50328 0.10176 0.60712 0.0
Cd212 Cd 0.47377 0.06435 0.63165 0.0
O213 O 0.45014 0.0728 0.60145 0.0
O214 O 0.51811 0.13518 0.59845 0.0
O215 O 0.49572 0.12845 0.63335 0.0
C216 C 0.50772 0.14407 0.61873 0.0
C217 C 0.45534 0.04706 0.66832 0.0
C218 C 0.45609 0.08413 0.58099 0.0
C219 C 0.52917 0.05341 0.61629 0.0
O220 O 0.50768 0.04616 0.62442 0.0
O221 O 0.5326 0.07614 0.60917 0.0
O222 O 0.45521 0.03523 0.64705 0.0
O223 O 0.46468 0.06966 0.66862 0.0
O224 O 0.89739 0.51716 0.60807 0.0
Cd225 Cd 0.87436 0.48947 0.62521 0.0
Cd226 Cd 0.84794 0.51688 0.56612 0.0
O227 O 0.88176 0.53523 0.57274 0.0
O228 O 0.88808 0.4811 0.65914 0.0
O229 O 0.85137 0.50087 0.65315 0.0
C230 C 0.8683 0.49211 0.66859 0.0
C231 C 0.81994 0.52844 0.53455 0.0
C232 C 0.89901 0.53294 0.58964 0.0
C233 C 0.85211 0.46551 0.58609 0.0
O234 O 0.84208 0.48711 0.5894 0.0
O235 O 0.86542 0.45742 0.60426 0.0
O236 O 0.83767 0.51205 0.53019 0.0
O237 O 0.81838 0.53837 0.55695 0.0
O238 O 0.10059 0.95527 0.6118 0.0
Cd239 Cd 0.12723 0.98317 0.61737 0.0
Cd240 Cd 0.15044 0.95493 0.57362 0.0
O241 O 0.11942 0.93244 0.58209 0.0
O242 O 0.1153 0.99886 0.64954 0.0
O243 O 0.15224 0.97947 0.64629 0.0
C244 C 0.13576 0.991 0.66028 0.0
C245 C 0.18374 0.93555 0.55099 0.0
C246 C 0.10095 0.93616 0.59719 0.0
C247 C 0.13506 0.01132 0.56866 0.0
O248 O 0.14405 0.99086 0.55973 0.0
O249 O 0.1274 0.01264 0.59149 0.0
O250 O 0.16162 0.93859 0.54132 0.0
O251 O 0.1869 0.94249 0.57423 0.0
O252 O 0.91332 0.49239 0.90347 0.0
Cd253 Cd 0.88643 0.51994 0.89787 0.0
Cd254 Cd 0.8617 0.49305 0.93758 0.0
O255 O 0.89193 0.469 0.93083 0.0
O256 O 0.89487 0.53382 0.86395 0.0
O257 O 0.85921 0.51322 0.87203 0.0
C258 C 0.87399 0.52414 0.85578 0.0
C259 C 0.82495 0.47503 0.95498 0.0
C260 C 0.91148 0.47269 0.91718 0.0
C261 C 0.87858 0.54825 0.94559 0.0
O262 O 0.86888 0.5278 0.9538 0.0
O263 O 0.88667 0.54988 0.92295 0.0
O264 O 0.8459 0.4759 0.96734 0.0
O265 O 0.82498 0.48343 0.93198 0.0
O266 O 0.09449 0.03178 0.89669 0.0
Cd267 Cd 0.12145 0.00366 0.89281 0.0
Cd268 Cd 0.14493 0.03435 0.93176 0.0
O269 O 0.11563 0.05809 0.92139 0.0
O270 O 0.11136 0.98659 0.86078 0.0
O271 O 0.14764 0.00704 0.86497 0.0
C272 C 0.13209 0.99467 0.85068 0.0
C273 C 0.18089 0.05262 0.95062 0.0
C274 C 0.09614 0.05283 0.90825 0.0
C275 C 0.12747 0.97978 0.94341 0.0
O276 O 0.13565 0.00134 0.95027 0.0
O277 O 0.12176 0.97568 0.92037 0.0
O278 O 0.159 0.05327 0.9613 0.0
O279 O 0.18231 0.04272 0.92829 0.0
O280 O 0.61335 0.90107 0.52203 0.0
Cd281 Cd 0.62043 0.87443 0.49453 0.0
Cd282 Cd 0.57799 0.84936 0.52027 0.0
O283 O 0.58421 0.88016 0.54368 0.0
O284 O 0.65433 0.88434 0.48148 0.0
O285 O 0.64735 0.84804 0.50128 0.0
C286 C 0.6632 0.86358 0.49086 0.0
C287 C 0.55661 0.81497 0.53894 0.0
C288 C 0.59835 0.89948 0.5408 0.0
C289 C 0.57387 0.86551 0.46408 0.0
O290 O 0.56471 0.85561 0.48405 0.0
O291 O 0.59629 0.87432 0.46373 0.0
O292 O 0.54596 0.83663 0.53587 0.0
O293 O 0.58006 0.81282 0.53224 0.0
O294 O 0.61523 0.10082 0.96608 0.0
Cd295 Cd 0.62058 0.12662 0.99476 0.0
Cd296 Cd 0.5777 0.15128 0.96834 0.0
O297 O 0.58505 0.12074 0.94497 0.0
O298 O 0.65313 0.11519 0.00982 0.0
O299 O 0.64872 0.15242 0.99114 0.0
C300 C 0.66324 0.13607 0.00218 0.0
C301 C 0.55684 0.18543 0.94869 0.0
C302 C 0.60014 0.1021 0.9474 0.0
C303 C 0.57246 0.13419 0.024 0.0
O304 O 0.56352 0.14459 0.00419 0.0
O305 O 0.59499 0.12564 0.02443 0.0
O306 O 0.5461 0.16381 0.95178 0.0
O307 O 0.57999 0.18774 0.95623 0.0
O308 O 0.39181 0.42396 0.94458 0.0
Cd309 Cd 0.38494 0.39697 0.97205 0.0
Cd310 Cd 0.42715 0.37232 0.94695 0.0
O311 O 0.42215 0.40368 0.92391 0.0
O312 O 0.35151 0.40561 0.98723 0.0
O313 O 0.35837 0.37023 0.96574 0.0
C314 C 0.34298 0.38456 0.97832 0.0
C315 C 0.44652 0.33632 0.92952 0.0
C316 C 0.40772 0.42284 0.92647 0.0
C317 C 0.43142 0.38749 0.00282 0.0
O318 O 0.44092 0.37784 0.98294 0.0
O319 O 0.40907 0.39638 0.00278 0.0
O320 O 0.45824 0.35756 0.93135 0.0
O321 O 0.42295 0.33574 0.93611 0.0
O322 O 0.90136 0.09668 0.03374 0.0
Cd323 Cd 0.8957 0.12234 0.00492 0.0
Cd324 Cd 0.93748 0.14757 0.03095 0.0
O325 O 0.93082 0.11736 0.05504 0.0
O326 O 0.86268 0.11164 0.99044 0.0
O327 O 0.86827 0.14883 0.00883 0.0
C328 C 0.8532 0.13281 0.99809 0.0
C329 C 0.95734 0.18311 0.04889 0.0
C330 C 0.91623 0.09835 0.05258 0.0
C331 C 0.94355 0.1297 0.9757 0.0
O332 O 0.95216 0.14025 0.99552 0.0
O333 O 0.92107 0.12108 0.97507 0.0
O334 O 0.96863 0.16163 0.04702 0.0
O335 O 0.93406 0.18438 0.04149 0.0
H336 H 0.09565 0.04481 0.56883 0.0
H337 H 0.16341 0.02448 0.52763 0.0
H338 H 0.08154 0.07034 0.53304 0.0
H339 H 0.15011 0.05109 0.49229 0.0
H340 H 0.09545 0.05464 0.42401 0.0
H341 H 0.11932 0.04327 0.46143 0.0
H342 H 0.08311 0.10384 0.50319 0.0
H343 H 0.05832 0.11464 0.46568 0.0
C344 C 0.10803 0.04669 0.55252 0.0
C345 C 0.13038 0.03235 0.55079 0.0
C346 C 0.09999 0.0614 0.53194 0.0
C347 C 0.11438 0.06232 0.50941 0.0
C348 C 0.13814 0.05018 0.50896 0.0
C349 C 0.1459 0.03511 0.5293 0.0
C350 C 0.09288 0.06591 0.44098 0.0
C351 C 0.07463 0.08528 0.4419 0.0
C352 C 0.1068 0.0595 0.46254 0.0
C353 C 0.10304 0.07246 0.48557 0.0
C354 C 0.08614 0.09311 0.48596 0.0
C355 C 0.07204 0.0994 0.46438 0.0
H356 H 0.89399 0.45402 0.42772 0.0
H357 H 0.91574 0.38222 0.46082 0.0
H358 H 0.87294 0.46572 0.46722 0.0
H359 H 0.89448 0.39403 0.50028 0.0
H360 H 0.83824 0.42149 0.5631 0.0
H361 H 0.85108 0.40655 0.52074 0.0
H362 H 0.89475 0.47493 0.51003 0.0
H363 H 0.88275 0.48913 0.55233 0.0
C364 C 0.89382 0.44048 0.44317 0.0
C365 C 0.90685 0.4173 0.44119 0.0
C366 C 0.88185 0.44726 0.46582 0.0
C367 C 0.88235 0.43089 0.48684 0.0
C368 C 0.89376 0.40697 0.48433 0.0
C369 C 0.90601 0.40028 0.46176 0.0
C370 C 0.85038 0.4333 0.55146 0.0
C371 C 0.85881 0.45685 0.56045 0.0
C372 C 0.85772 0.4248 0.52736 0.0
C373 C 0.87346 0.43985 0.51195 0.0
C374 C 0.88202 0.46327 0.5212 0.0
C375 C 0.87505 0.47149 0.54533 0.0
H376 H 0.03244 0.9003 0.04355 0.0
H377 H 0.09971 0.90926 0.08921 0.0
H378 H 0.05633 0.91171 0.00587 0.0
H379 H 0.12416 0.91921 0.05124 0.0
H380 H 0.14123 0.98193 0.99297 0.0
H381 H 0.12598 0.95607 0.02742 0.0
H382 H 0.08732 0.90742 0.97404 0.0
H383 H 0.10185 0.93443 0.93921 0.0
C384 C 0.05258 0.90385 0.0454 0.0
C385 C 0.06409 0.90444 0.06941 0.0
C386 C 0.0664 0.91025 0.02369 0.0
C387 C 0.09216 0.91698 0.02546 0.0
C388 C 0.10419 0.91497 0.04921 0.0
C389 C 0.09024 0.9091 0.07099 0.0
C390 C 0.1298 0.96551 0.98841 0.0
C391 C 0.12234 0.96059 0.96332 0.0
C392 C 0.12123 0.95038 0.0083 0.0
C393 C 0.10512 0.92966 0.00371 0.0
C394 C 0.09926 0.92352 0.97837 0.0
C395 C 0.10775 0.93887 0.95836 0.0
H396 H 0.91356 0.58004 0.09287 0.0
H397 H 0.95871 0.63832 0.05703 0.0
H398 H 0.89076 0.57359 0.05373 0.0
H399 H 0.93501 0.63254 0.01774 0.0
H400 H 0.84891 0.56272 0.98512 0.0
H401 H 0.86252 0.58658 0.0222 0.0
H402 H 0.93468 0.601 0.98588 0.0
H403 H 0.92031 0.57842 0.94835 0.0
C404 C 0.9182 0.59198 0.07679 0.0
C405 C 0.93828 0.60939 0.07801 0.0
C406 C 0.90488 0.58846 0.05426 0.0
C407 C 0.91108 0.60244 0.03235 0.0
C408 C 0.93001 0.62113 0.03408 0.0
C409 C 0.94352 0.62453 0.05665 0.0
C410 C 0.8673 0.57185 0.98478 0.0
C411 C 0.88371 0.5685 0.96408 0.0
C412 C 0.87524 0.5853 0.00611 0.0
C413 C 0.90003 0.59503 0.00745 0.0
C414 C 0.91545 0.59385 0.98563 0.0
C415 C 0.90725 0.58085 0.96404 0.0
H416 H 0.42683 0.10111 0.06937 0.0
H417 H 0.46775 0.05438 0.12281 0.0
H418 H 0.46532 0.12363 0.05928 0.0
H419 H 0.50648 0.07794 0.11357 0.0
H420 H 0.57101 0.09233 0.05418 0.0
H421 H 0.53524 0.0784 0.07976 0.0
H422 H 0.49857 0.15079 0.0677 0.0
H423 H 0.53375 0.16388 0.04072 0.0
C424 C 0.44393 0.09612 0.07958 0.0
C425 C 0.44424 0.07558 0.09655 0.0
C426 C 0.46615 0.10928 0.07393 0.0
C427 C 0.48931 0.10251 0.08536 0.0
C428 C 0.48918 0.08332 0.10394 0.0
C429 C 0.46691 0.06992 0.10939 0.0
C430 C 0.55562 0.10549 0.05764 0.0
C431 C 0.55489 0.12898 0.04515 0.0
C432 C 0.53504 0.09756 0.07241 0.0
C433 C 0.51355 0.11319 0.07534 0.0
C434 C 0.51432 0.13786 0.06516 0.0
C435 C 0.53459 0.14551 0.0499 0.0
H436 H 0.57378 0.42024 0.05476 0.0
H437 H 0.53011 0.45922 0.11215 0.0
H438 H 0.53646 0.39699 0.04211 0.0
H439 H 0.49266 0.435 0.10015 0.0
H440 H 0.46989 0.35687 0.01825 0.0
H441 H 0.50372 0.36781 0.04767 0.0
H442 H 0.46527 0.43816 0.06502 0.0
H443 H 0.43089 0.42638 0.03674 0.0
C444 C 0.55637 0.42328 0.06525 0.0
C445 C 0.55482 0.44201 0.08407 0.0
C446 C 0.53486 0.40972 0.05812 0.0
C447 C 0.5113 0.41433 0.06984 0.0
C448 C 0.51032 0.43139 0.0903 0.0
C449 C 0.53184 0.44518 0.09728 0.0
C450 C 0.46836 0.37428 0.02903 0.0
C451 C 0.44806 0.39101 0.02496 0.0
C452 C 0.48781 0.38066 0.04575 0.0
C453 C 0.48768 0.40422 0.0582 0.0
C454 C 0.46609 0.41981 0.05589 0.0
C455 C 0.44635 0.41314 0.03956 0.0
H456 H 0.53807 0.83339 0.4459 0.0
H457 H 0.56977 0.90794 0.43504 0.0
H458 H 0.50195 0.84478 0.41949 0.0
H459 H 0.53295 0.92012 0.4101 0.0
H460 H 0.46318 0.94097 0.36926 0.0
H461 H 0.50369 0.91994 0.37681 0.0
H462 H 0.46689 0.86901 0.42962 0.0
H463 H 0.42666 0.88908 0.42116 0.0
C464 C 0.53753 0.85205 0.43732 0.0
C465 C 0.5565 0.86989 0.44266 0.0
C466 C 0.51669 0.85873 0.42243 0.0
C467 C 0.51397 0.88367 0.41329 0.0
C468 C 0.53426 0.90072 0.41667 0.0
C469 C 0.55545 0.89379 0.43104 0.0
C470 C 0.4637 0.92485 0.38198 0.0
C471 C 0.44172 0.91697 0.39489 0.0
C472 C 0.48699 0.91288 0.38646 0.0
C473 C 0.48884 0.89295 0.40414 0.0
C474 C 0.46642 0.88402 0.41561 0.0
C475 C 0.44319 0.89574 0.41092 0.0
H476 H 0.46832 0.64381 0.45797 0.0
H477 H 0.42896 0.57463 0.43948 0.0
H478 H 0.5037 0.63107 0.4311 0.0
H479 H 0.46484 0.561 0.41385 0.0
H480 H 0.53233 0.53817 0.36994 0.0
H481 H 0.49422 0.56224 0.38035 0.0
H482 H 0.53567 0.60173 0.43896 0.0
H483 H 0.57368 0.57864 0.42781 0.0
C484 C 0.46706 0.62609 0.44768 0.0
C485 C 0.44612 0.61003 0.45099 0.0
C486 C 0.48743 0.61864 0.43248 0.0
C487 C 0.48757 0.59464 0.42087 0.0
C488 C 0.4655 0.57965 0.42236 0.0
C489 C 0.44486 0.58741 0.43712 0.0
C490 C 0.53337 0.55243 0.38466 0.0
C491 C 0.55595 0.55625 0.39829 0.0
C492 C 0.51148 0.56614 0.39073 0.0
C493 C 0.51163 0.58375 0.41074 0.0
C494 C 0.53471 0.58865 0.4232 0.0
C495 C 0.55662 0.5752 0.41693 0.0
H496 H 0.06795 0.43033 0.09638 0.0
H497 H 0.1265 0.471 0.05593 0.0
H498 H 0.05786 0.46806 0.12014 0.0
H499 H 0.11721 0.50886 0.08081 0.0
H500 H 0.06054 0.57562 0.09529 0.0
H501 H 0.08494 0.53929 0.08075 0.0
H502 H 0.066 0.49914 0.14982 0.0
H503 H 0.04022 0.53499 0.16337 0.0
C504 C 0.07923 0.44716 0.09306 0.0
C505 C 0.09774 0.44771 0.0739 0.0
C506 C 0.07357 0.46893 0.10694 0.0
C507 C 0.08652 0.49181 0.10233 0.0
C508 C 0.10643 0.4918 0.08451 0.0
C509 C 0.1119 0.47002 0.07035 0.0
C510 C 0.06222 0.55928 0.10764 0.0
C511 C 0.0482 0.55789 0.13022 0.0
C512 C 0.07631 0.53837 0.09936 0.0
C513 C 0.077 0.51587 0.11378 0.0
C514 C 0.06521 0.51574 0.13776 0.0
C515 C 0.05064 0.53637 0.14569 0.0
H516 H 0.02245 0.46517 0.35407 0.0
H517 H 0.03422 0.43016 0.42711 0.0
H518 H 0.05286 0.49818 0.36478 0.0
H519 H 0.0635 0.46383 0.43854 0.0
H520 H 0.11233 0.52796 0.45848 0.0
H521 H 0.10014 0.48949 0.43601 0.0
H522 H 0.04675 0.53297 0.39146 0.0
H523 H 0.05958 0.5712 0.41304 0.0
C524 C 0.03201 0.46427 0.37223 0.0
C525 C 0.02574 0.4454 0.38995 0.0
C526 C 0.04928 0.48328 0.37847 0.0
C527 C 0.0601 0.48418 0.40282 0.0
C528 C 0.05567 0.46382 0.41957 0.0
C529 C 0.03878 0.44448 0.41309 0.0
C530 C 0.09849 0.52936 0.44339 0.0
C531 C 0.08657 0.55259 0.43789 0.0
C532 C 0.09139 0.50726 0.43061 0.0
C533 C 0.07213 0.50792 0.41219 0.0
C534 C 0.06182 0.53157 0.40531 0.0
C535 C 0.06905 0.55363 0.4179 0.0
H536 H 0.88448 0.9496 0.46616 0.0
H537 H 0.94188 0.91249 0.4209 0.0
H538 H 0.89271 0.98931 0.4439 0.0
H539 H 0.95076 0.95206 0.39949 0.0
H540 H 0.96461 0.02208 0.35965 0.0
H541 H 0.93971 0.98523 0.37209 0.0
H542 H 0.92585 0.01947 0.4453 0.0
H543 H 0.9496 0.05679 0.43221 0.0
C544 C 0.89862 0.94982 0.45124 0.0
C545 C 0.91278 0.92794 0.44555 0.0
C546 C 0.90342 0.97263 0.43856 0.0
C547 C 0.9226 0.97408 0.42005 0.0
C548 C 0.93559 0.95175 0.41334 0.0
C549 C 0.93065 0.92896 0.42582 0.0
C550 C 0.9555 0.02201 0.37808 0.0
C551 C 0.9593 0.04208 0.39512 0.0
C552 C 0.94142 0.00081 0.38532 0.0
C553 C 0.93137 0.99897 0.40998 0.0
C554 C 0.9332 0.02015 0.42613 0.0
C555 C 0.94688 0.0416 0.41867 0.0
H556 H 0.37225 0.5371 0.54663 0.0
H557 H 0.43492 0.57209 0.58599 0.0
H558 H 0.38027 0.49749 0.56913 0.0
H559 H 0.44347 0.53255 0.60766 0.0
H560 H 0.4347 0.42734 0.57816 0.0
H561 H 0.41189 0.46556 0.56583 0.0
H562 H 0.43256 0.50072 0.6369 0.0
H563 H 0.45643 0.4629 0.64848 0.0
C564 C 0.38752 0.53646 0.56033 0.0
C565 C 0.40316 0.55769 0.56426 0.0
C566 C 0.39219 0.51369 0.57314 0.0
C567 C 0.41268 0.51163 0.59004 0.0
C568 C 0.42729 0.53338 0.59508 0.0
C569 C 0.42251 0.55613 0.58245 0.0
C570 C 0.43364 0.44295 0.59145 0.0
C571 C 0.44763 0.44239 0.61404 0.0
C572 C 0.42053 0.46492 0.58443 0.0
C573 C 0.4209 0.48654 0.6001 0.0
C574 C 0.43254 0.48475 0.62401 0.0
C575 C 0.44602 0.46301 0.63077 0.0
H576 H 0.56083 0.56586 0.05514 0.0
H577 H 0.63097 0.54975 0.0161 0.0
H578 H 0.54442 0.58647 0.01706 0.0
H579 H 0.61511 0.57122 0.97841 0.0
H580 H 0.56191 0.56237 0.91005 0.0
H581 H 0.58424 0.55538 0.94944 0.0
H582 H 0.5444 0.61829 0.98362 0.0
H583 H 0.52135 0.62504 0.94398 0.0
C584 C 0.57313 0.56771 0.03877 0.0
C585 C 0.59698 0.55587 0.03837 0.0
C586 C 0.56374 0.57951 0.01691 0.0
C587 C 0.57821 0.57988 0.99445 0.0
C588 C 0.60319 0.57057 0.99514 0.0
C589 C 0.61238 0.55848 0.01679 0.0
C590 C 0.558 0.57495 0.92579 0.0
C591 C 0.53962 0.59414 0.92382 0.0
C592 C 0.57108 0.5711 0.94842 0.0
C593 C 0.56624 0.58636 0.96974 0.0
C594 C 0.54845 0.6061 0.9676 0.0
C595 C 0.53531 0.61 0.94485 0.0
H596 H 0.41645 0.94071 0.06706 0.0
H597 H 0.37694 0.98797 0.013 0.0
H598 H 0.43109 0.91361 0.0324 0.0
H599 H 0.39223 0.96194 0.97871 0.0
H600 H 0.41813 0.91429 0.91749 0.0
H601 H 0.39387 0.92445 0.9555 0.0
H602 H 0.46218 0.91846 0.0004 0.0
H603 H 0.48596 0.90693 0.96266 0.0
C604 C 0.41054 0.94507 0.04789 0.0
C605 C 0.39589 0.96675 0.04277 0.0
C606 C 0.41907 0.92966 0.02799 0.0
C607 C 0.41316 0.93569 0.00264 0.0
C608 C 0.39701 0.95636 0.99788 0.0
C609 C 0.38842 0.97158 0.01766 0.0
C610 C 0.42777 0.91453 0.93561 0.0
C611 C 0.454 0.91028 0.93705 0.0
C612 C 0.41392 0.92049 0.95741 0.0
C613 C 0.42614 0.92295 0.981 0.0
C614 C 0.45201 0.91664 0.98268 0.0
C615 C 0.46575 0.91018 0.96095 0.0
H616 H 0.54112 0.36713 0.53868 0.0
H617 H 0.57925 0.42935 0.5757 0.0
H618 H 0.56334 0.37694 0.4993 0.0
H619 H 0.60054 0.43981 0.53634 0.0
H620 H 0.57215 0.43161 0.42989 0.0
H621 H 0.55975 0.40869 0.46804 0.0
H622 H 0.62977 0.43117 0.50419 0.0
H623 H 0.64135 0.45517 0.46644 0.0
C624 C 0.55449 0.38271 0.53851 0.0
C625 C 0.5582 0.39764 0.56028 0.0
C626 C 0.56711 0.38844 0.51586 0.0
C627 C 0.58355 0.40937 0.51441 0.0
C628 C 0.58834 0.42332 0.53666 0.0
C629 C 0.57596 0.41742 0.55932 0.0
C630 C 0.58517 0.43102 0.44575 0.0
C631 C 0.6075 0.44545 0.44539 0.0
C632 C 0.57812 0.41783 0.46769 0.0
C633 C 0.59349 0.41851 0.48953 0.0
C634 C 0.61707 0.43086 0.48807 0.0
C635 C 0.62385 0.44443 0.46636 0.0
H636 H 0.40591 0.07117 0.57944 0.0
H637 H 0.46948 0.09045 0.53144 0.0
H638 H 0.38173 0.05853 0.54219 0.0
H639 H 0.44601 0.07657 0.49447 0.0
H640 H 0.40101 0.04975 0.4291 0.0
H641 H 0.4131 0.07755 0.46414 0.0
H642 H 0.38487 0.02201 0.51757 0.0
H643 H 0.37199 0.99517 0.48298 0.0
C644 C 0.41459 0.07302 0.56089 0.0
C645 C 0.43974 0.08133 0.55842 0.0
C646 C 0.4008 0.06565 0.53953 0.0
C647 C 0.4121 0.06588 0.51531 0.0
C648 C 0.43654 0.07621 0.5127 0.0
C649 C 0.45014 0.08403 0.53401 0.0
C650 C 0.39687 0.04385 0.44835 0.0
C651 C 0.38593 0.02006 0.45324 0.0
C652 C 0.40394 0.05969 0.46845 0.0
C653 C 0.40026 0.05198 0.49379 0.0
C654 C 0.38778 0.0289 0.49843 0.0
C655 C 0.38062 0.01325 0.47847 0.0
H656 H 0.01661 0.63587 0.53891 0.0
H657 H 0.05433 0.56661 0.56081 0.0
H658 H 0.9782 0.62191 0.56046 0.0
H659 H 0.01557 0.55207 0.58152 0.0
H660 H 0.94169 0.53201 0.61952 0.0
H661 H 0.98151 0.55455 0.61239 0.0
H662 H 0.94917 0.59036 0.54614 0.0
H663 H 0.90952 0.56853 0.55351 0.0
C664 C 0.01684 0.61792 0.54891 0.0
C665 C 0.03827 0.60215 0.54792 0.0
C666 C 0.99479 0.60981 0.56106 0.0
C667 C 0.99356 0.58555 0.57205 0.0
C668 C 0.01583 0.57086 0.57325 0.0
C669 C 0.03808 0.57918 0.56139 0.0
C670 C 0.94298 0.545 0.60365 0.0
C671 C 0.92241 0.54828 0.58696 0.0
C672 C 0.96585 0.55784 0.59954 0.0
C673 C 0.96858 0.57429 0.57873 0.0
C674 C 0.94768 0.57823 0.56266 0.0
C675 C 0.92491 0.56545 0.56674 0.0
H676 H 0.98206 0.83655 0.54378 0.0
H677 H 0.94712 0.90665 0.56729 0.0
H678 H 0.02038 0.8476 0.567 0.0
H679 H 0.98584 0.91851 0.58942 0.0
H680 H 0.05844 0.93714 0.62726 0.0
H681 H 0.01857 0.9149 0.62007 0.0
H682 H 0.05206 0.87669 0.5557 0.0
H683 H 0.09185 0.89808 0.56341 0.0
C684 C 0.98242 0.85408 0.55447 0.0
C685 C 0.96181 0.8709 0.55354 0.0
C686 C 0.00445 0.86055 0.56756 0.0
C687 C 0.00657 0.8843 0.57946 0.0
C688 C 0.98498 0.90003 0.58055 0.0
C689 C 0.96271 0.89328 0.56784 0.0
C690 C 0.05741 0.92355 0.61191 0.0
C691 C 0.07827 0.91965 0.59569 0.0
C692 C 0.03449 0.9109 0.60772 0.0
C693 C 0.03189 0.89416 0.58715 0.0
C694 C 0.05329 0.88913 0.57196 0.0
C695 C 0.0762 0.9016 0.57626 0.0
H696 H 0.06302 0.43527 0.94984 0.0
H697 H 0.0244 0.36658 0.9719 0.0
H698 H 0.02523 0.44946 0.92754 0.0
H699 H 0.98694 0.38004 0.9485 0.0
H700 H 0.91792 0.434 0.95092 0.0
H701 H 0.95643 0.41054 0.95937 0.0
H702 H 0.99325 0.44773 0.89614 0.0
H703 H 0.95472 0.47207 0.88829 0.0
C704 C 0.04677 0.42275 0.94904 0.0
C705 C 0.04642 0.40008 0.96296 0.0
C706 C 0.02505 0.43083 0.93618 0.0
C707 C 0.00274 0.41616 0.93671 0.0
C708 C 0.00348 0.39218 0.94837 0.0
C709 C 0.025 0.38436 0.9616 0.0
C710 C 0.93404 0.43688 0.9385 0.0
C711 C 0.93336 0.45523 0.91921 0.0
C712 C 0.95619 0.42322 0.94321 0.0
C713 C 0.97814 0.42734 0.92856 0.0
C714 C 0.97687 0.44442 0.9081 0.0
C715 C 0.95474 0.45829 0.90354 0.0
H716 H 0.05161 0.04905 0.88161 0.0
H717 H 0.0901 0.09528 0.9371 0.0
H718 H 0.0126 0.07282 0.88894 0.0
H719 H 0.05124 0.11814 0.94518 0.0
H720 H 0.98244 0.15933 0.95948 0.0
H721 H 0.01862 0.14578 0.93411 0.0
H722 H 0.98243 0.07327 0.92192 0.0
H723 H 0.94574 0.08756 0.946 0.0
C724 C 0.05187 0.06452 0.89509 0.0
C725 C 0.0739 0.07 0.90905 0.0
C726 C 0.02944 0.07805 0.89941 0.0
C727 C 0.02852 0.09723 0.91791 0.0
C728 C 0.05109 0.10379 0.93054 0.0
C729 C 0.0735 0.09046 0.92605 0.0
C730 C 0.98192 0.14084 0.95056 0.0
C731 C 0.96151 0.12434 0.95493 0.0
C732 C 0.00275 0.13295 0.93624 0.0
C733 C 0.0039 0.10812 0.92659 0.0
C734 C 0.98232 0.09254 0.92894 0.0
C735 C 0.96121 0.10069 0.94282 0.0
H736 H 0.56353 0.0511 0.57773 0.0
H737 H 0.53832 0.01153 0.64482 0.0
H738 H 0.58664 0.01353 0.56415 0.0
H739 H 0.56257 0.97432 0.63213 0.0
H740 H 0.5629 0.90585 0.57794 0.0
H741 H 0.55326 0.94421 0.60105 0.0
H742 H 0.61778 0.98136 0.56659 0.0
H743 H 0.62685 0.94294 0.54251 0.0
C744 C 0.56384 0.03469 0.5901 0.0
C745 C 0.54883 0.034 0.61207 0.0
C746 C 0.57715 0.01309 0.58237 0.0
C747 C 0.57598 0.99058 0.59673 0.0
C748 C 0.56322 0.99101 0.62018 0.0
C749 C 0.54952 0.01239 0.6276 0.0
C750 C 0.57533 0.92201 0.57557 0.0
C751 C 0.5954 0.92141 0.55806 0.0
C752 C 0.56994 0.94408 0.58906 0.0
C753 C 0.58464 0.96609 0.58564 0.0
C754 C 0.60577 0.96495 0.56936 0.0
C755 C 0.61104 0.94287 0.55565 0.0
H756 H 0.56416 0.09424 0.91123 0.0
H757 H 0.63142 0.06066 0.94381 0.0
H758 H 0.55615 0.05572 0.88789 0.0
H759 H 0.62403 0.02213 0.91937 0.0
H760 H 0.54263 0.98789 0.84492 0.0
H761 H 0.56543 0.02632 0.85645 0.0
H762 H 0.59545 0.98813 0.92258 0.0
H763 H 0.5739 0.94939 0.90998 0.0
C764 C 0.57767 0.07885 0.91287 0.0
C765 C 0.59818 0.0804 0.92973 0.0
C766 C 0.57321 0.05669 0.89923 0.0
C767 C 0.58933 0.03556 0.90181 0.0
C768 C 0.61092 0.0378 0.9173 0.0
C769 C 0.61523 0.05994 0.93121 0.0
C770 C 0.55484 0.98757 0.86142 0.0
C771 C 0.55631 0.96587 0.87676 0.0
C772 C 0.56771 0.00964 0.86821 0.0
C773 C 0.58168 0.01067 0.8909 0.0
C774 C 0.58498 0.98816 0.90494 0.0
C775 C 0.57257 0.96588 0.89778 0.0
H776 H 0.41252 0.56732 0.84161 0.0
H777 H 0.4829 0.55556 0.88138 0.0
H778 H 0.39779 0.52528 0.85567 0.0
H779 H 0.46895 0.51351 0.89428 0.0
H780 H 0.44655 0.43127 0.89321 0.0
H781 H 0.45709 0.47087 0.87183 0.0
H782 H 0.38875 0.50511 0.90105 0.0
H783 H 0.37813 0.4655 0.9228 0.0
C784 C 0.425 0.5555 0.85286 0.0
C785 C 0.44929 0.56409 0.85948 0.0
C786 C 0.4166 0.5316 0.86091 0.0
C787 C 0.43249 0.516 0.87556 0.0
C788 C 0.45663 0.52484 0.88236 0.0
C789 C 0.46475 0.5488 0.87475 0.0
C790 C 0.43346 0.44702 0.89473 0.0
C791 C 0.41163 0.44529 0.90999 0.0
C792 C 0.43958 0.46971 0.88254 0.0
C793 C 0.42384 0.49103 0.88502 0.0
C794 C 0.40114 0.48888 0.89879 0.0
C795 C 0.39515 0.46624 0.91131 0.0
H796 H 0.88577 0.05636 0.05622 0.0
H797 H 0.95238 0.09107 0.08875 0.0
H798 H 0.89383 0.01797 0.08077 0.0
H799 H 0.96106 0.05268 0.11223 0.0
H800 H 0.97451 0.98519 0.15659 0.0
H801 H 0.95195 0.02346 0.14396 0.0
H802 H 0.9229 0.98425 0.07812 0.0
H803 H 0.94424 0.94566 0.0918 0.0
C804 C 0.90196 0.05592 0.06883 0.0
C805 C 0.9186 0.07668 0.0703 0.0
C806 C 0.90667 0.03384 0.0828 0.0
C807 C 0.92826 0.03198 0.09834 0.0
C808 C 0.94402 0.05336 0.10084 0.0
C809 C 0.93915 0.07546 0.08714 0.0
C810 C 0.9626 0.98463 0.13987 0.0
C811 C 0.9613 0.96264 0.12499 0.0
C812 C 0.94987 0.00661 0.13246 0.0
C813 C 0.93616 0.00728 0.1096 0.0
C814 C 0.93314 0.98456 0.09589 0.0
C815 C 0.94543 0.96237 0.10367 0.0
H816 H 0.00857 0.18294 0.35206 0.0
H817 H 0.97291 0.18263 0.42591 0.0
H818 H 0.00297 0.22906 0.34972 0.0
H819 H 0.96724 0.22824 0.42344 0.0
H820 H 0.9939 0.30959 0.42692 0.0
H821 H 0.99793 0.26382 0.42501 0.0
H822 H 0.96929 0.26424 0.34835 0.0
H823 H 0.9653 0.31059 0.35015 0.0
C824 C 0.9993 0.19262 0.36762 0.0
C825 C 0.99143 0.17915 0.38929 0.0
C826 C 0.99603 0.21899 0.36623 0.0
C827 C 0.98499 0.23228 0.38655 0.0
C828 C 0.97626 0.2186 0.40769 0.0
C829 C 0.97942 0.1924 0.40904 0.0
C830 C 0.9885 0.30006 0.40957 0.0
C831 C 0.97911 0.31377 0.38873 0.0
C832 C 0.99069 0.27376 0.40855 0.0
C833 C 0.98363 0.2604 0.38665 0.0
C834 C 0.9749 0.27407 0.36547 0.0
C835 C 0.97254 0.30055 0.36654 0.0
H836 H 0.97095 0.69154 0.17384 0.0
H837 H 0.04304 0.70096 0.1361 0.0
H838 H 0.96825 0.73753 0.17999 0.0
H839 H 0.04058 0.74667 0.14273 0.0
H840 H 0.03433 0.82803 0.16837 0.0
H841 H 0.0373 0.78248 0.17711 0.0
H842 H 0.96351 0.77137 0.14367 0.0
H843 H 0.96073 0.81665 0.13448 0.0
C844 C 0.98655 0.70334 0.16757 0.0
C845 C 0.00712 0.69275 0.15433 0.0
C846 C 0.98495 0.72961 0.171 0.0
C847 C 0.00418 0.7456 0.16179 0.0
C848 C 0.0256 0.73477 0.15022 0.0
C849 C 0.02694 0.70863 0.14631 0.0
C850 C 0.0185 0.81593 0.16347 0.0
C851 C 0.99739 0.82581 0.15056 0.0
C852 C 0.02025 0.7899 0.16839 0.0
C853 C 0.00065 0.77346 0.16102 0.0
C854 C 0.97878 0.78365 0.14976 0.0
C855 C 0.97727 0.80954 0.14437 0.0
H856 H 0.39156 0.96252 0.18478 0.0
H857 H 0.3512 0.0337 0.18221 0.0
H858 H 0.38309 0.95929 0.23024 0.0
H859 H 0.34331 0.03075 0.22801 0.0
H860 H 0.38407 0.02861 0.31045 0.0
H861 H 0.37877 0.03157 0.26451 0.0
H862 H 0.34477 0.95722 0.26369 0.0
H863 H 0.34946 0.95448 0.3099 0.0
C864 C 0.38053 0.97726 0.19389 0.0
C865 C 0.37212 0.99841 0.18003 0.0
C866 C 0.37556 0.97533 0.21984 0.0
C867 C 0.36257 0.99477 0.23256 0.0
C868 C 0.35334 0.0155 0.21857 0.0
C869 C 0.35779 0.01714 0.19242 0.0
C870 C 0.3749 0.01316 0.30055 0.0
C871 C 0.36726 0.99128 0.31369 0.0
C872 C 0.37176 0.01492 0.2743 0.0
C873 C 0.36141 0.9946 0.26063 0.0
C874 C 0.35278 0.97313 0.27386 0.0
C875 C 0.35539 0.97162 0.30025 0.0
H876 H 0.65268 0.49457 0.17181 0.0
H877 H 0.58036 0.53051 0.18616 0.0
H878 H 0.65774 0.48712 0.21757 0.0
H879 H 0.58538 0.52267 0.23132 0.0
H880 H 0.58459 0.46696 0.29764 0.0
H881 H 0.58773 0.47487 0.2523 0.0
H882 H 0.65715 0.51641 0.26372 0.0
H883 H 0.65395 0.50888 0.30964 0.0
C884 C 0.63814 0.50128 0.18468 0.0
C885 C 0.616 0.51291 0.17532 0.0
C886 C 0.64106 0.497 0.21078 0.0
C887 C 0.62176 0.50403 0.22773 0.0
C888 C 0.60037 0.51683 0.21851 0.0
C889 C 0.59758 0.52137 0.19264 0.0
C890 C 0.6008 0.47743 0.2906 0.0
C891 C 0.61887 0.48754 0.30732 0.0
C892 C 0.60251 0.482 0.26463 0.0
C893 C 0.62248 0.49649 0.25472 0.0
C894 C 0.64157 0.5052 0.27105 0.0
C895 C 0.6397 0.50088 0.29724 0.0
H896 H 0.31303 0.3965 0.01837 0.0
H897 H 0.31226 0.35807 0.94614 0.0
H898 H 0.26729 0.3903 0.02235 0.0
H899 H 0.2661 0.35262 0.94978 0.0
H900 H 0.18602 0.39976 0.95704 0.0
H901 H 0.23151 0.39217 0.95216 0.0
H902 H 0.23235 0.35134 0.02309 0.0
H903 H 0.18652 0.35822 0.02765 0.0
C904 C 0.30309 0.38642 0.00352 0.0
C905 C 0.31608 0.37783 0.98191 0.0
C906 C 0.27699 0.38274 0.00588 0.0
C907 C 0.26331 0.37095 0.98639 0.0
C908 C 0.27635 0.36166 0.96509 0.0
C909 C 0.30266 0.36474 0.96304 0.0
C910 C 0.19581 0.38864 0.97127 0.0
C911 C 0.18284 0.37966 0.99277 0.0
C912 C 0.22175 0.38418 0.9684 0.0
C913 C 0.2353 0.37119 0.98725 0.0
C914 C 0.2222 0.36133 0.00828 0.0
C915 C 0.19606 0.36523 0.01084 0.0
H916 H 0.17449 0.6531 0.49096 0.0
H917 H 0.18585 0.58168 0.52963 0.0
H918 H 0.22068 0.65817 0.48723 0.0
H919 H 0.23149 0.5867 0.52553 0.0
H920 H 0.30264 0.58498 0.47633 0.0
H921 H 0.25686 0.58737 0.48097 0.0
H922 H 0.26388 0.65936 0.51896 0.0
H923 H 0.31027 0.65695 0.5147 0.0
C924 C 0.18676 0.63874 0.49901 0.0
C925 C 0.17649 0.61686 0.51036 0.0
C926 C 0.21312 0.64168 0.49689 0.0
C927 C 0.22946 0.62264 0.5058 0.0
C928 C 0.21921 0.60149 0.51825 0.0
C929 C 0.19305 0.59869 0.52064 0.0
C930 C 0.29456 0.60154 0.4854 0.0
C931 C 0.31015 0.62066 0.49538 0.0
C932 C 0.26833 0.60282 0.4881 0.0
C933 C 0.25699 0.62337 0.50059 0.0
C934 C 0.27229 0.64332 0.50929 0.0
C935 C 0.29875 0.6419 0.50685 0.0
H936 H 0.70014 0.89567 0.47481 0.0
H937 H 0.68912 0.82207 0.50924 0.0
H938 H 0.74557 0.89208 0.48163 0.0
H939 H 0.73517 0.81845 0.51567 0.0
H940 H 0.82612 0.82469 0.49122 0.0
H941 H 0.78006 0.82067 0.48535 0.0
H942 H 0.7686 0.88949 0.5279 0.0
H943 H 0.8141 0.89343 0.53416 0.0
C944 C 0.70741 0.87851 0.48345 0.0
C945 C 0.69094 0.85924 0.4917 0.0
C946 C 0.73344 0.87654 0.48742 0.0
C947 C 0.74371 0.85514 0.49942 0.0
C948 C 0.72759 0.83514 0.5064 0.0
C949 C 0.70132 0.83725 0.50272 0.0
C950 C 0.81371 0.83864 0.49977 0.0
C951 C 0.8238 0.85952 0.51294 0.0
C952 C 0.78742 0.8363 0.49641 0.0
C953 C 0.77098 0.85496 0.50591 0.0
C954 C 0.78098 0.87502 0.52017 0.0
C955 C 0.80705 0.87719 0.52379 0.0
H956 H 0.54878 0.8178 0.86974 0.0
H957 H 0.47471 0.83584 0.83987 0.0
H958 H 0.54076 0.77277 0.86259 0.0
H959 H 0.46654 0.79065 0.83322 0.0
H960 H 0.45419 0.71136 0.87629 0.0
H961 H 0.46211 0.75651 0.86982 0.0
H962 H 0.52973 0.73876 0.82719 0.0
H963 H 0.52153 0.69339 0.83317 0.0
C964 C 0.53103 0.81217 0.86112 0.0
C965 C 0.51231 0.83028 0.8555 0.0
C966 C 0.52649 0.78643 0.85694 0.0
C967 C 0.50298 0.77832 0.84751 0.0
C968 C 0.48478 0.79649 0.84059 0.0
C969 C 0.48952 0.82231 0.84428 0.0
C970 C 0.4705 0.71707 0.86516 0.0
C971 C 0.48732 0.69891 0.85534 0.0
C972 C 0.47492 0.74288 0.86131 0.0
C973 C 0.4965 0.75103 0.84799 0.0
C974 C 0.51295 0.73289 0.83751 0.0
C975 C 0.50822 0.707 0.84089 0.0
H976 H 0.50844 0.30631 0.66024 0.0
H977 H 0.47064 0.29626 0.58824 0.0
H978 H 0.51351 0.26011 0.66382 0.0
H979 H 0.47611 0.25064 0.59177 0.0
H980 H 0.52732 0.18086 0.58843 0.0
H981 H 0.52172 0.22644 0.59224 0.0
H982 H 0.48228 0.21612 0.6632 0.0
H983 H 0.48748 0.16996 0.65933 0.0
C984 C 0.50088 0.2943 0.64543 0.0
C985 C 0.48934 0.30497 0.62385 0.0
C986 C 0.50378 0.26794 0.64752 0.0
C987 C 0.49548 0.25202 0.6279 0.0
C988 C 0.48291 0.26261 0.607 0.0
C989 C 0.47972 0.28875 0.60506 0.0
C990 C 0.51775 0.18817 0.60508 0.0
C991 C 0.50761 0.17173 0.62346 0.0
C992 C 0.5145 0.21429 0.60717 0.0
C993 C 0.50133 0.22463 0.62784 0.0
C994 C 0.49248 0.20848 0.64709 0.0
C995 C 0.49545 0.18215 0.64483 0.0
H996 H 0.83362 0.50224 0.83117 0.0
H997 H 0.90313 0.5436 0.81792 0.0
H998 H 0.82963 0.49488 0.7854 0.0
H999 H 0.89916 0.53604 0.77263 0.0
H1000 H 0.90437 0.48311 0.70426 0.0
H1001 H 0.90267 0.49287 0.7493 0.0
H1002 H 0.82578 0.51962 0.7411 0.0
H1003 H 0.82744 0.51005 0.69557 0.0
C1004 C 0.84775 0.51015 0.81852 0.0
C1005 C 0.86884 0.52326 0.82821 0.0
C1006 C 0.84545 0.50593 0.79238 0.0
C1007 C 0.86432 0.51455 0.77564 0.0
C1008 C 0.88457 0.52885 0.78521 0.0
C1009 C 0.88675 0.53326 0.81117 0.0
C1010 C 0.88699 0.49088 0.71198 0.0
C1011 C 0.86609 0.49594 0.69629 0.0
C1012 C 0.8861 0.49661 0.73776 0.0
C1013 C 0.86421 0.50727 0.74854 0.0
C1014 C 0.84288 0.51144 0.73318 0.0
C1015 C 0.84388 0.506 0.70718 0.0
H1016 H 0.10198 0.01087 0.69373 0.0
H1017 H 0.17632 0.97652 0.68991 0.0
H1018 H 0.10413 0.01066 0.73975 0.0
H1019 H 0.17845 0.97661 0.73649 0.0
H1020 H 0.17315 0.01023 0.82227 0.0
H1021 H 0.17701 0.00964 0.77581 0.0
H1022 H 0.10456 0.97213 0.77055 0.0
H1023 H 0.1007 0.97243 0.81648 0.0
C1024 C 0.11895 0.00353 0.70267 0.0
C1025 C 0.1389 0.9935 0.6881 0.0
C1026 C 0.1201 0.00333 0.72907 0.0
C1027 C 0.1413 0.9933 0.74163 0.0
C1028 C 0.16188 0.9844 0.72721 0.0
C1029 C 0.16062 0.98434 0.70061 0.0
C1030 C 0.15827 0.00151 0.81117 0.0
C1031 C 0.13651 0.99159 0.82308 0.0
C1032 C 0.16051 0.00115 0.78464 0.0
C1033 C 0.14091 0.99117 0.76967 0.0
C1034 C 0.11977 0.98029 0.78166 0.0
C1035 C 0.11765 0.98039 0.80801 0.0
H1036 H 0.82589 0.17449 0.01382 0.0
H1037 H 0.81779 0.10095 0.9787 0.0
H1038 H 0.77948 0.17858 0.01555 0.0
H1039 H 0.77196 0.10503 0.9807 0.0
H1040 H 0.69743 0.1037 0.02302 0.0
H1041 H 0.74338 0.10615 0.02121 0.0
H1042 H 0.7385 0.17888 0.98403 0.0
H1043 H 0.69197 0.17645 0.98557 0.0
C1044 C 0.81428 0.15941 0.00618 0.0
C1045 C 0.82553 0.13729 0.99635 0.0
C1046 C 0.78779 0.16178 0.00716 0.0
C1047 C 0.77226 0.14194 0.99861 0.0
C1048 C 0.78354 0.12043 0.98778 0.0
C1049 C 0.80983 0.11817 0.98656 0.0
C1050 C 0.70601 0.12041 0.0147 0.0
C1051 C 0.691 0.13976 0.00418 0.0
C1052 C 0.73236 0.12174 0.0136 0.0
C1053 C 0.74441 0.14251 0.00215 0.0
C1054 C 0.72959 0.16264 0.99291 0.0
C1055 C 0.70303 0.16121 0.99379 0.0
H1056 H 0.04408 0.92757 0.22873 0.0
H1057 H 0.07997 0.98612 0.18401 0.0
H1058 H 0.04917 0.95343 0.26665 0.0
H1059 H 0.08545 0.01178 0.22198 0.0
H1060 H 0.04988 0.06238 0.28547 0.0
H1061 H 0.05595 0.03552 0.24832 0.0
H1062 H 0.07762 0.97316 0.29687 0.0
H1063 H 0.07111 0.99983 0.33397 0.0
C1064 C 0.05368 0.94564 0.2271 0.0
C1065 C 0.06138 0.95487 0.20332 0.0
C1066 C 0.05664 0.96049 0.24886 0.0
C1067 C 0.06743 0.98486 0.24729 0.0
C1068 C 0.07662 0.99333 0.22375 0.0
C1069 C 0.07365 0.97851 0.20202 0.0
C1070 C 0.05641 0.04309 0.28817 0.0
C1071 C 0.05977 0.03319 0.31266 0.0
C1072 C 0.05998 0.02768 0.26687 0.0
C1073 C 0.06705 0.00207 0.26963 0.0
C1074 C 0.07175 0.99264 0.2941 0.0
C1075 C 0.06815 0.00801 0.31535 0.0
H1076 H 0.93677 0.43969 0.28387 0.0
H1077 H 0.91439 0.50154 0.33259 0.0
H1078 H 0.93617 0.46817 0.24747 0.0
H1079 H 0.91298 0.52989 0.29613 0.0
H1080 H 0.95504 0.57702 0.23465 0.0
H1081 H 0.9445 0.5496 0.27034 0.0
H1082 H 0.9131 0.49438 0.2187 0.0
H1083 H 0.92439 0.52147 0.18302 0.0
C1084 C 0.931 0.45919 0.28668 0.0
C1085 C 0.9259 0.46842 0.31112 0.0
C1086 C 0.93059 0.47558 0.26579 0.0
C1087 C 0.92486 0.50148 0.26889 0.0
C1088 C 0.91804 0.51022 0.29313 0.0
C1089 C 0.91866 0.49391 0.314 0.0
C1090 C 0.94546 0.55925 0.23097 0.0
C1091 C 0.9408 0.55131 0.20602 0.0
C1092 C 0.9393 0.54351 0.25145 0.0
C1093 C 0.92816 0.51959 0.24742 0.0
C1094 C 0.92214 0.5124 0.22249 0.0
C1095 C 0.92846 0.52803 0.20204 0.0
H1096 H 0.18262 0.07482 0.99725 0.0
H1097 H 0.23072 0.04779 0.93663 0.0
H1098 H 0.21976 0.08171 0.02374 0.0
H1099 H 0.26789 0.05436 0.9633 0.0
H1100 H 0.33244 0.08061 0.01148 0.0
H1101 H 0.29477 0.08503 0.98519 0.0
H1102 H 0.24916 0.0532 0.04541 0.0
H1103 H 0.28683 0.04909 0.07189 0.0
C1104 C 0.20116 0.07068 0.98942 0.0
C1105 C 0.20371 0.06056 0.96487 0.0
C1106 C 0.22243 0.0745 0.0047 0.0
C1107 C 0.24676 0.06834 0.99577 0.0
C1108 C 0.24943 0.05951 0.97071 0.0
C1109 C 0.22812 0.05567 0.95541 0.0
C1110 C 0.3143 0.075 0.01933 0.0
C1111 C 0.31266 0.06429 0.04373 0.0
C1112 C 0.29274 0.07738 0.00416 0.0
C1113 C 0.26902 0.06917 0.01305 0.0
C1114 C 0.26712 0.05988 0.03803 0.0
C1115 C 0.28873 0.05747 0.05322 0.0
H1116 H 0.67018 0.44524 0.00621 0.0
H1117 H 0.71112 0.47757 0.06926 0.0
H1118 H 0.7096 0.44127 0.98246 0.0
H1119 H 0.75054 0.47406 0.04529 0.0
H1120 H 0.82053 0.45368 0.00186 0.0
H1121 H 0.78181 0.44634 0.02597 0.0
H1122 H 0.7374 0.47168 0.96197 0.0
H1123 H 0.77616 0.47855 0.93766 0.0
C1124 C 0.68766 0.45119 0.01515 0.0
C1125 C 0.68752 0.46193 0.03955 0.0
C1126 C 0.71023 0.44906 0.00145 0.0
C1127 C 0.73317 0.45764 0.01181 0.0
C1128 C 0.73323 0.46707 0.03679 0.0
C1129 C 0.71063 0.46915 0.05055 0.0
C1130 C 0.80248 0.45728 0.99276 0.0
C1131 C 0.8014 0.4669 0.9679 0.0
C1132 C 0.7803 0.45321 0.00667 0.0
C1133 C 0.75653 0.45869 0.99603 0.0
C1134 C 0.7554 0.46704 0.97068 0.0
C1135 C 0.77762 0.47107 0.95674 0.0
H1136 H 0.28298 0.93837 0.42407 0.0
H1137 H 0.32963 0.90101 0.48007 0.0
H1138 H 0.24647 0.93471 0.45219 0.0
H1139 H 0.29302 0.89688 0.50799 0.0
H1140 H 0.23441 0.93504 0.56234 0.0
H1141 H 0.26948 0.92714 0.53321 0.0
H1142 H 0.2162 0.90815 0.47405 0.0
H1143 H 0.18119 0.91657 0.503 0.0
C1144 C 0.28529 0.92871 0.44206 0.0
C1145 C 0.30926 0.92023 0.44992 0.0
C1146 C 0.26432 0.92657 0.45822 0.0
C1147 C 0.26689 0.91582 0.48255 0.0
C1148 C 0.29051 0.90574 0.48962 0.0
C1149 C 0.31145 0.90793 0.4735 0.0
C1150 C 0.23021 0.92872 0.54327 0.0
C1151 C 0.20503 0.92669 0.53494 0.0
C1152 C 0.25032 0.92408 0.52655 0.0
C1153 C 0.24566 0.91723 0.50116 0.0
C1154 C 0.22046 0.91383 0.4933 0.0
C1155 C 0.20039 0.91852 0.50998 0.0
H1156 H 0.8093 0.50184 0.49157 0.0
H1157 H 0.78828 0.56934 0.5328 0.0
H1158 H 0.77484 0.50921 0.46186 0.0
H1159 H 0.75457 0.57756 0.50234 0.0
H1160 H 0.71487 0.52899 0.40628 0.0
H1161 H 0.75508 0.53255 0.42903 0.0
H1162 H 0.71479 0.55986 0.49509 0.0
H1163 H 0.67528 0.55738 0.47217 0.0
C1164 C 0.79764 0.51859 0.49393 0.0
C1165 C 0.80119 0.53478 0.51475 0.0
C1166 C 0.77798 0.52298 0.47673 0.0
C1167 C 0.76164 0.54387 0.47977 0.0
C1168 C 0.76634 0.56094 0.49973 0.0
C1169 C 0.78572 0.5563 0.51716 0.0
C1170 C 0.71479 0.53641 0.42542 0.0
C1171 C 0.69187 0.54263 0.43751 0.0
C1172 C 0.73779 0.53822 0.43857 0.0
C1173 C 0.73825 0.54615 0.46408 0.0
C1174 C 0.71541 0.55394 0.47544 0.0
C1175 C 0.69258 0.55232 0.4623 0.0
H1176 H 0.01703 0.33453 0.07885 0.0
H1177 H 0.07706 0.29056 0.04454 0.0
H1178 H 0.99158 0.29633 0.08364 0.0
H1179 H 0.05138 0.25239 0.04883 0.0
H1180 H 0.00487 0.1846 0.069 0.0
H1181 H 0.0311 0.22182 0.07642 0.0
H1182 H 0.96889 0.27006 0.05367 0.0
H1183 H 0.94247 0.23281 0.04676 0.0
C1184 C 0.02497 0.31662 0.0727 0.0
C1185 C 0.04898 0.31559 0.06109 0.0
C1186 C 0.01029 0.29476 0.07528 0.0
C1187 C 0.01925 0.27136 0.06628 0.0
C1188 C 0.04394 0.27007 0.05615 0.0
C1189 C 0.05868 0.29196 0.05363 0.0
C1190 C 0.99663 0.20318 0.066 0.0
C1191 C 0.97164 0.20577 0.05707 0.0
C1192 C 0.01174 0.2245 0.07012 0.0
C1193 C 0.00223 0.24891 0.06537 0.0
C1194 C 0.97678 0.25155 0.05775 0.0
C1195 C 0.96162 0.23019 0.05369 0.0
H1196 H 0.00665 0.66528 0.43235 0.0
H1197 H 0.06759 0.71077 0.46256 0.0
H1198 H 0.98113 0.70328 0.42627 0.0
H1199 H 0.04186 0.74877 0.45693 0.0
H1200 H 0.99518 0.8156 0.43496 0.0
H1201 H 0.02086 0.77785 0.42805 0.0
H1202 H 0.95938 0.73123 0.45564 0.0
H1203 H 0.93352 0.76899 0.4621 0.0
C1204 C 0.01477 0.68346 0.43733 0.0
C1205 C 0.03907 0.68501 0.44817 0.0
C1206 C 5e-05 0.70521 0.43398 0.0
C1207 C 0.00928 0.72902 0.44141 0.0
C1208 C 0.03421 0.73075 0.4508 0.0
C1209 C 0.04898 0.70896 0.4541 0.0
C1210 C 0.98694 0.79725 0.43906 0.0
C1211 C 0.96238 0.79529 0.44931 0.0
C1212 C 0.00174 0.77563 0.43525 0.0
C1213 C 0.99234 0.75156 0.44161 0.0
C1214 C 0.96717 0.74947 0.45034 0.0
C1215 C 0.95233 0.77113 0.45412 0.0
H1216 H 0.5099 0.81589 0.56096 0.0
H1217 H 0.56872 0.76459 0.53611 0.0
H1218 H 0.48195 0.78011 0.56922 0.0
H1219 H 0.54052 0.72878 0.54363 0.0
H1220 H 0.48956 0.66644 0.56846 0.0
H1221 H 0.51749 0.70288 0.57298 0.0
H1222 H 0.45866 0.75148 0.54304 0.0
H1223 H 0.43052 0.7151 0.53925 0.0
C1224 C 0.51697 0.79692 0.55754 0.0
C1225 C 0.54145 0.79305 0.54767 0.0
C1226 C 0.50087 0.77641 0.56212 0.0
C1227 C 0.5088 0.75156 0.55679 0.0
C1228 C 0.53381 0.74763 0.54822 0.0
C1229 C 0.55001 0.76816 0.5438 0.0
C1230 C 0.48241 0.685 0.56335 0.0
C1231 C 0.45789 0.68788 0.55329 0.0
C1232 C 0.49851 0.70587 0.56576 0.0
C1233 C 0.49052 0.73008 0.55802 0.0
C1234 C 0.46543 0.73317 0.54941 0.0
C1235 C 0.44925 0.71229 0.54717 0.0
H1236 H 0.50031 0.4956 0.81164 0.0
H1237 H 0.56473 0.54101 0.78947 0.0
H1238 H 0.50984 0.46561 0.77798 0.0
H1239 H 0.57515 0.51035 0.75654 0.0
H1240 H 0.53394 0.4096 0.72009 0.0
H1241 H 0.53559 0.43397 0.75946 0.0
H1242 H 0.55845 0.50028 0.71693 0.0
H1243 H 0.5579 0.47583 0.67823 0.0
C1244 C 0.51686 0.49888 0.7999 0.0
C1245 C 0.53154 0.52087 0.80293 0.0
C1246 C 0.5225 0.48152 0.78069 0.0
C1247 C 0.54318 0.48557 0.76427 0.0
C1248 C 0.55873 0.50686 0.76838 0.0
C1249 C 0.55283 0.52442 0.78734 0.0
C1250 C 0.54001 0.42919 0.71934 0.0
C1251 C 0.54552 0.44083 0.696 0.0
C1252 C 0.54069 0.44326 0.74186 0.0
C1253 C 0.54676 0.46927 0.74144 0.0
C1254 C 0.55394 0.48031 0.71823 0.0
C1255 C 0.55344 0.46625 0.69587 0.0
H1256 H 0.46651 0.93011 0.7772 0.0
H1257 H 0.43541 0.99057 0.82289 0.0
H1258 H 0.45891 0.95514 0.73907 0.0
H1259 H 0.42748 0.01542 0.78475 0.0
H1260 H 0.46078 0.06307 0.7174 0.0
H1261 H 0.45597 0.03753 0.75567 0.0
H1262 H 0.4283 0.97506 0.71066 0.0
H1263 H 0.43347 0.00043 0.67238 0.0
C1264 C 0.45743 0.94844 0.77906 0.0
C1265 C 0.45182 0.95844 0.80308 0.0
C1266 C 0.45301 0.9628 0.75719 0.0
C1267 C 0.44286 0.98744 0.75891 0.0
C1268 C 0.43573 0.99671 0.78283 0.0
C1269 C 0.44014 0.98237 0.80466 0.0
C1270 C 0.45313 0.0441 0.71574 0.0
C1271 C 0.44778 0.03371 0.69184 0.0
C1272 C 0.4503 0.02945 0.73769 0.0
C1273 C 0.44202 0.00412 0.73617 0.0
C1274 C 0.43514 0.99433 0.71242 0.0
C1275 C 0.43797 0.00896 0.6905 0.0
H1276 H 0.49359 0.33302 0.90845 0.0
H1277 H 0.43234 0.28715 0.93764 0.0
H1278 H 0.52088 0.2958 0.90685 0.0
H1279 H 0.45981 0.25004 0.93679 0.0
H1280 H 0.51095 0.18389 0.92514 0.0
H1281 H 0.48393 0.21949 0.91359 0.0
H1282 H 0.54192 0.27146 0.93888 0.0
H1283 H 0.56923 0.23578 0.9497 0.0
C1284 C 0.48581 0.31487 0.91411 0.0
C1285 C 0.46088 0.31304 0.9234 0.0
C1286 C 0.50154 0.29358 0.9134 0.0
C1287 C 0.49274 0.26999 0.92212 0.0
C1288 C 0.46722 0.26784 0.92975 0.0
C1289 C 0.45142 0.28914 0.93027 0.0
C1290 C 0.5181 0.20294 0.92786 0.0
C1291 C 0.54215 0.20705 0.93855 0.0
C1292 C 0.50253 0.22335 0.92135 0.0
C1293 C 0.51057 0.24837 0.92555 0.0
C1294 C 0.53517 0.25246 0.9351 0.0
C1295 C 0.55083 0.23201 0.94144 0.0
loop_
_geom_bond_atom_site_label_1
_geom_bond_atom_site_label_2
_geom_bond_distance
_geom_bond_site_symmetry_2
_ccdc_geom_bond_type
O0 Cd1 2.223 1_455 S
O0 C8 1.315 . S
Cd1 O0 2.223 1_655 S
Cd1 O4 2.297 . S
Cd1 O5 2.439 . S
Cd1 O11 2.240 . S
Cd2 O3 2.240 . S
Cd2 O10 2.201 1_455 S
Cd2 O12 2.297 . S
Cd2 O13 2.439 1_455 S
O3 Cd2 2.240 . S
O3 C8 1.279 . S
O4 Cd1 2.297 . S
O4 C6 1.247 . S
O5 Cd1 2.439 . S
O5 C6 1.208 . S
C6 O4 1.247 . S
C6 O5 1.208 . S
C7 O12 1.234 1_655 S
C7 O13 1.210 . S
C8 O0 1.315 . S
C8 O3 1.279 . S
C9 O10 1.350 . S
C9 O11 1.279 . S
O10 Cd2 2.201 1_655 S
O10 C9 1.350 . S
O11 Cd1 2.240 . S
O11 C9 1.279 . S
O12 Cd2 2.297 . S
O12 C7 1.234 1_455 S
O13 Cd2 2.439 1_655 S
O13 C7 1.210 . S
O14 Cd15 2.223 1_655 S
O14 C22 1.315 . S
Cd15 O14 2.223 1_455 S
Cd15 O18 2.297 . S
Cd15 O19 2.439 . S
Cd15 O25 2.240 . S
Cd16 O17 2.240 . S
Cd16 O24 2.237 . S
Cd16 O26 2.297 . S
Cd16 O27 2.424 1_655 S
O17 Cd16 2.240 . S
O17 C22 1.279 . S
O18 Cd15 2.297 . S
O18 C20 1.247 . S
O19 Cd15 2.439 . S
O19 C20 1.208 . S
C20 O18 1.247 . S
C20 O19 1.208 . S
C21 O26 1.264 . S
C21 O27 1.206 1_655 S
C22 O14 1.315 . S
C22 O17 1.279 . S
C23 O24 1.293 1_455 S
C23 O25 1.279 . S
O24 Cd16 2.237 . S
O24 C23 1.293 1_655 S
O25 Cd15 2.240 . S
O25 C23 1.279 . S
O26 Cd16 2.297 . S
O26 C21 1.264 . S
O27 Cd16 2.424 1_455 S
O27 C21 1.206 1_455 S
O28 Cd29 2.223 1_455 S
O28 C36 1.315 . S
Cd29 O28 2.223 1_655 S
Cd29 O32 2.297 . S
Cd29 O33 2.439 . S
Cd29 O39 2.240 . S
Cd30 O31 2.240 . S
Cd30 O38 2.210 1_455 S
Cd30 O40 2.297 . S
Cd30 O41 2.443 . S
O31 Cd30 2.240 . S
O31 C36 1.279 . S
O32 Cd29 2.297 . S
O32 C34 1.247 . S
O33 Cd29 2.439 . S
O33 C34 1.208 . S
C34 O32 1.247 . S
C34 O33 1.208 . S
C35 O40 1.247 . S
C35 O41 1.209 . S
C36 O28 1.315 . S
C36 O31 1.279 . S
C37 O38 1.336 . S
C37 O39 1.279 . S
O38 Cd30 2.210 1_655 S
O38 C37 1.336 . S
O39 Cd29 2.240 . S
O39 C37 1.279 . S
O40 Cd30 2.297 . S
O40 C35 1.247 . S
O41 Cd30 2.443 . S
O41 C35 1.209 . S
O42 Cd43 2.223 1_655 S
O42 C50 1.315 . S
Cd43 O42 2.223 1_455 S
Cd43 O46 2.297 . S
Cd43 O47 2.439 . S
Cd43 O53 2.240 . S
Cd44 O45 2.240 . S
Cd44 O52 2.242 . S
Cd44 O54 2.297 . S
Cd44 O55 2.439 . S
O45 Cd44 2.240 . S
O45 C50 1.279 . S
O46 Cd43 2.297 . S
O46 C48 1.247 . S
O47 Cd43 2.439 . S
O47 C48 1.208 . S
C48 O46 1.247 . S
C48 O47 1.208 . S
C49 O54 1.247 . S
C49 O55 1.208 . S
C50 O42 1.315 . S
C50 O45 1.279 . S
C51 O52 1.286 1_455 S
C51 O53 1.279 . S
O52 Cd44 2.242 . S
O52 C51 1.286 1_655 S
O53 Cd43 2.240 . S
O53 C51 1.279 . S
O54 Cd44 2.297 . S
O54 C49 1.247 . S
O55 Cd44 2.439 . S
O55 C49 1.208 . S
O56 Cd57 2.223 1_545 S
O56 C64 1.315 . S
Cd57 O56 2.223 1_565 S
Cd57 O60 2.297 . S
Cd57 O61 2.439 . S
Cd57 O67 2.240 . S
Cd58 O59 2.240 . S
Cd58 O66 2.201 1_545 S
Cd58 O68 2.297 . S
Cd58 O69 2.439 1_545 S
O59 Cd58 2.240 . S
O59 C64 1.279 . S
O60 Cd57 2.297 . S
O60 C62 1.247 . S
O61 Cd57 2.439 . S
O61 C62 1.208 . S
C62 O60 1.247 . S
C62 O61 1.208 . S
C63 O68 1.234 1_565 S
C63 O69 1.210 . S
C64 O56 1.315 . S
C64 O59 1.279 . S
C65 O66 1.350 . S
C65 O67 1.279 . S
O66 Cd58 2.201 1_565 S
O66 C65 1.350 . S
O67 Cd57 2.240 . S
O67 C65 1.279 . S
O68 Cd58 2.297 . S
O68 C63 1.234 1_545 S
O69 Cd58 2.439 1_565 S
O69 C63 1.210 . S
O70 Cd71 2.223 . S
O70 C78 1.315 . S
Cd71 O70 2.223 . S
Cd71 O74 2.297 . S
Cd71 O75 2.439 . S
Cd71 O81 2.240 . S
Cd72 O73 2.240 . S
Cd72 O80 2.223 . S
Cd72 O82 2.297 . S
Cd72 O83 2.439 . S
O73 Cd72 2.240 . S
O73 C78 1.279 . S
O74 Cd71 2.297 . S
O74 C76 1.247 . S
O75 Cd71 2.439 . S
O75 C76 1.208 . S
C76 O74 1.247 . S
C76 O75 1.208 . S
C77 O82 1.247 . S
C77 O83 1.208 . S
C78 O70 1.315 . S
C78 O73 1.279 . S
C79 O80 1.315 . S
C79 O81 1.279 . S
O80 Cd72 2.223 . S
O80 C79 1.315 . S
O81 Cd71 2.240 . S
O81 C79 1.279 . S
O82 Cd72 2.297 . S
O82 C77 1.247 . S
O83 Cd72 2.439 . S
O83 C77 1.208 . S
O84 Cd85 2.223 1_565 S
O84 C92 1.315 . S
Cd85 O84 2.223 1_545 S
Cd85 O88 2.297 . S
Cd85 O89 2.439 . S
Cd85 O95 2.240 . S
Cd86 O87 2.240 . S
Cd86 O94 2.237 . S
Cd86 O96 2.297 . S
Cd86 O97 2.424 1_565 S
O87 Cd86 2.240 . S
O87 C92 1.279 . S
O88 Cd85 2.297 . S
O88 C90 1.247 . S
O89 Cd85 2.439 . S
O89 C90 1.208 . S
C90 O88 1.247 . S
C90 O89 1.208 . S
C91 O96 1.264 . S
C91 O97 1.206 1_565 S
C92 O84 1.315 . S
C92 O87 1.279 . S
C93 O94 1.293 1_545 S
C93 O95 1.279 . S
O94 Cd86 2.237 . S
O94 C93 1.293 1_565 S
O95 Cd85 2.240 . S
O95 C93 1.279 . S
O96 Cd86 2.297 . S
O96 C91 1.264 . S
O97 Cd86 2.424 1_545 S
O97 C91 1.206 1_545 S
O98 Cd99 2.223 . S
O98 C106 1.315 . S
Cd99 O98 2.223 . S
Cd99 O102 2.297 . S
Cd99 O103 2.439 . S
Cd99 O109 2.240 . S
Cd100 O101 2.240 . S
Cd100 O108 2.223 . S
Cd100 O110 2.297 . S
Cd100 O111 2.439 . S
O101 Cd100 2.240 . S
O101 C106 1.279 . S
O102 Cd99 2.297 . S
O102 C104 1.247 . S
O103 Cd99 2.439 . S
O103 C104 1.208 . S
C104 O102 1.247 . S
C104 O103 1.208 . S
C105 O110 1.247 . S
C105 O111 1.208 . S
C106 O98 1.315 . S
C106 O101 1.279 . S
C107 O108 1.315 . S
C107 O109 1.279 . S
O108 Cd100 2.223 . S
O108 C107 1.315 . S
O109 Cd99 2.240 . S
O109 C107 1.279 . S
O110 Cd100 2.297 . S
O110 C105 1.247 . S
O111 Cd100 2.439 . S
O111 C105 1.208 . S
O112 Cd113 2.223 1_554 S
O112 C120 1.315 . S
Cd113 O112 2.223 1_556 S
Cd113 O116 2.297 . S
Cd113 O117 2.439 . S
Cd113 O123 2.240 . S
Cd114 O115 2.240 . S
Cd114 O122 2.201 1_554 S
Cd114 O124 2.297 . S
Cd114 O125 2.439 1_554 S
O115 Cd114 2.240 . S
O115 C120 1.279 . S
O116 Cd113 2.297 . S
O116 C118 1.247 . S
O117 Cd113 2.439 . S
O117 C118 1.208 . S
C118 O116 1.247 . S
C118 O117 1.208 . S
C119 O124 1.234 1_556 S
C119 O125 1.210 . S
C120 O112 1.315 . S
C120 O115 1.279 . S
C121 O122 1.350 . S
C121 O123 1.279 . S
O122 Cd114 2.201 1_556 S
O122 C121 1.350 . S
O123 Cd113 2.240 . S
O123 C121 1.279 . S
O124 Cd114 2.297 . S
O124 C119 1.234 1_554 S
O125 Cd114 2.439 1_556 S
O125 C119 1.210 . S
O126 Cd127 2.223 . S
O126 C134 1.315 . S
Cd127 O126 2.223 . S
Cd127 O130 2.297 . S
Cd127 O131 2.439 . S
Cd127 O137 2.240 . S
Cd128 O129 2.240 . S
Cd128 O136 2.223 . S
Cd128 O138 2.297 . S
Cd128 O139 2.439 . S
O129 Cd128 2.240 . S
O129 C134 1.279 . S
O130 Cd127 2.297 . S
O130 C132 1.247 . S
O131 Cd127 2.439 . S
O131 C132 1.208 . S
C132 O130 1.247 . S
C132 O131 1.208 . S
C133 O138 1.247 . S
C133 O139 1.208 . S
C134 O126 1.315 . S
C134 O129 1.279 . S
C135 O136 1.315 . S
C135 O137 1.279 . S
O136 Cd128 2.223 . S
O136 C135 1.315 . S
O137 Cd127 2.240 . S
O137 C135 1.279 . S
O138 Cd128 2.297 . S
O138 C133 1.247 . S
O139 Cd128 2.439 . S
O139 C133 1.208 . S
O140 Cd141 2.223 . S
O140 C148 1.315 . S
Cd141 O140 2.223 . S
Cd141 O144 2.297 . S
Cd141 O145 2.439 . S
Cd141 O151 2.240 . S
Cd142 O143 2.240 . S
Cd142 O150 2.223 . S
Cd142 O152 2.297 . S
Cd142 O153 2.439 . S
O143 Cd142 2.240 . S
O143 C148 1.279 . S
O144 Cd141 2.297 . S
O144 C146 1.247 . S
O145 Cd141 2.439 . S
O145 C146 1.208 . S
C146 O144 1.247 . S
C146 O145 1.208 . S
C147 O152 1.247 . S
C147 O153 1.208 . S
C148 O140 1.315 . S
C148 O143 1.279 . S
C149 O150 1.315 . S
C149 O151 1.279 . S
O150 Cd142 2.223 . S
O150 C149 1.315 . S
O151 Cd141 2.240 . S
O151 C149 1.279 . S
O152 Cd142 2.297 . S
O152 C147 1.247 . S
O153 Cd142 2.439 . S
O153 C147 1.208 . S
O154 Cd155 2.223 . S
O154 C162 1.315 . S
Cd155 O154 2.223 . S
Cd155 O158 2.297 . S
Cd155 O159 2.439 . S
Cd155 O165 2.240 . S
Cd156 O157 2.240 . S
Cd156 O164 2.223 . S
Cd156 O166 2.297 . S
Cd156 O167 2.439 . S
O157 Cd156 2.240 . S
O157 C162 1.279 . S
O158 Cd155 2.297 . S
O158 C160 1.247 . S
O159 Cd155 2.439 . S
O159 C160 1.208 . S
C160 O158 1.247 . S
C160 O159 1.208 . S
C161 O166 1.247 . S
C161 O167 1.208 . S
C162 O154 1.315 . S
C162 O157 1.279 . S
C163 O164 1.315 . S
C163 O165 1.279 . S
O164 Cd156 2.223 . S
O164 C163 1.315 . S
O165 Cd155 2.240 . S
O165 C163 1.279 . S
O166 Cd156 2.297 . S
O166 C161 1.247 . S
O167 Cd156 2.439 . S
O167 C161 1.208 . S
O168 Cd169 2.223 . S
O168 C176 1.315 . S
Cd169 O168 2.223 . S
Cd169 O172 2.297 . S
Cd169 O173 2.439 . S
Cd169 O179 2.240 . S
Cd170 O171 2.240 . S
Cd170 O178 2.223 . S
Cd170 O180 2.297 . S
Cd170 O181 2.439 . S
O171 Cd170 2.240 . S
O171 C176 1.279 . S
O172 Cd169 2.297 . S
O172 C174 1.247 . S
O173 Cd169 2.439 . S
O173 C174 1.208 . S
C174 O172 1.247 . S
C174 O173 1.208 . S
C175 O180 1.247 . S
C175 O181 1.208 . S
C176 O168 1.315 . S
C176 O171 1.279 . S
C177 O178 1.315 . S
C177 O179 1.279 . S
O178 Cd170 2.223 . S
O178 C177 1.315 . S
O179 Cd169 2.240 . S
O179 C177 1.279 . S
O180 Cd170 2.297 . S
O180 C175 1.247 . S
O181 Cd170 2.439 . S
O181 C175 1.208 . S
O182 Cd183 2.223 . S
O182 C190 1.315 . S
Cd183 O182 2.223 . S
Cd183 O186 2.297 . S
Cd183 O187 2.439 . S
Cd183 O193 2.240 . S
Cd184 O185 2.240 . S
Cd184 O192 2.223 . S
Cd184 O194 2.297 . S
Cd184 O195 2.439 . S
O185 Cd184 2.240 . S
O185 C190 1.279 . S
O186 Cd183 2.297 . S
O186 C188 1.247 . S
O187 Cd183 2.439 . S
O187 C188 1.208 . S
C188 O186 1.247 . S
C188 O187 1.208 . S
C189 O194 1.247 . S
C189 O195 1.208 . S
C190 O182 1.315 . S
C190 O185 1.279 . S
C191 O192 1.315 . S
C191 O193 1.279 . S
O192 Cd184 2.223 . S
O192 C191 1.315 . S
O193 Cd183 2.240 . S
O193 C191 1.279 . S
O194 Cd184 2.297 . S
O194 C189 1.247 . S
O195 Cd184 2.439 . S
O195 C189 1.208 . S
O196 Cd197 2.223 . S
O196 C204 1.315 . S
Cd197 O196 2.223 . S
Cd197 O200 2.297 . S
Cd197 O201 2.439 . S
Cd197 O207 2.240 . S
Cd198 O199 2.240 . S
Cd198 O206 2.223 . S
Cd198 O208 2.297 . S
Cd198 O209 2.439 . S
O199 Cd198 2.240 . S
O199 C204 1.279 . S
O200 Cd197 2.297 . S
O200 C202 1.247 . S
O201 Cd197 2.439 . S
O201 C202 1.208 . S
C202 O200 1.247 . S
C202 O201 1.208 . S
C203 O208 1.247 . S
C203 O209 1.208 . S
C204 O196 1.315 . S
C204 O199 1.279 . S
C205 O206 1.315 . S
C205 O207 1.279 . S
O206 Cd198 2.223 . S
O206 C205 1.315 . S
O207 Cd197 2.240 . S
O207 C205 1.279 . S
O208 Cd198 2.297 . S
O208 C203 1.247 . S
O209 Cd198 2.439 . S
O209 C203 1.208 . S
O210 Cd211 2.223 . S
O210 C218 1.315 . S
Cd211 O210 2.223 . S
Cd211 O214 2.297 . S
Cd211 O215 2.439 . S
Cd211 O221 2.240 . S
Cd212 O213 2.240 . S
Cd212 O220 2.223 . S
Cd212 O222 2.297 . S
Cd212 O223 2.439 . S
O213 Cd212 2.240 . S
O213 C218 1.279 . S
O214 Cd211 2.297 . S
O214 C216 1.247 . S
O215 Cd211 2.439 . S
O215 C216 1.208 . S
C216 O214 1.247 . S
C216 O215 1.208 . S
C217 O222 1.247 . S
C217 O223 1.208 . S
C218 O210 1.315 . S
C218 O213 1.279 . S
C219 O220 1.315 . S
C219 O221 1.279 . S
O220 Cd212 2.223 . S
O220 C219 1.315 . S
O221 Cd211 2.240 . S
O221 C219 1.279 . S
O222 Cd212 2.297 . S
O222 C217 1.247 . S
O223 Cd212 2.439 . S
O223 C217 1.208 . S
O224 Cd225 2.223 . S
O224 C232 1.315 . S
Cd225 O224 2.223 . S
Cd225 O228 2.297 . S
Cd225 O229 2.439 . S
Cd225 O235 2.240 . S
Cd226 O227 2.240 . S
Cd226 O234 2.223 . S
Cd226 O236 2.297 . S
Cd226 O237 2.439 . S
O227 Cd226 2.240 . S
O227 C232 1.279 . S
O228 Cd225 2.297 . S
O228 C230 1.247 . S
O229 Cd225 2.439 . S
O229 C230 1.208 . S
C230 O228 1.247 . S
C230 O229 1.208 . S
C231 O236 1.247 . S
C231 O237 1.208 . S
C232 O224 1.315 . S
C232 O227 1.279 . S
C233 O234 1.315 . S
C233 O235 1.279 . S
O234 Cd226 2.223 . S
O234 C233 1.315 . S
O235 Cd225 2.240 . S
O235 C233 1.279 . S
O236 Cd226 2.297 . S
O236 C231 1.247 . S
O237 Cd226 2.439 . S
O237 C231 1.208 . S
O238 Cd239 2.223 1_565 S
O238 C246 1.315 . S
Cd239 O238 2.223 1_545 S
Cd239 O242 2.297 . S
Cd239 O243 2.439 . S
Cd239 O249 2.240 . S
Cd240 O241 2.240 . S
Cd240 O248 2.242 . S
Cd240 O250 2.297 . S
Cd240 O251 2.439 . S
O241 Cd240 2.240 . S
O241 C246 1.279 . S
O242 Cd239 2.297 . S
O242 C244 1.247 . S
O243 Cd239 2.439 . S
O243 C244 1.208 . S
C244 O242 1.247 . S
C244 O243 1.208 . S
C245 O250 1.247 . S
C245 O251 1.208 . S
C246 O238 1.315 . S
C246 O241 1.279 . S
C247 O248 1.286 1_545 S
C247 O249 1.279 . S
O248 Cd240 2.242 . S
O248 C247 1.286 1_565 S
O249 Cd239 2.240 . S
O249 C247 1.279 . S
O250 Cd240 2.297 . S
O250 C245 1.247 . S
O251 Cd240 2.439 . S
O251 C245 1.208 . S
O252 Cd253 2.223 . S
O252 C260 1.315 . S
Cd253 O252 2.223 . S
Cd253 O256 2.297 . S
Cd253 O257 2.439 . S
Cd253 O263 2.240 . S
Cd254 O255 2.240 . S
Cd254 O262 2.223 . S
Cd254 O264 2.297 . S
Cd254 O265 2.439 . S
O255 Cd254 2.240 . S
O255 C260 1.279 . S
O256 Cd253 2.297 . S
O256 C258 1.247 . S
O257 Cd253 2.439 . S
O257 C258 1.208 . S
C258 O256 1.247 . S
C258 O257 1.208 . S
C259 O264 1.247 . S
C259 O265 1.208 . S
C260 O252 1.315 . S
C260 O255 1.279 . S
C261 O262 1.315 . S
C261 O263 1.279 . S
O262 Cd254 2.223 . S
O262 C261 1.315 . S
O263 Cd253 2.240 . S
O263 C261 1.279 . S
O264 Cd254 2.297 . S
O264 C259 1.247 . S
O265 Cd254 2.439 . S
O265 C259 1.208 . S
O266 Cd267 2.223 1_545 S
O266 C274 1.315 . S
Cd267 O266 2.223 1_565 S
Cd267 O270 2.297 . S
Cd267 O271 2.439 . S
Cd267 O277 2.240 . S
Cd268 O269 2.240 . S
Cd268 O276 2.210 1_545 S
Cd268 O278 2.297 . S
Cd268 O279 2.443 . S
O269 Cd268 2.240 . S
O269 C274 1.279 . S
O270 Cd267 2.297 . S
O270 C272 1.247 . S
O271 Cd267 2.439 . S
O271 C272 1.208 . S
C272 O270 1.247 . S
C272 O271 1.208 . S
C273 O278 1.247 . S
C273 O279 1.209 . S
C274 O266 1.315 . S
C274 O269 1.279 . S
C275 O276 1.336 . S
C275 O277 1.279 . S
O276 Cd268 2.210 1_565 S
O276 C275 1.336 . S
O277 Cd267 2.240 . S
O277 C275 1.279 . S
O278 Cd268 2.297 . S
O278 C273 1.247 . S
O279 Cd268 2.443 . S
O279 C273 1.209 . S
O280 Cd281 2.223 . S
O280 C288 1.315 . S
Cd281 O280 2.223 . S
Cd281 O284 2.297 . S
Cd281 O285 2.439 . S
Cd281 O291 2.240 . S
Cd282 O283 2.240 . S
Cd282 O290 2.223 . S
Cd282 O292 2.297 . S
Cd282 O293 2.439 . S
O283 Cd282 2.240 . S
O283 C288 1.279 . S
O284 Cd281 2.297 . S
O284 C286 1.247 . S
O285 Cd281 2.439 . S
O285 C286 1.208 . S
C286 O284 1.247 . S
C286 O285 1.208 . S
C287 O292 1.247 . S
C287 O293 1.208 . S
C288 O280 1.315 . S
C288 O283 1.279 . S
C289 O290 1.315 . S
C289 O291 1.279 . S
O290 Cd282 2.223 . S
O290 C289 1.315 . S
O291 Cd281 2.240 . S
O291 C289 1.279 . S
O292 Cd282 2.297 . S
O292 C287 1.247 . S
O293 Cd282 2.439 . S
O293 C287 1.208 . S
O294 Cd295 2.223 1_556 S
O294 C302 1.315 . S
Cd295 O294 2.223 1_554 S
Cd295 O298 2.297 . S
Cd295 O299 2.439 . S
Cd295 O305 2.240 . S
Cd296 O297 2.240 . S
Cd296 O304 2.242 . S
Cd296 O306 2.297 . S
Cd296 O307 2.439 . S
O297 Cd296 2.240 . S
O297 C302 1.279 . S
O298 Cd295 2.297 . S
O298 C300 1.247 . S
O299 Cd295 2.439 . S
O299 C300 1.208 . S
C300 O298 1.247 . S
C300 O299 1.208 . S
C301 O306 1.247 . S
C301 O307 1.208 . S
C302 O294 1.315 . S
C302 O297 1.279 . S
C303 O304 1.286 1_554 S
C303 O305 1.279 . S
O304 Cd296 2.242 . S
O304 C303 1.286 1_556 S
O305 Cd295 2.240 . S
O305 C303 1.279 . S
O306 Cd296 2.297 . S
O306 C301 1.247 . S
O307 Cd296 2.439 . S
O307 C301 1.208 . S
O308 Cd309 2.223 1_556 S
O308 C316 1.315 . S
Cd309 O308 2.223 1_554 S
Cd309 O312 2.297 . S
Cd309 O313 2.439 . S
Cd309 O319 2.240 . S
Cd310 O311 2.240 . S
Cd310 O318 2.237 . S
Cd310 O320 2.297 . S
Cd310 O321 2.424 1_556 S
O311 Cd310 2.240 . S
O311 C316 1.279 . S
O312 Cd309 2.297 . S
O312 C314 1.247 . S
O313 Cd309 2.439 . S
O313 C314 1.208 . S
C314 O312 1.247 . S
C314 O313 1.208 . S
C315 O320 1.264 . S
C315 O321 1.206 1_556 S
C316 O308 1.315 . S
C316 O311 1.279 . S
C317 O318 1.293 1_554 S
C317 O319 1.279 . S
O318 Cd310 2.237 . S
O318 C317 1.293 1_556 S
O319 Cd309 2.240 . S
O319 C317 1.279 . S
O320 Cd310 2.297 . S
O320 C315 1.264 . S
O321 Cd310 2.424 1_554 S
O321 C315 1.206 1_554 S
O322 Cd323 2.223 1_554 S
O322 C330 1.315 . S
Cd323 O322 2.223 1_556 S
Cd323 O326 2.297 . S
Cd323 O327 2.439 . S
Cd323 O333 2.240 . S
Cd324 O325 2.240 . S
Cd324 O332 2.210 1_554 S
Cd324 O334 2.297 . S
Cd324 O335 2.443 . S
O325 Cd324 2.240 . S
O325 C330 1.279 . S
O326 Cd323 2.297 . S
O326 C328 1.247 . S
O327 Cd323 2.439 . S
O327 C328 1.208 . S
C328 O326 1.247 . S
C328 O327 1.208 . S
C329 O334 1.247 . S
C329 O335 1.209 . S
C330 O322 1.315 . S
C330 O325 1.279 . S
C331 O332 1.336 . S
C331 O333 1.279 . S
O332 Cd324 2.210 1_556 S
O332 C331 1.336 . S
O333 Cd323 2.240 . S
O333 C331 1.279 . S
O334 Cd324 2.297 . S
O334 C329 1.247 . S
O335 Cd324 2.443 . S
O335 C329 1.209 . S
H336 C344 0.950 . S
H337 C349 0.950 . S
H338 C346 0.950 . S
H339 C348 0.950 . S
H340 C350 0.950 . S
H341 C352 0.950 . S
H342 C354 0.950 . S
H343 C355 0.950 . S
C344 H336 0.950 . S
C344 C345 1.386 . S
C344 C346 1.391 . S
C345 C344 1.386 . S
C345 C349 1.393 . S
C346 H338 0.950 . S
C346 C344 1.391 . S
C346 C347 1.400 . S
C347 C346 1.400 . S
C347 C348 1.398 . S
C347 C353 1.491 . S
C348 H339 0.950 . S
C348 C347 1.398 . S
C348 C349 1.391 . S
C349 H337 0.950 . S
C349 C345 1.393 . S
C349 C348 1.391 . S
C350 H340 0.950 . S
C350 C351 1.386 . S
C350 C352 1.391 . S
C351 C350 1.386 . S
C351 C355 1.393 . S
C352 H341 0.950 . S
C352 C350 1.391 . S
C352 C353 1.400 . S
C353 C347 1.491 . S
C353 C352 1.400 . S
C353 C354 1.398 . S
C354 H342 0.950 . S
C354 C353 1.398 . S
C354 C355 1.391 . S
C355 H343 0.950 . S
C355 C351 1.393 . S
C355 C354 1.391 . S
H356 C364 0.950 . S
H357 C369 0.950 . S
H358 C366 0.950 . S
H359 C368 0.950 . S
H360 C370 0.950 . S
H361 C372 0.950 . S
H362 C374 0.950 . S
H363 C375 0.950 . S
C364 H356 0.950 . S
C364 C365 1.386 . S
C364 C366 1.391 . S
C365 C364 1.386 . S
C365 C369 1.393 . S
C366 H358 0.950 . S
C366 C364 1.391 . S
C366 C367 1.400 . S
C367 C366 1.400 . S
C367 C368 1.398 . S
C367 C373 1.491 . S
C368 H359 0.950 . S
C368 C367 1.398 . S
C368 C369 1.391 . S
C369 H357 0.950 . S
C369 C365 1.393 . S
C369 C368 1.391 . S
C370 H360 0.950 . S
C370 C371 1.386 . S
C370 C372 1.391 . S
C371 C370 1.386 . S
C371 C375 1.393 . S
C372 H361 0.950 . S
C372 C370 1.391 . S
C372 C373 1.400 . S
C373 C367 1.491 . S
C373 C372 1.400 . S
C373 C374 1.398 . S
C374 H362 0.950 . S
C374 C373 1.398 . S
C374 C375 1.391 . S
C375 H363 0.950 . S
C375 C371 1.393 . S
C375 C374 1.391 . S
H376 C384 0.950 . S
H377 C389 0.950 . S
H378 C386 0.950 . S
H379 C388 0.950 . S
H380 C390 0.906 1_545 S
H381 C392 0.950 . S
H382 C394 0.950 1_554 S
H383 C395 0.950 . S
C384 H376 0.950 . S
C384 C385 1.386 . S
C384 C386 1.391 . S
C385 C384 1.386 . S
C385 C389 1.393 . S
C386 H378 0.950 . S
C386 C384 1.391 . S
C386 C387 1.400 . S
C387 C386 1.400 . S
C387 C388 1.398 . S
C387 C393 1.491 . S
C388 H379 0.950 . S
C388 C387 1.398 . S
C388 C389 1.391 . S
C389 H377 0.950 . S
C389 C385 1.393 . S
C389 C388 1.391 . S
C390 H380 0.906 1_565 S
C390 C391 1.386 . S
C390 C392 1.391 1_556 S
C391 C390 1.386 . S
C391 C395 1.393 . S
C392 H381 0.950 . S
C392 C390 1.391 1_554 S
C392 C393 1.400 . S
C393 C387 1.491 . S
C393 C392 1.400 . S
C393 C394 1.398 1_554 S
C394 H382 0.950 1_556 S
C394 C393 1.398 1_556 S
C394 C395 1.391 . S
C395 H383 0.950 . S
C395 C391 1.393 . S
C395 C394 1.391 . S
H396 C404 0.950 . S
H397 C409 0.950 . S
H398 C406 0.950 . S
H399 C408 0.950 . S
H400 C410 0.950 . S
H401 C412 0.950 . S
H402 C414 0.950 1_554 S
H403 C415 0.950 . S
C404 H396 0.950 . S
C404 C405 1.386 . S
C404 C406 1.391 . S
C405 C404 1.386 . S
C405 C409 1.393 . S
C406 H398 0.950 . S
C406 C404 1.391 . S
C406 C407 1.400 . S
C407 C406 1.400 . S
C407 C408 1.398 . S
C407 C413 1.491 . S
C408 H399 0.950 . S
C408 C407 1.398 . S
C408 C409 1.391 . S
C409 H397 0.950 . S
C409 C405 1.393 . S
C409 C408 1.391 . S
C410 H400 0.950 . S
C410 C411 1.386 . S
C410 C412 1.391 . S
C411 C410 1.386 . S
C411 C415 1.393 . S
C412 H401 0.950 . S
C412 C410 1.391 . S
C412 C413 1.400 1_556 S
C413 C407 1.491 . S
C413 C412 1.400 1_554 S
C413 C414 1.398 1_554 S
C414 H402 0.950 1_556 S
C414 C413 1.398 1_556 S
C414 C415 1.391 . S
C415 H403 0.950 . S
C415 C411 1.393 . S
C415 C414 1.391 . S
H416 C424 0.950 . S
H417 C429 0.950 . S
H418 C426 0.950 . S
H419 C428 0.950 . S
H420 C430 0.950 . S
H421 C432 0.950 . S
H422 C434 0.950 . S
H423 C435 0.950 . S
C424 H416 0.950 . S
C424 C425 1.386 . S
C424 C426 1.391 . S
C425 C424 1.386 . S
C425 C429 1.393 . S
C426 H418 0.950 . S
C426 C424 1.391 . S
C426 C427 1.400 . S
C427 C426 1.400 . S
C427 C428 1.398 . S
C427 C433 1.491 . S
C428 H419 0.950 . S
C428 C427 1.398 . S
C428 C429 1.391 . S
C429 H417 0.950 . S
C429 C425 1.393 . S
C429 C428 1.391 . S
C430 H420 0.950 . S
C430 C431 1.386 . S
C430 C432 1.391 . S
C431 C430 1.386 . S
C431 C435 1.393 . S
C432 H421 0.950 . S
C432 C430 1.391 . S
C432 C433 1.400 . S
C433 C427 1.491 . S
C433 C432 1.400 . S
C433 C434 1.398 . S
C434 H422 0.950 . S
C434 C433 1.398 . S
C434 C435 1.391 . S
C435 H423 0.950 . S
C435 C431 1.393 . S
C435 C434 1.391 . S
H436 C444 0.950 . S
H437 C449 0.950 . S
H438 C446 0.950 . S
H439 C448 0.950 . S
H440 C450 0.950 . S
H441 C452 0.950 . S
H442 C454 0.950 . S
H443 C455 0.950 1_556 S
C444 H436 0.950 . S
C444 C445 1.386 . S
C444 C446 1.391 . S
C445 C444 1.386 . S
C445 C449 1.393 . S
C446 H438 0.950 . S
C446 C444 1.391 . S
C446 C447 1.400 . S
C447 C446 1.400 . S
C447 C448 1.398 . S
C447 C453 1.491 . S
C448 H439 0.950 . S
C448 C447 1.398 . S
C448 C449 1.391 . S
C449 H437 0.950 . S
C449 C445 1.393 . S
C449 C448 1.391 . S
C450 H440 0.950 . S
C450 C451 1.386 . S
C450 C452 1.391 . S
C451 C450 1.386 . S
C451 C455 1.393 . S
C452 H441 0.950 . S
C452 C450 1.391 . S
C452 C453 1.400 . S
C453 C447 1.491 . S
C453 C452 1.400 . S
C453 C454 1.398 . S
C454 H442 0.950 . S
C454 C453 1.398 . S
C454 C455 1.391 . S
C455 H443 0.950 1_554 S
C455 C451 1.393 . S
C455 C454 1.391 . S
H456 C464 0.950 . S
H457 C469 0.950 . S
H458 C466 0.950 . S
H459 C468 0.950 . S
H460 C470 0.950 . S
H461 C472 0.950 . S
H462 C474 0.950 . S
H463 C475 0.950 . S
C464 H456 0.950 . S
C464 C465 1.386 . S
C464 C466 1.391 . S
C465 C464 1.386 . S
C465 C469 1.393 . S
C466 H458 0.950 . S
C466 C464 1.391 . S
C466 C467 1.400 . S
C467 C466 1.400 . S
C467 C468 1.398 . S
C467 C473 1.491 . S
C468 H459 0.950 . S
C468 C467 1.398 . S
C468 C469 1.391 . S
C469 H457 0.950 . S
C469 C465 1.393 . S
C469 C468 1.391 . S
C470 H460 0.950 . S
C470 C471 1.386 . S
C470 C472 1.391 . S
C471 C470 1.386 . S
C471 C475 1.393 . S
C472 H461 0.950 . S
C472 C470 1.391 . S
C472 C473 1.400 . S
C473 C467 1.491 . S
C473 C472 1.400 . S
C473 C474 1.398 . S
C474 H462 0.950 . S
C474 C473 1.398 . S
C474 C475 1.391 . S
C475 H463 0.950 . S
C475 C471 1.393 . S
C475 C474 1.391 . S
H476 C484 0.950 . S
H477 C489 0.950 . S
H478 C486 0.950 . S
H479 C488 0.950 . S
H480 C490 0.950 . S
H481 C492 0.950 . S
H482 C494 0.950 . S
H483 C495 0.950 . S
C484 H476 0.950 . S
C484 C485 1.386 . S
C484 C486 1.391 . S
C485 C484 1.386 . S
C485 C489 1.393 . S
C486 H478 0.950 . S
C486 C484 1.391 . S
C486 C487 1.400 . S
C487 C486 1.400 . S
C487 C488 1.398 . S
C487 C493 1.491 . S
C488 H479 0.950 . S
C488 C487 1.398 . S
C488 C489 1.391 . S
C489 H477 0.950 . S
C489 C485 1.393 . S
C489 C488 1.391 . S
C490 H480 0.950 . S
C490 C491 1.386 . S
C490 C492 1.391 . S
C491 C490 1.386 . S
C491 C495 1.393 . S
C492 H481 0.950 . S
C492 C490 1.391 . S
C492 C493 1.400 . S
C493 C487 1.491 . S
C493 C492 1.400 . S
C493 C494 1.398 . S
C494 H482 0.950 . S
C494 C493 1.398 . S
C494 C495 1.391 . S
C495 H483 0.950 . S
C495 C491 1.393 . S
C495 C494 1.391 . S
H496 C504 0.950 . S
H497 C509 0.950 . S
H498 C506 0.950 . S
H499 C508 0.950 . S
H500 C510 0.950 . S
H501 C512 0.950 . S
H502 C514 0.950 . S
H503 C515 0.971 . S
C504 H496 0.950 . S
C504 C505 1.386 . S
C504 C506 1.391 . S
C505 C504 1.386 . S
C505 C509 1.393 . S
C506 H498 0.950 . S
C506 C504 1.391 . S
C506 C507 1.400 . S
C507 C506 1.400 . S
C507 C508 1.398 . S
C507 C513 1.491 . S
C508 H499 0.950 . S
C508 C507 1.398 . S
C508 C509 1.391 . S
C509 H497 0.950 . S
C509 C505 1.393 . S
C509 C508 1.391 . S
C510 H500 0.950 . S
C510 C511 1.386 . S
C510 C512 1.391 . S
C511 C510 1.386 . S
C511 C515 1.393 . S
C512 H501 0.950 . S
C512 C510 1.391 . S
C512 C513 1.400 . S
C513 C507 1.491 . S
C513 C512 1.400 . S
C513 C514 1.398 . S
C514 H502 0.950 . S
C514 C513 1.398 . S
C514 C515 1.391 . S
C515 H503 0.971 . S
C515 C511 1.393 . S
C515 C514 1.391 . S
H516 C524 0.950 . S
H517 C529 0.950 . S
H518 C526 0.950 . S
H519 C528 0.950 . S
H520 C530 0.950 . S
H521 C532 0.950 . S
H522 C534 0.950 . S
H523 C535 0.950 . S
C524 H516 0.950 . S
C524 C525 1.386 . S
C524 C526 1.391 . S
C525 C524 1.386 . S
C525 C529 1.393 . S
C526 H518 0.950 . S
C526 C524 1.391 . S
C526 C527 1.400 . S
C527 C526 1.400 . S
C527 C528 1.398 . S
C527 C533 1.491 . S
C528 H519 0.950 . S
C528 C527 1.398 . S
C528 C529 1.391 . S
C529 H517 0.950 . S
C529 C525 1.393 . S
C529 C528 1.391 . S
C530 H520 0.950 . S
C530 C531 1.386 . S
C530 C532 1.391 . S
C531 C530 1.386 . S
C531 C535 1.393 . S
C532 H521 0.950 . S
C532 C530 1.391 . S
C532 C533 1.400 . S
C533 C527 1.491 . S
C533 C532 1.400 . S
C533 C534 1.398 . S
C534 H522 0.950 . S
C534 C533 1.398 . S
C534 C535 1.391 . S
C535 H523 0.950 . S
C535 C531 1.393 . S
C535 C534 1.391 . S
H536 C544 0.950 . S
H537 C549 0.950 . S
H538 C546 0.950 . S
H539 C548 0.950 . S
H540 C550 0.950 . S
H541 C552 0.950 . S
H542 C554 0.950 . S
H543 C555 0.950 . S
C544 H536 0.950 . S
C544 C545 1.386 . S
C544 C546 1.391 . S
C545 C544 1.386 . S
C545 C549 1.393 . S
C546 H538 0.950 . S
C546 C544 1.391 . S
C546 C547 1.400 . S
C547 C546 1.400 . S
C547 C548 1.398 . S
C547 C553 1.491 . S
C548 H539 0.950 . S
C548 C547 1.398 . S
C548 C549 1.391 . S
C549 H537 0.950 . S
C549 C545 1.393 . S
C549 C548 1.391 . S
C550 H540 0.950 . S
C550 C551 1.386 . S
C550 C552 1.391 1_545 S
C551 C550 1.386 . S
C551 C555 1.393 . S
C552 H541 0.950 . S
C552 C550 1.391 1_565 S
C552 C553 1.400 . S
C553 C547 1.491 . S
C553 C552 1.400 . S
C553 C554 1.398 1_565 S
C554 H542 0.950 . S
C554 C553 1.398 1_545 S
C554 C555 1.391 . S
C555 H543 0.950 . S
C555 C551 1.393 . S
C555 C554 1.391 . S
H556 C564 0.950 . S
H557 C569 0.950 . S
H558 C566 0.950 . S
H559 C568 0.950 . S
H560 C570 0.950 . S
H561 C572 0.950 . S
H562 C574 0.950 . S
H563 C575 0.950 . S
C564 H556 0.950 . S
C564 C565 1.386 . S
C564 C566 1.391 . S
C565 C564 1.386 . S
C565 C569 1.393 . S
C566 H558 0.950 . S
C566 C564 1.391 . S
C566 C567 1.400 . S
C567 C566 1.400 . S
C567 C568 1.398 . S
C567 C573 1.491 . S
C568 H559 0.950 . S
C568 C567 1.398 . S
C568 C569 1.391 . S
C569 H557 0.950 . S
C569 C565 1.393 . S
C569 C568 1.391 . S
C570 H560 0.950 . S
C570 C571 1.386 . S
C570 C572 1.391 . S
C571 C570 1.386 . S
C571 C575 1.393 . S
C572 H561 0.950 . S
C572 C570 1.391 . S
C572 C573 1.400 . S
C573 C567 1.491 . S
C573 C572 1.400 . S
C573 C574 1.398 . S
C574 H562 0.950 . S
C574 C573 1.398 . S
C574 C575 1.391 . S
C575 H563 0.950 . S
C575 C571 1.393 . S
C575 C574 1.391 . S
H576 C584 0.950 . S
H577 C589 0.950 . S
H578 C586 0.950 . S
H579 C588 0.950 . S
H580 C590 0.950 . S
H581 C592 0.950 . S
H582 C594 0.950 . S
H583 C595 0.950 . S
C584 H576 0.950 . S
C584 C585 1.386 . S
C584 C586 1.391 . S
C585 C584 1.386 . S
C585 C589 1.393 . S
C586 H578 0.950 . S
C586 C584 1.391 . S
C586 C587 1.400 1_554 S
C587 C586 1.400 1_556 S
C587 C588 1.398 . S
C587 C593 1.491 . S
C588 H579 0.950 . S
C588 C587 1.398 . S
C588 C589 1.391 1_556 S
C589 H577 0.950 . S
C589 C585 1.393 . S
C589 C588 1.391 1_554 S
C590 H580 0.950 . S
C590 C591 1.386 . S
C590 C592 1.391 . S
C591 C590 1.386 . S
C591 C595 1.393 . S
C592 H581 0.950 . S
C592 C590 1.391 . S
C592 C593 1.400 . S
C593 C587 1.491 . S
C593 C592 1.400 . S
C593 C594 1.398 . S
C594 H582 0.950 . S
C594 C593 1.398 . S
C594 C595 1.391 . S
C595 H583 0.950 . S
C595 C591 1.393 . S
C595 C594 1.391 . S
H596 C604 0.950 . S
H597 C609 0.924 1_545 S
H598 C606 0.955 . S
H599 C608 0.950 . S
H600 C610 0.950 . S
H601 C612 0.950 . S
H602 C614 0.950 . S
H603 C615 0.950 . S
C604 H596 0.950 . S
C604 C605 1.386 . S
C604 C606 1.391 . S
C605 C604 1.386 . S
C605 C609 1.393 . S
C606 H598 0.955 . S
C606 C604 1.391 . S
C606 C607 1.400 1_554 S
C607 C606 1.400 1_556 S
C607 C608 1.398 . S
C607 C613 1.491 . S
C608 H599 0.950 . S
C608 C607 1.398 . S
C608 C609 1.391 1_556 S
C609 H597 0.924 1_565 S
C609 C605 1.393 . S
C609 C608 1.391 1_554 S
C610 H600 0.950 . S
C610 C611 1.386 . S
C610 C612 1.391 . S
C611 C610 1.386 . S
C611 C615 1.393 . S
C612 H601 0.950 . S
C612 C610 1.391 . S
C612 C613 1.400 . S
C613 C607 1.491 . S
C613 C612 1.400 . S
C613 C614 1.398 . S
C614 H602 0.950 . S
C614 C613 1.398 . S
C614 C615 1.391 . S
C615 H603 0.950 . S
C615 C611 1.393 . S
C615 C614 1.391 . S
H616 C624 0.950 . S
H617 C629 0.950 . S
H618 C626 0.950 . S
H619 C628 0.950 . S
H620 C630 0.950 . S
H621 C632 0.950 . S
H622 C634 0.950 . S
H623 C635 0.950 . S
C624 H616 0.950 . S
C624 C625 1.386 . S
C624 C626 1.391 . S
C625 C624 1.386 . S
C625 C629 1.393 . S
C626 H618 0.950 . S
C626 C624 1.391 . S
C626 C627 1.400 . S
C627 C626 1.400 . S
C627 C628 1.398 . S
C627 C633 1.491 . S
C628 H619 0.950 . S
C628 C627 1.398 . S
C628 C629 1.391 . S
C629 H617 0.950 . S
C629 C625 1.393 . S
C629 C628 1.391 . S
C630 H620 0.950 . S
C630 C631 1.386 . S
C630 C632 1.391 . S
C631 C630 1.386 . S
C631 C635 1.393 . S
C632 H621 0.950 . S
C632 C630 1.391 . S
C632 C633 1.400 . S
C633 C627 1.491 . S
C633 C632 1.400 . S
C633 C634 1.398 . S
C634 H622 0.950 . S
C634 C633 1.398 . S
C634 C635 1.391 . S
C635 H623 0.950 . S
C635 C631 1.393 . S
C635 C634 1.391 . S
H636 C644 0.950 . S
H637 C649 0.950 . S
H638 C646 0.950 . S
H639 C648 0.950 . S
H640 C650 0.950 . S
H641 C652 0.950 . S
H642 C654 0.950 . S
H643 C655 0.950 1_565 S
C644 H636 0.950 . S
C644 C645 1.386 . S
C644 C646 1.391 . S
C645 C644 1.386 . S
C645 C649 1.393 . S
C646 H638 0.950 . S
C646 C644 1.391 . S
C646 C647 1.400 . S
C647 C646 1.400 . S
C647 C648 1.398 . S
C647 C653 1.491 . S
C648 H639 0.950 . S
C648 C647 1.398 . S
C648 C649 1.391 . S
C649 H637 0.950 . S
C649 C645 1.393 . S
C649 C648 1.391 . S
C650 H640 0.950 . S
C650 C651 1.386 . S
C650 C652 1.391 . S
C651 C650 1.386 . S
C651 C655 1.393 . S
C652 H641 0.950 . S
C652 C650 1.391 . S
C652 C653 1.400 . S
C653 C647 1.491 . S
C653 C652 1.400 . S
C653 C654 1.398 . S
C654 H642 0.950 . S
C654 C653 1.398 . S
C654 C655 1.391 . S
C655 H643 0.950 1_545 S
C655 C651 1.393 . S
C655 C654 1.391 . S
H656 C664 0.950 . S
H657 C669 0.950 . S
H658 C666 0.950 . S
H659 C668 0.950 . S
H660 C670 0.950 . S
H661 C672 0.950 . S
H662 C674 0.950 . S
H663 C675 0.950 . S
C664 H656 0.950 . S
C664 C665 1.386 . S
C664 C666 1.391 1_455 S
C665 C664 1.386 . S
C665 C669 1.393 . S
C666 H658 0.950 . S
C666 C664 1.391 1_655 S
C666 C667 1.400 . S
C667 C666 1.400 . S
C667 C668 1.398 1_655 S
C667 C673 1.491 . S
C668 H659 0.950 . S
C668 C667 1.398 1_455 S
C668 C669 1.391 . S
C669 H657 0.950 . S
C669 C665 1.393 . S
C669 C668 1.391 . S
C670 H660 0.950 . S
C670 C671 1.386 . S
C670 C672 1.391 . S
C671 C670 1.386 . S
C671 C675 1.393 . S
C672 H661 0.950 . S
C672 C670 1.391 . S
C672 C673 1.400 . S
C673 C667 1.491 . S
C673 C672 1.400 . S
C673 C674 1.398 . S
C674 H662 0.950 . S
C674 C673 1.398 . S
C674 C675 1.391 . S
C675 H663 0.950 . S
C675 C671 1.393 . S
C675 C674 1.391 . S
H676 C684 0.950 . S
H677 C689 0.950 . S
H678 C686 0.950 . S
H679 C688 0.950 . S
H680 C690 0.950 . S
H681 C692 0.950 . S
H682 C694 0.950 . S
H683 C695 0.950 . S
C684 H676 0.950 . S
C684 C685 1.386 . S
C684 C686 1.391 1_655 S
C685 C684 1.386 . S
C685 C689 1.393 . S
C686 H678 0.950 . S
C686 C684 1.391 1_455 S
C686 C687 1.400 . S
C687 C686 1.400 . S
C687 C688 1.398 1_455 S
C687 C693 1.491 . S
C688 H679 0.950 . S
C688 C687 1.398 1_655 S
C688 C689 1.391 . S
C689 H677 0.950 . S
C689 C685 1.393 . S
C689 C688 1.391 . S
C690 H680 0.950 . S
C690 C691 1.386 . S
C690 C692 1.391 . S
C691 C690 1.386 . S
C691 C695 1.393 . S
C692 H681 0.950 . S
C692 C690 1.391 . S
C692 C693 1.400 . S
C693 C687 1.491 . S
C693 C692 1.400 . S
C693 C694 1.398 . S
C694 H682 0.950 . S
C694 C693 1.398 . S
C694 C695 1.391 . S
C695 H683 0.950 . S
C695 C691 1.393 . S
C695 C694 1.391 . S
H696 C704 0.950 . S
H697 C709 0.950 1_655 S
H698 C706 0.950 . S
H699 C708 0.950 . S
H700 C710 0.950 . S
H701 C712 0.950 . S
H702 C714 0.950 . S
H703 C715 0.950 . S
C704 H696 0.950 . S
C704 C705 1.386 . S
C704 C706 1.391 . S
C705 C704 1.386 . S
C705 C709 1.393 . S
C706 H698 0.950 . S
C706 C704 1.391 . S
C706 C707 1.400 1_455 S
C707 C706 1.400 1_655 S
C707 C708 1.398 . S
C707 C713 1.491 . S
C708 H699 0.950 . S
C708 C707 1.398 . S
C708 C709 1.391 1_655 S
C709 H697 0.950 1_455 S
C709 C705 1.393 . S
C709 C708 1.391 1_455 S
C710 H700 0.950 . S
C710 C711 1.386 . S
C710 C712 1.391 . S
C711 C710 1.386 . S
C711 C715 1.393 . S
C712 H701 0.950 . S
C712 C710 1.391 . S
C712 C713 1.400 . S
C713 C707 1.491 . S
C713 C712 1.400 . S
C713 C714 1.398 . S
C714 H702 0.950 . S
C714 C713 1.398 . S
C714 C715 1.391 . S
C715 H703 0.950 . S
C715 C711 1.393 . S
C715 C714 1.391 . S
H716 C724 0.950 . S
H717 C729 0.950 . S
H718 C726 0.950 . S
H719 C728 0.950 . S
H720 C730 0.950 . S
H721 C732 0.950 . S
H722 C734 0.950 . S
H723 C735 0.950 . S
C724 H716 0.950 . S
C724 C725 1.386 . S
C724 C726 1.391 . S
C725 C724 1.386 . S
C725 C729 1.393 . S
C726 H718 0.950 . S
C726 C724 1.391 . S
C726 C727 1.400 . S
C727 C726 1.400 . S
C727 C728 1.398 . S
C727 C733 1.491 . S
C728 H719 0.950 . S
C728 C727 1.398 . S
C728 C729 1.391 . S
C729 H717 0.950 . S
C729 C725 1.393 . S
C729 C728 1.391 . S
C730 H720 0.950 . S
C730 C731 1.386 . S
C730 C732 1.391 1_655 S
C731 C730 1.386 . S
C731 C735 1.393 . S
C732 H721 0.950 . S
C732 C730 1.391 1_455 S
C732 C733 1.400 . S
C733 C727 1.491 . S
C733 C732 1.400 . S
C733 C734 1.398 1_455 S
C734 H722 0.950 . S
C734 C733 1.398 1_655 S
C734 C735 1.391 . S
C735 H723 0.950 . S
C735 C731 1.393 . S
C735 C734 1.391 . S
H736 C744 0.950 . S
H737 C749 0.950 . S
H738 C746 0.950 . S
H739 C748 0.950 . S
H740 C750 0.950 . S
H741 C752 0.950 . S
H742 C754 0.950 . S
H743 C755 0.950 . S
C744 H736 0.950 . S
C744 C745 1.386 . S
C744 C746 1.391 . S
C745 C744 1.386 . S
C745 C749 1.393 . S
C746 H738 0.950 . S
C746 C744 1.391 . S
C746 C747 1.400 1_545 S
C747 C746 1.400 1_565 S
C747 C748 1.398 . S
C747 C753 1.491 . S
C748 H739 0.950 . S
C748 C747 1.398 . S
C748 C749 1.391 1_565 S
C749 H737 0.950 . S
C749 C745 1.393 . S
C749 C748 1.391 1_545 S
C750 H740 0.950 . S
C750 C751 1.386 . S
C750 C752 1.391 . S
C751 C750 1.386 . S
C751 C755 1.393 . S
C752 H741 0.950 . S
C752 C750 1.391 . S
C752 C753 1.400 . S
C753 C747 1.491 . S
C753 C752 1.400 . S
C753 C754 1.398 . S
C754 H742 0.950 . S
C754 C753 1.398 . S
C754 C755 1.391 . S
C755 H743 0.950 . S
C755 C751 1.393 . S
C755 C754 1.391 . S
H756 C764 0.950 . S
H757 C769 0.950 . S
H758 C766 0.950 . S
H759 C768 0.950 . S
H760 C770 0.950 . S
H761 C772 0.950 . S
H762 C774 0.950 1_545 S
H763 C775 0.950 . S
C764 H756 0.950 . S
C764 C765 1.386 . S
C764 C766 1.391 . S
C765 C764 1.386 . S
C765 C769 1.393 . S
C766 H758 0.950 . S
C766 C764 1.391 . S
C766 C767 1.400 . S
C767 C766 1.400 . S
C767 C768 1.398 . S
C767 C773 1.491 . S
C768 H759 0.950 . S
C768 C767 1.398 . S
C768 C769 1.391 . S
C769 H757 0.950 . S
C769 C765 1.393 . S
C769 C768 1.391 . S
C770 H760 0.950 . S
C770 C771 1.386 . S
C770 C772 1.391 . S
C771 C770 1.386 . S
C771 C775 1.393 . S
C772 H761 0.950 . S
C772 C770 1.391 . S
C772 C773 1.400 1_565 S
C773 C767 1.491 . S
C773 C772 1.400 1_545 S
C773 C774 1.398 1_545 S
C774 H762 0.950 1_565 S
C774 C773 1.398 1_565 S
C774 C775 1.391 . S
C775 H763 0.950 . S
C775 C771 1.393 . S
C775 C774 1.391 . S
H776 C784 0.950 . S
H777 C789 0.950 . S
H778 C786 0.950 . S
H779 C788 0.950 . S
H780 C790 0.950 . S
H781 C792 0.950 . S
H782 C794 0.950 . S
H783 C795 0.950 . S
C784 H776 0.950 . S
C784 C785 1.386 . S
C784 C786 1.391 . S
C785 C784 1.386 . S
C785 C789 1.393 . S
C786 H778 0.950 . S
C786 C784 1.391 . S
C786 C787 1.400 . S
C787 C786 1.400 . S
C787 C788 1.398 . S
C787 C793 1.491 . S
C788 H779 0.950 . S
C788 C787 1.398 . S
C788 C789 1.391 . S
C789 H777 0.950 . S
C789 C785 1.393 . S
C789 C788 1.391 . S
C790 H780 0.950 . S
C790 C791 1.386 . S
C790 C792 1.391 . S
C791 C790 1.386 . S
C791 C795 1.393 . S
C792 H781 0.950 . S
C792 C790 1.391 . S
C792 C793 1.400 . S
C793 C787 1.491 . S
C793 C792 1.400 . S
C793 C794 1.398 . S
C794 H782 0.950 . S
C794 C793 1.398 . S
C794 C795 1.391 . S
C795 H783 0.950 . S
C795 C791 1.393 . S
C795 C794 1.391 . S
H796 C804 0.950 . S
H797 C809 0.950 . S
H798 C806 0.950 . S
H799 C808 0.950 . S
H800 C810 0.950 . S
H801 C812 0.950 . S
H802 C814 0.950 . S
H803 C815 0.950 . S
C804 H796 0.950 . S
C804 C805 1.386 . S
C804 C806 1.391 . S
C805 C804 1.386 . S
C805 C809 1.393 . S
C806 H798 0.950 . S
C806 C804 1.391 . S
C806 C807 1.400 . S
C807 C806 1.400 . S
C807 C808 1.398 . S
C807 C813 1.491 . S
C808 H799 0.950 . S
C808 C807 1.398 . S
C808 C809 1.391 . S
C809 H797 0.950 . S
C809 C805 1.393 . S
C809 C808 1.391 . S
C810 H800 0.950 . S
C810 C811 1.386 . S
C810 C812 1.391 1_565 S
C811 C810 1.386 . S
C811 C815 1.393 . S
C812 H801 0.950 . S
C812 C810 1.391 1_545 S
C812 C813 1.400 . S
C813 C807 1.491 . S
C813 C812 1.400 . S
C813 C814 1.398 1_545 S
C814 H802 0.950 . S
C814 C813 1.398 1_565 S
C814 C815 1.391 . S
C815 H803 0.950 . S
C815 C811 1.393 . S
C815 C814 1.391 . S
H816 C824 0.950 . S
H817 C829 0.950 . S
H818 C826 0.950 . S
H819 C828 0.950 . S
H820 C830 0.950 . S
H821 C832 0.950 . S
H822 C834 0.950 . S
H823 C835 0.950 . S
C824 H816 0.950 . S
C824 C825 1.386 1_455 S
C824 C826 1.391 . S
C825 C824 1.386 1_655 S
C825 C829 1.393 . S
C826 H818 0.950 . S
C826 C824 1.391 . S
C826 C827 1.416 . S
C827 C826 1.416 . S
C827 C828 1.381 1_455 S
C827 C833 1.492 . S
C828 H819 0.950 . S
C828 C827 1.381 1_655 S
C828 C829 1.391 . S
C829 H817 0.950 . S
C829 C825 1.393 . S
C829 C828 1.391 . S
C830 H820 0.950 . S
C830 C831 1.386 1_655 S
C830 C832 1.391 . S
C831 C830 1.386 1_455 S
C831 C835 1.393 . S
C832 H821 0.950 . S
C832 C830 1.391 . S
C832 C833 1.400 1_655 S
C833 C827 1.492 . S
C833 C832 1.400 1_455 S
C833 C834 1.398 . S
C834 H822 0.950 . S
C834 C833 1.398 . S
C834 C835 1.391 . S
C835 H823 0.950 . S
C835 C831 1.393 . S
C835 C834 1.391 . S
H836 C844 0.950 . S
H837 C849 0.950 . S
H838 C846 0.950 . S
H839 C848 0.950 . S
H840 C850 0.950 . S
H841 C852 0.950 . S
H842 C854 0.950 . S
H843 C855 0.950 . S
C844 H836 0.950 . S
C844 C845 1.386 1_655 S
C844 C846 1.391 . S
C845 C844 1.386 1_455 S
C845 C849 1.393 . S
C846 H838 0.950 . S
C846 C844 1.391 . S
C846 C847 1.400 1_655 S
C847 C846 1.400 1_455 S
C847 C848 1.398 . S
C847 C853 1.491 . S
C848 H839 0.950 . S
C848 C847 1.398 . S
C848 C849 1.391 . S
C849 H837 0.950 . S
C849 C845 1.393 . S
C849 C848 1.391 . S
C850 H840 0.950 . S
C850 C851 1.386 1_455 S
C850 C852 1.391 . S
C851 C850 1.386 1_655 S
C851 C855 1.393 . S
C852 H841 0.950 . S
C852 C850 1.391 . S
C852 C853 1.412 . S
C853 C847 1.491 . S
C853 C852 1.412 . S
C853 C854 1.386 1_455 S
C854 H842 0.950 . S
C854 C853 1.386 1_655 S
C854 C855 1.391 . S
C855 H843 0.950 . S
C855 C851 1.393 . S
C855 C854 1.391 . S
H856 C864 0.950 . S
H857 C869 0.950 . S
H858 C866 0.950 . S
H859 C868 0.950 . S
H860 C870 0.950 . S
H861 C872 0.950 . S
H862 C874 0.950 . S
H863 C875 0.950 . S
C864 H856 0.950 . S
C864 C865 1.388 . S
C864 C866 1.391 . S
C865 C864 1.388 . S
C865 C869 1.390 1_565 S
C866 H858 0.950 . S
C866 C864 1.391 . S
C866 C867 1.400 1_565 S
C867 C866 1.400 1_545 S
C867 C868 1.398 . S
C867 C873 1.491 . S
C868 H859 0.950 . S
C868 C867 1.398 . S
C868 C869 1.391 . S
C869 H857 0.950 . S
C869 C865 1.390 1_545 S
C869 C868 1.391 . S
C870 H860 0.950 . S
C870 C871 1.386 . S
C870 C872 1.391 . S
C871 C870 1.386 . S
C871 C875 1.393 1_545 S
C872 H861 0.950 . S
C872 C870 1.391 . S
C872 C873 1.400 . S
C873 C867 1.491 . S
C873 C872 1.400 . S
C873 C874 1.398 1_545 S
C874 H862 0.950 . S
C874 C873 1.398 1_565 S
C874 C875 1.391 . S
C875 H863 0.950 . S
C875 C871 1.393 1_565 S
C875 C874 1.391 . S
H876 C884 0.950 . S
H877 C889 0.950 . S
H878 C886 0.950 . S
H879 C888 0.950 . S
H880 C890 0.950 . S
H881 C892 0.950 . S
H882 C894 0.950 . S
H883 C895 0.950 . S
C884 H876 0.950 . S
C884 C885 1.386 . S
C884 C886 1.391 . S
C885 C884 1.386 . S
C885 C889 1.393 . S
C886 H878 0.950 . S
C886 C884 1.391 . S
C886 C887 1.400 . S
C887 C886 1.400 . S
C887 C888 1.398 . S
C887 C893 1.491 . S
C888 H879 0.950 . S
C888 C887 1.398 . S
C888 C889 1.391 . S
C889 H877 0.950 . S
C889 C885 1.393 . S
C889 C888 1.391 . S
C890 H880 0.950 . S
C890 C891 1.386 . S
C890 C892 1.391 . S
C891 C890 1.386 . S
C891 C895 1.393 . S
C892 H881 0.950 . S
C892 C890 1.391 . S
C892 C893 1.400 . S
C893 C887 1.491 . S
C893 C892 1.400 . S
C893 C894 1.398 . S
C894 H882 0.950 . S
C894 C893 1.398 . S
C894 C895 1.391 . S
C895 H883 0.950 . S
C895 C891 1.393 . S
C895 C894 1.391 . S
H896 C904 0.950 . S
H897 C909 0.950 . S
H898 C906 0.950 . S
H899 C908 0.950 . S
H900 C910 0.950 . S
H901 C912 0.950 . S
H902 C914 0.950 . S
H903 C915 0.950 . S
C904 H896 0.950 . S
C904 C905 1.386 . S
C904 C906 1.391 . S
C905 C904 1.386 . S
C905 C909 1.393 1_554 S
C906 H898 0.950 . S
C906 C904 1.391 . S
C906 C907 1.400 . S
C907 C906 1.400 . S
C907 C908 1.398 1_554 S
C907 C913 1.492 . S
C908 H899 0.950 . S
C908 C907 1.398 1_556 S
C908 C909 1.391 . S
C909 H897 0.950 . S
C909 C905 1.393 1_556 S
C909 C908 1.391 . S
C910 H900 0.950 . S
C910 C911 1.423 . S
C910 C912 1.391 . S
C911 C910 1.423 . S
C911 C915 1.355 1_556 S
C912 H901 0.950 . S
C912 C910 1.391 . S
C912 C913 1.371 1_556 S
C913 C907 1.492 . S
C913 C912 1.371 1_554 S
C913 C914 1.426 . S
C914 H902 0.950 . S
C914 C913 1.426 . S
C914 C915 1.391 . S
C915 H903 0.950 . S
C915 C911 1.355 1_554 S
C915 C914 1.391 . S
H916 C924 0.950 . S
H917 C929 0.950 . S
H918 C926 0.950 . S
H919 C928 0.950 . S
H920 C930 0.950 . S
H921 C932 0.950 . S
H922 C934 0.950 . S
H923 C935 0.950 . S
C924 H916 0.950 . S
C924 C925 1.386 . S
C924 C926 1.391 . S
C925 C924 1.386 . S
C925 C929 1.393 . S
C926 H918 0.950 . S
C926 C924 1.391 . S
C926 C927 1.400 . S
C927 C926 1.400 . S
C927 C928 1.398 . S
C927 C933 1.491 . S
C928 H919 0.950 . S
C928 C927 1.398 . S
C928 C929 1.391 . S
C929 H917 0.950 . S
C929 C925 1.393 . S
C929 C928 1.391 . S
C930 H920 0.950 . S
C930 C931 1.386 . S
C930 C932 1.391 . S
C931 C930 1.386 . S
C931 C935 1.393 . S
C932 H921 0.950 . S
C932 C930 1.391 . S
C932 C933 1.400 . S
C933 C927 1.491 . S
C933 C932 1.400 . S
C933 C934 1.398 . S
C934 H922 0.950 . S
C934 C933 1.398 . S
C934 C935 1.391 . S
C935 H923 0.950 . S
C935 C931 1.393 . S
C935 C934 1.391 . S
H936 C944 0.950 . S
H937 C949 0.950 . S
H938 C946 0.950 . S
H939 C948 0.950 . S
H940 C950 0.950 . S
H941 C952 0.950 . S
H942 C954 0.950 . S
H943 C955 0.950 . S
C944 H936 0.950 . S
C944 C945 1.386 . S
C944 C946 1.391 . S
C945 C944 1.386 . S
C945 C949 1.393 . S
C946 H938 0.950 . S
C946 C944 1.391 . S
C946 C947 1.400 . S
C947 C946 1.400 . S
C947 C948 1.398 . S
C947 C953 1.491 . S
C948 H939 0.950 . S
C948 C947 1.398 . S
C948 C949 1.391 . S
C949 H937 0.950 . S
C949 C945 1.393 . S
C949 C948 1.391 . S
C950 H940 0.950 . S
C950 C951 1.386 . S
C950 C952 1.391 . S
C951 C950 1.386 . S
C951 C955 1.393 . S
C952 H941 0.950 . S
C952 C950 1.391 . S
C952 C953 1.400 . S
C953 C947 1.491 . S
C953 C952 1.400 . S
C953 C954 1.398 . S
C954 H942 0.950 . S
C954 C953 1.398 . S
C954 C955 1.391 . S
C955 H943 0.950 . S
C955 C951 1.393 . S
C955 C954 1.391 . S
H956 C964 0.950 . S
H957 C969 0.950 . S
H958 C966 0.950 . S
H959 C968 0.950 . S
H960 C970 0.950 . S
H961 C972 0.950 . S
H962 C974 0.950 . S
H963 C975 0.950 . S
C964 H956 0.950 . S
C964 C965 1.386 . S
C964 C966 1.391 . S
C965 C964 1.386 . S
C965 C969 1.393 . S
C966 H958 0.950 . S
C966 C964 1.391 . S
C966 C967 1.400 . S
C967 C966 1.400 . S
C967 C968 1.398 . S
C967 C973 1.491 . S
C968 H959 0.950 . S
C968 C967 1.398 . S
C968 C969 1.391 . S
C969 H957 0.950 . S
C969 C965 1.393 . S
C969 C968 1.391 . S
C970 H960 0.950 . S
C970 C971 1.386 . S
C970 C972 1.391 . S
C971 C970 1.386 . S
C971 C975 1.393 . S
C972 H961 0.950 . S
C972 C970 1.391 . S
C972 C973 1.400 . S
C973 C967 1.491 . S
C973 C972 1.400 . S
C973 C974 1.398 . S
C974 H962 0.950 . S
C974 C973 1.398 . S
C974 C975 1.391 . S
C975 H963 0.950 . S
C975 C971 1.393 . S
C975 C974 1.391 . S
H976 C984 0.950 . S
H977 C989 0.950 . S
H978 C986 0.950 . S
H979 C988 0.950 . S
H980 C990 0.950 . S
H981 C992 0.950 . S
H982 C994 0.950 . S
H983 C995 0.950 . S
C984 H976 0.950 . S
C984 C985 1.386 . S
C984 C986 1.391 . S
C985 C984 1.386 . S
C985 C989 1.393 . S
C986 H978 0.950 . S
C986 C984 1.391 . S
C986 C987 1.400 . S
C987 C986 1.400 . S
C987 C988 1.398 . S
C987 C993 1.491 . S
C988 H979 0.950 . S
C988 C987 1.398 . S
C988 C989 1.391 . S
C989 H977 0.950 . S
C989 C985 1.393 . S
C989 C988 1.391 . S
C990 H980 0.950 . S
C990 C991 1.386 . S
C990 C992 1.391 . S
C991 C990 1.386 . S
C991 C995 1.393 . S
C992 H981 0.950 . S
C992 C990 1.391 . S
C992 C993 1.400 . S
C993 C987 1.491 . S
C993 C992 1.400 . S
C993 C994 1.398 . S
C994 H982 0.950 . S
C994 C993 1.398 . S
C994 C995 1.391 . S
C995 H983 0.950 . S
C995 C991 1.393 . S
C995 C994 1.391 . S
H996 C1004 0.950 . S
H997 C1009 0.950 . S
H998 C1006 0.950 . S
H999 C1008 0.950 . S
H1000 C1010 0.950 . S
H1001 C1012 0.950 . S
H1002 C1014 0.950 . S
H1003 C1015 0.950 . S
C1004 H996 0.950 . S
C1004 C1005 1.386 . S
C1004 C1006 1.391 . S
C1005 C1004 1.386 . S
C1005 C1009 1.393 . S
C1006 H998 0.950 . S
C1006 C1004 1.391 . S
C1006 C1007 1.400 . S
C1007 C1006 1.400 . S
C1007 C1008 1.398 . S
C1007 C1013 1.491 . S
C1008 H999 0.950 . S
C1008 C1007 1.398 . S
C1008 C1009 1.391 . S
C1009 H997 0.950 . S
C1009 C1005 1.393 . S
C1009 C1008 1.391 . S
C1010 H1000 0.950 . S
C1010 C1011 1.386 . S
C1010 C1012 1.391 . S
C1011 C1010 1.386 . S
C1011 C1015 1.393 . S
C1012 H1001 0.950 . S
C1012 C1010 1.391 . S
C1012 C1013 1.400 . S
C1013 C1007 1.491 . S
C1013 C1012 1.400 . S
C1013 C1014 1.398 . S
C1014 H1002 0.950 . S
C1014 C1013 1.398 . S
C1014 C1015 1.391 . S
C1015 H1003 0.950 . S
C1015 C1011 1.393 . S
C1015 C1014 1.391 . S
H1016 C1024 0.950 . S
H1017 C1029 0.950 . S
H1018 C1026 0.950 . S
H1019 C1028 0.950 . S
H1020 C1030 0.950 . S
H1021 C1032 0.950 . S
H1022 C1034 0.950 . S
H1023 C1035 0.950 . S
C1024 H1016 0.950 . S
C1024 C1025 1.386 . S
C1024 C1026 1.391 . S
C1025 C1024 1.386 . S
C1025 C1029 1.393 1_545 S
C1026 H1018 0.950 . S
C1026 C1024 1.391 . S
C1026 C1027 1.400 . S
C1027 C1026 1.400 . S
C1027 C1028 1.398 1_545 S
C1027 C1033 1.492 . S
C1028 H1019 0.950 . S
C1028 C1027 1.398 1_565 S
C1028 C1029 1.391 . S
C1029 H1017 0.950 . S
C1029 C1025 1.393 1_565 S
C1029 C1028 1.391 . S
C1030 H1020 0.950 . S
C1030 C1031 1.386 . S
C1030 C1032 1.391 . S
C1031 C1030 1.386 . S
C1031 C1035 1.393 1_565 S
C1032 H1021 0.950 . S
C1032 C1030 1.391 . S
C1032 C1033 1.388 1_565 S
C1033 C1027 1.492 . S
C1033 C1032 1.388 1_545 S
C1033 C1034 1.411 . S
C1034 H1022 0.950 . S
C1034 C1033 1.411 . S
C1034 C1035 1.391 . S
C1035 H1023 0.950 . S
C1035 C1031 1.393 1_545 S
C1035 C1034 1.391 . S
H1036 C1044 0.950 . S
H1037 C1049 0.950 . S
H1038 C1046 0.950 . S
H1039 C1048 0.950 . S
H1040 C1050 0.950 . S
H1041 C1052 0.950 . S
H1042 C1054 0.950 . S
H1043 C1055 0.950 . S
C1044 H1036 0.950 . S
C1044 C1045 1.386 . S
C1044 C1046 1.391 . S
C1045 C1044 1.386 . S
C1045 C1049 1.393 1_556 S
C1046 H1038 0.950 . S
C1046 C1044 1.391 . S
C1046 C1047 1.396 1_556 S
C1047 C1046 1.396 1_554 S
C1047 C1048 1.402 . S
C1047 C1053 1.491 . S
C1048 H1039 0.950 . S
C1048 C1047 1.402 . S
C1048 C1049 1.391 . S
C1049 H1037 0.950 . S
C1049 C1045 1.393 1_554 S
C1049 C1048 1.391 . S
C1050 H1040 0.950 . S
C1050 C1051 1.386 . S
C1050 C1052 1.391 . S
C1051 C1050 1.386 . S
C1051 C1055 1.393 1_554 S
C1052 H1041 0.950 . S
C1052 C1050 1.391 . S
C1052 C1053 1.400 . S
C1053 C1047 1.491 . S
C1053 C1052 1.400 . S
C1053 C1054 1.398 1_554 S
C1054 H1042 0.950 . S
C1054 C1053 1.398 1_556 S
C1054 C1055 1.391 . S
C1055 H1043 0.950 . S
C1055 C1051 1.393 1_556 S
C1055 C1054 1.391 . S
H1056 C1064 0.950 . S
H1057 C1069 0.950 . S
H1058 C1066 0.950 . S
H1059 C1068 0.950 1_545 S
H1060 C1070 0.950 . S
H1061 C1072 0.950 . S
H1062 C1074 0.950 1_565 S
H1063 C1075 0.950 . S
C1064 H1056 0.950 . S
C1064 C1065 1.386 . S
C1064 C1066 1.391 . S
C1065 C1064 1.386 . S
C1065 C1069 1.393 1_655 S
C1066 H1058 0.950 . S
C1066 C1064 1.391 . S
C1066 C1067 1.400 . S
C1067 C1066 1.400 . S
C1067 C1068 1.398 1_655 S
C1067 C1073 1.491 1_565 S
C1068 H1059 0.950 1_565 S
C1068 C1067 1.398 1_455 S
C1068 C1069 1.391 . S
C1069 H1057 0.950 . S
C1069 C1065 1.393 1_455 S
C1069 C1068 1.391 . S
C1070 H1060 0.950 . S
C1070 C1071 1.386 1_455 S
C1070 C1072 1.391 . S
C1071 C1070 1.386 1_655 S
C1071 C1075 1.393 . S
C1072 H1061 0.950 . S
C1072 C1070 1.391 . S
C1072 C1073 1.400 1_455 S
C1073 C1067 1.491 1_545 S
C1073 C1072 1.400 1_655 S
C1073 C1074 1.398 . S
C1074 H1062 0.950 1_545 S
C1074 C1073 1.398 . S
C1074 C1075 1.391 . S
C1075 H1063 0.950 . S
C1075 C1071 1.393 . S
C1075 C1074 1.391 . S
H1076 C1084 0.950 . S
H1077 C1089 0.950 . S
H1078 C1086 0.950 . S
H1079 C1088 0.950 . S
H1080 C1090 0.950 . S
H1081 C1092 0.950 . S
H1082 C1094 0.950 . S
H1083 C1095 0.950 . S
C1084 H1076 0.950 . S
C1084 C1085 1.386 . S
C1084 C1086 1.391 . S
C1085 C1084 1.386 . S
C1085 C1089 1.393 1_455 S
C1086 H1078 0.950 . S
C1086 C1084 1.391 . S
C1086 C1087 1.400 . S
C1087 C1086 1.400 . S
C1087 C1088 1.398 1_455 S
C1087 C1093 1.491 . S
C1088 H1079 0.950 . S
C1088 C1087 1.398 1_655 S
C1088 C1089 1.391 . S
C1089 H1077 0.950 . S
C1089 C1085 1.393 1_655 S
C1089 C1088 1.391 . S
C1090 H1080 0.950 . S
C1090 C1091 1.386 1_655 S
C1090 C1092 1.391 . S
C1091 C1090 1.386 1_455 S
C1091 C1095 1.393 . S
C1092 H1081 0.950 . S
C1092 C1090 1.391 . S
C1092 C1093 1.400 1_655 S
C1093 C1087 1.491 . S
C1093 C1092 1.400 1_455 S
C1093 C1094 1.398 . S
C1094 H1082 0.950 . S
C1094 C1093 1.398 . S
C1094 C1095 1.391 . S
C1095 H1083 0.950 . S
C1095 C1091 1.393 . S
C1095 C1094 1.391 . S
H1096 C1104 0.950 . S
H1097 C1109 0.950 . S
H1098 C1106 0.950 1_554 S
H1099 C1108 0.950 . S
H1100 C1110 0.950 . S
H1101 C1112 0.950 1_556 S
H1102 C1114 0.950 . S
H1103 C1115 0.950 . S
C1104 H1096 0.950 . S
C1104 C1105 1.386 . S
C1104 C1106 1.391 . S
C1105 C1104 1.386 . S
C1105 C1109 1.393 1_565 S
C1106 H1098 0.950 1_556 S
C1106 C1104 1.391 . S
C1106 C1107 1.400 . S
C1107 C1106 1.400 . S
C1107 C1108 1.398 1_565 S
C1107 C1113 1.491 1_556 S
C1108 H1099 0.950 . S
C1108 C1107 1.398 1_545 S
C1108 C1109 1.391 . S
C1109 H1097 0.950 . S
C1109 C1105 1.393 1_545 S
C1109 C1108 1.391 . S
C1110 H1100 0.950 . S
C1110 C1111 1.386 1_545 S
C1110 C1112 1.391 . S
C1111 C1110 1.386 1_565 S
C1111 C1115 1.393 . S
C1112 H1101 0.950 1_554 S
C1112 C1110 1.391 . S
C1112 C1113 1.400 1_545 S
C1113 C1107 1.491 1_554 S
C1113 C1112 1.400 1_565 S
C1113 C1114 1.398 . S
C1114 H1102 0.950 . S
C1114 C1113 1.398 . S
C1114 C1115 1.391 . S
C1115 H1103 0.950 . S
C1115 C1111 1.393 . S
C1115 C1114 1.391 . S
H1116 C1124 0.950 . S
H1117 C1129 0.950 . S
H1118 C1126 0.950 1_556 S
H1119 C1128 0.950 . S
H1120 C1130 0.950 . S
H1121 C1132 0.950 1_554 S
H1122 C1134 0.950 . S
H1123 C1135 0.950 . S
C1124 H1116 0.950 . S
C1124 C1125 1.386 . S
C1124 C1126 1.391 . S
C1125 C1124 1.386 . S
C1125 C1129 1.393 . S
C1126 H1118 0.950 1_554 S
C1126 C1124 1.391 . S
C1126 C1127 1.400 . S
C1127 C1126 1.400 . S
C1127 C1128 1.398 . S
C1127 C1133 1.491 1_554 S
C1128 H1119 0.950 . S
C1128 C1127 1.398 . S
C1128 C1129 1.391 . S
C1129 H1117 0.950 . S
C1129 C1125 1.393 . S
C1129 C1128 1.391 . S
C1130 H1120 0.950 . S
C1130 C1131 1.386 . S
C1130 C1132 1.391 . S
C1131 C1130 1.386 . S
C1131 C1135 1.393 . S
C1132 H1121 0.950 1_556 S
C1132 C1130 1.391 . S
C1132 C1133 1.400 . S
C1133 C1127 1.491 1_556 S
C1133 C1132 1.400 . S
C1133 C1134 1.398 . S
C1134 H1122 0.950 . S
C1134 C1133 1.398 . S
C1134 C1135 1.391 . S
C1135 H1123 0.950 . S
C1135 C1131 1.393 . S
C1135 C1134 1.391 . S
H1136 C1144 0.951 . S
H1137 C1149 0.950 . S
H1138 C1146 0.949 . S
H1139 C1148 0.951 . S
H1140 C1150 0.950 . S
H1141 C1152 0.950 . S
H1142 C1154 0.950 . S
H1143 C1155 0.952 . S
C1144 H1136 0.951 . S
C1144 C1145 1.386 . S
C1144 C1146 1.392 . S
C1145 C1144 1.386 . S
C1145 C1149 1.393 . S
C1146 H1138 0.949 . S
C1146 C1144 1.392 . S
C1146 C1147 1.402 . S
C1147 C1146 1.402 . S
C1147 C1148 1.398 . S
C1147 C1153 1.491 . S
C1148 H1139 0.951 . S
C1148 C1147 1.398 . S
C1148 C1149 1.391 . S
C1149 H1137 0.950 . S
C1149 C1145 1.393 . S
C1149 C1148 1.391 . S
C1150 H1140 0.950 . S
C1150 C1151 1.386 . S
C1150 C1152 1.391 . S
C1151 C1150 1.386 . S
C1151 C1155 1.393 . S
C1152 H1141 0.950 . S
C1152 C1150 1.391 . S
C1152 C1153 1.400 . S
C1153 C1147 1.491 . S
C1153 C1152 1.400 . S
C1153 C1154 1.398 . S
C1154 H1142 0.950 . S
C1154 C1153 1.398 . S
C1154 C1155 1.391 . S
C1155 H1143 0.952 . S
C1155 C1151 1.393 . S
C1155 C1154 1.391 . S
H1156 C1164 0.950 . S
H1157 C1169 0.950 . S
H1158 C1166 0.950 . S
H1159 C1168 0.950 . S
H1160 C1170 0.950 . S
H1161 C1172 0.950 . S
H1162 C1174 0.950 . S
H1163 C1175 0.950 . S
C1164 H1156 0.950 . S
C1164 C1165 1.386 . S
C1164 C1166 1.391 . S
C1165 C1164 1.386 . S
C1165 C1169 1.393 . S
C1166 H1158 0.950 . S
C1166 C1164 1.391 . S
C1166 C1167 1.400 . S
C1167 C1166 1.400 . S
C1167 C1168 1.398 . S
C1167 C1173 1.491 . S
C1168 H1159 0.950 . S
C1168 C1167 1.398 . S
C1168 C1169 1.391 . S
C1169 H1157 0.950 . S
C1169 C1165 1.393 . S
C1169 C1168 1.391 . S
C1170 H1160 0.950 . S
C1170 C1171 1.386 . S
C1170 C1172 1.391 . S
C1171 C1170 1.386 . S
C1171 C1175 1.393 . S
C1172 H1161 0.950 . S
C1172 C1170 1.391 . S
C1172 C1173 1.400 . S
C1173 C1167 1.491 . S
C1173 C1172 1.400 . S
C1173 C1174 1.398 . S
C1174 H1162 0.950 . S
C1174 C1173 1.398 . S
C1174 C1175 1.391 . S
C1175 H1163 0.950 . S
C1175 C1171 1.393 . S
C1175 C1174 1.391 . S
H1176 C1184 0.950 . S
H1177 C1189 0.950 . S
H1178 C1186 0.950 1_655 S
H1179 C1188 0.950 . S
H1180 C1190 0.950 . S
H1181 C1192 0.950 1_455 S
H1182 C1194 0.950 . S
H1183 C1195 0.950 . S
C1184 H1176 0.950 . S
C1184 C1185 1.386 1_554 S
C1184 C1186 1.391 . S
C1185 C1184 1.386 1_556 S
C1185 C1189 1.393 . S
C1186 H1178 0.950 1_455 S
C1186 C1184 1.391 . S
C1186 C1187 1.400 1_554 S
C1187 C1186 1.400 1_556 S
C1187 C1188 1.398 . S
C1187 C1193 1.491 1_455 S
C1188 H1179 0.950 . S
C1188 C1187 1.398 . S
C1188 C1189 1.391 . S
C1189 H1177 0.950 . S
C1189 C1185 1.393 . S
C1189 C1188 1.391 . S
C1190 H1180 0.950 . S
C1190 C1191 1.386 . S
C1190 C1192 1.391 . S
C1191 C1190 1.386 . S
C1191 C1195 1.393 1_556 S
C1192 H1181 0.950 1_655 S
C1192 C1190 1.391 . S
C1192 C1193 1.400 . S
C1193 C1187 1.491 1_655 S
C1193 C1192 1.400 . S
C1193 C1194 1.398 1_556 S
C1194 H1182 0.950 . S
C1194 C1193 1.398 1_554 S
C1194 C1195 1.391 . S
C1195 H1183 0.950 . S
C1195 C1191 1.393 1_554 S
C1195 C1194 1.391 . S
H1196 C1204 0.950 . S
H1197 C1209 0.950 . S
H1198 C1206 0.950 . S
H1199 C1208 0.950 . S
H1200 C1210 0.950 . S
H1201 C1212 0.950 . S
H1202 C1214 0.950 . S
H1203 C1215 0.950 . S
C1204 H1196 0.950 . S
C1204 C1205 1.386 . S
C1204 C1206 1.391 . S
C1205 C1204 1.386 . S
C1205 C1209 1.393 . S
C1206 H1198 0.950 . S
C1206 C1204 1.391 . S
C1206 C1207 1.400 . S
C1207 C1206 1.400 . S
C1207 C1208 1.398 . S
C1207 C1213 1.491 1_455 S
C1208 H1199 0.950 . S
C1208 C1207 1.398 . S
C1208 C1209 1.391 . S
C1209 H1197 0.950 . S
C1209 C1205 1.393 . S
C1209 C1208 1.391 . S
C1210 H1200 0.950 . S
C1210 C1211 1.386 . S
C1210 C1212 1.391 . S
C1211 C1210 1.386 . S
C1211 C1215 1.393 . S
C1212 H1201 0.950 . S
C1212 C1210 1.391 . S
C1212 C1213 1.400 . S
C1213 C1207 1.491 1_655 S
C1213 C1212 1.400 . S
C1213 C1214 1.398 . S
C1214 H1202 0.950 . S
C1214 C1213 1.398 . S
C1214 C1215 1.391 . S
C1215 H1203 0.950 . S
C1215 C1211 1.393 . S
C1215 C1214 1.391 . S
H1216 C1224 0.950 . S
H1217 C1229 0.950 . S
H1218 C1226 0.950 . S
H1219 C1228 0.950 . S
H1220 C1230 0.950 . S
H1221 C1232 0.950 . S
H1222 C1234 0.950 . S
H1223 C1235 0.950 . S
C1224 H1216 0.950 . S
C1224 C1225 1.386 . S
C1224 C1226 1.391 . S
C1225 C1224 1.386 . S
C1225 C1229 1.393 . S
C1226 H1218 0.950 . S
C1226 C1224 1.391 . S
C1226 C1227 1.400 . S
C1227 C1226 1.400 . S
C1227 C1228 1.398 . S
C1227 C1233 1.491 . S
C1228 H1219 0.950 . S
C1228 C1227 1.398 . S
C1228 C1229 1.391 . S
C1229 H1217 0.950 . S
C1229 C1225 1.393 . S
C1229 C1228 1.391 . S
C1230 H1220 0.950 . S
C1230 C1231 1.386 . S
C1230 C1232 1.391 . S
C1231 C1230 1.386 . S
C1231 C1235 1.393 . S
C1232 H1221 0.950 . S
C1232 C1230 1.391 . S
C1232 C1233 1.400 . S
C1233 C1227 1.491 . S
C1233 C1232 1.400 . S
C1233 C1234 1.398 . S
C1234 H1222 0.950 . S
C1234 C1233 1.398 . S
C1234 C1235 1.391 . S
C1235 H1223 0.950 . S
C1235 C1231 1.393 . S
C1235 C1234 1.391 . S
H1236 C1244 0.950 . S
H1237 C1249 0.950 . S
H1238 C1246 0.950 . S
H1239 C1248 0.950 . S
H1240 C1250 0.950 . S
H1241 C1252 0.950 . S
H1242 C1254 0.950 . S
H1243 C1255 0.950 . S
C1244 H1236 0.950 . S
C1244 C1245 1.386 . S
C1244 C1246 1.391 . S
C1245 C1244 1.386 . S
C1245 C1249 1.393 . S
C1246 H1238 0.950 . S
C1246 C1244 1.391 . S
C1246 C1247 1.400 . S
C1247 C1246 1.400 . S
C1247 C1248 1.398 . S
C1247 C1253 1.491 . S
C1248 H1239 0.950 . S
C1248 C1247 1.398 . S
C1248 C1249 1.391 . S
C1249 H1237 0.950 . S
C1249 C1245 1.393 . S
C1249 C1248 1.391 . S
C1250 H1240 0.950 . S
C1250 C1251 1.386 . S
C1250 C1252 1.391 . S
C1251 C1250 1.386 . S
C1251 C1255 1.393 . S
C1252 H1241 0.950 . S
C1252 C1250 1.391 . S
C1252 C1253 1.400 . S
C1253 C1247 1.491 . S
C1253 C1252 1.400 . S
C1253 C1254 1.398 . S
C1254 H1242 0.950 . S
C1254 C1253 1.398 . S
C1254 C1255 1.391 . S
C1255 H1243 0.950 . S
C1255 C1251 1.393 . S
C1255 C1254 1.391 . S
H1256 C1264 0.950 . S
H1257 C1269 0.950 . S
H1258 C1266 0.950 . S
H1259 C1268 0.950 1_545 S
H1260 C1270 0.950 . S
H1261 C1272 0.950 . S
H1262 C1274 0.954 . S
H1263 C1275 0.950 . S
C1264 H1256 0.950 . S
C1264 C1265 1.386 . S
C1264 C1266 1.391 . S
C1265 C1264 1.386 . S
C1265 C1269 1.393 . S
C1266 H1258 0.950 . S
C1266 C1264 1.391 . S
C1266 C1267 1.400 . S
C1267 C1266 1.400 . S
C1267 C1268 1.398 . S
C1267 C1273 1.491 1_565 S
C1268 H1259 0.950 1_565 S
C1268 C1267 1.398 . S
C1268 C1269 1.391 . S
C1269 H1257 0.950 . S
C1269 C1265 1.393 . S
C1269 C1268 1.391 . S
C1270 H1260 0.950 . S
C1270 C1271 1.386 . S
C1270 C1272 1.391 . S
C1271 C1270 1.386 . S
C1271 C1275 1.393 . S
C1272 H1261 0.950 . S
C1272 C1270 1.391 . S
C1272 C1273 1.400 . S
C1273 C1267 1.491 1_545 S
C1273 C1272 1.400 . S
C1273 C1274 1.397 1_545 S
C1274 H1262 0.954 . S
C1274 C1273 1.397 1_565 S
C1274 C1275 1.388 1_565 S
C1275 H1263 0.950 . S
C1275 C1271 1.393 . S
C1275 C1274 1.388 1_545 S
H1276 C1284 0.950 . S
H1277 C1289 0.950 . S
H1278 C1286 0.950 . S
H1279 C1288 0.950 . S
H1280 C1290 0.950 . S
H1281 C1292 0.950 . S
H1282 C1294 0.950 . S
H1283 C1295 0.950 . S
C1284 H1276 0.950 . S
C1284 C1285 1.386 . S
C1284 C1286 1.391 . S
C1285 C1284 1.386 . S
C1285 C1289 1.393 1_554 S
C1286 H1278 0.950 . S
C1286 C1284 1.391 . S
C1286 C1287 1.400 . S
C1287 C1286 1.400 . S
C1287 C1288 1.398 1_554 S
C1287 C1293 1.491 . S
C1288 H1279 0.950 . S
C1288 C1287 1.398 1_556 S
C1288 C1289 1.391 . S
C1289 H1277 0.950 . S
C1289 C1285 1.393 1_556 S
C1289 C1288 1.391 . S
C1290 H1280 0.950 . S
C1290 C1291 1.369 1_556 S
C1290 C1292 1.391 . S
C1291 C1290 1.369 1_554 S
C1291 C1295 1.410 . S
C1292 H1281 0.950 . S
C1292 C1290 1.391 . S
C1292 C1293 1.400 1_556 S
C1293 C1287 1.491 . S
C1293 C1292 1.400 1_554 S
C1293 C1294 1.398 . S
C1294 H1282 0.950 . S
C1294 C1293 1.398 . S
C1294 C1295 1.391 . S
C1295 H1283 0.950 . S
C1295 C1291 1.410 . S
C1295 C1294 1.391 . S
C345 C247 0.756 . S
C351 C8 0.737 . S
C365 C22 0.808 . S
C371 C233 0.779 . S
C385 C36 0.982 . S
C391 C275 0.972 . S
C405 C50 1.043 . S
C411 C261 0.975 . S
C425 C64 0.747 . S
C431 C303 0.729 . S
C445 C78 1.060 . S
C451 C317 1.048 . S
C465 C289 0.774 . S
C471 C92 0.799 . S
C485 C163 0.988 . S
C491 C106 1.052 . S
C505 C120 0.767 . S
C511 C51 0.750 . S
C525 C23 1.020 . S
C531 C134 1.050 . S
C545 C148 1.297 . S
C551 C9 1.282 . S
C565 C162 1.040 . S
C571 C205 0.974 . S
C585 C79 1.204 . S
C591 C176 1.284 . S
C605 C65 1.259 . S
C611 C190 1.287 . S
C625 C204 1.041 . S
C631 C107 0.978 . S
C645 C218 1.058 . S
C651 C93 1.040 . S
C665 C135 1.205 . S
C671 C232 1.292 . S
C685 C149 0.972 . S
C691 C246 1.036 . S
C705 C121 1.276 . S
C711 C260 1.294 . S
C725 C274 0.988 . S
C731 C331 0.991 . S
C745 C219 1.233 . S
C751 C288 1.299 . S
C765 C302 1.042 . S
C771 C191 0.974 . S
C785 C177 0.774 . S
C791 C316 0.776 . S
C805 C330 0.999 . S
C811 C37 1.001 . S
C825 C6 1.627 . S
C831 C20 1.595 . S
C845 C48 1.491 . S
C851 C34 1.491 . S
C865 C62 1.623 . S
C871 C90 1.613 . S
C885 C76 1.997 . S
C891 C104 1.979 . S
C905 C314 1.594 . S
C911 C118 1.636 . S
C925 C132 2.005 . S
C931 C160 1.970 . S
C945 C286 1.891 . S
C951 C146 1.922 . S
C965 C188 1.919 . S
C971 C174 1.907 . S
C985 C202 1.966 . S
C991 C216 2.006 . S
C1005 C258 1.930 . S
C1011 C230 1.901 . S
C1025 C244 1.481 . S
C1031 C272 1.503 . S
C1045 C328 1.492 . S
C1051 C300 1.485 . S
C1065 C35 1.210 1_655 S
C1071 C7 1.226 . S
C1085 C21 1.499 1_455 S
C1091 C49 1.516 1_455 S
C1105 C273 1.220 1_565 S
C1111 C63 1.212 . S
C1125 C77 1.435 . S
C1131 C259 1.426 . S
C1145 C91 1.487 1_545 S
C1151 C245 1.507 1_545 S
C1165 C231 1.748 . S
C1171 C105 1.751 . S
C1185 C119 1.202 . S
C1191 C329 1.185 1_556 S
C1205 C133 1.422 . S
C1211 C147 1.424 . S
C1225 C287 1.743 . S
C1231 C161 1.727 . S
C1245 C175 1.751 . S
C1251 C203 1.751 . S
C1265 C189 1.434 . S
C1271 C217 1.445 . S
C1285 C315 1.508 1_554 S
C1291 C301 1.515 1_554 S
