# Generated by pormake.
# Topology vcl, (7)-cn, num edge types: 1
# Building blocks:
#     Node 0, Type 0, BuildingBlock: NUHQUE_clean_sbu_2, # of connection points: 7
#     Node 1, Type 0, BuildingBlock: NUHQUE_clean_sbu_2, # of connection points: 7
#     Node 2, Type 0, BuildingBlock: NUHQUE_clean_sbu_2, # of connection points: 7
#     Node 3, Type 0, BuildingBlock: NUHQUE_clean_sbu_2, # of connection points: 7
#     Node 4, Type 0, BuildingBlock: NUHQUE_clean_sbu_2, # of connection points: 7
#     Node 5, Type 0, BuildingBlock: NUHQUE_clean_sbu_2, # of connection points: 7
#     Node 6, Type 0, BuildingBlock: NUHQUE_clean_sbu_2, # of connection points: 7
#     Node 7, Type 0, BuildingBlock: NUHQUE_clean_sbu_2, # of connection points: 7
#     Node 8, Type 0, BuildingBlock: NUHQUE_clean_sbu_2, # of connection points: 7
#     Node 9, Type 0, BuildingBlock: NUHQUE_clean_sbu_2, # of connection points: 7
#     Node 10, Type 0, BuildingBlock: NUHQUE_clean_sbu_2, # of connection points: 7
#     Node 11, Type 0, BuildingBlock: NUHQUE_clean_sbu_2, # of connection points: 7
#     Node 12, Type 0, BuildingBlock: NUHQUE_clean_sbu_2, # of connection points: 7
#     Node 13, Type 0, BuildingBlock: NUHQUE_clean_sbu_2, # of connection points: 7
#     Node 14, Type 0, BuildingBlock: NUHQUE_clean_sbu_2, # of connection points: 7
#     Node 15, Type 0, BuildingBlock: NUHQUE_clean_sbu_2, # of connection points: 7
#     Edge 16, Type (0, 0), BuildingBlock: ZUJKAS_clean_linker_0, # of connection points: 2
#     Edge 17, Type (0, 0), BuildingBlock: ZUJKAS_clean_linker_0, # of connection points: 2
#     Edge 18, Type (0, 0), BuildingBlock: ZUJKAS_clean_linker_0, # of connection points: 2
#     Edge 19, Type (0, 0), BuildingBlock: ZUJKAS_clean_linker_0, # of connection points: 2
#     Edge 20, Type (0, 0), BuildingBlock: ZUJKAS_clean_linker_0, # of connection points: 2
#     Edge 21, Type (0, 0), BuildingBlock: ZUJKAS_clean_linker_0, # of connection points: 2
#     Edge 22, Type (0, 0), BuildingBlock: ZUJKAS_clean_linker_0, # of connection points: 2
#     Edge 23, Type (0, 0), BuildingBlock: ZUJKAS_clean_linker_0, # of connection points: 2
#     Edge 24, Type (0, 0), BuildingBlock: ZUJKAS_clean_linker_0, # of connection points: 2
#     Edge 25, Type (0, 0), BuildingBlock: ZUJKAS_clean_linker_0, # of connection points: 2
#     Edge 26, Type (0, 0), BuildingBlock: ZUJKAS_clean_linker_0, # of connection points: 2
#     Edge 27, Type (0, 0), BuildingBlock: ZUJKAS_clean_linker_0, # of connection points: 2
#     Edge 28, Type (0, 0), BuildingBlock: ZUJKAS_clean_linker_0, # of connection points: 2
#     Edge 29, Type (0, 0), BuildingBlock: ZUJKAS_clean_linker_0, # of connection points: 2
#     Edge 30, Type (0, 0), BuildingBlock: ZUJKAS_clean_linker_0, # of connection points: 2
#     Edge 31, Type (0, 0), BuildingBlock: ZUJKAS_clean_linker_0, # of connection points: 2
#     Edge 32, Type (0, 0), BuildingBlock: ZUJKAS_clean_linker_0, # of connection points: 2
#     Edge 33, Type (0, 0), BuildingBlock: ZUJKAS_clean_linker_0, # of connection points: 2
#     Edge 34, Type (0, 0), BuildingBlock: ZUJKAS_clean_linker_0, # of connection points: 2
#     Edge 35, Type (0, 0), BuildingBlock: ZUJKAS_clean_linker_0, # of connection points: 2
#     Edge 36, Type (0, 0), BuildingBlock: ZUJKAS_clean_linker_0, # of connection points: 2
#     Edge 37, Type (0, 0), BuildingBlock: ZUJKAS_clean_linker_0, # of connection points: 2
#     Edge 38, Type (0, 0), BuildingBlock: ZUJKAS_clean_linker_0, # of connection points: 2
#     Edge 39, Type (0, 0), BuildingBlock: ZUJKAS_clean_linker_0, # of connection points: 2
#     Edge 40, Type (0, 0), BuildingBlock: ZUJKAS_clean_linker_0, # of connection points: 2
#     Edge 41, Type (0, 0), BuildingBlock: ZUJKAS_clean_linker_0, # of connection points: 2
#     Edge 42, Type (0, 0), BuildingBlock: ZUJKAS_clean_linker_0, # of connection points: 2
#     Edge 43, Type (0, 0), BuildingBlock: ZUJKAS_clean_linker_0, # of connection points: 2
#     Edge 44, Type (0, 0), BuildingBlock: ZUJKAS_clean_linker_0, # of connection points: 2
#     Edge 45, Type (0, 0), BuildingBlock: ZUJKAS_clean_linker_0, # of connection points: 2
#     Edge 46, Type (0, 0), BuildingBlock: ZUJKAS_clean_linker_0, # of connection points: 2
#     Edge 47, Type (0, 0), BuildingBlock: ZUJKAS_clean_linker_0, # of connection points: 2
#     Edge 48, Type (0, 0), BuildingBlock: ZUJKAS_clean_linker_0, # of connection points: 2
#     Edge 49, Type (0, 0), BuildingBlock: ZUJKAS_clean_linker_0, # of connection points: 2
#     Edge 50, Type (0, 0), BuildingBlock: ZUJKAS_clean_linker_0, # of connection points: 2
#     Edge 51, Type (0, 0), BuildingBlock: ZUJKAS_clean_linker_0, # of connection points: 2
#     Edge 52, Type (0, 0), BuildingBlock: ZUJKAS_clean_linker_0, # of connection points: 2
#     Edge 53, Type (0, 0), BuildingBlock: ZUJKAS_clean_linker_0, # of connection points: 2
#     Edge 54, Type (0, 0), BuildingBlock: ZUJKAS_clean_linker_0, # of connection points: 2
#     Edge 55, Type (0, 0), BuildingBlock: ZUJKAS_clean_linker_0, # of connection points: 2
#     Edge 56, Type (0, 0), BuildingBlock: ZUJKAS_clean_linker_0, # of connection points: 2
#     Edge 57, Type (0, 0), BuildingBlock: ZUJKAS_clean_linker_0, # of connection points: 2
#     Edge 58, Type (0, 0), BuildingBlock: ZUJKAS_clean_linker_0, # of connection points: 2
#     Edge 59, Type (0, 0), BuildingBlock: ZUJKAS_clean_linker_0, # of connection points: 2
#     Edge 60, Type (0, 0), BuildingBlock: ZUJKAS_clean_linker_0, # of connection points: 2
#     Edge 61, Type (0, 0), BuildingBlock: ZUJKAS_clean_linker_0, # of connection points: 2
#     Edge 62, Type (0, 0), BuildingBlock: ZUJKAS_clean_linker_0, # of connection points: 2
#     Edge 63, Type (0, 0), BuildingBlock: ZUJKAS_clean_linker_0, # of connection points: 2
#     Edge 64, Type (0, 0), BuildingBlock: ZUJKAS_clean_linker_0, # of connection points: 2
#     Edge 65, Type (0, 0), BuildingBlock: ZUJKAS_clean_linker_0, # of connection points: 2
#     Edge 66, Type (0, 0), BuildingBlock: ZUJKAS_clean_linker_0, # of connection points: 2
#     Edge 67, Type (0, 0), BuildingBlock: ZUJKAS_clean_linker_0, # of connection points: 2
#     Edge 68, Type (0, 0), BuildingBlock: ZUJKAS_clean_linker_0, # of connection points: 2
#     Edge 69, Type (0, 0), BuildingBlock: ZUJKAS_clean_linker_0, # of connection points: 2
#     Edge 70, Type (0, 0), BuildingBlock: ZUJKAS_clean_linker_0, # of connection points: 2
#     Edge 71, Type (0, 0), BuildingBlock: ZUJKAS_clean_linker_0, # of connection points: 2
# Relax obj value: 0.202
# Max RMSD: 0.250
# Mean RMSD: 0.250
data_MOF--net-vcl--node1-NUHQUE_clean_sbu_2--edge1-ZUJKAS_clean_linker_0
_symmetry_space_group_name_H-M    P1
_symmetry_Int_Tables_number       1
_symmetry_cell_setting            triclinic
loop_
_symmetry_equiv_pos_as_xyz
'x, y, z'
_cell_length_a     74.509267
_cell_length_b     61.871734
_cell_length_c     40.664585
_cell_angle_alpha  90.000714
_cell_angle_beta   90.139919
_cell_angle_gamma 90.093532
loop_
_atom_site_label
_atom_site_type_symbol
_atom_site_fract_x
_atom_site_fract_y
_atom_site_fract_z
_atom_type_partial_charge
O0 O 0.32852 0.03629 0.05701 0.0
Tb1 Tb 0.31674 0.06855 0.04841 0.0
Eu2 Eu 0.28207 0.10563 1.01539 0.0
C3 C 0.32572 0.02721 0.08609 0.0
O4 O 0.31496 0.03723 0.10661 0.0
C5 C 0.27733 0.06973 0.07179 0.0
O6 O 0.2685 0.13881 0.01888 0.0
C7 C 0.27299 0.08489 0.96137 0.0
C8 C 0.27577 0.15523 1.00275 0.0
O9 O 0.29001 0.15131 0.98471 0.0
C10 C 0.3238 0.10548 0.99939 0.0
C11 C 0.25677 0.07608 0.94475 0.0
C12 C 0.25804 0.06408 0.9151 0.0
C13 C 0.24236 0.05678 0.89871 0.0
C14 C 0.22557 0.06211 0.91209 0.0
C15 C 0.22413 0.07455 0.94087 0.0
C16 C 0.23978 0.08115 0.9573 0.0
O17 O 0.28883 0.05852 0.05407 0.0
O18 O 0.27319 0.08979 0.06335 0.0
O19 O 0.33537 0.07411 0.08877 0.0
O20 O 0.31466 0.097 0.08071 0.0
C21 C 0.32826 0.09188 0.09926 0.0
O22 O 0.31122 0.1154 1.01621 0.0
O23 O 0.32623 0.0844 1.00311 0.0
O24 O 0.27843 0.07519 0.98835 0.0
O25 O 0.27368 0.106 0.96402 0.0
H26 H 0.27112 0.06052 0.90485 0.0
H27 H 0.21348 0.05755 0.89888 0.0
H28 H 0.23877 0.09079 0.97949 0.0
O29 O 0.66433 0.99585 0.05652 0.0
Tb30 Tb 0.67578 0.96359 0.04757 0.0
Eu31 Eu 0.70947 0.92642 1.0124 0.0
C32 C 0.66837 1.00549 0.08467 0.0
O33 O 0.67964 0.99564 0.1045 0.0
C34 C 0.71522 0.96132 0.07001 0.0
O35 O 0.72381 0.89376 1.01422 0.0
C36 C 0.71836 0.94846 0.95976 0.0
C37 C 0.71435 0.87622 1.00729 0.0
O38 O 0.69729 0.87864 1.00012 0.0
C39 C 0.66807 0.92878 0.99494 0.0
C40 C 0.73455 0.95534 0.94153 0.0
C41 C 0.73309 0.9676 0.91224 0.0
C42 C 0.74856 0.97296 0.89386 0.0
C43 C 0.76529 0.96537 0.90486 0.0
C44 C 0.76682 0.95274 0.93342 0.0
C45 C 0.75147 0.94817 0.95201 0.0
O46 O 0.70383 0.97309 0.05283 0.0
O47 O 0.71852 0.94111 0.06125 0.0
O48 O 0.65894 0.95777 0.09032 0.0
O49 O 0.67789 0.93382 0.07682 0.0
C50 C 0.66559 0.93909 0.09796 0.0
O51 O 0.68008 0.91779 1.0117 0.0
O52 O 0.6652 0.94942 1.00181 0.0
O53 O 0.71558 0.95736 0.98862 0.0
O54 O 0.71519 0.92761 0.95996 0.0
H55 H 0.72 0.97286 0.90379 0.0
H56 H 0.77721 0.96874 0.89049 0.0
H57 H 0.75254 0.9381 0.97376 0.0
O58 O 0.91731 0.28472 0.32565 0.0
Tb59 Tb 0.92312 0.31888 0.31617 0.0
Eu60 Eu 0.96437 0.35985 0.26004 0.0
C61 C 0.91523 0.27858 0.35652 0.0
O62 O 0.91791 0.29298 0.37978 0.0
C63 C 0.96439 0.32943 0.31941 0.0
O64 O 0.9767 0.39366 0.25865 0.0
C65 C 0.97123 0.33605 0.2084 0.0
C66 C 0.96659 0.41058 0.2656 0.0
O67 O 0.94984 0.40718 0.27421 0.0
C68 C 0.92183 0.35128 0.2593 0.0
C69 C 0.98641 0.33255 0.18572 0.0
C70 C 0.98455 0.31955 0.15734 0.0
C71 C -0.00031 0.31446 0.13799 0.0
C72 C 0.01651 0.32279 0.14731 0.0
C73 C 0.01846 0.33602 0.17518 0.0
C74 C 0.00331 0.34087 0.19413 0.0
O75 O 0.95079 0.3234 0.30079 0.0
O76 O 0.97495 0.34443 0.30692 0.0
O77 O 0.90145 0.33222 0.34533 0.0
O78 O 0.92843 0.33953 0.35902 0.0
C79 C 0.91159 0.34242 0.36626 0.0
O80 O 0.93541 0.35864 0.2768 0.0
O81 O 0.91278 0.33468 0.27154 0.0
O82 O 0.97422 0.32996 0.23883 0.0
O83 O 0.96293 0.35476 0.2067 0.0
H84 H 0.97153 0.3129 0.15096 0.0
H85 H 0.02822 0.31888 0.13272 0.0
H86 H 0.00463 0.35107 0.2157 0.0
O87 O 0.08905 0.75005 0.32491 0.0
Tb88 Tb 0.0731 0.72074 0.31597 0.0
Eu89 Eu 0.02996 0.68449 0.25608 0.0
C90 C 0.08203 0.76958 0.32695 0.0
O91 O 0.06506 0.77231 0.31918 0.0
C92 C 0.03128 0.71457 0.3182 0.0
O93 O 0.01786 0.65056 0.25466 0.0
C94 C 0.02242 0.70801 0.20443 0.0
C95 C 0.02779 0.63379 0.26333 0.0
O96 O 0.04426 0.63739 0.27356 0.0
C97 C 0.07305 0.69122 0.2568 0.0
C98 C 0.00775 0.70907 0.17985 0.0
C99 C 0.00934 0.7214 0.15067 0.0
C100 C 0.99451 0.72361 0.12918 0.0
C101 C 0.97832 0.71323 0.13703 0.0
C102 C 0.97667 0.70086 0.16579 0.0
C103 C 0.99142 0.6988 0.18695 0.0
O104 O 0.04498 0.72193 0.30089 0.0
O105 O 0.02067 0.70021 0.30381 0.0
O106 O 0.0715 0.71096 0.36785 0.0
O107 O 0.08324 0.68978 0.33306 0.0
C108 C 0.07905 0.69222 0.36376 0.0
O109 O 0.05871 0.68569 0.27363 0.0
O110 O 0.08331 0.70612 0.27057 0.0
O111 O 0.01767 0.71299 0.2346 0.0
O112 O 0.03302 0.69104 0.20335 0.0
H113 H 0.02182 0.72966 0.1452 0.0
H114 H 0.96683 0.71506 0.12083 0.0
H115 H 0.99016 0.68928 0.20923 0.0
O116 O 0.32944 0.53415 0.57521 0.0
Tb117 Tb 0.32284 0.56801 0.56446 0.0
Eu118 Eu 0.28024 0.60727 0.50609 0.0
C119 C 0.33116 0.52838 0.60636 0.0
O120 O 0.32781 0.54292 0.62906 0.0
C121 C 0.28117 0.57674 0.56651 0.0
O122 O 0.26812 0.6411 0.50423 0.0
C123 C 0.27332 0.5842 0.45359 0.0
C124 C 0.27399 0.65627 0.52445 0.0
O125 O 0.28631 0.65105 0.5462 0.0
C126 C 0.32302 0.60024 0.50772 0.0
C127 C 0.25848 0.58344 0.42927 0.0
C128 C 0.25989 0.57221 0.39898 0.0
C129 C 0.24503 0.57115 0.37714 0.0
C130 C 0.22882 0.58097 0.38673 0.0
C131 C 0.22731 0.59188 0.41682 0.0
C132 C 0.24221 0.59327 0.43764 0.0
O133 O 0.29495 0.57059 0.54854 0.0
O134 O 0.27037 0.59122 0.55315 0.0
O135 O 0.34413 0.5822 0.59395 0.0
O136 O 0.31699 0.58911 0.60654 0.0
C137 C 0.33375 0.59251 0.61419 0.0
O138 O 0.30882 0.60576 0.52482 0.0
O139 O 0.33291 0.58437 0.51996 0.0
O140 O 0.26873 0.57858 0.48358 0.0
O141 O 0.28367 0.60147 0.45323 0.0
H142 H 0.27243 0.56452 0.39247 0.0
H143 H 0.21708 0.57961 0.37108 0.0
H144 H 0.2411 0.60195 0.46074 0.0
O145 O 0.66425 0.49833 0.56044 0.0
Tb146 Tb 0.67383 0.46522 0.55086 0.0
Eu147 Eu 0.71579 0.42528 0.49429 0.0
C148 C 0.66504 0.50602 0.59081 0.0
O149 O 0.67197 0.49373 0.61388 0.0
C150 C 0.71549 0.45572 0.55362 0.0
O151 O 0.72791 0.39128 0.49412 0.0
C152 C 0.72222 0.44827 0.44131 0.0
C153 C 0.72059 0.37591 0.51233 0.0
O154 O 0.70696 0.3811 0.53117 0.0
C155 C 0.6733 0.43283 0.4931 0.0
C156 C 0.73787 0.45399 0.42055 0.0
C157 C 0.73589 0.46568 0.39076 0.0
C158 C 0.75121 0.47311 0.37351 0.0
C159 C 0.7683 0.46852 0.38636 0.0
C160 C 0.77037 0.45653 0.41537 0.0
C161 C 0.75514 0.44924 0.4322 0.0
O162 O 0.70153 0.46098 0.53535 0.0
O163 O 0.7265 0.44137 0.54069 0.0
O164 O 0.67755 0.45 0.59926 0.0
O165 O 0.65466 0.44212 0.56999 0.0
C166 C 0.66294 0.43842 0.59755 0.0
O167 O 0.68675 0.42535 0.51071 0.0
O168 O 0.66447 0.44977 0.50491 0.0
O169 O 0.72283 0.45589 0.47139 0.0
O170 O 0.71651 0.42816 0.44044 0.0
H171 H 0.7226 0.46948 0.3816 0.0
H172 H 0.78014 0.47374 0.37306 0.0
H173 H 0.75672 0.44027 0.45495 0.0
O174 O 0.91117 0.78757 0.82114 0.0
Tb175 Tb 0.92204 0.82022 0.81245 0.0
Eu176 Eu 0.9648 0.85961 0.75676 0.0
C177 C 0.91047 0.78004 0.85157 0.0
O178 O 0.91702 0.7921 0.87532 0.0
C179 C 0.96358 0.82937 0.81641 0.0
O180 O 0.97817 0.89304 0.75726 0.0
C181 C 0.97197 0.83627 0.70459 0.0
C182 C 0.96823 0.91058 0.76116 0.0
O183 O 0.9509 0.90807 0.7656 0.0
C184 C 0.92224 0.85146 0.75304 0.0
C185 C 0.98781 0.83069 0.68436 0.0
C186 C 0.98609 0.81872 0.6548 0.0
C187 C 0.00154 0.81179 0.6375 0.0
C188 C 0.01852 0.81723 0.65027 0.0
C189 C 0.02032 0.82916 0.67939 0.0
C190 C 0.00495 0.83601 0.69612 0.0
O191 O 0.94986 0.82399 0.79764 0.0
O192 O 0.97473 0.8437 0.80382 0.0
O193 O 0.92509 0.835 0.86133 0.0
O194 O 0.90387 0.84509 0.8296 0.0
C195 C 0.91143 0.84795 0.85808 0.0
O196 O 0.9353 0.86 0.77074 0.0
O197 O 0.91342 0.83471 0.76556 0.0
O198 O 0.97239 0.82891 0.73484 0.0
O199 O 0.9661 0.85627 0.70307 0.0
H200 H 0.97286 0.81439 0.64583 0.0
H201 H 0.03053 0.81271 0.63694 0.0
H202 H 0.00633 0.84508 0.71882 0.0
O203 O 0.08897 0.24938 0.82945 0.0
Tb204 Tb 0.07416 0.21881 0.82522 0.0
Eu205 Eu 0.03094 0.1854 0.75925 0.0
C206 C 0.08096 0.26811 0.83433 0.0
O207 O 0.06338 0.26907 0.83245 0.0
C208 C 0.03256 0.21356 0.8258 0.0
O209 O 0.02141 0.15015 0.75667 0.0
C210 C 0.01969 0.20952 0.71069 0.0
C211 C 0.03158 0.13378 0.76626 0.0
O212 O 0.04761 0.13797 0.77822 0.0
C213 C 0.07596 0.19031 0.76688 0.0
C214 C 0.00595 0.21058 0.68426 0.0
C215 C 0.00894 0.22299 0.6555 0.0
C216 C 0.995 0.22597 0.63235 0.0
C217 C 0.97829 0.21635 0.63807 0.0
C218 C 0.97518 0.20388 0.66629 0.0
C219 C 0.98907 0.20097 0.68919 0.0
O220 O 0.04606 0.22311 0.81056 0.0
O221 O 0.02263 0.19919 0.80947 0.0
O222 O 0.08279 0.2151 0.87648 0.0
O223 O 0.07163 0.18824 0.85182 0.0
C224 C 0.07866 0.19479 0.87929 0.0
O225 O 0.05909 0.19393 0.77416 0.0
O226 O 0.08729 0.20124 0.78532 0.0
O227 O 0.01358 0.21076 0.74097 0.0
O228 O 0.03289 0.19553 0.70757 0.0
H229 H 0.02178 0.23085 0.65173 0.0
H230 H 0.96747 0.21901 0.62063 0.0
H231 H 0.98665 0.19146 0.71114 0.0
O232 O 0.83013 0.03071 0.55833 0.0
Tb233 Tb 0.81937 0.06332 0.55034 0.0
Eu234 Eu 0.78254 0.10094 0.51418 0.0
C235 C 0.82785 0.02198 0.58771 0.0
O236 O 0.81826 0.03273 0.60927 0.0
C237 C 0.78007 0.06637 0.57315 0.0
O238 O 0.76802 0.13348 0.51111 0.0
C239 C 0.77612 0.07604 0.46311 0.0
C240 C 0.77451 0.15003 0.52802 0.0
O241 O 0.78823 0.14648 0.54764 0.0
C242 C 0.8239 0.09998 0.50083 0.0
C243 C 0.76143 0.07169 0.43928 0.0
C244 C 0.76474 0.06137 0.40871 0.0
C245 C 0.75048 0.05751 0.38639 0.0
C246 C 0.73303 0.06346 0.39547 0.0
C247 C 0.72962 0.07353 0.42568 0.0
C248 C 0.74386 0.07786 0.44726 0.0
O249 O 0.79107 0.0548 0.55487 0.0
O250 O 0.77549 0.08615 0.56394 0.0
O251 O 0.84004 0.07052 0.58653 0.0
O252 O 0.81631 0.08945 0.58653 0.0
C253 C 0.83173 0.08633 0.60082 0.0
O254 O 0.81184 0.10882 0.52007 0.0
O255 O 0.82793 0.07938 0.50498 0.0
O256 O 0.77307 0.07037 0.49371 0.0
O257 O 0.784 0.09497 0.46111 0.0
H258 H 0.77828 0.05676 0.40214 0.0
H259 H 0.72201 0.06062 0.3785 0.0
H260 H 0.74123 0.08588 0.47047 0.0
O261 O 0.16051 1.00175 0.58404 0.0
Tb262 Tb 0.16868 0.9684 0.57463 0.0
Eu263 Eu 0.21156 0.93062 0.51627 0.0
C264 C 0.15892 1.00794 0.61495 0.0
O265 O 0.16384 0.99439 0.63815 0.0
C266 C 0.21042 0.96114 0.57695 0.0
O267 O 0.22413 0.89705 0.51333 0.0
C268 C 0.21722 0.95414 0.46376 0.0
C269 C 0.2173 0.881 0.53074 0.0
O270 O 0.20382 0.88524 0.55049 0.0
C271 C 0.16872 0.93636 0.51797 0.0
C272 C 0.23156 0.95552 0.43864 0.0
C273 C 0.22957 0.96761 0.40923 0.0
C274 C 0.24431 0.97028 0.38763 0.0
C275 C 0.26075 0.96046 0.39574 0.0
C276 C 0.26273 0.94838 0.42471 0.0
C277 C 0.24808 0.94585 0.44576 0.0
O278 O 0.19659 0.96716 0.55888 0.0
O279 O 0.2213 0.94676 0.56361 0.0
O280 O 0.1481 0.95398 0.60528 0.0
O281 O 0.17553 0.94803 0.61709 0.0
C282 C 0.15896 0.94436 0.62553 0.0
O283 O 0.18305 0.93102 0.53502 0.0
O284 O 0.1586 0.95184 0.53046 0.0
O285 O 0.22229 0.95966 0.49359 0.0
O286 O 0.20719 0.93661 0.46366 0.0
H287 H 0.2169 0.97542 0.40378 0.0
H288 H 0.27218 0.96246 0.37955 0.0
H289 H 0.24961 0.93648 0.46815 0.0
O290 O 0.42083 0.28529 0.81547 0.0
Tb291 Tb 0.43216 0.31792 0.80906 0.0
Eu292 Eu 0.46614 0.35634 0.77364 0.0
C293 C 0.42359 0.27535 0.84387 0.0
O294 O 0.43362 0.28517 0.8659 0.0
C295 C 0.47167 0.32138 0.83154 0.0
O296 O 0.48015 0.3893 0.77237 0.0
C297 C 0.47329 0.33292 0.7214 0.0
C298 C 0.47181 0.40608 0.78554 0.0
O299 O 0.45651 0.40252 0.80062 0.0
C300 C 0.42468 0.35428 0.75979 0.0
C301 C 0.48881 0.32857 0.69972 0.0
C302 C 0.48702 0.316 0.67073 0.0
C303 C 0.50201 0.31229 0.65012 0.0
C304 C 0.5185 0.32184 0.65877 0.0
C305 C 0.52035 0.33447 0.68726 0.0
C306 C 0.50552 0.33756 0.70778 0.0
O307 O 0.46039 0.30928 0.81447 0.0
O308 O 0.47501 0.34155 0.82244 0.0
O309 O 0.41458 0.32315 0.85103 0.0
O310 O 0.43445 0.34667 0.84047 0.0
C311 C 0.42158 0.34133 0.86039 0.0
O312 O 0.43677 0.36407 0.77802 0.0
O313 O 0.42184 0.33336 0.76412 0.0
O314 O 0.47451 0.32571 0.75167 0.0
O315 O 0.46679 0.35259 0.72023 0.0
H316 H 0.47411 0.30901 0.6645 0.0
H317 H 0.53005 0.31967 0.64296 0.0
H318 H 0.50683 0.34752 0.72961 0.0
O319 O 0.57593 0.74898 0.80011 0.0
Tb320 Tb 0.56227 0.71786 0.79137 0.0
Eu321 Eu 0.52868 0.68214 0.75476 0.0
C322 C 0.57024 0.76123 0.82466 0.0
O323 O 0.55622 0.7546 0.84138 0.0
C324 C 0.52254 0.71746 0.81112 0.0
O325 O 0.51643 0.64831 0.76043 0.0
C326 C 0.518 0.70216 0.70121 0.0
C327 C 0.52392 0.63175 0.74506 0.0
O328 O 0.53763 0.63567 0.72573 0.0
C329 C 0.57085 0.68326 0.73793 0.0
C330 C 0.50215 0.71311 0.6865 0.0
C331 C 0.50357 0.72525 0.65698 0.0
C332 C 0.48804 0.73374 0.64134 0.0
C333 C 0.47121 0.72943 0.65567 0.0
C334 C 0.46964 0.71713 0.68453 0.0
C335 C 0.48516 0.70942 0.7001 0.0
O336 O 0.53449 0.72866 0.79444 0.0
O337 O 0.51908 0.69723 0.80278 0.0
O338 O 0.57628 0.71221 0.83765 0.0
O339 O 0.56073 0.6868 0.8174 0.0
C340 C 0.57106 0.69241 0.84179 0.0
O341 O 0.55763 0.67189 0.75063 0.0
O342 O 0.57367 0.70371 0.74637 0.0
O343 O 0.52644 0.71191 0.72549 0.0
O344 O 0.51626 0.6813 0.70633 0.0
H345 H 0.51665 0.72779 0.64608 0.0
H346 H 0.45908 0.73446 0.64309 0.0
H347 H 0.48396 0.69966 0.72215 0.0
O348 O 0.83376 0.53365 0.06443 0.0
Tb349 Tb 0.82219 0.56548 0.05313 0.0
Eu350 Eu 0.77877 0.60338 0.99474 0.0
C351 C 0.83367 0.52691 0.09528 0.0
O352 O 0.82622 0.53934 0.11757 0.0
C353 C 0.78062 0.57275 0.05526 0.0
O354 O 0.76707 0.63746 0.99368 0.0
C355 C 0.77169 0.57985 0.94273 0.0
C356 C 0.77677 0.65368 1.00533 0.0
O357 O 0.79266 0.64933 0.01773 0.0
C358 C 0.82163 0.59629 0.99451 0.0
C359 C 0.75797 0.57843 0.91631 0.0
C360 C 0.76059 0.56532 0.88813 0.0
C361 C 0.74661 0.56262 0.86489 0.0
C362 C 0.73025 0.57319 0.87002 0.0
C363 C 0.72754 0.58635 0.89765 0.0
C364 C 0.74146 0.58894 0.9206 0.0
O365 O 0.79434 0.56681 0.03704 0.0
O366 O 0.76965 0.58718 0.04226 0.0
O367 O 0.81765 0.58112 0.10097 0.0
O368 O 0.83925 0.59148 0.07048 0.0
C369 C 0.83097 0.59465 0.09809 0.0
O370 O 0.80771 0.60252 1.01193 0.0
O371 O 0.83134 0.58034 1.00696 0.0
O372 O 0.76586 0.57548 0.97248 0.0
O373 O 0.78269 0.59652 0.94226 0.0
H374 H 0.77318 0.55688 0.88479 0.0
H375 H 0.71941 0.57083 0.85251 0.0
H376 H 0.73941 0.59903 0.94207 0.0
O377 O 0.16143 0.50386 0.07299 0.0
Tb378 Tb 0.17225 0.47144 0.06317 0.0
Eu379 Eu 0.21479 0.43066 1.00693 0.0
C380 C 0.16048 0.5106 0.1038 0.0
O381 O 0.16679 0.49793 0.127 0.0
C382 C 0.21349 0.4617 0.06704 0.0
O383 O 0.22631 0.39633 1.00476 0.0
C384 C 0.22161 0.4547 0.95536 0.0
C385 C 0.21781 0.38024 0.01956 0.0
O386 O 0.20312 0.38478 0.03597 0.0
C387 C 0.17252 0.43977 1.0054 0.0
C388 C 0.23525 0.45674 0.92904 0.0
C389 C 0.23241 0.47007 0.90114 0.0
C390 C 0.24645 0.4736 0.87839 0.0
C391 C 0.2631 0.46375 0.88386 0.0
C392 C 0.26598 0.45027 0.91109 0.0
C393 C 0.25196 0.44674 0.93341 0.0
O394 O 0.20014 0.46818 0.04819 0.0
O395 O 0.22407 0.44665 0.05464 0.0
O396 O 0.17565 0.45532 0.11101 0.0
O397 O 0.15353 0.44712 0.07998 0.0
C398 C 0.16147 0.4431 0.10774 0.0
O399 O 0.18587 0.43262 0.02361 0.0
O400 O 0.16341 0.45655 1.01679 0.0
O401 O 0.22747 0.45883 0.98521 0.0
O402 O 0.21084 0.43782 0.95448 0.0
H403 H 0.21962 0.47805 0.89766 0.0
H404 H 0.27398 0.46687 0.86683 0.0
H405 H 0.25409 0.43635 0.95454 0.0
O406 O 0.40025 0.79114 0.32079 0.0
Tb407 Tb 0.41582 0.82091 0.31278 0.0
Eu408 Eu 0.45882 0.85842 0.25554 0.0
C409 C 0.40764 0.77178 0.32272 0.0
O410 O 0.42467 0.7696 0.31518 0.0
C411 C 0.45752 0.82757 0.31724 0.0
O412 O 0.47117 0.8923 0.2529 0.0
C413 C 0.46465 0.83469 0.20329 0.0
C414 C 0.46433 0.90819 0.27065 0.0
O415 O 0.4509 0.90367 0.29039 0.0
C416 C 0.41602 0.85242 0.25546 0.0
C417 C 0.47794 0.83357 0.17616 0.0
C418 C 0.47432 0.82238 0.14638 0.0
C419 C 0.48757 0.82116 0.12149 0.0
C420 C 0.5044 0.83065 0.12733 0.0
C421 C 0.50819 0.84144 0.15685 0.0
C422 C 0.49485 0.84306 0.18091 0.0
O423 O 0.44413 0.81994 0.29927 0.0
O424 O 0.46793 0.84236 0.30342 0.0
O425 O 0.41767 0.82999 0.36492 0.0
O426 O 0.40509 0.85126 0.33116 0.0
C427 C 0.40968 0.84851 0.36165 0.0
O428 O 0.43008 0.85807 0.27313 0.0
O429 O 0.40614 0.8365 0.26746 0.0
O430 O 0.47101 0.83031 0.23274 0.0
O431 O 0.45363 0.85131 0.20348 0.0
H432 H 0.46134 0.81487 0.14254 0.0
H433 H 0.51483 0.82914 0.10891 0.0
H434 H 0.49766 0.8517 0.20356 0.0
O435 O 0.58819 0.24514 0.3078 0.0
Tb436 Tb 0.57269 0.21487 0.3037 0.0
Eu437 Eu 0.53486 0.17982 0.27351 0.0
C438 C 0.58073 0.26405 0.31424 0.0
O439 O 0.56319 0.26573 0.31298 0.0
C440 C 0.53463 0.21477 0.33275 0.0
O441 O 0.51897 0.14816 0.27119 0.0
C442 C 0.52768 0.20566 0.22396 0.0
C443 C 0.52563 0.13188 0.25401 0.0
O444 O 0.54035 0.13536 0.23709 0.0
C445 C 0.57607 0.17697 0.25549 0.0
C446 C 0.5139 0.20779 0.1978 0.0
C447 C 0.5165 0.22167 0.17045 0.0
C448 C 0.50289 0.22406 0.14634 0.0
C449 C 0.48703 0.21197 0.14985 0.0
C450 C 0.48436 0.19804 0.17661 0.0
C451 C 0.49782 0.19609 0.20055 0.0
O452 O 0.54567 0.22626 0.31438 0.0
O453 O 0.53028 0.19477 0.32421 0.0
O454 O 0.59154 0.20809 0.34347 0.0
O455 O 0.56992 0.18644 0.33557 0.0
C456 C 0.58395 0.19044 0.3536 0.0
O457 O 0.56363 0.16837 0.27432 0.0
O458 O 0.57965 0.19786 0.258 0.0
O459 O 0.52218 0.20895 0.25419 0.0
O460 O 0.53842 0.18895 0.22188 0.0
H461 H 0.52884 0.23085 0.16834 0.0
H462 H 0.47655 0.21343 0.13146 0.0
H463 H 0.49589 0.18528 0.22124 0.0
H464 H 0.42803 0.89294 0.23903 0.0
H465 H 0.41313 0.91991 0.20479 0.0
H466 H 0.37278 0.87302 0.17802 0.0
H467 H 0.38715 0.84628 0.2139 0.0
H468 H 0.40487 0.9264 0.14409 0.0
H469 H 0.3405 0.91858 0.21073 0.0
H470 H 0.36056 0.90499 0.22417 0.0
H471 H 0.34707 0.8938 0.19146 0.0
C472 C 0.41605 0.88824 0.22573 0.0
C473 C 0.4087 0.86741 0.22976 0.0
C474 C 0.40748 0.90378 0.20601 0.0
C475 C 0.39138 0.89895 0.18936 0.0
C476 C 0.38474 0.87764 0.19147 0.0
H477 H 0.34568 0.99713 0.05068 0.0
H478 H 0.36135 0.9651 0.07231 0.0
C479 C 0.39313 0.86218 0.21173 0.0
C480 C 0.38141 0.91642 0.17095 0.0
H481 H 0.34053 0.94133 0.16424 0.0
C482 C 0.39079 0.92962 0.14854 0.0
C483 C 0.36304 0.92108 0.17683 0.0
C484 C 0.35225 0.90903 0.20233 0.0
C485 C 0.38251 0.94727 0.13241 0.0
C486 C 0.36403 0.95159 0.13775 0.0
C487 C 0.35461 0.93813 0.1597 0.0
C488 C 0.35445 0.97091 0.12333 0.0
C489 C 0.39394 0.96162 0.11097 0.0
C490 C 0.34471 0.98467 0.14419 0.0
C491 C 0.33541 1.00254 0.13177 0.0
C492 C 0.3356 1.00758 0.09796 0.0
C493 C 0.34532 0.99389 0.07684 0.0
C494 C 0.35445 0.97563 0.08933 0.0
H495 H 0.40845 0.95984 0.11671 0.0
H496 H 0.39193 0.95705 0.08484 0.0
H497 H 0.39023 0.97888 0.11394 0.0
H498 H 0.34438 0.98169 0.17044 0.0
H499 H 0.32818 1.01262 0.14902 0.0
H500 H 0.5777 0.1331 0.25929 0.0
H501 H 0.59384 0.10794 0.22443 0.0
H502 H 0.61485 0.16114 0.16777 0.0
H503 H 0.59885 0.18677 0.20355 0.0
H504 H 0.59061 0.09929 0.1612 0.0
H505 H 0.66018 0.12773 0.18454 0.0
H506 H 0.64138 0.13684 0.20866 0.0
H507 H 0.64534 0.148 0.16849 0.0
C508 C 0.58581 0.13963 0.23957 0.0
C509 C 0.58694 0.16212 0.23439 0.0
C510 C 0.59506 0.12509 0.21948 0.0
C511 C 0.60577 0.13243 0.19341 0.0
C512 C 0.60701 0.15493 0.18806 0.0
H513 H 0.64291 0.03093 0.05304 0.0
H514 H 0.62791 0.06333 0.07474 0.0
C515 C 0.59779 0.16962 0.20848 0.0
C516 C 0.61519 0.11622 0.17201 0.0
H517 H 0.65664 0.09902 0.14701 0.0
C518 C 0.60505 0.09935 0.15793 0.0
C519 C 0.63406 0.11605 0.16778 0.0
C520 C 0.64594 0.13298 0.18336 0.0
C521 C 0.61319 0.08214 0.14079 0.0
C522 C 0.63208 0.08193 0.13661 0.0
C523 C 0.64217 0.09914 0.14988 0.0
C524 C 0.64181 0.06308 0.12162 0.0
C525 C 0.6015 0.06379 0.12887 0.0
C526 C 0.65517 0.05249 0.13989 0.0
C527 C 0.66391 0.03426 0.12736 0.0
C528 C 0.65958 0.0259 0.09608 0.0
C529 C 0.64652 0.03678 0.07727 0.0
C530 C 0.63781 0.05524 0.08983 0.0
H531 H 0.58812 0.06384 0.14089 0.0
H532 H 0.59935 0.06543 0.10198 0.0
H533 H 0.60796 0.04794 0.13361 0.0
H534 H 0.65862 0.05805 0.16437 0.0
H535 H 0.67391 0.0265 0.14268 0.0
H536 H 0.9105 0.26251 0.41824 0.0
H537 H 0.89775 0.22796 0.43444 0.0
H538 H 0.89245 0.20972 0.33254 0.0
H539 H 0.90496 0.24487 0.31591 0.0
H540 H 0.86221 0.20107 0.36556 0.0
H541 H 0.9187 0.16848 0.43787 0.0
H542 H 0.91277 0.1949 0.45221 0.0
H543 H 0.92121 0.19151 0.41101 0.0
C544 C 0.90686 0.25113 0.39911 0.0
C545 C 0.90883 0.25655 0.36568 0.0
C546 C 0.89967 0.23118 0.40852 0.0
C547 C 0.89444 0.2159 0.38484 0.0
C548 C 0.89653 0.22112 0.35135 0.0
H549 H 0.85493 0.0912 0.46564 0.0
H550 H 0.87256 0.11677 0.43226 0.0
C551 C 0.90372 0.24121 0.34185 0.0
C552 C 0.88564 0.19529 0.3954 0.0
H553 H 0.88932 0.15389 0.45083 0.0
C554 C 0.8683 0.19055 0.38376 0.0
C555 C 0.8936 0.18116 0.4187 0.0
C556 C 0.91267 0.18415 0.43037 0.0
C557 C 0.85835 0.17303 0.39625 0.0
C558 C 0.86572 0.16007 0.42167 0.0
C559 C 0.88349 0.16393 0.43175 0.0
C560 C 0.85471 0.14388 0.44007 0.0
C561 C 0.83989 0.16878 0.38232 0.0
C562 C 0.83892 0.15052 0.45578 0.0
C563 C 0.82889 0.13604 0.47462 0.0
C564 C 0.83444 0.11445 0.47877 0.0
C565 C 0.85022 0.10764 0.46288 0.0
C566 C 0.86032 0.12228 0.44387 0.0
H567 H 0.83892 0.17431 0.35638 0.0
H568 H 0.83639 0.15134 0.38337 0.0
H569 H 0.82984 0.17795 0.39675 0.0
H570 H 0.8345 0.16715 0.45411 0.0
H571 H 0.81684 0.14197 0.48642 0.0
H572 H 0.185 0.90055 0.49188 0.0
H573 H 0.17199 0.8738 0.45449 0.0
H574 H 0.12387 0.91206 0.44678 0.0
H575 H 0.13687 0.93901 0.48398 0.0
H576 H 0.14155 0.84999 0.46646 0.0
H577 H 0.1327 0.89641 0.35105 0.0
H578 H 0.14692 0.90569 0.38422 0.0
H579 H 0.12299 0.90921 0.38639 0.0
C580 C 0.1718 0.90356 0.48172 0.0
C581 C 0.16203 0.92205 0.491 0.0
C582 C 0.16433 0.88815 0.46037 0.0
C583 C 0.14696 0.89087 0.44748 0.0
C584 C 0.13741 0.90969 0.45579 0.0
H585 H 0.07068 0.81091 0.33978 0.0
H586 H 0.08705 0.83985 0.36784 0.0
C587 C 0.14487 0.92512 0.47719 0.0
C588 C 0.13836 0.87328 0.42758 0.0
H589 H 0.11785 0.86232 0.35398 0.0
C590 C 0.13652 0.85266 0.44174 0.0
C591 C 0.13165 0.87668 0.39537 0.0
C592 C 0.13379 0.89813 0.37818 0.0
C593 C 0.12784 0.83562 0.42506 0.0
C594 C 0.12108 0.83902 0.39284 0.0
C595 C 0.12301 0.85961 0.37859 0.0
C596 C 0.11156 0.8216 0.374 0.0
C597 C 0.12545 0.81433 0.44265 0.0
C598 C 0.11995 0.80174 0.36719 0.0
C599 C 0.11057 0.78505 0.35117 0.0
C600 C 0.0926 0.78788 0.34125 0.0
C601 C 0.08447 0.80806 0.34702 0.0
C602 C 0.09384 0.8247 0.36312 0.0
H603 H 0.12691 0.81613 0.46971 0.0
H604 H 0.11206 0.8072 0.43734 0.0
H605 H 0.13586 0.80284 0.43414 0.0
H606 H 0.13374 0.79904 0.37453 0.0
H607 H 0.11734 0.76982 0.34703 0.0
H608 H 0.34227 0.49414 0.56752 0.0
H609 H 0.35481 0.45942 0.58607 0.0
H610 H 0.3482 0.47924 0.68697 0.0
H611 H 0.33538 0.5133 0.66885 0.0
H612 H 0.38449 0.45129 0.62004 0.0
H613 H 0.328 0.41968 0.69287 0.0
H614 H 0.32548 0.44227 0.66517 0.0
H615 H 0.33377 0.44635 0.70641 0.0
C616 C 0.34323 0.49092 0.59364 0.0
C617 C 0.33772 0.50657 0.6166 0.0
C618 C 0.35044 0.47106 0.60426 0.0
C619 C 0.35217 0.46636 0.63804 0.0
C620 C 0.34656 0.48199 0.66084 0.0
H621 H 0.43024 0.3964 0.74423 0.0
H622 H 0.41194 0.4203 0.71105 0.0
C623 C 0.33934 0.50168 0.65032 0.0
C624 C 0.36103 0.44602 0.64984 0.0
H625 H 0.35746 0.40579 0.70739 0.0
C626 C 0.3784 0.44114 0.63869 0.0
C627 C 0.3531 0.4323 0.67375 0.0
C628 C 0.33398 0.43529 0.68493 0.0
C629 C 0.3884 0.42399 0.65224 0.0
C630 C 0.38108 0.41154 0.67826 0.0
C631 C 0.36328 0.41545 0.68786 0.0
C632 C 0.39227 0.39606 0.69784 0.0
C633 C 0.40689 0.41962 0.63877 0.0
C634 C 0.38717 0.37431 0.70255 0.0
C635 C 0.3977 0.36035 0.72211 0.0
C636 C 0.41338 0.36799 0.73765 0.0
C637 C 0.41831 0.38977 0.73278 0.0
C638 C 0.40789 0.40355 0.7134 0.0
H639 H 0.40787 0.42456 0.61256 0.0
H640 H 0.41689 0.42921 0.65283 0.0
H641 H 0.41046 0.40225 0.64078 0.0
H642 H 0.37507 0.36815 0.6911 0.0
H643 H 0.39344 0.34375 0.7254 0.0
H644 H 0.56189 0.65851 0.68579 0.0
H645 H 0.5806 0.63218 0.6569 0.0
H646 H 0.62653 0.65275 0.71345 0.0
H647 H 0.60773 0.67949 0.74236 0.0
H648 H 0.61789 0.63744 0.62134 0.0
H649 H 0.61564 0.58461 0.73216 0.0
H650 H 0.59884 0.60505 0.72461 0.0
H651 H 0.62096 0.61284 0.7374 0.0
C652 C 0.57609 0.65783 0.69148 0.0
C653 C 0.58336 0.67121 0.71616 0.0
C654 C 0.58677 0.64273 0.67495 0.0
C655 C 0.60497 0.64034 0.68304 0.0
C656 C 0.61252 0.65431 0.70674 0.0
H657 H 0.67501 0.53062 0.64316 0.0
H658 H 0.66171 0.56414 0.66297 0.0
C659 C 0.60182 0.66972 0.72305 0.0
C660 C 0.61542 0.62206 0.66852 0.0
H661 H 0.63018 0.57097 0.68561 0.0
C662 C 0.62073 0.62295 0.63541 0.0
C663 C 0.61905 0.6031 0.68676 0.0
C664 C 0.61331 0.60109 0.72219 0.0
C665 C 0.62975 0.60552 0.62023 0.0
C666 C 0.63305 0.58627 0.63829 0.0
C667 C 0.62775 0.58556 0.67151 0.0
C668 C 0.64212 0.56674 0.62377 0.0
C669 C 0.63598 0.6082 0.58521 0.0
C670 C 0.63589 0.55684 0.59461 0.0
C671 C 0.64381 0.53767 0.58276 0.0
C672 C 0.65785 0.52769 0.60024 0.0
C673 C 0.66419 0.53778 0.62907 0.0
C674 C 0.65652 0.55701 0.64053 0.0
H675 H 0.63773 0.62553 0.57875 0.0
H676 H 0.64889 0.59972 0.58094 0.0
H677 H 0.62572 0.60134 0.56835 0.0
H678 H 0.62452 0.56349 0.58151 0.0
H679 H 0.63843 0.5302 0.56076 0.0
H680 H 0.80495 0.62964 0.96231 0.0
H681 H 0.81891 0.65853 0.93029 0.0
H682 H 0.87028 0.62718 0.94007 0.0
H683 H 0.85628 0.598 0.97147 0.0
H684 H 0.84266 0.68638 0.95159 0.0
H685 H 0.87306 0.64446 0.84552 0.0
H686 H 0.85688 0.63153 0.87201 0.0
H687 H 0.88016 0.63294 0.88385 0.0
C688 C 0.81914 0.62858 0.95699 0.0
C689 C 0.82942 0.61138 0.96956 0.0
C690 C 0.82716 0.64522 0.93869 0.0
C691 C 0.84572 0.64517 0.93235 0.0
C692 C 0.8559 0.62753 0.94376 0.0
H693 H 0.91182 0.75899 0.91037 0.0
H694 H 0.89597 0.72639 0.9272 0.0
C695 C 0.84784 0.61078 0.96189 0.0
C696 C 0.85457 0.66446 0.91678 0.0
H697 H 0.88407 0.68029 0.85676 0.0
C698 C 0.85156 0.68497 0.93063 0.0
C699 C 0.86608 0.66295 0.88911 0.0
C700 C 0.8691 0.64181 0.87154 0.0
C701 C 0.86004 0.70367 0.91845 0.0
C702 C 0.87231 0.702 0.89197 0.0
C703 C 0.87489 0.68165 0.8773 0.0
C704 C 0.88298 0.72108 0.88027 0.0
C705 C 0.85568 0.72515 0.93407 0.0
C706 C 0.88171 0.72865 0.84767 0.0
C707 C 0.89098 0.74744 0.83773 0.0
C708 C 0.90175 0.75899 0.86021 0.0
C709 C 0.9035 0.7508 0.8924 0.0
C710 C 0.89433 0.73211 0.9022 0.0
H711 H 0.84241 0.72477 0.9465 0.0
H712 H 0.86599 0.72899 0.95293 0.0
H713 H 0.85559 0.73834 0.91556 0.0
H714 H 0.87317 0.72036 0.83013 0.0
H715 H 0.88935 0.7532 0.81276 0.0
H716 H 0.06844 0.30894 0.84678 0.0
H717 H 0.08489 0.33974 0.86954 0.0
H718 H 0.13341 0.30189 0.87129 0.0
H719 H 0.11709 0.27108 0.84798 0.0
H720 H 0.10151 0.34221 0.92864 0.0
H721 H 0.1516 0.35747 0.83084 0.0
H722 H 0.13221 0.34042 0.82448 0.0
H723 H 0.15166 0.33013 0.84556 0.0
C724 C 0.08268 0.30721 0.85149 0.0
C725 C 0.09142 0.28745 0.84534 0.0
C726 C 0.09208 0.32489 0.86463 0.0
C727 C 0.1105 0.32337 0.87185 0.0
C728 C 0.11933 0.30376 0.86529 0.0
H729 H 0.18707 0.40299 0.97904 0.0
H730 H 0.17206 0.37595 0.94475 0.0
C731 C 0.10993 0.28605 0.85207 0.0
C732 C 0.12007 0.34181 0.88817 0.0
H733 H 0.15625 0.3758 0.88176 0.0
C734 C 0.11338 0.34966 0.91818 0.0
C735 C 0.13565 0.35156 0.87476 0.0
C736 C 0.14313 0.34463 0.84199 0.0
C737 C 0.12197 0.36653 0.93538 0.0
C738 C 0.13757 0.37626 0.92203 0.0
C739 C 0.14427 0.36846 0.89199 0.0
C740 C 0.14738 0.39399 0.93957 0.0
C741 C 0.11455 0.37333 0.96829 0.0
C742 C 0.13886 0.41366 0.94703 0.0
C743 C 0.14746 0.42924 0.96668 0.0
C744 C 0.1648 0.42553 0.97928 0.0
C745 C 0.1737 0.4064 0.97001 0.0
C746 C 0.16511 0.39086 0.95035 0.0
H747 H 0.10534 0.36096 0.97868 0.0
H748 H 0.12554 0.37632 0.98623 0.0
H749 H 0.10687 0.38855 0.96528 0.0
H750 H 0.12534 0.41672 0.93843 0.0
H751 H 0.14018 0.44375 0.97318 0.0
H752 H 0.82377 1.00048 0.64569 0.0
H753 H 0.84076 0.96976 0.66651 0.0
H754 H 0.87033 0.96661 0.57572 0.0
H755 H 0.85322 0.99769 0.5544 0.0
H756 H 0.85883 0.92456 0.60285 0.0
H757 H 0.89419 0.97546 0.69474 0.0
H758 H 0.87018 0.97803 0.69555 0.0
H759 H 0.88243 0.98676 0.65989 0.0
C760 C 0.8338 0.99327 0.62988 0.0
C761 C 0.8372 1.00179 0.59836 0.0
C762 C 0.84356 0.97567 0.64197 0.0
C763 C 0.85706 0.96603 0.62299 0.0
C764 C 0.86005 0.97384 0.59094 0.0
H765 H 0.93774 0.88402 0.7175 0.0
H766 H 0.92284 0.91047 0.68213 0.0
C767 C 0.85025 0.9916 0.57875 0.0
C768 C 0.86828 0.94836 0.63739 0.0
H769 H 0.89673 0.93744 0.70139 0.0
C770 C 0.86724 0.92739 0.62421 0.0
C771 C 0.87945 0.95202 0.66508 0.0
C772 C 0.88181 0.97431 0.67953 0.0
C773 C 0.8766 0.90993 0.63862 0.0
C774 C 0.88715 0.91344 0.66722 0.0
C775 C 0.88859 0.93457 0.67966 0.0
C776 C 0.8966 0.89558 0.68516 0.0
C777 C 0.87519 0.88791 0.62291 0.0
C778 C 0.88702 0.87796 0.69826 0.0
C779 C 0.89558 0.86272 0.71856 0.0
C780 C 0.9139 0.86488 0.72657 0.0
C781 C 0.92361 0.88195 0.7122 0.0
C782 C 0.91507 0.89713 0.69189 0.0
H783 H 0.87137 0.8891 0.59654 0.0
H784 H 0.88805 0.87896 0.62488 0.0
H785 H 0.86464 0.87843 0.63566 0.0
H786 H 0.87271 0.87652 0.69411 0.0
H787 H 0.8876 0.84993 0.72938 0.0
H788 H 0.14123 0.03725 0.57529 0.0
H789 H 0.12461 0.06953 0.59286 0.0
H790 H 0.14013 0.05747 0.69339 0.0
H791 H 0.15648 0.02534 0.67625 0.0
H792 H 0.10363 0.0654 0.68646 0.0
H793 H 0.14405 0.12842 0.62299 0.0
H794 H 0.13546 0.10702 0.5975 0.0
H795 H 0.15199 0.1011 0.62839 0.0
C796 C 0.14128 0.04166 0.60106 0.0
C797 C 0.15022 0.02867 0.62431 0.0
C798 C 0.13178 0.06013 0.61108 0.0
C799 C 0.13115 0.06602 0.64449 0.0
C800 C 0.14033 0.05326 0.66753 0.0
H801 H 0.11049 0.17967 0.75365 0.0
H802 H 0.1216 0.15019 0.71975 0.0
C803 C 0.14976 0.03488 0.6576 0.0
C804 C 0.12068 0.0851 0.65607 0.0
H805 H 0.11956 0.14033 0.65453 0.0
C806 C 0.10697 0.08179 0.67922 0.0
C807 C 0.12509 0.10649 0.64671 0.0
C808 C 0.14002 0.11112 0.62273 0.0
C809 C 0.09796 0.09922 0.69405 0.0
C810 C 0.10259 0.12065 0.68514 0.0
C811 C 0.11591 0.12393 0.6612 0.0
C812 C 0.09537 0.13978 0.70312 0.0
C813 C 0.08422 0.09453 0.72037 0.0
C814 C 0.07687 0.14431 0.70445 0.0
C815 C 0.07042 0.16131 0.72406 0.0
C816 C 0.08235 0.17409 0.7426 0.0
C817 C 0.10087 0.17013 0.73986 0.0
C818 C 0.10728 0.15323 0.7204 0.0
H819 H 0.0848 0.07748 0.72887 0.0
H820 H 0.08622 0.10529 0.74194 0.0
H821 H 0.07058 0.09752 0.7104 0.0
H822 H 0.0674 0.13448 0.69081 0.0
H823 H 0.05611 0.16405 0.72536 0.0
H824 H 0.42766 0.25261 0.90073 0.0
H825 H 0.41204 0.22022 0.91855 0.0
H826 H 0.38366 0.21763 0.82612 0.0
H827 H 0.3991 0.25082 0.80821 0.0
H828 H 0.36106 0.21119 0.87571 0.0
H829 H 0.41911 0.15792 0.8972 0.0
H830 H 0.42182 0.18273 0.91939 0.0
H831 H 0.42108 0.1831 0.87506 0.0
C832 C 0.41825 0.24513 0.88385 0.0
C833 C 0.41474 0.25444 0.85286 0.0
C834 C 0.4094 0.22634 0.89407 0.0
C835 C 0.3969 0.21597 0.87354 0.0
C836 C 0.39338 0.22511 0.8424 0.0
H837 H 0.3472 0.09406 0.94888 0.0
H838 H 0.36491 0.11886 0.91401 0.0
C839 C 0.40225 0.24409 0.83211 0.0
C840 C 0.38672 0.19664 0.88589 0.0
H841 H 0.39197 0.14867 0.92701 0.0
C842 C 0.36787 0.19737 0.88638 0.0
C843 C 0.3954 0.17823 0.89939 0.0
C844 C 0.41546 0.17533 0.8974 0.0
C845 C 0.35763 0.18104 0.90164 0.0
C846 C 0.3664 0.1636 0.91763 0.0
C847 C 0.38517 0.16213 0.91534 0.0
C848 C 0.3564 0.14798 0.93906 0.0
C849 C 0.33744 0.18284 0.90078 0.0
C850 C 0.34627 0.15586 0.96546 0.0
C851 C 0.33626 0.14186 0.98517 0.0
C852 C 0.33614 0.11938 0.97949 0.0
C853 C 0.34693 0.11124 0.95395 0.0
C854 C 0.35699 0.12543 0.93393 0.0
H855 H 0.33285 0.19206 0.87889 0.0
H856 H 0.33096 0.16666 0.90045 0.0
H857 H 0.33282 0.19166 0.92296 0.0
H858 H 0.346 0.173 0.97081 0.0
H859 H 0.32843 0.14886 1.00489 0.0
H860 H 0.55693 0.79339 0.86315 0.0
H861 H 0.57257 0.82447 0.88639 0.0
H862 H 0.62114 0.80514 0.83706 0.0
H863 H 0.60522 0.77422 0.81261 0.0
H864 H 0.59874 0.8258 0.9282 0.0
H865 H 0.62245 0.86795 0.81638 0.0
H866 H 0.60641 0.84611 0.81461 0.0
H867 H 0.63005 0.8405 0.81833 0.0
C868 C 0.57089 0.79589 0.85671 0.0
C869 C 0.57976 0.78127 0.83576 0.0
C870 C 0.57987 0.81373 0.8702 0.0
C871 C 0.59809 0.81755 0.86342 0.0
C872 C 0.60699 0.80309 0.84215 0.0
H873 H 0.67966 0.89892 0.95148 0.0
H874 H 0.66185 0.87367 0.91856 0.0
C875 C 0.59789 0.78528 0.82823 0.0
C876 C 0.60777 0.83588 0.88028 0.0
H877 H 0.63493 0.87988 0.86746 0.0
C878 C 0.60647 0.83773 0.91473 0.0
C879 C 0.61795 0.85163 0.86305 0.0
C880 C 0.61917 0.85162 0.82604 0.0
C881 C 0.61524 0.85436 0.93227 0.0
C882 C 0.62561 0.86985 0.9151 0.0
C883 C 0.62692 0.86812 0.8807 0.0
C884 C 0.6362 0.88694 0.93275 0.0
C885 C 0.61381 0.85484 0.96927 0.0
C886 C 0.62782 0.90344 0.95107 0.0
C887 C 0.63808 0.91814 0.96988 0.0
C888 C 0.65689 0.91643 0.97095 0.0
C889 C 0.66519 0.90052 0.95148 0.0
C890 C 0.65501 0.88608 0.93251 0.0
H891 H 0.60788 0.83973 0.97925 0.0
H892 H 0.62724 0.85731 0.9806 0.0
H893 H 0.60515 0.86856 0.97672 0.0
H894 H 0.61332 0.90463 0.95141 0.0
H895 H 0.63128 0.93009 0.98477 0.0
H896 H 0.83078 0.50736 0.15497 0.0
H897 H 0.84655 0.47564 0.17539 0.0
H898 H 0.87227 0.46778 0.08135 0.0
H899 H 0.85623 0.49976 0.06034 0.0
H900 H 0.86052 0.42792 0.11037 0.0
H901 H 0.90005 0.47669 0.19889 0.0
H902 H 0.87631 0.4808 0.20264 0.0
H903 H 0.8876 0.48871 0.16547 0.0
C904 C 0.83973 0.49893 0.13842 0.0
C905 C 0.84237 0.50635 0.10603 0.0
C906 C 0.84881 0.48076 0.15026 0.0
C907 C 0.86093 0.46952 0.13023 0.0
C908 C 0.8631 0.47627 0.0974 0.0
H909 H 0.93839 0.38344 0.22458 0.0
H910 H 0.92454 0.41046 0.18899 0.0
C911 C 0.85392 0.49455 0.0854 0.0
C912 C 0.87154 0.45118 0.14424 0.0
H913 H 0.90019 0.43858 0.20716 0.0
C914 C 0.86934 0.43026 0.13133 0.0
C915 C 0.88328 0.45418 0.17131 0.0
C916 C 0.88713 0.47633 0.18522 0.0
C917 C 0.87804 0.41224 0.14549 0.0
C918 C 0.88905 0.41512 0.17368 0.0
C919 C 0.89167 0.43618 0.18579 0.0
C920 C 0.89784 0.39673 0.1915 0.0
C921 C 0.87547 0.39035 0.12988 0.0
C922 C 0.88767 0.37951 0.20437 0.0
C923 C 0.89569 0.36382 0.22461 0.0
C924 C 0.91401 0.36517 0.23291 0.0
C925 C 0.92427 0.38189 0.2189 0.0
C926 C 0.91631 0.39744 0.19851 0.0
H927 H 0.87175 0.3918 0.10349 0.0
H928 H 0.88781 0.38039 0.13189 0.0
H929 H 0.8644 0.38174 0.14258 0.0
H930 H 0.87333 0.37874 0.2001 0.0
H931 H 0.88729 0.35134 0.23521 0.0
H932 H 0.05531 0.65965 0.22192 0.0
H933 H 0.06855 0.63096 0.1885 0.0
H934 H 0.12084 0.65973 0.20114 0.0
H935 H 0.10759 0.68873 0.23391 0.0
H936 H 0.1173 0.6428 0.13979 0.0
H937 H 0.09522 0.58207 0.2317 0.0
H938 H 0.07714 0.59706 0.21358 0.0
H939 H 0.09341 0.61072 0.23891 0.0
C940 C 0.06957 0.66009 0.21718 0.0
C941 C 0.08036 0.67642 0.23107 0.0
C942 C 0.07719 0.64352 0.19822 0.0
C943 C 0.09583 0.64269 0.19302 0.0
C944 C 0.10646 0.6598 0.20496 0.0
H945 H 0.1615 0.5302 0.16369 0.0
H946 H 0.14572 0.56244 0.18189 0.0
C947 C 0.09882 0.67647 0.22369 0.0
C948 C 0.10444 0.6235 0.17697 0.0
H949 H 0.11004 0.56883 0.18475 0.0
C950 C 0.11563 0.62661 0.14953 0.0
C951 C 0.10252 0.60231 0.18982 0.0
C952 C 0.09157 0.59778 0.22028 0.0
C953 C 0.12497 0.60927 0.13484 0.0
C954 C 0.12291 0.58808 0.14756 0.0
C955 C 0.11157 0.58498 0.17475 0.0
C956 C 0.13329 0.5691 0.13486 0.0
C957 C 0.13746 0.61392 0.10659 0.0
C958 C 0.13184 0.56196 0.10204 0.0
C959 C 0.14105 0.54336 0.09135 0.0
C960 C 0.15175 0.5314 0.11336 0.0
C961 C 0.15335 0.53885 0.14598 0.0
C962 C 0.14427 0.55736 0.15652 0.0
H963 H 0.14072 0.63141 0.10471 0.0
H964 H 0.15017 0.60472 0.10923 0.0
H965 H 0.13094 0.60889 0.08325 0.0
H966 H 0.12323 0.57043 0.08488 0.0
H967 H 0.13939 0.53803 0.06616 0.0
H968 H 0.30674 0.63616 0.48207 0.0
H969 H 0.31978 0.66355 0.44602 0.0
H970 H 0.36832 0.62606 0.43885 0.0
H971 H 0.35525 0.59839 0.47473 0.0
H972 H 0.34973 0.68773 0.45967 0.0
H973 H 0.3602 0.64294 0.34328 0.0
H974 H 0.34585 0.63295 0.37564 0.0
H975 H 0.36981 0.63001 0.3787 0.0
C976 C 0.32004 0.63342 0.47227 0.0
C977 C 0.32988 0.6149 0.48132 0.0
C978 C 0.32754 0.64923 0.45171 0.0
C979 C 0.34504 0.64696 0.43937 0.0
C980 C 0.35469 0.62813 0.44742 0.0
H981 H 0.41982 0.73064 0.33447 0.0
H982 H 0.40415 0.70089 0.3617 0.0
C983 C 0.34718 0.61226 0.46806 0.0
C984 C 0.35357 0.665 0.42028 0.0
H985 H 0.37407 0.67752 0.34738 0.0
C986 C 0.35492 0.6855 0.43501 0.0
C987 C 0.36049 0.6622 0.38812 0.0
C988 C 0.3589 0.6409 0.37032 0.0
C989 C 0.36326 0.70303 0.41895 0.0
C990 C 0.37016 0.70028 0.38675 0.0
C991 C 0.36878 0.67977 0.37196 0.0
C992 C 0.37928 0.71829 0.36848 0.0
C993 C 0.36511 0.72417 0.43719 0.0
C994 C 0.37048 0.738 0.36225 0.0
C995 C 0.37946 0.75517 0.34669 0.0
C996 C 0.39745 0.75302 0.33662 0.0
C997 C 0.406 0.733 0.34183 0.0
C998 C 0.39703 0.71589 0.35747 0.0
H999 H 0.36372 0.72196 0.46418 0.0
H1000 H 0.3783 0.73187 0.4322 0.0
H1001 H 0.35439 0.73537 0.42897 0.0
H1002 H 0.35666 0.74019 0.36968 0.0
H1003 H 0.37238 0.77025 0.343 0.0
H1004 H 0.68827 0.39712 0.46461 0.0
H1005 H 0.67378 0.37034 0.42928 0.0
H1006 H 0.62532 0.4083 0.42879 0.0
H1007 H 0.63987 0.43542 0.46388 0.0
H1008 H 0.64494 0.3459 0.44474 0.0
H1009 H 0.62917 0.3929 0.33243 0.0
H1010 H 0.64457 0.40259 0.36346 0.0
H1011 H 0.62073 0.40499 0.3694 0.0
C1012 C 0.67464 0.40009 0.45646 0.0
C1013 C 0.6653 0.41858 0.46714 0.0
C1014 C 0.66632 0.38462 0.43629 0.0
C1015 C 0.64842 0.3872 0.42599 0.0
C1016 C 0.63923 0.40601 0.43571 0.0
H1017 H 0.56914 0.30476 0.33018 0.0
H1018 H 0.58612 0.33411 0.35581 0.0
C1019 C 0.64758 0.42157 0.45589 0.0
C1020 C 0.63914 0.36946 0.40726 0.0
H1021 H 0.61544 0.35822 0.33695 0.0
C1022 C 0.63863 0.3486 0.42103 0.0
C1023 C 0.63078 0.37283 0.37632 0.0
C1024 C 0.63145 0.39448 0.35933 0.0
C1025 C 0.62975 0.3313 0.40529 0.0
C1026 C 0.62134 0.33466 0.37439 0.0
C1027 C 0.62189 0.3555 0.36053 0.0
C1028 C 0.61139 0.31698 0.35674 0.0
C1029 C 0.62896 0.30972 0.42251 0.0
C1030 C 0.61993 0.29757 0.34772 0.0
C1031 C 0.61019 0.28063 0.33295 0.0
C1032 C 0.59168 0.2827 0.32664 0.0
C1033 C 0.58335 0.30246 0.33462 0.0
C1034 C 0.59307 0.31935 0.34935 0.0
H1035 H 0.63187 0.31123 0.44922 0.0
H1036 H 0.61556 0.30208 0.41945 0.0
H1037 H 0.63914 0.29878 0.41169 0.0
H1038 H 0.63412 0.29542 0.3524 0.0
H1039 H 0.61711 0.26574 0.32714 0.0
H1040 H 0.24698 0.36312 0.98616 0.0
H1041 H 0.25625 0.325 0.98307 0.0
H1042 H 0.21232 0.30714 0.04624 0.0
H1043 H 0.20289 0.34478 0.04903 0.0
H1044 H 0.26682 0.29614 0.03084 0.0
H1045 H 0.20495 0.26496 0.97188 0.0
H1046 H 0.2099 0.29346 0.97451 0.0
H1047 H 0.20061 0.27937 1.00928 0.0
C1048 C 0.23926 0.35107 0.9993 0.0
C1049 C 0.22408 0.3572 1.01767 0.0
C1050 C 0.24458 0.32921 0.99753 0.0
C1051 C 0.2348 0.31289 1.01385 0.0
C1052 C 0.21987 0.31911 0.03262 0.0
H1053 H 0.24682 0.17146 0.03811 0.0
H1054 H 0.23684 0.20936 0.04171 0.0
C1055 C 0.21456 0.34084 0.03439 0.0
C1056 C 0.24036 0.28951 1.01208 0.0
H1057 H 0.22519 0.2386 0.99296 0.0
C1058 C 0.25772 0.28363 0.02233 0.0
C1059 C 0.22855 0.27291 1.00122 0.0
C1060 C 0.21003 0.27797 0.9883 0.0
C1061 C 0.26344 0.26185 0.02257 0.0
C1062 C 0.25163 0.24527 1.01169 0.0
C1063 C 0.23426 0.25113 1.00152 0.0
C1064 C 0.25738 0.22199 1.00938 0.0
C1065 C 0.28201 0.25678 0.03521 0.0
C1066 C 0.27199 0.21617 0.98954 0.0
C1067 C 0.27767 0.19461 0.98742 0.0
C1068 C 0.26888 0.17801 1.00494 0.0
C1069 C 0.25398 0.18372 0.02436 0.0
C1070 C 0.24826 0.20544 0.02642 0.0
H1071 H 0.2872 0.26983 0.05145 0.0
H1072 H 0.28216 0.24133 0.04908 0.0
H1073 H 0.29131 0.25526 1.01407 0.0
H1074 H 0.27904 0.22835 0.97544 0.0
H1075 H 0.2891 0.19102 0.97198 0.0
H1076 H 0.79556 0.68999 0.02228 0.0
H1077 H 0.78549 0.72749 0.02243 0.0
H1078 H 0.73359 0.70744 0.98661 0.0
H1079 H 0.74358 0.66958 0.98658 0.0
H1080 H 0.77304 0.75372 0.97164 0.0
H1081 H 0.72082 0.74378 0.06754 0.0
H1082 H 0.73777 0.72359 0.05991 0.0
H1083 H 0.71861 0.72572 0.03318 0.0
C1084 C 0.78195 0.69343 1.01449 0.0
C1085 C 0.77035 0.67659 1.00464 0.0
C1086 C 0.77623 0.71501 1.01451 0.0
C1087 C 0.75869 0.72043 1.00499 0.0
C1088 C 0.7471 0.70372 0.99468 0.0
H1089 H 0.69716 0.83862 0.99219 0.0
H1090 H 0.70888 0.80199 0.99171 0.0
C1091 C 0.75286 0.68205 0.99449 0.0
C1092 C 0.75271 0.74356 1.00585 0.0
H1093 H 0.7222 0.77777 0.04096 0.0
C1094 C 0.76195 0.75899 0.98689 0.0
C1095 C 0.73832 0.75058 0.02587 0.0
C1096 C 0.72838 0.73514 0.04804 0.0
C1097 C 0.7569 0.78098 0.98667 0.0
C1098 C 0.74242 0.78798 1.00653 0.0
C1099 C 0.73331 0.77255 0.02573 0.0
C1100 C 0.73578 0.81089 1.00651 0.0
C1101 C 0.76678 0.79638 0.96432 0.0
C1102 C 0.74692 0.82847 1.01516 0.0
C1103 C 0.74019 0.84977 1.01538 0.0
C1104 C 0.72215 0.85392 1.00716 0.0
C1105 C 0.71112 0.83623 0.99869 0.0
C1106 C 0.71781 0.81511 0.99844 0.0
H1107 H 0.77436 0.78769 0.94492 0.0
H1108 H 0.75734 0.80781 0.95232 0.0
H1109 H 0.77652 0.80591 0.97907 0.0
H1110 H 0.76075 0.82572 0.02217 0.0
H1111 H 0.74906 0.86293 0.02216 0.0
H1112 H 0.94702 0.44782 0.26698 0.0
H1113 H 0.95756 0.48507 0.26405 0.0
H1114 H 0.0122 0.46261 0.25762 0.0
H1115 H 0.00159 0.42503 0.25942 0.0
H1116 H 0.97758 0.50791 0.30377 0.0
H1117 H 0.01242 0.50498 0.18372 0.0
H1118 H -0.00182 0.4833 0.19784 0.0
H1119 H 0.02094 0.48553 0.21246 0.0
C1120 C 0.96131 0.4507 0.26474 0.0
C1121 C 0.97344 0.43328 0.26337 0.0
C1122 C 0.96734 0.47214 0.26308 0.0
C1123 C 0.98571 0.47692 0.26011 0.0
C1124 C -0.00208 0.45954 0.25899 0.0
H1125 H 0.04723 0.59656 0.26862 0.0
H1126 H 0.03656 0.55922 0.2671 0.0
C1127 C 0.99185 0.43798 0.26029 0.0
C1128 C 0.99187 0.50007 0.25936 0.0
H1129 H 0.01683 0.53677 0.21578 0.0
C1130 C 0.98606 0.51418 0.28434 0.0
C1131 C 0.00293 0.50852 0.23405 0.0
C1132 C 0.00884 0.49487 0.20533 0.0
C1133 C 0.99118 0.53614 0.28501 0.0
C1134 C 0.00238 0.54447 0.25995 0.0
C1135 C 0.00823 0.53044 0.235 0.0
C1136 C 0.00866 0.56748 0.25991 0.0
C1137 C 0.98489 0.55019 0.31301 0.0
C1138 C 0.99658 0.58478 0.25589 0.0
C1139 C 0.00268 0.60634 0.25655 0.0
C1140 C 0.02098 0.61106 0.26149 0.0
C1141 C 0.03301 0.59365 0.26506 0.0
C1142 C 0.02695 0.57219 0.26409 0.0
H1143 H 0.97927 0.5405 0.33357 0.0
H1144 H 0.99611 0.56023 0.3226 0.0
H1145 H 0.97426 0.56125 0.30397 0.0
H1146 H 0.98242 0.5816 0.25219 0.0
H1147 H 0.99304 0.61928 0.25358 0.0
H1148 H 0.28071 0.68915 0.56767 0.0
H1149 H 0.27095 0.7267 0.56483 0.0
H1150 H 0.24335 0.71346 0.4737 0.0
H1151 H 0.2527 0.67547 0.47694 0.0
H1152 H 0.27782 0.7578 0.52214 0.0
H1153 H 0.20429 0.74388 0.52276 0.0
H1154 H 0.22015 0.72262 0.53132 0.0
H1155 H 0.21564 0.73062 0.48957 0.0
C1156 C 0.27244 0.69409 0.54708 0.0
C1157 C 0.26743 0.6791 0.52263 0.0
C1158 C 0.26689 0.71571 0.54544 0.0
C1159 C 0.25617 0.72311 0.51929 0.0
C1160 C 0.25123 0.70822 0.49462 0.0
H1161 H 0.24182 0.86413 0.4867 0.0
H1162 H 0.25147 0.82635 0.48133 0.0
C1163 C 0.25668 0.68645 0.49639 0.0
C1164 C 0.25058 0.74645 0.51796 0.0
H1165 H 0.21403 0.77992 0.515 0.0
C1166 C 0.26385 0.7626 0.5205 0.0
C1167 C 0.23235 0.75292 0.51614 0.0
C1168 C 0.21726 0.73663 0.51511 0.0
C1169 C 0.25947 0.78477 0.52163 0.0
C1170 C 0.24126 0.79126 0.51938 0.0
C1171 C 0.228 0.77512 0.51648 0.0
C1172 C 0.23553 0.81449 0.52202 0.0
C1173 C 0.2744 0.80097 0.52652 0.0
C1174 C 0.22302 0.8206 0.54608 0.0
C1175 C 0.21734 0.84211 0.54892 0.0
C1176 C 0.224 0.85828 0.52779 0.0
C1177 C 0.23654 0.85222 0.50362 0.0
C1178 C 0.24214 0.83056 0.50065 0.0
H1179 H 0.28672 0.79326 0.5365 0.0
H1180 H 0.27785 0.80835 0.50248 0.0
H1181 H 0.27026 0.81407 0.54353 0.0
H1182 H 0.21765 0.80868 0.56293 0.0
H1183 H 0.20767 0.84604 0.56782 0.0
H1184 H 0.75145 0.16681 0.48076 0.0
H1185 H 0.74256 0.20482 0.47327 0.0
H1186 H 0.77285 0.2224 0.55967 0.0
H1187 H 0.78206 0.18494 0.56671 0.0
H1188 H 0.72412 0.23339 0.50887 0.0
H1189 H 0.79294 0.26534 0.49639 0.0
H1190 H 0.78815 0.23677 0.49573 0.0
H1191 H 0.79038 0.2509 0.53429 0.0
C1192 C 0.75618 0.17878 0.49817 0.0
C1193 C 0.76763 0.17269 0.52418 0.0
C1194 C 0.75113 0.20059 0.49383 0.0
C1195 C 0.75741 0.21684 0.51534 0.0
C1196 C 0.76828 0.21054 0.54196 0.0
H1197 H 0.71071 0.34284 0.55304 0.0
H1198 H 0.71961 0.305 0.55126 0.0
C1199 C 0.77342 0.18891 0.54614 0.0
C1200 C 0.75243 0.24025 0.51067 0.0
H1201 H 0.77008 0.29149 0.50834 0.0
C1202 C 0.73422 0.24603 0.50846 0.0
C1203 C 0.76548 0.25701 0.50931 0.0
C1204 C 0.78532 0.25218 0.50868 0.0
C1205 C 0.72874 0.26785 0.50638 0.0
C1206 C 0.74175 0.28466 0.50738 0.0
C1207 C 0.75998 0.27884 0.50814 0.0
C1208 C 0.73671 0.30824 0.5086 0.0
C1209 C 0.70897 0.27257 0.5027 0.0
C1210 C 0.74392 0.32334 0.48621 0.0
C1211 C 0.73904 0.34535 0.48753 0.0
C1212 C 0.72682 0.35285 0.51132 0.0
C1213 C 0.71998 0.33778 0.53409 0.0
C1214 C 0.72495 0.31592 0.53291 0.0
H1215 H 0.70177 0.25881 0.49105 0.0
H1216 H 0.70304 0.27512 0.5274 0.0
H1217 H 0.70664 0.28729 0.48768 0.0
H1218 H 0.75317 0.31804 0.46737 0.0
H1219 H 0.74462 0.35641 0.46961 0.0
H1220 H 0.9499 0.94873 0.75868 0.0
H1221 H 0.96158 0.9855 0.75782 0.0
H1222 H 0.01563 0.96085 0.76198 0.0
H1223 H 0.00391 0.92368 0.76179 0.0
H1224 H 0.97972 1.0078 0.80104 0.0
H1225 H 0.02156 1.00321 0.68885 0.0
H1226 H 0.006 0.98211 0.70001 0.0
H1227 H 0.02771 0.98366 0.7194 0.0
C1228 C 0.96431 0.95099 0.75921 0.0
C1229 C 0.97592 0.93303 0.76022 0.0
C1230 C 0.97101 0.9722 0.75875 0.0
C1231 C 0.98957 0.97629 0.75936 0.0
C1232 C 0.00127 0.95837 0.7606 0.0
H1233 H 0.05137 0.09681 0.77431 0.0
H1234 H 0.04123 0.0592 0.77224 0.0
C1235 C 0.99454 0.93702 0.76075 0.0
C1236 C 0.99635 0.99929 0.75978 0.0
H1237 H 0.02417 0.03527 0.72068 0.0
C1238 C 0.98938 1.01374 0.78329 0.0
C1239 C 0.00899 1.00737 0.73674 0.0
C1240 C 0.01638 0.99336 0.70962 0.0
C1241 C 0.99473 0.03563 0.78461 0.0
C1242 C 0.00735 0.04366 0.76163 0.0
C1243 C 0.01448 0.02925 0.73831 0.0
C1244 C 0.01349 0.06683 0.7618 0.0
C1245 C 0.98705 0.04994 0.81109 0.0
C1246 C 0.00141 0.08393 0.75605 0.0
C1247 C 0.00722 0.10561 0.75702 0.0
C1248 C 0.02525 0.11078 0.76396 0.0
C1249 C 0.03735 0.09359 0.76917 0.0
C1250 C 0.03158 0.07197 0.7679 0.0
H1251 H 0.98083 0.04038 0.83121 0.0
H1252 H -0.0024 0.06053 0.82177 0.0
H1253 H 0.97653 0.06043 0.80021 0.0
H1254 H 0.98745 0.0805 0.75075 0.0
H1255 H -0.00248 0.11832 0.75272 0.0
H1256 H 0.53824 0.59535 0.71769 0.0
H1257 H 0.52937 0.55777 0.7253 0.0
H1258 H 0.4873 0.57773 0.79114 0.0
H1259 H 0.49607 0.61575 0.78335 0.0
H1260 H 0.52873 0.53277 0.78083 0.0
H1261 H 0.46014 0.53817 0.72817 0.0
H1262 H 0.4766 0.55932 0.72297 0.0
H1263 H 0.46452 0.55686 0.76101 0.0
C1264 C 0.527 0.59191 0.7337 0.0
C1265 C 0.51783 0.60881 0.74976 0.0
C1266 C 0.52197 0.57025 0.7381 0.0
C1267 C 0.5075 0.56468 0.7585 0.0
C1268 C 0.49829 0.58148 0.77473 0.0
H1269 H 0.45755 0.4424 0.81315 0.0
H1270 H 0.46691 0.4799 0.80673 0.0
C1271 C 0.50338 0.60328 0.77039 0.0
C1272 C 0.50247 0.5413 0.76297 0.0
H1273 H 0.46822 0.50488 0.75268 0.0
C1274 C 0.51549 0.52669 0.77459 0.0
C1275 C 0.48523 0.53316 0.75479 0.0
C1276 C 0.47084 0.5476 0.74075 0.0
C1277 C 0.5117 0.50448 0.77885 0.0
C1278 C 0.49447 0.49632 0.77064 0.0
C1279 C 0.48145 0.51094 0.75899 0.0
C1280 C 0.48939 0.47292 0.77497 0.0
C1281 C 0.52609 0.49008 0.79302 0.0
C1282 C 0.49884 0.45609 0.75929 0.0
C1283 C 0.49352 0.43432 0.76306 0.0
C1284 C 0.47852 0.42887 0.78241 0.0
C1285 C 0.46918 0.44579 0.79807 0.0
C1286 C 0.4745 0.4674 0.79435 0.0
H1287 H 0.53659 0.49955 0.8061 0.0
H1288 H 0.5203 0.47813 0.8104 0.0
H1289 H 0.53268 0.48111 0.77276 0.0
H1290 H 0.51015 0.45978 0.7436 0.0
H1291 H 0.50095 0.42183 0.75038 0.0
H1292 H 0.4519 0.94364 0.3037 0.0
H1293 H 0.46182 0.98112 0.29974 0.0
H1294 H 0.50198 0.96267 0.22905 0.0
H1295 H 0.49184 0.9249 0.23247 0.0
H1296 H 0.49348 1.00027 0.31373 0.0
H1297 H 0.47832 1.01249 0.18152 0.0
H1298 H 0.47047 0.98919 0.204 0.0
H1299 H 0.49323 0.99032 0.18943 0.0
C1300 C 0.46283 0.94743 0.28717 0.0
C1301 C 0.47098 0.93106 0.26828 0.0
C1302 C 0.46852 0.96902 0.28498 0.0
C1303 C 0.4825 0.97504 0.26372 0.0
C1304 C 0.49089 0.9587 0.24511 0.0
H1305 H 0.53691 0.09636 0.21995 0.0
H1306 H 0.52598 0.05928 0.22309 0.0
C1307 C 0.48516 0.937 0.24726 0.0
C1308 C 0.48832 0.99833 0.26171 0.0
H1309 H 0.49388 0.04085 0.20862 0.0
C1310 C 0.49348 1.00913 0.29072 0.0
C1311 C 0.48834 1.01012 0.23179 0.0
C1312 C 0.48214 1.00004 0.19995 0.0
C1313 C 0.49896 0.03101 0.29056 0.0
C1314 C 0.49902 0.04279 0.26064 0.0
C1315 C 0.49383 0.032 0.23164 0.0
C1316 C 0.50515 0.06595 0.25857 0.0
C1317 C 0.50517 0.0411 0.3224 0.0
C1318 C 0.49696 0.08252 0.277 0.0
C1319 C 0.50325 0.10402 0.27528 0.0
C1320 C 0.51784 0.10949 0.25494 0.0
C1321 C 0.52568 0.09292 0.236 0.0
C1322 C 0.51942 0.07156 0.23772 0.0
H1323 H 0.5087 0.02868 0.34105 0.0
H1324 H 0.51703 0.05166 0.31839 0.0
H1325 H 0.49419 0.05115 0.3326 0.0
H1326 H 0.48566 0.07886 0.29276 0.0
H1327 H 0.49681 0.11628 0.29013 0.0
H1328 H 0.2662 1.00363 0.37032 0.0
H1329 H 0.26848 0.02175 0.3171 0.0
H1330 H 0.22366 0.98436 0.28106 0.0
H1331 H 0.22111 0.96652 0.33494 0.0
H1332 H 0.2769 1.00396 0.26062 0.0
H1333 H 0.21051 0.04288 0.24552 0.0
H1334 H 0.21804 0.03203 0.28436 0.0
H1335 H 0.20909 1.01437 0.2532 0.0
C1336 C 0.25656 0.9996 0.35128 0.0
C1337 C 0.24341 0.98368 0.35697 0.0
C1338 C 0.25793 1.00992 0.32071 0.0
C1339 C 0.24623 1.00463 0.29474 0.0
C1340 C 0.23266 0.98919 0.30067 0.0
H1341 H 0.27746 0.02705 0.08978 0.0
H1342 H 0.2689 1.01127 0.14252 0.0
C1343 C 0.23119 0.97894 0.33153 0.0
C1344 C 0.24929 1.01416 0.26116 0.0
H1345 H 0.22941 0.04241 0.19835 0.0
C1346 C 0.26647 1.01239 0.24713 0.0
C1347 C 0.23584 0.02544 0.24337 0.0
C1348 C 0.21738 0.02902 0.25746 0.0
C1349 C 0.27056 0.02136 0.21617 0.0
C1350 C 0.25697 0.03205 0.1979 0.0
C1351 C 0.23982 0.03405 0.21199 0.0
C1352 C 0.26051 0.04146 0.16446 0.0
C1353 C 0.2896 0.01975 0.20377 0.0
C1354 C 0.25781 0.0636 0.15818 0.0
C1355 C 0.26251 0.0727 0.12765 0.0
C1356 C 0.27003 0.05986 0.10262 0.0
C1357 C 0.27192 0.03754 0.10849 0.0
C1358 C 0.26713 0.02846 0.13886 0.0
H1359 H 0.29926 1.01693 0.22418 0.0
H1360 H 0.29064 1.00591 0.18654 0.0
H1361 H 0.29366 0.03466 0.19051 0.0
H1362 H 0.25261 0.07402 0.17732 0.0
H1363 H 0.26086 0.08993 0.12412 0.0
H1364 H 0.7157 1.00371 0.08946 0.0
H1365 H 0.72519 0.01864 0.14231 0.0
H1366 H 0.74191 0.95531 0.17401 0.0
H1367 H 0.73238 0.94019 0.12095 0.0
H1368 H 0.71149 1.00792 0.20287 0.0
H1369 H 0.78482 0.99228 0.20181 0.0
H1370 H 0.77119 0.99084 0.16508 0.0
H1371 H 0.771 0.96899 0.19416 0.0
C1372 C 0.72157 0.99292 0.10746 0.0
C1373 C 0.72317 0.97066 0.10078 0.0
C1374 C 0.72702 1.00153 0.1378 0.0
C1375 C 0.73444 0.98824 0.16233 0.0
C1376 C 0.73656 0.96608 0.15545 0.0
H1377 H 0.76175 1.01653 0.36975 0.0
H1378 H 0.75898 0.99906 0.31544 0.0
C1379 C 0.73105 0.95741 0.12501 0.0
C1380 C 0.73872 0.99746 0.19562 0.0
H1381 H 0.77262 1.00604 0.2514 0.0
C1382 C 0.72489 1.00752 0.21336 0.0
C1383 C 0.75615 0.99683 0.20972 0.0
C1384 C 0.77171 0.98682 0.19168 0.0
C1385 C 0.72792 1.01687 0.24448 0.0
C1386 C 0.74542 1.01672 0.25831 0.0
C1387 C 0.75923 1.00631 0.2409 0.0
C1388 C 0.7495 0.02775 0.29039 0.0
C1389 C 0.71216 0.02651 0.26253 0.0
C1390 C 0.74598 0.04992 0.29427 0.0
C1391 C 0.74756 0.05983 0.32513 0.0
C1392 C 0.75303 0.04798 0.35293 0.0
C1393 C 0.75775 0.02615 0.34873 0.0
C1394 C 0.75603 1.01613 0.31772 0.0
H1395 H 0.69921 0.01976 0.25359 0.0
H1396 H 0.71318 0.02359 0.28941 0.0
H1397 H 0.71191 0.04422 0.25829 0.0
H1398 H 0.74136 0.05944 0.27358 0.0
H1399 H 0.74376 0.07665 0.32761 0.0
H1400 H 0.95233 0.29107 0.34407 0.0
H1401 H 0.95873 0.27496 0.39781 0.0
H1402 H 0.99074 0.33058 0.42371 0.0
H1403 H 0.98443 0.34662 0.36974 0.0
H1404 H 0.00776 0.29378 0.4402 0.0
H1405 H 0.93794 0.28922 0.48616 0.0
H1406 H 0.9409 0.27558 0.44765 0.0
H1407 H 0.94387 0.30441 0.44991 0.0
C1408 C 0.96037 0.30009 0.36152 0.0
C1409 C 0.9675 0.32034 0.35288 0.0
C1410 C 0.96409 0.29083 0.39229 0.0
C1411 C 0.97498 0.30167 0.41532 0.0
C1412 C 0.98223 0.32188 0.40659 0.0
H1413 H 0.98067 0.2657 0.62253 0.0
H1414 H 0.97744 0.28501 0.57022 0.0
C1415 C 0.97856 0.33109 0.37573 0.0
C1416 C 0.97923 0.29171 0.44803 0.0
H1417 H 0.96005 0.27035 0.51718 0.0
C1418 C -0.00269 0.28876 0.45709 0.0
C1419 C 0.96567 0.28529 0.47039 0.0
C1420 C 0.94602 0.28896 0.46324 0.0
C1421 C 0.00216 0.27935 0.48745 0.0
C1422 C 0.98858 0.27234 0.50936 0.0
C1423 C 0.97052 0.27555 0.50045 0.0
C1424 C 0.99266 0.26187 0.5418 0.0
C1425 C 0.0218 0.27742 0.49598 0.0
C1426 C 0.0027 0.24262 0.54373 0.0
C1427 C 0.0048 0.23174 0.57387 0.0
C1428 C 0.99684 0.23984 0.60263 0.0
C1429 C 0.98729 0.25938 0.60088 0.0
C1430 C 0.98528 0.27029 0.57089 0.0
H1431 H 0.03011 0.28892 0.48154 0.0
H1432 H 0.02416 0.28045 0.52256 0.0
H1433 H 0.02643 0.26082 0.49019 0.0
H1434 H 0.00819 0.23543 0.52168 0.0
H1435 H 0.01174 0.21638 0.57435 0.0
H1436 H 0.02219 0.77723 0.61943 0.0
H1437 H 0.02456 0.76033 0.56556 0.0
H1438 H 0.98075 0.79948 0.53018 0.0
H1439 H 0.97893 0.81739 0.58402 0.0
H1440 H 0.00403 0.73675 0.52775 0.0
H1441 H 0.01775 0.81363 0.46228 0.0
H1442 H 0.01698 0.81197 0.5065 0.0
H1443 H 0.99652 0.81318 0.48297 0.0
C1444 C 0.01305 0.78238 0.60022 0.0
C1445 C 0.00061 0.79909 0.60605 0.0
C1446 C 0.01436 0.77254 0.56932 0.0
C1447 C 0.0032 0.77894 0.54321 0.0
C1448 C 0.98994 0.79465 0.54946 0.0
H1449 H 0.00276 0.70417 0.35786 0.0
H1450 H 0.99502 0.71938 0.41147 0.0
C1451 C 0.98871 0.80468 0.58049 0.0
C1452 C 0.00594 0.76936 0.50963 0.0
H1453 H 0.01563 0.78218 0.42966 0.0
C1454 C 0.0065 0.74673 0.5063 0.0
C1455 C 0.00952 0.78224 0.48153 0.0
C1456 C 0.01035 0.80659 0.48342 0.0
C1457 C 0.01062 0.7367 0.47609 0.0
C1458 C 0.01379 0.74958 0.44783 0.0
C1459 C 0.0131 0.77221 0.45109 0.0
C1460 C 0.01844 0.74005 0.41495 0.0
C1461 C 0.01223 0.7124 0.47523 0.0
C1462 C 0.03391 0.7469 0.39814 0.0
C1463 C 0.03819 0.73846 0.3671 0.0
C1464 C 0.02724 0.72279 0.352 0.0
C1465 C 0.01173 0.71595 0.36882 0.0
C1466 C 0.00731 0.72458 0.39973 0.0
H1467 H 0.01479 0.70563 0.5001 0.0
H1468 H -0.00054 0.70537 0.46606 0.0
H1469 H 0.02323 0.7072 0.45866 0.0
H1470 H 0.04276 0.75883 0.40906 0.0
H1471 H 0.05012 0.74423 0.35495 0.0
H1472 H 0.26008 0.5938 0.61525 0.0
H1473 H 0.25313 0.57813 0.66913 0.0
H1474 H 0.28664 0.52331 0.64681 0.0
H1475 H 0.29372 0.5391 0.59317 0.0
H1476 H 0.2364 0.5415 0.68551 0.0
H1477 H 0.30534 0.53821 0.73635 0.0
H1478 H 0.30002 0.55292 0.69931 0.0
H1479 H 0.30325 0.52411 0.698 0.0
C1480 C 0.26616 0.57854 0.62201 0.0
C1481 C 0.2778 0.56794 0.60013 0.0
C1482 C 0.26212 0.56953 0.65284 0.0
C1483 C 0.26957 0.54964 0.6626 0.0
C1484 C 0.28109 0.53895 0.64057 0.0
H1485 H 0.23021 0.46448 0.81962 0.0
H1486 H 0.23453 0.4837 0.76734 0.0
C1487 C 0.2852 0.54803 0.60983 0.0
C1488 C 0.26479 0.53981 0.69522 0.0
H1489 H 0.28284 0.51901 0.76594 0.0
C1490 C 0.24659 0.53669 0.70314 0.0
C1491 C 0.27797 0.53367 0.71862 0.0
C1492 C 0.29772 0.53758 0.71284 0.0
C1493 C 0.24125 0.5274 0.7333 0.0
C1494 C 0.25445 0.52061 0.75622 0.0
C1495 C 0.27264 0.52402 0.74848 0.0
C1496 C 0.24984 0.51009 0.78844 0.0
C1497 C 0.22147 0.52536 0.74052 0.0
C1498 C 0.25683 0.5184 0.81804 0.0
C1499 C 0.25436 0.50738 0.84785 0.0
C1500 C 0.24475 0.48783 0.84896 0.0
C1501 C 0.23716 0.47987 0.81968 0.0
C1502 C 0.23971 0.49085 0.78973 0.0
H1503 H 0.21342 0.53688 0.72561 0.0
H1504 H 0.21694 0.50877 0.73425 0.0
H1505 H 0.21865 0.52828 0.76694 0.0
H1506 H 0.26474 0.53311 0.81792 0.0
H1507 H 0.26076 0.51359 0.86988 0.0
H1508 H 0.76386 0.57093 0.80685 0.0
H1509 H 0.75982 0.5516 0.75443 0.0
H1510 H 0.72761 0.5036 0.80371 0.0
H1511 H 0.7313 0.5232 0.85571 0.0
H1512 H 0.76657 0.51129 0.73019 0.0
H1513 H 0.69313 0.52435 0.73394 0.0
H1514 H 0.70832 0.53743 0.76224 0.0
H1515 H 0.70131 0.50996 0.7692 0.0
C1516 C 0.75636 0.55592 0.80656 0.0
C1517 C 0.7481 0.5484 0.83542 0.0
C1518 C 0.7539 0.54496 0.77654 0.0
C1519 C 0.74302 0.52635 0.77474 0.0
C1520 C 0.73568 0.51817 0.80407 0.0
H1521 H 0.73538 0.43897 0.60445 0.0
H1522 H 0.74206 0.45569 0.65777 0.0
C1523 C 0.73802 0.52919 0.83394 0.0
C1524 C 0.73875 0.51601 0.74222 0.0
H1525 H 0.70384 0.50084 0.69224 0.0
C1526 C 0.75285 0.50903 0.72192 0.0
C1527 C 0.72086 0.5134 0.73082 0.0
C1528 C 0.70504 0.52187 0.75 0.0
C1529 C 0.74957 0.49922 0.69112 0.0
C1530 C 0.73165 0.49576 0.68038 0.0
C1531 C 0.71758 0.50312 0.70043 0.0
C1532 C 0.72716 0.48506 0.6482 0.0
C1533 C 0.76543 0.4932 0.67003 0.0
C1534 C 0.71593 0.49543 0.62523 0.0
C1535 C 0.71183 0.48567 0.59492 0.0
C1536 C 0.71877 0.46524 0.58681 0.0
C1537 C 0.72981 0.45473 0.6099 0.0
C1538 C 0.73379 0.4644 0.64034 0.0
H1539 H 0.77759 0.50264 0.67684 0.0
H1540 H 0.76856 0.47584 0.67368 0.0
H1541 H 0.76254 0.49591 0.64356 0.0
H1542 H 0.71055 0.51132 0.63048 0.0
H1543 H 0.70361 0.49439 0.57743 0.0
H1544 H 0.97787 0.76205 0.11885 0.0
H1545 H 0.97391 0.78123 0.0666 0.0
H1546 H 0.00687 0.73377 0.01802 0.0
H1547 H 0.01133 0.715 0.07079 0.0
H1548 H 0.01335 0.77296 0.99306 0.0
H1549 H 0.93979 0.76119 0.9969 0.0
H1550 H 0.94787 0.77594 0.03189 0.0
H1551 H 0.95472 0.74832 0.02581 0.0
C1552 C 0.9846 0.75603 0.09712 0.0
C1553 C 0.99504 0.73717 0.09891 0.0
C1554 C 0.98211 0.76681 0.06711 0.0
C1555 C 0.98962 0.75868 0.03792 0.0
C1556 C 0.00078 0.74035 0.04 0.0
H1557 H 0.95004 0.79163 0.84107 0.0
H1558 H 0.9566 0.77463 0.89417 0.0
C1559 C 0.00345 0.72969 0.07019 0.0
C1560 C 0.98546 0.76894 1.00531 0.0
H1561 H 0.95076 0.78493 0.95554 0.0
C1562 C -0.00035 0.77552 0.98487 0.0
C1563 C 0.9676 0.77193 0.99397 0.0
C1564 C 0.95163 0.76376 1.01311 0.0
C1565 C 0.99652 0.7853 0.95402 0.0
C1566 C 0.97865 0.78926 0.94344 0.0
C1567 C 0.96447 0.7823 0.96362 0.0
C1568 C 0.97431 0.80007 0.9113 0.0
C1569 C 0.01247 0.79072 0.93274 0.0
C1570 C 0.98164 0.82036 0.90314 0.0
C1571 C 0.97792 0.83005 0.87264 0.0
C1572 C 0.96645 0.81996 0.84978 0.0
C1573 C 0.9587 0.8 0.8583 0.0
C1574 C 0.96255 0.7902 0.88865 0.0
H1575 H 0.02434 0.78075 0.93933 0.0
H1576 H 0.0094 0.78819 0.90629 0.0
H1577 H 0.01616 0.80792 0.93647 0.0
H1578 H 0.99028 0.82875 0.92036 0.0
H1579 H 0.98408 0.84547 0.86693 0.0
H1580 H 0.97623 0.31731 0.08572 0.0
H1581 H 0.97767 0.29743 0.03335 0.0
H1582 H 0.02264 0.2608 0.07 0.0
H1583 H 0.02107 0.28024 0.12216 0.0
H1584 H 0.00624 0.29752 0.99046 0.0
H1585 H 0.9922 0.21348 0.02895 0.0
H1586 H 0.98717 0.23646 0.05469 0.0
H1587 H 0.00961 0.22578 0.05314 0.0
C1588 C 0.98611 0.30462 0.08285 0.0
C1589 C -0.00146 0.30039 0.10812 0.0
C1590 C 0.98701 0.29336 0.05283 0.0
C1591 C 0.00017 0.27741 0.04768 0.0
C1592 C 0.01215 0.27268 0.07339 0.0
H1593 H 0.05242 0.23777 0.86886 0.0
H1594 H 0.04332 0.25264 0.92178 0.0
C1595 C 0.01132 0.28396 0.10319 0.0
C1596 C 0.00249 0.26695 1.01478 0.0
H1597 H 0.0069 0.21784 0.97676 0.0
C1598 C 0.00615 0.2801 0.98743 0.0
C1599 C 0.00223 0.2442 1.01052 0.0
C1600 C -0.00259 0.22916 0.03832 0.0
C1601 C 0.01027 0.27119 0.95649 0.0
C1602 C 0.01103 0.24843 0.9527 0.0
C1603 C 0.0066 0.23526 0.97965 0.0
C1604 C 0.01688 0.23814 0.92121 0.0
C1605 C 0.01381 0.28629 0.92809 0.0
C1606 C 0.00542 0.22416 0.90369 0.0
C1607 C 0.01069 0.21552 0.87322 0.0
C1608 C 0.02755 0.22063 0.85968 0.0
C1609 C 0.03924 0.23384 0.87806 0.0
C1610 C 0.034 0.24243 0.90841 0.0
H1611 H 0.00773 0.30244 0.93228 0.0
H1612 H 0.02851 0.28854 0.92531 0.0
H1613 H 0.00843 0.27959 0.90472 0.0
H1614 H 0.9922 0.2204 0.91316 0.0
H1615 H 0.00133 0.20536 0.85985 0.0
H1616 H 0.72652 0.9665 0.8401 0.0
H1617 H 0.72931 0.98312 0.78533 0.0
H1618 H 0.77185 0.02406 0.82151 0.0
H1619 H 0.76929 1.00738 0.8758 0.0
H1620 H 0.72732 0.0248 0.75956 0.0
H1621 H 0.79638 0.99309 0.74612 0.0
H1622 H 0.78161 0.98439 0.77863 0.0
H1623 H 0.79366 1.00953 0.7821 0.0
C1624 C 0.73623 0.97933 0.83649 0.0
C1625 C 0.7478 0.98544 0.86229 0.0
C1626 C 0.73789 0.98875 0.8051 0.0
C1627 C 0.75114 1.00449 0.79888 0.0
C1628 C 0.76188 1.01154 0.82524 0.0
H1629 H 0.76407 0.08749 0.62505 0.0
H1630 H 0.75599 0.07256 0.67888 0.0
C1631 C 0.76032 1.00207 0.8564 0.0
C1632 C 0.75432 1.01296 0.76481 0.0
H1633 H 0.78681 0.01846 0.70599 0.0
C1634 C 0.74031 0.02334 0.74781 0.0
C1635 C 0.77118 1.01081 0.74901 0.0
C1636 C 0.78652 0.99866 0.76472 0.0
C1637 C 0.74282 0.032 0.71598 0.0
C1638 C 0.7599 0.0306 0.70076 0.0
C1639 C 0.77376 0.01982 0.71756 0.0
C1640 C 0.76373 0.03972 0.66727 0.0
C1641 C 0.72702 0.04219 0.69873 0.0
C1642 C 0.77101 0.02646 0.64261 0.0
C1643 C 0.77576 0.035 0.61189 0.0
C1644 C 0.77347 0.05712 0.6049 0.0
C1645 C 0.76587 0.07036 0.62936 0.0
C1646 C 0.76116 0.06179 0.66021 0.0
H1647 H 0.71407 0.03648 0.70911 0.0
H1648 H 0.72765 0.05998 0.70195 0.0
H1649 H 0.72718 0.03859 0.67198 0.0
H1650 H 0.7732 1.00942 0.64724 0.0
H1651 H 0.78149 0.02425 0.59373 0.0
H1652 H 0.22475 0.01934 0.88349 0.0
H1653 H 0.22102 1.00239 0.8296 0.0
H1654 H 0.25572 0.05053 0.78671 0.0
H1655 H 0.25986 0.0672 0.84107 0.0
H1656 H 0.20562 1.01787 0.77701 0.0
H1657 H 0.27556 0.99798 0.74313 0.0
H1658 H 0.26945 1.00617 0.78417 0.0
H1659 H 0.27261 0.02608 0.75241 0.0
C1660 C 0.23192 0.02605 0.8627 0.0
C1661 C 0.24274 0.04457 0.86677 0.0
C1662 C 0.22969 1.01639 0.83173 0.0
C1663 C 0.23813 0.02494 0.80367 0.0
C1664 C 0.24933 0.04316 0.8078 0.0
H1665 H 0.19763 0.99867 0.60362 0.0
H1666 H 0.20409 1.01418 0.65775 0.0
C1667 C 0.25173 0.05274 0.839 0.0
C1668 C 0.23421 1.01548 0.77022 0.0
H1669 H 0.25367 0.99489 0.70063 0.0
C1670 C 0.21619 1.01279 0.76044 0.0
C1671 C 0.24784 1.00852 0.74835 0.0
C1672 C 0.26744 1.00961 0.75762 0.0
C1673 C 0.21146 1.0036 0.72982 0.0
C1674 C 0.2251 0.9973 0.7075 0.0
C1675 C 0.24312 0.99981 0.71735 0.0
C1676 C 0.22099 0.98781 0.67416 0.0
C1677 C 0.19181 1.00022 0.72222 0.0
C1678 C 0.22865 0.96803 0.66435 0.0
C1679 C 0.22506 0.95923 0.6331 0.0
C1680 C 0.21361 0.96989 0.6108 0.0
C1681 C 0.20606 0.98971 0.62049 0.0
C1682 C 0.20977 0.99861 0.65159 0.0
H1683 H 0.18367 0.99936 0.74504 0.0
H1684 H 0.18681 1.01407 0.70753 0.0
H1685 H 0.18959 0.98516 0.70792 0.0
H1686 H 0.23741 0.95931 0.68097 0.0
H1687 H 0.23126 0.94404 0.62641 0.0
H1688 H 0.53158 0.22976 0.10397 0.0
H1689 H 0.5317 0.24973 0.05161 0.0
H1690 H 0.47721 0.26999 0.0692 0.0
H1691 H 0.47745 0.25144 0.12179 0.0
H1692 H 0.51336 0.24332 0.99847 0.0
H1693 H 0.49604 0.32558 0.03811 0.0
H1694 H 0.50239 0.30495 0.06719 0.0
H1695 H 0.47943 0.30722 0.0533 0.0
C1696 C 0.51987 0.23908 0.09712 0.0
C1697 C 0.50449 0.23885 0.11718 0.0
C1698 C 0.51985 0.25033 0.06694 0.0
C1699 C 0.50452 0.26173 0.05623 0.0
C1700 C 0.48942 0.26197 0.07686 0.0
H1701 H 0.4682 0.2804 0.85645 0.0
H1702 H 0.47785 0.26693 0.90982 0.0
C1703 C 0.4895 0.25102 0.10696 0.0
C1704 C 0.50356 0.27192 0.02267 0.0
H1705 H 0.48805 0.31657 0.98182 0.0
C1706 C 0.5081 0.2595 0.99495 0.0
C1707 C 0.49711 0.29324 1.01753 0.0
C1708 C 0.49368 0.30855 0.0457 0.0
C1709 C 0.50553 0.26726 0.96264 0.0
C1710 C 0.4975 0.2878 0.95754 0.0
C1711 C 0.49385 0.30066 0.98527 0.0
C1712 C 0.49218 0.29597 0.92401 0.0
C1713 C 0.5117 0.25332 0.93442 0.0
C1714 C 0.49637 0.31718 0.91394 0.0
C1715 C 0.49023 0.3253 0.88359 0.0
C1716 C 0.47977 0.31237 0.86238 0.0
C1717 C 0.47604 0.29099 0.87212 0.0
C1718 C 0.48186 0.28306 0.90263 0.0
H1719 H 0.52328 0.2431 0.94179 0.0
H1720 H 0.50064 0.24228 0.92706 0.0
H1721 H 0.51569 0.26317 0.91282 0.0
H1722 H 0.50425 0.32764 0.92977 0.0
H1723 H 0.49338 0.34182 0.8771 0.0
H1724 H 0.49205 0.83824 0.06052 0.0
H1725 H 0.49422 0.81907 1.00813 0.0
H1726 H 0.48048 0.75936 0.05665 0.0
H1727 H 0.47807 0.77874 0.10937 0.0
H1728 H 0.51866 0.78755 0.99567 0.0
H1729 H 0.45022 0.75509 0.97321 0.0
H1730 H 0.45463 0.77619 1.00285 0.0
H1731 H 0.45966 0.74854 1.01267 0.0
C1732 C 0.48898 0.82112 0.05989 0.0
C1733 C 0.48475 0.81006 0.08914 0.0
C1734 C 0.49034 0.81011 0.02989 0.0
C1735 C 0.48749 0.78769 0.0281 0.0
C1736 C 0.48245 0.7767 0.05703 0.0
H1737 H 0.50745 0.69686 0.86453 0.0
H1738 H 0.49834 0.71309 0.91707 0.0
C1739 C 0.48101 0.78779 0.08723 0.0
C1740 C 0.49142 0.77591 0.99659 0.0
H1741 H 0.47305 0.74385 0.93647 0.0
C1742 C 0.50862 0.77805 0.98276 0.0
C1743 C 0.47848 0.76325 0.97968 0.0
C1744 C 0.45965 0.7607 0.99262 0.0
C1745 C 0.51322 0.76807 0.9528 0.0
C1746 C 0.50017 0.75584 0.93542 0.0
C1747 C 0.48306 0.75328 0.94952 0.0
C1748 C 0.50409 0.746 0.90244 0.0
C1749 C 0.5322 0.77045 0.94035 0.0
C1750 C 0.50973 0.75903 0.87606 0.0
C1751 C 0.51494 0.7498 0.84605 0.0
C1752 C 0.51455 0.72725 0.8414 0.0
C1753 C 0.50794 0.71427 0.86716 0.0
C1754 C 0.50277 0.72355 0.89732 0.0
H1755 H 0.54168 0.77456 0.96054 0.0
H1756 H 0.53688 0.75539 0.92827 0.0
H1757 H 0.53271 0.78374 0.92204 0.0
H1758 H 0.51042 0.77642 0.87885 0.0
H1759 H 0.51966 0.76036 0.82667 0.0
H1760 H 0.79397 0.53528 0.08124 0.0
H1761 H 0.78734 0.51894 0.13473 0.0
H1762 H 0.75336 0.57305 0.15865 0.0
H1763 H 0.75971 0.58917 0.10487 0.0
H1764 H 0.7932 0.53062 0.1959 0.0
H1765 H 0.71967 0.52464 0.17929 0.0
H1766 H 0.73454 0.53166 0.14603 0.0
H1767 H 0.72763 0.55187 0.17524 0.0
C1768 C 0.78521 0.5438 0.09802 0.0
C1769 C 0.77748 0.56362 0.08877 0.0
C1770 C 0.78132 0.53436 0.12862 0.0
C1771 C 0.7695 0.54443 0.15079 0.0
C1772 C 0.76209 0.56452 0.14184 0.0
H1773 H 0.76629 0.51224 0.35996 0.0
H1774 H 0.76964 0.52972 0.30637 0.0
C1775 C 0.76588 0.57387 0.11112 0.0
C1776 C 0.76528 0.53408 0.18335 0.0
H1777 H 0.73077 0.51793 0.23342 0.0
C1778 C 0.77953 0.52783 0.20397 0.0
C1779 C 0.74745 0.52991 0.19396 0.0
C1780 C 0.73146 0.53465 0.17234 0.0
C1781 C 0.77652 0.51804 0.23479 0.0
C1782 C 0.7587 0.51484 0.24611 0.0
C1783 C 0.74443 0.52063 0.22521 0.0
C1784 C 0.75473 0.50544 0.2794 0.0
C1785 C 0.79258 0.51076 0.25457 0.0
C1786 C 0.74415 0.48667 0.28286 0.0
C1787 C 0.74188 0.47684 0.31385 0.0
C1788 C 0.75015 0.48558 0.34201 0.0
C1789 C 0.75983 0.50502 0.33873 0.0
C1790 C 0.76194 0.51491 0.30796 0.0
H1791 H 0.8045 0.50816 0.23867 0.0
H1792 H 0.7961 0.52345 0.27276 0.0
H1793 H 0.78972 0.49553 0.26803 0.0
H1794 H 0.73826 0.47909 0.26138 0.0
H1795 H 0.73448 0.46179 0.31548 0.0
H1796 H 0.23119 0.58474 0.31831 0.0
H1797 H 0.22775 0.56435 0.26742 0.0
H1798 H 0.25716 0.51126 0.30994 0.0
H1799 H 0.26 0.53142 0.36183 0.0
H1800 H 0.25001 0.54825 0.22335 0.0
H1801 H 0.21279 0.47994 0.27973 0.0
H1802 H 0.21759 0.50454 0.30188 0.0
H1803 H 0.23471 0.48434 0.29689 0.0
C1804 C 0.23693 0.56869 0.317 0.0
C1805 C 0.24562 0.55964 0.34458 0.0
C1806 C 0.235 0.55703 0.28767 0.0
C1807 C 0.24174 0.53593 0.28479 0.0
C1808 C 0.25132 0.52723 0.31165 0.0
H1809 H 0.23507 0.44609 0.11658 0.0
H1810 H 0.24225 0.46333 0.16943 0.0
C1811 C 0.25321 0.53892 0.34123 0.0
C1812 C 0.23847 0.52335 0.25369 0.0
H1813 H 0.21908 0.47721 0.22294 0.0
C1814 C 0.24327 0.5327 0.2234 0.0
C1815 C 0.22961 0.503 0.25337 0.0
C1816 C 0.22321 0.49241 0.28464 0.0
C1817 C 0.23948 0.52246 0.19318 0.0
C1818 C 0.23045 0.5023 0.19288 0.0
C1819 C 0.22597 0.49267 0.22308 0.0
C1820 C 0.22534 0.49122 0.16142 0.0
C1821 C 0.24529 0.53328 0.1617 0.0
C1822 C 0.21311 0.50083 0.13947 0.0
C1823 C 0.20891 0.49094 0.10933 0.0
C1824 C 0.21676 0.47113 0.10036 0.0
C1825 C 0.22872 0.4613 0.12267 0.0
C1826 C 0.23284 0.47115 0.15294 0.0
H1827 H 0.25571 0.54581 0.16618 0.0
H1828 H 0.25064 0.52125 0.14401 0.0
H1829 H 0.23352 0.54125 0.15016 0.0
H1830 H 0.20692 0.51615 0.14551 0.0
H1831 H 0.19985 0.49911 0.09263 0.0
H1832 H 0.43926 0.7968 0.35306 0.0
H1833 H 0.44628 0.78256 0.40764 0.0
H1834 H 0.49287 0.82385 0.41241 0.0
H1835 H 0.48538 0.83878 0.35843 0.0
H1836 H 0.47272 0.76026 0.43121 0.0
H1837 H 0.47255 0.83743 0.49976 0.0
H1838 H 0.46476 0.83551 0.45788 0.0
H1839 H 0.48841 0.83767 0.46671 0.0
C1840 C 0.45086 0.80306 0.36581 0.0
C1841 C 0.4615 0.81923 0.35123 0.0
C1842 C 0.45496 0.79482 0.39718 0.0
C1843 C 0.46998 0.80231 0.41494 0.0
C1844 C 0.48087 0.81817 0.4001 0.0
H1845 H 0.50944 0.72646 0.58656 0.0
H1846 H 0.50703 0.7434 0.53215 0.0
C1847 C 0.47661 0.82663 0.3689 0.0
C1848 C 0.47439 0.79311 0.4484 0.0
H1849 H 0.48387 0.80685 0.52828 0.0
C1850 C 0.47512 0.77051 0.4524 0.0
C1851 C 0.47736 0.80626 0.47652 0.0
C1852 C 0.47555 0.83054 0.47515 0.0
C1853 C 0.47862 0.76082 0.48324 0.0
C1854 C 0.48214 0.77398 0.51115 0.0
C1855 C 0.48146 0.79658 0.5071 0.0
C1856 C 0.48516 0.76479 0.54512 0.0
C1857 C 0.47776 0.7365 0.4857 0.0
C1858 C 0.47462 0.77196 0.57157 0.0
C1859 C 0.47634 0.76273 0.60293 0.0
C1860 C 0.48857 0.74579 0.60905 0.0
C1861 C 0.49984 0.73937 0.58303 0.0
C1862 C 0.49823 0.74883 0.55157 0.0
H1863 H 0.47006 0.72931 0.46497 0.0
H1864 H 0.49157 0.72986 0.4848 0.0
H1865 H 0.47144 0.73132 0.50911 0.0
H1866 H 0.46459 0.78438 0.5678 0.0
H1867 H 0.46768 0.76859 0.62233 0.0
H1868 H 0.52627 0.28247 0.62803 0.0
H1869 H 0.52772 0.2652 0.57429 0.0
H1870 H 0.47685 0.29357 0.54805 0.0
H1871 H 0.47574 0.31187 0.60169 0.0
H1872 H 0.5086 0.23671 0.54159 0.0
H1873 H 0.50667 0.31388 0.47216 0.0
H1874 H 0.50899 0.31303 0.51627 0.0
H1875 H 0.48734 0.30923 0.49743 0.0
C1876 C 0.51535 0.28515 0.61087 0.0
C1877 C 0.50105 0.299 0.61917 0.0
C1878 C 0.51616 0.27509 0.58005 0.0
C1879 C 0.50266 0.27841 0.55642 0.0
C1880 C 0.48776 0.29118 0.56528 0.0
H1881 H 0.50724 0.20023 0.3728 0.0
H1882 H 0.49757 0.21513 0.42579 0.0
C1883 C 0.48699 0.30141 0.59624 0.0
C1884 C 0.50468 0.26883 0.5226 0.0
H1885 H 0.50809 0.28188 0.44094 0.0
C1886 C 0.50836 0.24661 0.51958 0.0
C1887 C 0.50467 0.28166 0.49366 0.0
C1888 C 0.50188 0.3058 0.49491 0.0
C1889 C 0.51231 0.23701 0.48893 0.0
C1890 C 0.51212 0.24979 0.45996 0.0
C1891 C 0.50813 0.27194 0.4629 0.0
C1892 C 0.51723 0.24095 0.42679 0.0
C1893 C 0.51745 0.21343 0.48825 0.0
C1894 C 0.53106 0.25081 0.40868 0.0
C1895 C 0.53639 0.24254 0.37811 0.0
C1896 C 0.52808 0.22409 0.36457 0.0
C1897 C 0.51404 0.21437 0.38243 0.0
C1898 C 0.50858 0.22281 0.41298 0.0
H1899 H 0.52165 0.20756 0.51292 0.0
H1900 H 0.5057 0.20369 0.48033 0.0
H1901 H 0.52859 0.21051 0.47072 0.0
H1902 H 0.53803 0.26478 0.41851 0.0
H1903 H 0.54737 0.25038 0.3655 0.0
H1904 H 0.07105 0.15216 0.88779 0.0
H1905 H 0.08973 0.12599 0.91713 0.0
H1906 H 0.12266 0.17807 0.95418 0.0
H1907 H 0.10362 0.2042 0.92603 0.0
H1908 H 0.12258 0.12235 0.89645 0.0
H1909 H 0.12638 0.13732 0.02987 0.0
H1910 H 0.10845 0.14803 1.00472 0.0
H1911 H 0.12964 0.16202 1.00769 0.0
C1912 C 0.08179 0.15803 0.90344 0.0
C1913 C 0.08606 0.18013 0.90439 0.0
C1914 C 0.09247 0.14308 0.92017 0.0
C1915 C 0.10766 0.14999 0.93787 0.0
C1916 C 0.11085 0.17227 0.94133 0.0
H1917 H 0.21524 0.11559 0.95905 0.0
H1918 H 0.1851 0.13044 0.96544 0.0
C1919 C 0.10001 0.18725 0.92498 0.0
C1920 C 0.12206 0.13435 0.9462 0.0
H1921 H 0.15324 0.12163 1.00481 0.0
C1922 C 0.12894 0.12172 0.92046 0.0
C1923 C 0.13051 0.13367 0.97739 0.0
C1924 C 0.12321 0.14585 1.00652 0.0
C1925 C 0.14465 0.10959 0.92434 0.0
C1926 C 0.15361 0.10977 0.95503 0.0
C1927 C 0.14632 0.12153 0.98132 0.0
C1928 C 0.17155 0.09981 0.95868 0.0
C1929 C 0.15216 0.09783 0.89485 0.0
C1930 C 0.17391 0.0775 0.95426 0.0
C1931 C 0.19114 0.06896 0.95046 0.0
C1932 C 0.20626 0.08259 0.95132 0.0
C1933 C 0.20389 0.10464 0.95847 0.0
C1934 C 0.18666 0.11316 0.96211 0.0
H1935 H 0.14522 0.10238 0.87165 0.0
H1936 H 0.1667 0.10129 0.89206 0.0
H1937 H 0.15052 0.08016 0.89838 0.0
H1938 H 0.16239 0.0669 0.95199 0.0
H1939 H 0.1926 0.05186 0.94547 0.0
H1940 H 0.78834 0.93001 0.8927 0.0
H1941 H 0.81726 0.91345 0.90524 0.0
H1942 H 0.81371 0.93583 1.00543 0.0
H1943 H 0.78437 0.95248 0.99299 0.0
H1944 H 0.84873 0.94456 0.95928 0.0
H1945 H 0.82589 0.85988 0.97508 0.0
H1946 H 0.8145 0.87451 0.943 0.0
H1947 H 0.81199 0.88294 0.98503 0.0
C1948 C 0.79372 0.93148 0.91739 0.0
C1949 C 0.78424 0.94267 0.94181 0.0
C1950 C 0.81014 0.9219 0.92456 0.0
C1951 C 0.81748 0.92338 0.95624 0.0
C1952 C 0.80813 0.93448 0.98089 0.0
H1953 H 0.91116 0.84258 0.92495 0.0
H1954 H 0.89265 0.86318 0.96413 0.0
C1955 C 0.79146 0.94392 0.97378 0.0
C1956 C 0.8353 0.91377 0.96211 0.0
H1957 H 0.85562 0.86496 0.95264 0.0
C1958 C 0.85042 0.92715 0.95923 0.0
C1959 C 0.83745 0.89112 0.96257 0.0
C1960 C 0.82161 0.87622 0.96689 0.0
C1961 C 0.86736 0.91834 0.95249 0.0
C1962 C 0.869 0.89575 0.94821 0.0
C1963 C 0.85435 0.88232 0.95565 0.0
C1964 C 0.88354 0.88643 0.928 0.0
C1965 C 0.88301 0.93337 0.94713 0.0
C1966 C 0.88475 0.8929 0.89501 0.0
C1967 C 0.89489 0.88101 0.87277 0.0
C1968 C 0.9042 0.86258 0.88315 0.0
C1969 C 0.90418 0.85692 0.91659 0.0
C1970 C 0.89365 0.86864 0.93889 0.0
H1971 H 0.88191 0.94787 0.96312 0.0
H1972 H 0.89599 0.92518 0.95216 0.0
H1973 H 0.88296 0.93898 0.92121 0.0
H1974 H 0.87674 0.90621 0.88582 0.0
H1975 H 0.8947 0.88561 0.84705 0.0
H1976 H 0.04395 0.35241 0.13413 0.0
H1977 H 0.07357 0.36629 0.14856 0.0
H1978 H 0.06313 0.35438 0.25117 0.0
H1979 H 0.03344 0.33963 0.2369 0.0
H1980 H 0.07731 0.40193 0.21725 0.0
H1981 H 0.11664 0.32658 0.20165 0.0
H1982 H 0.09803 0.33004 0.1738 0.0
H1983 H 0.09385 0.32682 0.217 0.0
C1984 C 0.04798 0.35239 0.15974 0.0
C1985 C 0.03636 0.34477 0.18432 0.0
C1986 C 0.06486 0.36043 0.16794 0.0
C1987 C 0.07046 0.36116 0.20085 0.0
C1988 C 0.05897 0.35382 0.22565 0.0
H1989 H 0.16501 0.4434 0.17512 0.0
H1990 H 0.14749 0.4211 0.21392 0.0
C1991 C 0.04202 0.34558 0.21742 0.0
C1992 C 0.08824 0.37038 0.20826 0.0
H1993 H 0.1318 0.36001 0.18912 0.0
C1994 C 0.08946 0.39278 0.21267 0.0
C1995 C 0.10393 0.35823 0.2026 0.0
C1996 C 0.10317 0.33402 0.19873 0.0
C1997 C 0.10565 0.40373 0.2069 0.0
C1998 C 0.12083 0.3918 0.19664 0.0
C1999 C 0.12014 0.36912 0.19693 0.0
C2000 C 0.13459 0.40217 0.17578 0.0
C2001 C 0.10575 0.42812 0.20758 0.0
C2002 C 0.13369 0.3982 0.14188 0.0
C2003 C 0.14343 0.41084 0.12006 0.0
C2004 C 0.15442 0.42756 0.13169 0.0
C2005 C 0.15657 0.43052 0.16573 0.0
C2006 C 0.14657 0.4179 0.1878 0.0
H2007 H 0.09282 0.43488 0.21639 0.0
H2008 H 0.11663 0.43394 0.22403 0.0
H2009 H 0.1084 0.43451 0.18253 0.0
H2010 H 0.1245 0.38621 0.13206 0.0
H2011 H 0.14168 0.40816 0.0939 0.0
H2012 H 0.95829 0.70221 0.22393 0.0
H2013 H 0.92915 0.6853 0.23626 0.0
H2014 H 0.92732 0.65887 0.13819 0.0
H2015 H 0.95622 0.67575 0.12569 0.0
H2016 H 0.89528 0.69211 0.19381 0.0
H2017 H 0.91763 0.60717 0.20634 0.0
H2018 H 0.93226 0.63 0.21411 0.0
H2019 H 0.92794 0.62129 0.17265 0.0
C2020 C 0.95169 0.69261 0.20518 0.0
C2021 C 0.95943 0.69025 0.17384 0.0
C2022 C 0.9351 0.68305 0.21223 0.0
C2023 C 0.92628 0.67071 0.18823 0.0
C2024 C 0.93409 0.66818 0.15711 0.0
H2025 H 0.84474 0.63393 0.08661 0.0
H2026 H 0.86318 0.65515 0.12399 0.0
C2027 C 0.95049 0.67792 0.14992 0.0
C2028 C 0.90846 0.66115 0.1943 0.0
H2029 H 0.8873 0.61265 0.18674 0.0
C2030 C 0.89341 0.67472 0.19347 0.0
C2031 C 0.90608 0.63852 0.19467 0.0
C2032 C 0.92184 0.62336 0.19733 0.0
C2033 C 0.87614 0.66615 0.18877 0.0
C2034 C 0.87408 0.64361 0.18445 0.0
C2035 C 0.88886 0.62997 0.18974 0.0
C2036 C 0.85863 0.63449 0.1662 0.0
C2037 C 0.86047 0.6814 0.18584 0.0
C2038 C 0.84943 0.61612 0.17768 0.0
C2039 C 0.83864 0.60402 0.15617 0.0
C2040 C 0.83741 0.60997 0.12294 0.0
C2041 C 0.84549 0.62915 0.11222 0.0
C2042 C 0.8559 0.64139 0.1337 0.0
H2043 H 0.8623 0.69556 0.20233 0.0
H2044 H 0.85967 0.68756 0.16025 0.0
H2045 H 0.84761 0.67325 0.19194 0.0
H2046 H 0.85158 0.61036 0.20254 0.0
H2047 H 0.83265 0.58909 0.16474 0.0
H2048 H 0.20561 0.61751 0.37978 0.0
H2049 H 0.17698 0.63361 0.39565 0.0
H2050 H 0.18137 0.6047 0.49184 0.0
H2051 H 0.21014 0.58837 0.476 0.0
H2052 H 0.14695 0.59886 0.45803 0.0
H2053 H 0.16875 0.68418 0.46214 0.0
H2054 H 0.17688 0.67061 0.42613 0.0
H2055 H 0.18423 0.66185 0.46618 0.0
C2056 C 0.20048 0.61458 0.40429 0.0
C2057 C 0.21007 0.60175 0.42667 0.0
C2058 C 0.18424 0.62392 0.41343 0.0
C2059 C 0.17727 0.62059 0.44507 0.0
C2060 C 0.18668 0.60763 0.46746 0.0
H2061 H 0.08464 0.70197 0.4286 0.0
H2062 H 0.10446 0.68194 0.46601 0.0
C2063 C 0.20307 0.5984 0.45841 0.0
C2064 C 0.15969 0.63001 0.45346 0.0
H2065 H 0.13767 0.67783 0.44635 0.0
C2066 C 0.14486 0.61618 0.45659 0.0
C2067 C 0.15704 0.65258 0.45279 0.0
C2068 C 0.17261 0.66818 0.452 0.0
C2069 C 0.12731 0.62429 0.45463 0.0
C2070 C 0.12473 0.64661 0.44877 0.0
C2071 C 0.13955 0.66064 0.45031 0.0
C2072 C 0.10821 0.65493 0.43287 0.0
C2073 C 0.11179 0.6087 0.45655 0.0
C2074 C 0.103 0.6459 0.40262 0.0
C2075 C 0.09185 0.65732 0.38135 0.0
C2076 C 0.08574 0.67796 0.3899 0.0
C2077 C 0.08923 0.68603 0.42154 0.0
C2078 C 0.10053 0.6746 0.44289 0.0
H2079 H 0.11455 0.59594 0.47511 0.0
H2080 H 0.09907 0.617 0.46301 0.0
H2081 H 0.11009 0.60054 0.43243 0.0
H2082 H 0.109 0.63106 0.39384 0.0
H2083 H 0.08926 0.65076 0.35708 0.0
H2084 H 0.9262 0.38 0.38943 0.0
H2085 H 0.91009 0.40795 0.42069 0.0
H2086 H 0.86482 0.36486 0.43053 0.0
H2087 H 0.8806 0.33741 0.39903 0.0
H2088 H 0.87848 0.42236 0.39151 0.0
H2089 H 0.86405 0.39698 0.51844 0.0
H2090 H 0.88311 0.38692 0.49561 0.0
H2091 H 0.86128 0.37474 0.4906 0.0
C2092 C 0.91309 0.37632 0.39948 0.0
C2093 C 0.90448 0.35677 0.39176 0.0
C2094 C 0.90394 0.39222 0.41732 0.0
C2095 C 0.88635 0.38839 0.42828 0.0
C2096 C 0.87852 0.36803 0.42303 0.0
H2097 H 0.7825 0.41678 0.43272 0.0
H2098 H 0.81341 0.40628 0.44452 0.0
C2099 C 0.88746 0.35242 0.40473 0.0
C2100 C 0.87446 0.40641 0.4379 0.0
H2101 H 0.83957 0.41615 0.48978 0.0
C2102 C 0.87035 0.4217 0.41358 0.0
C2103 C 0.86399 0.40549 0.46675 0.0
C2104 C 0.86848 0.39026 0.49447 0.0
C2105 C 0.85459 0.434 0.4152 0.0
C2106 C 0.84301 0.43134 0.4425 0.0
C2107 C 0.84833 0.41799 0.4687 0.0
C2108 C 0.82413 0.43878 0.44122 0.0
C2109 C 0.8496 0.44787 0.38601 0.0
C2110 C 0.81978 0.46063 0.43658 0.0
C2111 C 0.80212 0.46659 0.4292 0.0
C2112 C 0.78855 0.45084 0.42715 0.0
C2113 C 0.79271 0.42923 0.43422 0.0
C2114 C 0.81036 0.42325 0.44106 0.0
H2115 H 0.85887 0.44558 0.36494 0.0
H2116 H 0.83576 0.44411 0.37757 0.0
H2117 H 0.85009 0.46515 0.3932 0.0
H2118 H 0.83012 0.47294 0.43737 0.0
H2119 H 0.79914 0.48343 0.42436 0.0
H2120 H 0.03226 0.86912 0.69662 0.0
H2121 H 0.06318 0.87991 0.70824 0.0
H2122 H 0.08002 0.81334 0.70191 0.0
H2123 H 0.04908 0.80256 0.68908 0.0
H2124 H 0.08978 0.8703 0.75334 0.0
H2125 H 0.10811 0.84054 0.62821 0.0
H2126 H 0.08509 0.84201 0.64139 0.0
H2127 H 0.09951 0.82107 0.65687 0.0
C2128 C 0.04251 0.85676 0.6983 0.0
C2129 C 0.03841 0.83509 0.69144 0.0
C2130 C 0.06016 0.8629 0.70503 0.0
C2131 C 0.07397 0.84747 0.70531 0.0
C2132 C 0.06965 0.82556 0.70103 0.0
H2133 H 0.17454 0.9071 0.64766 0.0
H2134 H 0.15947 0.87902 0.68047 0.0
C2135 C 0.05202 0.81944 0.69376 0.0
C2136 C 0.09284 0.85502 0.70605 0.0
H2137 H 0.12785 0.86402 0.65399 0.0
C2138 C 0.09837 0.86845 0.73202 0.0
C2139 C 0.10421 0.85232 0.67847 0.0
C2140 C 0.09899 0.83832 0.64952 0.0
C2141 C 0.11401 0.88099 0.72957 0.0
C2142 C 0.12422 0.88011 0.70039 0.0
C2143 C 0.11993 0.8647 0.67632 0.0
C2144 C 0.13584 0.8983 0.69015 0.0
C2145 C 0.11876 0.89625 0.75715 0.0
C2146 C 0.12778 0.91857 0.68561 0.0
C2147 C 0.13613 0.93425 0.66647 0.0
C2148 C 0.15278 0.93006 0.65192 0.0
C2149 C 0.16172 0.91065 0.65894 0.0
C2150 C 0.15316 0.89467 0.67767 0.0
H2151 H 0.11486 0.8893 0.78129 0.0
H2152 H 0.13334 0.89999 0.75748 0.0
H2153 H 0.11123 0.91157 0.7539 0.0
H2154 H 0.11427 0.92159 0.69424 0.0
H2155 H 0.12904 0.94916 0.66133 0.0
H2156 H 0.86307 0.07922 0.6321 0.0
H2157 H 0.88017 0.10478 0.66468 0.0
H2158 H 0.8363 0.15023 0.65997 0.0
H2159 H 0.81921 0.12457 0.62595 0.0
H2160 H 0.86469 0.16839 0.63862 0.0
H2161 H 0.88542 0.12969 0.75328 0.0
H2162 H 0.88952 0.11041 0.72143 0.0
H2163 H 0.86684 0.11933 0.72934 0.0
C2164 C 0.85684 0.09442 0.63875 0.0
C2165 C 0.83996 0.10009 0.6262 0.0
C2166 C 0.86654 0.10896 0.65791 0.0
C2167 C 0.85948 0.1294 0.66536 0.0
C2168 C 0.84198 0.13449 0.6548 0.0
H2169 H 0.95513 0.20476 0.72279 0.0
H2170 H 0.92429 0.1914 0.73007 0.0
C2171 C 0.83225 0.11988 0.63535 0.0
C2172 C 0.87185 0.14638 0.67772 0.0
H2173 H 0.90985 0.15064 0.72424 0.0
C2174 C 0.87415 0.16491 0.65823 0.0
C2175 C 0.88399 0.14246 0.70389 0.0
C2176 C 0.88111 0.12448 0.72833 0.0
C2177 C 0.88956 0.17775 0.66122 0.0
C2178 C 0.90314 0.17154 0.68361 0.0
C2179 C 0.8997 0.15493 0.70622 0.0
C2180 C 0.92172 0.17966 0.68015 0.0
C2181 C 0.89166 0.19701 0.6388 0.0
C2182 C 0.93063 0.17676 0.65012 0.0
C2183 C 0.9481 0.18422 0.64596 0.0
C2184 C 0.95713 0.19455 0.6719 0.0
C2185 C 0.94847 0.19677 0.70243 0.0
C2186 C 0.93086 0.18932 0.70655 0.0
H2187 H 0.87842 0.2044 0.63322 0.0
H2188 H 0.90054 0.2095 0.64985 0.0
H2189 H 0.89759 0.19167 0.61515 0.0
H2190 H 0.92404 0.16865 0.62978 0.0
H2191 H 0.95457 0.18193 0.62239 0.0
H2192 H 0.69908 0.04922 0.42428 0.0
H2193 H 0.66811 0.06225 0.42862 0.0
H2194 H 0.68776 0.12672 0.44751 0.0
H2195 H 0.71868 0.11361 0.44427 0.0
H2196 H 0.65653 0.11738 0.48233 0.0
H2197 H 0.64978 0.09561 0.34982 0.0
H2198 H 0.65474 0.0737 0.37727 0.0
H2199 H 0.67103 0.09475 0.37096 0.0
C2200 C 0.69672 0.06608 0.42999 0.0
C2201 C 0.71117 0.08052 0.43352 0.0
C2202 C 0.67907 0.07349 0.4324 0.0
C2203 C 0.67567 0.09552 0.43762 0.0
C2204 C 0.6901 0.10965 0.44341 0.0
H2205 H 0.61186 0.19861 0.39446 0.0
H2206 H 0.62978 0.17205 0.42411 0.0
C2207 C 0.70774 0.10219 0.4415 0.0
C2208 C 0.65743 0.10451 0.43312 0.0
H2209 H 0.62662 0.11538 0.37328 0.0
C2210 C 0.64979 0.11663 0.45868 0.0
C2211 C 0.64862 0.10342 0.40226 0.0
C2212 C 0.65646 0.09133 0.37338 0.0
C2213 C 0.63405 0.12865 0.45364 0.0
C2214 C 0.62593 0.12863 0.4222 0.0
C2215 C 0.63284 0.11527 0.39744 0.0
C2216 C 0.61248 0.14496 0.41228 0.0
C2217 C 0.62663 0.14186 0.48162 0.0
C2218 C 0.59656 0.13867 0.39634 0.0
C2219 C 0.58632 0.15389 0.37917 0.0
C2220 C 0.59205 0.17548 0.37743 0.0
C2221 C 0.6072 0.18203 0.39541 0.0
C2222 C 0.61735 0.16688 0.41268 0.0
H2223 H 0.62978 0.13426 0.5057 0.0
H2224 H 0.63293 0.15812 0.48135 0.0
H2225 H 0.61186 0.14384 0.47943 0.0
H2226 H 0.59269 0.12179 0.39547 0.0
H2227 H 0.57468 0.14848 0.36544 0.0
H2228 H 0.28439 0.92446 0.3852 0.0
H2229 H 0.31324 0.9081 0.39937 0.0
H2230 H 0.30943 0.93378 0.4977 0.0
H2231 H 0.28044 0.95033 0.48361 0.0
H2232 H 0.34384 0.94076 0.46247 0.0
H2233 H 0.32152 0.85552 0.46349 0.0
H2234 H 0.31288 0.87015 0.42877 0.0
H2235 H 0.30631 0.87791 0.46965 0.0
C2236 C 0.28971 0.92665 0.4098 0.0
C2237 C 0.28021 0.93859 0.43333 0.0
C2238 C 0.30608 0.91717 0.41795 0.0
C2239 C 0.31325 0.91951 0.4497 0.0
C2240 C 0.30396 0.93164 0.47321 0.0
H2241 H 0.40524 0.83791 0.4264 0.0
H2242 H 0.38616 0.85745 0.46552 0.0
C2243 C 0.28745 0.94099 0.46514 0.0
C2244 C 0.33085 0.90981 0.45717 0.0
H2245 H 0.35244 0.86193 0.44737 0.0
C2246 C 0.3458 0.92345 0.46031 0.0
C2247 C 0.33333 0.88723 0.45552 0.0
C2248 C 0.31763 0.87182 0.45454 0.0
C2249 C 0.36326 0.91522 0.45735 0.0
C2250 C 0.3656 0.89299 0.45052 0.0
C2251 C 0.35072 0.87905 0.45211 0.0
C2252 C 0.38175 0.88485 0.4334 0.0
C2253 C 0.37892 0.93063 0.45915 0.0
C2254 C 0.3863 0.89424 0.40309 0.0
C2255 C 0.39698 0.88308 0.38082 0.0
C2256 C 0.4033 0.86237 0.38845 0.0
C2257 C 0.40047 0.85391 0.42005 0.0
C2258 C 0.38961 0.86506 0.44239 0.0
H2259 H 0.37651 0.94318 0.47817 0.0
H2260 H 0.39165 0.92211 0.46489 0.0
H2261 H 0.38036 0.93905 0.4352 0.0
H2262 H 0.38013 0.90919 0.39513 0.0
H2263 H 0.39907 0.88994 0.3566 0.0
H2264 H 0.54093 0.35763 0.6451 0.0
H2265 H 0.57019 0.37403 0.6556 0.0
H2266 H 0.56831 0.35236 0.75631 0.0
H2267 H 0.53877 0.33563 0.74587 0.0
H2268 H 0.57921 0.40584 0.7158 0.0
H2269 H 0.617 0.32862 0.70494 0.0
H2270 H 0.59578 0.331 0.68379 0.0
H2271 H 0.59631 0.33057 0.72787 0.0
C2272 C 0.54673 0.35629 0.66948 0.0
C2273 C 0.5377 0.34518 0.69458 0.0
C2274 C 0.56336 0.36578 0.6755 0.0
C2275 C 0.57132 0.36432 0.70667 0.0
C2276 C 0.56228 0.35361 0.73212 0.0
H2277 H 0.66775 0.44104 0.66446 0.0
H2278 H 0.65006 0.42151 0.70629 0.0
C2279 C 0.54548 0.34416 0.72613 0.0
C2280 C 0.58943 0.37353 0.71107 0.0
H2281 H 0.6323 0.36082 0.68985 0.0
C2282 C 0.59109 0.39609 0.7117 0.0
C2283 C 0.60477 0.36064 0.70592 0.0
C2284 C 0.60354 0.33632 0.70569 0.0
C2285 C 0.60728 0.40616 0.70307 0.0
C2286 C 0.62202 0.39321 0.69356 0.0
C2287 C 0.62097 0.37068 0.69719 0.0
C2288 C 0.63565 0.40196 0.6708 0.0
C2289 C 0.60783 0.43046 0.70009 0.0
C2290 C 0.63385 0.39678 0.6374 0.0
C2291 C 0.64365 0.40793 0.61383 0.0
C2292 C 0.65563 0.42428 0.62322 0.0
C2293 C 0.65858 0.4284 0.65679 0.0
C2294 C 0.64849 0.41734 0.68058 0.0
H2295 H 0.59529 0.43815 0.70902 0.0
H2296 H 0.61927 0.43696 0.71456 0.0
H2297 H 0.60988 0.43512 0.67399 0.0
H2298 H 0.62396 0.38503 0.62933 0.0
H2299 H 0.64125 0.4044 0.58808 0.0
H2300 H 0.36504 0.58912 0.64683 0.0
H2301 H 0.37974 0.6169 0.67977 0.0
H2302 H 0.33314 0.65774 0.67012 0.0
H2303 H 0.31811 0.62946 0.63742 0.0
H2304 H 0.36553 0.67467 0.64425 0.0
H2305 H 0.37656 0.64574 0.77093 0.0
H2306 H 0.38076 0.62487 0.7413 0.0
H2307 H 0.35849 0.63584 0.74518 0.0
C2308 C 0.35769 0.60372 0.65271 0.0
C2309 C 0.34054 0.60729 0.63961 0.0
C2310 C 0.36603 0.61951 0.67179 0.0
C2311 C 0.35745 0.63929 0.67776 0.0
C2312 C 0.33985 0.64244 0.6662 0.0
H2313 H 0.43916 0.74138 0.69302 0.0
H2314 H 0.40852 0.72773 0.70117 0.0
C2315 C 0.33131 0.62635 0.64757 0.0
C2316 C 0.36844 0.65755 0.68995 0.0
H2317 H 0.40044 0.66829 0.74775 0.0
C2318 C 0.37276 0.67388 0.66741 0.0
C2319 C 0.37777 0.65642 0.72016 0.0
C2320 C 0.37302 0.63987 0.74592 0.0
C2321 C 0.38765 0.68741 0.67242 0.0
C2322 C 0.39811 0.68488 0.70133 0.0
C2323 C 0.39252 0.67012 0.72551 0.0
C2324 C 0.41645 0.69412 0.70378 0.0
C2325 C 0.39306 0.70264 0.64514 0.0
C2326 C 0.43112 0.67994 0.70483 0.0
C2327 C 0.44855 0.68769 0.70078 0.0
C2328 C 0.45165 0.7098 0.69542 0.0
C2329 C 0.43709 0.72422 0.6967 0.0
C2330 C 0.41961 0.71644 0.70122 0.0
H2331 H 0.38496 0.70021 0.62246 0.0
H2332 H 0.39113 0.71957 0.65336 0.0
H2333 H 0.40743 0.70045 0.63884 0.0
H2334 H 0.42903 0.66265 0.70675 0.0
H2335 H 0.45947 0.67617 0.69964 0.0
H2336 H 0.57751 0.64958 0.83328 0.0
H2337 H 0.60073 0.62896 0.86163 0.0
H2338 H 0.60797 0.68132 0.93062 0.0
H2339 H 0.58539 0.7024 0.90108 0.0
H2340 H 0.63734 0.67449 0.90009 0.0
H2341 H 0.61331 0.59476 0.941 0.0
H2342 H 0.60661 0.59905 0.8992 0.0
H2343 H 0.59802 0.61646 0.93108 0.0
C2344 C 0.5835 0.65626 0.85536 0.0
C2345 C 0.57988 0.67759 0.8649 0.0
C2346 C 0.59674 0.64441 0.87174 0.0
C2347 C 0.60616 0.65355 0.89837 0.0
C2348 C 0.60095 0.67394 0.91012 0.0
H2349 H 0.70751 0.58838 0.95402 0.0
H2350 H 0.67795 0.60534 0.96104 0.0
C2351 C 0.58803 0.68596 0.8933 0.0
C2352 C 0.62363 0.64423 0.90871 0.0
H2353 H 0.64497 0.59644 0.9238 0.0
C2354 C 0.63889 0.65753 0.90622 0.0
C2355 C 0.62581 0.62217 0.91697 0.0
C2356 C 0.61 0.6074 0.92256 0.0
C2357 C 0.65621 0.64908 0.90929 0.0
C2358 C 0.65837 0.62667 0.91429 0.0
C2359 C 0.64322 0.61359 0.91936 0.0
C2360 C 0.67613 0.6164 0.91069 0.0
C2361 C 0.67208 0.66408 0.90581 0.0
C2362 C 0.68472 0.61696 0.88006 0.0
C2363 C 0.70149 0.60742 0.87602 0.0
C2364 C 0.70998 0.59706 0.90254 0.0
C2365 C 0.70135 0.5965 0.93328 0.0
C2366 C 0.68446 0.606 0.93727 0.0
H2367 H 0.66844 0.68101 0.91201 0.0
H2368 H 0.68337 0.65895 0.92188 0.0
H2369 H 0.67678 0.66382 0.87994 0.0
H2370 H 0.67838 0.62473 0.85918 0.0
H2371 H 0.70787 0.60823 0.85213 0.0
H2372 H 0.406 0.32995 0.91787 0.0
H2373 H 0.38321 0.351 0.94699 0.0
H2374 H 0.3933 0.4051 0.88262 0.0
H2375 H 0.41694 0.3846 0.85508 0.0
H2376 H 0.37972 0.41836 0.94191 0.0
H2377 H 0.33922 0.35084 0.88935 0.0
H2378 H 0.35518 0.343 0.92016 0.0
H2379 H 0.36285 0.35364 0.88145 0.0
C2380 C 0.4039 0.3467 0.91109 0.0
C2381 C 0.41288 0.35567 0.88408 0.0
C2382 C 0.39084 0.35864 0.92755 0.0
C2383 C 0.3861 0.37924 0.91604 0.0
C2384 C 0.39664 0.38913 0.89168 0.0
H2385 H 0.28723 0.43166 0.86471 0.0
H2386 H 0.31668 0.41537 0.87228 0.0
C2387 C 0.41013 0.37742 0.87593 0.0
C2388 C 0.36836 0.38856 0.92403 0.0
H2389 H 0.32363 0.37985 0.9115 0.0
C2390 C 0.36741 0.40987 0.93581 0.0
C2391 C 0.35233 0.37748 0.91551 0.0
C2392 C 0.35236 0.35507 0.90066 0.0
C2393 C 0.35089 0.4207 0.93796 0.0
C2394 C 0.33502 0.40973 0.92864 0.0
C2395 C 0.33589 0.38811 0.91865 0.0
C2396 C 0.31764 0.42088 0.92483 0.0
C2397 C 0.35061 0.44412 0.94825 0.0
C2398 C 0.30844 0.42936 0.95194 0.0
C2399 C 0.29162 0.43896 0.9476 0.0
C2400 C 0.28374 0.44004 0.91613 0.0
C2401 C 0.29303 0.4314 0.88916 0.0
C2402 C 0.30981 0.42198 0.89348 0.0
H2403 H 0.36432 0.45112 0.94998 0.0
H2404 H 0.34262 0.45384 0.93055 0.0
H2405 H 0.34414 0.44552 0.97271 0.0
H2406 H 0.31416 0.42834 0.9764 0.0
H2407 H 0.28484 0.44565 0.96881 0.0
H2408 H 0.52901 0.83888 0.21238 0.0
H2409 H 0.55916 0.85411 0.22078 0.0
H2410 H 0.55824 0.87968 0.12211 0.0
H2411 H 0.52813 0.86508 0.11385 0.0
H2412 H 0.59122 0.84632 0.18378 0.0
H2413 H 0.57092 0.93211 0.18003 0.0
H2414 H 0.5551 0.91045 0.18705 0.0
H2415 H 0.56188 0.9173 0.14586 0.0
C2416 C 0.53519 0.848 0.19268 0.0
C2417 C 0.52622 0.85089 0.16249 0.0
C2418 C 0.55241 0.85652 0.19744 0.0
C2419 C 0.56076 0.8682 0.1722 0.0
C2420 C 0.55187 0.87097 0.14206 0.0
H2421 H 0.65826 0.89643 0.09118 0.0
H2422 H 0.63544 0.87676 0.122 0.0
C2423 C 0.53474 0.86248 0.13727 0.0
C2424 C 0.57888 0.87745 0.17657 0.0
H2425 H 0.60148 0.92446 0.16441 0.0
C2426 C 0.59357 0.86348 0.18037 0.0
C2427 C 0.58186 0.89986 0.17319 0.0
C2428 C 0.56657 0.91582 0.17168 0.0
C2429 C 0.61125 0.87121 0.17779 0.0
C2430 C 0.61417 0.8933 0.17043 0.0
C2431 C 0.59942 0.90746 0.1697 0.0
C2432 C 0.63167 0.90179 0.15871 0.0
C2433 C 0.62653 0.85551 0.18212 0.0
C2434 C 0.6377 0.92212 0.16953 0.0
C2435 C 0.65022 0.93368 0.15109 0.0
C2436 C 0.65733 0.92476 0.12226 0.0
C2437 C 0.65307 0.90344 0.11364 0.0
C2438 C 0.64009 0.89213 0.13148 0.0
H2439 H 0.62315 0.84315 0.20095 0.0
H2440 H 0.62883 0.84685 0.1586 0.0
H2441 H 0.63913 0.8638 0.18954 0.0
H2442 H 0.6315 0.9299 0.19049 0.0
H2443 H 0.65338 0.95016 0.15806 0.0
H2444 H 0.46708 0.17629 0.12778 0.0
H2445 H 0.43776 0.15892 0.12998 0.0
H2446 H 0.43396 0.17358 0.23346 0.0
H2447 H 0.46321 0.19192 0.2311 0.0
H2448 H 0.42675 0.12454 0.16651 0.0
H2449 H 0.38682 0.19788 0.19666 0.0
H2450 H 0.40982 0.19941 0.18304 0.0
H2451 H 0.40482 0.19106 0.22429 0.0
C2452 C 0.45997 0.17598 0.15098 0.0
C2453 C 0.46733 0.18573 0.17916 0.0
C2454 C 0.44326 0.16594 0.15226 0.0
C2455 C 0.43356 0.16529 0.18175 0.0
C2456 C 0.44108 0.17431 0.21031 0.0
H2457 H 0.34168 0.07952 0.15797 0.0
H2458 H 0.36472 0.09881 0.18948 0.0
C2459 C 0.45787 0.18451 0.20901 0.0
C2460 C 0.41563 0.15494 0.18181 0.0
H2461 H 0.37077 0.16595 0.18552 0.0
C2462 C 0.41448 0.13345 0.17117 0.0
C2463 C 0.39972 0.16674 0.18774 0.0
C2464 C 0.40022 0.1901 0.19836 0.0
C2465 C 0.3979 0.12376 0.1643 0.0
C2466 C 0.38191 0.13567 0.16956 0.0
C2467 C 0.38302 0.15684 0.18184 0.0
C2468 C 0.36429 0.12721 0.15841 0.0
C2469 C 0.39786 0.10143 0.14919 0.0
C2470 C 0.35509 0.13777 0.13282 0.0
C2471 C 0.34142 0.12709 0.11566 0.0
C2472 C 0.3371 0.10568 0.12366 0.0
C2473 C 0.34491 0.09605 0.15143 0.0
C2474 C 0.35816 0.10696 0.16919 0.0
H2475 H 0.41135 0.09668 0.14014 0.0
H2476 H 0.39371 0.08943 0.16797 0.0
H2477 H 0.3883 0.10053 0.12824 0.0
H2478 H 0.35952 0.15347 0.12425 0.0
H2479 H 0.33563 0.13469 0.0941 0.0
loop_
_geom_bond_atom_site_label_1
_geom_bond_atom_site_label_2
_geom_bond_distance
_geom_bond_site_symmetry_2
_ccdc_geom_bond_type
O0 Tb1 2.292 . S
O0 C3 1.255 . S
Tb1 O0 2.292 . S
Tb1 O17 2.326 . S
Tb1 O19 2.500 . S
Tb1 O20 2.473 . S
Tb1 O23 2.324 1_554 S
Eu2 O6 2.292 . S
Eu2 C7 2.852 1_554 S
Eu2 O18 2.324 . S
Eu2 O22 2.326 1_554 S
Eu2 O24 2.500 1_554 S
Eu2 O25 2.491 . S
C3 O0 1.255 . S
C3 O4 1.247 . S
O4 C3 1.247 . S
C5 O17 1.242 . S
C5 O18 1.258 . S
O6 Eu2 2.292 . S
O6 C8 1.255 . S
C7 Eu2 2.852 1_556 S
C7 C11 1.503 . S
C7 O24 1.273 . S
C7 O25 1.235 1_556 S
C8 O6 1.255 . S
C8 O9 1.247 . S
O9 C8 1.247 . S
C10 O22 1.242 . S
C10 O23 1.258 . S
C11 C7 1.503 . S
C11 C12 1.379 . S
C11 C16 1.392 . S
C12 C11 1.379 . S
C12 C13 1.404 . S
C12 H26 0.929 . S
C13 C12 1.404 . S
C13 C14 1.389 . S
C14 C13 1.389 . S
C14 C15 1.399 . S
C14 H27 0.931 . S
C15 C14 1.399 . S
C15 C16 1.390 . S
C16 C11 1.392 . S
C16 C15 1.390 . S
C16 H28 0.929 . S
O17 Tb1 2.326 . S
O17 C5 1.242 . S
O18 Eu2 2.324 . S
O18 C5 1.258 . S
O19 Tb1 2.500 . S
O19 C21 1.273 . S
O20 Tb1 2.473 . S
O20 C21 1.257 . S
C21 O19 1.273 . S
C21 O20 1.257 . S
O22 Eu2 2.326 1_556 S
O22 C10 1.242 . S
O23 Tb1 2.324 1_556 S
O23 C10 1.258 . S
O24 Eu2 2.500 1_556 S
O24 C7 1.273 . S
O25 Eu2 2.491 . S
O25 C7 1.235 1_554 S
H26 C12 0.929 . S
H27 C14 0.931 . S
H28 C16 0.929 . S
O29 Tb30 2.292 . S
O29 C32 1.255 . S
Tb30 O29 2.292 . S
Tb30 O46 2.326 . S
Tb30 O48 2.500 . S
Tb30 O49 2.473 . S
Tb30 O52 2.324 1_554 S
Eu31 O35 2.292 . S
Eu31 C36 2.852 1_554 S
Eu31 O47 2.324 . S
Eu31 O51 2.326 1_554 S
Eu31 O53 2.500 1_554 S
Eu31 O54 2.491 . S
C32 O29 1.255 . S
C32 O33 1.247 . S
O33 C32 1.247 . S
C34 O46 1.242 . S
C34 O47 1.258 . S
O35 Eu31 2.292 . S
O35 C37 1.255 . S
C36 Eu31 2.852 1_556 S
C36 C40 1.503 . S
C36 O53 1.273 . S
C36 O54 1.235 1_556 S
C37 O35 1.255 . S
C37 O38 1.247 . S
O38 C37 1.247 . S
C39 O51 1.242 . S
C39 O52 1.258 . S
C40 C36 1.503 . S
C40 C41 1.379 . S
C40 C45 1.392 . S
C41 C40 1.379 . S
C41 C42 1.404 . S
C41 H55 0.929 . S
C42 C41 1.404 . S
C42 C43 1.389 . S
C43 C42 1.389 . S
C43 C44 1.399 . S
C43 H56 0.931 . S
C44 C43 1.399 . S
C44 C45 1.390 . S
C45 C40 1.392 . S
C45 C44 1.390 . S
C45 H57 0.929 . S
O46 Tb30 2.326 . S
O46 C34 1.242 . S
O47 Eu31 2.324 . S
O47 C34 1.258 . S
O48 Tb30 2.500 . S
O48 C50 1.273 . S
O49 Tb30 2.473 . S
O49 C50 1.257 . S
C50 O48 1.273 . S
C50 O49 1.257 . S
O51 Eu31 2.326 1_556 S
O51 C39 1.242 . S
O52 Tb30 2.324 1_556 S
O52 C39 1.258 . S
O53 Eu31 2.500 1_556 S
O53 C36 1.273 . S
O54 Eu31 2.491 . S
O54 C36 1.235 1_554 S
H55 C41 0.929 . S
H56 C43 0.931 . S
H57 C45 0.929 . S
O58 Tb59 2.292 . S
O58 C61 1.255 . S
Tb59 O58 2.292 . S
Tb59 O75 2.326 . S
Tb59 O77 2.500 . S
Tb59 O78 2.473 . S
Tb59 O81 2.324 . S
Eu60 O64 2.292 . S
Eu60 C65 2.852 . S
Eu60 O76 2.324 . S
Eu60 O80 2.326 . S
Eu60 O82 2.500 . S
Eu60 O83 2.473 . S
C61 O58 1.255 . S
C61 O62 1.247 . S
O62 C61 1.247 . S
C63 O75 1.242 . S
C63 O76 1.258 . S
O64 Eu60 2.292 . S
O64 C66 1.255 . S
C65 Eu60 2.852 . S
C65 C69 1.503 . S
C65 O82 1.273 . S
C65 O83 1.257 . S
C66 O64 1.255 . S
C66 O67 1.247 . S
O67 C66 1.247 . S
C68 O80 1.242 . S
C68 O81 1.258 . S
C69 C65 1.503 . S
C69 C70 1.379 . S
C69 C74 1.392 1_655 S
C70 C69 1.379 . S
C70 C71 1.404 . S
C70 H84 0.929 . S
C71 C70 1.404 . S
C71 C72 1.389 1_655 S
C72 C71 1.389 1_455 S
C72 C73 1.399 . S
C72 H85 0.931 . S
C73 C72 1.399 . S
C73 C74 1.390 . S
C74 C69 1.392 1_455 S
C74 C73 1.390 . S
C74 H86 0.929 . S
O75 Tb59 2.326 . S
O75 C63 1.242 . S
O76 Eu60 2.324 . S
O76 C63 1.258 . S
O77 Tb59 2.500 . S
O77 C79 1.273 . S
O78 Tb59 2.473 . S
O78 C79 1.257 . S
C79 O77 1.273 . S
C79 O78 1.257 . S
O80 Eu60 2.326 . S
O80 C68 1.242 . S
O81 Tb59 2.324 . S
O81 C68 1.258 . S
O82 Eu60 2.500 . S
O82 C65 1.273 . S
O83 Eu60 2.473 . S
O83 C65 1.257 . S
H84 C70 0.929 . S
H85 C72 0.931 . S
H86 C74 0.929 . S
O87 Tb88 2.292 . S
O87 C90 1.255 . S
Tb88 O87 2.292 . S
Tb88 O104 2.326 . S
Tb88 O106 2.500 . S
Tb88 O107 2.473 . S
Tb88 O110 2.324 . S
Eu89 O93 2.292 . S
Eu89 C94 2.852 . S
Eu89 O105 2.324 . S
Eu89 O109 2.326 . S
Eu89 O111 2.500 . S
Eu89 O112 2.473 . S
C90 O87 1.255 . S
C90 O91 1.247 . S
O91 C90 1.247 . S
C92 O104 1.242 . S
C92 O105 1.258 . S
O93 Eu89 2.292 . S
O93 C95 1.255 . S
C94 Eu89 2.852 . S
C94 C98 1.503 . S
C94 O111 1.273 . S
C94 O112 1.257 . S
C95 O93 1.255 . S
C95 O96 1.247 . S
O96 C95 1.247 . S
C97 O109 1.242 . S
C97 O110 1.258 . S
C98 C94 1.503 . S
C98 C99 1.379 . S
C98 C103 1.392 1_455 S
C99 C98 1.379 . S
C99 C100 1.404 . S
C99 H113 0.929 . S
C100 C99 1.404 . S
C100 C101 1.389 1_455 S
C101 C100 1.389 1_655 S
C101 C102 1.399 . S
C101 H114 0.931 . S
C102 C101 1.399 . S
C102 C103 1.390 . S
C103 C98 1.392 1_655 S
C103 C102 1.390 . S
C103 H115 0.929 . S
O104 Tb88 2.326 . S
O104 C92 1.242 . S
O105 Eu89 2.324 . S
O105 C92 1.258 . S
O106 Tb88 2.500 . S
O106 C108 1.273 . S
O107 Tb88 2.473 . S
O107 C108 1.257 . S
C108 O106 1.273 . S
C108 O107 1.257 . S
O109 Eu89 2.326 . S
O109 C97 1.242 . S
O110 Tb88 2.324 . S
O110 C97 1.258 . S
O111 Eu89 2.500 . S
O111 C94 1.273 . S
O112 Eu89 2.473 . S
O112 C94 1.257 . S
H113 C99 0.929 . S
H114 C101 0.931 . S
H115 C103 0.929 . S
O116 Tb117 2.292 . S
O116 C119 1.255 . S
Tb117 O116 2.292 . S
Tb117 O133 2.326 . S
Tb117 O135 2.500 . S
Tb117 O136 2.473 . S
Tb117 O139 2.324 . S
Eu118 O122 2.292 . S
Eu118 C123 2.852 . S
Eu118 O134 2.324 . S
Eu118 O138 2.326 . S
Eu118 O140 2.500 . S
Eu118 O141 2.473 . S
C119 O116 1.255 . S
C119 O120 1.247 . S
O120 C119 1.247 . S
C121 O133 1.242 . S
C121 O134 1.258 . S
O122 Eu118 2.292 . S
O122 C124 1.255 . S
C123 Eu118 2.852 . S
C123 C127 1.503 . S
C123 O140 1.273 . S
C123 O141 1.257 . S
C124 O122 1.255 . S
C124 O125 1.247 . S
O125 C124 1.247 . S
C126 O138 1.242 . S
C126 O139 1.258 . S
C127 C123 1.503 . S
C127 C128 1.379 . S
C127 C132 1.392 . S
C128 C127 1.379 . S
C128 C129 1.404 . S
C128 H142 0.929 . S
C129 C128 1.404 . S
C129 C130 1.389 . S
C130 C129 1.389 . S
C130 C131 1.399 . S
C130 H143 0.931 . S
C131 C130 1.399 . S
C131 C132 1.390 . S
C132 C127 1.392 . S
C132 C131 1.390 . S
C132 H144 0.929 . S
O133 Tb117 2.326 . S
O133 C121 1.242 . S
O134 Eu118 2.324 . S
O134 C121 1.258 . S
O135 Tb117 2.500 . S
O135 C137 1.273 . S
O136 Tb117 2.473 . S
O136 C137 1.257 . S
C137 O135 1.273 . S
C137 O136 1.257 . S
O138 Eu118 2.326 . S
O138 C126 1.242 . S
O139 Tb117 2.324 . S
O139 C126 1.258 . S
O140 Eu118 2.500 . S
O140 C123 1.273 . S
O141 Eu118 2.473 . S
O141 C123 1.257 . S
H142 C128 0.929 . S
H143 C130 0.931 . S
H144 C132 0.929 . S
O145 Tb146 2.292 . S
O145 C148 1.255 . S
Tb146 O145 2.292 . S
Tb146 O162 2.326 . S
Tb146 O164 2.500 . S
Tb146 O165 2.473 . S
Tb146 O168 2.324 . S
Eu147 O151 2.292 . S
Eu147 C152 2.852 . S
Eu147 O163 2.324 . S
Eu147 O167 2.326 . S
Eu147 O169 2.500 . S
Eu147 O170 2.473 . S
C148 O145 1.255 . S
C148 O149 1.247 . S
O149 C148 1.247 . S
C150 O162 1.242 . S
C150 O163 1.258 . S
O151 Eu147 2.292 . S
O151 C153 1.255 . S
C152 Eu147 2.852 . S
C152 C156 1.503 . S
C152 O169 1.273 . S
C152 O170 1.257 . S
C153 O151 1.255 . S
C153 O154 1.247 . S
O154 C153 1.247 . S
C155 O167 1.242 . S
C155 O168 1.258 . S
C156 C152 1.503 . S
C156 C157 1.379 . S
C156 C161 1.392 . S
C157 C156 1.379 . S
C157 C158 1.404 . S
C157 H171 0.929 . S
C158 C157 1.404 . S
C158 C159 1.389 . S
C159 C158 1.389 . S
C159 C160 1.399 . S
C159 H172 0.931 . S
C160 C159 1.399 . S
C160 C161 1.390 . S
C161 C156 1.392 . S
C161 C160 1.390 . S
C161 H173 0.929 . S
O162 Tb146 2.326 . S
O162 C150 1.242 . S
O163 Eu147 2.324 . S
O163 C150 1.258 . S
O164 Tb146 2.500 . S
O164 C166 1.273 . S
O165 Tb146 2.473 . S
O165 C166 1.257 . S
C166 O164 1.273 . S
C166 O165 1.257 . S
O167 Eu147 2.326 . S
O167 C155 1.242 . S
O168 Tb146 2.324 . S
O168 C155 1.258 . S
O169 Eu147 2.500 . S
O169 C152 1.273 . S
O170 Eu147 2.473 . S
O170 C152 1.257 . S
H171 C157 0.929 . S
H172 C159 0.931 . S
H173 C161 0.929 . S
O174 Tb175 2.292 . S
O174 C177 1.255 . S
Tb175 O174 2.292 . S
Tb175 O191 2.326 . S
Tb175 O193 2.500 . S
Tb175 O194 2.473 . S
Tb175 O197 2.324 . S
Eu176 O180 2.292 . S
Eu176 C181 2.852 . S
Eu176 O192 2.324 . S
Eu176 O196 2.326 . S
Eu176 O198 2.500 . S
Eu176 O199 2.473 . S
C177 O174 1.255 . S
C177 O178 1.247 . S
O178 C177 1.247 . S
C179 O191 1.242 . S
C179 O192 1.258 . S
O180 Eu176 2.292 . S
O180 C182 1.255 . S
C181 Eu176 2.852 . S
C181 C185 1.503 . S
C181 O198 1.273 . S
C181 O199 1.257 . S
C182 O180 1.255 . S
C182 O183 1.247 . S
O183 C182 1.247 . S
C184 O196 1.242 . S
C184 O197 1.258 . S
C185 C181 1.503 . S
C185 C186 1.379 . S
C185 C190 1.392 1_655 S
C186 C185 1.379 . S
C186 C187 1.404 . S
C186 H200 0.929 . S
C187 C186 1.404 . S
C187 C188 1.389 1_655 S
C188 C187 1.389 1_455 S
C188 C189 1.399 . S
C188 H201 0.931 . S
C189 C188 1.399 . S
C189 C190 1.390 . S
C190 C185 1.392 1_455 S
C190 C189 1.390 . S
C190 H202 0.929 . S
O191 Tb175 2.326 . S
O191 C179 1.242 . S
O192 Eu176 2.324 . S
O192 C179 1.258 . S
O193 Tb175 2.500 . S
O193 C195 1.273 . S
O194 Tb175 2.473 . S
O194 C195 1.257 . S
C195 O193 1.273 . S
C195 O194 1.257 . S
O196 Eu176 2.326 . S
O196 C184 1.242 . S
O197 Tb175 2.324 . S
O197 C184 1.258 . S
O198 Eu176 2.500 . S
O198 C181 1.273 . S
O199 Eu176 2.473 . S
O199 C181 1.257 . S
H200 C186 0.929 . S
H201 C188 0.931 . S
H202 C190 0.929 . S
O203 Tb204 2.292 . S
O203 C206 1.255 . S
Tb204 O203 2.292 . S
Tb204 O220 2.326 . S
Tb204 O222 2.500 . S
Tb204 O223 2.473 . S
Tb204 O226 2.324 . S
Eu205 O209 2.292 . S
Eu205 C210 2.852 . S
Eu205 O221 2.324 . S
Eu205 O225 2.326 . S
Eu205 O227 2.500 . S
Eu205 O228 2.473 . S
C206 O203 1.255 . S
C206 O207 1.247 . S
O207 C206 1.247 . S
C208 O220 1.242 . S
C208 O221 1.258 . S
O209 Eu205 2.292 . S
O209 C211 1.255 . S
C210 Eu205 2.852 . S
C210 C214 1.503 . S
C210 O227 1.273 . S
C210 O228 1.257 . S
C211 O209 1.255 . S
C211 O212 1.247 . S
O212 C211 1.247 . S
C213 O225 1.242 . S
C213 O226 1.258 . S
C214 C210 1.503 . S
C214 C215 1.379 . S
C214 C219 1.392 1_455 S
C215 C214 1.379 . S
C215 C216 1.404 . S
C215 H229 0.929 . S
C216 C215 1.404 . S
C216 C217 1.389 1_455 S
C217 C216 1.389 1_655 S
C217 C218 1.399 . S
C217 H230 0.931 . S
C218 C217 1.399 . S
C218 C219 1.390 . S
C219 C214 1.392 1_655 S
C219 C218 1.390 . S
C219 H231 0.929 . S
O220 Tb204 2.326 . S
O220 C208 1.242 . S
O221 Eu205 2.324 . S
O221 C208 1.258 . S
O222 Tb204 2.500 . S
O222 C224 1.273 . S
O223 Tb204 2.473 . S
O223 C224 1.257 . S
C224 O222 1.273 . S
C224 O223 1.257 . S
O225 Eu205 2.326 . S
O225 C213 1.242 . S
O226 Tb204 2.324 . S
O226 C213 1.258 . S
O227 Eu205 2.500 . S
O227 C210 1.273 . S
O228 Eu205 2.473 . S
O228 C210 1.257 . S
H229 C215 0.929 . S
H230 C217 0.931 . S
H231 C219 0.929 . S
O232 Tb233 2.292 . S
O232 C235 1.255 . S
Tb233 O232 2.292 . S
Tb233 O249 2.326 . S
Tb233 O251 2.500 . S
Tb233 O252 2.473 . S
Tb233 O255 2.324 . S
Eu234 O238 2.292 . S
Eu234 C239 2.852 . S
Eu234 O250 2.324 . S
Eu234 O254 2.326 . S
Eu234 O256 2.500 . S
Eu234 O257 2.473 . S
C235 O232 1.255 . S
C235 O236 1.247 . S
O236 C235 1.247 . S
C237 O249 1.242 . S
C237 O250 1.258 . S
O238 Eu234 2.292 . S
O238 C240 1.255 . S
C239 Eu234 2.852 . S
C239 C243 1.503 . S
C239 O256 1.273 . S
C239 O257 1.257 . S
C240 O238 1.255 . S
C240 O241 1.247 . S
O241 C240 1.247 . S
C242 O254 1.242 . S
C242 O255 1.258 . S
C243 C239 1.503 . S
C243 C244 1.379 . S
C243 C248 1.392 . S
C244 C243 1.379 . S
C244 C245 1.404 . S
C244 H258 0.929 . S
C245 C244 1.404 . S
C245 C246 1.389 . S
C246 C245 1.389 . S
C246 C247 1.399 . S
C246 H259 0.931 . S
C247 C246 1.399 . S
C247 C248 1.390 . S
C248 C243 1.392 . S
C248 C247 1.390 . S
C248 H260 0.929 . S
O249 Tb233 2.326 . S
O249 C237 1.242 . S
O250 Eu234 2.324 . S
O250 C237 1.258 . S
O251 Tb233 2.500 . S
O251 C253 1.273 . S
O252 Tb233 2.473 . S
O252 C253 1.257 . S
C253 O251 1.273 . S
C253 O252 1.257 . S
O254 Eu234 2.326 . S
O254 C242 1.242 . S
O255 Tb233 2.324 . S
O255 C242 1.258 . S
O256 Eu234 2.500 . S
O256 C239 1.273 . S
O257 Eu234 2.473 . S
O257 C239 1.257 . S
H258 C244 0.929 . S
H259 C246 0.931 . S
H260 C248 0.929 . S
O261 Tb262 2.292 . S
O261 C264 1.255 . S
Tb262 O261 2.292 . S
Tb262 O278 2.326 . S
Tb262 O280 2.500 . S
Tb262 O281 2.473 . S
Tb262 O284 2.324 . S
Eu263 O267 2.292 . S
Eu263 C268 2.852 . S
Eu263 O279 2.324 . S
Eu263 O283 2.326 . S
Eu263 O285 2.500 . S
Eu263 O286 2.473 . S
C264 O261 1.255 . S
C264 O265 1.247 . S
O265 C264 1.247 . S
C266 O278 1.242 . S
C266 O279 1.258 . S
O267 Eu263 2.292 . S
O267 C269 1.255 . S
C268 Eu263 2.852 . S
C268 C272 1.503 . S
C268 O285 1.273 . S
C268 O286 1.257 . S
C269 O267 1.255 . S
C269 O270 1.247 . S
O270 C269 1.247 . S
C271 O283 1.242 . S
C271 O284 1.258 . S
C272 C268 1.503 . S
C272 C273 1.379 . S
C272 C277 1.392 . S
C273 C272 1.379 . S
C273 C274 1.404 . S
C273 H287 0.929 . S
C274 C273 1.404 . S
C274 C275 1.389 . S
C275 C274 1.389 . S
C275 C276 1.399 . S
C275 H288 0.931 . S
C276 C275 1.399 . S
C276 C277 1.390 . S
C277 C272 1.392 . S
C277 C276 1.390 . S
C277 H289 0.929 . S
O278 Tb262 2.326 . S
O278 C266 1.242 . S
O279 Eu263 2.324 . S
O279 C266 1.258 . S
O280 Tb262 2.500 . S
O280 C282 1.273 . S
O281 Tb262 2.473 . S
O281 C282 1.257 . S
C282 O280 1.273 . S
C282 O281 1.257 . S
O283 Eu263 2.326 . S
O283 C271 1.242 . S
O284 Tb262 2.324 . S
O284 C271 1.258 . S
O285 Eu263 2.500 . S
O285 C268 1.273 . S
O286 Eu263 2.473 . S
O286 C268 1.257 . S
H287 C273 0.929 . S
H288 C275 0.931 . S
H289 C277 0.929 . S
O290 Tb291 2.292 . S
O290 C293 1.255 . S
Tb291 O290 2.292 . S
Tb291 O307 2.326 . S
Tb291 O309 2.500 . S
Tb291 O310 2.473 . S
Tb291 O313 2.324 . S
Eu292 O296 2.292 . S
Eu292 C297 2.852 . S
Eu292 O308 2.324 . S
Eu292 O312 2.326 . S
Eu292 O314 2.500 . S
Eu292 O315 2.473 . S
C293 O290 1.255 . S
C293 O294 1.247 . S
O294 C293 1.247 . S
C295 O307 1.242 . S
C295 O308 1.258 . S
O296 Eu292 2.292 . S
O296 C298 1.255 . S
C297 Eu292 2.852 . S
C297 C301 1.503 . S
C297 O314 1.273 . S
C297 O315 1.257 . S
C298 O296 1.255 . S
C298 O299 1.247 . S
O299 C298 1.247 . S
C300 O312 1.242 . S
C300 O313 1.258 . S
C301 C297 1.503 . S
C301 C302 1.379 . S
C301 C306 1.392 . S
C302 C301 1.379 . S
C302 C303 1.404 . S
C302 H316 0.929 . S
C303 C302 1.404 . S
C303 C304 1.389 . S
C304 C303 1.389 . S
C304 C305 1.399 . S
C304 H317 0.931 . S
C305 C304 1.399 . S
C305 C306 1.390 . S
C306 C301 1.392 . S
C306 C305 1.390 . S
C306 H318 0.929 . S
O307 Tb291 2.326 . S
O307 C295 1.242 . S
O308 Eu292 2.324 . S
O308 C295 1.258 . S
O309 Tb291 2.500 . S
O309 C311 1.273 . S
O310 Tb291 2.473 . S
O310 C311 1.257 . S
C311 O309 1.273 . S
C311 O310 1.257 . S
O312 Eu292 2.326 . S
O312 C300 1.242 . S
O313 Tb291 2.324 . S
O313 C300 1.258 . S
O314 Eu292 2.500 . S
O314 C297 1.273 . S
O315 Eu292 2.473 . S
O315 C297 1.257 . S
H316 C302 0.929 . S
H317 C304 0.931 . S
H318 C306 0.929 . S
O319 Tb320 2.292 . S
O319 C322 1.255 . S
Tb320 O319 2.292 . S
Tb320 O336 2.326 . S
Tb320 O338 2.500 . S
Tb320 O339 2.473 . S
Tb320 O342 2.324 . S
Eu321 O325 2.292 . S
Eu321 C326 2.852 . S
Eu321 O337 2.324 . S
Eu321 O341 2.326 . S
Eu321 O343 2.500 . S
Eu321 O344 2.473 . S
C322 O319 1.255 . S
C322 O323 1.247 . S
O323 C322 1.247 . S
C324 O336 1.242 . S
C324 O337 1.258 . S
O325 Eu321 2.292 . S
O325 C327 1.255 . S
C326 Eu321 2.852 . S
C326 C330 1.503 . S
C326 O343 1.273 . S
C326 O344 1.257 . S
C327 O325 1.255 . S
C327 O328 1.247 . S
O328 C327 1.247 . S
C329 O341 1.242 . S
C329 O342 1.258 . S
C330 C326 1.503 . S
C330 C331 1.379 . S
C330 C335 1.392 . S
C331 C330 1.379 . S
C331 C332 1.404 . S
C331 H345 0.929 . S
C332 C331 1.404 . S
C332 C333 1.389 . S
C333 C332 1.389 . S
C333 C334 1.399 . S
C333 H346 0.931 . S
C334 C333 1.399 . S
C334 C335 1.390 . S
C335 C330 1.392 . S
C335 C334 1.390 . S
C335 H347 0.929 . S
O336 Tb320 2.326 . S
O336 C324 1.242 . S
O337 Eu321 2.324 . S
O337 C324 1.258 . S
O338 Tb320 2.500 . S
O338 C340 1.273 . S
O339 Tb320 2.473 . S
O339 C340 1.257 . S
C340 O338 1.273 . S
C340 O339 1.257 . S
O341 Eu321 2.326 . S
O341 C329 1.242 . S
O342 Tb320 2.324 . S
O342 C329 1.258 . S
O343 Eu321 2.500 . S
O343 C326 1.273 . S
O344 Eu321 2.473 . S
O344 C326 1.257 . S
H345 C331 0.929 . S
H346 C333 0.931 . S
H347 C335 0.929 . S
O348 Tb349 2.292 . S
O348 C351 1.255 . S
Tb349 O348 2.292 . S
Tb349 O365 2.326 . S
Tb349 O367 2.500 . S
Tb349 O368 2.473 . S
Tb349 O371 2.324 1_554 S
Eu350 O354 2.292 . S
Eu350 C355 2.852 1_554 S
Eu350 O366 2.324 . S
Eu350 O370 2.326 1_554 S
Eu350 O372 2.500 1_554 S
Eu350 O373 2.491 . S
C351 O348 1.255 . S
C351 O352 1.247 . S
O352 C351 1.247 . S
C353 O365 1.242 . S
C353 O366 1.258 . S
O354 Eu350 2.292 . S
O354 C356 1.255 . S
C355 Eu350 2.852 1_556 S
C355 C359 1.503 . S
C355 O372 1.273 . S
C355 O373 1.235 1_556 S
C356 O354 1.255 . S
C356 O357 1.247 . S
O357 C356 1.247 . S
C358 O370 1.242 . S
C358 O371 1.258 . S
C359 C355 1.503 . S
C359 C360 1.379 . S
C359 C364 1.392 . S
C360 C359 1.379 . S
C360 C361 1.404 . S
C360 H374 0.929 . S
C361 C360 1.404 . S
C361 C362 1.389 . S
C362 C361 1.389 . S
C362 C363 1.399 . S
C362 H375 0.931 . S
C363 C362 1.399 . S
C363 C364 1.390 . S
C364 C359 1.392 . S
C364 C363 1.390 . S
C364 H376 0.929 . S
O365 Tb349 2.326 . S
O365 C353 1.242 . S
O366 Eu350 2.324 . S
O366 C353 1.258 . S
O367 Tb349 2.500 . S
O367 C369 1.273 . S
O368 Tb349 2.473 . S
O368 C369 1.257 . S
C369 O367 1.273 . S
C369 O368 1.257 . S
O370 Eu350 2.326 1_556 S
O370 C358 1.242 . S
O371 Tb349 2.324 1_556 S
O371 C358 1.258 . S
O372 Eu350 2.500 1_556 S
O372 C355 1.273 . S
O373 Eu350 2.491 . S
O373 C355 1.235 1_554 S
H374 C360 0.929 . S
H375 C362 0.931 . S
H376 C364 0.929 . S
O377 Tb378 2.292 . S
O377 C380 1.255 . S
Tb378 O377 2.292 . S
Tb378 O394 2.326 . S
Tb378 O396 2.500 . S
Tb378 O397 2.473 . S
Tb378 O400 2.324 1_554 S
Eu379 O383 2.292 . S
Eu379 C384 2.852 1_554 S
Eu379 O395 2.324 . S
Eu379 O399 2.326 1_554 S
Eu379 O401 2.500 1_554 S
Eu379 O402 2.491 . S
C380 O377 1.255 . S
C380 O381 1.247 . S
O381 C380 1.247 . S
C382 O394 1.242 . S
C382 O395 1.258 . S
O383 Eu379 2.292 . S
O383 C385 1.255 . S
C384 Eu379 2.852 1_556 S
C384 C388 1.503 . S
C384 O401 1.273 . S
C384 O402 1.235 1_556 S
C385 O383 1.255 . S
C385 O386 1.247 . S
O386 C385 1.247 . S
C387 O399 1.242 . S
C387 O400 1.258 . S
C388 C384 1.503 . S
C388 C389 1.379 . S
C388 C393 1.392 . S
C389 C388 1.379 . S
C389 C390 1.404 . S
C389 H403 0.929 . S
C390 C389 1.404 . S
C390 C391 1.389 . S
C391 C390 1.389 . S
C391 C392 1.399 . S
C391 H404 0.931 . S
C392 C391 1.399 . S
C392 C393 1.390 . S
C393 C388 1.392 . S
C393 C392 1.390 . S
C393 H405 0.929 . S
O394 Tb378 2.326 . S
O394 C382 1.242 . S
O395 Eu379 2.324 . S
O395 C382 1.258 . S
O396 Tb378 2.500 . S
O396 C398 1.273 . S
O397 Tb378 2.473 . S
O397 C398 1.257 . S
C398 O396 1.273 . S
C398 O397 1.257 . S
O399 Eu379 2.326 1_556 S
O399 C387 1.242 . S
O400 Tb378 2.324 1_556 S
O400 C387 1.258 . S
O401 Eu379 2.500 1_556 S
O401 C384 1.273 . S
O402 Eu379 2.491 . S
O402 C384 1.235 1_554 S
H403 C389 0.929 . S
H404 C391 0.931 . S
H405 C393 0.929 . S
O406 Tb407 2.292 . S
O406 C409 1.255 . S
Tb407 O406 2.292 . S
Tb407 O423 2.326 . S
Tb407 O425 2.500 . S
Tb407 O426 2.473 . S
Tb407 O429 2.324 . S
Eu408 O412 2.292 . S
Eu408 C413 2.852 . S
Eu408 O424 2.324 . S
Eu408 O428 2.326 . S
Eu408 O430 2.500 . S
Eu408 O431 2.473 . S
C409 O406 1.255 . S
C409 O410 1.247 . S
O410 C409 1.247 . S
C411 O423 1.242 . S
C411 O424 1.258 . S
O412 Eu408 2.292 . S
O412 C414 1.255 . S
C413 Eu408 2.852 . S
C413 C417 1.503 . S
C413 O430 1.273 . S
C413 O431 1.257 . S
C414 O412 1.255 . S
C414 O415 1.247 . S
O415 C414 1.247 . S
C416 O428 1.242 . S
C416 O429 1.258 . S
C417 C413 1.503 . S
C417 C418 1.379 . S
C417 C422 1.392 . S
C418 C417 1.379 . S
C418 C419 1.404 . S
C418 H432 0.929 . S
C419 C418 1.404 . S
C419 C420 1.389 . S
C420 C419 1.389 . S
C420 C421 1.399 . S
C420 H433 0.931 . S
C421 C420 1.399 . S
C421 C422 1.390 . S
C422 C417 1.392 . S
C422 C421 1.390 . S
C422 H434 0.929 . S
O423 Tb407 2.326 . S
O423 C411 1.242 . S
O424 Eu408 2.324 . S
O424 C411 1.258 . S
O425 Tb407 2.500 . S
O425 C427 1.273 . S
O426 Tb407 2.473 . S
O426 C427 1.257 . S
C427 O425 1.273 . S
C427 O426 1.257 . S
O428 Eu408 2.326 . S
O428 C416 1.242 . S
O429 Tb407 2.324 . S
O429 C416 1.258 . S
O430 Eu408 2.500 . S
O430 C413 1.273 . S
O431 Eu408 2.473 . S
O431 C413 1.257 . S
H432 C418 0.929 . S
H433 C420 0.931 . S
H434 C422 0.929 . S
O435 Tb436 2.292 . S
O435 C438 1.255 . S
Tb436 O435 2.292 . S
Tb436 O452 2.326 . S
Tb436 O454 2.500 . S
Tb436 O455 2.473 . S
Tb436 O458 2.324 . S
Eu437 O441 2.292 . S
Eu437 C442 2.852 . S
Eu437 O453 2.324 . S
Eu437 O457 2.326 . S
Eu437 O459 2.500 . S
Eu437 O460 2.473 . S
C438 O435 1.255 . S
C438 O439 1.247 . S
O439 C438 1.247 . S
C440 O452 1.242 . S
C440 O453 1.258 . S
O441 Eu437 2.292 . S
O441 C443 1.255 . S
C442 Eu437 2.852 . S
C442 C446 1.503 . S
C442 O459 1.273 . S
C442 O460 1.257 . S
C443 O441 1.255 . S
C443 O444 1.247 . S
O444 C443 1.247 . S
C445 O457 1.242 . S
C445 O458 1.258 . S
C446 C442 1.503 . S
C446 C447 1.379 . S
C446 C451 1.392 . S
C447 C446 1.379 . S
C447 C448 1.404 . S
C447 H461 0.929 . S
C448 C447 1.404 . S
C448 C449 1.389 . S
C449 C448 1.389 . S
C449 C450 1.399 . S
C449 H462 0.931 . S
C450 C449 1.399 . S
C450 C451 1.390 . S
C451 C446 1.392 . S
C451 C450 1.390 . S
C451 H463 0.929 . S
O452 Tb436 2.326 . S
O452 C440 1.242 . S
O453 Eu437 2.324 . S
O453 C440 1.258 . S
O454 Tb436 2.500 . S
O454 C456 1.273 . S
O455 Tb436 2.473 . S
O455 C456 1.257 . S
C456 O454 1.273 . S
C456 O455 1.257 . S
O457 Eu437 2.326 . S
O457 C445 1.242 . S
O458 Tb436 2.324 . S
O458 C445 1.258 . S
O459 Eu437 2.500 . S
O459 C442 1.273 . S
O460 Eu437 2.473 . S
O460 C442 1.257 . S
H461 C447 0.929 . S
H462 C449 0.931 . S
H463 C451 0.929 . S
H464 C472 0.929 . S
H465 C474 0.930 . S
H466 C476 0.930 . S
H467 C479 0.929 . S
H468 C482 0.930 . S
H469 C484 0.960 . S
H470 C484 0.960 . S
H471 C484 0.960 . S
C472 H464 0.929 . S
C472 C473 1.377 . S
C472 C474 1.384 . S
C473 C472 1.377 . S
C473 C479 1.390 . S
C474 H465 0.930 . S
C474 C472 1.384 . S
C474 C475 1.372 . S
C475 C474 1.372 . S
C475 C476 1.400 . S
C475 C480 1.490 . S
C476 H466 0.930 . S
C476 C475 1.400 . S
C476 C479 1.386 . S
H477 C493 0.930 . S
H478 C494 0.931 . S
C479 H467 0.929 . S
C479 C473 1.390 . S
C479 C476 1.386 . S
C480 C475 1.490 . S
C480 C482 1.395 . S
C480 C483 1.403 . S
H481 C487 0.930 . S
C482 H468 0.930 . S
C482 C480 1.395 . S
C482 C485 1.403 . S
C483 C480 1.403 . S
C483 C484 1.524 . S
C483 C487 1.400 . S
C484 H469 0.960 . S
C484 H470 0.960 . S
C484 H471 0.960 . S
C484 C483 1.524 . S
C485 C482 1.403 . S
C485 C486 1.392 . S
C485 C489 1.495 . S
C486 C485 1.392 . S
C486 C487 1.385 . S
C486 C488 1.478 . S
C487 H481 0.930 . S
C487 C483 1.400 . S
C487 C486 1.385 . S
C488 C486 1.478 . S
C488 C490 1.381 . S
C488 C494 1.383 . S
C489 C485 1.495 . S
C489 H495 0.959 . S
C489 H496 0.961 . S
C489 H497 0.960 . S
C490 C488 1.381 . S
C490 C491 1.394 1_565 S
C490 H498 0.930 . S
C491 C490 1.394 1_545 S
C491 C492 1.383 1_545 S
C491 H499 0.929 . S
C492 C491 1.383 1_565 S
C492 C493 1.377 . S
C493 H477 0.930 . S
C493 C492 1.377 . S
C493 C494 1.379 . S
C494 H478 0.931 . S
C494 C488 1.383 . S
C494 C493 1.379 . S
H495 C489 0.959 . S
H496 C489 0.961 . S
H497 C489 0.960 . S
H498 C490 0.930 . S
H499 C491 0.929 . S
H500 C508 0.929 . S
H501 C510 0.930 . S
H502 C512 0.930 . S
H503 C515 0.929 . S
H504 C518 0.930 . S
H505 C520 0.960 . S
H506 C520 0.960 . S
H507 C520 0.960 . S
C508 H500 0.929 . S
C508 C509 1.377 . S
C508 C510 1.384 . S
C509 C508 1.377 . S
C509 C515 1.390 . S
C510 H501 0.930 . S
C510 C508 1.384 . S
C510 C511 1.372 . S
C511 C510 1.372 . S
C511 C512 1.400 . S
C511 C516 1.490 . S
C512 H502 0.930 . S
C512 C511 1.400 . S
C512 C515 1.386 . S
H513 C529 0.930 . S
H514 C530 0.931 . S
C515 H503 0.929 . S
C515 C509 1.390 . S
C515 C512 1.386 . S
C516 C511 1.490 . S
C516 C518 1.395 . S
C516 C519 1.403 . S
H517 C523 0.930 . S
C518 H504 0.930 . S
C518 C516 1.395 . S
C518 C521 1.403 . S
C519 C516 1.403 . S
C519 C520 1.524 . S
C519 C523 1.400 . S
C520 H505 0.960 . S
C520 H506 0.960 . S
C520 H507 0.960 . S
C520 C519 1.524 . S
C521 C518 1.403 . S
C521 C522 1.392 . S
C521 C525 1.495 . S
C522 C521 1.392 . S
C522 C523 1.385 . S
C522 C524 1.478 . S
C523 H517 0.930 . S
C523 C519 1.400 . S
C523 C522 1.385 . S
C524 C522 1.478 . S
C524 C526 1.381 . S
C524 C530 1.383 . S
C525 C521 1.495 . S
C525 H531 0.959 . S
C525 H532 0.961 . S
C525 H533 0.960 . S
C526 C524 1.381 . S
C526 C527 1.394 . S
C526 H534 0.930 . S
C527 C526 1.394 . S
C527 C528 1.383 . S
C527 H535 0.929 1_545 S
C528 C527 1.383 . S
C528 C529 1.377 . S
C529 H513 0.930 . S
C529 C528 1.377 . S
C529 C530 1.379 . S
C530 H514 0.931 . S
C530 C524 1.383 . S
C530 C529 1.379 . S
H531 C525 0.959 . S
H532 C525 0.961 . S
H533 C525 0.960 . S
H534 C526 0.930 . S
H535 C527 0.929 1_565 S
H536 C544 0.929 . S
H537 C546 0.930 . S
H538 C548 0.930 . S
H539 C551 0.929 . S
H540 C554 0.930 . S
H541 C556 0.960 . S
H542 C556 0.960 . S
H543 C556 0.960 . S
C544 H536 0.929 . S
C544 C545 1.377 . S
C544 C546 1.384 . S
C545 C544 1.377 . S
C545 C551 1.390 . S
C546 H537 0.930 . S
C546 C544 1.384 . S
C546 C547 1.372 . S
C547 C546 1.372 . S
C547 C548 1.400 . S
C547 C552 1.490 . S
C548 H538 0.930 . S
C548 C547 1.400 . S
C548 C551 1.386 . S
H549 C565 0.930 . S
H550 C566 0.931 . S
C551 H539 0.929 . S
C551 C545 1.390 . S
C551 C548 1.386 . S
C552 C547 1.490 . S
C552 C554 1.395 . S
C552 C555 1.403 . S
H553 C559 0.930 . S
C554 H540 0.930 . S
C554 C552 1.395 . S
C554 C557 1.403 . S
C555 C552 1.403 . S
C555 C556 1.524 . S
C555 C559 1.400 . S
C556 H541 0.960 . S
C556 H542 0.960 . S
C556 H543 0.960 . S
C556 C555 1.524 . S
C557 C554 1.403 . S
C557 C558 1.392 . S
C557 C561 1.495 . S
C558 C557 1.392 . S
C558 C559 1.385 . S
C558 C560 1.478 . S
C559 H553 0.930 . S
C559 C555 1.400 . S
C559 C558 1.385 . S
C560 C558 1.478 . S
C560 C562 1.381 . S
C560 C566 1.383 . S
C561 C557 1.495 . S
C561 H567 0.959 . S
C561 H568 0.961 . S
C561 H569 0.960 . S
C562 C560 1.381 . S
C562 C563 1.394 . S
C562 H570 0.930 . S
C563 C562 1.394 . S
C563 C564 1.383 . S
C563 H571 0.929 . S
C564 C563 1.383 . S
C564 C565 1.377 . S
C565 H549 0.930 . S
C565 C564 1.377 . S
C565 C566 1.379 . S
C566 H550 0.931 . S
C566 C560 1.383 . S
C566 C565 1.379 . S
H567 C561 0.959 . S
H568 C561 0.961 . S
H569 C561 0.960 . S
H570 C562 0.930 . S
H571 C563 0.929 . S
H572 C580 0.929 . S
H573 C582 0.930 . S
H574 C584 0.930 . S
H575 C587 0.929 . S
H576 C590 0.930 . S
H577 C592 0.960 . S
H578 C592 0.960 . S
H579 C592 0.960 . S
C580 H572 0.929 . S
C580 C581 1.377 . S
C580 C582 1.384 . S
C581 C580 1.377 . S
C581 C587 1.390 . S
C582 H573 0.930 . S
C582 C580 1.384 . S
C582 C583 1.372 . S
C583 C582 1.372 . S
C583 C584 1.400 . S
C583 C588 1.490 . S
C584 H574 0.930 . S
C584 C583 1.400 . S
C584 C587 1.386 . S
H585 C601 0.930 . S
H586 C602 0.931 . S
C587 H575 0.929 . S
C587 C581 1.390 . S
C587 C584 1.386 . S
C588 C583 1.490 . S
C588 C590 1.395 . S
C588 C591 1.403 . S
H589 C595 0.930 . S
C590 H576 0.930 . S
C590 C588 1.395 . S
C590 C593 1.403 . S
C591 C588 1.403 . S
C591 C592 1.524 . S
C591 C595 1.400 . S
C592 H577 0.960 . S
C592 H578 0.960 . S
C592 H579 0.960 . S
C592 C591 1.524 . S
C593 C590 1.403 . S
C593 C594 1.392 . S
C593 C597 1.495 . S
C594 C593 1.392 . S
C594 C595 1.385 . S
C594 C596 1.478 . S
C595 H589 0.930 . S
C595 C591 1.400 . S
C595 C594 1.385 . S
C596 C594 1.478 . S
C596 C598 1.381 . S
C596 C602 1.383 . S
C597 C593 1.495 . S
C597 H603 0.959 . S
C597 H604 0.961 . S
C597 H605 0.960 . S
C598 C596 1.381 . S
C598 C599 1.394 . S
C598 H606 0.930 . S
C599 C598 1.394 . S
C599 C600 1.383 . S
C599 H607 0.929 . S
C600 C599 1.383 . S
C600 C601 1.377 . S
C601 H585 0.930 . S
C601 C600 1.377 . S
C601 C602 1.379 . S
C602 H586 0.931 . S
C602 C596 1.383 . S
C602 C601 1.379 . S
H603 C597 0.959 . S
H604 C597 0.961 . S
H605 C597 0.960 . S
H606 C598 0.930 . S
H607 C599 0.929 . S
H608 C616 0.929 . S
H609 C618 0.930 . S
H610 C620 0.930 . S
H611 C623 0.929 . S
H612 C626 0.930 . S
H613 C628 0.960 . S
H614 C628 0.960 . S
H615 C628 0.960 . S
C616 H608 0.929 . S
C616 C617 1.377 . S
C616 C618 1.384 . S
C617 C616 1.377 . S
C617 C623 1.390 . S
C618 H609 0.930 . S
C618 C616 1.384 . S
C618 C619 1.372 . S
C619 C618 1.372 . S
C619 C620 1.400 . S
C619 C624 1.490 . S
C620 H610 0.930 . S
C620 C619 1.400 . S
C620 C623 1.386 . S
H621 C637 0.930 . S
H622 C638 0.931 . S
C623 H611 0.929 . S
C623 C617 1.390 . S
C623 C620 1.386 . S
C624 C619 1.490 . S
C624 C626 1.395 . S
C624 C627 1.403 . S
H625 C631 0.930 . S
C626 H612 0.930 . S
C626 C624 1.395 . S
C626 C629 1.403 . S
C627 C624 1.403 . S
C627 C628 1.524 . S
C627 C631 1.400 . S
C628 H613 0.960 . S
C628 H614 0.960 . S
C628 H615 0.960 . S
C628 C627 1.524 . S
C629 C626 1.403 . S
C629 C630 1.392 . S
C629 C633 1.495 . S
C630 C629 1.392 . S
C630 C631 1.385 . S
C630 C632 1.478 . S
C631 H625 0.930 . S
C631 C627 1.400 . S
C631 C630 1.385 . S
C632 C630 1.478 . S
C632 C634 1.381 . S
C632 C638 1.383 . S
C633 C629 1.495 . S
C633 H639 0.959 . S
C633 H640 0.961 . S
C633 H641 0.960 . S
C634 C632 1.381 . S
C634 C635 1.394 . S
C634 H642 0.930 . S
C635 C634 1.394 . S
C635 C636 1.383 . S
C635 H643 0.929 . S
C636 C635 1.383 . S
C636 C637 1.377 . S
C637 H621 0.930 . S
C637 C636 1.377 . S
C637 C638 1.379 . S
C638 H622 0.931 . S
C638 C632 1.383 . S
C638 C637 1.379 . S
H639 C633 0.959 . S
H640 C633 0.961 . S
H641 C633 0.960 . S
H642 C634 0.930 . S
H643 C635 0.929 . S
H644 C652 0.929 . S
H645 C654 0.930 . S
H646 C656 0.930 . S
H647 C659 0.929 . S
H648 C662 0.930 . S
H649 C664 0.960 . S
H650 C664 0.960 . S
H651 C664 0.960 . S
C652 H644 0.929 . S
C652 C653 1.377 . S
C652 C654 1.384 . S
C653 C652 1.377 . S
C653 C659 1.390 . S
C654 H645 0.930 . S
C654 C652 1.384 . S
C654 C655 1.372 . S
C655 C654 1.372 . S
C655 C656 1.400 . S
C655 C660 1.490 . S
C656 H646 0.930 . S
C656 C655 1.400 . S
C656 C659 1.386 . S
H657 C673 0.930 . S
H658 C674 0.931 . S
C659 H647 0.929 . S
C659 C653 1.390 . S
C659 C656 1.386 . S
C660 C655 1.490 . S
C660 C662 1.395 . S
C660 C663 1.403 . S
H661 C667 0.930 . S
C662 H648 0.930 . S
C662 C660 1.395 . S
C662 C665 1.403 . S
C663 C660 1.403 . S
C663 C664 1.524 . S
C663 C667 1.400 . S
C664 H649 0.960 . S
C664 H650 0.960 . S
C664 H651 0.960 . S
C664 C663 1.524 . S
C665 C662 1.403 . S
C665 C666 1.392 . S
C665 C669 1.495 . S
C666 C665 1.392 . S
C666 C667 1.385 . S
C666 C668 1.478 . S
C667 H661 0.930 . S
C667 C663 1.400 . S
C667 C666 1.385 . S
C668 C666 1.478 . S
C668 C670 1.381 . S
C668 C674 1.383 . S
C669 C665 1.495 . S
C669 H675 0.959 . S
C669 H676 0.961 . S
C669 H677 0.960 . S
C670 C668 1.381 . S
C670 C671 1.394 . S
C670 H678 0.930 . S
C671 C670 1.394 . S
C671 C672 1.383 . S
C671 H679 0.929 . S
C672 C671 1.383 . S
C672 C673 1.377 . S
C673 H657 0.930 . S
C673 C672 1.377 . S
C673 C674 1.379 . S
C674 H658 0.931 . S
C674 C668 1.383 . S
C674 C673 1.379 . S
H675 C669 0.959 . S
H676 C669 0.961 . S
H677 C669 0.960 . S
H678 C670 0.930 . S
H679 C671 0.929 . S
H680 C688 0.929 . S
H681 C690 0.930 . S
H682 C692 0.930 . S
H683 C695 0.929 . S
H684 C698 0.930 . S
H685 C700 0.960 . S
H686 C700 0.960 . S
H687 C700 0.960 . S
C688 H680 0.929 . S
C688 C689 1.377 . S
C688 C690 1.384 . S
C689 C688 1.377 . S
C689 C695 1.390 . S
C690 H681 0.930 . S
C690 C688 1.384 . S
C690 C691 1.372 . S
C691 C690 1.372 . S
C691 C692 1.400 . S
C691 C696 1.490 . S
C692 H682 0.930 . S
C692 C691 1.400 . S
C692 C695 1.386 . S
H693 C709 0.930 . S
H694 C710 0.931 . S
C695 H683 0.929 . S
C695 C689 1.390 . S
C695 C692 1.386 . S
C696 C691 1.490 . S
C696 C698 1.395 . S
C696 C699 1.403 . S
H697 C703 0.930 . S
C698 H684 0.930 . S
C698 C696 1.395 . S
C698 C701 1.403 . S
C699 C696 1.403 . S
C699 C700 1.524 . S
C699 C703 1.400 . S
C700 H685 0.960 . S
C700 H686 0.960 . S
C700 H687 0.960 . S
C700 C699 1.524 . S
C701 C698 1.403 . S
C701 C702 1.392 . S
C701 C705 1.495 . S
C702 C701 1.392 . S
C702 C703 1.385 . S
C702 C704 1.478 . S
C703 H697 0.930 . S
C703 C699 1.400 . S
C703 C702 1.385 . S
C704 C702 1.478 . S
C704 C706 1.381 . S
C704 C710 1.383 . S
C705 C701 1.495 . S
C705 H711 0.959 . S
C705 H712 0.961 . S
C705 H713 0.960 . S
C706 C704 1.381 . S
C706 C707 1.394 . S
C706 H714 0.930 . S
C707 C706 1.394 . S
C707 C708 1.383 . S
C707 H715 0.929 . S
C708 C707 1.383 . S
C708 C709 1.377 . S
C709 H693 0.930 . S
C709 C708 1.377 . S
C709 C710 1.379 . S
C710 H694 0.931 . S
C710 C704 1.383 . S
C710 C709 1.379 . S
H711 C705 0.959 . S
H712 C705 0.961 . S
H713 C705 0.960 . S
H714 C706 0.930 . S
H715 C707 0.929 . S
H716 C724 0.929 . S
H717 C726 0.930 . S
H718 C728 0.930 . S
H719 C731 0.929 . S
H720 C734 0.930 . S
H721 C736 0.960 . S
H722 C736 0.960 . S
H723 C736 0.960 . S
C724 H716 0.929 . S
C724 C725 1.377 . S
C724 C726 1.384 . S
C725 C724 1.377 . S
C725 C731 1.390 . S
C726 H717 0.930 . S
C726 C724 1.384 . S
C726 C727 1.372 . S
C727 C726 1.372 . S
C727 C728 1.400 . S
C727 C732 1.490 . S
C728 H718 0.930 . S
C728 C727 1.400 . S
C728 C731 1.386 . S
H729 C745 0.930 . S
H730 C746 0.931 . S
C731 H719 0.929 . S
C731 C725 1.390 . S
C731 C728 1.386 . S
C732 C727 1.490 . S
C732 C734 1.395 . S
C732 C735 1.403 . S
H733 C739 0.930 . S
C734 H720 0.930 . S
C734 C732 1.395 . S
C734 C737 1.403 . S
C735 C732 1.403 . S
C735 C736 1.524 . S
C735 C739 1.400 . S
C736 H721 0.960 . S
C736 H722 0.960 . S
C736 H723 0.960 . S
C736 C735 1.524 . S
C737 C734 1.403 . S
C737 C738 1.392 . S
C737 C741 1.495 . S
C738 C737 1.392 . S
C738 C739 1.385 . S
C738 C740 1.478 . S
C739 H733 0.930 . S
C739 C735 1.400 . S
C739 C738 1.385 . S
C740 C738 1.478 . S
C740 C742 1.381 . S
C740 C746 1.383 . S
C741 C737 1.495 . S
C741 H747 0.959 . S
C741 H748 0.961 . S
C741 H749 0.960 . S
C742 C740 1.381 . S
C742 C743 1.394 . S
C742 H750 0.930 . S
C743 C742 1.394 . S
C743 C744 1.383 . S
C743 H751 0.929 . S
C744 C743 1.383 . S
C744 C745 1.377 . S
C745 H729 0.930 . S
C745 C744 1.377 . S
C745 C746 1.379 . S
C746 H730 0.931 . S
C746 C740 1.383 . S
C746 C745 1.379 . S
H747 C741 0.959 . S
H748 C741 0.961 . S
H749 C741 0.960 . S
H750 C742 0.930 . S
H751 C743 0.929 . S
H752 C760 0.929 . S
H753 C762 0.930 . S
H754 C764 0.930 . S
H755 C767 0.929 1_545 S
H756 C770 0.930 . S
H757 C772 0.960 . S
H758 C772 0.960 . S
H759 C772 0.960 . S
C760 H752 0.929 . S
C760 C761 1.377 . S
C760 C762 1.384 . S
C761 C760 1.377 . S
C761 C767 1.390 . S
C762 H753 0.930 . S
C762 C760 1.384 . S
C762 C763 1.372 . S
C763 C762 1.372 . S
C763 C764 1.400 . S
C763 C768 1.490 . S
C764 H754 0.930 . S
C764 C763 1.400 . S
C764 C767 1.386 . S
H765 C781 0.930 . S
H766 C782 0.931 . S
C767 H755 0.929 1_565 S
C767 C761 1.390 . S
C767 C764 1.386 . S
C768 C763 1.490 . S
C768 C770 1.395 . S
C768 C771 1.403 . S
H769 C775 0.930 . S
C770 H756 0.930 . S
C770 C768 1.395 . S
C770 C773 1.403 . S
C771 C768 1.403 . S
C771 C772 1.524 . S
C771 C775 1.400 . S
C772 H757 0.960 . S
C772 H758 0.960 . S
C772 H759 0.960 . S
C772 C771 1.524 . S
C773 C770 1.403 . S
C773 C774 1.392 . S
C773 C777 1.495 . S
C774 C773 1.392 . S
C774 C775 1.385 . S
C774 C776 1.478 . S
C775 H769 0.930 . S
C775 C771 1.400 . S
C775 C774 1.385 . S
C776 C774 1.478 . S
C776 C778 1.381 . S
C776 C782 1.383 . S
C777 C773 1.495 . S
C777 H783 0.959 . S
C777 H784 0.961 . S
C777 H785 0.960 . S
C778 C776 1.381 . S
C778 C779 1.394 . S
C778 H786 0.930 . S
C779 C778 1.394 . S
C779 C780 1.383 . S
C779 H787 0.929 . S
C780 C779 1.383 . S
C780 C781 1.377 . S
C781 H765 0.930 . S
C781 C780 1.377 . S
C781 C782 1.379 . S
C782 H766 0.931 . S
C782 C776 1.383 . S
C782 C781 1.379 . S
H783 C777 0.959 . S
H784 C777 0.961 . S
H785 C777 0.960 . S
H786 C778 0.930 . S
H787 C779 0.929 . S
H788 C796 0.929 . S
H789 C798 0.930 . S
H790 C800 0.930 . S
H791 C803 0.929 . S
H792 C806 0.930 . S
H793 C808 0.960 . S
H794 C808 0.960 . S
H795 C808 0.960 . S
C796 H788 0.929 . S
C796 C797 1.377 . S
C796 C798 1.384 . S
C797 C796 1.377 . S
C797 C803 1.390 . S
C798 H789 0.930 . S
C798 C796 1.384 . S
C798 C799 1.372 . S
C799 C798 1.372 . S
C799 C800 1.400 . S
C799 C804 1.490 . S
C800 H790 0.930 . S
C800 C799 1.400 . S
C800 C803 1.386 . S
H801 C817 0.930 . S
H802 C818 0.931 . S
C803 H791 0.929 . S
C803 C797 1.390 . S
C803 C800 1.386 . S
C804 C799 1.490 . S
C804 C806 1.395 . S
C804 C807 1.403 . S
H805 C811 0.930 . S
C806 H792 0.930 . S
C806 C804 1.395 . S
C806 C809 1.403 . S
C807 C804 1.403 . S
C807 C808 1.524 . S
C807 C811 1.400 . S
C808 H793 0.960 . S
C808 H794 0.960 . S
C808 H795 0.960 . S
C808 C807 1.524 . S
C809 C806 1.403 . S
C809 C810 1.392 . S
C809 C813 1.495 . S
C810 C809 1.392 . S
C810 C811 1.385 . S
C810 C812 1.478 . S
C811 H805 0.930 . S
C811 C807 1.400 . S
C811 C810 1.385 . S
C812 C810 1.478 . S
C812 C814 1.381 . S
C812 C818 1.383 . S
C813 C809 1.495 . S
C813 H819 0.959 . S
C813 H820 0.961 . S
C813 H821 0.960 . S
C814 C812 1.381 . S
C814 C815 1.394 . S
C814 H822 0.930 . S
C815 C814 1.394 . S
C815 C816 1.383 . S
C815 H823 0.929 . S
C816 C815 1.383 . S
C816 C817 1.377 . S
C817 H801 0.930 . S
C817 C816 1.377 . S
C817 C818 1.379 . S
C818 H802 0.931 . S
C818 C812 1.383 . S
C818 C817 1.379 . S
H819 C813 0.959 . S
H820 C813 0.961 . S
H821 C813 0.960 . S
H822 C814 0.930 . S
H823 C815 0.929 . S
H824 C832 0.929 . S
H825 C834 0.930 . S
H826 C836 0.930 . S
H827 C839 0.929 . S
H828 C842 0.930 . S
H829 C844 0.960 . S
H830 C844 0.960 . S
H831 C844 0.960 . S
C832 H824 0.929 . S
C832 C833 1.377 . S
C832 C834 1.384 . S
C833 C832 1.377 . S
C833 C839 1.390 . S
C834 H825 0.930 . S
C834 C832 1.384 . S
C834 C835 1.372 . S
C835 C834 1.372 . S
C835 C836 1.400 . S
C835 C840 1.490 . S
C836 H826 0.930 . S
C836 C835 1.400 . S
C836 C839 1.386 . S
H837 C853 0.930 . S
H838 C854 0.931 . S
C839 H827 0.929 . S
C839 C833 1.390 . S
C839 C836 1.386 . S
C840 C835 1.490 . S
C840 C842 1.395 . S
C840 C843 1.403 . S
H841 C847 0.930 . S
C842 H828 0.930 . S
C842 C840 1.395 . S
C842 C845 1.403 . S
C843 C840 1.403 . S
C843 C844 1.524 . S
C843 C847 1.400 . S
C844 H829 0.960 . S
C844 H830 0.960 . S
C844 H831 0.960 . S
C844 C843 1.524 . S
C845 C842 1.403 . S
C845 C846 1.392 . S
C845 C849 1.495 . S
C846 C845 1.392 . S
C846 C847 1.385 . S
C846 C848 1.478 . S
C847 H841 0.930 . S
C847 C843 1.400 . S
C847 C846 1.385 . S
C848 C846 1.478 . S
C848 C850 1.381 . S
C848 C854 1.383 . S
C849 C845 1.495 . S
C849 H855 0.959 . S
C849 H856 0.961 . S
C849 H857 0.960 . S
C850 C848 1.381 . S
C850 C851 1.394 . S
C850 H858 0.930 . S
C851 C850 1.394 . S
C851 C852 1.383 . S
C851 H859 0.929 . S
C852 C851 1.383 . S
C852 C853 1.377 . S
C853 H837 0.930 . S
C853 C852 1.377 . S
C853 C854 1.379 . S
C854 H838 0.931 . S
C854 C848 1.383 . S
C854 C853 1.379 . S
H855 C849 0.959 . S
H856 C849 0.961 . S
H857 C849 0.960 . S
H858 C850 0.930 . S
H859 C851 0.929 . S
H860 C868 0.929 . S
H861 C870 0.930 . S
H862 C872 0.930 . S
H863 C875 0.929 . S
H864 C878 0.930 . S
H865 C880 0.960 . S
H866 C880 0.960 . S
H867 C880 0.960 . S
C868 H860 0.929 . S
C868 C869 1.377 . S
C868 C870 1.384 . S
C869 C868 1.377 . S
C869 C875 1.390 . S
C870 H861 0.930 . S
C870 C868 1.384 . S
C870 C871 1.372 . S
C871 C870 1.372 . S
C871 C872 1.400 . S
C871 C876 1.490 . S
C872 H862 0.930 . S
C872 C871 1.400 . S
C872 C875 1.386 . S
H873 C889 0.930 . S
H874 C890 0.931 . S
C875 H863 0.929 . S
C875 C869 1.390 . S
C875 C872 1.386 . S
C876 C871 1.490 . S
C876 C878 1.395 . S
C876 C879 1.403 . S
H877 C883 0.930 . S
C878 H864 0.930 . S
C878 C876 1.395 . S
C878 C881 1.403 . S
C879 C876 1.403 . S
C879 C880 1.524 . S
C879 C883 1.400 . S
C880 H865 0.960 . S
C880 H866 0.960 . S
C880 H867 0.960 . S
C880 C879 1.524 . S
C881 C878 1.403 . S
C881 C882 1.392 . S
C881 C885 1.495 . S
C882 C881 1.392 . S
C882 C883 1.385 . S
C882 C884 1.478 . S
C883 H877 0.930 . S
C883 C879 1.400 . S
C883 C882 1.385 . S
C884 C882 1.478 . S
C884 C886 1.381 . S
C884 C890 1.383 . S
C885 C881 1.495 . S
C885 H891 0.959 . S
C885 H892 0.961 . S
C885 H893 0.960 . S
C886 C884 1.381 . S
C886 C887 1.394 . S
C886 H894 0.930 . S
C887 C886 1.394 . S
C887 C888 1.383 . S
C887 H895 0.929 . S
C888 C887 1.383 . S
C888 C889 1.377 . S
C889 H873 0.930 . S
C889 C888 1.377 . S
C889 C890 1.379 . S
C890 H874 0.931 . S
C890 C884 1.383 . S
C890 C889 1.379 . S
H891 C885 0.959 . S
H892 C885 0.961 . S
H893 C885 0.960 . S
H894 C886 0.930 . S
H895 C887 0.929 . S
H896 C904 0.929 . S
H897 C906 0.930 . S
H898 C908 0.930 . S
H899 C911 0.929 . S
H900 C914 0.930 . S
H901 C916 0.960 . S
H902 C916 0.960 . S
H903 C916 0.960 . S
C904 H896 0.929 . S
C904 C905 1.377 . S
C904 C906 1.384 . S
C905 C904 1.377 . S
C905 C911 1.390 . S
C906 H897 0.930 . S
C906 C904 1.384 . S
C906 C907 1.372 . S
C907 C906 1.372 . S
C907 C908 1.400 . S
C907 C912 1.490 . S
C908 H898 0.930 . S
C908 C907 1.400 . S
C908 C911 1.386 . S
H909 C925 0.930 . S
H910 C926 0.931 . S
C911 H899 0.929 . S
C911 C905 1.390 . S
C911 C908 1.386 . S
C912 C907 1.490 . S
C912 C914 1.395 . S
C912 C915 1.403 . S
H913 C919 0.930 . S
C914 H900 0.930 . S
C914 C912 1.395 . S
C914 C917 1.403 . S
C915 C912 1.403 . S
C915 C916 1.524 . S
C915 C919 1.400 . S
C916 H901 0.960 . S
C916 H902 0.960 . S
C916 H903 0.960 . S
C916 C915 1.524 . S
C917 C914 1.403 . S
C917 C918 1.392 . S
C917 C921 1.495 . S
C918 C917 1.392 . S
C918 C919 1.385 . S
C918 C920 1.478 . S
C919 H913 0.930 . S
C919 C915 1.400 . S
C919 C918 1.385 . S
C920 C918 1.478 . S
C920 C922 1.381 . S
C920 C926 1.383 . S
C921 C917 1.495 . S
C921 H927 0.959 . S
C921 H928 0.961 . S
C921 H929 0.960 . S
C922 C920 1.381 . S
C922 C923 1.394 . S
C922 H930 0.930 . S
C923 C922 1.394 . S
C923 C924 1.383 . S
C923 H931 0.929 . S
C924 C923 1.383 . S
C924 C925 1.377 . S
C925 H909 0.930 . S
C925 C924 1.377 . S
C925 C926 1.379 . S
C926 H910 0.931 . S
C926 C920 1.383 . S
C926 C925 1.379 . S
H927 C921 0.959 . S
H928 C921 0.961 . S
H929 C921 0.960 . S
H930 C922 0.930 . S
H931 C923 0.929 . S
H932 C940 0.929 . S
H933 C942 0.930 . S
H934 C944 0.930 . S
H935 C947 0.929 . S
H936 C950 0.930 . S
H937 C952 0.960 . S
H938 C952 0.960 . S
H939 C952 0.960 . S
C940 H932 0.929 . S
C940 C941 1.377 . S
C940 C942 1.384 . S
C941 C940 1.377 . S
C941 C947 1.390 . S
C942 H933 0.930 . S
C942 C940 1.384 . S
C942 C943 1.372 . S
C943 C942 1.372 . S
C943 C944 1.400 . S
C943 C948 1.490 . S
C944 H934 0.930 . S
C944 C943 1.400 . S
C944 C947 1.386 . S
H945 C961 0.930 . S
H946 C962 0.931 . S
C947 H935 0.929 . S
C947 C941 1.390 . S
C947 C944 1.386 . S
C948 C943 1.490 . S
C948 C950 1.395 . S
C948 C951 1.403 . S
H949 C955 0.930 . S
C950 H936 0.930 . S
C950 C948 1.395 . S
C950 C953 1.403 . S
C951 C948 1.403 . S
C951 C952 1.524 . S
C951 C955 1.400 . S
C952 H937 0.960 . S
C952 H938 0.960 . S
C952 H939 0.960 . S
C952 C951 1.524 . S
C953 C950 1.403 . S
C953 C954 1.392 . S
C953 C957 1.495 . S
C954 C953 1.392 . S
C954 C955 1.385 . S
C954 C956 1.478 . S
C955 H949 0.930 . S
C955 C951 1.400 . S
C955 C954 1.385 . S
C956 C954 1.478 . S
C956 C958 1.381 . S
C956 C962 1.383 . S
C957 C953 1.495 . S
C957 H963 0.959 . S
C957 H964 0.961 . S
C957 H965 0.960 . S
C958 C956 1.381 . S
C958 C959 1.394 . S
C958 H966 0.930 . S
C959 C958 1.394 . S
C959 C960 1.383 . S
C959 H967 0.929 . S
C960 C959 1.383 . S
C960 C961 1.377 . S
C961 H945 0.930 . S
C961 C960 1.377 . S
C961 C962 1.379 . S
C962 H946 0.931 . S
C962 C956 1.383 . S
C962 C961 1.379 . S
H963 C957 0.959 . S
H964 C957 0.961 . S
H965 C957 0.960 . S
H966 C958 0.930 . S
H967 C959 0.929 . S
H968 C976 0.929 . S
H969 C978 0.930 . S
H970 C980 0.930 . S
H971 C983 0.929 . S
H972 C986 0.930 . S
H973 C988 0.960 . S
H974 C988 0.960 . S
H975 C988 0.960 . S
C976 H968 0.929 . S
C976 C977 1.377 . S
C976 C978 1.384 . S
C977 C976 1.377 . S
C977 C983 1.390 . S
C978 H969 0.930 . S
C978 C976 1.384 . S
C978 C979 1.372 . S
C979 C978 1.372 . S
C979 C980 1.400 . S
C979 C984 1.490 . S
C980 H970 0.930 . S
C980 C979 1.400 . S
C980 C983 1.386 . S
H981 C997 0.930 . S
H982 C998 0.931 . S
C983 H971 0.929 . S
C983 C977 1.390 . S
C983 C980 1.386 . S
C984 C979 1.490 . S
C984 C986 1.395 . S
C984 C987 1.403 . S
H985 C991 0.930 . S
C986 H972 0.930 . S
C986 C984 1.395 . S
C986 C989 1.403 . S
C987 C984 1.403 . S
C987 C988 1.524 . S
C987 C991 1.400 . S
C988 H973 0.960 . S
C988 H974 0.960 . S
C988 H975 0.960 . S
C988 C987 1.524 . S
C989 C986 1.403 . S
C989 C990 1.392 . S
C989 C993 1.495 . S
C990 C989 1.392 . S
C990 C991 1.385 . S
C990 C992 1.478 . S
C991 H985 0.930 . S
C991 C987 1.400 . S
C991 C990 1.385 . S
C992 C990 1.478 . S
C992 C994 1.381 . S
C992 C998 1.383 . S
C993 C989 1.495 . S
C993 H999 0.959 . S
C993 H1000 0.961 . S
C993 H1001 0.960 . S
C994 C992 1.381 . S
C994 C995 1.394 . S
C994 H1002 0.930 . S
C995 C994 1.394 . S
C995 C996 1.383 . S
C995 H1003 0.929 . S
C996 C995 1.383 . S
C996 C997 1.377 . S
C997 H981 0.930 . S
C997 C996 1.377 . S
C997 C998 1.379 . S
C998 H982 0.931 . S
C998 C992 1.383 . S
C998 C997 1.379 . S
H999 C993 0.959 . S
H1000 C993 0.961 . S
H1001 C993 0.960 . S
H1002 C994 0.930 . S
H1003 C995 0.929 . S
H1004 C1012 0.929 . S
H1005 C1014 0.930 . S
H1006 C1016 0.930 . S
H1007 C1019 0.929 . S
H1008 C1022 0.930 . S
H1009 C1024 0.960 . S
H1010 C1024 0.960 . S
H1011 C1024 0.960 . S
C1012 H1004 0.929 . S
C1012 C1013 1.377 . S
C1012 C1014 1.384 . S
C1013 C1012 1.377 . S
C1013 C1019 1.390 . S
C1014 H1005 0.930 . S
C1014 C1012 1.384 . S
C1014 C1015 1.372 . S
C1015 C1014 1.372 . S
C1015 C1016 1.400 . S
C1015 C1020 1.490 . S
C1016 H1006 0.930 . S
C1016 C1015 1.400 . S
C1016 C1019 1.386 . S
H1017 C1033 0.930 . S
H1018 C1034 0.931 . S
C1019 H1007 0.929 . S
C1019 C1013 1.390 . S
C1019 C1016 1.386 . S
C1020 C1015 1.490 . S
C1020 C1022 1.395 . S
C1020 C1023 1.403 . S
H1021 C1027 0.930 . S
C1022 H1008 0.930 . S
C1022 C1020 1.395 . S
C1022 C1025 1.403 . S
C1023 C1020 1.403 . S
C1023 C1024 1.524 . S
C1023 C1027 1.400 . S
C1024 H1009 0.960 . S
C1024 H1010 0.960 . S
C1024 H1011 0.960 . S
C1024 C1023 1.524 . S
C1025 C1022 1.403 . S
C1025 C1026 1.392 . S
C1025 C1029 1.495 . S
C1026 C1025 1.392 . S
C1026 C1027 1.385 . S
C1026 C1028 1.478 . S
C1027 H1021 0.930 . S
C1027 C1023 1.400 . S
C1027 C1026 1.385 . S
C1028 C1026 1.478 . S
C1028 C1030 1.381 . S
C1028 C1034 1.383 . S
C1029 C1025 1.495 . S
C1029 H1035 0.959 . S
C1029 H1036 0.961 . S
C1029 H1037 0.960 . S
C1030 C1028 1.381 . S
C1030 C1031 1.394 . S
C1030 H1038 0.930 . S
C1031 C1030 1.394 . S
C1031 C1032 1.383 . S
C1031 H1039 0.929 . S
C1032 C1031 1.383 . S
C1032 C1033 1.377 . S
C1033 H1017 0.930 . S
C1033 C1032 1.377 . S
C1033 C1034 1.379 . S
C1034 H1018 0.931 . S
C1034 C1028 1.383 . S
C1034 C1033 1.379 . S
H1035 C1029 0.959 . S
H1036 C1029 0.961 . S
H1037 C1029 0.960 . S
H1038 C1030 0.930 . S
H1039 C1031 0.929 . S
H1040 C1048 0.929 . S
H1041 C1050 0.930 . S
H1042 C1052 0.930 . S
H1043 C1055 0.929 . S
H1044 C1058 0.930 . S
H1045 C1060 0.960 . S
H1046 C1060 0.960 . S
H1047 C1060 0.960 . S
C1048 H1040 0.929 . S
C1048 C1049 1.377 . S
C1048 C1050 1.384 . S
C1049 C1048 1.377 . S
C1049 C1055 1.390 . S
C1050 H1041 0.930 . S
C1050 C1048 1.384 . S
C1050 C1051 1.372 . S
C1051 C1050 1.372 . S
C1051 C1052 1.400 . S
C1051 C1056 1.490 . S
C1052 H1042 0.930 . S
C1052 C1051 1.400 . S
C1052 C1055 1.386 . S
H1053 C1069 0.930 . S
H1054 C1070 0.931 . S
C1055 H1043 0.929 . S
C1055 C1049 1.390 . S
C1055 C1052 1.386 . S
C1056 C1051 1.490 . S
C1056 C1058 1.395 . S
C1056 C1059 1.403 1_554 S
H1057 C1063 0.930 . S
C1058 H1044 0.930 . S
C1058 C1056 1.395 . S
C1058 C1061 1.403 . S
C1059 C1056 1.403 1_556 S
C1059 C1060 1.524 . S
C1059 C1063 1.400 . S
C1060 H1045 0.960 . S
C1060 H1046 0.960 . S
C1060 H1047 0.960 . S
C1060 C1059 1.524 . S
C1061 C1058 1.403 . S
C1061 C1062 1.392 . S
C1061 C1065 1.495 . S
C1062 C1061 1.392 . S
C1062 C1063 1.385 1_554 S
C1062 C1064 1.478 . S
C1063 H1057 0.930 . S
C1063 C1059 1.400 . S
C1063 C1062 1.385 1_556 S
C1064 C1062 1.478 . S
C1064 C1066 1.381 . S
C1064 C1070 1.383 . S
C1065 C1061 1.495 . S
C1065 H1071 0.959 . S
C1065 H1072 0.961 . S
C1065 H1073 0.960 . S
C1066 C1064 1.381 . S
C1066 C1067 1.394 . S
C1066 H1074 0.930 . S
C1067 C1066 1.394 . S
C1067 C1068 1.383 . S
C1067 H1075 0.929 . S
C1068 C1067 1.383 . S
C1068 C1069 1.377 . S
C1069 H1053 0.930 . S
C1069 C1068 1.377 . S
C1069 C1070 1.379 . S
C1070 H1054 0.931 . S
C1070 C1064 1.383 . S
C1070 C1069 1.379 . S
H1071 C1065 0.959 . S
H1072 C1065 0.961 . S
H1073 C1065 0.960 . S
H1074 C1066 0.930 . S
H1075 C1067 0.929 . S
H1076 C1084 0.929 . S
H1077 C1086 0.930 . S
H1078 C1088 0.930 . S
H1079 C1091 0.929 . S
H1080 C1094 0.930 . S
H1081 C1096 0.960 . S
H1082 C1096 0.960 . S
H1083 C1096 0.960 . S
C1084 H1076 0.929 . S
C1084 C1085 1.377 . S
C1084 C1086 1.384 . S
C1085 C1084 1.377 . S
C1085 C1091 1.390 . S
C1086 H1077 0.930 . S
C1086 C1084 1.384 . S
C1086 C1087 1.372 . S
C1087 C1086 1.372 . S
C1087 C1088 1.400 . S
C1087 C1092 1.490 . S
C1088 H1078 0.930 . S
C1088 C1087 1.400 . S
C1088 C1091 1.386 . S
H1089 C1105 0.930 . S
H1090 C1106 0.931 . S
C1091 H1079 0.929 . S
C1091 C1085 1.390 . S
C1091 C1088 1.386 . S
C1092 C1087 1.490 . S
C1092 C1094 1.395 1_554 S
C1092 C1095 1.403 . S
H1093 C1099 0.930 . S
C1094 H1080 0.930 . S
C1094 C1092 1.395 1_556 S
C1094 C1097 1.403 . S
C1095 C1092 1.403 . S
C1095 C1096 1.524 . S
C1095 C1099 1.400 . S
C1096 H1081 0.960 . S
C1096 H1082 0.960 . S
C1096 H1083 0.960 . S
C1096 C1095 1.524 . S
C1097 C1094 1.403 . S
C1097 C1098 1.392 1_556 S
C1097 C1101 1.495 . S
C1098 C1097 1.392 1_554 S
C1098 C1099 1.385 . S
C1098 C1100 1.478 . S
C1099 H1093 0.930 . S
C1099 C1095 1.400 . S
C1099 C1098 1.385 . S
C1100 C1098 1.478 . S
C1100 C1102 1.381 . S
C1100 C1106 1.383 . S
C1101 C1097 1.495 . S
C1101 H1107 0.959 . S
C1101 H1108 0.961 . S
C1101 H1109 0.960 . S
C1102 C1100 1.381 . S
C1102 C1103 1.394 . S
C1102 H1110 0.930 . S
C1103 C1102 1.394 . S
C1103 C1104 1.383 . S
C1103 H1111 0.929 . S
C1104 C1103 1.383 . S
C1104 C1105 1.377 . S
C1105 H1089 0.930 . S
C1105 C1104 1.377 . S
C1105 C1106 1.379 . S
C1106 H1090 0.931 . S
C1106 C1100 1.383 . S
C1106 C1105 1.379 . S
H1107 C1101 0.959 . S
H1108 C1101 0.961 . S
H1109 C1101 0.960 . S
H1110 C1102 0.930 . S
H1111 C1103 0.929 . S
H1112 C1120 0.929 . S
H1113 C1122 0.930 . S
H1114 C1124 0.930 1_455 S
H1115 C1127 0.933 . S
H1116 C1130 0.930 . S
H1117 C1132 0.963 . S
H1118 C1132 0.954 1_655 S
H1119 C1132 0.964 . S
C1120 H1112 0.929 . S
C1120 C1121 1.377 . S
C1120 C1122 1.384 . S
C1121 C1120 1.377 . S
C1121 C1127 1.390 . S
C1122 H1113 0.930 . S
C1122 C1120 1.384 . S
C1122 C1123 1.372 . S
C1123 C1122 1.372 . S
C1123 C1124 1.400 . S
C1123 C1128 1.490 . S
C1124 H1114 0.930 1_655 S
C1124 C1123 1.400 . S
C1124 C1127 1.386 . S
H1125 C1141 0.930 . S
H1126 C1142 0.931 . S
C1127 H1115 0.933 . S
C1127 C1121 1.390 . S
C1127 C1124 1.386 . S
C1128 C1123 1.490 . S
C1128 C1130 1.395 . S
C1128 C1131 1.411 . S
H1129 C1135 0.930 . S
C1130 H1116 0.930 . S
C1130 C1128 1.395 . S
C1130 C1133 1.403 . S
C1131 C1128 1.411 . S
C1131 C1132 1.523 1_655 S
C1131 C1135 1.393 1_655 S
C1132 H1117 0.963 . S
C1132 H1118 0.954 1_455 S
C1132 H1119 0.964 . S
C1132 C1131 1.523 1_455 S
C1133 C1130 1.403 . S
C1133 C1134 1.392 1_655 S
C1133 C1137 1.495 . S
C1134 C1133 1.392 1_455 S
C1134 C1135 1.385 . S
C1134 C1136 1.478 . S
C1135 H1129 0.930 . S
C1135 C1131 1.393 1_455 S
C1135 C1134 1.385 . S
C1136 C1134 1.478 . S
C1136 C1138 1.416 . S
C1136 C1142 1.383 . S
C1137 C1133 1.495 . S
C1137 H1143 0.959 . S
C1137 H1144 0.961 1_655 S
C1137 H1145 0.960 . S
C1138 C1136 1.416 . S
C1138 C1139 1.415 . S
C1138 H1146 0.875 1_455 S
C1139 C1138 1.415 . S
C1139 C1140 1.383 . S
C1139 H1147 0.914 1_455 S
C1140 C1139 1.383 . S
C1140 C1141 1.377 . S
C1141 H1125 0.930 . S
C1141 C1140 1.377 . S
C1141 C1142 1.379 . S
C1142 H1126 0.931 . S
C1142 C1136 1.383 . S
C1142 C1141 1.379 . S
H1143 C1137 0.959 . S
H1144 C1137 0.961 1_455 S
H1145 C1137 0.960 . S
H1146 C1138 0.875 1_655 S
H1147 C1139 0.914 1_655 S
H1148 C1156 0.929 . S
H1149 C1158 0.930 . S
H1150 C1160 0.930 . S
H1151 C1163 0.929 . S
H1152 C1166 0.930 . S
H1153 C1168 0.960 . S
H1154 C1168 0.960 . S
H1155 C1168 0.960 . S
C1156 H1148 0.929 . S
C1156 C1157 1.377 . S
C1156 C1158 1.384 . S
C1157 C1156 1.377 . S
C1157 C1163 1.390 . S
C1158 H1149 0.930 . S
C1158 C1156 1.384 . S
C1158 C1159 1.372 . S
C1159 C1158 1.372 . S
C1159 C1160 1.400 . S
C1159 C1164 1.490 . S
C1160 H1150 0.930 . S
C1160 C1159 1.400 . S
C1160 C1163 1.386 . S
H1161 C1177 0.930 . S
H1162 C1178 0.931 . S
C1163 H1151 0.929 . S
C1163 C1157 1.390 . S
C1163 C1160 1.386 . S
C1164 C1159 1.490 . S
C1164 C1166 1.395 . S
C1164 C1167 1.403 . S
H1165 C1171 0.930 . S
C1166 H1152 0.930 . S
C1166 C1164 1.395 . S
C1166 C1169 1.403 . S
C1167 C1164 1.403 . S
C1167 C1168 1.524 . S
C1167 C1171 1.400 . S
C1168 H1153 0.960 . S
C1168 H1154 0.960 . S
C1168 H1155 0.960 . S
C1168 C1167 1.524 . S
C1169 C1166 1.403 . S
C1169 C1170 1.392 . S
C1169 C1173 1.495 . S
C1170 C1169 1.392 . S
C1170 C1171 1.385 . S
C1170 C1172 1.478 . S
C1171 H1165 0.930 . S
C1171 C1167 1.400 . S
C1171 C1170 1.385 . S
C1172 C1170 1.478 . S
C1172 C1174 1.381 . S
C1172 C1178 1.383 . S
C1173 C1169 1.495 . S
C1173 H1179 0.959 . S
C1173 H1180 0.961 . S
C1173 H1181 0.960 . S
C1174 C1172 1.381 . S
C1174 C1175 1.394 . S
C1174 H1182 0.930 . S
C1175 C1174 1.394 . S
C1175 C1176 1.383 . S
C1175 H1183 0.929 . S
C1176 C1175 1.383 . S
C1176 C1177 1.377 . S
C1177 H1161 0.930 . S
C1177 C1176 1.377 . S
C1177 C1178 1.379 . S
C1178 H1162 0.931 . S
C1178 C1172 1.383 . S
C1178 C1177 1.379 . S
H1179 C1173 0.959 . S
H1180 C1173 0.961 . S
H1181 C1173 0.960 . S
H1182 C1174 0.930 . S
H1183 C1175 0.929 . S
H1184 C1192 0.929 . S
H1185 C1194 0.930 . S
H1186 C1196 0.930 . S
H1187 C1199 0.929 . S
H1188 C1202 0.930 . S
H1189 C1204 0.960 . S
H1190 C1204 0.960 . S
H1191 C1204 0.960 . S
C1192 H1184 0.929 . S
C1192 C1193 1.377 . S
C1192 C1194 1.384 . S
C1193 C1192 1.377 . S
C1193 C1199 1.390 . S
C1194 H1185 0.930 . S
C1194 C1192 1.384 . S
C1194 C1195 1.372 . S
C1195 C1194 1.372 . S
C1195 C1196 1.400 . S
C1195 C1200 1.490 . S
C1196 H1186 0.930 . S
C1196 C1195 1.400 . S
C1196 C1199 1.386 . S
H1197 C1213 0.930 . S
H1198 C1214 0.931 . S
C1199 H1187 0.929 . S
C1199 C1193 1.390 . S
C1199 C1196 1.386 . S
C1200 C1195 1.490 . S
C1200 C1202 1.395 . S
C1200 C1203 1.403 . S
H1201 C1207 0.930 . S
C1202 H1188 0.930 . S
C1202 C1200 1.395 . S
C1202 C1205 1.403 . S
C1203 C1200 1.403 . S
C1203 C1204 1.524 . S
C1203 C1207 1.400 . S
C1204 H1189 0.960 . S
C1204 H1190 0.960 . S
C1204 H1191 0.960 . S
C1204 C1203 1.524 . S
C1205 C1202 1.403 . S
C1205 C1206 1.392 . S
C1205 C1209 1.495 . S
C1206 C1205 1.392 . S
C1206 C1207 1.385 . S
C1206 C1208 1.478 . S
C1207 H1201 0.930 . S
C1207 C1203 1.400 . S
C1207 C1206 1.385 . S
C1208 C1206 1.478 . S
C1208 C1210 1.381 . S
C1208 C1214 1.383 . S
C1209 C1205 1.495 . S
C1209 H1215 0.959 . S
C1209 H1216 0.961 . S
C1209 H1217 0.960 . S
C1210 C1208 1.381 . S
C1210 C1211 1.394 . S
C1210 H1218 0.930 . S
C1211 C1210 1.394 . S
C1211 C1212 1.383 . S
C1211 H1219 0.929 . S
C1212 C1211 1.383 . S
C1212 C1213 1.377 . S
C1213 H1197 0.930 . S
C1213 C1212 1.377 . S
C1213 C1214 1.379 . S
C1214 H1198 0.931 . S
C1214 C1208 1.383 . S
C1214 C1213 1.379 . S
H1215 C1209 0.959 . S
H1216 C1209 0.961 . S
H1217 C1209 0.960 . S
H1218 C1210 0.930 . S
H1219 C1211 0.929 . S
H1220 C1228 0.929 . S
H1221 C1230 0.930 . S
H1222 C1232 0.930 1_455 S
H1223 C1235 0.929 . S
H1224 C1238 0.930 . S
H1225 C1240 0.960 . S
H1226 C1240 0.960 . S
H1227 C1240 0.960 . S
C1228 H1220 0.929 . S
C1228 C1229 1.377 . S
C1228 C1230 1.384 . S
C1229 C1228 1.377 . S
C1229 C1235 1.390 . S
C1230 H1221 0.930 . S
C1230 C1228 1.384 . S
C1230 C1231 1.372 . S
C1231 C1230 1.372 . S
C1231 C1232 1.400 . S
C1231 C1236 1.490 . S
C1232 H1222 0.930 1_655 S
C1232 C1231 1.400 . S
C1232 C1235 1.386 . S
H1233 C1249 0.930 . S
H1234 C1250 0.931 . S
C1235 H1223 0.929 . S
C1235 C1229 1.390 . S
C1235 C1232 1.386 . S
C1236 C1231 1.490 . S
C1236 C1238 1.395 . S
C1236 C1239 1.403 1_655 S
H1237 C1243 0.930 . S
C1238 H1224 0.930 . S
C1238 C1236 1.395 . S
C1238 C1241 1.403 1_565 S
C1239 C1236 1.403 1_455 S
C1239 C1240 1.524 . S
C1239 C1243 1.400 1_565 S
C1240 H1225 0.960 . S
C1240 H1226 0.960 . S
C1240 H1227 0.960 . S
C1240 C1239 1.524 . S
C1241 C1238 1.403 1_545 S
C1241 C1242 1.392 1_655 S
C1241 C1245 1.495 . S
C1242 C1241 1.392 1_455 S
C1242 C1243 1.385 . S
C1242 C1244 1.478 . S
C1243 H1237 0.930 . S
C1243 C1239 1.400 1_545 S
C1243 C1242 1.385 . S
C1244 C1242 1.478 . S
C1244 C1246 1.381 . S
C1244 C1250 1.383 . S
C1245 C1241 1.495 . S
C1245 H1251 0.959 . S
C1245 H1252 0.961 . S
C1245 H1253 0.960 . S
C1246 C1244 1.381 . S
C1246 C1247 1.394 . S
C1246 H1254 0.930 1_455 S
C1247 C1246 1.394 . S
C1247 C1248 1.383 . S
C1247 H1255 0.929 . S
C1248 C1247 1.383 . S
C1248 C1249 1.377 . S
C1249 H1233 0.930 . S
C1249 C1248 1.377 . S
C1249 C1250 1.379 . S
C1250 H1234 0.931 . S
C1250 C1244 1.383 . S
C1250 C1249 1.379 . S
H1251 C1245 0.959 . S
H1252 C1245 0.961 . S
H1253 C1245 0.960 . S
H1254 C1246 0.930 1_655 S
H1255 C1247 0.929 . S
H1256 C1264 0.929 . S
H1257 C1266 0.930 . S
H1258 C1268 0.930 . S
H1259 C1271 0.929 . S
H1260 C1274 0.930 . S
H1261 C1276 0.960 . S
H1262 C1276 0.960 . S
H1263 C1276 0.960 . S
C1264 H1256 0.929 . S
C1264 C1265 1.377 . S
C1264 C1266 1.384 . S
C1265 C1264 1.377 . S
C1265 C1271 1.390 . S
C1266 H1257 0.930 . S
C1266 C1264 1.384 . S
C1266 C1267 1.372 . S
C1267 C1266 1.372 . S
C1267 C1268 1.400 . S
C1267 C1272 1.490 . S
C1268 H1258 0.930 . S
C1268 C1267 1.400 . S
C1268 C1271 1.386 . S
H1269 C1285 0.930 . S
H1270 C1286 0.931 . S
C1271 H1259 0.929 . S
C1271 C1265 1.390 . S
C1271 C1268 1.386 . S
C1272 C1267 1.490 . S
C1272 C1274 1.395 . S
C1272 C1275 1.403 . S
H1273 C1279 0.930 . S
C1274 H1260 0.930 . S
C1274 C1272 1.395 . S
C1274 C1277 1.403 . S
C1275 C1272 1.403 . S
C1275 C1276 1.524 . S
C1275 C1279 1.400 . S
C1276 H1261 0.960 . S
C1276 H1262 0.960 . S
C1276 H1263 0.960 . S
C1276 C1275 1.524 . S
C1277 C1274 1.403 . S
C1277 C1278 1.392 . S
C1277 C1281 1.495 . S
C1278 C1277 1.392 . S
C1278 C1279 1.385 . S
C1278 C1280 1.478 . S
C1279 H1273 0.930 . S
C1279 C1275 1.400 . S
C1279 C1278 1.385 . S
C1280 C1278 1.478 . S
C1280 C1282 1.381 . S
C1280 C1286 1.383 . S
C1281 C1277 1.495 . S
C1281 H1287 0.959 . S
C1281 H1288 0.961 . S
C1281 H1289 0.960 . S
C1282 C1280 1.381 . S
C1282 C1283 1.394 . S
C1282 H1290 0.930 . S
C1283 C1282 1.394 . S
C1283 C1284 1.383 . S
C1283 H1291 0.929 . S
C1284 C1283 1.383 . S
C1284 C1285 1.377 . S
C1285 H1269 0.930 . S
C1285 C1284 1.377 . S
C1285 C1286 1.379 . S
C1286 H1270 0.931 . S
C1286 C1280 1.383 . S
C1286 C1285 1.379 . S
H1287 C1281 0.959 . S
H1288 C1281 0.961 . S
H1289 C1281 0.960 . S
H1290 C1282 0.930 . S
H1291 C1283 0.929 . S
H1292 C1300 0.929 . S
H1293 C1302 0.930 . S
H1294 C1304 0.930 . S
H1295 C1307 0.929 . S
H1296 C1310 0.930 . S
H1297 C1312 0.960 . S
H1298 C1312 0.960 . S
H1299 C1312 0.960 . S
C1300 H1292 0.929 . S
C1300 C1301 1.377 . S
C1300 C1302 1.384 . S
C1301 C1300 1.377 . S
C1301 C1307 1.390 . S
C1302 H1293 0.930 . S
C1302 C1300 1.384 . S
C1302 C1303 1.372 . S
C1303 C1302 1.372 . S
C1303 C1304 1.400 . S
C1303 C1308 1.490 . S
C1304 H1294 0.930 . S
C1304 C1303 1.400 . S
C1304 C1307 1.386 . S
H1305 C1321 0.930 . S
H1306 C1322 0.931 . S
C1307 H1295 0.929 . S
C1307 C1301 1.390 . S
C1307 C1304 1.386 . S
C1308 C1303 1.490 . S
C1308 C1310 1.395 . S
C1308 C1311 1.403 . S
H1309 C1315 0.930 . S
C1310 H1296 0.930 . S
C1310 C1308 1.395 . S
C1310 C1313 1.403 1_565 S
C1311 C1308 1.403 . S
C1311 C1312 1.524 . S
C1311 C1315 1.400 1_565 S
C1312 H1297 0.960 . S
C1312 H1298 0.960 . S
C1312 H1299 0.960 . S
C1312 C1311 1.524 . S
C1313 C1310 1.403 1_545 S
C1313 C1314 1.392 . S
C1313 C1317 1.495 . S
C1314 C1313 1.392 . S
C1314 C1315 1.385 . S
C1314 C1316 1.478 . S
C1315 H1309 0.930 . S
C1315 C1311 1.400 1_545 S
C1315 C1314 1.385 . S
C1316 C1314 1.478 . S
C1316 C1318 1.381 . S
C1316 C1322 1.383 . S
C1317 C1313 1.495 . S
C1317 H1323 0.959 . S
C1317 H1324 0.961 . S
C1317 H1325 0.960 . S
C1318 C1316 1.381 . S
C1318 C1319 1.394 . S
C1318 H1326 0.930 . S
C1319 C1318 1.394 . S
C1319 C1320 1.383 . S
C1319 H1327 0.929 . S
C1320 C1319 1.383 . S
C1320 C1321 1.377 . S
C1321 H1305 0.930 . S
C1321 C1320 1.377 . S
C1321 C1322 1.379 . S
C1322 H1306 0.931 . S
C1322 C1316 1.383 . S
C1322 C1321 1.379 . S
H1323 C1317 0.959 . S
H1324 C1317 0.961 . S
H1325 C1317 0.960 . S
H1326 C1318 0.930 . S
H1327 C1319 0.929 . S
H1328 C1336 0.928 . S
H1329 C1338 0.930 . S
H1330 C1340 0.930 . S
H1331 C1343 0.929 . S
H1332 C1346 0.924 1_565 S
H1333 C1348 0.960 . S
H1334 C1348 0.960 . S
H1335 C1348 0.971 . S
C1336 H1328 0.928 . S
C1336 C1337 1.377 . S
C1336 C1338 1.384 1_565 S
C1337 C1336 1.377 . S
C1337 C1343 1.390 . S
C1338 H1329 0.930 . S
C1338 C1336 1.384 1_545 S
C1338 C1339 1.372 1_545 S
C1339 C1338 1.372 1_565 S
C1339 C1340 1.400 . S
C1339 C1344 1.490 1_565 S
C1340 H1330 0.930 . S
C1340 C1339 1.400 . S
C1340 C1343 1.386 . S
H1341 C1357 0.930 . S
H1342 C1358 0.931 . S
C1343 H1331 0.929 . S
C1343 C1337 1.390 . S
C1343 C1340 1.386 . S
C1344 C1339 1.490 1_545 S
C1344 C1346 1.395 . S
C1344 C1347 1.403 . S
H1345 C1351 0.930 . S
C1346 H1332 0.924 1_545 S
C1346 C1344 1.395 . S
C1346 C1349 1.403 . S
C1347 C1344 1.403 . S
C1347 C1348 1.524 . S
C1347 C1351 1.400 . S
C1348 H1333 0.960 . S
C1348 H1334 0.960 . S
C1348 H1335 0.971 . S
C1348 C1347 1.524 . S
C1349 C1346 1.403 . S
C1349 C1350 1.392 . S
C1349 C1353 1.495 . S
C1350 C1349 1.392 . S
C1350 C1351 1.385 . S
C1350 C1352 1.478 . S
C1351 H1345 0.930 . S
C1351 C1347 1.400 . S
C1351 C1350 1.385 . S
C1352 C1350 1.478 . S
C1352 C1354 1.381 . S
C1352 C1358 1.383 . S
C1353 C1349 1.495 . S
C1353 H1359 0.959 . S
C1353 H1360 0.961 . S
C1353 H1361 0.960 . S
C1354 C1352 1.381 . S
C1354 C1355 1.394 . S
C1354 H1362 0.930 . S
C1355 C1354 1.394 . S
C1355 C1356 1.383 . S
C1355 H1363 0.929 . S
C1356 C1355 1.383 . S
C1356 C1357 1.377 . S
C1357 H1341 0.930 . S
C1357 C1356 1.377 . S
C1357 C1358 1.379 . S
C1358 H1342 0.931 . S
C1358 C1352 1.383 . S
C1358 C1357 1.379 . S
H1359 C1353 0.959 . S
H1360 C1353 0.961 . S
H1361 C1353 0.960 . S
H1362 C1354 0.930 . S
H1363 C1355 0.929 . S
H1364 C1372 0.929 . S
H1365 C1374 0.930 . S
H1366 C1376 0.930 . S
H1367 C1379 0.929 . S
H1368 C1382 0.930 . S
H1369 C1384 0.960 . S
H1370 C1384 0.960 . S
H1371 C1384 0.960 . S
C1372 H1364 0.929 . S
C1372 C1373 1.377 . S
C1372 C1374 1.384 . S
C1373 C1372 1.377 . S
C1373 C1379 1.390 . S
C1374 H1365 0.930 . S
C1374 C1372 1.384 . S
C1374 C1375 1.372 . S
C1375 C1374 1.372 . S
C1375 C1376 1.400 . S
C1375 C1380 1.490 . S
C1376 H1366 0.930 . S
C1376 C1375 1.400 . S
C1376 C1379 1.386 . S
H1377 C1393 0.930 . S
H1378 C1394 0.931 1_565 S
C1379 H1367 0.929 . S
C1379 C1373 1.390 . S
C1379 C1376 1.386 . S
C1380 C1375 1.490 . S
C1380 C1382 1.395 1_565 S
C1380 C1383 1.403 . S
H1381 C1387 0.930 . S
C1382 H1368 0.930 . S
C1382 C1380 1.395 1_545 S
C1382 C1385 1.403 . S
C1383 C1380 1.403 . S
C1383 C1384 1.524 . S
C1383 C1387 1.400 . S
C1384 H1369 0.960 . S
C1384 H1370 0.960 . S
C1384 H1371 0.960 . S
C1384 C1383 1.524 . S
C1385 C1382 1.403 . S
C1385 C1386 1.400 . S
C1385 C1389 1.495 . S
C1386 C1385 1.400 . S
C1386 C1387 1.371 1_545 S
C1386 C1388 1.484 . S
C1387 H1381 0.930 . S
C1387 C1383 1.400 . S
C1387 C1386 1.371 1_565 S
C1388 C1386 1.484 . S
C1388 C1390 1.381 . S
C1388 C1394 1.383 . S
C1389 C1385 1.495 . S
C1389 H1395 0.959 . S
C1389 H1396 0.961 . S
C1389 H1397 0.960 . S
C1390 C1388 1.381 . S
C1390 C1391 1.394 . S
C1390 H1398 0.930 . S
C1391 C1390 1.394 . S
C1391 C1392 1.383 . S
C1391 H1399 0.929 . S
C1392 C1391 1.383 . S
C1392 C1393 1.377 . S
C1393 H1377 0.930 . S
C1393 C1392 1.377 . S
C1393 C1394 1.379 . S
C1394 H1378 0.931 1_545 S
C1394 C1388 1.383 . S
C1394 C1393 1.379 . S
H1395 C1389 0.959 . S
H1396 C1389 0.961 . S
H1397 C1389 0.960 . S
H1398 C1390 0.930 . S
H1399 C1391 0.929 . S
H1400 C1408 0.929 . S
H1401 C1410 0.930 . S
H1402 C1412 0.930 . S
H1403 C1415 0.929 . S
H1404 C1418 0.930 . S
H1405 C1420 0.960 . S
H1406 C1420 0.960 . S
H1407 C1420 0.960 . S
C1408 H1400 0.929 . S
C1408 C1409 1.377 . S
C1408 C1410 1.384 . S
C1409 C1408 1.377 . S
C1409 C1415 1.390 . S
C1410 H1401 0.930 . S
C1410 C1408 1.384 . S
C1410 C1411 1.372 . S
C1411 C1410 1.372 . S
C1411 C1412 1.400 . S
C1411 C1416 1.490 . S
C1412 H1402 0.930 . S
C1412 C1411 1.400 . S
C1412 C1415 1.386 . S
H1413 C1429 0.930 . S
H1414 C1430 0.935 . S
C1415 H1403 0.929 . S
C1415 C1409 1.390 . S
C1415 C1412 1.386 . S
C1416 C1411 1.490 . S
C1416 C1418 1.395 . S
C1416 C1419 1.403 . S
H1417 C1423 0.930 . S
C1418 H1404 0.930 . S
C1418 C1416 1.395 . S
C1418 C1421 1.403 . S
C1419 C1416 1.403 . S
C1419 C1420 1.524 . S
C1419 C1423 1.400 . S
C1420 H1405 0.960 . S
C1420 H1406 0.960 . S
C1420 H1407 0.960 . S
C1420 C1419 1.524 . S
C1421 C1418 1.403 . S
C1421 C1422 1.392 . S
C1421 C1425 1.495 1_655 S
C1422 C1421 1.392 . S
C1422 C1423 1.385 . S
C1422 C1424 1.478 . S
C1423 H1417 0.930 . S
C1423 C1419 1.400 . S
C1423 C1422 1.385 . S
C1424 C1422 1.478 . S
C1424 C1426 1.381 . S
C1424 C1430 1.375 1_655 S
C1425 C1421 1.495 1_455 S
C1425 H1431 0.959 . S
C1425 H1432 0.961 . S
C1425 H1433 0.960 . S
C1426 C1424 1.381 . S
C1426 C1427 1.394 . S
C1426 H1434 0.930 . S
C1427 C1426 1.394 . S
C1427 C1428 1.362 1_655 S
C1427 H1435 0.929 . S
C1428 C1427 1.362 1_455 S
C1428 C1429 1.388 . S
C1429 H1413 0.930 . S
C1429 C1428 1.388 . S
C1429 C1430 1.384 . S
C1430 H1414 0.935 . S
C1430 C1424 1.375 1_455 S
C1430 C1429 1.384 . S
H1431 C1425 0.959 . S
H1432 C1425 0.961 . S
H1433 C1425 0.960 . S
H1434 C1426 0.930 . S
H1435 C1427 0.929 . S
H1436 C1444 0.929 . S
H1437 C1446 0.930 . S
H1438 C1448 0.930 . S
H1439 C1451 0.929 . S
H1440 C1454 0.930 . S
H1441 C1456 0.960 . S
H1442 C1456 0.960 . S
H1443 C1456 0.960 . S
C1444 H1436 0.929 . S
C1444 C1445 1.377 . S
C1444 C1446 1.384 . S
C1445 C1444 1.377 . S
C1445 C1451 1.390 1_455 S
C1446 H1437 0.930 . S
C1446 C1444 1.384 . S
C1446 C1447 1.372 . S
C1447 C1446 1.372 . S
C1447 C1448 1.400 1_455 S
C1447 C1452 1.490 . S
C1448 H1438 0.930 . S
C1448 C1447 1.400 1_655 S
C1448 C1451 1.386 . S
H1449 C1465 0.930 . S
H1450 C1466 0.931 . S
C1451 H1439 0.929 . S
C1451 C1445 1.390 1_655 S
C1451 C1448 1.386 . S
C1452 C1447 1.490 . S
C1452 C1454 1.395 . S
C1452 C1455 1.403 . S
H1453 C1459 0.956 . S
C1454 H1440 0.930 . S
C1454 C1452 1.395 . S
C1454 C1457 1.403 . S
C1455 C1452 1.403 . S
C1455 C1456 1.524 1_455 S
C1455 C1459 1.400 . S
C1456 H1441 0.960 . S
C1456 H1442 0.960 . S
C1456 H1443 0.960 . S
C1456 C1455 1.524 1_655 S
C1457 C1454 1.403 . S
C1457 C1458 1.392 . S
C1457 C1461 1.495 . S
C1458 C1457 1.392 . S
C1458 C1459 1.385 . S
C1458 C1460 1.478 . S
C1459 H1453 0.956 . S
C1459 C1455 1.400 . S
C1459 C1458 1.385 . S
C1460 C1458 1.478 . S
C1460 C1462 1.381 . S
C1460 C1466 1.383 . S
C1461 C1457 1.495 . S
C1461 H1467 0.959 . S
C1461 H1468 0.961 . S
C1461 H1469 0.960 . S
C1462 C1460 1.381 . S
C1462 C1463 1.394 . S
C1462 H1470 0.930 . S
C1463 C1462 1.394 . S
C1463 C1464 1.383 . S
C1463 H1471 0.929 . S
C1464 C1463 1.383 . S
C1464 C1465 1.377 . S
C1465 H1449 0.930 . S
C1465 C1464 1.377 . S
C1465 C1466 1.379 . S
C1466 H1450 0.931 . S
C1466 C1460 1.383 . S
C1466 C1465 1.379 . S
H1467 C1461 0.959 . S
H1468 C1461 0.961 . S
H1469 C1461 0.960 . S
H1470 C1462 0.930 . S
H1471 C1463 0.929 . S
H1472 C1480 0.929 . S
H1473 C1482 0.930 . S
H1474 C1484 0.930 . S
H1475 C1487 0.929 . S
H1476 C1490 0.930 . S
H1477 C1492 0.960 . S
H1478 C1492 0.960 . S
H1479 C1492 0.960 . S
C1480 H1472 0.929 . S
C1480 C1481 1.377 . S
C1480 C1482 1.384 . S
C1481 C1480 1.377 . S
C1481 C1487 1.390 . S
C1482 H1473 0.930 . S
C1482 C1480 1.384 . S
C1482 C1483 1.372 . S
C1483 C1482 1.372 . S
C1483 C1484 1.400 . S
C1483 C1488 1.490 . S
C1484 H1474 0.930 . S
C1484 C1483 1.400 . S
C1484 C1487 1.386 . S
H1485 C1501 0.930 . S
H1486 C1502 0.931 . S
C1487 H1475 0.929 . S
C1487 C1481 1.390 . S
C1487 C1484 1.386 . S
C1488 C1483 1.490 . S
C1488 C1490 1.395 . S
C1488 C1491 1.403 . S
H1489 C1495 0.930 . S
C1490 H1476 0.930 . S
C1490 C1488 1.395 . S
C1490 C1493 1.403 . S
C1491 C1488 1.403 . S
C1491 C1492 1.524 . S
C1491 C1495 1.400 . S
C1492 H1477 0.960 . S
C1492 H1478 0.960 . S
C1492 H1479 0.960 . S
C1492 C1491 1.524 . S
C1493 C1490 1.403 . S
C1493 C1494 1.392 . S
C1493 C1497 1.495 . S
C1494 C1493 1.392 . S
C1494 C1495 1.385 . S
C1494 C1496 1.478 . S
C1495 H1489 0.930 . S
C1495 C1491 1.400 . S
C1495 C1494 1.385 . S
C1496 C1494 1.478 . S
C1496 C1498 1.381 . S
C1496 C1502 1.383 . S
C1497 C1493 1.495 . S
C1497 H1503 0.959 . S
C1497 H1504 0.961 . S
C1497 H1505 0.960 . S
C1498 C1496 1.381 . S
C1498 C1499 1.394 . S
C1498 H1506 0.930 . S
C1499 C1498 1.394 . S
C1499 C1500 1.383 . S
C1499 H1507 0.929 . S
C1500 C1499 1.383 . S
C1500 C1501 1.377 . S
C1501 H1485 0.930 . S
C1501 C1500 1.377 . S
C1501 C1502 1.379 . S
C1502 H1486 0.931 . S
C1502 C1496 1.383 . S
C1502 C1501 1.379 . S
H1503 C1497 0.959 . S
H1504 C1497 0.961 . S
H1505 C1497 0.960 . S
H1506 C1498 0.930 . S
H1507 C1499 0.929 . S
H1508 C1516 0.929 . S
H1509 C1518 0.930 . S
H1510 C1520 0.930 . S
H1511 C1523 0.929 . S
H1512 C1526 0.930 . S
H1513 C1528 0.960 . S
H1514 C1528 0.960 . S
H1515 C1528 0.960 . S
C1516 H1508 0.929 . S
C1516 C1517 1.377 . S
C1516 C1518 1.384 . S
C1517 C1516 1.377 . S
C1517 C1523 1.390 . S
C1518 H1509 0.930 . S
C1518 C1516 1.384 . S
C1518 C1519 1.372 . S
C1519 C1518 1.372 . S
C1519 C1520 1.400 . S
C1519 C1524 1.490 . S
C1520 H1510 0.930 . S
C1520 C1519 1.400 . S
C1520 C1523 1.386 . S
H1521 C1537 0.930 . S
H1522 C1538 0.931 . S
C1523 H1511 0.929 . S
C1523 C1517 1.390 . S
C1523 C1520 1.386 . S
C1524 C1519 1.490 . S
C1524 C1526 1.395 . S
C1524 C1527 1.403 . S
H1525 C1531 0.930 . S
C1526 H1512 0.930 . S
C1526 C1524 1.395 . S
C1526 C1529 1.403 . S
C1527 C1524 1.403 . S
C1527 C1528 1.524 . S
C1527 C1531 1.400 . S
C1528 H1513 0.960 . S
C1528 H1514 0.960 . S
C1528 H1515 0.960 . S
C1528 C1527 1.524 . S
C1529 C1526 1.403 . S
C1529 C1530 1.392 . S
C1529 C1533 1.495 . S
C1530 C1529 1.392 . S
C1530 C1531 1.385 . S
C1530 C1532 1.478 . S
C1531 H1525 0.930 . S
C1531 C1527 1.400 . S
C1531 C1530 1.385 . S
C1532 C1530 1.478 . S
C1532 C1534 1.381 . S
C1532 C1538 1.383 . S
C1533 C1529 1.495 . S
C1533 H1539 0.959 . S
C1533 H1540 0.961 . S
C1533 H1541 0.960 . S
C1534 C1532 1.381 . S
C1534 C1535 1.394 . S
C1534 H1542 0.930 . S
C1535 C1534 1.394 . S
C1535 C1536 1.383 . S
C1535 H1543 0.929 . S
C1536 C1535 1.383 . S
C1536 C1537 1.377 . S
C1537 H1521 0.930 . S
C1537 C1536 1.377 . S
C1537 C1538 1.379 . S
C1538 H1522 0.931 . S
C1538 C1532 1.383 . S
C1538 C1537 1.379 . S
H1539 C1533 0.959 . S
H1540 C1533 0.961 . S
H1541 C1533 0.960 . S
H1542 C1534 0.930 . S
H1543 C1535 0.929 . S
H1544 C1552 0.929 . S
H1545 C1554 0.930 . S
H1546 C1556 0.926 1_455 S
H1547 C1559 0.929 . S
H1548 C1562 0.911 1_455 S
H1549 C1564 0.960 1_556 S
H1550 C1564 0.960 . S
H1551 C1564 0.960 . S
C1552 H1544 0.929 . S
C1552 C1553 1.388 . S
C1552 C1554 1.384 . S
C1553 C1552 1.388 . S
C1553 C1559 1.385 1_655 S
C1554 H1545 0.930 . S
C1554 C1552 1.384 . S
C1554 C1555 1.372 . S
C1555 C1554 1.372 . S
C1555 C1556 1.409 . S
C1555 C1560 1.490 . S
C1556 H1546 0.926 1_655 S
C1556 C1555 1.409 . S
C1556 C1559 1.381 1_655 S
H1557 C1573 0.930 . S
H1558 C1574 0.931 . S
C1559 H1547 0.929 . S
C1559 C1553 1.385 1_455 S
C1559 C1556 1.381 1_455 S
C1560 C1555 1.490 . S
C1560 C1562 1.395 . S
C1560 C1563 1.403 . S
H1561 C1567 0.930 . S
C1562 H1548 0.911 1_655 S
C1562 C1560 1.395 . S
C1562 C1565 1.403 1_554 S
C1563 C1560 1.403 . S
C1563 C1564 1.524 . S
C1563 C1567 1.400 1_554 S
C1564 H1549 0.960 1_554 S
C1564 H1550 0.960 . S
C1564 H1551 0.960 . S
C1564 C1563 1.524 . S
C1565 C1562 1.403 1_556 S
C1565 C1566 1.392 . S
C1565 C1569 1.495 . S
C1566 C1565 1.392 . S
C1566 C1567 1.385 . S
C1566 C1568 1.478 . S
C1567 H1561 0.930 . S
C1567 C1563 1.400 1_556 S
C1567 C1566 1.385 . S
C1568 C1566 1.478 . S
C1568 C1570 1.381 . S
C1568 C1574 1.383 . S
C1569 C1565 1.495 . S
C1569 H1575 0.959 1_656 S
C1569 H1576 0.961 1_655 S
C1569 H1577 0.960 . S
C1570 C1568 1.381 . S
C1570 C1571 1.394 . S
C1570 H1578 0.930 . S
C1571 C1570 1.394 . S
C1571 C1572 1.383 . S
C1571 H1579 0.929 . S
C1572 C1571 1.383 . S
C1572 C1573 1.377 . S
C1573 H1557 0.930 . S
C1573 C1572 1.377 . S
C1573 C1574 1.379 . S
C1574 H1558 0.931 . S
C1574 C1568 1.383 . S
C1574 C1573 1.379 . S
H1575 C1569 0.959 1_454 S
H1576 C1569 0.961 1_455 S
H1577 C1569 0.960 . S
H1578 C1570 0.930 . S
H1579 C1571 0.929 . S
H1580 C1588 0.929 . S
H1581 C1590 0.930 . S
H1582 C1592 0.930 . S
H1583 C1595 0.929 . S
H1584 C1598 0.929 1_554 S
H1585 C1600 0.960 . S
H1586 C1600 0.960 . S
H1587 C1600 0.960 . S
C1588 H1580 0.929 . S
C1588 C1589 1.378 . S
C1588 C1590 1.384 . S
C1589 C1588 1.378 . S
C1589 C1595 1.389 1_655 S
C1590 H1581 0.930 . S
C1590 C1588 1.384 . S
C1590 C1591 1.372 1_655 S
C1591 C1590 1.372 1_455 S
C1591 C1592 1.400 . S
C1591 C1596 1.490 . S
C1592 H1582 0.930 . S
C1592 C1591 1.400 . S
C1592 C1595 1.386 . S
H1593 C1609 0.930 . S
H1594 C1610 0.931 . S
C1595 H1583 0.929 . S
C1595 C1589 1.389 1_455 S
C1595 C1592 1.386 . S
C1596 C1591 1.490 . S
C1596 C1598 1.385 1_554 S
C1596 C1599 1.403 . S
H1597 C1603 0.930 . S
C1598 H1584 0.929 1_556 S
C1598 C1596 1.385 1_556 S
C1598 C1601 1.414 . S
C1599 C1596 1.403 . S
C1599 C1600 1.524 . S
C1599 C1603 1.400 1_554 S
C1600 H1585 0.960 . S
C1600 H1586 0.960 . S
C1600 H1587 0.960 . S
C1600 C1599 1.524 . S
C1601 C1598 1.414 . S
C1601 C1602 1.392 . S
C1601 C1605 1.495 . S
C1602 C1601 1.392 . S
C1602 C1603 1.385 . S
C1602 C1604 1.478 . S
C1603 H1597 0.930 . S
C1603 C1599 1.400 1_556 S
C1603 C1602 1.385 . S
C1604 C1602 1.478 . S
C1604 C1606 1.381 . S
C1604 C1610 1.383 . S
C1605 C1601 1.495 . S
C1605 H1611 0.959 . S
C1605 H1612 0.961 . S
C1605 H1613 0.960 . S
C1606 C1604 1.381 . S
C1606 C1607 1.394 . S
C1606 H1614 0.930 . S
C1607 C1606 1.394 . S
C1607 C1608 1.383 . S
C1607 H1615 0.929 . S
C1608 C1607 1.383 . S
C1608 C1609 1.377 . S
C1609 H1593 0.930 . S
C1609 C1608 1.377 . S
C1609 C1610 1.379 . S
C1610 H1594 0.931 . S
C1610 C1604 1.383 . S
C1610 C1609 1.379 . S
H1611 C1605 0.959 . S
H1612 C1605 0.961 . S
H1613 C1605 0.960 . S
H1614 C1606 0.930 . S
H1615 C1607 0.929 . S
H1616 C1624 0.929 . S
H1617 C1626 0.930 . S
H1618 C1628 0.930 . S
H1619 C1631 0.929 1_545 S
H1620 C1634 0.947 . S
H1621 C1636 0.960 . S
H1622 C1636 0.960 1_565 S
H1623 C1636 0.960 . S
C1624 H1616 0.929 . S
C1624 C1625 1.377 . S
C1624 C1626 1.384 . S
C1625 C1624 1.377 . S
C1625 C1631 1.390 . S
C1626 H1617 0.930 . S
C1626 C1624 1.384 . S
C1626 C1627 1.372 . S
C1627 C1626 1.372 . S
C1627 C1628 1.400 1_565 S
C1627 C1632 1.490 1_565 S
C1628 H1618 0.930 . S
C1628 C1627 1.400 1_545 S
C1628 C1631 1.386 1_545 S
H1629 C1645 0.930 . S
H1630 C1646 0.931 . S
C1631 H1619 0.929 1_565 S
C1631 C1625 1.390 . S
C1631 C1628 1.386 1_565 S
C1632 C1627 1.490 1_545 S
C1632 C1634 1.395 . S
C1632 C1635 1.403 . S
H1633 C1639 0.930 . S
C1634 H1620 0.947 . S
C1634 C1632 1.395 . S
C1634 C1637 1.403 . S
C1635 C1632 1.403 . S
C1635 C1636 1.524 . S
C1635 C1639 1.400 . S
C1636 H1621 0.960 . S
C1636 H1622 0.960 1_545 S
C1636 H1623 0.960 . S
C1636 C1635 1.524 . S
C1637 C1634 1.403 . S
C1637 C1638 1.392 . S
C1637 C1641 1.495 . S
C1638 C1637 1.392 . S
C1638 C1639 1.385 . S
C1638 C1640 1.478 . S
C1639 H1633 0.930 . S
C1639 C1635 1.400 . S
C1639 C1638 1.385 . S
C1640 C1638 1.478 . S
C1640 C1642 1.381 . S
C1640 C1646 1.383 . S
C1641 C1637 1.495 . S
C1641 H1647 0.959 . S
C1641 H1648 0.961 . S
C1641 H1649 0.960 . S
C1642 C1640 1.381 . S
C1642 C1643 1.394 . S
C1642 H1650 0.930 . S
C1643 C1642 1.394 . S
C1643 C1644 1.383 . S
C1643 H1651 0.929 . S
C1644 C1643 1.383 . S
C1644 C1645 1.377 . S
C1645 H1629 0.930 . S
C1645 C1644 1.377 . S
C1645 C1646 1.379 . S
C1646 H1630 0.931 . S
C1646 C1640 1.383 . S
C1646 C1645 1.379 . S
H1647 C1641 0.959 . S
H1648 C1641 0.961 . S
H1649 C1641 0.960 . S
H1650 C1642 0.930 . S
H1651 C1643 0.929 . S
H1652 C1660 0.929 1_565 S
H1653 C1662 0.930 . S
H1654 C1664 0.930 . S
H1655 C1667 0.929 . S
H1656 C1670 0.930 . S
H1657 C1672 0.960 . S
H1658 C1672 0.960 . S
H1659 C1672 0.960 1_545 S
C1660 H1652 0.929 1_545 S
C1660 C1661 1.377 . S
C1660 C1662 1.384 1_545 S
C1661 C1660 1.377 . S
C1661 C1667 1.390 . S
C1662 H1653 0.930 . S
C1662 C1660 1.384 1_565 S
C1662 C1663 1.372 1_565 S
C1663 C1662 1.372 1_545 S
C1663 C1664 1.400 . S
C1663 C1668 1.490 1_545 S
C1664 H1654 0.930 . S
C1664 C1663 1.400 . S
C1664 C1667 1.386 . S
H1665 C1681 0.930 . S
H1666 C1682 0.931 . S
C1667 H1655 0.929 . S
C1667 C1661 1.390 . S
C1667 C1664 1.386 . S
C1668 C1663 1.490 1_565 S
C1668 C1670 1.395 . S
C1668 C1671 1.403 . S
H1669 C1675 0.930 . S
C1670 H1656 0.930 . S
C1670 C1668 1.395 . S
C1670 C1673 1.403 . S
C1671 C1668 1.403 . S
C1671 C1672 1.524 . S
C1671 C1675 1.400 . S
C1672 H1657 0.960 . S
C1672 H1658 0.960 . S
C1672 H1659 0.960 1_565 S
C1672 C1671 1.524 . S
C1673 C1670 1.403 . S
C1673 C1674 1.392 . S
C1673 C1677 1.495 . S
C1674 C1673 1.392 . S
C1674 C1675 1.385 . S
C1674 C1676 1.478 . S
C1675 H1669 0.930 . S
C1675 C1671 1.400 . S
C1675 C1674 1.385 . S
C1676 C1674 1.478 . S
C1676 C1678 1.381 . S
C1676 C1682 1.383 . S
C1677 C1673 1.495 . S
C1677 H1683 0.959 . S
C1677 H1684 0.961 . S
C1677 H1685 0.960 . S
C1678 C1676 1.381 . S
C1678 C1679 1.394 . S
C1678 H1686 0.930 . S
C1679 C1678 1.394 . S
C1679 C1680 1.383 . S
C1679 H1687 0.929 . S
C1680 C1679 1.383 . S
C1680 C1681 1.377 . S
C1681 H1665 0.930 . S
C1681 C1680 1.377 . S
C1681 C1682 1.379 . S
C1682 H1666 0.931 . S
C1682 C1676 1.383 . S
C1682 C1681 1.379 . S
H1683 C1677 0.959 . S
H1684 C1677 0.961 . S
H1685 C1677 0.960 . S
H1686 C1678 0.930 . S
H1687 C1679 0.929 . S
H1688 C1696 0.929 . S
H1689 C1698 0.930 . S
H1690 C1700 0.930 . S
H1691 C1703 0.929 . S
H1692 C1706 0.930 . S
H1693 C1708 0.960 . S
H1694 C1708 0.960 . S
H1695 C1708 0.960 . S
C1696 H1688 0.929 . S
C1696 C1697 1.377 . S
C1696 C1698 1.384 . S
C1697 C1696 1.377 . S
C1697 C1703 1.390 . S
C1698 H1689 0.930 . S
C1698 C1696 1.384 . S
C1698 C1699 1.372 . S
C1699 C1698 1.372 . S
C1699 C1700 1.400 . S
C1699 C1704 1.490 . S
C1700 H1690 0.930 . S
C1700 C1699 1.400 . S
C1700 C1703 1.386 . S
H1701 C1717 0.930 . S
H1702 C1718 0.931 . S
C1703 H1691 0.929 . S
C1703 C1697 1.390 . S
C1703 C1700 1.386 . S
C1704 C1699 1.490 . S
C1704 C1706 1.393 . S
C1704 C1707 1.403 . S
H1705 C1711 0.930 . S
C1706 H1692 0.930 . S
C1706 C1704 1.393 . S
C1706 C1709 1.405 1_554 S
C1707 C1704 1.403 . S
C1707 C1708 1.524 . S
C1707 C1711 1.400 1_554 S
C1708 H1693 0.960 . S
C1708 H1694 0.960 . S
C1708 H1695 0.960 . S
C1708 C1707 1.524 . S
C1709 C1706 1.405 1_556 S
C1709 C1710 1.392 . S
C1709 C1713 1.495 . S
C1710 C1709 1.392 . S
C1710 C1711 1.385 . S
C1710 C1712 1.478 . S
C1711 H1705 0.930 . S
C1711 C1707 1.400 1_556 S
C1711 C1710 1.385 . S
C1712 C1710 1.478 . S
C1712 C1714 1.381 . S
C1712 C1718 1.383 . S
C1713 C1709 1.495 . S
C1713 H1719 0.959 . S
C1713 H1720 0.961 . S
C1713 H1721 0.960 . S
C1714 C1712 1.381 . S
C1714 C1715 1.394 . S
C1714 H1722 0.930 . S
C1715 C1714 1.394 . S
C1715 C1716 1.383 . S
C1715 H1723 0.929 . S
C1716 C1715 1.383 . S
C1716 C1717 1.377 . S
C1717 H1701 0.930 . S
C1717 C1716 1.377 . S
C1717 C1718 1.379 . S
C1718 H1702 0.931 . S
C1718 C1712 1.383 . S
C1718 C1717 1.379 . S
H1719 C1713 0.959 . S
H1720 C1713 0.961 . S
H1721 C1713 0.960 . S
H1722 C1714 0.930 . S
H1723 C1715 0.929 . S
H1724 C1732 0.929 . S
H1725 C1734 0.930 . S
H1726 C1736 0.930 . S
H1727 C1739 0.929 . S
H1728 C1742 0.930 . S
H1729 C1744 0.960 . S
H1730 C1744 0.960 . S
H1731 C1744 0.960 . S
C1732 H1724 0.929 . S
C1732 C1733 1.377 . S
C1732 C1734 1.384 . S
C1733 C1732 1.377 . S
C1733 C1739 1.390 . S
C1734 H1725 0.930 . S
C1734 C1732 1.384 . S
C1734 C1735 1.372 . S
C1735 C1734 1.372 . S
C1735 C1736 1.400 . S
C1735 C1740 1.490 . S
C1736 H1726 0.930 . S
C1736 C1735 1.400 . S
C1736 C1739 1.386 . S
H1737 C1753 0.930 . S
H1738 C1754 0.931 . S
C1739 H1727 0.929 . S
C1739 C1733 1.390 . S
C1739 C1736 1.386 . S
C1740 C1735 1.490 . S
C1740 C1742 1.395 . S
C1740 C1743 1.403 . S
H1741 C1747 0.930 . S
C1742 H1728 0.930 . S
C1742 C1740 1.395 . S
C1742 C1745 1.403 1_554 S
C1743 C1740 1.403 . S
C1743 C1744 1.524 . S
C1743 C1747 1.400 1_554 S
C1744 H1729 0.960 . S
C1744 H1730 0.960 . S
C1744 H1731 0.960 . S
C1744 C1743 1.524 . S
C1745 C1742 1.403 1_556 S
C1745 C1746 1.392 . S
C1745 C1749 1.495 . S
C1746 C1745 1.392 . S
C1746 C1747 1.385 . S
C1746 C1748 1.478 . S
C1747 H1741 0.930 . S
C1747 C1743 1.400 1_556 S
C1747 C1746 1.385 . S
C1748 C1746 1.478 . S
C1748 C1750 1.381 . S
C1748 C1754 1.383 . S
C1749 C1745 1.495 . S
C1749 H1755 0.959 . S
C1749 H1756 0.961 . S
C1749 H1757 0.960 . S
C1750 C1748 1.381 . S
C1750 C1751 1.394 . S
C1750 H1758 0.930 . S
C1751 C1750 1.394 . S
C1751 C1752 1.383 . S
C1751 H1759 0.929 . S
C1752 C1751 1.383 . S
C1752 C1753 1.377 . S
C1753 H1737 0.930 . S
C1753 C1752 1.377 . S
C1753 C1754 1.379 . S
C1754 H1738 0.931 . S
C1754 C1748 1.383 . S
C1754 C1753 1.379 . S
H1755 C1749 0.959 . S
H1756 C1749 0.961 . S
H1757 C1749 0.960 . S
H1758 C1750 0.930 . S
H1759 C1751 0.929 . S
H1760 C1768 0.929 . S
H1761 C1770 0.930 . S
H1762 C1772 0.930 . S
H1763 C1775 0.929 . S
H1764 C1778 0.930 . S
H1765 C1780 0.960 . S
H1766 C1780 0.960 . S
H1767 C1780 0.960 . S
C1768 H1760 0.929 . S
C1768 C1769 1.377 . S
C1768 C1770 1.384 . S
C1769 C1768 1.377 . S
C1769 C1775 1.390 . S
C1770 H1761 0.930 . S
C1770 C1768 1.384 . S
C1770 C1771 1.372 . S
C1771 C1770 1.372 . S
C1771 C1772 1.400 . S
C1771 C1776 1.490 . S
C1772 H1762 0.930 . S
C1772 C1771 1.400 . S
C1772 C1775 1.386 . S
H1773 C1789 0.930 . S
H1774 C1790 0.931 . S
C1775 H1763 0.929 . S
C1775 C1769 1.390 . S
C1775 C1772 1.386 . S
C1776 C1771 1.490 . S
C1776 C1778 1.395 . S
C1776 C1779 1.403 . S
H1777 C1783 0.930 . S
C1778 H1764 0.930 . S
C1778 C1776 1.395 . S
C1778 C1781 1.403 . S
C1779 C1776 1.403 . S
C1779 C1780 1.524 . S
C1779 C1783 1.400 . S
C1780 H1765 0.960 . S
C1780 H1766 0.960 . S
C1780 H1767 0.960 . S
C1780 C1779 1.524 . S
C1781 C1778 1.403 . S
C1781 C1782 1.392 . S
C1781 C1785 1.495 . S
C1782 C1781 1.392 . S
C1782 C1783 1.385 . S
C1782 C1784 1.478 . S
C1783 H1777 0.930 . S
C1783 C1779 1.400 . S
C1783 C1782 1.385 . S
C1784 C1782 1.478 . S
C1784 C1786 1.381 . S
C1784 C1790 1.383 . S
C1785 C1781 1.495 . S
C1785 H1791 0.959 . S
C1785 H1792 0.961 . S
C1785 H1793 0.960 . S
C1786 C1784 1.381 . S
C1786 C1787 1.394 . S
C1786 H1794 0.930 . S
C1787 C1786 1.394 . S
C1787 C1788 1.383 . S
C1787 H1795 0.929 . S
C1788 C1787 1.383 . S
C1788 C1789 1.377 . S
C1789 H1773 0.930 . S
C1789 C1788 1.377 . S
C1789 C1790 1.379 . S
C1790 H1774 0.931 . S
C1790 C1784 1.383 . S
C1790 C1789 1.379 . S
H1791 C1785 0.959 . S
H1792 C1785 0.961 . S
H1793 C1785 0.960 . S
H1794 C1786 0.930 . S
H1795 C1787 0.929 . S
H1796 C1804 0.929 . S
H1797 C1806 0.930 . S
H1798 C1808 0.930 . S
H1799 C1811 0.929 . S
H1800 C1814 0.930 . S
H1801 C1816 0.960 . S
H1802 C1816 0.960 . S
H1803 C1816 0.960 . S
C1804 H1796 0.929 . S
C1804 C1805 1.377 . S
C1804 C1806 1.384 . S
C1805 C1804 1.377 . S
C1805 C1811 1.390 . S
C1806 H1797 0.930 . S
C1806 C1804 1.384 . S
C1806 C1807 1.372 . S
C1807 C1806 1.372 . S
C1807 C1808 1.400 . S
C1807 C1812 1.490 . S
C1808 H1798 0.930 . S
C1808 C1807 1.400 . S
C1808 C1811 1.386 . S
H1809 C1825 0.930 . S
H1810 C1826 0.931 . S
C1811 H1799 0.929 . S
C1811 C1805 1.390 . S
C1811 C1808 1.386 . S
C1812 C1807 1.490 . S
C1812 C1814 1.395 . S
C1812 C1815 1.403 . S
H1813 C1819 0.930 . S
C1814 H1800 0.930 . S
C1814 C1812 1.395 . S
C1814 C1817 1.403 . S
C1815 C1812 1.403 . S
C1815 C1816 1.524 . S
C1815 C1819 1.400 . S
C1816 H1801 0.960 . S
C1816 H1802 0.960 . S
C1816 H1803 0.960 . S
C1816 C1815 1.524 . S
C1817 C1814 1.403 . S
C1817 C1818 1.392 . S
C1817 C1821 1.495 . S
C1818 C1817 1.392 . S
C1818 C1819 1.385 . S
C1818 C1820 1.478 . S
C1819 H1813 0.930 . S
C1819 C1815 1.400 . S
C1819 C1818 1.385 . S
C1820 C1818 1.478 . S
C1820 C1822 1.381 . S
C1820 C1826 1.383 . S
C1821 C1817 1.495 . S
C1821 H1827 0.959 . S
C1821 H1828 0.961 . S
C1821 H1829 0.960 . S
C1822 C1820 1.381 . S
C1822 C1823 1.394 . S
C1822 H1830 0.930 . S
C1823 C1822 1.394 . S
C1823 C1824 1.383 . S
C1823 H1831 0.929 . S
C1824 C1823 1.383 . S
C1824 C1825 1.377 . S
C1825 H1809 0.930 . S
C1825 C1824 1.377 . S
C1825 C1826 1.379 . S
C1826 H1810 0.931 . S
C1826 C1820 1.383 . S
C1826 C1825 1.379 . S
H1827 C1821 0.959 . S
H1828 C1821 0.961 . S
H1829 C1821 0.960 . S
H1830 C1822 0.930 . S
H1831 C1823 0.929 . S
H1832 C1840 0.929 . S
H1833 C1842 0.930 . S
H1834 C1844 0.930 . S
H1835 C1847 0.929 . S
H1836 C1850 0.930 . S
H1837 C1852 0.960 . S
H1838 C1852 0.960 . S
H1839 C1852 0.960 . S
C1840 H1832 0.929 . S
C1840 C1841 1.377 . S
C1840 C1842 1.384 . S
C1841 C1840 1.377 . S
C1841 C1847 1.390 . S
C1842 H1833 0.930 . S
C1842 C1840 1.384 . S
C1842 C1843 1.372 . S
C1843 C1842 1.372 . S
C1843 C1844 1.400 . S
C1843 C1848 1.490 . S
C1844 H1834 0.930 . S
C1844 C1843 1.400 . S
C1844 C1847 1.386 . S
H1845 C1861 0.930 . S
H1846 C1862 0.931 . S
C1847 H1835 0.929 . S
C1847 C1841 1.390 . S
C1847 C1844 1.386 . S
C1848 C1843 1.490 . S
C1848 C1850 1.395 . S
C1848 C1851 1.403 . S
H1849 C1855 0.930 . S
C1850 H1836 0.930 . S
C1850 C1848 1.395 . S
C1850 C1853 1.403 . S
C1851 C1848 1.403 . S
C1851 C1852 1.524 . S
C1851 C1855 1.400 . S
C1852 H1837 0.960 . S
C1852 H1838 0.960 . S
C1852 H1839 0.960 . S
C1852 C1851 1.524 . S
C1853 C1850 1.403 . S
C1853 C1854 1.392 . S
C1853 C1857 1.495 . S
C1854 C1853 1.392 . S
C1854 C1855 1.385 . S
C1854 C1856 1.478 . S
C1855 H1849 0.930 . S
C1855 C1851 1.400 . S
C1855 C1854 1.385 . S
C1856 C1854 1.478 . S
C1856 C1858 1.381 . S
C1856 C1862 1.383 . S
C1857 C1853 1.495 . S
C1857 H1863 0.959 . S
C1857 H1864 0.961 . S
C1857 H1865 0.960 . S
C1858 C1856 1.381 . S
C1858 C1859 1.394 . S
C1858 H1866 0.930 . S
C1859 C1858 1.394 . S
C1859 C1860 1.383 . S
C1859 H1867 0.929 . S
C1860 C1859 1.383 . S
C1860 C1861 1.377 . S
C1861 H1845 0.930 . S
C1861 C1860 1.377 . S
C1861 C1862 1.379 . S
C1862 H1846 0.931 . S
C1862 C1856 1.383 . S
C1862 C1861 1.379 . S
H1863 C1857 0.959 . S
H1864 C1857 0.961 . S
H1865 C1857 0.960 . S
H1866 C1858 0.930 . S
H1867 C1859 0.929 . S
H1868 C1876 0.929 . S
H1869 C1878 0.930 . S
H1870 C1880 0.930 . S
H1871 C1883 0.929 . S
H1872 C1886 0.930 . S
H1873 C1888 0.960 . S
H1874 C1888 0.960 . S
H1875 C1888 0.960 . S
C1876 H1868 0.929 . S
C1876 C1877 1.377 . S
C1876 C1878 1.384 . S
C1877 C1876 1.377 . S
C1877 C1883 1.390 . S
C1878 H1869 0.930 . S
C1878 C1876 1.384 . S
C1878 C1879 1.372 . S
C1879 C1878 1.372 . S
C1879 C1880 1.400 . S
C1879 C1884 1.490 . S
C1880 H1870 0.930 . S
C1880 C1879 1.400 . S
C1880 C1883 1.386 . S
H1881 C1897 0.930 . S
H1882 C1898 0.931 . S
C1883 H1871 0.929 . S
C1883 C1877 1.390 . S
C1883 C1880 1.386 . S
C1884 C1879 1.490 . S
C1884 C1886 1.395 . S
C1884 C1887 1.403 . S
H1885 C1891 0.930 . S
C1886 H1872 0.930 . S
C1886 C1884 1.395 . S
C1886 C1889 1.403 . S
C1887 C1884 1.403 . S
C1887 C1888 1.524 . S
C1887 C1891 1.400 . S
C1888 H1873 0.960 . S
C1888 H1874 0.960 . S
C1888 H1875 0.960 . S
C1888 C1887 1.524 . S
C1889 C1886 1.403 . S
C1889 C1890 1.392 . S
C1889 C1893 1.495 . S
C1890 C1889 1.392 . S
C1890 C1891 1.385 . S
C1890 C1892 1.478 . S
C1891 H1885 0.930 . S
C1891 C1887 1.400 . S
C1891 C1890 1.385 . S
C1892 C1890 1.478 . S
C1892 C1894 1.381 . S
C1892 C1898 1.383 . S
C1893 C1889 1.495 . S
C1893 H1899 0.959 . S
C1893 H1900 0.961 . S
C1893 H1901 0.960 . S
C1894 C1892 1.381 . S
C1894 C1895 1.394 . S
C1894 H1902 0.930 . S
C1895 C1894 1.394 . S
C1895 C1896 1.383 . S
C1895 H1903 0.929 . S
C1896 C1895 1.383 . S
C1896 C1897 1.377 . S
C1897 H1881 0.930 . S
C1897 C1896 1.377 . S
C1897 C1898 1.379 . S
C1898 H1882 0.931 . S
C1898 C1892 1.383 . S
C1898 C1897 1.379 . S
H1899 C1893 0.959 . S
H1900 C1893 0.961 . S
H1901 C1893 0.960 . S
H1902 C1894 0.930 . S
H1903 C1895 0.929 . S
H1904 C1912 0.929 . S
H1905 C1914 0.930 . S
H1906 C1916 0.930 . S
H1907 C1919 0.929 . S
H1908 C1922 0.930 . S
H1909 C1924 0.960 . S
H1910 C1924 0.960 . S
H1911 C1924 0.960 . S
C1912 H1904 0.929 . S
C1912 C1913 1.377 . S
C1912 C1914 1.384 . S
C1913 C1912 1.377 . S
C1913 C1919 1.390 . S
C1914 H1905 0.930 . S
C1914 C1912 1.384 . S
C1914 C1915 1.372 . S
C1915 C1914 1.372 . S
C1915 C1916 1.400 . S
C1915 C1920 1.490 . S
C1916 H1906 0.930 . S
C1916 C1915 1.400 . S
C1916 C1919 1.386 . S
H1917 C1933 0.930 . S
H1918 C1934 0.931 . S
C1919 H1907 0.929 . S
C1919 C1913 1.390 . S
C1919 C1916 1.386 . S
C1920 C1915 1.490 . S
C1920 C1922 1.395 . S
C1920 C1923 1.403 . S
H1921 C1927 0.930 . S
C1922 H1908 0.930 . S
C1922 C1920 1.395 . S
C1922 C1925 1.403 . S
C1923 C1920 1.403 . S
C1923 C1924 1.524 . S
C1923 C1927 1.400 . S
C1924 H1909 0.960 . S
C1924 H1910 0.960 . S
C1924 H1911 0.960 . S
C1924 C1923 1.524 . S
C1925 C1922 1.403 . S
C1925 C1926 1.392 . S
C1925 C1929 1.495 . S
C1926 C1925 1.392 . S
C1926 C1927 1.385 . S
C1926 C1928 1.478 . S
C1927 H1921 0.930 . S
C1927 C1923 1.400 . S
C1927 C1926 1.385 . S
C1928 C1926 1.478 . S
C1928 C1930 1.381 . S
C1928 C1934 1.383 . S
C1929 C1925 1.495 . S
C1929 H1935 0.959 . S
C1929 H1936 0.961 . S
C1929 H1937 0.960 . S
C1930 C1928 1.381 . S
C1930 C1931 1.394 . S
C1930 H1938 0.930 . S
C1931 C1930 1.394 . S
C1931 C1932 1.383 . S
C1931 H1939 0.929 . S
C1932 C1931 1.383 . S
C1932 C1933 1.377 . S
C1933 H1917 0.930 . S
C1933 C1932 1.377 . S
C1933 C1934 1.379 . S
C1934 H1918 0.931 . S
C1934 C1928 1.383 . S
C1934 C1933 1.379 . S
H1935 C1929 0.959 . S
H1936 C1929 0.961 . S
H1937 C1929 0.960 . S
H1938 C1930 0.930 . S
H1939 C1931 0.929 . S
H1940 C1948 0.929 . S
H1941 C1950 0.930 . S
H1942 C1952 0.930 . S
H1943 C1955 0.929 . S
H1944 C1958 0.930 . S
H1945 C1960 0.960 . S
H1946 C1960 0.960 . S
H1947 C1960 0.960 . S
C1948 H1940 0.929 . S
C1948 C1949 1.377 . S
C1948 C1950 1.384 . S
C1949 C1948 1.377 . S
C1949 C1955 1.390 . S
C1950 H1941 0.930 . S
C1950 C1948 1.384 . S
C1950 C1951 1.372 . S
C1951 C1950 1.372 . S
C1951 C1952 1.400 . S
C1951 C1956 1.490 . S
C1952 H1942 0.930 . S
C1952 C1951 1.400 . S
C1952 C1955 1.386 . S
H1953 C1969 0.930 . S
H1954 C1970 0.931 . S
C1955 H1943 0.929 . S
C1955 C1949 1.390 . S
C1955 C1952 1.386 . S
C1956 C1951 1.490 . S
C1956 C1958 1.395 . S
C1956 C1959 1.403 . S
H1957 C1963 0.930 . S
C1958 H1944 0.930 . S
C1958 C1956 1.395 . S
C1958 C1961 1.403 . S
C1959 C1956 1.403 . S
C1959 C1960 1.524 . S
C1959 C1963 1.400 . S
C1960 H1945 0.960 . S
C1960 H1946 0.960 . S
C1960 H1947 0.960 . S
C1960 C1959 1.524 . S
C1961 C1958 1.403 . S
C1961 C1962 1.392 . S
C1961 C1965 1.495 . S
C1962 C1961 1.392 . S
C1962 C1963 1.385 . S
C1962 C1964 1.478 . S
C1963 H1957 0.930 . S
C1963 C1959 1.400 . S
C1963 C1962 1.385 . S
C1964 C1962 1.478 . S
C1964 C1966 1.381 . S
C1964 C1970 1.383 . S
C1965 C1961 1.495 . S
C1965 H1971 0.959 . S
C1965 H1972 0.961 . S
C1965 H1973 0.960 . S
C1966 C1964 1.381 . S
C1966 C1967 1.394 . S
C1966 H1974 0.930 . S
C1967 C1966 1.394 . S
C1967 C1968 1.383 . S
C1967 H1975 0.929 . S
C1968 C1967 1.383 . S
C1968 C1969 1.377 . S
C1969 H1953 0.930 . S
C1969 C1968 1.377 . S
C1969 C1970 1.379 . S
C1970 H1954 0.931 . S
C1970 C1964 1.383 . S
C1970 C1969 1.379 . S
H1971 C1965 0.959 . S
H1972 C1965 0.961 . S
H1973 C1965 0.960 . S
H1974 C1966 0.930 . S
H1975 C1967 0.929 . S
H1976 C1984 0.929 . S
H1977 C1986 0.930 . S
H1978 C1988 0.930 . S
H1979 C1991 0.929 . S
H1980 C1994 0.930 . S
H1981 C1996 0.960 . S
H1982 C1996 0.960 . S
H1983 C1996 0.960 . S
C1984 H1976 0.929 . S
C1984 C1985 1.377 . S
C1984 C1986 1.384 . S
C1985 C1984 1.377 . S
C1985 C1991 1.390 . S
C1986 H1977 0.930 . S
C1986 C1984 1.384 . S
C1986 C1987 1.372 . S
C1987 C1986 1.372 . S
C1987 C1988 1.400 . S
C1987 C1992 1.490 . S
C1988 H1978 0.930 . S
C1988 C1987 1.400 . S
C1988 C1991 1.386 . S
H1989 C2005 0.930 . S
H1990 C2006 0.931 . S
C1991 H1979 0.929 . S
C1991 C1985 1.390 . S
C1991 C1988 1.386 . S
C1992 C1987 1.490 . S
C1992 C1994 1.395 . S
C1992 C1995 1.403 . S
H1993 C1999 0.930 . S
C1994 H1980 0.930 . S
C1994 C1992 1.395 . S
C1994 C1997 1.403 . S
C1995 C1992 1.403 . S
C1995 C1996 1.524 . S
C1995 C1999 1.400 . S
C1996 H1981 0.960 . S
C1996 H1982 0.960 . S
C1996 H1983 0.960 . S
C1996 C1995 1.524 . S
C1997 C1994 1.403 . S
C1997 C1998 1.392 . S
C1997 C2001 1.495 . S
C1998 C1997 1.392 . S
C1998 C1999 1.385 . S
C1998 C2000 1.478 . S
C1999 H1993 0.930 . S
C1999 C1995 1.400 . S
C1999 C1998 1.385 . S
C2000 C1998 1.478 . S
C2000 C2002 1.381 . S
C2000 C2006 1.383 . S
C2001 C1997 1.495 . S
C2001 H2007 0.959 . S
C2001 H2008 0.961 . S
C2001 H2009 0.960 . S
C2002 C2000 1.381 . S
C2002 C2003 1.394 . S
C2002 H2010 0.930 . S
C2003 C2002 1.394 . S
C2003 C2004 1.383 . S
C2003 H2011 0.929 . S
C2004 C2003 1.383 . S
C2004 C2005 1.377 . S
C2005 H1989 0.930 . S
C2005 C2004 1.377 . S
C2005 C2006 1.379 . S
C2006 H1990 0.931 . S
C2006 C2000 1.383 . S
C2006 C2005 1.379 . S
H2007 C2001 0.959 . S
H2008 C2001 0.961 . S
H2009 C2001 0.960 . S
H2010 C2002 0.930 . S
H2011 C2003 0.929 . S
H2012 C2020 0.929 . S
H2013 C2022 0.930 . S
H2014 C2024 0.930 . S
H2015 C2027 0.929 . S
H2016 C2030 0.930 . S
H2017 C2032 0.960 . S
H2018 C2032 0.960 . S
H2019 C2032 0.960 . S
C2020 H2012 0.929 . S
C2020 C2021 1.377 . S
C2020 C2022 1.384 . S
C2021 C2020 1.377 . S
C2021 C2027 1.390 . S
C2022 H2013 0.930 . S
C2022 C2020 1.384 . S
C2022 C2023 1.372 . S
C2023 C2022 1.372 . S
C2023 C2024 1.400 . S
C2023 C2028 1.490 . S
C2024 H2014 0.930 . S
C2024 C2023 1.400 . S
C2024 C2027 1.386 . S
H2025 C2041 0.930 . S
H2026 C2042 0.931 . S
C2027 H2015 0.929 . S
C2027 C2021 1.390 . S
C2027 C2024 1.386 . S
C2028 C2023 1.490 . S
C2028 C2030 1.395 . S
C2028 C2031 1.403 . S
H2029 C2035 0.930 . S
C2030 H2016 0.930 . S
C2030 C2028 1.395 . S
C2030 C2033 1.403 . S
C2031 C2028 1.403 . S
C2031 C2032 1.524 . S
C2031 C2035 1.400 . S
C2032 H2017 0.960 . S
C2032 H2018 0.960 . S
C2032 H2019 0.960 . S
C2032 C2031 1.524 . S
C2033 C2030 1.403 . S
C2033 C2034 1.392 . S
C2033 C2037 1.495 . S
C2034 C2033 1.392 . S
C2034 C2035 1.385 . S
C2034 C2036 1.478 . S
C2035 H2029 0.930 . S
C2035 C2031 1.400 . S
C2035 C2034 1.385 . S
C2036 C2034 1.478 . S
C2036 C2038 1.381 . S
C2036 C2042 1.383 . S
C2037 C2033 1.495 . S
C2037 H2043 0.959 . S
C2037 H2044 0.961 . S
C2037 H2045 0.960 . S
C2038 C2036 1.381 . S
C2038 C2039 1.394 . S
C2038 H2046 0.930 . S
C2039 C2038 1.394 . S
C2039 C2040 1.383 . S
C2039 H2047 0.929 . S
C2040 C2039 1.383 . S
C2040 C2041 1.377 . S
C2041 H2025 0.930 . S
C2041 C2040 1.377 . S
C2041 C2042 1.379 . S
C2042 H2026 0.931 . S
C2042 C2036 1.383 . S
C2042 C2041 1.379 . S
H2043 C2037 0.959 . S
H2044 C2037 0.961 . S
H2045 C2037 0.960 . S
H2046 C2038 0.930 . S
H2047 C2039 0.929 . S
H2048 C2056 0.929 . S
H2049 C2058 0.930 . S
H2050 C2060 0.930 . S
H2051 C2063 0.929 . S
H2052 C2066 0.930 . S
H2053 C2068 0.960 . S
H2054 C2068 0.960 . S
H2055 C2068 0.960 . S
C2056 H2048 0.929 . S
C2056 C2057 1.377 . S
C2056 C2058 1.384 . S
C2057 C2056 1.377 . S
C2057 C2063 1.390 . S
C2058 H2049 0.930 . S
C2058 C2056 1.384 . S
C2058 C2059 1.372 . S
C2059 C2058 1.372 . S
C2059 C2060 1.400 . S
C2059 C2064 1.490 . S
C2060 H2050 0.930 . S
C2060 C2059 1.400 . S
C2060 C2063 1.386 . S
H2061 C2077 0.930 . S
H2062 C2078 0.931 . S
C2063 H2051 0.929 . S
C2063 C2057 1.390 . S
C2063 C2060 1.386 . S
C2064 C2059 1.490 . S
C2064 C2066 1.395 . S
C2064 C2067 1.403 . S
H2065 C2071 0.930 . S
C2066 H2052 0.930 . S
C2066 C2064 1.395 . S
C2066 C2069 1.403 . S
C2067 C2064 1.403 . S
C2067 C2068 1.524 . S
C2067 C2071 1.400 . S
C2068 H2053 0.960 . S
C2068 H2054 0.960 . S
C2068 H2055 0.960 . S
C2068 C2067 1.524 . S
C2069 C2066 1.403 . S
C2069 C2070 1.392 . S
C2069 C2073 1.495 . S
C2070 C2069 1.392 . S
C2070 C2071 1.385 . S
C2070 C2072 1.478 . S
C2071 H2065 0.930 . S
C2071 C2067 1.400 . S
C2071 C2070 1.385 . S
C2072 C2070 1.478 . S
C2072 C2074 1.381 . S
C2072 C2078 1.383 . S
C2073 C2069 1.495 . S
C2073 H2079 0.959 . S
C2073 H2080 0.961 . S
C2073 H2081 0.960 . S
C2074 C2072 1.381 . S
C2074 C2075 1.394 . S
C2074 H2082 0.930 . S
C2075 C2074 1.394 . S
C2075 C2076 1.383 . S
C2075 H2083 0.929 . S
C2076 C2075 1.383 . S
C2076 C2077 1.377 . S
C2077 H2061 0.930 . S
C2077 C2076 1.377 . S
C2077 C2078 1.379 . S
C2078 H2062 0.931 . S
C2078 C2072 1.383 . S
C2078 C2077 1.379 . S
H2079 C2073 0.959 . S
H2080 C2073 0.961 . S
H2081 C2073 0.960 . S
H2082 C2074 0.930 . S
H2083 C2075 0.929 . S
H2084 C2092 0.929 . S
H2085 C2094 0.930 . S
H2086 C2096 0.930 . S
H2087 C2099 0.929 . S
H2088 C2102 0.930 . S
H2089 C2104 0.960 . S
H2090 C2104 0.960 . S
H2091 C2104 0.960 . S
C2092 H2084 0.929 . S
C2092 C2093 1.377 . S
C2092 C2094 1.384 . S
C2093 C2092 1.377 . S
C2093 C2099 1.390 . S
C2094 H2085 0.930 . S
C2094 C2092 1.384 . S
C2094 C2095 1.372 . S
C2095 C2094 1.372 . S
C2095 C2096 1.400 . S
C2095 C2100 1.490 . S
C2096 H2086 0.930 . S
C2096 C2095 1.400 . S
C2096 C2099 1.386 . S
H2097 C2113 0.930 . S
H2098 C2114 0.931 . S
C2099 H2087 0.929 . S
C2099 C2093 1.390 . S
C2099 C2096 1.386 . S
C2100 C2095 1.490 . S
C2100 C2102 1.395 . S
C2100 C2103 1.403 . S
H2101 C2107 0.930 . S
C2102 H2088 0.930 . S
C2102 C2100 1.395 . S
C2102 C2105 1.403 . S
C2103 C2100 1.403 . S
C2103 C2104 1.524 . S
C2103 C2107 1.400 . S
C2104 H2089 0.960 . S
C2104 H2090 0.960 . S
C2104 H2091 0.960 . S
C2104 C2103 1.524 . S
C2105 C2102 1.403 . S
C2105 C2106 1.392 . S
C2105 C2109 1.495 . S
C2106 C2105 1.392 . S
C2106 C2107 1.385 . S
C2106 C2108 1.478 . S
C2107 H2101 0.930 . S
C2107 C2103 1.400 . S
C2107 C2106 1.385 . S
C2108 C2106 1.478 . S
C2108 C2110 1.381 . S
C2108 C2114 1.383 . S
C2109 C2105 1.495 . S
C2109 H2115 0.959 . S
C2109 H2116 0.961 . S
C2109 H2117 0.960 . S
C2110 C2108 1.381 . S
C2110 C2111 1.394 . S
C2110 H2118 0.930 . S
C2111 C2110 1.394 . S
C2111 C2112 1.383 . S
C2111 H2119 0.929 . S
C2112 C2111 1.383 . S
C2112 C2113 1.377 . S
C2113 H2097 0.930 . S
C2113 C2112 1.377 . S
C2113 C2114 1.379 . S
C2114 H2098 0.931 . S
C2114 C2108 1.383 . S
C2114 C2113 1.379 . S
H2115 C2109 0.959 . S
H2116 C2109 0.961 . S
H2117 C2109 0.960 . S
H2118 C2110 0.930 . S
H2119 C2111 0.929 . S
H2120 C2128 0.929 . S
H2121 C2130 0.930 . S
H2122 C2132 0.930 . S
H2123 C2135 0.929 . S
H2124 C2138 0.930 . S
H2125 C2140 0.960 . S
H2126 C2140 0.960 . S
H2127 C2140 0.960 . S
C2128 H2120 0.929 . S
C2128 C2129 1.377 . S
C2128 C2130 1.384 . S
C2129 C2128 1.377 . S
C2129 C2135 1.390 . S
C2130 H2121 0.930 . S
C2130 C2128 1.384 . S
C2130 C2131 1.372 . S
C2131 C2130 1.372 . S
C2131 C2132 1.400 . S
C2131 C2136 1.490 . S
C2132 H2122 0.930 . S
C2132 C2131 1.400 . S
C2132 C2135 1.386 . S
H2133 C2149 0.930 . S
H2134 C2150 0.931 . S
C2135 H2123 0.929 . S
C2135 C2129 1.390 . S
C2135 C2132 1.386 . S
C2136 C2131 1.490 . S
C2136 C2138 1.395 . S
C2136 C2139 1.403 . S
H2137 C2143 0.930 . S
C2138 H2124 0.930 . S
C2138 C2136 1.395 . S
C2138 C2141 1.403 . S
C2139 C2136 1.403 . S
C2139 C2140 1.524 . S
C2139 C2143 1.400 . S
C2140 H2125 0.960 . S
C2140 H2126 0.960 . S
C2140 H2127 0.960 . S
C2140 C2139 1.524 . S
C2141 C2138 1.403 . S
C2141 C2142 1.392 . S
C2141 C2145 1.495 . S
C2142 C2141 1.392 . S
C2142 C2143 1.385 . S
C2142 C2144 1.478 . S
C2143 H2137 0.930 . S
C2143 C2139 1.400 . S
C2143 C2142 1.385 . S
C2144 C2142 1.478 . S
C2144 C2146 1.381 . S
C2144 C2150 1.383 . S
C2145 C2141 1.495 . S
C2145 H2151 0.959 . S
C2145 H2152 0.961 . S
C2145 H2153 0.960 . S
C2146 C2144 1.381 . S
C2146 C2147 1.394 . S
C2146 H2154 0.930 . S
C2147 C2146 1.394 . S
C2147 C2148 1.383 . S
C2147 H2155 0.929 . S
C2148 C2147 1.383 . S
C2148 C2149 1.377 . S
C2149 H2133 0.930 . S
C2149 C2148 1.377 . S
C2149 C2150 1.379 . S
C2150 H2134 0.931 . S
C2150 C2144 1.383 . S
C2150 C2149 1.379 . S
H2151 C2145 0.959 . S
H2152 C2145 0.961 . S
H2153 C2145 0.960 . S
H2154 C2146 0.930 . S
H2155 C2147 0.929 . S
H2156 C2164 0.929 . S
H2157 C2166 0.930 . S
H2158 C2168 0.930 . S
H2159 C2171 0.929 . S
H2160 C2174 0.930 . S
H2161 C2176 0.960 . S
H2162 C2176 0.960 . S
H2163 C2176 0.960 . S
C2164 H2156 0.929 . S
C2164 C2165 1.377 . S
C2164 C2166 1.384 . S
C2165 C2164 1.377 . S
C2165 C2171 1.390 . S
C2166 H2157 0.930 . S
C2166 C2164 1.384 . S
C2166 C2167 1.372 . S
C2167 C2166 1.372 . S
C2167 C2168 1.400 . S
C2167 C2172 1.490 . S
C2168 H2158 0.930 . S
C2168 C2167 1.400 . S
C2168 C2171 1.386 . S
H2169 C2185 0.930 . S
H2170 C2186 0.931 . S
C2171 H2159 0.929 . S
C2171 C2165 1.390 . S
C2171 C2168 1.386 . S
C2172 C2167 1.490 . S
C2172 C2174 1.395 . S
C2172 C2175 1.403 . S
H2173 C2179 0.930 . S
C2174 H2160 0.930 . S
C2174 C2172 1.395 . S
C2174 C2177 1.403 . S
C2175 C2172 1.403 . S
C2175 C2176 1.524 . S
C2175 C2179 1.400 . S
C2176 H2161 0.960 . S
C2176 H2162 0.960 . S
C2176 H2163 0.960 . S
C2176 C2175 1.524 . S
C2177 C2174 1.403 . S
C2177 C2178 1.392 . S
C2177 C2181 1.495 . S
C2178 C2177 1.392 . S
C2178 C2179 1.385 . S
C2178 C2180 1.478 . S
C2179 H2173 0.930 . S
C2179 C2175 1.400 . S
C2179 C2178 1.385 . S
C2180 C2178 1.478 . S
C2180 C2182 1.381 . S
C2180 C2186 1.383 . S
C2181 C2177 1.495 . S
C2181 H2187 0.959 . S
C2181 H2188 0.961 . S
C2181 H2189 0.960 . S
C2182 C2180 1.381 . S
C2182 C2183 1.394 . S
C2182 H2190 0.930 . S
C2183 C2182 1.394 . S
C2183 C2184 1.383 . S
C2183 H2191 0.929 . S
C2184 C2183 1.383 . S
C2184 C2185 1.377 . S
C2185 H2169 0.930 . S
C2185 C2184 1.377 . S
C2185 C2186 1.379 . S
C2186 H2170 0.931 . S
C2186 C2180 1.383 . S
C2186 C2185 1.379 . S
H2187 C2181 0.959 . S
H2188 C2181 0.961 . S
H2189 C2181 0.960 . S
H2190 C2182 0.930 . S
H2191 C2183 0.929 . S
H2192 C2200 0.929 . S
H2193 C2202 0.930 . S
H2194 C2204 0.930 . S
H2195 C2207 0.929 . S
H2196 C2210 0.930 . S
H2197 C2212 0.960 . S
H2198 C2212 0.960 . S
H2199 C2212 0.960 . S
C2200 H2192 0.929 . S
C2200 C2201 1.377 . S
C2200 C2202 1.384 . S
C2201 C2200 1.377 . S
C2201 C2207 1.390 . S
C2202 H2193 0.930 . S
C2202 C2200 1.384 . S
C2202 C2203 1.372 . S
C2203 C2202 1.372 . S
C2203 C2204 1.400 . S
C2203 C2208 1.490 . S
C2204 H2194 0.930 . S
C2204 C2203 1.400 . S
C2204 C2207 1.386 . S
H2205 C2221 0.930 . S
H2206 C2222 0.931 . S
C2207 H2195 0.929 . S
C2207 C2201 1.390 . S
C2207 C2204 1.386 . S
C2208 C2203 1.490 . S
C2208 C2210 1.395 . S
C2208 C2211 1.403 . S
H2209 C2215 0.930 . S
C2210 H2196 0.930 . S
C2210 C2208 1.395 . S
C2210 C2213 1.403 . S
C2211 C2208 1.403 . S
C2211 C2212 1.524 . S
C2211 C2215 1.400 . S
C2212 H2197 0.960 . S
C2212 H2198 0.960 . S
C2212 H2199 0.960 . S
C2212 C2211 1.524 . S
C2213 C2210 1.403 . S
C2213 C2214 1.392 . S
C2213 C2217 1.495 . S
C2214 C2213 1.392 . S
C2214 C2215 1.385 . S
C2214 C2216 1.478 . S
C2215 H2209 0.930 . S
C2215 C2211 1.400 . S
C2215 C2214 1.385 . S
C2216 C2214 1.478 . S
C2216 C2218 1.381 . S
C2216 C2222 1.383 . S
C2217 C2213 1.495 . S
C2217 H2223 0.959 . S
C2217 H2224 0.961 . S
C2217 H2225 0.960 . S
C2218 C2216 1.381 . S
C2218 C2219 1.394 . S
C2218 H2226 0.930 . S
C2219 C2218 1.394 . S
C2219 C2220 1.383 . S
C2219 H2227 0.929 . S
C2220 C2219 1.383 . S
C2220 C2221 1.377 . S
C2221 H2205 0.930 . S
C2221 C2220 1.377 . S
C2221 C2222 1.379 . S
C2222 H2206 0.931 . S
C2222 C2216 1.383 . S
C2222 C2221 1.379 . S
H2223 C2217 0.959 . S
H2224 C2217 0.961 . S
H2225 C2217 0.960 . S
H2226 C2218 0.930 . S
H2227 C2219 0.929 . S
H2228 C2236 0.929 . S
H2229 C2238 0.930 . S
H2230 C2240 0.930 . S
H2231 C2243 0.929 . S
H2232 C2246 0.930 . S
H2233 C2248 0.960 . S
H2234 C2248 0.960 . S
H2235 C2248 0.960 . S
C2236 H2228 0.929 . S
C2236 C2237 1.377 . S
C2236 C2238 1.384 . S
C2237 C2236 1.377 . S
C2237 C2243 1.390 . S
C2238 H2229 0.930 . S
C2238 C2236 1.384 . S
C2238 C2239 1.372 . S
C2239 C2238 1.372 . S
C2239 C2240 1.400 . S
C2239 C2244 1.490 . S
C2240 H2230 0.930 . S
C2240 C2239 1.400 . S
C2240 C2243 1.386 . S
H2241 C2257 0.930 . S
H2242 C2258 0.931 . S
C2243 H2231 0.929 . S
C2243 C2237 1.390 . S
C2243 C2240 1.386 . S
C2244 C2239 1.490 . S
C2244 C2246 1.395 . S
C2244 C2247 1.403 . S
H2245 C2251 0.930 . S
C2246 H2232 0.930 . S
C2246 C2244 1.395 . S
C2246 C2249 1.403 . S
C2247 C2244 1.403 . S
C2247 C2248 1.524 . S
C2247 C2251 1.400 . S
C2248 H2233 0.960 . S
C2248 H2234 0.960 . S
C2248 H2235 0.960 . S
C2248 C2247 1.524 . S
C2249 C2246 1.403 . S
C2249 C2250 1.392 . S
C2249 C2253 1.495 . S
C2250 C2249 1.392 . S
C2250 C2251 1.385 . S
C2250 C2252 1.478 . S
C2251 H2245 0.930 . S
C2251 C2247 1.400 . S
C2251 C2250 1.385 . S
C2252 C2250 1.478 . S
C2252 C2254 1.381 . S
C2252 C2258 1.383 . S
C2253 C2249 1.495 . S
C2253 H2259 0.959 . S
C2253 H2260 0.961 . S
C2253 H2261 0.960 . S
C2254 C2252 1.381 . S
C2254 C2255 1.394 . S
C2254 H2262 0.930 . S
C2255 C2254 1.394 . S
C2255 C2256 1.383 . S
C2255 H2263 0.929 . S
C2256 C2255 1.383 . S
C2256 C2257 1.377 . S
C2257 H2241 0.930 . S
C2257 C2256 1.377 . S
C2257 C2258 1.379 . S
C2258 H2242 0.931 . S
C2258 C2252 1.383 . S
C2258 C2257 1.379 . S
H2259 C2253 0.959 . S
H2260 C2253 0.961 . S
H2261 C2253 0.960 . S
H2262 C2254 0.930 . S
H2263 C2255 0.929 . S
H2264 C2272 0.929 . S
H2265 C2274 0.930 . S
H2266 C2276 0.930 . S
H2267 C2279 0.929 . S
H2268 C2282 0.930 . S
H2269 C2284 0.960 . S
H2270 C2284 0.960 . S
H2271 C2284 0.960 . S
C2272 H2264 0.929 . S
C2272 C2273 1.377 . S
C2272 C2274 1.384 . S
C2273 C2272 1.377 . S
C2273 C2279 1.390 . S
C2274 H2265 0.930 . S
C2274 C2272 1.384 . S
C2274 C2275 1.372 . S
C2275 C2274 1.372 . S
C2275 C2276 1.400 . S
C2275 C2280 1.490 . S
C2276 H2266 0.930 . S
C2276 C2275 1.400 . S
C2276 C2279 1.386 . S
H2277 C2293 0.930 . S
H2278 C2294 0.931 . S
C2279 H2267 0.929 . S
C2279 C2273 1.390 . S
C2279 C2276 1.386 . S
C2280 C2275 1.490 . S
C2280 C2282 1.395 . S
C2280 C2283 1.403 . S
H2281 C2287 0.930 . S
C2282 H2268 0.930 . S
C2282 C2280 1.395 . S
C2282 C2285 1.403 . S
C2283 C2280 1.403 . S
C2283 C2284 1.524 . S
C2283 C2287 1.400 . S
C2284 H2269 0.960 . S
C2284 H2270 0.960 . S
C2284 H2271 0.960 . S
C2284 C2283 1.524 . S
C2285 C2282 1.403 . S
C2285 C2286 1.392 . S
C2285 C2289 1.495 . S
C2286 C2285 1.392 . S
C2286 C2287 1.385 . S
C2286 C2288 1.478 . S
C2287 H2281 0.930 . S
C2287 C2283 1.400 . S
C2287 C2286 1.385 . S
C2288 C2286 1.478 . S
C2288 C2290 1.381 . S
C2288 C2294 1.383 . S
C2289 C2285 1.495 . S
C2289 H2295 0.959 . S
C2289 H2296 0.961 . S
C2289 H2297 0.960 . S
C2290 C2288 1.381 . S
C2290 C2291 1.394 . S
C2290 H2298 0.930 . S
C2291 C2290 1.394 . S
C2291 C2292 1.383 . S
C2291 H2299 0.929 . S
C2292 C2291 1.383 . S
C2292 C2293 1.377 . S
C2293 H2277 0.930 . S
C2293 C2292 1.377 . S
C2293 C2294 1.379 . S
C2294 H2278 0.931 . S
C2294 C2288 1.383 . S
C2294 C2293 1.379 . S
H2295 C2289 0.959 . S
H2296 C2289 0.961 . S
H2297 C2289 0.960 . S
H2298 C2290 0.930 . S
H2299 C2291 0.929 . S
H2300 C2308 0.929 . S
H2301 C2310 0.930 . S
H2302 C2312 0.930 . S
H2303 C2315 0.929 . S
H2304 C2318 0.930 . S
H2305 C2320 0.960 . S
H2306 C2320 0.960 . S
H2307 C2320 0.960 . S
C2308 H2300 0.929 . S
C2308 C2309 1.377 . S
C2308 C2310 1.384 . S
C2309 C2308 1.377 . S
C2309 C2315 1.390 . S
C2310 H2301 0.930 . S
C2310 C2308 1.384 . S
C2310 C2311 1.372 . S
C2311 C2310 1.372 . S
C2311 C2312 1.400 . S
C2311 C2316 1.490 . S
C2312 H2302 0.930 . S
C2312 C2311 1.400 . S
C2312 C2315 1.386 . S
H2313 C2329 0.930 . S
H2314 C2330 0.931 . S
C2315 H2303 0.929 . S
C2315 C2309 1.390 . S
C2315 C2312 1.386 . S
C2316 C2311 1.490 . S
C2316 C2318 1.395 . S
C2316 C2319 1.403 . S
H2317 C2323 0.930 . S
C2318 H2304 0.930 . S
C2318 C2316 1.395 . S
C2318 C2321 1.403 . S
C2319 C2316 1.403 . S
C2319 C2320 1.524 . S
C2319 C2323 1.400 . S
C2320 H2305 0.960 . S
C2320 H2306 0.960 . S
C2320 H2307 0.960 . S
C2320 C2319 1.524 . S
C2321 C2318 1.403 . S
C2321 C2322 1.392 . S
C2321 C2325 1.495 . S
C2322 C2321 1.392 . S
C2322 C2323 1.385 . S
C2322 C2324 1.478 . S
C2323 H2317 0.930 . S
C2323 C2319 1.400 . S
C2323 C2322 1.385 . S
C2324 C2322 1.478 . S
C2324 C2326 1.381 . S
C2324 C2330 1.383 . S
C2325 C2321 1.495 . S
C2325 H2331 0.959 . S
C2325 H2332 0.961 . S
C2325 H2333 0.960 . S
C2326 C2324 1.381 . S
C2326 C2327 1.394 . S
C2326 H2334 0.930 . S
C2327 C2326 1.394 . S
C2327 C2328 1.383 . S
C2327 H2335 0.929 . S
C2328 C2327 1.383 . S
C2328 C2329 1.377 . S
C2329 H2313 0.930 . S
C2329 C2328 1.377 . S
C2329 C2330 1.379 . S
C2330 H2314 0.931 . S
C2330 C2324 1.383 . S
C2330 C2329 1.379 . S
H2331 C2325 0.959 . S
H2332 C2325 0.961 . S
H2333 C2325 0.960 . S
H2334 C2326 0.930 . S
H2335 C2327 0.929 . S
H2336 C2344 0.929 . S
H2337 C2346 0.930 . S
H2338 C2348 0.930 . S
H2339 C2351 0.929 . S
H2340 C2354 0.930 . S
H2341 C2356 0.960 . S
H2342 C2356 0.960 . S
H2343 C2356 0.960 . S
C2344 H2336 0.929 . S
C2344 C2345 1.377 . S
C2344 C2346 1.384 . S
C2345 C2344 1.377 . S
C2345 C2351 1.390 . S
C2346 H2337 0.930 . S
C2346 C2344 1.384 . S
C2346 C2347 1.372 . S
C2347 C2346 1.372 . S
C2347 C2348 1.400 . S
C2347 C2352 1.490 . S
C2348 H2338 0.930 . S
C2348 C2347 1.400 . S
C2348 C2351 1.386 . S
H2349 C2365 0.930 . S
H2350 C2366 0.931 . S
C2351 H2339 0.929 . S
C2351 C2345 1.390 . S
C2351 C2348 1.386 . S
C2352 C2347 1.490 . S
C2352 C2354 1.395 . S
C2352 C2355 1.403 . S
H2353 C2359 0.930 . S
C2354 H2340 0.930 . S
C2354 C2352 1.395 . S
C2354 C2357 1.403 . S
C2355 C2352 1.403 . S
C2355 C2356 1.524 . S
C2355 C2359 1.400 . S
C2356 H2341 0.960 . S
C2356 H2342 0.960 . S
C2356 H2343 0.960 . S
C2356 C2355 1.524 . S
C2357 C2354 1.403 . S
C2357 C2358 1.392 . S
C2357 C2361 1.495 . S
C2358 C2357 1.392 . S
C2358 C2359 1.385 . S
C2358 C2360 1.478 . S
C2359 H2353 0.930 . S
C2359 C2355 1.400 . S
C2359 C2358 1.385 . S
C2360 C2358 1.478 . S
C2360 C2362 1.381 . S
C2360 C2366 1.383 . S
C2361 C2357 1.495 . S
C2361 H2367 0.959 . S
C2361 H2368 0.961 . S
C2361 H2369 0.960 . S
C2362 C2360 1.381 . S
C2362 C2363 1.394 . S
C2362 H2370 0.930 . S
C2363 C2362 1.394 . S
C2363 C2364 1.383 . S
C2363 H2371 0.929 . S
C2364 C2363 1.383 . S
C2364 C2365 1.377 . S
C2365 H2349 0.930 . S
C2365 C2364 1.377 . S
C2365 C2366 1.379 . S
C2366 H2350 0.931 . S
C2366 C2360 1.383 . S
C2366 C2365 1.379 . S
H2367 C2361 0.959 . S
H2368 C2361 0.961 . S
H2369 C2361 0.960 . S
H2370 C2362 0.930 . S
H2371 C2363 0.929 . S
H2372 C2380 0.929 . S
H2373 C2382 0.930 . S
H2374 C2384 0.930 . S
H2375 C2387 0.929 . S
H2376 C2390 0.930 . S
H2377 C2392 0.960 . S
H2378 C2392 0.960 . S
H2379 C2392 0.960 . S
C2380 H2372 0.929 . S
C2380 C2381 1.377 . S
C2380 C2382 1.384 . S
C2381 C2380 1.377 . S
C2381 C2387 1.390 . S
C2382 H2373 0.930 . S
C2382 C2380 1.384 . S
C2382 C2383 1.372 . S
C2383 C2382 1.372 . S
C2383 C2384 1.400 . S
C2383 C2388 1.490 . S
C2384 H2374 0.930 . S
C2384 C2383 1.400 . S
C2384 C2387 1.386 . S
H2385 C2401 0.930 . S
H2386 C2402 0.931 . S
C2387 H2375 0.929 . S
C2387 C2381 1.390 . S
C2387 C2384 1.386 . S
C2388 C2383 1.490 . S
C2388 C2390 1.395 . S
C2388 C2391 1.403 . S
H2389 C2395 0.930 . S
C2390 H2376 0.930 . S
C2390 C2388 1.395 . S
C2390 C2393 1.403 . S
C2391 C2388 1.403 . S
C2391 C2392 1.524 . S
C2391 C2395 1.400 . S
C2392 H2377 0.960 . S
C2392 H2378 0.960 . S
C2392 H2379 0.960 . S
C2392 C2391 1.524 . S
C2393 C2390 1.403 . S
C2393 C2394 1.392 . S
C2393 C2397 1.495 . S
C2394 C2393 1.392 . S
C2394 C2395 1.385 . S
C2394 C2396 1.478 . S
C2395 H2389 0.930 . S
C2395 C2391 1.400 . S
C2395 C2394 1.385 . S
C2396 C2394 1.478 . S
C2396 C2398 1.381 . S
C2396 C2402 1.383 . S
C2397 C2393 1.495 . S
C2397 H2403 0.959 . S
C2397 H2404 0.961 . S
C2397 H2405 0.960 . S
C2398 C2396 1.381 . S
C2398 C2399 1.394 . S
C2398 H2406 0.930 . S
C2399 C2398 1.394 . S
C2399 C2400 1.383 . S
C2399 H2407 0.929 . S
C2400 C2399 1.383 . S
C2400 C2401 1.377 . S
C2401 H2385 0.930 . S
C2401 C2400 1.377 . S
C2401 C2402 1.379 . S
C2402 H2386 0.931 . S
C2402 C2396 1.383 . S
C2402 C2401 1.379 . S
H2403 C2397 0.959 . S
H2404 C2397 0.961 . S
H2405 C2397 0.960 . S
H2406 C2398 0.930 . S
H2407 C2399 0.929 . S
H2408 C2416 0.929 . S
H2409 C2418 0.930 . S
H2410 C2420 0.930 . S
H2411 C2423 0.929 . S
H2412 C2426 0.930 . S
H2413 C2428 0.960 . S
H2414 C2428 0.960 . S
H2415 C2428 0.960 . S
C2416 H2408 0.929 . S
C2416 C2417 1.377 . S
C2416 C2418 1.384 . S
C2417 C2416 1.377 . S
C2417 C2423 1.390 . S
C2418 H2409 0.930 . S
C2418 C2416 1.384 . S
C2418 C2419 1.372 . S
C2419 C2418 1.372 . S
C2419 C2420 1.400 . S
C2419 C2424 1.490 . S
C2420 H2410 0.930 . S
C2420 C2419 1.400 . S
C2420 C2423 1.386 . S
H2421 C2437 0.930 . S
H2422 C2438 0.931 . S
C2423 H2411 0.929 . S
C2423 C2417 1.390 . S
C2423 C2420 1.386 . S
C2424 C2419 1.490 . S
C2424 C2426 1.395 . S
C2424 C2427 1.403 . S
H2425 C2431 0.930 . S
C2426 H2412 0.930 . S
C2426 C2424 1.395 . S
C2426 C2429 1.403 . S
C2427 C2424 1.403 . S
C2427 C2428 1.524 . S
C2427 C2431 1.400 . S
C2428 H2413 0.960 . S
C2428 H2414 0.960 . S
C2428 H2415 0.960 . S
C2428 C2427 1.524 . S
C2429 C2426 1.403 . S
C2429 C2430 1.392 . S
C2429 C2433 1.495 . S
C2430 C2429 1.392 . S
C2430 C2431 1.385 . S
C2430 C2432 1.478 . S
C2431 H2425 0.930 . S
C2431 C2427 1.400 . S
C2431 C2430 1.385 . S
C2432 C2430 1.478 . S
C2432 C2434 1.381 . S
C2432 C2438 1.383 . S
C2433 C2429 1.495 . S
C2433 H2439 0.959 . S
C2433 H2440 0.961 . S
C2433 H2441 0.960 . S
C2434 C2432 1.381 . S
C2434 C2435 1.394 . S
C2434 H2442 0.930 . S
C2435 C2434 1.394 . S
C2435 C2436 1.383 . S
C2435 H2443 0.929 . S
C2436 C2435 1.383 . S
C2436 C2437 1.377 . S
C2437 H2421 0.930 . S
C2437 C2436 1.377 . S
C2437 C2438 1.379 . S
C2438 H2422 0.931 . S
C2438 C2432 1.383 . S
C2438 C2437 1.379 . S
H2439 C2433 0.959 . S
H2440 C2433 0.961 . S
H2441 C2433 0.960 . S
H2442 C2434 0.930 . S
H2443 C2435 0.929 . S
H2444 C2452 0.929 . S
H2445 C2454 0.930 . S
H2446 C2456 0.930 . S
H2447 C2459 0.929 . S
H2448 C2462 0.930 . S
H2449 C2464 0.960 . S
H2450 C2464 0.960 . S
H2451 C2464 0.960 . S
C2452 H2444 0.929 . S
C2452 C2453 1.377 . S
C2452 C2454 1.384 . S
C2453 C2452 1.377 . S
C2453 C2459 1.390 . S
C2454 H2445 0.930 . S
C2454 C2452 1.384 . S
C2454 C2455 1.372 . S
C2455 C2454 1.372 . S
C2455 C2456 1.400 . S
C2455 C2460 1.490 . S
C2456 H2446 0.930 . S
C2456 C2455 1.400 . S
C2456 C2459 1.386 . S
H2457 C2473 0.930 . S
H2458 C2474 0.931 . S
C2459 H2447 0.929 . S
C2459 C2453 1.390 . S
C2459 C2456 1.386 . S
C2460 C2455 1.490 . S
C2460 C2462 1.395 . S
C2460 C2463 1.403 . S
H2461 C2467 0.930 . S
C2462 H2448 0.930 . S
C2462 C2460 1.395 . S
C2462 C2465 1.403 . S
C2463 C2460 1.403 . S
C2463 C2464 1.524 . S
C2463 C2467 1.400 . S
C2464 H2449 0.960 . S
C2464 H2450 0.960 . S
C2464 H2451 0.960 . S
C2464 C2463 1.524 . S
C2465 C2462 1.403 . S
C2465 C2466 1.392 . S
C2465 C2469 1.495 . S
C2466 C2465 1.392 . S
C2466 C2467 1.385 . S
C2466 C2468 1.478 . S
C2467 H2461 0.930 . S
C2467 C2463 1.400 . S
C2467 C2466 1.385 . S
C2468 C2466 1.478 . S
C2468 C2470 1.381 . S
C2468 C2474 1.383 . S
C2469 C2465 1.495 . S
C2469 H2475 0.959 . S
C2469 H2476 0.961 . S
C2469 H2477 0.960 . S
C2470 C2468 1.381 . S
C2470 C2471 1.394 . S
C2470 H2478 0.930 . S
C2471 C2470 1.394 . S
C2471 C2472 1.383 . S
C2471 H2479 0.929 . S
C2472 C2471 1.383 . S
C2472 C2473 1.377 . S
C2473 H2457 0.930 . S
C2473 C2472 1.377 . S
C2473 C2474 1.379 . S
C2474 H2458 0.931 . S
C2474 C2468 1.383 . S
C2474 C2473 1.379 . S
H2475 C2469 0.959 . S
H2476 C2469 0.961 . S
H2477 C2469 0.960 . S
H2478 C2470 0.930 . S
H2479 C2471 0.929 . S
C473 C416 2.245 . S
C492 C3 2.302 1_565 S
C509 C445 2.245 . S
C528 C32 2.301 1_545 S
C545 C61 2.317 . S
C564 C242 2.251 . S
C581 C271 2.250 . S
C600 C90 2.304 . S
C617 C119 2.318 . S
C636 C300 2.263 . S
C653 C329 2.246 . S
C672 C148 2.306 . S
C689 C358 2.252 . S
C708 C177 2.306 . S
C725 C206 2.318 . S
C744 C387 2.231 . S
C761 C235 2.315 1_565 S
C780 C184 2.237 . S
C797 C264 2.317 1_545 S
C816 C213 2.258 . S
C833 C293 2.316 . S
C852 C10 2.263 . S
C869 C322 2.318 . S
C888 C39 2.231 . S
C905 C351 2.315 . S
C924 C68 2.229 . S
C941 C97 2.246 . S
C960 C380 2.303 . S
C977 C126 2.250 . S
C996 C409 2.303 . S
C1013 C155 2.251 . S
C1032 C438 2.315 . S
C1049 C385 0.682 . S
C1068 C8 0.626 . S
C1085 C356 0.666 . S
C1104 C37 0.722 . S
C1121 C66 0.678 . S
C1140 C95 0.631 . S
C1157 C124 0.675 . S
C1176 C269 0.650 . S
C1193 C240 0.679 . S
C1212 C153 0.678 . S
C1229 C182 0.684 . S
C1248 C211 0.676 . S
C1265 C327 0.678 . S
C1284 C298 0.631 . S
C1301 C414 0.678 . S
C1320 C443 0.631 . S
C1337 C274 2.485 . S
C1356 C5 2.727 . S
C1373 C34 2.728 . S
C1392 C245 2.445 . S
C1409 C63 2.731 . S
C1428 C216 2.477 . S
C1445 C187 2.475 1_455 S
C1464 C92 2.725 . S
C1481 C121 2.728 . S
C1500 C390 2.497 . S
C1517 C361 2.475 . S
C1536 C150 2.719 . S
C1553 C100 2.476 1_655 S
C1572 C179 2.714 . S
C1589 C71 2.485 . S
C1608 C208 2.733 . S
C1625 C42 2.474 . S
C1644 C237 2.724 . S
C1661 C13 2.485 . S
C1680 C266 2.733 . S
C1697 C448 2.484 . S
C1716 C295 2.734 . S
C1733 C419 2.481 . S
C1752 C324 2.735 . S
C1769 C353 2.728 . S
C1788 C158 2.446 . S
C1805 C129 2.476 . S
C1824 C382 2.725 . S
C1841 C411 2.728 . S
C1860 C332 2.449 . S
C1877 C303 2.474 . S
C1896 C440 2.724 . S
C1913 C224 0.750 . S
C1932 C15 0.793 . S
C1949 C44 0.739 . S
C1968 C195 0.695 . S
C1985 C73 0.740 . S
C2004 C398 0.720 . S
C2021 C102 0.734 . S
C2040 C369 0.812 . S
C2057 C131 0.741 . S
C2076 C108 0.810 . S
C2093 C79 0.749 . S
C2112 C160 0.793 . S
C2129 C189 0.744 . S
C2148 C282 0.800 . S
C2165 C253 0.732 . S
C2184 C218 0.782 . S
C2201 C247 0.730 . S
C2220 C456 0.815 . S
C2237 C276 0.744 . S
C2256 C427 0.754 . S
C2273 C305 0.741 . S
C2292 C166 0.734 . S
C2309 C137 0.739 . S
C2328 C334 0.795 . S
C2345 C340 0.729 . S
C2364 C363 0.788 . S
C2381 C311 0.749 . S
C2400 C392 0.715 . S
C2417 C421 0.718 . S
C2436 C50 0.739 . S
C2453 C450 0.730 . S
C2472 C21 0.663 . S
