# Generated by pormake.
# Topology sxc, (6)-cn, num edge types: 1
# Building blocks:
#     Node 0, Type 0, BuildingBlock: KUMBUR_clean_sbu_1, # of connection points: 6
#     Node 1, Type 0, BuildingBlock: KUMBUR_clean_sbu_1, # of connection points: 6
#     Node 2, Type 0, BuildingBlock: KUMBUR_clean_sbu_1, # of connection points: 6
#     Edge 3, Type (0, 0), BuildingBlock: XUDNAN_clean_linker_2, # of connection points: 2
#     Edge 4, Type (0, 0), BuildingBlock: XUDNAN_clean_linker_2, # of connection points: 2
#     Edge 5, Type (0, 0), BuildingBlock: XUDNAN_clean_linker_2, # of connection points: 2
#     Edge 6, Type (0, 0), BuildingBlock: XUDNAN_clean_linker_2, # of connection points: 2
#     Edge 7, Type (0, 0), BuildingBlock: XUDNAN_clean_linker_2, # of connection points: 2
#     Edge 8, Type (0, 0), BuildingBlock: XUDNAN_clean_linker_2, # of connection points: 2
#     Edge 9, Type (0, 0), BuildingBlock: XUDNAN_clean_linker_2, # of connection points: 2
#     Edge 10, Type (0, 0), BuildingBlock: XUDNAN_clean_linker_2, # of connection points: 2
#     Edge 11, Type (0, 0), BuildingBlock: XUDNAN_clean_linker_2, # of connection points: 2
# Relax obj value: 0.260
# Max RMSD: 0.159
# Mean RMSD: 0.117
data_MOF--net-sxc--node1-KUMBUR_clean_sbu_1--edge1-XUDNAN_clean_linker_2
_symmetry_space_group_name_H-M    P1
_symmetry_Int_Tables_number       1
_symmetry_cell_setting            triclinic
loop_
_symmetry_equiv_pos_as_xyz
'x, y, z'
_cell_length_a     15.560718
_cell_length_b     17.154
_cell_length_c     44.491336
_cell_angle_alpha  109.12635
_cell_angle_beta   98.329485
_cell_angle_gamma 98.495705
loop_
_atom_site_label
_atom_site_type_symbol
_atom_site_fract_x
_atom_site_fract_y
_atom_site_fract_z
_atom_type_partial_charge
Tb0 Tb 0.99802 0.14142 0.97601 0.0
C1 C 0.36881 0.0934 0.02382 0.0
N2 N 0.30436 0.12539 0.03846 0.0
C3 C 0.33009 1.05654 0.07701 0.0
C4 C 0.41311 1.03774 0.03411 0.0
C5 C 0.28825 0.11177 0.06596 0.0
C6 C 0.39182 1.01831 0.06072 0.0
C7 C 0.46012 0.08942 0.98391 0.0
C8 C 0.3912 0.11845 -0.00107 0.0
C9 C 0.50202 1.03097 0.99304 0.0
C10 C 0.47845 1.0051 0.01807 0.0
Tb11 Tb 0.24028 0.2157 0.01884 0.0
N12 N 0.35036 0.17639 0.99131 0.0
C13 C 0.48748 0.12279 0.96125 0.0
C14 C 0.38269 0.21442 0.97143 0.0
C15 C 0.44975 0.1868 0.95548 0.0
H16 H 0.24157 0.14197 0.0788 0.0
H17 H 0.4738 0.21641 0.93937 0.0
H18 H 1.00084 0.17729 0.9077 0.0
H19 H 0.80262 0.23895 0.06893 0.0
H20 H 0.35952 0.26837 0.96881 0.0
H21 H 0.54042 0.10249 0.94927 0.0
H22 H 0.90283 0.15773 0.04181 0.0
H23 H 0.31505 1.04384 0.09816 0.0
H24 H 0.55451 1.00736 0.98156 0.0
H25 H 0.51268 0.96156 0.02538 0.0
H26 H 0.93027 0.25898 0.87865 0.0
H27 H 0.42426 0.97569 0.06936 0.0
H28 H 0.73391 0.33238 0.04538 0.0
N29 N 0.94237 0.22028 0.94862 0.0
C30 C 0.88054 0.26224 0.96125 0.0
C31 C 0.91659 0.26142 0.90208 0.0
C32 C 0.83657 0.30816 0.94513 0.0
C33 C 0.95817 0.21654 0.91889 0.0
C34 C 0.85602 0.30799 0.91536 0.0
N35 N 0.90537 0.21355 0.00536 0.0
C36 C 0.88075 0.20298 0.03235 0.0
C37 C 0.80109 0.30528 0.00496 0.0
C38 C 0.86357 0.26095 0.99098 0.0
C39 C 0.78154 0.29938 0.03391 0.0
C40 C 0.82067 0.24717 0.0474 0.0
H41 H 0.82386 0.34267 0.90227 0.0
H42 H 0.74169 0.38954 0.94747 0.0
H43 H 0.71031 0.38665 -0.00027 0.0
O44 O 0.86443 1.08158 0.96572 0.0
O45 O 1.05085 0.28965 0.98808 0.0
O46 O 0.20184 0.3334 0.00769 0.0
O47 O 0.94405 1.04607 0.92986 0.0
O48 O 1.02785 0.12144 0.02189 0.0
O49 O 0.13775 0.2353 0.04777 0.0
O50 O 0.36572 0.2985 0.03753 0.0
O51 O 0.19278 1.06511 0.00545 0.0
O52 O 1.04103 1.02595 0.98672 0.0
O53 O 0.27282 0.2922 0.06824 0.0
O54 O 0.2064 0.22775 0.97129 0.0
O55 O 0.09456 0.11423 0.94473 0.0
C56 C 0.1241 0.35451 -0.0018 0.0
C57 C 0.8255 0.94017 0.92969 0.0
C58 C 0.74294 0.83158 0.94562 0.0
C59 C 0.71937 0.7788 0.91255 0.0
C60 C 0.8018 0.88586 0.89717 0.0
C61 C 0.75007 0.80525 0.88876 0.0
C62 C 0.79901 0.91147 0.95388 0.0
C63 C 0.07998 0.17365 0.04886 0.0
C64 C 0.86742 1.02944 0.93742 0.0
C65 C 0.77571 0.35345 0.95937 0.0
C66 C 0.75819 0.35215 0.98922 0.0
C67 C 0.11768 1.00235 0.99562 0.0
C68 C 0.35359 0.42786 0.07609 0.0
C69 C 0.41482 0.5646 0.07281 0.0
C70 C 0.35495 0.60045 0.09139 0.0
C71 C 0.29677 0.46647 0.09538 0.0
C72 C 0.41386 0.47781 0.0655 0.0
C73 C 0.29751 0.55198 0.10285 0.0
C74 C 0.15969 0.17067 0.9441 0.0
C75 C 0.34553 0.33505 0.06537 0.0
H76 H 0.67489 0.71791 0.90455 0.0
H77 H 0.8211 0.90672 0.87815 0.0
H78 H 0.73087 0.76413 0.86348 0.0
H79 H 0.82057 0.95277 0.97905 0.0
H80 H 0.35093 0.66588 0.09679 0.0
H81 H 0.25014 0.4303 0.10419 0.0
H82 H 0.45935 0.44863 0.05141 0.0
H83 H 0.25219 0.58063 0.11716 0.0
Tb84 Tb 0.09904 1.01811 0.30798 0.0
C85 C 0.25783 0.4344 0.35665 0.0
N86 N 0.26066 0.36934 0.36734 0.0
C87 C 0.40592 0.43889 0.40012 0.0
C88 C 0.32936 0.50441 0.36696 0.0
C89 C 0.3325 0.37156 0.38947 0.0
C90 C 0.40464 0.50546 0.38864 0.0
C91 C 0.17189 0.5008 0.32638 0.0
C92 C 0.18079 0.43247 0.33675 0.0
C93 C 0.24364 0.56985 0.33566 0.0
C94 C 0.32237 0.57165 0.35594 0.0
Tb95 Tb 0.1401 0.25954 0.34788 0.0
N96 N 0.11288 0.36535 0.329 0.0
C97 C 0.09049 0.49861 0.30776 0.0
C98 C 1.03199 0.36475 0.3119 0.0
C99 C 1.02003 0.43054 0.30073 0.0
H100 H 0.33369 0.32086 0.39868 0.0
H101 H 0.9562 0.42886 0.28683 0.0
H102 H 0.16803 0.9742 0.23844 0.0
H103 H 0.83884 0.84266 0.34302 0.0
H104 H 0.97615 0.31347 0.30631 0.0
H105 H 0.08082 0.54981 0.29931 0.0
H106 H 0.97666 0.94718 0.35256 0.0
H107 H 0.46319 0.43958 0.41729 0.0
H108 H 0.23828 0.62275 0.32781 0.0
H109 H 0.37666 0.62591 0.36346 0.0
H110 H 0.10792 0.88411 0.18075 0.0
H111 H 0.46119 0.55794 0.39713 0.0
H112 H 0.75917 0.75599 0.28675 0.0
N113 N 1.05294 0.9337 0.25446 0.0
C114 C 0.97402 0.8787 0.24645 0.0
C115 C 1.06926 0.88237 0.19897 0.0
C116 C 0.93758 0.82523 0.21405 0.0
C117 C 0.10305 0.93328 0.2316 0.0
C118 C 0.98545 0.82905 0.19005 0.0
N119 N 0.97496 0.92027 0.30223 0.0
C120 C 0.94313 0.90898 0.32792 0.0
C121 C 0.85475 0.81109 0.26464 0.0
C122 C 0.93357 0.87154 0.2713 0.0
C123 C 0.8197 0.80168 0.29081 0.0
C124 C 0.86464 0.85027 0.3226 0.0
H125 H 0.95974 0.78914 0.16483 0.0
H126 H 0.82691 0.7265 0.18215 0.0
H127 H 0.75412 0.71427 0.22653 0.0
O128 O 0.13044 0.89892 0.30039 0.0
O129 O 0.97933 1.06459 0.3237 0.0
O130 O 0.99744 0.19899 0.32227 0.0
O131 O 0.22238 1.01192 0.33262 0.0
O132 O 0.09939 1.07315 0.35995 0.0
O133 O 0.2109 0.18288 0.36966 0.0
O134 O 0.12864 0.35481 0.39088 0.0
O135 O 0.26784 0.2133 0.34047 0.0
O136 O 0.21606 0.08918 0.29686 0.0
O137 O 1.0583 0.22677 0.37709 0.0
O138 O 0.11508 0.22611 0.29461 0.0
O139 O 0.07539 1.07901 0.27225 0.0
C140 C 0.94449 0.12899 0.32102 0.0
C141 C 0.22697 0.88916 0.34419 0.0
C142 C 0.18607 0.83727 0.38601 0.0
C143 C 0.26235 0.8019 0.38615 0.0
C144 C 0.30276 0.85431 0.34477 0.0
C145 C 0.32079 0.81155 0.36597 0.0
C146 C 0.17054 0.88297 0.36545 0.0
C147 C 0.16828 0.12837 0.38013 0.0
C148 C 0.20657 0.93012 0.32077 0.0
C149 C 0.85661 0.76761 0.20695 0.0
C150 C 0.81523 0.76057 0.23222 0.0
C151 C 0.28405 0.14929 0.31675 0.0
C152 C 0.99583 0.32888 0.41128 0.0
C153 C 0.92101 0.43975 0.43781 0.0
C154 C 0.85343 0.37926 0.43991 0.0
C155 C 0.92822 0.26885 0.41409 0.0
C156 C 0.99199 0.41423 0.42352 0.0
C157 C 0.85756 0.29403 0.42825 0.0
C158 C 0.08671 0.15418 0.26968 0.0
C159 C 0.07342 0.30234 0.39834 0.0
H160 H 0.27559 0.76416 0.40091 0.0
H161 H 0.34735 0.85945 0.32861 0.0
H162 H 0.37886 0.78376 0.36612 0.0
H163 H 0.11368 0.91225 0.36538 0.0
H164 H 0.7976 0.3979 0.45032 0.0
H165 H 0.93024 0.20242 0.40557 0.0
H166 H 1.04369 0.46111 0.42156 0.0
H167 H 0.80566 0.24726 0.43005 0.0
Tb168 Tb 0.16853 0.28759 0.68157 0.0
C169 C 0.19089 0.88457 0.63541 0.0
N170 N 0.19325 0.95067 0.62502 0.0
C171 C 0.29211 0.89631 0.59037 0.0
C172 C 0.24068 0.8225 0.62432 0.0
C173 C 0.24037 0.95551 0.60175 0.0
C174 C 0.293 0.82991 0.60195 0.0
C175 C 0.12417 0.80635 0.66559 0.0
C176 C 0.13325 0.87623 0.65539 0.0
C177 C 0.17597 0.74575 0.65571 0.0
C178 C 0.23374 0.75355 0.63493 0.0
Tb179 Tb 0.10472 1.04334 0.64454 0.0
N180 N 0.08188 0.93409 0.66312 0.0
C181 C 1.06123 0.79819 0.68446 0.0
C182 C 1.01843 0.92505 0.68067 0.0
C183 C 1.00778 0.85767 0.69189 0.0
H184 H 0.2398 1.00599 0.59234 0.0
H185 H 0.958 0.85139 0.70607 0.0
H186 H 0.09712 0.2791 0.74821 0.0
H187 H 1.05891 0.42887 0.59367 0.0
H188 H 0.97632 0.97013 0.68632 0.0
H189 H 1.05214 0.74546 0.69282 0.0
H190 H 0.14667 0.34461 0.61478 0.0
H191 H 0.33069 0.90158 0.57248 0.0
H192 H 0.16999 0.69147 0.66322 0.0
H193 H 0.27079 0.70478 0.62651 0.0
H194 H 0.99084 0.33898 0.77995 0.0
H195 H 0.33227 0.78358 0.59281 0.0
H196 H 0.95281 0.49731 0.62392 0.0
N197 N 1.06631 0.33119 0.71181 0.0
C198 C 1.01983 0.38348 0.70227 0.0
C199 C 0.99791 0.35154 0.75803 0.0
C200 C 0.95981 0.42122 0.72031 0.0
C201 C 1.05741 0.3163 0.73962 0.0
C202 C 0.94891 0.40425 0.74837 0.0
N203 N 0.0871 0.35792 0.65622 0.0
C204 C 0.09836 0.37006 0.62798 0.0
C205 C 0.97977 0.44759 0.66238 0.0
C206 C 1.02984 0.39652 0.67351 0.0
C207 C 0.99 0.45848 0.63322 0.0
C208 C 1.04951 0.4196 0.616 0.0
H209 H 0.90304 0.43162 0.76275 0.0
H210 H 0.8662 0.50399 0.72337 0.0
H211 H 0.88278 0.52619 0.67255 0.0
O212 O 0.24021 0.40459 0.68446 0.0
O213 O 1.02191 0.2238 0.66225 0.0
O214 O 1.01404 0.10439 0.67404 0.0
O215 O 0.23445 0.37528 0.72754 0.0
O216 O 0.19998 0.24661 0.6336 0.0
O217 O 0.14087 0.10278 0.6101 0.0
O218 O 1.01727 0.93639 0.6105 0.0
O219 O 0.25202 1.08824 0.65793 0.0
O220 O 0.29007 0.23392 0.67101 0.0
O221 O 1.00919 1.06134 0.61009 0.0
O222 O 0.10989 0.09465 0.69733 0.0
O223 O 0.21161 0.21922 0.71296 0.0
C224 C 0.9741 0.16269 0.6688 0.0
C225 C 0.36989 0.45565 0.72569 0.0
C226 C 0.50868 0.52412 0.71743 0.0
C227 C 0.55631 0.50144 0.74142 0.0
C228 C 0.41852 0.43411 0.74995 0.0
C229 C 0.51119 0.45719 0.75776 0.0
C230 C 0.41563 0.50219 0.71004 0.0
C231 C 0.17595 0.17555 0.60856 0.0
C232 C 0.27232 0.42741 0.71542 0.0
C233 C 0.91181 0.47371 0.70962 0.0
C234 C 0.92128 0.48639 0.68066 0.0
C235 C 0.31233 0.15871 0.66493 0.0
C236 C 0.87404 0.96038 0.5952 0.0
C237 C 0.74313 0.87188 0.60036 0.0
C238 C 0.68908 0.91952 0.58913 0.0
C239 C 0.81917 1.00682 0.58361 0.0
C240 C 0.83533 0.89327 0.6035 0.0
C241 C 0.72718 0.98664 0.58078 0.0
C242 C 0.17015 0.15636 0.71959 0.0
C243 C 0.97123 0.98121 0.59848 0.0
H244 H 0.62823 0.51775 0.74741 0.0
H245 H 0.38533 0.39868 0.76264 0.0
H246 H 0.5482 0.43982 0.77626 0.0
H247 H 0.37894 0.51871 0.69116 0.0
H248 H 0.61774 0.9048 0.58673 0.0
H249 H 0.84744 1.05893 0.57698 0.0
H250 H 0.8773 0.85848 0.61324 0.0
H251 H 0.68531 1.02318 0.57214 0.0
H252 H 0.2552 0.52448 0.00809 0.0
H253 H 0.97305 0.42628 0.9886 0.0
H254 H 0.94526 0.56058 0.98499 0.0
H255 H 0.24388 0.74915 0.05867 0.0
H256 H 0.32981 0.80102 0.04433 0.0
H257 H 0.32978 0.69606 0.04449 0.0
H258 H 0.33286 0.64349 0.98414 0.0
H259 H 0.33273 0.74818 0.98357 0.0
H260 H 0.24868 0.65992 0.95578 0.0
H261 H 0.94395 0.72515 0.98296 0.0
H262 H 0.96904 0.87128 0.98423 0.0
H263 H 0.25248 0.88772 0.00693 0.0
C264 C 0.18651 0.52929 0.00283 0.0
C265 C 0.11633 0.45283 -0.00236 0.0
C266 C 1.03043 0.47365 0.99158 0.0
C267 C 1.01353 0.55411 0.98983 0.0
C268 C 0.08211 0.62479 0.99447 0.0
C269 C 0.16813 0.61298 0.00119 0.0
C270 C 0.22978 0.70146 0.00587 0.0
C271 C 0.28681 0.73927 0.04042 0.0
C272 C 0.28968 0.68747 0.98086 0.0
C273 C 0.16698 0.76394 0.00058 0.0
C274 C 0.0814 0.71682 0.99402 0.0
C275 C 1.0119 0.7593 0.98825 0.0
C276 C 1.02747 0.84647 0.98903 0.0
C277 C 0.11306 0.90199 0.99572 0.0
C278 C 0.18414 0.85485 0.00167 0.0
H279 H 0.45544 0.26657 0.34009 0.0
H280 H 0.33683 1.00188 0.28727 0.0
H281 H 0.48524 0.97138 0.28382 0.0
H282 H 0.62991 0.269 0.29063 0.0
H283 H 0.71472 0.34233 0.32403 0.0
H284 H 0.59931 0.34561 0.32381 0.0
H285 H 0.61469 0.32777 0.37979 0.0
H286 H 0.7304 0.32785 0.37982 0.0
H287 H 0.66068 0.24158 0.38523 0.0
H288 H 0.65083 0.96499 0.28763 0.0
H289 H 0.81323 0.98562 0.29392 0.0
H290 H 0.83774 0.25521 0.34017 0.0
C291 C 0.46036 0.20207 0.32773 0.0
C292 C 0.3806 0.13671 0.31424 0.0
C293 C 0.39359 1.05395 0.29808 0.0
C294 C 0.47908 1.0356 0.29598 0.0
C295 C 0.55514 0.10035 0.30943 0.0
C296 C 0.54687 0.18251 0.32452 0.0
C297 C 0.6407 0.24028 0.33533 0.0
C298 C 0.64649 0.30307 0.31739 0.0
C299 C 0.66288 0.2871 0.37228 0.0
C300 C 0.70267 0.17773 0.32494 0.0
C301 C 0.65088 0.09723 0.31013 0.0
C302 C 0.69114 1.02813 0.29903 0.0
C303 C 0.785 1.04056 0.30289 0.0
C304 C 0.84199 0.12177 0.31747 0.0
C305 C 0.79837 0.1917 0.32853 0.0
H306 H 0.61278 0.86756 0.63575 0.0
H307 H 0.79056 0.71903 0.58825 0.0
H308 H 0.75067 0.6148 0.6137 0.0
H309 H 0.66226 0.83724 0.71018 0.0
H310 H 0.5506 0.82997 0.71718 0.0
H311 H 0.58751 0.89038 0.6934 0.0
H312 H 0.4569 0.80292 0.64552 0.0
H313 H 0.41867 0.74246 0.66912 0.0
H314 H 0.44077 0.68947 0.62963 0.0
H315 H 0.70445 0.53525 0.64841 0.0
H316 H 0.63668 0.47322 0.68437 0.0
H317 H 0.48448 0.66938 0.70775 0.0
C318 C 0.642 0.81239 0.63019 0.0
C319 C 0.7061 0.80229 0.61056 0.0
C320 C 0.74263 0.72889 0.6038 0.0
C321 C 0.72038 0.66929 0.61807 0.0
C322 C 0.66054 0.68342 0.63864 0.0
C323 C 0.62046 0.75214 0.64423 0.0
C324 C 0.5599 0.75329 0.66801 0.0
C325 C 0.59203 0.83241 0.69902 0.0
C326 C 0.46332 0.74656 0.65209 0.0
C327 C 0.57211 0.67429 0.67479 0.0
C328 C 0.63144 0.63568 0.65793 0.0
C329 C 0.65684 0.56408 0.66139 0.0
C330 C 0.61864 0.52964 0.68203 0.0
C331 C 0.5552 0.56623 0.69853 0.0
C332 C 0.53229 0.63987 0.69507 0.0
H333 H 0.85266 0.27581 0.66697 0.0
H334 H 0.85974 1.02646 0.6698 0.0
H335 H 0.70059 1.00172 0.66918 0.0
H336 H 0.69647 0.30835 0.72234 0.0
H337 H 0.63001 0.36618 0.70509 0.0
H338 H 0.74566 0.37535 0.70289 0.0
H339 H 0.71695 0.3284 0.64142 0.0
H340 H 0.60044 0.32608 0.64075 0.0
H341 H 0.63559 0.23391 0.61693 0.0
H342 H 0.53404 0.99698 0.66488 0.0
H343 H 0.38209 1.02012 0.66433 0.0
H344 H 0.47077 0.27595 0.66809 0.0
C345 C 0.8212 0.21585 0.66743 0.0
C346 C 0.87281 0.15303 0.66823 0.0
C347 C 0.82547 1.07631 0.66904 0.0
C348 C 0.73324 1.06099 0.66844 0.0
C349 C 0.68496 0.1228 0.66729 0.0
C350 C 0.72746 0.19969 0.66752 0.0
C351 C 0.65933 0.25723 0.66911 0.0
C352 C 0.68454 0.33131 0.70176 0.0
C353 C 0.65272 0.2883 0.64034 0.0
C354 C 0.57157 0.19904 0.66741 0.0
C355 C 0.58905 0.12194 0.66676 0.0
C356 C 0.52049 1.05755 0.66554 0.0
C357 C 0.43289 1.07157 0.6651 0.0
C358 C 0.41062 0.14985 0.66592 0.0
C359 C 0.48293 0.21486 0.6673 0.0
H360 H 0.68139 0.66956 0.94501 0.0
H361 H 0.71137 0.93486 0.00384 0.0
H362 H 0.64583 0.89367 0.04447 0.0
H363 H 0.46345 0.61429 0.95715 0.0
H364 H 0.47353 0.51099 0.95722 0.0
H365 H 0.53668 0.55863 0.93455 0.0
H366 H 0.68303 0.54201 0.96532 0.0
H367 H 0.6207 0.49286 0.98781 0.0
H368 H 0.70907 0.58397 0.00914 0.0
H369 H 0.57671 0.82465 0.0792 0.0
H370 H 0.49117 0.73414 0.10199 0.0
H371 H 0.47819 0.51619 0.01557 0.0
C372 C 0.67431 0.71973 0.96619 0.0
C373 C 0.70465 0.80603 0.97097 0.0
C374 C 0.69335 0.86828 -0.00037 0.0
C375 C 0.65485 0.8456 0.02296 0.0
C376 C 0.62532 0.76041 0.01714 0.0
C377 C 0.6329 0.69846 0.9892 0.0
C378 C 0.58713 0.61195 0.98728 0.0
C379 C 0.51064 0.5716 0.95729 0.0
C380 C 0.65401 0.55434 0.98741 0.0
C381 C 0.55265 0.63529 0.01856 0.0
C382 C 0.57728 0.72102 0.03571 0.0
C383 C 0.5557 0.75754 0.06574 0.0
C384 C 0.50611 0.70532 0.07833 0.0
C385 C 0.47549 0.61756 0.06046 0.0
C386 C 0.50047 0.58246 0.03024 0.0
H387 H 1.04327 0.57195 0.48062 0.0
H388 H 0.79121 0.50555 0.41376 0.0
H389 H 0.81711 0.64586 0.40954 0.0
H390 H 1.05843 0.8285 0.51007 0.0
H391 H 0.17615 0.84086 0.51161 0.0
H392 H 0.11954 0.76244 0.52487 0.0
H393 H 0.18179 0.64848 0.4852 0.0
H394 H 0.23671 0.72477 0.47134 0.0
H395 H 0.15941 0.63274 0.4424 0.0
H396 H 0.89411 0.74802 0.39163 0.0
H397 H 1.00489 0.80766 0.36722 0.0
H398 H 0.21373 0.81991 0.44553 0.0
C399 C 0.99136 0.59038 0.46714 0.0
C400 C 0.9159 0.52929 0.44747 0.0
C401 C 0.84901 0.55242 0.42928 0.0
C402 C 0.86354 0.63227 0.42677 0.0
C403 C 0.94471 0.68796 0.4429 0.0
C404 C 1.00643 0.66958 0.46406 0.0
C405 C 0.09612 0.72863 0.47202 0.0
C406 C 0.11352 0.79397 0.50669 0.0
C407 C 0.17276 0.68068 0.46736 0.0
C408 C 0.07996 0.77028 0.44718 0.0
C409 C 0.99105 0.7504 0.43219 0.0
C410 C 0.96296 0.76746 0.40422 0.0
C411 C 1.02692 0.80157 0.39038 0.0
C412 C 0.11847 0.8188 0.4045 0.0
C413 C 0.14431 0.80684 0.43412 0.0
H414 H 0.16247 0.26895 0.24329 0.0
H415 H 0.96644 1.03765 0.21879 0.0
H416 H 0.94326 1.02151 0.16117 0.0
H417 H 1.04794 0.34222 0.18143 0.0
H418 H 0.14983 0.38408 0.17212 0.0
H419 H 0.14864 0.38151 0.21226 0.0
H420 H 0.27431 0.2974 0.20744 0.0
H421 H 0.27521 0.29912 0.16721 0.0
H422 H 0.25899 0.19992 0.17356 0.0
H423 H 0.94807 1.02178 0.10616 0.0
H424 H 0.97251 1.0437 0.05608 0.0
H425 H 0.16098 0.27822 0.1131 0.0
C426 C 0.11346 0.21597 0.22581 0.0
C427 C 1.06675 0.15419 0.23577 0.0
C428 C 1.00394 1.08531 0.21197 0.0
C429 C 0.98999 1.07558 0.17904 0.0
C430 C 1.03858 0.13564 0.16986 0.0
C431 C 0.09838 0.20512 0.19239 0.0
C432 C 0.14296 0.25861 0.17519 0.0
C433 C 0.12103 0.34686 0.18589 0.0
C434 C 0.24387 0.26407 0.18122 0.0
C435 C 0.09942 0.2076 0.13966 0.0
C436 C 1.03967 0.13689 0.13745 0.0
C437 C 0.99362 1.07764 0.10758 0.0
C438 C 1.0081 0.0909 0.07914 0.0
C439 C 1.06755 0.16352 0.08029 0.0
C440 C 0.11413 0.22264 0.1112 0.0
H441 H 1.06648 1.05587 0.41437 0.0
H442 H 0.3122 0.23016 0.42649 0.0
H443 H 0.34034 0.26094 0.48553 0.0
H444 H 1.00504 0.17681 0.48804 0.0
H445 H 0.96035 1.08623 0.4973 0.0
H446 H 0.95894 1.07681 0.45567 0.0
H447 H 1.04409 0.95561 0.44826 0.0
H448 H 1.04494 0.96393 0.48971 0.0
H449 H 0.14799 0.97228 0.47589 0.0
H450 H 0.33945 0.27817 0.544 0.0
H451 H 0.31358 0.27324 0.597 0.0
H452 H 0.07326 1.08247 0.54771 0.0
C453 C 0.12645 0.10016 0.42941 0.0
C454 C 0.18651 0.14166 0.41559 0.0
C455 C 0.26419 0.1989 0.43632 0.0
C456 C 0.28106 0.21653 0.47001 0.0
C457 C 0.22004 0.17596 0.48292 0.0
C458 C 0.14459 0.11839 0.46329 0.0
C459 C 0.08985 1.08391 0.4836 0.0
C460 C 0.99811 0.10736 0.481 0.0
C461 C 0.08121 0.98816 0.47376 0.0
C462 C 0.14685 0.13017 0.51751 0.0
C463 C 0.22112 0.1838 0.51659 0.0
C464 C 0.28195 0.23572 0.54494 0.0
C465 C 0.2667 0.2326 0.57497 0.0
C466 C 0.19209 0.17687 0.57652 0.0
C467 C 0.13174 0.12473 0.54727 0.0
H468 H 0.08966 1.05026 0.74876 0.0
H469 H 0.28874 0.27804 0.77028 0.0
H470 H 0.30791 0.30242 0.82841 0.0
H471 H 0.99052 0.12663 0.81731 0.0
H472 H 0.97461 1.02994 0.82552 0.0
H473 H 0.97658 1.02679 0.78474 0.0
H474 H 0.10306 0.94387 0.78232 0.0
H475 H 0.10107 0.94623 0.82303 0.0
H476 H 0.20318 0.98641 0.81341 0.0
H477 H 0.29322 0.31421 0.8842 0.0
H478 H 0.26193 0.30155 0.93495 0.0
H479 H 0.08818 1.05704 0.88062 0.0
C480 C 0.13827 0.10445 0.76565 0.0
C481 C 0.1871 0.16242 0.75447 0.0
C482 C 0.24987 0.23261 0.77772 0.0
C483 C 0.26134 0.24736 0.81106 0.0
C484 C 0.21105 0.19066 0.82127 0.0
C485 C 0.15203 0.11961 0.79941 0.0
C486 C 0.10728 1.06905 0.81755 0.0
C487 C 1.00625 1.06274 0.81087 0.0
C488 C 0.13002 0.98116 0.80854 0.0
C489 C 0.14976 0.12363 0.85284 0.0
C490 C 0.2084 0.19398 0.85415 0.0
C491 C 0.25005 0.25784 0.88355 0.0
C492 C 0.23267 0.24939 0.91249 0.0
C493 C 0.17632 0.17627 0.91237 0.0
C494 C 0.13394 0.11258 0.88184 0.0
loop_
_geom_bond_atom_site_label_1
_geom_bond_atom_site_label_2
_geom_bond_distance
_geom_bond_site_symmetry_2
_ccdc_geom_bond_type
Tb0 N29 2.617 . S
Tb0 N35 2.572 1_556 S
Tb0 O44 2.465 1_546 S
Tb0 O45 2.387 . S
Tb0 O47 2.428 1_545 S
Tb0 O48 2.308 1_556 S
Tb0 O52 2.349 1_545 S
Tb0 O55 2.393 . S
Tb0 C64 2.802 1_545 S
C1 N2 1.379 . S
C1 C4 1.416 . S
C1 C8 1.424 . S
N2 C1 1.379 . S
N2 C5 1.334 . S
N2 Tb11 2.617 . S
C3 C5 1.390 . S
C3 C6 1.339 . S
C3 H23 0.930 . S
C4 C1 1.416 . S
C4 C6 1.416 . S
C4 C10 1.448 . S
C5 N2 1.334 . S
C5 C3 1.390 . S
C5 H16 0.930 . S
C6 C3 1.339 . S
C6 C4 1.416 . S
C6 H27 0.930 . S
C7 C8 1.413 . S
C7 C9 1.427 . S
C7 C13 1.416 1_554 S
C8 C1 1.424 . S
C8 C7 1.413 . S
C8 N12 1.361 . S
C9 C7 1.427 . S
C9 C10 1.328 . S
C9 H24 0.929 1_545 S
C10 C4 1.448 . S
C10 C9 1.328 . S
C10 H25 0.930 . S
Tb11 N2 2.617 . S
Tb11 N12 2.572 . S
Tb11 O46 2.349 . S
Tb11 O49 2.393 . S
Tb11 O50 2.465 . S
Tb11 O51 2.387 . S
Tb11 O53 2.428 . S
Tb11 O54 2.308 1_554 S
Tb11 C75 2.802 . S
N12 C8 1.361 . S
N12 Tb11 2.572 . S
N12 C14 1.340 1_554 S
C13 C7 1.416 1_556 S
C13 C15 1.338 . S
C13 H21 0.925 1_545 S
C14 N12 1.340 1_556 S
C14 C15 1.407 . S
C14 H20 0.930 . S
C15 C13 1.338 . S
C15 C14 1.407 . S
C15 H17 0.929 . S
H16 C5 0.930 . S
H17 C15 0.929 . S
H18 C33 0.930 . S
H19 C40 0.929 . S
H20 C14 0.930 . S
H21 C13 0.925 1_565 S
H22 C36 0.930 . S
H23 C3 0.930 . S
H24 C9 0.929 1_565 S
H25 C10 0.930 . S
H26 C31 0.930 . S
H27 C6 0.930 . S
H28 C39 0.931 . S
N29 Tb0 2.617 . S
N29 C30 1.379 . S
N29 C33 1.334 . S
C30 N29 1.379 . S
C30 C32 1.416 . S
C30 C38 1.424 . S
C31 H26 0.930 . S
C31 C33 1.390 . S
C31 C34 1.339 . S
C32 C30 1.416 . S
C32 C34 1.416 . S
C32 C65 1.448 . S
C33 H18 0.930 . S
C33 N29 1.334 . S
C33 C31 1.390 . S
C34 C31 1.339 . S
C34 C32 1.416 . S
C34 H41 0.930 . S
N35 Tb0 2.572 1_554 S
N35 C36 1.340 . S
N35 C38 1.361 1_554 S
C36 H22 0.930 . S
C36 N35 1.340 . S
C36 C40 1.407 . S
C37 C38 1.419 . S
C37 C39 1.390 1_556 S
C37 C66 1.447 . S
C38 C30 1.424 . S
C38 N35 1.361 1_556 S
C38 C37 1.419 . S
C39 H28 0.931 . S
C39 C37 1.390 1_554 S
C39 C40 1.332 . S
C40 H19 0.929 . S
C40 C36 1.407 . S
C40 C39 1.332 . S
H41 C34 0.930 . S
H42 C65 0.930 . S
H43 C66 0.929 . S
O44 Tb0 2.465 1_564 S
O44 C64 1.264 1_554 S
O45 Tb0 2.387 . S
O45 C56 1.264 1_556 S
O46 Tb11 2.349 . S
O46 C56 1.243 1_455 S
O47 Tb0 2.428 1_565 S
O47 C64 1.256 . S
O48 Tb0 2.308 1_554 S
O48 C63 1.266 . S
O49 Tb11 2.393 . S
O49 C63 1.248 1_455 S
O50 Tb11 2.465 . S
O50 C75 1.264 . S
O51 Tb11 2.387 . S
O51 C67 1.264 1_545 S
O52 Tb0 2.349 1_565 S
O52 C67 1.243 1_656 S
O53 Tb11 2.428 . S
O53 C75 1.256 . S
O54 Tb11 2.308 1_556 S
O54 C74 1.266 . S
O55 Tb0 2.393 . S
O55 C74 1.248 1_655 S
C56 O45 1.264 1_554 S
C56 O46 1.243 1_655 S
C57 C60 1.399 . S
C57 C62 1.383 1_556 S
C57 C64 1.496 . S
C58 C59 1.399 1_554 S
C58 C62 1.389 . S
C59 C58 1.399 1_556 S
C59 C61 1.380 . S
C59 H76 0.929 . S
C60 C57 1.399 . S
C60 C61 1.392 . S
C60 H77 0.929 . S
C61 C59 1.380 . S
C61 C60 1.392 . S
C61 H78 0.929 . S
C62 C57 1.383 1_554 S
C62 C58 1.389 . S
C62 H79 0.931 . S
C63 O48 1.266 . S
C63 O49 1.248 1_655 S
C64 Tb0 2.802 1_565 S
C64 O44 1.264 1_556 S
C64 O47 1.256 . S
C64 C57 1.496 . S
C65 C32 1.448 . S
C65 H42 0.930 . S
C65 C66 1.328 . S
C66 C37 1.447 . S
C66 H43 0.929 . S
C66 C65 1.328 . S
C67 O51 1.264 1_565 S
C67 O52 1.243 1_454 S
C68 C71 1.399 . S
C68 C72 1.383 . S
C68 C75 1.496 . S
C69 C70 1.399 . S
C69 C72 1.389 . S
C70 C69 1.399 . S
C70 C73 1.380 . S
C70 H80 0.929 . S
C71 C68 1.399 . S
C71 C73 1.392 . S
C71 H81 0.929 . S
C72 C68 1.383 . S
C72 C69 1.389 . S
C72 H82 0.931 1_554 S
C73 C70 1.380 . S
C73 C71 1.392 . S
C73 H83 0.929 . S
C74 O54 1.266 . S
C74 O55 1.248 1_455 S
C75 Tb11 2.802 . S
C75 O50 1.264 . S
C75 O53 1.256 . S
C75 C68 1.496 . S
H76 C59 0.929 . S
H77 C60 0.929 . S
H78 C61 0.929 . S
H79 C62 0.931 . S
H80 C70 0.929 . S
H81 C71 0.929 . S
H82 C72 0.931 1_556 S
H83 C73 0.929 . S
Tb84 N113 2.617 1_545 S
Tb84 N119 2.572 1_545 S
Tb84 O128 2.465 1_645 S
Tb84 O129 2.387 . S
Tb84 O131 2.428 1_645 S
Tb84 O132 2.308 . S
Tb84 O136 2.349 1_655 S
Tb84 O139 2.393 1_655 S
Tb84 C148 2.802 1_645 S
C85 N86 1.379 . S
C85 C88 1.416 . S
C85 C92 1.424 . S
N86 C85 1.379 . S
N86 C89 1.334 . S
N86 Tb95 2.617 . S
C87 C89 1.390 . S
C87 C90 1.339 . S
C87 H107 0.930 . S
C88 C85 1.416 . S
C88 C90 1.416 . S
C88 C94 1.448 . S
C89 N86 1.334 . S
C89 C87 1.390 . S
C89 H100 0.930 . S
C90 C87 1.339 . S
C90 C88 1.416 . S
C90 H111 0.930 . S
C91 C92 1.413 . S
C91 C93 1.427 . S
C91 C97 1.416 . S
C92 C85 1.424 . S
C92 C91 1.413 . S
C92 N96 1.361 . S
C93 C91 1.427 . S
C93 C94 1.328 . S
C93 H108 0.929 . S
C94 C88 1.448 . S
C94 C93 1.328 . S
C94 H109 0.930 . S
Tb95 N86 2.617 . S
Tb95 N96 2.572 . S
Tb95 O130 2.349 1_455 S
Tb95 O133 2.393 . S
Tb95 O134 2.465 . S
Tb95 O135 2.387 . S
Tb95 O137 2.428 . S
Tb95 O138 2.308 . S
Tb95 C159 2.802 . S
N96 C92 1.361 . S
N96 Tb95 2.572 . S
N96 C98 1.340 . S
C97 C91 1.416 . S
C97 C99 1.332 . S
C97 H105 0.931 . S
C98 N96 1.340 . S
C98 C99 1.407 . S
C98 H104 0.930 . S
C99 C97 1.332 . S
C99 C98 1.407 . S
C99 H101 0.929 . S
H100 C89 0.930 . S
H101 C99 0.929 . S
H102 C117 0.930 . S
H103 C124 0.929 . S
H104 C98 0.930 . S
H105 C97 0.931 . S
H106 C120 0.930 . S
H107 C87 0.930 . S
H108 C93 0.929 . S
H109 C94 0.930 . S
H110 C115 0.930 . S
H111 C90 0.930 . S
H112 C123 0.931 . S
N113 Tb84 2.617 1_565 S
N113 C114 1.379 . S
N113 C117 1.334 . S
C114 N113 1.379 . S
C114 C116 1.416 . S
C114 C122 1.424 . S
C115 H110 0.930 . S
C115 C117 1.390 . S
C115 C118 1.339 . S
C116 C114 1.416 . S
C116 C118 1.416 . S
C116 C149 1.448 . S
C117 H102 0.930 . S
C117 N113 1.334 . S
C117 C115 1.390 . S
C118 C115 1.339 . S
C118 C116 1.416 . S
C118 H125 0.930 . S
N119 Tb84 2.572 1_565 S
N119 C120 1.340 . S
N119 C122 1.361 . S
C120 H106 0.930 . S
C120 N119 1.340 . S
C120 C124 1.407 . S
C121 C122 1.413 . S
C121 C123 1.416 . S
C121 C150 1.427 . S
C122 C114 1.424 . S
C122 N119 1.361 . S
C122 C121 1.413 . S
C123 H112 0.931 . S
C123 C121 1.416 . S
C123 C124 1.332 . S
C124 H103 0.929 . S
C124 C120 1.407 . S
C124 C123 1.332 . S
H125 C118 0.930 . S
H126 C149 0.930 . S
H127 C150 0.929 . S
O128 Tb84 2.465 1_465 S
O128 C148 1.264 . S
O129 Tb84 2.387 . S
O129 C140 1.264 . S
O130 Tb95 2.349 1_655 S
O130 C140 1.243 . S
O131 Tb84 2.428 1_465 S
O131 C148 1.256 . S
O132 Tb84 2.308 . S
O132 C147 1.266 1_655 S
O133 Tb95 2.393 . S
O133 C147 1.248 . S
O134 Tb95 2.465 . S
O134 C159 1.264 . S
O135 Tb95 2.387 . S
O135 C151 1.264 . S
O136 Tb84 2.349 1_455 S
O136 C151 1.243 . S
O137 Tb95 2.428 . S
O137 C159 1.256 . S
O138 Tb95 2.308 . S
O138 C158 1.266 . S
O139 Tb84 2.393 1_455 S
O139 C158 1.248 . S
C140 O129 1.264 . S
C140 O130 1.243 . S
C141 C144 1.399 . S
C141 C146 1.383 . S
C141 C148 1.496 . S
C142 C143 1.399 . S
C142 C146 1.389 . S
C143 C142 1.399 . S
C143 C145 1.380 . S
C143 H160 0.929 . S
C144 C141 1.399 . S
C144 C145 1.392 . S
C144 H161 0.929 . S
C145 C143 1.380 . S
C145 C144 1.392 . S
C145 H162 0.929 . S
C146 C141 1.383 . S
C146 C142 1.389 . S
C146 H163 0.931 . S
C147 O132 1.266 1_455 S
C147 O133 1.248 . S
C148 Tb84 2.802 1_465 S
C148 O128 1.264 . S
C148 O131 1.256 . S
C148 C141 1.496 . S
C149 C116 1.448 . S
C149 H126 0.930 . S
C149 C150 1.328 . S
C150 C121 1.427 . S
C150 H127 0.929 . S
C150 C149 1.328 . S
C151 O135 1.264 . S
C151 O136 1.243 . S
C152 C155 1.399 . S
C152 C156 1.383 1_455 S
C152 C159 1.496 . S
C153 C154 1.399 . S
C153 C156 1.389 . S
C154 C153 1.399 . S
C154 C157 1.382 . S
C154 H164 0.929 . S
C155 C152 1.399 . S
C155 C157 1.386 1_455 S
C155 H165 0.929 . S
C156 C152 1.383 1_655 S
C156 C153 1.389 . S
C156 H166 0.931 . S
C157 C154 1.382 . S
C157 C155 1.386 1_655 S
C157 H167 0.931 . S
C158 O138 1.266 . S
C158 O139 1.248 . S
C159 Tb95 2.802 . S
C159 O134 1.264 . S
C159 O137 1.256 . S
C159 C152 1.496 . S
H160 C143 0.929 . S
H161 C144 0.929 . S
H162 C145 0.929 . S
H163 C146 0.931 . S
H164 C154 0.929 . S
H165 C155 0.929 . S
H166 C156 0.931 . S
H167 C157 0.931 . S
Tb168 N197 2.617 . S
Tb168 N203 2.572 . S
Tb168 O212 2.465 . S
Tb168 O213 2.387 1_455 S
Tb168 O215 2.428 . S
Tb168 O216 2.308 . S
Tb168 O220 2.349 . S
Tb168 O223 2.393 . S
Tb168 C232 2.802 . S
C169 N170 1.379 . S
C169 C172 1.416 . S
C169 C176 1.424 . S
N170 C169 1.379 . S
N170 C173 1.334 . S
N170 Tb179 2.617 . S
C171 C173 1.390 . S
C171 C174 1.339 . S
C171 H191 0.930 . S
C172 C169 1.416 . S
C172 C174 1.416 . S
C172 C178 1.448 . S
C173 N170 1.334 . S
C173 C171 1.390 . S
C173 H184 0.930 . S
C174 C171 1.339 . S
C174 C172 1.416 . S
C174 H195 0.930 . S
C175 C176 1.413 . S
C175 C177 1.427 . S
C175 C181 1.416 . S
C176 C169 1.424 . S
C176 C175 1.413 . S
C176 N180 1.361 . S
C177 C175 1.427 . S
C177 C178 1.328 . S
C177 H192 0.929 . S
C178 C172 1.448 . S
C178 C177 1.328 . S
C178 H193 0.930 . S
Tb179 N170 2.617 . S
Tb179 N180 2.572 . S
Tb179 O214 2.349 1_455 S
Tb179 O217 2.393 . S
Tb179 O218 2.465 1_455 S
Tb179 O219 2.387 . S
Tb179 O221 2.428 1_455 S
Tb179 O222 2.308 . S
Tb179 C243 2.802 1_455 S
N180 C176 1.361 . S
N180 Tb179 2.572 . S
N180 C182 1.340 . S
C181 C175 1.416 . S
C181 C183 1.332 . S
C181 H189 0.931 . S
C182 N180 1.340 . S
C182 C183 1.407 . S
C182 H188 0.930 . S
C183 C181 1.332 . S
C183 C182 1.407 . S
C183 H185 0.929 . S
H184 C173 0.930 . S
H185 C183 0.929 . S
H186 C201 0.930 . S
H187 C208 0.929 . S
H188 C182 0.930 . S
H189 C181 0.931 . S
H190 C204 0.930 . S
H191 C171 0.930 . S
H192 C177 0.929 . S
H193 C178 0.930 . S
H194 C199 0.930 . S
H195 C174 0.930 . S
H196 C207 0.931 . S
N197 Tb168 2.617 . S
N197 C198 1.379 . S
N197 C201 1.334 . S
C198 N197 1.379 . S
C198 C200 1.416 . S
C198 C206 1.424 . S
C199 H194 0.930 . S
C199 C201 1.390 . S
C199 C202 1.339 . S
C200 C198 1.416 . S
C200 C202 1.416 . S
C200 C233 1.448 1_455 S
C201 H186 0.930 . S
C201 N197 1.334 . S
C201 C199 1.390 . S
C202 C199 1.339 . S
C202 C200 1.416 . S
C202 H209 0.930 . S
N203 Tb168 2.572 . S
N203 C204 1.340 . S
N203 C206 1.361 . S
C204 H190 0.930 . S
C204 N203 1.340 . S
C204 C208 1.407 1_455 S
C205 C206 1.413 1_655 S
C205 C207 1.416 . S
C205 C234 1.427 . S
C206 C198 1.424 . S
C206 N203 1.361 . S
C206 C205 1.413 1_455 S
C207 H196 0.931 . S
C207 C205 1.416 . S
C207 C208 1.332 . S
C208 H187 0.929 . S
C208 C204 1.407 1_655 S
C208 C207 1.332 . S
H209 C202 0.930 . S
H210 C233 0.930 . S
H211 C234 0.929 . S
O212 Tb168 2.465 . S
O212 C232 1.264 . S
O213 Tb168 2.387 1_655 S
O213 C224 1.264 . S
O214 Tb179 2.349 1_655 S
O214 C224 1.243 1_565 S
O215 Tb168 2.428 . S
O215 C232 1.256 . S
O216 Tb168 2.308 . S
O216 C231 1.266 . S
O217 Tb179 2.393 . S
O217 C231 1.248 1_565 S
O218 Tb179 2.465 1_655 S
O218 C243 1.264 . S
O219 Tb179 2.387 . S
O219 C235 1.264 1_565 S
O220 Tb168 2.349 . S
O220 C235 1.243 . S
O221 Tb179 2.428 1_655 S
O221 C243 1.256 . S
O222 Tb179 2.308 . S
O222 C242 1.266 1_565 S
O223 Tb168 2.393 . S
O223 C242 1.248 . S
C224 O213 1.264 . S
C224 O214 1.243 1_545 S
C225 C228 1.399 . S
C225 C230 1.383 . S
C225 C232 1.496 . S
C226 C227 1.399 . S
C226 C230 1.389 . S
C227 C226 1.399 . S
C227 C229 1.380 . S
C227 H244 0.929 . S
C228 C225 1.399 . S
C228 C229 1.392 . S
C228 H245 0.929 . S
C229 C227 1.380 . S
C229 C228 1.392 . S
C229 H246 0.929 . S
C230 C225 1.383 . S
C230 C226 1.389 . S
C230 H247 0.931 . S
C231 O216 1.266 . S
C231 O217 1.248 1_545 S
C232 Tb168 2.802 . S
C232 O212 1.264 . S
C232 O215 1.256 . S
C232 C225 1.496 . S
C233 C200 1.448 1_655 S
C233 H210 0.930 . S
C233 C234 1.328 . S
C234 C205 1.427 . S
C234 H211 0.929 . S
C234 C233 1.328 . S
C235 O219 1.264 1_545 S
C235 O220 1.243 . S
C236 C239 1.399 . S
C236 C240 1.383 . S
C236 C243 1.496 . S
C237 C238 1.399 . S
C237 C240 1.389 . S
C238 C237 1.399 . S
C238 C241 1.380 . S
C238 H248 0.929 . S
C239 C236 1.399 . S
C239 C241 1.392 . S
C239 H249 0.929 . S
C240 C236 1.383 . S
C240 C237 1.389 . S
C240 H250 0.931 . S
C241 C238 1.380 . S
C241 C239 1.392 . S
C241 H251 0.929 . S
C242 O222 1.266 1_545 S
C242 O223 1.248 . S
C243 Tb179 2.802 1_655 S
C243 O218 1.264 . S
C243 O221 1.256 . S
C243 C236 1.496 . S
H244 C227 0.929 . S
H245 C228 0.929 . S
H246 C229 0.929 . S
H247 C230 0.931 . S
H248 C238 0.929 . S
H249 C239 0.929 . S
H250 C240 0.931 . S
H251 C241 0.929 . S
H252 C264 0.930 . S
H253 C266 0.930 . S
H254 C267 0.930 . S
H255 C271 0.959 . S
H256 C271 0.959 . S
H257 C271 0.961 . S
H258 C272 0.960 . S
H259 C272 0.961 . S
H260 C272 0.959 . S
H261 C275 0.929 . S
H262 C276 0.931 . S
H263 C278 0.930 . S
C264 H252 0.930 . S
C264 C265 1.399 1_455 S
C264 C269 1.399 . S
C265 C264 1.399 1_655 S
C265 C266 1.376 1_554 S
C266 H253 0.930 . S
C266 C265 1.376 1_556 S
C266 C267 1.388 . S
C267 H254 0.930 . S
C267 C266 1.388 . S
C267 C268 1.390 . S
C268 C267 1.390 . S
C268 C269 1.394 1_656 S
C268 C274 1.465 . S
C269 C264 1.399 . S
C269 C268 1.394 1_454 S
C269 C270 1.516 . S
C270 C269 1.516 . S
C270 C271 1.502 . S
C270 C272 1.561 1_554 S
C270 C273 1.526 . S
C271 H255 0.959 . S
C271 H256 0.959 . S
C271 H257 0.961 . S
C271 C270 1.502 . S
C272 H258 0.960 . S
C272 H259 0.961 . S
C272 H260 0.959 . S
C272 C270 1.561 1_556 S
C273 C270 1.526 . S
C273 C274 1.396 1_454 S
C273 C278 1.390 . S
C274 C268 1.465 . S
C274 C273 1.396 1_656 S
C274 C275 1.399 . S
C275 H261 0.929 . S
C275 C274 1.399 . S
C275 C276 1.385 . S
C276 H262 0.931 . S
C276 C275 1.385 . S
C276 C277 1.390 1_655 S
C277 C276 1.390 1_455 S
C277 C278 1.384 1_556 S
C278 H263 0.930 . S
C278 C273 1.390 . S
C278 C277 1.384 1_554 S
H279 C291 0.930 . S
H280 C293 0.930 . S
H281 C294 0.930 1_565 S
H282 C298 0.959 . S
H283 C298 0.959 . S
H284 C298 0.961 . S
H285 C299 0.960 . S
H286 C299 0.961 . S
H287 C299 0.959 . S
H288 C302 0.922 1_565 S
H289 C303 0.931 . S
H290 C305 0.930 . S
C291 H279 0.930 . S
C291 C292 1.399 . S
C291 C296 1.399 . S
C292 C291 1.399 . S
C292 C293 1.376 . S
C293 H280 0.930 . S
C293 C292 1.376 . S
C293 C294 1.388 . S
C294 H281 0.930 1_545 S
C294 C293 1.388 . S
C294 C295 1.390 . S
C295 C294 1.390 . S
C295 C296 1.394 . S
C295 C301 1.465 . S
C296 C291 1.399 . S
C296 C295 1.394 . S
C296 C297 1.516 . S
C297 C296 1.516 . S
C297 C298 1.502 . S
C297 C299 1.561 . S
C297 C300 1.526 . S
C298 H282 0.959 . S
C298 H283 0.959 . S
C298 H284 0.961 . S
C298 C297 1.502 . S
C299 H285 0.960 . S
C299 H286 0.961 . S
C299 H287 0.959 . S
C299 C297 1.561 . S
C300 C297 1.526 . S
C300 C301 1.396 . S
C300 C305 1.390 . S
C301 C295 1.465 . S
C301 C300 1.396 . S
C301 C302 1.399 . S
C302 H288 0.922 1_545 S
C302 C301 1.399 . S
C302 C303 1.385 . S
C303 H289 0.931 . S
C303 C302 1.385 . S
C303 C304 1.389 . S
C304 C303 1.389 . S
C304 C305 1.387 . S
C305 H290 0.930 . S
C305 C300 1.390 . S
C305 C304 1.387 . S
H306 C318 0.930 . S
H307 C320 0.930 . S
H308 C321 0.930 . S
H309 C325 0.959 . S
H310 C325 0.959 . S
H311 C325 0.961 . S
H312 C326 0.960 . S
H313 C326 0.961 . S
H314 C326 0.959 . S
H315 C329 0.929 . S
H316 C330 0.931 . S
H317 C332 0.930 . S
C318 H306 0.930 . S
C318 C319 1.399 . S
C318 C323 1.399 . S
C319 C318 1.399 . S
C319 C320 1.376 . S
C320 H307 0.930 . S
C320 C319 1.376 . S
C320 C321 1.388 . S
C321 H308 0.930 . S
C321 C320 1.388 . S
C321 C322 1.390 . S
C322 C321 1.390 . S
C322 C323 1.394 . S
C322 C328 1.465 . S
C323 C318 1.399 . S
C323 C322 1.394 . S
C323 C324 1.516 . S
C324 C323 1.516 . S
C324 C325 1.502 . S
C324 C326 1.561 . S
C324 C327 1.526 . S
C325 H309 0.959 . S
C325 H310 0.959 . S
C325 H311 0.961 . S
C325 C324 1.502 . S
C326 H312 0.960 . S
C326 H313 0.961 . S
C326 H314 0.959 . S
C326 C324 1.561 . S
C327 C324 1.526 . S
C327 C328 1.396 . S
C327 C332 1.390 . S
C328 C322 1.465 . S
C328 C327 1.396 . S
C328 C329 1.399 . S
C329 H315 0.929 . S
C329 C328 1.399 . S
C329 C330 1.385 . S
C330 H316 0.931 . S
C330 C329 1.385 . S
C330 C331 1.389 . S
C331 C330 1.389 . S
C331 C332 1.387 . S
C332 H317 0.930 . S
C332 C327 1.390 . S
C332 C331 1.387 . S
H333 C345 0.930 . S
H334 C347 0.930 . S
H335 C348 0.930 . S
H336 C352 0.959 . S
H337 C352 0.959 . S
H338 C352 0.961 . S
H339 C353 0.960 . S
H340 C353 0.961 . S
H341 C353 0.959 1_565 S
H342 C356 0.929 . S
H343 C357 0.931 . S
H344 C359 0.930 . S
C345 H333 0.930 . S
C345 C346 1.399 . S
C345 C350 1.399 . S
C346 C345 1.399 . S
C346 C347 1.376 1_545 S
C347 H334 0.930 . S
C347 C346 1.376 1_565 S
C347 C348 1.388 . S
C348 H335 0.930 . S
C348 C347 1.388 . S
C348 C349 1.390 . S
C349 C348 1.390 . S
C349 C350 1.394 1_565 S
C349 C355 1.465 . S
C350 C345 1.399 . S
C350 C349 1.394 1_545 S
C350 C351 1.516 . S
C351 C350 1.516 . S
C351 C352 1.502 . S
C351 C353 1.561 . S
C351 C354 1.526 . S
C352 H336 0.959 . S
C352 H337 0.959 . S
C352 H338 0.961 . S
C352 C351 1.502 . S
C353 H339 0.960 . S
C353 H340 0.961 . S
C353 H341 0.959 1_545 S
C353 C351 1.561 . S
C354 C351 1.526 . S
C354 C355 1.396 1_545 S
C354 C359 1.390 . S
C355 C349 1.465 . S
C355 C354 1.396 1_565 S
C355 C356 1.399 . S
C356 H342 0.929 . S
C356 C355 1.399 . S
C356 C357 1.385 . S
C357 H343 0.931 . S
C357 C356 1.385 . S
C357 C358 1.389 . S
C358 C357 1.389 . S
C358 C359 1.387 1_565 S
C359 H344 0.930 . S
C359 C354 1.390 . S
C359 C358 1.387 1_545 S
H360 C372 0.930 . S
H361 C374 0.930 . S
H362 C375 0.930 . S
H363 C379 0.959 . S
H364 C379 0.959 . S
H365 C379 0.961 . S
H366 C380 0.960 . S
H367 C380 0.961 . S
H368 C380 0.959 . S
H369 C383 0.929 . S
H370 C384 0.931 . S
H371 C386 0.930 . S
C372 H360 0.930 . S
C372 C373 1.399 1_556 S
C372 C377 1.399 . S
C373 C372 1.399 1_554 S
C373 C374 1.376 . S
C374 H361 0.930 . S
C374 C373 1.376 . S
C374 C375 1.388 . S
C375 H362 0.930 . S
C375 C374 1.388 . S
C375 C376 1.390 . S
C376 C375 1.390 . S
C376 C377 1.394 1_554 S
C376 C382 1.465 . S
C377 C372 1.399 . S
C377 C376 1.394 1_556 S
C377 C378 1.516 . S
C378 C377 1.516 . S
C378 C379 1.502 . S
C378 C380 1.561 . S
C378 C381 1.526 . S
C379 H363 0.959 . S
C379 H364 0.959 . S
C379 H365 0.961 . S
C379 C378 1.502 . S
C380 H366 0.960 . S
C380 H367 0.961 . S
C380 H368 0.959 . S
C380 C378 1.561 . S
C381 C378 1.526 . S
C381 C382 1.396 1_556 S
C381 C386 1.390 . S
C382 C376 1.465 . S
C382 C381 1.396 1_554 S
C382 C383 1.399 . S
C383 H369 0.929 . S
C383 C382 1.399 . S
C383 C384 1.385 . S
C384 H370 0.931 . S
C384 C383 1.385 . S
C384 C385 1.389 1_554 S
C385 C384 1.389 1_556 S
C385 C386 1.387 . S
C386 H371 0.930 . S
C386 C381 1.390 . S
C386 C385 1.387 . S
H387 C399 0.930 . S
H388 C401 0.930 . S
H389 C402 0.930 . S
H390 C406 0.959 . S
H391 C406 0.959 . S
H392 C406 0.961 . S
H393 C407 0.960 . S
H394 C407 0.961 . S
H395 C407 0.959 . S
H396 C410 0.929 . S
H397 C411 0.931 . S
H398 C413 0.930 . S
C399 H387 0.930 . S
C399 C400 1.399 . S
C399 C404 1.399 . S
C400 C399 1.399 . S
C400 C401 1.376 . S
C401 H388 0.930 . S
C401 C400 1.376 . S
C401 C402 1.388 1_655 S
C402 H389 0.930 . S
C402 C401 1.388 1_455 S
C402 C403 1.390 . S
C403 C402 1.390 . S
C403 C404 1.394 1_455 S
C403 C409 1.465 . S
C404 C399 1.399 . S
C404 C403 1.394 1_655 S
C404 C405 1.516 1_655 S
C405 C404 1.516 1_455 S
C405 C406 1.502 1_455 S
C405 C407 1.561 . S
C405 C408 1.526 . S
C406 H390 0.959 . S
C406 H391 0.959 . S
C406 H392 0.961 . S
C406 C405 1.502 1_655 S
C407 H393 0.960 . S
C407 H394 0.961 . S
C407 H395 0.959 . S
C407 C405 1.561 . S
C408 C405 1.526 . S
C408 C409 1.396 . S
C408 C413 1.390 . S
C409 C403 1.465 . S
C409 C408 1.396 . S
C409 C410 1.399 . S
C410 H396 0.929 . S
C410 C409 1.399 . S
C410 C411 1.385 . S
C411 H397 0.931 . S
C411 C410 1.385 . S
C411 C412 1.389 . S
C412 C411 1.389 . S
C412 C413 1.387 . S
C413 H398 0.930 . S
C413 C408 1.390 . S
C413 C412 1.387 . S
H414 C426 0.930 . S
H415 C428 0.930 . S
H416 C429 0.930 1_665 S
H417 C433 0.959 . S
H418 C433 0.959 . S
H419 C433 0.961 . S
H420 C434 0.960 . S
H421 C434 0.961 . S
H422 C434 0.959 . S
H423 C437 0.929 1_565 S
H424 C438 0.931 . S
H425 C440 0.928 . S
C426 H414 0.930 . S
C426 C427 1.399 . S
C426 C431 1.399 . S
C427 C426 1.399 . S
C427 C428 1.376 . S
C428 H415 0.930 . S
C428 C427 1.376 . S
C428 C429 1.388 . S
C429 H416 0.930 1_445 S
C429 C428 1.388 . S
C429 C430 1.390 . S
C430 C429 1.390 . S
C430 C431 1.394 . S
C430 C436 1.464 . S
C431 C426 1.399 . S
C431 C430 1.394 . S
C431 C432 1.516 . S
C432 C431 1.516 . S
C432 C433 1.502 1_455 S
C432 C434 1.561 . S
C432 C435 1.526 . S
C433 H417 0.959 . S
C433 H418 0.959 . S
C433 H419 0.961 . S
C433 C432 1.502 1_655 S
C434 H420 0.960 . S
C434 H421 0.961 . S
C434 H422 0.959 . S
C434 C432 1.561 . S
C435 C432 1.526 . S
C435 C436 1.394 . S
C435 C440 1.390 . S
C436 C430 1.464 . S
C436 C435 1.394 . S
C436 C437 1.402 1_455 S
C437 H423 0.929 1_545 S
C437 C436 1.402 1_655 S
C437 C438 1.385 . S
C438 H424 0.931 . S
C438 C437 1.385 . S
C438 C439 1.389 . S
C439 C438 1.389 . S
C439 C440 1.389 1_655 S
C440 H425 0.928 . S
C440 C435 1.390 . S
C440 C439 1.389 1_455 S
H441 C453 0.930 1_655 S
H442 C455 0.930 . S
H443 C456 0.930 . S
H444 C460 0.959 . S
H445 C460 0.959 . S
H446 C460 0.961 . S
H447 C461 0.960 . S
H448 C461 0.961 . S
H449 C461 0.959 . S
H450 C464 0.929 . S
H451 C465 0.931 . S
H452 C467 0.930 . S
C453 H441 0.930 1_455 S
C453 C454 1.399 . S
C453 C458 1.399 . S
C454 C453 1.399 . S
C454 C455 1.376 . S
C455 H442 0.930 . S
C455 C454 1.376 . S
C455 C456 1.388 . S
C456 H443 0.930 . S
C456 C455 1.388 . S
C456 C457 1.390 . S
C457 C456 1.390 . S
C457 C458 1.394 . S
C457 C463 1.465 . S
C458 C453 1.399 . S
C458 C457 1.394 . S
C458 C459 1.516 1_545 S
C459 C458 1.516 1_565 S
C459 C460 1.502 1_455 S
C459 C461 1.561 . S
C459 C462 1.526 1_565 S
C460 H444 0.959 . S
C460 H445 0.959 . S
C460 H446 0.961 . S
C460 C459 1.502 1_655 S
C461 H447 0.960 . S
C461 H448 0.961 . S
C461 H449 0.959 . S
C461 C459 1.561 . S
C462 C459 1.526 1_545 S
C462 C463 1.396 . S
C462 C467 1.390 1_545 S
C463 C457 1.465 . S
C463 C462 1.396 . S
C463 C464 1.399 . S
C464 H450 0.929 . S
C464 C463 1.399 . S
C464 C465 1.385 . S
C465 H451 0.931 . S
C465 C464 1.385 . S
C465 C466 1.389 . S
C466 C465 1.389 . S
C466 C467 1.387 1_545 S
C467 H452 0.930 . S
C467 C462 1.390 1_565 S
C467 C466 1.387 1_565 S
H468 C480 0.930 . S
H469 C482 0.930 . S
H470 C483 0.930 . S
H471 C487 0.959 . S
H472 C487 0.959 . S
H473 C487 0.961 . S
H474 C488 0.960 . S
H475 C488 0.961 . S
H476 C488 0.959 . S
H477 C491 0.929 . S
H478 C492 0.931 . S
H479 C494 0.930 1_665 S
C480 H468 0.930 . S
C480 C481 1.399 1_565 S
C480 C485 1.399 . S
C481 C480 1.399 1_545 S
C481 C482 1.376 . S
C482 H469 0.930 . S
C482 C481 1.376 . S
C482 C483 1.388 . S
C483 H470 0.930 . S
C483 C482 1.388 . S
C483 C484 1.390 . S
C484 C483 1.390 . S
C484 C485 1.394 1_545 S
C484 C490 1.465 . S
C485 C480 1.399 . S
C485 C484 1.394 1_565 S
C485 C486 1.516 . S
C486 C485 1.516 . S
C486 C487 1.502 1_455 S
C486 C488 1.561 . S
C486 C489 1.526 1_565 S
C487 H471 0.959 . S
C487 H472 0.959 . S
C487 H473 0.961 . S
C487 C486 1.502 1_655 S
C488 H474 0.960 . S
C488 H475 0.961 . S
C488 H476 0.959 . S
C488 C486 1.561 . S
C489 C486 1.526 1_545 S
C489 C490 1.396 . S
C489 C494 1.390 . S
C490 C484 1.465 . S
C490 C489 1.396 . S
C490 C491 1.399 . S
C491 H477 0.929 . S
C491 C490 1.399 . S
C491 C492 1.385 . S
C492 H478 0.931 . S
C492 C491 1.385 . S
C492 C493 1.389 . S
C493 C492 1.389 . S
C493 C494 1.387 . S
C494 H479 0.930 1_445 S
C494 C489 1.390 . S
C494 C493 1.387 . S
C265 C56 4.284 . S
C277 C67 4.286 1_556 S
C292 C151 2.612 . S
C304 C140 2.600 . S
C319 C237 0.499 . S
C331 C226 0.769 . S
C346 C224 2.566 . S
C358 C235 2.580 1_565 S
C373 C58 0.888 . S
C385 C69 0.669 1_556 S
C400 C153 1.243 . S
C412 C142 1.197 . S
C427 C158 1.479 . S
C439 C63 1.531 . S
C454 C147 1.593 . S
C466 C231 1.584 . S
C481 C242 1.537 . S
C493 C74 1.590 . S
