# Generated by pormake.
# Topology wmi, (6)-cn, num edge types: 1
# Building blocks:
#     Node 0, Type 0, BuildingBlock: KUMJIN_clean_sbu_1, # of connection points: 6
#     Node 1, Type 0, BuildingBlock: KUMJIN_clean_sbu_1, # of connection points: 6
#     Node 2, Type 0, BuildingBlock: KUMJIN_clean_sbu_1, # of connection points: 6
#     Node 3, Type 0, BuildingBlock: KUMJIN_clean_sbu_1, # of connection points: 6
#     Node 4, Type 0, BuildingBlock: KUMJIN_clean_sbu_1, # of connection points: 6
#     Node 5, Type 0, BuildingBlock: KUMJIN_clean_sbu_1, # of connection points: 6
#     Node 6, Type 0, BuildingBlock: KUMJIN_clean_sbu_1, # of connection points: 6
#     Node 7, Type 0, BuildingBlock: KUMJIN_clean_sbu_1, # of connection points: 6
#     Node 8, Type 0, BuildingBlock: KUMJIN_clean_sbu_1, # of connection points: 6
#     Node 9, Type 0, BuildingBlock: KUMJIN_clean_sbu_1, # of connection points: 6
#     Node 10, Type 0, BuildingBlock: KUMJIN_clean_sbu_1, # of connection points: 6
#     Node 11, Type 0, BuildingBlock: KUMJIN_clean_sbu_1, # of connection points: 6
#     Node 12, Type 0, BuildingBlock: KUMJIN_clean_sbu_1, # of connection points: 6
#     Node 13, Type 0, BuildingBlock: KUMJIN_clean_sbu_1, # of connection points: 6
#     Node 14, Type 0, BuildingBlock: KUMJIN_clean_sbu_1, # of connection points: 6
#     Node 15, Type 0, BuildingBlock: KUMJIN_clean_sbu_1, # of connection points: 6
#     Node 16, Type 0, BuildingBlock: KUMJIN_clean_sbu_1, # of connection points: 6
#     Node 17, Type 0, BuildingBlock: KUMJIN_clean_sbu_1, # of connection points: 6
#     Edge 18, Type (0, 0), BuildingBlock: EZIPEK_clean_linker_0, # of connection points: 2
#     Edge 19, Type (0, 0), BuildingBlock: EZIPEK_clean_linker_0, # of connection points: 2
#     Edge 20, Type (0, 0), BuildingBlock: EZIPEK_clean_linker_0, # of connection points: 2
#     Edge 21, Type (0, 0), BuildingBlock: EZIPEK_clean_linker_0, # of connection points: 2
#     Edge 22, Type (0, 0), BuildingBlock: EZIPEK_clean_linker_0, # of connection points: 2
#     Edge 23, Type (0, 0), BuildingBlock: EZIPEK_clean_linker_0, # of connection points: 2
#     Edge 24, Type (0, 0), BuildingBlock: EZIPEK_clean_linker_0, # of connection points: 2
#     Edge 25, Type (0, 0), BuildingBlock: EZIPEK_clean_linker_0, # of connection points: 2
#     Edge 26, Type (0, 0), BuildingBlock: EZIPEK_clean_linker_0, # of connection points: 2
#     Edge 27, Type (0, 0), BuildingBlock: EZIPEK_clean_linker_0, # of connection points: 2
#     Edge 28, Type (0, 0), BuildingBlock: EZIPEK_clean_linker_0, # of connection points: 2
#     Edge 29, Type (0, 0), BuildingBlock: EZIPEK_clean_linker_0, # of connection points: 2
#     Edge 30, Type (0, 0), BuildingBlock: EZIPEK_clean_linker_0, # of connection points: 2
#     Edge 31, Type (0, 0), BuildingBlock: EZIPEK_clean_linker_0, # of connection points: 2
#     Edge 32, Type (0, 0), BuildingBlock: EZIPEK_clean_linker_0, # of connection points: 2
#     Edge 33, Type (0, 0), BuildingBlock: EZIPEK_clean_linker_0, # of connection points: 2
#     Edge 34, Type (0, 0), BuildingBlock: EZIPEK_clean_linker_0, # of connection points: 2
#     Edge 35, Type (0, 0), BuildingBlock: EZIPEK_clean_linker_0, # of connection points: 2
#     Edge 36, Type (0, 0), BuildingBlock: EZIPEK_clean_linker_0, # of connection points: 2
#     Edge 37, Type (0, 0), BuildingBlock: EZIPEK_clean_linker_0, # of connection points: 2
#     Edge 38, Type (0, 0), BuildingBlock: EZIPEK_clean_linker_0, # of connection points: 2
#     Edge 39, Type (0, 0), BuildingBlock: EZIPEK_clean_linker_0, # of connection points: 2
#     Edge 40, Type (0, 0), BuildingBlock: EZIPEK_clean_linker_0, # of connection points: 2
#     Edge 41, Type (0, 0), BuildingBlock: EZIPEK_clean_linker_0, # of connection points: 2
#     Edge 42, Type (0, 0), BuildingBlock: EZIPEK_clean_linker_0, # of connection points: 2
#     Edge 43, Type (0, 0), BuildingBlock: EZIPEK_clean_linker_0, # of connection points: 2
#     Edge 44, Type (0, 0), BuildingBlock: EZIPEK_clean_linker_0, # of connection points: 2
#     Edge 45, Type (0, 0), BuildingBlock: EZIPEK_clean_linker_0, # of connection points: 2
#     Edge 46, Type (0, 0), BuildingBlock: EZIPEK_clean_linker_0, # of connection points: 2
#     Edge 47, Type (0, 0), BuildingBlock: EZIPEK_clean_linker_0, # of connection points: 2
#     Edge 48, Type (0, 0), BuildingBlock: EZIPEK_clean_linker_0, # of connection points: 2
#     Edge 49, Type (0, 0), BuildingBlock: EZIPEK_clean_linker_0, # of connection points: 2
#     Edge 50, Type (0, 0), BuildingBlock: EZIPEK_clean_linker_0, # of connection points: 2
#     Edge 51, Type (0, 0), BuildingBlock: EZIPEK_clean_linker_0, # of connection points: 2
#     Edge 52, Type (0, 0), BuildingBlock: EZIPEK_clean_linker_0, # of connection points: 2
#     Edge 53, Type (0, 0), BuildingBlock: EZIPEK_clean_linker_0, # of connection points: 2
#     Edge 54, Type (0, 0), BuildingBlock: EZIPEK_clean_linker_0, # of connection points: 2
#     Edge 55, Type (0, 0), BuildingBlock: EZIPEK_clean_linker_0, # of connection points: 2
#     Edge 56, Type (0, 0), BuildingBlock: EZIPEK_clean_linker_0, # of connection points: 2
#     Edge 57, Type (0, 0), BuildingBlock: EZIPEK_clean_linker_0, # of connection points: 2
#     Edge 58, Type (0, 0), BuildingBlock: EZIPEK_clean_linker_0, # of connection points: 2
#     Edge 59, Type (0, 0), BuildingBlock: EZIPEK_clean_linker_0, # of connection points: 2
#     Edge 60, Type (0, 0), BuildingBlock: EZIPEK_clean_linker_0, # of connection points: 2
#     Edge 61, Type (0, 0), BuildingBlock: EZIPEK_clean_linker_0, # of connection points: 2
#     Edge 62, Type (0, 0), BuildingBlock: EZIPEK_clean_linker_0, # of connection points: 2
#     Edge 63, Type (0, 0), BuildingBlock: EZIPEK_clean_linker_0, # of connection points: 2
#     Edge 64, Type (0, 0), BuildingBlock: EZIPEK_clean_linker_0, # of connection points: 2
#     Edge 65, Type (0, 0), BuildingBlock: EZIPEK_clean_linker_0, # of connection points: 2
#     Edge 66, Type (0, 0), BuildingBlock: EZIPEK_clean_linker_0, # of connection points: 2
#     Edge 67, Type (0, 0), BuildingBlock: EZIPEK_clean_linker_0, # of connection points: 2
#     Edge 68, Type (0, 0), BuildingBlock: EZIPEK_clean_linker_0, # of connection points: 2
#     Edge 69, Type (0, 0), BuildingBlock: EZIPEK_clean_linker_0, # of connection points: 2
#     Edge 70, Type (0, 0), BuildingBlock: EZIPEK_clean_linker_0, # of connection points: 2
#     Edge 71, Type (0, 0), BuildingBlock: EZIPEK_clean_linker_0, # of connection points: 2
# Relax obj value: 0.066
# Max RMSD: 0.192
# Mean RMSD: 0.192
data_MOF--net-wmi--node1-KUMJIN_clean_sbu_1--edge1-EZIPEK_clean_linker_0
_symmetry_space_group_name_H-M    P1
_symmetry_Int_Tables_number       1
_symmetry_cell_setting            triclinic
loop_
_symmetry_equiv_pos_as_xyz
'x, y, z'
_cell_length_a     31.170614
_cell_length_b     31.15878
_cell_length_c     58.975065
_cell_angle_alpha  89.961394
_cell_angle_beta   90.136937
_cell_angle_gamma 119.87585
loop_
_atom_site_label
_atom_site_type_symbol
_atom_site_fract_x
_atom_site_fract_y
_atom_site_fract_z
_atom_type_partial_charge
Eu0 Eu 0.40175 0.97603 0.08137 0.0
C1 C 0.60378 0.01534 0.13063 0.0
N2 N 0.57391 0.03514 0.13393 0.0
C3 C 0.58505 0.0346 0.17421 0.0
C4 C 0.62541 1.00448 0.14924 0.0
C5 C 0.56541 0.04596 0.15533 0.0
C6 C 0.61532 0.01398 0.17115 0.0
C7 C 0.64785 0.99009 0.10479 0.0
C8 C 0.6154 1.00865 0.10856 0.0
C9 C 0.6694 0.97953 0.12331 0.0
C10 C 0.65821 0.98668 0.14545 0.0
Eu11 Eu 0.55142 0.06144 0.10058 0.0
N12 N 0.59539 0.02063 0.09079 0.0
C13 C 0.65824 0.98317 0.08248 0.0
C14 C 0.60625 0.01482 0.06897 0.0
C15 C 0.63705 0.99523 0.06451 0.0
H16 H 0.54564 0.06563 0.15802 0.0
H17 H 0.64529 0.99046 0.04719 0.0
H18 H 0.39268 0.92708 0.02978 0.0
H19 H 0.29253 0.04796 0.12098 0.0
H20 H 0.59223 0.026 0.05484 0.0
H21 H 0.68294 0.96895 0.07896 0.0
H22 H 0.35663 0.02367 0.11897 0.0
H23 H 0.57831 0.0434 0.19111 0.0
H24 H 0.69464 0.96557 0.12069 0.0
H25 H 0.67554 0.97878 0.15955 0.0
H26 H 0.33455 0.8999 0.99751 0.0
H27 H 0.6321 1.00713 0.18579 0.0
H28 H 0.24018 0.03666 0.08742 0.0
N29 N 0.35932 0.96342 0.04672 0.0
C30 C 0.32208 0.97411 0.0468 0.0
C31 C 0.33092 0.92111 0.01114 0.0
C32 C 0.28744 0.95832 0.02888 0.0
C33 C 0.36449 0.93766 0.02917 0.0
C34 C 0.2917 0.93068 0.01118 0.0
N35 N 0.34569 1.00587 0.08404 0.0
C36 C 0.33579 0.02125 0.10403 0.0
C37 C 0.27676 1.00754 0.06644 0.0
C38 C 0.31598 0.99718 0.06571 0.0
C39 C 0.26966 0.0279 0.08626 0.0
C40 C 0.29905 0.03431 0.10524 0.0
H41 H 0.26527 0.91712 0.99734 0.0
H42 H 0.22218 0.9578 0.01577 0.0
H43 H 0.21381 1.00225 0.04829 0.0
O44 O 0.35894 0.92368 0.10818 0.0
O45 O 0.42975 0.05854 0.09169 0.0
O46 O 0.51217 0.09649 0.08276 0.0
O47 O 0.34184 0.90098 0.07359 0.0
O48 O 0.43934 0.97865 0.11375 0.0
O49 O 0.49212 0.05208 0.12766 0.0
O50 O 0.62099 0.11811 0.08506 0.0
O51 O 0.5163 0.97794 0.09951 0.0
O52 O 0.45465 0.94811 0.07224 0.0
O53 O 0.60587 0.12676 0.11957 0.0
O54 O 0.5371 0.05577 0.06195 0.0
O55 O 0.45445 1.00058 0.0514 0.0
C56 C 0.47386 0.09924 0.08983 0.0
C57 C 0.33397 0.84036 0.09931 0.0
C58 C 0.29463 0.7504 0.09664 0.0
C59 C 0.33976 0.75359 0.10272 0.0
C60 C 0.37767 0.84216 0.10655 0.0
C61 C 0.38073 0.79915 0.10804 0.0
C62 C 0.29192 0.79414 0.09484 0.0
C63 C 0.44844 1.01186 0.12906 0.0
C64 C 0.33376 0.8867 0.09454 0.0
C65 C 0.24895 0.96937 0.02944 0.0
C66 C 0.24416 0.99468 0.04797 0.0
C67 C 0.48532 0.94256 0.08577 0.0
C68 C 0.69084 0.16023 0.1094 0.0
C69 C 0.78049 0.2163 0.10458 0.0
C70 C 0.78928 0.19179 0.12238 0.0
C71 C 0.70135 0.13767 0.12753 0.0
C72 C 0.73091 0.19953 0.0977 0.0
C73 C 0.75004 0.15268 0.13366 0.0
C74 C 0.50158 0.03108 0.0467 0.0
C75 C 0.63845 0.14422 0.10338 0.0
H76 H 0.34276 0.72049 0.10397 0.0
H77 H 0.40966 0.87705 0.11074 0.0
H78 H 0.41498 0.80114 0.11327 0.0
H79 H 0.25756 0.79218 0.0897 0.0
H80 H 0.82675 0.20398 0.128 0.0
H81 H 0.672 0.10912 0.13741 0.0
H82 H 0.72363 0.21839 0.08407 0.0
H83 H 0.75735 0.13474 0.14766 0.0
Eu84 Eu 0.09122 0.43814 0.07781 0.0
C85 C 0.0833 0.61915 0.11272 0.0
N86 N 0.06051 0.57233 0.12112 0.0
C87 C 0.10081 0.60245 0.1569 0.0
C88 C 0.11859 0.65913 0.1257 0.0
C89 C 0.06626 0.56387 0.14333 0.0
C90 C 0.12793 0.65006 0.1479 0.0
C91 C 0.09436 0.67476 0.08176 0.0
C92 C 0.07246 0.62648 0.09076 0.0
C93 C 0.13075 0.71462 0.09435 0.0
C94 C 0.14351 0.7066 0.11611 0.0
Eu95 Eu 1.01137 0.50783 0.0955 0.0
N96 N 0.03983 0.58664 0.07838 0.0
C97 C 0.07914 0.68146 0.06036 0.0
C98 C 0.0224 0.59343 0.05816 0.0
C99 C 0.04226 0.6407 0.04873 0.0
H100 H 0.04575 0.52698 0.15027 0.0
H101 H 0.02917 0.64562 0.03245 0.0
H102 H 0.12836 0.45827 0.02308 0.0
H103 H 0.02352 0.26875 0.12651 0.0
H104 H 0.99323 0.56241 0.04912 0.0
H105 H 0.09493 0.71797 0.05288 0.0
H106 H 0.06469 0.35937 0.12018 0.0
H107 H 0.10712 0.59522 0.17412 0.0
H108 H 0.14917 0.75176 0.08744 0.0
H109 H 0.17215 0.73744 0.12553 0.0
H110 H 0.11908 0.40981 0.98863 0.0
H111 H 0.15496 0.67987 0.15835 0.0
H112 H 0.9982 0.21233 0.09341 0.0
N113 N 0.08369 0.39533 0.04353 0.0
C114 C 0.06049 0.34523 0.0451 0.0
C115 C 0.10165 0.39116 0.00428 0.0
C116 C 0.05572 0.31596 0.02599 0.0
C117 C 0.10584 0.41854 0.02371 0.0
C118 C 0.07649 0.33964 0.00543 0.0
N119 N 0.05554 0.35299 0.0847 0.0
C120 C 0.05084 0.33447 0.10603 0.0
C121 C 0.02464 0.27181 0.06883 0.0
C122 C 0.04573 0.32342 0.0663 0.0
C123 C 1.01453 0.25182 0.09075 0.0
C124 C 0.02867 0.28346 0.10948 0.0
H125 H 0.07528 0.31868 0.99059 0.0
H126 H 0.02867 0.24121 0.01378 0.0
H127 H 1.00039 0.20249 0.05118 0.0
O128 O 0.15292 0.457 0.10111 0.0
O129 O 1.00929 0.38722 0.08783 0.0
O130 O 0.97447 0.43391 0.07693 0.0
O131 O 0.15767 0.43739 0.06669 0.0
O132 O 0.08882 0.46259 0.11331 0.0
O133 O 1.01411 0.45418 0.12289 0.0
O134 O 0.9439 0.50904 0.08556 0.0
O135 O 0.09314 0.54118 0.10175 0.0
O136 O 0.12286 0.52036 0.07116 0.0
O137 O 0.95912 0.50648 0.12081 0.0
O138 O 0.02488 0.50732 0.05678 0.0
O139 O 0.07397 0.47228 0.04792 0.0
C140 C 0.9699 0.39204 0.08429 0.0
C141 C 0.23039 0.50046 0.08316 0.0
C142 C 0.31958 0.54317 0.08793 0.0
C143 C 0.32327 0.58548 0.07766 0.0
C144 C 0.23523 0.54206 0.07156 0.0
C145 C 0.28108 0.58488 0.06954 0.0
C146 C 0.2729 0.50122 0.09149 0.0
C147 C 0.05084 0.44492 0.12691 0.0
C148 C 0.1816 0.4557 0.08548 0.0
C149 C 0.03279 0.26431 0.02828 0.0
C150 C 1.01679 0.24225 0.0496 0.0
C151 C 0.12529 0.55371 0.08545 0.0
C152 C 0.91882 0.55216 0.11066 0.0
C153 C 0.86553 0.5889 0.1044 0.0
C154 C 0.89109 0.62289 0.12187 0.0
C155 C 0.94413 0.58758 0.12765 0.0
C156 C 0.88021 0.55384 0.09862 0.0
C157 C 0.93035 0.62258 0.13313 0.0
C158 C 0.04909 0.49452 0.04215 0.0
C159 C 0.93139 0.51261 0.10611 0.0
H160 H 0.3591 0.61798 0.07483 0.0
H161 H 0.20411 0.54132 0.06338 0.0
H162 H 0.28413 0.61689 0.06084 0.0
H163 H 0.27013 0.4685 0.0994 0.0
H164 H 0.88053 0.64982 0.12681 0.0
H165 H 0.97431 0.58798 0.13698 0.0
H166 H 0.86069 0.52712 0.0853 0.0
H167 H 0.94985 0.64928 0.14644 0.0
Eu168 Eu 0.61874 0.6525 0.0741 0.0
C169 C 0.48101 0.45419 0.12424 0.0
N170 N 0.52655 0.49288 0.12945 0.0
C171 C 0.50451 0.48758 0.16854 0.0
C172 C 0.44518 0.43088 0.14125 0.0
C173 C 0.53908 0.5092 0.15121 0.0
C174 C 0.45771 0.44801 0.16353 0.0
C175 C 0.42568 0.39372 0.09676 0.0
C176 C 0.47144 0.43591 0.10211 0.0
C177 C 0.38928 0.37155 0.11355 0.0
C178 C 0.39912 0.38982 0.13575 0.0
Eu179 Eu 0.58488 0.51897 0.10027 0.0
N180 N 0.50806 0.45674 0.08634 0.0
C181 C 0.41884 0.37318 0.07505 0.0
C182 C 0.503 0.43403 0.06593 0.0
C183 C 0.45798 0.39295 0.05971 0.0
H184 H 0.57615 0.53785 0.15536 0.0
H185 H 0.45392 0.37588 0.04327 0.0
H186 H 0.56613 0.6444 0.0236 0.0
H187 H 0.80226 0.78201 0.10502 0.0
H188 H 0.5339 0.44685 0.05447 0.0
H189 H 0.3843 0.3407 0.07035 0.0
H190 H 0.716 0.71214 0.10713 0.0
H191 H 0.51448 0.50026 0.18585 0.0
H192 H 0.35402 0.33906 0.10973 0.0
H193 H 0.37132 0.37092 0.14866 0.0
H194 H 0.58746 0.69154 0.98769 0.0
H195 H 0.43236 0.42969 0.17713 0.0
H196 H 0.83493 0.82469 0.06835 0.0
N197 N 0.63887 0.68538 0.03715 0.0
C198 C 0.68581 0.72304 0.03409 0.0
C199 C 0.6155 0.70066 0.00057 0.0
C200 C 0.69968 0.75077 0.01384 0.0
C201 C 0.60376 0.67354 0.02074 0.0
C202 C 0.66364 0.7396 0.99714 0.0
N203 N 0.70253 0.71301 0.07214 0.0
C204 C 0.7311 0.72951 0.09112 0.0
C205 C 0.76703 0.77778 0.05 0.0
C206 C 0.71885 0.73685 0.05204 0.0
C207 C 0.79771 0.79334 0.06919 0.0
C208 C 0.77943 0.7694 0.08993 0.0
H209 H 0.67267 0.76056 0.98152 0.0
H210 H 0.7597 0.81156 0.99582 0.0
H211 H 0.81901 0.8347 0.02736 0.0
O212 O 0.6199 0.7114 0.09506 0.0
O213 O 0.68092 0.63109 0.07085 0.0
O214 O 0.66558 0.57612 0.10014 0.0
O215 O 0.57609 0.68721 0.06436 0.0
O216 O 0.60819 0.63785 0.11164 0.0
O217 O 0.63368 0.58511 0.12451 0.0
O218 O 0.59101 0.45455 0.08945 0.0
O219 O 0.52974 0.54629 0.10595 0.0
O220 O 0.54009 0.58961 0.07332 0.0
O221 O 0.60109 0.47541 0.12446 0.0
O222 O 0.59874 0.53206 0.06124 0.0
O223 O 0.56982 0.585 0.0532 0.0
C224 C 0.69297 0.60258 0.08314 0.0
C225 C 0.60447 0.7688 0.07485 0.0
C226 C 0.5784 0.82961 0.0691 0.0
C227 C 0.62383 0.86136 0.05875 0.0
C228 C 0.65035 0.80136 0.06506 0.0
C229 C 0.65974 0.84726 0.05681 0.0
C230 C 0.56847 0.78296 0.07676 0.0
C231 C 0.63375 0.62781 0.12609 0.0
C232 C 0.59115 0.71821 0.08114 0.0
C233 C 0.74829 0.79016 0.01134 0.0
C234 C 0.78204 0.80338 0.02932 0.0
C235 C 0.51433 0.56748 0.09137 0.0
C236 C 0.55381 0.38857 0.11615 0.0
C237 C 0.50862 0.29822 0.10943 0.0
C238 C 0.47961 0.29235 0.12859 0.0
C239 C 0.52498 0.3804 0.13571 0.0
C240 C 0.54476 0.34695 0.10272 0.0
C241 C 0.48755 0.33307 0.14148 0.0
C242 C 0.58218 0.55269 0.04652 0.0
C243 C 0.59246 0.44037 0.10999 0.0
H244 H 0.63186 0.89741 0.05272 0.0
H245 H 0.67866 0.79134 0.06366 0.0
H246 H 0.69506 0.87213 0.04911 0.0
H247 H 0.53317 0.75827 0.08464 0.0
H248 H 0.45187 0.25572 0.13413 0.0
H249 H 0.53118 0.41066 0.14673 0.0
H250 H 0.56725 0.35208 0.08789 0.0
H251 H 0.46541 0.32777 0.15645 0.0
Eu252 Eu 0.99419 0.40746 0.90913 0.0
C253 C 0.08278 0.6246 0.85595 0.0
N254 N 0.0931 0.58696 0.85512 0.0
C255 C 0.11598 0.60467 0.81594 0.0
C256 C 0.09063 0.6549 0.83683 0.0
C257 C 0.11051 0.57738 0.83561 0.0
C258 C 0.10633 0.64379 0.81658 0.0
C259 C 0.05643 0.674 0.87752 0.0
C260 C 0.06592 0.63429 0.87619 0.0
C261 C 0.0665 0.70538 0.8588 0.0
C262 C 0.08354 0.69588 0.83855 0.0
Eu263 Eu 0.09395 0.55384 0.89101 0.0
N264 N 0.05977 0.60571 0.89469 0.0
C265 C 0.03792 0.68164 0.8978 0.0
C266 C 0.04338 0.61408 0.91477 0.0
C267 C 0.031 0.65126 0.91644 0.0
H268 H 0.12255 0.5504 0.83517 0.0
H269 H 1.01739 0.65732 0.93229 0.0
H270 H 0.93563 0.4108 0.95604 0.0
H271 H 0.05621 0.27789 0.88541 0.0
H272 H 0.04003 0.59235 0.92957 0.0
H273 H 0.02941 0.71126 0.89932 0.0
H274 H 0.03637 0.34449 0.87929 0.0
H275 H 0.12943 0.59669 0.80051 0.0
H276 H 0.06023 0.73656 0.85967 0.0
H277 H 0.09018 0.71995 0.82412 0.0
H278 H 0.91207 0.37008 0.99353 0.0
H279 H 0.11198 0.66577 0.80146 0.0
H280 H 0.04162 0.23751 0.92293 0.0
N281 N 0.97287 0.37265 0.94576 0.0
C282 C 0.98385 0.33666 0.95064 0.0
C283 C 0.93236 0.36043 0.98167 0.0
C284 C 0.96896 0.31072 0.97137 0.0
C285 C 0.94594 0.38357 0.96052 0.0
C286 C 0.9441 0.32392 0.98718 0.0
N287 N 1.01634 0.34565 0.91362 0.0
C288 C 0.03194 0.32848 0.89597 0.0
C289 C 1.01482 0.28301 0.93807 0.0
C290 C 1.00652 0.32298 0.93416 0.0
C291 C 0.03448 0.26787 0.92053 0.0
C292 C 0.04267 0.29046 0.89932 0.0
H293 H 0.9326 0.30521 0.00338 0.0
H294 H 0.96528 0.25022 0.99093 0.0
H295 H 1.0065 0.22665 0.96205 0.0
O296 O 0.94617 0.34505 0.88713 0.0
O297 O 0.07443 0.42694 0.89944 0.0
O298 O 0.12095 0.50859 0.90981 0.0
O299 O 0.91421 0.37691 0.90897 0.0
O300 O 1.00586 0.44649 0.87659 0.0
O301 O 0.08115 0.49258 0.86391 0.0
O302 O 0.14663 0.62228 0.90944 0.0
O303 O 1.01213 0.52849 0.88755 0.0
O304 O 0.97414 0.4682 0.91483 0.0
O305 O 0.16869 0.60226 0.87798 0.0
O306 O 0.07687 0.53979 0.92934 0.0
O307 O 0.02712 0.45603 0.93971 0.0
C308 C 0.11795 0.46722 0.90309 0.0
C309 C 0.86608 0.29199 0.90198 0.0
C310 C 0.77834 0.23272 0.90621 0.0
C311 C 0.79024 0.20042 0.91756 0.0
C312 C 0.87737 0.25906 0.91318 0.0
C313 C 0.83958 0.21361 0.921 0.0
C314 C 0.81635 0.27859 0.89842 0.0
C315 C 0.0388 0.45088 0.86216 0.0
C316 C 0.90544 0.3413 0.895 0.0
C317 C 0.97737 0.27112 0.9753 0.0
C318 C 1.00073 0.25764 0.95882 0.0
C319 C 0.9729 0.49908 0.89983 0.0
C320 C 0.23123 0.67851 0.89581 0.0
C321 C 0.28854 0.76596 0.90516 0.0
C322 C 0.32746 0.76092 0.89616 0.0
C323 C 0.27118 0.67518 0.88689 0.0
C324 C 0.24008 0.72415 0.90527 0.0
C325 C 0.31884 0.71593 0.88722 0.0
C326 C 0.05373 0.50353 0.94439 0.0
C327 C 0.18105 0.63417 0.89436 0.0
H328 H 0.76124 0.1647 0.92343 0.0
H329 H 0.91526 0.26835 0.91588 0.0
H330 H 0.84857 0.18845 0.92966 0.0
H331 H 0.8072 0.30357 0.88964 0.0
H332 H 0.36479 0.79222 0.89592 0.0
H333 H 0.26556 0.64078 0.87967 0.0
H334 H 0.20963 0.72752 0.91207 0.0
H335 H 0.34927 0.71273 0.88032 0.0
Eu336 Eu 0.69076 0.6307 0.9131 0.0
C337 C 0.50741 0.44482 0.87859 0.0
N338 N 0.52973 0.49292 0.87143 0.0
C339 C 0.54303 0.46718 0.83481 0.0
C340 C 0.5055 0.40709 0.86461 0.0
C341 C 0.54404 0.50331 0.84919 0.0
C342 C 0.52485 0.41915 0.84272 0.0
C343 C 0.4618 0.38353 0.90772 0.0
C344 C 0.48549 0.43283 0.89989 0.0
C345 C 0.46127 0.34643 0.89408 0.0
C346 C 0.4834 0.35825 0.87267 0.0
Eu347 Eu 0.53344 0.55157 0.89918 0.0
N348 N 0.48935 0.46993 0.91341 0.0
C349 C 0.44001 0.37311 0.92923 0.0
C350 C 0.46793 0.45995 0.93431 0.0
C351 C 0.44275 0.41147 0.9425 0.0
H352 H 0.55559 0.53879 0.84176 0.0
H353 H 0.42614 0.40385 0.95918 0.0
H354 H 0.71116 0.56505 0.95261 0.0
H355 H 0.78296 0.8311 0.90116 0.0
H356 H 0.47055 0.48952 0.94471 0.0
H357 H 0.42132 0.33567 0.9358 0.0
H358 H 0.73093 0.74352 0.89021 0.0
H359 H 0.55572 0.47636 0.81747 0.0
H360 H 0.44384 0.30846 0.89994 0.0
H361 H 0.48246 0.32915 0.86227 0.0
H362 H 0.7597 0.57994 0.98759 0.0
H363 H 0.52393 0.39121 0.83146 0.0
H364 H 0.8265 0.8527 0.9381 0.0
N365 N 0.73453 0.64119 0.94722 0.0
C366 C 0.76461 0.68845 0.95419 0.0
C367 C 0.7612 0.61078 0.97844 0.0
C368 C 0.79288 0.69863 0.97423 0.0
C369 C 0.73344 0.60249 0.95863 0.0
C370 C 0.79071 0.65903 0.98641 0.0
N371 N 0.74115 0.71574 0.92156 0.0
C372 C 0.74837 0.75247 0.90673 0.0
C373 C 0.79849 0.77633 0.94789 0.0
C374 C 0.76721 0.72677 0.94123 0.0
C375 C 0.80293 0.81416 0.93357 0.0
C376 C 0.77839 0.80215 0.91272 0.0
H377 H 0.8119 0.66532 0.00187 0.0
H378 H 0.84412 0.75633 0.99685 0.0
H379 H 0.84926 0.82443 0.97371 0.0
O380 O 0.75443 0.66513 0.8902 0.0
O381 O 0.6521 0.67703 0.90391 0.0
O382 O 0.57 0.62854 0.9149 0.0
O383 O 0.72321 0.58838 0.89928 0.0
O384 O 0.62976 0.59251 0.89003 0.0
O385 O 0.57912 0.59835 0.86834 0.0
O386 O 0.46506 0.5441 0.91375 0.0
O387 O 0.56981 0.5092 0.91292 0.0
O388 O 0.6546 0.54865 0.92176 0.0
O389 O 0.47363 0.54689 0.87776 0.0
O390 O 0.56021 0.57343 0.93679 0.0
O391 O 0.64559 0.60724 0.94462 0.0
C392 C 0.60689 0.67071 0.90762 0.0
C393 C 0.8099 0.63523 0.89842 0.0
C394 C 0.86662 0.60345 0.90443 0.0
C395 C 0.9011 0.64899 0.91402 0.0
C396 C 0.84506 0.68058 0.90806 0.0
C397 C 0.89022 0.68718 0.91591 0.0
C398 C 0.82047 0.5963 0.89715 0.0
C399 C 0.62449 0.60875 0.87075 0.0
C400 C 0.76117 0.6271 0.89088 0.0
C401 C 0.82263 0.74783 0.98136 0.0
C402 C 0.82544 0.78659 0.96821 0.0
C403 C 0.60989 0.5093 0.92008 0.0
C404 C 0.39234 0.49593 0.89206 0.0
C405 C 0.30209 0.46008 0.89476 0.0
C406 C 0.29594 0.41753 0.88364 0.0
C407 C 0.38472 0.45257 0.88121 0.0
C408 C 0.35078 0.49883 0.89957 0.0
C409 C 0.3369 0.41354 0.87728 0.0
C410 C 0.59939 0.59116 0.95092 0.0
C411 C 0.44325 0.53881 0.89441 0.0
H412 H 0.9366 0.65505 0.9199 0.0
H413 H 0.83766 0.7109 0.9097 0.0
H414 H 0.91707 0.72219 0.92333 0.0
H415 H 0.79334 0.56086 0.8901 0.0
H416 H 0.25921 0.38763 0.87952 0.0
H417 H 0.41572 0.44926 0.87525 0.0
H418 H 0.35615 0.53227 0.90779 0.0
H419 H 0.33156 0.38056 0.86867 0.0
Eu420 Eu 0.46326 0.0925 0.9231 0.0
C421 C 0.58615 0.02355 0.85816 0.0
N422 N 0.53722 1.00921 0.85943 0.0
C423 C 0.5298 0.99974 0.81896 0.0
C424 C 0.60849 0.02569 0.83708 0.0
C425 C 0.50869 0.99599 0.84025 0.0
C426 C 0.57986 0.01449 0.81735 0.0
C427 C 0.66323 0.04446 0.87739 0.0
C428 C 0.61318 0.03226 0.87809 0.0
C429 C 0.68542 0.04668 0.85643 0.0
C430 C 0.65784 0.03643 0.8364 0.0
Eu431 Eu 0.50378 0.99497 0.89649 0.0
N432 N 0.58999 0.02676 0.89823 0.0
C433 C 0.68891 0.05191 0.89784 0.0
C434 C 0.61384 0.03032 0.91825 0.0
C435 C 0.66401 0.04459 0.91838 0.0
H436 H 0.4691 0.9803 0.84117 0.0
H437 H 0.68314 0.04883 0.93428 0.0
H438 H 0.43123 0.05446 0.97555 0.0
H439 H 0.36202 0.13929 0.86131 0.0
H440 H 0.59402 0.02278 0.9341 0.0
H441 H 0.72753 0.06183 0.89797 0.0
H442 H 0.43615 0.14571 0.87994 0.0
H443 H 0.50699 0.9894 0.80385 0.0
H444 H 0.72358 0.05518 0.85555 0.0
H445 H 0.67483 0.03616 0.82046 0.0
H446 H 0.35823 0.02529 2e-05 0.0
H447 H 0.59556 0.0154 0.80088 0.0
H448 H 0.27916 0.08445 0.87744 0.0
N449 N 0.39231 0.05238 0.9456 0.0
C450 C 0.34942 0.04557 0.9364 0.0
C451 C 0.35435 0.0282 0.98199 0.0
C452 C 0.30579 0.02527 0.94934 0.0
C453 C 0.39588 0.04547 0.96821 0.0
C454 C 0.30864 0.01633 0.9724 0.0
N455 N 0.39502 0.09035 0.90444 0.0
C456 C 0.39988 0.11961 0.88629 0.0
C457 C 0.30743 0.0607 0.90545 0.0
C458 C 0.3506 0.06401 0.91489 0.0
C459 C 0.3114 0.08591 0.88521 0.0
C460 C 0.3581 0.11681 0.87601 0.0
H461 H 0.27637 1.00295 0.98311 0.0
H462 H 0.22768 1.00202 0.94894 0.0
H463 H 0.22891 0.03223 0.91025 0.0
O464 O 0.46941 0.16606 0.92533 0.0
O465 O 0.41471 1.00803 0.93018 0.0
O466 O 0.42416 0.97567 0.8972 0.0
O467 O 0.49123 0.13755 0.95352 0.0
O468 O 0.47644 0.09442 0.88541 0.0
O469 O 0.45535 0.01586 0.87345 0.0
O470 O 0.50753 0.93373 0.91395 0.0
O471 O 0.56457 0.07407 0.90347 0.0
O472 O 0.5326 0.12717 0.901 0.0
O473 O 0.47975 0.92327 0.88019 0.0
O474 O 0.49569 0.99802 0.93538 0.0
O475 O 0.51859 0.07908 0.94177 0.0
C476 C 0.40024 0.97041 0.91601 0.0
C477 C 0.5303 0.22527 0.95095 0.0
C478 C 0.57434 0.31538 0.94664 0.0
C479 C 0.60647 0.31952 0.96423 0.0
C480 C 0.562 0.23094 0.96915 0.0
C481 C 0.60029 0.2775 0.97539 0.0
C482 C 0.53643 0.26811 0.93975 0.0
C483 C 0.45477 0.05811 0.87073 0.0
C484 C 0.48856 0.17508 0.94556 0.0
C485 C 0.26185 0.01841 0.93938 0.0
C486 C 0.26257 0.03566 0.91735 0.0
C487 C 0.56989 0.11841 0.90101 0.0
C488 C 0.53036 0.88745 0.88863 0.0
C489 C 0.56923 0.83484 0.89229 0.0
C490 C 0.59522 0.8556 0.87217 0.0
C491 C 0.55542 0.90456 0.86789 0.0
C492 C 0.53733 0.8518 0.90093 0.0
C493 C 0.58833 0.89001 0.86013 0.0
C494 C 0.51343 0.03701 0.94901 0.0
C495 C 0.49583 0.90575 0.89604 0.0
H496 H 0.63552 0.35558 0.96976 0.0
H497 H 0.55739 0.19921 0.97859 0.0
H498 H 0.62469 0.28106 0.98925 0.0
H499 H 0.51105 0.26502 0.92642 0.0
H500 H 0.61961 0.8435 0.86522 0.0
H501 H 0.54868 0.9284 0.8571 0.0
H502 H 0.5169 0.83608 0.91643 0.0
H503 H 0.60748 0.90438 0.84423 0.0
Eu504 Eu 0.06371 0.31603 0.41171 0.0
C505 C 0.26216 0.33737 0.44257 0.0
N506 N 0.23523 0.3563 0.45181 0.0
C507 C 0.23097 0.31643 0.48712 0.0
C508 C 0.27145 0.30408 0.45485 0.0
C509 C 0.22252 0.34913 0.47419 0.0
C510 C 0.25429 0.29272 0.47721 0.0
C511 C 0.30758 0.33179 0.41051 0.0
C512 C 0.27866 0.34997 0.42045 0.0
C513 C 0.31578 0.29747 0.42241 0.0
C514 C 0.29691 0.2829 0.44435 0.0
Eu515 Eu 0.21454 0.40383 0.42764 0.0
N516 N 0.26681 0.38023 0.40873 0.0
C517 C 0.3268 0.34815 0.38879 0.0
C518 C 0.28771 0.39836 0.38801 0.0
C519 C 0.31748 0.38222 0.37766 0.0
H520 H 0.20416 0.36724 0.48173 0.0
H521 H 0.33312 0.39601 0.36108 0.0
H522 H 0.04684 0.27857 0.35674 0.0
H523 H 0.95806 0.37896 0.4603 0.0
H524 H 0.28174 0.42554 0.37936 0.0
H525 H 0.3493 0.33516 0.3806 0.0
H526 H 1.00901 0.3393 0.45386 0.0
H527 H 0.21901 0.30907 0.50461 0.0
H528 H 0.33651 0.28182 0.41476 0.0
H529 H 0.3027 0.25563 0.45309 0.0
H530 H 1.01001 0.29033 0.32196 0.0
H531 H 0.25958 0.26642 0.4871 0.0
H532 H 0.92672 0.40438 0.42725 0.0
N533 N 0.02789 0.32275 0.37732 0.0
C534 C 1.00049 0.34551 0.37885 0.0
C535 C 1.00772 0.30674 0.33777 0.0
C536 C 0.97667 0.351 0.35962 0.0
C537 C 0.02959 0.30117 0.35741 0.0
C538 C 0.98146 0.33213 0.33882 0.0
N539 N 1.01262 0.3499 0.41848 0.0
C540 C 0.99813 0.35359 0.43978 0.0
C541 C 0.96125 0.37964 0.40263 0.0
C542 C 0.99258 0.35943 0.40009 0.0
C543 C 0.95059 0.38882 0.42457 0.0
C544 C 0.96828 0.37469 0.44328 0.0
H545 H 0.96321 0.33491 0.32372 0.0
H546 H 0.92755 0.37652 0.3475 0.0
H547 H 0.91538 0.40303 0.38497 0.0
O548 O 0.02212 0.25639 0.43605 0.0
O549 O 0.09269 0.39941 0.41973 0.0
O550 O 0.174 0.43606 0.40838 0.0
O551 O 0.99767 0.24726 0.40146 0.0
O552 O 0.09615 0.32439 0.4463 0.0
O553 O 0.15888 0.40042 0.45552 0.0
O554 O 0.28339 0.4715 0.41841 0.0
O555 O 0.1702 0.32216 0.43409 0.0
O556 O 0.11663 0.28638 0.4047 0.0
O557 O 0.26161 0.45766 0.45331 0.0
O558 O 0.19598 0.39235 0.38905 0.0
O559 O 0.11402 0.33041 0.38214 0.0
C560 C 0.13605 0.43961 0.41552 0.0
C561 C 0.98658 0.17611 0.42045 0.0
C562 C 0.93674 0.0864 0.42238 0.0
C563 C 0.97923 0.08261 0.41904 0.0
C564 C 0.02814 0.17116 0.41627 0.0
C565 C 0.0248 0.12497 0.41593 0.0
C566 C 0.94032 0.13325 0.42333 0.0
C567 C 0.11324 0.36351 0.45917 0.0
C568 C 0.99168 0.22578 0.42099 0.0
C569 C 0.94684 0.37277 0.36197 0.0
C570 C 0.93956 0.38753 0.38337 0.0
C571 C 0.15201 0.28921 0.418 0.0
C572 C 0.34855 0.50091 0.44582 0.0
C573 C 0.43841 0.55286 0.43968 0.0
C574 C 0.44626 0.54006 0.46157 0.0
C575 C 0.35826 0.48831 0.46736 0.0
C576 C 0.38905 0.53181 0.43162 0.0
C577 C 0.40668 0.50748 0.47504 0.0
C578 C 0.15909 0.36188 0.37535 0.0
C579 C 0.29662 0.48535 0.43919 0.0
H580 H 0.97679 0.0467 0.41826 0.0
H581 H 0.06317 0.2029 0.41303 0.0
H582 H 0.05747 0.12207 0.41283 0.0
H583 H 0.90742 0.13613 0.42589 0.0
H584 H 0.48341 0.55553 0.46833 0.0
H585 H 0.32842 0.46436 0.47861 0.0
H586 H 0.3822 0.54106 0.41478 0.0
H587 H 0.41355 0.49788 0.49177 0.0
Eu588 Eu 0.75374 0.78053 0.41369 0.0
C589 C 0.67119 0.89614 0.47803 0.0
N590 N 0.65448 0.84717 0.47464 0.0
C591 C 0.63295 0.83076 0.514 0.0
C592 C 0.66828 0.9141 0.49957 0.0
C593 C 0.63469 0.81429 0.49216 0.0
C594 C 0.64967 0.88087 0.51772 0.0
C595 C 0.7044 0.97877 0.46233 0.0
C596 C 0.68905 0.92816 0.45965 0.0
C597 C 0.70121 0.99664 0.48373 0.0
C598 C 0.68257 0.96422 0.5022 0.0
Eu599 Eu 0.65392 0.82303 0.43653 0.0
N600 N 0.68974 0.90951 0.43897 0.0
C601 C 0.72061 1.0095 0.44322 0.0
C602 C 0.7023 0.93852 0.4201 0.0
C603 C 0.71927 0.98916 0.42195 0.0
H604 H 0.61864 0.77502 0.48931 0.0
H605 H 0.73041 0.01224 0.40696 0.0
H606 H 0.71131 0.71112 0.36748 0.0
H607 H 0.86285 0.75941 0.48012 0.0
H608 H 0.69956 0.92236 0.40371 0.0
H609 H 0.73289 0.04861 0.44459 0.0
H610 H 0.83036 0.80343 0.45731 0.0
H611 H 0.6175 0.8046 0.52783 0.0
H612 H 0.71211 0.03524 0.48607 0.0
H613 H 0.67879 0.97815 0.51844 0.0
H614 H 0.68553 0.62581 0.35494 0.0
H615 H 0.64721 0.89338 0.53456 0.0
H616 H 0.82806 0.66935 0.47563 0.0
N617 N 0.73017 0.70042 0.40061 0.0
C618 C 0.73852 0.67096 0.41467 0.0
C619 C 0.69923 0.63757 0.37197 0.0
C620 C 0.72561 0.62243 0.40818 0.0
C621 C 0.71321 0.68551 0.37911 0.0
C622 C 0.70444 0.60544 0.38676 0.0
N623 N 0.77858 0.73891 0.43944 0.0
C624 C 0.81499 0.76401 0.45507 0.0
C625 C 0.77948 0.66376 0.44809 0.0
C626 C 0.76379 0.69091 0.43468 0.0
C627 C 0.814 0.68844 0.46532 0.0
C628 C 0.83351 0.73926 0.46804 0.0
H629 H 0.69423 0.56849 0.38108 0.0
H630 H 0.72645 0.55593 0.41817 0.0
H631 H 0.77474 0.59258 0.45296 0.0
O632 O 0.83378 0.83146 0.41532 0.0
O633 O 0.66996 0.72298 0.40867 0.0
O634 O 0.62718 0.74151 0.4356 0.0
O635 O 0.80153 0.78726 0.38535 0.0
O636 O 0.74715 0.80069 0.44956 0.0
O637 O 0.66666 0.76926 0.45911 0.0
O638 O 0.6 0.82959 0.41474 0.0
O639 O 0.73566 0.87779 0.43965 0.0
O640 O 0.76605 0.85767 0.40864 0.0
O641 O 0.58178 0.80722 0.45017 0.0
O642 O 0.66285 0.82381 0.39726 0.0
O643 O 0.71452 0.79326 0.38541 0.0
C644 C 0.62845 0.71359 0.4193 0.0
C645 C 0.8804 0.80132 0.39678 0.0
C646 C 0.96627 0.82203 0.40207 0.0
C647 C 0.95278 0.77307 0.39668 0.0
C648 C 0.86764 0.75214 0.39204 0.0
C649 C 0.90372 0.73825 0.392 0.0
C650 C 0.92989 0.8362 0.40213 0.0
C651 C 0.70982 0.77171 0.46244 0.0
C652 C 0.84229 0.8162 0.39625 0.0
C653 C 0.73656 0.59349 0.42273 0.0
C654 C 0.76381 0.61427 0.4426 0.0
C655 C 0.77042 0.8888 0.42457 0.0
C656 C 0.52102 0.81802 0.42843 0.0
C657 C 0.47098 0.85713 0.42023 0.0
C658 C 0.42835 0.81221 0.42563 0.0
C659 C 0.47793 0.77475 0.43476 0.0
C660 C 0.51767 0.85972 0.42118 0.0
C661 C 0.43185 0.77148 0.43285 0.0
C662 C 0.68402 0.81006 0.38144 0.0
C663 C 0.56903 0.81975 0.43137 0.0
H664 H 0.98031 0.76182 0.39585 0.0
H665 H 0.8299 0.72441 0.38811 0.0
H666 H 0.89373 0.70047 0.38804 0.0
H667 H 0.94019 0.87417 0.40595 0.0
H668 H 0.39226 0.80939 0.42523 0.0
H669 H 0.48008 0.74356 0.44148 0.0
H670 H 0.551 0.89432 0.41748 0.0
H671 H 0.39877 0.73765 0.43762 0.0
Eu672 Eu 0.2931 0.01362 0.40969 0.0
C673 C 0.14956 0.81478 0.47064 0.0
N674 N 0.2 0.83937 0.47049 0.0
C675 C 0.20107 0.82391 0.51041 0.0
C676 C 0.12321 0.794 0.49094 0.0
C677 C 0.2256 0.84147 0.48981 0.0
C678 C 0.14966 0.80045 0.51103 0.0
C679 C 0.07221 0.77298 0.4495 0.0
C680 C 0.12405 0.80413 0.45006 0.0
C681 C 0.0461 0.75398 0.46976 0.0
C682 C 0.07158 0.76407 0.49035 0.0
Eu683 Eu 0.23629 0.86338 0.43391 0.0
N684 N 0.15001 0.82102 0.43046 0.0
C685 C 0.04831 0.75955 0.42845 0.0
C686 C 0.12708 0.80744 0.40991 0.0
C687 C 0.07592 0.77677 0.40855 0.0
H688 H 0.26505 0.8555 0.48942 0.0
H689 H 0.05805 0.76623 0.39215 0.0
H690 H 0.20827 1.01166 0.37382 0.0
H691 H 0.49384 0.1349 0.41068 0.0
H692 H 0.14837 0.82105 0.39461 0.0
H693 H 1.00868 0.73506 0.42743 0.0
H694 H 0.4127 0.07293 0.42576 0.0
H695 H 0.22176 0.82675 0.52565 0.0
H696 H 1.0063 0.7299 0.46961 0.0
H697 H 0.0512 0.74661 0.50565 0.0
H698 H 0.20568 0.05399 0.3391 0.0
H699 H 0.13069 0.78496 0.52688 0.0
H700 H 0.49875 0.17408 0.37356 0.0
N701 N 0.28696 0.0478 0.375 0.0
C702 C 0.33014 0.08317 0.36585 0.0
C703 C 0.24094 0.06228 0.34633 0.0
C704 C 0.33028 0.10886 0.3461 0.0
C705 C 0.24261 0.03781 0.36588 0.0
C706 C 0.28495 0.09795 0.33636 0.0
N707 N 0.37274 0.0724 0.39665 0.0
C708 C 0.41468 0.08786 0.4092 0.0
C709 C 0.41963 0.13248 0.36782 0.0
C710 C 0.37427 0.0951 0.37672 0.0
C711 C 0.46319 0.14568 0.37987 0.0
C712 C 0.46061 0.12364 0.40079 0.0
H713 H 0.28354 0.11699 0.32124 0.0
H714 H 0.37622 0.16509 0.32172 0.0
H715 H 0.45449 0.18547 0.34062 0.0
O716 O 0.26437 0.02763 0.44052 0.0
O717 O 0.35227 0.98672 0.41203 0.0
O718 O 0.31685 0.90288 0.42409 0.0
O719 O 0.29969 0.08634 0.41667 0.0
O720 O 0.28958 0.96538 0.43641 0.0
O721 O 0.2818 0.91858 0.46332 0.0
O722 O 0.21399 0.79415 0.4154 0.0
O723 O 0.1922 0.90462 0.43319 0.0
O724 O 0.2105 0.96049 0.40386 0.0
O725 O 0.2513 0.80633 0.44738 0.0
O726 O 0.25123 0.88186 0.39493 0.0
O727 O 0.25124 0.95454 0.38395 0.0
C728 C 0.3542 0.94517 0.41693 0.0
C729 C 0.22589 0.0751 0.43361 0.0
C730 C 0.18434 0.12326 0.42831 0.0
C731 C 0.13834 0.07968 0.42967 0.0
C732 C 0.17911 0.0323 0.43525 0.0
C733 C 0.13581 0.03446 0.43319 0.0
C734 C 0.22841 0.12111 0.43025 0.0
C735 C 0.29982 0.96461 0.45758 0.0
C736 C 0.27097 0.07032 0.43423 0.0
C737 C 0.37541 0.14531 0.33698 0.0
C738 C 0.41999 0.15684 0.34772 0.0
C739 C 0.1781 0.92242 0.41613 0.0
C740 C 0.19176 0.72251 0.43772 0.0
C741 C 0.15423 0.63241 0.43241 0.0
C742 C 0.12427 0.6249 0.45138 0.0
C743 C 0.1626 0.71312 0.45718 0.0
C744 C 0.18691 0.68161 0.42506 0.0
C745 C 0.12831 0.66496 0.46358 0.0
C746 C 0.25104 0.91298 0.37923 0.0
C747 C 0.22797 0.77457 0.43116 0.0
H748 H 0.10427 0.08085 0.42831 0.0
H749 H 0.1759 0.99684 0.43797 0.0
H750 H 0.10021 1.00096 0.43438 0.0
H751 H 0.26399 0.15474 0.42912 0.0
H752 H 0.09917 0.58775 0.45737 0.0
H753 H 0.16707 0.74281 0.46791 0.0
H754 H 0.21037 0.68788 0.41047 0.0
H755 H 0.10601 0.65865 0.47859 0.0
Eu756 Eu 0.64409 0.71925 0.24812 0.0
C757 C 0.63907 0.89475 0.21261 0.0
N758 N 0.66643 0.87444 0.2052 0.0
C759 C 0.62922 0.8619 0.16843 0.0
C760 C 0.60325 0.8962 0.19857 0.0
C761 C 0.66414 0.86101 0.18303 0.0
C762 C 0.59776 0.87831 0.17645 0.0
C763 C 0.61739 0.93275 0.24306 0.0
C764 C 0.64557 0.91217 0.23469 0.0
C765 C 0.58109 0.93353 0.22922 0.0
C766 C 0.57369 0.91482 0.2071 0.0
Eu767 Eu 0.71864 0.86697 0.23242 0.0
N768 N 0.67866 0.90788 0.24816 0.0
C769 C 0.62626 0.95151 0.26517 0.0
C770 C 0.68918 0.92844 0.26922 0.0
C771 C 0.66298 0.9501 0.27818 0.0
H772 H 0.68859 0.84893 0.17646 0.0
H773 H 0.67113 0.96562 0.2951 0.0
H774 H 0.58416 0.69439 0.29737 0.0
H775 H 0.7277 0.6223 0.20656 0.0
H776 H 0.71844 0.92911 0.27889 0.0
H777 H 0.60545 0.96765 0.27223 0.0
H778 H 0.68913 0.67501 0.20858 0.0
H779 H 0.62634 0.84938 0.15111 0.0
H780 H 0.55854 0.94846 0.23546 0.0
H781 H 0.54553 0.91563 0.19659 0.0
H782 H 0.56832 0.63974 0.33051 0.0
H783 H 0.56983 0.87782 0.16545 0.0
H784 H 0.73313 0.58035 0.24122 0.0
N785 N 0.63203 0.67354 0.28141 0.0
C786 C 0.65319 0.64462 0.28203 0.0
C787 C 0.59276 0.64127 0.31713 0.0
C788 C 0.64662 0.61425 0.30094 0.0
C789 C 0.60157 0.67194 0.29836 0.0
C790 C 0.616 0.6129 0.31862 0.0
N791 N 0.67835 0.66728 0.24398 0.0
C792 C 0.69314 0.65819 0.2237 0.0
C793 C 0.69741 0.60993 0.2625 0.0
C794 C 0.67766 0.64194 0.26287 0.0
C795 C 0.71741 0.60444 0.24219 0.0
C796 C 0.71438 0.62798 0.22258 0.0
H797 H 0.60899 0.58912 0.33318 0.0
H798 H 0.66476 0.56151 0.31564 0.0
H799 H 0.70978 0.55819 0.28208 0.0
O800 O 0.57961 0.69809 0.22635 0.0
O801 O 0.72646 0.75176 0.23748 0.0
O802 O 0.76311 0.83435 0.24763 0.0
O803 O 0.58014 0.64416 0.24885 0.0
O804 O 0.64708 0.75309 0.21446 0.0
O805 O 0.72058 0.81531 0.20395 0.0
O806 O 0.77749 0.93963 0.24378 0.0
O807 O 0.63507 0.81777 0.23454 0.0
O808 O 0.61594 0.76609 0.26455 0.0
O809 O 0.77114 0.92165 0.20834 0.0
O810 O 0.72307 0.85325 0.27104 0.0
O811 O 0.67135 0.76885 0.27886 0.0
C812 C 0.76634 0.79572 0.24121 0.0
C813 C 0.5047 0.6432 0.24462 0.0
C814 C 0.4151 0.5912 0.24638 0.0
C815 C 0.4136 0.62084 0.2639 0.0
C816 C 0.50216 0.67169 0.26247 0.0
C817 C 0.457 0.66108 0.2718 0.0
C818 C 0.46069 0.60282 0.23642 0.0
C819 C 0.68407 0.7695 0.20055 0.0
C820 C 0.55335 0.65461 0.23553 0.0
C821 C 0.6687 0.58448 0.30111 0.0
C822 C 0.69435 0.58259 0.28198 0.0
C823 C 0.60959 0.79856 0.25307 0.0
C824 C 0.8024 1.00646 0.21842 0.0
C825 C 0.85617 0.09682 0.22023 0.0
C826 C 0.82169 0.10209 0.20689 0.0
C827 C 0.76831 0.01298 0.2054 0.0
C828 C 0.84572 0.04863 0.22635 0.0
C829 C 0.77788 0.06052 0.1998 0.0
C830 C 0.70274 0.81484 0.28527 0.0
C831 C 0.79357 0.95611 0.22358 0.0
H832 H 0.37872 0.61239 0.2716 0.0
H833 H 0.53493 0.70178 0.26959 0.0
H834 H 0.45577 0.68365 0.28545 0.0
H835 H 0.46189 0.5799 0.22289 0.0
H836 H 0.829 0.13852 0.20177 0.0
H837 H 0.73456 0.98138 0.19933 0.0
H838 H 0.8723 0.04401 0.23641 0.0
H839 H 0.75157 0.06513 0.18957 0.0
Eu840 Eu 0.33142 0.93564 0.25014 0.0
C841 C 0.1452 0.80107 0.19144 0.0
N842 N 0.17503 0.85111 0.19187 0.0
C843 C 0.17358 0.85336 0.15112 0.0
C844 C 0.12842 0.77538 0.17066 0.0
C845 C 0.18702 0.87747 0.17205 0.0
C846 C 0.14427 0.80208 0.15041 0.0
C847 C 0.087 0.72667 0.21163 0.0
C848 C 0.12476 0.77674 0.21165 0.0
C849 C 0.07214 0.70057 0.19108 0.0
C850 C 0.09268 0.72491 0.17067 0.0
Eu851 Eu 0.18899 0.88966 0.22803 0.0
N852 N 0.1369 0.80369 0.23101 0.0
C853 C 0.06242 0.70549 0.232 0.0
C854 C 0.11164 0.78378 0.25066 0.0
C855 C 0.07508 0.73409 0.25164 0.0
H856 H 0.20536 0.91735 0.17207 0.0
H857 H 0.05536 0.71843 0.26729 0.0
H858 H 0.34698 0.99341 0.29868 0.0
H859 H 0.47234 0.98714 0.18463 0.0
H860 H 0.11898 0.80703 0.26537 0.0
H861 H 0.03216 0.66764 0.23257 0.0
H862 H 0.39753 0.93034 0.20645 0.0
H863 H 0.18388 0.87458 0.13556 0.0
H864 H 0.04296 0.66219 0.19066 0.0
H865 H 0.07838 0.70508 0.15488 0.0
H866 H 0.39591 0.07824 0.31476 0.0
H867 H 0.1313 0.78399 0.13417 0.0
H868 H 0.51648 0.07691 0.19309 0.0
N869 N 0.37732 0.01506 0.26602 0.0
C870 C 0.41526 0.04977 0.2536 0.0
C871 C 0.40051 0.07118 0.29729 0.0
C872 C 0.44501 0.09826 0.26196 0.0
C873 C 0.37227 0.0237 0.28818 0.0
C874 C 0.43602 0.10913 0.28387 0.0
N875 N 0.39972 0.98754 0.22692 0.0
C876 C 0.4165 0.96957 0.21011 0.0
C877 C 0.46853 0.06961 0.22094 0.0
C878 C 0.42648 0.03571 0.23326 0.0
C879 C 0.48389 0.05208 0.20268 0.0
C880 C 0.45894 1.00151 0.19783 0.0
H881 H 0.45821 0.14579 0.29103 0.0
H882 H 0.507 0.171 0.25469 0.0
H883 H 0.52794 0.14576 0.21875 0.0
O884 O 0.3979 0.92908 0.25449 0.0
O885 O 0.30027 0.99091 0.25479 0.0
O886 O 0.24404 0.97038 0.22568 0.0
O887 O 0.34268 0.90252 0.28063 0.0
O888 O 0.30956 0.91367 0.21373 0.0
O889 O 0.25574 0.94006 0.20408 0.0
O890 O 0.12492 0.88741 0.24548 0.0
O891 O 0.21094 0.83571 0.24267 0.0
O892 O 0.29041 0.8613 0.23139 0.0
O893 O 0.13642 0.90533 0.21039 0.0
O894 O 0.20445 0.90581 0.26661 0.0
O895 O 0.27028 0.89346 0.2753 0.0
C896 C 0.26905 0.9994 0.24247 0.0
C897 C 0.38873 0.86057 0.27603 0.0
C898 C 0.43863 0.82009 0.27295 0.0
C899 C 0.40019 0.77746 0.28294 0.0
C900 C 0.35099 0.81745 0.28623 0.0
C901 C 0.35663 0.77617 0.28947 0.0
C902 C 0.43278 0.86163 0.26935 0.0
C903 C 0.29716 0.93889 0.20018 0.0
C904 C 0.38342 0.90511 0.27347 0.0
C905 C 0.48418 0.13336 0.24872 0.0
C906 C 0.496 0.11901 0.22823 0.0
C907 C 0.24436 0.82572 0.23485 0.0
C908 C 0.05265 0.8549 0.22172 0.0
C909 C 0.96216 0.8191 0.22558 0.0
C910 C 0.95521 0.78513 0.20838 0.0
C911 C 0.04341 0.82075 0.2042 0.0
C912 C 1.01137 0.8535 0.23271 0.0
C913 C 0.99543 0.78576 0.19794 0.0
C914 C 0.2324 0.89816 0.28131 0.0
C915 C 0.10531 0.89291 0.22705 0.0
H916 H 0.40411 0.74521 0.28577 0.0
H917 H 0.31729 0.81568 0.29204 0.0
H918 H 0.32727 0.74321 0.29731 0.0
H919 H 0.46264 0.89472 0.26175 0.0
H920 H 0.91826 0.75865 0.20261 0.0
H921 H 0.07335 0.82181 0.19472 0.0
H922 H 1.01738 0.88012 0.2459 0.0
H923 H 0.98943 0.75985 0.18443 0.0
Eu924 Eu 0.09894 0.4063 0.24042 0.0
C925 C 0.27344 0.35498 0.21611 0.0
N926 N 0.23215 0.34846 0.20516 0.0
C927 C 0.27984 0.38926 0.17221 0.0
C928 C 0.32014 0.38099 0.2057 0.0
C929 C 0.23429 0.36242 0.18302 0.0
C930 C 0.32298 0.39964 0.1838 0.0
C931 C 0.31126 0.34221 0.24958 0.0
C932 C 0.26914 0.33672 0.23801 0.0
C933 C 0.35771 0.36768 0.23918 0.0
C934 C 0.36224 0.38775 0.21752 0.0
Eu935 Eu 0.15772 0.30687 0.22574 0.0
N936 N 0.22412 0.31433 0.24818 0.0
C937 C 0.30569 0.32277 0.27146 0.0
C938 C 0.21837 0.29461 0.26947 0.0
C939 C 0.25898 0.29873 0.28141 0.0
H940 H 0.20118 0.35426 0.17382 0.0
H941 H 0.25416 0.28317 0.29825 0.0
H942 H 0.16455 0.48165 0.28251 0.0
H943 H 0.90338 0.33024 0.22069 0.0
H944 H 0.18217 0.27474 0.27717 0.0
H945 H 0.3372 0.32615 0.2808 0.0
H946 H 0.99045 0.35434 0.2132 0.0
H947 H 0.28171 0.40219 0.155 0.0
H948 H 0.39057 0.3728 0.2479 0.0
H949 H 0.39864 0.40832 0.21026 0.0
H950 H 0.15078 0.51021 0.31958 0.0
H951 H 0.358 0.42181 0.17551 0.0
H952 H 0.88011 0.34971 0.25778 0.0
N953 N 0.08806 0.43565 0.27562 0.0
C954 C 0.04126 0.42269 0.2816 0.0
C955 C 0.11959 0.48527 0.30917 0.0
C956 C 0.0316 0.44018 0.30191 0.0
C957 C 0.1273 0.46856 0.2884 0.0
C958 C 0.07139 0.4706 0.31608 0.0
N959 N 1.01514 0.38288 0.24631 0.0
C960 C 0.98025 0.36142 0.22967 0.0
C961 C 0.9547 0.38409 0.27122 0.0
C962 C 1.00351 0.39533 0.26645 0.0
C963 C 0.91808 0.35914 0.25476 0.0
C964 C 0.93106 0.34817 0.2338 0.0
H965 H 0.06545 0.48436 0.33195 0.0
H966 H 0.97508 0.44263 0.32217 0.0
H967 H 0.90729 0.39212 0.29564 0.0
O968 O 0.08336 0.44196 0.21215 0.0
O969 O 0.04307 0.32376 0.2321 0.0
O970 O 0.08237 0.27993 0.24285 0.0
O971 O 0.14731 0.48468 0.23298 0.0
O972 O 0.11805 0.36454 0.21772 0.0
O973 O 0.12296 0.31888 0.19283 0.0
O974 O 0.15071 0.23584 0.23673 0.0
O975 O 0.20893 0.39085 0.22275 0.0
O976 O 0.1818 0.43577 0.24502 0.0
O977 O 0.14611 0.24872 0.20145 0.0
O978 O 0.1534 0.32983 0.26283 0.0
O979 O 0.12376 0.38459 0.27204 0.0
C980 C 0.04293 0.28133 0.23561 0.0
C981 C 0.10891 0.52713 0.21802 0.0
C982 C 0.13712 0.6153 0.22315 0.0
C983 C 0.08826 0.60473 0.22009 0.0
C984 C 0.06035 0.51796 0.21493 0.0
C985 C 0.05021 0.55663 0.21603 0.0
C986 C 0.14737 0.57608 0.2223 0.0
C987 C 0.10961 0.35144 0.19665 0.0
C988 C 0.11965 0.48603 0.21689 0.0
C989 C 0.983 0.42864 0.30689 0.0
C990 C 0.9445 0.40015 0.29171 0.0
C991 C 0.21639 0.42969 0.23489 0.0
C992 C 0.19024 0.2064 0.21134 0.0
C993 C 0.2317 0.1574 0.21907 0.0
C994 C 0.2587 0.17635 0.19892 0.0
C995 C 0.21936 0.22509 0.19172 0.0
C996 C 0.19761 0.17332 0.22542 0.0
C997 C 0.25315 0.21027 0.18568 0.0
C998 C 0.14342 0.35684 0.27725 0.0
C999 C 0.15209 0.22118 0.21635 0.0
H1000 H 0.07965 0.63393 0.22083 0.0
H1001 H 0.03007 0.48091 0.21172 0.0
H1002 H 1.01273 0.54936 0.21366 0.0
H1003 H 0.18499 0.5837 0.22483 0.0
H1004 H 0.28451 0.16482 0.19334 0.0
H1005 H 0.21583 0.25102 0.18073 0.0
H1006 H 0.17634 0.15928 0.24086 0.0
H1007 H 0.27481 0.22473 0.17038 0.0
Eu1008 Eu 0.74308 0.65235 0.75056 0.0
C1009 C 0.91705 0.6885 0.81232 0.0
N1010 N 0.8943 0.71591 0.81041 0.0
C1011 C 0.89774 0.72696 0.85083 0.0
C1012 C 0.93039 0.67892 0.83381 0.0
C1013 C 0.8874 0.73764 0.82919 0.0
C1014 C 0.91885 0.69696 0.85316 0.0
C1015 C 0.96198 0.65262 0.79432 0.0
C1016 C 0.93218 0.67475 0.79271 0.0
C1017 C 0.97459 0.64281 0.81571 0.0
C1018 C 0.95798 0.65486 0.83533 0.0
Eu1019 Eu 0.88207 0.73421 0.77285 0.0
N1020 N 0.92215 0.68744 0.77217 0.0
C1021 C 0.98081 0.64377 0.77442 0.0
C1022 C 0.94382 0.6828 0.75289 0.0
C1023 C 0.97207 0.6594 0.75361 0.0
H1024 H 0.87487 0.76419 0.82762 0.0
H1025 H 0.98781 0.65426 0.73822 0.0
H1026 H 0.75357 0.69881 0.69982 0.0
H1027 H 0.59715 0.59956 0.8137 0.0
H1028 H 0.93835 0.69662 0.73694 0.0
H1029 H 1.00363 0.62657 0.77505 0.0
H1030 H 0.66939 0.60076 0.79609 0.0
H1031 H 0.8911 0.74332 0.86563 0.0
H1032 H 0.99852 0.62715 0.8173 0.0
H1033 H 0.96811 0.64692 0.8517 0.0
H1034 H 0.70866 0.72633 0.67524 0.0
H1035 H 0.92887 0.6904 0.86985 0.0
H1036 H 0.5582 0.64301 0.79539 0.0
N1037 N 0.70995 0.69105 0.7287 0.0
C1038 C 0.66957 0.69119 0.73707 0.0
C1039 C 0.69865 0.7193 0.69284 0.0
C1040 C 0.64427 0.70945 0.72404 0.0
C1041 C 0.72396 0.70323 0.70675 0.0
C1042 C 0.65944 0.72381 0.70164 0.0
N1043 N 0.67442 0.64872 0.76923 0.0
C1044 C 0.65415 0.6218 0.78847 0.0
C1045 C 0.60942 0.66906 0.76721 0.0
C1046 C 0.6518 0.67023 0.75816 0.0
C1047 C 0.59068 0.64474 0.78785 0.0
C1048 C 0.6126 0.62021 0.79828 0.0
H1049 H 0.63953 0.73599 0.6908 0.0
H1050 H 0.5835 0.72452 0.72364 0.0
H1051 H 0.55358 0.69006 0.76168 0.0
O1052 O 0.67193 0.5849 0.74556 0.0
O1053 O 0.77883 0.73871 0.74751 0.0
O1054 O 0.83889 0.77389 0.7757 0.0
O1055 O 0.73221 0.60275 0.72243 0.0
O1056 O 0.75809 0.64952 0.7877 0.0
O1057 O 0.81954 0.72715 0.79714 0.0
O1058 O 0.94168 0.79547 0.75341 0.0
O1059 O 0.84989 0.65538 0.7595 0.0
O1060 O 0.77162 0.6121 0.77262 0.0
O1061 O 0.95195 0.78714 0.78878 0.0
O1062 O 0.87078 0.73999 0.7346 0.0
O1063 O 0.80278 0.66554 0.72514 0.0
C1064 C 0.80942 0.77684 0.76059 0.0
C1065 C 0.67636 0.51759 0.72917 0.0
C1066 C 0.62067 0.43124 0.73893 0.0
C1067 C 0.65082 0.41765 0.72689 0.0
C1068 C 0.70516 0.50298 0.71653 0.0
C1069 C 0.69305 0.45348 0.71587 0.0
C1070 C 0.6343 0.48137 0.74067 0.0
C1071 C 0.77601 0.68749 0.80139 0.0
C1072 C 0.68777 0.56962 0.72873 0.0
C1073 C 0.60314 0.7101 0.73331 0.0
C1074 C 0.58603 0.69036 0.75495 0.0
C1075 C 0.81474 0.61557 0.76924 0.0
C1076 C 1.00816 0.86465 0.77269 0.0
C1077 C 0.09289 0.9339 0.76844 0.0
C1078 C 0.0796 0.96361 0.78113 0.0
C1079 C 0.99605 0.89504 0.78541 0.0
C1080 C 0.05671 0.88422 0.76409 0.0
C1081 C 0.03161 0.94432 0.78951 0.0
C1082 C 0.8431 0.70631 0.71938 0.0
C1083 C 0.97243 0.81139 0.77037 0.0
H1084 H 0.64072 0.37908 0.72543 0.0
H1085 H 0.73651 0.52956 0.70673 0.0
H1086 H 0.71559 0.44267 0.70618 0.0
H1087 H 0.61056 0.49152 0.74985 0.0
H1088 H 0.10655 1.00198 0.78454 0.0
H1089 H 0.95925 0.88045 0.79239 0.0
H1090 H 0.06654 0.8608 0.75443 0.0
H1091 H 0.022 0.96763 0.79934 0.0
Eu1092 Eu 0.42448 0.12771 0.74889 0.0
C1093 C 0.38133 0.29157 0.78516 0.0
N1094 N 0.36972 0.24575 0.79275 0.0
C1095 C 0.39123 0.27645 0.83071 0.0
C1096 C 0.40015 0.33215 0.80016 0.0
C1097 C 0.37303 0.23735 0.81522 0.0
C1098 C 0.40503 0.32407 0.82314 0.0
C1099 C 0.38365 0.34446 0.75434 0.0
C1100 C 0.37321 0.2976 0.76239 0.0
C1101 C 0.40407 0.38526 0.76911 0.0
C1102 C 0.41222 0.37911 0.79195 0.0
Eu1103 Eu 0.33391 0.18183 0.76575 0.0
N1104 N 0.3532 0.25749 0.74839 0.0
C1105 C 0.37183 0.34872 0.73185 0.0
C1106 C 0.33867 0.26086 0.72688 0.0
C1107 C 0.34856 0.30661 0.71818 0.0
H1108 H 0.36073 0.20037 0.82131 0.0
H1109 H 0.33797 0.3093 0.70097 0.0
H1110 H 0.46311 0.15527 0.69463 0.0
H1111 H 0.37763 0.96212 0.79652 0.0
H1112 H 0.31956 0.22838 0.71631 0.0
H1113 H 0.37924 0.38408 0.72506 0.0
H1114 H 0.40421 0.05054 0.79043 0.0
H1115 H 0.39374 0.26965 0.84853 0.0
H1116 H 0.41265 0.42157 0.76315 0.0
H1117 H 0.42707 0.41079 0.80322 0.0
H1118 H 0.46656 0.11204 0.66049 0.0
H1119 H 0.41809 0.35411 0.83524 0.0
H1120 H 0.36327 0.90818 0.7632 0.0
N1121 N 0.4244 0.08968 0.71433 0.0
C1122 C 0.40788 0.04029 0.7156 0.0
C1123 C 0.44921 0.0913 0.67574 0.0
C1124 C 0.41139 0.01443 0.69672 0.0
C1125 C 0.44583 0.11552 0.69496 0.0
C1126 C 0.43246 0.04069 0.67671 0.0
N1127 N 0.39566 0.04383 0.75503 0.0
C1128 C 0.3937 0.02598 0.77626 0.0
C1129 C 0.38069 0.96678 0.73888 0.0
C1130 C 0.39292 0.01667 0.73652 0.0
C1131 C 0.37253 0.94629 0.76069 0.0
C1132 C 0.38044 0.97649 0.77954 0.0
H1133 H 0.43775 0.02269 0.66216 0.0
H1134 H 0.39967 0.94372 0.68458 0.0
H1135 H 0.37156 0.90181 0.72123 0.0
O1136 O 0.48001 0.13822 0.77433 0.0
O1137 O 0.33916 0.07168 0.74522 0.0
O1138 O 0.29858 0.09978 0.76857 0.0
O1139 O 0.49465 0.13428 0.7388 0.0
O1140 O 0.41707 0.15182 0.78352 0.0
O1141 O 0.34037 0.13241 0.79385 0.0
O1142 O 0.26652 0.18045 0.7529 0.0
O1143 O 0.41646 0.23092 0.7719 0.0
O1144 O 0.45434 0.21089 0.74353 0.0
O1145 O 0.27496 0.17236 0.78853 0.0
O1146 O 0.34172 0.16611 0.72717 0.0
O1147 O 0.41948 0.17548 0.72236 0.0
C1148 C 0.2981 0.06725 0.75452 0.0
C1149 C 0.56201 0.18566 0.76157 0.0
C1150 C 0.65082 0.22107 0.76281 0.0
C1151 C 0.65692 0.26873 0.76171 0.0
C1152 C 0.56859 0.23341 0.75999 0.0
C1153 C 0.6158 0.27479 0.76022 0.0
C1154 C 0.60333 0.17939 0.76309 0.0
C1155 C 0.37985 0.12764 0.79705 0.0
C1156 C 0.51257 0.14257 0.75928 0.0
C1157 C 0.39677 0.96407 0.69881 0.0
C1158 C 0.38092 0.94017 0.71975 0.0
C1159 C 0.45187 0.24358 0.757 0.0
C1160 C 0.23711 0.21984 0.77858 0.0
C1161 C 0.18729 0.26011 0.77188 0.0
C1162 C 0.20564 0.28634 0.79228 0.0
C1163 C 0.25534 0.24782 0.79861 0.0
C1164 C 0.20432 0.22759 0.76478 0.0
C1165 C 0.24004 0.28096 0.80522 0.0
C1166 C 0.37926 0.17229 0.71393 0.0
C1167 C 0.25023 0.18095 0.77313 0.0
H1168 H 0.69358 0.30105 0.76112 0.0
H1169 H 0.53729 0.23847 0.75797 0.0
H1170 H 0.62071 0.31145 0.75848 0.0
H1171 H 0.59881 0.14255 0.76338 0.0
H1172 H 0.19311 0.31111 0.79828 0.0
H1173 H 0.28082 0.24354 0.80958 0.0
H1174 H 0.19055 0.20698 0.74911 0.0
H1175 H 0.25408 0.30178 0.8208 0.0
Eu1176 Eu 0.9518 0.3357 0.74799 0.0
C1177 C 0.7921 0.13234 0.77584 0.0
N1178 N 0.83574 0.16203 0.78653 0.0
C1179 C 0.7933 0.15918 0.82053 0.0
C1180 C 0.74695 0.1187 0.7866 0.0
C1181 C 0.8371 0.17187 0.80907 0.0
C1182 C 0.74816 0.13458 0.80891 0.0
C1183 C 0.74856 0.08313 0.74306 0.0
C1184 C 0.79312 0.11631 0.75404 0.0
C1185 C 0.7032 0.07101 0.75327 0.0
C1186 C 0.70245 0.08948 0.77487 0.0
Eu1187 Eu 0.90773 0.18946 0.76486 0.0
N1188 N 0.83764 0.13064 0.7442 0.0
C1189 C 0.75102 0.06187 0.72255 0.0
C1190 C 0.84032 0.10717 0.72513 0.0
C1191 C 0.79708 0.07274 0.71394 0.0
H1192 H 0.87218 0.19064 0.81786 0.0
H1193 H 0.79936 0.05538 0.69845 0.0
H1194 H 0.8979 0.33833 0.69924 0.0
H1195 H 0.13029 0.47069 0.78257 0.0
H1196 H 0.87582 0.11622 0.71806 0.0
H1197 H 0.71762 0.03579 0.71367 0.0
H1198 H 0.04494 0.39893 0.78317 0.0
H1199 H 0.79476 0.16869 0.83817 0.0
H1200 H 0.66852 0.04659 0.74483 0.0
H1201 H 0.66732 0.0797 0.78261 0.0
H1202 H 0.9208 0.38599 0.66345 0.0
H1203 H 0.71438 0.12679 0.8174 0.0
H1204 H 0.16429 0.51653 0.74666 0.0
N1205 N 0.97051 0.37802 0.71309 0.0
C1206 C 1.01731 0.41618 0.7106 0.0
C1207 C 0.94838 0.3947 0.67653 0.0
C1208 C 0.032 0.44454 0.69055 0.0
C1209 C 0.93567 0.36749 0.69669 0.0
C1210 C 0.99689 0.43313 0.67335 0.0
N1211 N 0.03306 0.40257 0.74823 0.0
C1212 C 0.06043 0.41814 0.76758 0.0
C1213 C 0.09752 0.47037 0.72744 0.0
C1214 C 0.04961 0.42885 0.72875 0.0
C1215 C 0.12729 0.48474 0.74692 0.0
C1216 C 0.10828 0.45899 0.76722 0.0
H1217 H 1.00665 0.45415 0.65771 0.0
H1218 H 0.0928 0.50617 0.67328 0.0
H1219 H 0.15019 0.52891 0.70564 0.0
O1220 O 0.92721 0.35874 0.7776 0.0
O1221 O 1.01752 0.32041 0.74951 0.0
O1222 O 0.98398 0.23477 0.75125 0.0
O1223 O 0.92522 0.38831 0.74456 0.0
O1224 O 0.93605 0.30056 0.78209 0.0
O1225 O 0.96016 0.24701 0.792 0.0
O1226 O 0.91207 0.12252 0.75766 0.0
O1227 O 0.86031 0.22599 0.76958 0.0
O1228 O 0.87439 0.27662 0.73916 0.0
O1229 O 0.92084 0.14893 0.79187 0.0
O1230 O 0.92378 0.20944 0.72651 0.0
O1231 O 0.91362 0.27791 0.72108 0.0
C1232 C 0.02102 0.27961 0.7476 0.0
C1233 C 0.92724 0.43434 0.77653 0.0
C1234 C 0.90222 0.49544 0.78317 0.0
C1235 C 0.94182 0.51974 0.79824 0.0
C1236 C 0.96813 0.46022 0.79092 0.0
C1237 C 0.97503 0.50274 0.80196 0.0
C1238 C 0.89441 0.45199 0.77263 0.0
C1239 C 0.96527 0.29162 0.79432 0.0
C1240 C 0.9162 0.38766 0.76611 0.0
C1241 C 0.08061 0.48429 0.68866 0.0
C1242 C 0.11331 0.49721 0.70708 0.0
C1243 C 0.84394 0.24406 0.75379 0.0
C1244 C 0.87731 0.06078 0.78634 0.0
C1245 C 0.83812 0.97004 0.78204 0.0
C1246 C 0.81428 0.96459 0.80293 0.0
C1247 C 0.85182 0.05338 0.8069 0.0
C1248 C 0.869 0.01866 0.77355 0.0
C1249 C 0.82046 1.00574 0.81499 0.0
C1250 C 0.92213 0.24345 0.71335 0.0
C1251 C 0.91358 0.11211 0.77881 0.0
H1252 H 0.94649 0.55162 0.80709 0.0
H1253 H 0.99382 0.44698 0.79403 0.0
H1254 H 1.00571 0.5222 0.81357 0.0
H1255 H 0.86299 0.43216 0.76136 0.0
H1256 H 0.79075 0.92812 0.81001 0.0
H1257 H 0.8565 0.08444 0.817 0.0
H1258 H 0.88772 0.02364 0.75749 0.0
H1259 H 0.80145 1.00069 0.83095 0.0
Eu1260 Eu 0.327 0.06451 0.57711 0.0
C1261 C 0.37066 0.27352 0.53728 0.0
N1262 N 0.3854 0.24046 0.53165 0.0
C1263 C 0.3745 0.2511 0.49217 0.0
C1264 C 0.35621 0.29581 0.52037 0.0
C1265 C 0.38799 0.22946 0.50944 0.0
C1266 C 0.35906 0.28475 0.49768 0.0
C1267 C 0.35831 0.3222 0.56599 0.0
C1268 C 0.3724 0.28713 0.55992 0.0
C1269 C 0.34167 0.34252 0.54925 0.0
C1270 C 0.34117 0.32981 0.52649 0.0
Eu1271 Eu 0.41625 0.21352 0.56175 0.0
N1272 N 0.39043 0.26838 0.57576 0.0
C1273 C 0.36337 0.33761 0.58858 0.0
C1274 C 0.39927 0.28666 0.59742 0.0
C1275 C 0.38469 0.32036 0.60427 0.0
H1276 H 0.40271 0.20599 0.5047 0.0
H1277 H 0.39078 0.33369 0.62158 0.0
H1278 H 0.31051 0.04487 0.63396 0.0
H1279 H 0.35624 0.95437 0.51428 0.0
H1280 H 0.41828 0.27626 0.60961 0.0
H1281 H 0.35284 0.36437 0.59388 0.0
H1282 H 0.32813 1.01061 0.52884 0.0
H1283 H 0.37745 0.24296 0.47459 0.0
H1284 H 0.3307 0.36944 0.55366 0.0
H1285 H 0.32992 0.3472 0.5137 0.0
H1286 H 0.32139 0.99454 0.66287 0.0
H1287 H 0.35103 0.30337 0.4843 0.0
H1288 H 0.38743 0.91527 0.54125 0.0
N1289 N 0.34177 0.02319 0.60721 0.0
C1290 C 0.35836 0.99202 0.60084 0.0
C1291 C 0.33293 0.99431 0.64559 0.0
C1292 C 0.3649 0.96232 0.61697 0.0
C1293 C 0.32799 0.02381 0.62918 0.0
C1294 C 0.35165 0.96361 0.63947 0.0
N1295 N 0.35064 1.00951 0.56247 0.0
C1296 C 0.34487 0.9964 0.5402 0.0
C1297 C 0.37738 0.95092 0.57069 0.0
C1298 C 0.36354 0.9855 0.57786 0.0
C1299 C 0.37701 0.94153 0.54743 0.0
C1300 C 0.35952 0.96354 0.53214 0.0
H1301 H 0.35425 0.93981 0.65209 0.0
H1302 H 0.38742 0.90753 0.62223 0.0
H1303 H 0.39923 0.89824 0.58172 0.0
O1304 O 0.25688 0.02524 0.55835 0.0
O1305 O 0.40746 0.0886 0.56622 0.0
O1306 O 0.44227 0.16648 0.57972 0.0
O1307 O 0.26197 1.00123 0.59178 0.0
O1308 O 0.32856 0.09635 0.54259 0.0
O1309 O 0.40721 0.15632 0.53395 0.0
O1310 O 0.4802 0.28033 0.57544 0.0
O1311 O 0.33353 0.17971 0.55621 0.0
O1312 O 0.30528 0.12276 0.58495 0.0
O1313 O 0.48248 0.25881 0.54115 0.0
O1314 O 0.40077 0.19671 0.60003 0.0
O1315 O 0.35077 0.11268 0.60849 0.0
C1316 C 0.44783 0.13155 0.57025 0.0
C1317 C 0.18678 0.99617 0.58219 0.0
C1318 C 0.09726 0.95331 0.58648 0.0
C1319 C 0.10093 0.99451 0.59784 0.0
C1320 C 0.18966 0.03629 0.59434 0.0
C1321 C 0.14704 0.03591 0.60169 0.0
C1322 C 0.14017 0.9544 0.57824 0.0
C1323 C 0.36566 0.11522 0.52838 0.0
C1324 C 0.2325 0.99673 0.57528 0.0
C1325 C 0.38146 0.92998 0.60998 0.0
C1326 C 0.38815 0.92465 0.5869 0.0
C1327 C 0.29857 0.15068 0.5703 0.0
C1328 C 0.51862 0.34581 0.54902 0.0
C1329 C 0.56891 0.43628 0.55426 0.0
C1330 C 0.54664 0.44276 0.53485 0.0
C1331 C 0.49776 0.35412 0.52953 0.0
C1332 C 0.55367 0.38736 0.5617 0.0
C1333 C 0.51113 0.40205 0.52275 0.0
C1334 C 0.37723 0.1595 0.61457 0.0
C1335 C 0.50314 0.2941 0.55622 0.0
H1336 H 0.06806 0.99415 0.60406 0.0
H1337 H 0.22478 0.06749 0.5987 0.0
H1338 H 0.1499 0.06735 0.61083 0.0
H1339 H 0.13729 0.92247 0.56949 0.0
H1340 H 0.55768 0.47963 0.52874 0.0
H1341 H 0.47126 0.32361 0.51932 0.0
H1342 H 0.57052 0.38181 0.57668 0.0
H1343 H 0.49459 0.4077 0.5077 0.0
Eu1344 Eu 1.01103 0.2888 0.58019 0.0
C1345 C 0.81113 0.13506 0.54132 0.0
N1346 N 0.84181 0.18214 0.53419 0.0
C1347 C 0.84781 0.15182 0.49769 0.0
C1348 C 0.80158 0.09428 0.52764 0.0
C1349 C 0.85721 0.19118 0.51219 0.0
C1350 C 0.82116 0.10317 0.50568 0.0
C1351 C 0.75734 0.08013 0.57043 0.0
C1352 C 0.79076 0.1282 0.56268 0.0
C1353 C 0.74994 0.03909 0.55753 0.0
C1354 C 0.77307 0.04628 0.53638 0.0
Eu1355 Eu 0.86544 0.24605 0.5615 0.0
N1356 N 0.80196 0.16866 0.57546 0.0
C1357 C 0.73216 0.07494 0.59076 0.0
C1358 C 0.77466 0.16404 0.59431 0.0
C1359 C 0.73973 0.1172 0.60238 0.0
H1360 H 0.87853 0.2288 0.50615 0.0
H1361 H 0.71955 0.11378 0.61781 0.0
H1362 H 1.01814 0.24257 0.63069 0.0
H1363 H 0.14096 0.46558 0.54261 0.0
H1364 H 0.7814 0.19643 0.60388 0.0
H1365 H 0.70591 0.03868 0.59727 0.0
H1366 H 0.07398 0.37787 0.54302 0.0
H1367 H 0.86182 0.15907 0.48051 0.0
H1368 H 0.72603 1.00176 0.5636 0.0
H1369 H 0.76795 0.01454 0.52674 0.0
H1370 H 0.06439 0.27309 0.66666 0.0
H1371 H 0.81474 0.0728 0.49459 0.0
H1372 H 0.18067 0.50693 0.57875 0.0
N1373 N 0.04927 0.3143 0.61597 0.0
C1374 C 0.08413 0.36296 0.61772 0.0
C1375 C 0.06983 0.29882 0.65314 0.0
C1376 C 0.11156 0.38189 0.63791 0.0
C1377 C 0.04312 0.2818 0.63292 0.0
C1378 C 0.10358 0.34922 0.6558 0.0
N1379 N 0.07258 0.37228 0.57869 0.0
C1380 C 0.08983 0.39672 0.55869 0.0
C1381 C 0.1355 0.44205 0.59922 0.0
C1382 C 0.09623 0.39269 0.59852 0.0
C1383 C 0.15055 0.46899 0.57893 0.0
C1384 C 0.12821 0.44586 0.5585 0.0
H1385 H 0.12421 0.36227 0.67151 0.0
H1386 H 0.16892 0.44743 0.65462 0.0
H1387 H 0.18979 0.50014 0.62075 0.0
O1388 O 0.0784 0.28535 0.58649 0.0
O1389 O 0.99296 0.35211 0.57337 0.0
O1390 O 0.91355 0.30979 0.58453 0.0
O1391 O 0.0384 0.25514 0.55563 0.0
O1392 O 0.98103 0.27323 0.54496 0.0
O1393 O 0.92675 0.29856 0.53553 0.0
O1394 O 0.79774 0.24821 0.56962 0.0
O1395 O 0.90124 0.19857 0.55487 0.0
O1396 O 0.95011 0.20955 0.58598 0.0
O1397 O 0.83348 0.27761 0.5379 0.0
O1398 O 0.88022 0.25027 0.60098 0.0
O1399 O 0.95531 0.25161 0.60853 0.0
C1400 C 0.95115 0.35168 0.57819 0.0
C1401 C 0.07684 0.21425 0.57305 0.0
C1402 C 0.1247 0.172 0.57577 0.0
C1403 C 0.08372 0.13077 0.5853 0.0
C1404 C 0.03671 0.17306 0.58314 0.0
C1405 C 0.04006 0.13156 0.58909 0.0
C1406 C 0.12121 0.21378 0.5695 0.0
C1407 C 0.97023 0.30086 0.53237 0.0
C1408 C 0.07406 0.25936 0.56864 0.0
C1409 C 0.14812 0.43205 0.63912 0.0
C1410 C 0.16004 0.46208 0.61982 0.0
C1411 C 0.91935 0.18112 0.5701 0.0
C1412 C 0.74413 0.24234 0.53909 0.0
C1413 C 0.65232 0.20349 0.54058 0.0
C1414 C 0.65255 0.20977 0.51696 0.0
C1415 C 0.74167 0.24698 0.51552 0.0
C1416 C 0.69878 0.21973 0.55166 0.0
C1417 C 0.69645 0.23072 0.50464 0.0
C1418 C 0.91302 0.2479 0.61508 0.0
C1419 C 0.79428 0.26547 0.55022 0.0
H1420 H 0.08606 0.09852 0.59032 0.0
H1421 H 1.00322 0.17334 0.58709 0.0
H1422 H 1.00913 0.10056 0.59724 0.0
H1423 H 0.15312 0.24599 0.56247 0.0
H1424 H 0.61825 0.19838 0.5079 0.0
H1425 H 0.77501 0.26419 0.50537 0.0
H1426 H 0.69965 0.2156 0.56987 0.0
H1427 H 0.69546 0.23505 0.48647 0.0
Eu1428 Eu 0.78046 0.75383 0.58279 0.0
C1429 C 0.96531 0.74589 0.55224 0.0
N1430 N 0.91881 0.72566 0.54343 0.0
C1431 C 0.95158 0.76937 0.50857 0.0
C1432 C 1.00651 0.78124 0.53992 0.0
C1433 C 0.91174 0.73462 0.52145 0.0
C1434 C 0.99889 0.79383 0.51808 0.0
C1435 C 1.01865 0.75401 0.58389 0.0
C1436 C 0.97101 0.73345 0.57423 0.0
C1437 C 0.05988 0.78917 0.57164 0.0
C1438 C 0.05373 0.80322 0.54984 0.0
Eu1439 Eu 0.85288 0.67361 0.5679 0.0
N1440 N 0.93009 0.70176 0.58625 0.0
C1441 C 0.02339 0.73907 0.60569 0.0
C1442 C 0.93474 0.68546 0.60714 0.0
C1443 C 0.98131 0.70413 0.61722 0.0
H1444 H 0.8753 0.71603 0.51401 0.0
H1445 H 0.98467 0.69172 0.63393 0.0
H1446 H 0.80844 0.81447 0.63166 0.0
H1447 H 0.60497 0.66737 0.53655 0.0
H1448 H 0.90257 0.65794 0.61614 0.0
H1449 H 0.05935 0.75399 0.61368 0.0
H1450 H 0.69537 0.70571 0.54128 0.0
H1451 H 0.9458 0.77758 0.49138 0.0
H1452 H 0.09665 0.80605 0.57896 0.0
H1453 H 0.08577 0.83088 0.54072 0.0
H1454 H 0.76622 0.83326 0.66219 0.0
H1455 H 0.02948 0.82149 0.50821 0.0
H1456 H 0.55357 0.66306 0.56932 0.0
N1457 N 0.74207 0.76312 0.61518 0.0
C1458 C 0.69211 0.74269 0.61406 0.0
C1459 C 0.74487 0.80691 0.64905 0.0
C1460 C 0.66629 0.75197 0.6312 0.0
C1461 C 0.76865 0.79505 0.63222 0.0
C1462 C 0.69343 0.78521 0.64855 0.0
N1463 N 0.69435 0.71663 0.57653 0.0
C1464 C 0.67294 0.70186 0.55567 0.0
C1465 C 0.61597 0.69873 0.59231 0.0
C1466 C 0.66747 0.71779 0.5944 0.0
C1467 C 0.59304 0.6783 0.57154 0.0
C1468 C 0.62186 0.68073 0.553 0.0
H1469 H 0.67518 0.79521 0.66138 0.0
H1470 H 0.59422 0.73665 0.64294 0.0
H1471 H 0.54993 0.68875 0.60917 0.0
O1472 O 0.80837 0.81227 0.55707 0.0
O1473 O 0.73099 0.6707 0.57336 0.0
O1474 O 0.77754 0.63615 0.58524 0.0
O1475 O 0.77533 0.82116 0.58697 0.0
O1476 O 0.81325 0.74825 0.55046 0.0
O1477 O 0.80204 0.67544 0.53884 0.0
O1478 O 0.85979 0.6087 0.57767 0.0
O1479 O 0.88997 0.75656 0.56466 0.0
O1480 O 0.86124 0.78491 0.59324 0.0
O1481 O 0.85094 0.62104 0.54269 0.0
O1482 O 0.84423 0.68561 0.60655 0.0
O1483 O 0.80801 0.73478 0.61489 0.0
C1484 C 0.73589 0.63136 0.57727 0.0
C1485 C 0.84376 0.89258 0.57265 0.0
C1486 C 0.88476 0.98225 0.56963 0.0
C1487 C 0.92688 0.98604 0.58013 0.0
C1488 C 0.88459 0.89796 0.5851 0.0
C1489 C 0.92656 0.94401 0.58805 0.0
C1490 C 0.84353 0.93531 0.56516 0.0
C1491 C 0.79262 0.71209 0.53614 0.0
C1492 C 0.80072 0.84278 0.56903 0.0
C1493 C 0.61472 0.7307 0.62969 0.0
C1494 C 0.58952 0.70349 0.61043 0.0
C1495 C 0.89808 0.78681 0.58146 0.0
C1496 C 0.89651 0.57948 0.55031 0.0
C1497 C 0.92961 0.52193 0.55235 0.0
C1498 C 0.95896 0.54565 0.53331 0.0
C1499 C 0.92803 0.60311 0.53185 0.0
C1500 C 0.89823 0.53928 0.56089 0.0
C1501 C 0.95871 0.58619 0.52344 0.0
C1502 C 0.82943 0.70896 0.62104 0.0
C1503 C 0.85931 0.59421 0.55701 0.0
H1504 H 0.95887 0.02182 0.58344 0.0
H1505 H 0.88407 0.86696 0.59301 0.0
H1506 H 0.95816 0.94725 0.59724 0.0
H1507 H 0.81096 0.93233 0.55699 0.0
H1508 H 0.98291 0.53314 0.52625 0.0
H1509 H 0.92831 0.63421 0.52348 0.0
H1510 H 0.87472 0.52103 0.57534 0.0
H1511 H 0.98217 0.60438 0.50899 0.0
C1512 C 0.51788 0.88963 0.10167 0.0
C1513 C 0.49263 0.89854 0.08389 0.0
C1514 C 0.51063 0.84763 0.0584 0.0
C1515 C 0.54419 0.84797 0.07478 0.0
N1516 N 0.57894 0.86732 0.11245 0.0
N1517 N 0.44085 0.85994 0.05123 0.0
C1518 C 0.54666 0.86731 0.09674 0.0
C1519 C 0.48143 0.86967 0.06388 0.0
N1520 N 0.51206 0.90032 0.12348 0.0
N1521 N 0.50787 0.82771 0.03747 0.0
H1522 H 0.41507 0.86976 0.05656 0.0
H1523 H 0.42901 0.83636 0.03727 0.0
H1524 H 0.52731 0.80955 0.03332 0.0
H1525 H 0.48857 0.8316 0.02393 0.0
H1526 H 0.52505 0.89019 0.13757 0.0
H1527 H 0.48887 0.91411 0.12761 0.0
H1528 H 0.587 0.88692 0.12754 0.0
H1529 H 0.60079 0.85112 0.1098 0.0
C1530 C 0.22551 0.68662 0.07194 0.0
C1531 C 0.25032 0.7006 0.09319 0.0
C1532 C 0.2007 0.61535 0.10639 0.0
C1533 C 0.17084 0.60307 0.08671 0.0
N1534 N 0.14996 0.63028 0.05222 0.0
N1535 N 0.25273 0.68 0.1325 0.0
C1536 C 0.18196 0.63953 0.06978 0.0
C1537 C 0.23529 0.66545 0.11097 0.0
N1538 N 0.24423 0.71736 0.05365 0.0
N1539 N 0.19748 0.57894 0.12032 0.0
H1540 H 0.27586 0.71695 0.13699 0.0
H1541 H 0.23984 0.65584 0.14624 0.0
H1542 H 0.17443 0.54166 0.11667 0.0
H1543 H 0.2219 0.58555 0.13371 0.0
H1544 H 0.23025 0.70676 0.03729 0.0
H1545 H 0.27664 0.7516 0.05439 0.0
H1546 H 0.15403 0.65708 0.0405 0.0
H1547 H 0.11664 0.59717 0.05075 0.0
C1548 C 0.37978 0.51765 0.07522 0.0
C1549 C 0.36552 0.54139 0.09161 0.0
C1550 C 0.44903 0.58308 0.10758 0.0
C1551 C 0.46248 0.55671 0.09231 0.0
N1552 N 0.4398 0.49543 0.06297 0.0
N1553 N 0.38256 0.58877 0.12598 0.0
C1554 C 0.42734 0.52257 0.07672 0.0
C1555 C 0.39887 0.57127 0.10876 0.0
N1556 N 0.34938 0.49342 0.05724 0.0
N1557 N 0.48473 0.62213 0.11951 0.0
H1558 H 0.34588 0.58074 0.12712 0.0
H1559 H 0.40408 0.60714 0.14009 0.0
H1560 H 0.52222 0.6342 0.11754 0.0
H1561 H 0.47779 0.64579 0.12931 0.0
H1562 H 0.36045 0.48119 0.04319 0.0
H1563 H 0.31397 0.48849 0.05536 0.0
H1564 H 0.41433 0.465 0.05358 0.0
H1565 H 0.47573 0.50202 0.06203 0.0
C1566 C 0.90306 0.50641 0.91881 0.0
C1567 C 0.93063 0.50976 0.89908 0.0
C1568 C 0.89406 0.55493 0.88046 0.0
C1569 C 0.88026 0.56418 0.90193 0.0
N1570 N 0.86912 0.54642 0.94197 0.0
N1571 N 0.94431 0.53055 0.85923 0.0
C1572 C 0.88393 0.53913 0.92126 0.0
C1573 C 0.9231 0.53148 0.87926 0.0
N1574 N 0.89152 0.46979 0.9343 0.0
N1575 N 0.87884 0.56766 0.86114 0.0
H1576 H 0.95895 0.50752 0.85636 0.0
H1577 H 0.94874 0.55405 0.84582 0.0
H1578 H 0.85893 0.5863 0.86108 0.0
H1579 H 0.88308 0.55665 0.84505 0.0
H1580 H 0.86884 0.46416 0.94824 0.0
H1581 H 0.89779 0.44054 0.93127 0.0
H1582 H 0.87646 0.53359 0.957 0.0
H1583 H 0.85177 0.56741 0.94416 0.0
C1584 C 0.61214 0.38752 0.91958 0.0
C1585 C 0.57865 0.36183 0.93745 0.0
C1586 C 0.57141 0.43494 0.94564 0.0
C1587 C 0.60249 0.45998 0.9269 0.0
N1588 N 0.64612 0.4573 0.89372 0.0
N1589 N 0.51906 0.35709 0.9647 0.0
C1590 C 0.62115 0.43547 0.9132 0.0
C1591 C 0.55584 0.38432 0.94952 0.0
N1592 N 0.63637 0.36659 0.90916 0.0
N1593 N 0.55863 0.46028 0.96043 0.0
H1594 H 0.507 0.31996 0.96813 0.0
H1595 H 0.49741 0.36981 0.97236 0.0
H1596 H 0.56983 0.49736 0.95819 0.0
H1597 H 0.54081 0.44603 0.97581 0.0
H1598 H 0.66569 0.38565 0.89798 0.0
H1599 H 0.62887 0.33069 0.9127 0.0
H1600 H 0.65558 0.43915 0.88162 0.0
H1601 H 0.65457 0.49278 0.88888 0.0
C1602 C 0.65054 0.15972 0.88036 0.0
C1603 C 0.62164 0.16006 0.89877 0.0
C1604 C 0.69711 0.22455 0.91732 0.0
C1605 C 0.72564 0.21597 0.90132 0.0
N1606 N 0.73111 0.17835 0.8668 0.0
N1607 N 0.61678 0.19556 0.93423 0.0
C1608 C 0.7028 0.18523 0.88233 0.0
C1609 C 0.64466 0.19426 0.91682 0.0
N1610 N 0.62787 0.13536 0.86089 0.0
N1611 N 0.72035 0.26133 0.93303 0.0
H1612 H 0.5784 0.17524 0.93405 0.0
H1613 H 0.63177 0.21413 0.94938 0.0
H1614 H 0.75878 0.28331 0.93385 0.0
H1615 H 0.70189 0.27304 0.94387 0.0
H1616 H 0.64657 0.13853 0.84581 0.0
H1617 H 0.58963 0.11422 0.8595 0.0
H1618 H 0.71637 0.15075 0.85456 0.0
H1619 H 0.76965 0.19886 0.86701 0.0
C1620 C 0.1657 0.1857 0.44437 0.0
C1621 C 0.18429 0.1706 0.42606 0.0
C1622 C 0.18644 0.23653 0.40257 0.0
C1623 C 0.1608 0.2465 0.4198 0.0
N1624 N 0.11641 0.22209 0.45522 0.0
N1625 N 0.20744 0.17762 0.38667 0.0
C1626 C 0.14802 0.21889 0.44027 0.0
C1627 C 0.1934 0.19492 0.40482 0.0
N1628 N 0.16494 0.16821 0.46571 0.0
N1629 N 0.2064 0.2681 0.3847 0.0
H1630 H 0.21427 0.14815 0.38785 0.0
H1631 H 0.20904 0.19032 0.37018 0.0
H1632 H 0.20474 0.30055 0.38336 0.0
H1633 H 0.22895 0.265 0.37258 0.0
H1634 H 0.15606 0.18165 0.48008 0.0
H1635 H 0.17826 0.14413 0.46929 0.0
H1636 H 0.10234 0.19946 0.46944 0.0
H1637 H 0.09933 0.24279 0.45178 0.0
C1638 C 0.8729 0.01467 0.44415 0.0
C1639 C 0.88861 0.04012 0.42331 0.0
C1640 C 0.82273 0.96877 0.40335 0.0
C1641 C 0.81156 0.94079 0.42375 0.0
N1642 N 0.83251 0.93503 0.46267 0.0
N1643 N 0.88179 0.04151 0.38264 0.0
C1644 C 0.83802 0.96334 0.44401 0.0
C1645 C 0.86424 0.01731 0.40279 0.0
N1646 N 0.8918 0.03953 0.46404 0.0
N1647 N 0.7928 0.95004 0.38476 0.0
H1648 H 0.91041 0.07815 0.38163 0.0
H1649 H 0.87 0.02442 0.3669 0.0
H1650 H 0.76182 0.91492 0.38429 0.0
H1651 H 0.79585 0.97096 0.37045 0.0
H1652 H 0.8778 0.0241 0.47987 0.0
H1653 H 0.91809 0.07714 0.46459 0.0
H1654 H 0.85405 0.94864 0.47726 0.0
H1655 H 0.8104 0.89668 0.46261 0.0
C1656 C 0.09118 0.89077 0.43214 0.0
C1657 C 0.12356 0.90451 0.41298 0.0
C1658 C 0.05127 0.8803 0.38811 0.0
C1659 C 0.01931 0.85798 0.40666 0.0
N1660 N 1.00775 0.83945 0.44649 0.0
N1661 N 0.12997 0.90243 0.3719 0.0
C1662 C 0.03895 0.86292 0.42877 0.0
C1663 C 0.10259 0.89762 0.39073 0.0
N1664 N 0.10976 0.90499 0.45356 0.0
N1665 N 0.03233 0.88366 0.36769 0.0
H1666 H 0.16621 0.91026 0.37252 0.0
H1667 H 0.11491 0.89233 0.35568 0.0
H1668 H 0.99463 0.87025 0.36511 0.0
H1669 H 0.05447 0.90423 0.35415 0.0
H1670 H 0.08771 0.89994 0.46766 0.0
H1671 H 0.14723 0.92654 0.45717 0.0
H1672 H 0.01992 0.83594 0.46248 0.0
H1673 H 0.96931 0.82068 0.44479 0.0
C1674 C 0.48717 0.79874 0.24576 0.0
C1675 C 0.4849 0.8201 0.26661 0.0
C1676 C 0.5619 0.82395 0.2792 0.0
C1677 C 0.56568 0.80451 0.25793 0.0
N1678 N 0.53344 0.77662 0.22007 0.0
N1679 N 0.52343 0.86101 0.30156 0.0
C1680 C 0.52892 0.79318 0.2409 0.0
C1681 C 0.52332 0.83507 0.28284 0.0
N1682 N 0.44821 0.78187 0.23096 0.0
N1683 N 0.59493 0.83145 0.29611 0.0
H1684 H 0.49535 0.86905 0.30494 0.0
H1685 H 0.55314 0.87827 0.31274 0.0
H1686 H 0.62545 0.827 0.2938 0.0
H1687 H 0.59076 0.83939 0.31283 0.0
H1688 H 0.44382 0.75976 0.21695 0.0
H1689 H 0.4184 0.7878 0.23335 0.0
H1690 H 0.51276 0.77536 0.20595 0.0
H1691 H 0.55924 0.76578 0.21641 0.0
C1692 C 0.23218 0.75057 0.21243 0.0
C1693 C 0.23034 0.77216 0.23333 0.0
C1694 C 0.17697 0.6892 0.2492 0.0
C1695 C 0.176 0.66775 0.22786 0.0
N1696 N 0.21377 0.67643 0.19138 0.0
N1697 N 0.21746 0.76133 0.27348 0.0
C1698 C 0.20727 0.69796 0.21019 0.0
C1699 C 0.20769 0.74113 0.2523 0.0
N1700 N 0.25611 0.78028 0.19444 0.0
N1701 N 0.14739 0.66011 0.26637 0.0
H1702 H 0.2412 0.79903 0.27613 0.0
H1703 H 0.20675 0.74035 0.28828 0.0
H1704 H 0.12698 0.62158 0.26525 0.0
H1705 H 0.14135 0.67435 0.28123 0.0
H1706 H 0.25217 0.76774 0.17779 0.0
H1707 H 0.2796 0.81806 0.19638 0.0
H1708 H 0.24061 0.69624 0.17925 0.0
H1709 H 0.1954 0.63826 0.18886 0.0
C1710 C 0.3336 0.55474 0.22641 0.0
C1711 C 0.36785 0.54757 0.23939 0.0
C1712 C 0.30249 0.46506 0.25038 0.0
C1713 C 0.26836 0.47085 0.23657 0.0
N1714 N 0.25216 0.51895 0.20944 0.0
N1715 N 0.388 0.49295 0.25983 0.0
C1716 C 0.28421 0.51507 0.22394 0.0
C1717 C 0.3533 0.50156 0.24994 0.0
N1718 N 0.3481 0.60016 0.21711 0.0
N1719 N 0.28583 0.42652 0.26525 0.0
H1720 H 0.42553 0.51931 0.26031 0.0
H1721 H 0.38027 0.45832 0.26575 0.0
H1722 H 0.2487 0.39964 0.26647 0.0
H1723 H 0.30782 0.42367 0.27781 0.0
H1724 H 0.32375 0.61023 0.21004 0.0
H1725 H 0.38478 0.62892 0.21736 0.0
H1726 H 0.26247 0.54751 0.19778 0.0
H1727 H 0.21522 0.49177 0.20824 0.0
C1728 C 0.81543 0.5467 0.7924 0.0
C1729 C 0.82125 0.57129 0.77145 0.0
C1730 C 0.87083 0.53686 0.75674 0.0
C1731 C 0.86959 0.51638 0.77833 0.0
N1732 N 0.82894 0.48812 0.81433 0.0
N1733 N 0.82959 0.56557 0.73154 0.0
C1734 C 0.83812 0.51705 0.79552 0.0
C1735 C 0.84136 0.55887 0.75292 0.0
N1736 N 0.78792 0.55124 0.80907 0.0
N1737 N 0.90208 0.53805 0.74022 0.0
H1738 H 0.80586 0.57958 0.72872 0.0
H1739 H 0.83825 0.55172 0.71725 0.0
H1740 H 0.92556 0.52352 0.74233 0.0
H1741 H 0.90763 0.55741 0.72507 0.0
H1742 H 0.78719 0.53998 0.82574 0.0
H1743 H 0.76441 0.56518 0.80572 0.0
H1744 H 0.80348 0.48356 0.82681 0.0
H1745 H 0.84459 0.46563 0.81674 0.0
C1746 C 0.53006 0.37493 0.73404 0.0
C1747 C 0.57268 0.39161 0.74775 0.0
C1748 C 0.52924 0.31812 0.7718 0.0
C1749 C 0.49093 0.29677 0.75529 0.0
N1750 N 0.45265 0.30609 0.72156 0.0
N1751 N 0.61242 0.38387 0.78117 0.0
C1752 C 0.49029 0.32598 0.73691 0.0
C1753 C 0.57167 0.36505 0.76741 0.0
N1754 N 0.52808 0.40565 0.718 0.0
N1755 N 0.52559 0.29285 0.79127 0.0
H1756 H 0.64279 0.41921 0.77882 0.0
H1757 H 0.61709 0.36432 0.79433 0.0
H1758 H 0.4969 0.25699 0.79399 0.0
H1759 H 0.54948 0.30778 0.80502 0.0
H1760 H 0.49611 0.39816 0.70921 0.0
H1761 H 0.55736 0.44107 0.71479 0.0
H1762 H 0.45169 0.32307 0.70654 0.0
H1763 H 0.4241 0.26983 0.72281 0.0
C1764 C 0.72503 0.22556 0.78025 0.0
C1765 C 0.69507 0.21604 0.7609 0.0
C1766 C 0.76133 0.22252 0.73654 0.0
C1767 C 0.79325 0.23685 0.75577 0.0
N1768 N 0.80838 0.26547 0.79456 0.0
N1769 N 0.68319 0.20683 0.72046 0.0
C1770 C 0.77577 0.24149 0.77736 0.0
C1771 C 0.71246 0.21394 0.73903 0.0
N1772 N 0.705 0.22017 0.80137 0.0
N1773 N 0.77762 0.2177 0.71579 0.0
H1774 H 0.64636 0.19817 0.72166 0.0
H1775 H 0.69569 0.21166 0.7038 0.0
H1776 H 0.81477 0.23315 0.71189 0.0
H1777 H 0.75421 0.19846 0.70233 0.0
H1778 H 0.72399 0.2221 0.81624 0.0
H1779 H 0.66767 0.20877 0.80383 0.0
H1780 H 0.79832 0.2736 0.81011 0.0
H1781 H 0.84637 0.28308 0.79215 0.0
C1782 C 0.17855 0.14764 0.55459 0.0
C1783 C 0.17168 0.17126 0.57357 0.0
C1784 C 0.24906 0.18335 0.59033 0.0
C1785 C 0.25395 0.1563 0.57211 0.0
N1786 N 0.21655 0.10211 0.54019 0.0
N1787 N 0.19626 0.20642 0.61095 0.0
C1788 C 0.21696 0.13579 0.55504 0.0
C1789 C 0.20591 0.18785 0.59184 0.0
N1790 N 0.14835 0.13661 0.53608 0.0
N1791 N 0.28596 0.20538 0.60603 0.0
H1792 H 0.16615 0.21219 0.6123 0.0
H1793 H 0.21617 0.21326 0.626 0.0
H1794 H 0.31677 0.20081 0.6061 0.0
H1795 H 0.28759 0.23036 0.61818 0.0
H1796 H 0.15482 0.12411 0.52079 0.0
H1797 H 0.11933 0.1442 0.53533 0.0
H1798 H 0.18778 0.08181 0.52885 0.0
H1799 H 0.24235 0.09036 0.54114 0.0
C1800 C 0.86731 0.04547 0.58587 0.0
C1801 C 0.88267 0.02831 0.56705 0.0
C1802 C 0.92205 0.11083 0.55009 0.0
C1803 C 0.90607 0.12814 0.56873 0.0
N1804 N 0.85722 0.11058 0.60245 0.0
N1805 N 0.91571 0.04043 0.5294 0.0
C1806 C 0.87675 0.09488 0.58603 0.0
C1807 C 0.90683 0.05969 0.54844 0.0
N1808 N 0.84598 0.01517 0.60416 0.0
N1809 N 0.95468 0.14385 0.53488 0.0
H1810 H 0.90486 1.00298 0.52796 0.0
H1811 H 0.92976 0.06027 0.51445 0.0
H1812 H 0.96843 0.18162 0.5365 0.0
H1813 H 0.97179 0.13473 0.52214 0.0
H1814 H 0.84027 0.02734 0.6197 0.0
H1815 H 0.83606 0.97789 0.60427 0.0
H1816 H 0.8305 0.08732 0.614 0.0
H1817 H 0.86532 0.14702 0.6031 0.0
C1818 C 1.01593 0.90681 0.56652 0.0
C1819 C 0.04785 0.90875 0.58409 0.0
C1820 C 0.9805 0.83388 0.60134 0.0
C1821 C 0.94867 0.83074 0.58336 0.0
N1822 N 0.93626 0.86197 0.54806 0.0
N1823 N 0.06397 0.87208 0.61658 0.0
C1824 C 0.96668 0.86649 0.56565 0.0
C1825 C 0.03106 0.87171 0.60107 0.0
N1826 N 0.03229 0.94473 0.55119 0.0
N1827 N 0.96239 0.80052 0.61866 0.0
H1828 H 0.10105 0.89975 0.61716 0.0
H1829 H 0.05588 0.84343 0.62789 0.0
H1830 H 0.92715 0.76982 0.6183 0.0
H1831 H 0.98112 0.80403 0.63378 0.0
H1832 H 1.00942 0.94929 0.53975 0.0
H1833 H 0.0689 0.97355 0.55059 0.0
H1834 H 0.94822 0.88165 0.53294 0.0
H1835 H 0.89846 0.83748 0.54862 0.0
C1836 C 0.50804 0.99093 0.01053 0.0
C1837 C 0.51551 0.03412 0.02217 0.0
C1838 C 0.54682 0.07964 0.98675 0.0
C1839 C 0.52412 0.03474 0.97406 0.0
N1840 N 0.49651 0.94711 0.97513 0.0
N1841 N 0.54385 0.12155 0.02069 0.0
C1842 C 0.50846 0.98995 0.98627 0.0
C1843 C 0.53576 0.07921 0.01013 0.0
N1844 N 0.50523 0.95256 0.02278 0.0
N1845 N 0.58268 0.12195 0.97696 0.0
H1846 H 0.5362 0.12283 0.0378 0.0
H1847 H 0.55488 0.15447 0.01194 0.0
H1848 H 0.59693 0.12125 0.96107 0.0
H1849 H 0.60324 0.15486 0.98594 0.0
H1850 H 0.50431 0.92158 0.01564 0.0
H1851 H 0.51109 0.95543 0.04019 0.0
H1852 H 0.47745 0.91236 0.9827 0.0
H1853 H 0.50732 0.94634 0.95856 0.0
C1854 C 1.01441 0.50818 0.98074 0.0
C1855 C 0.05725 0.51552 0.96904 0.0
C1856 C 0.0986 0.52636 0.00555 0.0
C1857 C 0.05248 0.50812 0.01733 0.0
N1858 N 0.96409 0.47576 0.01437 0.0
N1859 N 0.13951 0.52737 0.97056 0.0
C1860 C 1.00975 0.49813 0.0045 0.0
C1861 C 0.0993 0.52388 0.98151 0.0
N1862 N 0.97824 0.51121 0.96907 0.0
N1863 N 0.14236 0.54748 0.01707 0.0
H1864 H 0.14247 0.52798 0.95296 0.0
H1865 H 0.16839 0.52633 0.97901 0.0
H1866 H 0.14478 0.5507 0.03449 0.0
H1867 H 0.1767 0.56619 0.0091 0.0
H1868 H 0.94794 0.51045 0.9769 0.0
H1869 H 0.98208 0.52038 0.95191 0.0
H1870 H 0.93147 0.46313 0.0051 0.0
H1871 H 0.95803 0.4653 0.03134 0.0
C1872 C 0.63453 0.60517 0.99069 0.0
C1873 C 0.59215 0.58652 0.97639 0.0
C1874 C 0.54267 0.53458 0.00803 0.0
C1875 C 0.58618 0.55005 0.02136 0.0
N1876 N 0.67499 0.5954 0.02326 0.0
N1877 N 0.50425 0.55378 0.97688 0.0
C1878 C 0.63245 0.58285 0.01172 0.0
C1879 C 0.54539 0.55646 0.98644 0.0
N1880 N 0.67598 0.64862 0.98601 0.0
N1881 N 0.4987 0.49755 0.01578 0.0
H1882 H 0.50631 0.5759 0.9632 0.0
H1883 H 0.46946 0.5357 0.98443 0.0
H1884 H 0.49683 0.47908 0.03064 0.0
H1885 H 0.46626 0.48117 0.0062 0.0
H1886 H 0.67781 0.67201 0.97291 0.0
H1887 H 0.67781 0.67201 0.97291 0.0
H1888 H 0.70974 0.62202 0.01737 0.0
H1889 H 0.67519 0.57594 0.03758 0.0
C1890 C 0.18693 0.40562 0.33718 0.0
C1891 C 0.16597 0.36123 0.35008 0.0
C1892 C 0.13262 0.3132 0.31462 0.0
C1893 C 0.15584 0.35728 0.30181 0.0
N1894 N 0.21694 0.44425 0.30078 0.0
N1895 N 0.12947 0.27166 0.34938 0.0
C1896 C 0.18692 0.40298 0.31307 0.0
C1897 C 0.14272 0.31483 0.33822 0.0
N1898 N 0.20327 0.45036 0.34753 0.0
N1899 N 0.09789 0.26996 0.30475 0.0
H1900 H 0.1324 0.26942 0.36674 0.0
H1901 H 0.11884 0.23833 0.34105 0.0
H1902 H 0.08861 0.26684 0.28762 0.0
H1903 H 0.07489 0.23818 0.314 0.0
H1904 H 0.21297 0.48277 0.33857 0.0
H1905 H 0.20285 0.45496 0.36496 0.0
H1906 H 0.24453 0.47689 0.30807 0.0
H1907 H 0.21714 0.44449 0.2832 0.0
C1908 C 0.69358 0.85743 0.34501 0.0
C1909 C 0.67497 0.8116 0.35655 0.0
C1910 C 0.69351 0.77719 0.32341 0.0
C1911 C 0.70775 0.8207 0.31079 0.0
N1912 N 0.74578 0.90881 0.31438 0.0
N1913 N 0.64311 0.72374 0.3527 0.0
C1914 C 0.71413 0.86307 0.32271 0.0
C1915 C 0.66962 0.77034 0.34427 0.0
N1916 N 0.68935 0.89459 0.35485 0.0
N1917 N 0.70573 0.74324 0.31606 0.0
H1918 H 0.62307 0.71551 0.36778 0.0
H1919 H 0.62307 0.71551 0.36778 0.0
H1920 H 0.72734 0.74929 0.30163 0.0
H1921 H 0.69829 0.7121 0.32563 0.0
H1922 H 0.69889 0.92782 0.34669 0.0
H1923 H 0.67022 0.88891 0.37002 0.0
H1924 H 0.75519 0.94143 0.32308 0.0
H1925 H 0.76803 0.91336 0.30037 0.0
C1926 C 0.25401 0.94411 0.31758 0.0
C1927 C 0.22552 0.8986 0.30649 0.0
C1928 C 0.21473 0.85645 0.34356 0.0
C1929 C 0.24802 0.90273 0.35392 0.0
N1930 N 0.31454 0.98533 0.34694 0.0
N1931 N 0.18081 0.80991 0.30858 0.0
C1932 C 0.27218 0.94492 0.33968 0.0
C1933 C 0.20629 0.85423 0.31945 0.0
N1934 N 0.26437 0.98699 0.30692 0.0
N1935 N 0.19164 0.81463 0.35638 0.0
H1936 H 0.17222 0.80771 0.29141 0.0
H1937 H 0.17015 0.7759 0.31618 0.0
H1938 H 0.20278 0.81273 0.37275 0.0
H1939 H 0.16153 0.78173 0.35072 0.0
H1940 H 0.28424 0.02149 0.31461 0.0
H1941 H 0.24976 0.98726 0.29107 0.0
H1942 H 0.33597 0.0154 0.3365 0.0
H1943 H 0.33057 0.98633 0.3626 0.0
C1944 C 0.8717 0.75753 0.6826 0.0
C1945 C 0.85556 0.71249 0.69427 0.0
C1946 C 0.83138 0.66709 0.65796 0.0
C1947 C 0.84184 0.71096 0.64612 0.0
N1948 N 0.87625 0.80029 0.64793 0.0
N1949 N 0.85043 0.63392 0.69103 0.0
C1950 C 0.8633 0.75682 0.65868 0.0
C1951 C 0.84406 0.66989 0.68131 0.0
N1952 N 0.89995 0.80121 0.69375 0.0
N1953 N 0.80643 0.622 0.64755 0.0
H1954 H 0.86778 0.64022 0.7068 0.0
H1955 H 0.84675 0.60328 0.68221 0.0
H1956 H 0.79369 0.61723 0.6309 0.0
H1957 H 0.79382 0.58879 0.65631 0.0
H1958 H 0.91602 0.836 0.68626 0.0
H1959 H 0.9146 0.8028 0.70973 0.0
H1960 H 0.88205 0.83228 0.65617 0.0
H1961 H 0.88012 0.80468 0.6306 0.0
C1962 C 0.42167 0.20086 0.65134 0.0
C1963 C 0.37708 0.16976 0.63955 0.0
C1964 C 0.33529 0.13873 0.67629 0.0
C1965 C 0.37769 0.1741 0.68827 0.0
N1966 N 0.46224 0.24359 0.6855 0.0
N1967 N 0.28773 0.12031 0.64193 0.0
C1968 C 0.42082 0.20695 0.67529 0.0
C1969 C 0.33275 0.1426 0.65238 0.0
N1970 N 0.46598 0.22182 0.64019 0.0
N1971 N 0.29946 0.09798 0.68717 0.0
H1972 H 0.28359 0.12366 0.62468 0.0
H1973 H 0.25449 0.10354 0.65089 0.0
H1974 H 0.30372 0.08945 0.70378 0.0
H1975 H 0.2697 0.06906 0.6787 0.0
H1976 H 0.50004 0.23833 0.64851 0.0
H1977 H 0.46947 0.21927 0.62282 0.0
H1978 H 0.48986 0.2734 0.67656 0.0
H1979 H 0.46927 0.24576 0.70271 0.0
C1980 C 0.94801 0.28774 0.65257 0.0
C1981 C 0.90845 0.24841 0.64052 0.0
C1982 C 0.87613 0.20561 0.67685 0.0
C1983 C 0.92024 0.23997 0.68809 0.0
N1984 N 0.99971 0.3139 0.68644 0.0
N1985 N 0.83564 0.16796 0.64194 0.0
C1986 C 0.95687 0.28097 0.67573 0.0
C1987 C 0.87295 0.20674 0.6529 0.0
N1988 N 0.97673 0.33167 0.64169 0.0
N1989 N 0.8353 0.17461 0.68908 0.0
H1990 H 0.82926 0.17085 0.62511 0.0
H1991 H 0.81295 0.13353 0.64935 0.0
H1992 H 0.83491 0.17623 0.70662 0.0
H1993 H 0.80045 0.15232 0.68193 0.0
H1994 H 1.00604 0.36261 0.64913 0.0
H1995 H 0.96905 0.33821 0.62524 0.0
H1996 H 0.0278 0.34567 0.67902 0.0
H1997 H 1.00821 0.3083 0.70289 0.0
C1998 C 0.35975 0.01294 0.17595 0.0
C1999 C 0.32871 0.96086 0.17917 0.0
C2000 C 0.38428 0.94752 0.15487 0.0
C2001 C 0.41197 0.99826 0.14869 0.0
N2002 N 0.42154 0.07978 0.15257 0.0
N2003 N 0.30341 0.88031 0.16398 0.0
C2004 C 0.39865 0.03141 0.15912 0.0
C2005 C 0.33829 0.92893 0.16596 0.0
N2006 N 0.35306 0.04473 0.18931 0.0
N2007 N 0.40368 0.91728 0.15181 0.0
H2008 H 0.26841 0.86629 0.17112 0.0
H2009 H 0.30773 0.85612 0.15323 0.0
H2010 H 0.4403 0.93142 0.14693 0.0
H2011 H 0.38602 0.88063 0.15737 0.0
H2012 H 0.37792 0.08263 0.18999 0.0
H2013 H 0.3234 0.03235 0.20046 0.0
H2014 H 0.44959 0.09432 0.14054 0.0
H2015 H 0.41011 0.10441 0.1578 0.0
C2016 C 0.10553 0.44866 0.15883 0.0
C2017 C 0.05757 0.42388 0.14899 0.0
C2018 C 0.04044 0.35011 0.17191 0.0
C2019 C 0.09089 0.37381 0.17913 0.0
N2020 N 0.17368 0.44124 0.17354 0.0
N2021 N 0.97859 0.34946 0.14611 0.0
C2022 C 0.12394 0.42174 0.17086 0.0
C2023 C 0.02426 0.37438 0.15595 0.0
N2024 N 0.13351 0.49883 0.15715 0.0
N2025 N 1.00827 0.30404 0.17992 0.0
H2026 H 0.96558 0.36663 0.13513 0.0
H2027 H 0.95446 0.31168 0.14801 0.0
H2028 H 0.97012 0.28646 0.17763 0.0
H2029 H 0.0201 0.2841 0.18969 0.0
H2030 H 0.16679 0.51953 0.16587 0.0
H2031 H 0.12042 0.51976 0.14908 0.0
H2032 H 0.19958 0.47364 0.16545 0.0
H2033 H 0.18899 0.42292 0.1822 0.0
C2034 C 0.62775 0.7115 0.17052 0.0
C2035 C 0.67669 0.73876 0.17933 0.0
C2036 C 0.69925 0.68864 0.15428 0.0
C2037 C 0.64882 0.65886 0.14752 0.0
N2038 N 0.564 0.63343 0.15586 0.0
N2039 N 0.75914 0.75036 0.18038 0.0
C2040 C 0.61296 0.66779 0.15776 0.0
C2041 C 0.71279 0.72695 0.17118 0.0
N2042 N 0.59525 0.72838 0.17355 0.0
N2043 N 0.7342 0.68066 0.1444 0.0
H2044 H 0.77049 0.77906 0.19203 0.0
H2045 H 0.78546 0.73975 0.17745 0.0
H2046 H 0.72496 0.65158 0.13309 0.0
H2047 H 0.77211 0.70408 0.14639 0.0
H2048 H 0.56074 0.71238 0.16563 0.0
H2049 H 0.60494 0.7616 0.1817 0.0
H2050 H 0.53651 0.63544 0.16506 0.0
H2051 H 0.55157 0.60059 0.14687 0.0
C2052 C 0.97358 0.38355 0.8375 0.0
C2053 C 0.0242 0.41015 0.84427 0.0
C2054 C 0.03682 0.35087 0.82055 0.0
C2055 C 0.98548 0.32336 0.8155 0.0
N2056 N 0.9045 0.30409 0.82792 0.0
N2057 N 0.10379 0.41318 0.84222 0.0
C2058 C 0.95394 0.33668 0.82694 0.0
C2059 C 0.05566 0.39218 0.83594 0.0
N2060 N 0.94426 0.40435 0.8396 0.0
N2061 N 0.06835 0.33835 0.81044 0.0
H2062 H 0.12068 0.44256 0.85355 0.0
H2063 H 0.12068 0.44256 0.85355 0.0
H2064 H 0.10652 0.35818 0.81317 0.0
H2065 H 0.05592 0.30835 0.79937 0.0
H2066 H 0.9082 0.38775 0.8333 0.0
H2067 H 0.95838 0.4411 0.84423 0.0
H2068 H 0.88027 0.31011 0.8378 0.0
H2069 H 0.88931 0.26893 0.82092 0.0
C2070 C 0.69412 0.61112 0.84832 0.0
C2071 C 0.66607 0.63423 0.85381 0.0
C2072 C 0.71974 0.70263 0.82772 0.0
C2073 C 0.74858 0.67972 0.82342 0.0
N2074 N 0.77383 0.62342 0.83701 0.0
N2075 N 0.65564 0.70559 0.85023 0.0
C2076 C 0.73908 0.63767 0.83618 0.0
C2077 C 0.68003 0.6813 0.84402 0.0
N2078 N 0.67677 0.56254 0.8536 0.0
N2079 N 0.72922 0.74368 0.81562 0.0
H2080 H 0.62516 0.68995 0.86096 0.0
H2081 H 0.66697 0.74197 0.84568 0.0
H2082 H 0.76007 0.76154 0.80513 0.0
H2083 H 0.70631 0.75911 0.81554 0.0
H2084 H 0.69386 0.54297 0.84804 0.0
H2085 H 0.64289 0.54055 0.86151 0.0
H2086 H 0.77114 0.59576 0.84786 0.0
H2087 H 0.80716 0.64236 0.82825 0.0
C2088 C 0.43825 0.13962 0.82848 0.0
C2089 C 0.39089 0.10942 0.81889 0.0
C2090 C 0.38376 0.04014 0.84253 0.0
C2091 C 0.43412 0.06976 0.84968 0.0
N2092 N 0.51221 0.14386 0.84314 0.0
N2093 N 0.3178 0.02933 0.81653 0.0
C2094 C 0.46213 0.11811 0.8405 0.0
C2095 C 0.36291 0.05928 0.82618 0.0
N2096 N 0.45983 0.18979 0.82694 0.0
N2097 N 0.35564 0.99409 0.85147 0.0
H2098 H 0.30135 0.04281 0.80536 0.0
H2099 H 0.29782 0.99112 0.81868 0.0
H2100 H 0.37057 0.97751 0.86163 0.0
H2101 H 0.31753 0.97289 0.84925 0.0
H2102 H 0.49263 0.21409 0.83528 0.0
H2103 H 0.4413 0.2065 0.81972 0.0
H2104 H 0.5349 0.17753 0.83509 0.0
H2105 H 0.53105 0.12855 0.8512 0.0
C2106 C 0.02712 0.37095 0.5046 0.0
C2107 C 1.00127 0.31996 0.51101 0.0
C2108 C 0.06341 0.30885 0.49066 0.0
C2109 C 0.08499 0.35656 0.48102 0.0
N2110 N 0.08475 0.43354 0.47811 0.0
N2111 N 0.98691 0.23853 0.5017 0.0
C2112 C 0.0665 0.38824 0.48799 0.0
C2113 C 1.01696 0.28852 0.50127 0.0
N2114 N 1.0155 0.40299 0.51487 0.0
N2115 N 0.08758 0.28258 0.48984 0.0
H2116 H 0.95157 0.22225 0.50852 0.0
H2117 H 0.99532 0.21432 0.49317 0.0
H2118 H 0.12305 0.29768 0.48314 0.0
H2119 H 0.07465 0.24873 0.49812 0.0
H2120 H 0.03622 0.44123 0.51283 0.0
H2121 H 0.98651 0.39106 0.52644 0.0
H2122 H 0.06933 0.45615 0.4805 0.0
H2123 H 0.11395 0.44714 0.46661 0.0
C2124 C 0.70435 0.70111 0.48689 0.0
C2125 C 0.72129 0.75243 0.4836 0.0
C2126 C 0.79061 0.77225 0.50872 0.0
C2127 C 0.77114 0.72185 0.51496 0.0
N2128 N 0.70471 0.6375 0.51087 0.0
N2129 N 0.77104 0.83508 0.49793 0.0
C2130 C 0.72678 0.6857 0.5041 0.0
C2131 C 0.76088 0.7872 0.49693 0.0
N2132 N 0.66754 0.66728 0.47339 0.0
N2133 N 0.83942 0.80543 0.51215 0.0
H2134 H 0.74851 0.84659 0.48998 0.0
H2135 H 0.79826 0.86122 0.50861 0.0
H2136 H 0.86396 0.79384 0.51743 0.0
H2137 H 0.85612 0.84199 0.50651 0.0
H2138 H 0.65753 0.63002 0.47287 0.0
H2139 H 0.6485 0.67747 0.46206 0.0
H2140 H 0.72004 0.62512 0.52315 0.0
H2141 H 0.66974 0.61059 0.50537 0.0
C2142 C 0.37248 0.04176 0.47691 0.0
C2143 C 0.32042 1.00842 0.47394 0.0
C2144 C 0.30533 0.06353 0.4981 0.0
C2145 C 0.35539 0.08986 0.50529 0.0
N2146 N 0.43942 0.11351 0.49636 0.0
N2147 N 0.2375 0.98521 0.48572 0.0
C2148 C 0.39007 0.08171 0.4932 0.0
C2149 C 0.28702 0.0185 0.48589 0.0
N2150 N 0.40499 0.03501 0.46421 0.0
N2151 N 0.27588 0.08359 0.50178 0.0
H2152 H 0.22237 0.95153 0.47713 0.0
H2153 H 0.21237 0.98958 0.49571 0.0
H2154 H 0.29033 0.11909 0.50861 0.0
H2155 H 0.24002 0.06813 0.49533 0.0
H2156 H 0.44322 0.05452 0.4659 0.0
H2157 H 0.39318 1.01105 0.45055 0.0
H2158 H 0.46766 0.11049 0.4886 0.0
H2159 H 0.45291 0.14512 0.50633 0.0
C2160 C 0.53824 0.23726 0.10597 0.0
C2161 C 0.50396 0.25182 0.09917 0.0
C2162 C 0.45094 0.16755 0.08325 0.0
C2163 C 0.48151 0.15103 0.0936 0.0
N2164 N 0.54696 0.1709 0.12073 0.0
N2165 N 0.42539 0.22984 0.08217 0.0
C2166 C 0.52355 0.18632 0.10624 0.0
C2167 C 0.45956 0.21656 0.08801 0.0
N2168 N 0.5845 0.27159 0.11325 0.0
N2169 N 0.41515 0.13762 0.06819 0.0
H2170 H 0.43212 0.266 0.08404 0.0
H2171 H 0.38987 0.20465 0.07654 0.0
H2172 H 0.40913 0.10275 0.06362 0.0
H2173 H 0.39464 0.14917 0.05862 0.0
H2174 H 0.61251 0.26305 0.11592 0.0
H2175 H 0.5967 0.30922 0.1145 0.0
H2176 H 0.57398 0.19399 0.13231 0.0
H2177 H 0.53402 0.134 0.12358 0.0
C2178 C 0.8595 0.25887 0.08128 0.0
C2179 C 0.82407 0.26219 0.09524 0.0
C2180 C 0.8829 0.35046 0.1013 0.0
C2181 C 0.91842 0.34781 0.08701 0.0
N2182 N 0.93331 0.30244 0.05809 0.0
N2183 N 0.7982 0.31381 0.11437 0.0
C2184 C 0.90465 0.30272 0.07549 0.0
C2185 C 0.83444 0.30894 0.10368 0.0
N2186 N 0.85027 0.2136 0.07378 0.0
N2187 N 0.8963 0.39166 0.114 0.0
H2188 H 0.76307 0.28415 0.11768 0.0
H2189 H 0.80149 0.34794 0.11824 0.0
H2190 H 0.93086 0.42249 0.11273 0.0
H2191 H 0.87506 0.39377 0.1271 0.0
H2192 H 0.87691 0.20777 0.06601 0.0
H2193 H 0.81649 0.18136 0.07646 0.0
H2194 H 0.92351 0.27185 0.04773 0.0
H2195 H 0.96429 0.33463 0.0524 0.0
C2196 C 0.73482 0.55185 0.08368 0.0
C2197 C 0.73923 0.59864 0.07948 0.0
C2198 C 0.82977 0.63472 0.0826 0.0
C2199 C 0.82273 0.59028 0.09308 0.0
N2200 N 0.76494 0.50674 0.1053 0.0
N2201 N 0.79324 0.6825 0.06802 0.0
C2202 C 0.77437 0.5486 0.0938 0.0
C2203 C 0.78758 0.63971 0.07682 0.0
N2204 N 0.69307 0.51022 0.07698 0.0
N2205 N 0.87672 0.67121 0.07753 0.0
H2206 H 0.76453 0.68311 0.05937 0.0
H2207 H 0.82631 0.71605 0.06822 0.0
H2208 H 0.90764 0.66737 0.08053 0.0
H2209 H 0.88509 0.70342 0.06878 0.0
H2210 H 0.68901 0.47497 0.07799 0.0
H2211 H 0.66616 0.51254 0.06743 0.0
H2212 H 0.72911 0.47748 0.1079 0.0
H2213 H 0.79186 0.50309 0.11417 0.0
C2214 C 0.21891 0.43195 0.91383 0.0
C2215 C 0.2571 0.46503 0.89889 0.0
C2216 C 0.20418 0.49838 0.88655 0.0
C2217 C 0.16573 0.46577 0.90161 0.0
N2218 N 0.1412 0.40899 0.93298 0.0
N2219 N 0.28806 0.53373 0.87278 0.0
C2220 C 0.17432 0.43435 0.91612 0.0
C2221 C 0.25044 0.49971 0.88604 0.0
N2222 N 0.22537 0.39813 0.92589 0.0
N2223 N 0.19543 0.52594 0.87132 0.0
H2224 H 0.3194 0.53172 0.86858 0.0
H2225 H 0.2895 0.56579 0.86667 0.0
H2226 H 0.16258 0.526 0.87095 0.0
H2227 H 0.21813 0.54475 0.85765 0.0
H2228 H 0.1971 0.36861 0.93464 0.0
H2229 H 0.25895 0.39837 0.92639 0.0
H2230 H 0.147 0.38903 0.94558 0.0
H2231 H 0.10937 0.41129 0.93566 0.0
C2232 C 0.53912 0.74362 0.89438 0.0
C2233 C 0.5735 0.79201 0.90178 0.0
C2234 C 0.62651 0.75963 0.91657 0.0
C2235 C 0.59639 0.71341 0.90556 0.0
N2236 N 0.52615 0.66509 0.881 0.0
N2237 N 0.65231 0.84719 0.91885 0.0
C2238 C 0.55294 0.7063 0.89392 0.0
C2239 C 0.61789 0.80024 0.91262 0.0
N2240 N 0.49312 0.73326 0.88735 0.0
N2241 N 0.66147 0.76409 0.93184 0.0
H2242 H 0.64582 0.87689 0.9175 0.0
H2243 H 0.68788 0.85688 0.92421 0.0
H2244 H 0.66623 0.73439 0.93638 0.0
H2245 H 0.68195 0.79553 0.94174 0.0
H2246 H 0.46439 0.69744 0.8842 0.0
H2247 H 0.48203 0.75974 0.8869 0.0
H2248 H 0.49809 0.66055 0.86993 0.0
H2249 H 0.53523 0.63757 0.87947 0.0
C2250 C 0.31791 0.90015 0.90443 0.0
C2251 C 0.35677 0.92004 0.92049 0.0
C2252 C 0.33143 0.83559 0.93338 0.0
C2253 C 0.30092 0.81629 0.91377 0.0
N2254 N 0.26266 0.83008 0.8811 0.0
N2255 N 0.3901 0.90839 0.95505 0.0
C2256 C 0.2923 0.84839 0.8998 0.0
C2257 C 0.35996 0.88815 0.93668 0.0
N2258 N 0.30503 0.93116 0.89402 0.0
N2259 N 0.33428 0.8033 0.94817 0.0
H2260 H 0.40879 0.94638 0.95809 0.0
H2261 H 0.39413 0.8881 0.96801 0.0
H2262 H 0.31216 0.76501 0.94636 0.0
H2263 H 0.35731 0.8136 0.96228 0.0
H2264 H 0.27387 0.91894 0.88375 0.0
H2265 H 0.32321 0.96895 0.89768 0.0
H2266 H 0.26007 0.85246 0.86867 0.0
H2267 H 0.24239 0.79239 0.87742 0.0
C2268 C 0.11355 0.55074 0.41085 0.0
C2269 C 0.15487 0.58797 0.42302 0.0
C2270 C 0.18293 0.52863 0.43029 0.0
C2271 C 0.14262 0.49118 0.41754 0.0
N2272 N 0.0794 0.47361 0.38973 0.0
N2273 N 0.2356 0.61526 0.43914 0.0
C2274 C 0.11055 0.5042 0.40611 0.0
C2275 C 0.19194 0.57797 0.43072 0.0
N2276 N 0.0769 0.55968 0.40399 0.0
N2277 N 0.21074 0.5165 0.44366 0.0
H2278 H 0.24319 0.65157 0.44106 0.0
H2279 H 0.26628 0.61113 0.44227 0.0
H2280 H 0.20414 0.48089 0.44438 0.0
H2281 H 0.23605 0.53999 0.45571 0.0
H2282 H 0.0432 0.53226 0.39746 0.0
H2283 H 0.07949 0.59419 0.40595 0.0
H2284 H 0.05773 0.48263 0.37952 0.0
H2285 H 0.07978 0.44181 0.38459 0.0
C2286 C 0.5723 0.61967 0.4213 0.0
C2287 C 0.57983 0.66707 0.41536 0.0
C2288 C 0.49023 0.63558 0.41907 0.0
C2289 C 0.48328 0.58894 0.42629 0.0
N2290 N 0.51398 0.5318 0.42488 0.0
N2291 N 0.54407 0.71387 0.4003 0.0
C2292 C 0.52319 0.57943 0.42404 0.0
C2293 C 0.53782 0.67247 0.41119 0.0
N2294 N 0.61169 0.61359 0.42603 0.0
N2295 N 0.45288 0.64622 0.42117 0.0
H2296 H 0.57857 0.74103 0.39448 0.0
H2297 H 0.515 0.71882 0.39492 0.0
H2298 H 0.41908 0.62267 0.42875 0.0
H2299 H 0.45612 0.67989 0.4166 0.0
H2300 H 0.60846 0.58132 0.43294 0.0
H2301 H 0.64774 0.64249 0.42479 0.0
H2302 H 0.54083 0.52203 0.42156 0.0
H2303 H 0.47817 0.50175 0.42645 0.0
C2304 C 0.44686 0.90941 0.39626 0.0
C2305 C 0.46446 0.90133 0.41713 0.0
C2306 C 0.42039 0.93507 0.43762 0.0
C2307 C 0.40187 0.94381 0.41687 0.0
N2308 N 0.4083 0.94994 0.37623 0.0
N2309 N 0.48526 0.9263 0.45587 0.0
C2310 C 0.41956 0.93534 0.39608 0.0
C2311 C 0.4582 0.92248 0.43699 0.0
N2312 N 0.45406 0.88993 0.3769 0.0
N2313 N 0.39821 0.93234 0.4579 0.0
H2314 H 0.51232 0.9159 0.45579 0.0
H2315 H 0.48439 0.94467 0.47049 0.0
H2316 H 0.36674 0.93524 0.45946 0.0
H2317 H 0.40766 0.92132 0.47291 0.0
H2318 H 0.43761 0.88931 0.36143 0.0
H2319 H 0.47549 0.87271 0.37678 0.0
H2320 H 0.42225 0.94749 0.36056 0.0
H2321 H 0.38867 0.9689 0.37593 0.0
C2322 C 0.85467 0.84394 0.22602 0.0
C2323 C 0.81803 0.8031 0.23883 0.0
C2324 C 0.87988 0.77717 0.24636 0.0
C2325 C 0.91645 0.81879 0.23412 0.0
N2326 N 0.94105 0.89747 0.21653 0.0
N2327 N 0.80064 0.73827 0.26576 0.0
C2328 C 0.90463 0.85413 0.22555 0.0
C2329 C 0.83202 0.77169 0.25026 0.0
N2330 N 0.84132 0.87138 0.21283 0.0
N2331 N 0.8908 0.74232 0.25401 0.0
H2332 H 0.76657 0.73482 0.2698 0.0
H2333 H 0.81018 0.71742 0.27624 0.0
H2334 H 0.92634 0.74703 0.25308 0.0
H2335 H 0.86431 0.70794 0.26025 0.0
H2336 H 0.86436 0.89693 0.20081 0.0
H2337 H 0.80563 0.86531 0.21212 0.0
H2338 H 0.93622 0.92748 0.21282 0.0
H2339 H 0.97749 0.90551 0.2146 0.0
C2340 C 0.30118 0.09336 0.24017 0.0
C2341 C 0.26266 0.04452 0.24498 0.0
C2342 C 0.20182 0.07138 0.23644 0.0
C2343 C 0.24039 0.12055 0.23231 0.0
N2344 N 0.32625 0.18061 0.2387 0.0
N2345 N 0.17775 0.99529 0.25661 0.0
C2346 C 0.28986 0.13226 0.23727 0.0
C2347 C 0.21352 0.03644 0.2461 0.0
N2348 N 0.34789 0.10225 0.23637 0.0
N2349 N 0.15442 0.05636 0.22979 0.0
H2350 H 0.18615 0.97132 0.26518 0.0
H2351 H 0.14209 0.98909 0.2594 0.0
H2352 H 0.14397 0.07948 0.22176 0.0
H2353 H 0.12638 0.01942 0.23033 0.0
H2354 H 0.37652 0.13615 0.23068 0.0
H2355 H 0.35609 0.0739 0.23651 0.0
H2356 H 0.36222 0.1913 0.24385 0.0
H2357 H 0.31881 0.20966 0.23713 0.0
C2358 C 0.90644 0.1787 0.24106 0.0
C2359 C 0.90467 0.14205 0.22601 0.0
C2360 C 0.99287 0.19629 0.21746 0.0
C2361 C 0.99531 0.23276 0.23287 0.0
N2362 N 0.95668 0.25436 0.26258 0.0
N2363 N 0.9476 0.11364 0.20168 0.0
C2364 C 0.95256 0.22285 0.24549 0.0
C2365 C 0.94842 0.15006 0.21496 0.0
N2366 N 0.8638 0.17129 0.2511 0.0
N2367 N 0.03232 0.20712 0.20392 0.0
H2368 H 0.91528 0.08176 0.19688 0.0
H2369 H 0.97933 0.11355 0.19629 0.0
H2370 H 0.06534 0.23982 0.20545 0.0
H2371 H 0.03141 0.18605 0.19005 0.0
H2372 H 0.86073 0.19873 0.25975 0.0
H2373 H 0.83047 0.13796 0.24989 0.0
H2374 H 0.92842 0.24743 0.27391 0.0
H2375 H 0.99002 0.28583 0.26681 0.0
C2376 C 0.86133 0.86934 0.75687 0.0
C2377 C 0.81339 0.82712 0.759 0.0
C2378 C 0.78165 0.8839 0.76659 0.0
C2379 C 0.83062 0.92378 0.77019 0.0
N2380 N 0.91831 0.95164 0.77056 0.0
N2381 N 0.72767 0.79527 0.76841 0.0
C2382 C 0.87097 0.91606 0.76547 0.0
C2383 C 0.77318 0.83469 0.76411 0.0
N2384 N 0.89772 0.8646 0.74651 0.0
N2385 N 0.74317 0.89303 0.76575 0.0
H2386 H 0.7216 0.75941 0.76854 0.0
H2387 H 0.69796 0.79862 0.77427 0.0
H2388 H 0.74847 0.92879 0.76694 0.0
H2389 H 0.70725 0.86607 0.7614 0.0
H2390 H 0.93246 0.89448 0.7427 0.0
H2391 H 0.89031 0.83126 0.73922 0.0
H2392 H 0.94846 0.94621 0.76881 0.0
H2393 H 0.9274 0.98498 0.77842 0.0
C2394 C 0.20975 0.03109 0.74071 0.0
C2395 C 0.24703 0.02329 0.75081 0.0
C2396 C 0.18094 0.94852 0.76942 0.0
C2397 C 0.14453 0.95704 0.75925 0.0
N2398 N 0.12394 0.99586 0.72929 0.0
N2399 N 0.26586 0.96576 0.76898 0.0
C2400 C 0.15901 0.99455 0.74273 0.0
C2401 C 0.23175 0.97883 0.76316 0.0
N2402 N 0.22214 0.07508 0.73059 0.0
N2403 N 0.16752 0.91332 0.78588 0.0
H2404 H 0.30196 0.98633 0.76334 0.0
H2405 H 0.25724 0.93231 0.77666 0.0
H2406 H 0.13078 0.89 0.79054 0.0
H2407 H 0.19298 0.90935 0.79583 0.0
H2408 H 0.19628 0.08516 0.7256 0.0
H2409 H 0.25838 0.10318 0.72887 0.0
H2410 H 0.13264 0.01968 0.71549 0.0
H2411 H 0.08644 0.96948 0.7305 0.0
C2412 C 0.15783 0.31523 0.75397 0.0
C2413 C 0.14913 0.26664 0.759 0.0
C2414 C 0.06763 0.23396 0.74173 0.0
C2415 C 0.06977 0.28033 0.74438 0.0
N2416 N 0.1234 0.3684 0.74539 0.0
N2417 N 0.08998 0.17846 0.75943 0.0
C2418 C 0.11699 0.32229 0.74823 0.0
C2419 C 0.10275 0.22544 0.753 0.0
N2420 N 0.20526 0.35399 0.75382 0.0
N2421 N 0.0322 0.19822 0.72828 0.0
H2422 H 0.11222 0.17014 0.76958 0.0
H2423 H 0.05456 0.14846 0.75676 0.0
H2424 H 1.00861 0.20523 0.71832 0.0
H2425 H 0.03094 0.16473 0.72495 0.0
H2426 H 0.21488 0.38973 0.74886 0.0
H2427 H 0.23569 0.34919 0.7566 0.0
H2428 H 0.15445 0.40055 0.75103 0.0
H2429 H 0.09814 0.37396 0.73615 0.0
C2430 C 0.54068 0.17927 0.5785 0.0
C2431 C 0.50055 0.14124 0.56586 0.0
C2432 C 0.56419 0.13329 0.544 0.0
C2433 C 0.60218 0.17925 0.55238 0.0
N2434 N 0.62414 0.24899 0.57707 0.0
N2435 N 0.4773 0.0815 0.53514 0.0
C2436 C 0.5899 0.20301 0.56962 0.0
C2437 C 0.51305 0.11727 0.54844 0.0
N2438 N 0.5325 0.19066 0.59979 0.0
N2439 N 0.57855 0.10568 0.53167 0.0
H2440 H 0.44 0.06936 0.5367 0.0
H2441 H 0.48487 0.067 0.5208 0.0
H2442 H 0.55474 0.06973 0.52603 0.0
H2443 H 0.55474 0.06973 0.52603 0.0
H2444 H 0.56087 0.21585 0.61028 0.0
H2445 H 0.49889 0.16919 0.60808 0.0
H2446 H 0.61519 0.26955 0.58806 0.0
H2447 H 0.66007 0.26824 0.57076 0.0
C2448 C 0.98728 0.44661 0.57591 0.0
C2449 C 0.94559 0.39792 0.57694 0.0
C2450 C 0.8923 0.43168 0.56496 0.0
C2451 C 0.93388 0.47991 0.56296 0.0
N2452 N 0.01886 0.53542 0.57321 0.0
N2453 N 0.85818 0.35632 0.5865 0.0
C2454 C 0.98094 0.48795 0.5703 0.0
C2455 C 0.89781 0.39364 0.5756 0.0
N2456 N 0.03252 0.45404 0.58207 0.0
N2457 N 0.8475 0.42118 0.55626 0.0
H2458 H 0.86173 0.33401 0.59862 0.0
H2459 H 0.82356 0.35381 0.58686 0.0
H2460 H 0.84171 0.44722 0.54778 0.0
H2461 H 0.81748 0.38521 0.55557 0.0
H2462 H 0.06568 0.4857 0.57805 0.0
H2463 H 0.03585 0.42897 0.5925 0.0
H2464 H 0.0532 0.54462 0.58002 0.0
H2465 H 1.01456 0.56622 0.57072 0.0
C2466 C 0.60323 0.51771 0.57592 0.0
C2467 C 0.61129 0.48176 0.56476 0.0
C2468 C 0.69918 0.54337 0.56148 0.0
C2469 C 0.69247 0.5793 0.57358 0.0
N2470 N 0.63877 0.59467 0.59733 0.0
N2471 N 0.66975 0.45779 0.55186 0.0
C2472 C 0.64454 0.56477 0.58221 0.0
C2473 C 0.66019 0.4936 0.55952 0.0
N2474 N 0.55594 0.50699 0.58034 0.0
N2475 N 0.74163 0.55762 0.5498 0.0
H2476 H 0.64243 0.4215 0.54857 0.0
H2477 H 0.70545 0.46312 0.55067 0.0
H2478 H 0.76899 0.594 0.54943 0.0
H2479 H 0.74686 0.53524 0.53833 0.0
H2480 H 0.54695 0.53335 0.58574 0.0
H2481 H 0.5254 0.47198 0.57749 0.0
H2482 H 0.60568 0.58459 0.60567 0.0
H2483 H 0.66851 0.62741 0.60343 0.0
loop_
_geom_bond_atom_site_label_1
_geom_bond_atom_site_label_2
_geom_bond_distance
_geom_bond_site_symmetry_2
_ccdc_geom_bond_type
Eu0 N29 2.600 . S
Eu0 N35 2.562 . S
Eu0 O44 2.462 . S
Eu0 O45 2.373 1_565 S
Eu0 O47 2.432 . S
Eu0 O48 2.291 . S
Eu0 O52 2.335 . S
Eu0 O55 2.372 . S
Eu0 C64 2.787 . S
C1 N2 1.365 . S
C1 C4 1.405 1_545 S
C1 C8 1.448 . S
N2 C1 1.365 . S
N2 C5 1.319 . S
N2 Eu11 2.600 . S
C3 C5 1.397 1_565 S
C3 C6 1.367 . S
C3 H23 0.931 . S
C4 C1 1.405 1_565 S
C4 C6 1.403 . S
C4 C10 1.439 . S
C5 N2 1.319 . S
C5 C3 1.397 1_545 S
C5 H16 0.930 . S
C6 C3 1.367 . S
C6 C4 1.403 . S
C6 H27 0.929 . S
C7 C8 1.430 1_565 S
C7 C9 1.387 . S
C7 C13 1.404 . S
C8 C1 1.448 . S
C8 C7 1.430 1_545 S
C8 N12 1.351 . S
C9 C7 1.387 . S
C9 C10 1.374 . S
C9 H24 0.931 . S
C10 C4 1.439 . S
C10 C9 1.374 . S
C10 H25 0.931 . S
Eu11 N2 2.600 . S
Eu11 N12 2.562 . S
Eu11 O46 2.335 . S
Eu11 O49 2.372 . S
Eu11 O50 2.462 . S
Eu11 O51 2.373 1_545 S
Eu11 O53 2.432 . S
Eu11 O54 2.291 . S
Eu11 C75 2.787 . S
N12 C8 1.351 . S
N12 Eu11 2.562 . S
N12 C14 1.325 . S
C13 C7 1.404 . S
C13 C15 1.366 1_565 S
C13 H21 0.930 . S
C14 N12 1.325 . S
C14 C15 1.416 . S
C14 H20 0.929 . S
C15 C13 1.366 1_545 S
C15 C14 1.416 . S
C15 H17 0.930 . S
H16 C5 0.930 . S
H17 C15 0.930 . S
H18 C33 0.930 . S
H19 C40 0.930 . S
H20 C14 0.929 . S
H21 C13 0.930 . S
H22 C36 0.929 . S
H23 C3 0.931 . S
H24 C9 0.931 . S
H25 C10 0.931 . S
H26 C31 0.931 1_556 S
H27 C6 0.929 . S
H28 C39 0.930 . S
N29 Eu0 2.600 . S
N29 C30 1.365 1_565 S
N29 C33 1.319 . S
C30 N29 1.365 1_545 S
C30 C32 1.405 . S
C30 C38 1.448 . S
C31 H26 0.931 1_554 S
C31 C33 1.397 1_545 S
C31 C34 1.367 . S
C32 C30 1.405 . S
C32 C34 1.403 . S
C32 C65 1.439 . S
C33 H18 0.930 . S
C33 N29 1.319 . S
C33 C31 1.397 1_565 S
C34 C31 1.367 . S
C34 C32 1.403 . S
C34 H41 0.929 1_554 S
N35 Eu0 2.562 . S
N35 C36 1.325 . S
N35 C38 1.351 1_565 S
C36 H22 0.929 . S
C36 N35 1.325 . S
C36 C40 1.416 1_565 S
C37 C38 1.430 . S
C37 C39 1.404 . S
C37 C66 1.387 . S
C38 C30 1.448 . S
C38 N35 1.351 1_545 S
C38 C37 1.430 . S
C39 H28 0.930 . S
C39 C37 1.404 . S
C39 C40 1.366 . S
C40 H19 0.930 . S
C40 C36 1.416 1_545 S
C40 C39 1.366 . S
H41 C34 0.929 1_556 S
H42 C65 0.931 . S
H43 C66 0.931 . S
O44 Eu0 2.462 . S
O44 C64 1.252 . S
O45 Eu0 2.373 1_545 S
O45 C56 1.249 . S
O46 Eu11 2.335 . S
O46 C56 1.264 . S
O47 Eu0 2.432 . S
O47 C64 1.268 . S
O48 Eu0 2.291 . S
O48 C63 1.255 . S
O49 Eu11 2.372 . S
O49 C63 1.257 1_545 S
O50 Eu11 2.462 . S
O50 C75 1.252 . S
O51 Eu11 2.373 1_565 S
O51 C67 1.249 . S
O52 Eu0 2.335 . S
O52 C67 1.264 . S
O53 Eu11 2.432 . S
O53 C75 1.268 . S
O54 Eu11 2.291 . S
O54 C74 1.255 . S
O55 Eu0 2.372 . S
O55 C74 1.257 1_565 S
C56 O45 1.249 . S
C56 O46 1.264 . S
C57 C60 1.382 . S
C57 C62 1.390 . S
C57 C64 1.506 . S
C58 C59 1.398 . S
C58 C62 1.392 . S
C59 C58 1.398 . S
C59 C61 1.372 . S
C59 H76 0.931 . S
C60 C57 1.382 . S
C60 C61 1.390 . S
C60 H77 0.931 . S
C61 C59 1.372 . S
C61 C60 1.390 . S
C61 H78 0.929 . S
C62 C57 1.390 . S
C62 C58 1.392 . S
C62 H79 0.930 . S
C63 O48 1.255 . S
C63 O49 1.257 1_565 S
C64 Eu0 2.787 . S
C64 O44 1.252 . S
C64 O47 1.268 . S
C64 C57 1.506 . S
C65 C32 1.439 . S
C65 H42 0.931 . S
C65 C66 1.374 . S
C66 C37 1.387 . S
C66 H43 0.931 . S
C66 C65 1.374 . S
C67 O51 1.249 . S
C67 O52 1.264 . S
C68 C71 1.382 . S
C68 C72 1.390 . S
C68 C75 1.506 . S
C69 C70 1.398 . S
C69 C72 1.392 . S
C70 C69 1.398 . S
C70 C73 1.372 . S
C70 H80 0.931 . S
C71 C68 1.382 . S
C71 C73 1.390 . S
C71 H81 0.931 . S
C72 C68 1.390 . S
C72 C69 1.392 . S
C72 H82 0.930 . S
C73 C70 1.372 . S
C73 C71 1.390 . S
C73 H83 0.929 . S
C74 O54 1.255 . S
C74 O55 1.257 1_545 S
C75 Eu11 2.787 . S
C75 O50 1.252 . S
C75 O53 1.268 . S
C75 C68 1.506 . S
H76 C59 0.931 . S
H77 C60 0.931 . S
H78 C61 0.929 . S
H79 C62 0.930 . S
H80 C70 0.931 . S
H81 C71 0.931 . S
H82 C72 0.930 . S
H83 C73 0.929 . S
Eu84 N113 2.600 . S
Eu84 N119 2.562 . S
Eu84 O128 2.462 . S
Eu84 O129 2.373 1_455 S
Eu84 O131 2.432 . S
Eu84 O132 2.291 . S
Eu84 O136 2.335 . S
Eu84 O139 2.372 . S
Eu84 C148 2.787 . S
C85 N86 1.365 . S
C85 C88 1.405 . S
C85 C92 1.448 . S
N86 C85 1.365 . S
N86 C89 1.319 . S
N86 Eu95 2.600 1_455 S
C87 C89 1.397 . S
C87 C90 1.367 . S
C87 H107 0.931 . S
C88 C85 1.405 . S
C88 C90 1.403 . S
C88 C94 1.439 . S
C89 N86 1.319 . S
C89 C87 1.397 . S
C89 H100 0.930 . S
C90 C87 1.367 . S
C90 C88 1.403 . S
C90 H111 0.929 . S
C91 C92 1.430 . S
C91 C93 1.387 . S
C91 C97 1.404 . S
C92 C85 1.448 . S
C92 C91 1.430 . S
C92 N96 1.351 . S
C93 C91 1.387 . S
C93 C94 1.374 . S
C93 H108 0.931 . S
C94 C88 1.439 . S
C94 C93 1.374 . S
C94 H109 0.931 . S
Eu95 N86 2.600 1_655 S
Eu95 N96 2.562 1_655 S
Eu95 O130 2.335 . S
Eu95 O133 2.372 1_655 S
Eu95 O134 2.462 . S
Eu95 O135 2.373 1_655 S
Eu95 O137 2.432 . S
Eu95 O138 2.291 1_655 S
Eu95 C159 2.787 . S
N96 C92 1.351 . S
N96 Eu95 2.562 1_455 S
N96 C98 1.325 . S
C97 C91 1.404 . S
C97 C99 1.366 . S
C97 H105 0.930 . S
C98 N96 1.325 . S
C98 C99 1.416 . S
C98 H104 0.929 . S
C99 C97 1.366 . S
C99 C98 1.416 . S
C99 H101 0.930 . S
H100 C89 0.930 . S
H101 C99 0.930 . S
H102 C117 0.930 . S
H103 C124 0.930 . S
H104 C98 0.929 . S
H105 C97 0.930 . S
H106 C120 0.929 . S
H107 C87 0.931 . S
H108 C93 0.931 . S
H109 C94 0.931 . S
H110 C115 0.931 1_556 S
H111 C90 0.929 . S
H112 C123 0.930 1_655 S
N113 Eu84 2.600 . S
N113 C114 1.365 . S
N113 C117 1.319 . S
C114 N113 1.365 . S
C114 C116 1.405 . S
C114 C122 1.448 . S
C115 H110 0.931 1_554 S
C115 C117 1.397 . S
C115 C118 1.367 . S
C116 C114 1.405 . S
C116 C118 1.403 . S
C116 C149 1.439 1_455 S
C117 H102 0.930 . S
C117 N113 1.319 . S
C117 C115 1.397 . S
C118 C115 1.367 . S
C118 C116 1.403 . S
C118 H125 0.929 1_454 S
N119 Eu84 2.562 . S
N119 C120 1.325 . S
N119 C122 1.351 . S
C120 H106 0.929 . S
C120 N119 1.325 . S
C120 C124 1.416 . S
C121 C122 1.430 . S
C121 C123 1.404 . S
C121 C150 1.387 1_455 S
C122 C114 1.448 . S
C122 N119 1.351 . S
C122 C121 1.430 . S
C123 H112 0.930 1_455 S
C123 C121 1.404 . S
C123 C124 1.366 . S
C124 H103 0.930 . S
C124 C120 1.416 . S
C124 C123 1.366 . S
H125 C118 0.929 1_656 S
H126 C149 0.931 . S
H127 C150 0.931 . S
O128 Eu84 2.462 . S
O128 C148 1.252 . S
O129 Eu84 2.373 1_655 S
O129 C140 1.249 . S
O130 Eu95 2.335 . S
O130 C140 1.264 . S
O131 Eu84 2.432 . S
O131 C148 1.268 . S
O132 Eu84 2.291 . S
O132 C147 1.255 . S
O133 Eu95 2.372 1_455 S
O133 C147 1.257 . S
O134 Eu95 2.462 . S
O134 C159 1.252 . S
O135 Eu95 2.373 1_455 S
O135 C151 1.249 . S
O136 Eu84 2.335 . S
O136 C151 1.264 . S
O137 Eu95 2.432 . S
O137 C159 1.268 . S
O138 Eu95 2.291 1_455 S
O138 C158 1.255 . S
O139 Eu84 2.372 . S
O139 C158 1.257 . S
C140 O129 1.249 . S
C140 O130 1.264 . S
C141 C144 1.382 . S
C141 C146 1.390 . S
C141 C148 1.506 . S
C142 C143 1.398 . S
C142 C146 1.392 . S
C143 C142 1.398 . S
C143 C145 1.372 . S
C143 H160 0.931 . S
C144 C141 1.382 . S
C144 C145 1.390 . S
C144 H161 0.931 . S
C145 C143 1.372 . S
C145 C144 1.390 . S
C145 H162 0.929 . S
C146 C141 1.390 . S
C146 C142 1.392 . S
C146 H163 0.930 . S
C147 O132 1.255 . S
C147 O133 1.257 . S
C148 Eu84 2.787 . S
C148 O128 1.252 . S
C148 O131 1.268 . S
C148 C141 1.506 . S
C149 C116 1.439 1_655 S
C149 H126 0.931 . S
C149 C150 1.374 . S
C150 C121 1.387 1_655 S
C150 H127 0.931 . S
C150 C149 1.374 . S
C151 O135 1.249 . S
C151 O136 1.264 . S
C152 C155 1.382 . S
C152 C156 1.390 . S
C152 C159 1.506 . S
C153 C154 1.398 . S
C153 C156 1.392 . S
C154 C153 1.398 . S
C154 C157 1.372 . S
C154 H164 0.931 . S
C155 C152 1.382 . S
C155 C157 1.390 . S
C155 H165 0.931 . S
C156 C152 1.390 . S
C156 C153 1.392 . S
C156 H166 0.930 . S
C157 C154 1.372 . S
C157 C155 1.390 . S
C157 H167 0.929 . S
C158 O138 1.255 . S
C158 O139 1.257 . S
C159 Eu95 2.787 . S
C159 O134 1.252 . S
C159 O137 1.268 . S
C159 C152 1.506 . S
H160 C143 0.931 . S
H161 C144 0.931 . S
H162 C145 0.929 . S
H163 C146 0.930 . S
H164 C154 0.931 . S
H165 C155 0.931 . S
H166 C156 0.930 . S
H167 C157 0.929 . S
Eu168 N197 2.600 . S
Eu168 N203 2.562 . S
Eu168 O212 2.462 . S
Eu168 O213 2.373 . S
Eu168 O215 2.432 . S
Eu168 O216 2.291 . S
Eu168 O220 2.335 . S
Eu168 O223 2.372 . S
Eu168 C232 2.787 . S
C169 N170 1.365 . S
C169 C172 1.405 . S
C169 C176 1.448 . S
N170 C169 1.365 . S
N170 C173 1.319 . S
N170 Eu179 2.600 . S
C171 C173 1.397 . S
C171 C174 1.367 . S
C171 H191 0.931 . S
C172 C169 1.405 . S
C172 C174 1.403 . S
C172 C178 1.439 . S
C173 N170 1.319 . S
C173 C171 1.397 . S
C173 H184 0.930 . S
C174 C171 1.367 . S
C174 C172 1.403 . S
C174 H195 0.929 . S
C175 C176 1.430 . S
C175 C177 1.387 . S
C175 C181 1.404 . S
C176 C169 1.448 . S
C176 C175 1.430 . S
C176 N180 1.351 . S
C177 C175 1.387 . S
C177 C178 1.374 . S
C177 H192 0.931 . S
C178 C172 1.439 . S
C178 C177 1.374 . S
C178 H193 0.931 . S
Eu179 N170 2.600 . S
Eu179 N180 2.562 . S
Eu179 O214 2.335 . S
Eu179 O217 2.372 . S
Eu179 O218 2.462 . S
Eu179 O219 2.373 . S
Eu179 O221 2.432 . S
Eu179 O222 2.291 . S
Eu179 C243 2.787 . S
N180 C176 1.351 . S
N180 Eu179 2.562 . S
N180 C182 1.325 . S
C181 C175 1.404 . S
C181 C183 1.366 . S
C181 H189 0.930 . S
C182 N180 1.325 . S
C182 C183 1.416 . S
C182 H188 0.929 . S
C183 C181 1.366 . S
C183 C182 1.416 . S
C183 H185 0.930 . S
H184 C173 0.930 . S
H185 C183 0.930 . S
H186 C201 0.930 . S
H187 C208 0.930 . S
H188 C182 0.929 . S
H189 C181 0.930 . S
H190 C204 0.929 . S
H191 C171 0.931 . S
H192 C177 0.931 . S
H193 C178 0.931 . S
H194 C199 0.931 1_556 S
H195 C174 0.929 . S
H196 C207 0.930 . S
N197 Eu168 2.600 . S
N197 C198 1.365 . S
N197 C201 1.319 . S
C198 N197 1.365 . S
C198 C200 1.405 . S
C198 C206 1.448 . S
C199 H194 0.931 1_554 S
C199 C201 1.397 . S
C199 C202 1.367 . S
C200 C198 1.405 . S
C200 C202 1.403 . S
C200 C233 1.439 . S
C201 H186 0.930 . S
C201 N197 1.319 . S
C201 C199 1.397 . S
C202 C199 1.367 . S
C202 C200 1.403 . S
C202 H209 0.929 1_554 S
N203 Eu168 2.562 . S
N203 C204 1.325 . S
N203 C206 1.351 . S
C204 H190 0.929 . S
C204 N203 1.325 . S
C204 C208 1.416 . S
C205 C206 1.430 . S
C205 C207 1.404 . S
C205 C234 1.387 . S
C206 C198 1.448 . S
C206 N203 1.351 . S
C206 C205 1.430 . S
C207 H196 0.930 . S
C207 C205 1.404 . S
C207 C208 1.366 . S
C208 H187 0.930 . S
C208 C204 1.416 . S
C208 C207 1.366 . S
H209 C202 0.929 1_556 S
H210 C233 0.931 . S
H211 C234 0.931 . S
O212 Eu168 2.462 . S
O212 C232 1.252 . S
O213 Eu168 2.373 . S
O213 C224 1.249 . S
O214 Eu179 2.335 . S
O214 C224 1.264 . S
O215 Eu168 2.432 . S
O215 C232 1.268 . S
O216 Eu168 2.291 . S
O216 C231 1.255 . S
O217 Eu179 2.372 . S
O217 C231 1.257 . S
O218 Eu179 2.462 . S
O218 C243 1.252 . S
O219 Eu179 2.373 . S
O219 C235 1.249 . S
O220 Eu168 2.335 . S
O220 C235 1.264 . S
O221 Eu179 2.432 . S
O221 C243 1.268 . S
O222 Eu179 2.291 . S
O222 C242 1.255 . S
O223 Eu168 2.372 . S
O223 C242 1.257 . S
C224 O213 1.249 . S
C224 O214 1.264 . S
C225 C228 1.382 . S
C225 C230 1.390 . S
C225 C232 1.506 . S
C226 C227 1.398 . S
C226 C230 1.392 . S
C227 C226 1.398 . S
C227 C229 1.372 . S
C227 H244 0.931 . S
C228 C225 1.382 . S
C228 C229 1.390 . S
C228 H245 0.931 . S
C229 C227 1.372 . S
C229 C228 1.390 . S
C229 H246 0.929 . S
C230 C225 1.390 . S
C230 C226 1.392 . S
C230 H247 0.930 . S
C231 O216 1.255 . S
C231 O217 1.257 . S
C232 Eu168 2.787 . S
C232 O212 1.252 . S
C232 O215 1.268 . S
C232 C225 1.506 . S
C233 C200 1.439 . S
C233 H210 0.931 . S
C233 C234 1.374 . S
C234 C205 1.387 . S
C234 H211 0.931 . S
C234 C233 1.374 . S
C235 O219 1.249 . S
C235 O220 1.264 . S
C236 C239 1.382 . S
C236 C240 1.390 . S
C236 C243 1.506 . S
C237 C238 1.398 . S
C237 C240 1.392 . S
C238 C237 1.398 . S
C238 C241 1.372 . S
C238 H248 0.931 . S
C239 C236 1.382 . S
C239 C241 1.390 . S
C239 H249 0.931 . S
C240 C236 1.390 . S
C240 C237 1.392 . S
C240 H250 0.930 . S
C241 C238 1.372 . S
C241 C239 1.390 . S
C241 H251 0.929 . S
C242 O222 1.255 . S
C242 O223 1.257 . S
C243 Eu179 2.787 . S
C243 O218 1.252 . S
C243 O221 1.268 . S
C243 C236 1.506 . S
H244 C227 0.931 . S
H245 C228 0.931 . S
H246 C229 0.929 . S
H247 C230 0.930 . S
H248 C238 0.931 . S
H249 C239 0.931 . S
H250 C240 0.930 . S
H251 C241 0.929 . S
Eu252 N281 2.600 . S
Eu252 N287 2.562 . S
Eu252 O296 2.462 . S
Eu252 O297 2.373 1_655 S
Eu252 O299 2.432 . S
Eu252 O300 2.291 . S
Eu252 O304 2.335 . S
Eu252 O307 2.372 . S
Eu252 C316 2.787 . S
C253 N254 1.365 . S
C253 C256 1.405 1_455 S
C253 C260 1.448 . S
N254 C253 1.365 . S
N254 C257 1.319 . S
N254 Eu263 2.600 . S
C255 C257 1.397 1_655 S
C255 C258 1.367 . S
C255 H275 0.931 . S
C256 C253 1.405 1_655 S
C256 C258 1.403 . S
C256 C262 1.439 . S
C257 N254 1.319 . S
C257 C255 1.397 1_455 S
C257 H268 0.930 . S
C258 C255 1.367 . S
C258 C256 1.403 . S
C258 H279 0.929 . S
C259 C260 1.430 1_655 S
C259 C261 1.387 . S
C259 C265 1.404 . S
C260 C253 1.448 . S
C260 C259 1.430 1_455 S
C260 N264 1.351 . S
C261 C259 1.387 . S
C261 C262 1.374 . S
C261 H276 0.931 . S
C262 C256 1.439 . S
C262 C261 1.374 . S
C262 H277 0.931 . S
Eu263 N254 2.600 . S
Eu263 N264 2.562 . S
Eu263 O298 2.335 . S
Eu263 O301 2.372 . S
Eu263 O302 2.462 . S
Eu263 O303 2.373 1_455 S
Eu263 O305 2.432 . S
Eu263 O306 2.291 . S
Eu263 C327 2.787 . S
N264 C260 1.351 . S
N264 Eu263 2.562 . S
N264 C266 1.325 . S
C265 C259 1.404 . S
C265 C267 1.366 1_655 S
C265 H273 0.930 . S
C266 N264 1.325 . S
C266 C267 1.416 . S
C266 H272 0.929 . S
C267 C265 1.366 1_455 S
C267 C266 1.416 . S
C267 H269 0.930 . S
H268 C257 0.930 . S
H269 C267 0.930 . S
H270 C285 0.930 . S
H271 C292 0.930 . S
H272 C266 0.929 . S
H273 C265 0.930 . S
H274 C288 0.929 . S
H275 C255 0.931 . S
H276 C261 0.931 . S
H277 C262 0.931 . S
H278 C283 0.931 1_554 S
H279 C258 0.929 . S
H280 C291 0.930 . S
N281 Eu252 2.600 . S
N281 C282 1.365 1_655 S
N281 C285 1.319 . S
C282 N281 1.365 1_455 S
C282 C284 1.405 . S
C282 C290 1.448 . S
C283 H278 0.931 1_556 S
C283 C285 1.397 1_455 S
C283 C286 1.367 . S
C284 C282 1.405 . S
C284 C286 1.403 . S
C284 C317 1.439 . S
C285 H270 0.930 . S
C285 N281 1.319 . S
C285 C283 1.397 1_655 S
C286 C283 1.367 . S
C286 C284 1.403 . S
C286 H293 0.929 1_556 S
N287 Eu252 2.562 . S
N287 C288 1.325 . S
N287 C290 1.351 1_655 S
C288 H274 0.929 . S
C288 N287 1.325 . S
C288 C292 1.416 1_655 S
C289 C290 1.430 . S
C289 C291 1.404 . S
C289 C318 1.387 . S
C290 C282 1.448 . S
C290 N287 1.351 1_455 S
C290 C289 1.430 . S
C291 H280 0.930 . S
C291 C289 1.404 . S
C291 C292 1.366 . S
C292 H271 0.930 . S
C292 C288 1.416 1_455 S
C292 C291 1.366 . S
H293 C286 0.929 1_554 S
H294 C317 0.931 . S
H295 C318 0.931 . S
O296 Eu252 2.462 . S
O296 C316 1.252 . S
O297 Eu252 2.373 1_455 S
O297 C308 1.249 . S
O298 Eu263 2.335 . S
O298 C308 1.264 . S
O299 Eu252 2.432 . S
O299 C316 1.268 . S
O300 Eu252 2.291 . S
O300 C315 1.255 . S
O301 Eu263 2.372 . S
O301 C315 1.257 1_455 S
O302 Eu263 2.462 . S
O302 C327 1.252 . S
O303 Eu263 2.373 1_655 S
O303 C319 1.249 . S
O304 Eu252 2.335 . S
O304 C319 1.264 . S
O305 Eu263 2.432 . S
O305 C327 1.268 . S
O306 Eu263 2.291 . S
O306 C326 1.255 . S
O307 Eu252 2.372 . S
O307 C326 1.257 1_655 S
C308 O297 1.249 . S
C308 O298 1.264 . S
C309 C312 1.382 . S
C309 C314 1.390 . S
C309 C316 1.506 . S
C310 C311 1.398 . S
C310 C314 1.392 . S
C311 C310 1.398 . S
C311 C313 1.372 . S
C311 H328 0.931 . S
C312 C309 1.382 . S
C312 C313 1.390 . S
C312 H329 0.931 . S
C313 C311 1.372 . S
C313 C312 1.390 . S
C313 H330 0.929 . S
C314 C309 1.390 . S
C314 C310 1.392 . S
C314 H331 0.930 . S
C315 O300 1.255 . S
C315 O301 1.257 1_655 S
C316 Eu252 2.787 . S
C316 O296 1.252 . S
C316 O299 1.268 . S
C316 C309 1.506 . S
C317 C284 1.439 . S
C317 H294 0.931 . S
C317 C318 1.374 . S
C318 C289 1.387 . S
C318 H295 0.931 . S
C318 C317 1.374 . S
C319 O303 1.249 . S
C319 O304 1.264 . S
C320 C323 1.382 . S
C320 C324 1.390 . S
C320 C327 1.506 . S
C321 C322 1.398 . S
C321 C324 1.392 . S
C322 C321 1.398 . S
C322 C325 1.372 . S
C322 H332 0.931 . S
C323 C320 1.382 . S
C323 C325 1.390 . S
C323 H333 0.931 . S
C324 C320 1.390 . S
C324 C321 1.392 . S
C324 H334 0.930 . S
C325 C322 1.372 . S
C325 C323 1.390 . S
C325 H335 0.929 . S
C326 O306 1.255 . S
C326 O307 1.257 1_455 S
C327 Eu263 2.787 . S
C327 O302 1.252 . S
C327 O305 1.268 . S
C327 C320 1.506 . S
H328 C311 0.931 . S
H329 C312 0.931 . S
H330 C313 0.929 . S
H331 C314 0.930 . S
H332 C322 0.931 . S
H333 C323 0.931 . S
H334 C324 0.930 . S
H335 C325 0.929 . S
Eu336 N365 2.600 . S
Eu336 N371 2.562 . S
Eu336 O380 2.462 . S
Eu336 O381 2.373 . S
Eu336 O383 2.432 . S
Eu336 O384 2.291 . S
Eu336 O388 2.335 . S
Eu336 O391 2.372 . S
Eu336 C400 2.787 . S
C337 N338 1.365 . S
C337 C340 1.405 . S
C337 C344 1.448 . S
N338 C337 1.365 . S
N338 C341 1.319 . S
N338 Eu347 2.600 . S
C339 C341 1.397 . S
C339 C342 1.367 . S
C339 H359 0.931 . S
C340 C337 1.405 . S
C340 C342 1.403 . S
C340 C346 1.439 . S
C341 N338 1.319 . S
C341 C339 1.397 . S
C341 H352 0.930 . S
C342 C339 1.367 . S
C342 C340 1.403 . S
C342 H363 0.929 . S
C343 C344 1.430 . S
C343 C345 1.387 . S
C343 C349 1.404 . S
C344 C337 1.448 . S
C344 C343 1.430 . S
C344 N348 1.351 . S
C345 C343 1.387 . S
C345 C346 1.374 . S
C345 H360 0.931 . S
C346 C340 1.439 . S
C346 C345 1.374 . S
C346 H361 0.931 . S
Eu347 N338 2.600 . S
Eu347 N348 2.562 . S
Eu347 O382 2.335 . S
Eu347 O385 2.372 . S
Eu347 O386 2.462 . S
Eu347 O387 2.373 . S
Eu347 O389 2.432 . S
Eu347 O390 2.291 . S
Eu347 C411 2.787 . S
N348 C344 1.351 . S
N348 Eu347 2.562 . S
N348 C350 1.325 . S
C349 C343 1.404 . S
C349 C351 1.366 . S
C349 H357 0.930 . S
C350 N348 1.325 . S
C350 C351 1.416 . S
C350 H356 0.929 . S
C351 C349 1.366 . S
C351 C350 1.416 . S
C351 H353 0.930 . S
H352 C341 0.930 . S
H353 C351 0.930 . S
H354 C369 0.930 . S
H355 C376 0.930 . S
H356 C350 0.929 . S
H357 C349 0.930 . S
H358 C372 0.929 . S
H359 C339 0.931 . S
H360 C345 0.931 . S
H361 C346 0.931 . S
H362 C367 0.931 1_554 S
H363 C342 0.929 . S
H364 C375 0.930 . S
N365 Eu336 2.600 . S
N365 C366 1.365 . S
N365 C369 1.319 . S
C366 N365 1.365 . S
C366 C368 1.405 . S
C366 C374 1.448 . S
C367 H362 0.931 1_556 S
C367 C369 1.397 . S
C367 C370 1.367 . S
C368 C366 1.405 . S
C368 C370 1.403 . S
C368 C401 1.439 . S
C369 H354 0.930 . S
C369 N365 1.319 . S
C369 C367 1.397 . S
C370 C367 1.367 . S
C370 C368 1.403 . S
C370 H377 0.929 1_556 S
N371 Eu336 2.562 . S
N371 C372 1.325 . S
N371 C374 1.351 . S
C372 H358 0.929 . S
C372 N371 1.325 . S
C372 C376 1.416 . S
C373 C374 1.430 . S
C373 C375 1.404 . S
C373 C402 1.387 . S
C374 C366 1.448 . S
C374 N371 1.351 . S
C374 C373 1.430 . S
C375 H364 0.930 . S
C375 C373 1.404 . S
C375 C376 1.366 . S
C376 H355 0.930 . S
C376 C372 1.416 . S
C376 C375 1.366 . S
H377 C370 0.929 1_554 S
H378 C401 0.931 . S
H379 C402 0.931 . S
O380 Eu336 2.462 . S
O380 C400 1.252 . S
O381 Eu336 2.373 . S
O381 C392 1.249 . S
O382 Eu347 2.335 . S
O382 C392 1.264 . S
O383 Eu336 2.432 . S
O383 C400 1.268 . S
O384 Eu336 2.291 . S
O384 C399 1.255 . S
O385 Eu347 2.372 . S
O385 C399 1.257 . S
O386 Eu347 2.462 . S
O386 C411 1.252 . S
O387 Eu347 2.373 . S
O387 C403 1.249 . S
O388 Eu336 2.335 . S
O388 C403 1.264 . S
O389 Eu347 2.432 . S
O389 C411 1.268 . S
O390 Eu347 2.291 . S
O390 C410 1.255 . S
O391 Eu336 2.372 . S
O391 C410 1.257 . S
C392 O381 1.249 . S
C392 O382 1.264 . S
C393 C396 1.382 . S
C393 C398 1.390 . S
C393 C400 1.506 . S
C394 C395 1.398 . S
C394 C398 1.392 . S
C395 C394 1.398 . S
C395 C397 1.372 . S
C395 H412 0.931 . S
C396 C393 1.382 . S
C396 C397 1.390 . S
C396 H413 0.931 . S
C397 C395 1.372 . S
C397 C396 1.390 . S
C397 H414 0.929 . S
C398 C393 1.390 . S
C398 C394 1.392 . S
C398 H415 0.930 . S
C399 O384 1.255 . S
C399 O385 1.257 . S
C400 Eu336 2.787 . S
C400 O380 1.252 . S
C400 O383 1.268 . S
C400 C393 1.506 . S
C401 C368 1.439 . S
C401 H378 0.931 . S
C401 C402 1.374 . S
C402 C373 1.387 . S
C402 H379 0.931 . S
C402 C401 1.374 . S
C403 O387 1.249 . S
C403 O388 1.264 . S
C404 C407 1.382 . S
C404 C408 1.390 . S
C404 C411 1.506 . S
C405 C406 1.398 . S
C405 C408 1.392 . S
C406 C405 1.398 . S
C406 C409 1.372 . S
C406 H416 0.931 . S
C407 C404 1.382 . S
C407 C409 1.390 . S
C407 H417 0.931 . S
C408 C404 1.390 . S
C408 C405 1.392 . S
C408 H418 0.930 . S
C409 C406 1.372 . S
C409 C407 1.390 . S
C409 H419 0.929 . S
C410 O390 1.255 . S
C410 O391 1.257 . S
C411 Eu347 2.787 . S
C411 O386 1.252 . S
C411 O389 1.268 . S
C411 C404 1.506 . S
H412 C395 0.931 . S
H413 C396 0.931 . S
H414 C397 0.929 . S
H415 C398 0.930 . S
H416 C406 0.931 . S
H417 C407 0.931 . S
H418 C408 0.930 . S
H419 C409 0.929 . S
Eu420 N449 2.600 . S
Eu420 N455 2.562 . S
Eu420 O464 2.462 . S
Eu420 O465 2.373 1_545 S
Eu420 O467 2.432 . S
Eu420 O468 2.291 . S
Eu420 O472 2.335 . S
Eu420 O475 2.372 . S
Eu420 C484 2.787 . S
C421 N422 1.365 . S
C421 C424 1.405 . S
C421 C428 1.448 . S
N422 C421 1.365 . S
N422 C425 1.319 . S
N422 Eu431 2.600 1_545 S
C423 C425 1.397 . S
C423 C426 1.367 . S
C423 H443 0.931 . S
C424 C421 1.405 . S
C424 C426 1.403 . S
C424 C430 1.439 . S
C425 N422 1.319 . S
C425 C423 1.397 . S
C425 H436 0.930 . S
C426 C423 1.367 . S
C426 C424 1.403 . S
C426 H447 0.929 . S
C427 C428 1.430 . S
C427 C429 1.387 . S
C427 C433 1.404 . S
C428 C421 1.448 . S
C428 C427 1.430 . S
C428 N432 1.351 . S
C429 C427 1.387 . S
C429 C430 1.374 . S
C429 H444 0.931 . S
C430 C424 1.439 . S
C430 C429 1.374 . S
C430 H445 0.931 . S
Eu431 N422 2.600 1_565 S
Eu431 N432 2.562 1_565 S
Eu431 O466 2.335 . S
Eu431 O469 2.372 1_565 S
Eu431 O470 2.462 . S
Eu431 O471 2.373 1_565 S
Eu431 O473 2.432 . S
Eu431 O474 2.291 1_565 S
Eu431 C495 2.787 . S
N432 C428 1.351 . S
N432 Eu431 2.562 1_545 S
N432 C434 1.325 . S
C433 C427 1.404 . S
C433 C435 1.366 . S
C433 H441 0.930 . S
C434 N432 1.325 . S
C434 C435 1.416 . S
C434 H440 0.929 . S
C435 C433 1.366 . S
C435 C434 1.416 . S
C435 H437 0.930 . S
H436 C425 0.930 . S
H437 C435 0.930 . S
H438 C453 0.930 . S
H439 C460 0.930 . S
H440 C434 0.929 . S
H441 C433 0.930 . S
H442 C456 0.929 . S
H443 C423 0.931 . S
H444 C429 0.931 . S
H445 C430 0.931 . S
H446 C451 0.931 1_554 S
H447 C426 0.929 . S
H448 C459 0.930 1_565 S
N449 Eu420 2.600 . S
N449 C450 1.365 . S
N449 C453 1.319 . S
C450 N449 1.365 . S
C450 C452 1.405 . S
C450 C458 1.448 . S
C451 H446 0.931 1_556 S
C451 C453 1.397 . S
C451 C454 1.367 . S
C452 C450 1.405 . S
C452 C454 1.403 . S
C452 C485 1.439 1_545 S
C453 H438 0.930 . S
C453 N449 1.319 . S
C453 C451 1.397 . S
C454 C451 1.367 . S
C454 C452 1.403 . S
C454 H461 0.929 1_546 S
N455 Eu420 2.562 . S
N455 C456 1.325 . S
N455 C458 1.351 . S
C456 H442 0.929 . S
C456 N455 1.325 . S
C456 C460 1.416 . S
C457 C458 1.430 . S
C457 C459 1.404 . S
C457 C486 1.387 1_545 S
C458 C450 1.448 . S
C458 N455 1.351 . S
C458 C457 1.430 . S
C459 H448 0.930 1_545 S
C459 C457 1.404 . S
C459 C460 1.366 . S
C460 H439 0.930 . S
C460 C456 1.416 . S
C460 C459 1.366 . S
H461 C454 0.929 1_564 S
H462 C485 0.931 . S
H463 C486 0.931 . S
O464 Eu420 2.462 . S
O464 C484 1.252 . S
O465 Eu420 2.373 1_565 S
O465 C476 1.249 . S
O466 Eu431 2.335 . S
O466 C476 1.264 . S
O467 Eu420 2.432 . S
O467 C484 1.268 . S
O468 Eu420 2.291 . S
O468 C483 1.255 . S
O469 Eu431 2.372 1_545 S
O469 C483 1.257 . S
O470 Eu431 2.462 . S
O470 C495 1.252 . S
O471 Eu431 2.373 1_545 S
O471 C487 1.249 . S
O472 Eu420 2.335 . S
O472 C487 1.264 . S
O473 Eu431 2.432 . S
O473 C495 1.268 . S
O474 Eu431 2.291 1_545 S
O474 C494 1.255 . S
O475 Eu420 2.372 . S
O475 C494 1.257 . S
C476 O465 1.249 . S
C476 O466 1.264 . S
C477 C480 1.382 . S
C477 C482 1.390 . S
C477 C484 1.506 . S
C478 C479 1.398 . S
C478 C482 1.392 . S
C479 C478 1.398 . S
C479 C481 1.372 . S
C479 H496 0.931 . S
C480 C477 1.382 . S
C480 C481 1.390 . S
C480 H497 0.931 . S
C481 C479 1.372 . S
C481 C480 1.390 . S
C481 H498 0.929 . S
C482 C477 1.390 . S
C482 C478 1.392 . S
C482 H499 0.930 . S
C483 O468 1.255 . S
C483 O469 1.257 . S
C484 Eu420 2.787 . S
C484 O464 1.252 . S
C484 O467 1.268 . S
C484 C477 1.506 . S
C485 C452 1.439 1_565 S
C485 H462 0.931 . S
C485 C486 1.374 . S
C486 C457 1.387 1_565 S
C486 H463 0.931 . S
C486 C485 1.374 . S
C487 O471 1.249 . S
C487 O472 1.264 . S
C488 C491 1.382 . S
C488 C492 1.390 . S
C488 C495 1.506 . S
C489 C490 1.398 . S
C489 C492 1.392 . S
C490 C489 1.398 . S
C490 C493 1.372 . S
C490 H500 0.931 . S
C491 C488 1.382 . S
C491 C493 1.390 . S
C491 H501 0.931 . S
C492 C488 1.390 . S
C492 C489 1.392 . S
C492 H502 0.930 . S
C493 C490 1.372 . S
C493 C491 1.390 . S
C493 H503 0.929 . S
C494 O474 1.255 . S
C494 O475 1.257 . S
C495 Eu431 2.787 . S
C495 O470 1.252 . S
C495 O473 1.268 . S
C495 C488 1.506 . S
H496 C479 0.931 . S
H497 C480 0.931 . S
H498 C481 0.929 . S
H499 C482 0.930 . S
H500 C490 0.931 . S
H501 C491 0.931 . S
H502 C492 0.930 . S
H503 C493 0.929 . S
Eu504 N533 2.600 . S
Eu504 N539 2.562 . S
Eu504 O548 2.462 . S
Eu504 O549 2.373 . S
Eu504 O551 2.432 . S
Eu504 O552 2.291 . S
Eu504 O556 2.335 . S
Eu504 O559 2.372 . S
Eu504 C568 2.787 . S
C505 N506 1.365 . S
C505 C508 1.405 . S
C505 C512 1.448 . S
N506 C505 1.365 . S
N506 C509 1.319 . S
N506 Eu515 2.600 . S
C507 C509 1.397 . S
C507 C510 1.367 . S
C507 H527 0.931 . S
C508 C505 1.405 . S
C508 C510 1.403 . S
C508 C514 1.439 . S
C509 N506 1.319 . S
C509 C507 1.397 . S
C509 H520 0.930 . S
C510 C507 1.367 . S
C510 C508 1.403 . S
C510 H531 0.929 . S
C511 C512 1.430 . S
C511 C513 1.387 . S
C511 C517 1.404 . S
C512 C505 1.448 . S
C512 C511 1.430 . S
C512 N516 1.351 . S
C513 C511 1.387 . S
C513 C514 1.374 . S
C513 H528 0.931 . S
C514 C508 1.439 . S
C514 C513 1.374 . S
C514 H529 0.931 . S
Eu515 N506 2.600 . S
Eu515 N516 2.562 . S
Eu515 O550 2.335 . S
Eu515 O553 2.372 . S
Eu515 O554 2.462 . S
Eu515 O555 2.373 . S
Eu515 O557 2.432 . S
Eu515 O558 2.291 . S
Eu515 C579 2.787 . S
N516 C512 1.351 . S
N516 Eu515 2.562 . S
N516 C518 1.325 . S
C517 C511 1.404 . S
C517 C519 1.366 . S
C517 H525 0.930 . S
C518 N516 1.325 . S
C518 C519 1.416 . S
C518 H524 0.929 . S
C519 C517 1.366 . S
C519 C518 1.416 . S
C519 H521 0.930 . S
H520 C509 0.930 . S
H521 C519 0.930 . S
H522 C537 0.930 . S
H523 C544 0.930 . S
H524 C518 0.929 . S
H525 C517 0.930 . S
H526 C540 0.929 . S
H527 C507 0.931 . S
H528 C513 0.931 . S
H529 C514 0.931 . S
H530 C535 0.931 . S
H531 C510 0.929 . S
H532 C543 0.930 . S
N533 Eu504 2.600 . S
N533 C534 1.365 . S
N533 C537 1.319 . S
C534 N533 1.365 . S
C534 C536 1.405 . S
C534 C542 1.448 . S
C535 H530 0.931 . S
C535 C537 1.397 . S
C535 C538 1.367 . S
C536 C534 1.405 . S
C536 C538 1.403 . S
C536 C569 1.439 1_455 S
C537 H522 0.930 . S
C537 N533 1.319 . S
C537 C535 1.397 . S
C538 C535 1.367 . S
C538 C536 1.403 . S
C538 H545 0.929 . S
N539 Eu504 2.562 . S
N539 C540 1.325 . S
N539 C542 1.351 . S
C540 H526 0.929 . S
C540 N539 1.325 . S
C540 C544 1.416 1_455 S
C541 C542 1.430 1_655 S
C541 C543 1.404 . S
C541 C570 1.387 . S
C542 C534 1.448 . S
C542 N539 1.351 . S
C542 C541 1.430 1_455 S
C543 H532 0.930 . S
C543 C541 1.404 . S
C543 C544 1.366 . S
C544 H523 0.930 . S
C544 C540 1.416 1_655 S
C544 C543 1.366 . S
H545 C538 0.929 . S
H546 C569 0.931 . S
H547 C570 0.931 . S
O548 Eu504 2.462 . S
O548 C568 1.252 . S
O549 Eu504 2.373 . S
O549 C560 1.249 . S
O550 Eu515 2.335 . S
O550 C560 1.264 . S
O551 Eu504 2.432 . S
O551 C568 1.268 . S
O552 Eu504 2.291 . S
O552 C567 1.255 . S
O553 Eu515 2.372 . S
O553 C567 1.257 . S
O554 Eu515 2.462 . S
O554 C579 1.252 . S
O555 Eu515 2.373 . S
O555 C571 1.249 . S
O556 Eu504 2.335 . S
O556 C571 1.264 . S
O557 Eu515 2.432 . S
O557 C579 1.268 . S
O558 Eu515 2.291 . S
O558 C578 1.255 . S
O559 Eu504 2.372 . S
O559 C578 1.257 . S
C560 O549 1.249 . S
C560 O550 1.264 . S
C561 C564 1.382 . S
C561 C566 1.390 . S
C561 C568 1.506 1_655 S
C562 C563 1.398 . S
C562 C566 1.392 . S
C563 C562 1.398 . S
C563 C565 1.372 . S
C563 H580 0.931 . S
C564 C561 1.382 . S
C564 C565 1.390 . S
C564 H581 0.931 . S
C565 C563 1.372 . S
C565 C564 1.390 . S
C565 H582 0.929 . S
C566 C561 1.390 . S
C566 C562 1.392 . S
C566 H583 0.930 . S
C567 O552 1.255 . S
C567 O553 1.257 . S
C568 Eu504 2.787 . S
C568 O548 1.252 . S
C568 O551 1.268 . S
C568 C561 1.506 1_455 S
C569 C536 1.439 1_655 S
C569 H546 0.931 . S
C569 C570 1.374 . S
C570 C541 1.387 . S
C570 H547 0.931 . S
C570 C569 1.374 . S
C571 O555 1.249 . S
C571 O556 1.264 . S
C572 C575 1.382 . S
C572 C576 1.390 . S
C572 C579 1.506 . S
C573 C574 1.398 . S
C573 C576 1.392 . S
C574 C573 1.398 . S
C574 C577 1.372 . S
C574 H584 0.931 . S
C575 C572 1.382 . S
C575 C577 1.390 . S
C575 H585 0.931 . S
C576 C572 1.390 . S
C576 C573 1.392 . S
C576 H586 0.930 . S
C577 C574 1.372 . S
C577 C575 1.390 . S
C577 H587 0.929 . S
C578 O558 1.255 . S
C578 O559 1.257 . S
C579 Eu515 2.787 . S
C579 O554 1.252 . S
C579 O557 1.268 . S
C579 C572 1.506 . S
H580 C563 0.931 . S
H581 C564 0.931 . S
H582 C565 0.929 . S
H583 C566 0.930 . S
H584 C574 0.931 . S
H585 C575 0.931 . S
H586 C576 0.930 . S
H587 C577 0.929 . S
Eu588 N617 2.600 . S
Eu588 N623 2.562 . S
Eu588 O632 2.462 . S
Eu588 O633 2.373 . S
Eu588 O635 2.432 . S
Eu588 O636 2.291 . S
Eu588 O640 2.335 . S
Eu588 O643 2.372 . S
Eu588 C652 2.787 . S
C589 N590 1.365 . S
C589 C592 1.405 1_565 S
C589 C596 1.448 1_565 S
N590 C589 1.365 . S
N590 C593 1.319 . S
N590 Eu599 2.600 . S
C591 C593 1.397 . S
C591 C594 1.367 1_565 S
C591 H611 0.931 . S
C592 C589 1.405 1_545 S
C592 C594 1.403 . S
C592 C598 1.439 . S
C593 N590 1.319 . S
C593 C591 1.397 . S
C593 H604 0.930 . S
C594 C591 1.367 1_545 S
C594 C592 1.403 . S
C594 H615 0.929 . S
C595 C596 1.429 . S
C595 C597 1.387 . S
C595 C601 1.404 . S
C596 C589 1.448 1_545 S
C596 C595 1.429 . S
C596 N600 1.352 1_545 S
C597 C595 1.387 . S
C597 C598 1.374 . S
C597 H612 0.931 . S
C598 C592 1.439 . S
C598 C597 1.374 . S
C598 H613 0.931 . S
Eu599 N590 2.600 . S
Eu599 N600 2.562 . S
Eu599 O634 2.335 . S
Eu599 O637 2.372 . S
Eu599 O638 2.462 . S
Eu599 O639 2.373 . S
Eu599 O641 2.432 . S
Eu599 O642 2.291 . S
Eu599 C663 2.787 . S
N600 C596 1.352 1_565 S
N600 Eu599 2.562 . S
N600 C602 1.325 . S
C601 C595 1.404 . S
C601 C603 1.366 . S
C601 H609 0.930 . S
C602 N600 1.325 . S
C602 C603 1.416 1_565 S
C602 H608 0.929 . S
C603 C601 1.366 . S
C603 C602 1.416 1_545 S
C603 H605 0.930 . S
H604 C593 0.930 . S
H605 C603 0.930 . S
H606 C621 0.930 . S
H607 C628 0.930 . S
H608 C602 0.929 . S
H609 C601 0.930 . S
H610 C624 0.929 . S
H611 C591 0.931 . S
H612 C597 0.931 . S
H613 C598 0.931 . S
H614 C619 0.931 . S
H615 C594 0.929 . S
H616 C627 0.930 . S
N617 Eu588 2.600 . S
N617 C618 1.365 . S
N617 C621 1.319 . S
C618 N617 1.365 . S
C618 C620 1.405 . S
C618 C626 1.448 . S
C619 H614 0.931 . S
C619 C621 1.397 . S
C619 C622 1.367 . S
C620 C618 1.405 . S
C620 C622 1.403 . S
C620 C653 1.439 . S
C621 H606 0.930 . S
C621 N617 1.319 . S
C621 C619 1.397 . S
C622 C619 1.367 . S
C622 C620 1.403 . S
C622 H629 0.929 . S
N623 Eu588 2.562 . S
N623 C624 1.325 . S
N623 C626 1.351 . S
C624 H610 0.929 . S
C624 N623 1.325 . S
C624 C628 1.416 . S
C625 C626 1.430 . S
C625 C627 1.404 . S
C625 C654 1.387 . S
C626 C618 1.448 . S
C626 N623 1.351 . S
C626 C625 1.430 . S
C627 H616 0.930 . S
C627 C625 1.404 . S
C627 C628 1.366 . S
C628 H607 0.930 . S
C628 C624 1.416 . S
C628 C627 1.366 . S
H629 C622 0.929 . S
H630 C653 0.931 . S
H631 C654 0.931 . S
O632 Eu588 2.462 . S
O632 C652 1.252 . S
O633 Eu588 2.373 . S
O633 C644 1.249 . S
O634 Eu599 2.335 . S
O634 C644 1.264 . S
O635 Eu588 2.432 . S
O635 C652 1.268 . S
O636 Eu588 2.291 . S
O636 C651 1.255 . S
O637 Eu599 2.372 . S
O637 C651 1.257 . S
O638 Eu599 2.462 . S
O638 C663 1.252 . S
O639 Eu599 2.373 . S
O639 C655 1.249 . S
O640 Eu588 2.335 . S
O640 C655 1.264 . S
O641 Eu599 2.432 . S
O641 C663 1.268 . S
O642 Eu599 2.291 . S
O642 C662 1.255 . S
O643 Eu588 2.372 . S
O643 C662 1.257 . S
C644 O633 1.249 . S
C644 O634 1.264 . S
C645 C648 1.382 . S
C645 C650 1.390 . S
C645 C652 1.506 . S
C646 C647 1.398 . S
C646 C650 1.392 . S
C647 C646 1.398 . S
C647 C649 1.372 . S
C647 H664 0.931 . S
C648 C645 1.382 . S
C648 C649 1.390 . S
C648 H665 0.931 . S
C649 C647 1.372 . S
C649 C648 1.390 . S
C649 H666 0.929 . S
C650 C645 1.390 . S
C650 C646 1.392 . S
C650 H667 0.930 . S
C651 O636 1.255 . S
C651 O637 1.257 . S
C652 Eu588 2.787 . S
C652 O632 1.252 . S
C652 O635 1.268 . S
C652 C645 1.506 . S
C653 C620 1.439 . S
C653 H630 0.931 . S
C653 C654 1.374 . S
C654 C625 1.387 . S
C654 H631 0.931 . S
C654 C653 1.374 . S
C655 O639 1.249 . S
C655 O640 1.264 . S
C656 C659 1.382 . S
C656 C660 1.390 . S
C656 C663 1.506 . S
C657 C658 1.398 . S
C657 C660 1.392 . S
C658 C657 1.398 . S
C658 C661 1.372 . S
C658 H668 0.931 . S
C659 C656 1.382 . S
C659 C661 1.390 . S
C659 H669 0.931 . S
C660 C656 1.390 . S
C660 C657 1.392 . S
C660 H670 0.930 . S
C661 C658 1.372 . S
C661 C659 1.390 . S
C661 H671 0.929 . S
C662 O642 1.255 . S
C662 O643 1.257 . S
C663 Eu599 2.787 . S
C663 O638 1.252 . S
C663 O641 1.268 . S
C663 C656 1.506 . S
H664 C647 0.931 . S
H665 C648 0.931 . S
H666 C649 0.929 . S
H667 C650 0.930 . S
H668 C658 0.931 . S
H669 C659 0.931 . S
H670 C660 0.930 . S
H671 C661 0.929 . S
Eu672 N701 2.600 . S
Eu672 N707 2.562 1_565 S
Eu672 O716 2.462 1_565 S
Eu672 O717 2.373 . S
Eu672 O719 2.432 . S
Eu672 O720 2.291 . S
Eu672 O724 2.335 . S
Eu672 O727 2.372 . S
Eu672 C736 2.787 1_565 S
C673 N674 1.365 . S
C673 C676 1.405 . S
C673 C680 1.448 . S
N674 C673 1.365 . S
N674 C677 1.319 . S
N674 Eu683 2.600 . S
C675 C677 1.397 . S
C675 C678 1.367 . S
C675 H695 0.931 . S
C676 C673 1.405 . S
C676 C678 1.403 . S
C676 C682 1.439 1_455 S
C677 N674 1.319 . S
C677 C675 1.397 . S
C677 H688 0.930 . S
C678 C675 1.367 . S
C678 C676 1.403 . S
C678 H699 0.929 . S
C679 C680 1.430 1_655 S
C679 C681 1.387 . S
C679 C685 1.404 . S
C680 C673 1.448 . S
C680 C679 1.430 1_455 S
C680 N684 1.351 . S
C681 C679 1.387 . S
C681 C682 1.374 . S
C681 H696 0.931 . S
C682 C676 1.439 1_655 S
C682 C681 1.374 . S
C682 H697 0.931 . S
Eu683 N674 2.600 . S
Eu683 N684 2.562 . S
Eu683 O718 2.335 . S
Eu683 O721 2.372 . S
Eu683 O722 2.462 . S
Eu683 O723 2.373 . S
Eu683 O725 2.432 . S
Eu683 O726 2.291 . S
Eu683 C747 2.787 . S
N684 C680 1.351 . S
N684 Eu683 2.562 . S
N684 C686 1.325 . S
C685 C679 1.404 . S
C685 C687 1.366 1_655 S
C685 H693 0.930 . S
C686 N684 1.325 . S
C686 C687 1.416 . S
C686 H692 0.929 . S
C687 C685 1.366 1_455 S
C687 C686 1.416 . S
C687 H689 0.930 . S
H688 C677 0.930 . S
H689 C687 0.930 . S
H690 C705 0.930 . S
H691 C712 0.930 . S
H692 C686 0.929 . S
H693 C685 0.930 . S
H694 C708 0.929 . S
H695 C675 0.931 . S
H696 C681 0.931 . S
H697 C682 0.931 . S
H698 C703 0.931 . S
H699 C678 0.929 . S
H700 C711 0.930 . S
N701 Eu672 2.600 . S
N701 C702 1.365 1_565 S
N701 C705 1.319 . S
C702 N701 1.365 1_545 S
C702 C704 1.405 . S
C702 C710 1.448 . S
C703 H698 0.931 . S
C703 C705 1.397 . S
C703 C706 1.367 1_565 S
C704 C702 1.405 . S
C704 C706 1.403 . S
C704 C737 1.439 . S
C705 H690 0.930 . S
C705 N701 1.319 . S
C705 C703 1.397 . S
C706 C703 1.367 1_545 S
C706 C704 1.403 . S
C706 H713 0.929 . S
N707 Eu672 2.562 1_545 S
N707 C708 1.325 . S
N707 C710 1.351 . S
C708 H694 0.929 . S
C708 N707 1.325 . S
C708 C712 1.416 . S
C709 C710 1.430 . S
C709 C711 1.404 . S
C709 C738 1.387 . S
C710 C702 1.448 . S
C710 N707 1.351 . S
C710 C709 1.430 . S
C711 H700 0.930 . S
C711 C709 1.404 . S
C711 C712 1.366 . S
C712 H691 0.930 . S
C712 C708 1.416 . S
C712 C711 1.366 . S
H713 C706 0.929 . S
H714 C737 0.931 . S
H715 C738 0.931 . S
O716 Eu672 2.462 1_545 S
O716 C736 1.252 . S
O717 Eu672 2.373 . S
O717 C728 1.249 . S
O718 Eu683 2.335 . S
O718 C728 1.264 . S
O719 Eu672 2.432 . S
O719 C736 1.268 1_565 S
O720 Eu672 2.291 . S
O720 C735 1.255 . S
O721 Eu683 2.372 . S
O721 C735 1.257 . S
O722 Eu683 2.462 . S
O722 C747 1.252 . S
O723 Eu683 2.373 . S
O723 C739 1.249 . S
O724 Eu672 2.335 . S
O724 C739 1.264 . S
O725 Eu683 2.432 . S
O725 C747 1.268 . S
O726 Eu683 2.291 . S
O726 C746 1.255 . S
O727 Eu672 2.372 . S
O727 C746 1.257 . S
C728 O717 1.249 . S
C728 O718 1.264 . S
C729 C732 1.382 . S
C729 C734 1.390 . S
C729 C736 1.506 . S
C730 C731 1.398 . S
C730 C734 1.392 . S
C731 C730 1.398 . S
C731 C733 1.372 . S
C731 H748 0.931 . S
C732 C729 1.382 . S
C732 C733 1.390 . S
C732 H749 0.931 . S
C733 C731 1.372 . S
C733 C732 1.390 . S
C733 H750 0.929 . S
C734 C729 1.390 . S
C734 C730 1.392 . S
C734 H751 0.930 . S
C735 O720 1.255 . S
C735 O721 1.257 . S
C736 Eu672 2.787 1_545 S
C736 O716 1.252 . S
C736 O719 1.268 1_545 S
C736 C729 1.506 . S
C737 C704 1.439 . S
C737 H714 0.931 . S
C737 C738 1.374 . S
C738 C709 1.387 . S
C738 H715 0.931 . S
C738 C737 1.374 . S
C739 O723 1.249 . S
C739 O724 1.264 . S
C740 C743 1.382 . S
C740 C744 1.390 . S
C740 C747 1.506 . S
C741 C742 1.398 . S
C741 C744 1.392 . S
C742 C741 1.398 . S
C742 C745 1.372 . S
C742 H752 0.931 . S
C743 C740 1.382 . S
C743 C745 1.390 . S
C743 H753 0.931 . S
C744 C740 1.390 . S
C744 C741 1.392 . S
C744 H754 0.930 . S
C745 C742 1.372 . S
C745 C743 1.390 . S
C745 H755 0.929 . S
C746 O726 1.255 . S
C746 O727 1.257 . S
C747 Eu683 2.787 . S
C747 O722 1.252 . S
C747 O725 1.268 . S
C747 C740 1.506 . S
H748 C731 0.931 . S
H749 C732 0.931 . S
H750 C733 0.929 . S
H751 C734 0.930 . S
H752 C742 0.931 . S
H753 C743 0.931 . S
H754 C744 0.930 . S
H755 C745 0.929 . S
Eu756 N785 2.600 . S
Eu756 N791 2.562 . S
Eu756 O800 2.462 . S
Eu756 O801 2.373 . S
Eu756 O803 2.432 . S
Eu756 O804 2.291 . S
Eu756 O808 2.335 . S
Eu756 O811 2.372 . S
Eu756 C820 2.787 . S
C757 N758 1.365 . S
C757 C760 1.405 . S
C757 C764 1.448 . S
N758 C757 1.365 . S
N758 C761 1.319 . S
N758 Eu767 2.600 . S
C759 C761 1.397 . S
C759 C762 1.367 . S
C759 H779 0.931 . S
C760 C757 1.405 . S
C760 C762 1.403 . S
C760 C766 1.439 1_565 S
C761 N758 1.319 . S
C761 C759 1.397 . S
C761 H772 0.930 . S
C762 C759 1.367 . S
C762 C760 1.403 . S
C762 H783 0.929 . S
C763 C764 1.430 1_545 S
C763 C765 1.387 . S
C763 C769 1.404 . S
C764 C757 1.448 . S
C764 C763 1.430 1_565 S
C764 N768 1.351 . S
C765 C763 1.387 . S
C765 C766 1.374 . S
C765 H780 0.931 . S
C766 C760 1.439 1_545 S
C766 C765 1.374 . S
C766 H781 0.931 . S
Eu767 N758 2.600 . S
Eu767 N768 2.562 . S
Eu767 O802 2.335 . S
Eu767 O805 2.372 . S
Eu767 O806 2.462 . S
Eu767 O807 2.373 . S
Eu767 O809 2.432 . S
Eu767 O810 2.291 . S
Eu767 C831 2.787 . S
N768 C764 1.351 . S
N768 Eu767 2.562 . S
N768 C770 1.325 . S
C769 C763 1.404 . S
C769 C771 1.366 . S
C769 H777 0.930 . S
C770 N768 1.325 . S
C770 C771 1.416 1_565 S
C770 H776 0.929 . S
C771 C769 1.366 . S
C771 C770 1.416 1_545 S
C771 H773 0.930 . S
H772 C761 0.930 . S
H773 C771 0.930 . S
H774 C789 0.930 . S
H775 C796 0.930 . S
H776 C770 0.929 . S
H777 C769 0.930 . S
H778 C792 0.929 . S
H779 C759 0.931 . S
H780 C765 0.931 . S
H781 C766 0.931 . S
H782 C787 0.931 . S
H783 C762 0.929 . S
H784 C795 0.930 . S
N785 Eu756 2.600 . S
N785 C786 1.365 . S
N785 C789 1.319 . S
C786 N785 1.365 . S
C786 C788 1.405 . S
C786 C794 1.448 . S
C787 H782 0.931 . S
C787 C789 1.397 . S
C787 C790 1.367 . S
C788 C786 1.405 . S
C788 C790 1.403 . S
C788 C821 1.439 . S
C789 H774 0.930 . S
C789 N785 1.319 . S
C789 C787 1.397 . S
C790 C787 1.367 . S
C790 C788 1.403 . S
C790 H797 0.929 . S
N791 Eu756 2.562 . S
N791 C792 1.325 . S
N791 C794 1.351 . S
C792 H778 0.929 . S
C792 N791 1.325 . S
C792 C796 1.416 . S
C793 C794 1.430 . S
C793 C795 1.404 . S
C793 C822 1.387 . S
C794 C786 1.448 . S
C794 N791 1.351 . S
C794 C793 1.430 . S
C795 H784 0.930 . S
C795 C793 1.404 . S
C795 C796 1.366 . S
C796 H775 0.930 . S
C796 C792 1.416 . S
C796 C795 1.366 . S
H797 C790 0.929 . S
H798 C821 0.931 . S
H799 C822 0.931 . S
O800 Eu756 2.462 . S
O800 C820 1.252 . S
O801 Eu756 2.373 . S
O801 C812 1.249 . S
O802 Eu767 2.335 . S
O802 C812 1.264 . S
O803 Eu756 2.432 . S
O803 C820 1.268 . S
O804 Eu756 2.291 . S
O804 C819 1.255 . S
O805 Eu767 2.372 . S
O805 C819 1.257 . S
O806 Eu767 2.462 . S
O806 C831 1.252 . S
O807 Eu767 2.373 . S
O807 C823 1.249 . S
O808 Eu756 2.335 . S
O808 C823 1.264 . S
O809 Eu767 2.432 . S
O809 C831 1.268 . S
O810 Eu767 2.291 . S
O810 C830 1.255 . S
O811 Eu756 2.372 . S
O811 C830 1.257 . S
C812 O801 1.249 . S
C812 O802 1.264 . S
C813 C816 1.382 . S
C813 C818 1.390 . S
C813 C820 1.506 . S
C814 C815 1.398 . S
C814 C818 1.392 . S
C815 C814 1.398 . S
C815 C817 1.372 . S
C815 H832 0.931 . S
C816 C813 1.382 . S
C816 C817 1.390 . S
C816 H833 0.931 . S
C817 C815 1.372 . S
C817 C816 1.390 . S
C817 H834 0.929 . S
C818 C813 1.390 . S
C818 C814 1.392 . S
C818 H835 0.930 . S
C819 O804 1.255 . S
C819 O805 1.257 . S
C820 Eu756 2.787 . S
C820 O800 1.252 . S
C820 O803 1.268 . S
C820 C813 1.506 . S
C821 C788 1.439 . S
C821 H798 0.931 . S
C821 C822 1.374 . S
C822 C793 1.387 . S
C822 H799 0.931 . S
C822 C821 1.374 . S
C823 O807 1.249 . S
C823 O808 1.264 . S
C824 C827 1.382 . S
C824 C828 1.390 . S
C824 C831 1.506 1_545 S
C825 C826 1.398 . S
C825 C828 1.392 . S
C826 C825 1.398 . S
C826 C829 1.372 . S
C826 H836 0.931 . S
C827 C824 1.382 . S
C827 C829 1.390 . S
C827 H837 0.931 . S
C828 C824 1.390 . S
C828 C825 1.392 . S
C828 H838 0.930 . S
C829 C826 1.372 . S
C829 C827 1.390 . S
C829 H839 0.929 . S
C830 O810 1.255 . S
C830 O811 1.257 . S
C831 Eu767 2.787 . S
C831 O806 1.252 . S
C831 O809 1.268 . S
C831 C824 1.506 1_565 S
H832 C815 0.931 . S
H833 C816 0.931 . S
H834 C817 0.929 . S
H835 C818 0.930 . S
H836 C826 0.931 . S
H837 C827 0.931 . S
H838 C828 0.930 . S
H839 C829 0.929 . S
Eu840 N869 2.600 . S
Eu840 N875 2.562 . S
Eu840 O884 2.462 . S
Eu840 O885 2.373 . S
Eu840 O887 2.432 . S
Eu840 O888 2.291 . S
Eu840 O892 2.335 . S
Eu840 O895 2.372 . S
Eu840 C904 2.787 . S
C841 N842 1.365 . S
C841 C844 1.405 . S
C841 C848 1.448 . S
N842 C841 1.365 . S
N842 C845 1.319 . S
N842 Eu851 2.600 . S
C843 C845 1.397 . S
C843 C846 1.367 . S
C843 H863 0.931 . S
C844 C841 1.405 . S
C844 C846 1.403 . S
C844 C850 1.439 . S
C845 N842 1.319 . S
C845 C843 1.397 . S
C845 H856 0.930 . S
C846 C843 1.367 . S
C846 C844 1.403 . S
C846 H867 0.929 . S
C847 C848 1.430 . S
C847 C849 1.387 . S
C847 C853 1.404 . S
C848 C841 1.448 . S
C848 C847 1.430 . S
C848 N852 1.351 . S
C849 C847 1.387 . S
C849 C850 1.374 . S
C849 H864 0.931 1_455 S
C850 C844 1.439 . S
C850 C849 1.374 . S
C850 H865 0.931 . S
Eu851 N842 2.600 . S
Eu851 N852 2.562 . S
Eu851 O886 2.335 . S
Eu851 O889 2.372 . S
Eu851 O890 2.462 . S
Eu851 O891 2.373 . S
Eu851 O893 2.432 . S
Eu851 O894 2.291 . S
Eu851 C915 2.787 . S
N852 C848 1.351 . S
N852 Eu851 2.562 . S
N852 C854 1.325 . S
C853 C847 1.404 . S
C853 C855 1.366 . S
C853 H861 0.930 1_455 S
C854 N852 1.325 . S
C854 C855 1.416 . S
C854 H860 0.929 . S
C855 C853 1.366 . S
C855 C854 1.416 . S
C855 H857 0.930 . S
H856 C845 0.930 . S
H857 C855 0.930 . S
H858 C873 0.930 . S
H859 C880 0.930 . S
H860 C854 0.929 . S
H861 C853 0.930 1_655 S
H862 C876 0.929 . S
H863 C843 0.931 . S
H864 C849 0.931 1_655 S
H865 C850 0.931 . S
H866 C871 0.931 . S
H867 C846 0.929 . S
H868 C879 0.930 . S
N869 Eu840 2.600 . S
N869 C870 1.360 1_565 S
N869 C873 1.319 . S
C870 N869 1.360 1_545 S
C870 C872 1.409 . S
C870 C878 1.448 . S
C871 H866 0.931 . S
C871 C873 1.397 . S
C871 C874 1.367 1_565 S
C872 C870 1.409 . S
C872 C874 1.403 . S
C872 C905 1.439 . S
C873 H858 0.930 . S
C873 N869 1.319 . S
C873 C871 1.397 . S
C874 C871 1.367 1_545 S
C874 C872 1.403 . S
C874 H881 0.929 . S
N875 Eu840 2.562 . S
N875 C876 1.325 . S
N875 C878 1.351 1_565 S
C876 H862 0.929 . S
C876 N875 1.325 . S
C876 C880 1.416 1_565 S
C877 C878 1.430 . S
C877 C879 1.404 . S
C877 C906 1.387 . S
C878 C870 1.448 . S
C878 N875 1.351 1_545 S
C878 C877 1.430 . S
C879 H868 0.930 . S
C879 C877 1.404 . S
C879 C880 1.366 . S
C880 H859 0.930 . S
C880 C876 1.416 1_545 S
C880 C879 1.366 . S
H881 C874 0.929 . S
H882 C905 0.931 . S
H883 C906 0.931 . S
O884 Eu840 2.462 . S
O884 C904 1.252 . S
O885 Eu840 2.373 . S
O885 C896 1.249 . S
O886 Eu851 2.335 . S
O886 C896 1.264 . S
O887 Eu840 2.432 . S
O887 C904 1.268 . S
O888 Eu840 2.291 . S
O888 C903 1.255 . S
O889 Eu851 2.372 . S
O889 C903 1.257 . S
O890 Eu851 2.462 . S
O890 C915 1.252 . S
O891 Eu851 2.373 . S
O891 C907 1.249 . S
O892 Eu840 2.335 . S
O892 C907 1.264 . S
O893 Eu851 2.432 . S
O893 C915 1.268 . S
O894 Eu851 2.291 . S
O894 C914 1.255 . S
O895 Eu840 2.372 . S
O895 C914 1.257 . S
C896 O885 1.249 . S
C896 O886 1.264 . S
C897 C900 1.382 . S
C897 C902 1.390 . S
C897 C904 1.506 . S
C898 C899 1.398 . S
C898 C902 1.392 . S
C899 C898 1.398 . S
C899 C901 1.372 . S
C899 H916 0.931 . S
C900 C897 1.382 . S
C900 C901 1.390 . S
C900 H917 0.931 . S
C901 C899 1.372 . S
C901 C900 1.390 . S
C901 H918 0.929 . S
C902 C897 1.390 . S
C902 C898 1.392 . S
C902 H919 0.930 . S
C903 O888 1.255 . S
C903 O889 1.257 . S
C904 Eu840 2.787 . S
C904 O884 1.252 . S
C904 O887 1.268 . S
C904 C897 1.506 . S
C905 C872 1.439 . S
C905 H882 0.931 . S
C905 C906 1.374 . S
C906 C877 1.387 . S
C906 H883 0.931 . S
C906 C905 1.374 . S
C907 O891 1.249 . S
C907 O892 1.264 . S
C908 C911 1.392 . S
C908 C912 1.390 1_455 S
C908 C915 1.506 . S
C909 C910 1.398 . S
C909 C912 1.392 . S
C910 C909 1.398 . S
C910 C913 1.372 . S
C910 H920 0.931 . S
C911 C908 1.392 . S
C911 C913 1.366 1_455 S
C911 H921 0.945 . S
C912 C908 1.390 1_655 S
C912 C909 1.392 . S
C912 H922 0.919 1_655 S
C913 C910 1.372 . S
C913 C911 1.366 1_655 S
C913 H923 0.929 . S
C914 O894 1.255 . S
C914 O895 1.257 . S
C915 Eu851 2.787 . S
C915 O890 1.252 . S
C915 O893 1.268 . S
C915 C908 1.506 . S
H916 C899 0.931 . S
H917 C900 0.931 . S
H918 C901 0.929 . S
H919 C902 0.930 . S
H920 C910 0.931 . S
H921 C911 0.945 . S
H922 C912 0.919 1_455 S
H923 C913 0.929 . S
Eu924 N953 2.600 . S
Eu924 N959 2.562 . S
Eu924 O968 2.462 . S
Eu924 O969 2.373 . S
Eu924 O971 2.432 . S
Eu924 O972 2.291 . S
Eu924 O976 2.335 . S
Eu924 O979 2.372 . S
Eu924 C988 2.787 . S
C925 N926 1.365 . S
C925 C928 1.405 . S
C925 C932 1.448 . S
N926 C925 1.365 . S
N926 C929 1.319 . S
N926 Eu935 2.600 . S
C927 C929 1.397 . S
C927 C930 1.367 . S
C927 H947 0.931 . S
C928 C925 1.405 . S
C928 C930 1.403 . S
C928 C934 1.439 . S
C929 N926 1.319 . S
C929 C927 1.397 . S
C929 H940 0.930 . S
C930 C927 1.367 . S
C930 C928 1.403 . S
C930 H951 0.929 . S
C931 C932 1.430 . S
C931 C933 1.387 . S
C931 C937 1.404 . S
C932 C925 1.448 . S
C932 C931 1.430 . S
C932 N936 1.351 . S
C933 C931 1.387 . S
C933 C934 1.374 . S
C933 H948 0.931 . S
C934 C928 1.439 . S
C934 C933 1.374 . S
C934 H949 0.931 . S
Eu935 N926 2.600 . S
Eu935 N936 2.562 . S
Eu935 O970 2.335 . S
Eu935 O973 2.372 . S
Eu935 O974 2.462 . S
Eu935 O975 2.373 . S
Eu935 O977 2.432 . S
Eu935 O978 2.291 . S
Eu935 C999 2.787 . S
N936 C932 1.351 . S
N936 Eu935 2.562 . S
N936 C938 1.325 . S
C937 C931 1.404 . S
C937 C939 1.366 . S
C937 H945 0.930 . S
C938 N936 1.325 . S
C938 C939 1.416 . S
C938 H944 0.929 . S
C939 C937 1.366 . S
C939 C938 1.416 . S
C939 H941 0.930 . S
H940 C929 0.930 . S
H941 C939 0.930 . S
H942 C957 0.930 . S
H943 C964 0.930 . S
H944 C938 0.929 . S
H945 C937 0.930 . S
H946 C960 0.929 . S
H947 C927 0.931 . S
H948 C933 0.931 . S
H949 C934 0.931 . S
H950 C955 0.931 . S
H951 C930 0.929 . S
H952 C963 0.930 . S
N953 Eu924 2.600 . S
N953 C954 1.365 . S
N953 C957 1.319 . S
C954 N953 1.365 . S
C954 C956 1.405 . S
C954 C962 1.448 . S
C955 H950 0.931 . S
C955 C957 1.397 . S
C955 C958 1.367 . S
C956 C954 1.405 . S
C956 C958 1.403 . S
C956 C989 1.439 1_455 S
C957 H942 0.930 . S
C957 N953 1.319 . S
C957 C955 1.397 . S
C958 C955 1.367 . S
C958 C956 1.403 . S
C958 H965 0.929 . S
N959 Eu924 2.562 . S
N959 C960 1.325 . S
N959 C962 1.351 . S
C960 H946 0.929 . S
C960 N959 1.325 . S
C960 C964 1.416 1_455 S
C961 C962 1.430 1_655 S
C961 C963 1.404 . S
C961 C990 1.387 . S
C962 C954 1.448 . S
C962 N959 1.351 . S
C962 C961 1.430 1_455 S
C963 H952 0.930 . S
C963 C961 1.404 . S
C963 C964 1.366 . S
C964 H943 0.930 . S
C964 C960 1.416 1_655 S
C964 C963 1.366 . S
H965 C958 0.929 . S
H966 C989 0.931 . S
H967 C990 0.931 . S
O968 Eu924 2.462 . S
O968 C988 1.252 . S
O969 Eu924 2.373 . S
O969 C980 1.249 . S
O970 Eu935 2.335 . S
O970 C980 1.264 . S
O971 Eu924 2.432 . S
O971 C988 1.268 . S
O972 Eu924 2.291 . S
O972 C987 1.255 . S
O973 Eu935 2.372 . S
O973 C987 1.257 . S
O974 Eu935 2.462 . S
O974 C999 1.252 . S
O975 Eu935 2.373 . S
O975 C991 1.249 . S
O976 Eu924 2.335 . S
O976 C991 1.264 . S
O977 Eu935 2.432 . S
O977 C999 1.268 . S
O978 Eu935 2.291 . S
O978 C998 1.255 . S
O979 Eu924 2.372 . S
O979 C998 1.257 . S
C980 O969 1.249 . S
C980 O970 1.264 . S
C981 C984 1.382 . S
C981 C986 1.390 . S
C981 C988 1.506 . S
C982 C983 1.398 . S
C982 C986 1.392 . S
C983 C982 1.398 . S
C983 C985 1.372 . S
C983 H1000 0.931 . S
C984 C981 1.382 . S
C984 C985 1.390 . S
C984 H1001 0.931 . S
C985 C983 1.372 . S
C985 C984 1.390 . S
C985 H1002 0.929 . S
C986 C981 1.390 . S
C986 C982 1.392 . S
C986 H1003 0.930 . S
C987 O972 1.255 . S
C987 O973 1.257 . S
C988 Eu924 2.787 . S
C988 O968 1.252 . S
C988 O971 1.268 . S
C988 C981 1.506 . S
C989 C956 1.439 1_655 S
C989 H966 0.931 . S
C989 C990 1.374 . S
C990 C961 1.387 . S
C990 H967 0.931 . S
C990 C989 1.374 . S
C991 O975 1.249 . S
C991 O976 1.264 . S
C992 C995 1.382 . S
C992 C996 1.390 . S
C992 C999 1.506 . S
C993 C994 1.398 . S
C993 C996 1.392 . S
C994 C993 1.398 . S
C994 C997 1.372 . S
C994 H1004 0.931 . S
C995 C992 1.382 . S
C995 C997 1.390 . S
C995 H1005 0.931 . S
C996 C992 1.390 . S
C996 C993 1.392 . S
C996 H1006 0.930 . S
C997 C994 1.372 . S
C997 C995 1.390 . S
C997 H1007 0.929 . S
C998 O978 1.255 . S
C998 O979 1.257 . S
C999 Eu935 2.787 . S
C999 O974 1.252 . S
C999 O977 1.268 . S
C999 C992 1.506 . S
H1000 C983 0.931 . S
H1001 C984 0.931 . S
H1002 C985 0.929 . S
H1003 C986 0.930 . S
H1004 C994 0.931 . S
H1005 C995 0.931 . S
H1006 C996 0.930 . S
H1007 C997 0.929 . S
Eu1008 N1037 2.600 . S
Eu1008 N1043 2.562 . S
Eu1008 O1052 2.462 . S
Eu1008 O1053 2.373 . S
Eu1008 O1055 2.432 . S
Eu1008 O1056 2.291 . S
Eu1008 O1060 2.335 . S
Eu1008 O1063 2.372 . S
Eu1008 C1072 2.787 . S
C1009 N1010 1.365 . S
C1009 C1012 1.405 . S
C1009 C1016 1.448 . S
N1010 C1009 1.365 . S
N1010 C1013 1.319 . S
N1010 Eu1019 2.600 . S
C1011 C1013 1.397 . S
C1011 C1014 1.367 . S
C1011 H1031 0.931 . S
C1012 C1009 1.405 . S
C1012 C1014 1.403 . S
C1012 C1018 1.439 1_655 S
C1013 N1010 1.319 . S
C1013 C1011 1.397 . S
C1013 H1024 0.930 . S
C1014 C1011 1.367 . S
C1014 C1012 1.403 . S
C1014 H1035 0.929 . S
C1015 C1016 1.430 1_455 S
C1015 C1017 1.387 . S
C1015 C1021 1.404 . S
C1016 C1009 1.448 . S
C1016 C1015 1.430 1_655 S
C1016 N1020 1.351 . S
C1017 C1015 1.387 . S
C1017 C1018 1.374 . S
C1017 H1032 0.931 . S
C1018 C1012 1.439 1_455 S
C1018 C1017 1.374 . S
C1018 H1033 0.931 . S
Eu1019 N1010 2.600 . S
Eu1019 N1020 2.562 . S
Eu1019 O1054 2.335 . S
Eu1019 O1057 2.372 . S
Eu1019 O1058 2.462 . S
Eu1019 O1059 2.373 . S
Eu1019 O1061 2.432 . S
Eu1019 O1062 2.291 . S
Eu1019 C1083 2.787 . S
N1020 C1016 1.351 . S
N1020 Eu1019 2.562 . S
N1020 C1022 1.325 . S
C1021 C1015 1.404 . S
C1021 C1023 1.366 . S
C1021 H1029 0.930 . S
C1022 N1020 1.325 . S
C1022 C1023 1.416 1_655 S
C1022 H1028 0.929 . S
C1023 C1021 1.366 . S
C1023 C1022 1.416 1_455 S
C1023 H1025 0.930 . S
H1024 C1013 0.930 . S
H1025 C1023 0.930 . S
H1026 C1041 0.930 . S
H1027 C1048 0.930 . S
H1028 C1022 0.929 . S
H1029 C1021 0.930 . S
H1030 C1044 0.929 . S
H1031 C1011 0.931 . S
H1032 C1017 0.931 . S
H1033 C1018 0.931 . S
H1034 C1039 0.931 . S
H1035 C1014 0.929 . S
H1036 C1047 0.930 . S
N1037 Eu1008 2.600 . S
N1037 C1038 1.365 . S
N1037 C1041 1.319 . S
C1038 N1037 1.365 . S
C1038 C1040 1.405 . S
C1038 C1046 1.448 . S
C1039 H1034 0.931 . S
C1039 C1041 1.397 . S
C1039 C1042 1.367 . S
C1040 C1038 1.405 . S
C1040 C1042 1.403 . S
C1040 C1073 1.439 . S
C1041 H1026 0.930 . S
C1041 N1037 1.319 . S
C1041 C1039 1.397 . S
C1042 C1039 1.367 . S
C1042 C1040 1.403 . S
C1042 H1049 0.929 . S
N1043 Eu1008 2.562 . S
N1043 C1044 1.325 . S
N1043 C1046 1.351 . S
C1044 H1030 0.929 . S
C1044 N1043 1.325 . S
C1044 C1048 1.416 . S
C1045 C1046 1.430 . S
C1045 C1047 1.404 . S
C1045 C1074 1.387 . S
C1046 C1038 1.448 . S
C1046 N1043 1.351 . S
C1046 C1045 1.430 . S
C1047 H1036 0.930 . S
C1047 C1045 1.404 . S
C1047 C1048 1.366 . S
C1048 H1027 0.930 . S
C1048 C1044 1.416 . S
C1048 C1047 1.366 . S
H1049 C1042 0.929 . S
H1050 C1073 0.931 . S
H1051 C1074 0.931 . S
O1052 Eu1008 2.462 . S
O1052 C1072 1.252 . S
O1053 Eu1008 2.373 . S
O1053 C1064 1.249 . S
O1054 Eu1019 2.335 . S
O1054 C1064 1.264 . S
O1055 Eu1008 2.432 . S
O1055 C1072 1.268 . S
O1056 Eu1008 2.291 . S
O1056 C1071 1.255 . S
O1057 Eu1019 2.372 . S
O1057 C1071 1.257 . S
O1058 Eu1019 2.462 . S
O1058 C1083 1.252 . S
O1059 Eu1019 2.373 . S
O1059 C1075 1.249 . S
O1060 Eu1008 2.335 . S
O1060 C1075 1.264 . S
O1061 Eu1019 2.432 . S
O1061 C1083 1.268 . S
O1062 Eu1019 2.291 . S
O1062 C1082 1.255 . S
O1063 Eu1008 2.372 . S
O1063 C1082 1.257 . S
C1064 O1053 1.249 . S
C1064 O1054 1.264 . S
C1065 C1068 1.382 . S
C1065 C1070 1.390 . S
C1065 C1072 1.506 . S
C1066 C1067 1.398 . S
C1066 C1070 1.392 . S
C1067 C1066 1.398 . S
C1067 C1069 1.372 . S
C1067 H1084 0.931 . S
C1068 C1065 1.382 . S
C1068 C1069 1.390 . S
C1068 H1085 0.931 . S
C1069 C1067 1.372 . S
C1069 C1068 1.390 . S
C1069 H1086 0.929 . S
C1070 C1065 1.390 . S
C1070 C1066 1.392 . S
C1070 H1087 0.930 . S
C1071 O1056 1.255 . S
C1071 O1057 1.257 . S
C1072 Eu1008 2.787 . S
C1072 O1052 1.252 . S
C1072 O1055 1.268 . S
C1072 C1065 1.506 . S
C1073 C1040 1.439 . S
C1073 H1050 0.931 . S
C1073 C1074 1.374 . S
C1074 C1045 1.387 . S
C1074 H1051 0.931 . S
C1074 C1073 1.374 . S
C1075 O1059 1.249 . S
C1075 O1060 1.264 . S
C1076 C1079 1.382 . S
C1076 C1080 1.390 . S
C1076 C1083 1.506 1_455 S
C1077 C1078 1.398 . S
C1077 C1080 1.392 . S
C1078 C1077 1.398 . S
C1078 C1081 1.372 . S
C1078 H1088 0.931 . S
C1079 C1076 1.382 . S
C1079 C1081 1.390 . S
C1079 H1089 0.931 . S
C1080 C1076 1.390 . S
C1080 C1077 1.392 . S
C1080 H1090 0.930 . S
C1081 C1078 1.372 . S
C1081 C1079 1.390 . S
C1081 H1091 0.929 . S
C1082 O1062 1.255 . S
C1082 O1063 1.257 . S
C1083 Eu1019 2.787 . S
C1083 O1058 1.252 . S
C1083 O1061 1.268 . S
C1083 C1076 1.506 1_655 S
H1084 C1067 0.931 . S
H1085 C1068 0.931 . S
H1086 C1069 0.929 . S
H1087 C1070 0.930 . S
H1088 C1078 0.931 . S
H1089 C1079 0.931 . S
H1090 C1080 0.930 . S
H1091 C1081 0.929 . S
Eu1092 N1121 2.600 . S
Eu1092 N1127 2.562 . S
Eu1092 O1136 2.462 . S
Eu1092 O1137 2.373 . S
Eu1092 O1139 2.432 . S
Eu1092 O1140 2.291 . S
Eu1092 O1144 2.335 . S
Eu1092 O1147 2.372 . S
Eu1092 C1156 2.787 . S
C1093 N1094 1.365 . S
C1093 C1096 1.405 . S
C1093 C1100 1.448 . S
N1094 C1093 1.365 . S
N1094 C1097 1.319 . S
N1094 Eu1103 2.600 . S
C1095 C1097 1.397 . S
C1095 C1098 1.367 . S
C1095 H1115 0.931 . S
C1096 C1093 1.405 . S
C1096 C1098 1.403 . S
C1096 C1102 1.439 . S
C1097 N1094 1.319 . S
C1097 C1095 1.397 . S
C1097 H1108 0.930 . S
C1098 C1095 1.367 . S
C1098 C1096 1.403 . S
C1098 H1119 0.929 . S
C1099 C1100 1.430 . S
C1099 C1101 1.387 . S
C1099 C1105 1.404 . S
C1100 C1093 1.448 . S
C1100 C1099 1.430 . S
C1100 N1104 1.351 . S
C1101 C1099 1.387 . S
C1101 C1102 1.374 . S
C1101 H1116 0.931 . S
C1102 C1096 1.439 . S
C1102 C1101 1.374 . S
C1102 H1117 0.931 . S
Eu1103 N1094 2.600 . S
Eu1103 N1104 2.562 . S
Eu1103 O1138 2.335 . S
Eu1103 O1141 2.372 . S
Eu1103 O1142 2.462 . S
Eu1103 O1143 2.373 . S
Eu1103 O1145 2.432 . S
Eu1103 O1146 2.291 . S
Eu1103 C1167 2.787 . S
N1104 C1100 1.351 . S
N1104 Eu1103 2.562 . S
N1104 C1106 1.325 . S
C1105 C1099 1.404 . S
C1105 C1107 1.366 . S
C1105 H1113 0.930 . S
C1106 N1104 1.325 . S
C1106 C1107 1.416 . S
C1106 H1112 0.929 . S
C1107 C1105 1.366 . S
C1107 C1106 1.416 . S
C1107 H1109 0.930 . S
H1108 C1097 0.930 . S
H1109 C1107 0.930 . S
H1110 C1125 0.930 . S
H1111 C1132 0.930 . S
H1112 C1106 0.929 . S
H1113 C1105 0.930 . S
H1114 C1128 0.929 . S
H1115 C1095 0.931 . S
H1116 C1101 0.931 . S
H1117 C1102 0.931 . S
H1118 C1123 0.931 . S
H1119 C1098 0.929 . S
H1120 C1131 0.930 . S
N1121 Eu1092 2.600 . S
N1121 C1122 1.365 . S
N1121 C1125 1.319 . S
C1122 N1121 1.365 . S
C1122 C1124 1.405 . S
C1122 C1130 1.448 . S
C1123 H1118 0.931 . S
C1123 C1125 1.397 . S
C1123 C1126 1.367 . S
C1124 C1122 1.405 . S
C1124 C1126 1.403 . S
C1124 C1157 1.439 1_545 S
C1125 H1110 0.930 . S
C1125 N1121 1.319 . S
C1125 C1123 1.397 . S
C1126 C1123 1.367 . S
C1126 C1124 1.403 . S
C1126 H1133 0.929 . S
N1127 Eu1092 2.562 . S
N1127 C1128 1.325 . S
N1127 C1130 1.351 . S
C1128 H1114 0.929 . S
C1128 N1127 1.325 . S
C1128 C1132 1.416 1_545 S
C1129 C1130 1.430 1_565 S
C1129 C1131 1.404 . S
C1129 C1158 1.387 . S
C1130 C1122 1.448 . S
C1130 N1127 1.351 . S
C1130 C1129 1.430 1_545 S
C1131 H1120 0.930 . S
C1131 C1129 1.404 . S
C1131 C1132 1.366 . S
C1132 H1111 0.930 . S
C1132 C1128 1.416 1_565 S
C1132 C1131 1.366 . S
H1133 C1126 0.929 . S
H1134 C1157 0.931 . S
H1135 C1158 0.931 . S
O1136 Eu1092 2.462 . S
O1136 C1156 1.252 . S
O1137 Eu1092 2.373 . S
O1137 C1148 1.249 . S
O1138 Eu1103 2.335 . S
O1138 C1148 1.264 . S
O1139 Eu1092 2.432 . S
O1139 C1156 1.268 . S
O1140 Eu1092 2.291 . S
O1140 C1155 1.255 . S
O1141 Eu1103 2.372 . S
O1141 C1155 1.257 . S
O1142 Eu1103 2.462 . S
O1142 C1167 1.252 . S
O1143 Eu1103 2.373 . S
O1143 C1159 1.249 . S
O1144 Eu1092 2.335 . S
O1144 C1159 1.264 . S
O1145 Eu1103 2.432 . S
O1145 C1167 1.268 . S
O1146 Eu1103 2.291 . S
O1146 C1166 1.255 . S
O1147 Eu1092 2.372 . S
O1147 C1166 1.257 . S
C1148 O1137 1.249 . S
C1148 O1138 1.264 . S
C1149 C1152 1.382 . S
C1149 C1154 1.390 . S
C1149 C1156 1.506 . S
C1150 C1151 1.398 . S
C1150 C1154 1.392 . S
C1151 C1150 1.398 . S
C1151 C1153 1.372 . S
C1151 H1168 0.931 . S
C1152 C1149 1.382 . S
C1152 C1153 1.390 . S
C1152 H1169 0.931 . S
C1153 C1151 1.372 . S
C1153 C1152 1.390 . S
C1153 H1170 0.929 . S
C1154 C1149 1.390 . S
C1154 C1150 1.392 . S
C1154 H1171 0.930 . S
C1155 O1140 1.255 . S
C1155 O1141 1.257 . S
C1156 Eu1092 2.787 . S
C1156 O1136 1.252 . S
C1156 O1139 1.268 . S
C1156 C1149 1.506 . S
C1157 C1124 1.439 1_565 S
C1157 H1134 0.931 . S
C1157 C1158 1.374 . S
C1158 C1129 1.387 . S
C1158 H1135 0.931 . S
C1158 C1157 1.374 . S
C1159 O1143 1.249 . S
C1159 O1144 1.264 . S
C1160 C1163 1.382 . S
C1160 C1164 1.390 . S
C1160 C1167 1.506 . S
C1161 C1162 1.398 . S
C1161 C1164 1.392 . S
C1162 C1161 1.398 . S
C1162 C1165 1.372 . S
C1162 H1172 0.931 . S
C1163 C1160 1.382 . S
C1163 C1165 1.390 . S
C1163 H1173 0.931 . S
C1164 C1160 1.390 . S
C1164 C1161 1.392 . S
C1164 H1174 0.930 . S
C1165 C1162 1.372 . S
C1165 C1163 1.390 . S
C1165 H1175 0.929 . S
C1166 O1146 1.255 . S
C1166 O1147 1.257 . S
C1167 Eu1103 2.787 . S
C1167 O1142 1.252 . S
C1167 O1145 1.268 . S
C1167 C1160 1.506 . S
H1168 C1151 0.931 . S
H1169 C1152 0.931 . S
H1170 C1153 0.929 . S
H1171 C1154 0.930 . S
H1172 C1162 0.931 . S
H1173 C1163 0.931 . S
H1174 C1164 0.930 . S
H1175 C1165 0.929 . S
Eu1176 N1205 2.600 . S
Eu1176 N1211 2.562 . S
Eu1176 O1220 2.462 . S
Eu1176 O1221 2.373 . S
Eu1176 O1223 2.432 . S
Eu1176 O1224 2.291 . S
Eu1176 O1228 2.335 . S
Eu1176 O1231 2.372 . S
Eu1176 C1240 2.787 . S
C1177 N1178 1.365 . S
C1177 C1180 1.405 . S
C1177 C1184 1.448 . S
N1178 C1177 1.365 . S
N1178 C1181 1.319 . S
N1178 Eu1187 2.600 . S
C1179 C1181 1.397 . S
C1179 C1182 1.367 . S
C1179 H1199 0.931 . S
C1180 C1177 1.405 . S
C1180 C1182 1.403 . S
C1180 C1186 1.439 . S
C1181 N1178 1.319 . S
C1181 C1179 1.397 . S
C1181 H1192 0.930 . S
C1182 C1179 1.367 . S
C1182 C1180 1.403 . S
C1182 H1203 0.929 . S
C1183 C1184 1.430 . S
C1183 C1185 1.387 . S
C1183 C1189 1.404 . S
C1184 C1177 1.448 . S
C1184 C1183 1.430 . S
C1184 N1188 1.351 . S
C1185 C1183 1.387 . S
C1185 C1186 1.374 . S
C1185 H1200 0.931 1_545 S
C1186 C1180 1.439 . S
C1186 C1185 1.374 . S
C1186 H1201 0.931 . S
Eu1187 N1178 2.600 . S
Eu1187 N1188 2.562 . S
Eu1187 O1222 2.335 . S
Eu1187 O1225 2.372 . S
Eu1187 O1226 2.462 . S
Eu1187 O1227 2.373 . S
Eu1187 O1229 2.432 . S
Eu1187 O1230 2.291 . S
Eu1187 C1251 2.787 . S
N1188 C1184 1.351 . S
N1188 Eu1187 2.562 . S
N1188 C1190 1.325 . S
C1189 C1183 1.404 . S
C1189 C1191 1.366 . S
C1189 H1197 0.930 1_545 S
C1190 N1188 1.325 . S
C1190 C1191 1.416 . S
C1190 H1196 0.929 . S
C1191 C1189 1.366 . S
C1191 C1190 1.416 . S
C1191 H1193 0.930 . S
H1192 C1181 0.930 . S
H1193 C1191 0.930 . S
H1194 C1209 0.930 . S
H1195 C1216 0.930 . S
H1196 C1190 0.929 . S
H1197 C1189 0.930 1_565 S
H1198 C1212 0.929 . S
H1199 C1179 0.931 . S
H1200 C1185 0.931 1_565 S
H1201 C1186 0.931 . S
H1202 C1207 0.931 . S
H1203 C1182 0.929 . S
H1204 C1215 0.930 . S
N1205 Eu1176 2.600 . S
N1205 C1206 1.360 1_655 S
N1205 C1209 1.319 . S
C1206 N1205 1.360 1_455 S
C1206 C1208 1.409 . S
C1206 C1214 1.448 . S
C1207 H1202 0.931 . S
C1207 C1209 1.397 . S
C1207 C1210 1.367 1_655 S
C1208 C1206 1.409 . S
C1208 C1210 1.403 . S
C1208 C1241 1.439 . S
C1209 H1194 0.930 . S
C1209 N1205 1.319 . S
C1209 C1207 1.397 . S
C1210 C1207 1.367 1_455 S
C1210 C1208 1.403 . S
C1210 H1217 0.929 . S
N1211 Eu1176 2.562 . S
N1211 C1212 1.325 . S
N1211 C1214 1.351 1_655 S
C1212 H1198 0.929 . S
C1212 N1211 1.325 . S
C1212 C1216 1.416 1_655 S
C1213 C1214 1.430 . S
C1213 C1215 1.404 . S
C1213 C1242 1.387 . S
C1214 C1206 1.448 . S
C1214 N1211 1.351 1_455 S
C1214 C1213 1.430 . S
C1215 H1204 0.930 . S
C1215 C1213 1.404 . S
C1215 C1216 1.366 . S
C1216 H1195 0.930 . S
C1216 C1212 1.416 1_455 S
C1216 C1215 1.366 . S
H1217 C1210 0.929 . S
H1218 C1241 0.931 . S
H1219 C1242 0.931 . S
O1220 Eu1176 2.462 . S
O1220 C1240 1.252 . S
O1221 Eu1176 2.373 . S
O1221 C1232 1.249 . S
O1222 Eu1187 2.335 . S
O1222 C1232 1.264 . S
O1223 Eu1176 2.432 . S
O1223 C1240 1.268 . S
O1224 Eu1176 2.291 . S
O1224 C1239 1.255 . S
O1225 Eu1187 2.372 . S
O1225 C1239 1.257 . S
O1226 Eu1187 2.462 . S
O1226 C1251 1.252 . S
O1227 Eu1187 2.373 . S
O1227 C1243 1.249 . S
O1228 Eu1176 2.335 . S
O1228 C1243 1.264 . S
O1229 Eu1187 2.432 . S
O1229 C1251 1.268 . S
O1230 Eu1187 2.291 . S
O1230 C1250 1.255 . S
O1231 Eu1176 2.372 . S
O1231 C1250 1.257 . S
C1232 O1221 1.249 . S
C1232 O1222 1.264 . S
C1233 C1236 1.382 . S
C1233 C1238 1.390 . S
C1233 C1240 1.506 . S
C1234 C1235 1.398 . S
C1234 C1238 1.392 . S
C1235 C1234 1.398 . S
C1235 C1237 1.372 . S
C1235 H1252 0.931 . S
C1236 C1233 1.382 . S
C1236 C1237 1.390 . S
C1236 H1253 0.931 . S
C1237 C1235 1.372 . S
C1237 C1236 1.390 . S
C1237 H1254 0.929 . S
C1238 C1233 1.390 . S
C1238 C1234 1.392 . S
C1238 H1255 0.930 . S
C1239 O1224 1.255 . S
C1239 O1225 1.257 . S
C1240 Eu1176 2.787 . S
C1240 O1220 1.252 . S
C1240 O1223 1.268 . S
C1240 C1233 1.506 . S
C1241 C1208 1.439 . S
C1241 H1218 0.931 . S
C1241 C1242 1.374 . S
C1242 C1213 1.387 . S
C1242 H1219 0.931 . S
C1242 C1241 1.374 . S
C1243 O1227 1.249 . S
C1243 O1228 1.264 . S
C1244 C1247 1.392 . S
C1244 C1248 1.390 1_545 S
C1244 C1251 1.506 . S
C1245 C1246 1.398 . S
C1245 C1248 1.392 . S
C1246 C1245 1.398 . S
C1246 C1249 1.372 . S
C1246 H1256 0.931 . S
C1247 C1244 1.392 . S
C1247 C1249 1.366 1_545 S
C1247 H1257 0.945 . S
C1248 C1244 1.390 1_565 S
C1248 C1245 1.392 . S
C1248 H1258 0.919 1_565 S
C1249 C1246 1.372 . S
C1249 C1247 1.366 1_565 S
C1249 H1259 0.929 . S
C1250 O1230 1.255 . S
C1250 O1231 1.257 . S
C1251 Eu1187 2.787 . S
C1251 O1226 1.252 . S
C1251 O1229 1.268 . S
C1251 C1244 1.506 . S
H1252 C1235 0.931 . S
H1253 C1236 0.931 . S
H1254 C1237 0.929 . S
H1255 C1238 0.930 . S
H1256 C1246 0.931 . S
H1257 C1247 0.945 . S
H1258 C1248 0.919 1_545 S
H1259 C1249 0.929 . S
Eu1260 N1289 2.600 . S
Eu1260 N1295 2.562 . S
Eu1260 O1304 2.462 . S
Eu1260 O1305 2.373 . S
Eu1260 O1307 2.432 . S
Eu1260 O1308 2.291 . S
Eu1260 O1312 2.335 . S
Eu1260 O1315 2.372 . S
Eu1260 C1324 2.787 . S
C1261 N1262 1.365 . S
C1261 C1264 1.405 . S
C1261 C1268 1.448 . S
N1262 C1261 1.365 . S
N1262 C1265 1.319 . S
N1262 Eu1271 2.600 . S
C1263 C1265 1.397 . S
C1263 C1266 1.367 . S
C1263 H1283 0.931 . S
C1264 C1261 1.405 . S
C1264 C1266 1.403 . S
C1264 C1270 1.439 . S
C1265 N1262 1.319 . S
C1265 C1263 1.397 . S
C1265 H1276 0.930 . S
C1266 C1263 1.367 . S
C1266 C1264 1.403 . S
C1266 H1287 0.929 . S
C1267 C1268 1.430 . S
C1267 C1269 1.387 . S
C1267 C1273 1.404 . S
C1268 C1261 1.448 . S
C1268 C1267 1.430 . S
C1268 N1272 1.351 . S
C1269 C1267 1.387 . S
C1269 C1270 1.374 . S
C1269 H1284 0.931 . S
C1270 C1264 1.439 . S
C1270 C1269 1.374 . S
C1270 H1285 0.931 . S
Eu1271 N1262 2.600 . S
Eu1271 N1272 2.562 . S
Eu1271 O1306 2.335 . S
Eu1271 O1309 2.372 . S
Eu1271 O1310 2.462 . S
Eu1271 O1311 2.373 . S
Eu1271 O1313 2.432 . S
Eu1271 O1314 2.291 . S
Eu1271 C1335 2.787 . S
N1272 C1268 1.351 . S
N1272 Eu1271 2.562 . S
N1272 C1274 1.325 . S
C1273 C1267 1.404 . S
C1273 C1275 1.366 . S
C1273 H1281 0.930 . S
C1274 N1272 1.325 . S
C1274 C1275 1.416 . S
C1274 H1280 0.929 . S
C1275 C1273 1.366 . S
C1275 C1274 1.416 . S
C1275 H1277 0.930 . S
H1276 C1265 0.930 . S
H1277 C1275 0.930 . S
H1278 C1293 0.930 . S
H1279 C1300 0.930 . S
H1280 C1274 0.929 . S
H1281 C1273 0.930 . S
H1282 C1296 0.929 . S
H1283 C1263 0.931 . S
H1284 C1269 0.931 . S
H1285 C1270 0.931 . S
H1286 C1291 0.931 . S
H1287 C1266 0.929 . S
H1288 C1299 0.930 . S
N1289 Eu1260 2.600 . S
N1289 C1290 1.365 . S
N1289 C1293 1.319 . S
C1290 N1289 1.365 . S
C1290 C1292 1.405 . S
C1290 C1298 1.448 . S
C1291 H1286 0.931 . S
C1291 C1293 1.397 . S
C1291 C1294 1.367 . S
C1292 C1290 1.405 . S
C1292 C1294 1.403 . S
C1292 C1325 1.439 1_545 S
C1293 H1278 0.930 . S
C1293 N1289 1.319 . S
C1293 C1291 1.397 . S
C1294 C1291 1.367 . S
C1294 C1292 1.403 . S
C1294 H1301 0.929 . S
N1295 Eu1260 2.562 . S
N1295 C1296 1.325 . S
N1295 C1298 1.351 . S
C1296 H1282 0.929 . S
C1296 N1295 1.325 . S
C1296 C1300 1.416 1_545 S
C1297 C1298 1.430 1_565 S
C1297 C1299 1.404 . S
C1297 C1326 1.387 . S
C1298 C1290 1.448 . S
C1298 N1295 1.351 . S
C1298 C1297 1.430 1_545 S
C1299 H1288 0.930 . S
C1299 C1297 1.404 . S
C1299 C1300 1.366 . S
C1300 H1279 0.930 . S
C1300 C1296 1.416 1_565 S
C1300 C1299 1.366 . S
H1301 C1294 0.929 . S
H1302 C1325 0.931 . S
H1303 C1326 0.931 . S
O1304 Eu1260 2.462 . S
O1304 C1324 1.252 . S
O1305 Eu1260 2.373 . S
O1305 C1316 1.249 . S
O1306 Eu1271 2.335 . S
O1306 C1316 1.264 . S
O1307 Eu1260 2.432 . S
O1307 C1324 1.268 . S
O1308 Eu1260 2.291 . S
O1308 C1323 1.255 . S
O1309 Eu1271 2.372 . S
O1309 C1323 1.257 . S
O1310 Eu1271 2.462 . S
O1310 C1335 1.252 . S
O1311 Eu1271 2.373 . S
O1311 C1327 1.249 . S
O1312 Eu1260 2.335 . S
O1312 C1327 1.264 . S
O1313 Eu1271 2.432 . S
O1313 C1335 1.268 . S
O1314 Eu1271 2.291 . S
O1314 C1334 1.255 . S
O1315 Eu1260 2.372 . S
O1315 C1334 1.257 . S
C1316 O1305 1.249 . S
C1316 O1306 1.264 . S
C1317 C1320 1.382 . S
C1317 C1322 1.390 . S
C1317 C1324 1.506 1_565 S
C1318 C1319 1.398 . S
C1318 C1322 1.392 . S
C1319 C1318 1.398 . S
C1319 C1321 1.372 . S
C1319 H1336 0.931 . S
C1320 C1317 1.382 . S
C1320 C1321 1.390 . S
C1320 H1337 0.931 . S
C1321 C1319 1.372 . S
C1321 C1320 1.390 . S
C1321 H1338 0.929 . S
C1322 C1317 1.390 . S
C1322 C1318 1.392 . S
C1322 H1339 0.930 . S
C1323 O1308 1.255 . S
C1323 O1309 1.257 . S
C1324 Eu1260 2.787 . S
C1324 O1304 1.252 . S
C1324 O1307 1.268 . S
C1324 C1317 1.506 1_545 S
C1325 C1292 1.439 1_565 S
C1325 H1302 0.931 . S
C1325 C1326 1.374 . S
C1326 C1297 1.387 . S
C1326 H1303 0.931 . S
C1326 C1325 1.374 . S
C1327 O1311 1.249 . S
C1327 O1312 1.264 . S
C1328 C1331 1.382 . S
C1328 C1332 1.390 . S
C1328 C1335 1.506 . S
C1329 C1330 1.398 . S
C1329 C1332 1.392 . S
C1330 C1329 1.398 . S
C1330 C1333 1.372 . S
C1330 H1340 0.931 . S
C1331 C1328 1.382 . S
C1331 C1333 1.390 . S
C1331 H1341 0.931 . S
C1332 C1328 1.390 . S
C1332 C1329 1.392 . S
C1332 H1342 0.930 . S
C1333 C1330 1.372 . S
C1333 C1331 1.390 . S
C1333 H1343 0.929 . S
C1334 O1314 1.255 . S
C1334 O1315 1.257 . S
C1335 Eu1271 2.787 . S
C1335 O1310 1.252 . S
C1335 O1313 1.268 . S
C1335 C1328 1.506 . S
H1336 C1319 0.931 . S
H1337 C1320 0.931 . S
H1338 C1321 0.929 . S
H1339 C1322 0.930 . S
H1340 C1330 0.931 . S
H1341 C1331 0.931 . S
H1342 C1332 0.930 . S
H1343 C1333 0.929 . S
Eu1344 N1373 2.600 . S
Eu1344 N1379 2.562 1_655 S
Eu1344 O1388 2.462 1_655 S
Eu1344 O1389 2.373 . S
Eu1344 O1391 2.432 . S
Eu1344 O1392 2.291 . S
Eu1344 O1396 2.335 . S
Eu1344 O1399 2.372 . S
Eu1344 C1408 2.787 1_655 S
C1345 N1346 1.365 . S
C1345 C1348 1.405 . S
C1345 C1352 1.448 . S
N1346 C1345 1.365 . S
N1346 C1349 1.319 . S
N1346 Eu1355 2.600 . S
C1347 C1349 1.397 . S
C1347 C1350 1.367 . S
C1347 H1367 0.931 . S
C1348 C1345 1.405 . S
C1348 C1350 1.403 . S
C1348 C1354 1.439 1_545 S
C1349 N1346 1.319 . S
C1349 C1347 1.397 . S
C1349 H1360 0.930 . S
C1350 C1347 1.367 . S
C1350 C1348 1.403 . S
C1350 H1371 0.929 . S
C1351 C1352 1.430 1_565 S
C1351 C1353 1.387 . S
C1351 C1357 1.404 . S
C1352 C1345 1.448 . S
C1352 C1351 1.430 1_545 S
C1352 N1356 1.351 . S
C1353 C1351 1.387 . S
C1353 C1354 1.374 . S
C1353 H1368 0.931 . S
C1354 C1348 1.439 1_565 S
C1354 C1353 1.374 . S
C1354 H1369 0.931 . S
Eu1355 N1346 2.600 . S
Eu1355 N1356 2.562 . S
Eu1355 O1390 2.335 . S
Eu1355 O1393 2.372 . S
Eu1355 O1394 2.462 . S
Eu1355 O1395 2.373 . S
Eu1355 O1397 2.432 . S
Eu1355 O1398 2.291 . S
Eu1355 C1419 2.787 . S
N1356 C1352 1.351 . S
N1356 Eu1355 2.562 . S
N1356 C1358 1.325 . S
C1357 C1351 1.404 . S
C1357 C1359 1.366 1_565 S
C1357 H1365 0.930 . S
C1358 N1356 1.325 . S
C1358 C1359 1.416 . S
C1358 H1364 0.929 . S
C1359 C1357 1.366 1_545 S
C1359 C1358 1.416 . S
C1359 H1361 0.930 . S
H1360 C1349 0.930 . S
H1361 C1359 0.930 . S
H1362 C1377 0.930 . S
H1363 C1384 0.930 . S
H1364 C1358 0.929 . S
H1365 C1357 0.930 . S
H1366 C1380 0.929 . S
H1367 C1347 0.931 . S
H1368 C1353 0.931 . S
H1369 C1354 0.931 . S
H1370 C1375 0.931 . S
H1371 C1350 0.929 . S
H1372 C1383 0.930 . S
N1373 Eu1344 2.600 . S
N1373 C1374 1.365 1_655 S
N1373 C1377 1.319 . S
C1374 N1373 1.365 1_455 S
C1374 C1376 1.405 . S
C1374 C1382 1.448 . S
C1375 H1370 0.931 . S
C1375 C1377 1.397 . S
C1375 C1378 1.367 1_655 S
C1376 C1374 1.405 . S
C1376 C1378 1.403 . S
C1376 C1409 1.439 . S
C1377 H1362 0.930 . S
C1377 N1373 1.319 . S
C1377 C1375 1.397 . S
C1378 C1375 1.367 1_455 S
C1378 C1376 1.403 . S
C1378 H1385 0.929 . S
N1379 Eu1344 2.562 1_455 S
N1379 C1380 1.325 . S
N1379 C1382 1.351 . S
C1380 H1366 0.929 . S
C1380 N1379 1.325 . S
C1380 C1384 1.416 . S
C1381 C1382 1.430 . S
C1381 C1383 1.404 . S
C1381 C1410 1.387 . S
C1382 C1374 1.448 . S
C1382 N1379 1.351 . S
C1382 C1381 1.430 . S
C1383 H1372 0.930 . S
C1383 C1381 1.404 . S
C1383 C1384 1.366 . S
C1384 H1363 0.930 . S
C1384 C1380 1.416 . S
C1384 C1383 1.366 . S
H1385 C1378 0.929 . S
H1386 C1409 0.931 . S
H1387 C1410 0.931 . S
O1388 Eu1344 2.462 1_455 S
O1388 C1408 1.252 . S
O1389 Eu1344 2.373 . S
O1389 C1400 1.249 . S
O1390 Eu1355 2.335 . S
O1390 C1400 1.264 . S
O1391 Eu1344 2.432 . S
O1391 C1408 1.268 1_655 S
O1392 Eu1344 2.291 . S
O1392 C1407 1.255 . S
O1393 Eu1355 2.372 . S
O1393 C1407 1.257 . S
O1394 Eu1355 2.462 . S
O1394 C1419 1.252 . S
O1395 Eu1355 2.373 . S
O1395 C1411 1.249 . S
O1396 Eu1344 2.335 . S
O1396 C1411 1.264 . S
O1397 Eu1355 2.432 . S
O1397 C1419 1.268 . S
O1398 Eu1355 2.291 . S
O1398 C1418 1.255 . S
O1399 Eu1344 2.372 . S
O1399 C1418 1.257 . S
C1400 O1389 1.249 . S
C1400 O1390 1.264 . S
C1401 C1404 1.382 . S
C1401 C1406 1.390 . S
C1401 C1408 1.506 . S
C1402 C1403 1.398 . S
C1402 C1406 1.392 . S
C1403 C1402 1.398 . S
C1403 C1405 1.372 . S
C1403 H1420 0.931 . S
C1404 C1401 1.382 . S
C1404 C1405 1.390 . S
C1404 H1421 0.931 . S
C1405 C1403 1.372 . S
C1405 C1404 1.390 . S
C1405 H1422 0.929 . S
C1406 C1401 1.390 . S
C1406 C1402 1.392 . S
C1406 H1423 0.930 . S
C1407 O1392 1.255 . S
C1407 O1393 1.257 . S
C1408 Eu1344 2.787 1_455 S
C1408 O1388 1.252 . S
C1408 O1391 1.268 1_455 S
C1408 C1401 1.506 . S
C1409 C1376 1.439 . S
C1409 H1386 0.931 . S
C1409 C1410 1.374 . S
C1410 C1381 1.387 . S
C1410 H1387 0.931 . S
C1410 C1409 1.374 . S
C1411 O1395 1.249 . S
C1411 O1396 1.264 . S
C1412 C1415 1.382 . S
C1412 C1416 1.390 . S
C1412 C1419 1.506 . S
C1413 C1414 1.398 . S
C1413 C1416 1.392 . S
C1414 C1413 1.398 . S
C1414 C1417 1.372 . S
C1414 H1424 0.931 . S
C1415 C1412 1.382 . S
C1415 C1417 1.390 . S
C1415 H1425 0.931 . S
C1416 C1412 1.390 . S
C1416 C1413 1.392 . S
C1416 H1426 0.930 . S
C1417 C1414 1.372 . S
C1417 C1415 1.390 . S
C1417 H1427 0.929 . S
C1418 O1398 1.255 . S
C1418 O1399 1.257 . S
C1419 Eu1355 2.787 . S
C1419 O1394 1.252 . S
C1419 O1397 1.268 . S
C1419 C1412 1.506 . S
H1420 C1403 0.931 . S
H1421 C1404 0.931 . S
H1422 C1405 0.929 . S
H1423 C1406 0.930 . S
H1424 C1414 0.931 . S
H1425 C1415 0.931 . S
H1426 C1416 0.930 . S
H1427 C1417 0.929 . S
Eu1428 N1457 2.600 . S
Eu1428 N1463 2.562 . S
Eu1428 O1472 2.462 . S
Eu1428 O1473 2.373 . S
Eu1428 O1475 2.432 . S
Eu1428 O1476 2.291 . S
Eu1428 O1480 2.335 . S
Eu1428 O1483 2.372 . S
Eu1428 C1492 2.787 . S
C1429 N1430 1.365 . S
C1429 C1432 1.405 1_655 S
C1429 C1436 1.448 1_655 S
N1430 C1429 1.365 . S
N1430 C1433 1.319 . S
N1430 Eu1439 2.600 . S
C1431 C1433 1.397 . S
C1431 C1434 1.367 1_655 S
C1431 H1451 0.931 . S
C1432 C1429 1.405 1_455 S
C1432 C1434 1.403 . S
C1432 C1438 1.439 . S
C1433 N1430 1.319 . S
C1433 C1431 1.397 . S
C1433 H1444 0.930 . S
C1434 C1431 1.367 1_455 S
C1434 C1432 1.403 . S
C1434 H1455 0.929 . S
C1435 C1436 1.429 . S
C1435 C1437 1.387 . S
C1435 C1441 1.404 . S
C1436 C1429 1.448 1_455 S
C1436 C1435 1.429 . S
C1436 N1440 1.352 1_455 S
C1437 C1435 1.387 . S
C1437 C1438 1.374 . S
C1437 H1452 0.931 . S
C1438 C1432 1.439 . S
C1438 C1437 1.374 . S
C1438 H1453 0.931 . S
Eu1439 N1430 2.600 . S
Eu1439 N1440 2.562 . S
Eu1439 O1474 2.335 . S
Eu1439 O1477 2.372 . S
Eu1439 O1478 2.462 . S
Eu1439 O1479 2.373 . S
Eu1439 O1481 2.432 . S
Eu1439 O1482 2.291 . S
Eu1439 C1503 2.787 . S
N1440 C1436 1.352 1_655 S
N1440 Eu1439 2.562 . S
N1440 C1442 1.325 . S
C1441 C1435 1.404 . S
C1441 C1443 1.366 . S
C1441 H1449 0.930 . S
C1442 N1440 1.325 . S
C1442 C1443 1.416 1_655 S
C1442 H1448 0.929 . S
C1443 C1441 1.366 . S
C1443 C1442 1.416 1_455 S
C1443 H1445 0.930 . S
H1444 C1433 0.930 . S
H1445 C1443 0.930 . S
H1446 C1461 0.930 . S
H1447 C1468 0.930 . S
H1448 C1442 0.929 . S
H1449 C1441 0.930 . S
H1450 C1464 0.929 . S
H1451 C1431 0.931 . S
H1452 C1437 0.931 . S
H1453 C1438 0.931 . S
H1454 C1459 0.931 . S
H1455 C1434 0.929 . S
H1456 C1467 0.930 . S
N1457 Eu1428 2.600 . S
N1457 C1458 1.365 . S
N1457 C1461 1.319 . S
C1458 N1457 1.365 . S
C1458 C1460 1.405 . S
C1458 C1466 1.448 . S
C1459 H1454 0.931 . S
C1459 C1461 1.397 . S
C1459 C1462 1.367 . S
C1460 C1458 1.405 . S
C1460 C1462 1.403 . S
C1460 C1493 1.439 . S
C1461 H1446 0.930 . S
C1461 N1457 1.319 . S
C1461 C1459 1.397 . S
C1462 C1459 1.367 . S
C1462 C1460 1.403 . S
C1462 H1469 0.929 . S
N1463 Eu1428 2.562 . S
N1463 C1464 1.325 . S
N1463 C1466 1.351 . S
C1464 H1450 0.929 . S
C1464 N1463 1.325 . S
C1464 C1468 1.416 . S
C1465 C1466 1.430 . S
C1465 C1467 1.404 . S
C1465 C1494 1.387 . S
C1466 C1458 1.448 . S
C1466 N1463 1.351 . S
C1466 C1465 1.430 . S
C1467 H1456 0.930 . S
C1467 C1465 1.404 . S
C1467 C1468 1.366 . S
C1468 H1447 0.930 . S
C1468 C1464 1.416 . S
C1468 C1467 1.366 . S
H1469 C1462 0.929 . S
H1470 C1493 0.931 . S
H1471 C1494 0.931 . S
O1472 Eu1428 2.462 . S
O1472 C1492 1.252 . S
O1473 Eu1428 2.373 . S
O1473 C1484 1.249 . S
O1474 Eu1439 2.335 . S
O1474 C1484 1.264 . S
O1475 Eu1428 2.432 . S
O1475 C1492 1.268 . S
O1476 Eu1428 2.291 . S
O1476 C1491 1.255 . S
O1477 Eu1439 2.372 . S
O1477 C1491 1.257 . S
O1478 Eu1439 2.462 . S
O1478 C1503 1.252 . S
O1479 Eu1439 2.373 . S
O1479 C1495 1.249 . S
O1480 Eu1428 2.335 . S
O1480 C1495 1.264 . S
O1481 Eu1439 2.432 . S
O1481 C1503 1.268 . S
O1482 Eu1439 2.291 . S
O1482 C1502 1.255 . S
O1483 Eu1428 2.372 . S
O1483 C1502 1.257 . S
C1484 O1473 1.249 . S
C1484 O1474 1.264 . S
C1485 C1488 1.382 . S
C1485 C1490 1.390 . S
C1485 C1492 1.506 . S
C1486 C1487 1.398 . S
C1486 C1490 1.392 . S
C1487 C1486 1.398 . S
C1487 C1489 1.372 . S
C1487 H1504 0.931 . S
C1488 C1485 1.382 . S
C1488 C1489 1.390 . S
C1488 H1505 0.931 . S
C1489 C1487 1.372 . S
C1489 C1488 1.390 . S
C1489 H1506 0.929 . S
C1490 C1485 1.390 . S
C1490 C1486 1.392 . S
C1490 H1507 0.930 . S
C1491 O1476 1.255 . S
C1491 O1477 1.257 . S
C1492 Eu1428 2.787 . S
C1492 O1472 1.252 . S
C1492 O1475 1.268 . S
C1492 C1485 1.506 . S
C1493 C1460 1.439 . S
C1493 H1470 0.931 . S
C1493 C1494 1.374 . S
C1494 C1465 1.387 . S
C1494 H1471 0.931 . S
C1494 C1493 1.374 . S
C1495 O1479 1.249 . S
C1495 O1480 1.264 . S
C1496 C1499 1.382 . S
C1496 C1500 1.390 . S
C1496 C1503 1.506 . S
C1497 C1498 1.398 . S
C1497 C1500 1.392 . S
C1498 C1497 1.398 . S
C1498 C1501 1.372 . S
C1498 H1508 0.931 . S
C1499 C1496 1.382 . S
C1499 C1501 1.390 . S
C1499 H1509 0.931 . S
C1500 C1496 1.390 . S
C1500 C1497 1.392 . S
C1500 H1510 0.930 . S
C1501 C1498 1.372 . S
C1501 C1499 1.390 . S
C1501 H1511 0.929 . S
C1502 O1482 1.255 . S
C1502 O1483 1.257 . S
C1503 Eu1439 2.787 . S
C1503 O1478 1.252 . S
C1503 O1481 1.268 . S
C1503 C1496 1.506 . S
H1504 C1487 0.931 . S
H1505 C1488 0.931 . S
H1506 C1489 0.929 . S
H1507 C1490 0.930 . S
H1508 C1498 0.931 . S
H1509 C1499 0.931 . S
H1510 C1500 0.930 . S
H1511 C1501 0.929 . S
C1512 C1513 1.363 . S
C1512 C1518 1.379 . S
C1512 N1520 1.356 . S
C1513 C1512 1.363 . S
C1513 C1519 1.363 . S
C1514 C1515 1.363 . S
C1514 C1519 1.379 . S
C1514 N1521 1.356 . S
C1515 C1514 1.363 . S
C1515 C1518 1.363 . S
N1516 C1518 1.356 . S
N1516 H1528 0.984 . S
N1516 H1529 0.985 . S
N1517 C1519 1.356 . S
N1517 H1522 0.984 . S
N1517 H1523 0.985 . S
C1518 C1512 1.379 . S
C1518 C1515 1.363 . S
C1518 N1516 1.356 . S
C1519 C1513 1.363 . S
C1519 C1514 1.379 . S
C1519 N1517 1.356 . S
N1520 C1512 1.356 . S
N1520 H1526 0.984 . S
N1520 H1527 0.984 . S
N1521 C1514 1.356 . S
N1521 H1524 0.984 . S
N1521 H1525 0.985 . S
H1522 N1517 0.984 . S
H1523 N1517 0.985 . S
H1524 N1521 0.984 . S
H1525 N1521 0.985 . S
H1526 N1520 0.984 . S
H1527 N1520 0.984 . S
H1528 N1516 0.984 . S
H1529 N1516 0.985 . S
C1530 C1531 1.363 . S
C1530 C1536 1.379 . S
C1530 N1538 1.356 . S
C1531 C1530 1.363 . S
C1531 C1537 1.363 . S
C1532 C1533 1.363 . S
C1532 C1537 1.379 . S
C1532 N1539 1.356 . S
C1533 C1532 1.363 . S
C1533 C1536 1.363 . S
N1534 C1536 1.356 . S
N1534 H1546 0.984 . S
N1534 H1547 0.985 . S
N1535 C1537 1.356 . S
N1535 H1540 0.984 . S
N1535 H1541 0.985 . S
C1536 C1530 1.379 . S
C1536 C1533 1.363 . S
C1536 N1534 1.356 . S
C1537 C1531 1.363 . S
C1537 C1532 1.379 . S
C1537 N1535 1.356 . S
N1538 C1530 1.356 . S
N1538 H1544 0.984 . S
N1538 H1545 0.984 . S
N1539 C1532 1.356 . S
N1539 H1542 0.984 . S
N1539 H1543 0.985 . S
H1540 N1535 0.984 . S
H1541 N1535 0.985 . S
H1542 N1539 0.984 . S
H1543 N1539 0.985 . S
H1544 N1538 0.984 . S
H1545 N1538 0.984 . S
H1546 N1534 0.984 . S
H1547 N1534 0.985 . S
C1548 C1549 1.363 . S
C1548 C1554 1.379 . S
C1548 N1556 1.356 . S
C1549 C1548 1.363 . S
C1549 C1555 1.363 . S
C1550 C1551 1.363 . S
C1550 C1555 1.379 . S
C1550 N1557 1.356 . S
C1551 C1550 1.363 . S
C1551 C1554 1.363 . S
N1552 C1554 1.356 . S
N1552 H1564 0.984 . S
N1552 H1565 0.985 . S
N1553 C1555 1.356 . S
N1553 H1558 0.984 . S
N1553 H1559 0.985 . S
C1554 C1548 1.379 . S
C1554 C1551 1.363 . S
C1554 N1552 1.356 . S
C1555 C1549 1.363 . S
C1555 C1550 1.379 . S
C1555 N1553 1.356 . S
N1556 C1548 1.356 . S
N1556 H1562 0.984 . S
N1556 H1563 0.984 . S
N1557 C1550 1.356 . S
N1557 H1560 0.984 . S
N1557 H1561 0.985 . S
H1558 N1553 0.984 . S
H1559 N1553 0.985 . S
H1560 N1557 0.984 . S
H1561 N1557 0.985 . S
H1562 N1556 0.984 . S
H1563 N1556 0.984 . S
H1564 N1552 0.984 . S
H1565 N1552 0.985 . S
C1566 C1567 1.363 . S
C1566 C1572 1.379 . S
C1566 N1574 1.356 . S
C1567 C1566 1.363 . S
C1567 C1573 1.363 . S
C1568 C1569 1.363 . S
C1568 C1573 1.379 . S
C1568 N1575 1.356 . S
C1569 C1568 1.363 . S
C1569 C1572 1.363 . S
N1570 C1572 1.356 . S
N1570 H1582 0.984 . S
N1570 H1583 0.985 . S
N1571 C1573 1.356 . S
N1571 H1576 0.984 . S
N1571 H1577 0.985 . S
C1572 C1566 1.379 . S
C1572 C1569 1.363 . S
C1572 N1570 1.356 . S
C1573 C1567 1.363 . S
C1573 C1568 1.379 . S
C1573 N1571 1.356 . S
N1574 C1566 1.356 . S
N1574 H1580 0.984 . S
N1574 H1581 0.984 . S
N1575 C1568 1.356 . S
N1575 H1578 0.984 . S
N1575 H1579 0.985 . S
H1576 N1571 0.984 . S
H1577 N1571 0.985 . S
H1578 N1575 0.984 . S
H1579 N1575 0.985 . S
H1580 N1574 0.984 . S
H1581 N1574 0.984 . S
H1582 N1570 0.984 . S
H1583 N1570 0.985 . S
C1584 C1585 1.363 . S
C1584 C1590 1.379 . S
C1584 N1592 1.356 . S
C1585 C1584 1.363 . S
C1585 C1591 1.363 . S
C1586 C1587 1.363 . S
C1586 C1591 1.379 . S
C1586 N1593 1.356 . S
C1587 C1586 1.363 . S
C1587 C1590 1.363 . S
N1588 C1590 1.356 . S
N1588 H1600 0.984 . S
N1588 H1601 0.985 . S
N1589 C1591 1.356 . S
N1589 H1594 0.984 . S
N1589 H1595 0.985 . S
C1590 C1584 1.379 . S
C1590 C1587 1.363 . S
C1590 N1588 1.356 . S
C1591 C1585 1.363 . S
C1591 C1586 1.379 . S
C1591 N1589 1.356 . S
N1592 C1584 1.356 . S
N1592 H1598 0.984 . S
N1592 H1599 0.984 . S
N1593 C1586 1.356 . S
N1593 H1596 0.984 . S
N1593 H1597 0.985 . S
H1594 N1589 0.984 . S
H1595 N1589 0.985 . S
H1596 N1593 0.984 . S
H1597 N1593 0.985 . S
H1598 N1592 0.984 . S
H1599 N1592 0.984 . S
H1600 N1588 0.984 . S
H1601 N1588 0.985 . S
C1602 C1603 1.363 . S
C1602 C1608 1.379 . S
C1602 N1610 1.356 . S
C1603 C1602 1.363 . S
C1603 C1609 1.363 . S
C1604 C1605 1.363 . S
C1604 C1609 1.379 . S
C1604 N1611 1.356 . S
C1605 C1604 1.363 . S
C1605 C1608 1.363 . S
N1606 C1608 1.356 . S
N1606 H1618 0.984 . S
N1606 H1619 0.985 . S
N1607 C1609 1.356 . S
N1607 H1612 0.984 . S
N1607 H1613 0.985 . S
C1608 C1602 1.379 . S
C1608 C1605 1.363 . S
C1608 N1606 1.356 . S
C1609 C1603 1.363 . S
C1609 C1604 1.379 . S
C1609 N1607 1.356 . S
N1610 C1602 1.356 . S
N1610 H1616 0.984 . S
N1610 H1617 0.984 . S
N1611 C1604 1.356 . S
N1611 H1614 0.984 . S
N1611 H1615 0.985 . S
H1612 N1607 0.984 . S
H1613 N1607 0.985 . S
H1614 N1611 0.984 . S
H1615 N1611 0.985 . S
H1616 N1610 0.984 . S
H1617 N1610 0.984 . S
H1618 N1606 0.984 . S
H1619 N1606 0.985 . S
C1620 C1621 1.363 . S
C1620 C1626 1.379 . S
C1620 N1628 1.356 . S
C1621 C1620 1.363 . S
C1621 C1627 1.363 . S
C1622 C1623 1.363 . S
C1622 C1627 1.379 . S
C1622 N1629 1.356 . S
C1623 C1622 1.363 . S
C1623 C1626 1.363 . S
N1624 C1626 1.356 . S
N1624 H1636 0.984 . S
N1624 H1637 0.985 . S
N1625 C1627 1.356 . S
N1625 H1630 0.984 . S
N1625 H1631 0.985 . S
C1626 C1620 1.379 . S
C1626 C1623 1.363 . S
C1626 N1624 1.356 . S
C1627 C1621 1.363 . S
C1627 C1622 1.379 . S
C1627 N1625 1.356 . S
N1628 C1620 1.356 . S
N1628 H1634 0.984 . S
N1628 H1635 0.984 . S
N1629 C1622 1.356 . S
N1629 H1632 0.984 . S
N1629 H1633 0.985 . S
H1630 N1625 0.984 . S
H1631 N1625 0.985 . S
H1632 N1629 0.984 . S
H1633 N1629 0.985 . S
H1634 N1628 0.984 . S
H1635 N1628 0.984 . S
H1636 N1624 0.984 . S
H1637 N1624 0.985 . S
C1638 C1639 1.363 . S
C1638 C1644 1.379 1_545 S
C1638 N1646 1.356 . S
C1639 C1638 1.363 . S
C1639 C1645 1.363 . S
C1640 C1641 1.363 1_545 S
C1640 C1645 1.379 . S
C1640 N1647 1.356 1_545 S
C1641 C1640 1.363 1_565 S
C1641 C1644 1.363 . S
N1642 C1644 1.356 . S
N1642 H1654 0.984 . S
N1642 H1655 0.985 . S
N1643 C1645 1.356 . S
N1643 H1648 0.984 . S
N1643 H1649 0.985 . S
C1644 C1638 1.379 1_565 S
C1644 C1641 1.363 . S
C1644 N1642 1.356 . S
C1645 C1639 1.363 . S
C1645 C1640 1.379 . S
C1645 N1643 1.356 . S
N1646 C1638 1.356 . S
N1646 H1652 0.984 . S
N1646 H1653 0.984 . S
N1647 C1640 1.356 1_565 S
N1647 H1650 0.984 . S
N1647 H1651 0.985 . S
H1648 N1643 0.984 . S
H1649 N1643 0.985 . S
H1650 N1647 0.984 . S
H1651 N1647 0.985 . S
H1652 N1646 0.984 . S
H1653 N1646 0.984 . S
H1654 N1642 0.984 . S
H1655 N1642 0.985 . S
C1656 C1657 1.363 . S
C1656 C1662 1.379 1_455 S
C1656 N1664 1.356 . S
C1657 C1656 1.363 . S
C1657 C1663 1.363 . S
C1658 C1659 1.363 1_455 S
C1658 C1663 1.379 . S
C1658 N1665 1.356 1_455 S
C1659 C1658 1.363 1_655 S
C1659 C1662 1.363 . S
N1660 C1662 1.356 . S
N1660 H1672 0.984 . S
N1660 H1673 0.985 . S
N1661 C1663 1.356 . S
N1661 H1666 0.984 . S
N1661 H1667 0.985 . S
C1662 C1656 1.379 1_655 S
C1662 C1659 1.363 . S
C1662 N1660 1.356 . S
C1663 C1657 1.363 . S
C1663 C1658 1.379 . S
C1663 N1661 1.356 . S
N1664 C1656 1.356 . S
N1664 H1670 0.984 . S
N1664 H1671 0.984 . S
N1665 C1658 1.356 1_655 S
N1665 H1668 0.984 . S
N1665 H1669 0.985 . S
H1666 N1661 0.984 . S
H1667 N1661 0.985 . S
H1668 N1665 0.984 . S
H1669 N1665 0.985 . S
H1670 N1664 0.984 . S
H1671 N1664 0.984 . S
H1672 N1660 0.984 . S
H1673 N1660 0.985 . S
C1674 C1675 1.363 . S
C1674 C1680 1.379 . S
C1674 N1682 1.356 . S
C1675 C1674 1.363 . S
C1675 C1681 1.363 . S
C1676 C1677 1.363 . S
C1676 C1681 1.379 . S
C1676 N1683 1.356 . S
C1677 C1676 1.363 . S
C1677 C1680 1.363 . S
N1678 C1680 1.356 . S
N1678 H1690 0.984 . S
N1678 H1691 0.985 . S
N1679 C1681 1.356 . S
N1679 H1684 0.984 . S
N1679 H1685 0.985 . S
C1680 C1674 1.379 . S
C1680 C1677 1.363 . S
C1680 N1678 1.356 . S
C1681 C1675 1.363 . S
C1681 C1676 1.379 . S
C1681 N1679 1.356 . S
N1682 C1674 1.356 . S
N1682 H1688 0.984 . S
N1682 H1689 0.984 . S
N1683 C1676 1.356 . S
N1683 H1686 0.984 . S
N1683 H1687 0.985 . S
H1684 N1679 0.984 . S
H1685 N1679 0.985 . S
H1686 N1683 0.984 . S
H1687 N1683 0.985 . S
H1688 N1682 0.984 . S
H1689 N1682 0.984 . S
H1690 N1678 0.984 . S
H1691 N1678 0.985 . S
C1692 C1693 1.363 . S
C1692 C1698 1.379 . S
C1692 N1700 1.356 . S
C1693 C1692 1.363 . S
C1693 C1699 1.363 . S
C1694 C1695 1.363 . S
C1694 C1699 1.379 . S
C1694 N1701 1.356 . S
C1695 C1694 1.363 . S
C1695 C1698 1.363 . S
N1696 C1698 1.356 . S
N1696 H1708 0.984 . S
N1696 H1709 0.985 . S
N1697 C1699 1.356 . S
N1697 H1702 0.984 . S
N1697 H1703 0.985 . S
C1698 C1692 1.379 . S
C1698 C1695 1.363 . S
C1698 N1696 1.356 . S
C1699 C1693 1.363 . S
C1699 C1694 1.379 . S
C1699 N1697 1.356 . S
N1700 C1692 1.356 . S
N1700 H1706 0.984 . S
N1700 H1707 0.984 . S
N1701 C1694 1.356 . S
N1701 H1704 0.984 . S
N1701 H1705 0.985 . S
H1702 N1697 0.984 . S
H1703 N1697 0.985 . S
H1704 N1701 0.984 . S
H1705 N1701 0.985 . S
H1706 N1700 0.984 . S
H1707 N1700 0.984 . S
H1708 N1696 0.984 . S
H1709 N1696 0.985 . S
C1710 C1711 1.363 . S
C1710 C1716 1.379 . S
C1710 N1718 1.356 . S
C1711 C1710 1.363 . S
C1711 C1717 1.363 . S
C1712 C1713 1.363 . S
C1712 C1717 1.379 . S
C1712 N1719 1.356 . S
C1713 C1712 1.363 . S
C1713 C1716 1.363 . S
N1714 C1716 1.356 . S
N1714 H1726 0.984 . S
N1714 H1727 0.985 . S
N1715 C1717 1.356 . S
N1715 H1720 0.984 . S
N1715 H1721 0.985 . S
C1716 C1710 1.379 . S
C1716 C1713 1.363 . S
C1716 N1714 1.356 . S
C1717 C1711 1.363 . S
C1717 C1712 1.379 . S
C1717 N1715 1.356 . S
N1718 C1710 1.356 . S
N1718 H1724 0.984 . S
N1718 H1725 0.984 . S
N1719 C1712 1.356 . S
N1719 H1722 0.984 . S
N1719 H1723 0.985 . S
H1720 N1715 0.984 . S
H1721 N1715 0.985 . S
H1722 N1719 0.984 . S
H1723 N1719 0.985 . S
H1724 N1718 0.984 . S
H1725 N1718 0.984 . S
H1726 N1714 0.984 . S
H1727 N1714 0.985 . S
C1728 C1729 1.363 . S
C1728 C1734 1.379 . S
C1728 N1736 1.356 . S
C1729 C1728 1.363 . S
C1729 C1735 1.363 . S
C1730 C1731 1.363 . S
C1730 C1735 1.379 . S
C1730 N1737 1.356 . S
C1731 C1730 1.363 . S
C1731 C1734 1.363 . S
N1732 C1734 1.356 . S
N1732 H1744 0.984 . S
N1732 H1745 0.985 . S
N1733 C1735 1.356 . S
N1733 H1738 0.984 . S
N1733 H1739 0.985 . S
C1734 C1728 1.379 . S
C1734 C1731 1.363 . S
C1734 N1732 1.356 . S
C1735 C1729 1.363 . S
C1735 C1730 1.379 . S
C1735 N1733 1.356 . S
N1736 C1728 1.356 . S
N1736 H1742 0.984 . S
N1736 H1743 0.984 . S
N1737 C1730 1.356 . S
N1737 H1740 0.984 . S
N1737 H1741 0.985 . S
H1738 N1733 0.984 . S
H1739 N1733 0.985 . S
H1740 N1737 0.984 . S
H1741 N1737 0.985 . S
H1742 N1736 0.984 . S
H1743 N1736 0.984 . S
H1744 N1732 0.984 . S
H1745 N1732 0.985 . S
C1746 C1747 1.363 . S
C1746 C1752 1.379 . S
C1746 N1754 1.356 . S
C1747 C1746 1.363 . S
C1747 C1753 1.363 . S
C1748 C1749 1.363 . S
C1748 C1753 1.379 . S
C1748 N1755 1.356 . S
C1749 C1748 1.363 . S
C1749 C1752 1.363 . S
N1750 C1752 1.356 . S
N1750 H1762 0.984 . S
N1750 H1763 0.985 . S
N1751 C1753 1.356 . S
N1751 H1756 0.984 . S
N1751 H1757 0.985 . S
C1752 C1746 1.379 . S
C1752 C1749 1.363 . S
C1752 N1750 1.356 . S
C1753 C1747 1.363 . S
C1753 C1748 1.379 . S
C1753 N1751 1.356 . S
N1754 C1746 1.356 . S
N1754 H1760 0.984 . S
N1754 H1761 0.984 . S
N1755 C1748 1.356 . S
N1755 H1758 0.984 . S
N1755 H1759 0.985 . S
H1756 N1751 0.984 . S
H1757 N1751 0.985 . S
H1758 N1755 0.984 . S
H1759 N1755 0.985 . S
H1760 N1754 0.984 . S
H1761 N1754 0.984 . S
H1762 N1750 0.984 . S
H1763 N1750 0.985 . S
C1764 C1765 1.363 . S
C1764 C1770 1.379 . S
C1764 N1772 1.356 . S
C1765 C1764 1.363 . S
C1765 C1771 1.363 . S
C1766 C1767 1.363 . S
C1766 C1771 1.379 . S
C1766 N1773 1.356 . S
C1767 C1766 1.363 . S
C1767 C1770 1.363 . S
N1768 C1770 1.356 . S
N1768 H1780 0.984 . S
N1768 H1781 0.985 . S
N1769 C1771 1.356 . S
N1769 H1774 0.984 . S
N1769 H1775 0.985 . S
C1770 C1764 1.379 . S
C1770 C1767 1.363 . S
C1770 N1768 1.356 . S
C1771 C1765 1.363 . S
C1771 C1766 1.379 . S
C1771 N1769 1.356 . S
N1772 C1764 1.356 . S
N1772 H1778 0.984 . S
N1772 H1779 0.984 . S
N1773 C1766 1.356 . S
N1773 H1776 0.984 . S
N1773 H1777 0.985 . S
H1774 N1769 0.984 . S
H1775 N1769 0.985 . S
H1776 N1773 0.984 . S
H1777 N1773 0.985 . S
H1778 N1772 0.984 . S
H1779 N1772 0.984 . S
H1780 N1768 0.984 . S
H1781 N1768 0.985 . S
C1782 C1783 1.363 . S
C1782 C1788 1.379 . S
C1782 N1790 1.356 . S
C1783 C1782 1.363 . S
C1783 C1789 1.363 . S
C1784 C1785 1.363 . S
C1784 C1789 1.379 . S
C1784 N1791 1.356 . S
C1785 C1784 1.363 . S
C1785 C1788 1.363 . S
N1786 C1788 1.356 . S
N1786 H1798 0.984 . S
N1786 H1799 0.985 . S
N1787 C1789 1.356 . S
N1787 H1792 0.984 . S
N1787 H1793 0.985 . S
C1788 C1782 1.379 . S
C1788 C1785 1.363 . S
C1788 N1786 1.356 . S
C1789 C1783 1.363 . S
C1789 C1784 1.379 . S
C1789 N1787 1.356 . S
N1790 C1782 1.356 . S
N1790 H1796 0.984 . S
N1790 H1797 0.984 . S
N1791 C1784 1.356 . S
N1791 H1794 0.984 . S
N1791 H1795 0.985 . S
H1792 N1787 0.984 . S
H1793 N1787 0.985 . S
H1794 N1791 0.984 . S
H1795 N1791 0.985 . S
H1796 N1790 0.984 . S
H1797 N1790 0.984 . S
H1798 N1786 0.984 . S
H1799 N1786 0.985 . S
C1800 C1801 1.363 . S
C1800 C1806 1.379 1_565 S
C1800 N1808 1.356 . S
C1801 C1800 1.363 . S
C1801 C1807 1.363 1_565 S
C1802 C1803 1.363 . S
C1802 C1807 1.379 . S
C1802 N1809 1.356 . S
C1803 C1802 1.363 . S
C1803 C1806 1.363 . S
N1804 C1806 1.356 . S
N1804 H1816 0.984 . S
N1804 H1817 0.985 . S
N1805 C1807 1.356 1_565 S
N1805 H1810 0.984 . S
N1805 H1811 0.985 . S
C1806 C1800 1.379 1_545 S
C1806 C1803 1.363 . S
C1806 N1804 1.356 . S
C1807 C1801 1.363 1_545 S
C1807 C1802 1.379 . S
C1807 N1805 1.356 1_545 S
N1808 C1800 1.356 . S
N1808 H1814 0.984 . S
N1808 H1815 0.984 . S
N1809 C1802 1.356 . S
N1809 H1812 0.984 . S
N1809 H1813 0.985 . S
H1810 N1805 0.984 . S
H1811 N1805 0.985 . S
H1812 N1809 0.984 . S
H1813 N1809 0.985 . S
H1814 N1808 0.984 . S
H1815 N1808 0.984 . S
H1816 N1804 0.984 . S
H1817 N1804 0.985 . S
C1818 C1819 1.363 . S
C1818 C1824 1.379 1_455 S
C1818 N1826 1.356 . S
C1819 C1818 1.363 . S
C1819 C1825 1.363 . S
C1820 C1821 1.363 1_455 S
C1820 C1825 1.379 . S
C1820 N1827 1.356 1_455 S
C1821 C1820 1.363 1_655 S
C1821 C1824 1.363 . S
N1822 C1824 1.356 . S
N1822 H1834 0.984 . S
N1822 H1835 0.985 . S
N1823 C1825 1.356 . S
N1823 H1828 0.984 . S
N1823 H1829 0.985 . S
C1824 C1818 1.379 1_655 S
C1824 C1821 1.363 . S
C1824 N1822 1.356 . S
C1825 C1819 1.363 . S
C1825 C1820 1.379 . S
C1825 N1823 1.356 . S
N1826 C1818 1.356 . S
N1826 H1832 0.984 . S
N1826 H1833 0.984 . S
N1827 C1820 1.356 1_655 S
N1827 H1830 0.984 . S
N1827 H1831 0.985 . S
H1828 N1823 0.984 . S
H1829 N1823 0.985 . S
H1830 N1827 0.984 . S
H1831 N1827 0.985 . S
H1832 N1826 0.984 . S
H1833 N1826 0.984 . S
H1834 N1822 0.984 . S
H1835 N1822 0.985 . S
C1836 C1837 1.363 1_565 S
C1836 C1842 1.379 1_554 S
C1836 N1844 1.356 . S
C1837 C1836 1.363 1_545 S
C1837 C1843 1.363 . S
C1838 C1839 1.363 . S
C1838 C1843 1.379 1_556 S
C1838 N1845 1.356 . S
C1839 C1838 1.363 . S
C1839 C1842 1.363 1_545 S
N1840 C1842 1.356 . S
N1840 H1852 0.984 . S
N1840 H1853 0.985 . S
N1841 C1843 1.356 . S
N1841 H1846 0.984 . S
N1841 H1847 0.985 . S
C1842 C1836 1.379 1_556 S
C1842 C1839 1.363 1_565 S
C1842 N1840 1.356 . S
C1843 C1837 1.363 . S
C1843 C1838 1.379 1_554 S
C1843 N1841 1.356 . S
N1844 C1836 1.356 . S
N1844 H1850 0.984 . S
N1844 H1851 0.984 . S
N1845 C1838 1.356 . S
N1845 H1848 0.984 . S
N1845 H1849 0.985 . S
H1846 N1841 0.984 . S
H1847 N1841 0.985 . S
H1848 N1845 0.984 . S
H1849 N1845 0.985 . S
H1850 N1844 0.984 . S
H1851 N1844 0.984 . S
H1852 N1840 0.984 . S
H1853 N1840 0.985 . S
C1854 C1855 1.363 . S
C1854 C1860 1.379 1_456 S
C1854 N1862 1.356 1_455 S
C1855 C1854 1.363 . S
C1855 C1861 1.363 . S
C1856 C1857 1.363 . S
C1856 C1861 1.379 1_554 S
C1856 N1863 1.356 . S
C1857 C1856 1.363 . S
C1857 C1860 1.363 1_455 S
N1858 C1860 1.356 . S
N1858 H1870 0.984 . S
N1858 H1871 0.985 . S
N1859 C1861 1.356 . S
N1859 H1864 0.984 . S
N1859 H1865 0.985 . S
C1860 C1854 1.379 1_654 S
C1860 C1857 1.363 1_655 S
C1860 N1858 1.356 . S
C1861 C1855 1.363 . S
C1861 C1856 1.379 1_556 S
C1861 N1859 1.356 . S
N1862 C1854 1.356 1_655 S
N1862 H1868 0.984 . S
N1862 H1869 0.984 1_655 S
N1863 C1856 1.356 . S
N1863 H1866 0.984 . S
N1863 H1867 0.985 . S
H1864 N1859 0.984 . S
H1865 N1859 0.985 . S
H1866 N1863 0.984 . S
H1867 N1863 0.985 . S
H1868 N1862 0.984 . S
H1869 N1862 0.984 1_455 S
H1870 N1858 0.984 . S
H1871 N1858 0.985 . S
C1872 C1873 1.363 . S
C1872 C1878 1.379 1_556 S
C1872 N1880 1.356 . S
C1873 C1872 1.363 . S
C1873 C1879 1.363 . S
C1874 C1875 1.363 . S
C1874 C1879 1.379 1_554 S
C1874 N1881 1.356 . S
C1875 C1874 1.363 . S
C1875 C1878 1.363 . S
N1876 C1878 1.356 . S
N1876 H1888 0.984 . S
N1876 H1889 0.985 . S
N1877 C1879 1.356 . S
N1877 H1882 0.984 . S
N1877 H1883 0.985 . S
C1878 C1872 1.379 1_554 S
C1878 C1875 1.363 . S
C1878 N1876 1.356 . S
C1879 C1873 1.363 . S
C1879 C1874 1.379 1_556 S
C1879 N1877 1.356 . S
N1880 C1872 1.356 . S
N1880 H1886 0.984 . S
N1880 H1887 0.984 . S
N1881 C1874 1.356 . S
N1881 H1884 0.984 . S
N1881 H1885 0.985 . S
H1882 N1877 0.984 . S
H1883 N1877 0.985 . S
H1884 N1881 0.984 . S
H1885 N1881 0.985 . S
H1886 N1880 0.984 . S
H1887 N1880 0.984 . S
H1888 N1876 0.984 . S
H1889 N1876 0.985 . S
C1890 C1891 1.363 . S
C1890 C1896 1.379 . S
C1890 N1898 1.356 . S
C1891 C1890 1.363 . S
C1891 C1897 1.363 . S
C1892 C1893 1.363 . S
C1892 C1897 1.379 . S
C1892 N1899 1.356 . S
C1893 C1892 1.363 . S
C1893 C1896 1.363 . S
N1894 C1896 1.356 . S
N1894 H1906 0.984 . S
N1894 H1907 0.985 . S
N1895 C1897 1.356 . S
N1895 H1900 0.984 . S
N1895 H1901 0.985 . S
C1896 C1890 1.379 . S
C1896 C1893 1.363 . S
C1896 N1894 1.356 . S
C1897 C1891 1.363 . S
C1897 C1892 1.379 . S
C1897 N1895 1.356 . S
N1898 C1890 1.356 . S
N1898 H1904 0.984 . S
N1898 H1905 0.984 . S
N1899 C1892 1.356 . S
N1899 H1902 0.984 . S
N1899 H1903 0.985 . S
H1900 N1895 0.984 . S
H1901 N1895 0.985 . S
H1902 N1899 0.984 . S
H1903 N1899 0.985 . S
H1904 N1898 0.984 . S
H1905 N1898 0.984 . S
H1906 N1894 0.984 . S
H1907 N1894 0.985 . S
C1908 C1909 1.363 . S
C1908 C1914 1.379 . S
C1908 N1916 1.356 . S
C1909 C1908 1.363 . S
C1909 C1915 1.363 . S
C1910 C1911 1.363 . S
C1910 C1915 1.379 . S
C1910 N1917 1.356 . S
C1911 C1910 1.363 . S
C1911 C1914 1.363 . S
N1912 C1914 1.356 . S
N1912 H1924 0.984 . S
N1912 H1925 0.985 . S
N1913 C1915 1.356 . S
N1913 H1918 0.984 . S
N1913 H1919 0.985 . S
C1914 C1908 1.379 . S
C1914 C1911 1.363 . S
C1914 N1912 1.356 . S
C1915 C1909 1.363 . S
C1915 C1910 1.379 . S
C1915 N1913 1.356 . S
N1916 C1908 1.356 . S
N1916 H1922 0.984 . S
N1916 H1923 0.984 . S
N1917 C1910 1.356 . S
N1917 H1920 0.984 . S
N1917 H1921 0.985 . S
H1918 N1913 0.984 . S
H1919 N1913 0.985 . S
H1920 N1917 0.984 . S
H1921 N1917 0.985 . S
H1922 N1916 0.984 . S
H1923 N1916 0.984 . S
H1924 N1912 0.984 . S
H1925 N1912 0.985 . S
C1926 C1927 1.363 . S
C1926 C1932 1.379 . S
C1926 N1934 1.356 . S
C1927 C1926 1.363 . S
C1927 C1933 1.363 . S
C1928 C1929 1.363 . S
C1928 C1933 1.379 . S
C1928 N1935 1.356 . S
C1929 C1928 1.363 . S
C1929 C1932 1.363 . S
N1930 C1932 1.356 . S
N1930 H1942 0.984 . S
N1930 H1943 0.985 . S
N1931 C1933 1.356 . S
N1931 H1936 0.984 . S
N1931 H1937 0.985 . S
C1932 C1926 1.379 . S
C1932 C1929 1.363 . S
C1932 N1930 1.356 . S
C1933 C1927 1.363 . S
C1933 C1928 1.379 . S
C1933 N1931 1.356 . S
N1934 C1926 1.356 . S
N1934 H1940 0.984 . S
N1934 H1941 0.984 . S
N1935 C1928 1.356 . S
N1935 H1938 0.984 . S
N1935 H1939 0.985 . S
H1936 N1931 0.984 . S
H1937 N1931 0.985 . S
H1938 N1935 0.984 . S
H1939 N1935 0.985 . S
H1940 N1934 0.984 . S
H1941 N1934 0.984 . S
H1942 N1930 0.984 . S
H1943 N1930 0.985 . S
C1944 C1945 1.363 . S
C1944 C1950 1.379 . S
C1944 N1952 1.356 . S
C1945 C1944 1.363 . S
C1945 C1951 1.363 . S
C1946 C1947 1.363 . S
C1946 C1951 1.379 . S
C1946 N1953 1.356 . S
C1947 C1946 1.363 . S
C1947 C1950 1.363 . S
N1948 C1950 1.356 . S
N1948 H1960 0.984 . S
N1948 H1961 0.985 . S
N1949 C1951 1.356 . S
N1949 H1954 0.984 . S
N1949 H1955 0.985 . S
C1950 C1944 1.379 . S
C1950 C1947 1.363 . S
C1950 N1948 1.356 . S
C1951 C1945 1.363 . S
C1951 C1946 1.379 . S
C1951 N1949 1.356 . S
N1952 C1944 1.356 . S
N1952 H1958 0.984 . S
N1952 H1959 0.984 . S
N1953 C1946 1.356 . S
N1953 H1956 0.984 . S
N1953 H1957 0.985 . S
H1954 N1949 0.984 . S
H1955 N1949 0.985 . S
H1956 N1953 0.984 . S
H1957 N1953 0.985 . S
H1958 N1952 0.984 . S
H1959 N1952 0.984 . S
H1960 N1948 0.984 . S
H1961 N1948 0.985 . S
C1962 C1963 1.363 . S
C1962 C1968 1.379 . S
C1962 N1970 1.356 . S
C1963 C1962 1.363 . S
C1963 C1969 1.363 . S
C1964 C1965 1.363 . S
C1964 C1969 1.379 . S
C1964 N1971 1.356 . S
C1965 C1964 1.363 . S
C1965 C1968 1.363 . S
N1966 C1968 1.356 . S
N1966 H1978 0.984 . S
N1966 H1979 0.985 . S
N1967 C1969 1.356 . S
N1967 H1972 0.984 . S
N1967 H1973 0.985 . S
C1968 C1962 1.379 . S
C1968 C1965 1.363 . S
C1968 N1966 1.356 . S
C1969 C1963 1.363 . S
C1969 C1964 1.379 . S
C1969 N1967 1.356 . S
N1970 C1962 1.356 . S
N1970 H1976 0.984 . S
N1970 H1977 0.984 . S
N1971 C1964 1.356 . S
N1971 H1974 0.984 . S
N1971 H1975 0.985 . S
H1972 N1967 0.984 . S
H1973 N1967 0.985 . S
H1974 N1971 0.984 . S
H1975 N1971 0.985 . S
H1976 N1970 0.984 . S
H1977 N1970 0.984 . S
H1978 N1966 0.984 . S
H1979 N1966 0.985 . S
C1980 C1981 1.363 . S
C1980 C1986 1.379 . S
C1980 N1988 1.356 . S
C1981 C1980 1.363 . S
C1981 C1987 1.363 . S
C1982 C1983 1.363 . S
C1982 C1987 1.379 . S
C1982 N1989 1.356 . S
C1983 C1982 1.363 . S
C1983 C1986 1.363 . S
N1984 C1986 1.356 . S
N1984 H1996 0.984 . S
N1984 H1997 0.985 . S
N1985 C1987 1.356 . S
N1985 H1990 0.984 . S
N1985 H1991 0.985 . S
C1986 C1980 1.379 . S
C1986 C1983 1.363 . S
C1986 N1984 1.356 . S
C1987 C1981 1.363 . S
C1987 C1982 1.379 . S
C1987 N1985 1.356 . S
N1988 C1980 1.356 . S
N1988 H1994 0.984 . S
N1988 H1995 0.984 . S
N1989 C1982 1.356 . S
N1989 H1992 0.984 . S
N1989 H1993 0.985 . S
H1990 N1985 0.984 . S
H1991 N1985 0.985 . S
H1992 N1989 0.984 . S
H1993 N1989 0.985 . S
H1994 N1988 0.984 . S
H1995 N1988 0.984 . S
H1996 N1984 0.984 . S
H1997 N1984 0.985 . S
C1998 C1999 1.363 . S
C1998 C2004 1.379 . S
C1998 N2006 1.356 . S
C1999 C1998 1.363 . S
C1999 C2005 1.363 . S
C2000 C2001 1.363 . S
C2000 C2005 1.379 . S
C2000 N2007 1.356 . S
C2001 C2000 1.363 . S
C2001 C2004 1.363 . S
N2002 C2004 1.356 1_545 S
N2002 H2014 0.984 . S
N2002 H2015 0.985 . S
N2003 C2005 1.356 . S
N2003 H2008 0.984 . S
N2003 H2009 0.985 . S
C2004 C1998 1.379 . S
C2004 C2001 1.363 . S
C2004 N2002 1.356 1_565 S
C2005 C1999 1.363 . S
C2005 C2000 1.379 . S
C2005 N2003 1.356 . S
N2006 C1998 1.356 . S
N2006 H2012 0.984 . S
N2006 H2013 0.984 . S
N2007 C2000 1.356 . S
N2007 H2010 0.984 . S
N2007 H2011 0.985 . S
H2008 N2003 0.984 . S
H2009 N2003 0.985 . S
H2010 N2007 0.984 . S
H2011 N2007 0.985 . S
H2012 N2006 0.984 . S
H2013 N2006 0.984 . S
H2014 N2002 0.984 . S
H2015 N2002 0.985 . S
C2016 C2017 1.363 . S
C2016 C2022 1.379 . S
C2016 N2024 1.356 . S
C2017 C2016 1.363 . S
C2017 C2023 1.363 . S
C2018 C2019 1.363 . S
C2018 C2023 1.379 . S
C2018 N2025 1.356 . S
C2019 C2018 1.363 . S
C2019 C2022 1.363 . S
N2020 C2022 1.356 . S
N2020 H2032 0.984 . S
N2020 H2033 0.985 . S
N2021 C2023 1.356 . S
N2021 H2026 0.984 . S
N2021 H2027 0.985 . S
C2022 C2016 1.379 . S
C2022 C2019 1.363 . S
C2022 N2020 1.356 . S
C2023 C2017 1.363 . S
C2023 C2018 1.379 . S
C2023 N2021 1.356 . S
N2024 C2016 1.356 . S
N2024 H2030 0.984 . S
N2024 H2031 0.984 . S
N2025 C2018 1.356 . S
N2025 H2028 0.984 . S
N2025 H2029 0.985 . S
H2026 N2021 0.984 . S
H2027 N2021 0.985 . S
H2028 N2025 0.984 . S
H2029 N2025 0.985 . S
H2030 N2024 0.984 . S
H2031 N2024 0.984 . S
H2032 N2020 0.984 . S
H2033 N2020 0.985 . S
C2034 C2035 1.363 . S
C2034 C2040 1.379 . S
C2034 N2042 1.356 . S
C2035 C2034 1.363 . S
C2035 C2041 1.363 . S
C2036 C2037 1.363 . S
C2036 C2041 1.379 . S
C2036 N2043 1.356 . S
C2037 C2036 1.363 . S
C2037 C2040 1.363 . S
N2038 C2040 1.356 . S
N2038 H2050 0.984 . S
N2038 H2051 0.985 . S
N2039 C2041 1.356 . S
N2039 H2044 0.984 . S
N2039 H2045 0.985 . S
C2040 C2034 1.379 . S
C2040 C2037 1.363 . S
C2040 N2038 1.356 . S
C2041 C2035 1.363 . S
C2041 C2036 1.379 . S
C2041 N2039 1.356 . S
N2042 C2034 1.356 . S
N2042 H2048 0.984 . S
N2042 H2049 0.984 . S
N2043 C2036 1.356 . S
N2043 H2046 0.984 . S
N2043 H2047 0.985 . S
H2044 N2039 0.984 . S
H2045 N2039 0.985 . S
H2046 N2043 0.984 . S
H2047 N2043 0.985 . S
H2048 N2042 0.984 . S
H2049 N2042 0.984 . S
H2050 N2038 0.984 . S
H2051 N2038 0.985 . S
C2052 C2053 1.363 . S
C2052 C2058 1.379 . S
C2052 N2060 1.356 . S
C2053 C2052 1.363 . S
C2053 C2059 1.363 . S
C2054 C2055 1.363 . S
C2054 C2059 1.379 . S
C2054 N2061 1.356 . S
C2055 C2054 1.363 . S
C2055 C2058 1.363 . S
N2056 C2058 1.356 . S
N2056 H2068 0.984 . S
N2056 H2069 0.985 . S
N2057 C2059 1.356 . S
N2057 H2062 0.984 . S
N2057 H2063 0.985 . S
C2058 C2052 1.379 . S
C2058 C2055 1.363 . S
C2058 N2056 1.356 . S
C2059 C2053 1.363 . S
C2059 C2054 1.379 . S
C2059 N2057 1.356 . S
N2060 C2052 1.356 . S
N2060 H2066 0.984 . S
N2060 H2067 0.984 . S
N2061 C2054 1.356 . S
N2061 H2064 0.984 . S
N2061 H2065 0.985 . S
H2062 N2057 0.984 . S
H2063 N2057 0.985 . S
H2064 N2061 0.984 . S
H2065 N2061 0.985 . S
H2066 N2060 0.984 . S
H2067 N2060 0.984 . S
H2068 N2056 0.984 . S
H2069 N2056 0.985 . S
C2070 C2071 1.363 . S
C2070 C2076 1.379 . S
C2070 N2078 1.356 . S
C2071 C2070 1.363 . S
C2071 C2077 1.363 . S
C2072 C2073 1.363 . S
C2072 C2077 1.379 . S
C2072 N2079 1.356 . S
C2073 C2072 1.363 . S
C2073 C2076 1.363 . S
N2074 C2076 1.356 . S
N2074 H2086 0.984 . S
N2074 H2087 0.985 . S
N2075 C2077 1.356 . S
N2075 H2080 0.984 . S
N2075 H2081 0.985 . S
C2076 C2070 1.379 . S
C2076 C2073 1.363 . S
C2076 N2074 1.356 . S
C2077 C2071 1.363 . S
C2077 C2072 1.379 . S
C2077 N2075 1.356 . S
N2078 C2070 1.356 . S
N2078 H2084 0.984 . S
N2078 H2085 0.984 . S
N2079 C2072 1.356 . S
N2079 H2082 0.984 . S
N2079 H2083 0.985 . S
H2080 N2075 0.984 . S
H2081 N2075 0.985 . S
H2082 N2079 0.984 . S
H2083 N2079 0.985 . S
H2084 N2078 0.984 . S
H2085 N2078 0.984 . S
H2086 N2074 0.984 . S
H2087 N2074 0.985 . S
C2088 C2089 1.363 . S
C2088 C2094 1.379 . S
C2088 N2096 1.356 . S
C2089 C2088 1.363 . S
C2089 C2095 1.363 . S
C2090 C2091 1.363 . S
C2090 C2095 1.379 . S
C2090 N2097 1.356 . S
C2091 C2090 1.363 . S
C2091 C2094 1.363 . S
N2092 C2094 1.356 . S
N2092 H2104 0.984 . S
N2092 H2105 0.985 . S
N2093 C2095 1.356 . S
N2093 H2098 0.984 . S
N2093 H2099 0.985 . S
C2094 C2088 1.379 . S
C2094 C2091 1.363 . S
C2094 N2092 1.356 . S
C2095 C2089 1.363 . S
C2095 C2090 1.379 . S
C2095 N2093 1.356 . S
N2096 C2088 1.356 . S
N2096 H2102 0.984 . S
N2096 H2103 0.984 . S
N2097 C2090 1.356 . S
N2097 H2100 0.984 . S
N2097 H2101 0.985 1_545 S
H2098 N2093 0.984 . S
H2099 N2093 0.985 . S
H2100 N2097 0.984 . S
H2101 N2097 0.985 1_565 S
H2102 N2096 0.984 . S
H2103 N2096 0.984 . S
H2104 N2092 0.984 . S
H2105 N2092 0.985 . S
C2106 C2107 1.363 1_455 S
C2106 C2112 1.379 . S
C2106 N2114 1.356 1_455 S
C2107 C2106 1.363 1_655 S
C2107 C2113 1.363 . S
C2108 C2109 1.363 . S
C2108 C2113 1.379 1_455 S
C2108 N2115 1.356 . S
C2109 C2108 1.363 . S
C2109 C2112 1.363 . S
N2110 C2112 1.356 . S
N2110 H2122 0.984 . S
N2110 H2123 0.985 . S
N2111 C2113 1.356 . S
N2111 H2116 0.984 . S
N2111 H2117 0.985 . S
C2112 C2106 1.379 . S
C2112 C2109 1.363 . S
C2112 N2110 1.356 . S
C2113 C2107 1.363 . S
C2113 C2108 1.379 1_655 S
C2113 N2111 1.356 . S
N2114 C2106 1.356 1_655 S
N2114 H2120 0.984 . S
N2114 H2121 0.984 . S
N2115 C2108 1.356 . S
N2115 H2118 0.984 . S
N2115 H2119 0.985 . S
H2116 N2111 0.984 . S
H2117 N2111 0.985 . S
H2118 N2115 0.984 . S
H2119 N2115 0.985 . S
H2120 N2114 0.984 . S
H2121 N2114 0.984 . S
H2122 N2110 0.984 . S
H2123 N2110 0.985 . S
C2124 C2125 1.363 . S
C2124 C2130 1.379 . S
C2124 N2132 1.356 . S
C2125 C2124 1.363 . S
C2125 C2131 1.363 . S
C2126 C2127 1.363 . S
C2126 C2131 1.379 . S
C2126 N2133 1.356 . S
C2127 C2126 1.363 . S
C2127 C2130 1.363 . S
N2128 C2130 1.356 . S
N2128 H2140 0.984 . S
N2128 H2141 0.985 . S
N2129 C2131 1.356 . S
N2129 H2134 0.984 . S
N2129 H2135 0.985 . S
C2130 C2124 1.379 . S
C2130 C2127 1.363 . S
C2130 N2128 1.356 . S
C2131 C2125 1.363 . S
C2131 C2126 1.379 . S
C2131 N2129 1.356 . S
N2132 C2124 1.356 . S
N2132 H2138 0.984 . S
N2132 H2139 0.984 . S
N2133 C2126 1.356 . S
N2133 H2136 0.984 . S
N2133 H2137 0.985 . S
H2134 N2129 0.984 . S
H2135 N2129 0.985 . S
H2136 N2133 0.984 . S
H2137 N2133 0.985 . S
H2138 N2132 0.984 . S
H2139 N2132 0.984 . S
H2140 N2128 0.984 . S
H2141 N2128 0.985 . S
C2142 C2143 1.363 1_545 S
C2142 C2148 1.379 . S
C2142 N2150 1.356 1_545 S
C2143 C2142 1.363 1_565 S
C2143 C2149 1.363 . S
C2144 C2145 1.363 . S
C2144 C2149 1.379 1_545 S
C2144 N2151 1.356 . S
C2145 C2144 1.363 . S
C2145 C2148 1.363 . S
N2146 C2148 1.356 . S
N2146 H2158 0.984 . S
N2146 H2159 0.985 . S
N2147 C2149 1.356 . S
N2147 H2152 0.984 . S
N2147 H2153 0.985 . S
C2148 C2142 1.379 . S
C2148 C2145 1.363 . S
C2148 N2146 1.356 . S
C2149 C2143 1.363 . S
C2149 C2144 1.379 1_565 S
C2149 N2147 1.356 . S
N2150 C2142 1.356 1_565 S
N2150 H2156 0.984 1_565 S
N2150 H2157 0.984 . S
N2151 C2144 1.356 . S
N2151 H2154 0.984 . S
N2151 H2155 0.985 . S
H2152 N2147 0.984 . S
H2153 N2147 0.985 . S
H2154 N2151 0.984 . S
H2155 N2151 0.985 . S
H2156 N2150 0.984 1_545 S
H2157 N2150 0.984 . S
H2158 N2146 0.984 . S
H2159 N2146 0.985 . S
C2160 C2161 1.363 . S
C2160 C2166 1.379 . S
C2160 N2168 1.356 . S
C2161 C2160 1.363 . S
C2161 C2167 1.363 . S
C2162 C2163 1.363 . S
C2162 C2167 1.379 . S
C2162 N2169 1.356 . S
C2163 C2162 1.363 . S
C2163 C2166 1.363 . S
N2164 C2166 1.356 . S
N2164 H2176 0.984 . S
N2164 H2177 0.985 . S
N2165 C2167 1.356 . S
N2165 H2170 0.984 . S
N2165 H2171 0.985 . S
C2166 C2160 1.379 . S
C2166 C2163 1.363 . S
C2166 N2164 1.356 . S
C2167 C2161 1.363 . S
C2167 C2162 1.379 . S
C2167 N2165 1.356 . S
N2168 C2160 1.356 . S
N2168 H2174 0.984 . S
N2168 H2175 0.984 . S
N2169 C2162 1.356 . S
N2169 H2172 0.984 . S
N2169 H2173 0.985 . S
H2170 N2165 0.984 . S
H2171 N2165 0.985 . S
H2172 N2169 0.984 . S
H2173 N2169 0.985 . S
H2174 N2168 0.984 . S
H2175 N2168 0.984 . S
H2176 N2164 0.984 . S
H2177 N2164 0.985 . S
C2178 C2179 1.363 . S
C2178 C2184 1.379 . S
C2178 N2186 1.356 . S
C2179 C2178 1.363 . S
C2179 C2185 1.363 . S
C2180 C2181 1.363 . S
C2180 C2185 1.379 . S
C2180 N2187 1.356 . S
C2181 C2180 1.363 . S
C2181 C2184 1.363 . S
N2182 C2184 1.356 . S
N2182 H2194 0.984 . S
N2182 H2195 0.985 . S
N2183 C2185 1.356 . S
N2183 H2188 0.984 . S
N2183 H2189 0.985 . S
C2184 C2178 1.379 . S
C2184 C2181 1.363 . S
C2184 N2182 1.356 . S
C2185 C2179 1.363 . S
C2185 C2180 1.379 . S
C2185 N2183 1.356 . S
N2186 C2178 1.356 . S
N2186 H2192 0.984 . S
N2186 H2193 0.984 . S
N2187 C2180 1.356 . S
N2187 H2190 0.984 . S
N2187 H2191 0.985 . S
H2188 N2183 0.984 . S
H2189 N2183 0.985 . S
H2190 N2187 0.984 . S
H2191 N2187 0.985 . S
H2192 N2186 0.984 . S
H2193 N2186 0.984 . S
H2194 N2182 0.984 . S
H2195 N2182 0.985 . S
C2196 C2197 1.363 . S
C2196 C2202 1.379 . S
C2196 N2204 1.356 . S
C2197 C2196 1.363 . S
C2197 C2203 1.363 . S
C2198 C2199 1.363 . S
C2198 C2203 1.379 . S
C2198 N2205 1.356 . S
C2199 C2198 1.363 . S
C2199 C2202 1.363 . S
N2200 C2202 1.356 . S
N2200 H2212 0.984 . S
N2200 H2213 0.985 . S
N2201 C2203 1.356 . S
N2201 H2206 0.984 . S
N2201 H2207 0.985 . S
C2202 C2196 1.379 . S
C2202 C2199 1.363 . S
C2202 N2200 1.356 . S
C2203 C2197 1.363 . S
C2203 C2198 1.379 . S
C2203 N2201 1.356 . S
N2204 C2196 1.356 . S
N2204 H2210 0.984 . S
N2204 H2211 0.984 . S
N2205 C2198 1.356 . S
N2205 H2208 0.984 . S
N2205 H2209 0.985 . S
H2206 N2201 0.984 . S
H2207 N2201 0.985 . S
H2208 N2205 0.984 . S
H2209 N2205 0.985 . S
H2210 N2204 0.984 . S
H2211 N2204 0.984 . S
H2212 N2200 0.984 . S
H2213 N2200 0.985 . S
C2214 C2215 1.363 . S
C2214 C2220 1.379 . S
C2214 N2222 1.356 . S
C2215 C2214 1.363 . S
C2215 C2221 1.363 . S
C2216 C2217 1.363 . S
C2216 C2221 1.379 . S
C2216 N2223 1.356 . S
C2217 C2216 1.363 . S
C2217 C2220 1.363 . S
N2218 C2220 1.356 . S
N2218 H2230 0.984 . S
N2218 H2231 0.985 . S
N2219 C2221 1.356 . S
N2219 H2224 0.984 . S
N2219 H2225 0.985 . S
C2220 C2214 1.379 . S
C2220 C2217 1.363 . S
C2220 N2218 1.356 . S
C2221 C2215 1.363 . S
C2221 C2216 1.379 . S
C2221 N2219 1.356 . S
N2222 C2214 1.356 . S
N2222 H2228 0.984 . S
N2222 H2229 0.984 . S
N2223 C2216 1.356 . S
N2223 H2226 0.984 . S
N2223 H2227 0.985 . S
H2224 N2219 0.984 . S
H2225 N2219 0.985 . S
H2226 N2223 0.984 . S
H2227 N2223 0.985 . S
H2228 N2222 0.984 . S
H2229 N2222 0.984 . S
H2230 N2218 0.984 . S
H2231 N2218 0.985 . S
C2232 C2233 1.363 . S
C2232 C2238 1.379 . S
C2232 N2240 1.356 . S
C2233 C2232 1.363 . S
C2233 C2239 1.363 . S
C2234 C2235 1.363 . S
C2234 C2239 1.379 . S
C2234 N2241 1.356 . S
C2235 C2234 1.363 . S
C2235 C2238 1.363 . S
N2236 C2238 1.356 . S
N2236 H2248 0.984 . S
N2236 H2249 0.985 . S
N2237 C2239 1.356 . S
N2237 H2242 0.984 . S
N2237 H2243 0.985 . S
C2238 C2232 1.379 . S
C2238 C2235 1.363 . S
C2238 N2236 1.356 . S
C2239 C2233 1.363 . S
C2239 C2234 1.379 . S
C2239 N2237 1.356 . S
N2240 C2232 1.356 . S
N2240 H2246 0.984 . S
N2240 H2247 0.984 . S
N2241 C2234 1.356 . S
N2241 H2244 0.984 . S
N2241 H2245 0.985 . S
H2242 N2237 0.984 . S
H2243 N2237 0.985 . S
H2244 N2241 0.984 . S
H2245 N2241 0.985 . S
H2246 N2240 0.984 . S
H2247 N2240 0.984 . S
H2248 N2236 0.984 . S
H2249 N2236 0.985 . S
C2250 C2251 1.363 . S
C2250 C2256 1.379 . S
C2250 N2258 1.356 . S
C2251 C2250 1.363 . S
C2251 C2257 1.363 . S
C2252 C2253 1.363 . S
C2252 C2257 1.379 . S
C2252 N2259 1.356 . S
C2253 C2252 1.363 . S
C2253 C2256 1.363 . S
N2254 C2256 1.356 . S
N2254 H2266 0.984 . S
N2254 H2267 0.985 . S
N2255 C2257 1.356 . S
N2255 H2260 0.984 . S
N2255 H2261 0.985 . S
C2256 C2250 1.379 . S
C2256 C2253 1.363 . S
C2256 N2254 1.356 . S
C2257 C2251 1.363 . S
C2257 C2252 1.379 . S
C2257 N2255 1.356 . S
N2258 C2250 1.356 . S
N2258 H2264 0.984 . S
N2258 H2265 0.984 . S
N2259 C2252 1.356 . S
N2259 H2262 0.984 . S
N2259 H2263 0.985 . S
H2260 N2255 0.984 . S
H2261 N2255 0.985 . S
H2262 N2259 0.984 . S
H2263 N2259 0.985 . S
H2264 N2258 0.984 . S
H2265 N2258 0.984 . S
H2266 N2254 0.984 . S
H2267 N2254 0.985 . S
C2268 C2269 1.363 . S
C2268 C2274 1.379 . S
C2268 N2276 1.356 . S
C2269 C2268 1.363 . S
C2269 C2275 1.363 . S
C2270 C2271 1.363 . S
C2270 C2275 1.379 . S
C2270 N2277 1.356 . S
C2271 C2270 1.363 . S
C2271 C2274 1.363 . S
N2272 C2274 1.356 . S
N2272 H2284 0.984 . S
N2272 H2285 0.985 . S
N2273 C2275 1.356 . S
N2273 H2278 0.984 . S
N2273 H2279 0.985 . S
C2274 C2268 1.379 . S
C2274 C2271 1.363 . S
C2274 N2272 1.356 . S
C2275 C2269 1.363 . S
C2275 C2270 1.379 . S
C2275 N2273 1.356 . S
N2276 C2268 1.356 . S
N2276 H2282 0.984 . S
N2276 H2283 0.984 . S
N2277 C2270 1.356 . S
N2277 H2280 0.984 . S
N2277 H2281 0.985 . S
H2278 N2273 0.984 . S
H2279 N2273 0.985 . S
H2280 N2277 0.984 . S
H2281 N2277 0.985 . S
H2282 N2276 0.984 . S
H2283 N2276 0.984 . S
H2284 N2272 0.984 . S
H2285 N2272 0.985 . S
C2286 C2287 1.363 . S
C2286 C2292 1.379 . S
C2286 N2294 1.356 . S
C2287 C2286 1.363 . S
C2287 C2293 1.363 . S
C2288 C2289 1.363 . S
C2288 C2293 1.379 . S
C2288 N2295 1.356 . S
C2289 C2288 1.363 . S
C2289 C2292 1.363 . S
N2290 C2292 1.356 . S
N2290 H2302 0.984 . S
N2290 H2303 0.985 . S
N2291 C2293 1.356 . S
N2291 H2296 0.984 . S
N2291 H2297 0.985 . S
C2292 C2286 1.379 . S
C2292 C2289 1.363 . S
C2292 N2290 1.356 . S
C2293 C2287 1.363 . S
C2293 C2288 1.379 . S
C2293 N2291 1.356 . S
N2294 C2286 1.356 . S
N2294 H2300 0.984 . S
N2294 H2301 0.984 . S
N2295 C2288 1.356 . S
N2295 H2298 0.984 . S
N2295 H2299 0.985 . S
H2296 N2291 0.984 . S
H2297 N2291 0.985 . S
H2298 N2295 0.984 . S
H2299 N2295 0.985 . S
H2300 N2294 0.984 . S
H2301 N2294 0.984 . S
H2302 N2290 0.984 . S
H2303 N2290 0.985 . S
C2304 C2305 1.363 . S
C2304 C2310 1.379 . S
C2304 N2312 1.356 . S
C2305 C2304 1.363 . S
C2305 C2311 1.363 . S
C2306 C2307 1.363 . S
C2306 C2311 1.379 . S
C2306 N2313 1.356 . S
C2307 C2306 1.363 . S
C2307 C2310 1.363 . S
N2308 C2310 1.356 . S
N2308 H2320 0.984 . S
N2308 H2321 0.985 . S
N2309 C2311 1.356 . S
N2309 H2314 0.984 . S
N2309 H2315 0.985 . S
C2310 C2304 1.379 . S
C2310 C2307 1.363 . S
C2310 N2308 1.356 . S
C2311 C2305 1.363 . S
C2311 C2306 1.379 . S
C2311 N2309 1.356 . S
N2312 C2304 1.356 . S
N2312 H2318 0.984 . S
N2312 H2319 0.984 . S
N2313 C2306 1.356 . S
N2313 H2316 0.984 . S
N2313 H2317 0.985 . S
H2314 N2309 0.984 . S
H2315 N2309 0.985 . S
H2316 N2313 0.984 . S
H2317 N2313 0.985 . S
H2318 N2312 0.984 . S
H2319 N2312 0.984 . S
H2320 N2308 0.984 . S
H2321 N2308 0.985 . S
C2322 C2323 1.363 . S
C2322 C2328 1.379 . S
C2322 N2330 1.356 . S
C2323 C2322 1.363 . S
C2323 C2329 1.363 . S
C2324 C2325 1.363 . S
C2324 C2329 1.379 . S
C2324 N2331 1.356 . S
C2325 C2324 1.363 . S
C2325 C2328 1.363 . S
N2326 C2328 1.356 . S
N2326 H2338 0.984 . S
N2326 H2339 0.985 . S
N2327 C2329 1.356 . S
N2327 H2332 0.984 . S
N2327 H2333 0.985 . S
C2328 C2322 1.379 . S
C2328 C2325 1.363 . S
C2328 N2326 1.356 . S
C2329 C2323 1.363 . S
C2329 C2324 1.379 . S
C2329 N2327 1.356 . S
N2330 C2322 1.356 . S
N2330 H2336 0.984 . S
N2330 H2337 0.984 . S
N2331 C2324 1.356 . S
N2331 H2334 0.984 . S
N2331 H2335 0.985 . S
H2332 N2327 0.984 . S
H2333 N2327 0.985 . S
H2334 N2331 0.984 . S
H2335 N2331 0.985 . S
H2336 N2330 0.984 . S
H2337 N2330 0.984 . S
H2338 N2326 0.984 . S
H2339 N2326 0.985 . S
C2340 C2341 1.363 1_545 S
C2340 C2346 1.379 . S
C2340 N2348 1.356 . S
C2341 C2340 1.363 1_565 S
C2341 C2347 1.368 . S
C2342 C2343 1.363 . S
C2342 C2347 1.367 1_545 S
C2342 N2349 1.356 . S
C2343 C2342 1.363 . S
C2343 C2346 1.363 . S
N2344 C2346 1.356 . S
N2344 H2356 0.984 . S
N2344 H2357 0.985 . S
N2345 C2347 1.366 . S
N2345 H2350 0.984 . S
N2345 H2351 0.985 . S
C2346 C2340 1.379 . S
C2346 C2343 1.363 . S
C2346 N2344 1.356 . S
C2347 C2341 1.368 . S
C2347 C2342 1.367 1_565 S
C2347 N2345 1.366 . S
N2348 C2340 1.356 . S
N2348 H2354 0.984 . S
N2348 H2355 0.984 1_545 S
N2349 C2342 1.356 . S
N2349 H2352 0.984 . S
N2349 H2353 0.985 . S
H2350 N2345 0.984 . S
H2351 N2345 0.985 . S
H2352 N2349 0.984 . S
H2353 N2349 0.985 . S
H2354 N2348 0.984 . S
H2355 N2348 0.984 1_565 S
H2356 N2344 0.984 . S
H2357 N2344 0.985 . S
C2358 C2359 1.363 . S
C2358 C2364 1.379 1_655 S
C2358 N2366 1.356 . S
C2359 C2358 1.363 . S
C2359 C2365 1.363 . S
C2360 C2361 1.363 . S
C2360 C2365 1.379 1_455 S
C2360 N2367 1.356 . S
C2361 C2360 1.363 . S
C2361 C2364 1.363 . S
N2362 C2364 1.356 . S
N2362 H2374 0.984 . S
N2362 H2375 0.985 . S
N2363 C2365 1.356 . S
N2363 H2368 0.984 . S
N2363 H2369 0.985 . S
C2364 C2358 1.379 1_455 S
C2364 C2361 1.363 . S
C2364 N2362 1.356 . S
C2365 C2359 1.363 . S
C2365 C2360 1.379 1_655 S
C2365 N2363 1.356 . S
N2366 C2358 1.356 . S
N2366 H2372 0.984 . S
N2366 H2373 0.984 . S
N2367 C2360 1.356 . S
N2367 H2370 0.984 . S
N2367 H2371 0.985 . S
H2368 N2363 0.984 . S
H2369 N2363 0.985 . S
H2370 N2367 0.984 . S
H2371 N2367 0.985 . S
H2372 N2366 0.984 . S
H2373 N2366 0.984 . S
H2374 N2362 0.984 . S
H2375 N2362 0.985 . S
C2376 C2377 1.363 . S
C2376 C2382 1.379 . S
C2376 N2384 1.356 . S
C2377 C2376 1.363 . S
C2377 C2383 1.363 . S
C2378 C2379 1.363 . S
C2378 C2383 1.379 . S
C2378 N2385 1.356 . S
C2379 C2378 1.363 . S
C2379 C2382 1.363 . S
N2380 C2382 1.356 . S
N2380 H2392 0.984 . S
N2380 H2393 0.985 . S
N2381 C2383 1.356 . S
N2381 H2386 0.984 . S
N2381 H2387 0.985 . S
C2382 C2376 1.379 . S
C2382 C2379 1.363 . S
C2382 N2380 1.356 . S
C2383 C2377 1.363 . S
C2383 C2378 1.379 . S
C2383 N2381 1.356 . S
N2384 C2376 1.356 . S
N2384 H2390 0.984 . S
N2384 H2391 0.984 . S
N2385 C2378 1.356 . S
N2385 H2388 0.984 . S
N2385 H2389 0.985 . S
H2386 N2381 0.984 . S
H2387 N2381 0.985 . S
H2388 N2385 0.984 . S
H2389 N2385 0.985 . S
H2390 N2384 0.984 . S
H2391 N2384 0.984 . S
H2392 N2380 0.984 . S
H2393 N2380 0.985 . S
C2394 C2395 1.363 . S
C2394 C2400 1.379 . S
C2394 N2402 1.356 . S
C2395 C2394 1.363 . S
C2395 C2401 1.363 . S
C2396 C2397 1.363 . S
C2396 C2401 1.379 1_565 S
C2396 N2403 1.356 . S
C2397 C2396 1.363 . S
C2397 C2400 1.363 1_565 S
N2398 C2400 1.356 1_565 S
N2398 H2410 0.984 1_565 S
N2398 H2411 0.985 . S
N2399 C2401 1.356 . S
N2399 H2404 0.984 . S
N2399 H2405 0.985 1_545 S
C2400 C2394 1.379 . S
C2400 C2397 1.363 1_545 S
C2400 N2398 1.356 1_545 S
C2401 C2395 1.363 . S
C2401 C2396 1.379 1_545 S
C2401 N2399 1.356 . S
N2402 C2394 1.356 . S
N2402 H2408 0.984 . S
N2402 H2409 0.984 . S
N2403 C2396 1.356 . S
N2403 H2406 0.984 . S
N2403 H2407 0.985 . S
H2404 N2399 0.984 . S
H2405 N2399 0.985 1_565 S
H2406 N2403 0.984 . S
H2407 N2403 0.985 . S
H2408 N2402 0.984 . S
H2409 N2402 0.984 . S
H2410 N2398 0.984 1_545 S
H2411 N2398 0.985 . S
C2412 C2413 1.363 . S
C2412 C2418 1.379 . S
C2412 N2420 1.356 . S
C2413 C2412 1.363 . S
C2413 C2419 1.363 . S
C2414 C2415 1.363 . S
C2414 C2419 1.379 1_655 S
C2414 N2421 1.356 . S
C2415 C2414 1.363 . S
C2415 C2418 1.363 1_655 S
N2416 C2418 1.356 . S
N2416 H2428 0.984 . S
N2416 H2429 0.985 1_455 S
N2417 C2419 1.356 . S
N2417 H2422 0.984 . S
N2417 H2423 0.985 . S
C2418 C2412 1.379 . S
C2418 C2415 1.363 1_455 S
C2418 N2416 1.356 . S
C2419 C2413 1.363 . S
C2419 C2414 1.379 1_455 S
C2419 N2417 1.356 . S
N2420 C2412 1.356 . S
N2420 H2426 0.984 . S
N2420 H2427 0.984 . S
N2421 C2414 1.356 . S
N2421 H2424 0.984 . S
N2421 H2425 0.985 . S
H2422 N2417 0.984 . S
H2423 N2417 0.985 . S
H2424 N2421 0.984 . S
H2425 N2421 0.985 . S
H2426 N2420 0.984 . S
H2427 N2420 0.984 . S
H2428 N2416 0.984 . S
H2429 N2416 0.985 1_655 S
C2430 C2431 1.363 . S
C2430 C2436 1.379 . S
C2430 N2438 1.356 . S
C2431 C2430 1.363 . S
C2431 C2437 1.363 . S
C2432 C2433 1.363 . S
C2432 C2437 1.379 . S
C2432 N2439 1.356 . S
C2433 C2432 1.363 . S
C2433 C2436 1.363 . S
N2434 C2436 1.356 . S
N2434 H2446 0.984 . S
N2434 H2447 0.985 . S
N2435 C2437 1.356 . S
N2435 H2440 0.984 . S
N2435 H2441 0.985 . S
C2436 C2430 1.379 . S
C2436 C2433 1.363 . S
C2436 N2434 1.356 . S
C2437 C2431 1.363 . S
C2437 C2432 1.379 . S
C2437 N2435 1.356 . S
N2438 C2430 1.356 . S
N2438 H2444 0.984 . S
N2438 H2445 0.984 . S
N2439 C2432 1.356 . S
N2439 H2442 0.984 . S
N2439 H2443 0.985 . S
H2440 N2435 0.984 . S
H2441 N2435 0.985 . S
H2442 N2439 0.984 . S
H2443 N2439 0.985 . S
H2444 N2438 0.984 . S
H2445 N2438 0.984 . S
H2446 N2434 0.984 . S
H2447 N2434 0.985 . S
C2448 C2449 1.363 . S
C2448 C2454 1.379 . S
C2448 N2456 1.356 . S
C2449 C2448 1.363 . S
C2449 C2455 1.363 . S
C2450 C2451 1.363 . S
C2450 C2455 1.379 . S
C2450 N2457 1.356 . S
C2451 C2450 1.363 . S
C2451 C2454 1.363 . S
N2452 C2454 1.356 . S
N2452 H2464 0.984 . S
N2452 H2465 0.985 . S
N2453 C2455 1.356 . S
N2453 H2458 0.984 . S
N2453 H2459 0.985 . S
C2454 C2448 1.379 . S
C2454 C2451 1.363 . S
C2454 N2452 1.356 . S
C2455 C2449 1.363 . S
C2455 C2450 1.379 . S
C2455 N2453 1.356 . S
N2456 C2448 1.356 . S
N2456 H2462 0.984 . S
N2456 H2463 0.984 . S
N2457 C2450 1.356 . S
N2457 H2460 0.984 . S
N2457 H2461 0.985 . S
H2458 N2453 0.984 . S
H2459 N2453 0.985 . S
H2460 N2457 0.984 . S
H2461 N2457 0.985 . S
H2462 N2456 0.984 . S
H2463 N2456 0.984 . S
H2464 N2452 0.984 . S
H2465 N2452 0.985 . S
C2466 C2467 1.363 . S
C2466 C2472 1.379 . S
C2466 N2474 1.356 . S
C2467 C2466 1.363 . S
C2467 C2473 1.363 . S
C2468 C2469 1.363 . S
C2468 C2473 1.379 . S
C2468 N2475 1.356 . S
C2469 C2468 1.363 . S
C2469 C2472 1.363 . S
N2470 C2472 1.356 . S
N2470 H2482 0.984 . S
N2470 H2483 0.985 . S
N2471 C2473 1.356 . S
N2471 H2476 0.984 . S
N2471 H2477 0.985 . S
C2472 C2466 1.379 . S
C2472 C2469 1.363 . S
C2472 N2470 1.356 . S
C2473 C2467 1.363 . S
C2473 C2468 1.379 . S
C2473 N2471 1.356 . S
N2474 C2466 1.356 . S
N2474 H2480 0.984 . S
N2474 H2481 0.984 . S
N2475 C2468 1.356 . S
N2475 H2478 0.984 . S
N2475 H2479 0.985 . S
H2476 N2471 0.984 . S
H2477 N2471 0.985 . S
H2478 N2475 0.984 . S
H2479 N2475 0.985 . S
H2480 N2474 0.984 . S
H2481 N2474 0.984 . S
H2482 N2470 0.984 . S
H2483 N2470 0.985 . S
C1513 C67 1.105 . S
C1515 C226 0.986 . S
C1531 C58 0.986 . S
C1533 C151 1.105 . S
C1549 C142 0.986 . S
C1551 C235 1.105 . S
C1567 C319 1.105 . S
C1569 C394 0.986 . S
C1585 C478 0.986 . S
C1587 C403 1.105 . S
C1603 C487 1.105 . S
C1605 C310 0.986 . S
C1621 C730 0.986 . S
C1623 C571 1.105 . S
C1639 C562 0.986 . S
C1641 C655 1.105 . S
C1657 C739 1.105 . S
C1659 C646 0.986 . S
C1675 C898 0.986 . S
C1677 C823 1.105 . S
C1693 C907 1.105 . S
C1695 C982 0.986 . S
C1711 C814 0.986 . S
C1713 C991 1.105 . S
C1729 C1075 1.105 . S
C1731 C1234 0.986 . S
C1747 C1066 0.986 . S
C1749 C1159 1.105 . S
C1765 C1150 0.986 . S
C1767 C1243 1.105 . S
C1783 C1402 0.986 . S
C1785 C1327 1.105 . S
C1801 C1486 0.986 . S
C1803 C1411 1.105 . S
C1819 C1318 0.986 . S
C1821 C1495 1.105 . S
C1837 C74 1.861 . S
C1839 C494 1.861 . S
C1855 C326 1.861 . S
C1857 C158 1.861 . S
C1873 C410 1.861 . S
C1875 C242 1.861 . S
C1891 C578 1.861 . S
C1893 C998 1.861 . S
C1909 C662 1.861 . S
C1911 C830 1.861 . S
C1927 C914 1.861 . S
C1929 C746 1.861 . S
C1945 C1082 1.861 . S
C1947 C1502 1.861 . S
C1963 C1334 1.861 . S
C1965 C1166 1.861 . S
C1981 C1418 1.861 . S
C1983 C1250 1.861 . S
C1999 C903 2.176 . S
C2001 C63 2.176 . S
C2017 C147 2.176 . S
C2019 C987 2.176 . S
C2035 C819 2.176 . S
C2037 C231 2.176 . S
C2053 C315 2.176 . S
C2055 C1239 2.176 . S
C2071 C399 2.176 . S
C2073 C1071 2.176 . S
C2089 C1155 2.176 . S
C2091 C483 2.176 . S
C2107 C1407 2.176 . S
C2109 C567 2.176 . S
C2125 C651 2.176 . S
C2127 C1491 2.176 . S
C2143 C735 2.176 . S
C2145 C1323 2.176 . S
C2161 C237 1.464 . S
C2163 C56 1.640 . S
C2179 C69 1.465 . S
C2181 C140 1.640 . S
C2197 C224 1.640 . S
C2199 C153 1.465 . S
C2215 C405 1.464 . S
C2217 C308 1.640 . S
C2233 C489 1.465 . S
C2235 C392 1.640 . S
C2251 C476 1.640 . S
C2253 C321 1.465 . S
C2269 C741 1.465 . S
C2271 C560 1.640 . S
C2287 C644 1.640 . S
C2289 C573 1.465 . S
C2305 C657 1.465 . S
C2307 C728 1.640 . S
C2323 C812 1.640 . S
C2325 C909 1.465 . S
C2341 C896 1.640 . S
C2343 C993 1.465 . S
C2359 C825 1.465 . S
C2361 C980 1.640 . S
C2377 C1064 1.640 . S
C2379 C1245 1.464 . S
C2395 C1148 1.640 . S
C2397 C1077 1.465 . S
C2413 C1161 1.465 . S
C2415 C1232 1.640 . S
C2431 C1316 1.640 . S
C2433 C1413 1.464 . S
C2449 C1400 1.640 . S
C2451 C1497 1.465 . S
C2467 C1329 1.465 . S
C2469 C1484 1.640 . S
