# Generated by pormake.
# Topology bsn, (6)-cn, num edge types: 1
# Building blocks:
#     Node 0, Type 0, BuildingBlock: MIDCAF_clean_sbu_0, # of connection points: 6
#     Node 1, Type 0, BuildingBlock: MIDCAF_clean_sbu_0, # of connection points: 6
#     Node 2, Type 0, BuildingBlock: MIDCAF_clean_sbu_0, # of connection points: 6
#     Node 3, Type 0, BuildingBlock: MIDCAF_clean_sbu_0, # of connection points: 6
#     Edge 4, Type (0, 0), BuildingBlock: UVAHIK_clean_linker_0, # of connection points: 2
#     Edge 5, Type (0, 0), BuildingBlock: UVAHIK_clean_linker_0, # of connection points: 2
#     Edge 6, Type (0, 0), BuildingBlock: UVAHIK_clean_linker_0, # of connection points: 2
#     Edge 7, Type (0, 0), BuildingBlock: UVAHIK_clean_linker_0, # of connection points: 2
#     Edge 8, Type (0, 0), BuildingBlock: UVAHIK_clean_linker_0, # of connection points: 2
#     Edge 9, Type (0, 0), BuildingBlock: UVAHIK_clean_linker_0, # of connection points: 2
#     Edge 10, Type (0, 0), BuildingBlock: UVAHIK_clean_linker_0, # of connection points: 2
#     Edge 11, Type (0, 0), BuildingBlock: UVAHIK_clean_linker_0, # of connection points: 2
#     Edge 12, Type (0, 0), BuildingBlock: UVAHIK_clean_linker_0, # of connection points: 2
#     Edge 13, Type (0, 0), BuildingBlock: UVAHIK_clean_linker_0, # of connection points: 2
#     Edge 14, Type (0, 0), BuildingBlock: UVAHIK_clean_linker_0, # of connection points: 2
#     Edge 15, Type (0, 0), BuildingBlock: UVAHIK_clean_linker_0, # of connection points: 2
# Relax obj value: 0.105
# Max RMSD: 0.165
# Mean RMSD: 0.163
data_MOF--net-bsn--node1-MIDCAF_clean_sbu_0--edge1-UVAHIK_clean_linker_0
_symmetry_space_group_name_H-M    P1
_symmetry_Int_Tables_number       1
_symmetry_cell_setting            triclinic
loop_
_symmetry_equiv_pos_as_xyz
'x, y, z'
_cell_length_a     38.696407
_cell_length_b     38.498572
_cell_length_c     19.662456
_cell_angle_alpha  89.190123
_cell_angle_beta   96.362604
_cell_angle_gamma 90.214006
loop_
_atom_site_label
_atom_site_type_symbol
_atom_site_fract_x
_atom_site_fract_y
_atom_site_fract_z
_atom_type_partial_charge
Zn0 Zn 0.00977 0.20832 0.32416 0.0
Zn1 Zn 0.09205 0.3002 0.44718 0.0
Zn2 Zn 0.05062 0.25611 0.38228 0.0
C3 C 0.0303 0.3361 0.41258 0.0
C4 C 0.12532 0.28091 0.33634 0.0
O5 O 0.04848 0.20889 0.45132 0.0
O6 O 0.00991 0.17314 0.39849 0.0
C7 C 0.97059 0.26981 0.31906 0.0
O8 O 0.02179 0.30694 0.38343 0.0
O9 O 0.05962 0.33954 0.44683 0.0
O10 O 0.12823 0.30253 0.38425 0.0
O11 O 0.09817 0.26123 0.32734 0.0
O12 O 0.96869 0.23847 0.30091 0.0
O13 O 0.99893 0.28165 0.3516 0.0
O14 O 0.07303 0.24075 0.28822 0.0
O15 O 0.03821 0.19819 0.24865 0.0
C16 C 0.06429 0.21741 0.24309 0.0
O17 O 0.06513 0.23648 0.48896 0.0
O18 O 0.10365 0.27455 0.53426 0.0
C19 C 0.03192 0.17961 0.44901 0.0
C20 C 0.08638 0.24702 0.53981 0.0
Zn21 Zn 0.98729 0.79957 0.54362 0.0
Zn22 Zn 0.06992 0.70535 0.66246 0.0
Zn23 Zn 0.03013 0.75449 0.60624 0.0
C24 C 0.11049 0.76655 0.66599 0.0
C25 C 0.04671 0.67883 0.53792 0.0
O26 O 0.98415 0.75939 0.66468 0.0
O27 O 0.95283 0.80134 0.61046 0.0
C28 C 0.05026 0.83469 0.57454 0.0
O29 O 0.08226 0.7795 0.63461 0.0
O30 O 0.11157 0.7348 0.68318 0.0
O31 O 0.06862 0.67121 0.58822 0.0
O32 O 0.03076 0.70836 0.53616 0.0
O33 O 0.02051 0.83846 0.54203 0.0
O34 O 0.05916 0.80522 0.60346 0.0
O35 O 0.01372 0.73656 0.49988 0.0
O36 O 0.97427 0.77475 0.4572 0.0
C37 C 0.99161 0.7476 0.45029 0.0
O38 O 0.00897 0.73775 0.7021 0.0
O39 O 0.043 0.69409 0.74033 0.0
C40 C 0.95718 0.77925 0.6586 0.0
C41 C 0.01761 0.71374 0.74716 0.0
Zn42 Zn 0.49812 0.70697 0.79392 0.0
Zn43 Zn 0.61806 0.81508 0.93365 0.0
Zn44 Zn 0.53956 0.75403 0.83641 0.0
C45 C 0.58886 0.75116 -0.00071 0.0
C46 C 0.53945 0.82634 0.86571 0.0
O47 O 0.55626 0.73479 0.73806 0.0
O48 O 0.51901 0.6924 0.71036 0.0
C49 C 0.52836 0.68465 0.92274 0.0
O50 O 0.56637 0.74501 0.9461 0.0
O51 O 0.61109 0.7761 0.00188 0.0
O52 O 0.56823 0.8115 0.88431 0.0
O53 O 0.51548 0.80626 0.83899 0.0
O54 O 0.50476 0.67628 0.87623 0.0
O55 O 0.54463 0.71366 0.91801 0.0
O56 O 0.48863 0.78213 0.81583 0.0
O57 O 0.45666 0.73729 0.7779 0.0
C58 C 0.45915 0.7693 0.79087 0.0
O59 O 0.58154 0.75553 0.77056 0.0
O60 O 0.59541 0.79145 0.85069 0.0
C61 C 0.54456 0.71067 0.69663 0.0
C62 C 0.60484 0.77487 0.80112 0.0
Zn63 Zn 0.58665 0.21224 0.1621 0.0
Zn64 Zn 0.49635 0.29745 0.03384 0.0
Zn65 Zn 0.54172 0.25652 0.1 0.0
C66 C 0.50465 0.24429 0.94501 0.0
C67 C 0.55646 0.33733 0.06151 0.0
O68 O 0.52139 0.24054 0.19667 0.0
O69 O 0.5605 0.20257 0.2418 0.0
C70 C 0.56382 0.18071 0.04061 0.0
O71 O 0.5271 0.23539 -0.00428 0.0
O72 O 0.48566 0.27055 0.94932 0.0
O73 O 0.52634 0.33874 0.0297 0.0
O74 O 0.56747 0.3089 0.09211 0.0
O75 O 0.58586 0.17594 0.09212 0.0
O76 O 0.54588 0.20909 0.03467 0.0
O77 O 0.59217 0.28522 0.12447 0.0
O78 O 0.62684 0.24444 0.1745 0.0
C79 C 0.62217 0.27539 0.15362 0.0
O80 O 0.49495 0.2596 0.1578 0.0
O81 O 0.46109 0.29801 0.09852 0.0
C82 C 0.53264 0.21914 0.24506 0.0
C83 C 0.46653 0.27735 0.14885 0.0
C84 C 0.00408 0.38419 0.33806 0.0
C85 C 0.00859 0.36763 0.40251 0.0
C86 C 0.99672 0.41992 0.33263 0.0
C87 C 0.01805 0.49619 0.3532 0.0
H88 H 0.96452 0.54739 0.47361 0.0
C89 C 0.06137 0.62647 0.47374 0.0
C90 C 0.03654 0.65113 0.48783 0.0
C91 C 0.05115 0.59505 0.44269 0.0
C92 C 0.97917 0.53368 0.43859 0.0
H93 H 0.00617 0.3745 0.51079 0.0
H94 H 0.9921 0.4361 0.50144 0.0
H95 H 0.95468 0.48509 0.4588 0.0
H96 H 0.98154 0.663 0.47662 0.0
H97 H 0.96352 0.60777 0.42257 0.0
H98 H 0.0437 0.54445 0.33553 0.0
C99 C 0.99429 0.42194 0.4549 0.0
C100 C 0.97371 0.49785 0.43055 0.0
C101 C 0.00217 0.38651 0.46036 0.0
C102 C 1.00131 0.64469 0.46573 0.0
C103 C 0.99098 0.61287 0.43555 0.0
C104 C 0.02372 0.53194 0.3617 0.0
C105 C 0.99328 0.43955 0.39151 0.0
C106 C 0.99383 0.47842 0.38939 0.0
C107 C 0.01574 0.58717 0.42582 0.0
C108 C 0.00512 0.55096 0.40618 0.0
H109 H 0.0096 0.3704 0.29285 0.0
H110 H 0.99576 0.43258 0.28293 0.0
H111 H 0.03427 0.48212 0.32155 0.0
H112 H 0.08868 0.63061 0.49052 0.0
H113 H 0.07096 0.5759 0.43651 0.0
C114 C 0.65524 0.74596 0.7545 0.0
C115 C 0.64167 0.77415 0.78758 0.0
C116 C 0.69087 0.74442 0.74729 0.0
C117 C 0.76728 0.79954 0.73801 0.0
H118 H 0.82205 0.71811 0.79624 0.0
C119 C 0.91351 0.80375 0.72748 0.0
C120 C 0.9287 0.77445 0.70165 0.0
C121 C 0.88053 0.80163 0.74971 0.0
C122 C 0.80714 0.74095 0.77909 0.0
H123 H 0.6544 0.82328 0.83689 0.0
H124 H 0.71616 0.82097 0.82288 0.0
H125 H 0.7594 0.71821 0.80497 0.0
H126 H 0.9227 0.71944 0.68291 0.0
H127 H 0.86438 0.71575 0.7192 0.0
H128 H 0.81401 0.82207 0.70956 0.0
C129 C 0.69948 0.79987 0.80336 0.0
C130 C 0.77125 0.74095 0.78412 0.0
C131 C 0.66413 0.80113 0.81155 0.0
C132 C 0.91158 0.74231 0.70339 0.0
C133 C 0.87807 0.74032 0.72405 0.0
C134 C 0.80288 0.79939 0.73204 0.0
C135 C 0.71332 0.77139 0.77177 0.0
C136 C 0.75105 0.77039 0.76405 0.0
C137 C 0.86143 0.77038 0.74438 0.0
C138 C 0.8235 0.77026 0.75308 0.0
H139 H 0.63852 0.72475 0.73571 0.0
H140 H 0.70084 0.72232 0.72216 0.0
H141 H 0.75227 0.82241 0.72126 0.0
H142 H 0.92633 0.82881 0.72672 0.0
H143 H 0.8693 0.82505 0.76764 0.0
C144 C 0.5819 0.38675 0.00292 0.0
C145 C 0.57675 0.36996 0.0648 0.0
C146 C 0.58696 0.42269 0.00024 0.0
C147 C 0.55564 0.49403 0.00223 0.0
H148 H 0.60858 0.55887 0.1222 0.0
C149 C 0.51471 0.63456 -0.00396 0.0
C150 C 0.53977 0.65754 0.97466 0.0
C151 C 0.52431 0.60183 0.02315 0.0
C152 C 0.59367 0.54097 0.08846 0.0
H153 H 0.57565 0.3771 0.17343 0.0
H154 H 0.58472 0.44027 0.169 0.0
H155 H 0.62005 0.49588 0.13508 0.0
H156 H 0.59499 0.6656 0.97156 0.0
H157 H 0.61192 0.6081 0.01989 0.0
H158 H 0.52878 0.53832 0.95638 0.0
C159 C 0.58522 0.42553 0.12261 0.0
C160 C 0.60018 0.50501 0.09585 0.0
C161 C 0.58031 0.38931 0.1253 0.0
C162 C 0.57513 0.6486 -0.01174 0.0
C163 C 0.5848 0.61558 0.01552 0.0
C164 C 0.54879 0.52953 -0.00427 0.0
C165 C 0.58652 0.4428 0.05932 0.0
C166 C 0.58132 0.48118 0.05232 0.0
C167 C 0.55922 0.59118 0.02943 0.0
C168 C 0.56752 0.55349 0.03876 0.0
H169 H 0.5788 0.37254 0.95544 0.0
H170 H 0.58845 0.43511 0.95086 0.0
H171 H 0.5402 0.47648 0.96857 0.0
H172 H 0.4873 0.64074 -0.01367 0.0
H173 H 0.50407 0.58381 0.03445 0.0
C174 C 0.92382 0.31019 0.34999 0.0
C175 C 0.93947 0.29169 0.30057 0.0
C176 C 0.88973 0.32295 0.335 0.0
C177 C 0.8187 0.33874 0.19221 0.0
H178 H 0.75769 0.30535 0.32238 0.0
C179 C 0.66255 0.31317 0.22679 0.0
C180 C 0.65248 0.29885 0.16237 0.0
C181 C 0.69675 0.32483 0.24408 0.0
C182 C 0.77415 0.31573 0.28588 0.0
H183 H 0.93308 0.27427 0.19574 0.0
H184 H 0.8746 0.29707 0.16912 0.0
H185 H 0.82029 0.30433 0.35306 0.0
H186 H 0.66961 0.2866 0.06465 0.0
H187 H 0.72911 0.30676 0.09411 0.0
H188 H 0.77262 0.34909 0.12412 0.0
C189 C 0.88809 0.30177 0.21941 0.0
C190 C 0.81025 0.31511 0.30366 0.0
C191 C 0.92166 0.28859 0.2347 0.0
C192 C 0.6765 0.29845 0.11398 0.0
C193 C 0.71073 0.30991 0.13124 0.0
C194 C 0.78259 0.33956 0.17454 0.0
C195 C 0.87109 0.31795 0.26997 0.0
C196 C 0.83305 0.32549 0.25624 0.0
C197 C 0.72179 0.32187 0.1976 0.0
C198 C 0.75977 0.32695 0.22025 0.0
H199 H 0.93689 0.31264 0.40136 0.0
H200 H 0.87746 0.33552 0.37498 0.0
H201 H 0.83548 0.34742 0.15475 0.0
H202 H 0.64467 0.31306 0.26548 0.0
H203 H 0.70399 0.33445 0.29517 0.0
C204 C 0.41877 0.30126 0.20782 0.0
C205 C 0.43808 0.27225 0.19215 0.0
C206 C 0.38631 0.29713 0.23141 0.0
C207 C 0.31185 0.23854 0.21348 0.0
H208 H 0.27729 0.3009 0.34327 0.0
C209 C 0.1681 0.24287 0.2857 0.0
C210 C 0.15576 0.27624 0.29815 0.0
C211 C 0.20246 0.23839 0.27049 0.0
C212 C 0.28643 0.28345 0.30642 0.0
H213 H 0.43957 0.21606 0.19217 0.0
H214 H 0.38217 0.20867 0.23336 0.0
H215 H 0.33931 0.29894 0.33282 0.0
H216 H 0.16805 0.33114 0.29709 0.0
H217 H 0.22707 0.32352 0.26848 0.0
H218 H 0.25853 0.22366 0.18627 0.0
C219 C 0.39234 0.23464 0.22736 0.0
C220 C 0.32204 0.28218 0.30081 0.0
C221 C 0.42532 0.23883 0.20475 0.0
C222 C 0.17699 0.30511 0.28832 0.0
C223 C 0.21097 0.30069 0.2728 0.0
C224 C 0.27601 0.23979 0.21917 0.0
C225 C 0.37206 0.26384 0.23897 0.0
C226 C 0.33514 0.26045 0.25301 0.0
C227 C 0.22475 0.26725 0.26735 0.0
C228 C 0.26283 0.26308 0.2643 0.0
H229 H 0.42793 0.32729 0.19795 0.0
H230 H 0.37138 0.32019 0.23931 0.0
H231 H 0.3211 0.2217 0.17574 0.0
H232 H 0.15234 0.22015 0.29346 0.0
H233 H 0.21223 0.2123 0.26597 0.0
C234 C 0.40586 0.78216 0.71326 0.0
C235 C 0.42762 0.7907 0.77266 0.0
C236 C 0.37251 0.79597 0.7004 0.0
C237 C 0.30273 0.82807 0.79524 0.0
H238 H 0.25351 0.82904 0.61235 0.0
C239 C 0.16464 0.77735 0.74272 0.0
C240 C 0.14241 0.78745 0.68446 0.0
C241 C 0.19779 0.7916 0.75611 0.0
C242 C 0.26663 0.82973 0.66389 0.0
H243 H 0.43229 0.82223 0.86338 0.0
H244 H 0.37354 0.84711 0.84066 0.0
H245 H 0.31665 0.83143 0.62725 0.0
H246 H 0.13686 0.82226 0.59658 0.0
H247 H 0.19525 0.84786 0.62031 0.0
H248 H 0.25272 0.82648 0.83188 0.0
C249 C 0.38232 0.82925 0.8042 0.0
C250 C 0.30307 0.83057 0.67252 0.0
C251 C 0.41612 0.81537 0.81697 0.0
C252 C 0.15336 0.81403 0.64199 0.0
C253 C 0.18696 0.82838 0.65534 0.0
C254 C 0.26629 0.82779 0.78663 0.0
C255 C 0.35965 0.81884 0.74666 0.0
C256 C 0.32169 0.8277 0.7382 0.0
C257 C 0.21001 0.81659 0.71169 0.0
C258 C 0.24773 0.82655 0.72079 0.0
H259 H 0.41404 0.76325 0.67801 0.0
H260 H 0.35609 0.78669 0.65619 0.0
H261 H 0.31586 0.82603 0.84668 0.0
H262 H 0.15694 0.7571 0.77685 0.0
H263 H 0.21454 0.78124 0.79934 0.0
C264 C 0.50363 0.88172 0.85655 0.0
C265 C 0.53564 0.86458 0.87256 0.0
C266 C 0.50157 0.91815 0.8609 0.0
C267 C 0.55673 0.99682 0.85711 0.0
H268 H 0.49045 0.04185 0.96063 0.0
C269 C 0.58413 0.12839 0.98375 0.0
C270 C 0.55698 0.15142 -0.00742 0.0
C271 C 0.57736 0.09624 0.95296 0.0
C272 C 0.50869 0.02986 0.9302 0.0
H273 H 0.59044 0.87255 0.90579 0.0
H274 H 0.58686 0.93517 0.91276 0.0
H275 H 0.48559 0.97934 0.93946 0.0
H276 H 0.5014 0.15943 0.97281 0.0
H277 H 0.48938 0.10295 0.91826 0.0
H278 H 0.58039 0.0468 0.84893 0.0
C279 C 0.56334 0.92076 0.89663 0.0
C280 C 0.50592 0.99397 0.91827 0.0
C281 C 0.56531 0.88465 0.89317 0.0
C282 C 0.52293 0.1424 0.96603 0.0
C283 C 0.51602 0.10984 0.93567 0.0
C284 C 0.55937 0.03255 0.86863 0.0
C285 C 0.5316 0.93811 0.88009 0.0
C286 C 0.53067 0.97684 0.88359 0.0
C287 C 0.54312 0.08595 0.93045 0.0
C288 C 0.53616 0.04941 0.9074 0.0
H289 H 0.48032 0.86706 0.84024 0.0
H290 H 0.4767 0.93077 0.84788 0.0
H291 H 0.57579 0.98457 0.82894 0.0
H292 H 0.61062 0.13449 0.00395 0.0
H293 H 0.59892 0.0786 0.95067 0.0
C294 C 0.07666 0.8821 0.64804 0.0
C295 C 0.07191 0.86629 0.58374 0.0
C296 C 0.08368 0.91787 0.65301 0.0
C297 C 0.06091 0.99384 0.63153 0.0
H298 H 0.11423 0.04788 0.51183 0.0
C299 C 0.01699 0.12547 0.51075 0.0
C300 C 0.04178 0.15089 0.49843 0.0
C301 C 0.02721 0.09357 0.54134 0.0
C302 C 0.09962 0.03334 0.5466 0.0
H303 H 0.07361 0.87458 0.4752 0.0
H304 H 0.08718 0.93631 0.48379 0.0
H305 H 0.12468 0.9855 0.52654 0.0
H306 H 0.09668 0.16351 0.51231 0.0
H307 H 0.11469 0.10743 0.56538 0.0
H308 H 0.03462 0.04134 0.64884 0.0
C309 C 0.0854 0.9215 0.53052 0.0
C310 C 0.10544 0.9975 0.55462 0.0
C311 C 0.07782 0.886 0.52551 0.0
C312 C 0.07691 0.1446 0.52179 0.0
C313 C 0.08726 0.11233 0.55143 0.0
C314 C 0.05484 0.02959 0.62293 0.0
C315 C 0.08655 0.93829 0.59382 0.0
C316 C 0.08547 0.97709 0.59566 0.0
C317 C 0.06259 0.086 0.55946 0.0
C318 C 0.0734 0.04963 0.57881 0.0
H319 H 0.07153 0.86765 0.69354 0.0
H320 H 0.08475 0.92993 0.70263 0.0
H321 H 0.04479 0.97897 0.66301 0.0
H322 H 0.98975 0.12947 0.49301 0.0
H323 H 0.0075 0.07392 0.54627 0.0
C324 C 0.08144 0.18351 0.14526 0.0
C325 C 0.0813 0.21527 0.17967 0.0
C326 C 0.08885 0.18251 0.07737 0.0
C327 C 0.11723 0.1907 0.93542 0.0
H328 H 0.05176 0.24991 0.82432 0.0
C329 C 0.12079 0.22982 0.6494 0.0
C330 C 0.08899 0.22937 0.60726 0.0
C331 C 0.12217 0.22107 0.71882 0.0
C332 C 0.06998 0.23306 0.85471 0.0
H333 H 0.09112 0.27052 0.17184 0.0
H334 H 0.10327 0.26888 0.05213 0.0
H335 H 0.05461 0.25153 0.94907 0.0
H336 H 0.03413 0.21729 0.60323 0.0
H337 H 0.03634 0.20286 0.72568 0.0
H338 H 0.13319 0.17297 0.84051 0.0
C339 C 0.09792 0.24479 0.07814 0.0
C340 C 0.07196 0.23435 0.92596 0.0
C341 C 0.09126 0.24568 0.14667 0.0
C342 C 0.05898 0.21765 0.6346 0.0
C343 C 0.06021 0.20965 0.70455 0.0
C344 C 0.11581 0.18999 0.8639 0.0
C345 C 0.09556 0.21335 0.04231 0.0
C346 C 0.09556 0.2132 0.96699 0.0
C347 C 0.09163 0.21245 0.74759 0.0
C348 C 0.09198 0.21103 0.82298 0.0
H349 H 0.07386 0.15968 0.16963 0.0
H350 H 0.08683 0.15798 0.05084 0.0
H351 H 0.13545 0.17398 0.96609 0.0
H352 H 0.14431 0.23874 0.6294 0.0
H353 H 0.14666 0.22352 0.7509 0.0
C354 C 1.00106 0.67898 0.84649 0.0
C355 C 1.00095 0.71094 0.81114 0.0
C356 C 0.99258 0.67721 0.91369 0.0
C357 C 0.95903 0.72933 0.052 0.0
H358 H 0.01881 0.66777 0.16992 0.0
C359 C 0.9555 0.73192 0.34235 0.0
C360 C 0.9877 0.73067 0.38291 0.0
C361 C 0.95277 0.7227 0.27354 0.0
C362 C 1.00203 0.68528 0.13796 0.0
H363 H 0.99008 0.76586 0.817 0.0
H364 H 0.97626 0.76318 0.93482 0.0
H365 H 0.02065 0.66664 0.04707 0.0
H366 H 0.04196 0.71696 0.38463 0.0
H367 H 0.03771 0.702 0.26384 0.0
H368 H 0.94228 0.74978 0.14309 0.0
C369 C 0.98213 0.73917 0.91055 0.0
C370 C 0.00261 0.68424 0.067 0.0
C371 C 0.99004 0.7408 0.84276 0.0
C372 C 0.01677 0.71794 0.35454 0.0
C373 C 0.01422 0.70934 0.28514 0.0
C374 C 0.95881 0.73072 0.12298 0.0
C375 C 0.98449 0.70751 0.94779 0.0
C376 C 0.98143 0.70656 0.02294 0.0
C377 C 0.98238 0.71279 0.24306 0.0
C378 C 0.98061 0.709 0.16716 0.0
H379 H 0.00907 0.65546 0.82305 0.0
H380 H 0.99358 0.65218 0.93962 0.0
H381 H 0.94196 0.74658 0.02002 0.0
H382 H 0.93257 0.74129 0.36327 0.0
H383 H 0.92757 0.72455 0.24372 0.0
C384 C 0.55511 0.72542 0.0889 0.0
C385 C 0.58715 0.73117 0.06349 0.0
C386 C 0.55401 0.71464 0.15696 0.0
C387 C 0.5567 0.6856 0.30181 0.0
H388 H 0.62743 0.72945 0.42758 0.0
C389 C 0.55103 0.67557 0.59268 0.0
C390 C 0.55854 0.70603 0.63015 0.0
C391 C 0.55921 0.67305 0.52545 0.0
C392 C 0.60733 0.71714 0.39335 0.0
H393 H 0.64299 0.72723 0.08675 0.0
H394 H 0.64119 0.70677 0.20416 0.0
H395 H 0.63099 0.73375 0.30543 0.0
H396 H 0.58199 0.75717 0.62737 0.0
H397 H 0.59535 0.75329 0.50965 0.0
H398 H 0.53176 0.67108 0.3896 0.0
C399 C 0.61686 0.71189 0.17293 0.0
C400 C 0.60968 0.71907 0.32294 0.0
C401 C 0.61794 0.72321 0.10538 0.0
C402 C 0.576 0.73326 0.60005 0.0
C403 C 0.58376 0.73094 0.53237 0.0
C404 C 0.55412 0.68403 0.37223 0.0
C405 C 0.58496 0.70905 0.20072 0.0
C406 C 0.58414 0.70375 0.27599 0.0
C407 C 0.57465 0.70112 0.4935 0.0
C408 C 0.57914 0.70023 0.419 0.0
H409 H 0.531 0.73176 0.05787 0.0
H410 H 0.52891 0.71299 0.17623 0.0
H411 H 0.53678 0.67304 0.26758 0.0
H412 H 0.53793 0.65395 0.61469 0.0
H413 H 0.55267 0.64929 0.49806 0.0
C414 C 0.51757 0.18424 0.34518 0.0
C415 C 0.51565 0.21589 0.30842 0.0
C416 C 0.50931 0.18265 0.41252 0.0
C417 C 0.47829 0.18846 0.55179 0.0
H418 H 0.53877 0.25178 0.66151 0.0
C419 C 0.47116 0.22563 0.83622 0.0
C420 C 0.5029 0.22672 0.87852 0.0
C421 C 0.47034 0.21733 0.76714 0.0
C422 C 0.52192 0.23382 0.6315 0.0
H423 H 0.50153 0.27018 0.31145 0.0
H424 H 0.48794 0.26759 0.43038 0.0
H425 H 0.53679 0.25386 0.53681 0.0
H426 H 0.55832 0.21773 0.88325 0.0
H427 H 0.55701 0.20408 0.76148 0.0
H428 H 0.46285 0.16907 0.64701 0.0
C429 C 0.49548 0.24401 0.40654 0.0
C430 C 0.52042 0.23535 0.56027 0.0
C431 C 0.50299 0.24543 0.33851 0.0
C432 C 0.53351 0.21688 0.85181 0.0
C433 C 0.53279 0.20932 0.78222 0.0
C434 C 0.47918 0.18749 0.62325 0.0
C435 C 0.4997 0.21284 0.44472 0.0
C436 C 0.49871 0.21264 0.51976 0.0
C437 C 0.50134 0.21069 0.73892 0.0
C438 C 0.50129 0.20997 0.66366 0.0
H439 H 0.52724 0.16109 0.32301 0.0
H440 H 0.51286 0.15837 0.44094 0.0
H441 H 0.46154 0.17054 0.52151 0.0
H442 H 0.44719 0.2331 0.85572 0.0
H443 H 0.44581 0.21863 0.73479 0.0
loop_
_geom_bond_atom_site_label_1
_geom_bond_atom_site_label_2
_geom_bond_distance
_geom_bond_site_symmetry_2
_ccdc_geom_bond_type
Zn0 O6 1.920 1_655 S
Zn0 O12 1.898 . S
Zn0 O15 1.905 1_655 S
Zn1 O9 1.905 . S
Zn1 O10 1.898 . S
Zn1 O18 1.920 . S
Zn2 O5 2.080 . S
Zn2 O8 2.114 . S
Zn2 O11 2.120 . S
Zn2 O13 2.120 1_455 S
Zn2 O14 2.114 . S
Zn2 O17 2.080 . S
C3 O8 1.166 . S
C3 O9 1.182 . S
C4 O10 1.167 . S
C4 O11 1.299 . S
O5 Zn2 2.080 . S
O5 C19 1.305 . S
O6 Zn0 1.920 1_455 S
O6 C19 1.234 . S
C7 O12 1.167 . S
C7 O13 1.299 . S
O8 Zn2 2.114 . S
O8 C3 1.166 . S
O9 Zn1 1.905 . S
O9 C3 1.182 . S
O10 Zn1 1.898 . S
O10 C4 1.167 . S
O11 Zn2 2.120 . S
O11 C4 1.299 . S
O12 Zn0 1.898 . S
O12 C7 1.167 . S
O13 Zn2 2.120 1_655 S
O13 C7 1.299 . S
O14 Zn2 2.114 . S
O14 C16 1.166 . S
O15 Zn0 1.905 1_455 S
O15 C16 1.182 . S
C16 O14 1.166 . S
C16 O15 1.182 . S
O17 Zn2 2.080 . S
O17 C20 1.305 . S
O18 Zn1 1.920 . S
O18 C20 1.234 . S
C19 O5 1.305 . S
C19 O6 1.234 . S
C20 O17 1.305 . S
C20 O18 1.234 . S
Zn21 O27 1.920 . S
Zn21 O33 1.898 1_655 S
Zn21 O36 1.905 . S
Zn22 O30 1.905 . S
Zn22 O31 1.898 . S
Zn22 O39 1.920 . S
Zn23 O26 2.080 1_455 S
Zn23 O29 2.114 . S
Zn23 O32 2.120 . S
Zn23 O34 2.120 . S
Zn23 O35 2.114 . S
Zn23 O38 2.080 . S
C24 O29 1.166 . S
C24 O30 1.182 . S
C25 O31 1.167 . S
C25 O32 1.299 . S
O26 Zn23 2.080 1_655 S
O26 C40 1.305 . S
O27 Zn21 1.920 . S
O27 C40 1.234 . S
C28 O33 1.167 . S
C28 O34 1.299 . S
O29 Zn23 2.114 . S
O29 C24 1.166 . S
O30 Zn22 1.905 . S
O30 C24 1.182 . S
O31 Zn22 1.898 . S
O31 C25 1.167 . S
O32 Zn23 2.120 . S
O32 C25 1.299 . S
O33 Zn21 1.898 1_455 S
O33 C28 1.167 . S
O34 Zn23 2.120 . S
O34 C28 1.299 . S
O35 Zn23 2.114 . S
O35 C37 1.166 . S
O36 Zn21 1.905 . S
O36 C37 1.182 1_655 S
C37 O35 1.166 . S
C37 O36 1.182 1_455 S
O38 Zn23 2.080 . S
O38 C41 1.305 . S
O39 Zn22 1.920 . S
O39 C41 1.234 . S
C40 O26 1.305 . S
C40 O27 1.234 . S
C41 O38 1.305 . S
C41 O39 1.234 . S
Zn42 O48 1.920 . S
Zn42 O54 1.898 . S
Zn42 O57 1.905 . S
Zn43 O51 1.905 1_556 S
Zn43 O52 1.898 . S
Zn43 O60 1.920 . S
Zn44 O47 2.080 . S
Zn44 O50 2.114 . S
Zn44 O53 2.120 . S
Zn44 O55 2.120 . S
Zn44 O56 2.114 . S
Zn44 O59 2.080 . S
C45 O50 1.166 1_554 S
C45 O51 1.182 . S
C46 O52 1.167 . S
C46 O53 1.299 . S
O47 Zn44 2.080 . S
O47 C61 1.305 . S
O48 Zn42 1.920 . S
O48 C61 1.234 . S
C49 O54 1.167 . S
C49 O55 1.299 . S
O50 Zn44 2.114 . S
O50 C45 1.166 1_556 S
O51 Zn43 1.905 1_554 S
O51 C45 1.182 . S
O52 Zn43 1.898 . S
O52 C46 1.167 . S
O53 Zn44 2.120 . S
O53 C46 1.299 . S
O54 Zn42 1.898 . S
O54 C49 1.167 . S
O55 Zn44 2.120 . S
O55 C49 1.299 . S
O56 Zn44 2.114 . S
O56 C58 1.166 . S
O57 Zn42 1.905 . S
O57 C58 1.182 . S
C58 O56 1.166 . S
C58 O57 1.182 . S
O59 Zn44 2.080 . S
O59 C62 1.305 . S
O60 Zn43 1.920 . S
O60 C62 1.234 . S
C61 O47 1.305 . S
C61 O48 1.234 . S
C62 O59 1.305 . S
C62 O60 1.234 . S
Zn63 O69 1.920 . S
Zn63 O75 1.898 . S
Zn63 O78 1.905 . S
Zn64 O72 1.905 1_554 S
Zn64 O73 1.898 . S
Zn64 O81 1.920 . S
Zn65 O68 2.080 . S
Zn65 O71 2.114 . S
Zn65 O74 2.120 . S
Zn65 O76 2.120 . S
Zn65 O77 2.114 . S
Zn65 O80 2.080 . S
C66 O71 1.166 1_556 S
C66 O72 1.182 . S
C67 O73 1.167 . S
C67 O74 1.299 . S
O68 Zn65 2.080 . S
O68 C82 1.305 . S
O69 Zn63 1.920 . S
O69 C82 1.234 . S
C70 O75 1.167 . S
C70 O76 1.299 . S
O71 Zn65 2.114 . S
O71 C66 1.166 1_554 S
O72 Zn64 1.905 1_556 S
O72 C66 1.182 . S
O73 Zn64 1.898 . S
O73 C67 1.167 . S
O74 Zn65 2.120 . S
O74 C67 1.299 . S
O75 Zn63 1.898 . S
O75 C70 1.167 . S
O76 Zn65 2.120 . S
O76 C70 1.299 . S
O77 Zn65 2.114 . S
O77 C79 1.166 . S
O78 Zn63 1.905 . S
O78 C79 1.182 . S
C79 O77 1.166 . S
C79 O78 1.182 . S
O80 Zn65 2.080 . S
O80 C83 1.305 . S
O81 Zn64 1.920 . S
O81 C83 1.234 . S
C82 O68 1.305 . S
C82 O69 1.234 . S
C83 O80 1.305 . S
C83 O81 1.234 . S
C84 C85 1.349 . S
C84 C86 1.327 . S
C84 H109 0.950 . S
C85 C84 1.349 . S
C85 C101 1.349 . S
C86 C84 1.327 . S
C86 C105 1.429 . S
C86 H110 0.950 . S
C87 C104 1.574 . S
C87 C106 1.368 . S
C87 H111 0.949 . S
H88 C92 0.949 . S
C89 C90 1.349 . S
C89 C91 1.327 . S
C89 H112 0.950 . S
C90 C89 1.349 . S
C90 C102 1.349 . S
C91 C89 1.327 . S
C91 C107 1.429 . S
C91 H113 0.950 . S
C92 H88 0.949 . S
C92 C100 1.574 . S
C92 C108 1.368 . S
H93 C101 0.950 . S
H94 C99 0.950 . S
H95 C100 0.949 . S
H96 C102 0.950 . S
H97 C103 0.950 . S
H98 C104 0.949 . S
C99 H94 0.950 . S
C99 C101 1.327 . S
C99 C105 1.429 . S
C100 C92 1.574 . S
C100 H95 0.949 . S
C100 C106 1.368 . S
C101 C85 1.349 . S
C101 H93 0.950 . S
C101 C99 1.327 . S
C102 C90 1.349 . S
C102 H96 0.950 . S
C102 C103 1.327 . S
C103 H97 0.950 . S
C103 C102 1.327 . S
C103 C107 1.429 . S
C104 C87 1.574 . S
C104 H98 0.949 . S
C104 C108 1.368 . S
C105 C86 1.429 . S
C105 C99 1.429 . S
C105 C106 1.523 . S
C106 C87 1.368 . S
C106 C100 1.368 . S
C106 C105 1.523 . S
C107 C91 1.429 . S
C107 C103 1.429 . S
C107 C108 1.523 . S
C108 C92 1.368 . S
C108 C104 1.368 . S
C108 C107 1.523 . S
H109 C84 0.950 . S
H110 C86 0.950 . S
H111 C87 0.949 . S
H112 C89 0.950 . S
H113 C91 0.950 . S
C114 C115 1.349 . S
C114 C116 1.327 . S
C114 H139 0.950 . S
C115 C114 1.349 . S
C115 C131 1.349 . S
C116 C114 1.327 . S
C116 C135 1.429 . S
C116 H140 0.950 . S
C117 C134 1.574 . S
C117 C136 1.368 . S
C117 H141 0.949 . S
H118 C122 0.949 . S
C119 C120 1.349 . S
C119 C121 1.327 . S
C119 H142 0.950 . S
C120 C119 1.349 . S
C120 C132 1.349 . S
C121 C119 1.327 . S
C121 C137 1.429 . S
C121 H143 0.950 . S
C122 H118 0.949 . S
C122 C130 1.574 . S
C122 C138 1.368 . S
H123 C131 0.950 . S
H124 C129 0.950 . S
H125 C130 0.949 . S
H126 C132 0.950 . S
H127 C133 0.950 . S
H128 C134 0.949 . S
C129 H124 0.950 . S
C129 C131 1.327 . S
C129 C135 1.429 . S
C130 C122 1.574 . S
C130 H125 0.949 . S
C130 C136 1.368 . S
C131 C115 1.349 . S
C131 H123 0.950 . S
C131 C129 1.327 . S
C132 C120 1.349 . S
C132 H126 0.950 . S
C132 C133 1.327 . S
C133 H127 0.950 . S
C133 C132 1.327 . S
C133 C137 1.429 . S
C134 C117 1.574 . S
C134 H128 0.949 . S
C134 C138 1.368 . S
C135 C116 1.429 . S
C135 C129 1.429 . S
C135 C136 1.523 . S
C136 C117 1.368 . S
C136 C130 1.368 . S
C136 C135 1.523 . S
C137 C121 1.429 . S
C137 C133 1.429 . S
C137 C138 1.523 . S
C138 C122 1.368 . S
C138 C134 1.368 . S
C138 C137 1.523 . S
H139 C114 0.950 . S
H140 C116 0.950 . S
H141 C117 0.949 . S
H142 C119 0.950 . S
H143 C121 0.950 . S
C144 C145 1.349 . S
C144 C146 1.327 . S
C144 H169 0.950 . S
C145 C144 1.349 . S
C145 C161 1.349 . S
C146 C144 1.327 . S
C146 C165 1.429 . S
C146 H170 0.950 . S
C147 C164 1.574 1_554 S
C147 C166 1.368 . S
C147 H171 0.949 . S
H148 C152 0.950 . S
C149 C150 1.349 . S
C149 C151 1.327 . S
C149 H172 0.950 . S
C150 C149 1.349 . S
C150 C162 1.349 . S
C151 C149 1.327 . S
C151 C167 1.429 . S
C151 H173 0.950 . S
C152 H148 0.950 . S
C152 C160 1.574 . S
C152 C168 1.368 1_554 S
H153 C161 0.950 . S
H154 C159 0.950 . S
H155 C160 0.949 . S
H156 C162 0.950 . S
H157 C163 0.950 . S
H158 C164 0.949 . S
C159 H154 0.950 . S
C159 C161 1.327 . S
C159 C165 1.429 . S
C160 C152 1.574 . S
C160 H155 0.949 . S
C160 C166 1.368 . S
C161 C145 1.349 . S
C161 H153 0.950 . S
C161 C159 1.327 . S
C162 C150 1.349 . S
C162 H156 0.950 . S
C162 C163 1.327 . S
C163 H157 0.950 . S
C163 C162 1.327 . S
C163 C167 1.429 . S
C164 C147 1.574 1_556 S
C164 H158 0.949 . S
C164 C168 1.368 . S
C165 C146 1.429 . S
C165 C159 1.429 . S
C165 C166 1.523 . S
C166 C147 1.368 . S
C166 C160 1.368 . S
C166 C165 1.523 . S
C167 C151 1.429 . S
C167 C163 1.429 . S
C167 C168 1.523 . S
C168 C152 1.368 1_556 S
C168 C164 1.368 . S
C168 C167 1.523 . S
H169 C144 0.950 . S
H170 C146 0.950 . S
H171 C147 0.949 . S
H172 C149 0.950 . S
H173 C151 0.950 . S
C174 C175 1.349 . S
C174 C176 1.327 . S
C174 H199 0.950 . S
C175 C174 1.349 . S
C175 C191 1.349 . S
C176 C174 1.327 . S
C176 C195 1.429 . S
C176 H200 0.950 . S
C177 C194 1.574 . S
C177 C196 1.368 . S
C177 H201 0.949 . S
H178 C182 0.949 . S
C179 C180 1.349 . S
C179 C181 1.327 . S
C179 H202 0.950 . S
C180 C179 1.349 . S
C180 C192 1.349 . S
C181 C179 1.327 . S
C181 C197 1.429 . S
C181 H203 0.950 . S
C182 H178 0.949 . S
C182 C190 1.574 . S
C182 C198 1.368 . S
H183 C191 0.950 . S
H184 C189 0.950 . S
H185 C190 0.949 . S
H186 C192 0.950 . S
H187 C193 0.950 . S
H188 C194 0.949 . S
C189 H184 0.950 . S
C189 C191 1.327 . S
C189 C195 1.429 . S
C190 C182 1.574 . S
C190 H185 0.949 . S
C190 C196 1.368 . S
C191 C175 1.349 . S
C191 H183 0.950 . S
C191 C189 1.327 . S
C192 C180 1.349 . S
C192 H186 0.950 . S
C192 C193 1.327 . S
C193 H187 0.950 . S
C193 C192 1.327 . S
C193 C197 1.429 . S
C194 C177 1.574 . S
C194 H188 0.949 . S
C194 C198 1.368 . S
C195 C176 1.429 . S
C195 C189 1.429 . S
C195 C196 1.523 . S
C196 C177 1.368 . S
C196 C190 1.368 . S
C196 C195 1.523 . S
C197 C181 1.429 . S
C197 C193 1.429 . S
C197 C198 1.523 . S
C198 C182 1.368 . S
C198 C194 1.368 . S
C198 C197 1.523 . S
H199 C174 0.950 . S
H200 C176 0.950 . S
H201 C177 0.949 . S
H202 C179 0.950 . S
H203 C181 0.950 . S
C204 C205 1.349 . S
C204 C206 1.327 . S
C204 H229 0.950 . S
C205 C204 1.349 . S
C205 C221 1.349 . S
C206 C204 1.327 . S
C206 C225 1.429 . S
C206 H230 0.950 . S
C207 C224 1.574 . S
C207 C226 1.368 . S
C207 H231 0.949 . S
H208 C212 0.949 . S
C209 C210 1.349 . S
C209 C211 1.327 . S
C209 H232 0.950 . S
C210 C209 1.349 . S
C210 C222 1.349 . S
C211 C209 1.327 . S
C211 C227 1.429 . S
C211 H233 0.950 . S
C212 H208 0.949 . S
C212 C220 1.574 . S
C212 C228 1.368 . S
H213 C221 0.950 . S
H214 C219 0.950 . S
H215 C220 0.949 . S
H216 C222 0.950 . S
H217 C223 0.950 . S
H218 C224 0.949 . S
C219 H214 0.950 . S
C219 C221 1.327 . S
C219 C225 1.429 . S
C220 C212 1.574 . S
C220 H215 0.949 . S
C220 C226 1.368 . S
C221 C205 1.349 . S
C221 H213 0.950 . S
C221 C219 1.327 . S
C222 C210 1.349 . S
C222 H216 0.950 . S
C222 C223 1.327 . S
C223 H217 0.950 . S
C223 C222 1.327 . S
C223 C227 1.429 . S
C224 C207 1.574 . S
C224 H218 0.949 . S
C224 C228 1.368 . S
C225 C206 1.429 . S
C225 C219 1.429 . S
C225 C226 1.523 . S
C226 C207 1.368 . S
C226 C220 1.368 . S
C226 C225 1.523 . S
C227 C211 1.429 . S
C227 C223 1.429 . S
C227 C228 1.523 . S
C228 C212 1.368 . S
C228 C224 1.368 . S
C228 C227 1.523 . S
H229 C204 0.950 . S
H230 C206 0.950 . S
H231 C207 0.949 . S
H232 C209 0.950 . S
H233 C211 0.950 . S
C234 C235 1.349 . S
C234 C236 1.327 . S
C234 H259 0.950 . S
C235 C234 1.349 . S
C235 C251 1.349 . S
C236 C234 1.327 . S
C236 C255 1.429 . S
C236 H260 0.950 . S
C237 C254 1.574 . S
C237 C256 1.368 . S
C237 H261 0.949 . S
H238 C242 0.949 . S
C239 C240 1.349 . S
C239 C241 1.327 . S
C239 H262 0.950 . S
C240 C239 1.349 . S
C240 C252 1.349 . S
C241 C239 1.327 . S
C241 C257 1.429 . S
C241 H263 0.950 . S
C242 H238 0.949 . S
C242 C250 1.574 . S
C242 C258 1.368 . S
H243 C251 0.950 . S
H244 C249 0.950 . S
H245 C250 0.949 . S
H246 C252 0.950 . S
H247 C253 0.950 . S
H248 C254 0.949 . S
C249 H244 0.950 . S
C249 C251 1.327 . S
C249 C255 1.429 . S
C250 C242 1.574 . S
C250 H245 0.949 . S
C250 C256 1.368 . S
C251 C235 1.349 . S
C251 H243 0.950 . S
C251 C249 1.327 . S
C252 C240 1.349 . S
C252 H246 0.950 . S
C252 C253 1.327 . S
C253 H247 0.950 . S
C253 C252 1.327 . S
C253 C257 1.429 . S
C254 C237 1.574 . S
C254 H248 0.949 . S
C254 C258 1.368 . S
C255 C236 1.429 . S
C255 C249 1.429 . S
C255 C256 1.523 . S
C256 C237 1.368 . S
C256 C250 1.368 . S
C256 C255 1.523 . S
C257 C241 1.429 . S
C257 C253 1.429 . S
C257 C258 1.523 . S
C258 C242 1.368 . S
C258 C254 1.368 . S
C258 C257 1.523 . S
H259 C234 0.950 . S
H260 C236 0.950 . S
H261 C237 0.949 . S
H262 C239 0.950 . S
H263 C241 0.950 . S
C264 C265 1.349 . S
C264 C266 1.327 . S
C264 H289 0.950 . S
C265 C264 1.349 . S
C265 C281 1.349 . S
C266 C264 1.327 . S
C266 C285 1.429 . S
C266 H290 0.950 . S
C267 C284 1.574 1_565 S
C267 C286 1.368 1_554 S
C267 H291 0.949 . S
H268 C272 0.949 . S
C269 C270 1.349 . S
C269 C271 1.327 . S
C269 H292 0.950 . S
C270 C269 1.349 . S
C270 C282 1.349 . S
C271 C269 1.327 . S
C271 C287 1.429 . S
C271 H293 0.950 . S
C272 H268 0.949 . S
C272 C280 1.574 1_545 S
C272 C288 1.368 1_556 S
H273 C281 0.950 1_554 S
H274 C279 0.950 1_554 S
H275 C280 0.949 . S
H276 C282 0.950 1_556 S
H277 C283 0.950 . S
H278 C284 0.949 . S
C279 H274 0.950 1_556 S
C279 C281 1.327 . S
C279 C285 1.429 . S
C280 C272 1.574 1_565 S
C280 H275 0.949 . S
C280 C286 1.368 . S
C281 C265 1.349 . S
C281 H273 0.950 1_556 S
C281 C279 1.327 . S
C282 C270 1.349 . S
C282 H276 0.950 1_554 S
C282 C283 1.327 1_554 S
C283 H277 0.950 . S
C283 C282 1.327 1_556 S
C283 C287 1.429 1_556 S
C284 C267 1.574 1_545 S
C284 H278 0.949 . S
C284 C288 1.368 . S
C285 C266 1.429 . S
C285 C279 1.429 . S
C285 C286 1.523 . S
C286 C267 1.368 1_556 S
C286 C280 1.368 . S
C286 C285 1.523 . S
C287 C271 1.429 . S
C287 C283 1.429 1_554 S
C287 C288 1.523 . S
C288 C272 1.368 1_554 S
C288 C284 1.368 . S
C288 C287 1.523 . S
H289 C264 0.950 . S
H290 C266 0.950 . S
H291 C267 0.949 . S
H292 C269 0.950 . S
H293 C271 0.950 . S
C294 C295 1.349 . S
C294 C296 1.327 . S
C294 H319 0.950 . S
C295 C294 1.349 . S
C295 C311 1.349 . S
C296 C294 1.327 . S
C296 C315 1.429 . S
C296 H320 0.950 . S
C297 C314 1.574 1_565 S
C297 C316 1.368 . S
C297 H321 0.949 . S
H298 C302 0.949 . S
C299 C300 1.349 . S
C299 C301 1.327 . S
C299 H322 0.950 . S
C300 C299 1.349 . S
C300 C312 1.349 . S
C301 C299 1.327 . S
C301 C317 1.429 . S
C301 H323 0.950 . S
C302 H298 0.949 . S
C302 C310 1.574 1_545 S
C302 C318 1.368 . S
H303 C311 0.950 . S
H304 C309 0.950 . S
H305 C310 0.949 . S
H306 C312 0.950 . S
H307 C313 0.950 . S
H308 C314 0.949 . S
C309 H304 0.950 . S
C309 C311 1.327 . S
C309 C315 1.429 . S
C310 C302 1.574 1_565 S
C310 H305 0.949 . S
C310 C316 1.368 . S
C311 C295 1.349 . S
C311 H303 0.950 . S
C311 C309 1.327 . S
C312 C300 1.349 . S
C312 H306 0.950 . S
C312 C313 1.327 . S
C313 H307 0.950 . S
C313 C312 1.327 . S
C313 C317 1.429 . S
C314 C297 1.574 1_545 S
C314 H308 0.949 . S
C314 C318 1.368 . S
C315 C296 1.429 . S
C315 C309 1.429 . S
C315 C316 1.523 . S
C316 C297 1.368 . S
C316 C310 1.368 . S
C316 C315 1.523 . S
C317 C301 1.429 . S
C317 C313 1.429 . S
C317 C318 1.523 . S
C318 C302 1.368 . S
C318 C314 1.368 . S
C318 C317 1.523 . S
H319 C294 0.950 . S
H320 C296 0.950 . S
H321 C297 0.949 . S
H322 C299 0.950 . S
H323 C301 0.950 . S
C324 C325 1.349 . S
C324 C326 1.327 . S
C324 H349 0.950 . S
C325 C324 1.349 . S
C325 C341 1.349 . S
C326 C324 1.327 . S
C326 C345 1.429 . S
C326 H350 0.950 . S
C327 C344 1.574 . S
C327 C346 1.368 . S
C327 H351 0.949 . S
H328 C332 0.949 . S
C329 C330 1.349 . S
C329 C331 1.327 . S
C329 H352 0.950 . S
C330 C329 1.349 . S
C330 C342 1.349 . S
C331 C329 1.327 . S
C331 C347 1.429 . S
C331 H353 0.950 . S
C332 H328 0.949 . S
C332 C340 1.574 . S
C332 C348 1.368 . S
H333 C341 0.950 . S
H334 C339 0.950 . S
H335 C340 0.949 . S
H336 C342 0.950 . S
H337 C343 0.950 . S
H338 C344 0.949 . S
C339 H334 0.950 . S
C339 C341 1.327 . S
C339 C345 1.429 . S
C340 C332 1.574 . S
C340 H335 0.949 . S
C340 C346 1.368 . S
C341 C325 1.349 . S
C341 H333 0.950 . S
C341 C339 1.327 . S
C342 C330 1.349 . S
C342 H336 0.950 . S
C342 C343 1.327 . S
C343 H337 0.950 . S
C343 C342 1.327 . S
C343 C347 1.429 . S
C344 C327 1.574 . S
C344 H338 0.949 . S
C344 C348 1.368 . S
C345 C326 1.429 . S
C345 C339 1.429 . S
C345 C346 1.523 1_554 S
C346 C327 1.368 . S
C346 C340 1.368 . S
C346 C345 1.523 1_556 S
C347 C331 1.429 . S
C347 C343 1.429 . S
C347 C348 1.523 . S
C348 C332 1.368 . S
C348 C344 1.368 . S
C348 C347 1.523 . S
H349 C324 0.950 . S
H350 C326 0.950 . S
H351 C327 0.949 . S
H352 C329 0.950 . S
H353 C331 0.950 . S
C354 C355 1.349 . S
C354 C356 1.327 . S
C354 H379 0.950 . S
C355 C354 1.349 . S
C355 C371 1.349 . S
C356 C354 1.327 . S
C356 C375 1.429 . S
C356 H380 0.950 . S
C357 C374 1.574 . S
C357 C376 1.368 1_655 S
C357 H381 0.949 . S
H358 C362 0.949 . S
C359 C360 1.349 1_655 S
C359 C361 1.327 . S
C359 H382 0.950 . S
C360 C359 1.349 1_455 S
C360 C372 1.349 . S
C361 C359 1.327 . S
C361 C377 1.429 1_655 S
C361 H383 0.950 . S
C362 H358 0.949 . S
C362 C370 1.574 . S
C362 C378 1.368 . S
H363 C371 0.949 1_655 S
H364 C369 0.950 . S
H365 C370 0.949 . S
H366 C372 0.950 . S
H367 C373 0.950 . S
H368 C374 0.949 . S
C369 H364 0.950 . S
C369 C371 1.327 1_655 S
C369 C375 1.429 1_655 S
C370 C362 1.574 . S
C370 H365 0.949 . S
C370 C376 1.368 . S
C371 C355 1.349 . S
C371 H363 0.949 1_455 S
C371 C369 1.327 1_455 S
C372 C360 1.349 . S
C372 H366 0.950 . S
C372 C373 1.327 . S
C373 H367 0.950 . S
C373 C372 1.327 . S
C373 C377 1.429 . S
C374 C357 1.574 . S
C374 H368 0.949 . S
C374 C378 1.368 1_655 S
C375 C356 1.429 . S
C375 C369 1.429 1_455 S
C375 C376 1.523 1_556 S
C376 C357 1.368 1_455 S
C376 C370 1.368 . S
C376 C375 1.523 1_554 S
C377 C361 1.429 1_455 S
C377 C373 1.429 . S
C377 C378 1.523 . S
C378 C362 1.368 . S
C378 C374 1.368 1_455 S
C378 C377 1.523 . S
H379 C354 0.950 . S
H380 C356 0.950 . S
H381 C357 0.949 . S
H382 C359 0.950 . S
H383 C361 0.950 . S
C384 C385 1.349 . S
C384 C386 1.327 . S
C384 H409 0.950 . S
C385 C384 1.349 . S
C385 C401 1.349 . S
C386 C384 1.327 . S
C386 C405 1.429 . S
C386 H410 0.950 . S
C387 C404 1.574 . S
C387 C406 1.368 . S
C387 H411 0.949 . S
H388 C392 0.949 . S
C389 C390 1.349 . S
C389 C391 1.327 . S
C389 H412 0.950 . S
C390 C389 1.349 . S
C390 C402 1.349 . S
C391 C389 1.327 . S
C391 C407 1.429 . S
C391 H413 0.950 . S
C392 H388 0.949 . S
C392 C400 1.574 . S
C392 C408 1.368 . S
H393 C401 0.950 . S
H394 C399 0.950 . S
H395 C400 0.949 . S
H396 C402 0.950 . S
H397 C403 0.950 . S
H398 C404 0.949 . S
C399 H394 0.950 . S
C399 C401 1.327 . S
C399 C405 1.429 . S
C400 C392 1.574 . S
C400 H395 0.949 . S
C400 C406 1.368 . S
C401 C385 1.349 . S
C401 H393 0.950 . S
C401 C399 1.327 . S
C402 C390 1.349 . S
C402 H396 0.950 . S
C402 C403 1.327 . S
C403 H397 0.950 . S
C403 C402 1.327 . S
C403 C407 1.429 . S
C404 C387 1.574 . S
C404 H398 0.949 . S
C404 C408 1.368 . S
C405 C386 1.429 . S
C405 C399 1.429 . S
C405 C406 1.523 . S
C406 C387 1.368 . S
C406 C400 1.368 . S
C406 C405 1.523 . S
C407 C391 1.429 . S
C407 C403 1.429 . S
C407 C408 1.523 . S
C408 C392 1.368 . S
C408 C404 1.368 . S
C408 C407 1.523 . S
H409 C384 0.950 . S
H410 C386 0.950 . S
H411 C387 0.949 . S
H412 C389 0.950 . S
H413 C391 0.950 . S
C414 C415 1.349 . S
C414 C416 1.327 . S
C414 H439 0.950 . S
C415 C414 1.349 . S
C415 C431 1.349 . S
C416 C414 1.327 . S
C416 C435 1.429 . S
C416 H440 0.950 . S
C417 C434 1.574 . S
C417 C436 1.368 . S
C417 H441 0.949 . S
H418 C422 0.949 . S
C419 C420 1.349 . S
C419 C421 1.327 . S
C419 H442 0.950 . S
C420 C419 1.349 . S
C420 C432 1.349 . S
C421 C419 1.327 . S
C421 C437 1.429 . S
C421 H443 0.950 . S
C422 H418 0.949 . S
C422 C430 1.574 . S
C422 C438 1.368 . S
H423 C431 0.950 . S
H424 C429 0.950 . S
H425 C430 0.949 . S
H426 C432 0.950 . S
H427 C433 0.950 . S
H428 C434 0.949 . S
C429 H424 0.950 . S
C429 C431 1.327 . S
C429 C435 1.429 . S
C430 C422 1.574 . S
C430 H425 0.949 . S
C430 C436 1.368 . S
C431 C415 1.349 . S
C431 H423 0.950 . S
C431 C429 1.327 . S
C432 C420 1.349 . S
C432 H426 0.950 . S
C432 C433 1.327 . S
C433 H427 0.950 . S
C433 C432 1.327 . S
C433 C437 1.429 . S
C434 C417 1.574 . S
C434 H428 0.949 . S
C434 C438 1.368 . S
C435 C416 1.429 . S
C435 C429 1.429 . S
C435 C436 1.523 . S
C436 C417 1.368 . S
C436 C430 1.368 . S
C436 C435 1.523 . S
C437 C421 1.429 . S
C437 C433 1.429 . S
C437 C438 1.523 . S
C438 C422 1.368 . S
C438 C434 1.368 . S
C438 C437 1.523 . S
H439 C414 0.950 . S
H440 C416 0.950 . S
H441 C417 0.949 . S
H442 C419 0.950 . S
H443 C421 0.950 . S
C85 C3 1.406 . S
C90 C25 1.519 . S
C115 C62 1.182 . S
C120 C40 1.181 . S
C145 C67 1.375 . S
C150 C49 1.499 . S
C175 C7 1.748 . S
C180 C79 1.760 . S
C205 C83 1.185 . S
C210 C4 1.181 . S
C235 C58 1.761 . S
C240 C24 1.764 . S
C265 C46 1.394 . S
C270 C70 1.517 . S
C295 C28 1.372 . S
C300 C19 1.501 . S
C325 C16 1.051 . S
C330 C20 1.043 . S
C355 C41 1.046 . S
C360 C37 1.042 . S
C385 C45 1.044 . S
C390 C61 1.047 . S
C415 C82 1.047 . S
C420 C66 1.043 . S
