# Generated by pormake.
# Topology sxb, (6)-cn, num edge types: 1
# Building blocks:
#     Node 0, Type 0, BuildingBlock: CIFDUS_clean_sbu_1, # of connection points: 6
#     Node 1, Type 0, BuildingBlock: CIFDUS_clean_sbu_1, # of connection points: 6
#     Node 2, Type 0, BuildingBlock: CIFDUS_clean_sbu_1, # of connection points: 6
#     Node 3, Type 0, BuildingBlock: CIFDUS_clean_sbu_1, # of connection points: 6
#     Edge 4, Type (0, 0), BuildingBlock: MIFKUJ_clean_linker_0, # of connection points: 2
#     Edge 5, Type (0, 0), BuildingBlock: MIFKUJ_clean_linker_0, # of connection points: 2
#     Edge 6, Type (0, 0), BuildingBlock: MIFKUJ_clean_linker_0, # of connection points: 2
#     Edge 7, Type (0, 0), BuildingBlock: MIFKUJ_clean_linker_0, # of connection points: 2
#     Edge 8, Type (0, 0), BuildingBlock: MIFKUJ_clean_linker_0, # of connection points: 2
#     Edge 9, Type (0, 0), BuildingBlock: MIFKUJ_clean_linker_0, # of connection points: 2
#     Edge 10, Type (0, 0), BuildingBlock: MIFKUJ_clean_linker_0, # of connection points: 2
#     Edge 11, Type (0, 0), BuildingBlock: MIFKUJ_clean_linker_0, # of connection points: 2
#     Edge 12, Type (0, 0), BuildingBlock: MIFKUJ_clean_linker_0, # of connection points: 2
#     Edge 13, Type (0, 0), BuildingBlock: MIFKUJ_clean_linker_0, # of connection points: 2
#     Edge 14, Type (0, 0), BuildingBlock: MIFKUJ_clean_linker_0, # of connection points: 2
#     Edge 15, Type (0, 0), BuildingBlock: MIFKUJ_clean_linker_0, # of connection points: 2
# Relax obj value: 0.095
# Max RMSD: 0.134
# Mean RMSD: 0.134
data_MOF--net-sxb--node1-CIFDUS_clean_sbu_1--edge1-MIFKUJ_clean_linker_0
_symmetry_space_group_name_H-M    P1
_symmetry_Int_Tables_number       1
_symmetry_cell_setting            triclinic
loop_
_symmetry_equiv_pos_as_xyz
'x, y, z'
_cell_length_a     19.331223
_cell_length_b     35.813585
_cell_length_c     40.232232
_cell_angle_alpha  89.861039
_cell_angle_beta   103.78659
_cell_angle_gamma 89.827496
loop_
_atom_site_label
_atom_site_type_symbol
_atom_site_fract_x
_atom_site_fract_y
_atom_site_fract_z
_atom_type_partial_charge
O0 O 0.04297 0.95242 0.00985 0.0
Mn1 Mn 0.01766 0.00936 0.01194 0.0
O2 O 0.15161 0.95263 0.04356 0.0
Mn3 Mn 0.13878 0.99942 0.06069 0.0
O4 O -0.00887 0.06657 0.01333 0.0
O5 O 0.98278 1.00638 0.95764 0.0
Mn6 Mn 0.89539 0.01882 0.96127 0.0
O7 O 0.92146 0.99413 0.02533 0.0
O8 O 0.88422 0.06573 0.97759 0.0
O9 O 0.11337 0.02589 0.99819 0.0
O10 O 0.18259 0.03955 0.04742 0.0
O11 O 0.88158 0.01922 0.91689 0.0
O12 O 0.85057 0.98013 0.97637 0.0
C13 C 0.08981 1.0065 0.09898 0.0
C14 C 0.10163 0.93574 0.02322 0.0
C15 C 0.9332 0.08311 0.99808 0.0
C16 C 0.9474 0.00812 0.92497 0.0
C17 C 0.86418 0.97888 0.00836 0.0
C18 C 0.16839 0.04276 0.01562 0.0
O19 O 0.05173 0.01018 0.0668 0.0
O20 O 0.1567 0.99771 0.10497 0.0
O21 O 0.08743 0.99451 0.49649 0.0
Mn22 Mn -0.00596 0.01515 0.50884 0.0
O23 O 0.17253 0.99657 0.54483 0.0
Mn24 Mn 0.12008 0.02739 0.56532 0.0
O25 O 0.90124 0.03558 0.52184 0.0
O26 O 0.95502 0.01929 0.45623 0.0
Mn27 Mn 0.8635 0.0111 0.45365 0.0
O28 O 0.95321 0.96027 0.5093 0.0
O29 O 0.82677 0.05033 0.47295 0.0
O30 O 0.03247 0.07074 0.5069 0.0
O31 O 0.12067 0.07666 0.55375 0.0
O32 O 0.86487 0.01625 0.40964 0.0
O33 O 0.84908 0.96419 0.47017 0.0
C34 C 0.05812 1.00627 0.59511 0.0
C35 C 0.15121 0.98765 0.51372 0.0
C36 C 0.84357 0.05125 0.50518 0.0
C37 C 0.93195 0.02214 0.4228 0.0
C38 C 0.89278 0.94634 0.49352 0.0
C39 C 0.08233 0.08996 0.52632 0.0
O40 O 0.03319 0.00969 0.56169 0.0
O41 O 0.12252 0.01734 0.60865 0.0
O42 O 0.56258 0.4566 0.00837 0.0
Mn43 Mn 0.51648 0.51072 0.01291 0.0
O44 O 0.6159 0.44141 0.06179 0.0
Mn45 Mn 0.62392 0.48988 0.07487 0.0
O46 O 0.47441 0.56435 0.02097 0.0
O47 O 0.49158 0.50919 0.95788 0.0
Mn48 Mn 0.42338 0.54272 0.96006 0.0
O49 O 0.42119 0.48612 0.01507 0.0
O50 O 0.45374 0.5904 0.97106 0.0
O51 O 0.61237 0.53546 0.01044 0.0
O52 O 0.68837 0.51841 0.05929 0.0
O53 O 0.4042 0.53613 0.9161 0.0
O54 O 0.35093 0.52432 0.97822 0.0
C55 C 0.55531 0.51291 0.10014 0.0
C56 C 0.59772 0.43307 0.03053 0.0
C57 C 0.46363 0.59398 0.00268 0.0
C58 C 0.4589 0.51412 0.92497 0.0
C59 C 0.35951 0.49804 0.99998 0.0
C60 C 0.67428 0.53563 0.03086 0.0
O61 O 0.54022 0.51208 0.06636 0.0
O62 O 0.61492 0.4983 0.11698 0.0
O63 O 0.60015 0.49326 0.52053 0.0
Mn64 Mn 0.49661 0.51283 0.51056 0.0
O65 O 0.65723 0.52758 0.56534 0.0
Mn66 Mn 0.57812 0.55276 0.57244 0.0
O67 O 0.39266 0.53175 0.49986 0.0
O68 O 0.4889 0.50436 0.45842 0.0
Mn69 Mn 0.42367 0.46884 0.45242 0.0
O70 O 0.45791 0.45964 0.52154 0.0
O71 O 0.34103 0.49047 0.45957 0.0
O72 O 0.53441 0.56672 0.50062 0.0
O73 O 0.55731 0.59731 0.54989 0.0
O74 O 0.43987 0.47212 0.41085 0.0
O75 O 0.45597 0.42608 0.47612 0.0
C76 C 0.50688 0.52507 0.59487 0.0
C77 C 0.65696 0.50317 0.54224 0.0
C78 C 0.33753 0.51778 0.47949 0.0
C79 C 0.48284 0.49813 0.42555 0.0
C80 C 0.45219 0.42775 0.50678 0.0
C81 C 0.5497 0.59707 0.5179 0.0
O82 O 0.50523 0.5217 0.5622 0.0
O83 O 0.55381 0.54761 0.61254 0.0
H84 H 0.36706 0.60139 0.04196 0.0
H85 H 0.29841 0.65796 0.04744 0.0
H86 H 0.42799 0.72152 0.99429 0.0
H87 H 0.49528 0.66493 0.98802 0.0
H88 H 0.39421 0.76164 0.04744 0.0
H89 H 0.28159 0.69339 0.94946 0.0
H90 H 0.23334 0.637 0.91732 0.0
H91 H 0.07458 0.62839 0.97528 0.0
H92 H 0.12264 0.68451 0.0084 0.0
H93 H 0.12217 0.90124 0.9656 0.0
H94 H 0.17632 0.839 0.96379 0.0
H95 H 0.1613 0.81804 0.06726 0.0
H96 H 0.11022 0.88044 0.06962 0.0
H97 H 0.1377 0.75687 0.9882 0.0
H98 H 0.28464 0.8279 0.09243 0.0
H99 H 0.3448 0.88593 0.11614 0.0
H100 H 0.45217 0.89037 0.03425 0.0
H101 H 0.38902 0.83361 0.00895 0.0
C102 C 0.38252 0.62772 0.0326 0.0
C103 C 0.4371 0.62892 0.01492 0.0
C104 C 0.3427 0.65993 0.03535 0.0
C105 C 0.35752 0.69394 0.02094 0.0
C106 C 0.41551 0.69566 0.00559 0.0
C107 C 0.45424 0.66338 0.0022 0.0
C108 C 0.30963 0.72696 0.01945 0.0
C109 C 0.33805 0.76039 0.03475 0.0
C110 C 0.23678 0.72592 0.00189 0.0
C111 C 0.20626 0.69281 0.9817 0.0
C112 C 0.23668 0.6793 0.95558 0.0
C113 C 0.20932 0.64743 0.93719 0.0
C114 C 0.15097 0.62906 0.94441 0.0
C115 C 0.11974 0.64266 0.96991 0.0
C116 C 0.14699 0.67449 0.98848 0.0
C117 C 0.12847 0.8828 0.98751 0.0
C118 C 0.11229 0.89554 0.01778 0.0
C119 C 0.15993 0.84746 0.98659 0.0
C120 C 0.17529 0.82453 0.01585 0.0
C121 C 0.15206 0.83575 0.04477 0.0
C122 C 0.12205 0.87119 0.04595 0.0
C123 C 0.22178 0.79098 0.0176 0.0
C124 C 0.1934 0.7577 0.00169 0.0
C125 C 0.29533 0.79235 0.03381 0.0
C126 C 0.33044 0.82727 0.04828 0.0
C127 C 0.31931 0.84191 0.07892 0.0
C128 C 0.35415 0.8745 0.09271 0.0
C129 C 0.40187 0.89202 0.07657 0.0
C130 C 0.41484 0.87694 0.04661 0.0
C131 C 0.37892 0.84482 0.03234 0.0
H132 H 0.42907 0.91716 0.08734 0.0
H133 H 0.12981 0.60435 0.93018 0.0
H134 H 0.57225 0.39296 0.96849 0.0
H135 H 0.63637 0.33599 0.95736 0.0
H136 H 0.76424 0.33878 0.06099 0.0
H137 H 0.70282 0.39353 0.07219 0.0
H138 H 0.84763 0.32537 0.02058 0.0
H139 H 0.62493 0.28071 0.03747 0.0
H140 H 0.49459 0.27367 0.02602 0.0
H141 H 0.49021 0.22998 0.92625 0.0
H142 H 0.62055 0.23743 0.93688 0.0
H143 H 0.96044 0.12912 0.05537 0.0
H144 H 0.91285 0.19308 0.0575 0.0
H145 H 0.82794 0.19096 0.94824 0.0
H146 H 0.87624 0.12861 0.94587 0.0
H147 H 0.72497 0.20519 0.98679 0.0
H148 H 0.96215 0.2424 0.98018 0.0
H149 H 0.09264 0.24446 0.00128 0.0
H150 H 0.06998 0.29958 0.09274 0.0
H151 H 0.93928 0.29658 0.07284 0.0
C152 C 0.61378 0.38119 0.98878 0.0
C153 C 0.63103 0.39796 0.02133 0.0
C154 C 0.65058 0.34874 0.98244 0.0
C155 C 0.7057 0.33312 0.00839 0.0
C156 C 0.72275 0.35019 0.04042 0.0
C157 C 0.68623 0.3817 0.0468 0.0
C158 C 0.74556 0.29844 0.00382 0.0
C159 C 0.82069 0.29909 0.01311 0.0
C160 C 0.71085 0.26399 0.99446 0.0
C161 C 0.63234 0.26026 0.98772 0.0
C162 C 0.59609 0.2701 0.0129 0.0
C163 C 0.52222 0.26593 0.0066 0.0
C164 C 0.48409 0.25155 0.97536 0.0
C165 C 0.51979 0.24127 0.95038 0.0
C166 C 0.59364 0.2455 0.95651 0.0
C167 C 0.93378 0.14296 0.03181 0.0
C168 C 0.92156 0.12382 1.00051 0.0
C169 C 0.90616 0.17929 0.03302 0.0
C170 C 0.86576 0.19648 0.003 0.0
C171 C 0.85794 0.17813 0.97171 0.0
C172 C 0.88592 0.14249 0.97044 0.0
C173 C 0.82667 0.2322 0.00373 0.0
C174 C 0.75181 0.23161 0.99377 0.0
C175 C 0.8617 0.26642 0.0136 0.0
C176 C 0.94058 0.26876 0.02518 0.0
C177 C 0.98482 0.25444 0.00503 0.0
C178 C 0.05893 0.25571 0.01682 0.0
C179 C 0.08958 0.27192 0.04843 0.0
C180 C 0.04618 0.28687 0.06832 0.0
C181 C 0.97206 0.2853 0.05683 0.0
H182 H 0.14694 0.27314 0.05739 0.0
H183 H 0.42693 0.24824 0.97057 0.0
H184 H 0.2174 0.11234 0.53582 0.0
H185 H 0.26254 0.17433 0.52955 0.0
H186 H 0.04908 0.21388 0.48664 0.0
H187 H 0.00211 0.15067 0.49365 0.0
H188 H 0.19926 0.235 0.45731 0.0
H189 H 0.0746 0.24603 0.54838 0.0
H190 H 0.03821 0.22169 0.599 0.0
H191 H 0.25756 0.21273 0.65343 0.0
H192 H 0.29525 0.23634 0.60282 0.0
H193 H 0.31076 0.42291 0.48531 0.0
H194 H 0.23646 0.36837 0.48748 0.0
H195 H 0.41687 0.31088 0.55074 0.0
H196 H 0.49264 0.36564 0.5477 0.0
H197 H 0.26932 0.30238 0.56799 0.0
H198 H 0.39478 0.28822 0.47885 0.0
H199 H 0.43714 0.30867 0.42862 0.0
H200 H 0.22102 0.32077 0.37051 0.0
H201 H 0.17735 0.30113 0.4207 0.0
C202 C 0.17955 0.134 0.52474 0.0
C203 C 0.10587 0.12671 0.51587 0.0
C204 C 0.20575 0.16944 0.52104 0.0
C205 C 0.15931 0.19876 0.50809 0.0
C206 C 0.08577 0.19147 0.49688 0.0
C207 C 0.05901 0.15546 0.50077 0.0
C208 C 0.18969 0.23694 0.50946 0.0
C209 C 0.21259 0.25042 0.48115 0.0
C210 C 0.21007 0.25606 0.54104 0.0
C211 C 0.18771 0.24262 0.57173 0.0
C212 C 0.11507 0.23854 0.57104 0.0
C213 C 0.0942 0.22493 0.59974 0.0
C214 C 0.14554 0.21558 0.62939 0.0
C215 C 0.21785 0.21995 0.63043 0.0
C216 C 0.23899 0.23347 0.60175 0.0
C217 C 0.33421 0.39905 0.50054 0.0
C218 C 0.40715 0.39866 0.51684 0.0
C219 C 0.29173 0.36784 0.50157 0.0
C220 C 0.32112 0.33553 0.5191 0.0
C221 C 0.39311 0.33569 0.53722 0.0
C222 C 0.43623 0.36695 0.5357 0.0
C223 C 0.27776 0.30089 0.51564 0.0
C224 C 0.25399 0.28772 0.5438 0.0
C225 C 0.2567 0.28203 0.4839 0.0
C226 C 0.28279 0.29375 0.45368 0.0
C227 C 0.35627 0.29571 0.45551 0.0
C228 C 0.38054 0.30706 0.42702 0.0
C229 C 0.33181 0.31616 0.39643 0.0
C230 C 0.25871 0.31382 0.39425 0.0
C231 C 0.23417 0.30259 0.42272 0.0
H232 H 0.35068 0.3249 0.37438 0.0
H233 H 0.1293 0.20502 0.65159 0.0
H234 H 0.7585 0.92748 0.49463 0.0
H235 H 0.71025 0.86599 0.50057 0.0
H236 H 0.92102 0.81823 0.51823 0.0
H237 H 0.97022 0.88077 0.51186 0.0
H238 H 0.82591 0.77792 0.47136 0.0
H239 H 0.83281 0.82225 0.58326 0.0
H240 H 0.81488 0.86601 0.6277 0.0
H241 H 0.5888 0.8634 0.58593 0.0
H242 H 0.60539 0.81996 0.54097 0.0
H243 H 0.68316 0.60175 0.50994 0.0
H244 H 0.7498 0.65888 0.50621 0.0
H245 H 0.5571 0.72352 0.49629 0.0
H246 H 0.49116 0.66603 0.50105 0.0
H247 H 0.65602 0.75241 0.54348 0.0
H248 H 0.65152 0.71096 0.4289 0.0
H249 H 0.67105 0.66649 0.38529 0.0
H250 H 0.89445 0.66253 0.43348 0.0
H251 H 0.87614 0.70668 0.47763 0.0
C252 C 0.79507 0.90404 0.50021 0.0
C253 C 0.86834 0.90908 0.50263 0.0
C254 C 0.76726 0.86876 0.50383 0.0
C255 C 0.81171 0.83722 0.51011 0.0
C256 C 0.88548 0.84211 0.51347 0.0
C257 C 0.91373 0.87785 0.51011 0.0
C258 C 0.77922 0.79939 0.51098 0.0
C259 C 0.78986 0.77207 0.48764 0.0
C260 C 0.7308 0.79178 0.53163 0.0
C261 C 0.72047 0.81807 0.55854 0.0
C262 C 0.77931 0.83125 0.58337 0.0
C263 C 0.76936 0.85594 0.6087 0.0
C264 C 0.70076 0.86756 0.60958 0.0
C265 C 0.64192 0.85441 0.58519 0.0
C266 C 0.65157 0.8297 0.55981 0.0
C267 C 0.65444 0.628 0.50506 0.0
C268 C 0.58134 0.62932 0.5041 0.0
C269 C 0.69277 0.66083 0.50335 0.0
C270 C 0.65875 0.69587 0.50052 0.0
C271 C 0.58486 0.69699 0.49826 0.0
C272 C 0.54674 0.6641 0.50037 0.0
C273 C 0.70086 0.73133 0.50308 0.0
C274 C 0.69224 0.75814 0.52725 0.0
C275 C 0.75122 0.73833 0.48329 0.0
C276 C 0.76233 0.7119 0.45671 0.0
C277 C 0.70473 0.70043 0.43032 0.0
C278 C 0.71562 0.67536 0.40546 0.0
C279 C 0.78398 0.66178 0.40658 0.0
C280 C 0.84158 0.67317 0.43261 0.0
C281 C 0.83098 0.69824 0.45753 0.0
H282 H 0.79229 0.64238 0.3873 0.0
H283 H 0.69318 0.8867 0.6292 0.0
H284 H 0.20253 0.0199 0.95586 0.0
H285 H 0.32529 0.01651 0.94941 0.0
H286 H 0.39448 0.08429 0.03975 0.0
H287 H 0.27221 0.09143 0.04359 0.0
H288 H 0.49085 0.08784 0.00891 0.0
H289 H 0.35191 0.97673 0.03428 0.0
H290 H 0.2572 0.93007 0.01476 0.0
H291 H 0.34778 0.90071 0.93074 0.0
H292 H 0.44259 0.94726 0.94958 0.0
H293 H 0.83325 0.01299 0.06453 0.0
H294 H 0.71144 0.02583 0.06931 0.0
H295 H 0.63157 0.95017 0.98548 0.0
H296 H 0.75184 0.93426 0.98372 0.0
H297 H 0.54046 0.95182 0.0148 0.0
H298 H 0.67099 0.05853 0.98132 0.0
H299 H 0.76303 0.10757 0.99119 0.0
H300 H 0.69287 0.14612 0.07871 0.0
H301 H 0.60033 0.09736 0.0693 0.0
C302 C 0.24334 0.03597 0.97297 0.0
C303 C 0.22841 0.05457 0.00115 0.0
C304 C 0.31398 0.03334 0.96981 0.0
C305 C 0.37002 0.04762 0.99574 0.0
C306 C 0.35301 0.07178 0.02002 0.0
C307 C 0.2826 0.07584 0.02222 0.0
C308 C 0.44446 0.03297 0.00177 0.0
C309 C 0.50168 0.05806 0.01005 0.0
C310 C 0.45961 0.99416 0.00325 0.0
C311 C 0.40373 0.96557 0.99313 0.0
C312 C 0.35137 0.96033 0.01163 0.0
C313 C 0.29745 0.9341 1.00054 0.0
C314 C 0.29615 0.91276 0.97133 0.0
C315 C 0.3488 0.91737 0.95326 0.0
C316 C 0.40253 0.94362 0.9641 0.0
C317 C 0.7897 0.99751 0.04861 0.0
C318 C 0.80177 0.97345 0.02299 0.0
C319 C 0.71974 1.00572 0.05059 0.0
C320 C 0.66147 0.99102 0.0262 0.0
C321 C 0.67466 0.9628 0.00425 0.0
C322 C 0.74403 0.95347 0.0033 0.0
C323 C 0.58769 1.00661 0.02069 0.0
C324 C 0.53025 0.98166 0.01328 0.0
C325 C 0.57276 0.04554 0.01885 0.0
C326 C 0.62932 0.07419 0.02479 0.0
C327 C 0.67553 0.07738 0.00275 0.0
C328 C 0.72773 0.10512 0.00826 0.0
C329 C 0.73395 0.12985 0.03564 0.0
C330 C 0.68804 0.12691 0.05756 0.0
C331 C 0.63568 0.0993 0.05213 0.0
H332 H 0.77402 0.1514 0.03983 0.0
H333 H 0.25474 0.89249 0.96265 0.0
H334 H 0.18832 0.02553 0.46252 0.0
H335 H 0.31244 0.03301 0.4601 0.0
H336 H 0.37124 0.93837 0.52765 0.0
H337 H 0.24734 0.93176 0.53088 0.0
H338 H 0.43892 0.99713 0.55579 0.0
H339 H 0.39755 0.94233 0.44599 0.0
H340 H 0.33894 0.93156 0.38541 0.0
H341 H 0.39506 0.04208 0.35999 0.0
H342 H 0.45047 0.05435 0.42063 0.0
H343 H 0.80987 1.00803 0.55451 0.0
H344 H 0.68743 0.99501 0.55673 0.0
H345 H 0.61522 0.09053 0.49206 0.0
H346 H 0.7377 0.10295 0.48897 0.0
H347 H 0.55745 0.02749 0.46271 0.0
H348 H 0.58759 0.08293 0.57468 0.0
H349 H 0.65074 0.09148 0.6351 0.0
H350 H 0.62336 0.97523 0.65492 0.0
H351 H 0.56068 0.96594 0.59452 0.0
C352 C 0.22694 1.00484 0.47501 0.0
C353 C 0.20841 0.97806 0.49689 0.0
C354 C 0.29832 0.00943 0.47402 0.0
C355 C 0.3516 0.98669 0.49428 0.0
C356 C 0.3313 0.95658 0.5122 0.0
C357 C 0.26022 0.95229 0.51348 0.0
C358 C 0.42781 0.99783 0.5011 0.0
C359 C 0.46504 1.00317 0.53533 0.0
C360 C 0.46176 1.00656 0.47459 0.0
C361 C 0.4274 0.99944 0.43805 0.0
C362 C 0.39623 0.96463 0.42761 0.0
C363 C 0.36335 0.95828 0.39323 0.0
C364 C 0.36246 0.98629 0.36889 0.0
C365 C 0.39466 0.02064 0.3789 0.0
C366 C 0.42667 0.02733 0.41331 0.0
C367 C 0.76853 0.02758 0.54244 0.0
C368 C 0.78314 0.05625 0.52121 0.0
C369 C 0.69815 0.01984 0.5434 0.0
C370 C 0.64187 0.04134 0.52394 0.0
C371 C 0.65771 0.07323 0.50683 0.0
C372 C 0.72786 0.0807 0.50555 0.0
C373 C 0.56735 0.0276 0.51716 0.0
C374 C 0.53082 0.02154 0.483 0.0
C375 C 0.53418 0.01793 0.54365 0.0
C376 C 0.56987 0.02372 0.58012 0.0
C377 C 0.59525 0.05919 0.59194 0.0
C378 C 0.63093 0.06417 0.62616 0.0
C379 C 0.64115 0.03391 0.64883 0.0
C380 C 0.61538 0.99865 0.63735 0.0
C381 C 0.57964 0.99353 0.60315 0.0
H382 H 0.66899 0.0378 0.6753 0.0
H383 H 0.33724 0.98129 0.34225 0.0
H384 H 0.78748 0.57185 0.06903 0.0
H385 H 0.90711 0.56683 0.06014 0.0
H386 H 0.82166 0.52312 0.95879 0.0
H387 H 0.70117 0.52742 0.96804 0.0
H388 H 0.90979 0.47423 0.99867 0.0
H389 H 0.91642 0.60284 0.97202 0.0
H390 H 0.90184 0.67047 0.97897 0.0
H391 H 0.06073 0.66774 0.07388 0.0
H392 H 0.07535 0.5999 0.06793 0.0
H393 H 0.24815 0.465 0.95783 0.0
H394 H 0.12616 0.46817 0.96449 0.0
H395 H 0.20326 0.50759 0.06797 0.0
H396 H 0.32593 0.50425 0.06121 0.0
H397 H 0.11876 0.55839 0.02538 0.0
H398 H 0.10606 0.42887 0.05345 0.0
H399 H 0.12074 0.36123 0.04582 0.0
H400 H 0.97326 0.36642 0.94749 0.0
H401 H 0.95847 0.43417 0.95425 0.0
C402 C 0.79397 0.56306 0.04419 0.0
C403 C 0.7357 0.5496 0.01937 0.0
C404 C 0.8624 0.56002 0.03916 0.0
C405 C 0.87318 0.54403 0.00901 0.0
C406 C 0.81417 0.5352 0.98235 0.0
C407 C 0.74538 0.53823 0.98743 0.0
C408 C 0.94524 0.53113 0.00805 0.0
C409 C 0.95541 0.49275 0.00382 0.0
C410 C 0.00468 0.55512 0.0161 0.0
C411 C -0.00351 0.59608 0.01967 0.0
C412 C 0.94763 0.61652 0.99462 0.0
C413 C 0.93949 0.65495 0.99834 0.0
C414 C 0.98012 0.67337 0.02692 0.0
C415 C 0.02916 0.65341 0.0518 0.0
C416 C 0.03753 0.61496 0.04822 0.0
C417 C 0.23911 0.47222 0.9826 0.0
C418 C 0.29565 0.4842 0.00909 0.0
C419 C 0.16949 0.47422 0.98636 0.0
C420 C 0.15585 0.48848 0.01659 0.0
C421 C 0.21302 0.49655 0.04445 0.0
C422 C 0.28293 0.4942 0.04076 0.0
C423 C 0.08329 0.50148 0.01643 0.0
C424 C 0.07308 0.53991 0.02031 0.0
C425 C 0.02381 0.47756 0.00806 0.0
C426 C 0.03172 0.43669 0.00422 0.0
C427 C 0.07713 0.41564 0.03009 0.0
C428 C 0.08538 0.37727 0.02594 0.0
C429 C 0.04817 0.35963 0.99612 0.0
C430 C 0.00213 0.38018 0.97053 0.0
C431 C -0.00626 0.41855 0.97452 0.0
H432 H 0.05508 0.33006 0.99272 0.0
H433 H 0.97383 0.70314 0.02972 0.0
H434 H 0.29827 0.55215 0.533 0.0
H435 H 0.17722 0.55392 0.54179 0.0
H436 H 0.09565 0.5105 0.44002 0.0
H437 H 0.21512 0.51017 0.43061 0.0
H438 H -0.00136 0.5521 0.45711 0.0
H439 H 0.15933 0.45231 0.51069 0.0
H440 H 0.26833 0.42767 0.54983 0.0
H441 H 0.20982 0.47993 0.63499 0.0
H442 H 0.10084 0.50528 0.59644 0.0
H443 H 0.68665 0.4719 0.48498 0.0
H444 H 0.80365 0.47084 0.47167 0.0
H445 H 0.9 0.50887 0.57398 0.0
H446 H 0.78485 0.50785 0.58795 0.0
H447 H -0.01086 0.46824 0.55427 0.0
H448 H 0.83051 0.57145 0.49857 0.0
H449 H 0.72421 0.5969 0.45779 0.0
H450 H 0.77862 0.53635 0.37581 0.0
H451 H 0.8856 0.51086 0.41578 0.0
C452 C 0.25411 0.54448 0.51206 0.0
C453 C 0.26602 0.52998 0.48149 0.0
C454 C 0.18516 0.54519 0.5172 0.0
C455 C 0.12816 0.53094 0.492 0.0
C456 C 0.13907 0.52104 0.45999 0.0
C457 C 0.2075 0.52067 0.45473 0.0
C458 C 0.05996 0.52107 0.5001 0.0
C459 C -0.00356 0.53376 0.47835 0.0
C460 C 0.05729 0.49677 0.52756 0.0
C461 C 0.12231 0.48096 0.55066 0.0
C462 C 0.16986 0.45867 0.53774 0.0
C463 C 0.23162 0.44459 0.55979 0.0
C464 C 0.24609 0.45231 0.59478 0.0
C465 C 0.19864 0.47402 0.60787 0.0
C466 C 0.13686 0.48824 0.58596 0.0
C467 C 0.73322 0.47861 0.50501 0.0
C468 C 0.72652 0.49101 0.53724 0.0
C469 C 0.79987 0.47856 0.49719 0.0
C470 C 0.85994 0.49145 0.52136 0.0
C471 C 0.85422 0.49949 0.55469 0.0
C472 C 0.78818 0.49898 0.56265 0.0
C473 C 0.92746 0.50003 0.51184 0.0
C474 C -0.00888 0.48677 0.53314 0.0
C475 C 0.93017 0.52371 0.4839 0.0
C476 C 0.86547 0.53892 0.4602 0.0
C477 C 0.81953 0.5634 0.47189 0.0
C478 C 0.75922 0.57781 0.44897 0.0
C479 C 0.7443 0.56791 0.41444 0.0
C480 C 0.79002 0.54384 0.40261 0.0
C481 C 0.85058 0.5295 0.42532 0.0
H482 H 0.69763 0.57918 0.39681 0.0
H483 H 0.29401 0.44141 0.61177 0.0
H484 H 0.03739 0.98222 0.40376 0.0
H485 H 0.06508 0.9883 0.34726 0.0
H486 H 0.93918 0.089 0.32819 0.0
H487 H 0.91441 0.08393 0.3847 0.0
H488 H 0.91424 1.003 0.28366 0.0
H489 H 0.04535 0.12039 0.32021 0.0
H490 H 0.14097 0.15615 0.3582 0.0
H491 H 0.29718 0.08122 0.33566 0.0
H492 H 0.20214 0.04387 0.29886 0.0
H493 H 0.96114 0.03841 0.10688 0.0
H494 H 0.92826 0.04919 0.16216 0.0
H495 H 0.12266 0.99523 0.21568 0.0
H496 H 0.15407 0.98344 0.16253 0.0
H497 H 0.103 0.06708 0.24086 0.0
H498 H 0.98544 0.94933 0.20858 0.0
H499 H 0.89881 0.90712 0.17241 0.0
H500 H 0.72658 0.97628 0.18689 0.0
H501 H 0.8125 0.01934 0.2227 0.0
C502 C 0.01981 1.00691 0.38841 0.0
C503 C 0.97529 0.03315 0.39891 0.0
C504 C 0.03449 0.01004 0.35591 0.0
C505 C 0.00436 0.03924 0.33361 0.0
C506 C 0.9641 0.0667 0.34515 0.0
C507 C 0.95062 0.06396 0.37764 0.0
C508 C 0.00646 0.03846 0.29696 0.0
C509 C 0.95477 0.01753 0.27411 0.0
C510 C 0.05962 0.05705 0.28464 0.0
C511 C 0.11645 0.07881 0.30753 0.0
C512 C 0.09988 0.11091 0.32412 0.0
C513 C 0.15405 0.13153 0.34537 0.0
C514 C 0.22513 0.12067 0.3497 0.0
C515 C 0.24212 0.08922 0.33272 0.0
C516 C 0.18811 0.06826 0.31177 0.0
C517 C -0.00393 0.02853 0.13046 0.0
C518 C 0.06095 0.01076 0.13002 0.0
C519 C 0.97751 0.03481 0.16197 0.0
C520 C 0.02396 0.02361 0.19309 0.0
C521 C 0.08665 1.00471 0.19221 0.0
C522 C 0.10442 0.99807 0.16138 0.0
C523 C 0.01082 0.03155 0.22735 0.0
C524 C 0.06096 0.0535 0.25004 0.0
C525 C 0.95691 0.01341 0.23958 0.0
C526 C 0.90538 0.98795 0.21769 0.0
C527 C 0.92916 0.95587 0.2036 0.0
C528 C 0.88019 0.9317 0.18328 0.0
C529 C 0.80724 0.93913 0.17718 0.0
C530 C 0.78312 0.97068 0.1915 0.0
C531 C 0.83193 0.99499 0.21178 0.0
H532 H 0.76938 0.92035 0.16149 0.0
H533 H 0.26707 0.1368 0.36596 0.0
H534 H 0.87345 0.96737 0.8739 0.0
H535 H 0.89309 0.96067 0.81761 0.0
H536 H 0.10296 0.0083 0.85197 0.0
H537 H 0.07898 0.01938 0.90889 0.0
H538 H 0.04862 0.03684 0.79452 0.0
H539 H 0.06258 0.90854 0.82671 0.0
H540 H 0.0267 0.85066 0.85132 0.0
H541 H 0.82742 0.85154 0.7761 0.0
H542 H 0.86163 0.90965 0.75134 0.0
H543 H 0.10217 0.94764 0.63546 0.0
H544 H 0.08364 0.94115 0.69297 0.0
H545 H 0.91313 0.02189 0.66876 0.0
H546 H 0.93513 0.03043 0.61136 0.0
H547 H 0.96241 0.92681 0.7218 0.0
H548 H 0.9531 0.07173 0.70695 0.0
H549 H 0.00308 0.1265 0.68365 0.0
H550 H 0.21501 0.08751 0.72889 0.0
H551 H 0.16595 0.03177 0.75129 0.0
C552 C 0.9247 0.97581 0.86992 0.0
C553 C 0.9746 0.99398 0.89593 0.0
C554 C 0.93631 0.97146 0.83746 0.0
C555 C 0.00033 0.98292 0.83017 0.0
C556 C 0.05304 0.99896 0.85682 0.0
C557 C 0.04009 1.00469 0.88955 0.0
C558 C 0.00775 0.98074 0.79399 0.0
C559 C 0.03019 0.01253 0.77893 0.0
C560 C 0.98438 0.94911 0.77302 0.0
C561 C 0.96471 0.91349 0.78722 0.0
C562 C 0.0111 0.8964 0.81545 0.0
C563 C -0.009 0.86357 0.82945 0.0
C564 C 0.92483 0.84745 0.81529 0.0
C565 C 0.8787 0.86402 0.78701 0.0
C566 C 0.8985 0.89685 0.77293 0.0
C567 C 0.05847 0.96281 0.64183 0.0
C568 C 0.02006 0.98953 0.61896 0.0
C569 C 0.04881 0.95954 0.67495 0.0
C570 C -0.00058 0.98236 0.68565 0.0
C571 C 0.95395 1.00533 0.66143 0.0
C572 C 0.96482 0.0093 0.62828 0.0
C573 C -0.00052 0.98331 0.72257 0.0
C574 C 0.98 0.95103 0.73769 0.0
C575 C 0.02682 0.01403 0.74365 0.0
C576 C 0.05593 0.04724 0.72994 0.0
C577 C 0.0103 0.07451 0.71131 0.0
C578 C 0.03845 0.10574 0.69834 0.0
C579 C 0.11219 0.11035 0.70457 0.0
C580 C 0.15791 0.08374 0.72381 0.0
C581 C 0.12997 0.05224 0.73647 0.0
H582 H 0.13389 0.13465 0.69466 0.0
H583 H 0.9093 0.82209 0.82622 0.0
H584 H 0.40567 0.55068 0.38644 0.0
H585 H 0.41663 0.56503 0.32861 0.0
H586 H 0.62508 0.51432 0.35126 0.0
H587 H 0.61197 0.49754 0.40875 0.0
H588 H 0.52352 0.60031 0.29703 0.0
H589 H 0.61348 0.46259 0.31361 0.0
H590 H 0.59991 0.40057 0.33815 0.0
H591 H 0.37371 0.40598 0.29691 0.0
H592 H 0.38597 0.46868 0.27327 0.0
H593 H 0.59646 0.57545 0.13425 0.0
H594 H 0.5836 0.58455 0.19185 0.0
H595 H 0.4123 0.50436 0.17414 0.0
H596 H 0.4322 0.49196 0.11725 0.0
H597 H 0.493 0.48482 0.22736 0.0
H598 H 0.40409 0.60807 0.19487 0.0
H599 H 0.40368 0.6703 0.16841 0.0
H600 H 0.60571 0.69489 0.23637 0.0
H601 H 0.60782 0.63262 0.26287 0.0
C602 C 0.45552 0.54435 0.37974 0.0
C603 C 0.50832 0.52338 0.40225 0.0
C604 C 0.46114 0.55198 0.34641 0.0
C605 C 0.52037 0.5394 0.33518 0.0
C606 C 0.57757 0.52291 0.35901 0.0
C607 C 0.57112 0.51438 0.39223 0.0
C608 C 0.51823 0.54047 0.29796 0.0
C609 C 0.518 0.57511 0.28172 0.0
C610 C 0.50763 0.50776 0.27777 0.0
C611 C 0.50043 0.47063 0.29264 0.0
C612 C 0.56078 0.45085 0.31046 0.0
C613 C 0.55334 0.41556 0.32411 0.0
C614 C 0.48591 0.39946 0.31934 0.0
C615 C 0.42581 0.41863 0.30089 0.0
C616 C 0.43294 0.45412 0.28756 0.0
C617 C 0.55307 0.56136 0.14186 0.0
C618 C 0.51491 0.53326 0.12103 0.0
C619 C 0.54591 0.56644 0.17526 0.0
C620 C 0.49673 0.5453 0.18803 0.0
C621 C 0.45141 0.52083 0.16538 0.0
C622 C 0.46109 0.51448 0.13231 0.0
C623 C 0.49957 0.54501 0.22569 0.0
C624 C 0.49909 0.51036 0.2422 0.0
C625 C 0.50845 0.5779 0.24598 0.0
C626 C 0.50621 0.61566 0.2307 0.0
C627 C 0.44847 0.62674 0.20409 0.0
C628 C 0.44799 0.66199 0.18907 0.0
C629 C 0.50467 0.68651 0.20067 0.0
C630 C 0.56184 0.67588 0.22741 0.0
C631 C 0.56265 0.64065 0.24247 0.0
H632 H 0.50425 0.71377 0.18896 0.0
H633 H 0.48028 0.37205 0.32975 0.0
H634 H 0.55362 0.45809 0.62109 0.0
H635 H 0.55125 0.44217 0.67973 0.0
H636 H 0.38375 0.52305 0.67598 0.0
H637 H 0.3889 0.54013 0.61778 0.0
H638 H 0.49265 0.54043 0.72495 0.0
H639 H 0.36865 0.42472 0.69073 0.0
H640 H 0.34977 0.36339 0.66233 0.0
H641 H 0.55165 0.32506 0.72271 0.0
H642 H 0.57215 0.38635 0.75113 0.0
H643 H 0.36846 0.48293 0.87182 0.0
H644 H 0.38776 0.4727 0.8151 0.0
H645 H 0.61253 0.49182 0.85384 0.0
H646 H 0.59245 0.50486 0.91117 0.0
H647 H 0.49611 0.42251 0.79008 0.0
H648 H 0.62443 0.54302 0.81915 0.0
H649 H 0.63937 0.6052 0.84604 0.0
H650 H 0.42707 0.63535 0.79205 0.0
H651 H 0.40999 0.57268 0.766 0.0
C652 C 0.51283 0.47062 0.63191 0.0
C653 C 0.47135 0.50032 0.61476 0.0
C654 C 0.51232 0.46191 0.66586 0.0
C655 C 0.4684 0.48195 0.68282 0.0
C656 C 0.4191 0.50759 0.66378 0.0
C657 C 0.42064 0.51671 0.63007 0.0
C658 C 0.48104 0.48063 0.721 0.0
C659 C 0.49314 0.5145 0.73901 0.0
C660 C 0.48468 0.44694 0.73989 0.0
C661 C 0.47218 0.41018 0.72283 0.0
C662 C 0.40923 0.40329 0.69776 0.0
C663 C 0.3982 0.36852 0.68169 0.0
C664 C 0.44953 0.34037 0.69066 0.0
C665 C 0.51196 0.34689 0.71576 0.0
C666 C 0.52328 0.38162 0.73188 0.0
C667 C 0.42255 0.48406 0.86864 0.0
C668 C 0.47891 0.4949 0.89602 0.0
C669 C 0.43333 0.47841 0.83603 0.0
C670 C 0.50105 0.48268 0.82988 0.0
C671 C 0.55926 0.48966 0.85779 0.0
C672 C 0.54817 0.4962 0.89073 0.0
C673 C 0.50711 0.4822 0.79366 0.0
C674 C 0.4974 0.44819 0.77587 0.0
C675 C 0.50613 0.51573 0.77487 0.0
C676 C 0.51516 0.55275 0.79162 0.0
C677 C 0.58024 0.5625 0.81385 0.0
C678 C 0.58924 0.59791 0.82877 0.0
C679 C 0.53396 0.6241 0.82102 0.0
C680 C 0.46958 0.61491 0.79833 0.0
C681 C 0.4601 0.57938 0.78364 0.0
H682 H 0.54121 0.65161 0.83238 0.0
H683 H 0.44087 0.31346 0.67821 0.0
loop_
_geom_bond_atom_site_label_1
_geom_bond_atom_site_label_2
_geom_bond_distance
_geom_bond_site_symmetry_2
_ccdc_geom_bond_type
O0 Mn1 2.159 1_566 S
O0 C14 1.238 1_556 S
Mn1 O0 2.159 1_544 S
Mn1 O4 2.160 . S
Mn1 O5 2.221 1_554 S
Mn1 O7 2.163 1_445 S
Mn1 O9 2.160 . S
Mn1 O19 2.221 . S
O2 Mn3 2.087 . S
O2 C14 1.256 . S
Mn3 O2 2.087 . S
Mn3 O10 2.089 . S
Mn3 O19 2.290 1_565 S
Mn3 O20 2.251 . S
O4 Mn1 2.160 . S
O4 C15 1.239 1_455 S
O5 Mn1 2.221 1_556 S
O5 Mn6 2.290 1_455 S
O5 C16 1.278 1_455 S
Mn6 O5 2.290 1_655 S
Mn6 O8 2.089 . S
Mn6 O11 2.251 . S
Mn6 O12 2.087 . S
O7 Mn1 2.163 1_665 S
O7 C17 1.247 . S
O8 Mn6 2.089 . S
O8 C15 1.256 1_556 S
O9 Mn1 2.160 . S
O9 C18 1.239 . S
O10 Mn3 2.089 . S
O10 C18 1.256 1_565 S
O11 Mn6 2.251 . S
O11 C16 1.241 . S
O12 Mn6 2.087 . S
O12 C17 1.247 1_546 S
C13 O19 1.278 1_565 S
C13 O20 1.241 . S
C14 O0 1.238 1_554 S
C14 O2 1.256 . S
C15 O4 1.239 1_655 S
C15 O8 1.256 1_554 S
C16 O5 1.278 1_655 S
C16 O11 1.241 . S
C17 O7 1.247 . S
C17 O12 1.247 1_564 S
C18 O9 1.239 . S
C18 O10 1.256 1_545 S
O19 Mn1 2.221 . S
O19 Mn3 2.290 1_545 S
O19 C13 1.278 1_545 S
O20 Mn3 2.251 . S
O20 C13 1.241 . S
O21 Mn22 2.163 1_465 S
O21 C35 1.244 . S
Mn22 O21 2.163 1_645 S
Mn22 O25 2.160 . S
Mn22 O26 2.221 . S
Mn22 O28 2.163 1_545 S
Mn22 O30 2.160 1_655 S
Mn22 O40 2.221 1_655 S
O23 Mn24 2.087 . S
O23 C35 1.256 1_545 S
Mn24 O23 2.087 . S
Mn24 O31 2.089 . S
Mn24 O40 2.290 . S
Mn24 O41 2.251 . S
O25 Mn22 2.160 . S
O25 C36 1.239 . S
O26 Mn22 2.221 . S
O26 Mn27 2.290 1_545 S
O26 C37 1.278 1_545 S
Mn27 O26 2.290 1_565 S
Mn27 O29 2.089 . S
Mn27 O32 2.251 . S
Mn27 O33 2.087 . S
O28 Mn22 2.163 1_565 S
O28 C38 1.244 . S
O29 Mn27 2.089 . S
O29 C36 1.256 1_565 S
O30 Mn22 2.160 1_455 S
O30 C39 1.239 . S
O31 Mn24 2.089 . S
O31 C39 1.256 . S
O32 Mn27 2.251 . S
O32 C37 1.241 . S
O33 Mn27 2.087 . S
O33 C38 1.256 . S
C34 O40 1.278 . S
C34 O41 1.241 . S
C35 O21 1.244 . S
C35 O23 1.256 1_565 S
C36 O25 1.239 . S
C36 O29 1.256 1_545 S
C37 O26 1.278 1_565 S
C37 O32 1.241 . S
C38 O28 1.244 . S
C38 O33 1.256 . S
C39 O30 1.239 . S
C39 O31 1.256 . S
O40 Mn22 2.221 1_455 S
O40 Mn24 2.290 . S
O40 C34 1.278 . S
O41 Mn24 2.251 . S
O41 C34 1.241 . S
O42 Mn43 2.159 1_556 S
O42 C56 1.238 1_556 S
Mn43 O42 2.159 1_554 S
Mn43 O46 2.160 . S
Mn43 O47 2.221 1_554 S
Mn43 O49 2.163 . S
Mn43 O51 2.160 . S
Mn43 O61 2.221 . S
O44 Mn45 2.087 . S
O44 C56 1.256 . S
Mn45 O44 2.087 . S
Mn45 O52 2.089 . S
Mn45 O61 2.290 . S
Mn45 O62 2.251 . S
O46 Mn43 2.160 . S
O46 C57 1.239 . S
O47 Mn43 2.221 1_556 S
O47 Mn48 2.290 . S
O47 C58 1.278 . S
Mn48 O47 2.290 . S
Mn48 O50 2.089 . S
Mn48 O53 2.251 . S
Mn48 O54 2.087 . S
O49 Mn43 2.163 . S
O49 C59 1.247 . S
O50 Mn48 2.089 . S
O50 C57 1.256 1_556 S
O51 Mn43 2.160 . S
O51 C60 1.239 . S
O52 Mn45 2.089 . S
O52 C60 1.256 . S
O53 Mn48 2.251 . S
O53 C58 1.241 . S
O54 Mn48 2.087 . S
O54 C59 1.247 1_556 S
C55 O61 1.278 . S
C55 O62 1.241 . S
C56 O42 1.238 1_554 S
C56 O44 1.256 . S
C57 O46 1.239 . S
C57 O50 1.256 1_554 S
C58 O47 1.278 . S
C58 O53 1.241 . S
C59 O49 1.247 . S
C59 O54 1.247 1_554 S
C60 O51 1.239 . S
C60 O52 1.256 . S
O61 Mn43 2.221 . S
O61 Mn45 2.290 . S
O61 C55 1.278 . S
O62 Mn45 2.251 . S
O62 C55 1.241 . S
O63 Mn64 2.163 . S
O63 C77 1.244 . S
Mn64 O63 2.163 . S
Mn64 O67 2.160 . S
Mn64 O68 2.221 . S
Mn64 O70 2.163 . S
Mn64 O72 2.160 . S
Mn64 O82 2.221 . S
O65 Mn66 2.087 . S
O65 C77 1.256 . S
Mn66 O65 2.087 . S
Mn66 O73 2.089 . S
Mn66 O82 2.290 . S
Mn66 O83 2.251 . S
O67 Mn64 2.160 . S
O67 C78 1.239 . S
O68 Mn64 2.221 . S
O68 Mn69 2.290 . S
O68 C79 1.278 . S
Mn69 O68 2.290 . S
Mn69 O71 2.089 . S
Mn69 O74 2.251 . S
Mn69 O75 2.087 . S
O70 Mn64 2.163 . S
O70 C80 1.244 . S
O71 Mn69 2.089 . S
O71 C78 1.256 . S
O72 Mn64 2.160 . S
O72 C81 1.239 . S
O73 Mn66 2.089 . S
O73 C81 1.256 . S
O74 Mn69 2.251 . S
O74 C79 1.241 . S
O75 Mn69 2.087 . S
O75 C80 1.256 . S
C76 O82 1.278 . S
C76 O83 1.241 . S
C77 O63 1.244 . S
C77 O65 1.256 . S
C78 O67 1.239 . S
C78 O71 1.256 . S
C79 O68 1.278 . S
C79 O74 1.241 . S
C80 O70 1.244 . S
C80 O75 1.256 . S
C81 O72 1.239 . S
C81 O73 1.256 . S
O82 Mn64 2.221 . S
O82 Mn66 2.290 . S
O82 C76 1.278 . S
O83 Mn66 2.251 . S
O83 C76 1.241 . S
H84 C102 0.951 . S
H85 C104 0.951 . S
H86 C106 0.960 . S
H87 C107 0.950 1_556 S
H88 C109 0.950 . S
H89 C112 0.950 . S
H90 C113 0.950 . S
H91 C115 0.950 . S
H92 C116 0.950 1_554 S
H93 C117 0.951 . S
H94 C119 0.951 . S
H95 C121 0.950 . S
H96 C122 0.950 . S
H97 C124 0.950 . S
H98 C127 0.950 . S
H99 C128 0.950 . S
H100 C130 0.950 . S
H101 C131 0.950 . S
C102 H84 0.951 . S
C102 C103 1.366 . S
C102 C104 1.388 . S
C103 C102 1.366 . S
C103 C107 1.385 . S
C104 H85 0.951 . S
C104 C102 1.388 . S
C104 C105 1.366 . S
C105 C104 1.366 . S
C105 C106 1.403 1_554 S
C105 C108 1.499 . S
C106 H86 0.960 . S
C106 C105 1.403 1_556 S
C106 C107 1.375 1_556 S
C107 H87 0.950 1_554 S
C107 C103 1.385 . S
C107 C106 1.375 1_554 S
C108 C105 1.499 . S
C108 C109 1.373 . S
C108 C110 1.389 1_554 S
C109 H88 0.950 . S
C109 C108 1.373 . S
C109 C125 1.377 . S
C110 C108 1.389 1_556 S
C110 C111 1.524 . S
C110 C124 1.377 . S
C111 C110 1.524 . S
C111 C112 1.397 . S
C111 C116 1.363 . S
C112 H89 0.950 . S
C112 C111 1.397 . S
C112 C113 1.334 . S
C113 H90 0.950 . S
C113 C112 1.334 . S
C113 C114 1.287 . S
C114 C113 1.287 . S
C114 C115 1.524 . S
C114 H133 0.913 . S
C115 H91 0.950 . S
C115 C114 1.524 . S
C115 C116 1.415 . S
C116 H92 0.950 1_556 S
C116 C111 1.363 . S
C116 C115 1.415 . S
C117 H93 0.951 . S
C117 C118 1.366 1_556 S
C117 C119 1.388 . S
C118 C117 1.366 1_554 S
C118 C122 1.385 . S
C119 H94 0.951 . S
C119 C117 1.388 . S
C119 C120 1.366 1_556 S
C120 C119 1.366 1_554 S
C120 C121 1.414 . S
C120 C123 1.499 . S
C121 H95 0.950 . S
C121 C120 1.414 . S
C121 C122 1.374 . S
C122 H96 0.950 . S
C122 C118 1.385 . S
C122 C121 1.374 . S
C123 C120 1.499 . S
C123 C124 1.373 1_554 S
C123 C125 1.389 . S
C124 H97 0.950 . S
C124 C110 1.377 . S
C124 C123 1.373 1_556 S
C125 C109 1.377 . S
C125 C123 1.389 . S
C125 C126 1.524 . S
C126 C125 1.524 . S
C126 C127 1.397 . S
C126 C131 1.363 . S
C127 H98 0.950 . S
C127 C126 1.397 . S
C127 C128 1.334 . S
C128 H99 0.950 . S
C128 C127 1.334 . S
C128 C129 1.287 . S
C129 C128 1.287 . S
C129 C130 1.524 . S
C129 H132 0.999 . S
C130 H100 0.950 . S
C130 C129 1.524 . S
C130 C131 1.415 . S
C131 H101 0.950 . S
C131 C126 1.363 . S
C131 C130 1.415 . S
H132 C129 0.999 . S
H133 C114 0.913 . S
H134 C152 0.951 . S
H135 C154 0.951 . S
H136 C156 0.950 . S
H137 C157 0.950 . S
H138 C159 0.950 . S
H139 C162 0.950 . S
H140 C163 0.950 . S
H141 C165 0.950 . S
H142 C166 0.950 . S
H143 C167 0.951 . S
H144 C169 0.951 . S
H145 C171 0.950 . S
H146 C172 0.950 . S
H147 C174 0.950 . S
H148 C177 0.950 1_556 S
H149 C178 0.950 1_556 S
H150 C180 0.950 . S
H151 C181 0.950 . S
C152 H134 0.951 . S
C152 C153 1.366 1_556 S
C152 C154 1.388 . S
C153 C152 1.366 1_554 S
C153 C157 1.385 . S
C154 H135 0.951 . S
C154 C152 1.388 . S
C154 C155 1.366 1_556 S
C155 C154 1.366 1_554 S
C155 C156 1.414 . S
C155 C158 1.499 . S
C156 H136 0.950 . S
C156 C155 1.414 . S
C156 C157 1.374 . S
C157 H137 0.950 . S
C157 C153 1.385 . S
C157 C156 1.374 . S
C158 C155 1.499 . S
C158 C159 1.373 . S
C158 C160 1.384 1_554 S
C159 H138 0.950 . S
C159 C158 1.373 . S
C159 C175 1.377 . S
C160 C158 1.384 1_556 S
C160 C161 1.526 . S
C160 C174 1.380 . S
C161 C160 1.526 . S
C161 C162 1.397 1_556 S
C161 C166 1.363 . S
C162 H139 0.950 . S
C162 C161 1.397 1_554 S
C162 C163 1.334 . S
C163 H140 0.950 . S
C163 C162 1.334 . S
C163 C164 1.287 1_554 S
C164 C163 1.287 1_556 S
C164 C165 1.524 . S
C164 H183 0.913 . S
C165 H141 0.950 . S
C165 C164 1.524 . S
C165 C166 1.415 . S
C166 H142 0.950 . S
C166 C161 1.363 . S
C166 C165 1.415 . S
C167 H143 0.951 . S
C167 C168 1.366 . S
C167 C169 1.388 . S
C168 C167 1.366 . S
C168 C172 1.385 1_554 S
C169 H144 0.951 . S
C169 C167 1.388 . S
C169 C170 1.366 . S
C170 C169 1.366 . S
C170 C171 1.414 1_554 S
C170 C173 1.499 . S
C171 H145 0.950 . S
C171 C170 1.414 1_556 S
C171 C172 1.374 . S
C172 H146 0.950 . S
C172 C168 1.385 1_556 S
C172 C171 1.374 . S
C173 C170 1.499 . S
C173 C174 1.373 1_554 S
C173 C175 1.389 . S
C174 H147 0.950 . S
C174 C160 1.380 . S
C174 C173 1.373 1_556 S
C175 C159 1.377 . S
C175 C173 1.389 . S
C175 C176 1.524 . S
C176 C175 1.524 . S
C176 C177 1.397 . S
C176 C181 1.363 . S
C177 H148 0.950 1_554 S
C177 C176 1.397 . S
C177 C178 1.334 1_655 S
C178 H149 0.950 1_554 S
C178 C177 1.334 1_455 S
C178 C179 1.287 . S
C179 C178 1.287 . S
C179 C180 1.524 . S
C179 H182 0.999 . S
C180 H150 0.950 . S
C180 C179 1.524 . S
C180 C181 1.415 1_455 S
C181 H151 0.950 . S
C181 C176 1.363 . S
C181 C180 1.415 1_655 S
H182 C179 0.999 . S
H183 C164 0.913 . S
H184 C202 0.951 . S
H185 C204 0.951 . S
H186 C206 0.950 . S
H187 C207 0.950 . S
H188 C209 0.950 . S
H189 C212 0.950 . S
H190 C213 0.950 . S
H191 C215 0.950 . S
H192 C216 0.950 . S
H193 C217 0.951 . S
H194 C219 0.951 . S
H195 C221 0.950 . S
H196 C222 0.950 . S
H197 C224 0.950 . S
H198 C227 0.950 . S
H199 C228 0.950 . S
H200 C230 0.950 . S
H201 C231 0.950 . S
C202 H184 0.951 . S
C202 C203 1.366 . S
C202 C204 1.388 . S
C203 C202 1.366 . S
C203 C207 1.385 . S
C204 H185 0.951 . S
C204 C202 1.388 . S
C204 C205 1.366 . S
C205 C204 1.366 . S
C205 C206 1.414 . S
C205 C208 1.499 . S
C206 H186 0.950 . S
C206 C205 1.414 . S
C206 C207 1.374 . S
C207 H187 0.950 . S
C207 C203 1.385 . S
C207 C206 1.374 . S
C208 C205 1.499 . S
C208 C209 1.373 . S
C208 C210 1.389 . S
C209 H188 0.950 . S
C209 C208 1.373 . S
C209 C225 1.377 . S
C210 C208 1.389 . S
C210 C211 1.524 . S
C210 C224 1.377 . S
C211 C210 1.524 . S
C211 C212 1.397 . S
C211 C216 1.363 . S
C212 H189 0.950 . S
C212 C211 1.397 . S
C212 C213 1.334 . S
C213 H190 0.950 . S
C213 C212 1.334 . S
C213 C214 1.287 . S
C214 C213 1.287 . S
C214 C215 1.524 . S
C214 H233 0.913 . S
C215 H191 0.950 . S
C215 C214 1.524 . S
C215 C216 1.415 . S
C216 H192 0.950 . S
C216 C211 1.363 . S
C216 C215 1.415 . S
C217 H193 0.951 . S
C217 C218 1.366 . S
C217 C219 1.388 . S
C218 C217 1.366 . S
C218 C222 1.385 . S
C219 H194 0.951 . S
C219 C217 1.388 . S
C219 C220 1.366 . S
C220 C219 1.366 . S
C220 C221 1.414 . S
C220 C223 1.499 . S
C221 H195 0.950 . S
C221 C220 1.414 . S
C221 C222 1.374 . S
C222 H196 0.950 . S
C222 C218 1.385 . S
C222 C221 1.374 . S
C223 C220 1.499 . S
C223 C224 1.373 . S
C223 C225 1.389 . S
C224 H197 0.950 . S
C224 C210 1.377 . S
C224 C223 1.373 . S
C225 C209 1.377 . S
C225 C223 1.389 . S
C225 C226 1.524 . S
C226 C225 1.524 . S
C226 C227 1.397 . S
C226 C231 1.363 . S
C227 H198 0.950 . S
C227 C226 1.397 . S
C227 C228 1.334 . S
C228 H199 0.950 . S
C228 C227 1.334 . S
C228 C229 1.287 . S
C229 C228 1.287 . S
C229 C230 1.524 . S
C229 H232 0.999 . S
C230 H200 0.950 . S
C230 C229 1.524 . S
C230 C231 1.415 . S
C231 H201 0.950 . S
C231 C226 1.363 . S
C231 C230 1.415 . S
H232 C229 0.999 . S
H233 C214 0.913 . S
H234 C252 0.951 . S
H235 C254 0.951 . S
H236 C256 0.950 . S
H237 C257 0.942 1_455 S
H238 C259 0.950 . S
H239 C262 0.950 . S
H240 C263 0.950 . S
H241 C265 0.950 . S
H242 C266 0.950 . S
H243 C267 0.951 . S
H244 C269 0.951 . S
H245 C271 0.950 . S
H246 C272 0.950 . S
H247 C274 0.950 . S
H248 C277 0.950 . S
H249 C278 0.950 . S
H250 C280 0.950 . S
H251 C281 0.950 . S
C252 H234 0.951 . S
C252 C253 1.366 . S
C252 C254 1.388 . S
C253 C252 1.366 . S
C253 C257 1.385 . S
C254 H235 0.951 . S
C254 C252 1.388 . S
C254 C255 1.366 . S
C255 C254 1.366 . S
C255 C256 1.414 . S
C255 C258 1.499 . S
C256 H236 0.950 . S
C256 C255 1.414 . S
C256 C257 1.374 . S
C257 H237 0.942 1_655 S
C257 C253 1.385 . S
C257 C256 1.374 . S
C258 C255 1.499 . S
C258 C259 1.373 . S
C258 C260 1.389 . S
C259 H238 0.950 . S
C259 C258 1.373 . S
C259 C275 1.377 . S
C260 C258 1.389 . S
C260 C261 1.524 . S
C260 C274 1.377 . S
C261 C260 1.524 . S
C261 C262 1.397 . S
C261 C266 1.363 . S
C262 H239 0.950 . S
C262 C261 1.397 . S
C262 C263 1.334 . S
C263 H240 0.950 . S
C263 C262 1.334 . S
C263 C264 1.287 . S
C264 C263 1.287 . S
C264 C265 1.524 . S
C264 H283 0.913 . S
C265 H241 0.950 . S
C265 C264 1.524 . S
C265 C266 1.415 . S
C266 H242 0.950 . S
C266 C261 1.363 . S
C266 C265 1.415 . S
C267 H243 0.951 . S
C267 C268 1.366 . S
C267 C269 1.388 . S
C268 C267 1.366 . S
C268 C272 1.385 . S
C269 H244 0.951 . S
C269 C267 1.388 . S
C269 C270 1.366 . S
C270 C269 1.366 . S
C270 C271 1.414 . S
C270 C273 1.499 . S
C271 H245 0.950 . S
C271 C270 1.414 . S
C271 C272 1.374 . S
C272 H246 0.950 . S
C272 C268 1.385 . S
C272 C271 1.374 . S
C273 C270 1.499 . S
C273 C274 1.373 . S
C273 C275 1.389 . S
C274 H247 0.950 . S
C274 C260 1.377 . S
C274 C273 1.373 . S
C275 C259 1.377 . S
C275 C273 1.389 . S
C275 C276 1.524 . S
C276 C275 1.524 . S
C276 C277 1.397 . S
C276 C281 1.363 . S
C277 H248 0.950 . S
C277 C276 1.397 . S
C277 C278 1.334 . S
C278 H249 0.950 . S
C278 C277 1.334 . S
C278 C279 1.287 . S
C279 C278 1.287 . S
C279 C280 1.524 . S
C279 H282 0.999 . S
C280 H250 0.950 . S
C280 C279 1.524 . S
C280 C281 1.415 . S
C281 H251 0.950 . S
C281 C276 1.363 . S
C281 C280 1.415 . S
H282 C279 0.999 . S
H283 C264 0.913 . S
H284 C302 0.951 . S
H285 C304 0.951 1_565 S
H286 C306 0.950 . S
H287 C307 0.950 . S
H288 C309 0.950 . S
H289 C312 0.950 . S
H290 C313 0.950 . S
H291 C315 0.950 . S
H292 C316 0.950 . S
H293 C317 0.951 . S
H294 C319 0.951 . S
H295 C321 0.950 . S
H296 C322 0.950 . S
H297 C324 0.950 1_556 S
H298 C327 0.950 1_556 S
H299 C328 0.950 1_556 S
H300 C330 0.950 . S
H301 C331 0.950 . S
C302 H284 0.951 . S
C302 C303 1.366 1_556 S
C302 C304 1.388 . S
C303 C302 1.366 1_554 S
C303 C307 1.385 . S
C304 H285 0.951 1_545 S
C304 C302 1.388 . S
C304 C305 1.366 1_556 S
C305 C304 1.366 1_554 S
C305 C306 1.414 . S
C305 C308 1.499 . S
C306 H286 0.950 . S
C306 C305 1.414 . S
C306 C307 1.374 . S
C307 H287 0.950 . S
C307 C303 1.385 . S
C307 C306 1.374 . S
C308 C305 1.499 . S
C308 C309 1.373 . S
C308 C310 1.389 1_545 S
C309 H288 0.950 . S
C309 C308 1.373 . S
C309 C325 1.377 . S
C310 C308 1.389 1_565 S
C310 C311 1.524 1_554 S
C310 C324 1.377 . S
C311 C310 1.524 1_556 S
C311 C312 1.397 1_556 S
C311 C316 1.363 . S
C312 H289 0.950 . S
C312 C311 1.397 1_554 S
C312 C313 1.334 . S
C313 H290 0.950 . S
C313 C312 1.334 . S
C313 C314 1.287 1_554 S
C314 C313 1.287 1_556 S
C314 C315 1.524 . S
C314 H333 0.913 . S
C315 H291 0.950 . S
C315 C314 1.524 . S
C315 C316 1.415 . S
C316 H292 0.950 . S
C316 C311 1.363 . S
C316 C315 1.415 . S
C317 H293 0.951 . S
C317 C318 1.366 1_545 S
C317 C319 1.388 . S
C318 C317 1.366 1_565 S
C318 C322 1.385 1_554 S
C319 H294 0.951 . S
C319 C317 1.388 . S
C319 C320 1.366 . S
C320 C319 1.366 . S
C320 C321 1.414 1_544 S
C320 C323 1.499 . S
C321 H295 0.950 . S
C321 C320 1.414 1_566 S
C321 C322 1.374 . S
C322 H296 0.950 . S
C322 C318 1.385 1_556 S
C322 C321 1.374 . S
C323 C320 1.499 . S
C323 C324 1.373 1_545 S
C323 C325 1.389 . S
C324 H297 0.950 1_554 S
C324 C310 1.377 . S
C324 C323 1.373 1_565 S
C325 C309 1.377 . S
C325 C323 1.389 . S
C325 C326 1.524 . S
C326 C325 1.524 . S
C326 C327 1.397 . S
C326 C331 1.363 . S
C327 H298 0.950 1_554 S
C327 C326 1.397 . S
C327 C328 1.334 . S
C328 H299 0.950 1_554 S
C328 C327 1.334 . S
C328 C329 1.287 . S
C329 C328 1.287 . S
C329 C330 1.524 . S
C329 H332 0.999 . S
C330 H300 0.950 . S
C330 C329 1.524 . S
C330 C331 1.415 . S
C331 H301 0.950 . S
C331 C326 1.363 . S
C331 C330 1.415 . S
H332 C329 0.999 . S
H333 C314 0.913 . S
H334 C352 0.951 . S
H335 C354 0.951 . S
H336 C356 0.950 . S
H337 C357 0.950 . S
H338 C359 0.950 1_565 S
H339 C362 0.950 . S
H340 C363 0.950 . S
H341 C365 0.950 . S
H342 C366 0.950 . S
H343 C367 0.951 . S
H344 C369 0.951 . S
H345 C371 0.950 . S
H346 C372 0.950 . S
H347 C374 0.950 . S
H348 C377 0.950 . S
H349 C378 0.950 . S
H350 C380 0.950 . S
H351 C381 0.950 . S
C352 H334 0.951 . S
C352 C353 1.366 1_545 S
C352 C354 1.388 . S
C353 C352 1.366 1_565 S
C353 C357 1.385 . S
C354 H335 0.951 . S
C354 C352 1.388 . S
C354 C355 1.366 1_545 S
C355 C354 1.366 1_565 S
C355 C356 1.414 . S
C355 C358 1.499 1_565 S
C356 H336 0.950 . S
C356 C355 1.414 . S
C356 C357 1.374 . S
C357 H337 0.950 . S
C357 C353 1.385 . S
C357 C356 1.374 . S
C358 C355 1.499 1_545 S
C358 C359 1.373 . S
C358 C360 1.389 . S
C359 H338 0.950 1_545 S
C359 C358 1.373 . S
C359 C375 1.377 . S
C360 C358 1.389 . S
C360 C361 1.524 . S
C360 C374 1.377 . S
C361 C360 1.524 . S
C361 C362 1.397 1_545 S
C361 C366 1.363 . S
C362 H339 0.950 . S
C362 C361 1.397 1_565 S
C362 C363 1.334 . S
C363 H340 0.950 . S
C363 C362 1.334 . S
C363 C364 1.287 . S
C364 C363 1.287 . S
C364 C365 1.524 1_565 S
C364 H383 0.913 . S
C365 H341 0.950 . S
C365 C364 1.524 1_545 S
C365 C366 1.415 . S
C366 H342 0.950 . S
C366 C361 1.363 . S
C366 C365 1.415 . S
C367 H343 0.951 . S
C367 C368 1.366 1_565 S
C367 C369 1.388 . S
C368 C367 1.366 1_545 S
C368 C372 1.385 . S
C369 H344 0.951 . S
C369 C367 1.388 . S
C369 C370 1.366 1_565 S
C370 C369 1.366 1_545 S
C370 C371 1.414 . S
C370 C373 1.499 . S
C371 H345 0.950 . S
C371 C370 1.414 . S
C371 C372 1.374 . S
C372 H346 0.950 . S
C372 C368 1.385 . S
C372 C371 1.374 . S
C373 C370 1.499 . S
C373 C374 1.373 . S
C373 C375 1.389 . S
C374 H347 0.950 . S
C374 C360 1.377 . S
C374 C373 1.373 . S
C375 C359 1.377 . S
C375 C373 1.389 . S
C375 C376 1.524 . S
C376 C375 1.524 . S
C376 C377 1.397 . S
C376 C381 1.363 1_545 S
C377 H348 0.950 . S
C377 C376 1.397 . S
C377 C378 1.334 . S
C378 H349 0.950 . S
C378 C377 1.334 . S
C378 C379 1.287 . S
C379 C378 1.287 . S
C379 C380 1.524 1_545 S
C379 H382 0.999 . S
C380 H350 0.950 . S
C380 C379 1.524 1_565 S
C380 C381 1.415 . S
C381 H351 0.950 . S
C381 C376 1.363 1_565 S
C381 C380 1.415 . S
H382 C379 0.999 . S
H383 C364 0.913 . S
H384 C402 0.951 . S
H385 C404 0.951 . S
H386 C406 0.950 . S
H387 C407 0.950 . S
H388 C409 0.948 1_556 S
H389 C412 0.950 . S
H390 C413 0.950 . S
H391 C415 0.950 . S
H392 C416 0.950 . S
H393 C417 0.951 . S
H394 C419 0.951 . S
H395 C421 0.950 . S
H396 C422 0.950 . S
H397 C424 0.950 . S
H398 C427 0.950 . S
H399 C428 0.950 . S
H400 C430 0.950 . S
H401 C431 0.950 . S
C402 H384 0.951 . S
C402 C403 1.366 . S
C402 C404 1.388 . S
C403 C402 1.366 . S
C403 C407 1.385 1_554 S
C404 H385 0.951 . S
C404 C402 1.388 . S
C404 C405 1.366 . S
C405 C404 1.366 . S
C405 C406 1.414 1_554 S
C405 C408 1.499 . S
C406 H386 0.950 . S
C406 C405 1.414 1_556 S
C406 C407 1.374 . S
C407 H387 0.950 . S
C407 C403 1.385 1_556 S
C407 C406 1.374 . S
C408 C405 1.499 . S
C408 C409 1.373 . S
C408 C410 1.389 1_655 S
C409 H388 0.948 1_554 S
C409 C408 1.373 . S
C409 C425 1.377 1_655 S
C410 C408 1.389 1_455 S
C410 C411 1.524 1_455 S
C410 C424 1.377 . S
C411 C410 1.524 1_655 S
C411 C412 1.397 1_554 S
C411 C416 1.363 1_655 S
C412 H389 0.950 . S
C412 C411 1.397 1_556 S
C412 C413 1.334 . S
C413 H390 0.950 . S
C413 C412 1.334 . S
C413 C414 1.287 1_556 S
C414 C413 1.287 1_554 S
C414 C415 1.524 1_655 S
C414 H433 0.913 . S
C415 H391 0.950 . S
C415 C414 1.524 1_455 S
C415 C416 1.415 . S
C416 H392 0.950 . S
C416 C411 1.363 1_455 S
C416 C415 1.415 . S
C417 H393 0.951 . S
C417 C418 1.366 1_556 S
C417 C419 1.388 . S
C418 C417 1.366 1_554 S
C418 C422 1.385 . S
C419 H394 0.951 . S
C419 C417 1.388 . S
C419 C420 1.366 1_556 S
C420 C419 1.366 1_554 S
C420 C421 1.414 . S
C420 C423 1.499 . S
C421 H395 0.950 . S
C421 C420 1.414 . S
C421 C422 1.374 . S
C422 H396 0.950 . S
C422 C418 1.385 . S
C422 C421 1.374 . S
C423 C420 1.499 . S
C423 C424 1.373 . S
C423 C425 1.389 . S
C424 H397 0.950 . S
C424 C410 1.377 . S
C424 C423 1.373 . S
C425 C409 1.377 1_455 S
C425 C423 1.389 . S
C425 C426 1.524 . S
C426 C425 1.524 . S
C426 C427 1.397 . S
C426 C431 1.363 1_554 S
C427 H398 0.950 . S
C427 C426 1.397 . S
C427 C428 1.334 . S
C428 H399 0.950 . S
C428 C427 1.334 . S
C428 C429 1.287 . S
C429 C428 1.287 . S
C429 C430 1.524 1_554 S
C429 H432 0.999 1_554 S
C430 H400 0.950 . S
C430 C429 1.524 1_556 S
C430 C431 1.415 . S
C431 H401 0.950 . S
C431 C426 1.363 1_556 S
C431 C430 1.415 . S
H432 C429 0.999 1_556 S
H433 C414 0.913 . S
H434 C452 0.951 . S
H435 C454 0.951 . S
H436 C456 0.950 . S
H437 C457 0.950 . S
H438 C459 0.950 . S
H439 C462 0.950 . S
H440 C463 0.950 . S
H441 C465 0.950 . S
H442 C466 0.950 . S
H443 C467 0.951 . S
H444 C469 0.951 . S
H445 C471 0.950 . S
H446 C472 0.950 . S
H447 C474 0.950 . S
H448 C477 0.950 . S
H449 C478 0.950 . S
H450 C480 0.950 . S
H451 C481 0.950 . S
C452 H434 0.951 . S
C452 C453 1.366 . S
C452 C454 1.388 . S
C453 C452 1.366 . S
C453 C457 1.385 . S
C454 H435 0.951 . S
C454 C452 1.388 . S
C454 C455 1.366 . S
C455 C454 1.366 . S
C455 C456 1.414 . S
C455 C458 1.499 . S
C456 H436 0.950 . S
C456 C455 1.414 . S
C456 C457 1.374 . S
C457 H437 0.950 . S
C457 C453 1.385 . S
C457 C456 1.374 . S
C458 C455 1.499 . S
C458 C459 1.373 . S
C458 C460 1.389 . S
C459 H438 0.950 . S
C459 C458 1.373 . S
C459 C475 1.377 1_455 S
C460 C458 1.389 . S
C460 C461 1.524 . S
C460 C474 1.377 1_455 S
C461 C460 1.524 . S
C461 C462 1.397 . S
C461 C466 1.363 . S
C462 H439 0.950 . S
C462 C461 1.397 . S
C462 C463 1.334 . S
C463 H440 0.950 . S
C463 C462 1.334 . S
C463 C464 1.287 . S
C464 C463 1.287 . S
C464 C465 1.524 . S
C464 H483 0.913 . S
C465 H441 0.950 . S
C465 C464 1.524 . S
C465 C466 1.415 . S
C466 H442 0.950 . S
C466 C461 1.363 . S
C466 C465 1.415 . S
C467 H443 0.951 . S
C467 C468 1.366 . S
C467 C469 1.388 . S
C468 C467 1.366 . S
C468 C472 1.385 . S
C469 H444 0.951 . S
C469 C467 1.388 . S
C469 C470 1.366 . S
C470 C469 1.366 . S
C470 C471 1.414 . S
C470 C473 1.499 . S
C471 H445 0.950 . S
C471 C470 1.414 . S
C471 C472 1.374 . S
C472 H446 0.950 . S
C472 C468 1.385 . S
C472 C471 1.374 . S
C473 C470 1.499 . S
C473 C474 1.373 . S
C473 C475 1.389 . S
C474 H447 0.950 . S
C474 C460 1.377 1_655 S
C474 C473 1.373 . S
C475 C459 1.377 1_655 S
C475 C473 1.389 . S
C475 C476 1.524 . S
C476 C475 1.524 . S
C476 C477 1.397 . S
C476 C481 1.363 . S
C477 H448 0.950 . S
C477 C476 1.397 . S
C477 C478 1.334 . S
C478 H449 0.950 . S
C478 C477 1.334 . S
C478 C479 1.287 . S
C479 C478 1.287 . S
C479 C480 1.524 . S
C479 H482 0.999 . S
C480 H450 0.950 . S
C480 C479 1.524 . S
C480 C481 1.415 . S
C481 H451 0.950 . S
C481 C476 1.363 . S
C481 C480 1.415 . S
H482 C479 0.999 . S
H483 C464 0.913 . S
H484 C502 0.951 . S
H485 C504 0.951 . S
H486 C506 0.950 . S
H487 C507 0.950 . S
H488 C509 0.950 . S
H489 C512 0.950 . S
H490 C513 0.950 . S
H491 C515 0.950 . S
H492 C516 0.950 . S
H493 C517 0.951 . S
H494 C519 0.951 . S
H495 C521 0.950 . S
H496 C522 0.950 . S
H497 C524 0.950 . S
H498 C527 0.950 . S
H499 C528 0.950 . S
H500 C530 0.950 . S
H501 C531 0.950 . S
C502 H484 0.951 . S
C502 C503 1.366 1_565 S
C502 C504 1.388 . S
C503 C502 1.366 1_545 S
C503 C507 1.385 1_455 S
C504 H485 0.951 . S
C504 C502 1.388 . S
C504 C505 1.366 1_565 S
C505 C504 1.366 1_545 S
C505 C506 1.414 1_455 S
C505 C508 1.499 . S
C506 H486 0.950 . S
C506 C505 1.414 1_655 S
C506 C507 1.374 . S
C507 H487 0.950 . S
C507 C503 1.385 1_655 S
C507 C506 1.374 . S
C508 C505 1.499 . S
C508 C509 1.373 1_445 S
C508 C510 1.389 . S
C509 H488 0.950 . S
C509 C508 1.373 1_665 S
C509 C525 1.377 . S
C510 C508 1.389 . S
C510 C511 1.524 . S
C510 C524 1.377 . S
C511 C510 1.524 . S
C511 C512 1.397 . S
C511 C516 1.363 . S
C512 H489 0.950 . S
C512 C511 1.397 . S
C512 C513 1.334 . S
C513 H490 0.950 . S
C513 C512 1.334 . S
C513 C514 1.287 . S
C514 C513 1.287 . S
C514 C515 1.524 . S
C514 H533 0.913 . S
C515 H491 0.950 . S
C515 C514 1.524 . S
C515 C516 1.415 . S
C516 H492 0.950 . S
C516 C511 1.363 . S
C516 C515 1.415 . S
C517 H493 0.951 . S
C517 C518 1.366 1_655 S
C517 C519 1.388 . S
C518 C517 1.366 1_455 S
C518 C522 1.385 1_545 S
C519 H494 0.951 . S
C519 C517 1.388 . S
C519 C520 1.366 1_645 S
C520 C519 1.366 1_465 S
C520 C521 1.414 . S
C520 C523 1.498 . S
C521 H495 0.950 . S
C521 C520 1.414 . S
C521 C522 1.374 . S
C522 H496 0.950 . S
C522 C518 1.385 1_565 S
C522 C521 1.374 . S
C523 C520 1.498 . S
C523 C524 1.365 1_565 S
C523 C525 1.397 1_455 S
C524 H497 0.950 . S
C524 C510 1.377 . S
C524 C523 1.365 1_545 S
C525 C509 1.377 . S
C525 C523 1.397 1_655 S
C525 C526 1.524 . S
C526 C525 1.524 . S
C526 C527 1.397 . S
C526 C531 1.363 . S
C527 H498 0.950 . S
C527 C526 1.397 . S
C527 C528 1.334 . S
C528 H499 0.950 . S
C528 C527 1.334 . S
C528 C529 1.287 . S
C529 C528 1.287 . S
C529 C530 1.524 . S
C529 H532 0.999 . S
C530 H500 0.950 . S
C530 C529 1.524 . S
C530 C531 1.415 . S
C531 H501 0.950 . S
C531 C526 1.363 . S
C531 C530 1.415 . S
H532 C529 0.999 . S
H533 C514 0.913 . S
H534 C552 0.951 . S
H535 C554 0.951 . S
H536 C556 0.950 . S
H537 C557 0.950 . S
H538 C559 0.950 . S
H539 C562 0.950 1_455 S
H540 C563 0.950 . S
H541 C565 0.950 . S
H542 C566 0.950 . S
H543 C567 0.954 . S
H544 C569 0.950 1_545 S
H545 C571 0.950 . S
H546 C572 0.950 . S
H547 C574 0.950 . S
H548 C577 0.950 1_655 S
H549 C578 0.950 . S
H550 C580 0.950 . S
H551 C581 0.950 . S
C552 H534 0.951 . S
C552 C553 1.366 1_655 S
C552 C554 1.388 . S
C553 C552 1.366 1_455 S
C553 C557 1.385 . S
C554 H535 0.951 . S
C554 C552 1.388 . S
C554 C555 1.366 1_655 S
C555 C554 1.366 1_455 S
C555 C556 1.414 . S
C555 C558 1.499 . S
C556 H536 0.950 . S
C556 C555 1.414 . S
C556 C557 1.374 . S
C557 H537 0.950 . S
C557 C553 1.385 . S
C557 C556 1.374 . S
C558 C555 1.499 . S
C558 C559 1.373 1_565 S
C558 C560 1.389 1_455 S
C559 H538 0.950 . S
C559 C558 1.373 1_545 S
C559 C575 1.377 . S
C560 C558 1.389 1_655 S
C560 C561 1.524 . S
C560 C574 1.377 . S
C561 C560 1.524 . S
C561 C562 1.397 . S
C561 C566 1.363 . S
C562 H539 0.950 1_655 S
C562 C561 1.397 . S
C562 C563 1.334 . S
C563 H540 0.950 . S
C563 C562 1.334 . S
C563 C564 1.287 . S
C564 C563 1.287 . S
C564 C565 1.524 . S
C564 H583 0.913 . S
C565 H541 0.950 . S
C565 C564 1.524 . S
C565 C566 1.415 . S
C566 H542 0.950 . S
C566 C561 1.363 . S
C566 C565 1.415 . S
C567 H543 0.954 . S
C567 C568 1.366 . S
C567 C569 1.388 . S
C568 C567 1.366 . S
C568 C572 1.385 1_455 S
C569 H544 0.950 1_565 S
C569 C567 1.388 . S
C569 C570 1.366 . S
C570 C569 1.366 . S
C570 C571 1.414 1_455 S
C570 C573 1.499 . S
C571 H545 0.950 . S
C571 C570 1.414 1_655 S
C571 C572 1.374 . S
C572 H546 0.950 . S
C572 C568 1.385 1_655 S
C572 C571 1.374 . S
C573 C570 1.499 . S
C573 C574 1.373 1_455 S
C573 C575 1.389 1_565 S
C574 H547 0.950 . S
C574 C560 1.377 . S
C574 C573 1.373 1_655 S
C575 C559 1.377 . S
C575 C573 1.389 1_545 S
C575 C576 1.524 . S
C576 C575 1.524 . S
C576 C577 1.397 . S
C576 C581 1.363 . S
C577 H548 0.950 1_455 S
C577 C576 1.397 . S
C577 C578 1.334 . S
C578 H549 0.950 . S
C578 C577 1.334 . S
C578 C579 1.287 . S
C579 C578 1.287 . S
C579 C580 1.524 . S
C579 H582 0.999 . S
C580 H550 0.950 . S
C580 C579 1.524 . S
C580 C581 1.415 . S
C581 H551 0.950 . S
C581 C576 1.363 . S
C581 C580 1.415 . S
H582 C579 0.999 . S
H583 C564 0.913 . S
H584 C602 0.951 . S
H585 C604 0.951 . S
H586 C606 0.950 . S
H587 C607 0.950 . S
H588 C609 0.950 . S
H589 C612 0.950 . S
H590 C613 0.950 . S
H591 C615 0.950 . S
H592 C616 0.950 . S
H593 C617 0.951 . S
H594 C619 0.951 . S
H595 C621 0.950 . S
H596 C622 0.950 . S
H597 C624 0.950 . S
H598 C627 0.950 . S
H599 C628 0.950 . S
H600 C630 0.950 . S
H601 C631 0.950 . S
C602 H584 0.951 . S
C602 C603 1.366 . S
C602 C604 1.388 . S
C603 C602 1.366 . S
C603 C607 1.385 . S
C604 H585 0.951 . S
C604 C602 1.388 . S
C604 C605 1.366 . S
C605 C604 1.366 . S
C605 C606 1.414 . S
C605 C608 1.499 . S
C606 H586 0.950 . S
C606 C605 1.414 . S
C606 C607 1.374 . S
C607 H587 0.950 . S
C607 C603 1.385 . S
C607 C606 1.374 . S
C608 C605 1.499 . S
C608 C609 1.373 . S
C608 C610 1.389 . S
C609 H588 0.950 . S
C609 C608 1.373 . S
C609 C625 1.377 . S
C610 C608 1.389 . S
C610 C611 1.524 . S
C610 C624 1.377 . S
C611 C610 1.524 . S
C611 C612 1.397 . S
C611 C616 1.363 . S
C612 H589 0.950 . S
C612 C611 1.397 . S
C612 C613 1.334 . S
C613 H590 0.950 . S
C613 C612 1.334 . S
C613 C614 1.287 . S
C614 C613 1.287 . S
C614 C615 1.524 . S
C614 H633 0.913 . S
C615 H591 0.950 . S
C615 C614 1.524 . S
C615 C616 1.415 . S
C616 H592 0.950 . S
C616 C611 1.363 . S
C616 C615 1.415 . S
C617 H593 0.951 . S
C617 C618 1.366 . S
C617 C619 1.388 . S
C618 C617 1.366 . S
C618 C622 1.385 . S
C619 H594 0.951 . S
C619 C617 1.388 . S
C619 C620 1.366 . S
C620 C619 1.366 . S
C620 C621 1.414 . S
C620 C623 1.499 . S
C621 H595 0.950 . S
C621 C620 1.414 . S
C621 C622 1.374 . S
C622 H596 0.950 . S
C622 C618 1.385 . S
C622 C621 1.374 . S
C623 C620 1.499 . S
C623 C624 1.373 . S
C623 C625 1.389 . S
C624 H597 0.950 . S
C624 C610 1.377 . S
C624 C623 1.373 . S
C625 C609 1.377 . S
C625 C623 1.389 . S
C625 C626 1.524 . S
C626 C625 1.524 . S
C626 C627 1.397 . S
C626 C631 1.363 . S
C627 H598 0.950 . S
C627 C626 1.397 . S
C627 C628 1.334 . S
C628 H599 0.950 . S
C628 C627 1.334 . S
C628 C629 1.287 . S
C629 C628 1.287 . S
C629 C630 1.524 . S
C629 H632 0.999 . S
C630 H600 0.950 . S
C630 C629 1.524 . S
C630 C631 1.415 . S
C631 H601 0.950 . S
C631 C626 1.363 . S
C631 C630 1.415 . S
H632 C629 0.999 . S
H633 C614 0.913 . S
H634 C652 0.951 . S
H635 C654 0.951 . S
H636 C656 0.950 . S
H637 C657 0.950 . S
H638 C659 0.950 . S
H639 C662 0.950 . S
H640 C663 0.950 . S
H641 C665 0.950 . S
H642 C666 0.950 . S
H643 C667 0.951 . S
H644 C669 0.951 . S
H645 C671 0.950 . S
H646 C672 0.950 . S
H647 C674 0.950 . S
H648 C677 0.950 . S
H649 C678 0.950 . S
H650 C680 0.950 . S
H651 C681 0.950 . S
C652 H634 0.951 . S
C652 C653 1.366 . S
C652 C654 1.388 . S
C653 C652 1.366 . S
C653 C657 1.385 . S
C654 H635 0.951 . S
C654 C652 1.388 . S
C654 C655 1.366 . S
C655 C654 1.366 . S
C655 C656 1.414 . S
C655 C658 1.499 . S
C656 H636 0.950 . S
C656 C655 1.414 . S
C656 C657 1.374 . S
C657 H637 0.950 . S
C657 C653 1.385 . S
C657 C656 1.374 . S
C658 C655 1.499 . S
C658 C659 1.373 . S
C658 C660 1.389 . S
C659 H638 0.950 . S
C659 C658 1.373 . S
C659 C675 1.377 . S
C660 C658 1.389 . S
C660 C661 1.524 . S
C660 C674 1.377 . S
C661 C660 1.524 . S
C661 C662 1.397 . S
C661 C666 1.363 . S
C662 H639 0.950 . S
C662 C661 1.397 . S
C662 C663 1.334 . S
C663 H640 0.950 . S
C663 C662 1.334 . S
C663 C664 1.287 . S
C664 C663 1.287 . S
C664 C665 1.524 . S
C664 H683 0.913 . S
C665 H641 0.950 . S
C665 C664 1.524 . S
C665 C666 1.415 . S
C666 H642 0.950 . S
C666 C661 1.363 . S
C666 C665 1.415 . S
C667 H643 0.951 . S
C667 C668 1.366 . S
C667 C669 1.388 . S
C668 C667 1.366 . S
C668 C672 1.385 . S
C669 H644 0.951 . S
C669 C667 1.388 . S
C669 C670 1.366 . S
C670 C669 1.366 . S
C670 C671 1.414 . S
C670 C673 1.499 . S
C671 H645 0.950 . S
C671 C670 1.414 . S
C671 C672 1.374 . S
C672 H646 0.950 . S
C672 C668 1.385 . S
C672 C671 1.374 . S
C673 C670 1.499 . S
C673 C674 1.373 . S
C673 C675 1.389 . S
C674 H647 0.950 . S
C674 C660 1.377 . S
C674 C673 1.373 . S
C675 C659 1.377 . S
C675 C673 1.389 . S
C675 C676 1.524 . S
C676 C675 1.524 . S
C676 C677 1.397 . S
C676 C681 1.363 . S
C677 H648 0.950 . S
C677 C676 1.397 . S
C677 C678 1.334 . S
C678 H649 0.950 . S
C678 C677 1.334 . S
C678 C679 1.287 . S
C679 C678 1.287 . S
C679 C680 1.524 . S
C679 H682 0.999 . S
C680 H650 0.950 . S
C680 C679 1.524 . S
C680 C681 1.415 . S
C681 H651 0.950 . S
C681 C676 1.363 . S
C681 C680 1.415 . S
H682 C679 0.999 . S
H683 C664 0.913 . S
C103 C57 1.472 . S
C118 C14 1.483 . S
C153 C56 1.482 . S
C168 C15 1.470 . S
C203 C39 1.471 . S
C218 C80 1.483 . S
C253 C38 1.482 . S
C268 C81 1.471 . S
C303 C18 0.751 . S
C318 C17 0.757 . S
C353 C35 0.749 . S
C368 C36 0.749 . S
C403 C60 0.749 . S
C418 C59 0.755 . S
C453 C78 0.751 . S
C468 C77 0.750 . S
C503 C37 1.285 1_445 S
C518 C13 1.286 1_545 S
C553 C16 1.302 1_465 S
C568 C34 1.304 1_565 S
C603 C79 1.287 . S
C618 C55 1.286 . S
C653 C76 1.302 . S
C668 C58 1.303 . S
