# Generated by pormake.
# Topology cha, (4)-cn, num edge types: 1
# Building blocks:
#     Node 0, Type 0, BuildingBlock: KUFVIS_clean_sbu_0, # of connection points: 4
#     Node 1, Type 0, BuildingBlock: KUFVIS_clean_sbu_0, # of connection points: 4
#     Node 2, Type 0, BuildingBlock: KUFVIS_clean_sbu_0, # of connection points: 4
#     Node 3, Type 0, BuildingBlock: KUFVIS_clean_sbu_0, # of connection points: 4
#     Node 4, Type 0, BuildingBlock: KUFVIS_clean_sbu_0, # of connection points: 4
#     Node 5, Type 0, BuildingBlock: KUFVIS_clean_sbu_0, # of connection points: 4
#     Node 6, Type 0, BuildingBlock: KUFVIS_clean_sbu_0, # of connection points: 4
#     Node 7, Type 0, BuildingBlock: KUFVIS_clean_sbu_0, # of connection points: 4
#     Node 8, Type 0, BuildingBlock: KUFVIS_clean_sbu_0, # of connection points: 4
#     Node 9, Type 0, BuildingBlock: KUFVIS_clean_sbu_0, # of connection points: 4
#     Node 10, Type 0, BuildingBlock: KUFVIS_clean_sbu_0, # of connection points: 4
#     Node 11, Type 0, BuildingBlock: KUFVIS_clean_sbu_0, # of connection points: 4
#     Node 12, Type 0, BuildingBlock: KUFVIS_clean_sbu_0, # of connection points: 4
#     Node 13, Type 0, BuildingBlock: KUFVIS_clean_sbu_0, # of connection points: 4
#     Node 14, Type 0, BuildingBlock: KUFVIS_clean_sbu_0, # of connection points: 4
#     Node 15, Type 0, BuildingBlock: KUFVIS_clean_sbu_0, # of connection points: 4
#     Node 16, Type 0, BuildingBlock: KUFVIS_clean_sbu_0, # of connection points: 4
#     Node 17, Type 0, BuildingBlock: KUFVIS_clean_sbu_0, # of connection points: 4
#     Node 18, Type 0, BuildingBlock: KUFVIS_clean_sbu_0, # of connection points: 4
#     Node 19, Type 0, BuildingBlock: KUFVIS_clean_sbu_0, # of connection points: 4
#     Node 20, Type 0, BuildingBlock: KUFVIS_clean_sbu_0, # of connection points: 4
#     Node 21, Type 0, BuildingBlock: KUFVIS_clean_sbu_0, # of connection points: 4
#     Node 22, Type 0, BuildingBlock: KUFVIS_clean_sbu_0, # of connection points: 4
#     Node 23, Type 0, BuildingBlock: KUFVIS_clean_sbu_0, # of connection points: 4
#     Node 24, Type 0, BuildingBlock: KUFVIS_clean_sbu_0, # of connection points: 4
#     Node 25, Type 0, BuildingBlock: KUFVIS_clean_sbu_0, # of connection points: 4
#     Node 26, Type 0, BuildingBlock: KUFVIS_clean_sbu_0, # of connection points: 4
#     Node 27, Type 0, BuildingBlock: KUFVIS_clean_sbu_0, # of connection points: 4
#     Node 28, Type 0, BuildingBlock: KUFVIS_clean_sbu_0, # of connection points: 4
#     Node 29, Type 0, BuildingBlock: KUFVIS_clean_sbu_0, # of connection points: 4
#     Node 30, Type 0, BuildingBlock: KUFVIS_clean_sbu_0, # of connection points: 4
#     Node 31, Type 0, BuildingBlock: KUFVIS_clean_sbu_0, # of connection points: 4
#     Node 32, Type 0, BuildingBlock: KUFVIS_clean_sbu_0, # of connection points: 4
#     Node 33, Type 0, BuildingBlock: KUFVIS_clean_sbu_0, # of connection points: 4
#     Node 34, Type 0, BuildingBlock: KUFVIS_clean_sbu_0, # of connection points: 4
#     Node 35, Type 0, BuildingBlock: KUFVIS_clean_sbu_0, # of connection points: 4
#     Edge 36, Type (0, 0), BuildingBlock: UVAHIK_clean_linker_0, # of connection points: 2
#     Edge 37, Type (0, 0), BuildingBlock: UVAHIK_clean_linker_0, # of connection points: 2
#     Edge 38, Type (0, 0), BuildingBlock: UVAHIK_clean_linker_0, # of connection points: 2
#     Edge 39, Type (0, 0), BuildingBlock: UVAHIK_clean_linker_0, # of connection points: 2
#     Edge 40, Type (0, 0), BuildingBlock: UVAHIK_clean_linker_0, # of connection points: 2
#     Edge 41, Type (0, 0), BuildingBlock: UVAHIK_clean_linker_0, # of connection points: 2
#     Edge 42, Type (0, 0), BuildingBlock: UVAHIK_clean_linker_0, # of connection points: 2
#     Edge 43, Type (0, 0), BuildingBlock: UVAHIK_clean_linker_0, # of connection points: 2
#     Edge 44, Type (0, 0), BuildingBlock: UVAHIK_clean_linker_0, # of connection points: 2
#     Edge 45, Type (0, 0), BuildingBlock: UVAHIK_clean_linker_0, # of connection points: 2
#     Edge 46, Type (0, 0), BuildingBlock: UVAHIK_clean_linker_0, # of connection points: 2
#     Edge 47, Type (0, 0), BuildingBlock: UVAHIK_clean_linker_0, # of connection points: 2
#     Edge 48, Type (0, 0), BuildingBlock: UVAHIK_clean_linker_0, # of connection points: 2
#     Edge 49, Type (0, 0), BuildingBlock: UVAHIK_clean_linker_0, # of connection points: 2
#     Edge 50, Type (0, 0), BuildingBlock: UVAHIK_clean_linker_0, # of connection points: 2
#     Edge 51, Type (0, 0), BuildingBlock: UVAHIK_clean_linker_0, # of connection points: 2
#     Edge 52, Type (0, 0), BuildingBlock: UVAHIK_clean_linker_0, # of connection points: 2
#     Edge 53, Type (0, 0), BuildingBlock: UVAHIK_clean_linker_0, # of connection points: 2
#     Edge 54, Type (0, 0), BuildingBlock: UVAHIK_clean_linker_0, # of connection points: 2
#     Edge 55, Type (0, 0), BuildingBlock: UVAHIK_clean_linker_0, # of connection points: 2
#     Edge 56, Type (0, 0), BuildingBlock: UVAHIK_clean_linker_0, # of connection points: 2
#     Edge 57, Type (0, 0), BuildingBlock: UVAHIK_clean_linker_0, # of connection points: 2
#     Edge 58, Type (0, 0), BuildingBlock: UVAHIK_clean_linker_0, # of connection points: 2
#     Edge 59, Type (0, 0), BuildingBlock: UVAHIK_clean_linker_0, # of connection points: 2
#     Edge 60, Type (0, 0), BuildingBlock: UVAHIK_clean_linker_0, # of connection points: 2
#     Edge 61, Type (0, 0), BuildingBlock: UVAHIK_clean_linker_0, # of connection points: 2
#     Edge 62, Type (0, 0), BuildingBlock: UVAHIK_clean_linker_0, # of connection points: 2
#     Edge 63, Type (0, 0), BuildingBlock: UVAHIK_clean_linker_0, # of connection points: 2
#     Edge 64, Type (0, 0), BuildingBlock: UVAHIK_clean_linker_0, # of connection points: 2
#     Edge 65, Type (0, 0), BuildingBlock: UVAHIK_clean_linker_0, # of connection points: 2
#     Edge 66, Type (0, 0), BuildingBlock: UVAHIK_clean_linker_0, # of connection points: 2
#     Edge 67, Type (0, 0), BuildingBlock: UVAHIK_clean_linker_0, # of connection points: 2
#     Edge 68, Type (0, 0), BuildingBlock: UVAHIK_clean_linker_0, # of connection points: 2
#     Edge 69, Type (0, 0), BuildingBlock: UVAHIK_clean_linker_0, # of connection points: 2
#     Edge 70, Type (0, 0), BuildingBlock: UVAHIK_clean_linker_0, # of connection points: 2
#     Edge 71, Type (0, 0), BuildingBlock: UVAHIK_clean_linker_0, # of connection points: 2
#     Edge 72, Type (0, 0), BuildingBlock: UVAHIK_clean_linker_0, # of connection points: 2
#     Edge 73, Type (0, 0), BuildingBlock: UVAHIK_clean_linker_0, # of connection points: 2
#     Edge 74, Type (0, 0), BuildingBlock: UVAHIK_clean_linker_0, # of connection points: 2
#     Edge 75, Type (0, 0), BuildingBlock: UVAHIK_clean_linker_0, # of connection points: 2
#     Edge 76, Type (0, 0), BuildingBlock: UVAHIK_clean_linker_0, # of connection points: 2
#     Edge 77, Type (0, 0), BuildingBlock: UVAHIK_clean_linker_0, # of connection points: 2
#     Edge 78, Type (0, 0), BuildingBlock: UVAHIK_clean_linker_0, # of connection points: 2
#     Edge 79, Type (0, 0), BuildingBlock: UVAHIK_clean_linker_0, # of connection points: 2
#     Edge 80, Type (0, 0), BuildingBlock: UVAHIK_clean_linker_0, # of connection points: 2
#     Edge 81, Type (0, 0), BuildingBlock: UVAHIK_clean_linker_0, # of connection points: 2
#     Edge 82, Type (0, 0), BuildingBlock: UVAHIK_clean_linker_0, # of connection points: 2
#     Edge 83, Type (0, 0), BuildingBlock: UVAHIK_clean_linker_0, # of connection points: 2
#     Edge 84, Type (0, 0), BuildingBlock: UVAHIK_clean_linker_0, # of connection points: 2
#     Edge 85, Type (0, 0), BuildingBlock: UVAHIK_clean_linker_0, # of connection points: 2
#     Edge 86, Type (0, 0), BuildingBlock: UVAHIK_clean_linker_0, # of connection points: 2
#     Edge 87, Type (0, 0), BuildingBlock: UVAHIK_clean_linker_0, # of connection points: 2
#     Edge 88, Type (0, 0), BuildingBlock: UVAHIK_clean_linker_0, # of connection points: 2
#     Edge 89, Type (0, 0), BuildingBlock: UVAHIK_clean_linker_0, # of connection points: 2
#     Edge 90, Type (0, 0), BuildingBlock: UVAHIK_clean_linker_0, # of connection points: 2
#     Edge 91, Type (0, 0), BuildingBlock: UVAHIK_clean_linker_0, # of connection points: 2
#     Edge 92, Type (0, 0), BuildingBlock: UVAHIK_clean_linker_0, # of connection points: 2
#     Edge 93, Type (0, 0), BuildingBlock: UVAHIK_clean_linker_0, # of connection points: 2
#     Edge 94, Type (0, 0), BuildingBlock: UVAHIK_clean_linker_0, # of connection points: 2
#     Edge 95, Type (0, 0), BuildingBlock: UVAHIK_clean_linker_0, # of connection points: 2
#     Edge 96, Type (0, 0), BuildingBlock: UVAHIK_clean_linker_0, # of connection points: 2
#     Edge 97, Type (0, 0), BuildingBlock: UVAHIK_clean_linker_0, # of connection points: 2
#     Edge 98, Type (0, 0), BuildingBlock: UVAHIK_clean_linker_0, # of connection points: 2
#     Edge 99, Type (0, 0), BuildingBlock: UVAHIK_clean_linker_0, # of connection points: 2
#     Edge 100, Type (0, 0), BuildingBlock: UVAHIK_clean_linker_0, # of connection points: 2
#     Edge 101, Type (0, 0), BuildingBlock: UVAHIK_clean_linker_0, # of connection points: 2
#     Edge 102, Type (0, 0), BuildingBlock: UVAHIK_clean_linker_0, # of connection points: 2
#     Edge 103, Type (0, 0), BuildingBlock: UVAHIK_clean_linker_0, # of connection points: 2
#     Edge 104, Type (0, 0), BuildingBlock: UVAHIK_clean_linker_0, # of connection points: 2
#     Edge 105, Type (0, 0), BuildingBlock: UVAHIK_clean_linker_0, # of connection points: 2
#     Edge 106, Type (0, 0), BuildingBlock: UVAHIK_clean_linker_0, # of connection points: 2
#     Edge 107, Type (0, 0), BuildingBlock: UVAHIK_clean_linker_0, # of connection points: 2
# Relax obj value: 0.088
# Max RMSD: 0.120
# Mean RMSD: 0.120
data_MOF--net-cha--node1-KUFVIS_clean_sbu_0--edge1-UVAHIK_clean_linker_0
_symmetry_space_group_name_H-M    P1
_symmetry_Int_Tables_number       1
_symmetry_cell_setting            triclinic
loop_
_symmetry_equiv_pos_as_xyz
'x, y, z'
_cell_length_a     71.435216
_cell_length_b     71.431935
_cell_length_c     109.03329
_cell_angle_alpha  89.985124
_cell_angle_beta   90.014575
_cell_angle_gamma 120.01365
loop_
_atom_site_label
_atom_site_type_symbol
_atom_site_fract_x
_atom_site_fract_y
_atom_site_fract_z
_atom_type_partial_charge
Mn0 Mn 0.02106 0.2979 0.09135 0.0
Mn1 Mn 0.00963 0.25089 0.07791 0.0
C2 C 0.98567 0.26993 0.09053 0.0
C3 C 0.03179 0.31907 0.10898 0.0
C4 C 0.02108 0.29203 0.0638 0.0
O5 O 0.05045 0.29983 0.08991 0.0
O6 O 0.04011 0.26595 0.08362 0.0
C7 C 0.01257 0.22716 0.09939 0.0
N8 N 0.00103 0.22843 0.08981 0.0
C9 C 0.97067 0.19341 0.0945 0.0
C10 C 0.98228 0.19167 0.10438 0.0
C11 C 0.0033 0.20866 0.10686 0.0
C12 C 0.98076 0.21224 0.08738 0.0
H13 H 0.02873 0.24019 0.1013 0.0
C14 C 0.05453 0.28481 0.08725 0.0
O15 O 0.03438 0.32783 0.09821 0.0
O16 O 0.02325 0.29826 0.10947 0.0
N17 N 0.9806 0.23462 0.07193 0.0
C18 C 0.97124 0.23928 0.06241 0.0
C19 C 0.95005 0.22412 0.05887 0.0
C20 C 0.9388 0.20427 0.06507 0.0
C21 C 0.94881 0.19978 0.07479 0.0
C22 C 0.97001 0.21545 0.07785 0.0
H23 H 0.97986 0.25444 0.05755 0.0
O24 O 0.98987 0.28955 0.09254 0.0
O25 O 0.00229 0.26728 0.08935 0.0
O26 O 0.02119 0.30346 0.07283 0.0
O27 O 0.01791 0.27284 0.06491 0.0
C28 C 0.93848 0.18052 0.08167 0.0
C29 C 0.94937 0.17736 0.09155 0.0
H30 H 0.97517 0.17746 0.11018 0.0
H31 H 0.01232 0.20747 0.1145 0.0
H32 H 0.94243 0.22771 0.05137 0.0
H33 H 0.92247 0.19263 0.06231 0.0
H34 H 0.92204 0.16817 0.07955 0.0
H35 H 0.94114 0.16261 0.09688 0.0
Mn36 Mn 0.76023 0.75427 0.09178 0.0
Mn37 Mn 0.80836 0.79053 0.07956 0.0
C38 C 0.78907 0.74798 0.09235 0.0
C39 C 0.7372 0.74206 0.10872 0.0
C40 C 0.7698 0.75897 0.06425 0.0
O41 O 0.75738 0.7812 0.09002 0.0
O42 O 0.79084 0.80437 0.0831 0.0
C43 C 0.82694 0.81904 0.10119 0.0
N44 N 0.82834 0.80628 0.09238 0.0
C45 C 0.86368 0.81475 0.09934 0.0
C46 C 0.86267 0.82807 0.10846 0.0
C47 C 0.84417 0.83012 0.10942 0.0
C48 C 0.84592 0.80393 0.09149 0.0
H49 H 0.81281 0.82078 0.10191 0.0
C50 C 0.77205 0.80007 0.08673 0.0
O51 O 0.7297 0.73642 0.09765 0.0
O52 O 0.75778 0.75518 0.10986 0.0
N53 N 0.8273 0.77963 0.07576 0.0
C54 C 0.82545 0.76563 0.06671 0.0
C55 C 0.84248 0.76153 0.06465 0.0
C56 C 0.86136 0.7721 0.07177 0.0
C57 C 0.863 0.78664 0.08092 0.0
C58 C 0.84547 0.79 0.08259 0.0
H59 H 0.81104 0.75752 0.06118 0.0
O60 O 0.76944 0.73211 0.09357 0.0
O61 O 0.79128 0.76704 0.091 0.0
O62 O 0.75676 0.74925 0.0731 0.0
O63 O 0.78904 0.7747 0.06578 0.0
C64 C 0.88133 0.7979 0.08845 0.0
C65 C 0.8816 0.81179 0.09774 0.0
H66 H 0.87598 0.83673 0.11478 0.0
H67 H 0.84324 0.84033 0.11645 0.0
H68 H 0.84108 0.75027 0.05758 0.0
H69 H 0.87445 0.76887 0.07018 0.0
H70 H 0.89519 0.79575 0.0873 0.0
H71 H 0.89565 0.82006 0.10361 0.0
Mn72 Mn 0.30411 0.03477 0.09151 0.0
Mn73 Mn 0.26661 0.04213 0.0771 0.0
C74 C 0.30978 0.06944 0.08886 0.0
C75 C 0.31611 0.02759 0.10989 0.0
C76 C 0.29695 0.03033 0.06401 0.0
O77 O 0.27726 0.00461 0.0914 0.0
O78 O 0.25249 0.01286 0.08451 0.0
C79 C 0.24042 0.04155 0.09829 0.0
N80 N 0.25265 0.05183 0.08827 0.0
C81 C 0.2462 0.08158 0.09082 0.0
C82 C 0.2334 0.07125 0.10112 0.0
C83 C 0.23061 0.0512 0.10491 0.0
C84 C 0.2557 0.07126 0.08465 0.0
H85 H 0.23817 0.0261 0.10119 0.0
C86 C 0.25776 0.99959 0.08905 0.0
O87 O 0.32186 0.02349 0.09937 0.0
O88 O 0.30331 0.03553 0.10965 0.0
N89 N 0.2782 0.07001 0.06963 0.0
C90 C 0.29187 0.07832 0.05988 0.0
C91 C 0.29703 0.09869 0.05524 0.0
C92 C 0.28784 0.11015 0.06054 0.0
C93 C 0.27362 0.10116 0.07048 0.0
C94 C 0.26917 0.08086 0.07475 0.0
H95 H 0.29882 0.06951 0.05569 0.0
O96 O 0.32594 0.06654 0.09124 0.0
O97 O 0.29097 0.05207 0.08834 0.0
O98 O 0.30892 0.03217 0.07316 0.0
O99 O 0.28031 0.03257 0.06477 0.0
C100 C 0.26377 0.1116 0.07634 0.0
C101 C 0.25006 0.1018 0.08651 0.0
H102 H 0.22577 0.07862 0.10624 0.0
H103 H 0.22084 0.04317 0.11288 0.0
H104 H 0.308 0.10551 0.04756 0.0
H105 H 0.29188 0.12587 0.05694 0.0
H106 H 0.26686 0.12729 0.07322 0.0
H107 H 0.24281 0.11012 0.09104 0.0
Mn108 Mn 0.29484 0.02019 0.91025 0.0
Mn109 Mn 0.24848 0.01151 0.92343 0.0
C110 C 0.26565 0.98536 0.91163 0.0
C111 C 0.31549 0.02866 0.89235 0.0
C112 C 0.28861 0.02039 0.93791 0.0
O113 O 0.29848 0.05034 0.91091 0.0
O114 O 0.26544 0.04195 0.91775 0.0
C115 C 0.22696 0.01679 0.90158 0.0
N116 N 0.22678 0.00463 0.91124 0.0
C117 C 0.19063 0.97649 0.90645 0.0
C118 C 0.19036 0.98879 0.89649 0.0
C119 C 0.20865 0.00897 0.89401 0.0
C120 C 0.2094 0.98505 0.9136 0.0
H121 H 0.24096 0.03235 0.89967 0.0
C122 C 0.28423 0.05546 0.91359 0.0
O123 O 0.32453 0.03185 0.90309 0.0
O124 O 0.2948 0.02093 0.89213 0.0
N125 N 0.23021 0.98265 0.92928 0.0
C126 C 0.23345 0.97234 0.93886 0.0
C127 C 0.21689 0.9517 0.94235 0.0
C128 C 0.19707 0.942 0.93606 0.0
C129 C 0.19402 0.953 0.92632 0.0
C130 C 0.21114 0.97349 0.92322 0.0
H131 H 0.24859 0.97973 0.94376 0.0
O132 O 0.28495 0.98851 0.90979 0.0
O133 O 0.264 0.00261 0.91234 0.0
O134 O 0.30038 0.02117 0.92886 0.0
O135 O 0.26965 0.01779 0.93666 0.0
C136 C 0.17471 0.94439 0.91951 0.0
C137 C 0.17307 0.95604 0.90951 0.0
H138 H 0.17624 0.98285 0.89066 0.0
H139 H 0.2086 0.01852 0.88631 0.0
H140 H 0.21938 0.94331 0.94988 0.0
H141 H 0.18435 0.92605 0.93876 0.0
H142 H 0.16114 0.92864 0.92175 0.0
H143 H 0.15828 0.94906 0.9042 0.0
Mn144 Mn 0.03133 0.29834 0.90967 0.0
Mn145 Mn 0.03952 0.26002 0.92244 0.0
C146 C 0.06595 0.30333 0.91061 0.0
C147 C 0.02256 0.31112 0.8922 0.0
C148 C 0.03159 0.29157 0.93725 0.0
O149 O 0.00094 0.27212 0.91054 0.0
O150 O 0.00905 0.24701 0.91688 0.0
C151 C 0.03356 0.23338 0.9004 0.0
N152 N 0.04593 0.24511 0.91008 0.0
C153 C 0.07362 0.23662 0.90499 0.0
C154 C 0.06111 0.22431 0.89503 0.0
C155 C 0.04105 0.22279 0.89269 0.0
C156 C 0.0654 0.24696 0.9123 0.0
H157 H 0.01811 0.23213 0.8986 0.0
C158 C 0.99564 0.25261 0.91299 0.0
O159 O 0.02014 0.31706 0.90307 0.0
O160 O 0.02976 0.29773 0.89153 0.0
N161 N 0.06838 0.27013 0.92813 0.0
C162 C 0.07892 0.28346 0.93776 0.0
C163 C 0.09947 0.28714 0.94113 0.0
C164 C 0.10884 0.27686 0.93469 0.0
C165 C 0.09759 0.26303 0.92491 0.0
C166 C 0.0772 0.26005 0.92194 0.0
H167 H 0.0718 0.29135 0.94278 0.0
O168 O 0.0631 0.31969 0.90893 0.0
O169 O 0.04853 0.28455 0.91139 0.0
O170 O 0.03107 0.30285 0.92829 0.0
O171 O 0.03369 0.27493 0.93586 0.0
C172 C 0.10586 0.2522 0.91794 0.0
C173 C 0.09398 0.23915 0.90793 0.0
H174 H 0.0668 0.21606 0.88908 0.0
H175 H 0.03135 0.2134 0.88498 0.0
H176 H 0.10805 0.29785 0.94869 0.0
H177 H 0.12472 0.27978 0.93729 0.0
H178 H 0.12152 0.25407 0.92009 0.0
H179 H 0.10071 0.23124 0.90249 0.0
Mn180 Mn 0.7534 0.75892 0.91029 0.0
Mn181 Mn 0.79023 0.80419 0.92468 0.0
C182 C 0.74673 0.78721 0.91313 0.0
C183 C 0.74173 0.73994 0.89183 0.0
C184 C 0.76083 0.76174 0.93778 0.0
O185 O 0.78071 0.75646 0.91027 0.0
O186 O 0.8049 0.78959 0.91729 0.0
C187 C 0.81585 0.83001 0.90341 0.0
N188 N 0.80358 0.82781 0.91344 0.0
C189 C 0.80879 0.86353 0.9107 0.0
C190 C 0.82159 0.86623 0.90036 0.0
C191 C 0.82504 0.84935 0.89667 0.0
C192 C 0.79993 0.84383 0.91699 0.0
H193 H 0.81862 0.8171 0.90058 0.0
C194 C 0.80006 0.77119 0.9127 0.0
O195 O 0.73623 0.72988 0.9023 0.0
O196 O 0.75408 0.76074 0.89217 0.0
N197 N 0.77813 0.81999 0.93218 0.0
C198 C 0.7647 0.81447 0.94205 0.0
C199 C 0.7591 0.82936 0.9467 0.0
C200 C 0.76759 0.84985 0.94126 0.0
C201 C 0.7816 0.85526 0.9312 0.0
C202 C 0.78654 0.83974 0.92695 0.0
H203 H 0.75829 0.79884 0.94635 0.0
O204 O 0.73091 0.76796 0.91072 0.0
O205 O 0.7658 0.78925 0.91355 0.0
O206 O 0.74896 0.75136 0.92865 0.0
O207 O 0.77705 0.7809 0.93703 0.0
C208 C 0.79075 0.8754 0.92519 0.0
C209 C 0.80434 0.87952 0.91494 0.0
H210 H 0.82875 0.88115 0.89516 0.0
H211 H 0.83484 0.85129 0.88868 0.0
H212 H 0.74832 0.82507 0.95448 0.0
H213 H 0.76321 0.86127 0.94485 0.0
H214 H 0.78725 0.88773 0.92828 0.0
H215 H 0.81107 0.89498 0.91031 0.0
Mn216 Mn 0.03098 0.75672 0.91095 0.0
Mn217 Mn 0.04104 0.80178 0.92642 0.0
C218 C 0.06612 0.78509 0.9131 0.0
C219 C 0.0226 0.73804 0.89235 0.0
C220 C 0.03098 0.7597 0.9389 0.0
O221 O 0.00126 0.75403 0.91184 0.0
O222 O 0.01031 0.78561 0.9211 0.0
C223 C 0.03506 0.82529 0.9058 0.0
N224 N 0.04763 0.82451 0.91495 0.0
C225 C 0.07624 0.86054 0.91032 0.0
C226 C 0.06352 0.86179 0.90091 0.0
C227 C 0.04288 0.84404 0.8986 0.0
C228 C 0.06764 0.84137 0.91712 0.0
H229 H 0.01919 0.8117 0.90399 0.0
C230 C 0.99654 0.76791 0.91592 0.0
O231 O 0.01876 0.72783 0.90274 0.0
O232 O 0.03087 0.75881 0.89285 0.0
N233 N 0.07023 0.81936 0.93196 0.0
C234 C 0.08061 0.81547 0.94124 0.0
C235 C 0.1016 0.83149 0.94456 0.0
C236 C 0.11156 0.8515 0.93848 0.0
C237 C 0.10039 0.85532 0.92915 0.0
C238 C 0.07953 0.83872 0.9262 0.0
H239 H 0.07294 0.8003 0.94606 0.0
O240 O 0.0625 0.76584 0.91051 0.0
O241 O 0.04917 0.78715 0.91422 0.0
O242 O 0.02905 0.74877 0.92923 0.0
O243 O 0.03508 0.77929 0.93885 0.0
C244 C 0.10915 0.87495 0.92264 0.0
C245 C 0.09714 0.87752 0.91318 0.0
H246 H 0.06948 0.87624 0.89536 0.0
H247 H 0.03301 0.84484 0.89132 0.0
H248 H 0.11005 0.82844 0.95184 0.0
H249 H 0.12776 0.8638 0.94105 0.0
H250 H 0.12522 0.8881 0.92474 0.0
H251 H 0.10418 0.89258 0.90812 0.0
Mn252 Mn 0.29612 0.29929 0.91003 0.0
Mn253 Mn 0.25068 0.26126 0.92377 0.0
C254 C 0.26666 0.30436 0.91186 0.0
C255 C 0.31667 0.31213 0.89221 0.0
C256 C 0.29173 0.29218 0.93756 0.0
O257 O 0.29999 0.27278 0.91052 0.0
O258 O 0.26678 0.24768 0.917 0.0
C259 C 0.22686 0.23496 0.90219 0.0
N260 N 0.22785 0.24701 0.91211 0.0
C261 C 0.1918 0.24029 0.9084 0.0
C262 C 0.19033 0.22767 0.8982 0.0
C263 C 0.20798 0.22509 0.89505 0.0
C264 C 0.21107 0.24982 0.91513 0.0
H265 H 0.24039 0.23293 0.89976 0.0
C266 C 0.2856 0.25321 0.9128 0.0
O267 O 0.3256 0.31779 0.90297 0.0
O268 O 0.29603 0.29875 0.89184 0.0
N269 N 0.23346 0.27233 0.9306 0.0
C270 C 0.23787 0.28582 0.94036 0.0
C271 C 0.22212 0.29065 0.94446 0.0
C272 C 0.20192 0.28136 0.93859 0.0
C273 C 0.19767 0.26733 0.92865 0.0
C274 C 0.214 0.26314 0.92497 0.0
H275 H 0.25328 0.29288 0.94498 0.0
O276 O 0.28575 0.32072 0.9098 0.0
O277 O 0.26542 0.28564 0.91254 0.0
O278 O 0.30222 0.30407 0.92847 0.0
O279 O 0.27305 0.27531 0.9366 0.0
C280 C 0.17793 0.25746 0.92221 0.0
C281 C 0.17501 0.24398 0.91207 0.0
H282 H 0.17578 0.22003 0.89267 0.0
H283 H 0.207 0.21547 0.88715 0.0
H284 H 0.22552 0.30148 0.95214 0.0
H285 H 0.18984 0.28518 0.94174 0.0
H286 H 0.16499 0.26037 0.92486 0.0
H287 H 0.15988 0.23675 0.90708 0.0
Mn288 Mn 0.75113 0.02171 0.91035 0.0
Mn289 Mn 0.78975 0.01444 0.92337 0.0
C290 C 0.74564 0.98706 0.91261 0.0
C291 C 0.73779 0.02905 0.89258 0.0
C292 C 0.76037 0.02611 0.93764 0.0
O293 O 0.77789 0.05193 0.9102 0.0
O294 O 0.80323 0.04367 0.91595 0.0
C295 C 0.81416 0.01492 0.90133 0.0
N296 N 0.8028 0.00471 0.9116 0.0
C297 C 0.80909 0.97498 0.90839 0.0
C298 C 0.82097 0.98524 0.89781 0.0
C299 C 0.82341 0.00524 0.89423 0.0
C300 C 0.8001 0.98533 0.91504 0.0
H301 H 0.81614 0.03034 0.89859 0.0
C302 C 0.79757 0.05696 0.91191 0.0
O303 O 0.73264 0.03283 0.90336 0.0
O304 O 0.75073 0.02128 0.89217 0.0
N305 N 0.77886 0.98663 0.93082 0.0
C306 C 0.76613 0.97843 0.94095 0.0
C307 C 0.7615 0.95817 0.94551 0.0
C308 C 0.77026 0.9467 0.93973 0.0
C309 C 0.78355 0.95559 0.92942 0.0
C310 C 0.78751 0.9758 0.92525 0.0
H311 H 0.75953 0.98726 0.94552 0.0
O312 O 0.72935 0.98997 0.91073 0.0
O313 O 0.76451 0.00441 0.91279 0.0
O314 O 0.74763 0.02411 0.92888 0.0
O315 O 0.77701 0.02403 0.93628 0.0
C316 C 0.79293 0.94516 0.92307 0.0
C317 C 0.80566 0.95483 0.91255 0.0
H318 H 0.82818 0.97785 0.89233 0.0
H319 H 0.83248 0.01322 0.88605 0.0
H320 H 0.75127 0.95143 0.95349 0.0
H321 H 0.76664 0.93107 0.94326 0.0
H322 H 0.79022 0.92955 0.9261 0.0
H323 H 0.81252 0.94649 0.90764 0.0
Mn324 Mn 0.76137 0.03391 0.09226 0.0
Mn325 Mn 0.80993 0.04648 0.08031 0.0
C326 C 0.78922 0.06945 0.09224 0.0
C327 C 0.73839 0.02295 0.1092 0.0
C328 C 0.771 0.03768 0.06474 0.0
O329 O 0.75941 0.00455 0.09099 0.0
O330 O 0.79311 0.0152 0.08439 0.0
C331 C 0.82896 0.03863 0.10248 0.0
N332 N 0.83007 0.05203 0.09326 0.0
C333 C 0.8649 0.08014 0.10016 0.0
C334 C 0.8642 0.0666 0.10968 0.0
C335 C 0.84611 0.04579 0.11087 0.0
C336 C 0.84731 0.07214 0.0921 0.0
H337 H 0.8151 0.02262 0.10341 0.0
C338 C 0.77435 0.00059 0.08801 0.0
O339 O 0.73077 0.02045 0.09812 0.0
O340 O 0.75909 0.03125 0.11036 0.0
N341 N 0.82834 0.07619 0.07594 0.0
C342 C 0.82615 0.08754 0.06654 0.0
C343 C 0.84283 0.10872 0.06414 0.0
C344 C 0.86166 0.11793 0.07133 0.0
C345 C 0.8636 0.10593 0.08092 0.0
C346 C 0.84654 0.08483 0.0828 0.0
H347 H 0.81175 0.08056 0.06096 0.0
O348 O 0.76935 0.06492 0.09349 0.0
O349 O 0.79234 0.05306 0.09134 0.0
O350 O 0.75786 0.03453 0.07352 0.0
O351 O 0.79038 0.04166 0.06641 0.0
C352 C 0.88165 0.11419 0.08879 0.0
C353 C 0.88226 0.10134 0.09844 0.0
H354 H 0.87739 0.07206 0.11618 0.0
H355 H 0.84541 0.03527 0.11822 0.0
H356 H 0.84118 0.11792 0.05676 0.0
H357 H 0.87448 0.13428 0.06947 0.0
H358 H 0.89502 0.1305 0.08761 0.0
H359 H 0.8961 0.10797 0.10452 0.0
Mn360 Mn 0.02419 0.75728 0.09379 0.0
Mn361 Mn 0.0142 0.79528 0.08238 0.0
C362 C 0.98925 0.75145 0.09387 0.0
C363 C 0.0344 0.74447 0.11067 0.0
C364 C 0.02211 0.76487 0.06644 0.0
O365 O 0.05423 0.78398 0.09259 0.0
O366 O 0.045 0.80879 0.08735 0.0
C367 C 0.02065 0.82089 0.10493 0.0
N368 N 0.0079 0.80925 0.09535 0.0
C369 C 0.97965 0.81614 0.10167 0.0
C370 C 0.99253 0.82834 0.11156 0.0
C371 C 0.01308 0.83063 0.11323 0.0
C372 C 0.988 0.80669 0.09376 0.0
H373 H 0.03648 0.82273 0.10622 0.0
C374 C 0.05896 0.80347 0.09058 0.0
O375 O 0.03634 0.7389 0.0996 0.0
O376 O 0.02691 0.75754 0.11186 0.0
N377 N 0.98494 0.78461 0.07729 0.0
C378 C 0.97422 0.7717 0.06755 0.0
C379 C 0.95323 0.76739 0.06478 0.0
C380 C 0.94361 0.77665 0.07192 0.0
C381 C 0.95508 0.79015 0.08177 0.0
C382 C 0.97591 0.7938 0.08412 0.0
H383 H 0.98159 0.76469 0.06195 0.0
O384 O 0.99267 0.73535 0.09504 0.0
O385 O 0.00635 0.77046 0.093 0.0
O386 O 0.02328 0.75333 0.07505 0.0
O387 O 0.01985 0.78129 0.06839 0.0
C388 C 0.94662 0.80005 0.08939 0.0
C389 C 0.95881 0.81289 0.09939 0.0
H390 H 0.98676 0.83592 0.11796 0.0
H391 H 0.02308 0.83993 0.12087 0.0
H392 H 0.94451 0.75699 0.05714 0.0
H393 H 0.92739 0.77325 0.06978 0.0
H394 H 0.93061 0.79763 0.08773 0.0
H395 H 0.95195 0.8201 0.1053 0.0
Mn396 Mn 0.29911 0.29619 0.09157 0.0
Mn397 Mn 0.26372 0.2513 0.07621 0.0
C398 C 0.3058 0.26782 0.08944 0.0
C399 C 0.30926 0.31512 0.11009 0.0
C400 C 0.2951 0.29363 0.06376 0.0
O401 O 0.27206 0.299 0.09039 0.0
O402 O 0.24875 0.26653 0.08224 0.0
C403 C 0.23522 0.22604 0.09678 0.0
N404 N 0.24854 0.22783 0.08736 0.0
C405 C 0.24213 0.19184 0.09089 0.0
C406 C 0.22826 0.18957 0.1006 0.0
C407 C 0.22488 0.20678 0.10358 0.0
C408 C 0.25212 0.21147 0.08451 0.0
H409 H 0.23251 0.23922 0.09905 0.0
C410 C 0.25316 0.2848 0.08683 0.0
O411 O 0.31572 0.32515 0.09965 0.0
O412 O 0.2967 0.29434 0.10968 0.0
N413 N 0.27602 0.23487 0.06983 0.0
C414 C 0.29037 0.23992 0.06045 0.0
C415 C 0.29587 0.22459 0.05648 0.0
C416 C 0.28632 0.20413 0.06206 0.0
C417 C 0.27134 0.19919 0.07157 0.0
C418 C 0.26654 0.21514 0.07516 0.0
H419 H 0.29759 0.25554 0.05604 0.0
O420 O 0.3214 0.28698 0.09222 0.0
O421 O 0.2868 0.26583 0.08827 0.0
O422 O 0.30557 0.30393 0.0733 0.0
O423 O 0.27887 0.27446 0.06398 0.0
C424 C 0.26106 0.1791 0.07765 0.0
C425 C 0.24654 0.17546 0.08735 0.0
H426 H 0.22021 0.17472 0.10585 0.0
H427 H 0.21425 0.20517 0.11108 0.0
H428 H 0.3074 0.2285 0.04912 0.0
H429 H 0.29064 0.19235 0.059 0.0
H430 H 0.26441 0.16643 0.07506 0.0
H431 H 0.23898 0.16006 0.09208 0.0
Mn432 Mn 0.68946 0.63085 0.42392 0.0
Mn433 Mn 0.68098 0.58565 0.4094 0.0
C434 C 0.65449 0.60294 0.42086 0.0
C435 C 0.69684 0.6497 0.44242 0.0
C436 C 0.69427 0.62825 0.39643 0.0
O437 O 0.71908 0.63309 0.42399 0.0
O438 O 0.71009 0.59989 0.41708 0.0
C439 C 0.67983 0.5594 0.4307 0.0
N440 N 0.67017 0.56182 0.42053 0.0
C441 C 0.63892 0.52657 0.42333 0.0
C442 C 0.64861 0.52364 0.43378 0.0
C443 C 0.66913 0.54015 0.4375 0.0
C444 C 0.65039 0.54608 0.41691 0.0
H445 H 0.69557 0.57209 0.43361 0.0
C446 C 0.72363 0.61828 0.4217 0.0
O447 O 0.7015 0.65984 0.43197 0.0
O448 O 0.68823 0.62889 0.44203 0.0
N449 N 0.65324 0.57017 0.40166 0.0
C450 C 0.64568 0.57598 0.39174 0.0
C451 C 0.62514 0.56144 0.38701 0.0
C452 C 0.61265 0.54104 0.39247 0.0
C453 C 0.62082 0.53535 0.40262 0.0
C454 C 0.64147 0.55045 0.40686 0.0
H455 H 0.65522 0.59158 0.38746 0.0
O456 O 0.65811 0.62222 0.4234 0.0
O457 O 0.67136 0.60059 0.42051 0.0
O458 O 0.69263 0.63847 0.4056 0.0
O459 O 0.69157 0.60917 0.39713 0.0
C460 C 0.60915 0.51544 0.40879 0.0
C461 C 0.61816 0.51107 0.41916 0.0
H462 H 0.64037 0.50885 0.43908 0.0
H463 H 0.67666 0.53806 0.44559 0.0
H464 H 0.61893 0.56595 0.37919 0.0
H465 H 0.59677 0.52991 0.38884 0.0
H466 H 0.59309 0.5035 0.40576 0.0
H467 H 0.60889 0.49584 0.42395 0.0
Mn468 Mn 0.42533 0.0896 0.42652 0.0
Mn469 Mn 0.47111 0.12619 0.41241 0.0
C470 C 0.45365 0.08285 0.42426 0.0
C471 C 0.40558 0.07778 0.44474 0.0
C472 C 0.42923 0.09649 0.39894 0.0
O473 O 0.42294 0.11697 0.42622 0.0
O474 O 0.45628 0.14097 0.41936 0.0
C475 C 0.4961 0.152 0.43386 0.0
N476 N 0.49429 0.13965 0.42393 0.0
C477 C 0.52975 0.14458 0.42741 0.0
C478 C 0.53205 0.15748 0.43763 0.0
C479 C 0.51511 0.16112 0.4409 0.0
C480 C 0.51038 0.13583 0.42079 0.0
H481 H 0.48312 0.15486 0.43638 0.0
C482 C 0.43782 0.13627 0.4238 0.0
O483 O 0.39598 0.07235 0.43413 0.0
O484 O 0.42637 0.09032 0.44467 0.0
N485 N 0.48717 0.11396 0.4054 0.0
C486 C 0.48203 0.10043 0.39559 0.0
C487 C 0.49703 0.09466 0.39135 0.0
C488 C 0.51723 0.10307 0.39713 0.0
C489 C 0.52226 0.11717 0.4071 0.0
C490 C 0.50666 0.12232 0.41093 0.0
H491 H 0.46661 0.09405 0.39104 0.0
O492 O 0.43431 0.06708 0.42651 0.0
O493 O 0.45577 0.10195 0.42365 0.0
O494 O 0.41854 0.08493 0.4081 0.0
O495 O 0.4483 0.11283 0.39976 0.0
C496 C 0.54208 0.12621 0.41345 0.0
C497 C 0.54581 0.13989 0.4236 0.0
H498 H 0.5467 0.16456 0.44307 0.0
H499 H 0.51673 0.17097 0.44881 0.0
H500 H 0.49304 0.08379 0.38364 0.0
H501 H 0.52873 0.09853 0.39386 0.0
H502 H 0.55446 0.12254 0.4107 0.0
H503 H 0.561 0.14651 0.42851 0.0
Mn504 Mn 0.96647 0.36392 0.42477 0.0
Mn505 Mn 0.9286 0.37102 0.4106 0.0
C506 C 0.9719 0.3985 0.4223 0.0
C507 C 0.97871 0.35651 0.44296 0.0
C508 C 0.95928 0.36005 0.39727 0.0
O509 O 0.93984 0.33364 0.42452 0.0
O510 O 0.91478 0.34165 0.41786 0.0
C511 C 0.9026 0.36989 0.43202 0.0
N512 N 0.9146 0.38036 0.42197 0.0
C513 C 0.90812 0.41001 0.42497 0.0
C514 C 0.89555 0.39947 0.4353 0.0
C515 C 0.89288 0.37937 0.43888 0.0
C516 C 0.91751 0.39983 0.41854 0.0
H517 H 0.90048 0.35442 0.43478 0.0
C518 C 0.92028 0.32845 0.42225 0.0
O519 O 0.98445 0.3527 0.43236 0.0
O520 O 0.96577 0.36428 0.44292 0.0
N521 N 0.93982 0.39897 0.40327 0.0
C522 C 0.95323 0.40746 0.39342 0.0
C523 C 0.95813 0.42783 0.38891 0.0
C524 C 0.94899 0.43914 0.39446 0.0
C525 C 0.93503 0.42997 0.40449 0.0
C526 C 0.93078 0.40964 0.4086 0.0
H527 H 0.96015 0.39878 0.38904 0.0
O528 O 0.98813 0.39569 0.42465 0.0
O529 O 0.9531 0.38108 0.42178 0.0
O530 O 0.97126 0.36185 0.4064 0.0
O531 O 0.94241 0.36188 0.39808 0.0
C532 C 0.92528 0.44026 0.41061 0.0
C533 C 0.91187 0.4303 0.42086 0.0
H534 H 0.888 0.40673 0.44061 0.0
H535 H 0.88329 0.37119 0.44688 0.0
H536 H 0.9689 0.43479 0.38115 0.0
H537 H 0.95286 0.45488 0.39098 0.0
H538 H 0.92823 0.45597 0.40763 0.0
H539 H 0.90473 0.43853 0.42561 0.0
Mn540 Mn 0.96526 0.35644 0.24291 0.0
Mn541 Mn 0.9188 0.34743 0.25603 0.0
C542 C 0.93679 0.32141 0.24466 0.0
C543 C 0.98643 0.36526 0.22529 0.0
C544 C 0.95981 0.35902 0.2703 0.0
O545 O 0.96797 0.38627 0.24335 0.0
O546 O 0.93412 0.37709 0.24908 0.0
C547 C 0.89493 0.34834 0.23405 0.0
N548 N 0.89614 0.3378 0.24416 0.0
C549 C 0.86091 0.30724 0.24018 0.0
C550 C 0.85922 0.31783 0.22976 0.0
C551 C 0.87633 0.33843 0.22667 0.0
C552 C 0.87982 0.31793 0.24719 0.0
H553 H 0.90808 0.36415 0.23163 0.0
C554 C 0.95306 0.39085 0.24521 0.0
O555 O 0.99511 0.36864 0.23613 0.0
O556 O 0.96566 0.35707 0.22473 0.0
N557 N 0.90225 0.31917 0.26304 0.0
C558 C 0.90687 0.31072 0.27302 0.0
C559 C 0.8916 0.28998 0.27718 0.0
C560 C 0.87168 0.27824 0.2711 0.0
C561 C 0.86722 0.28732 0.26091 0.0
C562 C 0.88299 0.30812 0.25724 0.0
H563 H 0.92208 0.31969 0.27778 0.0
O564 O 0.95622 0.325 0.2427 0.0
O565 O 0.93459 0.33838 0.24516 0.0
O566 O 0.97077 0.3578 0.26141 0.0
O567 O 0.94099 0.35679 0.26906 0.0
C568 C 0.84787 0.27643 0.25413 0.0
C569 C 0.84474 0.28635 0.24375 0.0
H570 H 0.84494 0.31021 0.22402 0.0
H571 H 0.87519 0.34665 0.21861 0.0
H572 H 0.89517 0.28308 0.28505 0.0
H573 H 0.85998 0.26223 0.27431 0.0
H574 H 0.83544 0.26029 0.25671 0.0
H575 H 0.82994 0.27767 0.2385 0.0
Mn576 Mn 0.69801 0.63228 0.24225 0.0
Mn577 Mn 0.70605 0.59529 0.25677 0.0
C578 C 0.73277 0.63801 0.24433 0.0
C579 C 0.68969 0.64367 0.22405 0.0
C580 C 0.69533 0.62638 0.26985 0.0
O581 O 0.66779 0.60551 0.24305 0.0
O582 O 0.67648 0.581 0.24981 0.0
C583 C 0.70445 0.56846 0.23568 0.0
N584 N 0.71518 0.58093 0.24554 0.0
C585 C 0.74486 0.5745 0.24252 0.0
C586 C 0.73406 0.56145 0.23239 0.0
C587 C 0.71381 0.55851 0.22892 0.0
C588 C 0.73479 0.58412 0.24885 0.0
H589 H 0.68886 0.56612 0.23301 0.0
C590 C 0.66295 0.58608 0.24547 0.0
O591 O 0.68655 0.65002 0.23462 0.0
O592 O 0.69734 0.63061 0.22408 0.0
N593 N 0.73426 0.60704 0.26384 0.0
C594 C 0.74298 0.62087 0.2735 0.0
C595 C 0.7635 0.62605 0.27789 0.0
C596 C 0.77472 0.61675 0.27242 0.0
C597 C 0.76532 0.60235 0.2626 0.0
C598 C 0.74485 0.59785 0.25859 0.0
H599 H 0.73436 0.62791 0.27783 0.0
O600 O 0.72974 0.65405 0.24181 0.0
O601 O 0.71546 0.6192 0.24522 0.0
O602 O 0.6968 0.63799 0.26059 0.0
O603 O 0.69715 0.6095 0.26919 0.0
C604 C 0.7755 0.59239 0.25657 0.0
C605 C 0.7653 0.57852 0.24652 0.0
H606 H 0.74121 0.55372 0.22716 0.0
H607 H 0.70542 0.54854 0.22107 0.0
H608 H 0.77063 0.63715 0.28549 0.0
H609 H 0.79057 0.62082 0.27581 0.0
H610 H 0.79131 0.59553 0.25948 0.0
H611 H 0.77344 0.57122 0.24185 0.0
Mn612 Mn 0.42206 0.09232 0.24442 0.0
Mn613 Mn 0.45744 0.13826 0.25888 0.0
C614 C 0.41396 0.11963 0.24688 0.0
C615 C 0.41132 0.07308 0.22601 0.0
C616 C 0.42868 0.0957 0.272 0.0
O617 O 0.44998 0.09105 0.24479 0.0
O618 O 0.47324 0.12457 0.25172 0.0
C619 C 0.4829 0.16449 0.23765 0.0
N620 N 0.47031 0.1619 0.2476 0.0
C621 C 0.47333 0.19663 0.24429 0.0
C622 C 0.48646 0.19973 0.23406 0.0
C623 C 0.49121 0.18356 0.23071 0.0
C624 C 0.46556 0.17731 0.25088 0.0
H625 H 0.48653 0.15207 0.23503 0.0
C626 C 0.46909 0.1063 0.24723 0.0
O627 O 0.40586 0.06311 0.23651 0.0
O628 O 0.42319 0.09394 0.2263 0.0
N629 N 0.44419 0.15322 0.26609 0.0
C630 C 0.43036 0.14722 0.2758 0.0
C631 C 0.42355 0.16138 0.28013 0.0
C632 C 0.43115 0.18159 0.27449 0.0
C633 C 0.44548 0.18747 0.26457 0.0
C634 C 0.45183 0.17277 0.26072 0.0
H635 H 0.42453 0.13176 0.28021 0.0
O636 O 0.39872 0.1001 0.24445 0.0
O637 O 0.43338 0.12254 0.24754 0.0
O638 O 0.41727 0.08503 0.26279 0.0
O639 O 0.44467 0.11499 0.2713 0.0
C640 C 0.45344 0.2072 0.25822 0.0
C641 C 0.46731 0.21176 0.24807 0.0
H642 H 0.49282 0.21437 0.22864 0.0
H643 H 0.50123 0.18579 0.22278 0.0
H644 H 0.41247 0.15671 0.28778 0.0
H645 H 0.42577 0.19241 0.27781 0.0
H646 H 0.44873 0.21885 0.26096 0.0
H647 H 0.47305 0.22683 0.24315 0.0
Mn648 Mn 0.70186 0.09474 0.24199 0.0
Mn649 Mn 0.71227 0.1416 0.25518 0.0
C650 C 0.73728 0.12244 0.24395 0.0
C651 C 0.69268 0.07397 0.22419 0.0
C652 C 0.69868 0.09996 0.26934 0.0
O653 O 0.67251 0.09319 0.24228 0.0
O654 O 0.68282 0.12734 0.24798 0.0
C655 C 0.71302 0.16643 0.23327 0.0
N656 N 0.72298 0.16455 0.24346 0.0
C657 C 0.75433 0.19945 0.23993 0.0
C658 C 0.74436 0.20182 0.22943 0.0
C659 C 0.72365 0.18521 0.22607 0.0
C660 C 0.74295 0.18037 0.24674 0.0
H661 H 0.6971 0.15369 0.23067 0.0
C662 C 0.66861 0.10859 0.24409 0.0
O663 O 0.68891 0.06494 0.23495 0.0
O664 O 0.70156 0.09482 0.22382 0.0
N665 N 0.74039 0.15716 0.26246 0.0
C666 C 0.74816 0.15189 0.27251 0.0
C667 C 0.76886 0.16662 0.27695 0.0
C668 C 0.78128 0.18666 0.2711 0.0
C669 C 0.77291 0.19177 0.26082 0.0
C670 C 0.75211 0.17652 0.25686 0.0
H671 H 0.73864 0.1366 0.27711 0.0
O672 O 0.73309 0.10282 0.24196 0.0
O673 O 0.72069 0.12525 0.2444 0.0
O674 O 0.69978 0.0888 0.26052 0.0
O675 O 0.70179 0.11911 0.26804 0.0
C676 C 0.78449 0.21129 0.25426 0.0
C677 C 0.77525 0.21509 0.24379 0.0
H678 H 0.75252 0.21625 0.22384 0.0
H679 H 0.71589 0.18689 0.21795 0.0
H680 H 0.77522 0.16255 0.28489 0.0
H681 H 0.79724 0.19796 0.27456 0.0
H682 H 0.80065 0.22333 0.25707 0.0
H683 H 0.78445 0.23001 0.23871 0.0
Mn684 Mn 0.96303 0.63366 0.24372 0.0
Mn685 Mn 0.91752 0.59535 0.25725 0.0
C686 C 0.93358 0.63874 0.24564 0.0
C687 C 0.98367 0.64649 0.22589 0.0
C688 C 0.95848 0.62602 0.27119 0.0
O689 O 0.96689 0.60715 0.24409 0.0
O690 O 0.93355 0.58186 0.25025 0.0
C691 C 0.89365 0.56958 0.23554 0.0
N692 N 0.89468 0.58139 0.24558 0.0
C693 C 0.85854 0.57459 0.24211 0.0
C694 C 0.85703 0.56221 0.23178 0.0
C695 C 0.8747 0.55979 0.22845 0.0
C696 C 0.87788 0.58406 0.24877 0.0
H697 H 0.90719 0.56765 0.23298 0.0
C698 C 0.95245 0.58751 0.24613 0.0
O699 O 0.99256 0.65212 0.23667 0.0
O700 O 0.963 0.63328 0.22552 0.0
N701 N 0.90035 0.6063 0.2643 0.0
C702 C 0.9048 0.61959 0.27416 0.0
C703 C 0.88904 0.62426 0.27844 0.0
C704 C 0.86879 0.61501 0.27264 0.0
C705 C 0.86449 0.60117 0.2626 0.0
C706 C 0.88084 0.59716 0.25873 0.0
H707 H 0.92025 0.62659 0.27874 0.0
O708 O 0.95267 0.65511 0.24358 0.0
O709 O 0.93233 0.62001 0.2462 0.0
O710 O 0.96899 0.63821 0.26219 0.0
O711 O 0.93991 0.60906 0.27011 0.0
C712 C 0.84467 0.59132 0.25623 0.0
C713 C 0.84172 0.57808 0.24598 0.0
H714 H 0.84243 0.55462 0.22629 0.0
H715 H 0.8737 0.55036 0.22045 0.0
H716 H 0.89248 0.63493 0.2862 0.0
H717 H 0.85669 0.61869 0.27594 0.0
H718 H 0.8317 0.59408 0.25904 0.0
H719 H 0.82652 0.57087 0.24104 0.0
Mn720 Mn 0.41984 0.35298 0.24235 0.0
Mn721 Mn 0.45722 0.3428 0.25462 0.0
C722 C 0.41266 0.31769 0.24388 0.0
C723 C 0.40713 0.36179 0.22479 0.0
C724 C 0.42807 0.35358 0.26984 0.0
O725 O 0.4471 0.38258 0.2425 0.0
O726 O 0.47132 0.37316 0.24869 0.0
C727 C 0.48183 0.34631 0.23207 0.0
N728 N 0.47045 0.33475 0.24204 0.0
C729 C 0.47616 0.30527 0.23676 0.0
C730 C 0.48808 0.31693 0.22647 0.0
C731 C 0.49086 0.33751 0.2241 0.0
C732 C 0.46753 0.31487 0.24435 0.0
H733 H 0.48398 0.36213 0.23021 0.0
C734 C 0.46643 0.38708 0.24475 0.0
O735 O 0.40234 0.3656 0.23567 0.0
O736 O 0.41938 0.35325 0.22423 0.0
N737 N 0.4462 0.31401 0.26071 0.0
C738 C 0.43351 0.30449 0.27072 0.0
C739 C 0.42902 0.28377 0.27431 0.0
C740 C 0.43775 0.27311 0.26764 0.0
C741 C 0.45081 0.28323 0.2574 0.0
C742 C 0.45491 0.30399 0.25434 0.0
H743 H 0.42682 0.31261 0.27592 0.0
O744 O 0.39702 0.32171 0.24235 0.0
O745 O 0.43205 0.33438 0.24413 0.0
O746 O 0.41674 0.35462 0.26105 0.0
O747 O 0.4439 0.35024 0.2682 0.0
C748 C 0.45968 0.27341 0.25002 0.0
C749 C 0.47226 0.28439 0.23967 0.0
H750 H 0.49505 0.31019 0.22029 0.0
H751 H 0.49995 0.34656 0.21615 0.0
H752 H 0.41887 0.27603 0.2822 0.0
H753 H 0.43424 0.25712 0.27043 0.0
H754 H 0.45666 0.25731 0.25211 0.0
H755 H 0.47874 0.27656 0.23397 0.0
Mn756 Mn 0.42676 0.36905 0.42404 0.0
Mn757 Mn 0.47258 0.37777 0.41018 0.0
C758 C 0.45462 0.40409 0.42103 0.0
C759 C 0.40725 0.36181 0.44228 0.0
C760 C 0.4303 0.3639 0.39667 0.0
O761 O 0.42478 0.33953 0.42446 0.0
O762 O 0.45823 0.3487 0.41793 0.0
C763 C 0.49822 0.37924 0.43187 0.0
N764 N 0.49605 0.38878 0.42157 0.0
C765 C 0.53124 0.42006 0.42448 0.0
C766 C 0.5339 0.41051 0.43508 0.0
C767 C 0.51729 0.39005 0.43881 0.0
C768 C 0.51189 0.40851 0.41793 0.0
H769 H 0.48546 0.36353 0.43476 0.0
C770 C 0.43973 0.33509 0.4224 0.0
O771 O 0.39748 0.35693 0.43172 0.0
O772 O 0.4281 0.37056 0.44216 0.0
N773 N 0.48819 0.40545 0.40239 0.0
C774 C 0.48264 0.41286 0.3923 0.0
C775 C 0.49731 0.43332 0.38753 0.0
C776 C 0.51758 0.44587 0.39311 0.0
C777 C 0.523 0.43786 0.40344 0.0
C778 C 0.50778 0.41728 0.40773 0.0
H779 H 0.46714 0.40325 0.38791 0.0
O780 O 0.43521 0.40036 0.42325 0.0
O781 O 0.45712 0.38731 0.42093 0.0
O782 O 0.41966 0.36547 0.40564 0.0
O783 O 0.44948 0.36696 0.39767 0.0
C784 C 0.54277 0.4496 0.40975 0.0
C785 C 0.54686 0.44074 0.42028 0.0
H786 H 0.54856 0.41882 0.44049 0.0
H787 H 0.51919 0.38262 0.44701 0.0
H788 H 0.49301 0.4394 0.37956 0.0
H789 H 0.52882 0.46167 0.38943 0.0
H790 H 0.55481 0.4656 0.40668 0.0
H791 H 0.56198 0.45007 0.42516 0.0
Mn792 Mn 0.68721 0.08638 0.42416 0.0
Mn793 Mn 0.67831 0.12524 0.41289 0.0
C794 C 0.65242 0.08104 0.42375 0.0
C795 C 0.69633 0.07243 0.44099 0.0
C796 C 0.6864 0.0951 0.39684 0.0
O797 O 0.71744 0.11287 0.42359 0.0
O798 O 0.70889 0.13809 0.41818 0.0
C799 C 0.68448 0.15024 0.43567 0.0
N800 N 0.67198 0.13912 0.4259 0.0
C801 C 0.6443 0.14715 0.43181 0.0
C802 C 0.65695 0.15882 0.4419 0.0
C803 C 0.67707 0.16026 0.44387 0.0
C804 C 0.65244 0.13733 0.42403 0.0
H805 H 0.7 0.15147 0.43718 0.0
C806 C 0.72251 0.13246 0.42163 0.0
O807 O 0.69881 0.06749 0.42986 0.0
O808 O 0.68891 0.08555 0.44226 0.0
N809 N 0.64932 0.11531 0.40752 0.0
C810 C 0.63869 0.10268 0.39767 0.0
C811 C 0.61808 0.09918 0.3946 0.0
C812 C 0.60876 0.10895 0.40156 0.0
C813 C 0.62011 0.1221 0.41155 0.0
C814 C 0.64053 0.1249 0.41422 0.0
H815 H 0.6458 0.09523 0.39224 0.0
O816 O 0.65552 0.06471 0.42479 0.0
O817 O 0.66971 0.09996 0.42328 0.0
O818 O 0.68733 0.08333 0.40539 0.0
O819 O 0.68404 0.11144 0.39885 0.0
C820 C 0.61193 0.13247 0.419 0.0
C821 C 0.62392 0.14482 0.42919 0.0
H822 H 0.65133 0.16666 0.44821 0.0
H823 H 0.68688 0.16917 0.45166 0.0
H824 H 0.60943 0.089 0.38687 0.0
H825 H 0.59285 0.10619 0.39918 0.0
H826 H 0.59626 0.13076 0.41709 0.0
H827 H 0.61726 0.15237 0.43499 0.0
Mn828 Mn 0.96651 0.62822 0.4257 0.0
Mn829 Mn 0.92873 0.58336 0.41137 0.0
C830 C 0.97213 0.59924 0.4229 0.0
C831 C 0.97895 0.64754 0.44402 0.0
C832 C 0.95908 0.62535 0.39819 0.0
O833 O 0.9397 0.63158 0.42577 0.0
O834 O 0.91483 0.59864 0.41884 0.0
C835 C 0.90289 0.55802 0.43272 0.0
N836 N 0.91488 0.5598 0.42262 0.0
C837 C 0.90847 0.52363 0.4253 0.0
C838 C 0.89592 0.52133 0.43568 0.0
C839 C 0.89322 0.53865 0.43944 0.0
C840 C 0.91784 0.54336 0.41902 0.0
H841 H 0.90073 0.57127 0.43561 0.0
C842 C 0.92018 0.61715 0.42345 0.0
O843 O 0.98444 0.6573 0.43346 0.0
O844 O 0.96609 0.6268 0.44386 0.0
N845 N 0.94005 0.56689 0.40383 0.0
C846 C 0.95345 0.57207 0.39396 0.0
C847 C 0.9584 0.55674 0.38928 0.0
C848 C 0.9493 0.53616 0.39468 0.0
C849 C 0.93536 0.53112 0.40473 0.0
C850 C 0.93108 0.54707 0.40903 0.0
H851 H 0.96032 0.58777 0.38969 0.0
O852 O 0.98832 0.6183 0.42527 0.0
O853 O 0.95328 0.59775 0.42251 0.0
O854 O 0.97105 0.63548 0.40734 0.0
O855 O 0.94236 0.60653 0.39895 0.0
C856 C 0.92564 0.51093 0.41071 0.0
C857 C 0.91223 0.5072 0.42099 0.0
H858 H 0.8884 0.50641 0.44088 0.0
H859 H 0.88364 0.53704 0.44748 0.0
H860 H 0.96915 0.56075 0.3815 0.0
H861 H 0.95319 0.52439 0.39106 0.0
H862 H 0.9286 0.49825 0.40758 0.0
H863 H 0.9051 0.49171 0.42562 0.0
Mn864 Mn 0.355 0.96434 0.75719 0.0
Mn865 Mn 0.34782 0.9202 0.7419 0.0
C866 C 0.3205 0.93518 0.7546 0.0
C867 C 0.3625 0.98282 0.77584 0.0
C868 C 0.35798 0.96232 0.72943 0.0
O869 O 0.38534 0.96831 0.75649 0.0
O870 O 0.3778 0.9363 0.74832 0.0
C871 C 0.35128 0.89537 0.76263 0.0
N872 N 0.33985 0.89675 0.75303 0.0
C873 C 0.31101 0.86027 0.75624 0.0
C874 C 0.32251 0.8584 0.76614 0.0
C875 C 0.34269 0.87606 0.76938 0.0
C876 C 0.32032 0.87996 0.74992 0.0
H877 H 0.36684 0.9089 0.7651 0.0
C878 C 0.39094 0.95475 0.75302 0.0
O879 O 0.36615 0.99304 0.76546 0.0
O880 O 0.35482 0.96213 0.7753 0.0
N881 N 0.31948 0.90303 0.73515 0.0
C882 C 0.31017 0.90773 0.72561 0.0
C883 C 0.28971 0.89192 0.72139 0.0
C884 C 0.27919 0.87137 0.72687 0.0
C885 C 0.28924 0.86681 0.73654 0.0
C886 C 0.3096 0.88322 0.74038 0.0
H887 H 0.31828 0.92342 0.72128 0.0
O888 O 0.32323 0.95405 0.75735 0.0
O889 O 0.33797 0.93395 0.75372 0.0
O890 O 0.35697 0.97234 0.7389 0.0
O891 O 0.35558 0.94336 0.72975 0.0
C892 C 0.2798 0.84667 0.74255 0.0
C893 C 0.29063 0.84343 0.75244 0.0
H894 H 0.31596 0.84352 0.77134 0.0
H895 H 0.35162 0.87477 0.77703 0.0
H896 H 0.28209 0.89555 0.7139 0.0
H897 H 0.26338 0.85924 0.72361 0.0
H898 H 0.26408 0.83365 0.73977 0.0
H899 H 0.28306 0.82797 0.75711 0.0
Mn900 Mn 0.09057 0.42225 0.75832 0.0
Mn901 Mn 0.13523 0.46094 0.74429 0.0
C902 C 0.12032 0.41777 0.75595 0.0
C903 C 0.07061 0.40923 0.77635 0.0
C904 C 0.09397 0.42957 0.73082 0.0
O905 O 0.08611 0.4484 0.75811 0.0
O906 O 0.11901 0.47404 0.75155 0.0
C907 C 0.15957 0.48712 0.76579 0.0
N908 N 0.15844 0.47536 0.7557 0.0
C909 C 0.19488 0.48279 0.75876 0.0
C910 C 0.19651 0.49513 0.76913 0.0
C911 C 0.17873 0.49721 0.77269 0.0
C912 C 0.17534 0.47302 0.75228 0.0
H913 H 0.14594 0.48876 0.76854 0.0
C914 C 0.10021 0.4681 0.75593 0.0
O915 O 0.06138 0.40343 0.76567 0.0
O916 O 0.09123 0.42276 0.77652 0.0
N917 N 0.15255 0.45041 0.73697 0.0
C918 C 0.14798 0.43707 0.72712 0.0
C919 C 0.16384 0.4327 0.72264 0.0
C920 C 0.1843 0.44231 0.72821 0.0
C921 C 0.18871 0.45619 0.73824 0.0
C922 C 0.17227 0.4599 0.74232 0.0
H923 H 0.13237 0.42978 0.72272 0.0
O924 O 0.10144 0.40122 0.75822 0.0
O925 O 0.12122 0.43636 0.75546 0.0
O926 O 0.08395 0.41746 0.73993 0.0
O927 O 0.11243 0.44675 0.73168 0.0
C928 C 0.20872 0.46635 0.7444 0.0
C929 C 0.21179 0.47958 0.75468 0.0
H930 H 0.21126 0.50295 0.77447 0.0
H931 H 0.17982 0.50661 0.78072 0.0
H932 H 0.16031 0.42199 0.71488 0.0
H933 H 0.19646 0.43885 0.72475 0.0
H934 H 0.22177 0.46382 0.74143 0.0
H935 H 0.22713 0.48701 0.75947 0.0
Mn936 Mn 0.632 0.7012 0.75877 0.0
Mn937 Mn 0.59391 0.70926 0.74556 0.0
C938 C 0.63697 0.7358 0.7576 0.0
C939 C 0.64447 0.69275 0.77656 0.0
C940 C 0.62586 0.70147 0.73109 0.0
O941 O 0.60583 0.67082 0.75794 0.0
O942 O 0.5809 0.67875 0.75103 0.0
C943 C 0.5666 0.7029 0.76734 0.0
N944 N 0.57855 0.7154 0.75776 0.0
C945 C 0.56954 0.7428 0.76265 0.0
C946 C 0.557 0.73015 0.77251 0.0
C947 C 0.55563 0.71017 0.77491 0.0
C948 C 0.58025 0.7348 0.75549 0.0
H949 H 0.56544 0.6875 0.76917 0.0
C950 C 0.58642 0.66541 0.75516 0.0
O951 O 0.65042 0.68991 0.76578 0.0
O952 O 0.6312 0.70011 0.7769 0.0
N953 N 0.604 0.73814 0.73991 0.0
C954 C 0.61764 0.74889 0.73044 0.0
C955 C 0.62126 0.76941 0.72707 0.0
C956 C 0.6106 0.77855 0.73334 0.0
C957 C 0.59646 0.7671 0.74297 0.0
C958 C 0.59357 0.74675 0.74596 0.0
H959 H 0.62583 0.74194 0.72555 0.0
O960 O 0.65333 0.73299 0.75942 0.0
O961 O 0.61822 0.71835 0.75678 0.0
O962 O 0.6368 0.70067 0.74016 0.0
O963 O 0.60929 0.70372 0.73231 0.0
C964 C 0.58524 0.77513 0.74977 0.0
C965 C 0.57194 0.76309 0.75968 0.0
H966 H 0.54846 0.73566 0.77835 0.0
H967 H 0.54606 0.70035 0.78254 0.0
H968 H 0.63222 0.77816 0.71963 0.0
H969 H 0.61347 0.79441 0.73073 0.0
H970 H 0.58701 0.79074 0.7476 0.0
H971 H 0.56374 0.76964 0.76499 0.0
Mn972 Mn 0.63038 0.68835 0.57744 0.0
Mn973 Mn 0.58508 0.68002 0.59173 0.0
C974 C 0.60195 0.65342 0.58019 0.0
C975 C 0.64951 0.69574 0.55904 0.0
C976 C 0.62743 0.69292 0.60492 0.0
O977 O 0.63292 0.71817 0.57741 0.0
O978 O 0.5997 0.70926 0.58427 0.0
C979 C 0.55924 0.6798 0.57045 0.0
N980 N 0.56145 0.66974 0.5805 0.0
C981 C 0.52561 0.63936 0.57787 0.0
C982 C 0.5229 0.64944 0.56754 0.0
C983 C 0.53983 0.6697 0.56377 0.0
C984 C 0.54537 0.65013 0.5841 0.0
H985 H 0.57219 0.69543 0.56758 0.0
C986 C 0.61814 0.72278 0.57971 0.0
O987 O 0.65947 0.70016 0.56954 0.0
O988 O 0.62871 0.68734 0.55932 0.0
N989 N 0.56927 0.65212 0.59924 0.0
C990 C 0.57485 0.64415 0.60907 0.0
C991 C 0.55996 0.62366 0.61372 0.0
C992 C 0.53941 0.61173 0.60834 0.0
C993 C 0.53395 0.62038 0.59834 0.0
C994 C 0.54949 0.64082 0.59406 0.0
H995 H 0.59054 0.65332 0.61332 0.0
O996 O 0.62119 0.65677 0.57784 0.0
O997 O 0.60002 0.67051 0.58062 0.0
O998 O 0.63781 0.69134 0.59581 0.0
O999 O 0.60834 0.69014 0.6041 0.0
C1000 C 0.51374 0.60948 0.5924 0.0
C1001 C 0.50957 0.61897 0.58218 0.0
H1002 H 0.50793 0.64172 0.56238 0.0
H1003 H 0.53789 0.67754 0.55578 0.0
H1004 H 0.56429 0.61712 0.62146 0.0
H1005 H 0.52798 0.59593 0.61195 0.0
H1006 H 0.50138 0.59366 0.59552 0.0
H1007 H 0.49406 0.61031 0.57761 0.0
Mn1008 Mn 0.37014 0.96518 0.57631 0.0
Mn1009 Mn 0.3834 0.93107 0.59013 0.0
C1010 C 0.40601 0.97399 0.57749 0.0
C1011 C 0.35985 0.97579 0.55846 0.0
C1012 C 0.37205 0.96088 0.60415 0.0
O1013 O 0.34122 0.93714 0.57731 0.0
O1014 O 0.35243 0.91538 0.58532 0.0
C1015 C 0.37807 0.9033 0.56874 0.0
N1016 N 0.39057 0.91638 0.57799 0.0
C1017 C 0.42006 0.91087 0.57244 0.0
C1018 C 0.40745 0.89722 0.56289 0.0
C1019 C 0.38639 0.89349 0.56101 0.0
C1020 C 0.41091 0.92022 0.57982 0.0
H1021 H 0.36187 0.90038 0.56726 0.0
C1022 C 0.33769 0.91864 0.58087 0.0
O1023 O 0.3561 0.98103 0.56922 0.0
O1024 O 0.36902 0.96408 0.55816 0.0
N1025 N 0.41292 0.94369 0.59524 0.0
C1026 C 0.4233 0.95798 0.60451 0.0
C1027 C 0.44455 0.9635 0.60757 0.0
C1028 C 0.45487 0.95418 0.60112 0.0
C1029 C 0.44389 0.93954 0.59161 0.0
C1030 C 0.42264 0.93446 0.58907 0.0
H1031 H 0.41548 0.9652 0.6095 0.0
O1032 O 0.40105 0.98889 0.57556 0.0
O1033 O 0.38989 0.95436 0.57847 0.0
O1034 O 0.36907 0.97005 0.59487 0.0
O1035 O 0.3769 0.94596 0.60325 0.0
C1036 C 0.45331 0.93001 0.58444 0.0
C1037 C 0.44144 0.91576 0.57482 0.0
H1038 H 0.41382 0.88964 0.5569 0.0
H1039 H 0.3766 0.88305 0.55363 0.0
H1040 H 0.45296 0.97491 0.61488 0.0
H1041 H 0.47125 0.95845 0.60351 0.0
H1042 H 0.46976 0.93377 0.58612 0.0
H1043 H 0.44895 0.90877 0.56927 0.0
Mn1044 Mn 0.08478 0.4228 0.57656 0.0
Mn1045 Mn 0.11886 0.46891 0.59135 0.0
C1046 C 0.07625 0.44992 0.57832 0.0
C1047 C 0.07516 0.40331 0.55825 0.0
C1048 C 0.08958 0.42634 0.60426 0.0
O1049 O 0.1128 0.42181 0.57776 0.0
O1050 O 0.13526 0.45523 0.58511 0.0
C1051 C 0.1459 0.49507 0.57054 0.0
N1052 N 0.13252 0.49248 0.58008 0.0
C1053 C 0.13586 0.52723 0.57632 0.0
C1054 C 0.14977 0.53033 0.56648 0.0
C1055 C 0.15475 0.51415 0.56356 0.0
C1056 C 0.12755 0.5079 0.58294 0.0
H1057 H 0.14975 0.48266 0.56827 0.0
C1058 C 0.1316 0.43698 0.58082 0.0
O1059 O 0.06925 0.3935 0.56878 0.0
O1060 O 0.08692 0.42419 0.55846 0.0
N1061 N 0.105 0.48381 0.59782 0.0
C1062 C 0.09046 0.47782 0.60717 0.0
C1063 C 0.08342 0.49201 0.61107 0.0
C1064 C 0.0915 0.51225 0.60538 0.0
C1065 C 0.10653 0.5181 0.59582 0.0
C1066 C 0.11307 0.50336 0.59239 0.0
H1067 H 0.08428 0.46234 0.61163 0.0
O1068 O 0.06128 0.43031 0.5758 0.0
O1069 O 0.09569 0.45302 0.5795 0.0
O1070 O 0.0789 0.41554 0.5949 0.0
O1071 O 0.10531 0.44577 0.60375 0.0
C1072 C 0.11502 0.53785 0.58945 0.0
C1073 C 0.12962 0.54239 0.57967 0.0
H1074 H 0.15658 0.54498 0.56105 0.0
H1075 H 0.1654 0.51639 0.55595 0.0
H1076 H 0.07179 0.48736 0.61845 0.0
H1077 H 0.08597 0.52312 0.60839 0.0
H1078 H 0.11015 0.5495 0.59188 0.0
H1079 H 0.13578 0.55749 0.57472 0.0
Mn1080 Mn 0.36576 0.4261 0.57683 0.0
Mn1081 Mn 0.3757 0.47102 0.59227 0.0
C1082 C 0.40099 0.45404 0.57926 0.0
C1083 C 0.35722 0.40744 0.55823 0.0
C1084 C 0.36341 0.42821 0.60458 0.0
O1085 O 0.33612 0.4239 0.57775 0.0
O1086 O 0.34579 0.45656 0.58579 0.0
C1087 C 0.37402 0.49723 0.57173 0.0
N1088 N 0.38497 0.49484 0.58126 0.0
C1089 C 0.41522 0.53063 0.57822 0.0
C1090 C 0.40423 0.53352 0.56839 0.0
C1091 C 0.38358 0.5167 0.5651 0.0
C1092 C 0.40495 0.51081 0.5844 0.0
H1093 H 0.35809 0.48437 0.56923 0.0
C1094 C 0.33177 0.43846 0.5811 0.0
O1095 O 0.3532 0.39723 0.56863 0.0
O1096 O 0.36572 0.42825 0.55872 0.0
N1097 N 0.40423 0.4867 0.59901 0.0
C1098 C 0.41291 0.48106 0.60846 0.0
C1099 C 0.43373 0.49593 0.6127 0.0
C1100 C 0.44525 0.51652 0.60732 0.0
C1101 C 0.43584 0.52206 0.59773 0.0
C1102 C 0.41509 0.50655 0.59386 0.0
H1103 H 0.40404 0.46535 0.61272 0.0
O1104 O 0.39718 0.43481 0.57644 0.0
O1105 O 0.38415 0.45632 0.58029 0.0
O1106 O 0.36382 0.41802 0.59505 0.0
O1107 O 0.36666 0.44749 0.60437 0.0
C1108 C 0.44627 0.54233 0.59184 0.0
C1109 C 0.43599 0.54659 0.58207 0.0
H1110 H 0.41153 0.54854 0.56329 0.0
H1111 H 0.37503 0.51878 0.55751 0.0
H1112 H 0.44084 0.49155 0.62013 0.0
H1113 H 0.46131 0.52793 0.61061 0.0
H1114 H 0.46232 0.55466 0.59466 0.0
H1115 H 0.4443 0.56214 0.57751 0.0
Mn1116 Mn 0.63343 0.96857 0.57536 0.0
Mn1117 Mn 0.58773 0.93337 0.59004 0.0
C1118 C 0.60577 0.97629 0.57737 0.0
C1119 C 0.65283 0.97857 0.55705 0.0
C1120 C 0.63033 0.96292 0.60295 0.0
O1121 O 0.63514 0.94091 0.57636 0.0
O1122 O 0.60148 0.91752 0.58305 0.0
C1123 C 0.56114 0.90701 0.56915 0.0
N1124 N 0.56386 0.91995 0.57895 0.0
C1125 C 0.52887 0.91639 0.57579 0.0
C1126 C 0.52564 0.90291 0.56571 0.0
C1127 C 0.54187 0.89825 0.56236 0.0
C1128 C 0.54839 0.9246 0.58223 0.0
H1129 H 0.57361 0.90343 0.56654 0.0
C1130 C 0.61994 0.92177 0.57879 0.0
O1131 O 0.66265 0.98486 0.56755 0.0
O1132 O 0.63199 0.96642 0.55723 0.0
N1133 N 0.57278 0.94674 0.59711 0.0
C1134 C 0.57895 0.96102 0.60661 0.0
C1135 C 0.56478 0.96785 0.61088 0.0
C1136 C 0.54438 0.95982 0.6054 0.0
C1137 C 0.53833 0.94505 0.5957 0.0
C1138 C 0.55307 0.93871 0.59189 0.0
H1139 H 0.59455 0.96719 0.6109 0.0
O1140 O 0.6252 0.99157 0.57478 0.0
O1141 O 0.60312 0.95701 0.57839 0.0
O1142 O 0.6407 0.97433 0.59368 0.0
O1143 O 0.61119 0.94663 0.60233 0.0
C1144 C 0.51841 0.93664 0.58951 0.0
C1145 C 0.5137 0.92236 0.57955 0.0
H1146 H 0.51084 0.8962 0.56042 0.0
H1147 H 0.53953 0.88795 0.55456 0.0
H1148 H 0.56958 0.97928 0.61836 0.0
H1149 H 0.53355 0.96522 0.60867 0.0
H1150 H 0.50676 0.94134 0.59223 0.0
H1151 H 0.49847 0.91629 0.57475 0.0
Mn1152 Mn 0.09066 0.68634 0.57567 0.0
Mn1153 Mn 0.12473 0.67231 0.58878 0.0
C1154 C 0.08138 0.65035 0.57651 0.0
C1155 C 0.08006 0.69711 0.558 0.0
C1156 C 0.0954 0.68356 0.60341 0.0
O1157 O 0.11884 0.71509 0.57673 0.0
O1158 O 0.14052 0.70342 0.58425 0.0
C1159 C 0.15191 0.67803 0.56704 0.0
N1160 N 0.13902 0.66534 0.5763 0.0
C1161 C 0.14415 0.63585 0.57017 0.0
C1162 C 0.1576 0.64866 0.56061 0.0
C1163 C 0.16144 0.66982 0.55902 0.0
C1164 C 0.13508 0.64491 0.57786 0.0
H1165 H 0.1549 0.6943 0.56579 0.0
C1166 C 0.13735 0.71838 0.58009 0.0
O1167 O 0.07493 0.70073 0.56883 0.0
O1168 O 0.09164 0.68783 0.55755 0.0
N1169 N 0.11208 0.64265 0.59362 0.0
C1170 C 0.09804 0.63211 0.60297 0.0
C1171 C 0.09245 0.61073 0.60576 0.0
C1172 C 0.10147 0.60047 0.59897 0.0
C1173 C 0.11591 0.61164 0.58941 0.0
C1174 C 0.12106 0.633 0.58714 0.0
H1175 H 0.09107 0.63989 0.60823 0.0
O1176 O 0.06667 0.65563 0.5748 0.0
O1177 O 0.10116 0.66624 0.57742 0.0
O1178 O 0.08614 0.68697 0.59433 0.0
O1179 O 0.1102 0.67858 0.6022 0.0
C1180 C 0.12514 0.60232 0.58192 0.0
C1181 C 0.13918 0.61438 0.57228 0.0
H1182 H 0.16496 0.64238 0.5544 0.0
H1183 H 0.17173 0.67977 0.55164 0.0
H1184 H 0.08121 0.60218 0.61312 0.0
H1185 H 0.09711 0.58399 0.60114 0.0
H1186 H 0.12132 0.58579 0.58339 0.0
H1187 H 0.14595 0.60694 0.56649 0.0
Mn1188 Mn 0.09026 0.70012 0.7571 0.0
Mn1189 Mn 0.13485 0.70595 0.74311 0.0
C1190 C 0.11967 0.73441 0.75415 0.0
C1191 C 0.07114 0.69381 0.77543 0.0
C1192 C 0.09303 0.69452 0.72973 0.0
O1193 O 0.08625 0.66971 0.75741 0.0
O1194 O 0.11919 0.67701 0.75091 0.0
C1195 C 0.16003 0.70576 0.76462 0.0
N1196 N 0.1584 0.71574 0.75437 0.0
C1197 C 0.19475 0.74527 0.75686 0.0
C1198 C 0.1969 0.73524 0.7674 0.0
C1199 C 0.17942 0.71545 0.77133 0.0
C1200 C 0.17501 0.7349 0.75059 0.0
H1201 H 0.14664 0.69052 0.76764 0.0
C1202 C 0.10045 0.66419 0.7554 0.0
O1203 O 0.06128 0.68959 0.76491 0.0
O1204 O 0.09183 0.70144 0.77522 0.0
N1205 N 0.15161 0.73345 0.73529 0.0
C1206 C 0.14653 0.74154 0.72531 0.0
C1207 C 0.16201 0.76164 0.72049 0.0
C1208 C 0.18261 0.77307 0.72585 0.0
C1209 C 0.18754 0.76431 0.73602 0.0
C1210 C 0.17145 0.74425 0.74046 0.0
H1211 H 0.1308 0.73276 0.72108 0.0
O1212 O 0.10074 0.73196 0.75642 0.0
O1213 O 0.12075 0.71683 0.75395 0.0
O1214 O 0.08301 0.69705 0.73871 0.0
O1215 O 0.11168 0.69627 0.7307 0.0
C1216 C 0.20774 0.77476 0.74199 0.0
C1217 C 0.21134 0.76525 0.75241 0.0
H1218 H 0.21183 0.74265 0.77259 0.0
H1219 H 0.18091 0.70766 0.77948 0.0
H1220 H 0.15808 0.76828 0.71263 0.0
H1221 H 0.19449 0.78859 0.72212 0.0
H1222 H 0.22053 0.79027 0.73875 0.0
H1223 H 0.22683 0.77361 0.75703 0.0
Mn1224 Mn 0.35502 0.42159 0.75785 0.0
Mn1225 Mn 0.34844 0.45937 0.74318 0.0
C1226 C 0.32066 0.41685 0.75561 0.0
C1227 C 0.3627 0.4098 0.77607 0.0
C1228 C 0.35835 0.42755 0.73028 0.0
O1229 O 0.38559 0.44782 0.75712 0.0
O1230 O 0.37788 0.47301 0.75031 0.0
C1231 C 0.35045 0.48654 0.7642 0.0
N1232 N 0.33968 0.4742 0.75431 0.0
C1233 C 0.31052 0.48148 0.75714 0.0
C1234 C 0.32138 0.49441 0.7673 0.0
C1235 C 0.34138 0.49686 0.77088 0.0
C1236 C 0.3203 0.47151 0.75088 0.0
H1237 H 0.36584 0.48847 0.76697 0.0
C1238 C 0.39098 0.4674 0.75471 0.0
O1239 O 0.36569 0.40326 0.76551 0.0
O1240 O 0.35553 0.42326 0.77601 0.0
N1241 N 0.32041 0.44825 0.73598 0.0
C1242 C 0.31155 0.4344 0.72634 0.0
C1243 C 0.29119 0.42964 0.72187 0.0
C1244 C 0.28029 0.43936 0.72724 0.0
C1245 C 0.28985 0.45375 0.73705 0.0
C1246 C 0.31014 0.45785 0.74113 0.0
H1247 H 0.31992 0.42703 0.72209 0.0
O1248 O 0.32312 0.40048 0.75817 0.0
O1249 O 0.33829 0.43541 0.75475 0.0
O1250 O 0.35631 0.41577 0.73955 0.0
O1251 O 0.35703 0.44473 0.73088 0.0
C1252 C 0.27996 0.46408 0.743 0.0
C1253 C 0.29027 0.47789 0.75305 0.0
H1254 H 0.31444 0.5024 0.77247 0.0
H1255 H 0.3498 0.50671 0.77876 0.0
H1256 H 0.28394 0.41853 0.71428 0.0
H1257 H 0.26457 0.4356 0.72379 0.0
H1258 H 0.26428 0.46126 0.74003 0.0
H1259 H 0.28235 0.48547 0.75767 0.0
Mn1260 Mn 0.6344 0.96674 0.75709 0.0
Mn1261 Mn 0.59727 0.9221 0.74223 0.0
C1262 C 0.63873 0.93682 0.75584 0.0
C1263 C 0.64527 0.9865 0.77527 0.0
C1264 C 0.63071 0.96293 0.72928 0.0
O1265 O 0.60866 0.97159 0.75536 0.0
O1266 O 0.58392 0.93929 0.74759 0.0
C1267 C 0.56778 0.89917 0.76291 0.0
N1268 N 0.58082 0.89954 0.7537 0.0
C1269 C 0.57238 0.86317 0.75823 0.0
C1270 C 0.55876 0.86235 0.76773 0.0
C1271 C 0.55652 0.88046 0.7701 0.0
C1272 C 0.58326 0.88229 0.75141 0.0
H1273 H 0.56599 0.91306 0.76474 0.0
C1274 C 0.58949 0.9581 0.75183 0.0
O1275 O 0.65264 0.99585 0.76474 0.0
O1276 O 0.63148 0.96596 0.77518 0.0
N1277 N 0.60801 0.9039 0.73652 0.0
C1278 C 0.62233 0.9076 0.7273 0.0
C1279 C 0.62674 0.89122 0.72392 0.0
C1280 C 0.61619 0.87114 0.72994 0.0
C1281 C 0.60127 0.86761 0.73927 0.0
C1282 C 0.59753 0.88453 0.74224 0.0
H1283 H 0.63037 0.92293 0.72258 0.0
O1284 O 0.6551 0.95565 0.75841 0.0
O1285 O 0.62033 0.93606 0.75435 0.0
O1286 O 0.64145 0.97329 0.73874 0.0
O1287 O 0.61369 0.9443 0.7297 0.0
C1288 C 0.5901 0.84803 0.74581 0.0
C1289 C 0.57575 0.84585 0.75532 0.0
H1290 H 0.55004 0.84794 0.77329 0.0
H1291 H 0.5461 0.87998 0.77745 0.0
H1292 H 0.63824 0.89405 0.71669 0.0
H1293 H 0.6197 0.85858 0.72735 0.0
H1294 H 0.59264 0.83465 0.74371 0.0
H1295 H 0.56751 0.83082 0.76041 0.0
C1296 C 0.09337 0.3078 0.09397 0.0
C1297 C 0.07716 0.28938 0.08792 0.0
C1298 C 0.11476 0.312 0.09421 0.0
C1299 C 0.15169 0.30016 0.07698 0.0
H1300 H 0.18269 0.30788 0.10749 0.0
C1301 C 0.21555 0.27579 0.08162 0.0
C1302 C 0.23521 0.28956 0.08757 0.0
C1303 C 0.19865 0.28016 0.08181 0.0
C1304 C 0.17442 0.3062 0.09888 0.0
H1305 H 0.07082 0.26093 0.07743 0.0
H1306 H 0.10784 0.26836 0.07778 0.0
H1307 H 0.14822 0.30772 0.10759 0.0
H1308 H 0.25227 0.31862 0.0986 0.0
H1309 H 0.22222 0.32611 0.09905 0.0
H1310 H 0.17728 0.29784 0.0683 0.0
C1311 C 0.10409 0.2796 0.0823 0.0
C1312 C 0.15473 0.30609 0.09894 0.0
C1313 C 0.0828 0.27527 0.08219 0.0
C1314 C 0.23737 0.30773 0.09389 0.0
C1315 C 0.22021 0.312 0.09418 0.0
C1316 C 0.17126 0.3003 0.07692 0.0
C1317 C 0.12032 0.29805 0.08822 0.0
C1318 C 0.14283 0.30223 0.08804 0.0
C1319 C 0.20079 0.29835 0.08799 0.0
C1320 C 0.1824 0.30247 0.08792 0.0
H1321 H 0.08953 0.31895 0.09852 0.0
H1322 H 0.12701 0.32632 0.09886 0.0
H1323 H 0.14304 0.29758 0.06841 0.0
H1324 H 0.21319 0.26163 0.07666 0.0
H1325 H 0.18373 0.26911 0.07716 0.0
C1326 C 0.78752 0.97412 0.08738 0.0
C1327 C 0.77033 0.97815 0.08903 0.0
C1328 C 0.78428 0.9533 0.08856 0.0
C1329 C 0.74402 0.89592 0.0868 0.0
H1330 H 0.78872 0.89028 0.10373 0.0
C1331 C 0.74771 0.81562 0.09102 0.0
C1332 C 0.768 0.81849 0.08762 0.0
C1333 C 0.74479 0.83356 0.09236 0.0
C1334 C 0.77605 0.89157 0.09902 0.0
H1335 H 0.73605 0.96316 0.09306 0.0
H1336 H 0.73039 0.92646 0.09507 0.0
H1337 H 0.78941 0.92469 0.10413 0.0
H1338 H 0.80096 0.84257 0.08273 0.0
H1339 H 0.79583 0.87334 0.08511 0.0
H1340 H 0.7311 0.86275 0.08141 0.0
C1341 C 0.74639 0.93964 0.09287 0.0
C1342 C 0.77647 0.91126 0.09922 0.0
C1343 C 0.74966 0.96065 0.09176 0.0
C1344 C 0.7851 0.83959 0.08541 0.0
C1345 C 0.78224 0.85734 0.08684 0.0
C1346 C 0.74359 0.87607 0.08661 0.0
C1347 C 0.76376 0.93585 0.09141 0.0
C1348 C 0.76094 0.91391 0.09276 0.0
C1349 C 0.76219 0.85459 0.09048 0.0
C1350 C 0.76007 0.874 0.09236 0.0
H1351 H 0.80366 0.9871 0.08524 0.0
H1352 H 0.79791 0.95084 0.08715 0.0
H1353 H 0.73184 0.89752 0.08174 0.0
H1354 H 0.73418 0.79961 0.09277 0.0
H1355 H 0.72914 0.83104 0.09514 0.0
C1356 C 0.08583 0.84262 0.09338 0.0
C1357 C 0.08152 0.82119 0.09244 0.0
C1358 C 0.10682 0.85956 0.09523 0.0
C1359 C 0.16331 0.87681 0.08998 0.0
H1360 H 0.17199 0.92265 0.1124 0.0
C1361 C 0.24361 0.95991 0.09299 0.0
C1362 C 0.23997 0.97746 0.09182 0.0
C1363 C 0.22624 0.93896 0.09502 0.0
C1364 C 0.16988 0.90993 0.10615 0.0
H1365 H 0.09608 0.80084 0.09266 0.0
H1366 H 0.13315 0.83083 0.0957 0.0
H1367 H 0.13758 0.8888 0.11234 0.0
H1368 H 0.21534 0.98681 0.09221 0.0
H1369 H 0.18545 0.95067 0.09583 0.0
H1370 H 0.1954 0.89847 0.08344 0.0
C1371 C 0.12004 0.83428 0.09507 0.0
C1372 C 0.1502 0.89058 0.10612 0.0
C1373 C 0.09885 0.81716 0.09337 0.0
C1374 C 0.21877 0.9737 0.09301 0.0
C1375 C 0.20161 0.95297 0.0952 0.0
C1376 C 0.1831 0.89627 0.09002 0.0
C1377 C 0.12416 0.85563 0.0961 0.0
C1378 C 0.14639 0.87416 0.0977 0.0
C1379 C 0.20507 0.93534 0.09615 0.0
C1380 C 0.18622 0.91332 0.09778 0.0
H1381 H 0.07295 0.8464 0.09276 0.0
H1382 H 0.10953 0.87588 0.09577 0.0
H1383 H 0.1608 0.86442 0.08339 0.0
H1384 H 0.25975 0.96229 0.09208 0.0
H1385 H 0.22934 0.92562 0.09572 0.0
C1386 C 0.3104 0.09509 0.90997 0.0
C1387 C 0.28906 0.07793 0.91145 0.0
C1388 C 0.3145 0.11622 0.908 0.0
C1389 C 0.28829 0.14602 0.89682 0.0
H1390 H 0.32572 0.19202 0.91907 0.0
C1391 C 0.27305 0.21426 0.90917 0.0
C1392 C 0.2903 0.23558 0.91028 0.0
C1393 C 0.2769 0.19725 0.90715 0.0
C1394 C 0.31561 0.17951 0.91259 0.0
H1395 H 0.25535 0.06957 0.91185 0.0
H1396 H 0.2625 0.10608 0.90831 0.0
H1397 H 0.32535 0.15751 0.9195 0.0
H1398 H 0.32522 0.25574 0.91004 0.0
H1399 H 0.33198 0.22559 0.90667 0.0
H1400 H 0.27784 0.1675 0.89024 0.0
C1401 C 0.27606 0.10326 0.90866 0.0
C1402 C 0.31538 0.15977 0.91285 0.0
C1403 C 0.27199 0.08234 0.91079 0.0
C1404 C 0.3116 0.23949 0.9092 0.0
C1405 C 0.31547 0.22228 0.90732 0.0
C1406 C 0.28856 0.16566 0.89653 0.0
C1407 C 0.29731 0.12043 0.90724 0.0
C1408 C 0.30104 0.14258 0.90531 0.0
C1409 C 0.2981 0.20099 0.90625 0.0
C1410 C 0.30152 0.18227 0.90477 0.0
H1411 H 0.32391 0.09222 0.91045 0.0
H1412 H 0.33104 0.12922 0.90696 0.0
H1413 H 0.27738 0.13315 0.89075 0.0
H1414 H 0.25643 0.21059 0.9099 0.0
H1415 H 0.26317 0.18099 0.90658 0.0
C1416 C 0.956 0.23953 0.90962 0.0
C1417 C 0.97308 0.23516 0.91081 0.0
C1418 C 0.9348 0.22264 0.9076 0.0
C1419 C 0.9046 0.16713 0.8957 0.0
H1420 H 0.85909 0.15766 0.91855 0.0
C1421 C 0.83625 0.08311 0.90733 0.0
C1422 C 0.8151 0.0792 0.9091 0.0
C1423 C 0.85326 0.10398 0.9053 0.0
C1424 C 0.87146 0.16032 0.91191 0.0
H1425 H 0.98122 0.20965 0.91063 0.0
H1426 H 0.94462 0.18059 0.90698 0.0
H1427 H 0.89364 0.19174 0.91915 0.0
H1428 H 0.79522 0.09423 0.90994 0.0
H1429 H 0.82535 0.13112 0.90653 0.0
H1430 H 0.88293 0.13552 0.88877 0.0
C1431 C 0.94755 0.19697 0.90761 0.0
C1432 C 0.89122 0.1798 0.91226 0.0
C1433 C 0.96853 0.21366 0.90981 0.0
C1434 C 0.81133 0.09673 0.90858 0.0
C1435 C 0.82854 0.11781 0.90668 0.0
C1436 C 0.88493 0.14779 0.89531 0.0
C1437 C 0.93046 0.20124 0.90647 0.0
C1438 C 0.90825 0.18296 0.90449 0.0
C1439 C 0.8497 0.12161 0.90505 0.0
C1440 C 0.86848 0.14379 0.90376 0.0
H1441 H 0.95898 0.25591 0.91037 0.0
H1442 H 0.92186 0.22632 0.90679 0.0
H1443 H 0.91735 0.16933 0.88946 0.0
H1444 H 0.83977 0.07003 0.90761 0.0
H1445 H 0.86941 0.10638 0.90428 0.0
C1446 C 0.83949 0.78458 0.91023 0.0
C1447 C 0.81815 0.76715 0.91023 0.0
C1448 C 0.85686 0.78116 0.90853 0.0
C1449 C 0.87352 0.74088 0.91259 0.0
H1450 H 0.9238 0.78339 0.89462 0.0
C1451 C 0.95708 0.74379 0.91071 0.0
C1452 C 0.97439 0.76422 0.91402 0.0
C1453 C 0.93644 0.74094 0.9086 0.0
C1454 C 0.90983 0.77131 0.89961 0.0
H1455 H 0.79836 0.73236 0.90822 0.0
H1456 H 0.82902 0.72635 0.90528 0.0
H1457 H 0.89002 0.78393 0.8933 0.0
H1458 H 0.98345 0.79762 0.91768 0.0
H1459 H 0.9478 0.79264 0.91386 0.0
H1460 H 0.89376 0.72869 0.91913 0.0
C1461 C 0.83213 0.74269 0.90663 0.0
C1462 C 0.89052 0.77164 0.89888 0.0
C1463 C 0.8146 0.74615 0.90826 0.0
C1464 C 0.97057 0.78164 0.91518 0.0
C1465 C 0.95015 0.77886 0.9129 0.0
C1466 C 0.8929 0.74047 0.91325 0.0
C1467 C 0.85345 0.7602 0.90678 0.0
C1468 C 0.87239 0.75699 0.90574 0.0
C1469 C 0.93291 0.75856 0.90952 0.0
C1470 C 0.91143 0.75622 0.90713 0.0
H1471 H 0.84289 0.801 0.91167 0.0
H1472 H 0.87307 0.79498 0.90891 0.0
H1473 H 0.85985 0.72943 0.918 0.0
H1474 H 0.95948 0.73004 0.90977 0.0
H1475 H 0.92335 0.72511 0.90604 0.0
C1476 C 0.76308 0.64324 0.42637 0.0
C1477 C 0.74556 0.62219 0.42463 0.0
C1478 C 0.78385 0.6466 0.4287 0.0
C1479 C 0.8122 0.6185 0.43965 0.0
H1480 H 0.85925 0.65735 0.41839 0.0
C1481 C 0.88115 0.60409 0.42724 0.0
C1482 C 0.90242 0.6215 0.42629 0.0
C1483 C 0.86401 0.60769 0.42941 0.0
C1484 C 0.84644 0.6468 0.42459 0.0
H1485 H 0.73606 0.58817 0.42428 0.0
H1486 H 0.77198 0.59403 0.4284 0.0
H1487 H 0.82498 0.65736 0.4179 0.0
H1488 H 0.92238 0.65642 0.42706 0.0
H1489 H 0.89204 0.66274 0.43071 0.0
H1490 H 0.83321 0.60731 0.446 0.0
C1491 C 0.76974 0.60795 0.42799 0.0
C1492 C 0.82683 0.64679 0.4243 0.0
C1493 C 0.74916 0.60461 0.42552 0.0
C1494 C 0.90617 0.64267 0.42776 0.0
C1495 C 0.88884 0.6463 0.4298 0.0
C1496 C 0.83173 0.61854 0.43996 0.0
C1497 C 0.78734 0.62894 0.42954 0.0
C1498 C 0.80926 0.63203 0.43149 0.0
C1499 C 0.86758 0.62879 0.43063 0.0
C1500 C 0.84876 0.63206 0.43208 0.0
H1501 H 0.76084 0.65712 0.42572 0.0
H1502 H 0.79715 0.66296 0.42986 0.0
H1503 H 0.79907 0.60726 0.44547 0.0
H1504 H 0.87762 0.58756 0.42622 0.0
H1505 H 0.8478 0.59387 0.42979 0.0
C1506 C 0.41475 0.29558 0.42697 0.0
C1507 C 0.43582 0.31314 0.42531 0.0
C1508 C 0.41137 0.27476 0.42913 0.0
C1509 C 0.43956 0.24604 0.43952 0.0
H1510 H 0.39957 0.19919 0.41852 0.0
C1511 C 0.45185 0.17567 0.42697 0.0
C1512 C 0.43409 0.15454 0.42635 0.0
C1513 C 0.44883 0.19322 0.42901 0.0
C1514 C 0.41046 0.21197 0.42464 0.0
H1515 H 0.46983 0.32261 0.42497 0.0
H1516 H 0.46393 0.2866 0.42877 0.0
H1517 H 0.40006 0.23371 0.41826 0.0
H1518 H 0.39914 0.13531 0.42751 0.0
H1519 H 0.39384 0.16634 0.43093 0.0
H1520 H 0.45057 0.22471 0.44556 0.0
C1521 C 0.45002 0.28885 0.42844 0.0
C1522 C 0.41075 0.23172 0.42448 0.0
C1523 C 0.45338 0.3095 0.42615 0.0
C1524 C 0.41315 0.15139 0.42795 0.0
C1525 C 0.41011 0.16911 0.42987 0.0
C1526 C 0.43926 0.22637 0.43968 0.0
C1527 C 0.429 0.27121 0.42988 0.0
C1528 C 0.42586 0.2492 0.4316 0.0
C1529 C 0.42796 0.19021 0.43042 0.0
C1530 C 0.42528 0.20939 0.43191 0.0
H1531 H 0.40088 0.29783 0.42635 0.0
H1532 H 0.395 0.26145 0.43023 0.0
H1533 H 0.45107 0.25908 0.4453 0.0
H1534 H 0.46822 0.17877 0.42583 0.0
H1535 H 0.4629 0.20928 0.42919 0.0
C1536 C 0.90661 0.28878 0.42582 0.0
C1537 C 0.9027 0.30619 0.42492 0.0
C1538 C 0.88944 0.26769 0.42773 0.0
C1539 C 0.83316 0.23774 0.43894 0.0
H1540 H 0.82438 0.19339 0.41538 0.0
C1541 C 0.74945 0.17137 0.4251 0.0
C1542 C 0.74504 0.14995 0.42384 0.0
C1543 C 0.77042 0.18811 0.42725 0.0
C1544 C 0.82683 0.20543 0.4222 0.0
H1545 H 0.87781 0.31514 0.42571 0.0
H1546 H 0.84823 0.27874 0.42913 0.0
H1547 H 0.85888 0.22754 0.41578 0.0
H1548 H 0.75937 0.12939 0.42383 0.0
H1549 H 0.79644 0.15907 0.42738 0.0
H1550 H 0.80085 0.2162 0.44497 0.0
C1551 C 0.86446 0.28127 0.42837 0.0
C1552 C 0.84655 0.22495 0.42243 0.0
C1553 C 0.88144 0.30215 0.42629 0.0
C1554 C 0.76223 0.14571 0.42477 0.0
C1555 C 0.78342 0.16265 0.42678 0.0
C1556 C 0.81354 0.21833 0.4387 0.0
C1557 C 0.8682 0.26378 0.42903 0.0
C1558 C 0.84952 0.24161 0.43047 0.0
C1559 C 0.78763 0.18399 0.42812 0.0
C1560 C 0.80985 0.20235 0.42999 0.0
H1561 H 0.92282 0.29138 0.42477 0.0
H1562 H 0.89274 0.25446 0.4282 0.0
H1563 H 0.83517 0.25015 0.44539 0.0
H1564 H 0.73667 0.17529 0.42448 0.0
H1565 H 0.77322 0.20444 0.42803 0.0
C1566 C 0.97876 0.4306 0.24179 0.0
C1567 C 0.95749 0.41308 0.24266 0.0
C1568 C 0.98254 0.45162 0.23984 0.0
C1569 C 0.95597 0.48127 0.2285 0.0
H1570 H 0.99243 0.52622 0.25156 0.0
C1571 C 0.93998 0.54872 0.24194 0.0
C1572 C 0.95719 0.57 0.24337 0.0
C1573 C 0.9439 0.53183 0.23965 0.0
C1574 C 0.98258 0.51401 0.24487 0.0
H1575 H 0.92358 0.40387 0.24184 0.0
H1576 H 0.93017 0.44021 0.23838 0.0
H1577 H 0.99236 0.49189 0.25146 0.0
H1578 H 0.99212 0.59019 0.24341 0.0
H1579 H 0.99899 0.56024 0.23958 0.0
H1580 H 0.94543 0.50289 0.22228 0.0
C1581 C 0.94393 0.43779 0.23918 0.0
C1582 C 0.98253 0.49437 0.24482 0.0
C1583 C 0.94016 0.41695 0.24127 0.0
C1584 C 0.97852 0.57398 0.24233 0.0
C1585 C 0.98246 0.55688 0.24018 0.0
C1586 C 0.95602 0.50082 0.22855 0.0
C1587 C 0.96512 0.45538 0.2385 0.0
C1588 C 0.96856 0.47752 0.23696 0.0
C1589 C 0.96513 0.53564 0.2388 0.0
C1590 C 0.96866 0.51704 0.23707 0.0
H1591 H 0.99246 0.42815 0.24285 0.0
H1592 H 0.99903 0.46491 0.23935 0.0
H1593 H 0.94536 0.46872 0.22218 0.0
H1594 H 0.92334 0.54502 0.24263 0.0
H1595 H 0.93021 0.5156 0.23883 0.0
C1596 C 0.63718 0.54688 0.24208 0.0
C1597 C 0.64081 0.56809 0.24291 0.0
C1598 C 0.61653 0.52955 0.23995 0.0
C1599 C 0.55962 0.5109 0.24448 0.0
H1600 H 0.55303 0.46472 0.22297 0.0
C1601 C 0.4806 0.42684 0.24124 0.0
C1602 C 0.48439 0.40939 0.24255 0.0
C1603 C 0.49789 0.44788 0.23943 0.0
C1604 C 0.55457 0.4775 0.22897 0.0
H1605 H 0.62547 0.58768 0.24206 0.0
H1606 H 0.58892 0.55697 0.2385 0.0
H1607 H 0.58679 0.49921 0.22289 0.0
H1608 H 0.50929 0.40041 0.24276 0.0
H1609 H 0.53913 0.43682 0.23956 0.0
H1610 H 0.52759 0.48873 0.2509 0.0
C1611 C 0.60231 0.55401 0.23945 0.0
C1612 C 0.57387 0.49723 0.22891 0.0
C1613 C 0.62319 0.57154 0.24145 0.0
C1614 C 0.50573 0.41342 0.24183 0.0
C1615 C 0.52287 0.4343 0.23989 0.0
C1616 C 0.54021 0.49107 0.24452 0.0
C1617 C 0.59884 0.53285 0.23865 0.0
C1618 C 0.57692 0.51384 0.237 0.0
C1619 C 0.51918 0.45177 0.23869 0.0
C1620 C 0.53785 0.47392 0.2371 0.0
H1621 H 0.65032 0.54355 0.24311 0.0
H1622 H 0.61434 0.51342 0.23959 0.0
H1623 H 0.56156 0.52339 0.25083 0.0
H1624 H 0.46435 0.42428 0.24177 0.0
H1625 H 0.49461 0.46107 0.23853 0.0
C1626 C 0.50868 0.12108 0.24416 0.0
C1627 C 0.48766 0.10311 0.24459 0.0
C1628 C 0.5264 0.11845 0.24183 0.0
C1629 C 0.54578 0.08028 0.24481 0.0
H1630 H 0.59183 0.12148 0.2238 0.0
C1631 C 0.62876 0.08394 0.24028 0.0
C1632 C 0.6466 0.10491 0.24166 0.0
C1633 C 0.60792 0.08082 0.23864 0.0
C1634 C 0.57911 0.10983 0.22968 0.0
H1635 H 0.46883 0.0682 0.24285 0.0
H1636 H 0.5001 0.06359 0.23893 0.0
H1637 H 0.55759 0.12119 0.22461 0.0
H1638 H 0.65652 0.13904 0.24202 0.0
H1639 H 0.6205 0.1336 0.23921 0.0
H1640 H 0.5677 0.06952 0.25024 0.0
C1641 C 0.50268 0.07972 0.24037 0.0
C1642 C 0.55952 0.10966 0.23014 0.0
C1643 C 0.48481 0.08238 0.24257 0.0
C1644 C 0.6432 0.12265 0.24105 0.0
C1645 C 0.62252 0.11955 0.23932 0.0
C1646 C 0.56547 0.08049 0.24437 0.0
C1647 C 0.52365 0.09777 0.23995 0.0
C1648 C 0.5429 0.09538 0.23801 0.0
C1649 C 0.6046 0.09863 0.23818 0.0
C1650 C 0.58259 0.09577 0.23711 0.0
H1651 H 0.51153 0.1373 0.24562 0.0
H1652 H 0.54239 0.13264 0.24176 0.0
H1653 H 0.53327 0.06915 0.25098 0.0
H1654 H 0.63081 0.06992 0.24072 0.0
H1655 H 0.59441 0.06451 0.23774 0.0
C1656 C 0.42881 0.97786 0.76127 0.0
C1657 C 0.41398 0.96071 0.75382 0.0
C1658 C 0.45062 0.98337 0.76162 0.0
C1659 C 0.49135 0.97939 0.74315 0.0
H1660 H 0.51852 0.97776 0.77362 0.0
C1661 C 0.5541 0.95321 0.74491 0.0
C1662 C 0.57257 0.96428 0.75232 0.0
C1663 C 0.5377 0.95832 0.74533 0.0
C1664 C 0.51136 0.97879 0.76507 0.0
H1665 H 0.41056 0.93605 0.74088 0.0
H1666 H 0.44827 0.9458 0.74142 0.0
H1667 H 0.48365 0.97673 0.7741 0.0
H1668 H 0.58829 0.98948 0.766 0.0
H1669 H 0.55908 0.9982 0.76688 0.0
H1670 H 0.51837 0.98045 0.73406 0.0
C1671 C 0.44312 0.95498 0.74697 0.0
C1672 C 0.49144 0.97818 0.76535 0.0
C1673 C 0.42143 0.94929 0.74676 0.0
C1674 C 0.57428 0.98073 0.76015 0.0
C1675 C 0.55758 0.98566 0.76069 0.0
C1676 C 0.51116 0.98005 0.74287 0.0
C1677 C 0.45796 0.9721 0.75434 0.0
C1678 C 0.48087 0.97754 0.75435 0.0
C1679 C 0.53918 0.97452 0.75323 0.0
C1680 C 0.52091 0.97879 0.75379 0.0
H1681 H 0.42355 0.98692 0.76684 0.0
H1682 H 0.46179 0.99659 0.76741 0.0
H1683 H 0.48369 0.97929 0.73455 0.0
H1684 H 0.55225 0.94052 0.73873 0.0
H1685 H 0.52356 0.9492 0.73962 0.0
C1686 C 0.11218 0.5067 0.76035 0.0
C1687 C 0.09516 0.48537 0.75881 0.0
C1688 C 0.10799 0.5234 0.76271 0.0
C1689 C 0.06916 0.54082 0.75725 0.0
H1690 H 0.10574 0.586 0.78016 0.0
C1691 C 0.07402 0.62481 0.75947 0.0
C1692 C 0.09546 0.64197 0.75848 0.0
C1693 C 0.06977 0.60371 0.76177 0.0
C1694 C 0.09527 0.57346 0.7738 0.0
H1695 H 0.06028 0.46484 0.75864 0.0
H1696 H 0.05291 0.49445 0.76255 0.0
H1697 H 0.10561 0.5518 0.78023 0.0
H1698 H 0.12917 0.6505 0.75952 0.0
H1699 H 0.12178 0.61407 0.76361 0.0
H1700 H 0.05967 0.56303 0.75041 0.0
C1701 C 0.06951 0.49801 0.76201 0.0
C1702 C 0.09519 0.5539 0.77384 0.0
C1703 C 0.07374 0.4811 0.75981 0.0
C1704 C 0.11247 0.63769 0.76016 0.0
C1705 C 0.10824 0.61681 0.76262 0.0
C1706 C 0.06924 0.56048 0.75721 0.0
C1707 C 0.08666 0.51931 0.7635 0.0
C1708 C 0.08286 0.53775 0.76522 0.0
C1709 C 0.08689 0.59955 0.76336 0.0
C1710 C 0.08302 0.5773 0.76514 0.0
H1711 H 0.12889 0.51062 0.75969 0.0
H1712 H 0.12154 0.53969 0.76361 0.0
H1713 H 0.05955 0.52866 0.75048 0.0
H1714 H 0.06057 0.62759 0.75819 0.0
H1715 H 0.05316 0.59067 0.76229 0.0
C1716 C 0.43058 0.48091 0.75858 0.0
C1717 C 0.41329 0.48493 0.75734 0.0
C1718 C 0.45167 0.49804 0.76062 0.0
C1719 C 0.48128 0.55438 0.77173 0.0
H1720 H 0.52651 0.56327 0.7488 0.0
C1721 C 0.5474 0.63806 0.75777 0.0
C1722 C 0.569 0.6428 0.75719 0.0
C1723 C 0.53073 0.61702 0.75983 0.0
C1724 C 0.5142 0.56079 0.75544 0.0
H1725 H 0.40457 0.51003 0.75759 0.0
H1726 H 0.44089 0.53948 0.76121 0.0
H1727 H 0.49244 0.52864 0.74901 0.0
H1728 H 0.58995 0.62896 0.75821 0.0
H1729 H 0.5604 0.59174 0.76156 0.0
H1730 H 0.50243 0.5868 0.77773 0.0
C1731 C 0.43829 0.5232 0.76063 0.0
C1732 C 0.49474 0.54099 0.75557 0.0
C1733 C 0.41745 0.50628 0.75845 0.0
C1734 C 0.57348 0.62584 0.75864 0.0
C1735 C 0.55663 0.60458 0.76053 0.0
C1736 C 0.5006 0.57408 0.77158 0.0
C1737 C 0.45565 0.51935 0.7617 0.0
C1738 C 0.47778 0.53799 0.76337 0.0
C1739 C 0.53512 0.60006 0.76124 0.0
C1740 C 0.51688 0.57779 0.76309 0.0
H1741 H 0.4279 0.46463 0.75775 0.0
H1742 H 0.46481 0.49466 0.76138 0.0
H1743 H 0.46862 0.55235 0.77799 0.0
H1744 H 0.5433 0.65066 0.75673 0.0
H1745 H 0.51427 0.61395 0.76014 0.0
C1746 C 0.60447 0.74839 0.57632 0.0
C1747 C 0.62206 0.74477 0.57692 0.0
C1748 C 0.60772 0.76901 0.57411 0.0
C1749 C 0.64691 0.82612 0.57791 0.0
H1750 H 0.60616 0.83281 0.55749 0.0
C1751 C 0.64424 0.90629 0.57465 0.0
C1752 C 0.62339 0.90328 0.57645 0.0
C1753 C 0.64715 0.8885 0.57277 0.0
C1754 C 0.61771 0.83123 0.56319 0.0
H1755 H 0.65696 0.76008 0.57553 0.0
H1756 H 0.66267 0.79647 0.57179 0.0
H1757 H 0.60598 0.7986 0.55747 0.0
H1758 H 0.58927 0.87918 0.57741 0.0
H1759 H 0.59436 0.84846 0.57411 0.0
H1760 H 0.65808 0.85861 0.58396 0.0
C1761 C 0.64635 0.78315 0.57302 0.0
C1762 C 0.61761 0.81166 0.56318 0.0
C1763 C 0.64306 0.76233 0.57511 0.0
C1764 C 0.60557 0.88216 0.57611 0.0
C1765 C 0.60846 0.86451 0.5741 0.0
C1766 C 0.64702 0.84579 0.57792 0.0
C1767 C 0.62867 0.78665 0.57251 0.0
C1768 C 0.63166 0.80862 0.57087 0.0
C1769 C 0.62925 0.86743 0.57245 0.0
C1770 C 0.63188 0.84824 0.57088 0.0
H1771 H 0.58805 0.73528 0.57762 0.0
H1772 H 0.59378 0.77122 0.57397 0.0
H1773 H 0.65787 0.82422 0.58397 0.0
H1774 H 0.65832 0.92235 0.57487 0.0
H1775 H 0.66336 0.8912 0.5715 0.0
C1776 C 0.17729 0.74354 0.58092 0.0
C1777 C 0.15645 0.74039 0.57892 0.0
C1778 C 0.19549 0.76397 0.57968 0.0
C1779 C 0.21447 0.82194 0.58055 0.0
H1780 H 0.26489 0.82557 0.56484 0.0
C1781 C 0.29785 0.90181 0.57621 0.0
C1782 C 0.31568 0.89959 0.57956 0.0
C1783 C 0.27726 0.88351 0.57489 0.0
C1784 C 0.25096 0.82483 0.56926 0.0
H1785 H 0.13852 0.7565 0.57415 0.0
H1786 H 0.1706 0.79246 0.57203 0.0
H1787 H 0.23081 0.79148 0.56469 0.0
H1788 H 0.32568 0.87628 0.58418 0.0
H1789 H 0.29012 0.84476 0.58191 0.0
H1790 H 0.23496 0.85532 0.58536 0.0
C1791 C 0.17265 0.77893 0.57457 0.0
C1792 C 0.23145 0.80531 0.56918 0.0
C1793 C 0.15432 0.75834 0.57574 0.0
C1794 C 0.31242 0.87872 0.58158 0.0
C1795 C 0.29201 0.86056 0.58018 0.0
C1796 C 0.23409 0.84158 0.58063 0.0
C1797 C 0.19344 0.78188 0.57643 0.0
C1798 C 0.21315 0.80345 0.57514 0.0
C1799 C 0.27422 0.86269 0.57676 0.0
C1800 C 0.25268 0.84301 0.57529 0.0
H1801 H 0.17966 0.73018 0.58339 0.0
H1802 H 0.21125 0.76577 0.58139 0.0
H1803 H 0.20064 0.82097 0.58523 0.0
H1804 H 0.29977 0.91764 0.5746 0.0
H1805 H 0.26382 0.88561 0.57223 0.0
C1806 C 0.3044 0.44997 0.5843 0.0
C1807 C 0.30932 0.43438 0.57996 0.0
C1808 C 0.28331 0.44614 0.584 0.0
C1809 C 0.23102 0.41647 0.56911 0.0
H1810 H 0.21196 0.43223 0.59869 0.0
C1811 C 0.1481 0.41423 0.57474 0.0
C1812 C 0.15028 0.43337 0.5798 0.0
C1813 C 0.1658 0.41081 0.57442 0.0
C1814 C 0.21702 0.42772 0.59037 0.0
H1815 H 0.29578 0.40272 0.57149 0.0
H1816 H 0.25857 0.39614 0.57089 0.0
H1817 H 0.24607 0.43229 0.59871 0.0
H1818 H 0.17303 0.4641 0.58819 0.0
H1819 H 0.20347 0.45806 0.58765 0.0
H1820 H 0.20207 0.41259 0.56069 0.0
C1821 C 0.27129 0.41127 0.57459 0.0
C1822 C 0.23652 0.42774 0.59039 0.0
C1823 C 0.29255 0.41503 0.57497 0.0
C1824 C 0.1706 0.4491 0.58429 0.0
C1825 C 0.18809 0.4456 0.58406 0.0
C1826 C 0.21136 0.41644 0.56909 0.0
C1827 C 0.26648 0.42668 0.57933 0.0
C1828 C 0.2441 0.42288 0.57965 0.0
C1829 C 0.18585 0.42634 0.57928 0.0
C1830 C 0.20461 0.42283 0.57962 0.0
H1831 H 0.3168 0.46515 0.58811 0.0
H1832 H 0.28016 0.45851 0.58748 0.0
H1833 H 0.23652 0.41266 0.56072 0.0
H1834 H 0.13271 0.40182 0.57115 0.0
H1835 H 0.16368 0.39584 0.57065 0.0
C1836 C 0.03097 0.34752 0.12185 0.0
C1837 C 0.0369 0.33169 0.12039 0.0
C1838 C 0.03189 0.35638 0.13344 0.0
C1839 C 0.0323 0.34229 0.16633 0.0
H1840 H 0.03313 0.39638 0.17154 0.0
C1841 C 0.018 0.36754 0.21399 0.0
C1842 C 0.99917 0.3691 0.21398 0.0
C1843 C 0.028 0.36771 0.20292 0.0
C1844 C 0.03311 0.38134 0.17021 0.0
H1845 H 0.05024 0.31402 0.12945 0.0
H1846 H 0.05349 0.33058 0.14942 0.0
H1847 H 0.04208 0.38826 0.15133 0.0
H1848 H 0.97689 0.37361 0.20255 0.0
H1849 H 0.99474 0.37455 0.18326 0.0
H1850 H 0.02346 0.33556 0.18525 0.0
C1851 C 0.04694 0.3354 0.1419 0.0
C1852 C 0.03802 0.37654 0.15861 0.0
C1853 C 0.04535 0.32607 0.13042 0.0
C1854 C 0.99135 0.37229 0.20281 0.0
C1855 C 0.00162 0.37296 0.19178 0.0
C1856 C 0.02792 0.34733 0.17795 0.0
C1857 C 0.0393 0.34995 0.14373 0.0
C1858 C 0.03709 0.35664 0.1564 0.0
C1859 C 0.01962 0.37001 0.19171 0.0
C1860 C 0.02775 0.36663 0.17992 0.0
H1861 H 0.02423 0.35195 0.11423 0.0
H1862 H 0.02562 0.3673 0.13439 0.0
H1863 H 0.03084 0.32658 0.16508 0.0
H1864 H 0.02429 0.36499 0.22248 0.0
H1865 H 0.04185 0.36537 0.20306 0.0
C1866 C 0.70616 0.71111 0.11942 0.0
C1867 C 0.7237 0.73236 0.11972 0.0
C1868 C 0.69629 0.70041 0.13034 0.0
C1869 C 0.68902 0.70653 0.16315 0.0
H1870 H 0.6968 0.65704 0.16765 0.0
C1871 C 0.69062 0.67316 0.21123 0.0
C1872 C 0.68601 0.65171 0.21236 0.0
C1873 C 0.69037 0.68165 0.19969 0.0
C1874 C 0.69383 0.6704 0.16656 0.0
H1875 H 0.74357 0.75967 0.13148 0.0
H1876 H 0.72585 0.7412 0.15051 0.0
H1877 H 0.70359 0.67432 0.14774 0.0
H1878 H 0.67586 0.62178 0.20259 0.0
H1879 H 0.67387 0.63595 0.18265 0.0
H1880 H 0.67906 0.7026 0.18193 0.0
C1881 C 0.71992 0.73275 0.14188 0.0
C1882 C 0.69787 0.68037 0.1551 0.0
C1883 C 0.73009 0.74326 0.13101 0.0
C1884 C 0.67975 0.63849 0.20192 0.0
C1885 C 0.67886 0.64674 0.19046 0.0
C1886 C 0.68447 0.69624 0.1746 0.0
C1887 C 0.70347 0.71099 0.14169 0.0
C1888 C 0.69596 0.69879 0.15335 0.0
C1889 C 0.68496 0.66869 0.18907 0.0
C1890 C 0.68731 0.6783 0.17657 0.0
H1891 H 0.70101 0.7023 0.11084 0.0
H1892 H 0.68362 0.68361 0.12998 0.0
H1893 H 0.6874 0.72072 0.16201 0.0
H1894 H 0.69564 0.68372 0.21916 0.0
H1895 H 0.69544 0.69866 0.19909 0.0
C1896 C 0.34046 0.01861 0.12216 0.0
C1897 C 0.32434 0.0244 0.12171 0.0
C1898 C 0.34938 0.0176 0.13343 0.0
C1899 C 0.34127 0.01712 0.16734 0.0
H1900 H 0.40387 0.04722 0.1685 0.0
C1901 C 0.41165 0.0733 0.20317 0.0
C1902 C 0.40351 0.06173 0.21415 0.0
C1903 C 0.40282 0.06376 0.19189 0.0
C1904 C 0.38636 0.03868 0.16834 0.0
H1905 H 0.30436 0.03282 0.13275 0.0
H1906 H 0.31997 0.03136 0.15221 0.0
H1907 H 0.38559 0.03927 0.14874 0.0
H1908 H 0.38037 0.03067 0.22188 0.0
H1909 H 0.36488 0.01383 0.20206 0.0
H1910 H 0.34208 0.01782 0.18695 0.0
C1911 C 0.32562 0.0273 0.14397 0.0
C1912 C 0.37586 0.03388 0.15699 0.0
C1913 C 0.31678 0.02834 0.13276 0.0
C1914 C 0.38694 0.04001 0.21357 0.0
C1915 C 0.37801 0.03042 0.20223 0.0
C1916 C 0.35178 0.022 0.17869 0.0
C1917 C 0.34228 0.02226 0.14446 0.0
C1918 C 0.3532 0.02373 0.15636 0.0
C1919 C 0.38558 0.04235 0.19127 0.0
C1920 C 0.37448 0.03353 0.17934 0.0
H1921 H 0.34657 0.01541 0.11381 0.0
H1922 H 0.36205 0.01348 0.1335 0.0
H1923 H 0.32377 0.0089 0.16718 0.0
H1924 H 0.42445 0.09005 0.20328 0.0
H1925 H 0.40887 0.07358 0.1837 0.0
C1926 C 0.31698 0.03063 0.86956 0.0
C1927 C 0.32756 0.03243 0.88072 0.0
C1928 C 0.32701 0.03167 0.85842 0.0
C1929 C 0.36776 0.02068 0.84538 0.0
H1930 H 0.35337 0.04077 0.81573 0.0
C1931 C 0.37235 0.01579 0.78867 0.0
C1932 C 0.36586 0.99373 0.78785 0.0
C1933 C 0.37361 0.0253 0.80012 0.0
C1934 C 0.35799 0.03542 0.82389 0.0
H1935 H 0.35745 0.03778 0.88896 0.0
H1936 H 0.37521 0.03975 0.86936 0.0
H1937 H 0.34542 0.05051 0.83563 0.0
H1938 H 0.3564 0.96458 0.79841 0.0
H1939 H 0.35814 0.98088 0.81815 0.0
H1940 H 0.3802 0.00547 0.83363 0.0
C1941 C 0.35897 0.03729 0.86928 0.0
C1942 C 0.35316 0.04079 0.83533 0.0
C1943 C 0.34887 0.03628 0.8805 0.0
C1944 C 0.36143 0.98162 0.79869 0.0
C1945 C 0.36265 0.99106 0.81008 0.0
C1946 C 0.37273 0.01543 0.83394 0.0
C1947 C 0.34798 0.03459 0.85811 0.0
C1948 C 0.35717 0.03274 0.8462 0.0
C1949 C 0.36842 0.01294 0.81096 0.0
C1950 C 0.3671 0.022 0.82304 0.0
H1951 H 0.30057 0.02772 0.86939 0.0
H1952 H 0.31786 0.02916 0.85006 0.0
H1953 H 0.37107 0.01415 0.85353 0.0
H1954 H 0.37596 0.02557 0.78048 0.0
H1955 H 0.37833 0.04225 0.80047 0.0
C1956 C 0.03997 0.37943 0.78798 0.0
C1957 C 0.05869 0.39992 0.78787 0.0
C1958 C 0.03058 0.36936 0.79912 0.0
C1959 C 0.02673 0.37751 0.83202 0.0
H1960 H 0.02701 0.3238 0.83624 0.0
C1961 C 0.02584 0.34209 0.87987 0.0
C1962 C 0.01872 0.31997 0.8809 0.0
C1963 C 0.02601 0.35109 0.86843 0.0
C1964 C 0.02615 0.33842 0.83524 0.0
H1965 H 0.08145 0.42654 0.79923 0.0
H1966 H 0.06466 0.40918 0.81866 0.0
H1967 H 0.03493 0.34103 0.81629 0.0
H1968 H 0.00449 0.28953 0.87117 0.0
H1969 H 0.00319 0.30474 0.85144 0.0
H1970 H 0.01776 0.37491 0.85093 0.0
C1971 C 0.05741 0.40084 0.81015 0.0
C1972 C 0.03085 0.34836 0.82375 0.0
C1973 C 0.06707 0.4107 0.79905 0.0
C1974 C 0.01027 0.30671 0.87055 0.0
C1975 C 0.00982 0.31554 0.8592 0.0
C1976 C 0.02154 0.36731 0.8435 0.0
C1977 C 0.03945 0.37985 0.8103 0.0
C1978 C 0.03162 0.36819 0.82209 0.0
C1979 C 0.01856 0.33801 0.85784 0.0
C1980 C 0.02163 0.34783 0.84535 0.0
H1981 H 0.03323 0.37073 0.7795 0.0
H1982 H 0.01672 0.35315 0.79902 0.0
H1983 H 0.02717 0.3928 0.83094 0.0
H1984 H 0.03261 0.35266 0.88774 0.0
H1985 H 0.0331 0.36846 0.86783 0.0
C1986 C 0.64473 0.69107 0.79937 0.0
C1987 C 0.65307 0.68905 0.7881 0.0
C1988 C 0.65405 0.69006 0.8104 0.0
C1989 C 0.70614 0.70071 0.82278 0.0
H1990 H 0.67287 0.68142 0.85288 0.0
C1991 C 0.7409 0.74059 0.86898 0.0
C1992 C 0.7337 0.72871 0.87994 0.0
C1993 C 0.73217 0.73091 0.85772 0.0
C1994 C 0.68248 0.68653 0.84458 0.0
H1995 H 0.67714 0.68331 0.77957 0.0
H1996 H 0.69347 0.68137 0.79896 0.0
H1997 H 0.65432 0.67154 0.8332 0.0
H1998 H 0.7123 0.69704 0.88761 0.0
H1999 H 0.69704 0.67994 0.86781 0.0
H2000 H 0.73429 0.71585 0.83417 0.0
C2001 C 0.67981 0.68401 0.79922 0.0
C2002 C 0.67181 0.68109 0.83328 0.0
C2003 C 0.6704 0.685 0.78812 0.0
C2004 C 0.71811 0.70663 0.87933 0.0
C2005 C 0.70931 0.69689 0.868 0.0
C2006 C 0.71683 0.70603 0.83409 0.0
C2007 C 0.67198 0.68694 0.81049 0.0
C2008 C 0.68344 0.68886 0.82226 0.0
C2009 C 0.716 0.70903 0.85707 0.0
C2010 C 0.70508 0.69977 0.84514 0.0
H2011 H 0.63134 0.69414 0.79971 0.0
H2012 H 0.64776 0.69275 0.81884 0.0
H2013 H 0.71566 0.70702 0.81451 0.0
H2014 H 0.75292 0.75763 0.8691 0.0
H2015 H 0.73748 0.74092 0.84958 0.0
C2016 C 0.01379 0.70533 0.87953 0.0
C2017 C 0.01908 0.72706 0.88035 0.0
C2018 C 0.01298 0.69603 0.86807 0.0
C2019 C 0.01289 0.70533 0.83428 0.0
H2020 H 0.04476 0.67465 0.83256 0.0
C2021 C 0.0713 0.69456 0.79828 0.0
C2022 C 0.0598 0.69089 0.78726 0.0
C2023 C 0.06152 0.69357 0.80951 0.0
C2024 C 0.03574 0.68313 0.83288 0.0
H2025 H 0.02662 0.75574 0.86979 0.0
H2026 H 0.02553 0.73979 0.85002 0.0
H2027 H 0.0357 0.68331 0.85249 0.0
H2028 H 0.02872 0.68254 0.77939 0.0
H2029 H 0.01147 0.68072 0.79913 0.0
H2030 H 0.01422 0.70642 0.81468 0.0
C2031 C 0.02172 0.72972 0.85811 0.0
C2032 C 0.03029 0.68786 0.84432 0.0
C2033 C 0.02255 0.73897 0.8695 0.0
C2034 C 0.03801 0.68551 0.78773 0.0
C2035 C 0.02818 0.68456 0.79903 0.0
C2036 C 0.01842 0.70068 0.82284 0.0
C2037 C 0.01737 0.70827 0.85724 0.0
C2038 C 0.01947 0.6997 0.84517 0.0
C2039 C 0.03993 0.68886 0.81005 0.0
C2040 C 0.0306 0.69021 0.82201 0.0
H2041 H 0.01097 0.69573 0.88773 0.0
H2042 H 0.00936 0.67939 0.86772 0.0
H2043 H 0.00417 0.71411 0.8346 0.0
H2044 H 0.08811 0.69873 0.79826 0.0
H2045 H 0.07123 0.69737 0.81775 0.0
C2046 C 0.37272 0.41484 0.79817 0.0
C2047 C 0.36606 0.40155 0.78776 0.0
C2048 C 0.37339 0.40646 0.80963 0.0
C2049 C 0.36632 0.35642 0.82549 0.0
H2050 H 0.34865 0.37954 0.85244 0.0
C2051 C 0.32109 0.31085 0.86959 0.0
C2052 C 0.32886 0.32171 0.8808 0.0
C2053 C 0.33067 0.32105 0.85854 0.0
C2054 C 0.35393 0.37313 0.84504 0.0
H2055 H 0.35544 0.3693 0.78099 0.0
H2056 H 0.35522 0.3542 0.80106 0.0
H2057 H 0.35559 0.39671 0.83248 0.0
H2058 H 0.35319 0.3514 0.88933 0.0
H2059 H 0.36948 0.36958 0.86989 0.0
H2060 H 0.36279 0.33173 0.83811 0.0
C2061 C 0.3608 0.37131 0.80044 0.0
C2062 C 0.35807 0.38305 0.83356 0.0
C2063 C 0.36078 0.3799 0.7889 0.0
C2064 C 0.34697 0.34263 0.88081 0.0
C2065 C 0.35623 0.35304 0.86973 0.0
C2066 C 0.36165 0.34619 0.83695 0.0
C2067 C 0.36664 0.38437 0.81104 0.0
C2068 C 0.36411 0.37473 0.82354 0.0
C2069 C 0.34788 0.34246 0.8585 0.0
C2070 C 0.35524 0.35438 0.84678 0.0
H2071 H 0.37713 0.43169 0.79747 0.0
H2072 H 0.37873 0.4173 0.81742 0.0
H2073 H 0.37135 0.34973 0.81815 0.0
H2074 H 0.30718 0.29468 0.86934 0.0
H2075 H 0.32384 0.31264 0.85 0.0
C2076 C 0.73967 0.03543 0.87003 0.0
C2077 C 0.72859 0.03222 0.88117 0.0
C2078 C 0.73004 0.03582 0.85895 0.0
C2079 C 0.67821 0.01018 0.84475 0.0
H2080 H 0.70519 0.05218 0.81864 0.0
C2081 C 0.63922 0.99184 0.79714 0.0
C2082 C 0.65315 0.99803 0.78701 0.0
C2083 C 0.64719 0.00022 0.80878 0.0
C2084 C 0.69748 0.04015 0.82577 0.0
H2085 H 0.69907 0.02757 0.88955 0.0
H2086 H 0.68183 0.02745 0.87004 0.0
H2087 H 0.7221 0.05948 0.83889 0.0
H2088 H 0.68613 0.01829 0.78091 0.0
H2089 H 0.70043 0.03201 0.80129 0.0
H2090 H 0.65458 0.99 0.83167 0.0
C2091 C 0.69812 0.03004 0.86996 0.0
C2092 C 0.7071 0.04448 0.83739 0.0
C2093 C 0.70798 0.03017 0.88109 0.0
C2094 C 0.67504 0.01343 0.78859 0.0
C2095 C 0.68318 0.02135 0.80031 0.0
C2096 C 0.66886 0.00562 0.8331 0.0
C2097 C 0.70896 0.03254 0.85879 0.0
C2098 C 0.69766 0.02942 0.84694 0.0
C2099 C 0.66945 0.01441 0.81065 0.0
C2100 C 0.67847 0.02039 0.82335 0.0
H2101 H 0.7556 0.03712 0.86984 0.0
H2102 H 0.73864 0.03758 0.85046 0.0
H2103 H 0.6708 0.99814 0.85191 0.0
H2104 H 0.62219 0.98013 0.79611 0.0
H2105 H 0.6359 0.99501 0.81635 0.0
C2106 C 0.73149 0.01451 0.13147 0.0
C2107 C 0.72477 0.01867 0.12019 0.0
C2108 C 0.72111 0.01441 0.14234 0.0
C2109 C 0.69773 0.04346 0.15549 0.0
H2110 H 0.68085 0.00307 0.18259 0.0
C2111 C 0.68097 0.06781 0.2024 0.0
C2112 C 0.68812 0.06151 0.21274 0.0
C2113 C 0.6795 0.05822 0.19101 0.0
C2114 C 0.6857 0.01466 0.17518 0.0
H2115 H 0.70131 0.02492 0.11131 0.0
H2116 H 0.68355 0.02547 0.13046 0.0
H2117 H 0.68904 0.99332 0.16262 0.0
H2118 H 0.69871 0.03987 0.2195 0.0
H2119 H 0.69755 0.024 0.19952 0.0
H2120 H 0.69633 0.06558 0.16799 0.0
C2121 C 0.69663 0.02195 0.13081 0.0
C2122 C 0.69016 0.00892 0.16371 0.0
C2123 C 0.70672 0.02155 0.11988 0.0
C2124 C 0.69299 0.04486 0.21164 0.0
C2125 C 0.69219 0.0357 0.20015 0.0
C2126 C 0.69379 0.0494 0.16698 0.0
C2127 C 0.70412 0.01893 0.14216 0.0
C2128 C 0.69645 0.0234 0.15382 0.0
C2129 C 0.68596 0.04266 0.18959 0.0
C2130 C 0.688 0.03523 0.17707 0.0
H2131 H 0.74536 0.01221 0.13194 0.0
H2132 H 0.7273 0.01221 0.15097 0.0
H2133 H 0.70295 0.05508 0.14806 0.0
H2134 H 0.67689 0.08048 0.20307 0.0
H2135 H 0.67385 0.06352 0.18327 0.0
C2136 C 0.0484 0.74864 0.13192 0.0
C2137 C 0.03885 0.73539 0.12167 0.0
C2138 C 0.0489 0.73965 0.1432 0.0
C2139 C 0.03459 0.68717 0.15897 0.0
H2140 H 0.02354 0.71519 0.18622 0.0
C2141 C 0.98773 0.64498 0.20324 0.0
C2142 C 0.99605 0.65559 0.21446 0.0
C2143 C 0.9979 0.65467 0.1922 0.0
C2144 C 0.02698 0.70736 0.17875 0.0
H2145 H 0.0231 0.70255 0.11492 0.0
H2146 H 0.02275 0.68653 0.13474 0.0
H2147 H 0.03229 0.73245 0.16628 0.0
H2148 H 0.02197 0.68425 0.223 0.0
H2149 H 0.03944 0.70154 0.2036 0.0
H2150 H 0.02749 0.66125 0.17151 0.0
C2151 C 0.03065 0.70396 0.1341 0.0
C2152 C 0.03215 0.7173 0.16726 0.0
C2153 C 0.03076 0.71309 0.1227 0.0
C2154 C 0.01524 0.6757 0.21448 0.0
C2155 C 0.02518 0.6856 0.20341 0.0
C2156 C 0.02895 0.677 0.17045 0.0
C2157 C 0.03908 0.71707 0.14462 0.0
C2158 C 0.03577 0.70727 0.15712 0.0
C2159 C 0.01637 0.67532 0.19216 0.0
C2160 C 0.02486 0.68692 0.1804 0.0
H2161 H 0.05488 0.76595 0.1313 0.0
H2162 H 0.05628 0.75043 0.15091 0.0
H2163 H 0.03765 0.67906 0.15151 0.0
H2164 H 0.973 0.62942 0.20296 0.0
H2165 H 0.99067 0.64648 0.18366 0.0
C2166 C 0.33233 0.34846 0.12264 0.0
C2167 C 0.3168 0.32637 0.12201 0.0
C2168 C 0.34097 0.35823 0.13399 0.0
C2169 C 0.3679 0.36862 0.15727 0.0
H2170 H 0.33525 0.34799 0.1875 0.0
C2171 C 0.40635 0.3636 0.20202 0.0
C2172 C 0.39838 0.36574 0.21339 0.0
C2173 C 0.39682 0.36473 0.1911 0.0
C2174 C 0.34461 0.35434 0.17918 0.0
H2175 H 0.29743 0.29746 0.13282 0.0
H2176 H 0.31265 0.31421 0.15239 0.0
H2177 H 0.31627 0.33915 0.16794 0.0
H2178 H 0.37475 0.37177 0.22223 0.0
H2179 H 0.35797 0.37385 0.20302 0.0
H2180 H 0.39624 0.38363 0.1685 0.0
C2181 C 0.31803 0.32421 0.14424 0.0
C2182 C 0.33373 0.34901 0.16793 0.0
C2183 C 0.30941 0.31451 0.13296 0.0
C2184 C 0.38121 0.37002 0.2136 0.0
C2185 C 0.37155 0.37109 0.20261 0.0
C2186 C 0.37876 0.37406 0.16851 0.0
C2187 C 0.33423 0.34609 0.14491 0.0
C2188 C 0.3453 0.35533 0.15681 0.0
C2189 C 0.37901 0.36805 0.19123 0.0
C2190 C 0.36732 0.36623 0.17958 0.0
H2191 H 0.33827 0.35805 0.11437 0.0
H2192 H 0.35324 0.37518 0.13417 0.0
H2193 H 0.3774 0.37377 0.14893 0.0
H2194 H 0.41962 0.36037 0.20152 0.0
H2195 H 0.40282 0.36195 0.18258 0.0
C2196 C 0.68266 0.70454 0.54663 0.0
C2197 C 0.66084 0.69905 0.54718 0.0
C2198 C 0.6924 0.70551 0.5353 0.0
C2199 C 0.70167 0.68881 0.51159 0.0
H2200 H 0.6842 0.70572 0.48184 0.0
C2201 C 0.69631 0.64911 0.46527 0.0
C2202 C 0.70012 0.66087 0.45433 0.0
C2203 C 0.69724 0.65866 0.47657 0.0
C2204 C 0.68965 0.7013 0.49004 0.0
H2205 H 0.63244 0.69122 0.53627 0.0
H2206 H 0.64919 0.69263 0.51671 0.0
H2207 H 0.67558 0.71501 0.50172 0.0
H2208 H 0.70883 0.69221 0.4467 0.0
H2209 H 0.71053 0.70904 0.46657 0.0
H2210 H 0.71546 0.67482 0.4999 0.0
C2211 C 0.65896 0.69646 0.52492 0.0
C2212 C 0.68446 0.7064 0.50145 0.0
C2213 C 0.64927 0.69543 0.53619 0.0
C2214 C 0.70574 0.68272 0.45498 0.0
C2215 C 0.70662 0.69231 0.46635 0.0
C2216 C 0.70692 0.68378 0.50017 0.0
C2217 C 0.68053 0.70113 0.52432 0.0
C2218 C 0.68968 0.69949 0.51236 0.0
C2219 C 0.70202 0.68025 0.47727 0.0
C2220 C 0.70025 0.68923 0.48926 0.0
H2221 H 0.692 0.70747 0.55496 0.0
H2222 H 0.70911 0.70933 0.53516 0.0
H2223 H 0.70591 0.68319 0.51978 0.0
H2224 H 0.69199 0.63226 0.46511 0.0
H2225 H 0.69326 0.64874 0.48474 0.0
C2226 C 0.37224 0.0524 0.4567 0.0
C2227 C 0.39393 0.06909 0.45645 0.0
C2228 C 0.36235 0.04265 0.46784 0.0
C2229 C 0.3697 0.04859 0.50189 0.0
H2230 H 0.33959 0.98596 0.50158 0.0
C2231 C 0.35897 0.97672 0.53562 0.0
C2232 C 0.35548 0.98389 0.54693 0.0
C2233 C 0.3576 0.98604 0.52466 0.0
C2234 C 0.3479 0.00346 0.50184 0.0
H2235 H 0.42189 0.08935 0.46774 0.0
H2236 H 0.40492 0.07233 0.48697 0.0
H2237 H 0.3491 0.00569 0.48226 0.0
H2238 H 0.34671 0.00573 0.55558 0.0
H2239 H 0.34414 0.02201 0.53633 0.0
H2240 H 0.36985 0.04639 0.52145 0.0
C2241 C 0.39533 0.06682 0.47867 0.0
C2242 C 0.35312 0.01479 0.49074 0.0
C2243 C 0.40517 0.07649 0.46759 0.0
C2244 C 0.34955 -9e-05 0.547 0.0
C2245 C 0.34821 0.00931 0.53598 0.0
C2246 C 0.36459 0.03726 0.51299 0.0
C2247 C 0.37395 0.04948 0.47894 0.0
C2248 C 0.36479 0.03752 0.49062 0.0
C2249 C 0.35268 0.00279 0.52469 0.0
C2250 C 0.35432 0.01456 0.51309 0.0
H2251 H 0.36314 0.04639 0.44826 0.0
H2252 H 0.34578 0.02948 0.46773 0.0
H2253 H 0.37832 0.06609 0.50215 0.0
H2254 H 0.36352 0.96436 0.53522 0.0
H2255 H 0.36148 0.98078 0.5162 0.0
C2256 C 0.9797 0.35689 0.46582 0.0
C2257 C 0.98718 0.35322 0.45467 0.0
C2258 C 0.98883 0.35583 0.47692 0.0
C2259 C 0.0396 0.36307 0.48943 0.0
H2260 H 0.00646 0.34657 0.51962 0.0
C2261 C 0.05149 0.36986 0.54594 0.0
C2262 C 0.06772 0.39172 0.54643 0.0
C2263 C 0.04265 0.36 0.53465 0.0
C2264 C 0.016 0.35086 0.5113 0.0
H2265 H 0.0095 0.34467 0.44644 0.0
H2266 H 0.02547 0.3427 0.46594 0.0
H2267 H 0.98773 0.33734 0.49999 0.0
H2268 H 0.08826 0.42002 0.53544 0.0
H2269 H 0.07282 0.4031 0.51593 0.0
H2270 H 0.06788 0.37683 0.50074 0.0
C2271 C 0.01266 0.34662 0.46605 0.0
C2272 C 0.00524 0.34581 0.50002 0.0
C2273 C 0.00346 0.34765 0.45489 0.0
C2274 C 0.07571 0.40316 0.5354 0.0
C2275 C 0.06696 0.39336 0.52416 0.0
C2276 C 0.05037 0.36803 0.5007 0.0
C2277 C 0.00567 0.35105 0.47719 0.0
C2278 C 0.01691 0.3526 0.48897 0.0
C2279 C 0.04997 0.37182 0.52364 0.0
C2280 C 0.03871 0.36274 0.51178 0.0
H2281 H 0.96715 0.36118 0.46599 0.0
H2282 H 0.98325 0.35971 0.48526 0.0
H2283 H 0.04914 0.36859 0.48111 0.0
H2284 H 0.04505 0.3606 0.55429 0.0
H2285 H 0.02974 0.34331 0.53456 0.0
C2286 C 0.35762 0.40821 0.53536 0.0
C2287 C 0.35374 0.39637 0.54628 0.0
C2288 C 0.35689 0.39878 0.52404 0.0
C2289 C 0.34819 0.37395 0.50035 0.0
H2290 H 0.37964 0.34279 0.49935 0.0
C2291 C 0.37377 0.35299 0.45434 0.0
C2292 C 0.39563 0.35859 0.45402 0.0
C2293 C 0.36373 0.35212 0.46555 0.0
C2294 C 0.37073 0.35137 0.49947 0.0
H2295 H 0.34498 0.36496 0.55383 0.0
H2296 H 0.34356 0.34834 0.53395 0.0
H2297 H 0.37035 0.35193 0.51907 0.0
H2298 H 0.42381 0.36673 0.46522 0.0
H2299 H 0.40654 0.36544 0.48457 0.0
H2300 H 0.34984 0.37463 0.48075 0.0
C2301 C 0.34742 0.36505 0.5342 0.0
C2302 C 0.36516 0.3564 0.51079 0.0
C2303 C 0.34812 0.37453 0.54558 0.0
C2304 C 0.40696 0.36242 0.46513 0.0
C2305 C 0.39696 0.36148 0.47627 0.0
C2306 C 0.35383 0.36899 0.48903 0.0
C2307 C 0.35224 0.37723 0.52332 0.0
C2308 C 0.35449 0.36842 0.51138 0.0
C2309 C 0.37534 0.35669 0.47664 0.0
C2310 C 0.36585 0.35832 0.48846 0.0
H2311 H 0.36195 0.42507 0.53557 0.0
H2312 H 0.36101 0.40878 0.51591 0.0
H2313 H 0.33962 0.38288 0.50047 0.0
H2314 H 0.36462 0.34991 0.44593 0.0
H2315 H 0.347 0.34822 0.46553 0.0
C2316 C 0.65696 0.97188 0.53511 0.0
C2317 C 0.66434 0.98577 0.54526 0.0
C2318 C 0.66553 0.97945 0.52346 0.0
C2319 C 0.70794 0.02828 0.5064 0.0
H2320 H 0.6649 0.00477 0.48057 0.0
C2321 C 0.70525 0.07364 0.46316 0.0
C2322 C 0.70026 0.06263 0.45189 0.0
C2323 C 0.70573 0.06335 0.47394 0.0
C2324 C 0.67723 0.01125 0.48763 0.0
H2325 H 0.68689 0.01821 0.55139 0.0
H2326 H 0.70101 0.03194 0.53098 0.0
H2327 H 0.65617 0.98827 0.50072 0.0
H2328 H 0.69272 0.03259 0.44295 0.0
H2329 H 0.69279 0.01423 0.46199 0.0
H2330 H 0.72826 0.05241 0.4933 0.0
C2331 C 0.68922 0.01495 0.53195 0.0
C2332 C 0.6723 0.00173 0.49924 0.0
C2333 C 0.68107 0.00715 0.54368 0.0
C2334 C 0.69672 0.04145 0.45151 0.0
C2335 C 0.69669 0.03096 0.46238 0.0
C2336 C 0.71267 0.0381 0.49483 0.0
C2337 C 0.68114 0.00134 0.52159 0.0
C2338 C 0.68745 0.01027 0.50889 0.0
C2339 C 0.70077 0.0417 0.47371 0.0
C2340 C 0.69724 0.02982 0.4854 0.0
H2341 H 0.6442 0.95522 0.53614 0.0
H2342 H 0.65938 0.96819 0.51587 0.0
H2343 H 0.72025 0.03511 0.51345 0.0
H2344 H 0.70809 0.09 0.46369 0.0
H2345 H 0.70872 0.07192 0.48257 0.0
C2346 C 0.98089 0.64756 0.46687 0.0
C2347 C 0.98761 0.65907 0.45577 0.0
C2348 C 0.99021 0.65759 0.47797 0.0
C2349 C 0.00675 0.68341 0.50127 0.0
H2350 H 0.06929 0.71785 0.50123 0.0
C2351 C 0.05487 0.70608 0.54661 0.0
C2352 C 0.0719 0.70159 0.54653 0.0
C2353 C 0.04527 0.707 0.53557 0.0
C2354 C 0.0518 0.70834 0.50141 0.0
H2355 H 0.00882 0.69044 0.4477 0.0
H2356 H 0.02509 0.70814 0.46719 0.0
H2357 H 0.04986 0.70707 0.48183 0.0
H2358 H 0.0931 0.69589 0.53481 0.0
H2359 H 0.07639 0.69723 0.51577 0.0
H2360 H 0.00879 0.68339 0.52084 0.0
C2361 C 0.01274 0.69122 0.46725 0.0
C2362 C 0.04062 0.70236 0.49027 0.0
C2363 C 0.00335 0.68112 0.45609 0.0
C2364 C 0.07993 0.69929 0.53521 0.0
C2365 C 0.07043 0.70026 0.52424 0.0
C2366 C 0.01794 0.68928 0.51242 0.0
C2367 C 0.00651 0.67946 0.47831 0.0
C2368 C 0.018 0.68915 0.49005 0.0
C2369 C 0.05262 0.70357 0.52426 0.0
C2370 C 0.04066 0.70115 0.51262 0.0
H2371 H 0.96878 0.63055 0.46697 0.0
H2372 H 0.98524 0.64788 0.48623 0.0
H2373 H 0.98929 0.67362 0.50146 0.0
H2374 H 0.04836 0.70796 0.55519 0.0
H2375 H 0.03173 0.70983 0.53591 0.0
C2376 C 0.03624 0.295 0.04297 0.0
C2377 C 0.02528 0.30113 0.05127 0.0
C2378 C 0.039 0.30178 0.03081 0.0
C2379 C 0.01335 0.31479 0.00652 0.0
H2380 H 0.06649 0.32864 0.98957 0.0
C2381 C 0.02503 0.31401 0.9528 0.0
C2382 C 0.03095 0.2984 0.95004 0.0
C2383 C 0.02518 0.32047 0.965 0.0
C2384 C 0.05166 0.32519 0.99418 0.0
H2385 H 0.00886 0.3195 0.05344 0.0
H2386 H 0.01326 0.33108 0.03181 0.0
H2387 H 0.06614 0.33013 0.01192 0.0
H2388 H 0.04151 0.27731 0.95803 0.0
H2389 H 0.04227 0.28894 0.97895 0.0
H2390 H 0.99866 0.30861 0.98866 0.0
C2391 C 0.01991 0.32118 0.03488 0.0
C2392 C 0.05143 0.32598 0.00695 0.0
C2393 C 0.01749 0.31466 0.04721 0.0
C2394 C 0.03692 0.28941 0.95971 0.0
C2395 C 0.03747 0.29613 0.97174 0.0
C2396 C 0.01361 0.31409 0.99366 0.0
C2397 C 0.03064 0.31469 0.02656 0.0
C2398 C 0.03204 0.3197 0.01327 0.0
C2399 C 0.03174 0.31176 0.97451 0.0
C2400 C 0.03255 0.31828 0.98746 0.0
H2401 H 0.0425 0.28465 0.04584 0.0
H2402 H 0.04703 0.29621 0.02461 0.0
H2403 H 0.99816 0.30979 0.01116 0.0
H2404 H 0.02026 0.32118 0.94558 0.0
H2405 H 0.02055 0.33246 0.96697 0.0
C2406 C 0.73454 0.7388 0.9542 0.0
C2407 C 0.75592 0.75163 0.95005 0.0
C2408 C 0.73043 0.73183 0.96646 0.0
C2409 C 0.75649 0.72483 0.99411 0.0
H2410 H 0.7227 0.74381 0.01269 0.0
C2411 C 0.7788 0.75794 0.04224 0.0
C2412 C 0.76298 0.75153 0.05145 0.0
C2413 C 0.77302 0.7513 0.03015 0.0
C2414 C 0.73173 0.73789 0.00761 0.0
H2415 H 0.78966 0.76626 0.95519 0.0
H2416 H 0.78259 0.75386 0.97631 0.0
H2417 H 0.72119 0.74334 0.99022 0.0
H2418 H 0.72852 0.73317 0.05507 0.0
H2419 H 0.71832 0.72205 0.0336 0.0
H2420 H 0.76813 0.72074 0.01141 0.0
C2421 C 0.76896 0.74919 0.97023 0.0
C2422 C 0.73086 0.73761 0.99476 0.0
C2423 C 0.77303 0.75644 0.95814 0.0
C2424 C 0.7411 0.73831 0.04821 0.0
C2425 C 0.73525 0.73196 0.03595 0.0
C2426 C 0.75738 0.72515 0.00689 0.0
C2427 C 0.74766 0.73716 0.97461 0.0
C2428 C 0.74406 0.73207 0.9879 0.0
C2429 C 0.75124 0.73831 0.02685 0.0
C2430 C 0.74581 0.73266 0.01374 0.0
H2431 H 0.72107 0.73501 0.94815 0.0
H2432 H 0.71387 0.7226 0.96961 0.0
H2433 H 0.76655 0.72013 0.98905 0.0
H2434 H 0.7958 0.76817 0.0443 0.0
H2435 H 0.78566 0.75679 0.0233 0.0
C2436 C 0.28137 0.01518 0.96039 0.0
C2437 C 0.29626 0.02116 0.95068 0.0
C2438 C 0.2876 0.01462 0.9724 0.0
C2439 C 0.32867 0.03848 0.99444 0.0
H2440 H 0.29309 0.98518 0.01228 0.0
C2441 C 0.32389 0.03447 0.04781 0.0
C2442 C 0.30234 0.0257 0.05172 0.0
C2443 C 0.32849 0.03211 0.03557 0.0
C2444 C 0.30339 0.00012 0.00743 0.0
H2445 H 0.32971 0.03187 0.94616 0.0
H2446 H 0.34082 0.03156 0.96755 0.0
H2447 H 0.29193 0.98523 0.98991 0.0
H2448 H 0.26881 0.00673 0.04613 0.0
H2449 H 0.27673 0.0023 0.02504 0.0
H2450 H 0.33879 0.05373 0.01205 0.0
C2451 C 0.32419 0.02693 0.9656 0.0
C2452 C 0.3028 0.00011 0.99465 0.0
C2453 C 0.31782 0.0271 0.95341 0.0
C2454 C 0.28557 0.01371 0.04338 0.0
C2455 C 0.29012 0.01104 0.0313 0.0
C2456 C 0.3292 0.03852 0.0073 0.0
C2457 C 0.30896 0.02034 0.97513 0.0
C2458 C 0.31465 0.01946 0.98808 0.0
C2459 C 0.31159 0.02051 0.02718 0.0
C2460 C 0.31571 0.01952 0.01391 0.0
H2461 H 0.26465 0.01057 0.95876 0.0
H2462 H 0.27564 0.00978 0.97963 0.0
H2463 H 0.33782 0.05362 0.98955 0.0
H2464 H 0.33712 0.04393 0.05405 0.0
H2465 H 0.34518 0.03961 0.03262 0.0
C2466 C 0.04652 0.75659 0.95863 0.0
C2467 C 0.02848 0.74956 0.95097 0.0
C2468 C 0.04389 0.75099 0.97104 0.0
C2469 C 0.00375 0.73879 0.99509 0.0
H2470 H 0.0468 0.73626 0.01561 0.0
C2471 C 0.01913 0.77041 0.04404 0.0
C2472 C 0.02227 0.75872 0.05342 0.0
C2473 C 0.01807 0.76441 0.0318 0.0
C2474 C 0.03445 0.73659 0.01002 0.0
H2475 H 0.99367 0.73003 0.94988 0.0
H2476 H 0.98892 0.71974 0.9716 0.0
H2477 H 0.04781 0.73227 0.99336 0.0
H2478 H 0.02718 0.73162 0.05712 0.0
H2479 H 0.02556 0.72124 0.03551 0.0
H2480 H 0.99069 0.74359 0.01165 0.0
C2481 C 0.00514 0.72988 0.9681 0.0
C2482 C 0.03512 0.7345 0.99726 0.0
C2483 C 0.00781 0.73555 0.95566 0.0
C2484 C 0.02473 0.74099 0.05015 0.0
C2485 C 0.02382 0.73505 0.03779 0.0
C2486 C 0.0031 0.74088 0.00779 0.0
C2487 C 0.0231 0.73824 0.97605 0.0
C2488 C 0.02017 0.73627 0.98961 0.0
C2489 C 0.02019 0.74656 0.02851 0.0
C2490 C 0.01888 0.74059 0.01535 0.0
H2491 H 0.06263 0.76724 0.95516 0.0
H2492 H 0.0581 0.75787 0.97685 0.0
H2493 H 0.99208 0.74044 0.98955 0.0
H2494 H 0.01723 0.7842 0.04611 0.0
H2495 H 0.01575 0.77392 0.02487 0.0
C2496 C 0.32365 0.31282 0.04781 0.0
C2497 C 0.30205 0.30375 0.0516 0.0
C2498 C 0.32919 0.31854 0.03549 0.0
C2499 C 0.32699 0.307 0.00796 0.0
H2500 H 0.30363 0.3354 0.98792 0.0
C2501 C 0.29612 0.28232 0.95886 0.0
C2502 C 0.30097 0.2984 0.95001 0.0
C2503 C 0.30278 0.28791 0.97099 0.0
C2504 C 0.31064 0.32779 0.99339 0.0
H2505 H 0.2696 0.29476 0.04587 0.0
H2506 H 0.27935 0.3054 0.02452 0.0
H2507 H 0.30325 0.33806 0.0103 0.0
H2508 H 0.31702 0.33295 0.94682 0.0
H2509 H 0.32812 0.34277 0.96828 0.0
H2510 H 0.33293 0.29544 0.99109 0.0
C2511 C 0.29198 0.30797 0.03095 0.0
C2512 C 0.31034 0.32924 0.00617 0.0
C2513 C 0.28638 0.3018 0.04314 0.0
C2514 C 0.31319 0.32025 0.95346 0.0
C2515 C 0.31946 0.32585 0.96571 0.0
C2516 C 0.32697 0.30527 0.99519 0.0
C2517 C 0.31328 0.31577 0.02691 0.0
C2518 C 0.3179 0.3183 0.01358 0.0
C2519 C 0.31408 0.3097 0.9746 0.0
C2520 C 0.31818 0.31509 0.98781 0.0
H2521 H 0.33593 0.31424 0.05418 0.0
H2522 H 0.34571 0.32446 0.03258 0.0
H2523 H 0.33274 0.29826 0.01345 0.0
H2524 H 0.28677 0.26536 0.95645 0.0
H2525 H 0.29819 0.27513 0.97768 0.0
C2526 C 0.7733 0.04253 0.9582 0.0
C2527 C 0.75593 0.03081 0.95016 0.0
C2528 C 0.76962 0.04549 0.9704 0.0
C2529 C 0.73175 0.01943 0.99513 0.0
H2530 H 0.77015 0.07323 0.01178 0.0
C2531 C 0.74236 0.02944 0.04862 0.0
C2532 C 0.76419 0.0377 0.05187 0.0
C2533 C 0.73656 0.02975 0.03634 0.0
C2534 C 0.75909 0.05817 0.00726 0.0
H2535 H 0.72102 0.01333 0.94851 0.0
H2536 H 0.71451 0.01816 0.97014 0.0
H2537 H 0.76836 0.07237 0.98943 0.0
H2538 H 0.79695 0.05281 0.04466 0.0
H2539 H 0.78689 0.0537 0.0236 0.0
H2540 H 0.72343 0.00505 0.01305 0.0
C2541 C 0.73098 0.0252 0.96686 0.0
C2542 C 0.75809 0.05767 0.99448 0.0
C2543 C 0.7347 0.02255 0.95451 0.0
C2544 C 0.77999 0.04637 0.0426 0.0
C2545 C 0.77426 0.04703 0.03049 0.0
C2546 C 0.73272 0.01995 0.00798 0.0
C2547 C 0.74846 0.0366 0.97494 0.0
C2548 C 0.74521 0.0381 0.98827 0.0
C2549 C 0.75255 0.03878 0.0272 0.0
C2550 C 0.74719 0.03913 0.0141 0.0
H2551 H 0.78984 0.04915 0.95511 0.0
H2552 H 0.78343 0.05407 0.97641 0.0
H2553 H 0.72172 0.00411 0.99058 0.0
H2554 H 0.72979 0.02257 0.05553 0.0
H2555 H 0.71968 0.02316 0.03399 0.0
C2556 C 0.70385 0.65488 0.28576 0.0
C2557 C 0.69248 0.63305 0.2822 0.0
C2558 C 0.70381 0.66059 0.29806 0.0
C2559 C 0.67543 0.64155 0.32759 0.0
H2560 H 0.73236 0.66919 0.3425 0.0
C2561 C 0.71057 0.63409 0.37563 0.0
C2562 C 0.69812 0.63799 0.3841 0.0
C2563 C 0.71154 0.64011 0.36336 0.0
C2564 C 0.71639 0.66181 0.33844 0.0
H2565 H 0.6712 0.60028 0.28843 0.0
H2566 H 0.67054 0.6103 0.30975 0.0
H2567 H 0.72895 0.66704 0.32013 0.0
H2568 H 0.67743 0.65182 0.38653 0.0
H2569 H 0.67859 0.66183 0.36486 0.0
H2570 H 0.66286 0.63549 0.3459 0.0
C2571 C 0.67964 0.62296 0.30313 0.0
C2572 C 0.71444 0.66068 0.32566 0.0
C2573 C 0.68009 0.61722 0.29095 0.0
C2574 C 0.68732 0.64884 0.38019 0.0
C2575 C 0.68789 0.65444 0.36782 0.0
C2576 C 0.67739 0.64301 0.34036 0.0
C2577 C 0.69193 0.64462 0.30687 0.0
C2578 C 0.69393 0.64984 0.32013 0.0
C2579 C 0.69969 0.64975 0.35926 0.0
C2580 C 0.69788 0.65245 0.34591 0.0
H2581 H 0.71369 0.66735 0.2792 0.0
H2582 H 0.71345 0.67739 0.30074 0.0
H2583 H 0.65945 0.63314 0.32354 0.0
H2584 H 0.71901 0.62572 0.37841 0.0
H2585 H 0.72057 0.63609 0.35695 0.0
C2586 C 0.40917 0.06858 0.38277 0.0
C2587 C 0.41997 0.09032 0.3865 0.0
C2588 C 0.40379 0.06325 0.37039 0.0
C2589 C 0.39602 0.0833 0.34083 0.0
H2590 H 0.42488 0.05506 0.32613 0.0
C2591 C 0.43896 0.09026 0.29295 0.0
C2592 C 0.42267 0.08617 0.28438 0.0
C2593 C 0.4338 0.08444 0.30522 0.0
C2594 C 0.41642 0.06262 0.33013 0.0
H2595 H 0.43249 0.12337 0.38048 0.0
H2596 H 0.42244 0.11403 0.35902 0.0
H2597 H 0.42315 0.05699 0.3485 0.0
H2598 H 0.38818 0.07231 0.28181 0.0
H2599 H 0.37915 0.0627 0.30352 0.0
H2600 H 0.39003 0.08967 0.32246 0.0
C2601 C 0.41831 0.10113 0.36557 0.0
C2602 C 0.41533 0.06363 0.3429 0.0
C2603 C 0.42414 0.10649 0.37783 0.0
C2604 C 0.401 0.07541 0.28823 0.0
C2605 C 0.39586 0.07004 0.30062 0.0
C2606 C 0.39676 0.08194 0.32805 0.0
C2607 C 0.40863 0.07954 0.36166 0.0
C2608 C 0.40579 0.07464 0.34836 0.0
C2609 C 0.41228 0.07486 0.30925 0.0
C2610 C 0.40763 0.07225 0.32259 0.0
H2611 H 0.40599 0.05585 0.38926 0.0
H2612 H 0.39636 0.04648 0.36759 0.0
H2613 H 0.38857 0.09187 0.34482 0.0
H2614 H 0.4558 0.0986 0.29021 0.0
H2615 H 0.4468 0.08855 0.3117 0.0
C2616 C 0.94945 0.34425 0.37633 0.0
C2617 C 0.96554 0.35689 0.38489 0.0
C2618 C 0.95481 0.34359 0.3641 0.0
C2619 C 0.97286 0.33932 0.33941 0.0
H2620 H 0.99907 0.3961 0.32437 0.0
C2621 C 0.97994 0.35183 0.28673 0.0
C2622 C 0.96851 0.36207 0.28287 0.0
C2623 C 0.9853 0.35219 0.29913 0.0
C2624 C 0.99209 0.38019 0.32847 0.0
H2625 H -9e-05 0.37828 0.38752 0.0
H2626 H 0.00926 0.37769 0.36589 0.0
H2627 H 0.99769 0.39287 0.34675 0.0
H2628 H 0.95481 0.38167 0.2887 0.0
H2629 H 0.96477 0.38288 0.31022 0.0
H2630 H 0.96648 0.32661 0.32112 0.0
C2631 C 0.99257 0.36801 0.36876 0.0
C2632 C 0.9914 0.37834 0.34124 0.0
C2633 C 0.98724 0.36826 0.3811 0.0
C2634 C 0.9636 0.37363 0.29145 0.0
C2635 C 0.9694 0.37442 0.30374 0.0
C2636 C 0.97389 0.34118 0.32663 0.0
C2637 C 0.97632 0.35593 0.36012 0.0
C2638 C 0.98109 0.35786 0.34682 0.0
C2639 C 0.97982 0.36327 0.30775 0.0
C2640 C 0.98283 0.36161 0.32106 0.0
H2641 H 0.9326 0.33535 0.37903 0.0
H2642 H 0.94195 0.33434 0.35761 0.0
H2643 H 0.96482 0.32336 0.34351 0.0
H2644 H 0.98374 0.34265 0.2803 0.0
H2645 H 0.99329 0.34344 0.30203 0.0
C2646 C 0.68076 0.09895 0.3746 0.0
C2647 C 0.68684 0.08923 0.38381 0.0
C2648 C 0.68004 0.09316 0.36236 0.0
C2649 C 0.70336 0.07537 0.33952 0.0
H2650 H 0.65212 0.06386 0.32119 0.0
C2651 C 0.70047 0.07645 0.28602 0.0
C2652 C 0.69375 0.09081 0.28187 0.0
C2653 C 0.69757 0.06986 0.29834 0.0
C2654 C 0.66647 0.06682 0.32617 0.0
H2655 H 0.69751 0.06609 0.38721 0.0
H2656 H 0.69687 0.05642 0.36546 0.0
H2657 H 0.65147 0.06429 0.34355 0.0
H2658 H 0.67791 0.10871 0.28718 0.0
H2659 H 0.67259 0.09708 0.30842 0.0
H2660 H 0.71879 0.07934 0.32206 0.0
C2661 C 0.69232 0.06829 0.36795 0.0
C2662 C 0.66607 0.06701 0.33896 0.0
C2663 C 0.69267 0.07382 0.38036 0.0
C2664 C 0.68334 0.09771 0.2901 0.0
C2665 C 0.68013 0.0909 0.30227 0.0
C2666 C 0.70378 0.07526 0.32666 0.0
C2667 C 0.68567 0.07773 0.35889 0.0
C2668 C 0.68478 0.07223 0.34573 0.0
C2669 C 0.68745 0.07715 0.3066 0.0
C2670 C 0.68562 0.07197 0.31989 0.0
H2671 H 0.67623 0.11094 0.37681 0.0
H2672 H 0.67522 0.10097 0.35553 0.0
H2673 H 0.718 0.0795 0.34456 0.0
H2674 H 0.70867 0.07099 0.27987 0.0
H2675 H 0.70338 0.05928 0.30145 0.0
C2676 C 0.98685 0.64538 0.38195 0.0
C2677 C 0.96519 0.63493 0.38583 0.0
C2678 C 0.99201 0.65095 0.36958 0.0
C2679 C 0.9909 0.63968 0.34207 0.0
H2680 H 0.96474 0.66528 0.32197 0.0
C2681 C 0.96325 0.61581 0.29231 0.0
C2682 C 0.9674 0.63206 0.28371 0.0
C2683 C 0.96909 0.62103 0.30458 0.0
C2684 C 0.9725 0.65846 0.32747 0.0
H2685 H 0.93215 0.62331 0.38009 0.0
H2686 H 0.94119 0.63365 0.35864 0.0
H2687 H 0.96325 0.66698 0.34436 0.0
H2688 H 0.98136 0.66657 0.28109 0.0
H2689 H 0.99101 0.67569 0.30278 0.0
H2690 H 0.99882 0.62984 0.32518 0.0
C2691 C 0.95416 0.63737 0.36507 0.0
C2692 C 0.97155 0.65934 0.34026 0.0
C2693 C 0.94897 0.63137 0.37733 0.0
C2694 C 0.97816 0.65376 0.28753 0.0
C2695 C 0.98356 0.65896 0.29991 0.0
C2696 C 0.99152 0.63847 0.32929 0.0
C2697 C 0.97563 0.64664 0.361 0.0
C2698 C 0.98023 0.64945 0.34767 0.0
C2699 C 0.9788 0.64258 0.30856 0.0
C2700 C 0.98182 0.64735 0.32188 0.0
H2701 H 0.99962 0.6481 0.38831 0.0
H2702 H 0.00868 0.65806 0.36665 0.0
H2703 H 0.99756 0.63176 0.34756 0.0
H2704 H 0.95498 0.59895 0.2896 0.0
H2705 H 0.96502 0.60806 0.31108 0.0
C2706 C 0.42665 0.34777 0.37601 0.0
C2707 C 0.42061 0.35885 0.38428 0.0
C2708 C 0.41975 0.34488 0.36386 0.0
C2709 C 0.40624 0.37079 0.33974 0.0
H2710 H 0.39387 0.31861 0.32219 0.0
C2711 C 0.40611 0.36005 0.28581 0.0
C2712 C 0.42206 0.35473 0.28276 0.0
C2713 C 0.40003 0.35975 0.2981 0.0
C2714 C 0.39691 0.33316 0.32698 0.0
H2715 H 0.40217 0.37521 0.38641 0.0
H2716 H 0.39032 0.37048 0.36488 0.0
H2717 H 0.39252 0.31826 0.34456 0.0
H2718 H 0.44431 0.34532 0.29039 0.0
H2719 H 0.43338 0.34437 0.31147 0.0
H2720 H 0.41179 0.38592 0.32202 0.0
C2721 C 0.40027 0.36388 0.36793 0.0
C2722 C 0.39623 0.333 0.33976 0.0
C2723 C 0.40693 0.36646 0.38023 0.0
C2724 C 0.43191 0.34943 0.29227 0.0
C2725 C 0.4256 0.34876 0.3044 0.0
C2726 C 0.40682 0.37091 0.32688 0.0
C2727 C 0.40682 0.35322 0.3596 0.0
C2728 C 0.40195 0.35208 0.34629 0.0
C2729 C 0.4095 0.35368 0.30744 0.0
C2730 C 0.40315 0.35234 0.32046 0.0
H2731 H 0.43715 0.34168 0.37887 0.0
H2732 H 0.42537 0.3369 0.35765 0.0
H2733 H 0.4108 0.38575 0.34453 0.0
H2734 H 0.39824 0.36428 0.27872 0.0
H2735 H 0.38765 0.36375 0.30029 0.0
C2736 C 0.3515 0.98315 0.71299 0.0
C2737 C 0.36259 0.97286 0.71732 0.0
C2738 C 0.35375 0.98992 0.70071 0.0
C2739 C 0.3882 0.00046 0.67314 0.0
H2740 H 0.33466 0.97388 0.65461 0.0
C2741 C 0.3799 0.96276 0.62656 0.0
C2742 C 0.37089 0.9683 0.6167 0.0
C2743 C 0.37962 0.96991 0.63839 0.0
C2744 C 0.34973 0.98191 0.65966 0.0
H2745 H 0.38552 0.96261 0.71256 0.0
H2746 H 0.38982 0.97469 0.69141 0.0
H2747 H 0.33358 0.97572 0.67703 0.0
H2748 H 0.35405 0.98541 0.61171 0.0
H2749 H 0.35287 0.99731 0.63276 0.0
H2750 H 0.40422 0.00505 0.65588 0.0
C2751 C 0.37936 0.97758 0.69734 0.0
C2752 C 0.34914 0.983 0.67249 0.0
C2753 C 0.3768 0.97051 0.70944 0.0
C2754 C 0.36122 0.98095 0.61908 0.0
C2755 C 0.36053 0.98776 0.63108 0.0
C2756 C 0.38877 0.99926 0.66039 0.0
C2757 C 0.36753 0.98692 0.69273 0.0
C2758 C 0.36833 0.9913 0.67937 0.0
C2759 C 0.36999 0.98246 0.64078 0.0
C2760 C 0.3695 0.98905 0.65359 0.0
H2761 H 0.3403 0.98494 0.7189 0.0
H2762 H 0.34442 0.99703 0.69738 0.0
H2763 H 0.40326 0.00727 0.67819 0.0
H2764 H 0.38738 0.95297 0.62517 0.0
H2765 H 0.3867 0.9653 0.64575 0.0
C2766 C 0.0887 0.43908 0.7096 0.0
C2767 C 0.08459 0.42313 0.71841 0.0
C2768 C 0.08225 0.43337 0.69744 0.0
C2769 C 0.07675 0.39436 0.67501 0.0
H2770 H 0.0523 0.42152 0.65482 0.0
C2771 C 0.06176 0.40667 0.6205 0.0
C2772 C 0.08334 0.41662 0.61656 0.0
C2773 C 0.05668 0.4013 0.6329 0.0
C2774 C 0.05875 0.41345 0.66035 0.0
H2775 H 0.07007 0.38867 0.7215 0.0
H2776 H 0.05934 0.37869 0.70002 0.0
H2777 H 0.05196 0.42445 0.67718 0.0
H2778 H 0.11631 0.42757 0.62215 0.0
H2779 H 0.1074 0.41752 0.64364 0.0
H2780 H 0.08492 0.38468 0.65816 0.0
C2781 C 0.06724 0.39557 0.70264 0.0
C2782 C 0.05867 0.41524 0.67312 0.0
C2783 C 0.07328 0.40127 0.71491 0.0
C2784 C 0.09954 0.41984 0.62499 0.0
C2785 C 0.09442 0.41401 0.63726 0.0
C2786 C 0.07716 0.39287 0.66224 0.0
C2787 C 0.07194 0.41162 0.69378 0.0
C2788 C 0.06823 0.40624 0.68055 0.0
C2789 C 0.07306 0.4053 0.64142 0.0
C2790 C 0.06871 0.40293 0.65478 0.0
H2791 H 0.09737 0.45605 0.71205 0.0
H2792 H 0.0863 0.44609 0.69078 0.0
H2793 H 0.08438 0.38741 0.68052 0.0
H2794 H 0.04905 0.40428 0.61418 0.0
H2795 H 0.04009 0.39465 0.63591 0.0
C2796 C 0.64883 0.69535 0.71566 0.0
C2797 C 0.63308 0.70113 0.71835 0.0
C2798 C 0.65567 0.69587 0.7035 0.0
C2799 C 0.66138 0.72321 0.67454 0.0
H2800 H 0.6454 0.67005 0.65703 0.0
C2801 C 0.63224 0.70973 0.62545 0.0
C2802 C 0.63736 0.69784 0.61724 0.0
C2803 C 0.63918 0.71249 0.63758 0.0
C2804 C 0.65057 0.68515 0.66181 0.0
H2805 H 0.61217 0.71183 0.71025 0.0
H2806 H 0.62446 0.71323 0.68943 0.0
H2807 H 0.64385 0.66986 0.67952 0.0
H2808 H 0.65427 0.67993 0.61519 0.0
H2809 H 0.66618 0.68442 0.63672 0.0
H2810 H 0.66692 0.73832 0.65695 0.0
C2811 C 0.63146 0.70826 0.69666 0.0
C2812 C 0.64967 0.68501 0.67467 0.0
C2813 C 0.62436 0.70733 0.70864 0.0
C2814 C 0.65024 0.68931 0.62133 0.0
C2815 C 0.65693 0.69176 0.63363 0.0
C2816 C 0.6624 0.72338 0.66176 0.0
C2817 C 0.64721 0.70267 0.69397 0.0
C2818 C 0.65407 0.70384 0.68106 0.0
C2819 C 0.65123 0.7032 0.6419 0.0
C2820 C 0.65591 0.70413 0.65523 0.0
H2821 H 0.65581 0.69042 0.72291 0.0
H2822 H 0.66775 0.69135 0.70158 0.0
H2823 H 0.66497 0.73795 0.6793 0.0
H2824 H 0.62237 0.71653 0.62255 0.0
H2825 H 0.63421 0.7211 0.64374 0.0
C2826 C 0.37398 0.43669 0.70926 0.0
C2827 C 0.36157 0.42087 0.71802 0.0
C2828 C 0.37509 0.43085 0.6972 0.0
C2829 C 0.34185 0.39221 0.67461 0.0
H2830 H 0.39409 0.41935 0.65493 0.0
C2831 C 0.3465 0.42062 0.6252 0.0
C2832 C 0.35963 0.41781 0.6167 0.0
C2833 C 0.34528 0.41387 0.63732 0.0
C2834 C 0.37939 0.41125 0.66031 0.0
H2835 H 0.34103 0.38649 0.72114 0.0
H2836 H 0.34241 0.37626 0.69977 0.0
H2837 H 0.39672 0.42146 0.67732 0.0
H2838 H 0.38129 0.4052 0.614 0.0
H2839 H 0.37974 0.39395 0.63548 0.0
H2840 H 0.32448 0.3834 0.65759 0.0
C2841 C 0.35155 0.39314 0.70238 0.0
C2842 C 0.3809 0.41257 0.6731 0.0
C2843 C 0.35084 0.39898 0.71457 0.0
C2844 C 0.37089 0.40733 0.62039 0.0
C2845 C 0.37009 0.40101 0.63264 0.0
C2846 C 0.34033 0.39118 0.66182 0.0
C2847 C 0.36347 0.40909 0.69356 0.0
C2848 C 0.36212 0.40369 0.68035 0.0
C2849 C 0.35755 0.40459 0.64126 0.0
C2850 C 0.35908 0.40131 0.65456 0.0
H2851 H 0.38243 0.45368 0.71169 0.0
H2852 H 0.38417 0.44349 0.69056 0.0
H2853 H 0.32712 0.38535 0.67998 0.0
H2854 H 0.33769 0.42869 0.62256 0.0
H2855 H 0.33571 0.41708 0.64378 0.0
C2856 C 0.65975 0.98129 0.7134 0.0
C2857 C 0.63806 0.97242 0.71699 0.0
C2858 C 0.66568 0.98687 0.7011 0.0
C2859 C 0.66464 0.97605 0.67346 0.0
H2860 H 0.64192 0.0049 0.6533 0.0
C2861 C 0.63572 0.95276 0.62395 0.0
C2862 C 0.64016 0.969 0.61527 0.0
C2863 C 0.64228 0.95809 0.63611 0.0
C2864 C 0.64877 0.99718 0.6588 0.0
H2865 H 0.60585 0.96359 0.71084 0.0
H2866 H 0.61626 0.97396 0.68953 0.0
H2867 H 0.64058 0.00681 0.67567 0.0
H2868 H 0.65549 0.00358 0.6124 0.0
H2869 H 0.66649 0.01294 0.63393 0.0
H2870 H 0.67144 0.96516 0.6566 0.0
C2871 C 0.62867 0.97645 0.69612 0.0
C2872 C 0.64789 0.99818 0.67159 0.0
C2873 C 0.62269 0.97042 0.70828 0.0
C2874 C 0.65203 0.99077 0.6189 0.0
C2875 C 0.65821 0.99611 0.63119 0.0
C2876 C 0.66522 0.97478 0.66067 0.0
C2877 C 0.65009 0.98419 0.69232 0.0
C2878 C 0.6552 0.98706 0.67903 0.0
C2879 C 0.65308 0.97977 0.63994 0.0
C2880 C 0.65667 0.98477 0.65323 0.0
H2881 H 0.67183 0.98277 0.71995 0.0
H2882 H 0.68228 0.99275 0.69838 0.0
H2883 H 0.67023 0.96719 0.67897 0.0
H2884 H 0.6266 0.93585 0.62139 0.0
H2885 H 0.63788 0.94515 0.64267 0.0
C2886 C 0.0873 0.6768 0.70942 0.0
C2887 C 0.08325 0.6898 0.71738 0.0
C2888 C 0.08068 0.67423 0.69722 0.0
C2889 C 0.07275 0.70314 0.67247 0.0
H2890 H 0.05429 0.64897 0.65548 0.0
C2891 C 0.07506 0.69313 0.6189 0.0
C2892 C 0.08823 0.6842 0.61612 0.0
C2893 C 0.06841 0.69316 0.63104 0.0
C2894 C 0.05911 0.66415 0.66009 0.0
H2895 H 0.06859 0.70991 0.71893 0.0
H2896 H 0.05728 0.70574 0.6973 0.0
H2897 H 0.05225 0.64931 0.67781 0.0
H2898 H 0.10469 0.66836 0.62403 0.0
H2899 H 0.09273 0.66799 0.6448 0.0
H2900 H 0.08073 0.71806 0.65466 0.0
C2901 C 0.06542 0.69738 0.70063 0.0
C2902 C 0.058 0.66436 0.67286 0.0
C2903 C 0.07175 0.69965 0.71299 0.0
C2904 C 0.09449 0.6753 0.62571 0.0
C2905 C 0.08754 0.67496 0.63766 0.0
C2906 C 0.07378 0.7029 0.65963 0.0
C2907 C 0.07007 0.68482 0.6926 0.0
C2908 C 0.06583 0.68399 0.67922 0.0
C2909 C 0.07441 0.68379 0.64047 0.0
C2910 C 0.06794 0.68353 0.6534 0.0
H2911 H 0.09611 0.669 0.71256 0.0
H2912 H 0.08482 0.66472 0.69125 0.0
H2913 H 0.07896 0.71851 0.67712 0.0
H2914 H 0.07003 0.70018 0.61175 0.0
H2915 H 0.0584 0.70021 0.63303 0.0
C2916 C 0.82298 0.09718 0.10236 0.0
C2917 C 0.80681 0.09187 0.09356 0.0
C2918 C 0.84008 0.11841 0.10338 0.0
C2919 C 0.86906 0.16761 0.08453 0.0
H2920 H 0.8992 0.19291 0.11496 0.0
C2921 C 0.94655 0.25088 0.08515 0.0
C2922 C 0.96357 0.25183 0.09202 0.0
C2923 C 0.92563 0.23325 0.08642 0.0
C2924 C 0.89102 0.18602 0.10638 0.0
H2925 H 0.79409 0.10454 0.07993 0.0
H2926 H 0.82396 0.14179 0.08164 0.0
H2927 H 0.8654 0.15846 0.11536 0.0
H2928 H 0.97209 0.23681 0.10653 0.0
H2929 H 0.93574 0.20574 0.10862 0.0
H2930 H 0.89478 0.19488 0.07551 0.0
C2931 C 0.82398 0.12953 0.08747 0.0
C2932 C 0.87165 0.16626 0.10661 0.0
C2933 C 0.80688 0.10829 0.08649 0.0
C2934 C 0.95922 0.23591 0.10085 0.0
C2935 C 0.93835 0.21833 0.10217 0.0
C2936 C 0.8884 0.18733 0.0843 0.0
C2937 C 0.8411 0.13473 0.09568 0.0
C2938 C 0.86061 0.15665 0.09566 0.0
C2939 C 0.92139 0.21652 0.09476 0.0
C2940 C 0.89981 0.19661 0.0952 0.0
H2941 H 0.82269 0.0848 0.10823 0.0
H2942 H 0.85296 0.12177 0.10979 0.0
H2943 H 0.86118 0.16059 0.07589 0.0
H2944 H 0.94956 0.26341 0.07855 0.0
H2945 H 0.91285 0.23258 0.08076 0.0
C2946 C 0.96377 0.75862 0.10562 0.0
C2947 C 0.96752 0.74818 0.09586 0.0
C2948 C 0.94308 0.75542 0.10769 0.0
C2949 C 0.88502 0.72118 0.09826 0.0
H2950 H 0.88305 0.77248 0.10745 0.0
C2951 C 0.81037 0.72968 0.08832 0.0
C2952 C 0.80738 0.74472 0.09498 0.0
C2953 C 0.82845 0.72747 0.09053 0.0
C2954 C 0.88303 0.75783 0.10497 0.0
H2955 H 0.95276 0.72515 0.08112 0.0
H2956 H 0.91679 0.72045 0.08415 0.0
H2957 H 0.91706 0.77339 0.10746 0.0
H2958 H 0.81898 0.76726 0.11013 0.0
H2959 H 0.84979 0.76259 0.11457 0.0
H2960 H 0.85078 0.70564 0.09582 0.0
C2961 C 0.92954 0.7308 0.09043 0.0
C2962 C 0.9028 0.75838 0.10497 0.0
C2963 C 0.95018 0.73366 0.08855 0.0
C2964 C 0.82152 0.75613 0.10459 0.0
C2965 C 0.83923 0.75348 0.10707 0.0
C2966 C 0.86515 0.72061 0.09827 0.0
C2967 C 0.92575 0.74186 0.09994 0.0
C2968 C 0.90423 0.74029 0.10127 0.0
C2969 C 0.84341 0.73965 0.09981 0.0
C2970 C 0.86396 0.73917 0.10126 0.0
H2971 H 0.97688 0.76932 0.11162 0.0
H2972 H 0.94079 0.76376 0.11531 0.0
H2973 H 0.88528 0.70664 0.09578 0.0
H2974 H 0.79931 0.72043 0.08101 0.0
H2975 H 0.83107 0.71685 0.0846 0.0
C2976 C 0.30079 0.09472 0.09923 0.0
C2977 C 0.3122 0.091 0.09002 0.0
C2978 C 0.30269 0.11502 0.10051 0.0
C2979 C 0.33477 0.17272 0.09032 0.0
H2980 H 0.28157 0.17176 0.09848 0.0
C2981 C 0.32407 0.24727 0.08327 0.0
C2982 C 0.30892 0.2491 0.09055 0.0
C2983 C 0.32642 0.22901 0.08425 0.0
C2984 C 0.29672 0.17258 0.09631 0.0
H2985 H 0.33558 0.10557 0.07542 0.0
H2986 H 0.3381 0.14095 0.07711 0.0
H2987 H 0.28234 0.1386 0.0984 0.0
H2988 H 0.28608 0.23492 0.10544 0.0
H2989 H 0.29088 0.20371 0.10771 0.0
H2990 H 0.34916 0.207 0.08839 0.0
C2991 C 0.32794 0.12839 0.08353 0.0
C2992 C 0.29714 0.15331 0.09624 0.0
C2993 C 0.32637 0.10811 0.08245 0.0
C2994 C 0.29734 0.23337 0.09945 0.0
C2995 C 0.30005 0.21544 0.10067 0.0
C2996 C 0.33438 0.19213 0.09045 0.0
C2997 C 0.31586 0.13202 0.09248 0.0
C2998 C 0.31605 0.15299 0.0931 0.0
C2999 C 0.31418 0.21264 0.09285 0.0
C3000 C 0.31523 0.1923 0.0933 0.0
H3001 H 0.29029 0.08184 0.10542 0.0
H3002 H 0.29365 0.11726 0.10776 0.0
H3003 H 0.34981 0.17324 0.08815 0.0
H3004 H 0.33345 0.25954 0.0765 0.0
H3005 H 0.33729 0.22746 0.07797 0.0
C3006 C 0.24437 0.94651 0.91761 0.0
C3007 C 0.24681 0.96365 0.91024 0.0
C3008 C 0.22606 0.92601 0.91637 0.0
C3009 C 0.17026 0.89998 0.90373 0.0
H3010 H 0.1702 0.84718 0.91189 0.0
C3011 C 0.09112 0.81898 0.9023 0.0
C3012 C 0.0878 0.80383 0.91142 0.0
C3013 C 0.11153 0.83702 0.90056 0.0
C3014 C 0.16984 0.86179 0.90974 0.0
H3015 H 0.2337 0.97268 0.89496 0.0
H3016 H 0.20226 0.93683 0.89235 0.0
H3017 H 0.20417 0.88135 0.91166 0.0
H3018 H 0.1031 0.79451 0.92533 0.0
H3019 H 0.13865 0.82683 0.92296 0.0
H3020 H 0.1362 0.88084 0.90189 0.0
C3021 C 0.21362 0.93922 0.89958 0.0
C3022 C 0.18939 0.88145 0.90959 0.0
C3023 C 0.23165 0.95976 0.90102 0.0
C3024 C 0.10536 0.80631 0.91839 0.0
C3025 C 0.12575 0.82471 0.91689 0.0
C3026 C 0.15081 0.88045 0.90393 0.0
C3027 C 0.21025 0.92215 0.90745 0.0
C3028 C 0.18981 0.90089 0.90678 0.0
C3029 C 0.12905 0.84052 0.90807 0.0
C3030 C 0.15019 0.86107 0.90712 0.0
H3031 H 0.2562 0.94919 0.92463 0.0
H3032 H 0.22401 0.91344 0.9227 0.0
H3033 H 0.16972 0.91443 0.90148 0.0
H3034 H 0.07784 0.81691 0.89655 0.0
H3035 H 0.11343 0.84829 0.89337 0.0
C3036 C 0.24442 0.32086 0.91793 0.0
C3037 C 0.24749 0.30667 0.91047 0.0
C3038 C 0.22588 0.32262 0.91658 0.0
C3039 C 0.17062 0.29272 0.90307 0.0
H3040 H 0.16975 0.34503 0.91126 0.0
C3041 C 0.09147 0.29472 0.90004 0.0
C3042 C 0.08758 0.30595 0.90928 0.0
C3043 C 0.11197 0.29708 0.89868 0.0
C3044 C 0.16962 0.33019 0.90908 0.0
H3045 H 0.23518 0.2849 0.89499 0.0
H3046 H 0.20336 0.28857 0.89218 0.0
H3047 H 0.20381 0.34508 0.91164 0.0
H3048 H 0.10199 0.32956 0.92379 0.0
H3049 H 0.13759 0.33281 0.922 0.0
H3050 H 0.13669 0.27782 0.9004 0.0
C3051 C 0.21441 0.29749 0.89955 0.0
C3052 C 0.18922 0.33021 0.9093 0.0
C3053 C 0.23266 0.2954 0.9011 0.0
C3054 C 0.10467 0.32045 0.91675 0.0
C3055 C 0.1251 0.32246 0.91559 0.0
C3056 C 0.15112 0.29271 0.90282 0.0
C3057 C 0.21046 0.31074 0.90745 0.0
C3058 C 0.18993 0.31135 0.9065 0.0
C3059 C 0.12897 0.31056 0.90664 0.0
C3060 C 0.1502 0.31129 0.90603 0.0
H3061 H 0.25597 0.32999 0.92507 0.0
H3062 H 0.22337 0.3328 0.92293 0.0
H3063 H 0.1703 0.27782 0.90087 0.0
H3064 H 0.07859 0.28402 0.89391 0.0
H3065 H 0.11436 0.28815 0.89142 0.0
C3066 C 0.7543 0.821 0.90268 0.0
C3067 C 0.74364 0.80596 0.91205 0.0
C3068 C 0.75174 0.83902 0.90146 0.0
C3069 C 0.7193 0.86379 0.91261 0.0
H3070 H 0.77088 0.9163 0.90272 0.0
C3071 C 0.72925 0.94878 0.91965 0.0
C3072 C 0.74292 0.96535 0.91164 0.0
C3073 C 0.72727 0.92831 0.91875 0.0
C3074 C 0.7562 0.90188 0.90542 0.0
H3075 H 0.72088 0.79684 0.927 0.0
H3076 H 0.71736 0.82913 0.92548 0.0
H3077 H 0.77108 0.88285 0.90289 0.0
H3078 H 0.76342 0.97334 0.89566 0.0
H3079 H 0.75929 0.93754 0.89363 0.0
H3080 H 0.70454 0.88324 0.91516 0.0
C3081 C 0.72737 0.82694 0.91885 0.0
C3082 C 0.7563 0.88245 0.9055 0.0
C3083 C 0.72954 0.80856 0.91985 0.0
C3084 C 0.75335 0.96089 0.90218 0.0
C3085 C 0.75102 0.94038 0.90108 0.0
C3086 C 0.71923 0.88337 0.91256 0.0
C3087 C 0.73873 0.84261 0.90974 0.0
C3088 C 0.73796 0.86311 0.9092 0.0
C3089 C 0.73839 0.92392 0.90954 0.0
C3090 C 0.73779 0.90275 0.90909 0.0
H3091 H 0.76472 0.81885 0.89632 0.0
H3092 H 0.76017 0.85019 0.89406 0.0
H3093 H 0.70466 0.8492 0.91523 0.0
H3094 H 0.72076 0.9519 0.92688 0.0
H3095 H 0.71757 0.91621 0.92551 0.0
C3096 C 0.48904 0.43177 0.43036 0.0
C3097 C 0.47294 0.42626 0.42148 0.0
C3098 C 0.50677 0.45267 0.43083 0.0
C3099 C 0.5383 0.50016 0.41126 0.0
H3100 H 0.56527 0.52727 0.44209 0.0
C3101 C 0.61636 0.58369 0.41344 0.0
C3102 C 0.63237 0.58454 0.42123 0.0
C3103 C 0.59537 0.56591 0.41384 0.0
C3104 C 0.55798 0.51986 0.43341 0.0
H3105 H 0.46142 0.43831 0.40684 0.0
H3106 H 0.49267 0.47511 0.40753 0.0
H3107 H 0.53093 0.49338 0.44219 0.0
H3108 H 0.63896 0.56897 0.43628 0.0
H3109 H 0.60243 0.53782 0.43698 0.0
H3110 H 0.56557 0.52648 0.40249 0.0
C3111 C 0.49189 0.46316 0.41394 0.0
C3112 C 0.53831 0.50045 0.43346 0.0
C3113 C 0.47403 0.44221 0.41355 0.0
C3114 C 0.6269 0.56823 0.42995 0.0
C3115 C 0.60595 0.55058 0.43045 0.0
C3116 C 0.55798 0.5196 0.4112 0.0
C3117 C 0.50862 0.46852 0.42248 0.0
C3118 C 0.52842 0.49018 0.42239 0.0
C3119 C 0.59002 0.54904 0.42226 0.0
C3120 C 0.56821 0.52947 0.42229 0.0
H3121 H 0.4881 0.41977 0.43679 0.0
H3122 H 0.5194 0.45617 0.43745 0.0
H3123 H 0.53123 0.49256 0.40257 0.0
H3124 H 0.62023 0.59648 0.40685 0.0
H3125 H 0.58335 0.56533 0.40755 0.0
C3126 C 0.61359 0.06407 0.41788 0.0
C3127 C 0.63074 0.07807 0.42547 0.0
C3128 C 0.59315 0.0619 0.41937 0.0
C3129 C 0.56745 0.09092 0.43348 0.0
H3130 H 0.51459 0.03969 0.42356 0.0
C3131 C 0.48702 0.09026 0.43516 0.0
C3132 C 0.47227 0.07964 0.42567 0.0
C3133 C 0.50482 0.08742 0.43672 0.0
C3134 C 0.52923 0.05426 0.42621 0.0
H3135 H 0.63981 0.09882 0.4414 0.0
H3136 H 0.60402 0.09433 0.44447 0.0
H3137 H 0.54841 0.03924 0.42364 0.0
H3138 H 0.46339 0.05669 0.41083 0.0
H3139 H 0.49532 0.05272 0.41292 0.0
H3140 H 0.54867 0.1061 0.43595 0.0
C3141 C 0.60637 0.08597 0.43688 0.0
C3142 C 0.5487 0.05399 0.42627 0.0
C3143 C 0.62688 0.08853 0.43517 0.0
C3144 C 0.47491 0.06533 0.41808 0.0
C3145 C 0.49307 0.06289 0.41941 0.0
C3146 C 0.54813 0.09123 0.43336 0.0
C3147 C 0.58933 0.07311 0.42878 0.0
C3148 C 0.56818 0.07249 0.42968 0.0
C3149 C 0.50846 0.07416 0.42867 0.0
C3150 C 0.52875 0.07306 0.42954 0.0
H3151 H 0.61625 0.05555 0.41048 0.0
H3152 H 0.58062 0.05203 0.41285 0.0
H3153 H 0.58192 0.1055 0.43624 0.0
H3154 H 0.48481 0.10084 0.44137 0.0
H3155 H 0.51578 0.09583 0.44422 0.0
C3156 C 0.98852 0.43692 0.41549 0.0
C3157 C 0.97439 0.42011 0.42323 0.0
C3158 C 0.99038 0.45733 0.4164 0.0
C3159 C 0.9607 0.48345 0.42919 0.0
H3160 H 0.013 0.53637 0.42057 0.0
C3161 C 0.96363 0.5648 0.43292 0.0
C3162 C 0.9747 0.58015 0.42375 0.0
C3163 C 0.96578 0.54651 0.43391 0.0
C3164 C 0.99816 0.52172 0.42286 0.0
H3165 H 0.95285 0.41162 0.43877 0.0
H3166 H 0.95672 0.44731 0.44082 0.0
H3167 H 0.01291 0.50223 0.42045 0.0
H3168 H 0.99776 0.5895 0.40894 0.0
H3169 H 0.00068 0.55682 0.41011 0.0
H3170 H 0.94592 0.5026 0.43168 0.0
C3171 C 0.96549 0.44471 0.43355 0.0
C3172 C 0.99811 0.50208 0.42279 0.0
C3173 C 0.9633 0.42426 0.43244 0.0
C3174 C 0.98879 0.57755 0.41593 0.0
C3175 C 0.9906 0.55896 0.41673 0.0
C3176 C 0.96077 0.50297 0.42927 0.0
C3177 C 0.97864 0.46143 0.42535 0.0
C3178 C 0.97927 0.48262 0.42585 0.0
C3179 C 0.97886 0.54301 0.42564 0.0
C3180 C 0.97939 0.52239 0.42599 0.0
H3181 H 0.99752 0.43404 0.40847 0.0
H3182 H 0.0005 0.46964 0.40984 0.0
H3183 H 0.94581 0.46896 0.43153 0.0
H3184 H 0.95321 0.56693 0.4393 0.0
H3185 H 0.95702 0.53506 0.44115 0.0
C3186 C 0.77565 0.14138 0.25095 0.0
C3187 C 0.75957 0.14048 0.24321 0.0
C3188 C 0.79669 0.15902 0.25038 0.0
C3189 C 0.83384 0.20578 0.2309 0.0
H3190 H 0.86038 0.232 0.26197 0.0
C3191 C 0.90242 0.29415 0.23499 0.0
C3192 C 0.91837 0.29933 0.24392 0.0
C3193 C 0.88476 0.27322 0.23423 0.0
C3194 C 0.85338 0.22474 0.25321 0.0
H3195 H 0.75295 0.15567 0.22796 0.0
H3196 H 0.78953 0.18666 0.22701 0.0
H3197 H 0.82649 0.19779 0.26176 0.0
H3198 H 0.92974 0.28669 0.25832 0.0
H3199 H 0.89868 0.24989 0.25712 0.0
H3200 H 0.86061 0.23293 0.22235 0.0
C3201 C 0.78607 0.17403 0.23363 0.0
C3202 C 0.83392 0.20509 0.25309 0.0
C3203 C 0.76506 0.15649 0.23427 0.0
C3204 C 0.91722 0.28305 0.25159 0.0
C3205 C 0.89946 0.26209 0.25091 0.0
C3206 C 0.85331 0.22542 0.23102 0.0
C3207 C 0.80203 0.17577 0.24186 0.0
C3208 C 0.82373 0.19555 0.24194 0.0
C3209 C 0.88285 0.25703 0.24234 0.0
C3210 C 0.86314 0.2353 0.24217 0.0
H3211 H 0.77176 0.12881 0.25769 0.0
H3212 H 0.80872 0.15967 0.25669 0.0
H3213 H 0.82662 0.19867 0.22214 0.0
H3214 H 0.90345 0.30641 0.22873 0.0
H3215 H 0.87222 0.26995 0.22758 0.0
C3216 C 0.91147 0.65519 0.25208 0.0
C3217 C 0.91441 0.64111 0.24445 0.0
C3218 C 0.89291 0.65698 0.25094 0.0
C3219 C 0.83743 0.62714 0.23779 0.0
H3220 H 0.83658 0.67944 0.24604 0.0
C3221 C 0.75852 0.62928 0.23427 0.0
C3222 C 0.75443 0.64064 0.24334 0.0
C3223 C 0.77901 0.63156 0.23315 0.0
C3224 C 0.83644 0.66459 0.24385 0.0
H3225 H 0.90185 0.61958 0.22888 0.0
H3226 H 0.86998 0.62328 0.22645 0.0
H3227 H 0.87068 0.67949 0.24634 0.0
H3228 H 0.76849 0.66432 0.25783 0.0
H3229 H 0.80411 0.66742 0.25649 0.0
H3230 H 0.80347 0.61216 0.23529 0.0
C3231 C 0.88116 0.63209 0.23379 0.0
C3232 C 0.85607 0.66462 0.24402 0.0
C3233 C 0.89944 0.62999 0.23513 0.0
C3234 C 0.77132 0.65513 0.25092 0.0
C3235 C 0.79176 0.65705 0.25002 0.0
C3236 C 0.81792 0.6271 0.23764 0.0
C3237 C 0.87734 0.64521 0.24186 0.0
C3238 C 0.85677 0.64579 0.24113 0.0
C3239 C 0.79581 0.64504 0.24122 0.0
C3240 C 0.81702 0.64571 0.24081 0.0
H3241 H 0.92314 0.66421 0.2592 0.0
H3242 H 0.8905 0.66707 0.25741 0.0
H3243 H 0.83711 0.61226 0.23553 0.0
H3244 H 0.7458 0.61854 0.22807 0.0
H3245 H 0.78155 0.62257 0.226 0.0
C3246 C 0.41873 0.28965 0.23434 0.0
C3247 C 0.40835 0.29538 0.24323 0.0
C3248 C 0.41515 0.26859 0.23385 0.0
C3249 C 0.39808 0.22116 0.25379 0.0
H3250 H 0.40021 0.19401 0.22345 0.0
C3251 C 0.39397 0.13835 0.25322 0.0
C3252 C 0.40973 0.13764 0.24591 0.0
C3253 C 0.39033 0.1558 0.25226 0.0
C3254 C 0.39968 0.20144 0.232 0.0
H3255 H 0.38445 0.28353 0.25769 0.0
H3256 H 0.3781 0.24651 0.25693 0.0
H3257 H 0.39965 0.22783 0.22276 0.0
H3258 H 0.43249 0.15301 0.23109 0.0
H3259 H 0.42644 0.18365 0.22946 0.0
H3260 H 0.39855 0.19498 0.26303 0.0
C3261 C 0.38954 0.25838 0.25059 0.0
C3262 C 0.39938 0.22082 0.23161 0.0
C3263 C 0.39308 0.27947 0.25102 0.0
C3264 C 0.42073 0.15369 0.23707 0.0
C3265 C 0.41701 0.17102 0.23603 0.0
C3266 C 0.3984 0.20178 0.25418 0.0
C3267 C 0.4009 0.25282 0.24217 0.0
C3268 C 0.39899 0.23113 0.24251 0.0
C3269 C 0.40205 0.17248 0.24376 0.0
C3270 C 0.39958 0.1919 0.2433 0.0
H3271 H 0.43 0.30161 0.22796 0.0
H3272 H 0.42427 0.26496 0.2273 0.0
H3273 H 0.39794 0.22871 0.26237 0.0
H3274 H 0.38494 0.12574 0.25988 0.0
H3275 H 0.37845 0.15631 0.25821 0.0
C3276 C 0.295 0.90019 0.76427 0.0
C3277 C 0.29894 0.91595 0.75543 0.0
C3278 C 0.27461 0.88179 0.76525 0.0
C3279 C 0.2171 0.85734 0.7547 0.0
H3280 H 0.21682 0.80433 0.76249 0.0
C3281 C 0.14181 0.77267 0.74709 0.0
C3282 C 0.13901 0.75591 0.75492 0.0
C3283 C 0.16051 0.793 0.74791 0.0
C3284 C 0.21642 0.8189 0.76037 0.0
H3285 H 0.28469 0.92592 0.74122 0.0
H3286 H 0.24924 0.89311 0.74231 0.0
H3287 H 0.25043 0.83796 0.76263 0.0
H3288 H 0.15205 0.74745 0.77048 0.0
H3289 H 0.18422 0.78297 0.77229 0.0
H3290 H 0.18281 0.83789 0.75243 0.0
C3291 C 0.26164 0.89496 0.7487 0.0
C3292 C 0.2359 0.83841 0.76047 0.0
C3293 C 0.28198 0.91365 0.74795 0.0
C3294 C 0.15433 0.76004 0.76409 0.0
C3295 C 0.17277 0.78039 0.76507 0.0
C3296 C 0.19752 0.8377 0.75456 0.0
C3297 C 0.25775 0.8786 0.75726 0.0
C3298 C 0.23663 0.85794 0.75755 0.0
C3299 C 0.17638 0.79705 0.75683 0.0
C3300 C 0.19696 0.81818 0.7573 0.0
H3301 H 0.30777 0.90207 0.77041 0.0
H3302 H 0.27219 0.87003 0.77224 0.0
H3303 H 0.21685 0.87205 0.7527 0.0
H3304 H 0.1299 0.76982 0.7401 0.0
H3305 H 0.16276 0.80531 0.74133 0.0
C3306 C 0.28219 0.40049 0.74897 0.0
C3307 C 0.29924 0.41484 0.75651 0.0
C3308 C 0.26196 0.39904 0.74984 0.0
C3309 C 0.23662 0.42991 0.76199 0.0
H3310 H 0.18329 0.37738 0.75426 0.0
C3311 C 0.1552 0.42715 0.76578 0.0
C3312 C 0.13972 0.41572 0.75673 0.0
C3313 C 0.17364 0.42522 0.76676 0.0
C3314 C 0.19806 0.39227 0.7563 0.0
H3315 H 0.30834 0.43726 0.77165 0.0
H3316 H 0.27294 0.43415 0.77362 0.0
H3317 H 0.21725 0.37714 0.75426 0.0
H3318 H 0.13032 0.39229 0.74211 0.0
H3319 H 0.16315 0.38967 0.74329 0.0
H3320 H 0.21769 0.44505 0.76413 0.0
C3321 C 0.27522 0.42485 0.76654 0.0
C3322 C 0.2176 0.39215 0.75629 0.0
C3323 C 0.29551 0.42662 0.76548 0.0
C3324 C 0.14236 0.40154 0.74901 0.0
C3325 C 0.16105 0.3999 0.74981 0.0
C3326 C 0.21718 0.43003 0.76201 0.0
C3327 C 0.25826 0.41142 0.75855 0.0
C3328 C 0.23721 0.41105 0.75902 0.0
C3329 C 0.17707 0.41193 0.75862 0.0
C3330 C 0.19762 0.41131 0.75904 0.0
H3331 H 0.28474 0.39098 0.74214 0.0
H3332 H 0.24946 0.38868 0.74343 0.0
H3333 H 0.25124 0.44486 0.76408 0.0
H3334 H 0.15304 0.43763 0.7721 0.0
H3335 H 0.18522 0.43426 0.77389 0.0
C3336 C 0.65429 0.77466 0.75174 0.0
C3337 C 0.63946 0.75737 0.75897 0.0
C3338 C 0.65618 0.79503 0.75293 0.0
C3339 C 0.62564 0.8206 0.76501 0.0
H3340 H 0.67874 0.8736 0.75766 0.0
C3341 C 0.62818 0.90217 0.76633 0.0
C3342 C 0.64052 0.91738 0.75735 0.0
C3343 C 0.63 0.88379 0.76805 0.0
C3344 C 0.66367 0.85893 0.75957 0.0
H3345 H 0.61677 0.74795 0.77399 0.0
H3346 H 0.62058 0.7836 0.7765 0.0
H3347 H 0.67862 0.8395 0.75806 0.0
H3348 H 0.66542 0.92641 0.74364 0.0
H3349 H 0.66778 0.89363 0.746 0.0
H3350 H 0.61056 0.83971 0.7664 0.0
C3351 C 0.62993 0.78141 0.76941 0.0
C3352 C 0.66361 0.83932 0.75981 0.0
C3353 C 0.62774 0.76098 0.76803 0.0
C3354 C 0.65546 0.91455 0.75046 0.0
C3355 C 0.65696 0.8959 0.75195 0.0
C3356 C 0.62565 0.84011 0.76468 0.0
C3357 C 0.64379 0.79862 0.76169 0.0
C3358 C 0.64447 0.81981 0.76232 0.0
C3359 C 0.64407 0.88011 0.76069 0.0
C3360 C 0.64457 0.85955 0.76177 0.0
H3361 H 0.66377 0.7722 0.74485 0.0
H3362 H 0.66685 0.80773 0.74672 0.0
H3363 H 0.61058 0.80608 0.76705 0.0
H3364 H 0.6171 0.90451 0.77204 0.0
H3365 H 0.62028 0.87245 0.77512 0.0
C3366 C 0.58039 0.6147 0.58662 0.0
C3367 C 0.58314 0.63165 0.57897 0.0
C3368 C 0.56196 0.59423 0.58546 0.0
C3369 C 0.50651 0.56846 0.57228 0.0
H3370 H 0.50536 0.51525 0.58075 0.0
C3371 C 0.42714 0.48815 0.56906 0.0
C3372 C 0.42291 0.47261 0.5781 0.0
C3373 C 0.4478 0.50605 0.56782 0.0
C3374 C 0.5053 0.52998 0.57851 0.0
H3375 H 0.57044 0.64037 0.56335 0.0
H3376 H 0.53894 0.60462 0.56086 0.0
H3377 H 0.53955 0.54927 0.58107 0.0
H3378 H 0.43686 0.46244 0.59237 0.0
H3379 H 0.4728 0.49454 0.59089 0.0
H3380 H 0.47259 0.54966 0.56977 0.0
C3381 C 0.55009 0.60711 0.56824 0.0
C3382 C 0.52498 0.54955 0.57868 0.0
C3383 C 0.56818 0.6276 0.5696 0.0
C3384 C 0.43982 0.47457 0.5855 0.0
C3385 C 0.46044 0.49284 0.58451 0.0
C3386 C 0.48697 0.54906 0.57215 0.0
C3387 C 0.54637 0.59025 0.57636 0.0
C3388 C 0.5258 0.56911 0.57569 0.0
C3389 C 0.46463 0.50905 0.57578 0.0
C3390 C 0.48594 0.52951 0.57537 0.0
H3391 H 0.59205 0.61752 0.59376 0.0
H3392 H 0.55964 0.58179 0.59196 0.0
H3393 H 0.50625 0.58303 0.56996 0.0
H3394 H 0.41439 0.4865 0.56299 0.0
H3395 H 0.45041 0.51762 0.56068 0.0
C3396 C 0.43367 0.96768 0.56764 0.0
C3397 C 0.4285 0.97899 0.57621 0.0
C3398 C 0.45485 0.97173 0.56663 0.0
C3399 C 0.50434 0.99223 0.58509 0.0
H3400 H 0.52875 0.98674 0.55448 0.0
C3401 C 0.58711 0.99644 0.5835 0.0
C3402 C 0.5876 0.98031 0.57644 0.0
C3403 C 0.56952 0.99989 0.58263 0.0
C3404 C 0.5221 0.98817 0.56312 0.0
H3405 H 0.44137 0.0049 0.58951 0.0
H3406 H 0.47862 0.01205 0.58786 0.0
H3407 H 0.49461 0.98667 0.55431 0.0
H3408 H 0.57166 0.9567 0.56206 0.0
H3409 H 0.54073 0.9623 0.56065 0.0
H3410 H 0.53148 0.99311 0.59394 0.0
C3411 C 0.46624 0.9996 0.58216 0.0
C3412 C 0.50254 0.98816 0.56302 0.0
C3413 C 0.44502 0.99559 0.5831 0.0
C3414 C 0.57116 0.96875 0.56788 0.0
C3415 C 0.55365 0.97222 0.56695 0.0
C3416 C 0.52385 0.99213 0.5852 0.0
C3417 C 0.47131 0.98736 0.57411 0.0
C3418 C 0.49321 0.98976 0.57403 0.0
C3419 C 0.5524 0.98754 0.57448 0.0
C3420 C 0.53278 0.98973 0.57423 0.0
H3421 H 0.4212 0.9553 0.56194 0.0
H3422 H 0.45809 0.96191 0.56038 0.0
H3423 H 0.49759 0.99339 0.59375 0.0
H3424 H 0.60001 0.00593 0.58992 0.0
H3425 H 0.56926 0.0121 0.58839 0.0
C3426 C 0.08657 0.62195 0.56666 0.0
C3427 C 0.07584 0.6277 0.5753 0.0
C3428 C 0.08185 0.60054 0.56571 0.0
C3429 C 0.06031 0.55126 0.58451 0.0
H3430 H 0.06538 0.52597 0.55413 0.0
C3431 C 0.05545 0.46824 0.58375 0.0
C3432 C 0.07187 0.46779 0.57697 0.0
C3433 C 0.05184 0.48568 0.58256 0.0
C3434 C 0.064 0.53285 0.5627 0.0
H3435 H 0.05017 0.61566 0.58875 0.0
H3436 H 0.04181 0.57804 0.58719 0.0
H3437 H 0.06613 0.56045 0.55368 0.0
H3438 H 0.09582 0.48355 0.56274 0.0
H3439 H 0.08992 0.51421 0.56075 0.0
H3440 H 0.05871 0.52397 0.59356 0.0
C3441 C 0.05438 0.59011 0.58141 0.0
C3442 C 0.06444 0.55262 0.56244 0.0
C3443 C 0.05909 0.61156 0.5823 0.0
C3444 C 0.08353 0.48404 0.56834 0.0
C3445 C 0.07989 0.50138 0.56707 0.0
C3446 C 0.0599 0.53152 0.58477 0.0
C3447 C 0.06609 0.58445 0.57332 0.0
C3448 C 0.06308 0.56229 0.57338 0.0
C3449 C 0.06432 0.50266 0.57436 0.0
C3450 C 0.06221 0.52231 0.57389 0.0
H3451 H 0.09902 0.63413 0.56086 0.0
H3452 H 0.09128 0.59684 0.55942 0.0
H3453 H 0.05938 0.55829 0.59312 0.0
H3454 H 0.0459 0.45547 0.59023 0.0
H3455 H 0.03946 0.486 0.58814 0.0
loop_
_geom_bond_atom_site_label_1
_geom_bond_atom_site_label_2
_geom_bond_distance
_geom_bond_site_symmetry_2
_ccdc_geom_bond_type
Mn0 O5 2.095 . S
Mn0 O15 2.162 . S
Mn0 O16 2.297 . S
Mn0 O24 2.385 1_455 S
Mn0 O25 2.209 . S
Mn0 O26 2.094 . S
Mn1 O6 2.121 . S
Mn1 N8 2.257 . S
Mn1 N17 2.282 1_455 S
Mn1 O25 2.215 . S
Mn1 O27 2.117 . S
C2 O24 1.234 . S
C2 O25 1.283 1_655 S
C3 O15 1.281 . S
C3 O16 1.236 . S
C4 O26 1.240 . S
C4 O27 1.264 . S
O5 Mn0 2.095 . S
O5 C14 1.250 . S
O6 Mn1 2.121 . S
O6 C14 1.258 . S
C7 N8 1.326 . S
C7 C11 1.460 . S
C7 H13 0.929 . S
N8 Mn1 2.257 . S
N8 C7 1.326 . S
N8 C12 1.362 . S
C9 C10 1.258 1_655 S
C9 C12 1.431 1_655 S
C9 C29 1.449 . S
C10 C9 1.258 1_455 S
C10 C11 1.477 . S
C10 H30 0.931 . S
C11 C7 1.460 . S
C11 C10 1.477 . S
C11 H31 0.930 . S
C12 N8 1.362 . S
C12 C9 1.431 1_455 S
C12 C22 1.476 1_455 S
H13 C7 0.929 . S
C14 O5 1.250 . S
C14 O6 1.258 . S
O15 Mn0 2.162 . S
O15 C3 1.281 . S
O16 Mn0 2.297 . S
O16 C3 1.236 . S
N17 Mn1 2.282 1_655 S
N17 C18 1.328 . S
N17 C22 1.318 . S
C18 N17 1.328 . S
C18 C19 1.457 . S
C18 H23 0.929 . S
C19 C18 1.457 . S
C19 C20 1.291 . S
C19 H32 0.931 . S
C20 C19 1.291 . S
C20 C21 1.373 . S
C20 H33 0.929 . S
C21 C20 1.373 . S
C21 C22 1.396 . S
C21 C28 1.403 . S
C22 C12 1.476 1_655 S
C22 N17 1.318 . S
C22 C21 1.396 . S
H23 C18 0.929 . S
O24 Mn0 2.385 1_655 S
O24 C2 1.234 . S
O25 Mn0 2.209 . S
O25 Mn1 2.215 . S
O25 C2 1.283 1_455 S
O26 Mn0 2.094 . S
O26 C4 1.240 . S
O27 Mn1 2.117 . S
O27 C4 1.264 . S
C28 C21 1.403 . S
C28 C29 1.399 . S
C28 H34 0.929 . S
C29 C9 1.449 . S
C29 C28 1.399 . S
C29 H35 0.930 . S
H30 C10 0.931 . S
H31 C11 0.930 . S
H32 C19 0.931 . S
H33 C20 0.929 . S
H34 C28 0.929 . S
H35 C29 0.930 . S
Mn36 O41 2.095 . S
Mn36 O51 2.162 . S
Mn36 O52 2.297 . S
Mn36 O60 2.385 . S
Mn36 O61 2.209 . S
Mn36 O62 2.094 . S
Mn37 O42 2.121 . S
Mn37 N44 2.257 . S
Mn37 N53 2.282 . S
Mn37 O61 2.215 . S
Mn37 O63 2.117 . S
C38 O60 1.234 . S
C38 O61 1.283 . S
C39 O51 1.281 . S
C39 O52 1.236 . S
C40 O62 1.240 . S
C40 O63 1.264 . S
O41 Mn36 2.095 . S
O41 C50 1.250 . S
O42 Mn37 2.121 . S
O42 C50 1.258 . S
C43 N44 1.326 . S
C43 C47 1.460 . S
C43 H49 0.929 . S
N44 Mn37 2.257 . S
N44 C43 1.326 . S
N44 C48 1.362 . S
C45 C46 1.258 . S
C45 C48 1.431 . S
C45 C65 1.449 . S
C46 C45 1.258 . S
C46 C47 1.477 . S
C46 H66 0.931 . S
C47 C43 1.460 . S
C47 C46 1.477 . S
C47 H67 0.930 . S
C48 N44 1.362 . S
C48 C45 1.431 . S
C48 C58 1.476 . S
H49 C43 0.929 . S
C50 O41 1.250 . S
C50 O42 1.258 . S
O51 Mn36 2.162 . S
O51 C39 1.281 . S
O52 Mn36 2.297 . S
O52 C39 1.236 . S
N53 Mn37 2.282 . S
N53 C54 1.328 . S
N53 C58 1.318 . S
C54 N53 1.328 . S
C54 C55 1.457 . S
C54 H59 0.929 . S
C55 C54 1.457 . S
C55 C56 1.291 . S
C55 H68 0.931 . S
C56 C55 1.291 . S
C56 C57 1.373 . S
C56 H69 0.929 . S
C57 C56 1.373 . S
C57 C58 1.396 . S
C57 C64 1.403 . S
C58 C48 1.476 . S
C58 N53 1.318 . S
C58 C57 1.396 . S
H59 C54 0.929 . S
O60 Mn36 2.385 . S
O60 C38 1.234 . S
O61 Mn36 2.209 . S
O61 Mn37 2.215 . S
O61 C38 1.283 . S
O62 Mn36 2.094 . S
O62 C40 1.240 . S
O63 Mn37 2.117 . S
O63 C40 1.264 . S
C64 C57 1.403 . S
C64 C65 1.399 . S
C64 H70 0.929 . S
C65 C45 1.449 . S
C65 C64 1.399 . S
C65 H71 0.930 . S
H66 C46 0.931 . S
H67 C47 0.930 . S
H68 C55 0.931 . S
H69 C56 0.929 . S
H70 C64 0.929 . S
H71 C65 0.930 . S
Mn72 O77 2.095 1_545 S
Mn72 O87 2.162 . S
Mn72 O88 2.297 . S
Mn72 O96 2.385 . S
Mn72 O97 2.209 . S
Mn72 O98 2.094 . S
Mn73 O78 2.121 1_545 S
Mn73 N80 2.257 . S
Mn73 N89 2.282 . S
Mn73 O97 2.215 . S
Mn73 O99 2.117 . S
C74 O96 1.234 . S
C74 O97 1.283 . S
C75 O87 1.281 . S
C75 O88 1.236 . S
C76 O98 1.240 . S
C76 O99 1.264 . S
O77 Mn72 2.095 1_565 S
O77 C86 1.250 . S
O78 Mn73 2.121 1_565 S
O78 C86 1.258 . S
C79 N80 1.326 . S
C79 C83 1.460 . S
C79 H85 0.929 . S
N80 Mn73 2.257 . S
N80 C79 1.326 . S
N80 C84 1.362 . S
C81 C82 1.258 . S
C81 C84 1.431 . S
C81 C101 1.449 . S
C82 C81 1.258 . S
C82 C83 1.477 . S
C82 H102 0.931 . S
C83 C79 1.460 . S
C83 C82 1.477 . S
C83 H103 0.930 . S
C84 N80 1.362 . S
C84 C81 1.431 . S
C84 C94 1.476 . S
H85 C79 0.929 . S
C86 O77 1.250 . S
C86 O78 1.258 . S
O87 Mn72 2.162 . S
O87 C75 1.281 . S
O88 Mn72 2.297 . S
O88 C75 1.236 . S
N89 Mn73 2.282 . S
N89 C90 1.328 . S
N89 C94 1.318 . S
C90 N89 1.328 . S
C90 C91 1.457 . S
C90 H95 0.929 . S
C91 C90 1.457 . S
C91 C92 1.291 . S
C91 H104 0.931 . S
C92 C91 1.291 . S
C92 C93 1.373 . S
C92 H105 0.929 . S
C93 C92 1.373 . S
C93 C94 1.396 . S
C93 C100 1.403 . S
C94 C84 1.476 . S
C94 N89 1.318 . S
C94 C93 1.396 . S
H95 C90 0.929 . S
O96 Mn72 2.385 . S
O96 C74 1.234 . S
O97 Mn72 2.209 . S
O97 Mn73 2.215 . S
O97 C74 1.283 . S
O98 Mn72 2.094 . S
O98 C76 1.240 . S
O99 Mn73 2.117 . S
O99 C76 1.264 . S
C100 C93 1.403 . S
C100 C101 1.399 . S
C100 H106 0.929 . S
C101 C81 1.449 . S
C101 C100 1.399 . S
C101 H107 0.930 . S
H102 C82 0.931 . S
H103 C83 0.930 . S
H104 C91 0.931 . S
H105 C92 0.929 . S
H106 C100 0.929 . S
H107 C101 0.930 . S
Mn108 O113 2.095 . S
Mn108 O123 2.162 . S
Mn108 O124 2.297 . S
Mn108 O132 2.385 1_545 S
Mn108 O133 2.209 . S
Mn108 O134 2.094 . S
Mn109 O114 2.121 . S
Mn109 N116 2.257 . S
Mn109 N125 2.282 1_545 S
Mn109 O133 2.215 . S
Mn109 O135 2.117 . S
C110 O132 1.234 . S
C110 O133 1.283 1_565 S
C111 O123 1.281 . S
C111 O124 1.236 . S
C112 O134 1.240 . S
C112 O135 1.264 . S
O113 Mn108 2.095 . S
O113 C122 1.250 . S
O114 Mn109 2.121 . S
O114 C122 1.258 . S
C115 N116 1.326 . S
C115 C119 1.460 . S
C115 H121 0.929 . S
N116 Mn109 2.257 . S
N116 C115 1.326 . S
N116 C120 1.362 . S
C117 C118 1.258 1_565 S
C117 C120 1.431 1_565 S
C117 C137 1.449 . S
C118 C117 1.258 1_545 S
C118 C119 1.477 . S
C118 H138 0.931 . S
C119 C115 1.460 . S
C119 C118 1.477 . S
C119 H139 0.930 . S
C120 N116 1.362 . S
C120 C117 1.431 1_545 S
C120 C130 1.476 1_545 S
H121 C115 0.929 . S
C122 O113 1.250 . S
C122 O114 1.258 . S
O123 Mn108 2.162 . S
O123 C111 1.281 . S
O124 Mn108 2.297 . S
O124 C111 1.236 . S
N125 Mn109 2.282 1_565 S
N125 C126 1.328 . S
N125 C130 1.318 . S
C126 N125 1.328 . S
C126 C127 1.457 . S
C126 H131 0.929 . S
C127 C126 1.457 . S
C127 C128 1.291 . S
C127 H140 0.931 . S
C128 C127 1.291 . S
C128 C129 1.373 . S
C128 H141 0.929 . S
C129 C128 1.373 . S
C129 C130 1.396 . S
C129 C136 1.403 . S
C130 C120 1.476 1_565 S
C130 N125 1.318 . S
C130 C129 1.396 . S
H131 C126 0.929 . S
O132 Mn108 2.385 1_565 S
O132 C110 1.234 . S
O133 Mn108 2.209 . S
O133 Mn109 2.215 . S
O133 C110 1.283 1_545 S
O134 Mn108 2.094 . S
O134 C112 1.240 . S
O135 Mn109 2.117 . S
O135 C112 1.264 . S
C136 C129 1.403 . S
C136 C137 1.399 . S
C136 H142 0.929 . S
C137 C117 1.449 . S
C137 C136 1.399 . S
C137 H143 0.930 . S
H138 C118 0.931 . S
H139 C119 0.930 . S
H140 C127 0.931 . S
H141 C128 0.929 . S
H142 C136 0.929 . S
H143 C137 0.930 . S
Mn144 O149 2.095 1_455 S
Mn144 O159 2.162 . S
Mn144 O160 2.297 . S
Mn144 O168 2.385 . S
Mn144 O169 2.209 . S
Mn144 O170 2.094 . S
Mn145 O150 2.121 1_455 S
Mn145 N152 2.257 . S
Mn145 N161 2.282 . S
Mn145 O169 2.215 . S
Mn145 O171 2.117 . S
C146 O168 1.234 . S
C146 O169 1.283 . S
C147 O159 1.281 . S
C147 O160 1.236 . S
C148 O170 1.240 . S
C148 O171 1.264 . S
O149 Mn144 2.095 1_655 S
O149 C158 1.250 . S
O150 Mn145 2.121 1_655 S
O150 C158 1.258 . S
C151 N152 1.326 . S
C151 C155 1.460 . S
C151 H157 0.929 . S
N152 Mn145 2.257 . S
N152 C151 1.326 . S
N152 C156 1.362 . S
C153 C154 1.258 . S
C153 C156 1.431 . S
C153 C173 1.449 . S
C154 C153 1.258 . S
C154 C155 1.477 . S
C154 H174 0.931 . S
C155 C151 1.460 . S
C155 C154 1.477 . S
C155 H175 0.930 . S
C156 N152 1.362 . S
C156 C153 1.431 . S
C156 C166 1.476 . S
H157 C151 0.929 . S
C158 O149 1.250 . S
C158 O150 1.258 . S
O159 Mn144 2.162 . S
O159 C147 1.281 . S
O160 Mn144 2.297 . S
O160 C147 1.236 . S
N161 Mn145 2.282 . S
N161 C162 1.328 . S
N161 C166 1.318 . S
C162 N161 1.328 . S
C162 C163 1.457 . S
C162 H167 0.929 . S
C163 C162 1.457 . S
C163 C164 1.291 . S
C163 H176 0.931 . S
C164 C163 1.291 . S
C164 C165 1.373 . S
C164 H177 0.929 . S
C165 C164 1.373 . S
C165 C166 1.396 . S
C165 C172 1.403 . S
C166 C156 1.476 . S
C166 N161 1.318 . S
C166 C165 1.396 . S
H167 C162 0.929 . S
O168 Mn144 2.385 . S
O168 C146 1.234 . S
O169 Mn144 2.209 . S
O169 Mn145 2.215 . S
O169 C146 1.283 . S
O170 Mn144 2.094 . S
O170 C148 1.240 . S
O171 Mn145 2.117 . S
O171 C148 1.264 . S
C172 C165 1.403 . S
C172 C173 1.399 . S
C172 H178 0.929 . S
C173 C153 1.449 . S
C173 C172 1.399 . S
C173 H179 0.930 . S
H174 C154 0.931 . S
H175 C155 0.930 . S
H176 C163 0.931 . S
H177 C164 0.929 . S
H178 C172 0.929 . S
H179 C173 0.930 . S
Mn180 O185 2.095 . S
Mn180 O195 2.162 . S
Mn180 O196 2.297 . S
Mn180 O204 2.385 . S
Mn180 O205 2.209 . S
Mn180 O206 2.094 . S
Mn181 O186 2.121 . S
Mn181 N188 2.257 . S
Mn181 N197 2.282 . S
Mn181 O205 2.215 . S
Mn181 O207 2.117 . S
C182 O204 1.234 . S
C182 O205 1.283 . S
C183 O195 1.281 . S
C183 O196 1.236 . S
C184 O206 1.240 . S
C184 O207 1.264 . S
O185 Mn180 2.095 . S
O185 C194 1.250 . S
O186 Mn181 2.121 . S
O186 C194 1.258 . S
C187 N188 1.326 . S
C187 C191 1.460 . S
C187 H193 0.929 . S
N188 Mn181 2.257 . S
N188 C187 1.326 . S
N188 C192 1.362 . S
C189 C190 1.258 . S
C189 C192 1.431 . S
C189 C209 1.449 . S
C190 C189 1.258 . S
C190 C191 1.477 . S
C190 H210 0.931 . S
C191 C187 1.460 . S
C191 C190 1.477 . S
C191 H211 0.930 . S
C192 N188 1.362 . S
C192 C189 1.431 . S
C192 C202 1.476 . S
H193 C187 0.929 . S
C194 O185 1.250 . S
C194 O186 1.258 . S
O195 Mn180 2.162 . S
O195 C183 1.281 . S
O196 Mn180 2.297 . S
O196 C183 1.236 . S
N197 Mn181 2.282 . S
N197 C198 1.328 . S
N197 C202 1.318 . S
C198 N197 1.328 . S
C198 C199 1.457 . S
C198 H203 0.929 . S
C199 C198 1.457 . S
C199 C200 1.291 . S
C199 H212 0.931 . S
C200 C199 1.291 . S
C200 C201 1.373 . S
C200 H213 0.929 . S
C201 C200 1.373 . S
C201 C202 1.396 . S
C201 C208 1.403 . S
C202 C192 1.476 . S
C202 N197 1.318 . S
C202 C201 1.396 . S
H203 C198 0.929 . S
O204 Mn180 2.385 . S
O204 C182 1.234 . S
O205 Mn180 2.209 . S
O205 Mn181 2.215 . S
O205 C182 1.283 . S
O206 Mn180 2.094 . S
O206 C184 1.240 . S
O207 Mn181 2.117 . S
O207 C184 1.264 . S
C208 C201 1.403 . S
C208 C209 1.399 . S
C208 H214 0.929 . S
C209 C189 1.449 . S
C209 C208 1.399 . S
C209 H215 0.930 . S
H210 C190 0.931 . S
H211 C191 0.930 . S
H212 C199 0.931 . S
H213 C200 0.929 . S
H214 C208 0.929 . S
H215 C209 0.930 . S
Mn216 O221 2.095 1_455 S
Mn216 O231 2.162 . S
Mn216 O232 2.297 . S
Mn216 O240 2.385 . S
Mn216 O241 2.209 . S
Mn216 O242 2.094 . S
Mn217 O222 2.121 1_455 S
Mn217 N224 2.257 . S
Mn217 N233 2.282 . S
Mn217 O241 2.215 . S
Mn217 O243 2.117 . S
C218 O240 1.234 . S
C218 O241 1.283 . S
C219 O231 1.281 . S
C219 O232 1.236 . S
C220 O242 1.240 . S
C220 O243 1.264 . S
O221 Mn216 2.095 1_655 S
O221 C230 1.250 . S
O222 Mn217 2.121 1_655 S
O222 C230 1.258 . S
C223 N224 1.326 . S
C223 C227 1.460 . S
C223 H229 0.929 . S
N224 Mn217 2.257 . S
N224 C223 1.326 . S
N224 C228 1.362 . S
C225 C226 1.258 . S
C225 C228 1.431 . S
C225 C245 1.449 . S
C226 C225 1.258 . S
C226 C227 1.477 . S
C226 H246 0.931 . S
C227 C223 1.460 . S
C227 C226 1.477 . S
C227 H247 0.930 . S
C228 N224 1.362 . S
C228 C225 1.431 . S
C228 C238 1.476 . S
H229 C223 0.929 . S
C230 O221 1.250 . S
C230 O222 1.258 . S
O231 Mn216 2.162 . S
O231 C219 1.281 . S
O232 Mn216 2.297 . S
O232 C219 1.236 . S
N233 Mn217 2.282 . S
N233 C234 1.328 . S
N233 C238 1.318 . S
C234 N233 1.328 . S
C234 C235 1.457 . S
C234 H239 0.929 . S
C235 C234 1.457 . S
C235 C236 1.291 . S
C235 H248 0.931 . S
C236 C235 1.291 . S
C236 C237 1.373 . S
C236 H249 0.929 . S
C237 C236 1.373 . S
C237 C238 1.396 . S
C237 C244 1.403 . S
C238 C228 1.476 . S
C238 N233 1.318 . S
C238 C237 1.396 . S
H239 C234 0.929 . S
O240 Mn216 2.385 . S
O240 C218 1.234 . S
O241 Mn216 2.209 . S
O241 Mn217 2.215 . S
O241 C218 1.283 . S
O242 Mn216 2.094 . S
O242 C220 1.240 . S
O243 Mn217 2.117 . S
O243 C220 1.264 . S
C244 C237 1.403 . S
C244 C245 1.399 . S
C244 H250 0.929 . S
C245 C225 1.449 . S
C245 C244 1.399 . S
C245 H251 0.930 . S
H246 C226 0.931 . S
H247 C227 0.930 . S
H248 C235 0.931 . S
H249 C236 0.929 . S
H250 C244 0.929 . S
H251 C245 0.930 . S
Mn252 O257 2.095 . S
Mn252 O267 2.162 . S
Mn252 O268 2.297 . S
Mn252 O276 2.385 . S
Mn252 O277 2.209 . S
Mn252 O278 2.094 . S
Mn253 O258 2.121 . S
Mn253 N260 2.257 . S
Mn253 N269 2.282 . S
Mn253 O277 2.215 . S
Mn253 O279 2.117 . S
C254 O276 1.234 . S
C254 O277 1.283 . S
C255 O267 1.281 . S
C255 O268 1.236 . S
C256 O278 1.240 . S
C256 O279 1.264 . S
O257 Mn252 2.095 . S
O257 C266 1.250 . S
O258 Mn253 2.121 . S
O258 C266 1.258 . S
C259 N260 1.326 . S
C259 C263 1.460 . S
C259 H265 0.929 . S
N260 Mn253 2.257 . S
N260 C259 1.326 . S
N260 C264 1.362 . S
C261 C262 1.258 . S
C261 C264 1.431 . S
C261 C281 1.449 . S
C262 C261 1.258 . S
C262 C263 1.477 . S
C262 H282 0.931 . S
C263 C259 1.460 . S
C263 C262 1.477 . S
C263 H283 0.930 . S
C264 N260 1.362 . S
C264 C261 1.431 . S
C264 C274 1.476 . S
H265 C259 0.929 . S
C266 O257 1.250 . S
C266 O258 1.258 . S
O267 Mn252 2.162 . S
O267 C255 1.281 . S
O268 Mn252 2.297 . S
O268 C255 1.236 . S
N269 Mn253 2.282 . S
N269 C270 1.328 . S
N269 C274 1.318 . S
C270 N269 1.328 . S
C270 C271 1.457 . S
C270 H275 0.929 . S
C271 C270 1.457 . S
C271 C272 1.291 . S
C271 H284 0.931 . S
C272 C271 1.291 . S
C272 C273 1.373 . S
C272 H285 0.929 . S
C273 C272 1.373 . S
C273 C274 1.396 . S
C273 C280 1.403 . S
C274 C264 1.476 . S
C274 N269 1.318 . S
C274 C273 1.396 . S
H275 C270 0.929 . S
O276 Mn252 2.385 . S
O276 C254 1.234 . S
O277 Mn252 2.209 . S
O277 Mn253 2.215 . S
O277 C254 1.283 . S
O278 Mn252 2.094 . S
O278 C256 1.240 . S
O279 Mn253 2.117 . S
O279 C256 1.264 . S
C280 C273 1.403 . S
C280 C281 1.399 . S
C280 H286 0.929 . S
C281 C261 1.449 . S
C281 C280 1.399 . S
C281 H287 0.930 . S
H282 C262 0.931 . S
H283 C263 0.930 . S
H284 C271 0.931 . S
H285 C272 0.929 . S
H286 C280 0.929 . S
H287 C281 0.930 . S
Mn288 O293 2.095 . S
Mn288 O303 2.162 . S
Mn288 O304 2.297 . S
Mn288 O312 2.385 1_545 S
Mn288 O313 2.209 . S
Mn288 O314 2.094 . S
Mn289 O294 2.121 . S
Mn289 N296 2.257 . S
Mn289 N305 2.282 1_545 S
Mn289 O313 2.215 . S
Mn289 O315 2.117 . S
C290 O312 1.234 . S
C290 O313 1.283 1_565 S
C291 O303 1.281 . S
C291 O304 1.236 . S
C292 O314 1.240 . S
C292 O315 1.264 . S
O293 Mn288 2.095 . S
O293 C302 1.250 . S
O294 Mn289 2.121 . S
O294 C302 1.258 . S
C295 N296 1.326 . S
C295 C299 1.460 . S
C295 H301 0.929 . S
N296 Mn289 2.257 . S
N296 C295 1.326 . S
N296 C300 1.362 . S
C297 C298 1.258 1_565 S
C297 C300 1.431 1_565 S
C297 C317 1.449 . S
C298 C297 1.258 1_545 S
C298 C299 1.477 . S
C298 H318 0.931 . S
C299 C295 1.460 . S
C299 C298 1.477 . S
C299 H319 0.930 . S
C300 N296 1.362 . S
C300 C297 1.431 1_545 S
C300 C310 1.476 1_545 S
H301 C295 0.929 . S
C302 O293 1.250 . S
C302 O294 1.258 . S
O303 Mn288 2.162 . S
O303 C291 1.281 . S
O304 Mn288 2.297 . S
O304 C291 1.236 . S
N305 Mn289 2.282 1_565 S
N305 C306 1.328 . S
N305 C310 1.318 . S
C306 N305 1.328 . S
C306 C307 1.457 . S
C306 H311 0.929 . S
C307 C306 1.457 . S
C307 C308 1.291 . S
C307 H320 0.931 . S
C308 C307 1.291 . S
C308 C309 1.373 . S
C308 H321 0.929 . S
C309 C308 1.373 . S
C309 C310 1.396 . S
C309 C316 1.403 . S
C310 C300 1.476 1_565 S
C310 N305 1.318 . S
C310 C309 1.396 . S
H311 C306 0.929 . S
O312 Mn288 2.385 1_565 S
O312 C290 1.234 . S
O313 Mn288 2.209 . S
O313 Mn289 2.215 . S
O313 C290 1.283 1_545 S
O314 Mn288 2.094 . S
O314 C292 1.240 . S
O315 Mn289 2.117 . S
O315 C292 1.264 . S
C316 C309 1.403 . S
C316 C317 1.399 . S
C316 H322 0.929 . S
C317 C297 1.449 . S
C317 C316 1.399 . S
C317 H323 0.930 . S
H318 C298 0.931 . S
H319 C299 0.930 . S
H320 C307 0.931 . S
H321 C308 0.929 . S
H322 C316 0.929 . S
H323 C317 0.930 . S
Mn324 O329 2.095 1_545 S
Mn324 O339 2.162 . S
Mn324 O340 2.297 . S
Mn324 O348 2.385 . S
Mn324 O349 2.209 . S
Mn324 O350 2.094 . S
Mn325 O330 2.121 1_545 S
Mn325 N332 2.257 . S
Mn325 N341 2.282 . S
Mn325 O349 2.215 . S
Mn325 O351 2.117 . S
C326 O348 1.234 . S
C326 O349 1.283 . S
C327 O339 1.281 . S
C327 O340 1.236 . S
C328 O350 1.240 . S
C328 O351 1.264 . S
O329 Mn324 2.095 1_565 S
O329 C338 1.250 . S
O330 Mn325 2.121 1_565 S
O330 C338 1.258 . S
C331 N332 1.326 . S
C331 C335 1.460 . S
C331 H337 0.929 . S
N332 Mn325 2.257 . S
N332 C331 1.326 . S
N332 C336 1.362 . S
C333 C334 1.258 . S
C333 C336 1.431 . S
C333 C353 1.449 . S
C334 C333 1.258 . S
C334 C335 1.477 . S
C334 H354 0.931 . S
C335 C331 1.460 . S
C335 C334 1.477 . S
C335 H355 0.930 . S
C336 N332 1.362 . S
C336 C333 1.431 . S
C336 C346 1.476 . S
H337 C331 0.929 . S
C338 O329 1.250 . S
C338 O330 1.258 . S
O339 Mn324 2.162 . S
O339 C327 1.281 . S
O340 Mn324 2.297 . S
O340 C327 1.236 . S
N341 Mn325 2.282 . S
N341 C342 1.328 . S
N341 C346 1.318 . S
C342 N341 1.328 . S
C342 C343 1.457 . S
C342 H347 0.929 . S
C343 C342 1.457 . S
C343 C344 1.291 . S
C343 H356 0.931 . S
C344 C343 1.291 . S
C344 C345 1.373 . S
C344 H357 0.929 . S
C345 C344 1.373 . S
C345 C346 1.396 . S
C345 C352 1.403 . S
C346 C336 1.476 . S
C346 N341 1.318 . S
C346 C345 1.396 . S
H347 C342 0.929 . S
O348 Mn324 2.385 . S
O348 C326 1.234 . S
O349 Mn324 2.209 . S
O349 Mn325 2.215 . S
O349 C326 1.283 . S
O350 Mn324 2.094 . S
O350 C328 1.240 . S
O351 Mn325 2.117 . S
O351 C328 1.264 . S
C352 C345 1.403 . S
C352 C353 1.399 . S
C352 H358 0.929 . S
C353 C333 1.449 . S
C353 C352 1.399 . S
C353 H359 0.930 . S
H354 C334 0.931 . S
H355 C335 0.930 . S
H356 C343 0.931 . S
H357 C344 0.929 . S
H358 C352 0.929 . S
H359 C353 0.930 . S
Mn360 O365 2.095 . S
Mn360 O375 2.162 . S
Mn360 O376 2.297 . S
Mn360 O384 2.385 1_455 S
Mn360 O385 2.209 . S
Mn360 O386 2.094 . S
Mn361 O366 2.121 . S
Mn361 N368 2.257 . S
Mn361 N377 2.282 1_455 S
Mn361 O385 2.215 . S
Mn361 O387 2.117 . S
C362 O384 1.234 . S
C362 O385 1.283 1_655 S
C363 O375 1.281 . S
C363 O376 1.236 . S
C364 O386 1.240 . S
C364 O387 1.264 . S
O365 Mn360 2.095 . S
O365 C374 1.250 . S
O366 Mn361 2.121 . S
O366 C374 1.258 . S
C367 N368 1.326 . S
C367 C371 1.460 . S
C367 H373 0.929 . S
N368 Mn361 2.257 . S
N368 C367 1.326 . S
N368 C372 1.362 . S
C369 C370 1.258 1_655 S
C369 C372 1.431 1_655 S
C369 C389 1.449 . S
C370 C369 1.258 1_455 S
C370 C371 1.477 . S
C370 H390 0.931 . S
C371 C367 1.460 . S
C371 C370 1.477 . S
C371 H391 0.930 . S
C372 N368 1.362 . S
C372 C369 1.431 1_455 S
C372 C382 1.476 1_455 S
H373 C367 0.929 . S
C374 O365 1.250 . S
C374 O366 1.258 . S
O375 Mn360 2.162 . S
O375 C363 1.281 . S
O376 Mn360 2.297 . S
O376 C363 1.236 . S
N377 Mn361 2.282 1_655 S
N377 C378 1.328 . S
N377 C382 1.318 . S
C378 N377 1.328 . S
C378 C379 1.457 . S
C378 H383 0.929 . S
C379 C378 1.457 . S
C379 C380 1.291 . S
C379 H392 0.931 . S
C380 C379 1.291 . S
C380 C381 1.373 . S
C380 H393 0.929 . S
C381 C380 1.373 . S
C381 C382 1.396 . S
C381 C388 1.403 . S
C382 C372 1.476 1_655 S
C382 N377 1.318 . S
C382 C381 1.396 . S
H383 C378 0.929 . S
O384 Mn360 2.385 1_655 S
O384 C362 1.234 . S
O385 Mn360 2.209 . S
O385 Mn361 2.215 . S
O385 C362 1.283 1_455 S
O386 Mn360 2.094 . S
O386 C364 1.240 . S
O387 Mn361 2.117 . S
O387 C364 1.264 . S
C388 C381 1.403 . S
C388 C389 1.399 . S
C388 H394 0.929 . S
C389 C369 1.449 . S
C389 C388 1.399 . S
C389 H395 0.930 . S
H390 C370 0.931 . S
H391 C371 0.930 . S
H392 C379 0.931 . S
H393 C380 0.929 . S
H394 C388 0.929 . S
H395 C389 0.930 . S
Mn396 O401 2.095 . S
Mn396 O411 2.162 . S
Mn396 O412 2.297 . S
Mn396 O420 2.385 . S
Mn396 O421 2.209 . S
Mn396 O422 2.094 . S
Mn397 O402 2.121 . S
Mn397 N404 2.257 . S
Mn397 N413 2.282 . S
Mn397 O421 2.215 . S
Mn397 O423 2.117 . S
C398 O420 1.234 . S
C398 O421 1.283 . S
C399 O411 1.281 . S
C399 O412 1.236 . S
C400 O422 1.240 . S
C400 O423 1.264 . S
O401 Mn396 2.095 . S
O401 C410 1.250 . S
O402 Mn397 2.121 . S
O402 C410 1.258 . S
C403 N404 1.326 . S
C403 C407 1.460 . S
C403 H409 0.929 . S
N404 Mn397 2.257 . S
N404 C403 1.326 . S
N404 C408 1.362 . S
C405 C406 1.258 . S
C405 C408 1.431 . S
C405 C425 1.449 . S
C406 C405 1.258 . S
C406 C407 1.477 . S
C406 H426 0.931 . S
C407 C403 1.460 . S
C407 C406 1.477 . S
C407 H427 0.930 . S
C408 N404 1.362 . S
C408 C405 1.431 . S
C408 C418 1.476 . S
H409 C403 0.929 . S
C410 O401 1.250 . S
C410 O402 1.258 . S
O411 Mn396 2.162 . S
O411 C399 1.281 . S
O412 Mn396 2.297 . S
O412 C399 1.236 . S
N413 Mn397 2.282 . S
N413 C414 1.328 . S
N413 C418 1.318 . S
C414 N413 1.328 . S
C414 C415 1.457 . S
C414 H419 0.929 . S
C415 C414 1.457 . S
C415 C416 1.291 . S
C415 H428 0.931 . S
C416 C415 1.291 . S
C416 C417 1.373 . S
C416 H429 0.929 . S
C417 C416 1.373 . S
C417 C418 1.396 . S
C417 C424 1.403 . S
C418 C408 1.476 . S
C418 N413 1.318 . S
C418 C417 1.396 . S
H419 C414 0.929 . S
O420 Mn396 2.385 . S
O420 C398 1.234 . S
O421 Mn396 2.209 . S
O421 Mn397 2.215 . S
O421 C398 1.283 . S
O422 Mn396 2.094 . S
O422 C400 1.240 . S
O423 Mn397 2.117 . S
O423 C400 1.264 . S
C424 C417 1.403 . S
C424 C425 1.399 . S
C424 H430 0.929 . S
C425 C405 1.449 . S
C425 C424 1.399 . S
C425 H431 0.930 . S
H426 C406 0.931 . S
H427 C407 0.930 . S
H428 C415 0.931 . S
H429 C416 0.929 . S
H430 C424 0.929 . S
H431 C425 0.930 . S
Mn432 O437 2.095 . S
Mn432 O447 2.162 . S
Mn432 O448 2.297 . S
Mn432 O456 2.385 . S
Mn432 O457 2.209 . S
Mn432 O458 2.094 . S
Mn433 O438 2.121 . S
Mn433 N440 2.257 . S
Mn433 N449 2.282 . S
Mn433 O457 2.215 . S
Mn433 O459 2.117 . S
C434 O456 1.234 . S
C434 O457 1.283 . S
C435 O447 1.281 . S
C435 O448 1.236 . S
C436 O458 1.240 . S
C436 O459 1.264 . S
O437 Mn432 2.095 . S
O437 C446 1.250 . S
O438 Mn433 2.121 . S
O438 C446 1.258 . S
C439 N440 1.326 . S
C439 C443 1.460 . S
C439 H445 0.929 . S
N440 Mn433 2.257 . S
N440 C439 1.326 . S
N440 C444 1.362 . S
C441 C442 1.258 . S
C441 C444 1.431 . S
C441 C461 1.449 . S
C442 C441 1.258 . S
C442 C443 1.477 . S
C442 H462 0.931 . S
C443 C439 1.460 . S
C443 C442 1.477 . S
C443 H463 0.930 . S
C444 N440 1.362 . S
C444 C441 1.431 . S
C444 C454 1.476 . S
H445 C439 0.929 . S
C446 O437 1.250 . S
C446 O438 1.258 . S
O447 Mn432 2.162 . S
O447 C435 1.281 . S
O448 Mn432 2.297 . S
O448 C435 1.236 . S
N449 Mn433 2.282 . S
N449 C450 1.328 . S
N449 C454 1.318 . S
C450 N449 1.328 . S
C450 C451 1.457 . S
C450 H455 0.929 . S
C451 C450 1.457 . S
C451 C452 1.291 . S
C451 H464 0.931 . S
C452 C451 1.291 . S
C452 C453 1.373 . S
C452 H465 0.929 . S
C453 C452 1.373 . S
C453 C454 1.396 . S
C453 C460 1.403 . S
C454 C444 1.476 . S
C454 N449 1.318 . S
C454 C453 1.396 . S
H455 C450 0.929 . S
O456 Mn432 2.385 . S
O456 C434 1.234 . S
O457 Mn432 2.209 . S
O457 Mn433 2.215 . S
O457 C434 1.283 . S
O458 Mn432 2.094 . S
O458 C436 1.240 . S
O459 Mn433 2.117 . S
O459 C436 1.264 . S
C460 C453 1.403 . S
C460 C461 1.399 . S
C460 H466 0.929 . S
C461 C441 1.449 . S
C461 C460 1.399 . S
C461 H467 0.930 . S
H462 C442 0.931 . S
H463 C443 0.930 . S
H464 C451 0.931 . S
H465 C452 0.929 . S
H466 C460 0.929 . S
H467 C461 0.930 . S
Mn468 O473 2.095 . S
Mn468 O483 2.162 . S
Mn468 O484 2.297 . S
Mn468 O492 2.385 . S
Mn468 O493 2.209 . S
Mn468 O494 2.094 . S
Mn469 O474 2.121 . S
Mn469 N476 2.257 . S
Mn469 N485 2.282 . S
Mn469 O493 2.215 . S
Mn469 O495 2.117 . S
C470 O492 1.234 . S
C470 O493 1.283 . S
C471 O483 1.281 . S
C471 O484 1.236 . S
C472 O494 1.240 . S
C472 O495 1.264 . S
O473 Mn468 2.095 . S
O473 C482 1.250 . S
O474 Mn469 2.121 . S
O474 C482 1.258 . S
C475 N476 1.326 . S
C475 C479 1.460 . S
C475 H481 0.929 . S
N476 Mn469 2.257 . S
N476 C475 1.326 . S
N476 C480 1.362 . S
C477 C478 1.258 . S
C477 C480 1.431 . S
C477 C497 1.449 . S
C478 C477 1.258 . S
C478 C479 1.477 . S
C478 H498 0.931 . S
C479 C475 1.460 . S
C479 C478 1.477 . S
C479 H499 0.930 . S
C480 N476 1.362 . S
C480 C477 1.431 . S
C480 C490 1.476 . S
H481 C475 0.929 . S
C482 O473 1.250 . S
C482 O474 1.258 . S
O483 Mn468 2.162 . S
O483 C471 1.281 . S
O484 Mn468 2.297 . S
O484 C471 1.236 . S
N485 Mn469 2.282 . S
N485 C486 1.328 . S
N485 C490 1.318 . S
C486 N485 1.328 . S
C486 C487 1.457 . S
C486 H491 0.929 . S
C487 C486 1.457 . S
C487 C488 1.291 . S
C487 H500 0.931 . S
C488 C487 1.291 . S
C488 C489 1.373 . S
C488 H501 0.929 . S
C489 C488 1.373 . S
C489 C490 1.396 . S
C489 C496 1.403 . S
C490 C480 1.476 . S
C490 N485 1.318 . S
C490 C489 1.396 . S
H491 C486 0.929 . S
O492 Mn468 2.385 . S
O492 C470 1.234 . S
O493 Mn468 2.209 . S
O493 Mn469 2.215 . S
O493 C470 1.283 . S
O494 Mn468 2.094 . S
O494 C472 1.240 . S
O495 Mn469 2.117 . S
O495 C472 1.264 . S
C496 C489 1.403 . S
C496 C497 1.399 . S
C496 H502 0.929 . S
C497 C477 1.449 . S
C497 C496 1.399 . S
C497 H503 0.930 . S
H498 C478 0.931 . S
H499 C479 0.930 . S
H500 C487 0.931 . S
H501 C488 0.929 . S
H502 C496 0.929 . S
H503 C497 0.930 . S
Mn504 O509 2.095 . S
Mn504 O519 2.162 . S
Mn504 O520 2.297 . S
Mn504 O528 2.385 . S
Mn504 O529 2.209 . S
Mn504 O530 2.094 . S
Mn505 O510 2.121 . S
Mn505 N512 2.257 . S
Mn505 N521 2.282 . S
Mn505 O529 2.215 . S
Mn505 O531 2.117 . S
C506 O528 1.234 . S
C506 O529 1.283 . S
C507 O519 1.281 . S
C507 O520 1.236 . S
C508 O530 1.240 . S
C508 O531 1.264 . S
O509 Mn504 2.095 . S
O509 C518 1.250 . S
O510 Mn505 2.121 . S
O510 C518 1.258 . S
C511 N512 1.326 . S
C511 C515 1.460 . S
C511 H517 0.929 . S
N512 Mn505 2.257 . S
N512 C511 1.326 . S
N512 C516 1.362 . S
C513 C514 1.258 . S
C513 C516 1.431 . S
C513 C533 1.449 . S
C514 C513 1.258 . S
C514 C515 1.477 . S
C514 H534 0.931 . S
C515 C511 1.460 . S
C515 C514 1.477 . S
C515 H535 0.930 . S
C516 N512 1.362 . S
C516 C513 1.431 . S
C516 C526 1.476 . S
H517 C511 0.929 . S
C518 O509 1.250 . S
C518 O510 1.258 . S
O519 Mn504 2.162 . S
O519 C507 1.281 . S
O520 Mn504 2.297 . S
O520 C507 1.236 . S
N521 Mn505 2.282 . S
N521 C522 1.328 . S
N521 C526 1.318 . S
C522 N521 1.328 . S
C522 C523 1.457 . S
C522 H527 0.929 . S
C523 C522 1.457 . S
C523 C524 1.291 . S
C523 H536 0.931 . S
C524 C523 1.291 . S
C524 C525 1.373 . S
C524 H537 0.929 . S
C525 C524 1.373 . S
C525 C526 1.396 . S
C525 C532 1.403 . S
C526 C516 1.476 . S
C526 N521 1.318 . S
C526 C525 1.396 . S
H527 C522 0.929 . S
O528 Mn504 2.385 . S
O528 C506 1.234 . S
O529 Mn504 2.209 . S
O529 Mn505 2.215 . S
O529 C506 1.283 . S
O530 Mn504 2.094 . S
O530 C508 1.240 . S
O531 Mn505 2.117 . S
O531 C508 1.264 . S
C532 C525 1.403 . S
C532 C533 1.399 . S
C532 H538 0.929 . S
C533 C513 1.449 . S
C533 C532 1.399 . S
C533 H539 0.930 . S
H534 C514 0.931 . S
H535 C515 0.930 . S
H536 C523 0.931 . S
H537 C524 0.929 . S
H538 C532 0.929 . S
H539 C533 0.930 . S
Mn540 O545 2.095 . S
Mn540 O555 2.162 . S
Mn540 O556 2.297 . S
Mn540 O564 2.385 . S
Mn540 O565 2.209 . S
Mn540 O566 2.094 . S
Mn541 O546 2.121 . S
Mn541 N548 2.257 . S
Mn541 N557 2.282 . S
Mn541 O565 2.215 . S
Mn541 O567 2.117 . S
C542 O564 1.234 . S
C542 O565 1.283 . S
C543 O555 1.281 . S
C543 O556 1.236 . S
C544 O566 1.240 . S
C544 O567 1.264 . S
O545 Mn540 2.095 . S
O545 C554 1.250 . S
O546 Mn541 2.121 . S
O546 C554 1.258 . S
C547 N548 1.326 . S
C547 C551 1.460 . S
C547 H553 0.929 . S
N548 Mn541 2.257 . S
N548 C547 1.326 . S
N548 C552 1.362 . S
C549 C550 1.258 . S
C549 C552 1.431 . S
C549 C569 1.449 . S
C550 C549 1.258 . S
C550 C551 1.477 . S
C550 H570 0.931 . S
C551 C547 1.460 . S
C551 C550 1.477 . S
C551 H571 0.930 . S
C552 N548 1.362 . S
C552 C549 1.431 . S
C552 C562 1.476 . S
H553 C547 0.929 . S
C554 O545 1.250 . S
C554 O546 1.258 . S
O555 Mn540 2.162 . S
O555 C543 1.281 . S
O556 Mn540 2.297 . S
O556 C543 1.236 . S
N557 Mn541 2.282 . S
N557 C558 1.328 . S
N557 C562 1.318 . S
C558 N557 1.328 . S
C558 C559 1.457 . S
C558 H563 0.929 . S
C559 C558 1.457 . S
C559 C560 1.291 . S
C559 H572 0.931 . S
C560 C559 1.291 . S
C560 C561 1.373 . S
C560 H573 0.929 . S
C561 C560 1.373 . S
C561 C562 1.396 . S
C561 C568 1.403 . S
C562 C552 1.476 . S
C562 N557 1.318 . S
C562 C561 1.396 . S
H563 C558 0.929 . S
O564 Mn540 2.385 . S
O564 C542 1.234 . S
O565 Mn540 2.209 . S
O565 Mn541 2.215 . S
O565 C542 1.283 . S
O566 Mn540 2.094 . S
O566 C544 1.240 . S
O567 Mn541 2.117 . S
O567 C544 1.264 . S
C568 C561 1.403 . S
C568 C569 1.399 . S
C568 H574 0.929 . S
C569 C549 1.449 . S
C569 C568 1.399 . S
C569 H575 0.930 . S
H570 C550 0.931 . S
H571 C551 0.930 . S
H572 C559 0.931 . S
H573 C560 0.929 . S
H574 C568 0.929 . S
H575 C569 0.930 . S
Mn576 O581 2.095 . S
Mn576 O591 2.162 . S
Mn576 O592 2.297 . S
Mn576 O600 2.385 . S
Mn576 O601 2.209 . S
Mn576 O602 2.094 . S
Mn577 O582 2.121 . S
Mn577 N584 2.257 . S
Mn577 N593 2.282 . S
Mn577 O601 2.215 . S
Mn577 O603 2.117 . S
C578 O600 1.234 . S
C578 O601 1.283 . S
C579 O591 1.281 . S
C579 O592 1.236 . S
C580 O602 1.240 . S
C580 O603 1.264 . S
O581 Mn576 2.095 . S
O581 C590 1.250 . S
O582 Mn577 2.121 . S
O582 C590 1.258 . S
C583 N584 1.326 . S
C583 C587 1.460 . S
C583 H589 0.929 . S
N584 Mn577 2.257 . S
N584 C583 1.326 . S
N584 C588 1.362 . S
C585 C586 1.258 . S
C585 C588 1.431 . S
C585 C605 1.449 . S
C586 C585 1.258 . S
C586 C587 1.477 . S
C586 H606 0.931 . S
C587 C583 1.460 . S
C587 C586 1.477 . S
C587 H607 0.930 . S
C588 N584 1.362 . S
C588 C585 1.431 . S
C588 C598 1.476 . S
H589 C583 0.929 . S
C590 O581 1.250 . S
C590 O582 1.258 . S
O591 Mn576 2.162 . S
O591 C579 1.281 . S
O592 Mn576 2.297 . S
O592 C579 1.236 . S
N593 Mn577 2.282 . S
N593 C594 1.328 . S
N593 C598 1.318 . S
C594 N593 1.328 . S
C594 C595 1.457 . S
C594 H599 0.929 . S
C595 C594 1.457 . S
C595 C596 1.291 . S
C595 H608 0.931 . S
C596 C595 1.291 . S
C596 C597 1.373 . S
C596 H609 0.929 . S
C597 C596 1.373 . S
C597 C598 1.396 . S
C597 C604 1.403 . S
C598 C588 1.476 . S
C598 N593 1.318 . S
C598 C597 1.396 . S
H599 C594 0.929 . S
O600 Mn576 2.385 . S
O600 C578 1.234 . S
O601 Mn576 2.209 . S
O601 Mn577 2.215 . S
O601 C578 1.283 . S
O602 Mn576 2.094 . S
O602 C580 1.240 . S
O603 Mn577 2.117 . S
O603 C580 1.264 . S
C604 C597 1.403 . S
C604 C605 1.399 . S
C604 H610 0.929 . S
C605 C585 1.449 . S
C605 C604 1.399 . S
C605 H611 0.930 . S
H606 C586 0.931 . S
H607 C587 0.930 . S
H608 C595 0.931 . S
H609 C596 0.929 . S
H610 C604 0.929 . S
H611 C605 0.930 . S
Mn612 O617 2.095 . S
Mn612 O627 2.162 . S
Mn612 O628 2.297 . S
Mn612 O636 2.385 . S
Mn612 O637 2.209 . S
Mn612 O638 2.094 . S
Mn613 O618 2.121 . S
Mn613 N620 2.257 . S
Mn613 N629 2.282 . S
Mn613 O637 2.215 . S
Mn613 O639 2.117 . S
C614 O636 1.234 . S
C614 O637 1.283 . S
C615 O627 1.281 . S
C615 O628 1.236 . S
C616 O638 1.240 . S
C616 O639 1.264 . S
O617 Mn612 2.095 . S
O617 C626 1.250 . S
O618 Mn613 2.121 . S
O618 C626 1.258 . S
C619 N620 1.326 . S
C619 C623 1.460 . S
C619 H625 0.929 . S
N620 Mn613 2.257 . S
N620 C619 1.326 . S
N620 C624 1.362 . S
C621 C622 1.258 . S
C621 C624 1.431 . S
C621 C641 1.449 . S
C622 C621 1.258 . S
C622 C623 1.477 . S
C622 H642 0.931 . S
C623 C619 1.460 . S
C623 C622 1.477 . S
C623 H643 0.930 . S
C624 N620 1.362 . S
C624 C621 1.431 . S
C624 C634 1.476 . S
H625 C619 0.929 . S
C626 O617 1.250 . S
C626 O618 1.258 . S
O627 Mn612 2.162 . S
O627 C615 1.281 . S
O628 Mn612 2.297 . S
O628 C615 1.236 . S
N629 Mn613 2.282 . S
N629 C630 1.328 . S
N629 C634 1.318 . S
C630 N629 1.328 . S
C630 C631 1.457 . S
C630 H635 0.929 . S
C631 C630 1.457 . S
C631 C632 1.291 . S
C631 H644 0.931 . S
C632 C631 1.291 . S
C632 C633 1.373 . S
C632 H645 0.929 . S
C633 C632 1.373 . S
C633 C634 1.396 . S
C633 C640 1.403 . S
C634 C624 1.476 . S
C634 N629 1.318 . S
C634 C633 1.396 . S
H635 C630 0.929 . S
O636 Mn612 2.385 . S
O636 C614 1.234 . S
O637 Mn612 2.209 . S
O637 Mn613 2.215 . S
O637 C614 1.283 . S
O638 Mn612 2.094 . S
O638 C616 1.240 . S
O639 Mn613 2.117 . S
O639 C616 1.264 . S
C640 C633 1.403 . S
C640 C641 1.399 . S
C640 H646 0.929 . S
C641 C621 1.449 . S
C641 C640 1.399 . S
C641 H647 0.930 . S
H642 C622 0.931 . S
H643 C623 0.930 . S
H644 C631 0.931 . S
H645 C632 0.929 . S
H646 C640 0.929 . S
H647 C641 0.930 . S
Mn648 O653 2.095 . S
Mn648 O663 2.162 . S
Mn648 O664 2.297 . S
Mn648 O672 2.385 . S
Mn648 O673 2.209 . S
Mn648 O674 2.094 . S
Mn649 O654 2.121 . S
Mn649 N656 2.257 . S
Mn649 N665 2.282 . S
Mn649 O673 2.215 . S
Mn649 O675 2.117 . S
C650 O672 1.234 . S
C650 O673 1.283 . S
C651 O663 1.281 . S
C651 O664 1.236 . S
C652 O674 1.240 . S
C652 O675 1.264 . S
O653 Mn648 2.095 . S
O653 C662 1.250 . S
O654 Mn649 2.121 . S
O654 C662 1.258 . S
C655 N656 1.326 . S
C655 C659 1.460 . S
C655 H661 0.929 . S
N656 Mn649 2.257 . S
N656 C655 1.326 . S
N656 C660 1.362 . S
C657 C658 1.258 . S
C657 C660 1.431 . S
C657 C677 1.449 . S
C658 C657 1.258 . S
C658 C659 1.477 . S
C658 H678 0.931 . S
C659 C655 1.460 . S
C659 C658 1.477 . S
C659 H679 0.930 . S
C660 N656 1.362 . S
C660 C657 1.431 . S
C660 C670 1.476 . S
H661 C655 0.929 . S
C662 O653 1.250 . S
C662 O654 1.258 . S
O663 Mn648 2.162 . S
O663 C651 1.281 . S
O664 Mn648 2.297 . S
O664 C651 1.236 . S
N665 Mn649 2.282 . S
N665 C666 1.328 . S
N665 C670 1.318 . S
C666 N665 1.328 . S
C666 C667 1.457 . S
C666 H671 0.929 . S
C667 C666 1.457 . S
C667 C668 1.291 . S
C667 H680 0.931 . S
C668 C667 1.291 . S
C668 C669 1.373 . S
C668 H681 0.929 . S
C669 C668 1.373 . S
C669 C670 1.396 . S
C669 C676 1.403 . S
C670 C660 1.476 . S
C670 N665 1.318 . S
C670 C669 1.396 . S
H671 C666 0.929 . S
O672 Mn648 2.385 . S
O672 C650 1.234 . S
O673 Mn648 2.209 . S
O673 Mn649 2.215 . S
O673 C650 1.283 . S
O674 Mn648 2.094 . S
O674 C652 1.240 . S
O675 Mn649 2.117 . S
O675 C652 1.264 . S
C676 C669 1.403 . S
C676 C677 1.399 . S
C676 H682 0.929 . S
C677 C657 1.449 . S
C677 C676 1.399 . S
C677 H683 0.930 . S
H678 C658 0.931 . S
H679 C659 0.930 . S
H680 C667 0.931 . S
H681 C668 0.929 . S
H682 C676 0.929 . S
H683 C677 0.930 . S
Mn684 O689 2.095 . S
Mn684 O699 2.162 . S
Mn684 O700 2.297 . S
Mn684 O708 2.385 . S
Mn684 O709 2.209 . S
Mn684 O710 2.094 . S
Mn685 O690 2.121 . S
Mn685 N692 2.257 . S
Mn685 N701 2.282 . S
Mn685 O709 2.215 . S
Mn685 O711 2.117 . S
C686 O708 1.234 . S
C686 O709 1.283 . S
C687 O699 1.281 . S
C687 O700 1.236 . S
C688 O710 1.240 . S
C688 O711 1.264 . S
O689 Mn684 2.095 . S
O689 C698 1.250 . S
O690 Mn685 2.121 . S
O690 C698 1.258 . S
C691 N692 1.326 . S
C691 C695 1.460 . S
C691 H697 0.929 . S
N692 Mn685 2.257 . S
N692 C691 1.326 . S
N692 C696 1.362 . S
C693 C694 1.258 . S
C693 C696 1.431 . S
C693 C713 1.449 . S
C694 C693 1.258 . S
C694 C695 1.477 . S
C694 H714 0.931 . S
C695 C691 1.460 . S
C695 C694 1.477 . S
C695 H715 0.930 . S
C696 N692 1.362 . S
C696 C693 1.431 . S
C696 C706 1.476 . S
H697 C691 0.929 . S
C698 O689 1.250 . S
C698 O690 1.258 . S
O699 Mn684 2.162 . S
O699 C687 1.281 . S
O700 Mn684 2.297 . S
O700 C687 1.236 . S
N701 Mn685 2.282 . S
N701 C702 1.328 . S
N701 C706 1.318 . S
C702 N701 1.328 . S
C702 C703 1.457 . S
C702 H707 0.929 . S
C703 C702 1.457 . S
C703 C704 1.291 . S
C703 H716 0.931 . S
C704 C703 1.291 . S
C704 C705 1.373 . S
C704 H717 0.929 . S
C705 C704 1.373 . S
C705 C706 1.396 . S
C705 C712 1.403 . S
C706 C696 1.476 . S
C706 N701 1.318 . S
C706 C705 1.396 . S
H707 C702 0.929 . S
O708 Mn684 2.385 . S
O708 C686 1.234 . S
O709 Mn684 2.209 . S
O709 Mn685 2.215 . S
O709 C686 1.283 . S
O710 Mn684 2.094 . S
O710 C688 1.240 . S
O711 Mn685 2.117 . S
O711 C688 1.264 . S
C712 C705 1.403 . S
C712 C713 1.399 . S
C712 H718 0.929 . S
C713 C693 1.449 . S
C713 C712 1.399 . S
C713 H719 0.930 . S
H714 C694 0.931 . S
H715 C695 0.930 . S
H716 C703 0.931 . S
H717 C704 0.929 . S
H718 C712 0.929 . S
H719 C713 0.930 . S
Mn720 O725 2.095 . S
Mn720 O735 2.162 . S
Mn720 O736 2.297 . S
Mn720 O744 2.385 . S
Mn720 O745 2.209 . S
Mn720 O746 2.094 . S
Mn721 O726 2.121 . S
Mn721 N728 2.257 . S
Mn721 N737 2.282 . S
Mn721 O745 2.215 . S
Mn721 O747 2.117 . S
C722 O744 1.234 . S
C722 O745 1.283 . S
C723 O735 1.281 . S
C723 O736 1.236 . S
C724 O746 1.240 . S
C724 O747 1.264 . S
O725 Mn720 2.095 . S
O725 C734 1.250 . S
O726 Mn721 2.121 . S
O726 C734 1.258 . S
C727 N728 1.326 . S
C727 C731 1.460 . S
C727 H733 0.929 . S
N728 Mn721 2.257 . S
N728 C727 1.326 . S
N728 C732 1.362 . S
C729 C730 1.258 . S
C729 C732 1.431 . S
C729 C749 1.449 . S
C730 C729 1.258 . S
C730 C731 1.477 . S
C730 H750 0.931 . S
C731 C727 1.460 . S
C731 C730 1.477 . S
C731 H751 0.930 . S
C732 N728 1.362 . S
C732 C729 1.431 . S
C732 C742 1.476 . S
H733 C727 0.929 . S
C734 O725 1.250 . S
C734 O726 1.258 . S
O735 Mn720 2.162 . S
O735 C723 1.281 . S
O736 Mn720 2.297 . S
O736 C723 1.236 . S
N737 Mn721 2.282 . S
N737 C738 1.328 . S
N737 C742 1.318 . S
C738 N737 1.328 . S
C738 C739 1.457 . S
C738 H743 0.929 . S
C739 C738 1.457 . S
C739 C740 1.291 . S
C739 H752 0.931 . S
C740 C739 1.291 . S
C740 C741 1.373 . S
C740 H753 0.929 . S
C741 C740 1.373 . S
C741 C742 1.396 . S
C741 C748 1.403 . S
C742 C732 1.476 . S
C742 N737 1.318 . S
C742 C741 1.396 . S
H743 C738 0.929 . S
O744 Mn720 2.385 . S
O744 C722 1.234 . S
O745 Mn720 2.209 . S
O745 Mn721 2.215 . S
O745 C722 1.283 . S
O746 Mn720 2.094 . S
O746 C724 1.240 . S
O747 Mn721 2.117 . S
O747 C724 1.264 . S
C748 C741 1.403 . S
C748 C749 1.399 . S
C748 H754 0.929 . S
C749 C729 1.449 . S
C749 C748 1.399 . S
C749 H755 0.930 . S
H750 C730 0.931 . S
H751 C731 0.930 . S
H752 C739 0.931 . S
H753 C740 0.929 . S
H754 C748 0.929 . S
H755 C749 0.930 . S
Mn756 O761 2.095 . S
Mn756 O771 2.162 . S
Mn756 O772 2.297 . S
Mn756 O780 2.385 . S
Mn756 O781 2.209 . S
Mn756 O782 2.094 . S
Mn757 O762 2.121 . S
Mn757 N764 2.257 . S
Mn757 N773 2.282 . S
Mn757 O781 2.215 . S
Mn757 O783 2.117 . S
C758 O780 1.234 . S
C758 O781 1.283 . S
C759 O771 1.281 . S
C759 O772 1.236 . S
C760 O782 1.240 . S
C760 O783 1.264 . S
O761 Mn756 2.095 . S
O761 C770 1.250 . S
O762 Mn757 2.121 . S
O762 C770 1.258 . S
C763 N764 1.326 . S
C763 C767 1.460 . S
C763 H769 0.929 . S
N764 Mn757 2.257 . S
N764 C763 1.326 . S
N764 C768 1.362 . S
C765 C766 1.258 . S
C765 C768 1.431 . S
C765 C785 1.449 . S
C766 C765 1.258 . S
C766 C767 1.477 . S
C766 H786 0.931 . S
C767 C763 1.460 . S
C767 C766 1.477 . S
C767 H787 0.930 . S
C768 N764 1.362 . S
C768 C765 1.431 . S
C768 C778 1.476 . S
H769 C763 0.929 . S
C770 O761 1.250 . S
C770 O762 1.258 . S
O771 Mn756 2.162 . S
O771 C759 1.281 . S
O772 Mn756 2.297 . S
O772 C759 1.236 . S
N773 Mn757 2.282 . S
N773 C774 1.328 . S
N773 C778 1.318 . S
C774 N773 1.328 . S
C774 C775 1.457 . S
C774 H779 0.929 . S
C775 C774 1.457 . S
C775 C776 1.291 . S
C775 H788 0.931 . S
C776 C775 1.291 . S
C776 C777 1.373 . S
C776 H789 0.929 . S
C777 C776 1.373 . S
C777 C778 1.396 . S
C777 C784 1.403 . S
C778 C768 1.476 . S
C778 N773 1.318 . S
C778 C777 1.396 . S
H779 C774 0.929 . S
O780 Mn756 2.385 . S
O780 C758 1.234 . S
O781 Mn756 2.209 . S
O781 Mn757 2.215 . S
O781 C758 1.283 . S
O782 Mn756 2.094 . S
O782 C760 1.240 . S
O783 Mn757 2.117 . S
O783 C760 1.264 . S
C784 C777 1.403 . S
C784 C785 1.399 . S
C784 H790 0.929 . S
C785 C765 1.449 . S
C785 C784 1.399 . S
C785 H791 0.930 . S
H786 C766 0.931 . S
H787 C767 0.930 . S
H788 C775 0.931 . S
H789 C776 0.929 . S
H790 C784 0.929 . S
H791 C785 0.930 . S
Mn792 O797 2.095 . S
Mn792 O807 2.162 . S
Mn792 O808 2.297 . S
Mn792 O816 2.385 . S
Mn792 O817 2.209 . S
Mn792 O818 2.094 . S
Mn793 O798 2.121 . S
Mn793 N800 2.257 . S
Mn793 N809 2.282 . S
Mn793 O817 2.215 . S
Mn793 O819 2.117 . S
C794 O816 1.234 . S
C794 O817 1.283 . S
C795 O807 1.281 . S
C795 O808 1.236 . S
C796 O818 1.240 . S
C796 O819 1.264 . S
O797 Mn792 2.095 . S
O797 C806 1.250 . S
O798 Mn793 2.121 . S
O798 C806 1.258 . S
C799 N800 1.326 . S
C799 C803 1.460 . S
C799 H805 0.929 . S
N800 Mn793 2.257 . S
N800 C799 1.326 . S
N800 C804 1.362 . S
C801 C802 1.258 . S
C801 C804 1.431 . S
C801 C821 1.449 . S
C802 C801 1.258 . S
C802 C803 1.477 . S
C802 H822 0.931 . S
C803 C799 1.460 . S
C803 C802 1.477 . S
C803 H823 0.930 . S
C804 N800 1.362 . S
C804 C801 1.431 . S
C804 C814 1.476 . S
H805 C799 0.929 . S
C806 O797 1.250 . S
C806 O798 1.258 . S
O807 Mn792 2.162 . S
O807 C795 1.281 . S
O808 Mn792 2.297 . S
O808 C795 1.236 . S
N809 Mn793 2.282 . S
N809 C810 1.328 . S
N809 C814 1.318 . S
C810 N809 1.328 . S
C810 C811 1.457 . S
C810 H815 0.929 . S
C811 C810 1.457 . S
C811 C812 1.291 . S
C811 H824 0.931 . S
C812 C811 1.291 . S
C812 C813 1.373 . S
C812 H825 0.929 . S
C813 C812 1.373 . S
C813 C814 1.396 . S
C813 C820 1.403 . S
C814 C804 1.476 . S
C814 N809 1.318 . S
C814 C813 1.396 . S
H815 C810 0.929 . S
O816 Mn792 2.385 . S
O816 C794 1.234 . S
O817 Mn792 2.209 . S
O817 Mn793 2.215 . S
O817 C794 1.283 . S
O818 Mn792 2.094 . S
O818 C796 1.240 . S
O819 Mn793 2.117 . S
O819 C796 1.264 . S
C820 C813 1.403 . S
C820 C821 1.399 . S
C820 H826 0.929 . S
C821 C801 1.449 . S
C821 C820 1.399 . S
C821 H827 0.930 . S
H822 C802 0.931 . S
H823 C803 0.930 . S
H824 C811 0.931 . S
H825 C812 0.929 . S
H826 C820 0.929 . S
H827 C821 0.930 . S
Mn828 O833 2.095 . S
Mn828 O843 2.162 . S
Mn828 O844 2.297 . S
Mn828 O852 2.385 . S
Mn828 O853 2.209 . S
Mn828 O854 2.094 . S
Mn829 O834 2.121 . S
Mn829 N836 2.257 . S
Mn829 N845 2.282 . S
Mn829 O853 2.215 . S
Mn829 O855 2.117 . S
C830 O852 1.234 . S
C830 O853 1.283 . S
C831 O843 1.281 . S
C831 O844 1.236 . S
C832 O854 1.240 . S
C832 O855 1.264 . S
O833 Mn828 2.095 . S
O833 C842 1.250 . S
O834 Mn829 2.121 . S
O834 C842 1.258 . S
C835 N836 1.326 . S
C835 C839 1.460 . S
C835 H841 0.929 . S
N836 Mn829 2.257 . S
N836 C835 1.326 . S
N836 C840 1.362 . S
C837 C838 1.258 . S
C837 C840 1.431 . S
C837 C857 1.449 . S
C838 C837 1.258 . S
C838 C839 1.477 . S
C838 H858 0.931 . S
C839 C835 1.460 . S
C839 C838 1.477 . S
C839 H859 0.930 . S
C840 N836 1.362 . S
C840 C837 1.431 . S
C840 C850 1.476 . S
H841 C835 0.929 . S
C842 O833 1.250 . S
C842 O834 1.258 . S
O843 Mn828 2.162 . S
O843 C831 1.281 . S
O844 Mn828 2.297 . S
O844 C831 1.236 . S
N845 Mn829 2.282 . S
N845 C846 1.328 . S
N845 C850 1.318 . S
C846 N845 1.328 . S
C846 C847 1.457 . S
C846 H851 0.929 . S
C847 C846 1.457 . S
C847 C848 1.291 . S
C847 H860 0.931 . S
C848 C847 1.291 . S
C848 C849 1.373 . S
C848 H861 0.929 . S
C849 C848 1.373 . S
C849 C850 1.396 . S
C849 C856 1.403 . S
C850 C840 1.476 . S
C850 N845 1.318 . S
C850 C849 1.396 . S
H851 C846 0.929 . S
O852 Mn828 2.385 . S
O852 C830 1.234 . S
O853 Mn828 2.209 . S
O853 Mn829 2.215 . S
O853 C830 1.283 . S
O854 Mn828 2.094 . S
O854 C832 1.240 . S
O855 Mn829 2.117 . S
O855 C832 1.264 . S
C856 C849 1.403 . S
C856 C857 1.399 . S
C856 H862 0.929 . S
C857 C837 1.449 . S
C857 C856 1.399 . S
C857 H863 0.930 . S
H858 C838 0.931 . S
H859 C839 0.930 . S
H860 C847 0.931 . S
H861 C848 0.929 . S
H862 C856 0.929 . S
H863 C857 0.930 . S
Mn864 O869 2.095 . S
Mn864 O879 2.162 . S
Mn864 O880 2.297 . S
Mn864 O888 2.385 . S
Mn864 O889 2.209 . S
Mn864 O890 2.094 . S
Mn865 O870 2.121 . S
Mn865 N872 2.257 . S
Mn865 N881 2.282 . S
Mn865 O889 2.215 . S
Mn865 O891 2.117 . S
C866 O888 1.234 . S
C866 O889 1.283 . S
C867 O879 1.281 . S
C867 O880 1.236 . S
C868 O890 1.240 . S
C868 O891 1.264 . S
O869 Mn864 2.095 . S
O869 C878 1.250 . S
O870 Mn865 2.121 . S
O870 C878 1.258 . S
C871 N872 1.326 . S
C871 C875 1.460 . S
C871 H877 0.929 . S
N872 Mn865 2.257 . S
N872 C871 1.326 . S
N872 C876 1.362 . S
C873 C874 1.258 . S
C873 C876 1.431 . S
C873 C893 1.449 . S
C874 C873 1.258 . S
C874 C875 1.477 . S
C874 H894 0.931 . S
C875 C871 1.460 . S
C875 C874 1.477 . S
C875 H895 0.930 . S
C876 N872 1.362 . S
C876 C873 1.431 . S
C876 C886 1.476 . S
H877 C871 0.929 . S
C878 O869 1.250 . S
C878 O870 1.258 . S
O879 Mn864 2.162 . S
O879 C867 1.281 . S
O880 Mn864 2.297 . S
O880 C867 1.236 . S
N881 Mn865 2.282 . S
N881 C882 1.328 . S
N881 C886 1.318 . S
C882 N881 1.328 . S
C882 C883 1.457 . S
C882 H887 0.929 . S
C883 C882 1.457 . S
C883 C884 1.291 . S
C883 H896 0.931 . S
C884 C883 1.291 . S
C884 C885 1.373 . S
C884 H897 0.929 . S
C885 C884 1.373 . S
C885 C886 1.396 . S
C885 C892 1.403 . S
C886 C876 1.476 . S
C886 N881 1.318 . S
C886 C885 1.396 . S
H887 C882 0.929 . S
O888 Mn864 2.385 . S
O888 C866 1.234 . S
O889 Mn864 2.209 . S
O889 Mn865 2.215 . S
O889 C866 1.283 . S
O890 Mn864 2.094 . S
O890 C868 1.240 . S
O891 Mn865 2.117 . S
O891 C868 1.264 . S
C892 C885 1.403 . S
C892 C893 1.399 . S
C892 H898 0.929 . S
C893 C873 1.449 . S
C893 C892 1.399 . S
C893 H899 0.930 . S
H894 C874 0.931 . S
H895 C875 0.930 . S
H896 C883 0.931 . S
H897 C884 0.929 . S
H898 C892 0.929 . S
H899 C893 0.930 . S
Mn900 O905 2.095 . S
Mn900 O915 2.162 . S
Mn900 O916 2.297 . S
Mn900 O924 2.385 . S
Mn900 O925 2.209 . S
Mn900 O926 2.094 . S
Mn901 O906 2.121 . S
Mn901 N908 2.257 . S
Mn901 N917 2.282 . S
Mn901 O925 2.215 . S
Mn901 O927 2.117 . S
C902 O924 1.234 . S
C902 O925 1.283 . S
C903 O915 1.281 . S
C903 O916 1.236 . S
C904 O926 1.240 . S
C904 O927 1.264 . S
O905 Mn900 2.095 . S
O905 C914 1.250 . S
O906 Mn901 2.121 . S
O906 C914 1.258 . S
C907 N908 1.326 . S
C907 C911 1.460 . S
C907 H913 0.929 . S
N908 Mn901 2.257 . S
N908 C907 1.326 . S
N908 C912 1.362 . S
C909 C910 1.258 . S
C909 C912 1.431 . S
C909 C929 1.449 . S
C910 C909 1.258 . S
C910 C911 1.477 . S
C910 H930 0.931 . S
C911 C907 1.460 . S
C911 C910 1.477 . S
C911 H931 0.930 . S
C912 N908 1.362 . S
C912 C909 1.431 . S
C912 C922 1.476 . S
H913 C907 0.929 . S
C914 O905 1.250 . S
C914 O906 1.258 . S
O915 Mn900 2.162 . S
O915 C903 1.281 . S
O916 Mn900 2.297 . S
O916 C903 1.236 . S
N917 Mn901 2.282 . S
N917 C918 1.328 . S
N917 C922 1.318 . S
C918 N917 1.328 . S
C918 C919 1.457 . S
C918 H923 0.929 . S
C919 C918 1.457 . S
C919 C920 1.291 . S
C919 H932 0.931 . S
C920 C919 1.291 . S
C920 C921 1.373 . S
C920 H933 0.929 . S
C921 C920 1.373 . S
C921 C922 1.396 . S
C921 C928 1.403 . S
C922 C912 1.476 . S
C922 N917 1.318 . S
C922 C921 1.396 . S
H923 C918 0.929 . S
O924 Mn900 2.385 . S
O924 C902 1.234 . S
O925 Mn900 2.209 . S
O925 Mn901 2.215 . S
O925 C902 1.283 . S
O926 Mn900 2.094 . S
O926 C904 1.240 . S
O927 Mn901 2.117 . S
O927 C904 1.264 . S
C928 C921 1.403 . S
C928 C929 1.399 . S
C928 H934 0.929 . S
C929 C909 1.449 . S
C929 C928 1.399 . S
C929 H935 0.930 . S
H930 C910 0.931 . S
H931 C911 0.930 . S
H932 C919 0.931 . S
H933 C920 0.929 . S
H934 C928 0.929 . S
H935 C929 0.930 . S
Mn936 O941 2.095 . S
Mn936 O951 2.162 . S
Mn936 O952 2.297 . S
Mn936 O960 2.385 . S
Mn936 O961 2.209 . S
Mn936 O962 2.094 . S
Mn937 O942 2.121 . S
Mn937 N944 2.257 . S
Mn937 N953 2.282 . S
Mn937 O961 2.215 . S
Mn937 O963 2.117 . S
C938 O960 1.234 . S
C938 O961 1.283 . S
C939 O951 1.281 . S
C939 O952 1.236 . S
C940 O962 1.240 . S
C940 O963 1.264 . S
O941 Mn936 2.095 . S
O941 C950 1.250 . S
O942 Mn937 2.121 . S
O942 C950 1.258 . S
C943 N944 1.326 . S
C943 C947 1.460 . S
C943 H949 0.929 . S
N944 Mn937 2.257 . S
N944 C943 1.326 . S
N944 C948 1.362 . S
C945 C946 1.258 . S
C945 C948 1.431 . S
C945 C965 1.449 . S
C946 C945 1.258 . S
C946 C947 1.477 . S
C946 H966 0.931 . S
C947 C943 1.460 . S
C947 C946 1.477 . S
C947 H967 0.930 . S
C948 N944 1.362 . S
C948 C945 1.431 . S
C948 C958 1.476 . S
H949 C943 0.929 . S
C950 O941 1.250 . S
C950 O942 1.258 . S
O951 Mn936 2.162 . S
O951 C939 1.281 . S
O952 Mn936 2.297 . S
O952 C939 1.236 . S
N953 Mn937 2.282 . S
N953 C954 1.328 . S
N953 C958 1.318 . S
C954 N953 1.328 . S
C954 C955 1.457 . S
C954 H959 0.929 . S
C955 C954 1.457 . S
C955 C956 1.291 . S
C955 H968 0.931 . S
C956 C955 1.291 . S
C956 C957 1.373 . S
C956 H969 0.929 . S
C957 C956 1.373 . S
C957 C958 1.396 . S
C957 C964 1.403 . S
C958 C948 1.476 . S
C958 N953 1.318 . S
C958 C957 1.396 . S
H959 C954 0.929 . S
O960 Mn936 2.385 . S
O960 C938 1.234 . S
O961 Mn936 2.209 . S
O961 Mn937 2.215 . S
O961 C938 1.283 . S
O962 Mn936 2.094 . S
O962 C940 1.240 . S
O963 Mn937 2.117 . S
O963 C940 1.264 . S
C964 C957 1.403 . S
C964 C965 1.399 . S
C964 H970 0.929 . S
C965 C945 1.449 . S
C965 C964 1.399 . S
C965 H971 0.930 . S
H966 C946 0.931 . S
H967 C947 0.930 . S
H968 C955 0.931 . S
H969 C956 0.929 . S
H970 C964 0.929 . S
H971 C965 0.930 . S
Mn972 O977 2.095 . S
Mn972 O987 2.162 . S
Mn972 O988 2.297 . S
Mn972 O996 2.385 . S
Mn972 O997 2.209 . S
Mn972 O998 2.094 . S
Mn973 O978 2.121 . S
Mn973 N980 2.257 . S
Mn973 N989 2.282 . S
Mn973 O997 2.215 . S
Mn973 O999 2.117 . S
C974 O996 1.234 . S
C974 O997 1.283 . S
C975 O987 1.281 . S
C975 O988 1.236 . S
C976 O998 1.240 . S
C976 O999 1.264 . S
O977 Mn972 2.095 . S
O977 C986 1.250 . S
O978 Mn973 2.121 . S
O978 C986 1.258 . S
C979 N980 1.326 . S
C979 C983 1.460 . S
C979 H985 0.929 . S
N980 Mn973 2.257 . S
N980 C979 1.326 . S
N980 C984 1.362 . S
C981 C982 1.258 . S
C981 C984 1.431 . S
C981 C1001 1.449 . S
C982 C981 1.258 . S
C982 C983 1.477 . S
C982 H1002 0.931 . S
C983 C979 1.460 . S
C983 C982 1.477 . S
C983 H1003 0.930 . S
C984 N980 1.362 . S
C984 C981 1.431 . S
C984 C994 1.476 . S
H985 C979 0.929 . S
C986 O977 1.250 . S
C986 O978 1.258 . S
O987 Mn972 2.162 . S
O987 C975 1.281 . S
O988 Mn972 2.297 . S
O988 C975 1.236 . S
N989 Mn973 2.282 . S
N989 C990 1.328 . S
N989 C994 1.318 . S
C990 N989 1.328 . S
C990 C991 1.457 . S
C990 H995 0.929 . S
C991 C990 1.457 . S
C991 C992 1.291 . S
C991 H1004 0.931 . S
C992 C991 1.291 . S
C992 C993 1.373 . S
C992 H1005 0.929 . S
C993 C992 1.373 . S
C993 C994 1.396 . S
C993 C1000 1.403 . S
C994 C984 1.476 . S
C994 N989 1.318 . S
C994 C993 1.396 . S
H995 C990 0.929 . S
O996 Mn972 2.385 . S
O996 C974 1.234 . S
O997 Mn972 2.209 . S
O997 Mn973 2.215 . S
O997 C974 1.283 . S
O998 Mn972 2.094 . S
O998 C976 1.240 . S
O999 Mn973 2.117 . S
O999 C976 1.264 . S
C1000 C993 1.403 . S
C1000 C1001 1.399 . S
C1000 H1006 0.929 . S
C1001 C981 1.449 . S
C1001 C1000 1.399 . S
C1001 H1007 0.930 . S
H1002 C982 0.931 . S
H1003 C983 0.930 . S
H1004 C991 0.931 . S
H1005 C992 0.929 . S
H1006 C1000 0.929 . S
H1007 C1001 0.930 . S
Mn1008 O1013 2.095 . S
Mn1008 O1023 2.162 . S
Mn1008 O1024 2.297 . S
Mn1008 O1032 2.385 . S
Mn1008 O1033 2.209 . S
Mn1008 O1034 2.094 . S
Mn1009 O1014 2.121 . S
Mn1009 N1016 2.257 . S
Mn1009 N1025 2.282 . S
Mn1009 O1033 2.215 . S
Mn1009 O1035 2.117 . S
C1010 O1032 1.234 . S
C1010 O1033 1.283 . S
C1011 O1023 1.281 . S
C1011 O1024 1.236 . S
C1012 O1034 1.240 . S
C1012 O1035 1.264 . S
O1013 Mn1008 2.095 . S
O1013 C1022 1.250 . S
O1014 Mn1009 2.121 . S
O1014 C1022 1.258 . S
C1015 N1016 1.326 . S
C1015 C1019 1.460 . S
C1015 H1021 0.929 . S
N1016 Mn1009 2.257 . S
N1016 C1015 1.326 . S
N1016 C1020 1.362 . S
C1017 C1018 1.258 . S
C1017 C1020 1.431 . S
C1017 C1037 1.449 . S
C1018 C1017 1.258 . S
C1018 C1019 1.477 . S
C1018 H1038 0.931 . S
C1019 C1015 1.460 . S
C1019 C1018 1.477 . S
C1019 H1039 0.930 . S
C1020 N1016 1.362 . S
C1020 C1017 1.431 . S
C1020 C1030 1.476 . S
H1021 C1015 0.929 . S
C1022 O1013 1.250 . S
C1022 O1014 1.258 . S
O1023 Mn1008 2.162 . S
O1023 C1011 1.281 . S
O1024 Mn1008 2.297 . S
O1024 C1011 1.236 . S
N1025 Mn1009 2.282 . S
N1025 C1026 1.328 . S
N1025 C1030 1.318 . S
C1026 N1025 1.328 . S
C1026 C1027 1.457 . S
C1026 H1031 0.929 . S
C1027 C1026 1.457 . S
C1027 C1028 1.291 . S
C1027 H1040 0.931 . S
C1028 C1027 1.291 . S
C1028 C1029 1.373 . S
C1028 H1041 0.929 . S
C1029 C1028 1.373 . S
C1029 C1030 1.396 . S
C1029 C1036 1.403 . S
C1030 C1020 1.476 . S
C1030 N1025 1.318 . S
C1030 C1029 1.396 . S
H1031 C1026 0.929 . S
O1032 Mn1008 2.385 . S
O1032 C1010 1.234 . S
O1033 Mn1008 2.209 . S
O1033 Mn1009 2.215 . S
O1033 C1010 1.283 . S
O1034 Mn1008 2.094 . S
O1034 C1012 1.240 . S
O1035 Mn1009 2.117 . S
O1035 C1012 1.264 . S
C1036 C1029 1.403 . S
C1036 C1037 1.399 . S
C1036 H1042 0.929 . S
C1037 C1017 1.449 . S
C1037 C1036 1.399 . S
C1037 H1043 0.930 . S
H1038 C1018 0.931 . S
H1039 C1019 0.930 . S
H1040 C1027 0.931 . S
H1041 C1028 0.929 . S
H1042 C1036 0.929 . S
H1043 C1037 0.930 . S
Mn1044 O1049 2.095 . S
Mn1044 O1059 2.162 . S
Mn1044 O1060 2.297 . S
Mn1044 O1068 2.385 . S
Mn1044 O1069 2.209 . S
Mn1044 O1070 2.094 . S
Mn1045 O1050 2.121 . S
Mn1045 N1052 2.257 . S
Mn1045 N1061 2.282 . S
Mn1045 O1069 2.215 . S
Mn1045 O1071 2.117 . S
C1046 O1068 1.234 . S
C1046 O1069 1.283 . S
C1047 O1059 1.281 . S
C1047 O1060 1.236 . S
C1048 O1070 1.240 . S
C1048 O1071 1.264 . S
O1049 Mn1044 2.095 . S
O1049 C1058 1.250 . S
O1050 Mn1045 2.121 . S
O1050 C1058 1.258 . S
C1051 N1052 1.326 . S
C1051 C1055 1.460 . S
C1051 H1057 0.929 . S
N1052 Mn1045 2.257 . S
N1052 C1051 1.326 . S
N1052 C1056 1.362 . S
C1053 C1054 1.258 . S
C1053 C1056 1.431 . S
C1053 C1073 1.449 . S
C1054 C1053 1.258 . S
C1054 C1055 1.477 . S
C1054 H1074 0.931 . S
C1055 C1051 1.460 . S
C1055 C1054 1.477 . S
C1055 H1075 0.930 . S
C1056 N1052 1.362 . S
C1056 C1053 1.431 . S
C1056 C1066 1.476 . S
H1057 C1051 0.929 . S
C1058 O1049 1.250 . S
C1058 O1050 1.258 . S
O1059 Mn1044 2.162 . S
O1059 C1047 1.281 . S
O1060 Mn1044 2.297 . S
O1060 C1047 1.236 . S
N1061 Mn1045 2.282 . S
N1061 C1062 1.328 . S
N1061 C1066 1.318 . S
C1062 N1061 1.328 . S
C1062 C1063 1.457 . S
C1062 H1067 0.929 . S
C1063 C1062 1.457 . S
C1063 C1064 1.291 . S
C1063 H1076 0.931 . S
C1064 C1063 1.291 . S
C1064 C1065 1.373 . S
C1064 H1077 0.929 . S
C1065 C1064 1.373 . S
C1065 C1066 1.396 . S
C1065 C1072 1.403 . S
C1066 C1056 1.476 . S
C1066 N1061 1.318 . S
C1066 C1065 1.396 . S
H1067 C1062 0.929 . S
O1068 Mn1044 2.385 . S
O1068 C1046 1.234 . S
O1069 Mn1044 2.209 . S
O1069 Mn1045 2.215 . S
O1069 C1046 1.283 . S
O1070 Mn1044 2.094 . S
O1070 C1048 1.240 . S
O1071 Mn1045 2.117 . S
O1071 C1048 1.264 . S
C1072 C1065 1.403 . S
C1072 C1073 1.399 . S
C1072 H1078 0.929 . S
C1073 C1053 1.449 . S
C1073 C1072 1.399 . S
C1073 H1079 0.930 . S
H1074 C1054 0.931 . S
H1075 C1055 0.930 . S
H1076 C1063 0.931 . S
H1077 C1064 0.929 . S
H1078 C1072 0.929 . S
H1079 C1073 0.930 . S
Mn1080 O1085 2.095 . S
Mn1080 O1095 2.162 . S
Mn1080 O1096 2.297 . S
Mn1080 O1104 2.385 . S
Mn1080 O1105 2.209 . S
Mn1080 O1106 2.094 . S
Mn1081 O1086 2.121 . S
Mn1081 N1088 2.257 . S
Mn1081 N1097 2.282 . S
Mn1081 O1105 2.215 . S
Mn1081 O1107 2.117 . S
C1082 O1104 1.234 . S
C1082 O1105 1.283 . S
C1083 O1095 1.281 . S
C1083 O1096 1.236 . S
C1084 O1106 1.240 . S
C1084 O1107 1.264 . S
O1085 Mn1080 2.095 . S
O1085 C1094 1.250 . S
O1086 Mn1081 2.121 . S
O1086 C1094 1.258 . S
C1087 N1088 1.326 . S
C1087 C1091 1.460 . S
C1087 H1093 0.929 . S
N1088 Mn1081 2.257 . S
N1088 C1087 1.326 . S
N1088 C1092 1.362 . S
C1089 C1090 1.258 . S
C1089 C1092 1.431 . S
C1089 C1109 1.449 . S
C1090 C1089 1.258 . S
C1090 C1091 1.477 . S
C1090 H1110 0.931 . S
C1091 C1087 1.460 . S
C1091 C1090 1.477 . S
C1091 H1111 0.930 . S
C1092 N1088 1.362 . S
C1092 C1089 1.431 . S
C1092 C1102 1.476 . S
H1093 C1087 0.929 . S
C1094 O1085 1.250 . S
C1094 O1086 1.258 . S
O1095 Mn1080 2.162 . S
O1095 C1083 1.281 . S
O1096 Mn1080 2.297 . S
O1096 C1083 1.236 . S
N1097 Mn1081 2.282 . S
N1097 C1098 1.328 . S
N1097 C1102 1.318 . S
C1098 N1097 1.328 . S
C1098 C1099 1.457 . S
C1098 H1103 0.929 . S
C1099 C1098 1.457 . S
C1099 C1100 1.291 . S
C1099 H1112 0.931 . S
C1100 C1099 1.291 . S
C1100 C1101 1.373 . S
C1100 H1113 0.929 . S
C1101 C1100 1.373 . S
C1101 C1102 1.396 . S
C1101 C1108 1.403 . S
C1102 C1092 1.476 . S
C1102 N1097 1.318 . S
C1102 C1101 1.396 . S
H1103 C1098 0.929 . S
O1104 Mn1080 2.385 . S
O1104 C1082 1.234 . S
O1105 Mn1080 2.209 . S
O1105 Mn1081 2.215 . S
O1105 C1082 1.283 . S
O1106 Mn1080 2.094 . S
O1106 C1084 1.240 . S
O1107 Mn1081 2.117 . S
O1107 C1084 1.264 . S
C1108 C1101 1.403 . S
C1108 C1109 1.399 . S
C1108 H1114 0.929 . S
C1109 C1089 1.449 . S
C1109 C1108 1.399 . S
C1109 H1115 0.930 . S
H1110 C1090 0.931 . S
H1111 C1091 0.930 . S
H1112 C1099 0.931 . S
H1113 C1100 0.929 . S
H1114 C1108 0.929 . S
H1115 C1109 0.930 . S
Mn1116 O1121 2.095 . S
Mn1116 O1131 2.162 . S
Mn1116 O1132 2.297 . S
Mn1116 O1140 2.385 . S
Mn1116 O1141 2.209 . S
Mn1116 O1142 2.094 . S
Mn1117 O1122 2.121 . S
Mn1117 N1124 2.257 . S
Mn1117 N1133 2.282 . S
Mn1117 O1141 2.215 . S
Mn1117 O1143 2.117 . S
C1118 O1140 1.234 . S
C1118 O1141 1.283 . S
C1119 O1131 1.281 . S
C1119 O1132 1.236 . S
C1120 O1142 1.240 . S
C1120 O1143 1.264 . S
O1121 Mn1116 2.095 . S
O1121 C1130 1.250 . S
O1122 Mn1117 2.121 . S
O1122 C1130 1.258 . S
C1123 N1124 1.326 . S
C1123 C1127 1.460 . S
C1123 H1129 0.929 . S
N1124 Mn1117 2.257 . S
N1124 C1123 1.326 . S
N1124 C1128 1.362 . S
C1125 C1126 1.258 . S
C1125 C1128 1.431 . S
C1125 C1145 1.449 . S
C1126 C1125 1.258 . S
C1126 C1127 1.477 . S
C1126 H1146 0.931 . S
C1127 C1123 1.460 . S
C1127 C1126 1.477 . S
C1127 H1147 0.930 . S
C1128 N1124 1.362 . S
C1128 C1125 1.431 . S
C1128 C1138 1.476 . S
H1129 C1123 0.929 . S
C1130 O1121 1.250 . S
C1130 O1122 1.258 . S
O1131 Mn1116 2.162 . S
O1131 C1119 1.281 . S
O1132 Mn1116 2.297 . S
O1132 C1119 1.236 . S
N1133 Mn1117 2.282 . S
N1133 C1134 1.328 . S
N1133 C1138 1.318 . S
C1134 N1133 1.328 . S
C1134 C1135 1.457 . S
C1134 H1139 0.929 . S
C1135 C1134 1.457 . S
C1135 C1136 1.291 . S
C1135 H1148 0.931 . S
C1136 C1135 1.291 . S
C1136 C1137 1.373 . S
C1136 H1149 0.929 . S
C1137 C1136 1.373 . S
C1137 C1138 1.396 . S
C1137 C1144 1.403 . S
C1138 C1128 1.476 . S
C1138 N1133 1.318 . S
C1138 C1137 1.396 . S
H1139 C1134 0.929 . S
O1140 Mn1116 2.385 . S
O1140 C1118 1.234 . S
O1141 Mn1116 2.209 . S
O1141 Mn1117 2.215 . S
O1141 C1118 1.283 . S
O1142 Mn1116 2.094 . S
O1142 C1120 1.240 . S
O1143 Mn1117 2.117 . S
O1143 C1120 1.264 . S
C1144 C1137 1.403 . S
C1144 C1145 1.399 . S
C1144 H1150 0.929 . S
C1145 C1125 1.449 . S
C1145 C1144 1.399 . S
C1145 H1151 0.930 . S
H1146 C1126 0.931 . S
H1147 C1127 0.930 . S
H1148 C1135 0.931 . S
H1149 C1136 0.929 . S
H1150 C1144 0.929 . S
H1151 C1145 0.930 . S
Mn1152 O1157 2.095 . S
Mn1152 O1167 2.162 . S
Mn1152 O1168 2.297 . S
Mn1152 O1176 2.385 . S
Mn1152 O1177 2.209 . S
Mn1152 O1178 2.094 . S
Mn1153 O1158 2.121 . S
Mn1153 N1160 2.257 . S
Mn1153 N1169 2.282 . S
Mn1153 O1177 2.215 . S
Mn1153 O1179 2.117 . S
C1154 O1176 1.234 . S
C1154 O1177 1.283 . S
C1155 O1167 1.281 . S
C1155 O1168 1.236 . S
C1156 O1178 1.240 . S
C1156 O1179 1.264 . S
O1157 Mn1152 2.095 . S
O1157 C1166 1.250 . S
O1158 Mn1153 2.121 . S
O1158 C1166 1.258 . S
C1159 N1160 1.326 . S
C1159 C1163 1.460 . S
C1159 H1165 0.929 . S
N1160 Mn1153 2.257 . S
N1160 C1159 1.326 . S
N1160 C1164 1.362 . S
C1161 C1162 1.258 . S
C1161 C1164 1.431 . S
C1161 C1181 1.449 . S
C1162 C1161 1.258 . S
C1162 C1163 1.477 . S
C1162 H1182 0.931 . S
C1163 C1159 1.460 . S
C1163 C1162 1.477 . S
C1163 H1183 0.930 . S
C1164 N1160 1.362 . S
C1164 C1161 1.431 . S
C1164 C1174 1.476 . S
H1165 C1159 0.929 . S
C1166 O1157 1.250 . S
C1166 O1158 1.258 . S
O1167 Mn1152 2.162 . S
O1167 C1155 1.281 . S
O1168 Mn1152 2.297 . S
O1168 C1155 1.236 . S
N1169 Mn1153 2.282 . S
N1169 C1170 1.328 . S
N1169 C1174 1.318 . S
C1170 N1169 1.328 . S
C1170 C1171 1.457 . S
C1170 H1175 0.929 . S
C1171 C1170 1.457 . S
C1171 C1172 1.291 . S
C1171 H1184 0.931 . S
C1172 C1171 1.291 . S
C1172 C1173 1.373 . S
C1172 H1185 0.929 . S
C1173 C1172 1.373 . S
C1173 C1174 1.396 . S
C1173 C1180 1.403 . S
C1174 C1164 1.476 . S
C1174 N1169 1.318 . S
C1174 C1173 1.396 . S
H1175 C1170 0.929 . S
O1176 Mn1152 2.385 . S
O1176 C1154 1.234 . S
O1177 Mn1152 2.209 . S
O1177 Mn1153 2.215 . S
O1177 C1154 1.283 . S
O1178 Mn1152 2.094 . S
O1178 C1156 1.240 . S
O1179 Mn1153 2.117 . S
O1179 C1156 1.264 . S
C1180 C1173 1.403 . S
C1180 C1181 1.399 . S
C1180 H1186 0.929 . S
C1181 C1161 1.449 . S
C1181 C1180 1.399 . S
C1181 H1187 0.930 . S
H1182 C1162 0.931 . S
H1183 C1163 0.930 . S
H1184 C1171 0.931 . S
H1185 C1172 0.929 . S
H1186 C1180 0.929 . S
H1187 C1181 0.930 . S
Mn1188 O1193 2.095 . S
Mn1188 O1203 2.162 . S
Mn1188 O1204 2.297 . S
Mn1188 O1212 2.385 . S
Mn1188 O1213 2.209 . S
Mn1188 O1214 2.094 . S
Mn1189 O1194 2.121 . S
Mn1189 N1196 2.257 . S
Mn1189 N1205 2.282 . S
Mn1189 O1213 2.215 . S
Mn1189 O1215 2.117 . S
C1190 O1212 1.234 . S
C1190 O1213 1.283 . S
C1191 O1203 1.281 . S
C1191 O1204 1.236 . S
C1192 O1214 1.240 . S
C1192 O1215 1.264 . S
O1193 Mn1188 2.095 . S
O1193 C1202 1.250 . S
O1194 Mn1189 2.121 . S
O1194 C1202 1.258 . S
C1195 N1196 1.326 . S
C1195 C1199 1.460 . S
C1195 H1201 0.929 . S
N1196 Mn1189 2.257 . S
N1196 C1195 1.326 . S
N1196 C1200 1.362 . S
C1197 C1198 1.258 . S
C1197 C1200 1.431 . S
C1197 C1217 1.449 . S
C1198 C1197 1.258 . S
C1198 C1199 1.477 . S
C1198 H1218 0.931 . S
C1199 C1195 1.460 . S
C1199 C1198 1.477 . S
C1199 H1219 0.930 . S
C1200 N1196 1.362 . S
C1200 C1197 1.431 . S
C1200 C1210 1.476 . S
H1201 C1195 0.929 . S
C1202 O1193 1.250 . S
C1202 O1194 1.258 . S
O1203 Mn1188 2.162 . S
O1203 C1191 1.281 . S
O1204 Mn1188 2.297 . S
O1204 C1191 1.236 . S
N1205 Mn1189 2.282 . S
N1205 C1206 1.328 . S
N1205 C1210 1.318 . S
C1206 N1205 1.328 . S
C1206 C1207 1.457 . S
C1206 H1211 0.929 . S
C1207 C1206 1.457 . S
C1207 C1208 1.291 . S
C1207 H1220 0.931 . S
C1208 C1207 1.291 . S
C1208 C1209 1.373 . S
C1208 H1221 0.929 . S
C1209 C1208 1.373 . S
C1209 C1210 1.396 . S
C1209 C1216 1.403 . S
C1210 C1200 1.476 . S
C1210 N1205 1.318 . S
C1210 C1209 1.396 . S
H1211 C1206 0.929 . S
O1212 Mn1188 2.385 . S
O1212 C1190 1.234 . S
O1213 Mn1188 2.209 . S
O1213 Mn1189 2.215 . S
O1213 C1190 1.283 . S
O1214 Mn1188 2.094 . S
O1214 C1192 1.240 . S
O1215 Mn1189 2.117 . S
O1215 C1192 1.264 . S
C1216 C1209 1.403 . S
C1216 C1217 1.399 . S
C1216 H1222 0.929 . S
C1217 C1197 1.449 . S
C1217 C1216 1.399 . S
C1217 H1223 0.930 . S
H1218 C1198 0.931 . S
H1219 C1199 0.930 . S
H1220 C1207 0.931 . S
H1221 C1208 0.929 . S
H1222 C1216 0.929 . S
H1223 C1217 0.930 . S
Mn1224 O1229 2.095 . S
Mn1224 O1239 2.162 . S
Mn1224 O1240 2.297 . S
Mn1224 O1248 2.385 . S
Mn1224 O1249 2.209 . S
Mn1224 O1250 2.094 . S
Mn1225 O1230 2.121 . S
Mn1225 N1232 2.257 . S
Mn1225 N1241 2.282 . S
Mn1225 O1249 2.215 . S
Mn1225 O1251 2.117 . S
C1226 O1248 1.234 . S
C1226 O1249 1.283 . S
C1227 O1239 1.281 . S
C1227 O1240 1.236 . S
C1228 O1250 1.240 . S
C1228 O1251 1.264 . S
O1229 Mn1224 2.095 . S
O1229 C1238 1.250 . S
O1230 Mn1225 2.121 . S
O1230 C1238 1.258 . S
C1231 N1232 1.326 . S
C1231 C1235 1.460 . S
C1231 H1237 0.929 . S
N1232 Mn1225 2.257 . S
N1232 C1231 1.326 . S
N1232 C1236 1.362 . S
C1233 C1234 1.258 . S
C1233 C1236 1.431 . S
C1233 C1253 1.449 . S
C1234 C1233 1.258 . S
C1234 C1235 1.477 . S
C1234 H1254 0.931 . S
C1235 C1231 1.460 . S
C1235 C1234 1.477 . S
C1235 H1255 0.930 . S
C1236 N1232 1.362 . S
C1236 C1233 1.431 . S
C1236 C1246 1.476 . S
H1237 C1231 0.929 . S
C1238 O1229 1.250 . S
C1238 O1230 1.258 . S
O1239 Mn1224 2.162 . S
O1239 C1227 1.281 . S
O1240 Mn1224 2.297 . S
O1240 C1227 1.236 . S
N1241 Mn1225 2.282 . S
N1241 C1242 1.328 . S
N1241 C1246 1.318 . S
C1242 N1241 1.328 . S
C1242 C1243 1.457 . S
C1242 H1247 0.929 . S
C1243 C1242 1.457 . S
C1243 C1244 1.291 . S
C1243 H1256 0.931 . S
C1244 C1243 1.291 . S
C1244 C1245 1.373 . S
C1244 H1257 0.929 . S
C1245 C1244 1.373 . S
C1245 C1246 1.396 . S
C1245 C1252 1.403 . S
C1246 C1236 1.476 . S
C1246 N1241 1.318 . S
C1246 C1245 1.396 . S
H1247 C1242 0.929 . S
O1248 Mn1224 2.385 . S
O1248 C1226 1.234 . S
O1249 Mn1224 2.209 . S
O1249 Mn1225 2.215 . S
O1249 C1226 1.283 . S
O1250 Mn1224 2.094 . S
O1250 C1228 1.240 . S
O1251 Mn1225 2.117 . S
O1251 C1228 1.264 . S
C1252 C1245 1.403 . S
C1252 C1253 1.399 . S
C1252 H1258 0.929 . S
C1253 C1233 1.449 . S
C1253 C1252 1.399 . S
C1253 H1259 0.930 . S
H1254 C1234 0.931 . S
H1255 C1235 0.930 . S
H1256 C1243 0.931 . S
H1257 C1244 0.929 . S
H1258 C1252 0.929 . S
H1259 C1253 0.930 . S
Mn1260 O1265 2.095 . S
Mn1260 O1275 2.162 . S
Mn1260 O1276 2.297 . S
Mn1260 O1284 2.385 . S
Mn1260 O1285 2.209 . S
Mn1260 O1286 2.094 . S
Mn1261 O1266 2.121 . S
Mn1261 N1268 2.257 . S
Mn1261 N1277 2.282 . S
Mn1261 O1285 2.215 . S
Mn1261 O1287 2.117 . S
C1262 O1284 1.234 . S
C1262 O1285 1.283 . S
C1263 O1275 1.281 . S
C1263 O1276 1.236 . S
C1264 O1286 1.240 . S
C1264 O1287 1.264 . S
O1265 Mn1260 2.095 . S
O1265 C1274 1.250 . S
O1266 Mn1261 2.121 . S
O1266 C1274 1.258 . S
C1267 N1268 1.326 . S
C1267 C1271 1.460 . S
C1267 H1273 0.929 . S
N1268 Mn1261 2.257 . S
N1268 C1267 1.326 . S
N1268 C1272 1.362 . S
C1269 C1270 1.258 . S
C1269 C1272 1.431 . S
C1269 C1289 1.449 . S
C1270 C1269 1.258 . S
C1270 C1271 1.477 . S
C1270 H1290 0.931 . S
C1271 C1267 1.460 . S
C1271 C1270 1.477 . S
C1271 H1291 0.930 . S
C1272 N1268 1.362 . S
C1272 C1269 1.431 . S
C1272 C1282 1.476 . S
H1273 C1267 0.929 . S
C1274 O1265 1.250 . S
C1274 O1266 1.258 . S
O1275 Mn1260 2.162 . S
O1275 C1263 1.281 . S
O1276 Mn1260 2.297 . S
O1276 C1263 1.236 . S
N1277 Mn1261 2.282 . S
N1277 C1278 1.328 . S
N1277 C1282 1.318 . S
C1278 N1277 1.328 . S
C1278 C1279 1.457 . S
C1278 H1283 0.929 . S
C1279 C1278 1.457 . S
C1279 C1280 1.291 . S
C1279 H1292 0.931 . S
C1280 C1279 1.291 . S
C1280 C1281 1.373 . S
C1280 H1293 0.929 . S
C1281 C1280 1.373 . S
C1281 C1282 1.396 . S
C1281 C1288 1.403 . S
C1282 C1272 1.476 . S
C1282 N1277 1.318 . S
C1282 C1281 1.396 . S
H1283 C1278 0.929 . S
O1284 Mn1260 2.385 . S
O1284 C1262 1.234 . S
O1285 Mn1260 2.209 . S
O1285 Mn1261 2.215 . S
O1285 C1262 1.283 . S
O1286 Mn1260 2.094 . S
O1286 C1264 1.240 . S
O1287 Mn1261 2.117 . S
O1287 C1264 1.264 . S
C1288 C1281 1.403 . S
C1288 C1289 1.399 . S
C1288 H1294 0.929 . S
C1289 C1269 1.449 . S
C1289 C1288 1.399 . S
C1289 H1295 0.930 . S
H1290 C1270 0.931 . S
H1291 C1271 0.930 . S
H1292 C1279 0.931 . S
H1293 C1280 0.929 . S
H1294 C1288 0.929 . S
H1295 C1289 0.930 . S
C1296 C1297 1.349 . S
C1296 C1298 1.327 . S
C1296 H1321 0.950 . S
C1297 C1296 1.349 . S
C1297 C1313 1.349 . S
C1298 C1296 1.327 . S
C1298 C1317 1.429 . S
C1298 H1322 0.950 . S
C1299 C1316 1.574 . S
C1299 C1318 1.368 . S
C1299 H1323 0.949 . S
H1300 C1304 0.949 . S
C1301 C1302 1.349 . S
C1301 C1303 1.327 . S
C1301 H1324 0.950 . S
C1302 C1301 1.349 . S
C1302 C1314 1.349 . S
C1303 C1301 1.327 . S
C1303 C1319 1.429 . S
C1303 H1325 0.950 . S
C1304 H1300 0.949 . S
C1304 C1312 1.574 . S
C1304 C1320 1.368 . S
H1305 C1313 0.950 . S
H1306 C1311 0.950 . S
H1307 C1312 0.949 . S
H1308 C1314 0.950 . S
H1309 C1315 0.950 . S
H1310 C1316 0.949 . S
C1311 H1306 0.950 . S
C1311 C1313 1.327 . S
C1311 C1317 1.429 . S
C1312 C1304 1.574 . S
C1312 H1307 0.949 . S
C1312 C1318 1.368 . S
C1313 C1297 1.349 . S
C1313 H1305 0.950 . S
C1313 C1311 1.327 . S
C1314 C1302 1.349 . S
C1314 H1308 0.950 . S
C1314 C1315 1.327 . S
C1315 H1309 0.950 . S
C1315 C1314 1.327 . S
C1315 C1319 1.429 . S
C1316 C1299 1.574 . S
C1316 H1310 0.949 . S
C1316 C1320 1.368 . S
C1317 C1298 1.429 . S
C1317 C1311 1.429 . S
C1317 C1318 1.523 . S
C1318 C1299 1.368 . S
C1318 C1312 1.368 . S
C1318 C1317 1.523 . S
C1319 C1303 1.429 . S
C1319 C1315 1.429 . S
C1319 C1320 1.523 . S
C1320 C1304 1.368 . S
C1320 C1316 1.368 . S
C1320 C1319 1.523 . S
H1321 C1296 0.950 . S
H1322 C1298 0.950 . S
H1323 C1299 0.949 . S
H1324 C1301 0.950 . S
H1325 C1303 0.950 . S
C1326 C1327 1.349 . S
C1326 C1328 1.327 . S
C1326 H1351 0.950 . S
C1327 C1326 1.349 . S
C1327 C1343 1.349 . S
C1328 C1326 1.327 . S
C1328 C1347 1.429 . S
C1328 H1352 0.950 . S
C1329 C1346 1.574 . S
C1329 C1348 1.368 . S
C1329 H1353 0.949 . S
H1330 C1334 0.949 . S
C1331 C1332 1.349 . S
C1331 C1333 1.327 . S
C1331 H1354 0.950 . S
C1332 C1331 1.349 . S
C1332 C1344 1.349 . S
C1333 C1331 1.327 . S
C1333 C1349 1.429 . S
C1333 H1355 0.950 . S
C1334 H1330 0.949 . S
C1334 C1342 1.574 . S
C1334 C1350 1.368 . S
H1335 C1343 0.950 . S
H1336 C1341 0.950 . S
H1337 C1342 0.949 . S
H1338 C1344 0.950 . S
H1339 C1345 0.950 . S
H1340 C1346 0.949 . S
C1341 H1336 0.950 . S
C1341 C1343 1.327 . S
C1341 C1347 1.429 . S
C1342 C1334 1.574 . S
C1342 H1337 0.949 . S
C1342 C1348 1.368 . S
C1343 C1327 1.349 . S
C1343 H1335 0.950 . S
C1343 C1341 1.327 . S
C1344 C1332 1.349 . S
C1344 H1338 0.950 . S
C1344 C1345 1.327 . S
C1345 H1339 0.950 . S
C1345 C1344 1.327 . S
C1345 C1349 1.429 . S
C1346 C1329 1.574 . S
C1346 H1340 0.949 . S
C1346 C1350 1.368 . S
C1347 C1328 1.429 . S
C1347 C1341 1.429 . S
C1347 C1348 1.523 . S
C1348 C1329 1.368 . S
C1348 C1342 1.368 . S
C1348 C1347 1.523 . S
C1349 C1333 1.429 . S
C1349 C1345 1.429 . S
C1349 C1350 1.523 . S
C1350 C1334 1.368 . S
C1350 C1346 1.368 . S
C1350 C1349 1.523 . S
H1351 C1326 0.950 . S
H1352 C1328 0.950 . S
H1353 C1329 0.949 . S
H1354 C1331 0.950 . S
H1355 C1333 0.950 . S
C1356 C1357 1.349 . S
C1356 C1358 1.327 . S
C1356 H1381 0.950 . S
C1357 C1356 1.349 . S
C1357 C1373 1.349 . S
C1358 C1356 1.327 . S
C1358 C1377 1.429 . S
C1358 H1382 0.950 . S
C1359 C1376 1.574 . S
C1359 C1378 1.368 . S
C1359 H1383 0.949 . S
H1360 C1364 0.949 . S
C1361 C1362 1.349 . S
C1361 C1363 1.327 . S
C1361 H1384 0.950 . S
C1362 C1361 1.349 . S
C1362 C1374 1.349 . S
C1363 C1361 1.327 . S
C1363 C1379 1.429 . S
C1363 H1385 0.950 . S
C1364 H1360 0.949 . S
C1364 C1372 1.574 . S
C1364 C1380 1.368 . S
H1365 C1373 0.950 . S
H1366 C1371 0.950 . S
H1367 C1372 0.949 . S
H1368 C1374 0.950 . S
H1369 C1375 0.950 . S
H1370 C1376 0.949 . S
C1371 H1366 0.950 . S
C1371 C1373 1.327 . S
C1371 C1377 1.429 . S
C1372 C1364 1.574 . S
C1372 H1367 0.949 . S
C1372 C1378 1.368 . S
C1373 C1357 1.349 . S
C1373 H1365 0.950 . S
C1373 C1371 1.327 . S
C1374 C1362 1.349 . S
C1374 H1368 0.950 . S
C1374 C1375 1.327 . S
C1375 H1369 0.950 . S
C1375 C1374 1.327 . S
C1375 C1379 1.429 . S
C1376 C1359 1.574 . S
C1376 H1370 0.949 . S
C1376 C1380 1.368 . S
C1377 C1358 1.429 . S
C1377 C1371 1.429 . S
C1377 C1378 1.523 . S
C1378 C1359 1.368 . S
C1378 C1372 1.368 . S
C1378 C1377 1.523 . S
C1379 C1363 1.429 . S
C1379 C1375 1.429 . S
C1379 C1380 1.523 . S
C1380 C1364 1.368 . S
C1380 C1376 1.368 . S
C1380 C1379 1.523 . S
H1381 C1356 0.950 . S
H1382 C1358 0.950 . S
H1383 C1359 0.949 . S
H1384 C1361 0.950 . S
H1385 C1363 0.950 . S
C1386 C1387 1.349 . S
C1386 C1388 1.327 . S
C1386 H1411 0.950 . S
C1387 C1386 1.349 . S
C1387 C1403 1.349 . S
C1388 C1386 1.327 . S
C1388 C1407 1.429 . S
C1388 H1412 0.950 . S
C1389 C1406 1.574 . S
C1389 C1408 1.368 . S
C1389 H1413 0.949 . S
H1390 C1394 0.949 . S
C1391 C1392 1.349 . S
C1391 C1393 1.327 . S
C1391 H1414 0.950 . S
C1392 C1391 1.349 . S
C1392 C1404 1.349 . S
C1393 C1391 1.327 . S
C1393 C1409 1.429 . S
C1393 H1415 0.950 . S
C1394 H1390 0.949 . S
C1394 C1402 1.574 . S
C1394 C1410 1.368 . S
H1395 C1403 0.950 . S
H1396 C1401 0.950 . S
H1397 C1402 0.949 . S
H1398 C1404 0.950 . S
H1399 C1405 0.950 . S
H1400 C1406 0.949 . S
C1401 H1396 0.950 . S
C1401 C1403 1.327 . S
C1401 C1407 1.429 . S
C1402 C1394 1.574 . S
C1402 H1397 0.949 . S
C1402 C1408 1.368 . S
C1403 C1387 1.349 . S
C1403 H1395 0.950 . S
C1403 C1401 1.327 . S
C1404 C1392 1.349 . S
C1404 H1398 0.950 . S
C1404 C1405 1.327 . S
C1405 H1399 0.950 . S
C1405 C1404 1.327 . S
C1405 C1409 1.429 . S
C1406 C1389 1.574 . S
C1406 H1400 0.949 . S
C1406 C1410 1.368 . S
C1407 C1388 1.429 . S
C1407 C1401 1.429 . S
C1407 C1408 1.523 . S
C1408 C1389 1.368 . S
C1408 C1402 1.368 . S
C1408 C1407 1.523 . S
C1409 C1393 1.429 . S
C1409 C1405 1.429 . S
C1409 C1410 1.523 . S
C1410 C1394 1.368 . S
C1410 C1406 1.368 . S
C1410 C1409 1.523 . S
H1411 C1386 0.950 . S
H1412 C1388 0.950 . S
H1413 C1389 0.949 . S
H1414 C1391 0.950 . S
H1415 C1393 0.950 . S
C1416 C1417 1.349 . S
C1416 C1418 1.327 . S
C1416 H1441 0.950 . S
C1417 C1416 1.349 . S
C1417 C1433 1.349 . S
C1418 C1416 1.327 . S
C1418 C1437 1.429 . S
C1418 H1442 0.950 . S
C1419 C1436 1.574 . S
C1419 C1438 1.368 . S
C1419 H1443 0.949 . S
H1420 C1424 0.949 . S
C1421 C1422 1.349 . S
C1421 C1423 1.327 . S
C1421 H1444 0.950 . S
C1422 C1421 1.349 . S
C1422 C1434 1.349 . S
C1423 C1421 1.327 . S
C1423 C1439 1.429 . S
C1423 H1445 0.950 . S
C1424 H1420 0.949 . S
C1424 C1432 1.574 . S
C1424 C1440 1.368 . S
H1425 C1433 0.950 . S
H1426 C1431 0.950 . S
H1427 C1432 0.949 . S
H1428 C1434 0.950 . S
H1429 C1435 0.950 . S
H1430 C1436 0.949 . S
C1431 H1426 0.950 . S
C1431 C1433 1.327 . S
C1431 C1437 1.429 . S
C1432 C1424 1.574 . S
C1432 H1427 0.949 . S
C1432 C1438 1.368 . S
C1433 C1417 1.349 . S
C1433 H1425 0.950 . S
C1433 C1431 1.327 . S
C1434 C1422 1.349 . S
C1434 H1428 0.950 . S
C1434 C1435 1.327 . S
C1435 H1429 0.950 . S
C1435 C1434 1.327 . S
C1435 C1439 1.429 . S
C1436 C1419 1.574 . S
C1436 H1430 0.949 . S
C1436 C1440 1.368 . S
C1437 C1418 1.429 . S
C1437 C1431 1.429 . S
C1437 C1438 1.523 . S
C1438 C1419 1.368 . S
C1438 C1432 1.368 . S
C1438 C1437 1.523 . S
C1439 C1423 1.429 . S
C1439 C1435 1.429 . S
C1439 C1440 1.523 . S
C1440 C1424 1.368 . S
C1440 C1436 1.368 . S
C1440 C1439 1.523 . S
H1441 C1416 0.950 . S
H1442 C1418 0.950 . S
H1443 C1419 0.949 . S
H1444 C1421 0.950 . S
H1445 C1423 0.950 . S
C1446 C1447 1.349 . S
C1446 C1448 1.327 . S
C1446 H1471 0.950 . S
C1447 C1446 1.349 . S
C1447 C1463 1.349 . S
C1448 C1446 1.327 . S
C1448 C1467 1.429 . S
C1448 H1472 0.950 . S
C1449 C1466 1.574 . S
C1449 C1468 1.368 . S
C1449 H1473 0.949 . S
H1450 C1454 0.949 . S
C1451 C1452 1.349 . S
C1451 C1453 1.327 . S
C1451 H1474 0.950 . S
C1452 C1451 1.349 . S
C1452 C1464 1.349 . S
C1453 C1451 1.327 . S
C1453 C1469 1.429 . S
C1453 H1475 0.950 . S
C1454 H1450 0.949 . S
C1454 C1462 1.574 . S
C1454 C1470 1.368 . S
H1455 C1463 0.950 . S
H1456 C1461 0.950 . S
H1457 C1462 0.949 . S
H1458 C1464 0.950 . S
H1459 C1465 0.950 . S
H1460 C1466 0.949 . S
C1461 H1456 0.950 . S
C1461 C1463 1.327 . S
C1461 C1467 1.429 . S
C1462 C1454 1.574 . S
C1462 H1457 0.949 . S
C1462 C1468 1.368 . S
C1463 C1447 1.349 . S
C1463 H1455 0.950 . S
C1463 C1461 1.327 . S
C1464 C1452 1.349 . S
C1464 H1458 0.950 . S
C1464 C1465 1.327 . S
C1465 H1459 0.950 . S
C1465 C1464 1.327 . S
C1465 C1469 1.429 . S
C1466 C1449 1.574 . S
C1466 H1460 0.949 . S
C1466 C1470 1.368 . S
C1467 C1448 1.429 . S
C1467 C1461 1.429 . S
C1467 C1468 1.523 . S
C1468 C1449 1.368 . S
C1468 C1462 1.368 . S
C1468 C1467 1.523 . S
C1469 C1453 1.429 . S
C1469 C1465 1.429 . S
C1469 C1470 1.523 . S
C1470 C1454 1.368 . S
C1470 C1466 1.368 . S
C1470 C1469 1.523 . S
H1471 C1446 0.950 . S
H1472 C1448 0.950 . S
H1473 C1449 0.949 . S
H1474 C1451 0.950 . S
H1475 C1453 0.950 . S
C1476 C1477 1.349 . S
C1476 C1478 1.327 . S
C1476 H1501 0.950 . S
C1477 C1476 1.349 . S
C1477 C1493 1.349 . S
C1478 C1476 1.327 . S
C1478 C1497 1.429 . S
C1478 H1502 0.950 . S
C1479 C1496 1.574 . S
C1479 C1498 1.368 . S
C1479 H1503 0.949 . S
H1480 C1484 0.949 . S
C1481 C1482 1.349 . S
C1481 C1483 1.327 . S
C1481 H1504 0.950 . S
C1482 C1481 1.349 . S
C1482 C1494 1.349 . S
C1483 C1481 1.327 . S
C1483 C1499 1.429 . S
C1483 H1505 0.950 . S
C1484 H1480 0.949 . S
C1484 C1492 1.574 . S
C1484 C1500 1.368 . S
H1485 C1493 0.950 . S
H1486 C1491 0.950 . S
H1487 C1492 0.949 . S
H1488 C1494 0.950 . S
H1489 C1495 0.950 . S
H1490 C1496 0.949 . S
C1491 H1486 0.950 . S
C1491 C1493 1.327 . S
C1491 C1497 1.429 . S
C1492 C1484 1.574 . S
C1492 H1487 0.949 . S
C1492 C1498 1.368 . S
C1493 C1477 1.349 . S
C1493 H1485 0.950 . S
C1493 C1491 1.327 . S
C1494 C1482 1.349 . S
C1494 H1488 0.950 . S
C1494 C1495 1.327 . S
C1495 H1489 0.950 . S
C1495 C1494 1.327 . S
C1495 C1499 1.429 . S
C1496 C1479 1.574 . S
C1496 H1490 0.949 . S
C1496 C1500 1.368 . S
C1497 C1478 1.429 . S
C1497 C1491 1.429 . S
C1497 C1498 1.523 . S
C1498 C1479 1.368 . S
C1498 C1492 1.368 . S
C1498 C1497 1.523 . S
C1499 C1483 1.429 . S
C1499 C1495 1.429 . S
C1499 C1500 1.523 . S
C1500 C1484 1.368 . S
C1500 C1496 1.368 . S
C1500 C1499 1.523 . S
H1501 C1476 0.950 . S
H1502 C1478 0.950 . S
H1503 C1479 0.949 . S
H1504 C1481 0.950 . S
H1505 C1483 0.950 . S
C1506 C1507 1.349 . S
C1506 C1508 1.327 . S
C1506 H1531 0.950 . S
C1507 C1506 1.349 . S
C1507 C1523 1.349 . S
C1508 C1506 1.327 . S
C1508 C1527 1.429 . S
C1508 H1532 0.950 . S
C1509 C1526 1.574 . S
C1509 C1528 1.368 . S
C1509 H1533 0.949 . S
H1510 C1514 0.949 . S
C1511 C1512 1.349 . S
C1511 C1513 1.327 . S
C1511 H1534 0.950 . S
C1512 C1511 1.349 . S
C1512 C1524 1.349 . S
C1513 C1511 1.327 . S
C1513 C1529 1.429 . S
C1513 H1535 0.950 . S
C1514 H1510 0.949 . S
C1514 C1522 1.574 . S
C1514 C1530 1.368 . S
H1515 C1523 0.950 . S
H1516 C1521 0.950 . S
H1517 C1522 0.949 . S
H1518 C1524 0.950 . S
H1519 C1525 0.950 . S
H1520 C1526 0.949 . S
C1521 H1516 0.950 . S
C1521 C1523 1.327 . S
C1521 C1527 1.429 . S
C1522 C1514 1.574 . S
C1522 H1517 0.949 . S
C1522 C1528 1.368 . S
C1523 C1507 1.349 . S
C1523 H1515 0.950 . S
C1523 C1521 1.327 . S
C1524 C1512 1.349 . S
C1524 H1518 0.950 . S
C1524 C1525 1.327 . S
C1525 H1519 0.950 . S
C1525 C1524 1.327 . S
C1525 C1529 1.429 . S
C1526 C1509 1.574 . S
C1526 H1520 0.949 . S
C1526 C1530 1.368 . S
C1527 C1508 1.429 . S
C1527 C1521 1.429 . S
C1527 C1528 1.523 . S
C1528 C1509 1.368 . S
C1528 C1522 1.368 . S
C1528 C1527 1.523 . S
C1529 C1513 1.429 . S
C1529 C1525 1.429 . S
C1529 C1530 1.523 . S
C1530 C1514 1.368 . S
C1530 C1526 1.368 . S
C1530 C1529 1.523 . S
H1531 C1506 0.950 . S
H1532 C1508 0.950 . S
H1533 C1509 0.949 . S
H1534 C1511 0.950 . S
H1535 C1513 0.950 . S
C1536 C1537 1.349 . S
C1536 C1538 1.327 . S
C1536 H1561 0.950 . S
C1537 C1536 1.349 . S
C1537 C1553 1.349 . S
C1538 C1536 1.327 . S
C1538 C1557 1.429 . S
C1538 H1562 0.950 . S
C1539 C1556 1.574 . S
C1539 C1558 1.368 . S
C1539 H1563 0.949 . S
H1540 C1544 0.949 . S
C1541 C1542 1.349 . S
C1541 C1543 1.327 . S
C1541 H1564 0.950 . S
C1542 C1541 1.349 . S
C1542 C1554 1.349 . S
C1543 C1541 1.327 . S
C1543 C1559 1.429 . S
C1543 H1565 0.950 . S
C1544 H1540 0.949 . S
C1544 C1552 1.574 . S
C1544 C1560 1.368 . S
H1545 C1553 0.950 . S
H1546 C1551 0.950 . S
H1547 C1552 0.949 . S
H1548 C1554 0.950 . S
H1549 C1555 0.950 . S
H1550 C1556 0.949 . S
C1551 H1546 0.950 . S
C1551 C1553 1.327 . S
C1551 C1557 1.429 . S
C1552 C1544 1.574 . S
C1552 H1547 0.949 . S
C1552 C1558 1.368 . S
C1553 C1537 1.349 . S
C1553 H1545 0.950 . S
C1553 C1551 1.327 . S
C1554 C1542 1.349 . S
C1554 H1548 0.950 . S
C1554 C1555 1.327 . S
C1555 H1549 0.950 . S
C1555 C1554 1.327 . S
C1555 C1559 1.429 . S
C1556 C1539 1.574 . S
C1556 H1550 0.949 . S
C1556 C1560 1.368 . S
C1557 C1538 1.429 . S
C1557 C1551 1.429 . S
C1557 C1558 1.523 . S
C1558 C1539 1.368 . S
C1558 C1552 1.368 . S
C1558 C1557 1.523 . S
C1559 C1543 1.429 . S
C1559 C1555 1.429 . S
C1559 C1560 1.523 . S
C1560 C1544 1.368 . S
C1560 C1556 1.368 . S
C1560 C1559 1.523 . S
H1561 C1536 0.950 . S
H1562 C1538 0.950 . S
H1563 C1539 0.949 . S
H1564 C1541 0.950 . S
H1565 C1543 0.950 . S
C1566 C1567 1.349 . S
C1566 C1568 1.327 . S
C1566 H1591 0.950 . S
C1567 C1566 1.349 . S
C1567 C1583 1.349 . S
C1568 C1566 1.327 . S
C1568 C1587 1.429 . S
C1568 H1592 0.950 . S
C1569 C1586 1.574 . S
C1569 C1588 1.368 . S
C1569 H1593 0.949 . S
H1570 C1574 0.949 . S
C1571 C1572 1.349 . S
C1571 C1573 1.327 . S
C1571 H1594 0.950 . S
C1572 C1571 1.349 . S
C1572 C1584 1.349 . S
C1573 C1571 1.327 . S
C1573 C1589 1.429 . S
C1573 H1595 0.950 . S
C1574 H1570 0.949 . S
C1574 C1582 1.574 . S
C1574 C1590 1.368 . S
H1575 C1583 0.950 . S
H1576 C1581 0.950 . S
H1577 C1582 0.949 . S
H1578 C1584 0.950 . S
H1579 C1585 0.950 . S
H1580 C1586 0.949 . S
C1581 H1576 0.950 . S
C1581 C1583 1.327 . S
C1581 C1587 1.429 . S
C1582 C1574 1.574 . S
C1582 H1577 0.949 . S
C1582 C1588 1.368 . S
C1583 C1567 1.349 . S
C1583 H1575 0.950 . S
C1583 C1581 1.327 . S
C1584 C1572 1.349 . S
C1584 H1578 0.950 . S
C1584 C1585 1.327 . S
C1585 H1579 0.950 . S
C1585 C1584 1.327 . S
C1585 C1589 1.429 . S
C1586 C1569 1.574 . S
C1586 H1580 0.949 . S
C1586 C1590 1.368 . S
C1587 C1568 1.429 . S
C1587 C1581 1.429 . S
C1587 C1588 1.523 . S
C1588 C1569 1.368 . S
C1588 C1582 1.368 . S
C1588 C1587 1.523 . S
C1589 C1573 1.429 . S
C1589 C1585 1.429 . S
C1589 C1590 1.523 . S
C1590 C1574 1.368 . S
C1590 C1586 1.368 . S
C1590 C1589 1.523 . S
H1591 C1566 0.950 . S
H1592 C1568 0.950 . S
H1593 C1569 0.949 . S
H1594 C1571 0.950 . S
H1595 C1573 0.950 . S
C1596 C1597 1.349 . S
C1596 C1598 1.327 . S
C1596 H1621 0.950 . S
C1597 C1596 1.349 . S
C1597 C1613 1.349 . S
C1598 C1596 1.327 . S
C1598 C1617 1.429 . S
C1598 H1622 0.950 . S
C1599 C1616 1.574 . S
C1599 C1618 1.368 . S
C1599 H1623 0.949 . S
H1600 C1604 0.949 . S
C1601 C1602 1.349 . S
C1601 C1603 1.327 . S
C1601 H1624 0.950 . S
C1602 C1601 1.349 . S
C1602 C1614 1.349 . S
C1603 C1601 1.327 . S
C1603 C1619 1.429 . S
C1603 H1625 0.950 . S
C1604 H1600 0.949 . S
C1604 C1612 1.574 . S
C1604 C1620 1.368 . S
H1605 C1613 0.950 . S
H1606 C1611 0.950 . S
H1607 C1612 0.949 . S
H1608 C1614 0.950 . S
H1609 C1615 0.950 . S
H1610 C1616 0.949 . S
C1611 H1606 0.950 . S
C1611 C1613 1.327 . S
C1611 C1617 1.429 . S
C1612 C1604 1.574 . S
C1612 H1607 0.949 . S
C1612 C1618 1.368 . S
C1613 C1597 1.349 . S
C1613 H1605 0.950 . S
C1613 C1611 1.327 . S
C1614 C1602 1.349 . S
C1614 H1608 0.950 . S
C1614 C1615 1.327 . S
C1615 H1609 0.950 . S
C1615 C1614 1.327 . S
C1615 C1619 1.429 . S
C1616 C1599 1.574 . S
C1616 H1610 0.949 . S
C1616 C1620 1.368 . S
C1617 C1598 1.429 . S
C1617 C1611 1.429 . S
C1617 C1618 1.523 . S
C1618 C1599 1.368 . S
C1618 C1612 1.368 . S
C1618 C1617 1.523 . S
C1619 C1603 1.429 . S
C1619 C1615 1.429 . S
C1619 C1620 1.523 . S
C1620 C1604 1.368 . S
C1620 C1616 1.368 . S
C1620 C1619 1.523 . S
H1621 C1596 0.950 . S
H1622 C1598 0.950 . S
H1623 C1599 0.949 . S
H1624 C1601 0.950 . S
H1625 C1603 0.950 . S
C1626 C1627 1.349 . S
C1626 C1628 1.327 . S
C1626 H1651 0.950 . S
C1627 C1626 1.349 . S
C1627 C1643 1.349 . S
C1628 C1626 1.327 . S
C1628 C1647 1.429 . S
C1628 H1652 0.950 . S
C1629 C1646 1.574 . S
C1629 C1648 1.368 . S
C1629 H1653 0.949 . S
H1630 C1634 0.949 . S
C1631 C1632 1.349 . S
C1631 C1633 1.327 . S
C1631 H1654 0.950 . S
C1632 C1631 1.349 . S
C1632 C1644 1.349 . S
C1633 C1631 1.327 . S
C1633 C1649 1.429 . S
C1633 H1655 0.950 . S
C1634 H1630 0.949 . S
C1634 C1642 1.574 . S
C1634 C1650 1.368 . S
H1635 C1643 0.950 . S
H1636 C1641 0.950 . S
H1637 C1642 0.949 . S
H1638 C1644 0.950 . S
H1639 C1645 0.950 . S
H1640 C1646 0.949 . S
C1641 H1636 0.950 . S
C1641 C1643 1.327 . S
C1641 C1647 1.429 . S
C1642 C1634 1.574 . S
C1642 H1637 0.949 . S
C1642 C1648 1.368 . S
C1643 C1627 1.349 . S
C1643 H1635 0.950 . S
C1643 C1641 1.327 . S
C1644 C1632 1.349 . S
C1644 H1638 0.950 . S
C1644 C1645 1.327 . S
C1645 H1639 0.950 . S
C1645 C1644 1.327 . S
C1645 C1649 1.429 . S
C1646 C1629 1.574 . S
C1646 H1640 0.949 . S
C1646 C1650 1.368 . S
C1647 C1628 1.429 . S
C1647 C1641 1.429 . S
C1647 C1648 1.523 . S
C1648 C1629 1.368 . S
C1648 C1642 1.368 . S
C1648 C1647 1.523 . S
C1649 C1633 1.429 . S
C1649 C1645 1.429 . S
C1649 C1650 1.523 . S
C1650 C1634 1.368 . S
C1650 C1646 1.368 . S
C1650 C1649 1.523 . S
H1651 C1626 0.950 . S
H1652 C1628 0.950 . S
H1653 C1629 0.949 . S
H1654 C1631 0.950 . S
H1655 C1633 0.950 . S
C1656 C1657 1.349 . S
C1656 C1658 1.327 . S
C1656 H1681 0.950 . S
C1657 C1656 1.349 . S
C1657 C1673 1.349 . S
C1658 C1656 1.327 . S
C1658 C1677 1.429 . S
C1658 H1682 0.950 . S
C1659 C1676 1.574 . S
C1659 C1678 1.368 . S
C1659 H1683 0.949 . S
H1660 C1664 0.949 . S
C1661 C1662 1.349 . S
C1661 C1663 1.327 . S
C1661 H1684 0.950 . S
C1662 C1661 1.349 . S
C1662 C1674 1.349 . S
C1663 C1661 1.327 . S
C1663 C1679 1.429 . S
C1663 H1685 0.950 . S
C1664 H1660 0.949 . S
C1664 C1672 1.574 . S
C1664 C1680 1.368 . S
H1665 C1673 0.950 . S
H1666 C1671 0.950 . S
H1667 C1672 0.949 . S
H1668 C1674 0.950 . S
H1669 C1675 0.950 . S
H1670 C1676 0.949 . S
C1671 H1666 0.950 . S
C1671 C1673 1.327 . S
C1671 C1677 1.429 . S
C1672 C1664 1.574 . S
C1672 H1667 0.949 . S
C1672 C1678 1.368 . S
C1673 C1657 1.349 . S
C1673 H1665 0.950 . S
C1673 C1671 1.327 . S
C1674 C1662 1.349 . S
C1674 H1668 0.950 . S
C1674 C1675 1.327 . S
C1675 H1669 0.950 . S
C1675 C1674 1.327 . S
C1675 C1679 1.429 . S
C1676 C1659 1.574 . S
C1676 H1670 0.949 . S
C1676 C1680 1.368 . S
C1677 C1658 1.429 . S
C1677 C1671 1.429 . S
C1677 C1678 1.523 . S
C1678 C1659 1.368 . S
C1678 C1672 1.368 . S
C1678 C1677 1.523 . S
C1679 C1663 1.429 . S
C1679 C1675 1.429 . S
C1679 C1680 1.523 . S
C1680 C1664 1.368 . S
C1680 C1676 1.368 . S
C1680 C1679 1.523 . S
H1681 C1656 0.950 . S
H1682 C1658 0.950 . S
H1683 C1659 0.949 . S
H1684 C1661 0.950 . S
H1685 C1663 0.950 . S
C1686 C1687 1.349 . S
C1686 C1688 1.327 . S
C1686 H1711 0.950 . S
C1687 C1686 1.349 . S
C1687 C1703 1.349 . S
C1688 C1686 1.327 . S
C1688 C1707 1.429 . S
C1688 H1712 0.950 . S
C1689 C1706 1.574 . S
C1689 C1708 1.368 . S
C1689 H1713 0.949 . S
H1690 C1694 0.949 . S
C1691 C1692 1.349 . S
C1691 C1693 1.327 . S
C1691 H1714 0.950 . S
C1692 C1691 1.349 . S
C1692 C1704 1.349 . S
C1693 C1691 1.327 . S
C1693 C1709 1.429 . S
C1693 H1715 0.950 . S
C1694 H1690 0.949 . S
C1694 C1702 1.574 . S
C1694 C1710 1.368 . S
H1695 C1703 0.950 . S
H1696 C1701 0.950 . S
H1697 C1702 0.949 . S
H1698 C1704 0.950 . S
H1699 C1705 0.950 . S
H1700 C1706 0.949 . S
C1701 H1696 0.950 . S
C1701 C1703 1.327 . S
C1701 C1707 1.429 . S
C1702 C1694 1.574 . S
C1702 H1697 0.949 . S
C1702 C1708 1.368 . S
C1703 C1687 1.349 . S
C1703 H1695 0.950 . S
C1703 C1701 1.327 . S
C1704 C1692 1.349 . S
C1704 H1698 0.950 . S
C1704 C1705 1.327 . S
C1705 H1699 0.950 . S
C1705 C1704 1.327 . S
C1705 C1709 1.429 . S
C1706 C1689 1.574 . S
C1706 H1700 0.949 . S
C1706 C1710 1.368 . S
C1707 C1688 1.429 . S
C1707 C1701 1.429 . S
C1707 C1708 1.523 . S
C1708 C1689 1.368 . S
C1708 C1702 1.368 . S
C1708 C1707 1.523 . S
C1709 C1693 1.429 . S
C1709 C1705 1.429 . S
C1709 C1710 1.523 . S
C1710 C1694 1.368 . S
C1710 C1706 1.368 . S
C1710 C1709 1.523 . S
H1711 C1686 0.950 . S
H1712 C1688 0.950 . S
H1713 C1689 0.949 . S
H1714 C1691 0.950 . S
H1715 C1693 0.950 . S
C1716 C1717 1.349 . S
C1716 C1718 1.327 . S
C1716 H1741 0.950 . S
C1717 C1716 1.349 . S
C1717 C1733 1.349 . S
C1718 C1716 1.327 . S
C1718 C1737 1.429 . S
C1718 H1742 0.950 . S
C1719 C1736 1.574 . S
C1719 C1738 1.368 . S
C1719 H1743 0.949 . S
H1720 C1724 0.949 . S
C1721 C1722 1.349 . S
C1721 C1723 1.327 . S
C1721 H1744 0.950 . S
C1722 C1721 1.349 . S
C1722 C1734 1.349 . S
C1723 C1721 1.327 . S
C1723 C1739 1.429 . S
C1723 H1745 0.950 . S
C1724 H1720 0.949 . S
C1724 C1732 1.574 . S
C1724 C1740 1.368 . S
H1725 C1733 0.950 . S
H1726 C1731 0.950 . S
H1727 C1732 0.949 . S
H1728 C1734 0.950 . S
H1729 C1735 0.950 . S
H1730 C1736 0.949 . S
C1731 H1726 0.950 . S
C1731 C1733 1.327 . S
C1731 C1737 1.429 . S
C1732 C1724 1.574 . S
C1732 H1727 0.949 . S
C1732 C1738 1.368 . S
C1733 C1717 1.349 . S
C1733 H1725 0.950 . S
C1733 C1731 1.327 . S
C1734 C1722 1.349 . S
C1734 H1728 0.950 . S
C1734 C1735 1.327 . S
C1735 H1729 0.950 . S
C1735 C1734 1.327 . S
C1735 C1739 1.429 . S
C1736 C1719 1.574 . S
C1736 H1730 0.949 . S
C1736 C1740 1.368 . S
C1737 C1718 1.429 . S
C1737 C1731 1.429 . S
C1737 C1738 1.523 . S
C1738 C1719 1.368 . S
C1738 C1732 1.368 . S
C1738 C1737 1.523 . S
C1739 C1723 1.429 . S
C1739 C1735 1.429 . S
C1739 C1740 1.523 . S
C1740 C1724 1.368 . S
C1740 C1736 1.368 . S
C1740 C1739 1.523 . S
H1741 C1716 0.950 . S
H1742 C1718 0.950 . S
H1743 C1719 0.949 . S
H1744 C1721 0.950 . S
H1745 C1723 0.950 . S
C1746 C1747 1.349 . S
C1746 C1748 1.327 . S
C1746 H1771 0.950 . S
C1747 C1746 1.349 . S
C1747 C1763 1.349 . S
C1748 C1746 1.327 . S
C1748 C1767 1.429 . S
C1748 H1772 0.950 . S
C1749 C1766 1.574 . S
C1749 C1768 1.368 . S
C1749 H1773 0.949 . S
H1750 C1754 0.949 . S
C1751 C1752 1.349 . S
C1751 C1753 1.327 . S
C1751 H1774 0.950 . S
C1752 C1751 1.349 . S
C1752 C1764 1.349 . S
C1753 C1751 1.327 . S
C1753 C1769 1.429 . S
C1753 H1775 0.950 . S
C1754 H1750 0.949 . S
C1754 C1762 1.574 . S
C1754 C1770 1.368 . S
H1755 C1763 0.950 . S
H1756 C1761 0.950 . S
H1757 C1762 0.949 . S
H1758 C1764 0.950 . S
H1759 C1765 0.950 . S
H1760 C1766 0.949 . S
C1761 H1756 0.950 . S
C1761 C1763 1.327 . S
C1761 C1767 1.429 . S
C1762 C1754 1.574 . S
C1762 H1757 0.949 . S
C1762 C1768 1.368 . S
C1763 C1747 1.349 . S
C1763 H1755 0.950 . S
C1763 C1761 1.327 . S
C1764 C1752 1.349 . S
C1764 H1758 0.950 . S
C1764 C1765 1.327 . S
C1765 H1759 0.950 . S
C1765 C1764 1.327 . S
C1765 C1769 1.429 . S
C1766 C1749 1.574 . S
C1766 H1760 0.949 . S
C1766 C1770 1.368 . S
C1767 C1748 1.429 . S
C1767 C1761 1.429 . S
C1767 C1768 1.523 . S
C1768 C1749 1.368 . S
C1768 C1762 1.368 . S
C1768 C1767 1.523 . S
C1769 C1753 1.429 . S
C1769 C1765 1.429 . S
C1769 C1770 1.523 . S
C1770 C1754 1.368 . S
C1770 C1766 1.368 . S
C1770 C1769 1.523 . S
H1771 C1746 0.950 . S
H1772 C1748 0.950 . S
H1773 C1749 0.949 . S
H1774 C1751 0.950 . S
H1775 C1753 0.950 . S
C1776 C1777 1.349 . S
C1776 C1778 1.327 . S
C1776 H1801 0.950 . S
C1777 C1776 1.349 . S
C1777 C1793 1.349 . S
C1778 C1776 1.327 . S
C1778 C1797 1.429 . S
C1778 H1802 0.950 . S
C1779 C1796 1.574 . S
C1779 C1798 1.368 . S
C1779 H1803 0.949 . S
H1780 C1784 0.949 . S
C1781 C1782 1.349 . S
C1781 C1783 1.327 . S
C1781 H1804 0.950 . S
C1782 C1781 1.349 . S
C1782 C1794 1.349 . S
C1783 C1781 1.327 . S
C1783 C1799 1.429 . S
C1783 H1805 0.950 . S
C1784 H1780 0.949 . S
C1784 C1792 1.574 . S
C1784 C1800 1.368 . S
H1785 C1793 0.950 . S
H1786 C1791 0.950 . S
H1787 C1792 0.949 . S
H1788 C1794 0.950 . S
H1789 C1795 0.950 . S
H1790 C1796 0.949 . S
C1791 H1786 0.950 . S
C1791 C1793 1.327 . S
C1791 C1797 1.429 . S
C1792 C1784 1.574 . S
C1792 H1787 0.949 . S
C1792 C1798 1.368 . S
C1793 C1777 1.349 . S
C1793 H1785 0.950 . S
C1793 C1791 1.327 . S
C1794 C1782 1.349 . S
C1794 H1788 0.950 . S
C1794 C1795 1.327 . S
C1795 H1789 0.950 . S
C1795 C1794 1.327 . S
C1795 C1799 1.429 . S
C1796 C1779 1.574 . S
C1796 H1790 0.949 . S
C1796 C1800 1.368 . S
C1797 C1778 1.429 . S
C1797 C1791 1.429 . S
C1797 C1798 1.523 . S
C1798 C1779 1.368 . S
C1798 C1792 1.368 . S
C1798 C1797 1.523 . S
C1799 C1783 1.429 . S
C1799 C1795 1.429 . S
C1799 C1800 1.523 . S
C1800 C1784 1.368 . S
C1800 C1796 1.368 . S
C1800 C1799 1.523 . S
H1801 C1776 0.950 . S
H1802 C1778 0.950 . S
H1803 C1779 0.949 . S
H1804 C1781 0.950 . S
H1805 C1783 0.950 . S
C1806 C1807 1.349 . S
C1806 C1808 1.327 . S
C1806 H1831 0.950 . S
C1807 C1806 1.349 . S
C1807 C1823 1.349 . S
C1808 C1806 1.327 . S
C1808 C1827 1.429 . S
C1808 H1832 0.950 . S
C1809 C1826 1.574 . S
C1809 C1828 1.368 . S
C1809 H1833 0.949 . S
H1810 C1814 0.949 . S
C1811 C1812 1.349 . S
C1811 C1813 1.327 . S
C1811 H1834 0.950 . S
C1812 C1811 1.349 . S
C1812 C1824 1.349 . S
C1813 C1811 1.327 . S
C1813 C1829 1.429 . S
C1813 H1835 0.950 . S
C1814 H1810 0.949 . S
C1814 C1822 1.574 . S
C1814 C1830 1.368 . S
H1815 C1823 0.950 . S
H1816 C1821 0.950 . S
H1817 C1822 0.949 . S
H1818 C1824 0.950 . S
H1819 C1825 0.950 . S
H1820 C1826 0.949 . S
C1821 H1816 0.950 . S
C1821 C1823 1.327 . S
C1821 C1827 1.429 . S
C1822 C1814 1.574 . S
C1822 H1817 0.949 . S
C1822 C1828 1.368 . S
C1823 C1807 1.349 . S
C1823 H1815 0.950 . S
C1823 C1821 1.327 . S
C1824 C1812 1.349 . S
C1824 H1818 0.950 . S
C1824 C1825 1.327 . S
C1825 H1819 0.950 . S
C1825 C1824 1.327 . S
C1825 C1829 1.429 . S
C1826 C1809 1.574 . S
C1826 H1820 0.949 . S
C1826 C1830 1.368 . S
C1827 C1808 1.429 . S
C1827 C1821 1.429 . S
C1827 C1828 1.523 . S
C1828 C1809 1.368 . S
C1828 C1822 1.368 . S
C1828 C1827 1.523 . S
C1829 C1813 1.429 . S
C1829 C1825 1.429 . S
C1829 C1830 1.523 . S
C1830 C1814 1.368 . S
C1830 C1826 1.368 . S
C1830 C1829 1.523 . S
H1831 C1806 0.950 . S
H1832 C1808 0.950 . S
H1833 C1809 0.949 . S
H1834 C1811 0.950 . S
H1835 C1813 0.950 . S
C1836 C1837 1.349 . S
C1836 C1838 1.327 . S
C1836 H1861 0.950 . S
C1837 C1836 1.349 . S
C1837 C1853 1.349 . S
C1838 C1836 1.327 . S
C1838 C1857 1.429 . S
C1838 H1862 0.950 . S
C1839 C1856 1.574 . S
C1839 C1858 1.368 . S
C1839 H1863 0.949 . S
H1840 C1844 0.949 . S
C1841 C1842 1.349 . S
C1841 C1843 1.327 . S
C1841 H1864 0.950 . S
C1842 C1841 1.349 . S
C1842 C1854 1.349 . S
C1843 C1841 1.327 . S
C1843 C1859 1.429 . S
C1843 H1865 0.950 . S
C1844 H1840 0.949 . S
C1844 C1852 1.574 . S
C1844 C1860 1.368 . S
H1845 C1853 0.950 . S
H1846 C1851 0.950 . S
H1847 C1852 0.949 . S
H1848 C1854 0.950 . S
H1849 C1855 0.948 1_455 S
H1850 C1856 0.950 . S
C1851 H1846 0.950 . S
C1851 C1853 1.327 . S
C1851 C1857 1.429 . S
C1852 C1844 1.574 . S
C1852 H1847 0.949 . S
C1852 C1858 1.368 . S
C1853 C1837 1.349 . S
C1853 H1845 0.950 . S
C1853 C1851 1.327 . S
C1854 C1842 1.349 . S
C1854 H1848 0.950 . S
C1854 C1855 1.327 . S
C1855 H1849 0.948 1_655 S
C1855 C1854 1.327 . S
C1855 C1859 1.429 . S
C1856 C1839 1.574 . S
C1856 H1850 0.950 . S
C1856 C1860 1.368 . S
C1857 C1838 1.429 . S
C1857 C1851 1.429 . S
C1857 C1858 1.523 . S
C1858 C1839 1.368 . S
C1858 C1852 1.368 . S
C1858 C1857 1.523 . S
C1859 C1843 1.429 . S
C1859 C1855 1.429 . S
C1859 C1860 1.523 1_655 S
C1860 C1844 1.368 . S
C1860 C1856 1.368 . S
C1860 C1859 1.523 1_455 S
H1861 C1836 0.950 . S
H1862 C1838 0.950 . S
H1863 C1839 0.949 . S
H1864 C1841 0.950 . S
H1865 C1843 0.950 . S
C1866 C1867 1.349 . S
C1866 C1868 1.327 . S
C1866 H1891 0.950 . S
C1867 C1866 1.349 . S
C1867 C1883 1.349 . S
C1868 C1866 1.327 . S
C1868 C1887 1.429 . S
C1868 H1892 0.950 . S
C1869 C1886 1.574 . S
C1869 C1888 1.368 . S
C1869 H1893 0.949 . S
H1870 C1874 0.949 . S
C1871 C1872 1.349 . S
C1871 C1873 1.327 . S
C1871 H1894 0.950 . S
C1872 C1871 1.349 . S
C1872 C1884 1.349 . S
C1873 C1871 1.327 . S
C1873 C1889 1.429 . S
C1873 H1895 0.950 . S
C1874 H1870 0.949 . S
C1874 C1882 1.574 . S
C1874 C1890 1.368 . S
H1875 C1883 0.950 . S
H1876 C1881 0.950 . S
H1877 C1882 0.949 . S
H1878 C1884 0.950 . S
H1879 C1885 0.950 . S
H1880 C1886 0.949 . S
C1881 H1876 0.950 . S
C1881 C1883 1.327 . S
C1881 C1887 1.429 . S
C1882 C1874 1.574 . S
C1882 H1877 0.949 . S
C1882 C1888 1.368 . S
C1883 C1867 1.349 . S
C1883 H1875 0.950 . S
C1883 C1881 1.327 . S
C1884 C1872 1.349 . S
C1884 H1878 0.950 . S
C1884 C1885 1.327 . S
C1885 H1879 0.950 . S
C1885 C1884 1.327 . S
C1885 C1889 1.429 . S
C1886 C1869 1.574 . S
C1886 H1880 0.949 . S
C1886 C1890 1.368 . S
C1887 C1868 1.429 . S
C1887 C1881 1.429 . S
C1887 C1888 1.523 . S
C1888 C1869 1.368 . S
C1888 C1882 1.368 . S
C1888 C1887 1.523 . S
C1889 C1873 1.429 . S
C1889 C1885 1.429 . S
C1889 C1890 1.523 . S
C1890 C1874 1.368 . S
C1890 C1886 1.368 . S
C1890 C1889 1.523 . S
H1891 C1866 0.950 . S
H1892 C1868 0.950 . S
H1893 C1869 0.949 . S
H1894 C1871 0.950 . S
H1895 C1873 0.950 . S
C1896 C1897 1.349 . S
C1896 C1898 1.327 . S
C1896 H1921 0.950 . S
C1897 C1896 1.349 . S
C1897 C1913 1.349 . S
C1898 C1896 1.327 . S
C1898 C1917 1.429 . S
C1898 H1922 0.950 . S
C1899 C1916 1.574 . S
C1899 C1918 1.368 . S
C1899 H1923 0.949 . S
H1900 C1904 0.949 . S
C1901 C1902 1.349 . S
C1901 C1903 1.327 . S
C1901 H1924 0.950 . S
C1902 C1901 1.349 . S
C1902 C1914 1.349 . S
C1903 C1901 1.327 . S
C1903 C1919 1.429 . S
C1903 H1925 0.950 . S
C1904 H1900 0.949 . S
C1904 C1912 1.574 . S
C1904 C1920 1.368 . S
H1905 C1913 0.950 . S
H1906 C1911 0.950 . S
H1907 C1912 0.949 . S
H1908 C1914 0.950 . S
H1909 C1915 0.950 . S
H1910 C1916 0.949 . S
C1911 H1906 0.950 . S
C1911 C1913 1.327 . S
C1911 C1917 1.429 . S
C1912 C1904 1.574 . S
C1912 H1907 0.949 . S
C1912 C1918 1.368 . S
C1913 C1897 1.349 . S
C1913 H1905 0.950 . S
C1913 C1911 1.327 . S
C1914 C1902 1.349 . S
C1914 H1908 0.950 . S
C1914 C1915 1.327 . S
C1915 H1909 0.950 . S
C1915 C1914 1.327 . S
C1915 C1919 1.429 . S
C1916 C1899 1.574 . S
C1916 H1910 0.949 . S
C1916 C1920 1.368 . S
C1917 C1898 1.429 . S
C1917 C1911 1.429 . S
C1917 C1918 1.523 . S
C1918 C1899 1.368 . S
C1918 C1912 1.368 . S
C1918 C1917 1.523 . S
C1919 C1903 1.429 . S
C1919 C1915 1.429 . S
C1919 C1920 1.523 . S
C1920 C1904 1.368 . S
C1920 C1916 1.368 . S
C1920 C1919 1.523 . S
H1921 C1896 0.950 . S
H1922 C1898 0.950 . S
H1923 C1899 0.949 . S
H1924 C1901 0.950 . S
H1925 C1903 0.950 . S
C1926 C1927 1.349 . S
C1926 C1928 1.327 1_545 S
C1926 H1951 0.950 1_545 S
C1927 C1926 1.349 . S
C1927 C1943 1.349 . S
C1928 C1926 1.327 1_565 S
C1928 C1947 1.428 1_565 S
C1928 H1952 0.950 . S
C1929 C1946 1.574 . S
C1929 C1948 1.368 . S
C1929 H1953 0.949 . S
H1930 C1934 0.949 . S
C1931 C1932 1.349 1_545 S
C1931 C1933 1.327 . S
C1931 H1954 0.950 . S
C1932 C1931 1.349 1_565 S
C1932 C1944 1.349 . S
C1933 C1931 1.327 . S
C1933 C1949 1.429 1_545 S
C1933 H1955 0.950 . S
C1934 H1930 0.949 . S
C1934 C1942 1.574 . S
C1934 C1950 1.368 1_565 S
H1935 C1943 0.950 . S
H1936 C1941 0.950 . S
H1937 C1942 0.949 . S
H1938 C1944 0.950 . S
H1939 C1945 0.950 . S
H1940 C1946 0.949 . S
C1941 H1936 0.950 . S
C1941 C1943 1.327 . S
C1941 C1947 1.429 . S
C1942 C1934 1.574 . S
C1942 H1937 0.949 . S
C1942 C1948 1.368 1_565 S
C1943 C1927 1.349 . S
C1943 H1935 0.950 . S
C1943 C1941 1.327 . S
C1944 C1932 1.349 . S
C1944 H1938 0.950 . S
C1944 C1945 1.327 . S
C1945 H1939 0.950 . S
C1945 C1944 1.327 . S
C1945 C1949 1.429 . S
C1946 C1929 1.574 . S
C1946 H1940 0.949 . S
C1946 C1950 1.368 . S
C1947 C1928 1.428 1_545 S
C1947 C1941 1.429 . S
C1947 C1948 1.523 . S
C1948 C1929 1.368 . S
C1948 C1942 1.368 1_545 S
C1948 C1947 1.523 . S
C1949 C1933 1.429 1_565 S
C1949 C1945 1.429 . S
C1949 C1950 1.523 1_565 S
C1950 C1934 1.368 1_545 S
C1950 C1946 1.368 . S
C1950 C1949 1.523 1_545 S
H1951 C1926 0.950 1_565 S
H1952 C1928 0.950 . S
H1953 C1929 0.949 . S
H1954 C1931 0.950 . S
H1955 C1933 0.950 . S
C1956 C1957 1.349 . S
C1956 C1958 1.327 . S
C1956 H1981 0.950 . S
C1957 C1956 1.349 . S
C1957 C1973 1.349 . S
C1958 C1956 1.327 . S
C1958 C1977 1.429 . S
C1958 H1982 0.950 . S
C1959 C1976 1.574 . S
C1959 C1978 1.368 . S
C1959 H1983 0.949 . S
H1960 C1964 0.949 . S
C1961 C1962 1.349 . S
C1961 C1963 1.327 . S
C1961 H1984 0.950 . S
C1962 C1961 1.349 . S
C1962 C1974 1.349 . S
C1963 C1961 1.327 . S
C1963 C1979 1.429 . S
C1963 H1985 0.950 . S
C1964 H1960 0.949 . S
C1964 C1972 1.574 . S
C1964 C1980 1.368 . S
H1965 C1973 0.950 . S
H1966 C1971 0.950 . S
H1967 C1972 0.949 . S
H1968 C1974 0.950 . S
H1969 C1975 0.950 . S
H1970 C1976 0.949 . S
C1971 H1966 0.950 . S
C1971 C1973 1.327 . S
C1971 C1977 1.429 . S
C1972 C1964 1.574 . S
C1972 H1967 0.949 . S
C1972 C1978 1.368 . S
C1973 C1957 1.349 . S
C1973 H1965 0.950 . S
C1973 C1971 1.327 . S
C1974 C1962 1.349 . S
C1974 H1968 0.950 . S
C1974 C1975 1.327 . S
C1975 H1969 0.950 . S
C1975 C1974 1.327 . S
C1975 C1979 1.429 . S
C1976 C1959 1.574 . S
C1976 H1970 0.949 . S
C1976 C1980 1.368 . S
C1977 C1958 1.429 . S
C1977 C1971 1.429 . S
C1977 C1978 1.523 . S
C1978 C1959 1.368 . S
C1978 C1972 1.368 . S
C1978 C1977 1.523 . S
C1979 C1963 1.429 . S
C1979 C1975 1.429 . S
C1979 C1980 1.523 . S
C1980 C1964 1.368 . S
C1980 C1976 1.368 . S
C1980 C1979 1.523 . S
H1981 C1956 0.950 . S
H1982 C1958 0.950 . S
H1983 C1959 0.949 . S
H1984 C1961 0.950 . S
H1985 C1963 0.950 . S
C1986 C1987 1.349 . S
C1986 C1988 1.327 . S
C1986 H2011 0.950 . S
C1987 C1986 1.349 . S
C1987 C2003 1.349 . S
C1988 C1986 1.327 . S
C1988 C2007 1.429 . S
C1988 H2012 0.950 . S
C1989 C2006 1.574 . S
C1989 C2008 1.368 . S
C1989 H2013 0.949 . S
H1990 C1994 0.949 . S
C1991 C1992 1.349 . S
C1991 C1993 1.327 . S
C1991 H2014 0.950 . S
C1992 C1991 1.349 . S
C1992 C2004 1.349 . S
C1993 C1991 1.327 . S
C1993 C2009 1.429 . S
C1993 H2015 0.950 . S
C1994 H1990 0.949 . S
C1994 C2002 1.574 . S
C1994 C2010 1.368 . S
H1995 C2003 0.950 . S
H1996 C2001 0.950 . S
H1997 C2002 0.949 . S
H1998 C2004 0.950 . S
H1999 C2005 0.950 . S
H2000 C2006 0.949 . S
C2001 H1996 0.950 . S
C2001 C2003 1.327 . S
C2001 C2007 1.429 . S
C2002 C1994 1.574 . S
C2002 H1997 0.949 . S
C2002 C2008 1.368 . S
C2003 C1987 1.349 . S
C2003 H1995 0.950 . S
C2003 C2001 1.327 . S
C2004 C1992 1.349 . S
C2004 H1998 0.950 . S
C2004 C2005 1.327 . S
C2005 H1999 0.950 . S
C2005 C2004 1.327 . S
C2005 C2009 1.429 . S
C2006 C1989 1.574 . S
C2006 H2000 0.949 . S
C2006 C2010 1.368 . S
C2007 C1988 1.429 . S
C2007 C2001 1.429 . S
C2007 C2008 1.523 . S
C2008 C1989 1.368 . S
C2008 C2002 1.368 . S
C2008 C2007 1.523 . S
C2009 C1993 1.429 . S
C2009 C2005 1.429 . S
C2009 C2010 1.523 . S
C2010 C1994 1.368 . S
C2010 C2006 1.368 . S
C2010 C2009 1.523 . S
H2011 C1986 0.950 . S
H2012 C1988 0.950 . S
H2013 C1989 0.949 . S
H2014 C1991 0.950 . S
H2015 C1993 0.950 . S
C2016 C2017 1.349 . S
C2016 C2018 1.327 . S
C2016 H2041 0.950 . S
C2017 C2016 1.349 . S
C2017 C2033 1.349 . S
C2018 C2016 1.327 . S
C2018 C2037 1.429 . S
C2018 H2042 0.950 . S
C2019 C2036 1.574 . S
C2019 C2038 1.368 . S
C2019 H2043 0.949 . S
H2020 C2024 0.949 . S
C2021 C2022 1.349 . S
C2021 C2023 1.327 . S
C2021 H2044 0.950 . S
C2022 C2021 1.349 . S
C2022 C2034 1.349 . S
C2023 C2021 1.327 . S
C2023 C2039 1.429 . S
C2023 H2045 0.950 . S
C2024 H2020 0.949 . S
C2024 C2032 1.574 . S
C2024 C2040 1.368 . S
H2025 C2033 0.950 . S
H2026 C2031 0.950 . S
H2027 C2032 0.949 . S
H2028 C2034 0.950 . S
H2029 C2035 0.950 . S
H2030 C2036 0.949 . S
C2031 H2026 0.950 . S
C2031 C2033 1.327 . S
C2031 C2037 1.429 . S
C2032 C2024 1.574 . S
C2032 H2027 0.949 . S
C2032 C2038 1.368 . S
C2033 C2017 1.349 . S
C2033 H2025 0.950 . S
C2033 C2031 1.327 . S
C2034 C2022 1.349 . S
C2034 H2028 0.950 . S
C2034 C2035 1.327 . S
C2035 H2029 0.950 . S
C2035 C2034 1.327 . S
C2035 C2039 1.429 . S
C2036 C2019 1.574 . S
C2036 H2030 0.949 . S
C2036 C2040 1.368 . S
C2037 C2018 1.429 . S
C2037 C2031 1.429 . S
C2037 C2038 1.523 . S
C2038 C2019 1.368 . S
C2038 C2032 1.368 . S
C2038 C2037 1.523 . S
C2039 C2023 1.429 . S
C2039 C2035 1.429 . S
C2039 C2040 1.523 . S
C2040 C2024 1.368 . S
C2040 C2036 1.368 . S
C2040 C2039 1.523 . S
H2041 C2016 0.950 . S
H2042 C2018 0.950 . S
H2043 C2019 0.949 . S
H2044 C2021 0.950 . S
H2045 C2023 0.950 . S
C2046 C2047 1.349 . S
C2046 C2048 1.327 . S
C2046 H2071 0.950 . S
C2047 C2046 1.349 . S
C2047 C2063 1.349 . S
C2048 C2046 1.327 . S
C2048 C2067 1.429 . S
C2048 H2072 0.950 . S
C2049 C2066 1.574 . S
C2049 C2068 1.368 . S
C2049 H2073 0.949 . S
H2050 C2054 0.949 . S
C2051 C2052 1.349 . S
C2051 C2053 1.327 . S
C2051 H2074 0.950 . S
C2052 C2051 1.349 . S
C2052 C2064 1.349 . S
C2053 C2051 1.327 . S
C2053 C2069 1.429 . S
C2053 H2075 0.950 . S
C2054 H2050 0.949 . S
C2054 C2062 1.574 . S
C2054 C2070 1.368 . S
H2055 C2063 0.950 . S
H2056 C2061 0.950 . S
H2057 C2062 0.949 . S
H2058 C2064 0.950 . S
H2059 C2065 0.950 . S
H2060 C2066 0.949 . S
C2061 H2056 0.950 . S
C2061 C2063 1.327 . S
C2061 C2067 1.429 . S
C2062 C2054 1.574 . S
C2062 H2057 0.949 . S
C2062 C2068 1.368 . S
C2063 C2047 1.349 . S
C2063 H2055 0.950 . S
C2063 C2061 1.327 . S
C2064 C2052 1.349 . S
C2064 H2058 0.950 . S
C2064 C2065 1.327 . S
C2065 H2059 0.950 . S
C2065 C2064 1.327 . S
C2065 C2069 1.429 . S
C2066 C2049 1.574 . S
C2066 H2060 0.949 . S
C2066 C2070 1.368 . S
C2067 C2048 1.429 . S
C2067 C2061 1.429 . S
C2067 C2068 1.523 . S
C2068 C2049 1.368 . S
C2068 C2062 1.368 . S
C2068 C2067 1.523 . S
C2069 C2053 1.429 . S
C2069 C2065 1.429 . S
C2069 C2070 1.523 . S
C2070 C2054 1.368 . S
C2070 C2066 1.368 . S
C2070 C2069 1.523 . S
H2071 C2046 0.950 . S
H2072 C2048 0.950 . S
H2073 C2049 0.949 . S
H2074 C2051 0.950 . S
H2075 C2053 0.950 . S
C2076 C2077 1.349 . S
C2076 C2078 1.327 . S
C2076 H2101 0.950 . S
C2077 C2076 1.349 . S
C2077 C2093 1.349 . S
C2078 C2076 1.327 . S
C2078 C2097 1.429 . S
C2078 H2102 0.950 . S
C2079 C2096 1.574 . S
C2079 C2098 1.368 1_565 S
C2079 H2103 0.949 . S
H2080 C2084 0.949 . S
C2081 C2082 1.349 . S
C2081 C2083 1.327 . S
C2081 H2104 0.950 . S
C2082 C2081 1.349 . S
C2082 C2094 1.349 1_565 S
C2083 C2081 1.327 . S
C2083 C2099 1.429 . S
C2083 H2105 0.950 . S
C2084 H2080 0.949 . S
C2084 C2092 1.574 . S
C2084 C2100 1.368 . S
H2085 C2093 0.950 1_565 S
H2086 C2091 0.972 . S
H2087 C2092 0.949 . S
H2088 C2094 0.950 . S
H2089 C2095 0.950 . S
H2090 C2096 0.949 . S
C2091 H2086 0.972 . S
C2091 C2093 1.327 1_565 S
C2091 C2097 1.409 1_565 S
C2092 C2084 1.574 . S
C2092 H2087 0.949 . S
C2092 C2098 1.368 . S
C2093 C2077 1.349 . S
C2093 H2085 0.950 1_545 S
C2093 C2091 1.327 1_545 S
C2094 C2082 1.349 1_545 S
C2094 H2088 0.950 . S
C2094 C2095 1.327 . S
C2095 H2089 0.950 . S
C2095 C2094 1.327 . S
C2095 C2099 1.429 1_545 S
C2096 C2079 1.574 . S
C2096 H2090 0.949 . S
C2096 C2100 1.368 1_565 S
C2097 C2078 1.429 . S
C2097 C2091 1.409 1_545 S
C2097 C2098 1.523 . S
C2098 C2079 1.368 1_545 S
C2098 C2092 1.368 . S
C2098 C2097 1.523 . S
C2099 C2083 1.429 . S
C2099 C2095 1.429 1_565 S
C2099 C2100 1.523 1_565 S
C2100 C2084 1.368 . S
C2100 C2096 1.368 1_545 S
C2100 C2099 1.523 1_545 S
H2101 C2076 0.950 . S
H2102 C2078 0.950 . S
H2103 C2079 0.949 . S
H2104 C2081 0.950 . S
H2105 C2083 0.950 . S
C2106 C2107 1.349 . S
C2106 C2108 1.327 . S
C2106 H2131 0.950 . S
C2107 C2106 1.349 . S
C2107 C2123 1.349 . S
C2108 C2106 1.327 . S
C2108 C2127 1.429 . S
C2108 H2132 0.950 . S
C2109 C2126 1.574 . S
C2109 C2128 1.368 . S
C2109 H2133 0.949 . S
H2110 C2114 0.949 . S
C2111 C2112 1.349 . S
C2111 C2113 1.327 . S
C2111 H2134 0.950 . S
C2112 C2111 1.349 . S
C2112 C2124 1.349 . S
C2113 C2111 1.327 . S
C2113 C2129 1.429 . S
C2113 H2135 0.950 . S
C2114 H2110 0.949 . S
C2114 C2122 1.574 . S
C2114 C2130 1.368 . S
H2115 C2123 0.950 . S
H2116 C2121 0.950 . S
H2117 C2122 0.949 . S
H2118 C2124 0.950 . S
H2119 C2125 0.950 . S
H2120 C2126 0.949 . S
C2121 H2116 0.950 . S
C2121 C2123 1.327 . S
C2121 C2127 1.429 . S
C2122 C2114 1.574 . S
C2122 H2117 0.949 . S
C2122 C2128 1.368 . S
C2123 C2107 1.349 . S
C2123 H2115 0.950 . S
C2123 C2121 1.327 . S
C2124 C2112 1.349 . S
C2124 H2118 0.950 . S
C2124 C2125 1.327 . S
C2125 H2119 0.950 . S
C2125 C2124 1.327 . S
C2125 C2129 1.429 . S
C2126 C2109 1.574 . S
C2126 H2120 0.949 . S
C2126 C2130 1.368 . S
C2127 C2108 1.429 . S
C2127 C2121 1.429 . S
C2127 C2128 1.523 . S
C2128 C2109 1.368 . S
C2128 C2122 1.368 . S
C2128 C2127 1.523 . S
C2129 C2113 1.429 . S
C2129 C2125 1.429 . S
C2129 C2130 1.523 . S
C2130 C2114 1.368 . S
C2130 C2126 1.368 . S
C2130 C2129 1.523 . S
H2131 C2106 0.950 . S
H2132 C2108 0.950 . S
H2133 C2109 0.949 . S
H2134 C2111 0.950 . S
H2135 C2113 0.950 . S
C2136 C2137 1.349 . S
C2136 C2138 1.327 . S
C2136 H2161 0.950 . S
C2137 C2136 1.349 . S
C2137 C2153 1.349 . S
C2138 C2136 1.327 . S
C2138 C2157 1.429 . S
C2138 H2162 0.950 . S
C2139 C2156 1.574 . S
C2139 C2158 1.368 . S
C2139 H2163 0.949 . S
H2140 C2144 0.949 . S
C2141 C2142 1.349 . S
C2141 C2143 1.327 . S
C2141 H2164 0.950 . S
C2142 C2141 1.349 . S
C2142 C2154 1.349 . S
C2143 C2141 1.327 . S
C2143 C2159 1.429 . S
C2143 H2165 0.950 . S
C2144 H2140 0.949 . S
C2144 C2152 1.574 . S
C2144 C2160 1.368 . S
H2145 C2153 0.950 . S
H2146 C2151 0.950 . S
H2147 C2152 0.949 . S
H2148 C2154 0.950 . S
H2149 C2155 0.940 . S
H2150 C2156 0.939 . S
C2151 H2146 0.950 . S
C2151 C2153 1.327 . S
C2151 C2157 1.429 . S
C2152 C2144 1.574 . S
C2152 H2147 0.949 . S
C2152 C2158 1.368 . S
C2153 C2137 1.349 . S
C2153 H2145 0.950 . S
C2153 C2151 1.327 . S
C2154 C2142 1.349 . S
C2154 H2148 0.950 . S
C2154 C2155 1.327 . S
C2155 H2149 0.940 . S
C2155 C2154 1.327 . S
C2155 C2159 1.429 . S
C2156 C2139 1.574 . S
C2156 H2150 0.939 . S
C2156 C2160 1.368 . S
C2157 C2138 1.429 . S
C2157 C2151 1.429 . S
C2157 C2158 1.523 . S
C2158 C2139 1.368 . S
C2158 C2152 1.368 . S
C2158 C2157 1.523 . S
C2159 C2143 1.429 . S
C2159 C2155 1.429 . S
C2159 C2160 1.523 1_655 S
C2160 C2144 1.368 . S
C2160 C2156 1.368 . S
C2160 C2159 1.523 1_455 S
H2161 C2136 0.950 . S
H2162 C2138 0.950 . S
H2163 C2139 0.949 . S
H2164 C2141 0.950 . S
H2165 C2143 0.950 . S
C2166 C2167 1.349 . S
C2166 C2168 1.327 . S
C2166 H2191 0.950 . S
C2167 C2166 1.349 . S
C2167 C2183 1.349 . S
C2168 C2166 1.327 . S
C2168 C2187 1.429 . S
C2168 H2192 0.950 . S
C2169 C2186 1.574 . S
C2169 C2188 1.368 . S
C2169 H2193 0.949 . S
H2170 C2174 0.949 . S
C2171 C2172 1.349 . S
C2171 C2173 1.327 . S
C2171 H2194 0.950 . S
C2172 C2171 1.349 . S
C2172 C2184 1.349 . S
C2173 C2171 1.327 . S
C2173 C2189 1.429 . S
C2173 H2195 0.950 . S
C2174 H2170 0.949 . S
C2174 C2182 1.574 . S
C2174 C2190 1.368 . S
H2175 C2183 0.950 . S
H2176 C2181 0.950 . S
H2177 C2182 0.949 . S
H2178 C2184 0.950 . S
H2179 C2185 0.950 . S
H2180 C2186 0.949 . S
C2181 H2176 0.950 . S
C2181 C2183 1.327 . S
C2181 C2187 1.429 . S
C2182 C2174 1.574 . S
C2182 H2177 0.949 . S
C2182 C2188 1.368 . S
C2183 C2167 1.349 . S
C2183 H2175 0.950 . S
C2183 C2181 1.327 . S
C2184 C2172 1.349 . S
C2184 H2178 0.950 . S
C2184 C2185 1.327 . S
C2185 H2179 0.950 . S
C2185 C2184 1.327 . S
C2185 C2189 1.429 . S
C2186 C2169 1.574 . S
C2186 H2180 0.949 . S
C2186 C2190 1.368 . S
C2187 C2168 1.429 . S
C2187 C2181 1.429 . S
C2187 C2188 1.523 . S
C2188 C2169 1.368 . S
C2188 C2182 1.368 . S
C2188 C2187 1.523 . S
C2189 C2173 1.429 . S
C2189 C2185 1.429 . S
C2189 C2190 1.523 . S
C2190 C2174 1.368 . S
C2190 C2186 1.368 . S
C2190 C2189 1.523 . S
H2191 C2166 0.950 . S
H2192 C2168 0.950 . S
H2193 C2169 0.949 . S
H2194 C2171 0.950 . S
H2195 C2173 0.950 . S
C2196 C2197 1.349 . S
C2196 C2198 1.327 . S
C2196 H2221 0.950 . S
C2197 C2196 1.349 . S
C2197 C2213 1.349 . S
C2198 C2196 1.327 . S
C2198 C2217 1.429 . S
C2198 H2222 0.950 . S
C2199 C2216 1.574 . S
C2199 C2218 1.368 . S
C2199 H2223 0.949 . S
H2200 C2204 0.949 . S
C2201 C2202 1.349 . S
C2201 C2203 1.327 . S
C2201 H2224 0.950 . S
C2202 C2201 1.349 . S
C2202 C2214 1.349 . S
C2203 C2201 1.327 . S
C2203 C2219 1.429 . S
C2203 H2225 0.950 . S
C2204 H2200 0.949 . S
C2204 C2212 1.574 . S
C2204 C2220 1.368 . S
H2205 C2213 0.950 . S
H2206 C2211 0.950 . S
H2207 C2212 0.949 . S
H2208 C2214 0.950 . S
H2209 C2215 0.950 . S
H2210 C2216 0.949 . S
C2211 H2206 0.950 . S
C2211 C2213 1.327 . S
C2211 C2217 1.429 . S
C2212 C2204 1.574 . S
C2212 H2207 0.949 . S
C2212 C2218 1.368 . S
C2213 C2197 1.349 . S
C2213 H2205 0.950 . S
C2213 C2211 1.327 . S
C2214 C2202 1.349 . S
C2214 H2208 0.950 . S
C2214 C2215 1.327 . S
C2215 H2209 0.950 . S
C2215 C2214 1.327 . S
C2215 C2219 1.429 . S
C2216 C2199 1.574 . S
C2216 H2210 0.949 . S
C2216 C2220 1.368 . S
C2217 C2198 1.429 . S
C2217 C2211 1.429 . S
C2217 C2218 1.523 . S
C2218 C2199 1.368 . S
C2218 C2212 1.368 . S
C2218 C2217 1.523 . S
C2219 C2203 1.429 . S
C2219 C2215 1.429 . S
C2219 C2220 1.523 . S
C2220 C2204 1.368 . S
C2220 C2216 1.368 . S
C2220 C2219 1.523 . S
H2221 C2196 0.950 . S
H2222 C2198 0.950 . S
H2223 C2199 0.949 . S
H2224 C2201 0.950 . S
H2225 C2203 0.950 . S
C2226 C2227 1.349 . S
C2226 C2228 1.327 . S
C2226 H2251 0.950 . S
C2227 C2226 1.349 . S
C2227 C2243 1.349 . S
C2228 C2226 1.327 . S
C2228 C2247 1.429 . S
C2228 H2252 0.950 . S
C2229 C2246 1.574 . S
C2229 C2248 1.368 . S
C2229 H2253 0.949 . S
H2230 C2234 0.949 . S
C2231 C2232 1.349 1_545 S
C2231 C2233 1.327 . S
C2231 H2254 0.950 . S
C2232 C2231 1.349 1_565 S
C2232 C2244 1.349 . S
C2233 C2231 1.327 . S
C2233 C2249 1.429 . S
C2233 H2255 0.950 . S
C2234 H2230 0.949 . S
C2234 C2242 1.574 . S
C2234 C2250 1.368 . S
H2235 C2243 0.950 . S
H2236 C2241 0.950 . S
H2237 C2242 0.949 . S
H2238 C2244 0.950 . S
H2239 C2245 0.950 . S
H2240 C2246 0.949 . S
C2241 H2236 0.950 . S
C2241 C2243 1.327 . S
C2241 C2247 1.429 . S
C2242 C2234 1.574 . S
C2242 H2237 0.949 . S
C2242 C2248 1.368 . S
C2243 C2227 1.349 . S
C2243 H2235 0.950 . S
C2243 C2241 1.327 . S
C2244 C2232 1.349 . S
C2244 H2238 0.950 . S
C2244 C2245 1.327 . S
C2245 H2239 0.950 . S
C2245 C2244 1.327 . S
C2245 C2249 1.429 1_565 S
C2246 C2229 1.574 . S
C2246 H2240 0.949 . S
C2246 C2250 1.368 . S
C2247 C2228 1.429 . S
C2247 C2241 1.429 . S
C2247 C2248 1.523 . S
C2248 C2229 1.368 . S
C2248 C2242 1.368 . S
C2248 C2247 1.523 . S
C2249 C2233 1.429 . S
C2249 C2245 1.429 1_545 S
C2249 C2250 1.523 . S
C2250 C2234 1.368 . S
C2250 C2246 1.368 . S
C2250 C2249 1.523 . S
H2251 C2226 0.950 . S
H2252 C2228 0.950 . S
H2253 C2229 0.949 . S
H2254 C2231 0.950 . S
H2255 C2233 0.950 . S
C2256 C2257 1.330 . S
C2256 C2258 1.312 1_655 S
C2256 H2281 0.988 . S
C2257 C2256 1.330 . S
C2257 C2273 1.349 1_655 S
C2258 C2256 1.312 1_455 S
C2258 C2277 1.429 . S
C2258 H2282 0.950 . S
C2259 C2276 1.574 . S
C2259 C2278 1.368 . S
C2259 H2283 0.949 . S
H2260 C2264 0.949 . S
C2261 C2262 1.349 . S
C2261 C2263 1.327 . S
C2261 H2284 0.950 . S
C2262 C2261 1.349 . S
C2262 C2274 1.349 . S
C2263 C2261 1.327 . S
C2263 C2279 1.429 . S
C2263 H2285 0.950 . S
C2264 H2260 0.949 . S
C2264 C2272 1.574 . S
C2264 C2280 1.368 . S
H2265 C2273 0.939 . S
H2266 C2271 0.950 . S
H2267 C2272 0.949 . S
H2268 C2274 0.950 . S
H2269 C2275 0.950 . S
H2270 C2276 0.949 . S
C2271 H2266 0.950 . S
C2271 C2273 1.327 . S
C2271 C2277 1.429 . S
C2272 C2264 1.574 . S
C2272 H2267 0.949 . S
C2272 C2278 1.368 . S
C2273 C2257 1.349 1_455 S
C2273 H2265 0.939 . S
C2273 C2271 1.327 . S
C2274 C2262 1.349 . S
C2274 H2268 0.950 . S
C2274 C2275 1.327 . S
C2275 H2269 0.950 . S
C2275 C2274 1.327 . S
C2275 C2279 1.429 . S
C2276 C2259 1.574 . S
C2276 H2270 0.949 . S
C2276 C2280 1.368 . S
C2277 C2258 1.429 . S
C2277 C2271 1.429 . S
C2277 C2278 1.523 . S
C2278 C2259 1.368 . S
C2278 C2272 1.368 . S
C2278 C2277 1.523 . S
C2279 C2263 1.429 . S
C2279 C2275 1.429 . S
C2279 C2280 1.523 . S
C2280 C2264 1.368 . S
C2280 C2276 1.368 . S
C2280 C2279 1.523 . S
H2281 C2256 0.988 . S
H2282 C2258 0.950 . S
H2283 C2259 0.949 . S
H2284 C2261 0.950 . S
H2285 C2263 0.950 . S
C2286 C2287 1.349 . S
C2286 C2288 1.327 . S
C2286 H2311 0.950 . S
C2287 C2286 1.349 . S
C2287 C2303 1.349 . S
C2288 C2286 1.327 . S
C2288 C2307 1.429 . S
C2288 H2312 0.950 . S
C2289 C2306 1.574 . S
C2289 C2308 1.368 . S
C2289 H2313 0.949 . S
H2290 C2294 0.949 . S
C2291 C2292 1.349 . S
C2291 C2293 1.327 . S
C2291 H2314 0.950 . S
C2292 C2291 1.349 . S
C2292 C2304 1.349 . S
C2293 C2291 1.327 . S
C2293 C2309 1.429 . S
C2293 H2315 0.950 . S
C2294 H2290 0.949 . S
C2294 C2302 1.574 . S
C2294 C2310 1.368 . S
H2295 C2303 0.950 . S
H2296 C2301 0.950 . S
H2297 C2302 0.949 . S
H2298 C2304 0.950 . S
H2299 C2305 0.950 . S
H2300 C2306 0.949 . S
C2301 H2296 0.950 . S
C2301 C2303 1.327 . S
C2301 C2307 1.429 . S
C2302 C2294 1.574 . S
C2302 H2297 0.949 . S
C2302 C2308 1.368 . S
C2303 C2287 1.349 . S
C2303 H2295 0.950 . S
C2303 C2301 1.327 . S
C2304 C2292 1.349 . S
C2304 H2298 0.950 . S
C2304 C2305 1.327 . S
C2305 H2299 0.950 . S
C2305 C2304 1.327 . S
C2305 C2309 1.429 . S
C2306 C2289 1.574 . S
C2306 H2300 0.949 . S
C2306 C2310 1.368 . S
C2307 C2288 1.429 . S
C2307 C2301 1.429 . S
C2307 C2308 1.523 . S
C2308 C2289 1.368 . S
C2308 C2302 1.368 . S
C2308 C2307 1.523 . S
C2309 C2293 1.429 . S
C2309 C2305 1.429 . S
C2309 C2310 1.523 . S
C2310 C2294 1.368 . S
C2310 C2306 1.368 . S
C2310 C2309 1.523 . S
H2311 C2286 0.950 . S
H2312 C2288 0.950 . S
H2313 C2289 0.949 . S
H2314 C2291 0.950 . S
H2315 C2293 0.950 . S
C2316 C2317 1.349 . S
C2316 C2318 1.327 . S
C2316 H2341 0.950 . S
C2317 C2316 1.349 . S
C2317 C2333 1.349 1_565 S
C2318 C2316 1.327 . S
C2318 C2337 1.429 1_565 S
C2318 H2342 0.950 . S
C2319 C2336 1.574 . S
C2319 C2338 1.368 . S
C2319 H2343 0.949 . S
H2320 C2324 0.949 . S
C2321 C2322 1.349 . S
C2321 C2323 1.327 . S
C2321 H2344 0.950 . S
C2322 C2321 1.349 . S
C2322 C2334 1.349 . S
C2323 C2321 1.327 . S
C2323 C2339 1.429 . S
C2323 H2345 0.950 . S
C2324 H2320 0.949 . S
C2324 C2332 1.574 . S
C2324 C2340 1.368 . S
H2325 C2333 0.950 . S
H2326 C2331 0.950 . S
H2327 C2332 0.949 1_565 S
H2328 C2334 0.950 . S
H2329 C2335 0.950 . S
H2330 C2336 0.949 . S
C2331 H2326 0.950 . S
C2331 C2333 1.327 . S
C2331 C2337 1.429 . S
C2332 C2324 1.574 . S
C2332 H2327 0.949 1_545 S
C2332 C2338 1.368 . S
C2333 C2317 1.349 1_545 S
C2333 H2325 0.950 . S
C2333 C2331 1.327 . S
C2334 C2322 1.349 . S
C2334 H2328 0.950 . S
C2334 C2335 1.327 . S
C2335 H2329 0.950 . S
C2335 C2334 1.327 . S
C2335 C2339 1.429 . S
C2336 C2319 1.574 . S
C2336 H2330 0.949 . S
C2336 C2340 1.368 . S
C2337 C2318 1.429 1_545 S
C2337 C2331 1.429 . S
C2337 C2338 1.523 . S
C2338 C2319 1.368 . S
C2338 C2332 1.368 . S
C2338 C2337 1.523 . S
C2339 C2323 1.429 . S
C2339 C2335 1.429 . S
C2339 C2340 1.523 . S
C2340 C2324 1.368 . S
C2340 C2336 1.368 . S
C2340 C2339 1.523 . S
H2341 C2316 0.950 . S
H2342 C2318 0.950 . S
H2343 C2319 0.949 . S
H2344 C2321 0.950 . S
H2345 C2323 0.950 . S
C2346 C2347 1.349 1_455 S
C2346 C2348 1.327 . S
C2346 H2371 0.950 . S
C2347 C2346 1.349 1_655 S
C2347 C2363 1.349 . S
C2348 C2346 1.327 . S
C2348 C2367 1.429 . S
C2348 H2372 0.950 . S
C2349 C2366 1.574 . S
C2349 C2368 1.368 . S
C2349 H2373 0.949 . S
H2350 C2354 0.949 . S
C2351 C2352 1.349 . S
C2351 C2353 1.327 . S
C2351 H2374 0.950 . S
C2352 C2351 1.349 . S
C2352 C2364 1.349 . S
C2353 C2351 1.327 . S
C2353 C2369 1.429 . S
C2353 H2375 0.950 . S
C2354 H2350 0.949 . S
C2354 C2362 1.574 . S
C2354 C2370 1.368 . S
H2355 C2363 0.950 . S
H2356 C2361 0.984 . S
H2357 C2362 0.949 . S
H2358 C2364 0.950 . S
H2359 C2365 0.950 . S
H2360 C2366 0.949 . S
C2361 H2356 0.984 . S
C2361 C2363 1.343 . S
C2361 C2367 1.382 1_655 S
C2362 C2354 1.574 . S
C2362 H2357 0.949 . S
C2362 C2368 1.368 . S
C2363 C2347 1.349 . S
C2363 H2355 0.950 . S
C2363 C2361 1.343 . S
C2364 C2352 1.349 . S
C2364 H2358 0.950 . S
C2364 C2365 1.327 . S
C2365 H2359 0.950 . S
C2365 C2364 1.327 . S
C2365 C2369 1.429 . S
C2366 C2349 1.574 . S
C2366 H2360 0.949 . S
C2366 C2370 1.368 . S
C2367 C2348 1.429 . S
C2367 C2361 1.382 1_455 S
C2367 C2368 1.523 . S
C2368 C2349 1.368 . S
C2368 C2362 1.368 . S
C2368 C2367 1.523 . S
C2369 C2353 1.429 . S
C2369 C2365 1.429 . S
C2369 C2370 1.523 . S
C2370 C2354 1.368 . S
C2370 C2366 1.368 . S
C2370 C2369 1.523 . S
H2371 C2346 0.950 . S
H2372 C2348 0.950 . S
H2373 C2349 0.949 . S
H2374 C2351 0.950 . S
H2375 C2353 0.950 . S
C2376 C2377 1.349 . S
C2376 C2378 1.327 . S
C2376 H2401 0.950 . S
C2377 C2376 1.349 . S
C2377 C2393 1.349 . S
C2378 C2376 1.327 . S
C2378 C2397 1.429 . S
C2378 H2402 0.950 . S
C2379 C2396 1.574 1_554 S
C2379 C2398 1.368 . S
C2379 H2403 0.949 1_455 S
H2380 C2384 0.949 . S
C2381 C2382 1.349 . S
C2381 C2383 1.327 . S
C2381 H2404 0.950 1_455 S
C2382 C2381 1.349 . S
C2382 C2394 1.349 . S
C2383 C2381 1.327 . S
C2383 C2399 1.429 . S
C2383 H2405 0.950 1_455 S
C2384 H2380 0.949 . S
C2384 C2392 1.574 1_556 S
C2384 C2400 1.368 . S
H2385 C2393 0.955 . S
H2386 C2391 0.950 1_655 S
H2387 C2392 0.949 . S
H2388 C2394 0.950 . S
H2389 C2395 0.950 . S
H2390 C2396 0.949 1_655 S
C2391 H2386 0.950 1_455 S
C2391 C2393 1.327 . S
C2391 C2397 1.429 . S
C2392 C2384 1.574 1_554 S
C2392 H2387 0.949 . S
C2392 C2398 1.368 . S
C2393 C2377 1.349 . S
C2393 H2385 0.955 . S
C2393 C2391 1.327 . S
C2394 C2382 1.349 . S
C2394 H2388 0.950 . S
C2394 C2395 1.327 . S
C2395 H2389 0.950 . S
C2395 C2394 1.327 . S
C2395 C2399 1.429 . S
C2396 C2379 1.574 1_556 S
C2396 H2390 0.949 1_455 S
C2396 C2400 1.368 . S
C2397 C2378 1.429 . S
C2397 C2391 1.429 . S
C2397 C2398 1.523 . S
C2398 C2379 1.368 . S
C2398 C2392 1.368 . S
C2398 C2397 1.523 . S
C2399 C2383 1.429 . S
C2399 C2395 1.429 . S
C2399 C2400 1.523 . S
C2400 C2384 1.368 . S
C2400 C2396 1.368 . S
C2400 C2399 1.523 . S
H2401 C2376 0.950 . S
H2402 C2378 0.950 . S
H2403 C2379 0.949 1_655 S
H2404 C2381 0.950 1_655 S
H2405 C2383 0.950 1_655 S
C2406 C2407 1.349 . S
C2406 C2408 1.327 . S
C2406 H2431 0.950 . S
C2407 C2406 1.349 . S
C2407 C2423 1.349 . S
C2408 C2406 1.327 . S
C2408 C2427 1.429 . S
C2408 H2432 0.950 . S
C2409 C2426 1.574 1_556 S
C2409 C2428 1.368 . S
C2409 H2433 0.949 . S
H2410 C2414 0.949 . S
C2411 C2412 1.349 . S
C2411 C2413 1.327 . S
C2411 H2434 0.950 . S
C2412 C2411 1.349 . S
C2412 C2424 1.349 . S
C2413 C2411 1.327 . S
C2413 C2429 1.429 . S
C2413 H2435 0.950 . S
C2414 H2410 0.949 . S
C2414 C2422 1.574 1_554 S
C2414 C2430 1.368 . S
H2415 C2423 0.950 . S
H2416 C2421 0.950 . S
H2417 C2422 0.949 . S
H2418 C2424 0.950 . S
H2419 C2425 0.950 . S
H2420 C2426 0.949 . S
C2421 H2416 0.950 . S
C2421 C2423 1.327 . S
C2421 C2427 1.429 . S
C2422 C2414 1.574 1_556 S
C2422 H2417 0.949 . S
C2422 C2428 1.368 . S
C2423 C2407 1.349 . S
C2423 H2415 0.950 . S
C2423 C2421 1.327 . S
C2424 C2412 1.349 . S
C2424 H2418 0.950 . S
C2424 C2425 1.327 . S
C2425 H2419 0.950 . S
C2425 C2424 1.327 . S
C2425 C2429 1.429 . S
C2426 C2409 1.574 1_554 S
C2426 H2420 0.949 . S
C2426 C2430 1.368 . S
C2427 C2408 1.429 . S
C2427 C2421 1.429 . S
C2427 C2428 1.523 . S
C2428 C2409 1.368 . S
C2428 C2422 1.368 . S
C2428 C2427 1.523 . S
C2429 C2413 1.429 . S
C2429 C2425 1.429 . S
C2429 C2430 1.523 . S
C2430 C2414 1.368 . S
C2430 C2426 1.368 . S
C2430 C2429 1.523 . S
H2431 C2406 0.950 . S
H2432 C2408 0.950 . S
H2433 C2409 0.949 . S
H2434 C2411 0.950 . S
H2435 C2413 0.950 . S
C2436 C2437 1.349 . S
C2436 C2438 1.327 . S
C2436 H2461 0.950 . S
C2437 C2436 1.349 . S
C2437 C2453 1.349 . S
C2438 C2436 1.327 . S
C2438 C2457 1.429 . S
C2438 H2462 0.950 . S
C2439 C2456 1.574 1_556 S
C2439 C2458 1.368 . S
C2439 H2463 0.949 . S
H2440 C2444 0.956 . S
C2441 C2442 1.349 . S
C2441 C2443 1.327 . S
C2441 H2464 0.950 . S
C2442 C2441 1.349 . S
C2442 C2454 1.349 . S
C2443 C2441 1.327 . S
C2443 C2459 1.429 . S
C2443 H2465 0.950 . S
C2444 H2440 0.956 . S
C2444 C2452 1.574 1_554 S
C2444 C2460 1.368 . S
H2445 C2453 0.950 . S
H2446 C2451 0.950 . S
H2447 C2452 0.949 . S
H2448 C2454 0.940 1_565 S
H2449 C2455 0.942 1_565 S
H2450 C2456 0.949 . S
C2451 H2446 0.950 . S
C2451 C2453 1.327 . S
C2451 C2457 1.429 . S
C2452 C2444 1.574 1_556 S
C2452 H2447 0.949 . S
C2452 C2458 1.368 . S
C2453 C2437 1.349 . S
C2453 H2445 0.950 . S
C2453 C2451 1.327 . S
C2454 C2442 1.349 . S
C2454 H2448 0.940 1_545 S
C2454 C2455 1.327 . S
C2455 H2449 0.942 1_545 S
C2455 C2454 1.327 . S
C2455 C2459 1.429 . S
C2456 C2439 1.574 1_554 S
C2456 H2450 0.949 . S
C2456 C2460 1.368 . S
C2457 C2438 1.429 . S
C2457 C2451 1.429 . S
C2457 C2458 1.523 . S
C2458 C2439 1.368 . S
C2458 C2452 1.368 . S
C2458 C2457 1.523 . S
C2459 C2443 1.429 . S
C2459 C2455 1.429 . S
C2459 C2460 1.523 . S
C2460 C2444 1.368 . S
C2460 C2456 1.368 . S
C2460 C2459 1.523 . S
H2461 C2436 0.950 . S
H2462 C2438 0.950 . S
H2463 C2439 0.949 . S
H2464 C2441 0.950 . S
H2465 C2443 0.950 . S
C2466 C2467 1.349 . S
C2466 C2468 1.327 . S
C2466 H2491 0.950 . S
C2467 C2466 1.349 . S
C2467 C2483 1.349 . S
C2468 C2466 1.327 . S
C2468 C2487 1.429 . S
C2468 H2492 0.950 . S
C2469 C2486 1.574 1_556 S
C2469 C2488 1.368 . S
C2469 H2493 0.949 . S
H2470 C2474 0.949 . S
C2471 C2472 1.349 . S
C2471 C2473 1.327 . S
C2471 H2494 0.950 . S
C2472 C2471 1.349 . S
C2472 C2484 1.349 . S
C2473 C2471 1.327 . S
C2473 C2489 1.429 . S
C2473 H2495 0.950 . S
C2474 H2470 0.949 . S
C2474 C2482 1.574 1_554 S
C2474 C2490 1.368 . S
H2475 C2483 0.950 . S
H2476 C2481 0.950 . S
H2477 C2482 0.949 . S
H2478 C2484 0.950 . S
H2479 C2485 0.950 . S
H2480 C2486 0.949 . S
C2481 H2476 0.950 . S
C2481 C2483 1.327 . S
C2481 C2487 1.429 . S
C2482 C2474 1.574 1_556 S
C2482 H2477 0.949 . S
C2482 C2488 1.368 . S
C2483 C2467 1.349 . S
C2483 H2475 0.950 . S
C2483 C2481 1.327 . S
C2484 C2472 1.349 . S
C2484 H2478 0.950 . S
C2484 C2485 1.327 . S
C2485 H2479 0.950 . S
C2485 C2484 1.327 . S
C2485 C2489 1.429 . S
C2486 C2469 1.574 1_554 S
C2486 H2480 0.949 . S
C2486 C2490 1.368 . S
C2487 C2468 1.429 . S
C2487 C2481 1.429 . S
C2487 C2488 1.523 . S
C2488 C2469 1.368 . S
C2488 C2482 1.368 . S
C2488 C2487 1.523 . S
C2489 C2473 1.429 . S
C2489 C2485 1.429 . S
C2489 C2490 1.523 . S
C2490 C2474 1.368 . S
C2490 C2486 1.368 . S
C2490 C2489 1.523 . S
H2491 C2466 0.950 . S
H2492 C2468 0.950 . S
H2493 C2469 0.949 . S
H2494 C2471 0.950 . S
H2495 C2473 0.950 . S
C2496 C2497 1.349 . S
C2496 C2498 1.327 . S
C2496 H2521 0.950 . S
C2497 C2496 1.349 . S
C2497 C2513 1.349 . S
C2498 C2496 1.327 . S
C2498 C2517 1.429 . S
C2498 H2522 0.950 . S
C2499 C2516 1.574 1_554 S
C2499 C2518 1.368 . S
C2499 H2523 0.949 . S
H2500 C2504 0.949 . S
C2501 C2502 1.349 . S
C2501 C2503 1.327 . S
C2501 H2524 0.950 . S
C2502 C2501 1.349 . S
C2502 C2514 1.349 . S
C2503 C2501 1.327 . S
C2503 C2519 1.429 . S
C2503 H2525 0.950 . S
C2504 H2500 0.949 . S
C2504 C2512 1.574 1_556 S
C2504 C2520 1.368 . S
H2505 C2513 0.950 . S
H2506 C2511 0.950 . S
H2507 C2512 0.949 . S
H2508 C2514 0.950 . S
H2509 C2515 0.950 . S
H2510 C2516 0.949 . S
C2511 H2506 0.950 . S
C2511 C2513 1.327 . S
C2511 C2517 1.429 . S
C2512 C2504 1.574 1_554 S
C2512 H2507 0.949 . S
C2512 C2518 1.368 . S
C2513 C2497 1.349 . S
C2513 H2505 0.950 . S
C2513 C2511 1.327 . S
C2514 C2502 1.349 . S
C2514 H2508 0.950 . S
C2514 C2515 1.327 . S
C2515 H2509 0.950 . S
C2515 C2514 1.327 . S
C2515 C2519 1.429 . S
C2516 C2499 1.574 1_556 S
C2516 H2510 0.949 . S
C2516 C2520 1.368 . S
C2517 C2498 1.429 . S
C2517 C2511 1.429 . S
C2517 C2518 1.523 . S
C2518 C2499 1.368 . S
C2518 C2512 1.368 . S
C2518 C2517 1.523 . S
C2519 C2503 1.429 . S
C2519 C2515 1.429 . S
C2519 C2520 1.523 . S
C2520 C2504 1.368 . S
C2520 C2516 1.368 . S
C2520 C2519 1.523 . S
H2521 C2496 0.950 . S
H2522 C2498 0.950 . S
H2523 C2499 0.949 . S
H2524 C2501 0.950 . S
H2525 C2503 0.950 . S
C2526 C2527 1.349 . S
C2526 C2528 1.327 . S
C2526 H2551 0.950 . S
C2527 C2526 1.349 . S
C2527 C2543 1.349 . S
C2528 C2526 1.327 . S
C2528 C2547 1.429 . S
C2528 H2552 0.950 . S
C2529 C2546 1.574 1_556 S
C2529 C2548 1.368 . S
C2529 H2553 0.986 . S
H2530 C2534 0.949 . S
C2531 C2532 1.349 . S
C2531 C2533 1.327 . S
C2531 H2554 0.918 1_545 S
C2532 C2531 1.349 . S
C2532 C2544 1.349 . S
C2533 C2531 1.327 . S
C2533 C2549 1.429 . S
C2533 H2555 0.920 1_545 S
C2534 H2530 0.949 . S
C2534 C2542 1.574 1_554 S
C2534 C2550 1.368 . S
H2535 C2543 0.950 . S
H2536 C2541 0.950 . S
H2537 C2542 0.949 . S
H2538 C2544 0.950 . S
H2539 C2545 0.950 . S
H2540 C2546 0.946 1_565 S
C2541 H2536 0.950 . S
C2541 C2543 1.327 . S
C2541 C2547 1.429 . S
C2542 C2534 1.574 1_556 S
C2542 H2537 0.949 . S
C2542 C2548 1.368 . S
C2543 C2527 1.349 . S
C2543 H2535 0.950 . S
C2543 C2541 1.327 . S
C2544 C2532 1.349 . S
C2544 H2538 0.950 . S
C2544 C2545 1.327 . S
C2545 H2539 0.950 . S
C2545 C2544 1.327 . S
C2545 C2549 1.429 . S
C2546 C2529 1.574 1_554 S
C2546 H2540 0.946 1_545 S
C2546 C2550 1.368 . S
C2547 C2528 1.429 . S
C2547 C2541 1.429 . S
C2547 C2548 1.523 . S
C2548 C2529 1.368 . S
C2548 C2542 1.368 . S
C2548 C2547 1.523 . S
C2549 C2533 1.429 . S
C2549 C2545 1.429 . S
C2549 C2550 1.523 . S
C2550 C2534 1.368 . S
C2550 C2546 1.368 . S
C2550 C2549 1.523 . S
H2551 C2526 0.950 . S
H2552 C2528 0.950 . S
H2553 C2529 0.986 . S
H2554 C2531 0.918 1_565 S
H2555 C2533 0.920 1_565 S
C2556 C2557 1.349 . S
C2556 C2558 1.327 . S
C2556 H2581 0.950 . S
C2557 C2556 1.349 . S
C2557 C2573 1.349 . S
C2558 C2556 1.327 . S
C2558 C2577 1.429 . S
C2558 H2582 0.950 . S
C2559 C2576 1.574 . S
C2559 C2578 1.368 . S
C2559 H2583 0.949 . S
H2560 C2564 0.949 . S
C2561 C2562 1.349 . S
C2561 C2563 1.327 . S
C2561 H2584 0.950 . S
C2562 C2561 1.349 . S
C2562 C2574 1.349 . S
C2563 C2561 1.327 . S
C2563 C2579 1.429 . S
C2563 H2585 0.950 . S
C2564 H2560 0.949 . S
C2564 C2572 1.574 . S
C2564 C2580 1.368 . S
H2565 C2573 0.950 . S
H2566 C2571 0.950 . S
H2567 C2572 0.949 . S
H2568 C2574 0.950 . S
H2569 C2575 0.950 . S
H2570 C2576 0.949 . S
C2571 H2566 0.950 . S
C2571 C2573 1.327 . S
C2571 C2577 1.429 . S
C2572 C2564 1.574 . S
C2572 H2567 0.949 . S
C2572 C2578 1.368 . S
C2573 C2557 1.349 . S
C2573 H2565 0.950 . S
C2573 C2571 1.327 . S
C2574 C2562 1.349 . S
C2574 H2568 0.950 . S
C2574 C2575 1.327 . S
C2575 H2569 0.950 . S
C2575 C2574 1.327 . S
C2575 C2579 1.429 . S
C2576 C2559 1.574 . S
C2576 H2570 0.949 . S
C2576 C2580 1.368 . S
C2577 C2558 1.429 . S
C2577 C2571 1.429 . S
C2577 C2578 1.523 . S
C2578 C2559 1.368 . S
C2578 C2572 1.368 . S
C2578 C2577 1.523 . S
C2579 C2563 1.429 . S
C2579 C2575 1.429 . S
C2579 C2580 1.523 . S
C2580 C2564 1.368 . S
C2580 C2576 1.368 . S
C2580 C2579 1.523 . S
H2581 C2556 0.950 . S
H2582 C2558 0.950 . S
H2583 C2559 0.949 . S
H2584 C2561 0.950 . S
H2585 C2563 0.950 . S
C2586 C2587 1.349 . S
C2586 C2588 1.327 . S
C2586 H2611 0.950 . S
C2587 C2586 1.349 . S
C2587 C2603 1.349 . S
C2588 C2586 1.327 . S
C2588 C2607 1.429 . S
C2588 H2612 0.950 . S
C2589 C2606 1.574 . S
C2589 C2608 1.368 . S
C2589 H2613 0.949 . S
H2590 C2594 0.949 . S
C2591 C2592 1.349 . S
C2591 C2593 1.327 . S
C2591 H2614 0.950 . S
C2592 C2591 1.349 . S
C2592 C2604 1.349 . S
C2593 C2591 1.327 . S
C2593 C2609 1.429 . S
C2593 H2615 0.950 . S
C2594 H2590 0.949 . S
C2594 C2602 1.574 . S
C2594 C2610 1.368 . S
H2595 C2603 0.950 . S
H2596 C2601 0.950 . S
H2597 C2602 0.949 . S
H2598 C2604 0.950 . S
H2599 C2605 0.950 . S
H2600 C2606 0.949 . S
C2601 H2596 0.950 . S
C2601 C2603 1.327 . S
C2601 C2607 1.429 . S
C2602 C2594 1.574 . S
C2602 H2597 0.949 . S
C2602 C2608 1.368 . S
C2603 C2587 1.349 . S
C2603 H2595 0.950 . S
C2603 C2601 1.327 . S
C2604 C2592 1.349 . S
C2604 H2598 0.950 . S
C2604 C2605 1.327 . S
C2605 H2599 0.950 . S
C2605 C2604 1.327 . S
C2605 C2609 1.429 . S
C2606 C2589 1.574 . S
C2606 H2600 0.949 . S
C2606 C2610 1.368 . S
C2607 C2588 1.429 . S
C2607 C2601 1.429 . S
C2607 C2608 1.523 . S
C2608 C2589 1.368 . S
C2608 C2602 1.368 . S
C2608 C2607 1.523 . S
C2609 C2593 1.429 . S
C2609 C2605 1.429 . S
C2609 C2610 1.523 . S
C2610 C2594 1.368 . S
C2610 C2606 1.368 . S
C2610 C2609 1.523 . S
H2611 C2586 0.950 . S
H2612 C2588 0.950 . S
H2613 C2589 0.949 . S
H2614 C2591 0.950 . S
H2615 C2593 0.950 . S
C2616 C2617 1.349 . S
C2616 C2618 1.327 . S
C2616 H2641 0.950 . S
C2617 C2616 1.349 . S
C2617 C2633 1.349 . S
C2618 C2616 1.327 . S
C2618 C2637 1.429 . S
C2618 H2642 0.950 . S
C2619 C2636 1.574 . S
C2619 C2638 1.368 . S
C2619 H2643 0.949 1_655 S
H2620 C2624 0.949 . S
C2621 C2622 1.349 . S
C2621 C2623 1.327 . S
C2621 H2644 0.950 1_655 S
C2622 C2621 1.349 . S
C2622 C2634 1.349 . S
C2623 C2621 1.327 . S
C2623 C2639 1.429 . S
C2623 H2645 0.950 1_655 S
C2624 H2620 0.949 . S
C2624 C2632 1.574 . S
C2624 C2640 1.368 . S
H2625 C2633 0.950 1_455 S
H2626 C2631 0.950 1_455 S
H2627 C2632 0.949 . S
H2628 C2634 0.950 . S
H2629 C2635 0.950 . S
H2630 C2636 0.949 1_455 S
C2631 H2626 0.950 1_655 S
C2631 C2633 1.327 . S
C2631 C2637 1.429 . S
C2632 C2624 1.574 . S
C2632 H2627 0.949 . S
C2632 C2638 1.368 . S
C2633 C2617 1.349 . S
C2633 H2625 0.950 1_655 S
C2633 C2631 1.327 . S
C2634 C2622 1.349 . S
C2634 H2628 0.950 . S
C2634 C2635 1.327 . S
C2635 H2629 0.950 . S
C2635 C2634 1.327 . S
C2635 C2639 1.429 . S
C2636 C2619 1.574 . S
C2636 H2630 0.949 1_655 S
C2636 C2640 1.368 . S
C2637 C2618 1.429 . S
C2637 C2631 1.429 . S
C2637 C2638 1.523 . S
C2638 C2619 1.368 . S
C2638 C2632 1.368 . S
C2638 C2637 1.523 . S
C2639 C2623 1.429 . S
C2639 C2635 1.429 . S
C2639 C2640 1.523 . S
C2640 C2624 1.368 . S
C2640 C2636 1.368 . S
C2640 C2639 1.523 . S
H2641 C2616 0.950 . S
H2642 C2618 0.950 . S
H2643 C2619 0.949 1_455 S
H2644 C2621 0.950 1_455 S
H2645 C2623 0.950 1_455 S
C2646 C2647 1.349 . S
C2646 C2648 1.327 . S
C2646 H2671 0.950 . S
C2647 C2646 1.349 . S
C2647 C2663 1.349 . S
C2648 C2646 1.327 . S
C2648 C2667 1.429 . S
C2648 H2672 0.950 . S
C2649 C2666 1.574 . S
C2649 C2668 1.368 . S
C2649 H2673 0.949 . S
H2650 C2654 0.949 . S
C2651 C2652 1.349 . S
C2651 C2653 1.327 . S
C2651 H2674 0.950 . S
C2652 C2651 1.349 . S
C2652 C2664 1.349 . S
C2653 C2651 1.327 . S
C2653 C2669 1.429 . S
C2653 H2675 0.950 . S
C2654 H2650 0.949 . S
C2654 C2662 1.574 . S
C2654 C2670 1.368 . S
H2655 C2663 0.950 . S
H2656 C2661 0.950 . S
H2657 C2662 0.949 . S
H2658 C2664 0.950 . S
H2659 C2665 0.950 . S
H2660 C2666 0.949 . S
C2661 H2656 0.950 . S
C2661 C2663 1.327 . S
C2661 C2667 1.429 . S
C2662 C2654 1.574 . S
C2662 H2657 0.949 . S
C2662 C2668 1.368 . S
C2663 C2647 1.349 . S
C2663 H2655 0.950 . S
C2663 C2661 1.327 . S
C2664 C2652 1.349 . S
C2664 H2658 0.950 . S
C2664 C2665 1.327 . S
C2665 H2659 0.950 . S
C2665 C2664 1.327 . S
C2665 C2669 1.429 . S
C2666 C2649 1.574 . S
C2666 H2660 0.949 . S
C2666 C2670 1.368 . S
C2667 C2648 1.429 . S
C2667 C2661 1.429 . S
C2667 C2668 1.523 . S
C2668 C2649 1.368 . S
C2668 C2662 1.368 . S
C2668 C2667 1.523 . S
C2669 C2653 1.429 . S
C2669 C2665 1.429 . S
C2669 C2670 1.523 . S
C2670 C2654 1.368 . S
C2670 C2666 1.368 . S
C2670 C2669 1.523 . S
H2671 C2646 0.950 . S
H2672 C2648 0.950 . S
H2673 C2649 0.949 . S
H2674 C2651 0.950 . S
H2675 C2653 0.950 . S
C2676 C2677 1.349 . S
C2676 C2678 1.327 . S
C2676 H2701 0.950 1_655 S
C2677 C2676 1.349 . S
C2677 C2693 1.349 . S
C2678 C2676 1.327 . S
C2678 C2697 1.429 . S
C2678 H2702 0.950 1_655 S
C2679 C2696 1.574 . S
C2679 C2698 1.368 . S
C2679 H2703 0.949 . S
H2680 C2684 0.949 1_455 S
C2681 C2682 1.349 . S
C2681 C2683 1.327 . S
C2681 H2704 0.950 . S
C2682 C2681 1.349 . S
C2682 C2694 1.349 . S
C2683 C2681 1.327 . S
C2683 C2699 1.429 . S
C2683 H2705 0.950 . S
C2684 H2680 0.949 1_655 S
C2684 C2692 1.574 . S
C2684 C2700 1.368 . S
H2685 C2693 0.950 . S
H2686 C2691 0.950 . S
H2687 C2692 0.949 1_455 S
H2688 C2694 0.950 1_455 S
H2689 C2695 0.950 1_455 S
H2690 C2696 0.949 . S
C2691 H2686 0.950 . S
C2691 C2693 1.327 . S
C2691 C2697 1.429 . S
C2692 C2684 1.574 . S
C2692 H2687 0.949 1_655 S
C2692 C2698 1.368 . S
C2693 C2677 1.349 . S
C2693 H2685 0.950 . S
C2693 C2691 1.327 . S
C2694 C2682 1.349 . S
C2694 H2688 0.950 1_655 S
C2694 C2695 1.327 . S
C2695 H2689 0.950 1_655 S
C2695 C2694 1.327 . S
C2695 C2699 1.429 . S
C2696 C2679 1.574 . S
C2696 H2690 0.949 . S
C2696 C2700 1.368 . S
C2697 C2678 1.429 . S
C2697 C2691 1.429 . S
C2697 C2698 1.523 . S
C2698 C2679 1.368 . S
C2698 C2692 1.368 . S
C2698 C2697 1.523 . S
C2699 C2683 1.429 . S
C2699 C2695 1.429 . S
C2699 C2700 1.523 . S
C2700 C2684 1.368 . S
C2700 C2696 1.368 . S
C2700 C2699 1.523 . S
H2701 C2676 0.950 1_455 S
H2702 C2678 0.950 1_455 S
H2703 C2679 0.949 . S
H2704 C2681 0.950 . S
H2705 C2683 0.950 . S
C2706 C2707 1.349 . S
C2706 C2708 1.327 . S
C2706 H2731 0.950 . S
C2707 C2706 1.349 . S
C2707 C2723 1.349 . S
C2708 C2706 1.327 . S
C2708 C2727 1.429 . S
C2708 H2732 0.950 . S
C2709 C2726 1.574 . S
C2709 C2728 1.368 . S
C2709 H2733 0.949 . S
H2710 C2714 0.949 . S
C2711 C2712 1.349 . S
C2711 C2713 1.327 . S
C2711 H2734 0.950 . S
C2712 C2711 1.349 . S
C2712 C2724 1.349 . S
C2713 C2711 1.327 . S
C2713 C2729 1.429 . S
C2713 H2735 0.950 . S
C2714 H2710 0.949 . S
C2714 C2722 1.574 . S
C2714 C2730 1.368 . S
H2715 C2723 0.950 . S
H2716 C2721 0.950 . S
H2717 C2722 0.949 . S
H2718 C2724 0.950 . S
H2719 C2725 0.950 . S
H2720 C2726 0.949 . S
C2721 H2716 0.950 . S
C2721 C2723 1.327 . S
C2721 C2727 1.429 . S
C2722 C2714 1.574 . S
C2722 H2717 0.949 . S
C2722 C2728 1.368 . S
C2723 C2707 1.349 . S
C2723 H2715 0.950 . S
C2723 C2721 1.327 . S
C2724 C2712 1.349 . S
C2724 H2718 0.950 . S
C2724 C2725 1.327 . S
C2725 H2719 0.950 . S
C2725 C2724 1.327 . S
C2725 C2729 1.429 . S
C2726 C2709 1.574 . S
C2726 H2720 0.949 . S
C2726 C2730 1.368 . S
C2727 C2708 1.429 . S
C2727 C2721 1.429 . S
C2727 C2728 1.523 . S
C2728 C2709 1.368 . S
C2728 C2722 1.368 . S
C2728 C2727 1.523 . S
C2729 C2713 1.429 . S
C2729 C2725 1.429 . S
C2729 C2730 1.523 . S
C2730 C2714 1.368 . S
C2730 C2726 1.368 . S
C2730 C2729 1.523 . S
H2731 C2706 0.950 . S
H2732 C2708 0.950 . S
H2733 C2709 0.949 . S
H2734 C2711 0.950 . S
H2735 C2713 0.950 . S
C2736 C2737 1.349 . S
C2736 C2738 1.327 . S
C2736 H2761 0.950 . S
C2737 C2736 1.349 . S
C2737 C2753 1.349 . S
C2738 C2736 1.327 . S
C2738 C2757 1.429 . S
C2738 H2762 0.950 . S
C2739 C2756 1.574 . S
C2739 C2758 1.368 . S
C2739 H2763 0.949 1_565 S
H2740 C2744 0.949 . S
C2741 C2742 1.349 . S
C2741 C2743 1.327 . S
C2741 H2764 0.950 1_565 S
C2742 C2741 1.349 . S
C2742 C2754 1.349 . S
C2743 C2741 1.327 . S
C2743 C2759 1.429 . S
C2743 H2765 0.950 1_565 S
C2744 H2740 0.949 . S
C2744 C2752 1.574 . S
C2744 C2760 1.368 . S
H2745 C2753 0.950 1_545 S
H2746 C2751 0.950 1_545 S
H2747 C2752 0.949 . S
H2748 C2754 0.950 . S
H2749 C2755 0.950 . S
H2750 C2756 0.949 1_545 S
C2751 H2746 0.950 1_565 S
C2751 C2753 1.327 . S
C2751 C2757 1.429 . S
C2752 C2744 1.574 . S
C2752 H2747 0.949 . S
C2752 C2758 1.368 . S
C2753 C2737 1.349 . S
C2753 H2745 0.950 1_565 S
C2753 C2751 1.327 . S
C2754 C2742 1.349 . S
C2754 H2748 0.950 . S
C2754 C2755 1.327 . S
C2755 H2749 0.950 . S
C2755 C2754 1.327 . S
C2755 C2759 1.429 . S
C2756 C2739 1.574 . S
C2756 H2750 0.949 1_565 S
C2756 C2760 1.368 . S
C2757 C2738 1.429 . S
C2757 C2751 1.429 . S
C2757 C2758 1.523 . S
C2758 C2739 1.368 . S
C2758 C2752 1.368 . S
C2758 C2757 1.523 . S
C2759 C2743 1.429 . S
C2759 C2755 1.429 . S
C2759 C2760 1.523 . S
C2760 C2744 1.368 . S
C2760 C2756 1.368 . S
C2760 C2759 1.523 . S
H2761 C2736 0.950 . S
H2762 C2738 0.950 . S
H2763 C2739 0.949 1_545 S
H2764 C2741 0.950 1_545 S
H2765 C2743 0.950 1_545 S
C2766 C2767 1.349 . S
C2766 C2768 1.327 . S
C2766 H2791 0.950 . S
C2767 C2766 1.349 . S
C2767 C2783 1.349 . S
C2768 C2766 1.327 . S
C2768 C2787 1.429 . S
C2768 H2792 0.950 . S
C2769 C2786 1.574 . S
C2769 C2788 1.368 . S
C2769 H2793 0.949 . S
H2770 C2774 0.949 . S
C2771 C2772 1.349 . S
C2771 C2773 1.327 . S
C2771 H2794 0.950 . S
C2772 C2771 1.349 . S
C2772 C2784 1.349 . S
C2773 C2771 1.327 . S
C2773 C2789 1.429 . S
C2773 H2795 0.950 . S
C2774 H2770 0.949 . S
C2774 C2782 1.574 . S
C2774 C2790 1.368 . S
H2775 C2783 0.950 . S
H2776 C2781 0.950 . S
H2777 C2782 0.949 . S
H2778 C2784 0.950 . S
H2779 C2785 0.950 . S
H2780 C2786 0.949 . S
C2781 H2776 0.950 . S
C2781 C2783 1.327 . S
C2781 C2787 1.429 . S
C2782 C2774 1.574 . S
C2782 H2777 0.949 . S
C2782 C2788 1.368 . S
C2783 C2767 1.349 . S
C2783 H2775 0.950 . S
C2783 C2781 1.327 . S
C2784 C2772 1.349 . S
C2784 H2778 0.950 . S
C2784 C2785 1.327 . S
C2785 H2779 0.950 . S
C2785 C2784 1.327 . S
C2785 C2789 1.429 . S
C2786 C2769 1.574 . S
C2786 H2780 0.949 . S
C2786 C2790 1.368 . S
C2787 C2768 1.429 . S
C2787 C2781 1.429 . S
C2787 C2788 1.523 . S
C2788 C2769 1.368 . S
C2788 C2782 1.368 . S
C2788 C2787 1.523 . S
C2789 C2773 1.429 . S
C2789 C2785 1.429 . S
C2789 C2790 1.523 . S
C2790 C2774 1.368 . S
C2790 C2786 1.368 . S
C2790 C2789 1.523 . S
H2791 C2766 0.950 . S
H2792 C2768 0.950 . S
H2793 C2769 0.949 . S
H2794 C2771 0.950 . S
H2795 C2773 0.950 . S
C2796 C2797 1.349 . S
C2796 C2798 1.327 . S
C2796 H2821 0.950 . S
C2797 C2796 1.349 . S
C2797 C2813 1.349 . S
C2798 C2796 1.327 . S
C2798 C2817 1.429 . S
C2798 H2822 0.950 . S
C2799 C2816 1.574 . S
C2799 C2818 1.368 . S
C2799 H2823 0.949 . S
H2800 C2804 0.949 . S
C2801 C2802 1.349 . S
C2801 C2803 1.327 . S
C2801 H2824 0.950 . S
C2802 C2801 1.349 . S
C2802 C2814 1.349 . S
C2803 C2801 1.327 . S
C2803 C2819 1.429 . S
C2803 H2825 0.950 . S
C2804 H2800 0.949 . S
C2804 C2812 1.574 . S
C2804 C2820 1.368 . S
H2805 C2813 0.950 . S
H2806 C2811 0.950 . S
H2807 C2812 0.949 . S
H2808 C2814 0.950 . S
H2809 C2815 0.950 . S
H2810 C2816 0.949 . S
C2811 H2806 0.950 . S
C2811 C2813 1.327 . S
C2811 C2817 1.429 . S
C2812 C2804 1.574 . S
C2812 H2807 0.949 . S
C2812 C2818 1.368 . S
C2813 C2797 1.349 . S
C2813 H2805 0.950 . S
C2813 C2811 1.327 . S
C2814 C2802 1.349 . S
C2814 H2808 0.950 . S
C2814 C2815 1.327 . S
C2815 H2809 0.950 . S
C2815 C2814 1.327 . S
C2815 C2819 1.429 . S
C2816 C2799 1.574 . S
C2816 H2810 0.949 . S
C2816 C2820 1.368 . S
C2817 C2798 1.429 . S
C2817 C2811 1.429 . S
C2817 C2818 1.523 . S
C2818 C2799 1.368 . S
C2818 C2812 1.368 . S
C2818 C2817 1.523 . S
C2819 C2803 1.429 . S
C2819 C2815 1.429 . S
C2819 C2820 1.523 . S
C2820 C2804 1.368 . S
C2820 C2816 1.368 . S
C2820 C2819 1.523 . S
H2821 C2796 0.950 . S
H2822 C2798 0.950 . S
H2823 C2799 0.949 . S
H2824 C2801 0.950 . S
H2825 C2803 0.950 . S
C2826 C2827 1.349 . S
C2826 C2828 1.327 . S
C2826 H2851 0.950 . S
C2827 C2826 1.349 . S
C2827 C2843 1.349 . S
C2828 C2826 1.327 . S
C2828 C2847 1.429 . S
C2828 H2852 0.950 . S
C2829 C2846 1.574 . S
C2829 C2848 1.368 . S
C2829 H2853 0.949 . S
H2830 C2834 0.949 . S
C2831 C2832 1.349 . S
C2831 C2833 1.327 . S
C2831 H2854 0.950 . S
C2832 C2831 1.349 . S
C2832 C2844 1.349 . S
C2833 C2831 1.327 . S
C2833 C2849 1.429 . S
C2833 H2855 0.950 . S
C2834 H2830 0.949 . S
C2834 C2842 1.574 . S
C2834 C2850 1.368 . S
H2835 C2843 0.950 . S
H2836 C2841 0.950 . S
H2837 C2842 0.949 . S
H2838 C2844 0.950 . S
H2839 C2845 0.950 . S
H2840 C2846 0.949 . S
C2841 H2836 0.950 . S
C2841 C2843 1.327 . S
C2841 C2847 1.429 . S
C2842 C2834 1.574 . S
C2842 H2837 0.949 . S
C2842 C2848 1.368 . S
C2843 C2827 1.349 . S
C2843 H2835 0.950 . S
C2843 C2841 1.327 . S
C2844 C2832 1.349 . S
C2844 H2838 0.950 . S
C2844 C2845 1.327 . S
C2845 H2839 0.950 . S
C2845 C2844 1.327 . S
C2845 C2849 1.429 . S
C2846 C2829 1.574 . S
C2846 H2840 0.949 . S
C2846 C2850 1.368 . S
C2847 C2828 1.429 . S
C2847 C2841 1.429 . S
C2847 C2848 1.523 . S
C2848 C2829 1.368 . S
C2848 C2842 1.368 . S
C2848 C2847 1.523 . S
C2849 C2833 1.429 . S
C2849 C2845 1.429 . S
C2849 C2850 1.523 . S
C2850 C2834 1.368 . S
C2850 C2846 1.368 . S
C2850 C2849 1.523 . S
H2851 C2826 0.950 . S
H2852 C2828 0.950 . S
H2853 C2829 0.949 . S
H2854 C2831 0.950 . S
H2855 C2833 0.950 . S
C2856 C2857 1.349 . S
C2856 C2858 1.327 . S
C2856 H2881 0.950 1_565 S
C2857 C2856 1.349 . S
C2857 C2873 1.349 . S
C2858 C2856 1.327 . S
C2858 C2877 1.429 . S
C2858 H2882 0.950 1_565 S
C2859 C2876 1.574 . S
C2859 C2878 1.368 . S
C2859 H2883 0.949 . S
H2860 C2864 0.949 1_545 S
C2861 C2862 1.349 . S
C2861 C2863 1.327 . S
C2861 H2884 0.950 . S
C2862 C2861 1.349 . S
C2862 C2874 1.349 . S
C2863 C2861 1.327 . S
C2863 C2879 1.429 . S
C2863 H2885 0.950 . S
C2864 H2860 0.949 1_565 S
C2864 C2872 1.574 . S
C2864 C2880 1.368 . S
H2865 C2873 0.950 . S
H2866 C2871 0.950 . S
H2867 C2872 0.949 1_545 S
H2868 C2874 0.950 1_545 S
H2869 C2875 0.950 1_545 S
H2870 C2876 0.949 . S
C2871 H2866 0.950 . S
C2871 C2873 1.327 . S
C2871 C2877 1.429 . S
C2872 C2864 1.574 . S
C2872 H2867 0.949 1_565 S
C2872 C2878 1.368 . S
C2873 C2857 1.349 . S
C2873 H2865 0.950 . S
C2873 C2871 1.327 . S
C2874 C2862 1.349 . S
C2874 H2868 0.950 1_565 S
C2874 C2875 1.327 . S
C2875 H2869 0.950 1_565 S
C2875 C2874 1.327 . S
C2875 C2879 1.429 . S
C2876 C2859 1.574 . S
C2876 H2870 0.949 . S
C2876 C2880 1.368 . S
C2877 C2858 1.429 . S
C2877 C2871 1.429 . S
C2877 C2878 1.523 . S
C2878 C2859 1.368 . S
C2878 C2872 1.368 . S
C2878 C2877 1.523 . S
C2879 C2863 1.429 . S
C2879 C2875 1.429 . S
C2879 C2880 1.523 . S
C2880 C2864 1.368 . S
C2880 C2876 1.368 . S
C2880 C2879 1.523 . S
H2881 C2856 0.950 1_545 S
H2882 C2858 0.950 1_545 S
H2883 C2859 0.949 . S
H2884 C2861 0.950 . S
H2885 C2863 0.950 . S
C2886 C2887 1.349 . S
C2886 C2888 1.327 . S
C2886 H2911 0.950 . S
C2887 C2886 1.349 . S
C2887 C2903 1.349 . S
C2888 C2886 1.327 . S
C2888 C2907 1.429 . S
C2888 H2912 0.950 . S
C2889 C2906 1.574 . S
C2889 C2908 1.368 . S
C2889 H2913 0.949 . S
H2890 C2894 0.949 . S
C2891 C2892 1.349 . S
C2891 C2893 1.327 . S
C2891 H2914 0.950 . S
C2892 C2891 1.349 . S
C2892 C2904 1.349 . S
C2893 C2891 1.327 . S
C2893 C2909 1.429 . S
C2893 H2915 0.950 . S
C2894 H2890 0.949 . S
C2894 C2902 1.574 . S
C2894 C2910 1.368 . S
H2895 C2903 0.950 . S
H2896 C2901 0.950 . S
H2897 C2902 0.949 . S
H2898 C2904 0.950 . S
H2899 C2905 0.950 . S
H2900 C2906 0.949 . S
C2901 H2896 0.950 . S
C2901 C2903 1.327 . S
C2901 C2907 1.429 . S
C2902 C2894 1.574 . S
C2902 H2897 0.949 . S
C2902 C2908 1.368 . S
C2903 C2887 1.349 . S
C2903 H2895 0.950 . S
C2903 C2901 1.327 . S
C2904 C2892 1.349 . S
C2904 H2898 0.950 . S
C2904 C2905 1.327 . S
C2905 H2899 0.950 . S
C2905 C2904 1.327 . S
C2905 C2909 1.429 . S
C2906 C2889 1.574 . S
C2906 H2900 0.949 . S
C2906 C2910 1.368 . S
C2907 C2888 1.429 . S
C2907 C2901 1.429 . S
C2907 C2908 1.523 . S
C2908 C2889 1.368 . S
C2908 C2902 1.368 . S
C2908 C2907 1.523 . S
C2909 C2893 1.429 . S
C2909 C2905 1.429 . S
C2909 C2910 1.523 . S
C2910 C2894 1.368 . S
C2910 C2906 1.368 . S
C2910 C2909 1.523 . S
H2911 C2886 0.950 . S
H2912 C2888 0.950 . S
H2913 C2889 0.949 . S
H2914 C2891 0.950 . S
H2915 C2893 0.950 . S
C2916 C2917 1.349 . S
C2916 C2918 1.327 . S
C2916 H2941 0.950 . S
C2917 C2916 1.349 . S
C2917 C2933 1.349 . S
C2918 C2916 1.327 . S
C2918 C2937 1.429 . S
C2918 H2942 0.950 . S
C2919 C2936 1.574 . S
C2919 C2938 1.368 . S
C2919 H2943 0.949 . S
H2920 C2924 0.949 . S
C2921 C2922 1.349 . S
C2921 C2923 1.327 . S
C2921 H2944 0.950 . S
C2922 C2921 1.349 . S
C2922 C2934 1.349 . S
C2923 C2921 1.327 . S
C2923 C2939 1.429 . S
C2923 H2945 0.950 . S
C2924 H2920 0.949 . S
C2924 C2932 1.574 . S
C2924 C2940 1.368 . S
H2925 C2933 0.950 . S
H2926 C2931 0.950 . S
H2927 C2932 0.949 . S
H2928 C2934 0.950 . S
H2929 C2935 0.950 . S
H2930 C2936 0.949 . S
C2931 H2926 0.950 . S
C2931 C2933 1.327 . S
C2931 C2937 1.429 . S
C2932 C2924 1.574 . S
C2932 H2927 0.949 . S
C2932 C2938 1.368 . S
C2933 C2917 1.349 . S
C2933 H2925 0.950 . S
C2933 C2931 1.327 . S
C2934 C2922 1.349 . S
C2934 H2928 0.950 . S
C2934 C2935 1.327 . S
C2935 H2929 0.950 . S
C2935 C2934 1.327 . S
C2935 C2939 1.429 . S
C2936 C2919 1.574 . S
C2936 H2930 0.949 . S
C2936 C2940 1.368 . S
C2937 C2918 1.429 . S
C2937 C2931 1.429 . S
C2937 C2938 1.523 . S
C2938 C2919 1.368 . S
C2938 C2932 1.368 . S
C2938 C2937 1.523 . S
C2939 C2923 1.429 . S
C2939 C2935 1.429 . S
C2939 C2940 1.523 . S
C2940 C2924 1.368 . S
C2940 C2936 1.368 . S
C2940 C2939 1.523 . S
H2941 C2916 0.950 . S
H2942 C2918 0.950 . S
H2943 C2919 0.949 . S
H2944 C2921 0.950 . S
H2945 C2923 0.950 . S
C2946 C2947 1.349 . S
C2946 C2948 1.327 . S
C2946 H2971 0.950 . S
C2947 C2946 1.349 . S
C2947 C2963 1.349 . S
C2948 C2946 1.327 . S
C2948 C2967 1.429 . S
C2948 H2972 0.950 . S
C2949 C2966 1.574 . S
C2949 C2968 1.368 . S
C2949 H2973 0.949 . S
H2950 C2954 0.949 . S
C2951 C2952 1.349 . S
C2951 C2953 1.327 . S
C2951 H2974 0.950 . S
C2952 C2951 1.349 . S
C2952 C2964 1.349 . S
C2953 C2951 1.327 . S
C2953 C2969 1.429 . S
C2953 H2975 0.950 . S
C2954 H2950 0.949 . S
C2954 C2962 1.574 . S
C2954 C2970 1.368 . S
H2955 C2963 0.950 . S
H2956 C2961 0.950 . S
H2957 C2962 0.949 . S
H2958 C2964 0.950 . S
H2959 C2965 0.950 . S
H2960 C2966 0.949 . S
C2961 H2956 0.950 . S
C2961 C2963 1.327 . S
C2961 C2967 1.429 . S
C2962 C2954 1.574 . S
C2962 H2957 0.949 . S
C2962 C2968 1.368 . S
C2963 C2947 1.349 . S
C2963 H2955 0.950 . S
C2963 C2961 1.327 . S
C2964 C2952 1.349 . S
C2964 H2958 0.950 . S
C2964 C2965 1.327 . S
C2965 H2959 0.950 . S
C2965 C2964 1.327 . S
C2965 C2969 1.429 . S
C2966 C2949 1.574 . S
C2966 H2960 0.949 . S
C2966 C2970 1.368 . S
C2967 C2948 1.429 . S
C2967 C2961 1.429 . S
C2967 C2968 1.523 . S
C2968 C2949 1.368 . S
C2968 C2962 1.368 . S
C2968 C2967 1.523 . S
C2969 C2953 1.429 . S
C2969 C2965 1.429 . S
C2969 C2970 1.523 . S
C2970 C2954 1.368 . S
C2970 C2966 1.368 . S
C2970 C2969 1.523 . S
H2971 C2946 0.950 . S
H2972 C2948 0.950 . S
H2973 C2949 0.949 . S
H2974 C2951 0.950 . S
H2975 C2953 0.950 . S
C2976 C2977 1.349 . S
C2976 C2978 1.327 . S
C2976 H3001 0.950 . S
C2977 C2976 1.349 . S
C2977 C2993 1.349 . S
C2978 C2976 1.327 . S
C2978 C2997 1.429 . S
C2978 H3002 0.950 . S
C2979 C2996 1.574 . S
C2979 C2998 1.368 . S
C2979 H3003 0.949 . S
H2980 C2984 0.949 . S
C2981 C2982 1.349 . S
C2981 C2983 1.327 . S
C2981 H3004 0.950 . S
C2982 C2981 1.349 . S
C2982 C2994 1.349 . S
C2983 C2981 1.327 . S
C2983 C2999 1.429 . S
C2983 H3005 0.950 . S
C2984 H2980 0.949 . S
C2984 C2992 1.574 . S
C2984 C3000 1.368 . S
H2985 C2993 0.950 . S
H2986 C2991 0.950 . S
H2987 C2992 0.949 . S
H2988 C2994 0.950 . S
H2989 C2995 0.950 . S
H2990 C2996 0.949 . S
C2991 H2986 0.950 . S
C2991 C2993 1.327 . S
C2991 C2997 1.429 . S
C2992 C2984 1.574 . S
C2992 H2987 0.949 . S
C2992 C2998 1.368 . S
C2993 C2977 1.349 . S
C2993 H2985 0.950 . S
C2993 C2991 1.327 . S
C2994 C2982 1.349 . S
C2994 H2988 0.950 . S
C2994 C2995 1.327 . S
C2995 H2989 0.950 . S
C2995 C2994 1.327 . S
C2995 C2999 1.429 . S
C2996 C2979 1.574 . S
C2996 H2990 0.949 . S
C2996 C3000 1.368 . S
C2997 C2978 1.429 . S
C2997 C2991 1.429 . S
C2997 C2998 1.523 . S
C2998 C2979 1.368 . S
C2998 C2992 1.368 . S
C2998 C2997 1.523 . S
C2999 C2983 1.429 . S
C2999 C2995 1.429 . S
C2999 C3000 1.523 . S
C3000 C2984 1.368 . S
C3000 C2996 1.368 . S
C3000 C2999 1.523 . S
H3001 C2976 0.950 . S
H3002 C2978 0.950 . S
H3003 C2979 0.949 . S
H3004 C2981 0.950 . S
H3005 C2983 0.950 . S
C3006 C3007 1.349 . S
C3006 C3008 1.327 . S
C3006 H3031 0.950 . S
C3007 C3006 1.349 . S
C3007 C3023 1.349 . S
C3008 C3006 1.327 . S
C3008 C3027 1.429 . S
C3008 H3032 0.950 . S
C3009 C3026 1.574 . S
C3009 C3028 1.368 . S
C3009 H3033 0.949 . S
H3010 C3014 0.949 . S
C3011 C3012 1.349 . S
C3011 C3013 1.327 . S
C3011 H3034 0.950 . S
C3012 C3011 1.349 . S
C3012 C3024 1.349 . S
C3013 C3011 1.327 . S
C3013 C3029 1.429 . S
C3013 H3035 0.950 . S
C3014 H3010 0.949 . S
C3014 C3022 1.574 . S
C3014 C3030 1.368 . S
H3015 C3023 0.950 . S
H3016 C3021 0.950 . S
H3017 C3022 0.949 . S
H3018 C3024 0.950 . S
H3019 C3025 0.950 . S
H3020 C3026 0.949 . S
C3021 H3016 0.950 . S
C3021 C3023 1.327 . S
C3021 C3027 1.429 . S
C3022 C3014 1.574 . S
C3022 H3017 0.949 . S
C3022 C3028 1.368 . S
C3023 C3007 1.349 . S
C3023 H3015 0.950 . S
C3023 C3021 1.327 . S
C3024 C3012 1.349 . S
C3024 H3018 0.950 . S
C3024 C3025 1.327 . S
C3025 H3019 0.950 . S
C3025 C3024 1.327 . S
C3025 C3029 1.429 . S
C3026 C3009 1.574 . S
C3026 H3020 0.949 . S
C3026 C3030 1.368 . S
C3027 C3008 1.429 . S
C3027 C3021 1.429 . S
C3027 C3028 1.523 . S
C3028 C3009 1.368 . S
C3028 C3022 1.368 . S
C3028 C3027 1.523 . S
C3029 C3013 1.429 . S
C3029 C3025 1.429 . S
C3029 C3030 1.523 . S
C3030 C3014 1.368 . S
C3030 C3026 1.368 . S
C3030 C3029 1.523 . S
H3031 C3006 0.950 . S
H3032 C3008 0.950 . S
H3033 C3009 0.949 . S
H3034 C3011 0.950 . S
H3035 C3013 0.950 . S
C3036 C3037 1.349 . S
C3036 C3038 1.327 . S
C3036 H3061 0.950 . S
C3037 C3036 1.349 . S
C3037 C3053 1.349 . S
C3038 C3036 1.327 . S
C3038 C3057 1.429 . S
C3038 H3062 0.950 . S
C3039 C3056 1.574 . S
C3039 C3058 1.368 . S
C3039 H3063 0.949 . S
H3040 C3044 0.949 . S
C3041 C3042 1.349 . S
C3041 C3043 1.327 . S
C3041 H3064 0.950 . S
C3042 C3041 1.349 . S
C3042 C3054 1.349 . S
C3043 C3041 1.327 . S
C3043 C3059 1.429 . S
C3043 H3065 0.950 . S
C3044 H3040 0.949 . S
C3044 C3052 1.574 . S
C3044 C3060 1.368 . S
H3045 C3053 0.950 . S
H3046 C3051 0.950 . S
H3047 C3052 0.949 . S
H3048 C3054 0.950 . S
H3049 C3055 0.950 . S
H3050 C3056 0.949 . S
C3051 H3046 0.950 . S
C3051 C3053 1.327 . S
C3051 C3057 1.429 . S
C3052 C3044 1.574 . S
C3052 H3047 0.949 . S
C3052 C3058 1.368 . S
C3053 C3037 1.349 . S
C3053 H3045 0.950 . S
C3053 C3051 1.327 . S
C3054 C3042 1.349 . S
C3054 H3048 0.950 . S
C3054 C3055 1.327 . S
C3055 H3049 0.950 . S
C3055 C3054 1.327 . S
C3055 C3059 1.429 . S
C3056 C3039 1.574 . S
C3056 H3050 0.949 . S
C3056 C3060 1.368 . S
C3057 C3038 1.429 . S
C3057 C3051 1.429 . S
C3057 C3058 1.523 . S
C3058 C3039 1.368 . S
C3058 C3052 1.368 . S
C3058 C3057 1.523 . S
C3059 C3043 1.429 . S
C3059 C3055 1.429 . S
C3059 C3060 1.523 . S
C3060 C3044 1.368 . S
C3060 C3056 1.368 . S
C3060 C3059 1.523 . S
H3061 C3036 0.950 . S
H3062 C3038 0.950 . S
H3063 C3039 0.949 . S
H3064 C3041 0.950 . S
H3065 C3043 0.950 . S
C3066 C3067 1.349 . S
C3066 C3068 1.327 . S
C3066 H3091 0.950 . S
C3067 C3066 1.349 . S
C3067 C3083 1.349 . S
C3068 C3066 1.327 . S
C3068 C3087 1.429 . S
C3068 H3092 0.950 . S
C3069 C3086 1.574 . S
C3069 C3088 1.368 . S
C3069 H3093 0.949 . S
H3070 C3074 0.949 . S
C3071 C3072 1.349 . S
C3071 C3073 1.327 . S
C3071 H3094 0.950 . S
C3072 C3071 1.349 . S
C3072 C3084 1.349 . S
C3073 C3071 1.327 . S
C3073 C3089 1.429 . S
C3073 H3095 0.950 . S
C3074 H3070 0.949 . S
C3074 C3082 1.574 . S
C3074 C3090 1.368 . S
H3075 C3083 0.950 . S
H3076 C3081 0.950 . S
H3077 C3082 0.949 . S
H3078 C3084 0.950 . S
H3079 C3085 0.950 . S
H3080 C3086 0.949 . S
C3081 H3076 0.950 . S
C3081 C3083 1.327 . S
C3081 C3087 1.429 . S
C3082 C3074 1.574 . S
C3082 H3077 0.949 . S
C3082 C3088 1.368 . S
C3083 C3067 1.349 . S
C3083 H3075 0.950 . S
C3083 C3081 1.327 . S
C3084 C3072 1.349 . S
C3084 H3078 0.950 . S
C3084 C3085 1.327 . S
C3085 H3079 0.950 . S
C3085 C3084 1.327 . S
C3085 C3089 1.429 . S
C3086 C3069 1.574 . S
C3086 H3080 0.949 . S
C3086 C3090 1.368 . S
C3087 C3068 1.429 . S
C3087 C3081 1.429 . S
C3087 C3088 1.523 . S
C3088 C3069 1.368 . S
C3088 C3082 1.368 . S
C3088 C3087 1.523 . S
C3089 C3073 1.429 . S
C3089 C3085 1.429 . S
C3089 C3090 1.523 . S
C3090 C3074 1.368 . S
C3090 C3086 1.368 . S
C3090 C3089 1.523 . S
H3091 C3066 0.950 . S
H3092 C3068 0.950 . S
H3093 C3069 0.949 . S
H3094 C3071 0.950 . S
H3095 C3073 0.950 . S
C3096 C3097 1.349 . S
C3096 C3098 1.327 . S
C3096 H3121 0.950 . S
C3097 C3096 1.349 . S
C3097 C3113 1.349 . S
C3098 C3096 1.327 . S
C3098 C3117 1.429 . S
C3098 H3122 0.950 . S
C3099 C3116 1.574 . S
C3099 C3118 1.368 . S
C3099 H3123 0.949 . S
H3100 C3104 0.949 . S
C3101 C3102 1.349 . S
C3101 C3103 1.327 . S
C3101 H3124 0.950 . S
C3102 C3101 1.349 . S
C3102 C3114 1.349 . S
C3103 C3101 1.327 . S
C3103 C3119 1.429 . S
C3103 H3125 0.950 . S
C3104 H3100 0.949 . S
C3104 C3112 1.574 . S
C3104 C3120 1.368 . S
H3105 C3113 0.950 . S
H3106 C3111 0.950 . S
H3107 C3112 0.949 . S
H3108 C3114 0.950 . S
H3109 C3115 0.950 . S
H3110 C3116 0.949 . S
C3111 H3106 0.950 . S
C3111 C3113 1.327 . S
C3111 C3117 1.429 . S
C3112 C3104 1.574 . S
C3112 H3107 0.949 . S
C3112 C3118 1.368 . S
C3113 C3097 1.349 . S
C3113 H3105 0.950 . S
C3113 C3111 1.327 . S
C3114 C3102 1.349 . S
C3114 H3108 0.950 . S
C3114 C3115 1.327 . S
C3115 H3109 0.950 . S
C3115 C3114 1.327 . S
C3115 C3119 1.429 . S
C3116 C3099 1.574 . S
C3116 H3110 0.949 . S
C3116 C3120 1.368 . S
C3117 C3098 1.429 . S
C3117 C3111 1.429 . S
C3117 C3118 1.523 . S
C3118 C3099 1.368 . S
C3118 C3112 1.368 . S
C3118 C3117 1.523 . S
C3119 C3103 1.429 . S
C3119 C3115 1.429 . S
C3119 C3120 1.523 . S
C3120 C3104 1.368 . S
C3120 C3116 1.368 . S
C3120 C3119 1.523 . S
H3121 C3096 0.950 . S
H3122 C3098 0.950 . S
H3123 C3099 0.949 . S
H3124 C3101 0.950 . S
H3125 C3103 0.950 . S
C3126 C3127 1.349 . S
C3126 C3128 1.327 . S
C3126 H3151 0.950 . S
C3127 C3126 1.349 . S
C3127 C3143 1.349 . S
C3128 C3126 1.327 . S
C3128 C3147 1.429 . S
C3128 H3152 0.950 . S
C3129 C3146 1.574 . S
C3129 C3148 1.368 . S
C3129 H3153 0.949 . S
H3130 C3134 0.949 . S
C3131 C3132 1.349 . S
C3131 C3133 1.327 . S
C3131 H3154 0.950 . S
C3132 C3131 1.349 . S
C3132 C3144 1.349 . S
C3133 C3131 1.327 . S
C3133 C3149 1.429 . S
C3133 H3155 0.950 . S
C3134 H3130 0.949 . S
C3134 C3142 1.574 . S
C3134 C3150 1.368 . S
H3135 C3143 0.950 . S
H3136 C3141 0.950 . S
H3137 C3142 0.949 . S
H3138 C3144 0.950 . S
H3139 C3145 0.950 . S
H3140 C3146 0.949 . S
C3141 H3136 0.950 . S
C3141 C3143 1.327 . S
C3141 C3147 1.429 . S
C3142 C3134 1.574 . S
C3142 H3137 0.949 . S
C3142 C3148 1.368 . S
C3143 C3127 1.349 . S
C3143 H3135 0.950 . S
C3143 C3141 1.327 . S
C3144 C3132 1.349 . S
C3144 H3138 0.950 . S
C3144 C3145 1.327 . S
C3145 H3139 0.950 . S
C3145 C3144 1.327 . S
C3145 C3149 1.429 . S
C3146 C3129 1.574 . S
C3146 H3140 0.949 . S
C3146 C3150 1.368 . S
C3147 C3128 1.429 . S
C3147 C3141 1.429 . S
C3147 C3148 1.523 . S
C3148 C3129 1.368 . S
C3148 C3142 1.368 . S
C3148 C3147 1.523 . S
C3149 C3133 1.429 . S
C3149 C3145 1.429 . S
C3149 C3150 1.523 . S
C3150 C3134 1.368 . S
C3150 C3146 1.368 . S
C3150 C3149 1.523 . S
H3151 C3126 0.950 . S
H3152 C3128 0.950 . S
H3153 C3129 0.949 . S
H3154 C3131 0.950 . S
H3155 C3133 0.950 . S
C3156 C3157 1.349 . S
C3156 C3158 1.327 . S
C3156 H3181 0.950 . S
C3157 C3156 1.349 . S
C3157 C3173 1.349 . S
C3158 C3156 1.327 . S
C3158 C3177 1.429 . S
C3158 H3182 0.950 . S
C3159 C3176 1.574 . S
C3159 C3178 1.368 . S
C3159 H3183 0.949 . S
H3160 C3164 0.949 . S
C3161 C3162 1.349 . S
C3161 C3163 1.327 . S
C3161 H3184 0.950 . S
C3162 C3161 1.349 . S
C3162 C3174 1.349 . S
C3163 C3161 1.327 . S
C3163 C3179 1.429 . S
C3163 H3185 0.950 . S
C3164 H3160 0.949 . S
C3164 C3172 1.574 . S
C3164 C3180 1.368 . S
H3165 C3173 0.950 . S
H3166 C3171 0.950 . S
H3167 C3172 0.949 . S
H3168 C3174 0.950 . S
H3169 C3175 0.950 . S
H3170 C3176 0.949 . S
C3171 H3166 0.950 . S
C3171 C3173 1.327 . S
C3171 C3177 1.429 . S
C3172 C3164 1.574 . S
C3172 H3167 0.949 . S
C3172 C3178 1.368 . S
C3173 C3157 1.349 . S
C3173 H3165 0.950 . S
C3173 C3171 1.327 . S
C3174 C3162 1.349 . S
C3174 H3168 0.950 . S
C3174 C3175 1.327 . S
C3175 H3169 0.950 . S
C3175 C3174 1.327 . S
C3175 C3179 1.429 . S
C3176 C3159 1.574 . S
C3176 H3170 0.949 . S
C3176 C3180 1.368 . S
C3177 C3158 1.429 . S
C3177 C3171 1.429 . S
C3177 C3178 1.523 . S
C3178 C3159 1.368 . S
C3178 C3172 1.368 . S
C3178 C3177 1.523 . S
C3179 C3163 1.429 . S
C3179 C3175 1.429 . S
C3179 C3180 1.523 . S
C3180 C3164 1.368 . S
C3180 C3176 1.368 . S
C3180 C3179 1.523 . S
H3181 C3156 0.950 . S
H3182 C3158 0.950 . S
H3183 C3159 0.949 . S
H3184 C3161 0.950 . S
H3185 C3163 0.950 . S
C3186 C3187 1.349 . S
C3186 C3188 1.327 . S
C3186 H3211 0.950 . S
C3187 C3186 1.349 . S
C3187 C3203 1.349 . S
C3188 C3186 1.327 . S
C3188 C3207 1.429 . S
C3188 H3212 0.950 . S
C3189 C3206 1.574 . S
C3189 C3208 1.368 . S
C3189 H3213 0.949 . S
H3190 C3194 0.949 . S
C3191 C3192 1.349 . S
C3191 C3193 1.327 . S
C3191 H3214 0.950 . S
C3192 C3191 1.349 . S
C3192 C3204 1.349 . S
C3193 C3191 1.327 . S
C3193 C3209 1.429 . S
C3193 H3215 0.950 . S
C3194 H3190 0.949 . S
C3194 C3202 1.574 . S
C3194 C3210 1.368 . S
H3195 C3203 0.950 . S
H3196 C3201 0.950 . S
H3197 C3202 0.949 . S
H3198 C3204 0.950 . S
H3199 C3205 0.950 . S
H3200 C3206 0.949 . S
C3201 H3196 0.950 . S
C3201 C3203 1.327 . S
C3201 C3207 1.429 . S
C3202 C3194 1.574 . S
C3202 H3197 0.949 . S
C3202 C3208 1.368 . S
C3203 C3187 1.349 . S
C3203 H3195 0.950 . S
C3203 C3201 1.327 . S
C3204 C3192 1.349 . S
C3204 H3198 0.950 . S
C3204 C3205 1.327 . S
C3205 H3199 0.950 . S
C3205 C3204 1.327 . S
C3205 C3209 1.429 . S
C3206 C3189 1.574 . S
C3206 H3200 0.949 . S
C3206 C3210 1.368 . S
C3207 C3188 1.429 . S
C3207 C3201 1.429 . S
C3207 C3208 1.523 . S
C3208 C3189 1.368 . S
C3208 C3202 1.368 . S
C3208 C3207 1.523 . S
C3209 C3193 1.429 . S
C3209 C3205 1.429 . S
C3209 C3210 1.523 . S
C3210 C3194 1.368 . S
C3210 C3206 1.368 . S
C3210 C3209 1.523 . S
H3211 C3186 0.950 . S
H3212 C3188 0.950 . S
H3213 C3189 0.949 . S
H3214 C3191 0.950 . S
H3215 C3193 0.950 . S
C3216 C3217 1.349 . S
C3216 C3218 1.327 . S
C3216 H3241 0.950 . S
C3217 C3216 1.349 . S
C3217 C3233 1.349 . S
C3218 C3216 1.327 . S
C3218 C3237 1.429 . S
C3218 H3242 0.950 . S
C3219 C3236 1.574 . S
C3219 C3238 1.368 . S
C3219 H3243 0.949 . S
H3220 C3224 0.949 . S
C3221 C3222 1.349 . S
C3221 C3223 1.327 . S
C3221 H3244 0.950 . S
C3222 C3221 1.349 . S
C3222 C3234 1.349 . S
C3223 C3221 1.327 . S
C3223 C3239 1.429 . S
C3223 H3245 0.950 . S
C3224 H3220 0.949 . S
C3224 C3232 1.574 . S
C3224 C3240 1.368 . S
H3225 C3233 0.950 . S
H3226 C3231 0.950 . S
H3227 C3232 0.949 . S
H3228 C3234 0.950 . S
H3229 C3235 0.950 . S
H3230 C3236 0.949 . S
C3231 H3226 0.950 . S
C3231 C3233 1.327 . S
C3231 C3237 1.429 . S
C3232 C3224 1.574 . S
C3232 H3227 0.949 . S
C3232 C3238 1.368 . S
C3233 C3217 1.349 . S
C3233 H3225 0.950 . S
C3233 C3231 1.327 . S
C3234 C3222 1.349 . S
C3234 H3228 0.950 . S
C3234 C3235 1.327 . S
C3235 H3229 0.950 . S
C3235 C3234 1.327 . S
C3235 C3239 1.429 . S
C3236 C3219 1.574 . S
C3236 H3230 0.949 . S
C3236 C3240 1.368 . S
C3237 C3218 1.429 . S
C3237 C3231 1.429 . S
C3237 C3238 1.523 . S
C3238 C3219 1.368 . S
C3238 C3232 1.368 . S
C3238 C3237 1.523 . S
C3239 C3223 1.429 . S
C3239 C3235 1.429 . S
C3239 C3240 1.523 . S
C3240 C3224 1.368 . S
C3240 C3236 1.368 . S
C3240 C3239 1.523 . S
H3241 C3216 0.950 . S
H3242 C3218 0.950 . S
H3243 C3219 0.949 . S
H3244 C3221 0.950 . S
H3245 C3223 0.950 . S
C3246 C3247 1.349 . S
C3246 C3248 1.327 . S
C3246 H3271 0.950 . S
C3247 C3246 1.349 . S
C3247 C3263 1.349 . S
C3248 C3246 1.327 . S
C3248 C3267 1.429 . S
C3248 H3272 0.950 . S
C3249 C3266 1.574 . S
C3249 C3268 1.368 . S
C3249 H3273 0.949 . S
H3250 C3254 0.949 . S
C3251 C3252 1.349 . S
C3251 C3253 1.327 . S
C3251 H3274 0.950 . S
C3252 C3251 1.349 . S
C3252 C3264 1.349 . S
C3253 C3251 1.327 . S
C3253 C3269 1.429 . S
C3253 H3275 0.950 . S
C3254 H3250 0.949 . S
C3254 C3262 1.574 . S
C3254 C3270 1.368 . S
H3255 C3263 0.950 . S
H3256 C3261 0.950 . S
H3257 C3262 0.949 . S
H3258 C3264 0.950 . S
H3259 C3265 0.950 . S
H3260 C3266 0.949 . S
C3261 H3256 0.950 . S
C3261 C3263 1.327 . S
C3261 C3267 1.429 . S
C3262 C3254 1.574 . S
C3262 H3257 0.949 . S
C3262 C3268 1.368 . S
C3263 C3247 1.349 . S
C3263 H3255 0.950 . S
C3263 C3261 1.327 . S
C3264 C3252 1.349 . S
C3264 H3258 0.950 . S
C3264 C3265 1.327 . S
C3265 H3259 0.950 . S
C3265 C3264 1.327 . S
C3265 C3269 1.429 . S
C3266 C3249 1.574 . S
C3266 H3260 0.949 . S
C3266 C3270 1.368 . S
C3267 C3248 1.429 . S
C3267 C3261 1.429 . S
C3267 C3268 1.523 . S
C3268 C3249 1.368 . S
C3268 C3262 1.368 . S
C3268 C3267 1.523 . S
C3269 C3253 1.429 . S
C3269 C3265 1.429 . S
C3269 C3270 1.523 . S
C3270 C3254 1.368 . S
C3270 C3266 1.368 . S
C3270 C3269 1.523 . S
H3271 C3246 0.950 . S
H3272 C3248 0.950 . S
H3273 C3249 0.949 . S
H3274 C3251 0.950 . S
H3275 C3253 0.950 . S
C3276 C3277 1.349 . S
C3276 C3278 1.327 . S
C3276 H3301 0.950 . S
C3277 C3276 1.349 . S
C3277 C3293 1.349 . S
C3278 C3276 1.327 . S
C3278 C3297 1.429 . S
C3278 H3302 0.950 . S
C3279 C3296 1.574 . S
C3279 C3298 1.368 . S
C3279 H3303 0.949 . S
H3280 C3284 0.949 . S
C3281 C3282 1.349 . S
C3281 C3283 1.327 . S
C3281 H3304 0.950 . S
C3282 C3281 1.349 . S
C3282 C3294 1.349 . S
C3283 C3281 1.327 . S
C3283 C3299 1.429 . S
C3283 H3305 0.950 . S
C3284 H3280 0.949 . S
C3284 C3292 1.574 . S
C3284 C3300 1.368 . S
H3285 C3293 0.950 . S
H3286 C3291 0.950 . S
H3287 C3292 0.949 . S
H3288 C3294 0.950 . S
H3289 C3295 0.950 . S
H3290 C3296 0.949 . S
C3291 H3286 0.950 . S
C3291 C3293 1.327 . S
C3291 C3297 1.429 . S
C3292 C3284 1.574 . S
C3292 H3287 0.949 . S
C3292 C3298 1.368 . S
C3293 C3277 1.349 . S
C3293 H3285 0.950 . S
C3293 C3291 1.327 . S
C3294 C3282 1.349 . S
C3294 H3288 0.950 . S
C3294 C3295 1.327 . S
C3295 H3289 0.950 . S
C3295 C3294 1.327 . S
C3295 C3299 1.429 . S
C3296 C3279 1.574 . S
C3296 H3290 0.949 . S
C3296 C3300 1.368 . S
C3297 C3278 1.429 . S
C3297 C3291 1.429 . S
C3297 C3298 1.523 . S
C3298 C3279 1.368 . S
C3298 C3292 1.368 . S
C3298 C3297 1.523 . S
C3299 C3283 1.429 . S
C3299 C3295 1.429 . S
C3299 C3300 1.523 . S
C3300 C3284 1.368 . S
C3300 C3296 1.368 . S
C3300 C3299 1.523 . S
H3301 C3276 0.950 . S
H3302 C3278 0.950 . S
H3303 C3279 0.949 . S
H3304 C3281 0.950 . S
H3305 C3283 0.950 . S
C3306 C3307 1.349 . S
C3306 C3308 1.327 . S
C3306 H3331 0.950 . S
C3307 C3306 1.349 . S
C3307 C3323 1.349 . S
C3308 C3306 1.327 . S
C3308 C3327 1.429 . S
C3308 H3332 0.950 . S
C3309 C3326 1.574 . S
C3309 C3328 1.368 . S
C3309 H3333 0.949 . S
H3310 C3314 0.949 . S
C3311 C3312 1.349 . S
C3311 C3313 1.327 . S
C3311 H3334 0.950 . S
C3312 C3311 1.349 . S
C3312 C3324 1.349 . S
C3313 C3311 1.327 . S
C3313 C3329 1.429 . S
C3313 H3335 0.950 . S
C3314 H3310 0.949 . S
C3314 C3322 1.574 . S
C3314 C3330 1.368 . S
H3315 C3323 0.950 . S
H3316 C3321 0.950 . S
H3317 C3322 0.949 . S
H3318 C3324 0.950 . S
H3319 C3325 0.950 . S
H3320 C3326 0.949 . S
C3321 H3316 0.950 . S
C3321 C3323 1.327 . S
C3321 C3327 1.429 . S
C3322 C3314 1.574 . S
C3322 H3317 0.949 . S
C3322 C3328 1.368 . S
C3323 C3307 1.349 . S
C3323 H3315 0.950 . S
C3323 C3321 1.327 . S
C3324 C3312 1.349 . S
C3324 H3318 0.950 . S
C3324 C3325 1.327 . S
C3325 H3319 0.950 . S
C3325 C3324 1.327 . S
C3325 C3329 1.429 . S
C3326 C3309 1.574 . S
C3326 H3320 0.949 . S
C3326 C3330 1.368 . S
C3327 C3308 1.429 . S
C3327 C3321 1.429 . S
C3327 C3328 1.523 . S
C3328 C3309 1.368 . S
C3328 C3322 1.368 . S
C3328 C3327 1.523 . S
C3329 C3313 1.429 . S
C3329 C3325 1.429 . S
C3329 C3330 1.523 . S
C3330 C3314 1.368 . S
C3330 C3326 1.368 . S
C3330 C3329 1.523 . S
H3331 C3306 0.950 . S
H3332 C3308 0.950 . S
H3333 C3309 0.949 . S
H3334 C3311 0.950 . S
H3335 C3313 0.950 . S
C3336 C3337 1.349 . S
C3336 C3338 1.327 . S
C3336 H3361 0.950 . S
C3337 C3336 1.349 . S
C3337 C3353 1.349 . S
C3338 C3336 1.327 . S
C3338 C3357 1.429 . S
C3338 H3362 0.950 . S
C3339 C3356 1.574 . S
C3339 C3358 1.368 . S
C3339 H3363 0.949 . S
H3340 C3344 0.949 . S
C3341 C3342 1.349 . S
C3341 C3343 1.327 . S
C3341 H3364 0.950 . S
C3342 C3341 1.349 . S
C3342 C3354 1.349 . S
C3343 C3341 1.327 . S
C3343 C3359 1.429 . S
C3343 H3365 0.950 . S
C3344 H3340 0.949 . S
C3344 C3352 1.574 . S
C3344 C3360 1.368 . S
H3345 C3353 0.950 . S
H3346 C3351 0.950 . S
H3347 C3352 0.949 . S
H3348 C3354 0.950 . S
H3349 C3355 0.950 . S
H3350 C3356 0.949 . S
C3351 H3346 0.950 . S
C3351 C3353 1.327 . S
C3351 C3357 1.429 . S
C3352 C3344 1.574 . S
C3352 H3347 0.949 . S
C3352 C3358 1.368 . S
C3353 C3337 1.349 . S
C3353 H3345 0.950 . S
C3353 C3351 1.327 . S
C3354 C3342 1.349 . S
C3354 H3348 0.950 . S
C3354 C3355 1.327 . S
C3355 H3349 0.950 . S
C3355 C3354 1.327 . S
C3355 C3359 1.429 . S
C3356 C3339 1.574 . S
C3356 H3350 0.949 . S
C3356 C3360 1.368 . S
C3357 C3338 1.429 . S
C3357 C3351 1.429 . S
C3357 C3358 1.523 . S
C3358 C3339 1.368 . S
C3358 C3352 1.368 . S
C3358 C3357 1.523 . S
C3359 C3343 1.429 . S
C3359 C3355 1.429 . S
C3359 C3360 1.523 . S
C3360 C3344 1.368 . S
C3360 C3356 1.368 . S
C3360 C3359 1.523 . S
H3361 C3336 0.950 . S
H3362 C3338 0.950 . S
H3363 C3339 0.949 . S
H3364 C3341 0.950 . S
H3365 C3343 0.950 . S
C3366 C3367 1.349 . S
C3366 C3368 1.327 . S
C3366 H3391 0.950 . S
C3367 C3366 1.349 . S
C3367 C3383 1.349 . S
C3368 C3366 1.327 . S
C3368 C3387 1.429 . S
C3368 H3392 0.950 . S
C3369 C3386 1.574 . S
C3369 C3388 1.368 . S
C3369 H3393 0.949 . S
H3370 C3374 0.949 . S
C3371 C3372 1.349 . S
C3371 C3373 1.327 . S
C3371 H3394 0.950 . S
C3372 C3371 1.349 . S
C3372 C3384 1.349 . S
C3373 C3371 1.327 . S
C3373 C3389 1.429 . S
C3373 H3395 0.950 . S
C3374 H3370 0.949 . S
C3374 C3382 1.574 . S
C3374 C3390 1.368 . S
H3375 C3383 0.950 . S
H3376 C3381 0.950 . S
H3377 C3382 0.949 . S
H3378 C3384 0.950 . S
H3379 C3385 0.950 . S
H3380 C3386 0.949 . S
C3381 H3376 0.950 . S
C3381 C3383 1.327 . S
C3381 C3387 1.429 . S
C3382 C3374 1.574 . S
C3382 H3377 0.949 . S
C3382 C3388 1.368 . S
C3383 C3367 1.349 . S
C3383 H3375 0.950 . S
C3383 C3381 1.327 . S
C3384 C3372 1.349 . S
C3384 H3378 0.950 . S
C3384 C3385 1.327 . S
C3385 H3379 0.950 . S
C3385 C3384 1.327 . S
C3385 C3389 1.429 . S
C3386 C3369 1.574 . S
C3386 H3380 0.949 . S
C3386 C3390 1.368 . S
C3387 C3368 1.429 . S
C3387 C3381 1.429 . S
C3387 C3388 1.523 . S
C3388 C3369 1.368 . S
C3388 C3382 1.368 . S
C3388 C3387 1.523 . S
C3389 C3373 1.429 . S
C3389 C3385 1.429 . S
C3389 C3390 1.523 . S
C3390 C3374 1.368 . S
C3390 C3386 1.368 . S
C3390 C3389 1.523 . S
H3391 C3366 0.950 . S
H3392 C3368 0.950 . S
H3393 C3369 0.949 . S
H3394 C3371 0.950 . S
H3395 C3373 0.950 . S
C3396 C3397 1.349 . S
C3396 C3398 1.327 . S
C3396 H3421 0.950 . S
C3397 C3396 1.349 . S
C3397 C3413 1.349 . S
C3398 C3396 1.327 . S
C3398 C3417 1.429 . S
C3398 H3422 0.950 . S
C3399 C3416 1.574 . S
C3399 C3418 1.368 . S
C3399 H3423 0.949 . S
H3400 C3404 0.949 . S
C3401 C3402 1.349 . S
C3401 C3403 1.327 . S
C3401 H3424 0.950 . S
C3402 C3401 1.349 . S
C3402 C3414 1.349 . S
C3403 C3401 1.327 . S
C3403 C3419 1.429 . S
C3403 H3425 0.950 . S
C3404 H3400 0.949 . S
C3404 C3412 1.574 . S
C3404 C3420 1.368 . S
H3405 C3413 0.950 . S
H3406 C3411 0.950 . S
H3407 C3412 0.949 . S
H3408 C3414 0.950 . S
H3409 C3415 0.950 . S
H3410 C3416 0.949 . S
C3411 H3406 0.950 . S
C3411 C3413 1.327 . S
C3411 C3417 1.429 . S
C3412 C3404 1.574 . S
C3412 H3407 0.949 . S
C3412 C3418 1.368 . S
C3413 C3397 1.349 . S
C3413 H3405 0.950 . S
C3413 C3411 1.327 . S
C3414 C3402 1.349 . S
C3414 H3408 0.950 . S
C3414 C3415 1.327 . S
C3415 H3409 0.950 . S
C3415 C3414 1.327 . S
C3415 C3419 1.429 . S
C3416 C3399 1.574 . S
C3416 H3410 0.949 . S
C3416 C3420 1.368 . S
C3417 C3398 1.429 . S
C3417 C3411 1.429 . S
C3417 C3418 1.523 . S
C3418 C3399 1.368 . S
C3418 C3412 1.368 . S
C3418 C3417 1.523 . S
C3419 C3403 1.429 . S
C3419 C3415 1.429 . S
C3419 C3420 1.523 . S
C3420 C3404 1.368 . S
C3420 C3416 1.368 . S
C3420 C3419 1.523 . S
H3421 C3396 0.950 . S
H3422 C3398 0.950 . S
H3423 C3399 0.949 . S
H3424 C3401 0.950 . S
H3425 C3403 0.950 . S
C3426 C3427 1.349 . S
C3426 C3428 1.327 . S
C3426 H3451 0.950 . S
C3427 C3426 1.349 . S
C3427 C3443 1.349 . S
C3428 C3426 1.327 . S
C3428 C3447 1.429 . S
C3428 H3452 0.950 . S
C3429 C3446 1.574 . S
C3429 C3448 1.368 . S
C3429 H3453 0.949 . S
H3430 C3434 0.949 . S
C3431 C3432 1.349 . S
C3431 C3433 1.327 . S
C3431 H3454 0.950 . S
C3432 C3431 1.349 . S
C3432 C3444 1.349 . S
C3433 C3431 1.327 . S
C3433 C3449 1.429 . S
C3433 H3455 0.950 . S
C3434 H3430 0.949 . S
C3434 C3442 1.574 . S
C3434 C3450 1.368 . S
H3435 C3443 0.950 . S
H3436 C3441 0.950 . S
H3437 C3442 0.949 . S
H3438 C3444 0.950 . S
H3439 C3445 0.950 . S
H3440 C3446 0.949 . S
C3441 H3436 0.950 . S
C3441 C3443 1.327 . S
C3441 C3447 1.429 . S
C3442 C3434 1.574 . S
C3442 H3437 0.949 . S
C3442 C3448 1.368 . S
C3443 C3427 1.349 . S
C3443 H3435 0.950 . S
C3443 C3441 1.327 . S
C3444 C3432 1.349 . S
C3444 H3438 0.950 . S
C3444 C3445 1.327 . S
C3445 H3439 0.950 . S
C3445 C3444 1.327 . S
C3445 C3449 1.429 . S
C3446 C3429 1.574 . S
C3446 H3440 0.949 . S
C3446 C3450 1.368 . S
C3447 C3428 1.429 . S
C3447 C3441 1.429 . S
C3447 C3448 1.523 . S
C3448 C3429 1.368 . S
C3448 C3442 1.368 . S
C3448 C3447 1.523 . S
C3449 C3433 1.429 . S
C3449 C3445 1.429 . S
C3449 C3450 1.523 . S
C3450 C3434 1.368 . S
C3450 C3446 1.368 . S
C3450 C3449 1.523 . S
H3451 C3426 0.950 . S
H3452 C3428 0.950 . S
H3453 C3429 0.949 . S
H3454 C3431 0.950 . S
H3455 C3433 0.950 . S
C1297 C14 1.379 . S
C1302 C410 1.379 . S
C1327 C338 1.379 . S
C1332 C50 1.379 . S
C1357 C374 1.378 . S
C1362 C86 1.378 . S
C1387 C122 1.379 . S
C1392 C266 1.379 . S
C1417 C158 1.378 . S
C1422 C302 1.378 . S
C1447 C194 1.379 . S
C1452 C230 1.379 . S
C1477 C446 1.379 . S
C1482 C842 1.379 . S
C1507 C770 1.378 . S
C1512 C482 1.379 . S
C1537 C518 1.378 . S
C1542 C806 1.378 . S
C1567 C554 1.378 . S
C1572 C698 1.379 . S
C1597 C590 1.378 . S
C1602 C734 1.378 . S
C1627 C626 1.379 . S
C1632 C662 1.379 . S
C1657 C878 1.378 . S
C1662 C1274 1.379 . S
C1687 C914 1.379 . S
C1692 C1202 1.379 . S
C1717 C1238 1.378 . S
C1722 C950 1.378 . S
C1747 C986 1.379 . S
C1752 C1130 1.379 . S
C1777 C1166 1.378 . S
C1782 C1022 1.378 . S
C1807 C1094 1.378 . S
C1812 C1058 1.379 . S
C1837 C3 1.099 . S
C1842 C543 1.099 . S
C1867 C39 1.098 . S
C1872 C579 1.098 . S
C1897 C75 1.098 . S
C1902 C615 1.098 . S
C1927 C111 1.099 . S
C1932 C867 1.099 . S
C1957 C903 1.098 . S
C1962 C147 1.098 . S
C1987 C939 1.098 . S
C1992 C183 1.098 . S
C2017 C219 1.098 . S
C2022 C1191 1.098 . S
C2047 C1227 1.098 . S
C2052 C255 1.098 . S
C2077 C291 1.098 . S
C2082 C1263 1.098 . S
C2107 C327 1.098 . S
C2112 C651 1.098 . S
C2137 C363 1.098 . S
C2142 C687 1.098 . S
C2167 C399 1.098 . S
C2172 C723 1.098 . S
C2197 C975 1.099 . S
C2202 C435 1.099 . S
C2227 C471 1.098 . S
C2232 C1011 1.098 . S
C2257 C507 1.098 . S
C2262 C1047 1.098 . S
C2287 C1083 1.098 . S
C2292 C759 1.098 . S
C2317 C1119 1.098 . S
C2322 C795 1.098 . S
C2347 C831 1.098 . S
C2352 C1155 1.098 . S
C2377 C4 1.187 . S
C2382 C148 1.187 . S
C2407 C184 1.187 . S
C2412 C40 1.187 . S
C2437 C112 1.187 . S
C2442 C76 1.187 . S
C2467 C220 1.187 . S
C2472 C364 1.187 . S
C2497 C400 1.187 . S
C2502 C256 1.187 . S
C2527 C292 1.187 . S
C2532 C328 1.187 . S
C2557 C580 1.187 . S
C2562 C436 1.187 . S
C2587 C472 1.187 . S
C2592 C616 1.187 . S
C2617 C508 1.187 . S
C2622 C544 1.187 . S
C2647 C796 1.187 . S
C2652 C652 1.187 . S
C2677 C832 1.187 . S
C2682 C688 1.187 . S
C2707 C760 1.187 . S
C2712 C724 1.187 . S
C2737 C868 1.187 . S
C2742 C1012 1.187 . S
C2767 C904 1.187 . S
C2772 C1048 1.187 . S
C2797 C940 1.187 . S
C2802 C976 1.187 . S
C2827 C1228 1.187 . S
C2832 C1084 1.187 . S
C2857 C1264 1.187 . S
C2862 C1120 1.187 . S
C2887 C1192 1.187 . S
C2892 C1156 1.187 . S
C2917 C326 1.589 . S
C2922 C2 1.589 . S
C2947 C362 1.589 . S
C2952 C38 1.589 . S
C2977 C74 1.589 . S
C2982 C398 1.589 . S
C3007 C110 1.589 . S
C3012 C218 1.589 . S
C3037 C254 1.589 . S
C3042 C146 1.589 . S
C3067 C182 1.589 . S
C3072 C290 1.589 . S
C3097 C758 1.589 . S
C3102 C434 1.589 . S
C3127 C794 1.589 . S
C3132 C470 1.589 . S
C3157 C506 1.589 . S
C3162 C830 1.589 . S
C3187 C650 1.589 . S
C3192 C542 1.589 . S
C3217 C686 1.589 . S
C3222 C578 1.589 . S
C3247 C722 1.589 . S
C3252 C614 1.589 . S
C3277 C866 1.589 . S
C3282 C1190 1.589 . S
C3307 C1226 1.589 . S
C3312 C902 1.589 . S
C3337 C938 1.589 . S
C3342 C1262 1.589 . S
C3367 C974 1.589 . S
C3372 C1082 1.589 . S
C3397 C1010 1.589 . S
C3402 C1118 1.589 . S
C3427 C1154 1.589 . S
C3432 C1046 1.589 . S
