# Generated by pormake.
# Topology ukt, (4)-cn, num edge types: 1
# Building blocks:
#     Node 0, Type 0, BuildingBlock: AZAVOO_clean_sbu_0, # of connection points: 4
#     Node 1, Type 0, BuildingBlock: AZAVOO_clean_sbu_0, # of connection points: 4
#     Node 2, Type 0, BuildingBlock: AZAVOO_clean_sbu_0, # of connection points: 4
#     Node 3, Type 0, BuildingBlock: AZAVOO_clean_sbu_0, # of connection points: 4
#     Node 4, Type 0, BuildingBlock: AZAVOO_clean_sbu_0, # of connection points: 4
#     Node 5, Type 0, BuildingBlock: AZAVOO_clean_sbu_0, # of connection points: 4
#     Node 6, Type 0, BuildingBlock: AZAVOO_clean_sbu_0, # of connection points: 4
#     Node 7, Type 0, BuildingBlock: AZAVOO_clean_sbu_0, # of connection points: 4
#     Node 8, Type 0, BuildingBlock: AZAVOO_clean_sbu_0, # of connection points: 4
#     Node 9, Type 0, BuildingBlock: AZAVOO_clean_sbu_0, # of connection points: 4
#     Node 10, Type 0, BuildingBlock: AZAVOO_clean_sbu_0, # of connection points: 4
#     Node 11, Type 0, BuildingBlock: AZAVOO_clean_sbu_0, # of connection points: 4
#     Node 12, Type 0, BuildingBlock: AZAVOO_clean_sbu_0, # of connection points: 4
#     Node 13, Type 0, BuildingBlock: AZAVOO_clean_sbu_0, # of connection points: 4
#     Node 14, Type 0, BuildingBlock: AZAVOO_clean_sbu_0, # of connection points: 4
#     Node 15, Type 0, BuildingBlock: AZAVOO_clean_sbu_0, # of connection points: 4
#     Edge 16, Type (0, 0), BuildingBlock: XUDNAN_clean_linker_2, # of connection points: 2
#     Edge 17, Type (0, 0), BuildingBlock: XUDNAN_clean_linker_2, # of connection points: 2
#     Edge 18, Type (0, 0), BuildingBlock: XUDNAN_clean_linker_2, # of connection points: 2
#     Edge 19, Type (0, 0), BuildingBlock: XUDNAN_clean_linker_2, # of connection points: 2
#     Edge 20, Type (0, 0), BuildingBlock: XUDNAN_clean_linker_2, # of connection points: 2
#     Edge 21, Type (0, 0), BuildingBlock: XUDNAN_clean_linker_2, # of connection points: 2
#     Edge 22, Type (0, 0), BuildingBlock: XUDNAN_clean_linker_2, # of connection points: 2
#     Edge 23, Type (0, 0), BuildingBlock: XUDNAN_clean_linker_2, # of connection points: 2
#     Edge 24, Type (0, 0), BuildingBlock: XUDNAN_clean_linker_2, # of connection points: 2
#     Edge 25, Type (0, 0), BuildingBlock: XUDNAN_clean_linker_2, # of connection points: 2
#     Edge 26, Type (0, 0), BuildingBlock: XUDNAN_clean_linker_2, # of connection points: 2
#     Edge 27, Type (0, 0), BuildingBlock: XUDNAN_clean_linker_2, # of connection points: 2
#     Edge 28, Type (0, 0), BuildingBlock: XUDNAN_clean_linker_2, # of connection points: 2
#     Edge 29, Type (0, 0), BuildingBlock: XUDNAN_clean_linker_2, # of connection points: 2
#     Edge 30, Type (0, 0), BuildingBlock: XUDNAN_clean_linker_2, # of connection points: 2
#     Edge 31, Type (0, 0), BuildingBlock: XUDNAN_clean_linker_2, # of connection points: 2
#     Edge 32, Type (0, 0), BuildingBlock: XUDNAN_clean_linker_2, # of connection points: 2
#     Edge 33, Type (0, 0), BuildingBlock: XUDNAN_clean_linker_2, # of connection points: 2
#     Edge 34, Type (0, 0), BuildingBlock: XUDNAN_clean_linker_2, # of connection points: 2
#     Edge 35, Type (0, 0), BuildingBlock: XUDNAN_clean_linker_2, # of connection points: 2
#     Edge 36, Type (0, 0), BuildingBlock: XUDNAN_clean_linker_2, # of connection points: 2
#     Edge 37, Type (0, 0), BuildingBlock: XUDNAN_clean_linker_2, # of connection points: 2
#     Edge 38, Type (0, 0), BuildingBlock: XUDNAN_clean_linker_2, # of connection points: 2
#     Edge 39, Type (0, 0), BuildingBlock: XUDNAN_clean_linker_2, # of connection points: 2
#     Edge 40, Type (0, 0), BuildingBlock: XUDNAN_clean_linker_2, # of connection points: 2
#     Edge 41, Type (0, 0), BuildingBlock: XUDNAN_clean_linker_2, # of connection points: 2
#     Edge 42, Type (0, 0), BuildingBlock: XUDNAN_clean_linker_2, # of connection points: 2
#     Edge 43, Type (0, 0), BuildingBlock: XUDNAN_clean_linker_2, # of connection points: 2
#     Edge 44, Type (0, 0), BuildingBlock: XUDNAN_clean_linker_2, # of connection points: 2
#     Edge 45, Type (0, 0), BuildingBlock: XUDNAN_clean_linker_2, # of connection points: 2
#     Edge 46, Type (0, 0), BuildingBlock: XUDNAN_clean_linker_2, # of connection points: 2
#     Edge 47, Type (0, 0), BuildingBlock: XUDNAN_clean_linker_2, # of connection points: 2
# Relax obj value: 0.297
# Max RMSD: 0.207
# Mean RMSD: 0.196
data_MOF--net-ukt--node1-AZAVOO_clean_sbu_0--edge1-XUDNAN_clean_linker_2
_symmetry_space_group_name_H-M    P1
_symmetry_Int_Tables_number       1
_symmetry_cell_setting            triclinic
loop_
_symmetry_equiv_pos_as_xyz
'x, y, z'
_cell_length_a     42.023616
_cell_length_b     41.79356
_cell_length_c     38.651993
_cell_angle_alpha  89.952901
_cell_angle_beta   90.020861
_cell_angle_gamma 89.941448
loop_
_atom_site_label
_atom_site_type_symbol
_atom_site_fract_x
_atom_site_fract_y
_atom_site_fract_z
_atom_type_partial_charge
Mg0 Mg 0.54769 0.14804 0.06259 0.0
O1 O 0.60003 0.14767 0.04447 0.0
O2 O 0.61541 0.19753 0.03101 0.0
Mg3 Mg 0.58427 0.2261 0.06783 0.0
C4 C 0.6193 0.16725 0.0302 0.0
C5 C 0.55567 0.08078 0.03233 0.0
O6 O 0.56224 0.10031 0.00667 0.0
O7 O 0.55908 0.15531 0.12034 0.0
O8 O 0.59854 0.1874 0.10691 0.0
O9 O 0.53377 0.16172 0.00863 0.0
O10 O 0.54338 0.19681 0.0503 0.0
C11 C 0.58016 0.17555 0.12958 0.0
C12 C 0.53655 0.19113 0.0185 0.0
O13 O 0.54904 0.09274 0.06183 0.0
Mg14 Mg 0.34284 0.55392 0.06658 0.0
O15 O 0.33346 0.60428 0.04678 0.0
O16 O 0.28176 0.60986 0.03444 0.0
Mg17 Mg 0.25679 0.56437 0.05411 0.0
C18 C 0.31022 0.62052 0.03493 0.0
C19 C 0.41518 0.54674 0.07753 0.0
O20 O 0.40524 0.51748 0.08365 0.0
O21 O 0.32548 0.56854 0.12088 0.0
O22 O 0.27309 0.57173 0.11015 0.0
O23 O 0.34368 0.53849 0.01112 0.0
O24 O 0.30062 0.5377 0.0439 0.0
C25 C 0.29674 0.57292 0.13087 0.0
C26 C 0.31318 0.53521 0.0137 0.0
O27 O 0.39458 0.56883 0.07442 0.0
Mg28 Mg 0.91841 0.33491 0.07087 0.0
O29 O 0.86423 0.34236 0.06409 0.0
O30 O 0.84055 0.29639 0.0488 0.0
Mg31 Mg 0.87387 0.26026 0.07451 0.0
C32 C 0.84026 0.32678 0.05259 0.0
C33 C 0.93558 0.4008 0.04708 0.0
O34 O 0.94685 0.3808 0.02398 0.0
O35 O 0.91636 0.32492 0.12985 0.0
O36 O 0.87399 0.29781 0.11634 0.0
O37 O 0.92048 0.32485 0.01378 0.0
O38 O 0.91484 0.28701 0.05317 0.0
C39 C 0.8964 0.30311 0.13744 0.0
C40 C 0.91666 0.295 0.02117 0.0
O41 O 0.92336 0.38953 0.07461 0.0
Mg42 Mg 0.15389 0.93821 0.06964 0.0
O43 O 0.13972 0.88674 0.05151 0.0
O44 O 0.18353 0.85698 0.04217 0.0
Mg45 Mg 0.22049 0.88332 0.073 0.0
C46 C 0.1535 0.8614 0.0403 0.0
C47 C 0.07729 0.93656 0.06782 0.0
O48 O 0.08013 0.90529 0.06725 0.0
O49 O 0.16069 0.9269 0.12809 0.0
O50 O 0.17929 0.88146 0.11017 0.0
O51 O 0.16478 0.94806 0.01461 0.0
O52 O 0.20016 0.92863 0.05168 0.0
C53 C 0.176 0.9013 0.13449 0.0
C54 C 0.19266 0.93595 0.02023 0.0
O55 O 0.1018 0.95381 0.07296 0.0
Mg56 Mg 0.57164 0.33413 0.41165 0.0
O57 O 0.62242 0.34993 0.42215 0.0
O58 O 0.65602 0.30889 0.41887 0.0
Mg59 Mg 0.62529 0.26474 0.40732 0.0
C60 C 0.65043 0.3385 0.42399 0.0
C61 C 0.53259 0.39762 0.41897 0.0
O62 O 0.50913 0.37705 0.42191 0.0
O63 O 0.58 0.32759 0.35278 0.0
O64 O 0.61039 0.28347 0.35435 0.0
O65 O 0.56615 0.3219 0.46786 0.0
O66 O 0.58193 0.28778 0.42778 0.0
C67 C 0.59503 0.30483 0.33758 0.0
C68 C 0.57577 0.29347 0.45969 0.0
O69 O 0.5601 0.38754 0.41085 0.0
Mg70 Mg 0.15026 0.56988 0.41958 0.0
O71 O 0.13869 0.62336 0.42492 0.0
O72 O 0.18374 0.64865 0.43994 0.0
Mg73 Mg 0.22379 0.61221 0.44612 0.0
C74 C 0.15419 0.64872 0.43229 0.0
C75 C 0.07375 0.555 0.39043 0.0
O76 O 0.0576 0.55511 0.36131 0.0
O77 O 0.17787 0.5794 0.36804 0.0
O78 O 0.2213 0.60391 0.38836 0.0
O79 O 0.14074 0.5639 0.47736 0.0
O80 O 0.18734 0.57583 0.45499 0.0
C81 C 0.20494 0.59286 0.36332 0.0
C82 C 0.17006 0.57196 0.48193 0.0
O83 O 0.10334 0.56201 0.38896 0.0
Mg84 Mg 0.92512 0.14877 0.42123 0.0
O85 O 0.87636 0.12571 0.42619 0.0
O86 O 0.83896 0.16343 0.42155 0.0
Mg87 Mg 0.864 0.2119 0.4163 0.0
C88 C 0.84728 0.13431 0.42584 0.0
C89 C 0.96291 0.09133 0.44221 0.0
O90 O 0.97247 0.11452 0.46262 0.0
O91 O 0.91975 0.15695 0.36251 0.0
O92 O 0.8868 0.1991 0.36479 0.0
O93 O 0.92473 0.15636 0.47869 0.0
O94 O 0.90625 0.19134 0.44075 0.0
C95 C 0.90494 0.18016 0.34804 0.0
C96 C 0.90998 0.18282 0.47238 0.0
O97 O 0.94532 0.09833 0.41655 0.0
Mg98 Mg 0.32131 0.93791 0.42114 0.0
O99 O 0.33458 0.88597 0.4351 0.0
O100 O 0.28994 0.85687 0.43386 0.0
Mg101 Mg 0.24816 0.88976 0.42086 0.0
C102 C 0.31994 0.85933 0.43841 0.0
C103 C 0.37747 0.97817 0.43216 0.0
O104 O 0.35204 -0.0042 0.43763 0.0
O105 O 0.3153 0.92486 0.36376 0.0
O106 O 0.26889 0.89854 0.36714 0.0
O107 O 0.31249 0.94847 0.47668 0.0
O108 O 0.27582 0.93001 0.44083 0.0
C109 C 0.29191 0.91022 0.34974 0.0
C110 C 0.28407 0.93764 0.47182 0.0
O111 O 0.37372 0.95097 0.41804 0.0
Mg112 Mg 0.4316 0.86498 0.87734 0.0
O113 O 0.41519 0.82162 0.90946 0.0
O114 O 0.39586 0.83813 0.96027 0.0
Mg115 Mg 0.39441 0.89279 0.9581 0.0
C116 C 0.40302 0.81591 0.9391 0.0
C117 C 0.46498 0.83666 0.81117 0.0
O118 O 0.45937 0.86572 0.7997 0.0
O119 O 0.47452 0.87656 0.91333 0.0
O120 O 0.44817 0.89501 0.95953 0.0
O121 O 0.38292 0.86593 0.85314 0.0
O122 O 0.39612 0.89191 0.90088 0.0
C123 C 0.47404 0.88885 0.94372 0.0
C124 C 0.37443 0.883 0.87946 0.0
O125 O 0.45885 0.83009 0.8426 0.0
Mg126 Mg 0.60898 0.44249 0.88536 0.0
O127 O 0.64291 0.42813 0.9306 0.0
O128 O 0.6162 0.41099 0.97801 0.0
Mg129 Mg 0.56266 0.41778 0.96909 0.0
C130 C 0.64202 0.41675 0.96148 0.0
C131 C 0.67137 0.43995 0.84076 0.0
O132 O 0.67013 0.41026 0.8519 0.0
O133 O 0.60081 0.49463 0.908 0.0
O134 O 0.58133 0.45647 0.93753 0.0
O135 O 0.60296 0.38972 0.87392 0.0
O136 O 0.57254 0.41479 0.91175 0.0
C137 C 0.58509 0.48611 0.93437 0.0
C138 C 0.58045 0.38861 0.8967 0.0
O139 O 0.6502 0.45963 0.85085 0.0
Mg140 Mg 0.06379 0.60489 0.8854 0.0
O141 O 0.0746 0.64961 0.91764 0.0
O142 O 0.09804 0.63465 0.96688 0.0
Mg143 Mg 0.10107 0.58033 0.9674 0.0
C144 C 0.08723 0.6563 0.94677 0.0
C145 C 0.04415 0.64033 0.81816 0.0
O146 O 0.06964 0.62475 0.80797 0.0
O147 O 0.02113 0.59328 0.9205 0.0
O148 O 0.04686 0.57858 0.96879 0.0
O149 O 0.11381 0.60538 0.86372 0.0
O150 O 0.09935 0.57923 0.91065 0.0
C151 C 0.02121 0.58365 0.95195 0.0
C152 C 0.12161 0.58757 0.8898 0.0
O153 O 0.03436 0.63642 0.84902 0.0
Mg154 Mg 0.86556 0.04017 0.88323 0.0
O155 O 0.82188 0.05501 0.9166 0.0
O156 O 0.83664 0.08219 0.96406 0.0
Mg157 Mg 0.88816 0.06797 0.96926 0.0
C158 C 0.81535 0.07205 0.94321 0.0
C159 C 0.8268 0.02499 0.81671 0.0
O160 O 0.84826 0.04397 0.80302 0.0
O161 O 0.87887 -0.00713 0.91153 0.0
O162 O 0.86704 0.02001 0.95669 0.0
O163 O 0.86599 0.09084 0.86582 0.0
O164 O 0.89325 0.07385 0.91135 0.0
C165 C 0.88303 -0.00255 0.94364 0.0
C166 C 0.88352 0.09737 0.89244 0.0
O167 O 0.82977 0.01631 0.84801 0.0
Mg168 Mg 0.40803 0.61164 0.60842 0.0
O169 O 0.39651 0.65045 0.56854 0.0
O170 O 0.36247 0.63178 0.52914 0.0
Mg171 Mg 0.35452 0.57889 0.54199 0.0
C172 C 0.37936 0.65435 0.54163 0.0
C173 C 0.44253 0.6494 0.66485 0.0
O174 O 0.42348 0.63031 0.68219 0.0
O175 O 0.44316 0.58803 0.56983 0.0
O176 O 0.40726 0.56885 0.5325 0.0
O177 O 0.3631 0.6243 0.63713 0.0
O178 O 0.36598 0.58727 0.59651 0.0
C179 C 0.43607 0.57243 0.54232 0.0
C180 C 0.349 0.60341 0.61785 0.0
O181 O 0.44439 0.64605 0.63218 0.0
Mg182 Mg 0.879 0.43092 0.60953 0.0
O183 O 0.84383 0.42949 0.5635 0.0
O184 O 0.86634 0.39935 0.52245 0.0
Mg185 Mg 0.91649 0.38541 0.5391 0.0
C186 C 0.84295 0.41569 0.53397 0.0
C187 C 0.84479 0.45283 0.67064 0.0
O188 O 0.86526 0.4303 0.67892 0.0
O189 O 0.91017 0.46935 0.58228 0.0
O190 O 0.9314 0.43796 0.54125 0.0
O191 O 0.85825 0.38442 0.6265 0.0
O192 O 0.90047 0.3884 0.59269 0.0
C193 C 0.92847 0.46504 0.55613 0.0
C194 C 0.87921 0.37075 0.60711 0.0
O195 O 0.84607 0.46451 0.64018 0.0
Mg196 Mg 0.04975 0.86225 0.61447 0.0
O197 O 0.06463 0.83807 0.56314 0.0
O198 O 0.09046 0.8725 0.52851 0.0
Mg199 Mg 0.08738 0.9219 0.5532 0.0
C200 C 0.07968 0.84457 0.53517 0.0
C201 C 0.00778 0.81716 0.65933 0.0
O202 O -0.00316 0.84518 0.66916 0.0
O203 O 0.00249 0.87964 0.58891 0.0
O204 O 0.03765 0.90826 0.56144 0.0
O205 O 0.10019 0.85685 0.63273 0.0
O206 O 0.08383 0.89963 0.60452 0.0
C207 C 0.0091 0.9005 0.56609 0.0
C208 C 0.1067 0.88383 0.61814 0.0
O209 O 0.02769 0.81599 0.63461 0.0
Mg210 Mg 0.60986 0.03501 0.60152 0.0
O211 O 0.65094 0.03943 0.56044 0.0
O212 O 0.63139 0.06349 0.51289 0.0
Mg213 Mg 0.57881 0.05441 0.51622 0.0
C214 C 0.65473 0.05296 0.53082 0.0
C215 C 0.63692 0.02456 0.67106 0.0
O216 O 0.6112 0.0422 0.67451 0.0
O217 O 0.59026 0.98652 0.58246 0.0
O218 O 0.59892 0.00652 0.53227 0.0
O219 O 0.61559 0.08646 0.61219 0.0
O220 O 0.58271 0.06826 0.57184 0.0
C221 C 0.58274 0.98769 0.55068 0.0
C222 C 0.59622 0.09226 0.58696 0.0
O223 O 0.64341 0.01343 0.64128 0.0
H224 H 0.58102 0.21092 0.97178 0.0
H225 H 0.48786 0.23265 0.01346 0.0
H226 H 0.48669 0.28316 0.98012 0.0
H227 H 0.61048 0.28813 0.97984 0.0
H228 H 0.63426 0.28781 0.94105 0.0
H229 H 0.62565 0.25088 0.96307 0.0
H230 H 0.60159 0.22749 0.9069 0.0
H231 H 0.61025 0.26432 0.88449 0.0
H232 H 0.57023 0.24883 0.8849 0.0
H233 H 0.49801 0.33321 0.94905 0.0
H234 H 0.52113 0.38112 0.92188 0.0
H235 H 0.608 0.32863 0.90028 0.0
C236 C 0.56002 0.22591 0.97277 0.0
C237 C 0.53408 0.21784 0.99419 0.0
C238 C 0.50748 0.23835 -0.00365 0.0
C239 C 0.50668 0.26699 0.9776 0.0
C240 C 0.53286 0.27476 0.95713 0.0
C241 C 0.55908 0.25489 0.95452 0.0
C242 C 0.58542 0.27063 0.93376 0.0
C243 C 0.61573 0.2746 0.95575 0.0
C244 C 0.59227 0.25169 0.90053 0.0
C245 C 0.57013 0.30271 0.92573 0.0
C246 C 0.53969 0.3043 0.93927 0.0
C247 C 0.52154 0.33211 0.93775 0.0
C248 C 0.53491 0.3592 0.92236 0.0
C249 C 0.56612 0.35837 0.90861 0.0
C250 C 0.58378 0.3296 0.90978 0.0
H251 H 0.14149 0.54441 0.93752 0.0
H252 H 0.17695 0.6104 0.85997 0.0
H253 H 0.23232 0.59712 0.87734 0.0
H254 H 0.19461 0.56625 0.00168 0.0
H255 H 0.198 0.52662 0.01972 0.0
H256 H 0.1623 0.53818 -0.00261 0.0
H257 H 0.16876 0.48948 0.9563 0.0
H258 H 0.20484 0.47806 0.97834 0.0
H259 H 0.20519 0.4846 0.93223 0.0
H260 H 0.28364 0.58072 0.90858 0.0
H261 H 0.32443 0.56578 0.95203 0.0
H262 H 0.25378 0.51129 0.00839 0.0
C263 C 0.16081 0.55594 0.92384 0.0
C264 C 0.15492 0.57858 0.89751 0.0
C265 C 0.18096 0.59289 0.88018 0.0
C266 C 0.21244 0.5854 0.88981 0.0
C267 C 0.21731 0.56335 0.91651 0.0
C268 C 0.19205 0.54888 0.93317 0.0
C269 C 0.20292 0.5285 0.96321 0.0
C270 C 0.18862 0.54063 -0.0025 0.0
C271 C 0.19496 0.49305 0.95713 0.0
C272 C 0.23832 0.53426 0.96158 0.0
C273 C 0.24642 0.55402 0.93423 0.0
C274 C 0.2776 0.56473 0.9296 0.0
C275 C 0.30069 0.55593 0.95423 0.0
C276 C 0.29221 0.53704 0.98321 0.0
C277 C 0.26095 0.52527 0.98611 0.0
H278 H 0.91103 0.11763 0.95234 0.0
H279 H 0.86794 0.15262 0.85754 0.0
H280 H 0.87448 0.2083 0.87836 0.0
H281 H 0.87061 0.17214 0.00697 0.0
H282 H 0.90339 0.17575 0.03679 0.0
H283 H 0.89806 0.13938 0.0126 0.0
H284 H 0.9555 0.14438 0.98858 0.0
H285 H 0.96099 0.18083 0.01266 0.0
H286 H 0.96724 0.18052 0.96652 0.0
H287 H 0.88519 0.26049 0.9112 0.0
H288 H 0.8956 0.30333 0.95427 0.0
H289 H 0.92705 0.23169 0.028 0.0
C290 C 0.9029 0.13681 0.9358 0.0
C291 C 0.88886 0.13074 0.90339 0.0
C292 C 0.87883 0.15677 0.88253 0.0
C293 C 0.88246 0.18843 0.89411 0.0
C294 C 0.89584 0.19345 0.92668 0.0
C295 C 0.90561 0.16822 0.94726 0.0
C296 C 0.91706 0.17937 0.98218 0.0
C297 C 0.89602 0.16587 0.01134 0.0
C298 C 0.95229 0.17077 0.98779 0.0
C299 C 0.91249 0.21494 0.97808 0.0
C300 C 0.90056 0.22283 0.94585 0.0
C301 C 0.8945 0.25454 0.93651 0.0
C302 C 0.90054 0.27866 0.96099 0.0
C303 C 0.91196 0.27063 0.99433 0.0
C304 C 0.91812 0.23844 0.00272 0.0
H305 H 0.34742 0.86265 0.93803 0.0
H306 H 0.32648 0.91277 0.8429 0.0
H307 H 0.2732 0.92757 0.86628 0.0
H308 H 0.26602 0.83572 0.95997 0.0
H309 H 0.2729 0.84289 0.00533 0.0
H310 H 0.30541 0.83101 0.97777 0.0
H311 H 0.33704 0.88103 -0.00282 0.0
H312 H 0.30462 0.89348 0.02426 0.0
H313 H 0.31975 0.9202 0.99155 0.0
H314 H 0.22503 0.94221 0.90448 0.0
H315 H 0.18787 0.95512 0.95232 0.0
H316 H 0.246 0.899 0.0225 0.0
C317 C 0.33153 0.87624 0.92188 0.0
C318 C 0.34089 0.88678 0.88899 0.0
C319 C 0.31934 0.90427 0.86821 0.0
C320 C 0.2892 0.91278 0.88133 0.0
C321 C 0.28138 0.90329 0.91497 0.0
C322 C 0.30203 0.88511 0.93473 0.0
C323 C 0.29046 0.8809 0.97132 0.0
C324 C 0.28326 0.84553 0.97903 0.0
C325 C 0.31438 0.89475 -0.00241 0.0
C326 C 0.26046 0.90051 0.9697 0.0
C327 C 0.255 0.91269 0.93695 0.0
C328 C 0.22898 0.93245 0.93007 0.0
C329 C 0.20812 0.93977 0.9574 0.0
C330 C 0.21395 0.92792 0.99119 0.0
C331 C 0.24048 0.90813 -0.0029 0.0
H332 H 0.58157 0.23003 0.44677 0.0
H333 H 0.5781 0.2989 0.53066 0.0
H334 H 0.58323 0.25455 0.57304 0.0
H335 H 0.53443 0.17079 0.48704 0.0
H336 H 0.55678 0.13767 0.46963 0.0
H337 H 0.55483 0.17489 0.44625 0.0
H338 H 0.6165 0.17795 0.44538 0.0
H339 H 0.61867 0.14063 0.4686 0.0
H340 H 0.6382 0.17563 0.48554 0.0
H341 H 0.59016 0.20219 0.60568 0.0
H342 H 0.59491 0.14621 0.62613 0.0
H343 H 0.5893 0.11269 0.52022 0.0
C344 C 0.58223 0.23592 0.47404 0.0
C345 C 0.57976 0.26787 0.48554 0.0
C346 C 0.58011 0.27453 0.52142 0.0
C347 C 0.58305 0.24954 0.54557 0.0
C348 C 0.58525 0.21823 0.53325 0.0
C349 C 0.5847 0.21142 0.4983 0.0
C350 C 0.58623 0.17584 0.49153 0.0
C351 C 0.55628 0.16412 0.47249 0.0
C352 C 0.61671 0.16701 0.47159 0.0
C353 C 0.58736 0.16351 0.5282 0.0
C354 C 0.58735 0.18828 0.55192 0.0
C355 C 0.58985 0.18264 0.58734 0.0
C356 C 0.59252 0.15087 0.59868 0.0
C357 C 0.59197 0.12527 0.57471 0.0
C358 C 0.58911 0.13173 0.53912 0.0
H359 H 0.3103 0.64434 0.58403 0.0
H360 H 0.31144 0.55581 0.64183 0.0
H361 H 0.25628 0.54453 0.62322 0.0
H362 H 0.2198 0.66152 0.59096 0.0
H363 H 0.21928 0.67564 0.54688 0.0
H364 H 0.25398 0.68196 0.57348 0.0
H365 H 0.28885 0.65408 0.52736 0.0
H366 H 0.25454 0.64755 0.50079 0.0
H367 H 0.27898 0.61409 0.51359 0.0
H368 H 0.20729 0.53673 0.5881 0.0
H369 H 0.171 0.5321 0.53781 0.0
H370 H 0.20131 0.62532 0.50209 0.0
C371 C 0.29802 0.62365 0.59436 0.0
C372 C 0.31428 0.60149 0.61534 0.0
C373 C 0.29868 0.5735 0.62671 0.0
C374 C 0.2674 0.56696 0.61624 0.0
C375 C 0.25221 0.58862 0.59423 0.0
C376 C 0.26696 0.61664 0.58363 0.0
C377 C 0.24834 0.63282 0.55497 0.0
C378 C 0.23452 0.66488 0.56733 0.0
C379 C 0.2689 0.63734 0.52226 0.0
C380 C 0.22224 0.60842 0.54938 0.0
C381 C 0.22416 0.58363 0.57299 0.0
C382 C 0.20496 0.55645 0.57011 0.0
C383 C 0.18433 0.55399 0.5416 0.0
C384 C 0.18361 0.57834 0.51629 0.0
C385 C 0.20161 0.6064 0.52116 0.0
H386 H 0.92618 0.32724 0.59837 0.0
H387 H 0.82426 0.34041 0.58978 0.0
H388 H 0.81951 0.28754 0.56143 0.0
H389 H 0.93912 0.29463 0.52025 0.0
H390 H 0.96872 0.26576 0.53321 0.0
H391 H 0.96322 0.30158 0.55811 0.0
H392 H 0.95337 0.26767 0.61328 0.0
H393 H 0.95904 0.23158 0.58849 0.0
H394 H 0.923 0.23724 0.61301 0.0
H395 H 0.82786 0.23994 0.52339 0.0
H396 H 0.84807 0.19858 0.48315 0.0
H397 H 0.9437 0.21346 0.52135 0.0
C398 C 0.9028 0.31834 0.59159 0.0
C399 C 0.87555 0.33738 0.59639 0.0
C400 C 0.84528 0.32565 0.58678 0.0
C401 C 0.84241 0.29574 0.57067 0.0
C402 C 0.86994 0.27771 0.56548 0.0
C403 C 0.89948 0.28825 0.57642 0.0
C404 C 0.92568 0.26567 0.56536 0.0
C405 C 0.95062 0.28295 0.54289 0.0
C406 C 0.94118 0.24958 0.59692 0.0
C407 C 0.90661 0.24189 0.54453 0.0
C408 C 0.87443 0.24906 0.5451 0.0
C409 C 0.85276 0.23331 0.52376 0.0
C410 C 0.86438 0.21002 0.50095 0.0
C411 C 0.89717 0.20262 0.50015 0.0
C412 C 0.91835 0.21806 0.52272 0.0
H413 H 0.14499 0.85179 0.57434 0.0
H414 H 0.13842 0.93742 0.63679 0.0
H415 H 0.18801 0.95796 0.61025 0.0
H416 H 0.23393 0.84633 0.56823 0.0
H417 H 0.2321 0.83442 0.52347 0.0
H418 H 0.20052 0.82343 0.5527 0.0
H419 H 0.15963 0.84989 0.51175 0.0
H420 H 0.19081 0.86161 0.48258 0.0
H421 H 0.16422 0.89138 0.5 0.0
H422 H 0.23531 0.97098 0.57353 0.0
H423 H 0.27415 0.97775 0.52589 0.0
H424 H 0.24626 0.88587 0.48383 0.0
C425 C 0.15504 0.87408 0.58355 0.0
C426 C 0.13916 0.89248 0.60868 0.0
C427 C 0.15131 0.92259 0.61857 0.0
C428 C 0.17927 0.93442 0.60355 0.0
C429 C 0.19417 0.91601 0.57822 0.0
C430 C 0.18237 0.88656 0.56811 0.0
C431 C 0.19994 0.87374 0.53689 0.0
C432 C 0.21768 0.84264 0.54587 0.0
C433 C 0.1773 0.86891 0.50599 0.0
C434 C 0.2229 0.90093 0.53051 0.0
C435 C 0.21977 0.9247 0.55513 0.0
C436 C 0.23809 0.95247 0.55421 0.0
C437 C 0.25999 0.95613 0.52717 0.0
C438 C 0.2626 0.93255 0.50114 0.0
C439 C 0.24415 0.90451 0.50308 0.0
H440 H 0.40436 0.78321 0.00072 0.0
H441 H 0.37248 0.77681 0.89424 0.0
H442 H 0.34267 0.72753 0.90821 0.0
H443 H 0.41548 0.696 0.01141 0.0
H444 H 0.40319 0.69681 0.05607 0.0
H445 H 0.42227 0.73125 0.03724 0.0
H446 H 0.37425 0.76626 0.05574 0.0
H447 H 0.35468 0.7318 0.07388 0.0
H448 H 0.33481 0.7556 0.0415 0.0
H449 H 0.31177 0.68249 0.93525 0.0
H450 H 0.29126 0.63746 0.97043 0.0
H451 H 0.34772 0.66958 0.0576 0.0
C452 C 0.39162 0.77098 0.98028 0.0
C453 C 0.39076 0.78359 0.9464 0.0
C454 C 0.37377 0.76718 0.92024 0.0
C455 C 0.35649 0.73942 0.92801 0.0
C456 C 0.35708 0.72804 0.96188 0.0
C457 C 0.37504 0.74265 0.98734 0.0
C458 C 0.37267 0.72466 0.02129 0.0
C459 C 0.40534 0.71139 0.03213 0.0
C460 C 0.35824 0.74586 0.04978 0.0
C461 C 0.35009 0.69805 0.01109 0.0
C462 C 0.34087 0.70083 0.97689 0.0
C463 C 0.3191 0.67982 0.96194 0.0
C464 C 0.3073 0.6546 0.98216 0.0
C465 C 0.31784 0.65037 0.01661 0.0
C466 C 0.33926 0.67251 0.03131 0.0
H467 H 0.68477 0.37091 0.94351 0.0
H468 H 0.66592 0.44513 0.01894 0.0
H469 H 0.71589 0.43126 0.04973 0.0
H470 H 0.71348 0.31378 0.00481 0.0
H471 H 0.74304 0.29707 0.97626 0.0
H472 H 0.70741 0.31465 0.95864 0.0
H473 H 0.7415 0.35279 0.9209 0.0
H474 H 0.77725 0.33523 0.93833 0.0
H475 H 0.77098 0.37782 0.94126 0.0
H476 H 0.76818 0.40979 0.07133 0.0
H477 H 0.81683 0.37917 0.08566 0.0
H478 H 0.79878 0.31545 -0.00066 0.0
C479 C 0.69155 0.38442 0.96626 0.0
C480 C 0.67216 0.40936 0.97878 0.0
C481 C 0.68093 0.42615 0.00902 0.0
C482 C 0.70916 0.41845 0.02654 0.0
C483 C 0.72782 0.39353 0.01372 0.0
C484 C 0.71922 0.3765 0.98451 0.0
C485 C 0.74234 0.34946 0.97747 0.0
C486 C 0.72556 0.31681 0.97942 0.0
C487 C 0.75901 0.35412 0.94241 0.0
C488 C 0.76531 0.35392 0.00726 0.0
C489 C 0.75679 0.3798 0.02751 0.0
C490 C 0.77495 0.38933 0.05584 0.0
C491 C 0.80252 0.37187 0.06372 0.0
C492 C 0.81123 0.34484 0.04379 0.0
C493 C 0.79232 0.33574 0.01529 0.0
H494 H 0.11666 0.67972 0.00449 0.0
H495 H 0.06352 0.70961 0.91363 0.0
H496 H 0.06938 0.76609 0.93149 0.0
H497 H 0.08642 0.74241 0.06319 0.0
H498 H 0.12437 0.74636 0.08449 0.0
H499 H 0.11254 0.70832 0.06673 0.0
H500 H 0.16428 0.70645 0.03022 0.0
H501 H 0.17626 0.74431 0.04792 0.0
H502 H 0.17348 0.73933 0.00169 0.0
H503 H 0.08374 0.81981 0.95814 0.0
H504 H 0.10968 0.86544 0.98818 0.0
H505 H 0.15518 0.79929 0.05893 0.0
C506 C 0.10582 0.69802 0.9885 0.0
C507 C 0.08954 0.69016 0.95771 0.0
C508 C 0.07606 0.715 0.9374 0.0
C509 C 0.07909 0.74715 0.94743 0.0
C510 C 0.09554 0.75401 0.97786 0.0
C511 C 0.10874 0.73007 -0.002 0.0
C512 C 0.12739 0.74359 0.02802 0.0
C513 C 0.11174 0.73464 0.06265 0.0
C514 C 0.16242 0.73279 0.02685 0.0
C515 C 0.12398 0.77892 0.02072 0.0
C516 C 0.10472 0.78462 0.99236 0.0
C517 C 0.09869 0.81561 0.98049 0.0
C518 C 0.11336 0.84131 -0.00235 0.0
C519 C 0.1343 0.83553 0.02559 0.0
C520 C 0.13921 0.8041 0.03754 0.0
H521 H 0.66812 0.13151 0.05531 0.0
H522 H 0.63008 0.17321 0.96134 0.0
H523 H 0.67368 0.14829 0.9275 0.0
H524 H 0.74932 0.14654 0.03437 0.0
H525 H 0.76398 0.1104 0.05427 0.0
H526 H 0.72813 0.12882 0.07012 0.0
H527 H 0.69776 0.07553 0.06084 0.0
H528 H 0.73351 0.05706 0.04458 0.0
H529 H 0.69783 0.05709 0.01869 0.0
H530 H 0.72114 0.11822 0.90423 0.0
H531 H 0.77373 0.09309 0.89425 0.0
H532 H 0.78339 0.07586 0.00436 0.0
C533 C 0.66907 0.13519 0.02758 0.0
C534 C 0.646 0.15396 0.01062 0.0
C535 C 0.64783 0.15885 0.97451 0.0
C536 C 0.67225 0.14461 0.95517 0.0
C537 C 0.69476 0.12606 0.97259 0.0
C538 C 0.69374 0.12188 0.00808 0.0
C539 C 0.72236 0.10336 0.02095 0.0
C540 C 0.74211 0.12349 0.04642 0.0
C541 C 0.71225 0.07136 0.03722 0.0
C542 C 0.73988 0.09816 0.98725 0.0
C543 C 0.72314 0.11061 0.95953 0.0
C544 C 0.73451 0.10847 0.92573 0.0
C545 C 0.76423 0.09403 0.92028 0.0
C546 C 0.78239 0.08271 0.94859 0.0
C547 C 0.76987 0.08445 0.98236 0.0
H548 H 0.33627 0.67694 0.49406 0.0
H549 H 0.42046 0.70428 0.55204 0.0
H550 H 0.41766 0.75842 0.52671 0.0
H551 H 0.35275 0.72563 0.41625 0.0
H552 H 0.3114 0.73578 0.41043 0.0
H553 H 0.32222 0.69806 0.42979 0.0
H554 H 0.28771 0.7114 0.48345 0.0
H555 H 0.27674 0.74904 0.46425 0.0
H556 H 0.29468 0.74816 0.50661 0.0
H557 H 0.40388 0.81057 0.49777 0.0
H558 H 0.3779 0.85754 0.47104 0.0
H559 H 0.30159 0.79658 0.43396 0.0
C560 C 0.35443 0.69412 0.50102 0.0
C561 C 0.37866 0.68627 0.52493 0.0
C562 C 0.40168 0.70968 0.53374 0.0
C563 C 0.4004 0.74047 0.51935 0.0
C564 C 0.37596 0.74754 0.4962 0.0
C565 C 0.35332 0.72505 0.48718 0.0
C566 C 0.32804 0.73943 0.46396 0.0
C567 C 0.32865 0.72379 0.42797 0.0
C568 C 0.29484 0.73686 0.48058 0.0
C569 C 0.33937 0.77378 0.46233 0.0
C570 C 0.36745 0.77782 0.48041 0.0
C571 C 0.38201 0.80766 0.48333 0.0
C572 C 0.3671 0.8342 0.46799 0.0
C573 C 0.33767 0.83077 0.45048 0.0
C574 C 0.32405 0.8 0.44719 0.0
H575 H 0.8276 0.37666 0.47981 0.0
H576 H 0.78932 0.45243 0.54434 0.0
H577 H 0.73684 0.44572 0.51634 0.0
H578 H 0.77716 0.39281 0.40136 0.0
H579 H 0.7733 0.35064 0.39259 0.0
H580 H 0.80901 0.3658 0.41257 0.0
H581 H 0.80159 0.32602 0.4634 0.0
H582 H 0.76585 0.31095 0.44385 0.0
H583 H 0.76482 0.32629 0.48741 0.0
H584 H 0.68737 0.42662 0.48605 0.0
H585 H 0.64461 0.39495 0.45907 0.0
H586 H 0.71493 0.32956 0.41701 0.0
C587 C 0.80852 0.39261 0.48736 0.0
C588 C 0.81274 0.41533 0.51408 0.0
C589 C 0.78679 0.43504 0.52377 0.0
C590 C 0.75691 0.43148 0.5079 0.0
C591 C 0.75339 0.40814 0.48239 0.0
C592 C 0.77856 0.3891 0.47213 0.0
C593 C 0.76787 0.36329 0.44722 0.0
C594 C 0.78271 0.36845 0.4113 0.0
C595 C 0.77547 0.32967 0.46134 0.0
C596 C 0.73242 0.36962 0.44649 0.0
C597 C 0.72467 0.39622 0.46604 0.0
C598 C 0.69324 0.40601 0.47036 0.0
C599 C 0.66909 0.38782 0.45488 0.0
C600 C 0.67643 0.3597 0.43594 0.0
C601 C 0.70859 0.35093 0.43126 0.0
H602 H 0.11188 0.66446 0.48192 0.0
H603 H 0.16073 0.7014 0.39183 0.0
H604 H 0.13937 0.75553 0.40392 0.0
H605 H 0.04101 0.72008 0.4804 0.0
H606 H 0.04141 0.72371 0.52687 0.0
H607 H 0.05428 0.68702 0.50672 0.0
H608 H 0.10811 0.69097 0.53922 0.0
H609 H 0.09561 0.72772 0.55914 0.0
H610 H 0.13198 0.72653 0.53447 0.0
H611 H 0.11985 0.80615 0.4305 0.0
H612 H 0.10443 0.84991 0.46978 0.0
H613 H 0.07006 0.78021 0.5443 0.0
C614 C 0.11681 0.6838 0.46402 0.0
C615 C 0.13705 0.67903 0.43547 0.0
C616 C 0.1446 0.70483 0.41337 0.0
C617 C 0.13256 0.7355 0.42005 0.0
C618 C 0.11339 0.73981 0.44913 0.0
C619 C 0.10548 0.71463 0.47075 0.0
C620 C 0.08851 0.72631 0.50291 0.0
C621 C 0.05426 0.71352 0.50429 0.0
C622 C 0.10717 0.71736 0.53586 0.0
C623 C 0.08902 0.76203 0.49656 0.0
C624 C 0.10297 0.76929 0.46514 0.0
C625 C 0.10839 0.80076 0.45488 0.0
C626 C 0.09968 0.82546 0.47749 0.0
C627 C 0.08601 0.81853 0.51017 0.0
C628 C 0.0801 0.78636 0.51937 0.0
H629 H 0.67157 0.08842 0.47458 0.0
H630 H 0.711 0.0263 0.5539 0.0
H631 H 0.76468 0.0339 0.52881 0.0
H632 H 0.72642 0.06453 0.40404 0.0
H633 H 0.72808 0.10475 0.38728 0.0
H634 H 0.6925 0.09065 0.40839 0.0
H635 H 0.69488 0.13829 0.45121 0.0
H636 H 0.73017 0.15266 0.43012 0.0
H637 H 0.73063 0.14486 0.476 0.0
H638 H 0.81427 0.0513 0.4972 0.0
H639 H 0.85601 0.08236 0.46752 0.0
H640 H 0.78358 0.1349 0.41105 0.0
C641 C 0.69133 0.07587 0.48645 0.0
C642 C 0.68702 0.05655 0.51609 0.0
C643 C 0.7137 0.04114 0.53111 0.0
C644 C 0.74421 0.04509 0.51685 0.0
C645 C 0.74751 0.0644 0.48758 0.0
C646 C 0.72174 0.07968 0.47274 0.0
C647 C 0.73177 0.10171 0.44368 0.0
C648 C 0.71893 0.08968 0.40878 0.0
C649 C 0.72126 0.13642 0.45071 0.0
C650 C 0.76748 0.09792 0.4457 0.0
C651 C 0.77606 0.0754 0.47028 0.0
C652 C 0.80781 0.06874 0.4777 0.0
C653 C 0.83136 0.08642 0.46056 0.0
C654 C 0.82295 0.11104 0.43699 0.0
C655 C 0.79064 0.11612 0.4288 0.0
H656 H 0.5114 0.93397 0.91468 0.0
H657 H 0.4966 0.88007 0.00878 0.0
H658 H 0.52574 0.92108 0.04192 0.0
H659 H 0.59126 0.97411 0.94098 0.0
H660 H 0.57877 0.01068 0.92026 0.0
H661 H 0.56675 0.97258 0.90273 0.0
H662 H 0.50797 0.99085 0.90593 0.0
H663 H 0.51946 0.02844 0.92445 0.0
H664 H 0.49161 0.00312 0.94697 0.0
H665 H 0.54219 0.97394 0.06657 0.0
H666 H 0.55047 0.03139 0.07943 0.0
H667 H 0.55437 0.05139 0.96939 0.0
C668 C 0.51651 0.9297 0.94176 0.0
C669 C 0.50268 0.90342 0.95903 0.0
C670 C 0.50793 0.89954 0.99497 0.0
C671 C 0.52419 0.92295 0.01405 0.0
C672 C 0.53519 0.95007 -0.00322 0.0
C673 C 0.53228 0.9532 0.96121 0.0
C674 C 0.54122 0.98668 0.94963 0.0
C675 C 0.5713 0.98596 0.92707 0.0
C676 C 0.51341 0.00321 0.93066 0.0
C677 C 0.54776 0.00233 0.98425 0.0
C678 C 0.54461 0.98081 0.01115 0.0
C679 C 0.54574 0.99078 0.04565 0.0
C680 C 0.55021 0.02349 0.05275 0.0
C681 C 0.55342 0.04588 0.02548 0.0
C682 C 0.5527 0.03485 0.99089 0.0
H683 H 0.4661 0.50695 0.08521 0.0
H684 H 0.43749 0.59661 0.03811 0.0
H685 H 0.48662 0.59675 0.00323 0.0
H686 H 0.55667 0.52259 0.08089 0.0
H687 H 0.56365 0.48091 0.0716 0.0
H688 H 0.53117 0.49245 0.09944 0.0
H689 H 0.492 0.46136 0.06007 0.0
H690 H 0.5241 0.45005 0.03212 0.0
H691 H 0.49015 0.4709 0.01459 0.0
H692 H 0.53122 0.58007 0.96334 0.0
H693 H 0.56735 0.54915 0.92514 0.0
H694 H 0.56809 0.47191 -0.0001 0.0
C695 C 0.47089 0.52733 0.06872 0.0
C696 C 0.44798 0.55172 0.06445 0.0
C697 C 0.45481 0.57777 0.04215 0.0
C698 C 0.48273 0.57806 0.02215 0.0
C699 C 0.50398 0.55256 0.02539 0.0
C700 C 0.49872 0.52805 0.04885 0.0
C701 C 0.52273 0.50137 0.04439 0.0
C702 C 0.54487 0.49922 0.07596 0.0
C703 C 0.50624 0.46906 0.03735 0.0
C704 C 0.54051 0.51334 0.01294 0.0
C705 C 0.53006 0.54327 0.00275 0.0
C706 C 0.5403 0.55709 0.9717 0.0
C707 C 0.56085 0.53943 0.95013 0.0
C708 C 0.57045 0.5082 0.95963 0.0
C709 C 0.56121 0.49581 0.99207 0.0
H710 H 0.98128 0.54051 0.92448 0.0
H711 H -0.00074 0.5959 0.01674 0.0
H712 H 0.96591 0.55891 0.05074 0.0
H713 H 0.89878 0.50497 0.95132 0.0
H714 H 0.91022 0.46727 0.9324 0.0
H715 H 0.92352 0.50427 0.91323 0.0
H716 H 0.9817 0.48424 0.91765 0.0
H717 H 0.96894 0.44781 0.93767 0.0
H718 H -0.00253 0.47298 0.95934 0.0
H719 H 0.94457 0.50884 0.07716 0.0
H720 H 0.93642 0.45176 0.09249 0.0
H721 H 0.93596 0.42744 0.98355 0.0
C722 C 0.97611 0.54604 0.95127 0.0
C723 C -0.00805 0.57135 0.9679 0.0
C724 C 0.98651 0.57702 0.00348 0.0
C725 C 0.96769 0.55601 0.02299 0.0
C726 C 0.95468 0.52938 0.00652 0.0
C727 C 0.95823 0.52463 0.97119 0.0
C728 C 0.94838 0.49114 0.96093 0.0
C729 C 0.91843 0.49197 0.93813 0.0
C730 C 0.97575 0.47302 0.94288 0.0
C731 C 0.94116 0.47712 -0.00389 0.0
C732 C 0.94378 0.49968 0.02204 0.0
C733 C 0.94159 0.49117 0.05697 0.0
C734 C 0.93713 0.45874 0.06551 0.0
C735 C 0.9358 0.43533 0.03918 0.0
C736 C 0.93694 0.44491 0.0042 0.0
H737 H 0.02031 0.90795 0.05009 0.0
H738 H 0.06891 -0.00029 0.05216 0.0
H739 H 0.02549 0.02363 0.01832 0.0
H740 H -0.00943 0.91345 0.96479 0.0
H741 H 0.95241 0.89566 0.97382 0.0
H742 H 0.9865 0.88517 -0.00026 0.0
H743 H 0.95665 0.90199 0.05547 0.0
H744 H 0.92221 0.91184 0.0298 0.0
H745 H 0.93935 0.94141 0.05815 0.0
H746 H 0.98148 0.03595 0.97807 0.0
H747 H 0.93188 0.03993 0.94478 0.0
H748 H 0.90725 0.94276 0.97331 0.0
C749 C 0.0215 0.93322 0.04405 0.0
C750 C 0.04824 0.95185 0.05363 0.0
C751 C 0.04882 0.98485 0.04515 0.0
C752 C 0.02436 -0.00133 0.02567 0.0
C753 C -0.00085 0.97936 0.01534 0.0
C754 C -0.00307 0.94764 0.02501 0.0
C755 C 0.96671 0.93261 0.01081 0.0
C756 C 0.97453 0.90509 0.98581 0.0
C757 C 0.94494 0.92131 0.04032 0.0
C758 C 0.95245 0.96092 0.99164 0.0
C759 C 0.9721 0.98733 0.99403 0.0
C760 C 0.96538 0.01579 0.97691 0.0
C761 C 0.93702 0.0179 0.95818 0.0
C762 C 0.91524 -0.00787 0.95758 0.0
C763 C 0.9234 0.96294 0.97375 0.0
H764 H 0.42844 0.54326 0.48004 0.0
H765 H 0.4991 0.56079 0.55966 0.0
H766 H 0.53593 0.52336 0.53005 0.0
H767 H 0.43736 0.46352 0.47708 0.0
H768 H 0.43135 0.45905 0.43114 0.0
H769 H 0.41408 0.49248 0.45342 0.0
H770 H 0.44247 0.53178 0.41178 0.0
H771 H 0.45967 0.49835 0.38898 0.0
H772 H 0.48498 0.52927 0.40623 0.0
H773 H 0.56205 0.47845 0.49532 0.0
H774 H 0.57312 0.42891 0.46233 0.0
H775 H 0.48265 0.4384 0.40961 0.0
C776 C 0.45197 0.54004 0.49092 0.0
C777 C 0.46085 0.5551 0.52223 0.0
C778 C 0.49182 0.54983 0.53555 0.0
C779 C 0.5129 0.5286 0.51885 0.0
C780 C 0.50268 0.51308 0.48879 0.0
C781 C 0.47291 0.51878 0.47493 0.0
C782 C 0.46564 0.49641 0.4452 0.0
C783 C 0.43534 0.4767 0.45217 0.0
C784 C 0.46304 0.51507 0.41102 0.0
C785 C 0.49513 0.47573 0.4457 0.0
C786 C 0.51682 0.48641 0.47006 0.0
C787 C 0.54539 0.47025 0.47591 0.0
C788 C 0.55152 0.44221 0.45698 0.0
C789 C 0.52876 0.43012 0.43331 0.0
C790 C 0.50051 0.44739 0.42731 0.0
H791 H 0.00949 0.55393 0.40083 0.0
H792 H 0.09869 0.53389 0.45195 0.0
H793 H 0.06969 0.52054 0.50592 0.0
H794 H 0.96207 0.58201 0.47505 0.0
H795 H 0.92724 0.56029 0.46137 0.0
H796 H 0.9551 0.57497 0.42966 0.0
H797 H 0.96173 0.51773 0.40488 0.0
H798 H 0.93357 0.50311 0.43607 0.0
H799 H 0.97268 0.4855 0.43357 0.0
H800 H 0.03024 0.50538 0.55263 0.0
H801 H 0.98561 0.47963 0.58372 0.0
H802 H 0.92232 0.50264 0.49899 0.0
C803 C 0.02304 0.54756 0.42365 0.0
C804 C 0.05674 0.5472 0.4231 0.0
C805 C 0.07329 0.53709 0.45295 0.0
C806 C 0.05681 0.52892 0.48341 0.0
C807 C 0.02358 0.53012 0.48324 0.0
C808 C 0.0069 0.53844 0.45377 0.0
C809 C 0.97148 0.53279 0.45823 0.0
C810 C 0.95288 0.56441 0.45595 0.0
C811 C 0.95916 0.50833 0.43163 0.0
C812 C 0.97078 0.51938 0.49465 0.0
C813 C 0.00094 0.51896 0.50905 0.0
C814 C 0.0065 0.50601 0.54178 0.0
C815 C 0.98096 0.49179 0.55947 0.0
C816 C 0.95041 0.49017 0.5442 0.0
C817 C 0.94516 0.5048 0.51178 0.0
H818 H 0.98441 0.95675 0.58411 0.0
H819 H 0.98841 0.88719 0.50161 0.0
H820 H 0.97277 0.92888 0.45941 0.0
H821 H 0.91908 0.00925 0.54716 0.0
H822 H 0.9391 0.04473 0.5622 0.0
H823 H 0.94235 0.00794 0.58632 0.0
H824 H 0.00378 0.01191 0.58279 0.0
H825 H 0.00088 0.04811 0.55789 0.0
H826 H 0.02267 0.01441 0.54099 0.0
H827 H 0.96435 0.98028 0.42537 0.0
H828 H 0.96212 0.03609 0.40328 0.0
H829 H 0.96864 0.07135 0.50854 0.0
C830 C 0.97953 0.9499 0.5576 0.0
C831 C 0.98567 0.91852 0.54627 0.0
C832 C 0.98186 0.91075 0.51092 0.0
C833 C 0.97358 0.93443 0.48673 0.0
C834 C 0.96942 0.9657 0.49848 0.0
C835 C 0.97192 0.97335 0.53322 0.0
C836 C 0.97071 0.00911 0.53885 0.0
C837 C 0.94104 0.01831 0.55987 0.0
C838 C 0.00133 0.02157 0.55613 0.0
C839 C 0.96815 0.02046 0.50186 0.0
C840 C 0.96686 -0.00479 0.47888 0.0
C841 C 0.96505 0.00022 0.44319 0.0
C842 C 0.96401 0.03189 0.43085 0.0
C843 C 0.96567 0.05792 0.45416 0.0
C844 C 0.96785 0.05194 0.49001 0.0
H845 H 0.5555 0.95123 0.50059 0.0
H846 H 0.5347 0.02214 0.57914 0.0
H847 H 0.48052 0.02889 0.55523 0.0
H848 H 0.5148 0.98682 0.43187 0.0
H849 H 0.49886 0.95043 0.41385 0.0
H850 H 0.53545 0.94941 0.43809 0.0
H851 H 0.51198 0.90708 0.47985 0.0
H852 H 0.47559 0.90726 0.45518 0.0
H853 H 0.47458 0.91493 0.50105 0.0
H854 H 0.43168 0.03248 0.51891 0.0
H855 H 0.38595 0.02501 0.48015 0.0
H856 H 0.4361 0.9483 0.42737 0.0
C857 C 0.53907 0.96737 0.51331 0.0
C858 C 0.54883 0.98586 0.54191 0.0
C859 C 0.52724 0.00736 0.55762 0.0
C860 C 0.49663 0.01157 0.54398 0.0
C861 C 0.48797 -0.00632 0.51507 0.0
C862 C 0.50812 0.97128 0.50053 0.0
C863 C 0.4926 0.95488 0.46988 0.0
C864 C 0.51156 0.96075 0.43645 0.0
C865 C 0.48843 0.9189 0.47692 0.0
C866 C 0.46081 0.97205 0.46903 0.0
C867 C 0.45895 -0.00534 0.49503 0.0
C868 C 0.43259 0.01447 0.49883 0.0
C869 C 0.4068 0.01017 0.47642 0.0
C870 C 0.40727 0.98586 0.45084 0.0
C871 C 0.43496 0.96698 0.44673 0.0
H872 H 0.63653 0.27869 0.29143 0.0
H873 H 0.53901 0.31091 0.30238 0.0
H874 H 0.52421 0.28052 0.2499 0.0
H875 H 0.63763 0.27858 0.19389 0.0
H876 H 0.66272 0.24357 0.19317 0.0
H877 H 0.66587 0.27176 0.22825 0.0
H878 H 0.6564 0.22545 0.27158 0.0
H879 H 0.65193 0.19734 0.23669 0.0
H880 H 0.62066 0.20183 0.26822 0.0
H881 H 0.51846 0.23834 0.20303 0.0
H882 H 0.5245 0.19821 0.15637 0.0
H883 H 0.62634 0.19617 0.17389 0.0
C884 C 0.61238 0.28056 0.28182 0.0
C885 C 0.58898 0.29745 0.30074 0.0
C886 C 0.55745 0.29874 0.28788 0.0
C887 C 0.54875 0.28112 0.25838 0.0
C888 C 0.57201 0.26293 0.2417 0.0
C889 C 0.60345 0.26351 0.25222 0.0
C890 C 0.6237 0.2411 0.23063 0.0
C891 C 0.64897 0.25988 0.21026 0.0
C892 C 0.63906 0.21489 0.25314 0.0
C893 C 0.59866 0.22719 0.20685 0.0
C894 C 0.5689 0.23969 0.21397 0.0
C895 C 0.54174 0.22887 0.19682 0.0
C896 C 0.54532 0.20572 0.17076 0.0
C897 C 0.57585 0.19399 0.16181 0.0
C898 C 0.60273 0.20468 0.18038 0.0
H899 H 0.19733 0.5537 0.30587 0.0
H900 H 0.24549 0.6392 0.34215 0.0
H901 H 0.27566 0.64208 0.28778 0.0
H902 H 0.26538 0.51992 0.26345 0.0
H903 H 0.24343 0.50381 0.22741 0.0
H904 H 0.22431 0.50857 0.2688 0.0
H905 H 0.18009 0.54321 0.24068 0.0
H906 H 0.19877 0.53802 0.19913 0.0
H907 H 0.19103 0.57772 0.21531 0.0
H908 H 0.30363 0.63402 0.23138 0.0
H909 H 0.32188 0.61927 0.17244 0.0
H910 H 0.25453 0.54082 0.17112 0.0
C911 C 0.21375 0.57333 0.30202 0.0
C912 C 0.21908 0.59615 0.32835 0.0
C913 C 0.24116 0.62126 0.32249 0.0
C914 C 0.25852 0.62312 0.2917 0.0
C915 C 0.25364 0.5997 0.26678 0.0
C916 C 0.2315 0.57554 0.27125 0.0
C917 C 0.23121 0.55336 0.24022 0.0
C918 C 0.2417 0.51941 0.2506 0.0
C919 C 0.19832 0.55308 0.2228 0.0
C920 C 0.25605 0.56931 0.21753 0.0
C921 C 0.2692 0.5956 0.23367 0.0
C922 C 0.29338 0.6136 0.2183 0.0
C923 C 0.3038 0.60497 0.18506 0.0
C924 C 0.28958 0.57902 0.16754 0.0
C925 C 0.26568 0.56084 0.18413 0.0
H926 H 0.9183 0.31194 0.20343 0.0
H927 H 0.89152 0.2385 0.12996 0.0
H928 H 0.89976 0.19701 0.17432 0.0
H929 H 0.97712 0.26302 0.25437 0.0
H930 H 0.9641 0.28021 0.29471 0.0
H931 H 0.96241 0.30355 0.25549 0.0
H932 H 0.90224 0.31386 0.26553 0.0
H933 H 0.90381 0.29073 0.30468 0.0
H934 H 0.87585 0.28028 0.27118 0.0
H935 H 0.9048 0.16385 0.22848 0.0
H936 H 0.90194 0.14338 0.28886 0.0
H937 H 0.92274 0.23851 0.32701 0.0
C938 C 0.91514 0.28703 0.19654 0.0
C939 C 0.90455 0.27839 0.16327 0.0
C940 C 0.89965 0.24566 0.15532 0.0
C941 C 0.90453 0.22184 0.18029 0.0
C942 C 0.91416 0.2311 0.21322 0.0
C943 C 0.91932 0.26296 0.22144 0.0
C944 C 0.92531 0.26702 0.25975 0.0
C945 C 0.95926 0.27917 0.26646 0.0
C946 C 0.90031 0.28927 0.27623 0.0
C947 C 0.92143 0.23279 0.27186 0.0
C948 C 0.9159 0.21218 0.24464 0.0
C949 C 0.90959 0.17967 0.25001 0.0
C950 C 0.90807 0.16818 0.28422 0.0
C951 C 0.91218 0.18944 0.31222 0.0
C952 C 0.91971 0.22181 0.30584 0.0
H953 H 0.26521 0.95436 0.3078 0.0
H954 H 0.30749 0.85994 0.30915 0.0
H955 H 0.28541 0.84924 0.25097 0.0
H956 H 0.19468 0.9328 0.27516 0.0
H957 H 0.18761 0.96682 0.2475 0.0
H958 H 0.21282 0.97086 0.28482 0.0
H959 H 0.25924 0.9912 0.24675 0.0
H960 H 0.23383 0.98835 0.20928 0.0
H961 H 0.2717 0.96806 0.20981 0.0
H962 H 0.2509 0.84507 0.19926 0.0
H963 H 0.21127 0.84948 0.15276 0.0
H964 H 0.18996 0.94688 0.18444 0.0
C965 C 0.27131 0.93224 0.29479 0.0
C966 C 0.28894 0.90832 0.31207 0.0
C967 C 0.29501 0.87884 0.29554 0.0
C968 C 0.28231 0.87253 0.26271 0.0
C969 C 0.2636 0.89601 0.24699 0.0
C970 C 0.25864 0.92558 0.26206 0.0
C971 C 0.23482 0.94522 0.24145 0.0
C972 C 0.20577 0.95444 0.26357 0.0
C973 C 0.25086 0.97497 0.22589 0.0
C974 C 0.22589 0.92144 0.21353 0.0
C975 C 0.2431 0.8934 0.21705 0.0
C976 C 0.23783 0.86716 0.19574 0.0
C977 C 0.21502 0.86987 0.16955 0.0
C978 C 0.19754 0.89861 0.16475 0.0
C979 C 0.20293 0.92464 0.18734 0.0
H980 H 0.4556 0.77235 0.81998 0.0
H981 H 0.48942 0.84235 0.74573 0.0
H982 H 0.49442 0.79978 0.70166 0.0
H983 H 0.50329 0.70281 0.78871 0.0
H984 H 0.47081 0.67547 0.7959 0.0
H985 H 0.47522 0.71025 0.82304 0.0
H986 H 0.41767 0.72776 0.80793 0.0
H987 H 0.41312 0.69322 0.78072 0.0
H988 H 0.40653 0.73265 0.76318 0.0
H989 H 0.4898 0.75069 0.66386 0.0
H990 H 0.47401 0.70023 0.63529 0.0
H991 H 0.44185 0.66296 0.73409 0.0
C992 C 0.46509 0.77858 0.79481 0.0
C993 C 0.47256 0.81063 0.78644 0.0
C994 C 0.48384 0.81792 0.75282 0.0
C995 C 0.48683 0.79386 0.72764 0.0
C996 C 0.47839 0.76263 0.73645 0.0
C997 C 0.46779 0.75496 0.76929 0.0
C998 C 0.45683 0.72048 0.77118 0.0
C999 C 0.4778 0.70111 0.79619 0.0
C1000 C 0.42145 0.71843 0.78134 0.0
C1001 C 0.46208 0.71017 0.73407 0.0
C1002 C 0.47502 0.7346 0.71453 0.0
C1003 C 0.48009 0.73124 0.67904 0.0
C1004 C 0.47108 0.70245 0.66302 0.0
C1005 C 0.4568 0.67752 0.68242 0.0
C1006 C 0.45299 0.68136 0.71853 0.0
H1007 H 0.8211 0.41213 0.71859 0.0
H1008 H 0.80667 0.50685 0.67548 0.0
H1009 H 0.7612 0.51511 0.71577 0.0
H1010 H 0.73825 0.39344 0.72626 0.0
H1011 H 0.74364 0.37031 0.7652 0.0
H1012 H 0.77538 0.37305 0.73407 0.0
H1013 H 0.81331 0.39401 0.78182 0.0
H1014 H 0.78169 0.39142 0.81309 0.0
H1015 H 0.80219 0.42881 0.80657 0.0
H1016 H 0.71724 0.51227 0.76232 0.0
H1017 H 0.67751 0.49772 0.80695 0.0
H1018 H 0.72081 0.40381 0.81632 0.0
C1019 C 0.80869 0.43485 0.71779 0.0
C1020 C 0.81775 0.45913 0.69432 0.0
C1021 C 0.80025 0.48807 0.69347 0.0
C1022 C 0.77447 0.49292 0.71627 0.0
C1023 C 0.76628 0.46835 0.73921 0.0
C1024 C 0.78277 0.43975 0.7397 0.0
C1025 C 0.76861 0.41634 0.76526 0.0
C1026 C 0.7557 0.38653 0.74658 0.0
C1027 C 0.7929 0.40713 0.79335 0.0
C1028 C 0.74188 0.43638 0.7799 0.0
C1029 C 0.7408 0.46633 0.76468 0.0
C1030 C 0.71791 0.48884 0.77425 0.0
C1031 C 0.69547 0.48038 0.79971 0.0
C1032 C 0.69598 0.4496 0.81521 0.0
C1033 C 0.71969 0.42753 0.8051 0.0
H1034 H 0.04143 0.76093 0.65952 0.0
H1035 H 0.96289 0.80957 0.71 0.0
H1036 H 0.95962 0.76585 0.75288 0.0
H1037 H 0.01444 0.67722 0.67651 0.0
H1038 H 0.05458 0.66375 0.68422 0.0
H1039 H 0.04719 0.69602 0.6543 0.0
H1040 H 0.0862 0.73203 0.68859 0.0
H1041 H 0.09348 0.70006 0.71872 0.0
H1042 H 0.07975 0.73833 0.7342 0.0
H1043 H 0.96948 0.72056 0.79451 0.0
H1044 H -0.00879 0.67711 0.83096 0.0
H1045 H 0.06369 0.65856 0.75351 0.0
C1046 C 0.02283 0.76191 0.67888 0.0
C1047 C 0.0022 0.78856 0.68119 0.0
C1048 C 0.9788 0.78929 0.70755 0.0
C1049 C 0.97674 0.76454 0.73202 0.0
C1050 C -0.00181 0.73916 0.72973 0.0
C1051 C 0.02065 0.73755 0.70365 0.0
C1052 C 0.04292 0.70942 0.70885 0.0
C1053 C 0.03957 0.68517 0.67921 0.0
C1054 C 0.07762 0.72065 0.71284 0.0
C1055 C 0.03008 0.69601 0.74245 0.0
C1056 C 0.00406 0.71323 0.75389 0.0
C1057 C -0.01049 0.70657 0.78551 0.0
C1058 C 0.00208 0.68189 0.80609 0.0
C1059 C 0.02906 0.66427 0.79506 0.0
C1060 C 0.04281 0.67125 0.76255 0.0
H1061 H 0.69463 -0.00699 0.6726 0.0
H1062 H 0.63197 0.05286 0.73427 0.0
H1063 H 0.67285 0.05618 0.77961 0.0
H1064 H 0.73104 0.95049 0.74849 0.0
H1065 H 0.76956 0.94868 0.72812 0.0
H1066 H 0.73397 0.94776 0.70207 0.0
H1067 H 0.75448 -0.00351 0.6671 0.0
H1068 H 0.7899 -0.00223 0.69321 0.0
H1069 H 0.76498 0.03276 0.68962 0.0
H1070 H 0.72125 0.05676 0.81616 0.0
H1071 H 0.77489 0.05399 0.84216 0.0
H1072 H 0.80744 -0.00477 0.75685 0.0
C1073 C 0.68927 0.00621 0.69597 0.0
C1074 C 0.66002 0.02258 0.69987 0.0
C1075 C 0.65407 0.03992 0.7307 0.0
C1076 C 0.67716 0.04198 0.75668 0.0
C1077 C 0.70597 0.02624 0.7517 0.0
C1078 C 0.71207 0.00839 0.72235 0.0
C1079 C 0.74565 -0.00498 0.72296 0.0
C1080 C 0.74501 0.95831 0.72556 0.0
C1081 C 0.76488 0.0062 0.69134 0.0
C1082 C 0.75799 0.00974 0.75617 0.0
C1083 C 0.73436 0.02698 0.77272 0.0
C1084 C 0.73983 0.04302 0.80369 0.0
C1085 C 0.77026 0.04131 0.81824 0.0
C1086 C 0.79486 0.0242 0.8015 0.0
C1087 C 0.78878 0.00828 0.77007 0.0
loop_
_geom_bond_atom_site_label_1
_geom_bond_atom_site_label_2
_geom_bond_distance
_geom_bond_site_symmetry_2
_ccdc_geom_bond_type
Mg0 O1 2.028 . S
Mg0 O7 1.986 . S
Mg0 O9 2.114 . S
Mg0 O10 2.251 . S
Mg0 O13 2.010 . S
O1 Mg0 2.028 . S
O1 C4 1.250 . S
O2 Mg3 2.028 . S
O2 C4 1.248 . S
Mg3 O2 2.028 . S
Mg3 O8 2.032 . S
Mg3 O10 2.079 . S
C4 O1 1.250 . S
C4 O2 1.248 . S
C5 O6 1.264 . S
C5 O13 1.249 . S
O6 C5 1.264 . S
O7 Mg0 1.986 . S
O7 C11 1.246 . S
O8 Mg3 2.032 . S
O8 C11 1.259 . S
O9 Mg0 2.114 . S
O9 C12 1.252 . S
O10 Mg0 2.251 . S
O10 Mg3 2.079 . S
O10 C12 1.273 . S
C11 O7 1.246 . S
C11 O8 1.259 . S
C12 O9 1.252 . S
C12 O10 1.273 . S
O13 Mg0 2.010 . S
O13 C5 1.249 . S
Mg14 O15 2.028 . S
Mg14 O21 1.986 . S
Mg14 O23 2.114 . S
Mg14 O24 2.251 . S
Mg14 O27 2.010 . S
O15 Mg14 2.028 . S
O15 C18 1.250 . S
O16 Mg17 2.028 . S
O16 C18 1.248 . S
Mg17 O16 2.028 . S
Mg17 O22 2.032 . S
Mg17 O24 2.079 . S
C18 O15 1.250 . S
C18 O16 1.248 . S
C19 O20 1.264 . S
C19 O27 1.249 . S
O20 C19 1.264 . S
O21 Mg14 1.986 . S
O21 C25 1.246 . S
O22 Mg17 2.032 . S
O22 C25 1.259 . S
O23 Mg14 2.114 . S
O23 C26 1.252 . S
O24 Mg14 2.251 . S
O24 Mg17 2.079 . S
O24 C26 1.273 . S
C25 O21 1.246 . S
C25 O22 1.259 . S
C26 O23 1.252 . S
C26 O24 1.273 . S
O27 Mg14 2.010 . S
O27 C19 1.249 . S
Mg28 O29 2.028 . S
Mg28 O35 1.986 . S
Mg28 O37 2.114 . S
Mg28 O38 2.251 . S
Mg28 O41 2.010 . S
O29 Mg28 2.028 . S
O29 C32 1.250 . S
O30 Mg31 2.028 . S
O30 C32 1.248 . S
Mg31 O30 2.028 . S
Mg31 O36 2.032 . S
Mg31 O38 2.079 . S
C32 O29 1.250 . S
C32 O30 1.248 . S
C33 O34 1.261 . S
C33 O41 1.249 . S
O34 C33 1.261 . S
O35 Mg28 1.986 . S
O35 C39 1.246 . S
O36 Mg31 2.032 . S
O36 C39 1.259 . S
O37 Mg28 2.114 . S
O37 C40 1.252 . S
O38 Mg28 2.251 . S
O38 Mg31 2.079 . S
O38 C40 1.273 . S
C39 O35 1.246 . S
C39 O36 1.259 . S
C40 O37 1.252 . S
C40 O38 1.273 . S
O41 Mg28 2.010 . S
O41 C33 1.249 . S
Mg42 O43 2.028 . S
Mg42 O49 1.986 . S
Mg42 O51 2.114 . S
Mg42 O52 2.251 . S
Mg42 O55 2.010 . S
O43 Mg42 2.028 . S
O43 C46 1.250 . S
O44 Mg45 2.028 . S
O44 C46 1.248 . S
Mg45 O44 2.028 . S
Mg45 O50 2.032 . S
Mg45 O52 2.079 . S
C46 O43 1.250 . S
C46 O44 1.248 . S
C47 O48 1.261 . S
C47 O55 1.249 . S
O48 C47 1.261 . S
O49 Mg42 1.986 . S
O49 C53 1.246 . S
O50 Mg45 2.032 . S
O50 C53 1.259 . S
O51 Mg42 2.114 . S
O51 C54 1.252 . S
O52 Mg42 2.251 . S
O52 Mg45 2.079 . S
O52 C54 1.273 . S
C53 O49 1.246 . S
C53 O50 1.259 . S
C54 O51 1.252 . S
C54 O52 1.273 . S
O55 Mg42 2.010 . S
O55 C47 1.249 . S
Mg56 O57 2.028 . S
Mg56 O63 1.986 . S
Mg56 O65 2.114 . S
Mg56 O66 2.251 . S
Mg56 O69 2.010 . S
O57 Mg56 2.028 . S
O57 C60 1.250 . S
O58 Mg59 2.028 . S
O58 C60 1.248 . S
Mg59 O58 2.028 . S
Mg59 O64 2.032 . S
Mg59 O66 2.079 . S
C60 O57 1.250 . S
C60 O58 1.248 . S
C61 O62 1.264 . S
C61 O69 1.249 . S
O62 C61 1.264 . S
O63 Mg56 1.986 . S
O63 C67 1.246 . S
O64 Mg59 2.032 . S
O64 C67 1.259 . S
O65 Mg56 2.114 . S
O65 C68 1.252 . S
O66 Mg56 2.251 . S
O66 Mg59 2.079 . S
O66 C68 1.273 . S
C67 O63 1.246 . S
C67 O64 1.259 . S
C68 O65 1.252 . S
C68 O66 1.273 . S
O69 Mg56 2.010 . S
O69 C61 1.249 . S
Mg70 O71 2.028 . S
Mg70 O77 1.986 . S
Mg70 O79 2.114 . S
Mg70 O80 2.251 . S
Mg70 O83 2.010 . S
O71 Mg70 2.028 . S
O71 C74 1.250 . S
O72 Mg73 2.028 . S
O72 C74 1.248 . S
Mg73 O72 2.028 . S
Mg73 O78 2.032 . S
Mg73 O80 2.079 . S
C74 O71 1.250 . S
C74 O72 1.248 . S
C75 O76 1.264 . S
C75 O83 1.249 . S
O76 C75 1.264 . S
O77 Mg70 1.986 . S
O77 C81 1.246 . S
O78 Mg73 2.032 . S
O78 C81 1.259 . S
O79 Mg70 2.114 . S
O79 C82 1.252 . S
O80 Mg70 2.251 . S
O80 Mg73 2.079 . S
O80 C82 1.273 . S
C81 O77 1.246 . S
C81 O78 1.259 . S
C82 O79 1.252 . S
C82 O80 1.273 . S
O83 Mg70 2.010 . S
O83 C75 1.249 . S
Mg84 O85 2.028 . S
Mg84 O91 1.986 . S
Mg84 O93 2.114 . S
Mg84 O94 2.251 . S
Mg84 O97 2.010 . S
O85 Mg84 2.028 . S
O85 C88 1.250 . S
O86 Mg87 2.028 . S
O86 C88 1.248 . S
Mg87 O86 2.028 . S
Mg87 O92 2.032 . S
Mg87 O94 2.079 . S
C88 O85 1.250 . S
C88 O86 1.248 . S
C89 O90 1.261 . S
C89 O97 1.249 . S
O90 C89 1.261 . S
O91 Mg84 1.986 . S
O91 C95 1.246 . S
O92 Mg87 2.032 . S
O92 C95 1.259 . S
O93 Mg84 2.114 . S
O93 C96 1.252 . S
O94 Mg84 2.251 . S
O94 Mg87 2.079 . S
O94 C96 1.273 . S
C95 O91 1.246 . S
C95 O92 1.259 . S
C96 O93 1.252 . S
C96 O94 1.273 . S
O97 Mg84 2.010 . S
O97 C89 1.249 . S
Mg98 O99 2.028 . S
Mg98 O105 1.986 . S
Mg98 O107 2.114 . S
Mg98 O108 2.251 . S
Mg98 O111 2.010 . S
O99 Mg98 2.028 . S
O99 C102 1.250 . S
O100 Mg101 2.028 . S
O100 C102 1.248 . S
Mg101 O100 2.028 . S
Mg101 O106 2.032 . S
Mg101 O108 2.079 . S
C102 O99 1.250 . S
C102 O100 1.248 . S
C103 O104 1.261 . S
C103 O111 1.249 . S
O104 C103 1.261 . S
O105 Mg98 1.986 . S
O105 C109 1.246 . S
O106 Mg101 2.032 . S
O106 C109 1.259 . S
O107 Mg98 2.114 . S
O107 C110 1.252 . S
O108 Mg98 2.251 . S
O108 Mg101 2.079 . S
O108 C110 1.273 . S
C109 O105 1.246 . S
C109 O106 1.259 . S
C110 O107 1.252 . S
C110 O108 1.273 . S
O111 Mg98 2.010 . S
O111 C103 1.249 . S
Mg112 O113 2.028 . S
Mg112 O119 1.986 . S
Mg112 O121 2.114 . S
Mg112 O122 2.251 . S
Mg112 O125 2.010 . S
O113 Mg112 2.028 . S
O113 C116 1.250 . S
O114 Mg115 2.028 1_556 S
O114 C116 1.248 . S
Mg115 O114 2.028 1_554 S
Mg115 O120 2.032 1_554 S
Mg115 O122 2.079 1_554 S
C116 O113 1.250 . S
C116 O114 1.248 . S
C117 O118 1.264 . S
C117 O125 1.249 . S
O118 C117 1.264 . S
O119 Mg112 1.986 . S
O119 C123 1.246 . S
O120 Mg115 2.032 1_556 S
O120 C123 1.259 . S
O121 Mg112 2.114 . S
O121 C124 1.252 . S
O122 Mg112 2.251 . S
O122 Mg115 2.079 1_556 S
O122 C124 1.273 . S
C123 O119 1.246 . S
C123 O120 1.259 . S
C124 O121 1.252 . S
C124 O122 1.273 . S
O125 Mg112 2.010 . S
O125 C117 1.249 . S
Mg126 O127 2.028 . S
Mg126 O133 1.986 . S
Mg126 O135 2.114 . S
Mg126 O136 2.251 . S
Mg126 O139 2.010 . S
O127 Mg126 2.028 . S
O127 C130 1.250 . S
O128 Mg129 2.028 1_556 S
O128 C130 1.248 . S
Mg129 O128 2.028 1_554 S
Mg129 O134 2.032 1_554 S
Mg129 O136 2.079 1_554 S
C130 O127 1.250 . S
C130 O128 1.248 . S
C131 O132 1.264 . S
C131 O139 1.249 . S
O132 C131 1.264 . S
O133 Mg126 1.986 . S
O133 C137 1.246 . S
O134 Mg129 2.032 1_556 S
O134 C137 1.259 . S
O135 Mg126 2.114 . S
O135 C138 1.252 . S
O136 Mg126 2.251 . S
O136 Mg129 2.079 1_556 S
O136 C138 1.273 . S
C137 O133 1.246 . S
C137 O134 1.259 . S
C138 O135 1.252 . S
C138 O136 1.273 . S
O139 Mg126 2.010 . S
O139 C131 1.249 . S
Mg140 O141 2.028 . S
Mg140 O147 1.986 . S
Mg140 O149 2.114 . S
Mg140 O150 2.251 . S
Mg140 O153 2.010 . S
O141 Mg140 2.028 . S
O141 C144 1.250 . S
O142 Mg143 2.028 1_556 S
O142 C144 1.248 . S
Mg143 O142 2.028 1_554 S
Mg143 O148 2.032 1_554 S
Mg143 O150 2.079 1_554 S
C144 O141 1.250 . S
C144 O142 1.248 . S
C145 O146 1.264 . S
C145 O153 1.249 . S
O146 C145 1.264 . S
O147 Mg140 1.986 . S
O147 C151 1.246 . S
O148 Mg143 2.032 1_556 S
O148 C151 1.259 . S
O149 Mg140 2.114 . S
O149 C152 1.252 . S
O150 Mg140 2.251 . S
O150 Mg143 2.079 1_556 S
O150 C152 1.273 . S
C151 O147 1.246 . S
C151 O148 1.259 . S
C152 O149 1.252 . S
C152 O150 1.273 . S
O153 Mg140 2.010 . S
O153 C145 1.249 . S
Mg154 O155 2.028 . S
Mg154 O161 1.986 . S
Mg154 O163 2.114 . S
Mg154 O164 2.251 . S
Mg154 O167 2.010 . S
O155 Mg154 2.028 . S
O155 C158 1.250 . S
O156 Mg157 2.028 1_556 S
O156 C158 1.248 . S
Mg157 O156 2.028 1_554 S
Mg157 O162 2.032 1_554 S
Mg157 O164 2.079 1_554 S
C158 O155 1.250 . S
C158 O156 1.248 . S
C159 O160 1.264 . S
C159 O167 1.249 . S
O160 C159 1.264 . S
O161 Mg154 1.986 . S
O161 C165 1.246 . S
O162 Mg157 2.032 1_556 S
O162 C165 1.259 . S
O163 Mg154 2.114 . S
O163 C166 1.252 . S
O164 Mg154 2.251 . S
O164 Mg157 2.079 1_556 S
O164 C166 1.273 . S
C165 O161 1.246 . S
C165 O162 1.259 . S
C166 O163 1.252 . S
C166 O164 1.273 . S
O167 Mg154 2.010 . S
O167 C159 1.249 . S
Mg168 O169 2.028 . S
Mg168 O175 1.986 . S
Mg168 O177 2.114 . S
Mg168 O178 2.251 . S
Mg168 O181 2.010 . S
O169 Mg168 2.028 . S
O169 C172 1.250 . S
O170 Mg171 2.028 . S
O170 C172 1.248 . S
Mg171 O170 2.028 . S
Mg171 O176 2.032 . S
Mg171 O178 2.079 . S
C172 O169 1.250 . S
C172 O170 1.248 . S
C173 O174 1.264 . S
C173 O181 1.249 . S
O174 C173 1.264 . S
O175 Mg168 1.986 . S
O175 C179 1.246 . S
O176 Mg171 2.032 . S
O176 C179 1.259 . S
O177 Mg168 2.114 . S
O177 C180 1.252 . S
O178 Mg168 2.251 . S
O178 Mg171 2.079 . S
O178 C180 1.273 . S
C179 O175 1.246 . S
C179 O176 1.259 . S
C180 O177 1.252 . S
C180 O178 1.273 . S
O181 Mg168 2.010 . S
O181 C173 1.249 . S
Mg182 O183 2.028 . S
Mg182 O189 1.986 . S
Mg182 O191 2.114 . S
Mg182 O192 2.251 . S
Mg182 O195 2.010 . S
O183 Mg182 2.028 . S
O183 C186 1.250 . S
O184 Mg185 2.028 . S
O184 C186 1.248 . S
Mg185 O184 2.028 . S
Mg185 O190 2.032 . S
Mg185 O192 2.079 . S
C186 O183 1.250 . S
C186 O184 1.248 . S
C187 O188 1.264 . S
C187 O195 1.249 . S
O188 C187 1.264 . S
O189 Mg182 1.986 . S
O189 C193 1.246 . S
O190 Mg185 2.032 . S
O190 C193 1.259 . S
O191 Mg182 2.114 . S
O191 C194 1.252 . S
O192 Mg182 2.251 . S
O192 Mg185 2.079 . S
O192 C194 1.273 . S
C193 O189 1.246 . S
C193 O190 1.259 . S
C194 O191 1.252 . S
C194 O192 1.273 . S
O195 Mg182 2.010 . S
O195 C187 1.249 . S
Mg196 O197 2.028 . S
Mg196 O203 1.986 . S
Mg196 O205 2.114 . S
Mg196 O206 2.251 . S
Mg196 O209 2.010 . S
O197 Mg196 2.028 . S
O197 C200 1.250 . S
O198 Mg199 2.028 . S
O198 C200 1.248 . S
Mg199 O198 2.028 . S
Mg199 O204 2.032 . S
Mg199 O206 2.079 . S
C200 O197 1.250 . S
C200 O198 1.248 . S
C201 O202 1.264 . S
C201 O209 1.249 . S
O202 C201 1.264 . S
O203 Mg196 1.986 . S
O203 C207 1.246 . S
O204 Mg199 2.032 . S
O204 C207 1.259 . S
O205 Mg196 2.114 . S
O205 C208 1.252 . S
O206 Mg196 2.251 . S
O206 Mg199 2.079 . S
O206 C208 1.273 . S
C207 O203 1.246 . S
C207 O204 1.259 . S
C208 O205 1.252 . S
C208 O206 1.273 . S
O209 Mg196 2.010 . S
O209 C201 1.249 . S
Mg210 O211 2.028 . S
Mg210 O217 1.986 . S
Mg210 O219 2.114 . S
Mg210 O220 2.251 . S
Mg210 O223 2.010 . S
O211 Mg210 2.028 . S
O211 C214 1.250 . S
O212 Mg213 2.028 . S
O212 C214 1.248 . S
Mg213 O212 2.028 . S
Mg213 O218 2.032 . S
Mg213 O220 2.079 . S
C214 O211 1.250 . S
C214 O212 1.248 . S
C215 O216 1.264 . S
C215 O223 1.249 . S
O216 C215 1.264 . S
O217 Mg210 1.986 . S
O217 C221 1.246 . S
O218 Mg213 2.032 . S
O218 C221 1.259 . S
O219 Mg210 2.114 . S
O219 C222 1.252 . S
O220 Mg210 2.251 . S
O220 Mg213 2.079 . S
O220 C222 1.273 . S
C221 O217 1.246 . S
C221 O218 1.259 . S
C222 O219 1.252 . S
C222 O220 1.273 . S
O223 Mg210 2.010 . S
O223 C215 1.249 . S
H224 C236 0.930 1_556 S
H225 C238 0.930 . S
H226 C239 0.930 . S
H227 C243 0.959 . S
H228 C243 0.959 . S
H229 C243 0.961 . S
H230 C244 0.960 . S
H231 C244 0.961 . S
H232 C244 0.959 . S
H233 C247 0.929 . S
H234 C248 0.931 . S
H235 C250 0.930 . S
C236 H224 0.930 1_554 S
C236 C237 1.399 . S
C236 C241 1.399 1_554 S
C237 C236 1.399 . S
C237 C238 1.376 . S
C238 H225 0.930 . S
C238 C237 1.376 . S
C238 C239 1.388 . S
C239 H226 0.930 . S
C239 C238 1.388 . S
C239 C240 1.390 . S
C240 C239 1.390 . S
C240 C241 1.394 1_554 S
C240 C246 1.465 1_554 S
C241 C236 1.399 1_556 S
C241 C240 1.394 1_556 S
C241 C242 1.516 . S
C242 C241 1.516 . S
C242 C243 1.502 . S
C242 C244 1.561 . S
C242 C245 1.526 . S
C243 H227 0.959 . S
C243 H228 0.959 . S
C243 H229 0.961 . S
C243 C242 1.502 . S
C244 H230 0.960 . S
C244 H231 0.961 . S
C244 H232 0.959 . S
C244 C242 1.561 . S
C245 C242 1.526 . S
C245 C246 1.396 . S
C245 C250 1.390 . S
C246 C240 1.465 1_556 S
C246 C245 1.396 . S
C246 C247 1.399 1_556 S
C247 H233 0.929 . S
C247 C246 1.399 1_554 S
C247 C248 1.385 1_554 S
C248 H234 0.931 . S
C248 C247 1.385 1_556 S
C248 C249 1.389 . S
C249 C248 1.389 . S
C249 C250 1.387 . S
C250 H235 0.930 . S
C250 C245 1.390 . S
C250 C249 1.387 . S
H251 C263 0.930 . S
H252 C265 0.930 . S
H253 C266 0.930 . S
H254 C270 0.959 . S
H255 C270 0.959 . S
H256 C270 0.961 . S
H257 C271 0.960 . S
H258 C271 0.961 . S
H259 C271 0.959 . S
H260 C274 0.929 . S
H261 C275 0.931 . S
H262 C277 0.930 . S
C263 H251 0.930 . S
C263 C264 1.399 . S
C263 C268 1.399 . S
C264 C263 1.399 . S
C264 C265 1.376 . S
C265 H252 0.930 . S
C265 C264 1.376 . S
C265 C266 1.388 . S
C266 H253 0.930 . S
C266 C265 1.388 . S
C266 C267 1.390 . S
C267 C266 1.390 . S
C267 C268 1.394 . S
C267 C273 1.465 . S
C268 C263 1.399 . S
C268 C267 1.394 . S
C268 C269 1.516 1_556 S
C269 C268 1.516 1_554 S
C269 C270 1.502 . S
C269 C271 1.561 . S
C269 C272 1.526 . S
C270 H254 0.959 . S
C270 H255 0.959 . S
C270 H256 0.961 . S
C270 C269 1.502 . S
C271 H257 0.960 . S
C271 H258 0.961 . S
C271 H259 0.959 . S
C271 C269 1.561 . S
C272 C269 1.526 . S
C272 C273 1.396 1_554 S
C272 C277 1.390 . S
C273 C267 1.465 . S
C273 C272 1.396 1_556 S
C273 C274 1.399 . S
C274 H260 0.929 . S
C274 C273 1.399 . S
C274 C275 1.385 . S
C275 H261 0.931 . S
C275 C274 1.385 . S
C275 C276 1.389 1_556 S
C276 C275 1.389 1_554 S
C276 C277 1.387 . S
C277 H262 0.930 . S
C277 C272 1.390 . S
C277 C276 1.387 . S
H278 C290 0.930 . S
H279 C292 0.930 . S
H280 C293 0.930 . S
H281 C297 0.959 . S
H282 C297 0.959 . S
H283 C297 0.961 . S
H284 C298 0.960 . S
H285 C298 0.961 1_554 S
H286 C298 0.959 . S
H287 C301 0.929 . S
H288 C302 0.931 . S
H289 C304 0.930 . S
C290 H278 0.930 . S
C290 C291 1.399 . S
C290 C295 1.399 . S
C291 C290 1.399 . S
C291 C292 1.376 . S
C292 H279 0.930 . S
C292 C291 1.376 . S
C292 C293 1.388 . S
C293 H280 0.930 . S
C293 C292 1.388 . S
C293 C294 1.390 . S
C294 C293 1.390 . S
C294 C295 1.394 . S
C294 C300 1.465 . S
C295 C290 1.399 . S
C295 C294 1.394 . S
C295 C296 1.516 1_556 S
C296 C295 1.516 1_554 S
C296 C297 1.502 . S
C296 C298 1.561 1_554 S
C296 C299 1.526 . S
C297 H281 0.959 . S
C297 H282 0.959 . S
C297 H283 0.961 . S
C297 C296 1.502 . S
C298 H284 0.960 . S
C298 H285 0.961 1_556 S
C298 H286 0.959 . S
C298 C296 1.561 1_556 S
C299 C296 1.526 . S
C299 C300 1.396 1_554 S
C299 C304 1.390 . S
C300 C294 1.465 . S
C300 C299 1.396 1_556 S
C300 C301 1.399 . S
C301 H287 0.929 . S
C301 C300 1.399 . S
C301 C302 1.385 1_556 S
C302 H288 0.931 . S
C302 C301 1.385 1_554 S
C302 C303 1.389 . S
C303 C302 1.389 . S
C303 C304 1.387 . S
C304 H289 0.930 . S
C304 C299 1.390 . S
C304 C303 1.387 . S
H305 C317 0.930 . S
H306 C319 0.930 . S
H307 C320 0.930 . S
H308 C324 0.959 . S
H309 C324 0.959 . S
H310 C324 0.961 . S
H311 C325 0.960 . S
H312 C325 0.961 . S
H313 C325 0.959 . S
H314 C328 0.929 . S
H315 C329 0.931 . S
H316 C331 0.930 . S
C317 H305 0.930 . S
C317 C318 1.399 . S
C317 C322 1.399 . S
C318 C317 1.399 . S
C318 C319 1.376 . S
C319 H306 0.930 . S
C319 C318 1.376 . S
C319 C320 1.388 . S
C320 H307 0.930 . S
C320 C319 1.388 . S
C320 C321 1.390 . S
C321 C320 1.390 . S
C321 C322 1.394 . S
C321 C327 1.465 . S
C322 C317 1.399 . S
C322 C321 1.394 . S
C322 C323 1.516 1_556 S
C323 C322 1.516 1_554 S
C323 C324 1.502 . S
C323 C325 1.561 . S
C323 C326 1.526 . S
C324 H308 0.959 . S
C324 H309 0.959 . S
C324 H310 0.961 . S
C324 C323 1.502 . S
C325 H311 0.960 . S
C325 H312 0.961 . S
C325 H313 0.959 . S
C325 C323 1.561 . S
C326 C323 1.526 . S
C326 C327 1.396 1_554 S
C326 C331 1.390 . S
C327 C321 1.465 . S
C327 C326 1.396 1_556 S
C327 C328 1.399 . S
C328 H314 0.929 . S
C328 C327 1.399 . S
C328 C329 1.385 1_556 S
C329 H315 0.931 . S
C329 C328 1.385 1_554 S
C329 C330 1.389 . S
C330 C329 1.389 . S
C330 C331 1.387 . S
C331 H316 0.930 . S
C331 C326 1.390 . S
C331 C330 1.387 . S
H332 C344 0.930 . S
H333 C346 0.930 . S
H334 C347 0.930 . S
H335 C351 0.959 . S
H336 C351 0.959 . S
H337 C351 0.961 . S
H338 C352 0.960 . S
H339 C352 0.961 . S
H340 C352 0.959 . S
H341 C355 0.929 . S
H342 C356 0.931 . S
H343 C358 0.930 . S
C344 H332 0.930 . S
C344 C345 1.399 . S
C344 C349 1.399 . S
C345 C344 1.399 . S
C345 C346 1.376 . S
C346 H333 0.930 . S
C346 C345 1.376 . S
C346 C347 1.388 . S
C347 H334 0.930 . S
C347 C346 1.388 . S
C347 C348 1.390 . S
C348 C347 1.390 . S
C348 C349 1.394 . S
C348 C354 1.465 . S
C349 C344 1.399 . S
C349 C348 1.394 . S
C349 C350 1.516 . S
C350 C349 1.516 . S
C350 C351 1.502 . S
C350 C352 1.561 . S
C350 C353 1.526 . S
C351 H335 0.959 . S
C351 H336 0.959 . S
C351 H337 0.961 . S
C351 C350 1.502 . S
C352 H338 0.960 . S
C352 H339 0.961 . S
C352 H340 0.959 . S
C352 C350 1.561 . S
C353 C350 1.526 . S
C353 C354 1.396 . S
C353 C358 1.390 . S
C354 C348 1.465 . S
C354 C353 1.396 . S
C354 C355 1.399 . S
C355 H341 0.929 . S
C355 C354 1.399 . S
C355 C356 1.385 . S
C356 H342 0.931 . S
C356 C355 1.385 . S
C356 C357 1.389 . S
C357 C356 1.389 . S
C357 C358 1.387 . S
C358 H343 0.930 . S
C358 C353 1.390 . S
C358 C357 1.387 . S
H359 C371 0.930 . S
H360 C373 0.930 . S
H361 C374 0.930 . S
H362 C378 0.959 . S
H363 C378 0.959 . S
H364 C378 0.961 . S
H365 C379 0.960 . S
H366 C379 0.961 . S
H367 C379 0.959 . S
H368 C382 0.929 . S
H369 C383 0.931 . S
H370 C385 0.930 . S
C371 H359 0.930 . S
C371 C372 1.399 . S
C371 C376 1.399 . S
C372 C371 1.399 . S
C372 C373 1.376 . S
C373 H360 0.930 . S
C373 C372 1.376 . S
C373 C374 1.388 . S
C374 H361 0.930 . S
C374 C373 1.388 . S
C374 C375 1.390 . S
C375 C374 1.390 . S
C375 C376 1.394 . S
C375 C381 1.465 . S
C376 C371 1.399 . S
C376 C375 1.394 . S
C376 C377 1.516 . S
C377 C376 1.516 . S
C377 C378 1.502 . S
C377 C379 1.561 . S
C377 C380 1.526 . S
C378 H362 0.959 . S
C378 H363 0.959 . S
C378 H364 0.961 . S
C378 C377 1.502 . S
C379 H365 0.960 . S
C379 H366 0.961 . S
C379 H367 0.959 . S
C379 C377 1.561 . S
C380 C377 1.526 . S
C380 C381 1.396 . S
C380 C385 1.390 . S
C381 C375 1.465 . S
C381 C380 1.396 . S
C381 C382 1.399 . S
C382 H368 0.929 . S
C382 C381 1.399 . S
C382 C383 1.385 . S
C383 H369 0.931 . S
C383 C382 1.385 . S
C383 C384 1.389 . S
C384 C383 1.389 . S
C384 C385 1.387 . S
C385 H370 0.930 . S
C385 C380 1.390 . S
C385 C384 1.387 . S
H386 C398 0.930 . S
H387 C400 0.930 . S
H388 C401 0.930 . S
H389 C405 0.959 . S
H390 C405 0.959 . S
H391 C405 0.961 . S
H392 C406 0.960 . S
H393 C406 0.961 . S
H394 C406 0.959 . S
H395 C409 0.929 . S
H396 C410 0.931 . S
H397 C412 0.930 . S
C398 H386 0.930 . S
C398 C399 1.399 . S
C398 C403 1.399 . S
C399 C398 1.399 . S
C399 C400 1.376 . S
C400 H387 0.930 . S
C400 C399 1.376 . S
C400 C401 1.388 . S
C401 H388 0.930 . S
C401 C400 1.388 . S
C401 C402 1.390 . S
C402 C401 1.390 . S
C402 C403 1.394 . S
C402 C408 1.465 . S
C403 C398 1.399 . S
C403 C402 1.394 . S
C403 C404 1.516 . S
C404 C403 1.516 . S
C404 C405 1.502 . S
C404 C406 1.561 . S
C404 C407 1.526 . S
C405 H389 0.959 . S
C405 H390 0.959 . S
C405 H391 0.961 . S
C405 C404 1.502 . S
C406 H392 0.960 . S
C406 H393 0.961 . S
C406 H394 0.959 . S
C406 C404 1.561 . S
C407 C404 1.526 . S
C407 C408 1.396 . S
C407 C412 1.390 . S
C408 C402 1.465 . S
C408 C407 1.396 . S
C408 C409 1.399 . S
C409 H395 0.929 . S
C409 C408 1.399 . S
C409 C410 1.385 . S
C410 H396 0.931 . S
C410 C409 1.385 . S
C410 C411 1.389 . S
C411 C410 1.389 . S
C411 C412 1.387 . S
C412 H397 0.930 . S
C412 C407 1.390 . S
C412 C411 1.387 . S
H413 C425 0.930 . S
H414 C427 0.930 . S
H415 C428 0.930 . S
H416 C432 0.959 . S
H417 C432 0.959 . S
H418 C432 0.961 . S
H419 C433 0.960 . S
H420 C433 0.961 . S
H421 C433 0.959 . S
H422 C436 0.929 . S
H423 C437 0.931 . S
H424 C439 0.930 . S
C425 H413 0.930 . S
C425 C426 1.399 . S
C425 C430 1.399 . S
C426 C425 1.399 . S
C426 C427 1.376 . S
C427 H414 0.930 . S
C427 C426 1.376 . S
C427 C428 1.388 . S
C428 H415 0.930 . S
C428 C427 1.388 . S
C428 C429 1.390 . S
C429 C428 1.390 . S
C429 C430 1.394 . S
C429 C435 1.465 . S
C430 C425 1.399 . S
C430 C429 1.394 . S
C430 C431 1.516 . S
C431 C430 1.516 . S
C431 C432 1.502 . S
C431 C433 1.561 . S
C431 C434 1.526 . S
C432 H416 0.959 . S
C432 H417 0.959 . S
C432 H418 0.961 . S
C432 C431 1.502 . S
C433 H419 0.960 . S
C433 H420 0.961 . S
C433 H421 0.959 . S
C433 C431 1.561 . S
C434 C431 1.526 . S
C434 C435 1.396 . S
C434 C439 1.390 . S
C435 C429 1.465 . S
C435 C434 1.396 . S
C435 C436 1.399 . S
C436 H422 0.929 . S
C436 C435 1.399 . S
C436 C437 1.385 . S
C437 H423 0.931 . S
C437 C436 1.385 . S
C437 C438 1.389 . S
C438 C437 1.389 . S
C438 C439 1.387 . S
C439 H424 0.930 . S
C439 C434 1.390 . S
C439 C438 1.387 . S
H440 C452 0.930 . S
H441 C454 0.930 . S
H442 C455 0.930 . S
H443 C459 0.959 1_556 S
H444 C459 0.959 . S
H445 C459 0.961 1_556 S
H446 C460 0.960 . S
H447 C460 0.961 . S
H448 C460 0.959 . S
H449 C463 0.929 . S
H450 C464 0.931 . S
H451 C466 0.930 . S
C452 H440 0.930 . S
C452 C453 1.399 . S
C452 C457 1.399 1_556 S
C453 C452 1.399 . S
C453 C454 1.376 . S
C454 H441 0.930 . S
C454 C453 1.376 . S
C454 C455 1.388 . S
C455 H442 0.930 . S
C455 C454 1.388 . S
C455 C456 1.390 1_556 S
C456 C455 1.390 1_554 S
C456 C457 1.394 . S
C456 C462 1.465 . S
C457 C452 1.399 1_554 S
C457 C456 1.394 . S
C457 C458 1.516 . S
C458 C457 1.516 . S
C458 C459 1.502 . S
C458 C460 1.561 . S
C458 C461 1.526 . S
C459 H443 0.959 1_554 S
C459 H444 0.959 . S
C459 H445 0.961 1_554 S
C459 C458 1.502 . S
C460 H446 0.960 . S
C460 H447 0.961 . S
C460 H448 0.959 . S
C460 C458 1.561 . S
C461 C458 1.526 . S
C461 C462 1.396 . S
C461 C466 1.390 . S
C462 C456 1.465 . S
C462 C461 1.396 . S
C462 C463 1.399 . S
C463 H449 0.929 . S
C463 C462 1.399 . S
C463 C464 1.385 . S
C464 H450 0.931 . S
C464 C463 1.385 . S
C464 C465 1.389 . S
C465 C464 1.389 . S
C465 C466 1.387 . S
C466 H451 0.930 . S
C466 C461 1.390 . S
C466 C465 1.387 . S
H467 C479 0.930 . S
H468 C481 0.930 . S
H469 C482 0.930 . S
H470 C486 0.959 1_554 S
H471 C486 0.959 . S
H472 C486 0.961 . S
H473 C487 0.960 . S
H474 C487 0.961 . S
H475 C487 0.959 . S
H476 C490 0.929 . S
H477 C491 0.931 . S
H478 C493 0.930 . S
C479 H467 0.930 . S
C479 C480 1.399 . S
C479 C484 1.399 . S
C480 C479 1.399 . S
C480 C481 1.376 . S
C481 H468 0.930 . S
C481 C480 1.376 . S
C481 C482 1.388 1_556 S
C482 H469 0.930 . S
C482 C481 1.388 1_554 S
C482 C483 1.390 . S
C483 C482 1.390 . S
C483 C484 1.394 1_554 S
C483 C489 1.465 . S
C484 C479 1.399 . S
C484 C483 1.394 1_556 S
C484 C485 1.516 . S
C485 C484 1.516 . S
C485 C486 1.502 . S
C485 C487 1.561 . S
C485 C488 1.526 1_556 S
C486 H470 0.959 1_556 S
C486 H471 0.959 . S
C486 H472 0.961 . S
C486 C485 1.502 . S
C487 H473 0.960 . S
C487 H474 0.961 . S
C487 H475 0.959 . S
C487 C485 1.561 . S
C488 C485 1.526 1_554 S
C488 C489 1.396 . S
C488 C493 1.390 . S
C489 C483 1.465 . S
C489 C488 1.396 . S
C489 C490 1.399 . S
C490 H476 0.929 . S
C490 C489 1.399 . S
C490 C491 1.385 . S
C491 H477 0.931 . S
C491 C490 1.385 . S
C491 C492 1.389 . S
C492 C491 1.389 . S
C492 C493 1.387 . S
C493 H478 0.930 . S
C493 C488 1.390 . S
C493 C492 1.387 . S
H494 C506 0.930 1_554 S
H495 C508 0.930 . S
H496 C509 0.930 . S
H497 C513 0.959 . S
H498 C513 0.959 . S
H499 C513 0.961 . S
H500 C514 0.960 . S
H501 C514 0.961 . S
H502 C514 0.959 . S
H503 C517 0.929 1_556 S
H504 C518 0.931 . S
H505 C520 0.930 . S
C506 H494 0.930 1_556 S
C506 C507 1.399 . S
C506 C511 1.399 1_556 S
C507 C506 1.399 . S
C507 C508 1.376 . S
C508 H495 0.930 . S
C508 C507 1.376 . S
C508 C509 1.388 . S
C509 H496 0.930 . S
C509 C508 1.388 . S
C509 C510 1.390 . S
C510 C509 1.390 . S
C510 C511 1.394 1_556 S
C510 C516 1.465 1_556 S
C511 C506 1.399 1_554 S
C511 C510 1.394 1_554 S
C511 C512 1.516 . S
C512 C511 1.516 . S
C512 C513 1.502 . S
C512 C514 1.561 . S
C512 C515 1.526 . S
C513 H497 0.959 . S
C513 H498 0.959 . S
C513 H499 0.961 . S
C513 C512 1.502 . S
C514 H500 0.960 . S
C514 H501 0.961 . S
C514 H502 0.959 . S
C514 C512 1.561 . S
C515 C512 1.526 . S
C515 C516 1.396 . S
C515 C520 1.390 . S
C516 C510 1.465 1_554 S
C516 C515 1.396 . S
C516 C517 1.399 . S
C517 H503 0.929 1_554 S
C517 C516 1.399 . S
C517 C518 1.385 . S
C518 H504 0.931 . S
C518 C517 1.385 . S
C518 C519 1.389 . S
C519 C518 1.389 . S
C519 C520 1.387 . S
C520 H505 0.930 . S
C520 C515 1.390 . S
C520 C519 1.387 . S
H521 C533 0.930 . S
H522 C535 0.930 . S
H523 C536 0.930 1_556 S
H524 C540 0.959 . S
H525 C540 0.959 . S
H526 C540 0.961 . S
H527 C541 0.960 . S
H528 C541 0.961 . S
H529 C541 0.959 . S
H530 C544 0.929 . S
H531 C545 0.931 . S
H532 C547 0.930 1_554 S
C533 H521 0.930 . S
C533 C534 1.399 . S
C533 C538 1.399 . S
C534 C533 1.399 . S
C534 C535 1.376 . S
C535 H522 0.930 . S
C535 C534 1.376 . S
C535 C536 1.388 . S
C536 H523 0.930 1_554 S
C536 C535 1.388 . S
C536 C537 1.390 . S
C537 C536 1.390 . S
C537 C538 1.394 . S
C537 C543 1.465 1_554 S
C538 C533 1.399 . S
C538 C537 1.394 . S
C538 C539 1.516 . S
C539 C538 1.516 . S
C539 C540 1.502 . S
C539 C541 1.561 . S
C539 C542 1.526 . S
C540 H524 0.959 . S
C540 H525 0.959 . S
C540 H526 0.961 . S
C540 C539 1.502 . S
C541 H527 0.960 . S
C541 H528 0.961 . S
C541 H529 0.959 . S
C541 C539 1.561 . S
C542 C539 1.526 . S
C542 C543 1.396 1_554 S
C542 C547 1.390 1_554 S
C543 C537 1.465 1_556 S
C543 C542 1.396 1_556 S
C543 C544 1.399 . S
C544 H530 0.929 . S
C544 C543 1.399 . S
C544 C545 1.385 . S
C545 H531 0.931 . S
C545 C544 1.385 . S
C545 C546 1.389 . S
C546 C545 1.389 . S
C546 C547 1.387 . S
C547 H532 0.930 1_556 S
C547 C542 1.390 1_556 S
C547 C546 1.387 . S
H548 C560 0.930 . S
H549 C562 0.930 . S
H550 C563 0.930 . S
H551 C567 0.959 . S
H552 C567 0.959 . S
H553 C567 0.961 . S
H554 C568 0.960 . S
H555 C568 0.961 . S
H556 C568 0.959 . S
H557 C571 0.929 . S
H558 C572 0.931 . S
H559 C574 0.930 . S
C560 H548 0.930 . S
C560 C561 1.399 . S
C560 C565 1.399 . S
C561 C560 1.399 . S
C561 C562 1.376 . S
C562 H549 0.930 . S
C562 C561 1.376 . S
C562 C563 1.388 . S
C563 H550 0.930 . S
C563 C562 1.388 . S
C563 C564 1.390 . S
C564 C563 1.390 . S
C564 C565 1.394 . S
C564 C570 1.465 . S
C565 C560 1.399 . S
C565 C564 1.394 . S
C565 C566 1.516 . S
C566 C565 1.516 . S
C566 C567 1.502 . S
C566 C568 1.561 . S
C566 C569 1.526 . S
C567 H551 0.959 . S
C567 H552 0.959 . S
C567 H553 0.961 . S
C567 C566 1.502 . S
C568 H554 0.960 . S
C568 H555 0.961 . S
C568 H556 0.959 . S
C568 C566 1.561 . S
C569 C566 1.526 . S
C569 C570 1.396 . S
C569 C574 1.390 . S
C570 C564 1.465 . S
C570 C569 1.396 . S
C570 C571 1.399 . S
C571 H557 0.929 . S
C571 C570 1.399 . S
C571 C572 1.385 . S
C572 H558 0.931 . S
C572 C571 1.385 . S
C572 C573 1.389 . S
C573 C572 1.389 . S
C573 C574 1.387 . S
C574 H559 0.930 . S
C574 C569 1.390 . S
C574 C573 1.387 . S
H575 C587 0.930 . S
H576 C589 0.930 . S
H577 C590 0.930 . S
H578 C594 0.959 . S
H579 C594 0.959 . S
H580 C594 0.961 . S
H581 C595 0.960 . S
H582 C595 0.961 . S
H583 C595 0.959 . S
H584 C598 0.929 . S
H585 C599 0.931 . S
H586 C601 0.930 . S
C587 H575 0.930 . S
C587 C588 1.399 . S
C587 C592 1.399 . S
C588 C587 1.399 . S
C588 C589 1.376 . S
C589 H576 0.930 . S
C589 C588 1.376 . S
C589 C590 1.388 . S
C590 H577 0.930 . S
C590 C589 1.388 . S
C590 C591 1.390 . S
C591 C590 1.390 . S
C591 C592 1.394 . S
C591 C597 1.465 . S
C592 C587 1.399 . S
C592 C591 1.394 . S
C592 C593 1.516 . S
C593 C592 1.516 . S
C593 C594 1.502 . S
C593 C595 1.561 . S
C593 C596 1.526 . S
C594 H578 0.959 . S
C594 H579 0.959 . S
C594 H580 0.961 . S
C594 C593 1.502 . S
C595 H581 0.960 . S
C595 H582 0.961 . S
C595 H583 0.959 . S
C595 C593 1.561 . S
C596 C593 1.526 . S
C596 C597 1.396 . S
C596 C601 1.390 . S
C597 C591 1.465 . S
C597 C596 1.396 . S
C597 C598 1.399 . S
C598 H584 0.929 . S
C598 C597 1.399 . S
C598 C599 1.385 . S
C599 H585 0.931 . S
C599 C598 1.385 . S
C599 C600 1.389 . S
C600 C599 1.389 . S
C600 C601 1.387 . S
C601 H586 0.930 . S
C601 C596 1.390 . S
C601 C600 1.387 . S
H602 C614 0.930 . S
H603 C616 0.930 . S
H604 C617 0.930 . S
H605 C621 0.959 . S
H606 C621 0.959 . S
H607 C621 0.961 . S
H608 C622 0.960 . S
H609 C622 0.961 . S
H610 C622 0.959 . S
H611 C625 0.929 . S
H612 C626 0.931 . S
H613 C628 0.930 . S
C614 H602 0.930 . S
C614 C615 1.399 . S
C614 C619 1.399 . S
C615 C614 1.399 . S
C615 C616 1.376 . S
C616 H603 0.930 . S
C616 C615 1.376 . S
C616 C617 1.388 . S
C617 H604 0.930 . S
C617 C616 1.388 . S
C617 C618 1.390 . S
C618 C617 1.390 . S
C618 C619 1.394 . S
C618 C624 1.465 . S
C619 C614 1.399 . S
C619 C618 1.394 . S
C619 C620 1.516 . S
C620 C619 1.516 . S
C620 C621 1.502 . S
C620 C622 1.561 . S
C620 C623 1.526 . S
C621 H605 0.959 . S
C621 H606 0.959 . S
C621 H607 0.961 . S
C621 C620 1.502 . S
C622 H608 0.960 . S
C622 H609 0.961 . S
C622 H610 0.959 . S
C622 C620 1.561 . S
C623 C620 1.526 . S
C623 C624 1.396 . S
C623 C628 1.390 . S
C624 C618 1.465 . S
C624 C623 1.396 . S
C624 C625 1.399 . S
C625 H611 0.929 . S
C625 C624 1.399 . S
C625 C626 1.385 . S
C626 H612 0.931 . S
C626 C625 1.385 . S
C626 C627 1.389 . S
C627 C626 1.389 . S
C627 C628 1.387 . S
C628 H613 0.930 . S
C628 C623 1.390 . S
C628 C627 1.387 . S
H629 C641 0.930 . S
H630 C643 0.930 . S
H631 C644 0.930 . S
H632 C648 0.959 . S
H633 C648 0.959 . S
H634 C648 0.961 . S
H635 C649 0.960 . S
H636 C649 0.961 . S
H637 C649 0.959 . S
H638 C652 0.929 . S
H639 C653 0.931 . S
H640 C655 0.930 . S
C641 H629 0.930 . S
C641 C642 1.399 . S
C641 C646 1.399 . S
C642 C641 1.399 . S
C642 C643 1.376 . S
C643 H630 0.930 . S
C643 C642 1.376 . S
C643 C644 1.388 . S
C644 H631 0.930 . S
C644 C643 1.388 . S
C644 C645 1.390 . S
C645 C644 1.390 . S
C645 C646 1.394 . S
C645 C651 1.465 . S
C646 C641 1.399 . S
C646 C645 1.394 . S
C646 C647 1.516 . S
C647 C646 1.516 . S
C647 C648 1.502 . S
C647 C649 1.561 . S
C647 C650 1.526 . S
C648 H632 0.959 . S
C648 H633 0.959 . S
C648 H634 0.961 . S
C648 C647 1.502 . S
C649 H635 0.960 . S
C649 H636 0.961 . S
C649 H637 0.959 . S
C649 C647 1.561 . S
C650 C647 1.526 . S
C650 C651 1.396 . S
C650 C655 1.390 . S
C651 C645 1.465 . S
C651 C650 1.396 . S
C651 C652 1.399 . S
C652 H638 0.929 . S
C652 C651 1.399 . S
C652 C653 1.385 . S
C653 H639 0.931 . S
C653 C652 1.385 . S
C653 C654 1.389 . S
C654 C653 1.389 . S
C654 C655 1.387 . S
C655 H640 0.930 . S
C655 C650 1.390 . S
C655 C654 1.387 . S
H656 C668 0.930 . S
H657 C670 0.930 1_554 S
H658 C671 0.930 . S
H659 C675 0.959 . S
H660 C675 0.959 . S
H661 C675 0.961 . S
H662 C676 0.960 . S
H663 C676 0.961 . S
H664 C676 0.959 . S
H665 C679 0.931 1_565 S
H666 C680 0.931 . S
H667 C682 0.930 . S
C668 H656 0.930 . S
C668 C669 1.399 . S
C668 C673 1.399 . S
C669 C668 1.399 . S
C669 C670 1.376 . S
C670 H657 0.930 1_556 S
C670 C669 1.376 . S
C670 C671 1.388 1_556 S
C671 H658 0.930 . S
C671 C670 1.388 1_554 S
C671 C672 1.390 . S
C672 C671 1.390 . S
C672 C673 1.394 1_554 S
C672 C678 1.465 . S
C673 C668 1.399 . S
C673 C672 1.394 1_556 S
C673 C674 1.516 1_565 S
C674 C673 1.516 1_545 S
C674 C675 1.502 . S
C674 C676 1.561 . S
C674 C677 1.526 1_556 S
C675 H659 0.959 . S
C675 H660 0.959 . S
C675 H661 0.961 . S
C675 C674 1.502 . S
C676 H662 0.960 . S
C676 H663 0.961 . S
C676 H664 0.959 . S
C676 C674 1.561 . S
C677 C674 1.526 1_554 S
C677 C678 1.396 1_545 S
C677 C682 1.390 . S
C678 C672 1.465 . S
C678 C677 1.396 1_565 S
C678 C679 1.399 1_565 S
C679 H665 0.931 1_545 S
C679 C678 1.399 1_545 S
C679 C680 1.383 . S
C680 H666 0.931 . S
C680 C679 1.383 . S
C680 C681 1.389 . S
C681 C680 1.389 . S
C681 C682 1.387 . S
C682 H667 0.930 . S
C682 C677 1.390 . S
C682 C681 1.387 . S
H683 C695 0.930 . S
H684 C697 0.930 . S
H685 C698 0.930 . S
H686 C702 0.959 . S
H687 C702 0.959 . S
H688 C702 0.961 . S
H689 C703 0.960 . S
H690 C703 0.961 . S
H691 C703 0.959 . S
H692 C706 0.929 . S
H693 C707 0.931 . S
H694 C709 0.930 1_554 S
C695 H683 0.930 . S
C695 C696 1.399 . S
C695 C700 1.399 . S
C696 C695 1.399 . S
C696 C697 1.376 . S
C697 H684 0.930 . S
C697 C696 1.376 . S
C697 C698 1.388 1_554 S
C698 H685 0.930 . S
C698 C697 1.388 1_556 S
C698 C699 1.390 . S
C699 C698 1.390 . S
C699 C700 1.394 1_556 S
C699 C705 1.465 . S
C700 C695 1.399 . S
C700 C699 1.394 1_554 S
C700 C701 1.516 . S
C701 C700 1.516 . S
C701 C702 1.502 . S
C701 C703 1.561 . S
C701 C704 1.550 . S
C702 H686 0.959 . S
C702 H687 0.959 . S
C702 H688 0.961 . S
C702 C701 1.502 . S
C703 H689 0.960 . S
C703 H690 0.961 . S
C703 H691 0.959 . S
C703 C701 1.561 . S
C704 C701 1.550 . S
C704 C705 1.380 1_554 S
C704 C709 1.381 1_554 S
C705 C699 1.465 . S
C705 C704 1.380 1_556 S
C705 C706 1.399 . S
C706 H692 0.929 . S
C706 C705 1.399 . S
C706 C707 1.385 . S
C707 H693 0.931 . S
C707 C706 1.385 . S
C707 C708 1.389 . S
C708 C707 1.389 . S
C708 C709 1.387 . S
C709 H694 0.930 1_556 S
C709 C704 1.381 1_556 S
C709 C708 1.387 . S
H710 C722 0.930 . S
H711 C724 0.930 . S
H712 C725 0.930 . S
H713 C729 0.959 . S
H714 C729 0.959 . S
H715 C729 0.961 . S
H716 C730 0.960 . S
H717 C730 0.961 . S
H718 C730 0.959 1_455 S
H719 C733 0.929 . S
H720 C734 0.934 . S
H721 C736 0.930 . S
C722 H710 0.930 . S
C722 C723 1.399 1_655 S
C722 C727 1.399 . S
C723 C722 1.399 1_455 S
C723 C724 1.376 . S
C724 H711 0.930 . S
C724 C723 1.376 . S
C724 C725 1.388 1_556 S
C725 H712 0.930 . S
C725 C724 1.388 1_554 S
C725 C726 1.390 . S
C726 C725 1.390 . S
C726 C727 1.394 1_454 S
C726 C732 1.467 . S
C727 C722 1.399 . S
C727 C726 1.394 1_656 S
C727 C728 1.516 . S
C728 C727 1.516 . S
C728 C729 1.502 . S
C728 C730 1.561 . S
C728 C731 1.526 1_556 S
C729 H713 0.959 . S
C729 H714 0.959 . S
C729 H715 0.961 . S
C729 C728 1.502 . S
C730 H716 0.960 . S
C730 H717 0.961 . S
C730 H718 0.959 1_655 S
C730 C728 1.561 . S
C731 C728 1.526 1_554 S
C731 C732 1.392 1_655 S
C731 C736 1.390 . S
C732 C726 1.467 . S
C732 C731 1.392 1_455 S
C732 C733 1.400 . S
C733 H719 0.929 . S
C733 C732 1.400 . S
C733 C734 1.385 1_455 S
C734 H720 0.934 . S
C734 C733 1.385 1_655 S
C734 C735 1.389 . S
C735 C734 1.389 . S
C735 C736 1.387 . S
C736 H721 0.930 . S
C736 C731 1.390 . S
C736 C735 1.387 . S
H737 C749 0.930 . S
H738 C751 0.930 1_545 S
H739 C752 0.930 . S
H740 C756 0.959 . S
H741 C756 0.959 1_655 S
H742 C756 0.961 . S
H743 C757 0.960 1_554 S
H744 C757 0.961 . S
H745 C757 0.959 1_554 S
H746 C760 0.929 . S
H747 C761 0.931 . S
H748 C763 0.930 . S
C749 H737 0.930 . S
C749 C750 1.399 . S
C749 C754 1.399 . S
C750 C749 1.399 . S
C750 C751 1.376 . S
C751 H738 0.930 1_565 S
C751 C750 1.376 . S
C751 C752 1.388 1_565 S
C752 H739 0.930 . S
C752 C751 1.388 1_545 S
C752 C753 1.382 1_545 S
C753 C752 1.382 1_565 S
C753 C754 1.411 . S
C753 C759 1.459 1_465 S
C754 C749 1.399 . S
C754 C753 1.411 . S
C754 C755 1.516 1_454 S
C755 C754 1.516 1_656 S
C755 C756 1.502 1_655 S
C755 C757 1.561 . S
C755 C758 1.526 . S
C756 H740 0.959 . S
C756 H741 0.959 1_455 S
C756 H742 0.961 . S
C756 C755 1.502 1_455 S
C757 H743 0.960 1_556 S
C757 H744 0.961 . S
C757 H745 0.959 1_556 S
C757 C755 1.561 . S
C758 C755 1.526 . S
C758 C759 1.396 1_566 S
C758 C763 1.390 . S
C759 C753 1.459 1_645 S
C759 C758 1.396 1_544 S
C759 C760 1.399 . S
C760 H746 0.929 . S
C760 C759 1.399 . S
C760 C761 1.385 1_554 S
C761 H747 0.931 . S
C761 C760 1.385 1_556 S
C761 C762 1.389 . S
C762 C761 1.389 . S
C762 C763 1.387 1_545 S
C763 H748 0.930 . S
C763 C758 1.390 . S
C763 C762 1.387 1_565 S
H764 C776 0.930 . S
H765 C778 0.930 . S
H766 C779 0.930 . S
H767 C783 0.959 . S
H768 C783 0.959 . S
H769 C783 0.961 . S
H770 C784 0.960 . S
H771 C784 0.961 . S
H772 C784 0.959 . S
H773 C787 0.929 . S
H774 C788 0.931 . S
H775 C790 0.930 . S
C776 H764 0.930 . S
C776 C777 1.399 . S
C776 C781 1.399 . S
C777 C776 1.399 . S
C777 C778 1.376 . S
C778 H765 0.930 . S
C778 C777 1.376 . S
C778 C779 1.388 . S
C779 H766 0.930 . S
C779 C778 1.388 . S
C779 C780 1.390 . S
C780 C779 1.390 . S
C780 C781 1.394 . S
C780 C786 1.465 . S
C781 C776 1.399 . S
C781 C780 1.394 . S
C781 C782 1.516 . S
C782 C781 1.516 . S
C782 C783 1.502 . S
C782 C784 1.561 . S
C782 C785 1.526 . S
C783 H767 0.959 . S
C783 H768 0.959 . S
C783 H769 0.961 . S
C783 C782 1.502 . S
C784 H770 0.960 . S
C784 H771 0.961 . S
C784 H772 0.959 . S
C784 C782 1.561 . S
C785 C782 1.526 . S
C785 C786 1.396 . S
C785 C790 1.390 . S
C786 C780 1.465 . S
C786 C785 1.396 . S
C786 C787 1.399 . S
C787 H773 0.929 . S
C787 C786 1.399 . S
C787 C788 1.385 . S
C788 H774 0.931 . S
C788 C787 1.385 . S
C788 C789 1.389 . S
C789 C788 1.389 . S
C789 C790 1.387 . S
C790 H775 0.930 . S
C790 C785 1.390 . S
C790 C789 1.387 . S
H791 C803 0.930 . S
H792 C805 0.930 . S
H793 C806 0.930 . S
H794 C810 0.959 . S
H795 C810 0.959 . S
H796 C810 0.961 . S
H797 C811 0.960 . S
H798 C811 0.961 . S
H799 C811 0.959 . S
H800 C814 0.929 1_455 S
H801 C815 0.931 . S
H802 C817 0.930 . S
C803 H791 0.930 . S
C803 C804 1.399 . S
C803 C808 1.399 . S
C804 C803 1.399 . S
C804 C805 1.376 . S
C805 H792 0.930 . S
C805 C804 1.376 . S
C805 C806 1.388 . S
C806 H793 0.930 . S
C806 C805 1.388 . S
C806 C807 1.390 . S
C807 C806 1.390 . S
C807 C808 1.394 . S
C807 C813 1.465 1_455 S
C808 C803 1.399 . S
C808 C807 1.394 . S
C808 C809 1.516 1_455 S
C809 C808 1.516 1_655 S
C809 C810 1.502 . S
C809 C811 1.561 . S
C809 C812 1.526 . S
C810 H794 0.959 . S
C810 H795 0.959 . S
C810 H796 0.961 . S
C810 C809 1.502 . S
C811 H797 0.960 . S
C811 H798 0.961 . S
C811 H799 0.959 . S
C811 C809 1.561 . S
C812 C809 1.526 . S
C812 C813 1.396 . S
C812 C817 1.390 . S
C813 C807 1.465 1_655 S
C813 C812 1.396 . S
C813 C814 1.399 . S
C814 H800 0.929 1_655 S
C814 C813 1.399 . S
C814 C815 1.385 . S
C815 H801 0.931 . S
C815 C814 1.385 . S
C815 C816 1.389 . S
C816 C815 1.389 . S
C816 C817 1.387 . S
C817 H802 0.930 . S
C817 C812 1.390 . S
C817 C816 1.387 . S
H818 C830 0.930 1_655 S
H819 C832 0.930 . S
H820 C833 0.930 . S
H821 C837 0.959 1_565 S
H822 C837 0.959 . S
H823 C837 0.961 1_565 S
H824 C838 0.960 . S
H825 C838 0.961 1_655 S
H826 C838 0.959 . S
H827 C841 0.929 1_465 S
H828 C842 0.931 . S
H829 C844 0.930 . S
C830 H818 0.930 1_455 S
C830 C831 1.399 . S
C830 C835 1.399 1_455 S
C831 C830 1.399 . S
C831 C832 1.376 . S
C832 H819 0.930 . S
C832 C831 1.376 . S
C832 C833 1.388 . S
C833 H820 0.930 . S
C833 C832 1.388 . S
C833 C834 1.390 . S
C834 C833 1.390 . S
C834 C835 1.394 1_455 S
C834 C840 1.465 1_465 S
C835 C830 1.399 1_655 S
C835 C834 1.394 1_655 S
C835 C836 1.516 1_565 S
C836 C835 1.516 1_545 S
C836 C837 1.502 . S
C836 C838 1.561 1_655 S
C836 C839 1.526 . S
C837 H821 0.959 1_545 S
C837 H822 0.959 . S
C837 H823 0.961 1_545 S
C837 C836 1.502 . S
C838 H824 0.960 . S
C838 H825 0.961 1_455 S
C838 H826 0.959 . S
C838 C836 1.561 1_455 S
C839 C836 1.526 . S
C839 C840 1.396 . S
C839 C844 1.390 . S
C840 C834 1.465 1_645 S
C840 C839 1.396 . S
C840 C841 1.399 . S
C841 H827 0.929 1_645 S
C841 C840 1.399 . S
C841 C842 1.385 . S
C842 H828 0.931 . S
C842 C841 1.385 . S
C842 C843 1.389 . S
C843 C842 1.389 . S
C843 C844 1.387 . S
C844 H829 0.930 . S
C844 C839 1.390 . S
C844 C843 1.387 . S
H845 C857 0.930 . S
H846 C859 0.930 . S
H847 C860 0.930 . S
H848 C864 0.959 . S
H849 C864 0.959 . S
H850 C864 0.961 . S
H851 C865 0.960 . S
H852 C865 0.961 . S
H853 C865 0.959 . S
H854 C868 0.929 . S
H855 C869 0.931 . S
H856 C871 0.930 . S
C857 H845 0.930 . S
C857 C858 1.399 1_565 S
C857 C862 1.399 . S
C858 C857 1.399 1_545 S
C858 C859 1.376 . S
C859 H846 0.930 . S
C859 C858 1.376 . S
C859 C860 1.388 . S
C860 H847 0.930 . S
C860 C859 1.388 . S
C860 C861 1.390 . S
C861 C860 1.390 . S
C861 C862 1.394 1_545 S
C861 C867 1.465 . S
C862 C857 1.399 . S
C862 C861 1.394 1_565 S
C862 C863 1.516 . S
C863 C862 1.516 . S
C863 C864 1.502 . S
C863 C865 1.561 . S
C863 C866 1.526 . S
C864 H848 0.959 . S
C864 H849 0.959 . S
C864 H850 0.961 . S
C864 C863 1.502 . S
C865 H851 0.960 . S
C865 H852 0.961 . S
C865 H853 0.959 . S
C865 C863 1.561 . S
C866 C863 1.526 . S
C866 C867 1.396 1_565 S
C866 C871 1.390 . S
C867 C861 1.465 . S
C867 C866 1.396 1_545 S
C867 C868 1.399 . S
C868 H854 0.929 . S
C868 C867 1.399 . S
C868 C869 1.385 . S
C869 H855 0.931 . S
C869 C868 1.385 . S
C869 C870 1.389 1_545 S
C870 C869 1.389 1_565 S
C870 C871 1.387 . S
C871 H856 0.930 . S
C871 C866 1.390 . S
C871 C870 1.387 . S
H872 C884 0.930 . S
H873 C886 0.930 . S
H874 C887 0.930 . S
H875 C891 0.959 . S
H876 C891 0.959 . S
H877 C891 0.961 . S
H878 C892 0.960 . S
H879 C892 0.961 . S
H880 C892 0.959 . S
H881 C895 0.929 . S
H882 C896 0.931 . S
H883 C898 0.930 . S
C884 H872 0.930 . S
C884 C885 1.399 . S
C884 C889 1.399 . S
C885 C884 1.399 . S
C885 C886 1.376 . S
C886 H873 0.930 . S
C886 C885 1.376 . S
C886 C887 1.388 . S
C887 H874 0.930 . S
C887 C886 1.388 . S
C887 C888 1.390 . S
C888 C887 1.390 . S
C888 C889 1.394 . S
C888 C894 1.465 . S
C889 C884 1.399 . S
C889 C888 1.394 . S
C889 C890 1.516 . S
C890 C889 1.516 . S
C890 C891 1.502 . S
C890 C892 1.561 . S
C890 C893 1.526 . S
C891 H875 0.959 . S
C891 H876 0.959 . S
C891 H877 0.961 . S
C891 C890 1.502 . S
C892 H878 0.960 . S
C892 H879 0.961 . S
C892 H880 0.959 . S
C892 C890 1.561 . S
C893 C890 1.526 . S
C893 C894 1.396 . S
C893 C898 1.390 . S
C894 C888 1.465 . S
C894 C893 1.396 . S
C894 C895 1.399 . S
C895 H881 0.929 . S
C895 C894 1.399 . S
C895 C896 1.385 . S
C896 H882 0.931 . S
C896 C895 1.385 . S
C896 C897 1.389 . S
C897 C896 1.389 . S
C897 C898 1.387 . S
C898 H883 0.930 . S
C898 C893 1.390 . S
C898 C897 1.387 . S
H899 C911 0.930 . S
H900 C913 0.930 . S
H901 C914 0.930 . S
H902 C918 0.959 . S
H903 C918 0.959 . S
H904 C918 0.961 . S
H905 C919 0.960 . S
H906 C919 0.961 . S
H907 C919 0.959 . S
H908 C922 0.929 . S
H909 C923 0.931 . S
H910 C925 0.930 . S
C911 H899 0.930 . S
C911 C912 1.399 . S
C911 C916 1.399 . S
C912 C911 1.399 . S
C912 C913 1.376 . S
C913 H900 0.930 . S
C913 C912 1.376 . S
C913 C914 1.388 . S
C914 H901 0.930 . S
C914 C913 1.388 . S
C914 C915 1.390 . S
C915 C914 1.390 . S
C915 C916 1.394 . S
C915 C921 1.465 . S
C916 C911 1.399 . S
C916 C915 1.394 . S
C916 C917 1.516 . S
C917 C916 1.516 . S
C917 C918 1.502 . S
C917 C919 1.561 . S
C917 C920 1.526 . S
C918 H902 0.959 . S
C918 H903 0.959 . S
C918 H904 0.961 . S
C918 C917 1.502 . S
C919 H905 0.960 . S
C919 H906 0.961 . S
C919 H907 0.959 . S
C919 C917 1.561 . S
C920 C917 1.526 . S
C920 C921 1.396 . S
C920 C925 1.390 . S
C921 C915 1.465 . S
C921 C920 1.396 . S
C921 C922 1.399 . S
C922 H908 0.929 . S
C922 C921 1.399 . S
C922 C923 1.385 . S
C923 H909 0.931 . S
C923 C922 1.385 . S
C923 C924 1.389 . S
C924 C923 1.389 . S
C924 C925 1.387 . S
C925 H910 0.930 . S
C925 C920 1.390 . S
C925 C924 1.387 . S
H926 C938 0.930 . S
H927 C940 0.930 . S
H928 C941 0.930 . S
H929 C945 0.959 . S
H930 C945 0.959 . S
H931 C945 0.961 . S
H932 C946 0.960 . S
H933 C946 0.961 . S
H934 C946 0.959 . S
H935 C949 0.929 . S
H936 C950 0.931 . S
H937 C952 0.930 . S
C938 H926 0.930 . S
C938 C939 1.399 . S
C938 C943 1.399 . S
C939 C938 1.399 . S
C939 C940 1.376 . S
C940 H927 0.930 . S
C940 C939 1.376 . S
C940 C941 1.388 . S
C941 H928 0.930 . S
C941 C940 1.388 . S
C941 C942 1.390 . S
C942 C941 1.390 . S
C942 C943 1.394 . S
C942 C948 1.465 . S
C943 C938 1.399 . S
C943 C942 1.394 . S
C943 C944 1.516 . S
C944 C943 1.516 . S
C944 C945 1.502 . S
C944 C946 1.561 . S
C944 C947 1.526 . S
C945 H929 0.959 . S
C945 H930 0.959 . S
C945 H931 0.961 . S
C945 C944 1.502 . S
C946 H932 0.960 . S
C946 H933 0.961 . S
C946 H934 0.959 . S
C946 C944 1.561 . S
C947 C944 1.526 . S
C947 C948 1.396 . S
C947 C952 1.390 . S
C948 C942 1.465 . S
C948 C947 1.396 . S
C948 C949 1.399 . S
C949 H935 0.929 . S
C949 C948 1.399 . S
C949 C950 1.385 . S
C950 H936 0.931 . S
C950 C949 1.385 . S
C950 C951 1.389 . S
C951 C950 1.389 . S
C951 C952 1.387 . S
C952 H937 0.930 . S
C952 C947 1.390 . S
C952 C951 1.387 . S
H953 C965 0.930 . S
H954 C967 0.930 . S
H955 C968 0.930 . S
H956 C972 0.959 . S
H957 C972 0.959 . S
H958 C972 0.961 . S
H959 C973 0.960 . S
H960 C973 0.961 . S
H961 C973 0.959 . S
H962 C976 0.929 . S
H963 C977 0.931 . S
H964 C979 0.930 . S
C965 H953 0.930 . S
C965 C966 1.399 . S
C965 C970 1.399 . S
C966 C965 1.399 . S
C966 C967 1.376 . S
C967 H954 0.930 . S
C967 C966 1.376 . S
C967 C968 1.388 . S
C968 H955 0.930 . S
C968 C967 1.388 . S
C968 C969 1.390 . S
C969 C968 1.390 . S
C969 C970 1.394 . S
C969 C975 1.465 . S
C970 C965 1.399 . S
C970 C969 1.394 . S
C970 C971 1.516 . S
C971 C970 1.516 . S
C971 C972 1.502 . S
C971 C973 1.561 . S
C971 C974 1.526 . S
C972 H956 0.959 . S
C972 H957 0.959 . S
C972 H958 0.961 . S
C972 C971 1.502 . S
C973 H959 0.960 . S
C973 H960 0.961 . S
C973 H961 0.959 . S
C973 C971 1.561 . S
C974 C971 1.526 . S
C974 C975 1.396 . S
C974 C979 1.390 . S
C975 C969 1.465 . S
C975 C974 1.396 . S
C975 C976 1.399 . S
C976 H962 0.929 . S
C976 C975 1.399 . S
C976 C977 1.385 . S
C977 H963 0.931 . S
C977 C976 1.385 . S
C977 C978 1.389 . S
C978 C977 1.389 . S
C978 C979 1.387 . S
C979 H964 0.930 . S
C979 C974 1.390 . S
C979 C978 1.387 . S
H980 C992 0.930 . S
H981 C994 0.930 . S
H982 C995 0.930 . S
H983 C999 0.959 . S
H984 C999 0.959 . S
H985 C999 0.961 . S
H986 C1000 0.960 . S
H987 C1000 0.961 . S
H988 C1000 0.959 . S
H989 C1003 0.929 . S
H990 C1004 0.931 . S
H991 C1006 0.930 . S
C992 H980 0.930 . S
C992 C993 1.399 . S
C992 C997 1.399 . S
C993 C992 1.399 . S
C993 C994 1.376 . S
C994 H981 0.930 . S
C994 C993 1.376 . S
C994 C995 1.388 . S
C995 H982 0.930 . S
C995 C994 1.388 . S
C995 C996 1.390 . S
C996 C995 1.390 . S
C996 C997 1.394 . S
C996 C1002 1.465 . S
C997 C992 1.399 . S
C997 C996 1.394 . S
C997 C998 1.516 . S
C998 C997 1.516 . S
C998 C999 1.502 . S
C998 C1000 1.561 . S
C998 C1001 1.526 . S
C999 H983 0.959 . S
C999 H984 0.959 . S
C999 H985 0.961 . S
C999 C998 1.502 . S
C1000 H986 0.960 . S
C1000 H987 0.961 . S
C1000 H988 0.959 . S
C1000 C998 1.561 . S
C1001 C998 1.526 . S
C1001 C1002 1.396 . S
C1001 C1006 1.390 . S
C1002 C996 1.465 . S
C1002 C1001 1.396 . S
C1002 C1003 1.399 . S
C1003 H989 0.929 . S
C1003 C1002 1.399 . S
C1003 C1004 1.385 . S
C1004 H990 0.931 . S
C1004 C1003 1.385 . S
C1004 C1005 1.389 . S
C1005 C1004 1.389 . S
C1005 C1006 1.387 . S
C1006 H991 0.930 . S
C1006 C1001 1.390 . S
C1006 C1005 1.387 . S
H1007 C1019 0.930 . S
H1008 C1021 0.930 . S
H1009 C1022 0.930 . S
H1010 C1026 0.959 . S
H1011 C1026 0.959 . S
H1012 C1026 0.961 . S
H1013 C1027 0.960 . S
H1014 C1027 0.961 . S
H1015 C1027 0.959 . S
H1016 C1030 0.929 . S
H1017 C1031 0.931 . S
H1018 C1033 0.930 . S
C1019 H1007 0.930 . S
C1019 C1020 1.399 . S
C1019 C1024 1.399 . S
C1020 C1019 1.399 . S
C1020 C1021 1.376 . S
C1021 H1008 0.930 . S
C1021 C1020 1.376 . S
C1021 C1022 1.388 . S
C1022 H1009 0.930 . S
C1022 C1021 1.388 . S
C1022 C1023 1.390 . S
C1023 C1022 1.390 . S
C1023 C1024 1.394 . S
C1023 C1029 1.465 . S
C1024 C1019 1.399 . S
C1024 C1023 1.394 . S
C1024 C1025 1.516 . S
C1025 C1024 1.516 . S
C1025 C1026 1.502 . S
C1025 C1027 1.561 . S
C1025 C1028 1.526 . S
C1026 H1010 0.959 . S
C1026 H1011 0.959 . S
C1026 H1012 0.961 . S
C1026 C1025 1.502 . S
C1027 H1013 0.960 . S
C1027 H1014 0.961 . S
C1027 H1015 0.959 . S
C1027 C1025 1.561 . S
C1028 C1025 1.526 . S
C1028 C1029 1.396 . S
C1028 C1033 1.390 . S
C1029 C1023 1.465 . S
C1029 C1028 1.396 . S
C1029 C1030 1.399 . S
C1030 H1016 0.929 . S
C1030 C1029 1.399 . S
C1030 C1031 1.385 . S
C1031 H1017 0.931 . S
C1031 C1030 1.385 . S
C1031 C1032 1.389 . S
C1032 C1031 1.389 . S
C1032 C1033 1.387 . S
C1033 H1018 0.930 . S
C1033 C1028 1.390 . S
C1033 C1032 1.387 . S
H1034 C1046 0.930 . S
H1035 C1048 0.930 . S
H1036 C1049 0.930 . S
H1037 C1053 0.959 . S
H1038 C1053 0.959 . S
H1039 C1053 0.961 . S
H1040 C1054 0.960 . S
H1041 C1054 0.961 . S
H1042 C1054 0.959 . S
H1043 C1057 0.929 . S
H1044 C1058 0.931 . S
H1045 C1060 0.930 . S
C1046 H1034 0.930 . S
C1046 C1047 1.399 . S
C1046 C1051 1.399 . S
C1047 C1046 1.399 . S
C1047 C1048 1.376 . S
C1048 H1035 0.930 . S
C1048 C1047 1.376 . S
C1048 C1049 1.388 . S
C1049 H1036 0.930 . S
C1049 C1048 1.388 . S
C1049 C1050 1.390 . S
C1050 C1049 1.390 . S
C1050 C1051 1.394 . S
C1050 C1056 1.465 . S
C1051 C1046 1.399 . S
C1051 C1050 1.394 . S
C1051 C1052 1.516 . S
C1052 C1051 1.516 . S
C1052 C1053 1.502 . S
C1052 C1054 1.561 . S
C1052 C1055 1.526 . S
C1053 H1037 0.959 . S
C1053 H1038 0.959 . S
C1053 H1039 0.961 . S
C1053 C1052 1.502 . S
C1054 H1040 0.960 . S
C1054 H1041 0.961 . S
C1054 H1042 0.959 . S
C1054 C1052 1.561 . S
C1055 C1052 1.526 . S
C1055 C1056 1.396 . S
C1055 C1060 1.390 . S
C1056 C1050 1.465 . S
C1056 C1055 1.396 . S
C1056 C1057 1.399 . S
C1057 H1043 0.929 . S
C1057 C1056 1.399 . S
C1057 C1058 1.385 . S
C1058 H1044 0.931 . S
C1058 C1057 1.385 . S
C1058 C1059 1.389 . S
C1059 C1058 1.389 . S
C1059 C1060 1.387 . S
C1060 H1045 0.930 . S
C1060 C1055 1.390 . S
C1060 C1059 1.387 . S
H1061 C1073 0.930 . S
H1062 C1075 0.930 . S
H1063 C1076 0.930 . S
H1064 C1080 0.959 . S
H1065 C1080 0.959 1_565 S
H1066 C1080 0.961 1_565 S
H1067 C1081 0.960 . S
H1068 C1081 0.961 . S
H1069 C1081 0.959 . S
H1070 C1084 0.929 . S
H1071 C1085 0.931 . S
H1072 C1087 0.930 . S
C1073 H1061 0.930 . S
C1073 C1074 1.399 . S
C1073 C1078 1.399 . S
C1074 C1073 1.399 . S
C1074 C1075 1.376 . S
C1075 H1062 0.930 . S
C1075 C1074 1.376 . S
C1075 C1076 1.388 . S
C1076 H1063 0.930 . S
C1076 C1075 1.388 . S
C1076 C1077 1.390 . S
C1077 C1076 1.390 . S
C1077 C1078 1.394 . S
C1077 C1083 1.465 . S
C1078 C1073 1.399 . S
C1078 C1077 1.394 . S
C1078 C1079 1.516 . S
C1079 C1078 1.516 . S
C1079 C1080 1.502 . S
C1079 C1081 1.561 . S
C1079 C1082 1.526 . S
C1080 H1064 0.959 . S
C1080 H1065 0.959 1_545 S
C1080 H1066 0.961 1_545 S
C1080 C1079 1.502 . S
C1081 H1067 0.960 . S
C1081 H1068 0.961 . S
C1081 H1069 0.959 . S
C1081 C1079 1.561 . S
C1082 C1079 1.526 . S
C1082 C1083 1.396 . S
C1082 C1087 1.390 . S
C1083 C1077 1.465 . S
C1083 C1082 1.396 . S
C1083 C1084 1.399 . S
C1084 H1070 0.929 . S
C1084 C1083 1.399 . S
C1084 C1085 1.385 . S
C1085 H1071 0.931 . S
C1085 C1084 1.385 . S
C1085 C1086 1.389 . S
C1086 C1085 1.389 . S
C1086 C1087 1.387 . S
C1087 H1072 0.930 . S
C1087 C1082 1.390 . S
C1087 C1086 1.387 . S
C237 C12 0.578 . S
C249 C138 0.519 . S
C264 C152 0.600 . S
C276 C26 0.551 . S
C291 C166 0.582 . S
C303 C40 0.520 . S
C318 C124 0.590 . S
C330 C54 0.590 . S
C345 C68 0.576 . S
C357 C222 0.600 . S
C372 C180 0.562 . S
C384 C82 0.596 . S
C399 C194 0.502 . S
C411 C96 0.508 . S
C426 C208 0.525 . S
C438 C110 0.582 . S
C453 C116 0.635 . S
C465 C18 0.651 . S
C480 C130 0.782 . S
C492 C32 0.800 . S
C507 C144 0.731 . S
C519 C46 0.671 . S
C534 C4 0.690 . S
C546 C158 0.755 . S
C561 C172 0.702 . S
C573 C102 0.654 . S
C588 C186 0.649 . S
C600 C60 0.644 . S
C615 C74 0.668 . S
C627 C200 0.632 . S
C642 C214 0.648 . S
C654 C88 0.644 . S
C669 C123 1.310 . S
C681 C5 1.366 . S
C696 C19 1.341 . S
C708 C137 1.399 . S
C723 C151 1.295 . S
C735 C33 1.312 . S
C750 C47 1.323 . S
C762 C165 1.295 . S
C777 C179 1.405 . S
C789 C61 1.373 . S
C804 C75 1.295 . S
C816 C193 1.360 . S
C831 C207 1.294 . S
C843 C89 1.330 . S
C858 C221 1.307 . S
C870 C103 1.293 . S
C885 C67 1.731 . S
C897 C11 1.647 . S
C912 C81 1.699 . S
C924 C25 1.650 . S
C939 C39 1.631 . S
C951 C95 1.726 . S
C966 C109 1.684 . S
C978 C53 1.663 . S
C993 C117 1.534 . S
C1005 C173 1.610 . S
C1020 C187 1.552 . S
C1032 C131 1.616 . S
C1047 C201 1.534 . S
C1059 C145 1.623 . S
C1074 C215 1.574 . S
C1086 C159 1.563 . S
