# Generated by pormake.
# Topology zfc, (5)-cn, num edge types: 1
# Building blocks:
#     Node 0, Type 0, BuildingBlock: XOMCOT_clean_sbu_1, # of connection points: 5
#     Node 1, Type 0, BuildingBlock: XOMCOT_clean_sbu_1, # of connection points: 5
#     Node 2, Type 0, BuildingBlock: XOMCOT_clean_sbu_1, # of connection points: 5
#     Node 3, Type 0, BuildingBlock: XOMCOT_clean_sbu_1, # of connection points: 5
#     Node 4, Type 0, BuildingBlock: XOMCOT_clean_sbu_1, # of connection points: 5
#     Node 5, Type 0, BuildingBlock: XOMCOT_clean_sbu_1, # of connection points: 5
#     Node 6, Type 0, BuildingBlock: XOMCOT_clean_sbu_1, # of connection points: 5
#     Node 7, Type 0, BuildingBlock: XOMCOT_clean_sbu_1, # of connection points: 5
#     Node 8, Type 0, BuildingBlock: XOMCOT_clean_sbu_1, # of connection points: 5
#     Node 9, Type 0, BuildingBlock: XOMCOT_clean_sbu_1, # of connection points: 5
#     Node 10, Type 0, BuildingBlock: XOMCOT_clean_sbu_1, # of connection points: 5
#     Node 11, Type 0, BuildingBlock: XOMCOT_clean_sbu_1, # of connection points: 5
#     Node 12, Type 0, BuildingBlock: XOMCOT_clean_sbu_1, # of connection points: 5
#     Node 13, Type 0, BuildingBlock: XOMCOT_clean_sbu_1, # of connection points: 5
#     Node 14, Type 0, BuildingBlock: XOMCOT_clean_sbu_1, # of connection points: 5
#     Node 15, Type 0, BuildingBlock: XOMCOT_clean_sbu_1, # of connection points: 5
#     Edge 16, Type (0, 0), BuildingBlock: MIFKUJ_clean_linker_0, # of connection points: 2
#     Edge 17, Type (0, 0), BuildingBlock: MIFKUJ_clean_linker_0, # of connection points: 2
#     Edge 18, Type (0, 0), BuildingBlock: MIFKUJ_clean_linker_0, # of connection points: 2
#     Edge 19, Type (0, 0), BuildingBlock: MIFKUJ_clean_linker_0, # of connection points: 2
#     Edge 20, Type (0, 0), BuildingBlock: MIFKUJ_clean_linker_0, # of connection points: 2
#     Edge 21, Type (0, 0), BuildingBlock: MIFKUJ_clean_linker_0, # of connection points: 2
#     Edge 22, Type (0, 0), BuildingBlock: MIFKUJ_clean_linker_0, # of connection points: 2
#     Edge 23, Type (0, 0), BuildingBlock: MIFKUJ_clean_linker_0, # of connection points: 2
#     Edge 24, Type (0, 0), BuildingBlock: MIFKUJ_clean_linker_0, # of connection points: 2
#     Edge 25, Type (0, 0), BuildingBlock: MIFKUJ_clean_linker_0, # of connection points: 2
#     Edge 26, Type (0, 0), BuildingBlock: MIFKUJ_clean_linker_0, # of connection points: 2
#     Edge 27, Type (0, 0), BuildingBlock: MIFKUJ_clean_linker_0, # of connection points: 2
#     Edge 28, Type (0, 0), BuildingBlock: MIFKUJ_clean_linker_0, # of connection points: 2
#     Edge 29, Type (0, 0), BuildingBlock: MIFKUJ_clean_linker_0, # of connection points: 2
#     Edge 30, Type (0, 0), BuildingBlock: MIFKUJ_clean_linker_0, # of connection points: 2
#     Edge 31, Type (0, 0), BuildingBlock: MIFKUJ_clean_linker_0, # of connection points: 2
#     Edge 32, Type (0, 0), BuildingBlock: MIFKUJ_clean_linker_0, # of connection points: 2
#     Edge 33, Type (0, 0), BuildingBlock: MIFKUJ_clean_linker_0, # of connection points: 2
#     Edge 34, Type (0, 0), BuildingBlock: MIFKUJ_clean_linker_0, # of connection points: 2
#     Edge 35, Type (0, 0), BuildingBlock: MIFKUJ_clean_linker_0, # of connection points: 2
#     Edge 36, Type (0, 0), BuildingBlock: MIFKUJ_clean_linker_0, # of connection points: 2
#     Edge 37, Type (0, 0), BuildingBlock: MIFKUJ_clean_linker_0, # of connection points: 2
#     Edge 38, Type (0, 0), BuildingBlock: MIFKUJ_clean_linker_0, # of connection points: 2
#     Edge 39, Type (0, 0), BuildingBlock: MIFKUJ_clean_linker_0, # of connection points: 2
#     Edge 40, Type (0, 0), BuildingBlock: MIFKUJ_clean_linker_0, # of connection points: 2
#     Edge 41, Type (0, 0), BuildingBlock: MIFKUJ_clean_linker_0, # of connection points: 2
#     Edge 42, Type (0, 0), BuildingBlock: MIFKUJ_clean_linker_0, # of connection points: 2
#     Edge 43, Type (0, 0), BuildingBlock: MIFKUJ_clean_linker_0, # of connection points: 2
#     Edge 44, Type (0, 0), BuildingBlock: MIFKUJ_clean_linker_0, # of connection points: 2
#     Edge 45, Type (0, 0), BuildingBlock: MIFKUJ_clean_linker_0, # of connection points: 2
#     Edge 46, Type (0, 0), BuildingBlock: MIFKUJ_clean_linker_0, # of connection points: 2
#     Edge 47, Type (0, 0), BuildingBlock: MIFKUJ_clean_linker_0, # of connection points: 2
#     Edge 48, Type (0, 0), BuildingBlock: MIFKUJ_clean_linker_0, # of connection points: 2
#     Edge 49, Type (0, 0), BuildingBlock: MIFKUJ_clean_linker_0, # of connection points: 2
#     Edge 50, Type (0, 0), BuildingBlock: MIFKUJ_clean_linker_0, # of connection points: 2
#     Edge 51, Type (0, 0), BuildingBlock: MIFKUJ_clean_linker_0, # of connection points: 2
#     Edge 52, Type (0, 0), BuildingBlock: MIFKUJ_clean_linker_0, # of connection points: 2
#     Edge 53, Type (0, 0), BuildingBlock: MIFKUJ_clean_linker_0, # of connection points: 2
#     Edge 54, Type (0, 0), BuildingBlock: MIFKUJ_clean_linker_0, # of connection points: 2
#     Edge 55, Type (0, 0), BuildingBlock: MIFKUJ_clean_linker_0, # of connection points: 2
# Relax obj value: 0.147
# Max RMSD: 0.156
# Mean RMSD: 0.156
data_MOF--net-zfc--node1-XOMCOT_clean_sbu_1--edge1-MIFKUJ_clean_linker_0
_symmetry_space_group_name_H-M    P1
_symmetry_Int_Tables_number       1
_symmetry_cell_setting            triclinic
loop_
_symmetry_equiv_pos_as_xyz
'x, y, z'
_cell_length_a     95.740431
_cell_length_b     95.739124
_cell_length_c     21.992725
_cell_angle_alpha  89.998496
_cell_angle_beta   89.992428
_cell_angle_gamma 89.989804
loop_
_atom_site_label
_atom_site_type_symbol
_atom_site_fract_x
_atom_site_fract_y
_atom_site_fract_z
_atom_type_partial_charge
C0 C 0.25136 0.10185 0.13208 0.0
C1 C 0.24925 0.10181 0.19398 0.0
N2 N 0.26176 0.10071 0.22169 0.0
N3 N 0.26516 0.10091 0.12066 0.0
C4 C 0.2712 0.10001 0.17605 0.0
H5 H 0.24335 0.10263 0.09759 0.0
Co6 Co 0.27361 0.10118 0.0442 0.0
C7 C 0.29893 0.11891 0.06188 0.0
O8 O 0.29735 0.12448 0.00769 0.0
N9 N 0.28218 0.10094 0.96659 0.0
C10 C 0.29804 0.09625 0.89527 0.0
C11 C 0.29539 0.09653 0.95661 0.0
C12 C 0.27692 0.10286 0.90997 0.0
N13 N 0.28638 0.1002 0.86567 0.0
O14 O 0.28103 0.0829 0.0584 0.0
H15 H 0.30263 0.09344 0.99191 0.0
H16 H 0.26619 0.10545 0.90077 0.0
O17 O 0.29029 0.10967 0.08054 0.0
C18 C 0.27207 0.07319 0.05222 0.0
O19 O 0.25906 0.07658 0.04015 0.0
N20 N 0.26521 0.11874 0.02983 0.0
C21 C 0.2479 0.14211 0.01588 0.0
C22 C 0.25958 0.14258 0.05441 0.0
C23 C 0.26793 0.1307 0.06174 0.0
C24 C 0.25365 0.11801 0.99385 0.0
C25 C 0.24506 0.12961 0.98508 0.0
H26 H 0.27596 0.13099 0.09603 0.0
H27 H 0.25062 0.10811 0.97432 0.0
H28 H 0.28233 0.09904 0.18274 0.0
H29 H 0.23924 0.10248 0.21668 0.0
H30 H 0.30781 0.0932 0.8744 0.0
H31 H 0.26181 0.15179 0.0813 0.0
H32 H 0.23605 0.12862 0.95566 0.0
C33 C 0.90079 0.25033 0.12455 0.0
C34 C 0.90142 0.24841 0.18648 0.0
N35 N 0.90195 0.26105 0.21353 0.0
N36 N 0.9008 0.26411 0.11245 0.0
C37 C 0.90166 0.27037 0.16734 0.0
H38 H 0.9002 0.2422 0.0905 0.0
Co39 Co 0.89973 0.27225 0.03595 0.0
C40 C 0.88088 0.29648 0.05324 0.0
O41 O 0.87488 0.2936 1.00095 0.0
N42 N 0.89919 0.2806 0.95796 0.0
C43 C 0.90297 0.29649 0.88568 0.0
C44 C 0.90289 0.294 0.94716 0.0
C45 C 0.89751 0.27507 0.90171 0.0
N46 N 0.89963 0.28454 0.85706 0.0
O47 O 0.91792 0.2801 0.04707 0.0
H48 H 0.90581 0.30144 0.98192 0.0
H49 H 0.8952 0.26426 0.89286 0.0
O50 O 0.89097 0.28886 0.07208 0.0
C51 C 0.92711 0.27142 0.02904 0.0
O52 O 0.92285 0.25917 0.00938 0.0
N53 N 0.88235 0.26325 0.02443 0.0
C54 C 0.85936 0.2454 0.01142 0.0
C55 C 0.85885 0.25681 0.05145 0.0
C56 C 0.87057 0.26541 0.05839 0.0
C57 C 0.88322 0.25181 0.98781 0.0
C58 C 0.8718 0.24299 0.97937 0.0
H59 H 0.87031 0.27328 0.09349 0.0
H60 H 0.89309 0.24909 0.96723 0.0
H61 H 0.9022 0.28157 0.17311 0.0
H62 H 0.90121 0.23843 0.20954 0.0
H63 H 0.90591 0.30618 0.86373 0.0
H64 H 0.84973 0.25869 0.0794 0.0
H65 H 0.87285 0.23417 0.94892 0.0
C66 C 0.75033 0.89847 0.16213 0.0
C67 C 0.75226 0.89874 0.22412 0.0
N68 N 0.7397 0.90038 0.25088 0.0
N69 N 0.73659 0.89975 0.14984 0.0
C70 C 0.7304 0.90106 0.20477 0.0
H71 H 0.75842 0.89739 0.12816 0.0
Co72 Co 0.7284 0.89977 0.073 0.0
C73 C 0.70327 0.88181 0.08635 0.0
O74 O 0.70532 0.87666 0.03167 0.0
N75 N 0.72002 0.90039 0.99507 0.0
C76 C 0.70431 0.90596 0.9243 0.0
C77 C 0.70688 0.90507 0.98554 0.0
C78 C 0.72531 0.89885 0.93828 0.0
N79 N 0.71594 0.90207 0.89443 0.0
O80 O 0.72085 0.91792 0.08804 0.0
H81 H 0.69965 0.908 0.02114 0.0
H82 H 0.73601 0.89616 0.92863 0.0
O83 O 0.71166 0.891 0.10755 0.0
C84 C 0.7297 0.92773 0.08177 0.0
O85 O 0.74282 0.92447 0.07139 0.0
N86 N 0.73692 0.88231 0.0575 0.0
C87 C 0.75402 0.85891 0.04074 0.0
C88 C 0.74256 0.85838 0.08043 0.0
C89 C 0.73427 0.87026 0.08896 0.0
C90 C 0.74839 0.88313 0.021 0.0
C91 C 0.75687 0.8715 0.01077 0.0
H92 H 0.72627 0.86988 0.12341 0.0
H93 H 0.75146 0.8931 0.00226 0.0
H94 H 0.71926 0.90232 0.21086 0.0
H95 H 0.76216 0.89796 0.24761 0.0
H96 H 0.69464 0.90937 0.90359 0.0
H97 H 0.74021 0.84898 0.10584 0.0
H98 H 0.766 0.87258 0.98205 0.0
C99 C 0.09114 0.73882 0.08627 0.0
C100 C 0.09051 0.7412 0.148 0.0
N101 N 0.09945 0.73239 0.17573 0.0
N102 N 0.10035 0.72849 0.07516 0.0
C103 C 0.10531 0.72484 0.13057 0.0
H104 H 0.085 0.744 0.0517 0.0
Co105 Co 0.10342 0.72064 0.99885 0.0
C106 C 0.12297 0.69707 0.02248 0.0
O107 O 0.12992 0.70006 0.9726 0.0
N108 N 0.106 0.71258 0.92064 0.0
C109 C 0.10442 0.6968 0.84653 0.0
C110 C 0.10348 0.69901 0.90802 0.0
C111 C 0.10807 0.71847 0.86522 0.0
N112 N 0.10722 0.70908 0.81929 0.0
O113 O 0.08556 0.71161 0.0044 0.0
H114 H 0.10062 0.69122 0.94139 0.0
H115 H 0.10925 0.72953 0.85787 0.0
O116 O 0.11234 0.70443 0.03725 0.0
C117 C 0.07603 0.7165 0.96998 0.0
O118 O 0.0792 0.72661 0.932 0.0
N119 N 0.12036 0.73068 0.99373 0.0
C120 C 0.14267 0.74952 0.98841 0.0
C121 C 0.14316 0.73791 0.02721 0.0
C122 C 0.1318 0.72876 0.03003 0.0
C123 C 0.11945 0.74232 0.95823 0.0
C124 C 0.13059 0.75168 0.9537 0.0
H125 H 0.1321 0.72056 0.06353 0.0
H126 H 0.10978 0.74466 0.93509 0.0
H127 H 0.11268 0.71647 0.13821 0.0
H128 H 0.08388 0.74872 0.17076 0.0
H129 H 0.10282 0.68691 0.82379 0.0
H130 H 0.15213 0.73604 0.05604 0.0
H131 H 0.12949 0.76085 0.92526 0.0
C132 C 0.24881 0.9024 0.86317 0.0
C133 C 0.24637 0.90301 0.80159 0.0
N134 N 0.25878 0.90277 0.77257 0.0
N135 N 0.26267 0.90167 0.87306 0.0
C136 C 0.26849 0.90206 0.81712 0.0
H137 H 0.24098 0.90244 0.89862 0.0
Co138 Co 0.27093 0.90047 0.94927 0.0
C139 C 0.2957 0.88229 0.93187 0.0
O140 O 0.29288 0.87615 0.9839 0.0
N141 N 0.27924 0.89996 0.02741 0.0
C142 C 0.2949 0.90413 0.10011 0.0
C143 C 0.29265 0.90353 0.03858 0.0
C144 C 0.27344 0.89903 0.08349 0.0
N145 N 0.28277 0.90137 0.12864 0.0
O146 O 0.2784 0.91884 0.93949 0.0
H147 H 0.30027 0.90606 0.004 0.0
H148 H 0.26244 0.89763 0.09147 0.0
O149 O 0.28782 0.89216 0.91267 0.0
C150 C 0.26984 0.92784 0.96015 0.0
O151 O 0.25769 0.9234 0.9803 0.0
N152 N 0.26241 0.8828 0.9594 0.0
C153 C 0.24564 0.85895 0.96878 0.0
C154 C 0.25683 0.85939 0.92771 0.0
C155 C 0.26491 0.8715 0.92282 0.0
C156 C 0.2511 0.88276 0.99704 0.0
C157 C 0.2428 0.87087 0.00366 0.0
H158 H 0.27267 0.87194 0.88731 0.0
H159 H 0.24793 0.89229 0.01925 0.0
H160 H 0.27962 0.90167 0.80919 0.0
H161 H 0.23624 0.90371 0.78 0.0
H162 H 0.3047 0.90674 0.12175 0.0
H163 H 0.25913 0.85058 0.89852 0.0
H164 H 0.23381 0.87126 0.03351 0.0
C165 C 0.10346 0.25343 0.89736 0.0
C166 C 0.10325 0.25139 0.8354 0.0
N167 N 0.10114 0.26383 0.80826 0.0
N168 N 0.10172 0.26713 0.90931 0.0
C169 C 0.10007 0.27316 0.85414 0.0
H170 H 0.10504 0.24545 0.93146 0.0
Co171 Co 0.10232 0.27565 0.98578 0.0
C172 C 0.11951 0.30127 0.96498 0.0
O173 O 0.12535 0.30006 0.0188 0.0
N174 N 0.1024 0.2843 0.06343 0.0
C175 C 0.09734 0.30005 0.13484 0.0
C176 C 0.09772 0.29742 0.07348 0.0
C177 C 0.1045 0.27909 0.12011 0.0
N178 N 0.10157 0.28848 0.16435 0.0
O179 O 0.08386 0.28276 0.97335 0.0
H180 H 0.09437 0.30455 0.03824 0.0
H181 H 0.10733 0.26842 0.12955 0.0
O182 O 0.11034 0.29237 0.94797 0.0
C183 C 0.07451 0.27372 0.98521 0.0
O184 O 0.07848 0.26113 1.0016 0.0
N185 N 0.12005 0.26752 0.99848 0.0
C186 C 0.14339 0.25001 0.00782 0.0
C187 C 0.14365 0.26183 0.97008 0.0
C188 C 0.13179 0.27029 0.96509 0.0
C189 C 0.11959 0.25596 0.03455 0.0
C190 C 0.13117 0.24726 0.04092 0.0
H191 H 0.13185 0.27839 0.93107 0.0
H192 H 0.10984 0.25293 0.05547 0.0
H193 H 0.09843 0.28423 0.84764 0.0
H194 H 0.10457 0.24151 0.81213 0.0
H195 H 0.09397 0.30968 0.15598 0.0
H196 H 0.15263 0.26403 0.9417 0.0
H197 H 0.13037 0.23815 0.0699 0.0
C198 C 0.74976 0.09861 0.85411 0.0
C199 C 0.75184 0.09816 0.7923 0.0
N200 N 0.73928 0.09724 0.76475 0.0
N201 N 0.73596 0.09812 0.86566 0.0
C202 C 0.72984 0.09718 0.8105 0.0
H203 H 0.7578 0.09929 0.8885 0.0
Co204 Co 0.72787 0.09835 0.94234 0.0
C205 C 0.70279 0.11618 0.92981 0.0
O206 O 0.70552 0.12164 0.98336 0.0
N207 N 0.71969 0.09794 0.02053 0.0
C208 C 0.70427 0.09257 0.09282 0.0
C209 C 0.7066 0.09323 0.03131 0.0
C210 C 0.72521 0.09967 0.07674 0.0
N211 N 0.71601 0.09658 0.12138 0.0
O212 O 0.72067 0.08 0.92905 0.0
H213 H 0.6993 0.09005 0.99644 0.0
H214 H 0.73584 0.10274 0.08551 0.0
O215 O 0.71086 0.10674 0.90818 0.0
C216 C 0.72966 0.0709 0.94489 0.0
O217 O 0.74202 0.07529 0.96255 0.0
N218 N 0.7362 0.11599 0.95587 0.0
C219 C 0.75349 0.13941 0.96814 0.0
C220 C 0.74173 0.1398 0.93009 0.0
C221 C 0.73341 0.12788 0.92344 0.0
C222 C 0.74785 0.11535 0.9913 0.0
C223 C 0.75643 0.12697 0.99923 0.0
H224 H 0.72533 0.12806 0.88934 0.0
H225 H 0.75099 0.10548 0.01085 0.0
H226 H 0.71868 0.09622 0.80424 0.0
H227 H 0.76185 0.09866 0.76964 0.0
H228 H 0.69486 0.08882 0.11476 0.0
H229 H 0.73943 0.14896 0.903 0.0
H230 H 0.76555 0.12605 0.02813 0.0
C231 C 0.91112 0.7463 0.89512 0.0
C232 C 0.91188 0.74857 0.83331 0.0
N233 N 0.90576 0.73772 0.80466 0.0
N234 N 0.90454 0.73411 0.90543 0.0
C235 C 0.90139 0.72915 0.84957 0.0
H236 H 0.91526 0.753 0.93039 0.0
Co237 Co 0.9015 0.72628 0.98153 0.0
C238 C 0.88159 0.70308 0.95901 0.0
O239 O 0.8748 0.70644 0.00888 0.0
N240 N 0.89891 0.7182 0.05968 0.0
C241 C 0.90074 0.70247 0.13397 0.0
C242 C 0.90165 0.70467 0.07243 0.0
C243 C 0.89668 0.72406 0.11499 0.0
N244 N 0.89766 0.71471 0.16095 0.0
O245 O 0.91932 0.71713 0.97582 0.0
H246 H 0.90474 0.69694 0.03916 0.0
H247 H 0.89494 0.73504 0.12219 0.0
O248 O 0.89242 0.71006 0.94362 0.0
C249 C 0.92881 0.72151 0.01171 0.0
O250 O 0.92579 0.73145 0.05073 0.0
N251 N 0.88456 0.73639 0.98654 0.0
C252 C 0.86173 0.75459 0.99353 0.0
C253 C 0.86172 0.74339 0.95242 0.0
C254 C 0.87335 0.73459 0.94874 0.0
C255 C 0.88512 0.74784 0.02328 0.0
C256 C 0.87371 0.75684 0.02883 0.0
H257 H 0.87343 0.7267 0.91377 0.0
H258 H 0.8947 0.7503 0.04695 0.0
H259 H 0.89588 0.71947 0.84176 0.0
H260 H 0.91685 0.75738 0.81135 0.0
H261 H 0.90296 0.69275 0.15714 0.0
H262 H 0.85288 0.74153 0.9228 0.0
H263 H 0.87446 0.76578 0.05881 0.0
C264 C 0.75498 0.5924 0.61539 0.0
C265 C 0.7526 0.59042 0.67639 0.0
N266 N 0.76462 0.59278 0.70684 0.0
N267 N 0.76839 0.5961 0.60695 0.0
C268 C 0.77406 0.59616 0.66324 0.0
H269 H 0.74736 0.59142 0.57933 0.0
Co270 Co 0.77589 0.60012 0.53101 0.0
C271 C 0.79729 0.62174 0.55416 0.0
O272 O 0.79226 0.62868 0.50744 0.0
N273 N 0.7834 0.60348 0.45249 0.0
C274 C 0.79882 0.60337 0.37644 0.0
C275 C 0.79715 0.60305 0.43844 0.0
C276 C 0.77696 0.60343 0.39758 0.0
N277 N 0.78609 0.60354 0.35065 0.0
O278 O 0.78585 0.58281 0.53238 0.0
H279 H 0.80549 0.60172 0.47106 0.0
H280 H 0.76585 0.60248 0.39148 0.0
O281 O 0.79187 0.60998 0.56909 0.0
C282 C 0.77866 0.57356 0.50488 0.0
O283 O 0.7664 0.5772 0.48312 0.0
N284 N 0.76488 0.61658 0.52928 0.0
C285 C 0.74548 0.63847 0.5284 0.0
C286 C 0.75648 0.63831 0.57046 0.0
C287 C 0.76581 0.62708 0.57135 0.0
C288 C 0.75367 0.61613 0.49114 0.0
C289 C 0.74406 0.62707 0.48884 0.0
H290 H 0.77344 0.62664 0.60742 0.0
H291 H 0.75168 0.60688 0.46464 0.0
H292 H 0.78489 0.59865 0.6718 0.0
H293 H 0.74264 0.58779 0.69649 0.0
H294 H 0.80864 0.6026 0.35228 0.0
H295 H 0.75754 0.64651 0.60408 0.0
H296 H 0.73545 0.62648 0.45701 0.0
C297 C 0.39662 0.75321 0.60576 0.0
C298 C 0.39623 0.75113 0.66763 0.0
N299 N 0.39679 0.76368 0.69522 0.0
N300 N 0.39731 0.76702 0.59429 0.0
C301 C 0.39758 0.77312 0.64968 0.0
H302 H 0.39631 0.74517 0.57126 0.0
Co303 Co 0.39724 0.77528 0.51755 0.0
C304 C 0.37966 0.80073 0.53292 0.0
O305 O 0.37387 0.79872 0.47944 0.0
N306 N 0.39763 0.78363 0.43967 0.0
C307 C 0.40234 0.7993 0.36761 0.0
C308 C 0.40216 0.79677 0.42904 0.0
C309 C 0.39552 0.77828 0.38338 0.0
N310 N 0.39819 0.78763 0.33867 0.0
O311 O 0.41549 0.78277 0.53209 0.0
H312 H 0.40535 0.80406 0.46395 0.0
H313 H 0.39273 0.76758 0.37466 0.0
O314 O 0.38885 0.79214 0.5524 0.0
C315 C 0.42553 0.77406 0.53039 0.0
O316 O 0.42272 0.76076 0.52199 0.0
N317 N 0.37968 0.76688 0.50314 0.0
C318 C 0.35641 0.74935 0.49085 0.0
C319 C 0.35588 0.76121 0.52837 0.0
C320 C 0.3677 0.76968 0.53482 0.0
C321 C 0.38047 0.75518 0.46808 0.0
C322 C 0.36892 0.74649 0.46006 0.0
H323 H 0.36738 0.77788 0.5684 0.0
H324 H 0.39039 0.7521 0.44882 0.0
H325 H 0.39812 0.78427 0.6565 0.0
H326 H 0.39567 0.74113 0.69046 0.0
H327 H 0.40541 0.809 0.3462 0.0
H328 H 0.34668 0.7635 0.55522 0.0
H329 H 0.36996 0.73737 0.43129 0.0
C330 C 0.24783 0.40053 0.61698 0.0
C331 C 0.25011 0.40073 0.67873 0.0
N332 N 0.23762 0.40124 0.70705 0.0
N333 N 0.23398 0.40081 0.60627 0.0
C334 C 0.22804 0.40141 0.66193 0.0
H335 H 0.25576 0.40011 0.58201 0.0
Co336 Co 0.2256 0.40012 0.52987 0.0
C337 C 0.20066 0.38204 0.54735 0.0
O338 O 0.20298 0.37613 0.49433 0.0
N339 N 0.21715 0.39999 0.45204 0.0
C340 C 0.20129 0.40418 0.38015 0.0
C341 C 0.20381 0.40392 0.44157 0.0
C342 C 0.22263 0.39842 0.3956 0.0
N343 N 0.21317 0.40075 0.35096 0.0
O344 O 0.21798 0.4184 0.54239 0.0
H345 H 0.1964 0.40676 0.47656 0.0
H346 H 0.23349 0.39639 0.38681 0.0
O347 O 0.20884 0.39167 0.56629 0.0
C348 C 0.22667 0.4284 0.53756 0.0
O349 O 0.23986 0.42548 0.52704 0.0
N350 N 0.23413 0.38248 0.51759 0.0
C351 C 0.2513 0.35891 0.50845 0.0
C352 C 0.23995 0.35908 0.54869 0.0
C353 C 0.23163 0.37104 0.55331 0.0
C354 C 0.24551 0.38264 0.4803 0.0
C355 C 0.25399 0.37087 0.4737 0.0
H356 H 0.2238 0.37128 0.58852 0.0
H357 H 0.24862 0.39227 0.45862 0.0
H358 H 0.21688 0.40175 0.66922 0.0
H359 H 0.26019 0.40059 0.70092 0.0
H360 H 0.19146 0.4069 0.35897 0.0
H361 H 0.23779 0.35022 0.57783 0.0
H362 H 0.26307 0.37142 0.44441 0.0
C363 C 0.59485 0.24519 0.59397 0.0
C364 C 0.59373 0.24718 0.65576 0.0
N365 N 0.59578 0.23481 0.68385 0.0
N366 N 0.59769 0.23166 0.58297 0.0
C367 C 0.59803 0.22557 0.63835 0.0
H368 H 0.59402 0.25315 0.55927 0.0
Co369 Co 0.60112 0.22395 0.50702 0.0
C370 C 0.6226 0.20232 0.52903 0.0
O371 O 0.62919 0.20663 0.48006 0.0
N372 N 0.60412 0.21597 0.42896 0.0
C373 C 0.60353 0.20001 0.35508 0.0
C374 C 0.60267 0.2022 0.41666 0.0
C375 C 0.60544 0.22194 0.37335 0.0
N376 N 0.60521 0.21246 0.32777 0.0
O377 O 0.58382 0.21388 0.51285 0.0
H378 H 0.60045 0.19426 0.45027 0.0
H379 H 0.60589 0.23302 0.36554 0.0
O380 O 0.6112 0.20828 0.545 0.0
C381 C 0.57419 0.21752 0.47613 0.0
O382 O 0.5767 0.22734 0.4359 0.0
N383 N 0.61752 0.23497 0.50212 0.0
C384 C 0.63902 0.25476 0.50011 0.0
C385 C 0.63924 0.24371 0.54191 0.0
C386 C 0.62827 0.2341 0.543 0.0
C387 C 0.61673 0.2462 0.46413 0.0
C388 C 0.62753 0.25597 0.46102 0.0
H389 H 0.62817 0.22641 0.57884 0.0
H390 H 0.60729 0.24809 0.43864 0.0
H391 H 0.59995 0.21455 0.64504 0.0
H392 H 0.59198 0.2571 0.67802 0.0
H393 H 0.60219 0.19011 0.33206 0.0
H394 H 0.64769 0.24267 0.57437 0.0
H395 H 0.62657 0.26479 0.43042 0.0
C396 C 0.75197 0.40568 0.37491 0.0
C397 C 0.74975 0.4072 0.31356 0.0
N398 N 0.76217 0.40638 0.28483 0.0
N399 N 0.76572 0.4038 0.38512 0.0
C400 C 0.77169 0.40434 0.32951 0.0
H401 H 0.74407 0.40592 0.41003 0.0
Co402 Co 0.77364 0.40168 0.46185 0.0
C403 C 0.79502 0.37969 0.44535 0.0
O404 O 0.79037 0.37357 0.49486 0.0
N405 N 0.78166 0.40019 0.54027 0.0
C406 C 0.79769 0.40159 0.61366 0.0
C407 C 0.7955 0.40118 0.55196 0.0
C408 C 0.77568 0.40063 0.5961 0.0
N409 N 0.78519 0.40128 0.64145 0.0
O410 O 0.78376 0.41872 0.45098 0.0
H411 H 0.80353 0.40218 0.51768 0.0
H412 H 0.7646 0.40104 0.604 0.0
O413 O 0.78932 0.39101 0.42662 0.0
C414 C 0.77621 0.42955 0.45792 0.0
O415 O 0.76287 0.42795 0.47018 0.0
N416 N 0.76261 0.38539 0.47247 0.0
C417 C 0.74294 0.36383 0.48315 0.0
C418 C 0.75377 0.36305 0.44024 0.0
C419 C 0.76327 0.37405 0.43465 0.0
C420 C 0.7516 0.38672 0.51131 0.0
C421 C 0.74192 0.37595 0.51876 0.0
H422 H 0.77072 0.37368 0.39786 0.0
H423 H 0.74976 0.39652 0.53403 0.0
H424 H 0.78283 0.40348 0.3222 0.0
H425 H 0.7397 0.4086 0.29193 0.0
H426 H 0.80768 0.40275 0.63611 0.0
H427 H 0.75455 0.35429 0.40926 0.0
H428 H 0.73354 0.3773 0.55127 0.0
C429 C 0.59278 0.75169 0.40016 0.0
C430 C 0.59287 0.74923 0.33849 0.0
N431 N 0.59787 0.7607 0.31032 0.0
N432 N 0.59771 0.76463 0.41092 0.0
C433 C 0.60073 0.76985 0.35543 0.0
H434 H 0.58927 0.74455 0.43507 0.0
Co435 Co 0.59932 0.77253 0.48759 0.0
C436 C 0.61812 0.79704 0.47319 0.0
O437 O 0.62389 0.79418 0.52597 0.0
N438 N 0.60039 0.78044 0.56624 0.0
C439 C 0.59661 0.79555 0.64145 0.0
C440 C 0.59593 0.79347 0.5798 0.0
C441 C 0.6035 0.77476 0.621 0.0
N442 N 0.60136 0.78375 0.66752 0.0
O443 O 0.58127 0.78091 0.4779 0.0
H444 H 0.59205 0.80091 0.54687 0.0
H445 H 0.60695 0.76415 0.6273 0.0
O446 O 0.60834 0.7892 0.4528 0.0
C447 C 0.5719 0.77347 0.50321 0.0
O448 O 0.57575 0.76178 0.52968 0.0
N449 N 0.6164 0.76303 0.49706 0.0
C450 C 0.63871 0.74428 0.50625 0.0
C451 C 0.63988 0.75643 0.47092 0.0
C452 C 0.62849 0.76552 0.46577 0.0
C453 C 0.61492 0.75098 0.52935 0.0
C454 C 0.62599 0.74164 0.53571 0.0
H455 H 0.62927 0.77407 0.43408 0.0
H456 H 0.6049 0.74843 0.5491 0.0
H457 H 0.60507 0.7801 0.34814 0.0
H458 H 0.58925 0.73982 0.31624 0.0
H459 H 0.59327 0.80486 0.66526 0.0
H460 H 0.64928 0.75857 0.44515 0.0
H461 H 0.6245 0.73231 0.56278 0.0
C462 C 0.24353 0.59591 0.40406 0.0
C463 C 0.24583 0.59598 0.34225 0.0
N464 N 0.23429 0.60096 0.31459 0.0
N465 N 0.23062 0.60084 0.41538 0.0
C466 C 0.22525 0.60383 0.36005 0.0
H467 H 0.2508 0.59254 0.4387 0.0
Co468 Co 0.22298 0.60303 0.49241 0.0
C469 C 0.19772 0.6205 0.47335 0.0
O470 O 0.20042 0.62745 0.52356 0.0
N471 N 0.21525 0.60477 0.57125 0.0
C472 C 0.20024 0.60142 0.64722 0.0
C473 C 0.20233 0.60018 0.58577 0.0
C474 C 0.22089 0.60852 0.62538 0.0
N475 N 0.21194 0.60666 0.67237 0.0
O476 O 0.2155 0.58447 0.48778 0.0
H477 H 0.19498 0.59577 0.55372 0.0
H478 H 0.23144 0.6122 0.63094 0.0
O479 O 0.20584 0.6106 0.45677 0.0
C480 C 0.22332 0.57562 0.51444 0.0
O481 O 0.23486 0.58015 0.54014 0.0
N482 N 0.2316 0.62071 0.49669 0.0
C483 C 0.2495 0.64383 0.49604 0.0
C484 C 0.23724 0.6438 0.46105 0.0
C485 C 0.2286 0.63201 0.4609 0.0
C486 C 0.2437 0.62043 0.52924 0.0
C487 C 0.25263 0.63194 0.53068 0.0
H488 H 0.22004 0.63178 0.42909 0.0
H489 H 0.24675 0.61094 0.55238 0.0
H490 H 0.21501 0.60829 0.35306 0.0
H491 H 0.25522 0.59246 0.31955 0.0
H492 H 0.19103 0.59806 0.67164 0.0
H493 H 0.23474 0.65249 0.43146 0.0
H494 H 0.26207 0.63136 0.55764 0.0
C495 C 0.40328 0.24841 0.39711 0.0
C496 C 0.40408 0.2505 0.33529 0.0
N497 N 0.40349 0.23796 0.30744 0.0
N498 N 0.40208 0.23464 0.40828 0.0
C499 C 0.40241 0.22853 0.35296 0.0
H500 H 0.40331 0.25644 0.43174 0.0
Co501 Co 0.40008 0.22654 0.4844 0.0
C502 C 0.38047 0.20292 0.46584 0.0
O503 O 0.37431 0.20599 0.51756 0.0
N504 N 0.39864 0.21825 0.56256 0.0
C505 C 0.40131 0.20238 0.63594 0.0
C506 C 0.40158 0.2047 0.57432 0.0
C507 C 0.3971 0.22402 0.61844 0.0
N508 N 0.39854 0.21458 0.66368 0.0
O509 O 0.41792 0.21773 0.47465 0.0
H510 H 0.40429 0.19703 0.54019 0.0
H511 H 0.39548 0.23498 0.62666 0.0
O512 O 0.3908 0.21028 0.44743 0.0
C513 C 0.42775 0.22328 0.5053 0.0
O514 O 0.42484 0.23403 0.54026 0.0
N515 N 0.38299 0.23627 0.49347 0.0
C516 C 0.36032 0.25478 0.50023 0.0
C517 C 0.36016 0.24343 0.4598 0.0
C518 C 0.37167 0.23447 0.45633 0.0
C519 C 0.38361 0.24765 0.53054 0.0
C520 C 0.37229 0.25676 0.53607 0.0
H521 H 0.3717 0.22664 0.42107 0.0
H522 H 0.39324 0.25015 0.55361 0.0
H523 H 0.40199 0.21736 0.3463 0.0
H524 H 0.40467 0.26053 0.31275 0.0
H525 H 0.40368 0.19263 0.65865 0.0
H526 H 0.35152 0.24184 0.4288 0.0
H527 H 0.37313 0.26548 0.56722 0.0
H528 H 0.26605 0.11425 0.80404 0.0
H529 H 0.26221 0.11456 0.69434 0.0
H530 H 0.29815 0.08813 0.66829 0.0
H531 H 0.30189 0.08737 0.7778 0.0
H532 H 0.29714 0.11055 0.58632 0.0
H533 H 0.26718 0.07394 0.65983 0.0
H534 H 0.24889 0.06382 0.72532 0.0
H535 H 0.21911 0.09334 0.65599 0.0
H536 H 0.23729 0.10378 0.59069 0.0
H537 H 0.28411 0.08955 0.28064 0.0
H538 H 0.28874 0.09005 0.38991 0.0
H539 H 0.25036 0.11269 0.41904 0.0
H540 H 0.24568 0.11225 0.31004 0.0
H541 H 0.25282 0.09243 0.50006 0.0
H542 H 0.28237 0.12859 0.42316 0.0
H543 H 0.30062 0.13912 0.35872 0.0
H544 H 0.33119 0.11138 0.435 0.0
H545 H 0.31305 0.10041 0.49873 0.0
C546 C 0.27309 0.10837 0.77533 0.0
C547 C 0.28426 0.10072 0.80048 0.0
C548 C 0.27091 0.10864 0.71242 0.0
C549 C 0.27986 0.10132 0.67316 0.0
C550 C 0.29115 0.09391 0.69774 0.0
C551 C 0.29328 0.09353 0.76064 0.0
C552 C 0.27727 0.10113 0.60655 0.0
C553 C 0.28753 0.10644 0.56725 0.0
C554 C 0.2646 0.09605 0.58194 0.0
C555 C 0.25363 0.08973 0.62084 0.0
C556 C 0.25676 0.07835 0.65891 0.0
C557 C 0.24641 0.07254 0.69594 0.0
C558 C 0.23286 0.07795 0.69494 0.0
C559 C 0.22962 0.08917 0.65678 0.0
C560 C 0.23994 0.09503 0.61972 0.0
C561 C 0.2767 0.09474 0.31015 0.0
C562 C 0.26451 0.10085 0.28631 0.0
C563 C 0.27937 0.09501 0.37273 0.0
C564 C 0.26996 0.10153 0.41277 0.0
C565 C 0.25775 0.10756 0.38915 0.0
C566 C 0.25507 0.10725 0.32669 0.0
C567 C 0.2727 0.10188 0.47938 0.0
C568 C 0.26245 0.09658 0.51884 0.0
C569 C 0.28537 0.10703 0.50402 0.0
C570 C 0.2963 0.11357 0.46535 0.0
C571 C 0.29295 0.12462 0.42575 0.0
C572 C 0.30328 0.13068 0.38938 0.0
C573 C 0.31706 0.12593 0.39282 0.0
C574 C 0.32051 0.11506 0.43239 0.0
C575 C 0.3102 0.10889 0.46858 0.0
H576 H 0.32506 0.1307 0.36496 0.0
H577 H 0.22486 0.07344 0.72363 0.0
H578 H 0.89357 0.30344 0.76939 0.0
H579 H 0.89418 0.2998 0.65937 0.0
H580 H 0.90578 0.25675 0.68732 0.0
H581 H 0.9055 0.2604 0.79739 0.0
H582 H 0.92191 0.2693 0.60056 0.0
H583 H 0.87278 0.26489 0.64471 0.0
H584 H 0.85009 0.27236 0.68675 0.0
H585 H 0.85102 0.30914 0.57504 0.0
H586 H 0.87384 0.302 0.5332 0.0
H587 H 0.90948 0.24326 0.30439 0.0
H588 H 0.90925 0.24787 0.4132 0.0
H589 H 0.89599 0.29019 0.37942 0.0
H590 H 0.8953 0.28548 0.27057 0.0
H591 H 0.88087 0.27861 0.46897 0.0
H592 H 0.92936 0.28308 0.42172 0.0
H593 H 0.95207 0.276 0.37882 0.0
H594 H 0.95277 0.24006 0.4956 0.0
H595 H 0.92995 0.24682 0.53861 0.0
C596 C 0.89629 0.29321 0.75213 0.0
C597 C 0.89946 0.28221 0.79224 0.0
C598 C 0.89653 0.29112 0.68924 0.0
C599 C 0.89992 0.27797 0.66513 0.0
C600 C 0.90311 0.26697 0.70497 0.0
C601 C 0.90281 0.26904 0.76791 0.0
C602 C 0.90037 0.27576 0.59834 0.0
C603 C 0.91289 0.27117 0.57181 0.0
C604 C 0.88873 0.27861 0.56067 0.0
C605 C 0.87505 0.28295 0.58607 0.0
C606 C 0.86819 0.27462 0.62947 0.0
C607 C 0.85531 0.27879 0.65324 0.0
C608 C 0.84913 0.29123 0.63365 0.0
C609 C 0.85582 0.29951 0.59019 0.0
C610 C 0.86872 0.2954 0.56638 0.0
C611 C 0.90635 0.25352 0.31976 0.0
C612 C 0.90237 0.26396 0.27806 0.0
C613 C 0.90639 0.25619 0.38222 0.0
C614 C 0.90267 0.2694 0.40452 0.0
C615 C 0.89883 0.27989 0.36324 0.0
C616 C 0.89862 0.2772 0.30075 0.0
C617 C 0.90241 0.27214 0.47101 0.0
C618 C 0.88992 0.27682 0.49754 0.0
C619 C 0.91412 0.26948 0.5086 0.0
C620 C 0.92787 0.26539 0.48298 0.0
C621 C 0.9343 0.27361 0.43791 0.0
C622 C 0.94721 0.26966 0.41363 0.0
C623 C 0.95385 0.25757 0.43437 0.0
C624 C 0.94761 0.24942 0.47954 0.0
C625 C 0.93469 0.25331 0.50392 0.0
H626 H 0.96384 0.25453 0.41552 0.0
H627 H 0.83914 0.29443 0.65207 0.0
H628 H 0.7541 0.88744 0.34047 0.0
H629 H 0.74929 0.88822 0.44957 0.0
H630 H 0.714 0.91518 0.41693 0.0
H631 H 0.71884 0.91452 0.30737 0.0
H632 H 0.73087 0.92405 0.51448 0.0
H633 H 0.70758 0.88269 0.44759 0.0
H634 H 0.70537 0.86012 0.39456 0.0
H635 H 0.73733 0.84261 0.50842 0.0
H636 H 0.73988 0.86517 0.56157 0.0
H637 H 0.70205 0.91754 0.81018 0.0
H638 H 0.7054 0.91728 0.70041 0.0
H639 H 0.73845 0.887 0.72034 0.0
H640 H 0.73472 0.88671 0.83031 0.0
H641 H 0.72177 0.88016 0.62782 0.0
H642 H 0.74513 0.922 0.69414 0.0
H643 H 0.74667 0.94455 0.748 0.0
H644 H 0.71406 0.96124 0.63544 0.0
H645 H 0.71217 0.93872 0.58149 0.0
C646 C 0.74538 0.89362 0.35648 0.0
C647 C 0.73685 0.90091 0.31525 0.0
C648 C 0.74259 0.89399 0.41882 0.0
C649 C 0.73124 0.90169 0.44131 0.0
C650 C 0.7228 0.90916 0.40047 0.0
C651 C 0.72551 0.90868 0.33792 0.0
C652 C 0.72817 0.90178 0.50749 0.0
C653 C 0.72869 0.91449 0.53921 0.0
C654 C 0.72556 0.88927 0.5398 0.0
C655 C 0.72402 0.87566 0.50818 0.0
C656 C 0.71422 0.87407 0.46099 0.0
C657 C 0.71289 0.86127 0.43097 0.0
C658 C 0.72123 0.84995 0.44801 0.0
C659 C 0.73089 0.8514 0.49523 0.0
C660 C 0.73227 0.86418 0.52536 0.0
C661 C 0.70993 0.91068 0.7914 0.0
C662 C 0.7181 0.90212 0.8294 0.0
C663 C 0.71194 0.91068 0.72848 0.0
C664 C 0.7223 0.90226 0.70206 0.0
C665 C 0.73042 0.89362 0.73969 0.0
C666 C 0.72836 0.89357 0.80268 0.0
C667 C 0.72463 0.90241 0.63519 0.0
C668 C 0.72396 0.88973 0.60323 0.0
C669 C 0.72707 0.91497 0.60271 0.0
C670 C 0.72844 0.92863 0.63408 0.0
C671 C 0.73824 0.93046 0.68105 0.0
C672 C 0.73918 0.94323 0.71158 0.0
C673 C 0.73047 0.95431 0.69516 0.0
C674 C 0.72081 0.95265 0.64807 0.0
C675 C 0.71981 0.93989 0.61747 0.0
H676 H 0.73119 0.96418 0.71895 0.0
H677 H 0.72018 0.84004 0.42473 0.0
H678 H 0.12346 0.72546 0.2336 0.0
H679 H 0.12678 0.72223 0.34322 0.0
H680 H 0.08317 0.73146 0.37299 0.0
H681 H 0.08003 0.73521 0.26403 0.0
H682 H 0.09709 0.74364 0.45589 0.0
H683 H 0.09858 0.69647 0.37257 0.0
H684 H 0.10781 0.6775 0.30798 0.0
H685 H 0.1482 0.68197 0.3905 0.0
H686 H 0.13925 0.70103 0.45526 0.0
H687 H 0.09614 0.69321 0.7286 0.0
H688 H 0.09691 0.69774 0.61991 0.0
H689 H 0.12015 0.73559 0.6521 0.0
H690 H 0.11966 0.73101 0.76164 0.0
H691 H 0.11813 0.70036 0.53933 0.0
H692 H 0.10925 0.75974 0.54489 0.0
H693 H 0.09871 0.77765 0.61138 0.0
H694 H 0.0705 0.74708 0.68438 0.0
H695 H 0.08074 0.72905 0.61778 0.0
C696 C 0.11461 0.72678 0.2637 0.0
C697 C 0.10149 0.7306 0.24027 0.0
C698 C 0.11649 0.72488 0.32636 0.0
C699 C 0.10518 0.72638 0.36672 0.0
C700 C 0.09209 0.73027 0.34315 0.0
C701 C 0.09029 0.73243 0.28077 0.0
C702 C 0.10682 0.72398 0.43346 0.0
C703 C 0.10175 0.73418 0.4739 0.0
C704 C 0.11292 0.71167 0.45761 0.0
C705 C 0.11828 0.70027 0.41832 0.0
C706 C 0.10945 0.69347 0.37663 0.0
C707 C 0.11463 0.68269 0.34008 0.0
C708 C 0.12859 0.67857 0.34509 0.0
C709 C 0.1374 0.68519 0.38667 0.0
C710 C 0.13227 0.69597 0.42334 0.0
C711 C 0.10162 0.70241 0.71299 0.0
C712 C 0.10785 0.71173 0.75449 0.0
C713 C 0.10201 0.705 0.6505 0.0
C714 C 0.10853 0.71702 0.6277 0.0
C715 C 0.11492 0.7263 0.66866 0.0
C716 C 0.11458 0.7237 0.73139 0.0
C717 C 0.10822 0.71992 0.56119 0.0
C718 C 0.11359 0.70986 0.52101 0.0
C719 C 0.10224 0.73225 0.53719 0.0
C720 C 0.09588 0.74303 0.57689 0.0
C721 C 0.10077 0.75686 0.57503 0.0
C722 C 0.09485 0.76703 0.61273 0.0
C723 C 0.08398 0.76349 0.65224 0.0
C724 C 0.07896 0.74979 0.65395 0.0
C725 C 0.08483 0.7396 0.61628 0.0
H726 H 0.07943 0.77137 0.68143 0.0
H727 H 0.1326 0.67024 0.31692 0.0
H728 H 0.26064 0.89017 0.18976 0.0
H729 H 0.25628 0.89104 0.29907 0.0
H730 H 0.2946 0.91384 0.32532 0.0
H731 H 0.29886 0.91353 0.21628 0.0
H732 H 0.2912 0.89107 0.40564 0.0
H733 H 0.26572 0.93114 0.33435 0.0
H734 H 0.24863 0.94351 0.27001 0.0
H735 H 0.21568 0.9177 0.34007 0.0
H736 H 0.2326 0.90503 0.40424 0.0
H737 H 0.28182 0.912 0.71263 0.0
H738 H 0.28575 0.91193 0.60282 0.0
H739 H 0.24499 0.89385 0.57508 0.0
H740 H 0.241 0.89386 0.68468 0.0
H741 H 0.24953 0.91414 0.49459 0.0
H742 H 0.27473 0.87443 0.56831 0.0
H743 H 0.29178 0.86163 0.63122 0.0
H744 H 0.32518 0.88578 0.55417 0.0
H745 H 0.30832 0.89902 0.49252 0.0
C746 C 0.26809 0.89555 0.21837 0.0
C747 C 0.28013 0.90178 0.19347 0.0
C748 C 0.26559 0.89596 0.28104 0.0
C749 C 0.27511 0.90253 0.32021 0.0
C750 C 0.28716 0.90867 0.29586 0.0
C751 C 0.2896 0.9084 0.23323 0.0
C752 C 0.2726 0.9029 0.38674 0.0
C753 C 0.28219 0.89626 0.42529 0.0
C754 C 0.26066 0.90939 0.41198 0.0
C755 C 0.25045 0.91704 0.37364 0.0
C756 C 0.25485 0.92802 0.33565 0.0
C757 C 0.24519 0.9351 0.29929 0.0
C758 C 0.23109 0.93137 0.30083 0.0
C759 C 0.22661 0.92057 0.33887 0.0
C760 C 0.23623 0.91344 0.37528 0.0
C761 C 0.27373 0.90791 0.68328 0.0
C762 C 0.2611 0.9029 0.70768 0.0
C763 C 0.27598 0.90791 0.62041 0.0
C764 C 0.26571 0.90276 0.58064 0.0
C765 C 0.25304 0.89791 0.6048 0.0
C766 C 0.25077 0.89796 0.66758 0.0
C767 C 0.26818 0.90233 0.5139 0.0
C768 C 0.25856 0.90894 0.47518 0.0
C769 C 0.28008 0.89574 0.48847 0.0
C770 C 0.29023 0.88785 0.52625 0.0
C771 C 0.2857 0.87714 0.56541 0.0
C772 C 0.29533 0.8698 0.60093 0.0
C773 C 0.30956 0.87293 0.59707 0.0
C774 C 0.31417 0.88341 0.55766 0.0
C775 C 0.30457 0.89086 0.52244 0.0
H776 H 0.31699 0.86717 0.62437 0.0
H777 H 0.22362 0.93686 0.27266 0.0
H778 H 0.11577 0.25032 0.72094 0.0
H779 H 0.11583 0.25525 0.61179 0.0
H780 H 0.08639 0.28872 0.63978 0.0
H781 H 0.08629 0.28381 0.74939 0.0
H782 H 0.07956 0.27101 0.54104 0.0
H783 H 0.11829 0.29708 0.6159 0.0
H784 H 0.14006 0.30063 0.67361 0.0
H785 H 0.16118 0.27107 0.55907 0.0
H786 H 0.13941 0.26707 0.50155 0.0
H787 H 0.08579 0.3017 0.24943 0.0
H788 H 0.08607 0.298 0.35909 0.0
H789 H 0.11779 0.2664 0.33794 0.0
H790 H 0.11784 0.27031 0.22777 0.0
H791 H 0.12342 0.28374 0.43421 0.0
H792 H 0.08421 0.25719 0.36184 0.0
H793 H 0.06216 0.25342 0.30626 0.0
H794 H 0.04188 0.28428 0.41707 0.0
H795 H 0.06387 0.28838 0.47277 0.0
C796 C 0.10922 0.25866 0.70385 0.0
C797 C 0.101 0.26666 0.7438 0.0
C798 C 0.10934 0.26153 0.64151 0.0
C799 C 0.10117 0.2724 0.61768 0.0
C800 C 0.09279 0.2803 0.65724 0.0
C801 C 0.09281 0.27754 0.71983 0.0
C802 C 0.10145 0.27549 0.55143 0.0
C803 C 0.0891 0.27399 0.51779 0.0
C804 C 0.11397 0.27911 0.52099 0.0
C805 C 0.12716 0.28165 0.55483 0.0
C806 C 0.12753 0.29123 0.60335 0.0
C807 C 0.13988 0.29332 0.63605 0.0
C808 C 0.15198 0.28603 0.62017 0.0
C809 C 0.15178 0.27668 0.57142 0.0
C810 C 0.13943 0.27448 0.53877 0.0
C811 C 0.09296 0.29406 0.2679 0.0
C812 C 0.10179 0.28629 0.22946 0.0
C813 C 0.09301 0.29187 0.33077 0.0
C814 C 0.10184 0.28181 0.35685 0.0
C815 C 0.11085 0.27419 0.31887 0.0
C816 C 0.11078 0.27635 0.25581 0.0
C817 C 0.10152 0.27918 0.42361 0.0
C818 C 0.11387 0.28077 0.45741 0.0
C819 C 0.08898 0.27567 0.4543 0.0
C820 C 0.07573 0.27319 0.42107 0.0
C821 C 0.07508 0.26325 0.37404 0.0
C822 C 0.06259 0.26104 0.34257 0.0
C823 C 0.05064 0.26864 0.35801 0.0
C824 C 0.05115 0.27842 0.40509 0.0
C825 C 0.06362 0.28068 0.43666 0.0
H826 H 0.04097 0.26691 0.3336 0.0
H827 H 0.16153 0.28768 0.6455 0.0
H828 H 0.75737 0.08938 0.67577 0.0
H829 H 0.75315 0.08923 0.56654 0.0
H830 H 0.71085 0.10304 0.59641 0.0
H831 H 0.71505 0.10362 0.70596 0.0
H832 H 0.7131 0.08107 0.51156 0.0
H833 H 0.73374 0.12602 0.55033 0.0
H834 H 0.75157 0.1421 0.59087 0.0
H835 H 0.78283 0.12264 0.47936 0.0
H836 H 0.76521 0.1063 0.43879 0.0
H837 H 0.69693 0.10118 0.20977 0.0
H838 H 0.70084 0.10079 0.31954 0.0
H839 H 0.74442 0.09161 0.28975 0.0
H840 H 0.74057 0.09203 0.17984 0.0
H841 H 0.74154 0.11104 0.3752 0.0
H842 H 0.72153 0.06615 0.33576 0.0
H843 H 0.70417 0.04951 0.29555 0.0
H844 H 0.67242 0.06796 0.40754 0.0
H845 H 0.68954 0.08482 0.448 0.0
C846 C 0.7472 0.09253 0.65943 0.0
C847 C 0.7366 0.09662 0.70012 0.0
C848 C 0.74479 0.09236 0.59682 0.0
C849 C 0.73173 0.09623 0.57341 0.0
C850 C 0.72101 0.1 0.61365 0.0
C851 C 0.72343 0.10027 0.67638 0.0
C852 C 0.72938 0.09654 0.5068 0.0
C853 C 0.71917 0.08775 0.48172 0.0
C854 C 0.73759 0.10498 0.46791 0.0
C855 C 0.74818 0.11485 0.49198 0.0
C856 C 0.74444 0.12509 0.53482 0.0
C857 C 0.75451 0.13427 0.55774 0.0
C858 C 0.76834 0.13336 0.53783 0.0
C859 C 0.77212 0.12331 0.49481 0.0
C860 C 0.7621 0.1141 0.4718 0.0
C861 C 0.70732 0.09899 0.22661 0.0
C862 C 0.71843 0.09662 0.18607 0.0
C863 C 0.70954 0.09876 0.28936 0.0
C864 C 0.72289 0.09599 0.31294 0.0
C865 C 0.73404 0.09378 0.27259 0.0
C866 C 0.73183 0.09408 0.20976 0.0
C867 C 0.72523 0.09557 0.37966 0.0
C868 C 0.73545 0.10433 0.40486 0.0
C869 C 0.7171 0.08701 0.41858 0.0
C870 C 0.70679 0.07684 0.3945 0.0
C871 C 0.71082 0.06673 0.35149 0.0
C872 C 0.70103 0.05725 0.32869 0.0
C873 C 0.6872 0.05771 0.34881 0.0
C874 C 0.68314 0.06763 0.39194 0.0
C875 C 0.69288 0.07714 0.41488 0.0
H876 H 0.67964 0.05036 0.33109 0.0
H877 H 0.77611 0.14048 0.55562 0.0
H878 H 0.90215 0.71295 0.746 0.0
H879 H 0.89994 0.70921 0.63718 0.0
H880 H 0.90469 0.75343 0.60584 0.0
H881 H 0.90639 0.75735 0.71529 0.0
H882 H 0.88505 0.74406 0.53561 0.0
H883 H 0.9318 0.72876 0.57974 0.0
H884 H 0.94989 0.71521 0.63358 0.0
H885 H 0.93058 0.67694 0.57612 0.0
H886 H 0.91227 0.69028 0.52253 0.0
H887 H 0.90212 0.73941 0.21962 0.0
H888 H 0.90226 0.74338 0.32922 0.0
H889 H 0.89233 0.70003 0.3598 0.0
H890 H 0.89188 0.696 0.25023 0.0
H891 H 0.9142 0.70878 0.42988 0.0
H892 H 0.86789 0.72461 0.38226 0.0
H893 H 0.85026 0.73852 0.32733 0.0
H894 H 0.86947 0.77639 0.39008 0.0
H895 H 0.88734 0.7627 0.44472 0.0
C896 C 0.90259 0.72194 0.71631 0.0
C897 C 0.90447 0.73548 0.73987 0.0
C898 C 0.90148 0.71975 0.65371 0.0
C899 C 0.90231 0.73101 0.61293 0.0
C900 C 0.90404 0.74455 0.63624 0.0
C901 C 0.90514 0.74677 0.69896 0.0
C902 C 0.9013 0.72867 0.5461 0.0
C903 C 0.89158 0.73649 0.51242 0.0
C904 C 0.90956 0.71855 0.51576 0.0
C905 C 0.92061 0.71051 0.54753 0.0
C906 C 0.93137 0.71746 0.57888 0.0
C907 C 0.94166 0.70981 0.60932 0.0
C908 C 0.94136 0.69522 0.60837 0.0
C909 C 0.93079 0.68824 0.57685 0.0
C910 C 0.92046 0.69583 0.54637 0.0
C911 C 0.89971 0.73075 0.24935 0.0
C912 C 0.89702 0.71735 0.22567 0.0
C913 C 0.89985 0.73304 0.31221 0.0
C914 C 0.89727 0.72201 0.35275 0.0
C915 C 0.89441 0.70868 0.32937 0.0
C916 C 0.89422 0.70639 0.2666 0.0
C917 C 0.89804 0.72423 0.41954 0.0
C918 C 0.9077 0.71636 0.45316 0.0
C919 C 0.88981 0.73438 0.44965 0.0
C920 C 0.87903 0.74263 0.41709 0.0
C921 C 0.86842 0.7359 0.38394 0.0
C922 C 0.85837 0.74375 0.35294 0.0
C923 C 0.85877 0.75833 0.35508 0.0
C924 C 0.86919 0.7651 0.38839 0.0
C925 C 0.87927 0.7573 0.41944 0.0
H926 H 0.85098 0.76438 0.33104 0.0
H927 H 0.94934 0.68933 0.63199 0.0
H928 H 0.76332 0.59164 0.29751 0.0
H929 H 0.75869 0.5894 0.18864 0.0
H930 H 0.79748 0.61042 0.14892 0.0
H931 H 0.80196 0.61306 0.25769 0.0
H932 H 0.77713 0.61992 0.07738 0.0
H933 H 0.79456 0.57504 0.13695 0.0
H934 H 0.79541 0.55336 0.19735 0.0
H935 H 0.754 0.54278 0.13818 0.0
H936 H 0.75283 0.56452 0.07807 0.0
H937 H 0.7866 0.60329 0.7714 0.0
H938 H 0.7891 0.60391 0.88156 0.0
H939 H 0.74976 0.58293 0.90291 0.0
H940 H 0.74728 0.58151 0.79278 0.0
H941 H 0.76886 0.57345 0.98404 0.0
H942 H 0.75221 0.61872 0.92133 0.0
H943 H 0.75261 0.64001 0.85817 0.0
H944 H 0.79395 0.64946 0.92171 0.0
H945 H 0.79385 0.62815 0.9848 0.0
C946 C 0.77078 0.59596 0.26572 0.0
C947 C 0.78304 0.60252 0.28647 0.0
C948 C 0.76819 0.59453 0.20339 0.0
C949 C 0.77782 0.59959 0.16051 0.0
C950 C 0.78992 0.60638 0.18109 0.0
C951 C 0.79252 0.60779 0.24333 0.0
C952 C 0.77535 0.59783 0.09417 0.0
C953 C 0.77544 0.60974 0.057 0.0
C954 C 0.77287 0.58458 0.06754 0.0
C955 C 0.77355 0.57149 0.10358 0.0
C956 C 0.78559 0.56816 0.13724 0.0
C957 C 0.78614 0.55585 0.17135 0.0
C958 C 0.77475 0.54672 0.17176 0.0
C959 C 0.76281 0.54987 0.13792 0.0
C960 C 0.76219 0.56218 0.1038 0.0
C961 C 0.7785 0.59861 0.79889 0.0
C962 C 0.7666 0.59254 0.77221 0.0
C963 C 0.77994 0.59912 0.86206 0.0
C964 C 0.76952 0.59383 0.90033 0.0
C965 C 0.75789 0.58726 0.87429 0.0
C966 C 0.75645 0.58659 0.81097 0.0
C967 C 0.77073 0.59554 0.96738 0.0
C968 C 0.77041 0.58363 0.00463 0.0
C969 C 0.7731 0.60879 0.99415 0.0
C970 C 0.77303 0.62182 0.95762 0.0
C971 C 0.76139 0.62533 0.92174 0.0
C972 C 0.76157 0.6374 0.88595 0.0
C973 C 0.7733 0.64608 0.88592 0.0
C974 C 0.78486 0.64275 0.9219 0.0
C975 C 0.78473 0.63069 0.95778 0.0
H976 H 0.77343 0.6554 0.85805 0.0
H977 H 0.7752 0.53719 0.19818 0.0
H978 H 0.41116 0.80259 0.24968 0.0
H979 H 0.40977 0.79883 0.14034 0.0
H980 H 0.38248 0.76365 0.16917 0.0
H981 H 0.38345 0.76753 0.27881 0.0
H982 H 0.40411 0.758 0.08836 0.0
H983 H 0.36904 0.79318 0.11833 0.0
H984 H 0.3597 0.81571 0.15439 0.0
H985 H 0.38941 0.83764 0.04359 0.0
H986 H 0.39907 0.81523 0.00754 0.0
H987 H 0.38426 0.74793 0.78178 0.0
H988 H 0.38381 0.75228 0.89113 0.0
H989 H 0.40762 0.79005 0.86478 0.0
H990 H 0.40803 0.78578 0.75512 0.0
H991 H 0.38732 0.79433 0.94497 0.0
H992 H 0.42304 0.75987 0.91725 0.0
H993 H 0.43316 0.73765 0.88155 0.0
H994 H 0.40341 0.71477 0.98839 0.0
H995 H 0.39297 0.73686 0.0241 0.0
C996 C 0.40468 0.79416 0.23315 0.0
C997 C 0.39739 0.7854 0.27367 0.0
C998 C 0.40395 0.792 0.17038 0.0
C999 C 0.39594 0.78102 0.14661 0.0
C1000 C 0.38874 0.77218 0.18663 0.0
C1001 C 0.38937 0.77439 0.24945 0.0
C1002 C 0.39534 0.77861 0.07999 0.0
C1003 C 0.40025 0.76585 0.05703 0.0
C1004 C 0.39067 0.78903 0.0391 0.0
C1005 C 0.38488 0.80252 0.06072 0.0
C1006 C 0.37367 0.8028 0.10208 0.0
C1007 C 0.3683 0.81555 0.12243 0.0
C1008 C 0.37398 0.8281 0.10142 0.0
C1009 C 0.38503 0.82792 0.0599 0.0
C1010 C 0.39045 0.81519 0.03946 0.0
C1011 C 0.3895 0.7571 0.79924 0.0
C1012 C 0.39631 0.76642 0.7597 0.0
C1013 C 0.38921 0.75959 0.86182 0.0
C1014 C 0.39588 0.77137 0.88637 0.0
C1015 C 0.40242 0.78087 0.84692 0.0
C1016 C 0.40264 0.77843 0.78421 0.0
C1017 C 0.39613 0.77371 0.9532 0.0
C1018 C 0.39117 0.78646 0.97625 0.0
C1019 C 0.40088 0.76333 0.9942 0.0
C1020 C 0.40713 0.75002 0.97284 0.0
C1021 C 0.41858 0.7501 0.93274 0.0
C1022 C 0.42439 0.73753 0.91258 0.0
C1023 C 0.41891 0.7248 0.93256 0.0
C1024 C 0.40763 0.72463 0.97288 0.0
C1025 C 0.40177 0.73717 0.99313 0.0
H1026 H 0.42342 0.71508 0.91691 0.0
H1027 H 0.36981 0.83796 0.11721 0.0
H1028 H 0.2344 0.38796 0.28983 0.0
H1029 H 0.23849 0.38801 0.1803 0.0
H1030 H 0.2012 0.41245 0.15345 0.0
H1031 H 0.1972 0.41287 0.26275 0.0
H1032 H 0.20343 0.39012 0.07212 0.0
H1033 H 0.23142 0.42826 0.14519 0.0
H1034 H 0.24913 0.43944 0.21039 0.0
H1035 H 0.28048 0.41156 0.14127 0.0
H1036 H 0.26289 0.40007 0.07627 0.0
H1037 H 0.21499 0.41153 0.76676 0.0
H1038 H 0.21069 0.41104 0.87627 0.0
H1039 H 0.25011 0.39018 0.90417 0.0
H1040 H 0.25447 0.39062 0.79486 0.0
H1041 H 0.24676 0.41045 0.98553 0.0
H1042 H 0.21906 0.37239 0.91138 0.0
H1043 H 0.20139 0.36089 0.84689 0.0
H1044 H 0.1697 0.3881 0.91809 0.0
H1045 H 0.18719 0.39987 0.9823 0.0
C1046 C 0.22712 0.39349 0.26101 0.0
C1047 C 0.21549 0.40047 0.28587 0.0
C1048 C 0.22945 0.39344 0.19819 0.0
C1049 C 0.22018 0.40029 0.15877 0.0
C1050 C 0.20845 0.40705 0.18306 0.0
C1051 C 0.20617 0.40722 0.24584 0.0
C1052 C 0.2228 0.40057 0.09222 0.0
C1053 C 0.21282 0.39471 0.05304 0.0
C1054 C 0.23519 0.40628 0.06755 0.0
C1055 C 0.2458 0.41321 0.10635 0.0
C1056 C 0.24206 0.42444 0.14428 0.0
C1057 C 0.25208 0.43084 0.18113 0.0
C1058 C 0.26591 0.42619 0.1801 0.0
C1059 C 0.26976 0.41514 0.14208 0.0
C1060 C 0.25977 0.40868 0.1052 0.0
C1061 C 0.2227 0.40674 0.79606 0.0
C1062 C 0.23508 0.4011 0.7718 0.0
C1063 C 0.22023 0.40647 0.85876 0.0
C1064 C 0.23001 0.40044 0.89849 0.0
C1065 C 0.24242 0.39492 0.87448 0.0
C1066 C 0.24492 0.39522 0.81187 0.0
C1067 C 0.22739 0.39998 0.96513 0.0
C1068 C 0.23737 0.40583 0.00443 0.0
C1069 C 0.21502 0.39419 0.98989 0.0
C1070 C 0.20447 0.38709 0.9513 0.0
C1071 C 0.20834 0.37599 0.91293 0.0
C1072 C 0.19835 0.3694 0.87649 0.0
C1073 C 0.18443 0.37375 0.87837 0.0
C1074 C 0.18047 0.38471 0.91665 0.0
C1075 C 0.19042 0.39134 0.95313 0.0
H1076 H 0.17672 0.36859 0.85025 0.0
H1077 H 0.27366 0.43116 0.20865 0.0
H1078 H 0.59594 0.23576 0.26972 0.0
H1079 H 0.59477 0.23961 0.16004 0.0
H1080 H 0.61265 0.19888 0.12896 0.0
H1081 H 0.61421 0.19512 0.23878 0.0
H1082 H 0.62388 0.21832 0.05354 0.0
H1083 H 0.57792 0.20388 0.11475 0.0
H1084 H 0.55644 0.205 0.1764 0.0
H1085 H 0.54862 0.24664 0.11232 0.0
H1086 H 0.57019 0.24584 0.05091 0.0
H1087 H 0.60715 0.21231 0.74199 0.0
H1088 H 0.6085 0.20835 0.851 0.0
H1089 H 0.5877 0.2476 0.88363 0.0
H1090 H 0.58556 0.25132 0.7745 0.0
H1091 H 0.57803 0.2288 0.9588 0.0
H1092 H 0.62408 0.24341 0.89835 0.0
H1093 H 0.64573 0.24245 0.83774 0.0
H1094 H 0.6535 0.20072 0.90083 0.0
H1095 H 0.6318 0.20138 0.96133 0.0
C1096 C 0.59983 0.2277 0.2397 0.0
C1097 C 0.60513 0.2151 0.26314 0.0
C1098 C 0.59902 0.22986 0.17691 0.0
C1099 C 0.60345 0.21945 0.13626 0.0
C1100 C 0.60912 0.20703 0.15946 0.0
C1101 C 0.6099 0.20485 0.22223 0.0
C1102 C 0.60191 0.22138 0.06957 0.0
C1103 C 0.61384 0.22045 0.03269 0.0
C1104 C 0.58884 0.22442 0.04254 0.0
C1105 C 0.57574 0.22485 0.07867 0.0
C1106 C 0.57167 0.21331 0.1141 0.0
C1107 C 0.55947 0.21389 0.14897 0.0
C1108 C 0.55119 0.2259 0.1484 0.0
C1109 C 0.55506 0.23735 0.11277 0.0
C1110 C 0.56726 0.23684 0.07788 0.0
C1111 C 0.60266 0.22006 0.77192 0.0
C1112 C 0.5963 0.23222 0.74869 0.0
C1113 C 0.60361 0.21783 0.83462 0.0
C1114 C 0.59846 0.22781 0.87575 0.0
C1115 C 0.59185 0.23979 0.85289 0.0
C1116 C 0.59075 0.24196 0.79019 0.0
C1117 C 0.60003 0.22581 0.94254 0.0
C1118 C 0.58809 0.2267 0.97953 0.0
C1119 C 0.6131 0.22276 0.9697 0.0
C1120 C 0.62625 0.2224 0.93394 0.0
C1121 C 0.63036 0.234 0.89903 0.0
C1122 C 0.64265 0.23352 0.86474 0.0
C1123 C 0.65097 0.22152 0.86533 0.0
C1124 C 0.64704 0.21 0.90039 0.0
C1125 C 0.63476 0.21043 0.93475 0.0
H1126 H 0.66047 0.22116 0.8387 0.0
H1127 H 0.54175 0.22632 0.17544 0.0
H1128 H 0.78443 0.39633 0.22189 0.0
H1129 H 0.78788 0.39694 0.11164 0.0
H1130 H 0.74895 0.41882 0.08982 0.0
H1131 H 0.74536 0.41837 0.19968 0.0
H1132 H 0.75157 0.39709 0.00995 0.0
H1133 H 0.77919 0.4358 0.07551 0.0
H1134 H 0.79706 0.44793 0.13647 0.0
H1135 H 0.82884 0.42121 0.06267 0.0
H1136 H 0.81113 0.40871 0.0022 0.0
H1137 H 0.76243 0.41255 0.6969 0.0
H1138 H 0.75823 0.41449 0.80613 0.0
H1139 H 0.79783 0.39463 0.84198 0.0
H1140 H 0.80209 0.39266 0.73273 0.0
H1141 H 0.79429 0.41663 0.91471 0.0
H1142 H 0.76683 0.37682 0.85614 0.0
H1143 H 0.74916 0.3641 0.79627 0.0
H1144 H 0.71743 0.39253 0.85736 0.0
H1145 H 0.73496 0.40554 0.91697 0.0
C1146 C 0.77667 0.40143 0.19391 0.0
C1147 C 0.76458 0.40724 0.22002 0.0
C1148 C 0.77869 0.40176 0.13094 0.0
C1149 C 0.76877 0.40802 0.09273 0.0
C1150 C 0.75674 0.4139 0.11846 0.0
C1151 C 0.75469 0.41358 0.18141 0.0
C1152 C 0.77086 0.40807 0.0258 0.0
C1153 C 0.7608 0.40157 0.98899 0.0
C1154 C 0.78307 0.41363 0.99866 0.0
C1155 C 0.79378 0.42121 0.03472 0.0
C1156 C 0.78997 0.43241 0.07266 0.0
C1157 C 0.80007 0.43938 0.10709 0.0
C1158 C 0.81407 0.43533 0.10353 0.0
C1159 C 0.818 0.42435 0.06535 0.0
C1160 C 0.80792 0.41732 0.03098 0.0
C1161 C 0.77018 0.40845 0.72792 0.0
C1162 C 0.78258 0.40237 0.70595 0.0
C1163 C 0.76778 0.40961 0.79046 0.0
C1164 C 0.77765 0.40458 0.83236 0.0
C1165 C 0.79007 0.39862 0.81057 0.0
C1166 C 0.79251 0.39751 0.74808 0.0
C1167 C 0.77506 0.40553 0.89891 0.0
C1168 C 0.78503 0.41222 0.93564 0.0
C1169 C 0.7628 0.40009 0.92607 0.0
C1170 C 0.75223 0.39224 0.8905 0.0
C1171 C 0.7561 0.38042 0.85643 0.0
C1172 C 0.74611 0.37315 0.82261 0.0
C1173 C 0.73219 0.37752 0.82287 0.0
C1174 C 0.72822 0.38916 0.85712 0.0
C1175 C 0.73818 0.39649 0.89097 0.0
H1176 H 0.72447 0.37188 0.79665 0.0
H1177 H 0.82188 0.44073 0.13027 0.0
H1178 H 0.60052 0.74088 0.22254 0.0
H1179 H 0.60238 0.74464 0.1131 0.0
H1180 H 0.60122 0.7892 0.14137 0.0
H1181 H 0.59879 0.78555 0.2505 0.0
H1182 H 0.58427 0.78211 0.05208 0.0
H1183 H 0.63178 0.77208 0.10398 0.0
H1184 H 0.65115 0.75861 0.14889 0.0
H1185 H 0.64152 0.72387 0.03277 0.0
H1186 H 0.62196 0.73707 0.9877 0.0
H1187 H 0.60491 0.80288 0.75727 0.0
H1188 H 0.60547 0.79855 0.86653 0.0
H1189 H 0.60183 0.75429 0.83437 0.0
H1190 H 0.60093 0.7585 0.72491 0.0
H1191 H 0.62152 0.76104 0.92476 0.0
H1192 H 0.57375 0.77129 0.8745 0.0
H1193 H 0.5547 0.7851 0.82921 0.0
H1194 H 0.56533 0.81996 0.94309 0.0
H1195 H 0.58461 0.80638 0.9885 0.0
C1196 C 0.60058 0.75148 0.20561 0.0
C1197 C 0.59948 0.76289 0.2457 0.0
C1198 C 0.60181 0.75362 0.14295 0.0
C1199 C 0.6021 0.76721 0.119 0.0
C1200 C 0.60107 0.77862 0.1588 0.0
C1201 C 0.59979 0.7765 0.22141 0.0
C1202 C 0.60295 0.76955 0.05231 0.0
C1203 C 0.59254 0.77767 0.02448 0.0
C1204 C 0.61355 0.76349 0.01593 0.0
C1205 C 0.62531 0.75552 0.04291 0.0
C1206 C 0.63372 0.76153 0.08837 0.0
C1207 C 0.64475 0.75395 0.11379 0.0
C1208 C 0.64754 0.74038 0.09382 0.0
C1209 C 0.63933 0.73437 0.04826 0.0
C1210 C 0.62828 0.74191 0.02272 0.0
C1211 C 0.60416 0.79222 0.77319 0.0
C1212 C 0.60272 0.78107 0.73192 0.0
C1213 C 0.60455 0.78976 0.83576 0.0
C1214 C 0.60355 0.77612 0.85851 0.0
C1215 C 0.60264 0.76491 0.81766 0.0
C1216 C 0.60217 0.76735 0.75497 0.0
C1217 C 0.6029 0.77364 0.92501 0.0
C1218 C 0.6133 0.76549 0.95263 0.0
C1219 C 0.59233 0.77972 0.96136 0.0
C1220 C 0.5807 0.78787 0.93444 0.0
C1221 C 0.57209 0.78194 0.88954 0.0
C1222 C 0.56124 0.78972 0.86389 0.0
C1223 C 0.55882 0.80342 0.88312 0.0
C1224 C 0.56723 0.80935 0.92817 0.0
C1225 C 0.57812 0.80161 0.95392 0.0
H1226 H 0.55041 0.80945 0.86326 0.0
H1227 H 0.65609 0.73453 0.11355 0.0
H1228 H 0.25401 0.6047 0.22727 0.0
H1229 H 0.25018 0.60726 0.11806 0.0
H1230 H 0.20568 0.60441 0.14596 0.0
H1231 H 0.20943 0.60143 0.25499 0.0
H1232 H 0.21392 0.58818 0.05276 0.0
H1233 H 0.22065 0.63545 0.1149 0.0
H1234 H 0.23271 0.65495 0.16591 0.0
H1235 H 0.26841 0.6491 0.05047 0.0
H1236 H 0.25664 0.62941 0.99931 0.0
H1237 H 0.19269 0.61037 0.76154 0.0
H1238 H 0.19687 0.61106 0.87083 0.0
H1239 H 0.24123 0.60842 0.83976 0.0
H1240 H 0.23718 0.60731 0.7301 0.0
H1241 H 0.23305 0.62793 0.93406 0.0
H1242 H 0.22581 0.58012 0.87383 0.0
H1243 H 0.21306 0.56116 0.82246 0.0
H1244 H 0.17736 0.5686 0.93617 0.0
H1245 H 0.18982 0.58786 0.98735 0.0
C1246 C 0.24341 0.60452 0.21026 0.0
C1247 C 0.23204 0.60283 0.25015 0.0
C1248 C 0.24123 0.60613 0.1478 0.0
C1249 C 0.22763 0.60615 0.12386 0.0
C1250 C 0.21626 0.60446 0.16344 0.0
C1251 C 0.21843 0.60287 0.22592 0.0
C1252 C 0.2253 0.60756 0.05735 0.0
C1253 C 0.21793 0.59698 0.02704 0.0
C1254 C 0.23076 0.61891 0.02353 0.0
C1255 C 0.23781 0.63086 0.05363 0.0
C1256 C 0.23111 0.63825 0.10066 0.0
C1257 C 0.23789 0.64935 0.12957 0.0
C1258 C 0.25134 0.65323 0.11155 0.0
C1259 C 0.25801 0.64606 0.06442 0.0
C1260 C 0.25128 0.63494 0.0354 0.0
C1261 C 0.20335 0.60989 0.77764 0.0
C1262 C 0.21457 0.60855 0.73661 0.0
C1263 C 0.20572 0.61041 0.84025 0.0
C1264 C 0.21935 0.60966 0.86335 0.0
C1265 C 0.23063 0.60903 0.82275 0.0
C1266 C 0.22827 0.60842 0.75995 0.0
C1267 C 0.22167 0.60856 0.92987 0.0
C1268 C 0.22903 0.61917 0.96002 0.0
C1269 C 0.21612 0.59729 0.96377 0.0
C1270 C 0.2087 0.58552 0.93398 0.0
C1271 C 0.21521 0.57778 0.88758 0.0
C1272 C 0.20803 0.56697 0.85852 0.0
C1273 C 0.19439 0.56368 0.87596 0.0
C1274 C 0.18792 0.57117 0.92265 0.0
C1275 C 0.19503 0.58204 0.95169 0.0
H1276 H 0.18884 0.55531 0.85337 0.0
H1277 H 0.25658 0.66182 0.13402 0.0
H1278 H 0.41345 0.25477 0.21775 0.0
H1279 H 0.41233 0.25069 0.10835 0.0
H1280 H 0.39242 0.21095 0.13979 0.0
H1281 H 0.39323 0.21504 0.24928 0.0
H1282 H 0.41327 0.2094 0.05324 0.0
H1283 H 0.37318 0.23808 0.09533 0.0
H1284 H 0.36086 0.25865 0.13639 0.0
H1285 H 0.38512 0.28558 0.02139 0.0
H1286 H 0.39773 0.26518 0.98025 0.0
H1287 H 0.39051 0.19667 0.75207 0.0
H1288 H 0.39124 0.20059 0.86189 0.0
H1289 H 0.40737 0.24211 0.83183 0.0
H1290 H 0.40648 0.23827 0.72198 0.0
H1291 H 0.3884 0.2427 0.91839 0.0
H1292 H 0.42869 0.21461 0.87654 0.0
H1293 H 0.4416 0.19439 0.83565 0.0
H1294 H 0.41793 0.16679 0.94994 0.0
H1295 H 0.40473 0.18684 0.99092 0.0
C1296 C 0.40873 0.24521 0.20162 0.0
C1297 C 0.40337 0.23528 0.24273 0.0
C1298 C 0.40813 0.24287 0.13894 0.0
C1299 C 0.40216 0.23058 0.11589 0.0
C1300 C 0.39709 0.22051 0.15662 0.0
C1301 C 0.39762 0.22285 0.21935 0.0
C1302 C 0.40111 0.22829 0.04927 0.0
C1303 C 0.40768 0.21657 0.02379 0.0
C1304 C 0.39411 0.23784 0.01073 0.0
C1305 C 0.38649 0.25012 0.03515 0.0
C1306 C 0.37596 0.2484 0.07915 0.0
C1307 C 0.36892 0.26002 0.10237 0.0
C1308 C 0.37223 0.27341 0.08162 0.0
C1309 C 0.38257 0.2752 0.03748 0.0
C1310 C 0.38967 0.26362 0.01415 0.0
C1311 C 0.39424 0.20661 0.76892 0.0
C1312 C 0.39848 0.21713 0.72832 0.0
C1313 C 0.39468 0.20885 0.8317 0.0
C1314 C 0.39958 0.22157 0.85528 0.0
C1315 C 0.40355 0.2322 0.81479 0.0
C1316 C 0.403 0.23001 0.75195 0.0
C1317 C 0.40059 0.22379 0.9221 0.0
C1318 C 0.39401 0.23551 0.9477 0.0
C1319 C 0.40767 0.21428 0.9607 0.0
C1320 C 0.41563 0.20221 0.93635 0.0
C1321 C 0.42617 0.20422 0.89263 0.0
C1322 C 0.43355 0.19279 0.86949 0.0
C1323 C 0.43056 0.17931 0.89007 0.0
C1324 C 0.42021 0.17724 0.93398 0.0
C1325 C 0.41279 0.18863 0.95721 0.0
H1326 H 0.43628 0.17048 0.8721 0.0
H1327 H 0.36676 0.2824 0.09966 0.0
H1328 H 0.32062 0.13644 0.03511 0.0
H1329 H 0.33623 0.14825 0.10654 0.0
H1330 H 0.31618 0.12718 0.2562 0.0
H1331 H 0.30057 0.11534 0.18534 0.0
H1332 H 0.31796 0.15565 0.27296 0.0
H1333 H 0.34854 0.11814 0.21786 0.0
H1334 H 0.36133 0.10269 0.14753 0.0
H1335 H 0.38359 0.13797 0.07581 0.0
H1336 H 0.37078 0.15366 0.14514 0.0
H1337 H 0.3624 0.18228 0.49859 0.0
H1338 H 0.35041 0.16572 0.43229 0.0
H1339 H 0.37214 0.18265 0.277 0.0
H1340 H 0.38449 0.199 0.3435 0.0
H1341 H 0.36977 0.15509 0.26593 0.0
H1342 H 0.33833 0.19279 0.3106 0.0
H1343 H 0.32543 0.20908 0.37694 0.0
H1344 H 0.3047 0.17454 0.46287 0.0
H1345 H 0.31767 0.15806 0.39771 0.0
C1346 C 0.31964 0.13418 0.08317 0.0
C1347 C 0.30931 0.12494 0.10444 0.0
C1348 C 0.32861 0.1409 0.12393 0.0
C1349 C 0.32741 0.13856 0.18672 0.0
C1350 C 0.31731 0.12913 0.20798 0.0
C1351 C 0.30842 0.12231 0.16725 0.0
C1352 C 0.33608 0.14661 0.2303 0.0
C1353 C 0.32929 0.15535 0.27211 0.0
C1354 C 0.35085 0.1465 0.228 0.0
C1355 C 0.3586 0.13709 0.18634 0.0
C1356 C 0.35607 0.12262 0.18674 0.0
C1357 C 0.36335 0.11382 0.14712 0.0
C1358 C 0.37325 0.11935 0.10713 0.0
C1359 C 0.37591 0.1337 0.10678 0.0
C1360 C 0.36866 0.14255 0.14627 0.0
C1361 C 0.36473 0.1824 0.4504 0.0
C1362 C 0.3743 0.19205 0.42622 0.0
C1363 C 0.35783 0.17295 0.4125 0.0
C1364 C 0.36014 0.17313 0.34944 0.0
C1365 C 0.37014 0.18234 0.32548 0.0
C1366 C 0.37719 0.1917 0.36355 0.0
C1367 C 0.35164 0.16418 0.30838 0.0
C1368 C 0.35844 0.15532 0.267 0.0
C1369 C 0.33685 0.16429 0.31041 0.0
C1370 C 0.329 0.17418 0.34949 0.0
C1371 C 0.33107 0.18867 0.34387 0.0
C1372 C 0.32375 0.19794 0.38126 0.0
C1373 C 0.31426 0.19285 0.42413 0.0
C1374 C 0.31205 0.17847 0.42964 0.0
C1375 C 0.31937 0.16916 0.39244 0.0
H1376 H 0.3086 0.20004 0.45304 0.0
H1377 H 0.37887 0.11252 0.0765 0.0
H1378 H 0.81629 0.39132 0.37936 0.0
H1379 H 0.83404 0.37901 0.31938 0.0
H1380 H 0.81459 0.33962 0.36442 0.0
H1381 H 0.79769 0.35184 0.42798 0.0
H1382 H 0.83982 0.33494 0.36374 0.0
H1383 H 0.81039 0.35808 0.21652 0.0
H1384 H 0.79848 0.37828 0.17093 0.0
H1385 H 0.83795 0.39876 0.14457 0.0
H1386 H 0.85012 0.37849 0.18972 0.0
H1387 H 0.85647 0.31054 0.03608 0.0
H1388 H 0.84464 0.32613 0.10651 0.0
H1389 H 0.87895 0.32233 0.23274 0.0
H1390 H 0.89069 0.30621 0.1629 0.0
H1391 H 0.84904 0.35009 0.15192 0.0
H1392 H 0.8661 0.32495 0.37994 0.0
H1393 H 0.87364 0.30213 0.4202 0.0
H1394 H 0.85236 0.28123 0.27448 0.0
H1395 H 0.84446 0.30391 0.23399 0.0
C1396 C 0.81591 0.38003 0.37646 0.0
C1397 C 0.80565 0.37251 0.4081 0.0
C1398 C 0.826 0.37298 0.34187 0.0
C1399 C 0.8256 0.35832 0.33611 0.0
C1400 C 0.81529 0.35088 0.36812 0.0
C1401 C 0.80555 0.35788 0.40425 0.0
C1402 C 0.83558 0.35064 0.29585 0.0
C1403 C 0.84186 0.33832 0.31752 0.0
C1404 C 0.83827 0.35485 0.23521 0.0
C1405 C 0.83111 0.3669 0.2071 0.0
C1406 C 0.81651 0.36692 0.20113 0.0
C1407 C 0.80972 0.37838 0.17535 0.0
C1408 C 0.81744 0.3899 0.15541 0.0
C1409 C 0.83199 0.38986 0.16032 0.0
C1410 C 0.83884 0.37837 0.18577 0.0
C1411 C 0.86159 0.31307 0.07859 0.0
C1412 C 0.8745 0.30703 0.09397 0.0
C1413 C 0.8548 0.32205 0.11888 0.0
C1414 C 0.86079 0.32533 0.17538 0.0
C1415 C 0.87397 0.31977 0.18993 0.0
C1416 C 0.88071 0.31061 0.14981 0.0
C1417 C 0.85287 0.33417 0.21918 0.0
C1418 C 0.84712 0.34679 0.19839 0.0
C1419 C 0.85014 0.32986 0.27967 0.0
C1420 C 0.85487 0.31615 0.30348 0.0
C1421 C 0.86301 0.31548 0.35656 0.0
C1422 C 0.86731 0.30257 0.37951 0.0
C1423 C 0.8635 0.29023 0.34988 0.0
C1424 C 0.85534 0.29079 0.29729 0.0
C1425 C 0.85095 0.30368 0.27432 0.0
H1426 H 0.86684 0.28024 0.36769 0.0
H1427 H 0.81218 0.39884 0.13614 0.0
H1428 H 0.63869 0.81552 0.50357 0.0
H1429 H 0.65079 0.83193 0.43696 0.0
H1430 H 0.62421 0.81981 0.2878 0.0
H1431 H 0.61185 0.8035 0.35441 0.0
H1432 H 0.65281 0.81864 0.26083 0.0
H1433 H 0.62015 0.8511 0.34748 0.0
H1434 H 0.60777 0.86307 0.43084 0.0
H1435 H 0.64674 0.87882 0.49898 0.0
H1436 H 0.65938 0.86676 0.41649 0.0
H1437 H 0.68059 0.86661 0.0515 0.0
H1438 H 0.66404 0.85423 0.11664 0.0
H1439 H 0.68536 0.86976 0.27576 0.0
H1440 H 0.70168 0.88254 0.21072 0.0
H1441 H 0.65832 0.86954 0.29607 0.0
H1442 H 0.69133 0.83654 0.21877 0.0
H1443 H 0.70489 0.824 0.14062 0.0
H1444 H 0.66694 0.80845 0.06166 0.0
H1445 H 0.65313 0.82108 0.13882 0.0
C1446 C 0.63527 0.81644 0.4568 0.0
C1447 C 0.62439 0.80802 0.4342 0.0
C1448 C 0.64219 0.82587 0.41883 0.0
C1449 C 0.6384 0.82709 0.35745 0.0
C1450 C 0.62731 0.81899 0.33504 0.0
C1451 C 0.62027 0.80965 0.3732 0.0
C1452 C 0.64661 0.83614 0.31599 0.0
C1453 C 0.6538 0.82982 0.26775 0.0
C1454 C 0.6483 0.85063 0.32654 0.0
C1455 C 0.64072 0.85792 0.37607 0.0
C1456 C 0.62609 0.85702 0.38052 0.0
C1457 C 0.61903 0.86384 0.42756 0.0
C1458 C 0.62647 0.87168 0.47026 0.0
C1459 C 0.64099 0.87273 0.4659 0.0
C1460 C 0.64811 0.86592 0.41897 0.0
C1461 C 0.68166 0.86751 0.10038 0.0
C1462 C 0.69249 0.87548 0.12595 0.0
C1463 C 0.67223 0.86037 0.13759 0.0
C1464 C 0.67362 0.8608 0.20116 0.0
C1465 C 0.68409 0.86922 0.22686 0.0
C1466 C 0.69342 0.87653 0.1896 0.0
C1467 C 0.66452 0.85205 0.2406 0.0
C1468 C 0.65723 0.85839 0.28868 0.0
C1469 C 0.66291 0.83751 0.23062 0.0
C1470 C 0.67119 0.82989 0.18416 0.0
C1471 C 0.68587 0.83054 0.18444 0.0
C1472 C 0.6936 0.8234 0.14036 0.0
C1473 C 0.68678 0.81547 0.09609 0.0
C1474 C 0.67221 0.81462 0.0959 0.0
C1475 C 0.66442 0.82177 0.1398 0.0
H1476 H 0.69278 0.80994 0.06203 0.0
H1477 H 0.62098 0.87695 0.50664 0.0
H1478 H 0.18764 0.60795 0.3702 0.0
H1479 H 0.17258 0.61849 0.29246 0.0
H1480 H 0.16922 0.65591 0.40038 0.0
H1481 H 0.18403 0.64547 0.47858 0.0
H1482 H 0.14385 0.63331 0.29979 0.0
H1483 H 0.17997 0.68086 0.2971 0.0
H1484 H 0.20458 0.68662 0.31957 0.0
H1485 H 0.21699 0.64511 0.26882 0.0
H1486 H 0.19251 0.6392 0.24533 0.0
H1487 H 0.11283 0.68979 0.13487 0.0
H1488 H 0.12374 0.67437 0.20944 0.0
H1489 H 0.15693 0.66533 0.08275 0.0
H1490 H 0.14622 0.68088 0.00826 0.0
H1491 H 0.16754 0.67179 0.18909 0.0
H1492 H 0.13141 0.64105 0.11876 0.0
H1493 H 0.10723 0.63421 0.09434 0.0
H1494 H 0.09545 0.63974 0.28119 0.0
H1495 H 0.11953 0.64675 0.30664 0.0
C1496 C 0.18347 0.61832 0.37794 0.0
C1497 C 0.18711 0.62591 0.43039 0.0
C1498 C 0.17482 0.62427 0.33366 0.0
C1499 C 0.16986 0.63796 0.34082 0.0
C1500 C 0.17295 0.64531 0.39425 0.0
C1501 C 0.18143 0.63932 0.43883 0.0
C1502 C 0.16278 0.64519 0.29005 0.0
C1503 C 0.14897 0.6417 0.27532 0.0
C1504 C 0.16961 0.65596 0.25778 0.0
C1505 C 0.1844 0.65957 0.27003 0.0
C1506 C 0.18797 0.67301 0.29046 0.0
C1507 C 0.20189 0.67629 0.30343 0.0
C1508 C 0.21233 0.66623 0.29583 0.0
C1509 C 0.20889 0.65288 0.27494 0.0
C1510 C 0.19499 0.64956 0.26187 0.0
C1511 C 0.12239 0.68444 0.12263 0.0
C1512 C 0.1287 0.68666 0.06566 0.0
C1513 C 0.1286 0.67557 0.16535 0.0
C1514 C 0.14118 0.66867 0.15182 0.0
C1515 C 0.14727 0.67059 0.09437 0.0
C1516 C 0.14109 0.67945 0.05172 0.0
C1517 C 0.14842 0.66004 0.19839 0.0
C1518 C 0.16232 0.66335 0.21288 0.0
C1519 C 0.14171 0.64893 0.22946 0.0
C1520 C 0.12725 0.64456 0.21447 0.0
C1521 C 0.12364 0.6409 0.15457 0.0
C1522 C 0.10996 0.63697 0.14056 0.0
C1523 C 0.0998 0.63657 0.18616 0.0
C1524 C 0.10332 0.64007 0.24591 0.0
C1525 C 0.117 0.644 0.26016 0.0
H1526 H 0.08921 0.63354 0.17521 0.0
H1527 H 0.22309 0.66878 0.30602 0.0
H1528 H 0.38743 0.80647 0.65037 0.0
H1529 H 0.37633 0.82275 0.72094 0.0
H1530 H 0.34841 0.83636 0.57902 0.0
H1531 H 0.35939 0.82005 0.50805 0.0
H1532 H 0.35867 0.85844 0.65631 0.0
H1533 H 0.33748 0.81179 0.67284 0.0
H1534 H 0.33976 0.78638 0.68916 0.0
H1535 H 0.35846 0.79375 0.86373 0.0
H1536 H 0.3564 0.81921 0.84813 0.0
H1537 H 0.29914 0.88521 0.80864 0.0
H1538 H 0.31639 0.87354 0.74432 0.0
H1539 H 0.33508 0.85483 0.90332 0.0
H1540 H 0.31759 0.86611 0.96745 0.0
H1541 H 0.33223 0.83587 0.82362 0.0
H1542 H 0.35028 0.88154 0.82065 0.0
H1543 H 0.35083 0.9071 0.80854 0.0
H1544 H 0.34234 0.90278 0.61781 0.0
H1545 H 0.34162 0.87717 0.6289 0.0
C1546 C 0.37902 0.81299 0.63387 0.0
C1547 C 0.37415 0.81176 0.57375 0.0
C1548 C 0.37272 0.82233 0.6743 0.0
C1549 C 0.36146 0.83064 0.65532 0.0
C1550 C 0.35708 0.83002 0.59452 0.0
C1551 C 0.36333 0.82064 0.55413 0.0
C1552 C 0.35342 0.83904 0.6998 0.0
C1553 C 0.35276 0.85358 0.69268 0.0
C1554 C 0.34625 0.83267 0.74867 0.0
C1555 C 0.34686 0.81738 0.75918 0.0
C1556 C 0.34208 0.80798 0.71468 0.0
C1557 C 0.34334 0.79358 0.72378 0.0
C1558 C 0.34926 0.78846 0.77742 0.0
C1559 C 0.35386 0.79773 0.82223 0.0
C1560 C 0.35262 0.81214 0.81334 0.0
C1561 C 0.30705 0.87878 0.82995 0.0
C1562 C 0.30698 0.87657 0.89314 0.0
C1563 C 0.31694 0.87212 0.79312 0.0
C1564 C 0.32714 0.86334 0.81889 0.0
C1565 C 0.32731 0.86148 0.88222 0.0
C1566 C 0.31732 0.86797 0.91888 0.0
C1567 C 0.33709 0.85546 0.7797 0.0
C1568 C 0.33816 0.84092 0.78778 0.0
C1569 C 0.34493 0.86195 0.73278 0.0
C1570 C 0.34553 0.87739 0.72587 0.0
C1571 C 0.34834 0.88602 0.77624 0.0
C1572 C 0.34874 0.90053 0.76953 0.0
C1573 C 0.34651 0.90657 0.71253 0.0
C1574 C 0.34397 0.8981 0.66204 0.0
C1575 C 0.34356 0.88358 0.66852 0.0
H1576 H 0.34683 0.91781 0.70743 0.0
H1577 H 0.35028 0.77731 0.78428 0.0
H1578 H 0.13632 0.32372 0.98812 0.0
H1579 H 0.14753 0.33918 0.91418 0.0
H1580 H 0.1271 0.31722 0.76787 0.0
H1581 H 0.11588 0.30174 0.84138 0.0
H1582 H 0.15505 0.31998 0.74861 0.0
H1583 H 0.11697 0.34948 0.8027 0.0
H1584 H 0.10113 0.36217 0.87169 0.0
H1585 H 0.13558 0.38641 0.93871 0.0
H1586 H 0.15163 0.37372 0.87063 0.0
H1587 H 0.17961 0.36413 0.51724 0.0
H1588 H 0.16338 0.35233 0.58571 0.0
H1589 H 0.18125 0.37425 0.73835 0.0
H1590 H 0.19729 0.38637 0.66992 0.0
H1591 H 0.15332 0.37179 0.75133 0.0
H1592 H 0.1915 0.34045 0.70539 0.0
H1593 H 0.20741 0.32765 0.63693 0.0
H1594 H 0.17241 0.30695 0.55452 0.0
H1595 H 0.15629 0.3198 0.62198 0.0
C1596 C 0.13407 0.32229 0.94027 0.0
C1597 C 0.12517 0.3115 0.92075 0.0
C1598 C 0.14044 0.33117 0.89806 0.0
C1599 C 0.13809 0.3294 0.83551 0.0
C1600 C 0.12903 0.3188 0.81593 0.0
C1601 C 0.12256 0.31 0.85813 0.0
C1602 C 0.14575 0.33807 0.79049 0.0
C1603 C 0.15447 0.3313 0.74857 0.0
C1604 C 0.14523 0.35284 0.79126 0.0
C1605 C 0.13556 0.36054 0.83205 0.0
C1606 C 0.1212 0.35743 0.83254 0.0
C1607 C 0.11217 0.36464 0.8714 0.0
C1608 C 0.11735 0.37506 0.90971 0.0
C1609 C 0.13157 0.37832 0.9091 0.0
C1610 C 0.14064 0.37113 0.87035 0.0
C1611 C 0.18 0.36657 0.5653 0.0
C1612 C 0.18986 0.37609 0.58814 0.0
C1613 C 0.17073 0.35977 0.60445 0.0
C1614 C 0.17129 0.36216 0.66741 0.0
C1615 C 0.18066 0.37217 0.69003 0.0
C1616 C 0.18986 0.37909 0.65077 0.0
C1617 C 0.16264 0.35368 0.70975 0.0
C1618 C 0.15379 0.36047 0.75121 0.0
C1619 C 0.16302 0.33889 0.70874 0.0
C1620 C 0.1727 0.33109 0.66856 0.0
C1621 C 0.18721 0.3332 0.67251 0.0
C1622 C 0.19626 0.32595 0.6339 0.0
C1623 C 0.19093 0.31649 0.59142 0.0
C1624 C 0.17653 0.31426 0.5875 0.0
C1625 C 0.16743 0.3215 0.62597 0.0
H1626 H 0.19795 0.31089 0.56156 0.0
H1627 H 0.11034 0.38064 0.93976 0.0
H1628 H 0.69502 0.10891 0.81372 0.0
H1629 H 0.67928 0.1218 0.74604 0.0
H1630 H 0.67048 0.15109 0.88991 0.0
H1631 H 0.68606 0.13832 0.95781 0.0
H1632 H 0.6502 0.131 0.75351 0.0
H1633 H 0.67411 0.18364 0.82361 0.0
H1634 H 0.69592 0.19273 0.86842 0.0
H1635 H 0.71884 0.15845 0.79151 0.0
H1636 H 0.69723 0.14933 0.74523 0.0
H1637 H 0.61207 0.1901 0.63256 0.0
H1638 H 0.62407 0.17369 0.70062 0.0
H1639 H 0.66028 0.17459 0.58413 0.0
H1640 H 0.64846 0.19082 0.51603 0.0
H1641 H 0.66672 0.1789 0.7054 0.0
H1642 H 0.6402 0.14685 0.58182 0.0
H1643 H 0.6187 0.13734 0.53605 0.0
H1644 H 0.60178 0.12979 0.71387 0.0
H1645 H 0.62312 0.13945 0.76072 0.0
C1646 C 0.68956 0.11795 0.83129 0.0
C1647 C 0.69193 0.12267 0.891 0.0
C1648 C 0.68052 0.12526 0.79263 0.0
C1649 C 0.67383 0.13744 0.81293 0.0
C1650 C 0.67562 0.14175 0.87336 0.0
C1651 C 0.68455 0.13442 0.91205 0.0
C1652 C 0.66611 0.14645 0.7697 0.0
C1653 C 0.65376 0.14148 0.74302 0.0
C1654 C 0.67086 0.16007 0.75574 0.0
C1655 C 0.68402 0.16573 0.78154 0.0
C1656 C 0.68382 0.1781 0.81595 0.0
C1657 C 0.69615 0.18325 0.84162 0.0
C1658 C 0.70875 0.17615 0.83299 0.0
C1659 C 0.70907 0.16392 0.79832 0.0
C1660 C 0.69678 0.15876 0.77237 0.0
C1661 C 0.62255 0.18671 0.62123 0.0
C1662 C 0.6293 0.19178 0.56885 0.0
C1663 C 0.62937 0.17733 0.66008 0.0
C1664 C 0.64306 0.17293 0.64731 0.0
C1665 C 0.64974 0.17788 0.59485 0.0
C1666 C 0.64292 0.18713 0.55585 0.0
C1667 C 0.6507 0.16353 0.68934 0.0
C1668 C 0.66307 0.16845 0.716 0.0
C1669 C 0.64599 0.14986 0.70284 0.0
C1670 C 0.63319 0.144 0.67476 0.0
C1671 C 0.63185 0.14327 0.61116 0.0
C1672 C 0.6197 0.13783 0.58502 0.0
C1673 C 0.60887 0.133 0.62203 0.0
C1674 C 0.61017 0.13356 0.68526 0.0
C1675 C 0.6223 0.139 0.71163 0.0
H1676 H 0.59947 0.12879 0.6017 0.0
H1677 H 0.71827 0.18013 0.85307 0.0
H1678 H 0.81788 0.60943 0.62282 0.0
H1679 H 0.83558 0.62125 0.68507 0.0
H1680 H 0.81752 0.66116 0.63793 0.0
H1681 H 0.80062 0.64946 0.5729 0.0
H1682 H 0.84301 0.66498 0.63987 0.0
H1683 H 0.81195 0.64243 0.784 0.0
H1684 H 0.79974 0.62271 0.83167 0.0
H1685 H 0.83902 0.6025 0.86675 0.0
H1686 H 0.85147 0.62222 0.81883 0.0
H1687 H 0.85643 0.69004 0.96916 0.0
H1688 H 0.84511 0.67481 0.8958 0.0
H1689 H 0.88123 0.67734 0.77887 0.0
H1690 H 0.89256 0.69301 0.85192 0.0
H1691 H 0.85011 0.65048 0.85399 0.0
H1692 H 0.86972 0.67422 0.62724 0.0
H1693 H 0.87783 0.69671 0.58512 0.0
H1694 H 0.85576 0.71878 0.72529 0.0
H1695 H 0.84728 0.69647 0.76744 0.0
C1696 C 0.81779 0.62072 0.62577 0.0
C1697 C 0.80791 0.62853 0.59303 0.0
C1698 C 0.82785 0.62749 0.66159 0.0
C1699 C 0.82786 0.64217 0.66718 0.0
C1700 C 0.81792 0.64988 0.63428 0.0
C1701 C 0.80818 0.64316 0.59725 0.0
C1702 C 0.83785 0.64964 0.70814 0.0
C1703 C 0.84461 0.66173 0.68661 0.0
C1704 C 0.84002 0.64557 0.76932 0.0
C1705 C 0.83259 0.63366 0.79718 0.0
C1706 C 0.81796 0.63372 0.80147 0.0
C1707 C 0.81101 0.62254 0.82869 0.0
C1708 C 0.8186 0.61127 0.85206 0.0
C1709 C 0.83316 0.6112 0.84846 0.0
C1710 C 0.84017 0.62238 0.82136 0.0
C1711 C 0.86206 0.68732 0.9281 0.0
C1712 C 0.87539 0.69282 0.91637 0.0
C1713 C 0.85555 0.67856 0.8861 0.0
C1714 C 0.86223 0.67499 0.83141 0.0
C1715 C 0.87576 0.68011 0.82025 0.0
C1716 C 0.88225 0.68901 0.86221 0.0
C1717 C 0.85476 0.66608 0.78644 0.0
C1718 C 0.84866 0.65362 0.807 0.0
C1719 C 0.85275 0.67017 0.72515 0.0
C1720 C 0.85804 0.68364 0.70099 0.0
C1721 C 0.86661 0.68387 0.64908 0.0
C1722 C 0.87123 0.69659 0.62509 0.0
C1723 C 0.86731 0.70915 0.65255 0.0
C1724 C 0.8588 0.70903 0.70415 0.0
C1725 C 0.8541 0.69635 0.72813 0.0
H1726 H 0.87084 0.71899 0.63375 0.0
H1727 H 0.81327 0.60257 0.87316 0.0
H1728 H 0.29768 0.0614 0.0285 0.0
H1729 H 0.30293 0.03633 0.01886 0.0
H1730 H 0.26058 0.02647 0.07018 0.0
H1731 H 0.25528 0.0513 0.07914 0.0
H1732 H 0.28038 0.00871 0.12399 0.0
H1733 H 0.26866 0.02828 0.9249 0.0
H1734 H 0.27249 0.04456 0.83956 0.0
H1735 H 0.31395 0.02837 0.8151 0.0
H1736 H 0.31041 0.01212 0.90094 0.0
H1737 H 0.25314 0.94863 1.00166 0.0
H1738 H 0.25923 0.97282 0.02152 0.0
H1739 H 0.30097 0.96548 0.95509 0.0
H1740 H 0.29491 0.9409 0.93485 0.0
H1741 H 0.28864 0.99126 0.91446 0.0
H1742 H 0.298 0.96784 0.09958 0.0
H1743 H 0.29359 0.95127 0.18321 0.0
H1744 H 0.25706 0.97441 0.23496 0.0
H1745 H 0.2611 0.991 0.15096 0.0
C1746 C 0.2896 0.05385 0.03879 0.0
C1747 C 0.27605 0.05828 0.05425 0.0
C1748 C 0.29259 0.03956 0.03305 0.0
C1749 C 0.28212 0.02955 0.04352 0.0
C1750 C 0.26882 0.034 0.06203 0.0
C1751 C 0.26579 0.0482 0.06685 0.0
C1752 C 0.28441 0.01449 0.03104 0.0
C1753 C 0.28228 0.00488 0.07832 0.0
C1754 C 0.28729 0.0095 0.97173 0.0
C1755 C 0.28934 0.01913 0.91975 0.0
C1756 C 0.27863 0.02827 0.9016 0.0
C1757 C 0.28074 0.03748 0.85312 0.0
C1758 C 0.29347 0.03754 0.82207 0.0
C1759 C 0.3041 0.02834 0.8393 0.0
C1760 C 0.30205 0.01913 0.88784 0.0
C1761 C 0.26362 0.95209 0.99087 0.0
C1762 C 0.27357 0.94278 0.96703 0.0
C1763 C 0.2671 0.96595 0.00248 0.0
C1764 C 0.28061 0.97089 0.99077 0.0
C1765 C 0.2905 0.96182 0.96481 0.0
C1766 C 0.28702 0.94782 0.95328 0.0
C1767 C 0.28412 0.98551 0.00707 0.0
C1768 C 0.28725 0.99504 0.96057 0.0
C1769 C 0.28222 0.99044 0.06723 0.0
C1770 C 0.27985 0.98066 0.11873 0.0
C1771 C 0.28898 0.96937 0.12857 0.0
C1772 C 0.28655 0.95997 0.17607 0.0
C1773 C 0.27506 0.96179 0.21437 0.0
C1774 C 0.26598 0.97302 0.20529 0.0
C1775 C 0.26835 0.98245 0.15779 0.0
H1776 H 0.2732 0.9545 0.25113 0.0
H1777 H 0.29509 0.04468 0.78457 0.0
H1778 H 0.05309 0.25538 0.97609 0.0
H1779 H 0.02812 0.26027 0.97772 0.0
H1780 H 0.03657 0.30439 0.99185 0.0
H1781 H 0.06186 0.29954 0.98959 0.0
H1782 H 0.01594 0.29327 0.07814 0.0
H1783 H 0.02451 0.29495 0.86504 0.0
H1784 H 0.03443 0.28707 0.76744 0.0
H1785 H 0.01137 0.24873 0.78046 0.0
H1786 H 0.00148 0.25627 0.87864 0.0
H1787 H 0.93998 0.29682 0.04954 0.0
H1788 H 0.96499 0.3022 0.03777 0.0
H1789 H 0.97302 0.25919 0.99086 0.0
H1790 H 0.94838 0.25382 0.00188 0.0
H1791 H 0.9853 0.27647 0.91161 0.0
H1792 H 0.98085 0.27254 0.13147 0.0
H1793 H 0.97148 0.27925 0.23179 0.0
H1794 H 0.98697 0.32097 0.20737 0.0
H1795 H 0.99628 0.31453 0.1065 0.0
C1796 C 0.04968 0.26615 0.97917 0.0
C1797 C 0.05944 0.27708 0.98258 0.0
C1798 C 0.0354 0.26892 0.97999 0.0
C1799 C 0.0305 0.28269 0.98466 0.0
C1800 C 0.04017 0.2937 0.98811 0.0
C1801 C 0.05457 0.29092 0.98643 0.0
C1802 C 0.01522 0.2852 0.98679 0.0
C1803 C 0.0092 0.28997 0.04118 0.0
C1804 C 0.00647 0.28072 0.93884 0.0
C1805 C 0.01229 0.27617 0.87941 0.0
C1806 C 0.02162 0.2848 0.84731 0.0
C1807 C 0.02723 0.2804 0.79183 0.0
C1808 C 0.02354 0.26741 0.76778 0.0
C1809 C 0.01421 0.2588 0.79912 0.0
C1810 C 0.00858 0.26314 0.85466 0.0
C1811 C 0.94713 0.28853 0.03715 0.0
C1812 C 0.94218 0.27491 0.02643 0.0
C1813 C 0.9614 0.29161 0.03041 0.0
C1814 C 0.97087 0.2811 0.01313 0.0
C1815 C 0.96591 0.26751 0.00359 0.0
C1816 C 0.95178 0.26444 0.01017 0.0
C1817 C 0.98599 0.28396 0.00393 0.0
C1818 C 0.99199 0.28018 0.94802 0.0
C1819 C 0.99468 0.28926 0.05064 0.0
C1820 C 0.98909 0.29311 0.11116 0.0
C1821 C 0.98214 0.28317 0.14728 0.0
C1822 C 0.97687 0.28692 0.20427 0.0
C1823 C 0.97858 0.30054 0.22584 0.0
C1824 C 0.98562 0.31043 0.19054 0.0
C1825 C 0.9909 0.30674 0.13347 0.0
H1826 H 0.97449 0.30342 0.26998 0.0
H1827 H 0.0279 0.26402 0.72484 0.0
H1828 H 0.7041 0.93832 0.04974 0.0
H1829 H 0.69846 0.96293 0.02883 0.0
H1830 H 0.74002 0.97486 0.08399 0.0
H1831 H 0.7457 0.95046 0.1043 0.0
H1832 H 0.7198 0.99328 0.12557 0.0
H1833 H 0.73344 0.96973 0.93831 0.0
H1834 H 0.73096 0.95156 0.85944 0.0
H1835 H 0.6894 0.96587 0.8206 0.0
H1836 H 0.69159 0.98402 0.89983 0.0
H1837 H 0.74725 0.04983 0.97516 0.0
H1838 H 0.7414 0.02571 0.99835 0.0
H1839 H 0.69835 0.03349 0.95205 0.0
H1840 H 0.7041 0.05802 0.92909 0.0
H1841 H 0.71241 0.00577 0.9088 0.0
H1842 H 0.70154 0.03285 0.08603 0.0
H1843 H 0.70608 0.05144 0.1611 0.0
H1844 H 0.7436 0.03057 0.21746 0.0
H1845 H 0.73943 0.01198 0.14195 0.0
C1846 C 0.7119 0.94626 0.05863 0.0
C1847 C 0.72535 0.94251 0.07845 0.0
C1848 C 0.7087 0.96027 0.04635 0.0
C1849 C 0.71886 0.9707 0.05446 0.0
C1850 C 0.73202 0.967 0.07749 0.0
C1851 C 0.73527 0.95305 0.08891 0.0
C1852 C 0.71641 0.98534 0.03514 0.0
C1853 C 0.71803 0.99601 0.07831 0.0
C1854 C 0.71386 0.9889 0.97358 0.0
C1855 C 0.7126 0.9781 0.92554 0.0
C1856 C 0.72374 0.96892 0.91328 0.0
C1857 C 0.72239 0.95864 0.86848 0.0
C1858 C 0.71 0.95751 0.83526 0.0
C1859 C 0.69897 0.96672 0.84652 0.0
C1860 C 0.70026 0.97701 0.89135 0.0
C1861 C 0.73654 0.04646 0.96913 0.0
C1862 C 0.72611 0.05591 0.95081 0.0
C1863 C 0.73323 0.03264 0.98237 0.0
C1864 C 0.71944 0.02788 0.97743 0.0
C1865 C 0.70906 0.03701 0.95611 0.0
C1866 C 0.71236 0.05099 0.94311 0.0
C1867 C 0.7161 0.01363 0.9991 0.0
C1868 C 0.71357 0.00304 0.95642 0.0
C1869 C 0.71786 0.01011 0.06111 0.0
C1870 C 0.7202 0.02104 0.10804 0.0
C1871 C 0.7108 0.03226 0.1142 0.0
C1872 C 0.71331 0.0428 0.15683 0.0
C1873 C 0.72514 0.0422 0.19391 0.0
C1874 C 0.73444 0.03102 0.18867 0.0
C1875 C 0.732 0.02046 0.14602 0.0
H1876 H 0.72709 0.0504 0.22675 0.0
H1877 H 0.70897 0.94953 0.80068 0.0
H1878 H 0.946 0.71648 0.10687 0.0
H1879 H 0.97083 0.71065 0.10361 0.0
H1880 H 0.96922 0.7096 0.90746 0.0
H1881 H 0.94407 0.71454 0.91108 0.0
H1882 H 0.98726 0.69137 0.94235 0.0
H1883 H 0.97987 0.73953 0.99241 0.0
H1884 H 0.97028 0.75943 0.05016 0.0
H1885 H 0.99066 0.74476 0.21196 0.0
H1886 H 0.00023 0.72467 0.15529 0.0
H1887 H 0.05624 0.71703 0.88171 0.0
H1888 H 0.03118 0.71277 0.8929 0.0
H1889 H 0.03736 0.70211 0.08149 0.0
H1890 H 0.0626 0.70608 0.07018 0.0
H1891 H 0.01749 0.72425 0.05675 0.0
H1892 H 0.02744 0.67728 0.99494 0.0
H1893 H 0.03757 0.65907 0.92904 0.0
H1894 H 0.01303 0.6738 0.77873 0.0
H1895 H 0.0029 0.69223 0.8435 0.0
C1896 C 0.95092 0.71473 0.06314 0.0
C1897 C 0.94321 0.71606 0.00919 0.0
C1898 C 0.96513 0.7115 0.06124 0.0
C1899 C 0.97207 0.71013 0.00522 0.0
C1900 C 0.96417 0.7107 0.95128 0.0
C1901 C 0.94981 0.71352 0.95329 0.0
C1902 C 0.98761 0.70906 0.00292 0.0
C1903 C 0.99385 0.69863 0.96705 0.0
C1904 C 0.99632 0.71842 0.03566 0.0
C1905 C 0.99063 0.73052 0.06978 0.0
C1906 C 0.98223 0.7405 0.0404 0.0
C1907 C 0.97681 0.75182 0.07292 0.0
C1908 C 0.97982 0.75333 0.13473 0.0
C1909 C 0.98831 0.74356 0.1641 0.0
C1910 C 0.99374 0.73221 0.13181 0.0
C1911 C 0.0523 0.71349 0.92526 0.0
C1912 C 0.06134 0.7119 0.97513 0.0
C1913 C 0.038 0.71102 0.9315 0.0
C1914 C 0.03243 0.7071 0.98795 0.0
C1915 C 0.04148 0.70506 0.03746 0.0
C1916 C 0.05588 0.70728 0.0309 0.0
C1917 C 0.01706 0.70661 0.99626 0.0
C1918 C 0.01087 0.71685 0.03289 0.0
C1919 C 0.00846 0.69733 0.96304 0.0
C1920 C 0.01449 0.68621 0.92401 0.0
C1921 C 0.02429 0.67671 0.9477 0.0
C1922 C 0.03002 0.66634 0.91057 0.0
C1923 C 0.02597 0.6653 0.8497 0.0
C1924 C 0.01616 0.67462 0.82588 0.0
C1925 C 0.01041 0.68502 0.86281 0.0
H1926 H 0.03041 0.65725 0.82103 0.0
H1927 H 0.97562 0.7621 0.15983 0.0
H1928 H 0.76274 0.45257 0.41823 0.0
H1929 H 0.77101 0.47667 0.41913 0.0
H1930 H 0.81074 0.46308 0.49018 0.0
H1931 H 0.80254 0.43865 0.4879 0.0
H1932 H 0.79611 0.48562 0.55762 0.0
H1933 H 0.81284 0.47524 0.36003 0.0
H1934 H 0.81203 0.46537 0.25655 0.0
H1935 H 0.77784 0.49249 0.21152 0.0
H1936 H 0.77825 0.50234 0.31504 0.0
H1937 H 0.80238 0.56092 0.55094 0.0
H1938 H 0.80956 0.53642 0.53718 0.0
H1939 H 0.77328 0.52921 0.42515 0.0
H1940 H 0.76625 0.55335 0.43781 0.0
H1941 H 0.7954 0.51665 0.377 0.0
H1942 H 0.77421 0.52088 0.57887 0.0
H1943 H 0.773 0.53011 0.68349 0.0
H1944 H 0.81409 0.51418 0.72005 0.0
H1945 H 0.81558 0.505 0.61531 0.0
C1946 C 0.77331 0.45467 0.43322 0.0
C1947 C 0.78201 0.44378 0.45301 0.0
C1948 C 0.77804 0.46843 0.43353 0.0
C1949 C 0.79149 0.47164 0.45451 0.0
C1950 C 0.80034 0.46078 0.47355 0.0
C1951 C 0.79569 0.44688 0.47198 0.0
C1952 C 0.7956 0.48651 0.45983 0.0
C1953 C 0.79643 0.49241 0.51811 0.0
C1954 C 0.79581 0.49532 0.40825 0.0
C1955 C 0.79556 0.48951 0.34556 0.0
C1956 C 0.80508 0.47904 0.32824 0.0
C1957 C 0.80469 0.47345 0.26952 0.0
C1958 C 0.79488 0.47829 0.22751 0.0
C1959 C 0.78544 0.48875 0.24411 0.0
C1960 C 0.78576 0.49436 0.3028 0.0
C1961 C 0.79603 0.5541 0.52307 0.0
C1962 C 0.78369 0.55906 0.49592 0.0
C1963 C 0.80013 0.54012 0.51528 0.0
C1964 C 0.79193 0.53095 0.48027 0.0
C1965 C 0.77984 0.53606 0.45204 0.0
C1966 C 0.77576 0.5499 0.45979 0.0
C1967 C 0.79517 0.5158 0.47487 0.0
C1968 C 0.79567 0.50986 0.41648 0.0
C1969 C 0.796 0.50695 0.52634 0.0
C1970 C 0.79509 0.51244 0.58915 0.0
C1971 C 0.78302 0.51945 0.60912 0.0
C1972 C 0.78228 0.52465 0.66843 0.0
C1973 C 0.79348 0.52278 0.70833 0.0
C1974 C 0.80544 0.51566 0.68904 0.0
C1975 C 0.80624 0.51046 0.62973 0.0
H1976 H 0.79289 0.52681 0.75423 0.0
H1977 H 0.79461 0.47396 0.18207 0.0
H1978 H 0.43699 0.79872 0.49136 0.0
H1979 H 0.46201 0.80466 0.48714 0.0
H1980 H 0.47201 0.76557 0.57428 0.0
H1981 H 0.44724 0.75945 0.57698 0.0
H1982 H 0.48688 0.7907 0.61985 0.0
H1983 H 0.47433 0.76562 0.43244 0.0
H1984 H 0.46068 0.76319 0.33792 0.0
H1985 H 0.47561 0.80306 0.27649 0.0
H1986 H 0.4892 0.80581 0.37119 0.0
H1987 H 0.55114 0.76112 0.56748 0.0
H1988 H 0.52666 0.76753 0.57252 0.0
H1989 H 0.53406 0.80196 0.45023 0.0
H1990 H 0.55896 0.79551 0.44472 0.0
H1991 H 0.51042 0.78685 0.41942 0.0
H1992 H 0.52733 0.80955 0.59376 0.0
H1993 H 0.54065 0.81316 0.68835 0.0
H1994 H 0.51754 0.78032 0.77517 0.0
H1995 H 0.50422 0.77633 0.68081 0.0
C1996 C 0.44455 0.79153 0.51042 0.0
C1997 C 0.44023 0.77862 0.53441 0.0
C1998 C 0.45879 0.79491 0.5078 0.0
C1999 C 0.46882 0.78553 0.53036 0.0
C2000 C 0.46443 0.77295 0.55681 0.0
C2001 C 0.45029 0.76945 0.55815 0.0
C2002 C 0.48398 0.78819 0.52355 0.0
C2003 C 0.49206 0.78993 0.57612 0.0
C2004 C 0.49064 0.78774 0.46617 0.0
C2005 C 0.48261 0.786 0.40914 0.0
C2006 C 0.47459 0.77392 0.39901 0.0
C2007 C 0.46689 0.77248 0.34537 0.0
C2008 C 0.46723 0.78299 0.30132 0.0
C2009 C 0.47533 0.79495 0.31072 0.0
C2010 C 0.48303 0.79645 0.36434 0.0
C2011 C 0.54767 0.7701 0.54164 0.0
C2012 C 0.55704 0.77781 0.5057 0.0
C2013 C 0.53362 0.77381 0.54493 0.0
C2014 C 0.52854 0.78536 0.51253 0.0
C2015 C 0.5378 0.79307 0.47596 0.0
C2016 C 0.55199 0.78939 0.47293 0.0
C2017 C 0.51342 0.78877 0.5162 0.0
C2018 C 0.50531 0.78811 0.4631 0.0
C2019 C 0.5067 0.79043 0.57314 0.0
C2020 C 0.51479 0.79262 0.63001 0.0
C2021 C 0.52516 0.80301 0.63283 0.0
C2022 C 0.5327 0.80514 0.68645 0.0
C2023 C 0.52992 0.79699 0.73771 0.0
C2024 C 0.51965 0.78664 0.73542 0.0
C2025 C 0.51208 0.78446 0.68189 0.0
H2026 H 0.53569 0.79872 0.77926 0.0
H2027 H 0.46126 0.78186 0.25982 0.0
H2028 H 0.20159 0.43992 0.50385 0.0
H2029 H 0.19563 0.46497 0.50104 0.0
H2030 H 0.23583 0.47494 0.57793 0.0
H2031 H 0.24196 0.45016 0.57915 0.0
H2032 H 0.2113 0.4894 0.63124 0.0
H2033 H 0.23388 0.47793 0.43754 0.0
H2034 H 0.23542 0.46476 0.34139 0.0
H2035 H 0.19474 0.47947 0.28984 0.0
H2036 H 0.19288 0.49257 0.38624 0.0
H2037 H 0.23723 0.55551 0.57691 0.0
H2038 H 0.23213 0.53071 0.58262 0.0
H2039 H 0.19629 0.53642 0.46644 0.0
H2040 H 0.20145 0.56157 0.45997 0.0
H2041 H 0.21168 0.51379 0.43211 0.0
H2042 H 0.19119 0.52943 0.61487 0.0
H2043 H 0.18874 0.54207 0.71195 0.0
H2044 H 0.2235 0.5194 0.78584 0.0
H2045 H 0.22634 0.50678 0.68894 0.0
C2046 C 0.20904 0.44749 0.52084 0.0
C2047 C 0.22224 0.44315 0.54165 0.0
C2048 C 0.20566 0.46174 0.519 0.0
C2049 C 0.21531 0.47176 0.53924 0.0
C2050 C 0.22824 0.46736 0.56226 0.0
C2051 C 0.23174 0.45322 0.56276 0.0
C2052 C 0.21246 0.48694 0.53426 0.0
C2053 C 0.21134 0.49478 0.58782 0.0
C2054 C 0.21199 0.49383 0.47742 0.0
C2055 C 0.21316 0.48606 0.4194 0.0
C2056 C 0.22521 0.47824 0.40597 0.0
C2057 C 0.22615 0.47082 0.35139 0.0
C2058 C 0.21516 0.47124 0.30963 0.0
C2059 C 0.20323 0.47913 0.3223 0.0
C2060 C 0.20223 0.48655 0.37689 0.0
C2061 C 0.2282 0.55158 0.55264 0.0
C2062 C 0.21973 0.56057 0.51802 0.0
C2063 C 0.22525 0.53736 0.55632 0.0
C2064 C 0.21369 0.5317 0.52582 0.0
C2065 C 0.20521 0.54058 0.49073 0.0
C2066 C 0.20815 0.55493 0.48716 0.0
C2067 C 0.21107 0.5164 0.52946 0.0
C2068 C 0.2112 0.50849 0.47566 0.0
C2069 C 0.21048 0.50942 0.58623 0.0
C2070 C 0.209 0.51717 0.64442 0.0
C2071 C 0.1984 0.52722 0.6516 0.0
C2072 C 0.19693 0.53437 0.70666 0.0
C2073 C 0.20594 0.53152 0.75502 0.0
C2074 C 0.2165 0.52157 0.74835 0.0
C2075 C 0.21804 0.5144 0.69338 0.0
H2076 H 0.20472 0.53697 0.79776 0.0
H2077 H 0.21591 0.46548 0.26739 0.0
H2078 H 0.55862 0.20663 0.38508 0.0
H2079 H 0.53359 0.20144 0.38743 0.0
H2080 H 0.53242 0.21213 0.57815 0.0
H2081 H 0.55769 0.21622 0.57657 0.0
H2082 H 0.51388 0.19347 0.56004 0.0
H2083 H 0.5253 0.23642 0.4549 0.0
H2084 H 0.53707 0.25056 0.37633 0.0
H2085 H 0.51701 0.22661 0.23626 0.0
H2086 H 0.50525 0.21222 0.31407 0.0
H2087 H 0.44837 0.22718 0.58821 0.0
H2088 H 0.47289 0.22048 0.58011 0.0
H2089 H 0.46475 0.20122 0.40644 0.0
H2090 H 0.43998 0.20779 0.41466 0.0
H2091 H 0.48719 0.22059 0.40682 0.0
H2092 H 0.47239 0.18058 0.51928 0.0
H2093 H 0.46033 0.16812 0.60214 0.0
H2094 H 0.48629 0.18866 0.73379 0.0
H2095 H 0.49839 0.20141 0.65179 0.0
C2096 C 0.55303 0.20744 0.4278 0.0
C2097 C 0.55997 0.21183 0.48063 0.0
C2098 C 0.53872 0.20463 0.42905 0.0
C2099 C 0.53095 0.20688 0.48244 0.0
C2100 C 0.5381 0.2104 0.53623 0.0
C2101 C 0.55254 0.21273 0.53543 0.0
C2102 C 0.51536 0.20678 0.48125 0.0
C2103 C 0.50807 0.19946 0.52666 0.0
C2104 C 0.50766 0.21435 0.43701 0.0
C2105 C 0.51453 0.22316 0.39025 0.0
C2106 C 0.52345 0.23414 0.40733 0.0
C2107 C 0.53012 0.2422 0.36295 0.0
C2108 C 0.52783 0.23946 0.30133 0.0
C2109 C 0.5188 0.2287 0.28399 0.0
C2110 C 0.51213 0.2206 0.3282 0.0
C2111 C 0.45174 0.22138 0.54855 0.0
C2112 C 0.44227 0.21805 0.50192 0.0
C2113 C 0.46575 0.21748 0.54418 0.0
C2114 C 0.47063 0.21028 0.49287 0.0
C2115 C 0.46117 0.20672 0.44656 0.0
C2116 C 0.44704 0.21044 0.45136 0.0
C2117 C 0.48581 0.20753 0.48618 0.0
C2118 C 0.49301 0.21439 0.43943 0.0
C2119 C 0.4934 0.19978 0.52984 0.0
C2120 C 0.48625 0.19202 0.57932 0.0
C2121 C 0.47547 0.18252 0.56592 0.0
C2122 C 0.46863 0.17539 0.61274 0.0
C2123 C 0.47252 0.17762 0.6732 0.0
C2124 C 0.48329 0.18695 0.68694 0.0
C2125 C 0.49016 0.19411 0.64028 0.0
H2126 H 0.46721 0.1721 0.70939 0.0
H2127 H 0.53302 0.24568 0.26703 0.0
H2128 H 0.25429 0.17009 0.01066 0.0
H2129 H 0.23801 0.18982 0.00606 0.0
H2130 H 0.20324 0.16119 0.00683 0.0
H2131 H 0.21933 0.14151 0.01224 0.0
H2132 H 0.19985 0.18139 0.92218 0.0
H2133 H 0.21268 0.17876 0.13445 0.0
H2134 H 0.22919 0.17855 0.22052 0.0
H2135 H 0.24382 0.21936 0.17051 0.0
H2136 H 0.22752 0.21973 0.08358 0.0
H2137 H 0.14199 0.2215 0.00685 0.0
H2138 H 0.1612 0.20484 0.00524 0.0
H2139 H 0.19085 0.23875 0.00528 0.0
H2140 H 0.17156 0.25561 0.00889 0.0
H2141 H 0.19876 0.21785 0.08248 0.0
H2142 H 0.1844 0.2214 0.87553 0.0
H2143 H 0.16776 0.22167 0.78999 0.0
H2144 H 0.15612 0.1793 0.82901 0.0
H2145 H 0.17254 0.17883 0.91541 0.0
C2146 C 0.24317 0.168 0.01015 0.0
C2147 C 0.23814 0.15419 0.01153 0.0
C2148 C 0.23389 0.17929 0.00742 0.0
C2149 C 0.2194 0.17698 0.00636 0.0
C2150 C 0.21437 0.16323 0.0072 0.0
C2151 C 0.22362 0.15197 0.00999 0.0
C2152 C 0.20937 0.18881 0.00478 0.0
C2153 C 0.19955 0.18931 0.95747 0.0
C2154 C 0.20924 0.19939 0.04979 0.0
C2155 C 0.219 0.1992 0.10212 0.0
C2156 C 0.2195 0.18764 0.14151 0.0
C2157 C 0.22881 0.1875 0.1905 0.0
C2158 C 0.23758 0.19891 0.20086 0.0
C2159 C 0.23704 0.21051 0.16235 0.0
C2160 C 0.22776 0.21069 0.11324 0.0
C2161 C 0.15258 0.22547 0.00747 0.0
C2162 C 0.15522 0.23992 0.0083 0.0
C2163 C 0.16357 0.2159 0.0058 0.0
C2164 C 0.17747 0.22054 0.00426 0.0
C2165 C 0.1802 0.23494 0.00613 0.0
C2166 C 0.16917 0.24456 0.0078 0.0
C2167 C 0.18904 0.21024 1.00061 0.0
C2168 C 0.19916 0.21004 0.0468 0.0
C2169 C 0.18947 0.19993 0.95448 0.0
C2170 C 0.17964 0.20012 0.90226 0.0
C2171 C 0.17822 0.21217 0.86615 0.0
C2172 C 0.16884 0.21235 0.81747 0.0
C2173 C 0.16087 0.20052 0.80414 0.0
C2174 C 0.16229 0.18846 0.83941 0.0
C2175 C 0.17165 0.18823 0.8882 0.0
H2176 H 0.15361 0.20068 0.76643 0.0
H2177 H 0.24477 0.19879 0.23882 0.0
H2178 H 0.83131 0.25149 0.00808 0.0
H2179 H 0.81179 0.23506 0.9985 0.0
H2180 H 0.84085 0.20067 0.9927 0.0
H2181 H 0.86031 0.21689 0.00318 0.0
H2182 H 0.82121 0.19853 0.90428 0.0
H2183 H 0.82245 0.20785 0.12032 0.0
H2184 H 0.82187 0.22288 0.21134 0.0
H2185 H 0.7811 0.23765 0.16149 0.0
H2186 H 0.78152 0.22284 0.06966 0.0
H2187 H 0.78202 0.13871 0.96803 0.0
H2188 H 0.79821 0.1583 0.97287 0.0
H2189 H 0.76358 0.18709 0.97802 0.0
H2190 H 0.74718 0.16738 0.975 0.0
H2191 H 0.78391 0.1942 0.05982 0.0
H2192 H 0.7817 0.18325 0.84881 0.0
H2193 H 0.78216 0.16811 0.75817 0.0
H2194 H 0.82456 0.15661 0.79734 0.0
H2195 H 0.82429 0.17152 0.88878 0.0
C2196 C 0.83353 0.24042 0.00526 0.0
C2197 C 0.8474 0.23554 0.00596 0.0
C2198 C 0.82236 0.23105 0.99965 0.0
C2199 C 0.82486 0.21663 0.99496 0.0
C2200 C 0.83868 0.21175 0.99576 0.0
C2201 C 0.84981 0.22107 1.00147 0.0
C2202 C 0.81319 0.20651 0.9889 0.0
C2203 C 0.81311 0.19752 0.93851 0.0
C2204 C 0.80236 0.20549 0.03254 0.0
C2205 C 0.80209 0.21437 0.08776 0.0
C2206 C 0.81342 0.2144 0.12849 0.0
C2207 C 0.81311 0.22286 0.18028 0.0
C2208 C 0.80148 0.23125 0.19209 0.0
C2209 C 0.79011 0.23117 0.15221 0.0
C2210 C 0.79038 0.22274 0.10031 0.0
C2211 C 0.7778 0.14918 0.97101 0.0
C2212 C 0.76328 0.15146 0.97148 0.0
C2213 C 0.78709 0.16039 0.97307 0.0
C2214 C 0.78211 0.17417 0.97504 0.0
C2215 C 0.76764 0.17654 0.97626 0.0
C2216 C 0.7583 0.16528 0.97414 0.0
C2217 C 0.79215 0.186 0.97595 0.0
C2218 C 0.79191 0.19532 0.0252 0.0
C2219 C 0.80269 0.18736 0.93117 0.0
C2220 C 0.80294 0.17844 0.87594 0.0
C2221 C 0.79109 0.17742 0.83836 0.0
C2222 C 0.79132 0.16889 0.78679 0.0
C2223 C 0.80337 0.16138 0.77206 0.0
C2224 C 0.81523 0.16242 0.80881 0.0
C2225 C 0.81505 0.17093 0.86049 0.0
H2226 H 0.80353 0.15478 0.73212 0.0
H2227 H 0.80126 0.23779 0.23221 0.0
H2228 H 0.84678 0.76606 0.89989 0.0
H2229 H 0.82742 0.7827 0.9065 0.0
H2230 H 0.83015 0.78191 0.1022 0.0
H2231 H 0.84946 0.76516 0.09594 0.0
H2232 H 0.80259 0.78061 0.05901 0.0
H2233 H 0.84401 0.80837 0.02907 0.0
H2234 H 0.86568 0.81536 0.9767 0.0
H2235 H 0.84243 0.82401 0.81404 0.0
H2236 H 0.82063 0.81687 0.86524 0.0
H2237 H 0.76462 0.8422 0.13044 0.0
H2238 H 0.78174 0.82342 0.12015 0.0
H2239 H 0.78236 0.82952 0.92575 0.0
H2240 H 0.7654 0.84851 0.93603 0.0
H2241 H 0.80785 0.8275 0.96566 0.0
H2242 H 0.76633 0.80064 0.99421 0.0
H2243 H 0.74446 0.7934 0.04439 0.0
H2244 H 0.76729 0.78263 0.20577 0.0
H2245 H 0.78928 0.78999 0.15685 0.0
C2246 C 0.84316 0.7693 0.94435 0.0
C2247 C 0.84966 0.76431 0.99742 0.0
C2248 C 0.83216 0.77887 0.94803 0.0
C2249 C 0.82742 0.78361 0.00483 0.0
C2250 C 0.83366 0.7784 0.05793 0.0
C2251 C 0.84474 0.76891 0.05427 0.0
C2252 C 0.81621 0.79428 0.0088 0.0
C2253 C 0.80376 0.79093 0.03921 0.0
C2254 C 0.81763 0.80759 0.98154 0.0
C2255 C 0.83071 0.81195 0.95079 0.0
C2256 C 0.84353 0.81165 0.98198 0.0
C2257 C 0.85584 0.81566 0.95254 0.0
C2258 C 0.85544 0.82009 0.89203 0.0
C2259 C 0.84273 0.82056 0.86089 0.0
C2260 C 0.83039 0.81654 0.8901 0.0
C2261 C 0.76823 0.83939 0.0854 0.0
C2262 C 0.76362 0.8468 0.034 0.0
C2263 C 0.77802 0.82863 0.07955 0.0
C2264 C 0.78325 0.82492 0.02206 0.0
C2265 C 0.77851 0.8322 0.97059 0.0
C2266 C 0.76881 0.84304 0.97649 0.0
C2267 C 0.79413 0.81389 0.01595 0.0
C2268 C 0.80657 0.81717 0.98522 0.0
C2269 C 0.79264 0.80048 0.04252 0.0
C2270 C 0.77944 0.79599 0.07202 0.0
C2271 C 0.76668 0.79682 0.04056 0.0
C2272 C 0.75426 0.79269 0.06875 0.0
C2273 C 0.75448 0.78759 0.12828 0.0
C2274 C 0.76713 0.78659 0.15969 0.0
C2275 C 0.77958 0.79073 0.13172 0.0
H2276 H 0.74486 0.7844 0.15003 0.0
H2277 H 0.86498 0.8232 0.86931 0.0
H2278 H 0.15715 0.76039 0.08466 0.0
H2279 H 0.17562 0.77803 0.08226 0.0
H2280 H 0.17275 0.77979 0.88671 0.0
H2281 H 0.15436 0.76198 0.8887 0.0
H2282 H 0.20024 0.7794 0.92845 0.0
H2283 H 0.1576 0.8045 0.96792 0.0
H2284 H 0.13573 0.80962 0.02278 0.0
H2285 H 0.1589 0.81699 0.18684 0.0
H2286 H 0.18091 0.81171 0.13312 0.0
H2287 H 0.23499 0.84367 0.87446 0.0
H2288 H 0.21862 0.82415 0.87965 0.0
H2289 H 0.21862 0.82679 0.07553 0.0
H2290 H 0.2349 0.84649 0.07049 0.0
H2291 H 0.19296 0.82438 0.0359 0.0
H2292 H 0.23565 0.80004 0.99772 0.0
H2293 H 0.25769 0.79466 0.94459 0.0
H2294 H 0.23494 0.7855 0.78115 0.0
H2295 H 0.21277 0.79101 0.83307 0.0
C2296 C 0.16057 0.76439 0.04108 0.0
C2297 C 0.15429 0.7598 0.98683 0.0
C2298 C 0.17105 0.77455 0.03983 0.0
C2299 C 0.17547 0.7803 0.98434 0.0
C2300 C 0.16947 0.7755 0.93001 0.0
C2301 C 0.15891 0.76541 0.93124 0.0
C2302 C 0.18611 0.79156 0.98311 0.0
C2303 C 0.19861 0.7893 0.95134 0.0
C2304 C 0.1841 0.80433 0.01433 0.0
C2305 C 0.17089 0.80756 0.04665 0.0
C2306 C 0.15802 0.80709 0.01582 0.0
C2307 C 0.1456 0.81005 0.04668 0.0
C2308 C 0.14592 0.81359 0.1083 0.0
C2309 C 0.15867 0.81422 0.13914 0.0
C2310 C 0.17112 0.81126 0.10849 0.0
C2311 C 0.23168 0.83996 0.91868 0.0
C2312 C 0.2363 0.84658 0.9721 0.0
C2313 C 0.22231 0.82879 0.92161 0.0
C2314 C 0.2175 0.82386 0.97803 0.0
C2315 C 0.22217 0.8304 0.03147 0.0
C2316 C 0.23147 0.84165 0.02854 0.0
C2317 C 0.20718 0.81227 0.98116 0.0
C2318 C 0.19468 0.81447 0.01323 0.0
C2319 C 0.20925 0.79942 0.95051 0.0
C2320 C 0.22256 0.79606 0.91916 0.0
C2321 C 0.23535 0.79698 0.95032 0.0
C2322 C 0.24787 0.79389 0.92044 0.0
C2323 C 0.24772 0.78978 0.85949 0.0
C2324 C 0.23504 0.7887 0.82834 0.0
C2325 C 0.2225 0.79179 0.85799 0.0
H2326 H 0.25742 0.78739 0.83644 0.0
H2327 H 0.1363 0.81588 0.13212 0.0
H2328 H 0.66677 0.74951 0.51798 0.0
H2329 H 0.6858 0.73246 0.52404 0.0
H2330 H 0.656 0.69886 0.50833 0.0
H2331 H 0.63701 0.71578 0.50184 0.0
H2332 H 0.67448 0.69369 0.59714 0.0
H2333 H 0.67625 0.70867 0.38822 0.0
H2334 H 0.67799 0.72584 0.30499 0.0
H2335 H 0.71809 0.73901 0.37097 0.0
H2336 H 0.7165 0.72203 0.45514 0.0
H2337 H 0.71707 0.63646 0.51822 0.0
H2338 H 0.7 0.65541 0.51719 0.0
H2339 H 0.73314 0.68552 0.53866 0.0
H2340 H 0.75038 0.66657 0.53827 0.0
H2341 H 0.71421 0.69361 0.45225 0.0
H2342 H 0.71295 0.67747 0.65787 0.0
H2343 H 0.71116 0.66004 0.74003 0.0
H2344 H 0.66998 0.64892 0.67969 0.0
H2345 H 0.67161 0.66615 0.59657 0.0
C2346 C 0.66429 0.73849 0.51536 0.0
C2347 C 0.65035 0.73402 0.50971 0.0
C2348 C 0.67517 0.72876 0.51891 0.0
C2349 C 0.67233 0.71438 0.51635 0.0
C2350 C 0.65844 0.7099 0.51077 0.0
C2351 C 0.64758 0.7196 0.5073 0.0
C2352 C 0.68376 0.70391 0.51978 0.0
C2353 C 0.68309 0.6936 0.56508 0.0
C2354 C 0.6952 0.70401 0.479 0.0
C2355 C 0.69619 0.71419 0.42837 0.0
C2356 C 0.68539 0.71531 0.38528 0.0
C2357 C 0.68635 0.72499 0.33788 0.0
C2358 C 0.69812 0.73354 0.3328 0.0
C2359 C 0.70897 0.73239 0.37503 0.0
C2360 C 0.70804 0.72274 0.42257 0.0
C2361 C 0.72076 0.64712 0.52214 0.0
C2362 C 0.7351 0.65001 0.52816 0.0
C2363 C 0.71097 0.65793 0.52214 0.0
C2364 C 0.71528 0.67187 0.52848 0.0
C2365 C 0.72959 0.67483 0.53392 0.0
C2366 C 0.7394 0.664 0.53411 0.0
C2367 C 0.7048 0.68329 0.52902 0.0
C2368 C 0.70565 0.69378 0.48457 0.0
C2369 C 0.6935 0.68335 0.57052 0.0
C2370 C 0.69245 0.67302 0.62066 0.0
C2371 C 0.70355 0.67123 0.66183 0.0
C2372 C 0.70256 0.6614 0.70862 0.0
C2373 C 0.69048 0.65336 0.715 0.0
C2374 C 0.67934 0.65515 0.67467 0.0
C2375 C 0.68029 0.66496 0.62774 0.0
H2376 H 0.68973 0.64575 0.75126 0.0
H2377 H 0.69885 0.74102 0.29606 0.0
H2378 H 0.32833 0.75542 0.48734 0.0
H2379 H 0.30877 0.73893 0.4843 0.0
H2380 H 0.33777 0.70447 0.48352 0.0
H2381 H 0.35729 0.72076 0.48778 0.0
H2382 H 0.3171 0.70097 0.39955 0.0
H2383 H 0.3209 0.71348 0.61179 0.0
H2384 H 0.32151 0.72986 0.69827 0.0
H2385 H 0.28028 0.74423 0.65353 0.0
H2386 H 0.27951 0.72805 0.5662 0.0
H2387 H 0.27798 0.64263 0.4891 0.0
H2388 H 0.29447 0.66199 0.48414 0.0
H2389 H 0.26033 0.69136 0.48879 0.0
H2390 H 0.24367 0.67194 0.49551 0.0
H2391 H 0.28162 0.69931 0.56391 0.0
H2392 H 0.2769 0.68531 0.35711 0.0
H2393 H 0.2762 0.66885 0.27095 0.0
H2394 H 0.3189 0.65746 0.3042 0.0
H2395 H 0.3198 0.6737 0.39117 0.0
C2396 C 0.33054 0.74433 0.48687 0.0
C2397 C 0.34442 0.73945 0.48748 0.0
C2398 C 0.31935 0.73492 0.48497 0.0
C2399 C 0.32181 0.72046 0.48384 0.0
C2400 C 0.33562 0.71558 0.4839 0.0
C2401 C 0.34679 0.72494 0.48602 0.0
C2402 C 0.31008 0.7103 0.48324 0.0
C2403 C 0.3094 0.70055 0.43569 0.0
C2404 C 0.29979 0.71001 0.52945 0.0
C2405 C 0.30022 0.71968 0.58206 0.0
C2406 C 0.31201 0.72022 0.62009 0.0
C2407 C 0.31238 0.72945 0.66931 0.0
C2408 C 0.30096 0.73811 0.68127 0.0
C2409 C 0.28913 0.73753 0.64414 0.0
C2410 C 0.28872 0.72833 0.59479 0.0
C2411 C 0.27395 0.6532 0.4898 0.0
C2412 C 0.25949 0.65573 0.49303 0.0
C2413 C 0.2834 0.66426 0.48626 0.0
C2414 C 0.27864 0.67813 0.48535 0.0
C2415 C 0.26423 0.68074 0.48918 0.0
C2416 C 0.25473 0.66964 0.49262 0.0
C2417 C 0.28882 0.6898 0.48083 0.0
C2418 C 0.28921 0.69984 0.52734 0.0
C2419 C 0.29884 0.69039 0.43355 0.0
C2420 C 0.29838 0.68066 0.38098 0.0
C2421 C 0.28611 0.67922 0.34634 0.0
C2422 C 0.28568 0.66994 0.29731 0.0
C2423 C 0.29749 0.66209 0.28218 0.0
C2424 C 0.30976 0.66354 0.31599 0.0
C2425 C 0.31024 0.6728 0.36512 0.0
H2426 H 0.29713 0.65491 0.24421 0.0
H2427 H 0.30126 0.74525 0.71941 0.0
H2428 H 0.36157 0.28322 0.51705 0.0
H2429 H 0.34237 0.29981 0.52067 0.0
H2430 H 0.3131 0.26652 0.4853 0.0
H2431 H 0.3322 0.24964 0.48614 0.0
H2432 H 0.32512 0.30847 0.44177 0.0
H2433 H 0.28142 0.2739 0.54507 0.0
H2434 H 0.27897 0.25402 0.61568 0.0
H2435 H 0.31746 0.26534 0.70297 0.0
H2436 H 0.32004 0.28538 0.63341 0.0
H2437 H 0.26186 0.34554 0.40865 0.0
H2438 H 0.27927 0.3268 0.40646 0.0
H2439 H 0.28074 0.32697 0.60263 0.0
H2440 H 0.26302 0.34535 0.60488 0.0
H2441 H 0.28253 0.30153 0.56661 0.0
H2442 H 0.30577 0.34397 0.5118 0.0
H2443 H 0.30976 0.36555 0.45305 0.0
H2444 H 0.3151 0.34142 0.29009 0.0
H2445 H 0.31095 0.3197 0.34777 0.0
C2446 C 0.35105 0.2793 0.51148 0.0
C2447 C 0.3485 0.26497 0.50205 0.0
C2448 C 0.34005 0.28889 0.51268 0.0
C2449 C 0.32622 0.28446 0.50385 0.0
C2450 C 0.32363 0.27021 0.49339 0.0
C2451 C 0.33462 0.26056 0.49309 0.0
C2452 C 0.31461 0.29483 0.50488 0.0
C2453 C 0.31581 0.30691 0.46904 0.0
C2454 C 0.30251 0.29299 0.54114 0.0
C2455 C 0.30099 0.28104 0.58358 0.0
C2456 C 0.28933 0.27217 0.57946 0.0
C2457 C 0.28792 0.26087 0.61928 0.0
C2458 C 0.29808 0.25839 0.66364 0.0
C2459 C 0.30963 0.26723 0.66843 0.0
C2460 C 0.31108 0.27855 0.62878 0.0
C2461 C 0.26584 0.34148 0.45123 0.0
C2462 C 0.26111 0.3469 0.5069 0.0
C2463 C 0.27583 0.33081 0.44999 0.0
C2464 C 0.28154 0.32561 0.50438 0.0
C2465 C 0.27651 0.33077 0.56004 0.0
C2466 C 0.26637 0.34127 0.5613 0.0
C2467 C 0.29306 0.31515 0.50349 0.0
C2468 C 0.29182 0.30304 0.53915 0.0
C2469 C 0.30536 0.3172 0.46875 0.0
C2470 C 0.30791 0.33023 0.43398 0.0
C2471 C 0.3077 0.34328 0.46335 0.0
C2472 C 0.31 0.35553 0.43027 0.0
C2473 C 0.31264 0.35486 0.36785 0.0
C2474 C 0.31303 0.34193 0.33842 0.0
C2475 C 0.31071 0.32964 0.37129 0.0
H2476 H 0.31442 0.36436 0.34231 0.0
H2477 H 0.29697 0.24963 0.69438 0.0
H2478 H 0.71472 0.36643 0.5027 0.0
H2479 H 0.69738 0.34789 0.51076 0.0
H2480 H 0.72939 0.31707 0.47798 0.0
H2481 H 0.74697 0.33552 0.4734 0.0
H2482 H 0.68804 0.33003 0.43361 0.0
H2483 H 0.72145 0.28666 0.54805 0.0
H2484 H 0.74103 0.28468 0.62049 0.0
H2485 H 0.73033 0.32449 0.69747 0.0
H2486 H 0.71058 0.32662 0.6261 0.0
H2487 H 0.65262 0.26581 0.40209 0.0
H2488 H 0.67048 0.2841 0.40183 0.0
H2489 H 0.66813 0.28656 0.59753 0.0
H2490 H 0.65055 0.26803 0.59799 0.0
H2491 H 0.694 0.28843 0.56563 0.0
H2492 H 0.65197 0.31098 0.50297 0.0
H2493 H 0.63072 0.31461 0.44163 0.0
H2494 H 0.65574 0.31944 0.28094 0.0
H2495 H 0.67714 0.31565 0.34122 0.0
C2496 C 0.71817 0.3557 0.49844 0.0
C2497 C 0.73232 0.3525 0.48797 0.0
C2498 C 0.70818 0.3451 0.50231 0.0
C2499 C 0.71206 0.33105 0.49555 0.0
C2500 C 0.72614 0.32781 0.48438 0.0
C2501 C 0.73617 0.3384 0.48106 0.0
C2502 C 0.70133 0.31984 0.49912 0.0
C2503 C 0.68936 0.32093 0.46248 0.0
C2504 C 0.70285 0.3081 0.53774 0.0
C2505 C 0.71463 0.30685 0.58126 0.0
C2506 C 0.72325 0.29497 0.58058 0.0
C2507 C 0.73438 0.29382 0.62143 0.0
C2508 C 0.73695 0.30447 0.66341 0.0
C2509 C 0.72836 0.31627 0.66478 0.0
C2510 C 0.71721 0.31746 0.62408 0.0
C2511 C 0.65594 0.27026 0.445 0.0
C2512 C 0.65018 0.26552 0.50003 0.0
C2513 C 0.66611 0.28073 0.44484 0.0
C2514 C 0.67052 0.28689 0.49961 0.0
C2515 C 0.66494 0.28198 0.55469 0.0
C2516 C 0.6549 0.27138 0.55492 0.0
C2517 C 0.68081 0.29853 0.4995 0.0
C2518 C 0.6927 0.29752 0.53669 0.0
C2519 C 0.67899 0.31058 0.46293 0.0
C2520 C 0.66615 0.3129 0.42652 0.0
C2521 C 0.65293 0.31272 0.45448 0.0
C2522 C 0.64086 0.31482 0.41991 0.0
C2523 C 0.64188 0.31722 0.3574 0.0
C2524 C 0.65497 0.31756 0.32935 0.0
C2525 C 0.66707 0.31545 0.3637 0.0
H2526 H 0.63252 0.31885 0.33071 0.0
H2527 H 0.74558 0.30357 0.69497 0.0
loop_
_geom_bond_atom_site_label_1
_geom_bond_atom_site_label_2
_geom_bond_distance
_geom_bond_site_symmetry_2
_ccdc_geom_bond_type
C0 C1 1.351 . S
C0 N3 1.368 . S
C0 H5 0.931 . S
C1 C0 1.351 . S
C1 N2 1.373 . S
C1 H29 0.930 . S
N2 C1 1.373 . S
N2 C4 1.340 . S
N3 C0 1.368 . S
N3 C4 1.321 . S
N3 Co6 2.135 . S
C4 N2 1.340 . S
C4 N3 1.321 . S
C4 H28 0.930 . S
H5 C0 0.931 . S
Co6 N3 2.135 . S
Co6 N9 2.120 1_554 S
Co6 O14 2.055 . S
Co6 O17 2.039 . S
Co6 N20 2.140 . S
C7 O8 1.227 . S
C7 O17 1.265 . S
O8 C7 1.227 . S
N9 Co6 2.120 1_556 S
N9 C11 1.375 . S
N9 C12 1.314 . S
C10 C11 1.338 . S
C10 N13 1.377 . S
C10 H30 0.930 . S
C11 N9 1.375 . S
C11 C10 1.338 . S
C11 H15 0.931 1_556 S
C12 N9 1.314 . S
C12 N13 1.344 . S
C12 H16 0.930 . S
N13 C10 1.377 . S
N13 C12 1.344 . S
O14 Co6 2.055 . S
O14 C18 1.253 . S
H15 C11 0.931 1_554 S
H16 C12 0.930 . S
O17 Co6 2.039 . S
O17 C7 1.265 . S
C18 O14 1.253 . S
C18 O19 1.227 . S
O19 C18 1.227 . S
N20 Co6 2.140 . S
N20 C23 1.346 . S
N20 C24 1.345 . S
C21 C22 1.387 . S
C21 C25 1.391 . S
C22 C21 1.387 . S
C22 C23 1.369 . S
C22 H31 0.929 . S
C23 N20 1.346 . S
C23 C22 1.369 . S
C23 H26 0.928 . S
C24 N20 1.345 . S
C24 C25 1.371 . S
C24 H27 0.931 . S
C25 C21 1.391 . S
C25 C24 1.371 . S
C25 H32 0.930 1_554 S
H26 C23 0.928 . S
H27 C24 0.931 . S
H28 C4 0.930 . S
H29 C1 0.930 . S
H30 C10 0.930 . S
H31 C22 0.929 . S
H32 C25 0.930 1_556 S
C33 C34 1.351 . S
C33 N36 1.368 . S
C33 H38 0.931 . S
C34 C33 1.351 . S
C34 N35 1.373 . S
C34 H62 0.930 . S
N35 C34 1.373 . S
N35 C37 1.340 . S
N36 C33 1.368 . S
N36 C37 1.321 . S
N36 Co39 2.135 . S
C37 N35 1.340 . S
C37 N36 1.321 . S
C37 H61 0.930 . S
H38 C33 0.931 . S
Co39 N36 2.135 . S
Co39 N42 2.120 1_554 S
Co39 O47 2.055 . S
Co39 O50 2.039 . S
Co39 N53 2.140 . S
C40 O41 1.227 . S
C40 O50 1.265 . S
O41 C40 1.227 . S
N42 Co39 2.120 1_556 S
N42 C44 1.375 . S
N42 C45 1.314 . S
C43 C44 1.338 . S
C43 N46 1.377 . S
C43 H63 0.930 . S
C44 N42 1.375 . S
C44 C43 1.338 . S
C44 H48 0.931 1_556 S
C45 N42 1.314 . S
C45 N46 1.344 . S
C45 H49 0.930 . S
N46 C43 1.377 . S
N46 C45 1.344 . S
O47 Co39 2.055 . S
O47 C51 1.253 . S
H48 C44 0.931 1_554 S
H49 C45 0.930 . S
O50 Co39 2.039 . S
O50 C40 1.265 . S
C51 O47 1.253 . S
C51 O52 1.227 . S
O52 C51 1.227 . S
N53 Co39 2.140 . S
N53 C56 1.346 . S
N53 C57 1.345 . S
C54 C55 1.387 . S
C54 C58 1.391 . S
C55 C54 1.387 . S
C55 C56 1.369 . S
C55 H64 0.929 . S
C56 N53 1.346 . S
C56 C55 1.369 . S
C56 H59 0.928 . S
C57 N53 1.345 . S
C57 C58 1.371 . S
C57 H60 0.931 . S
C58 C54 1.391 . S
C58 C57 1.371 . S
C58 H65 0.930 1_554 S
H59 C56 0.928 . S
H60 C57 0.931 . S
H61 C37 0.930 . S
H62 C34 0.930 . S
H63 C43 0.930 . S
H64 C55 0.929 . S
H65 C58 0.930 1_556 S
C66 C67 1.351 . S
C66 N69 1.368 . S
C66 H71 0.931 . S
C67 C66 1.351 . S
C67 N68 1.373 . S
C67 H95 0.930 . S
N68 C67 1.373 . S
N68 C70 1.340 . S
N69 C66 1.368 . S
N69 C70 1.321 . S
N69 Co72 2.135 . S
C70 N68 1.340 . S
C70 N69 1.321 . S
C70 H94 0.930 . S
H71 C66 0.931 . S
Co72 N69 2.135 . S
Co72 N75 2.120 1_554 S
Co72 O80 2.055 . S
Co72 O83 2.039 . S
Co72 N86 2.140 . S
C73 O74 1.227 . S
C73 O83 1.265 . S
O74 C73 1.227 . S
N75 Co72 2.120 1_556 S
N75 C77 1.375 . S
N75 C78 1.314 . S
C76 C77 1.338 . S
C76 N79 1.377 . S
C76 H96 0.930 . S
C77 N75 1.375 . S
C77 C76 1.338 . S
C77 H81 0.931 1_556 S
C78 N75 1.314 . S
C78 N79 1.344 . S
C78 H82 0.930 . S
N79 C76 1.377 . S
N79 C78 1.344 . S
O80 Co72 2.055 . S
O80 C84 1.253 . S
H81 C77 0.931 1_554 S
H82 C78 0.930 . S
O83 Co72 2.039 . S
O83 C73 1.265 . S
C84 O80 1.253 . S
C84 O85 1.227 . S
O85 C84 1.227 . S
N86 Co72 2.140 . S
N86 C89 1.346 . S
N86 C90 1.345 . S
C87 C88 1.387 . S
C87 C91 1.391 . S
C88 C87 1.387 . S
C88 C89 1.369 . S
C88 H97 0.929 . S
C89 N86 1.346 . S
C89 C88 1.369 . S
C89 H92 0.928 . S
C90 N86 1.345 . S
C90 C91 1.371 . S
C90 H93 0.931 . S
C91 C87 1.391 . S
C91 C90 1.371 . S
C91 H98 0.930 1_554 S
H92 C89 0.928 . S
H93 C90 0.931 . S
H94 C70 0.930 . S
H95 C67 0.930 . S
H96 C76 0.930 . S
H97 C88 0.929 . S
H98 C91 0.930 1_556 S
C99 C100 1.351 . S
C99 N102 1.368 . S
C99 H104 0.931 . S
C100 C99 1.351 . S
C100 N101 1.373 . S
C100 H128 0.930 . S
N101 C100 1.373 . S
N101 C103 1.340 . S
N102 C99 1.368 . S
N102 C103 1.321 . S
N102 Co105 2.135 . S
C103 N101 1.340 . S
C103 N102 1.321 . S
C103 H127 0.930 . S
H104 C99 0.931 . S
Co105 N102 2.135 . S
Co105 N108 2.120 1_554 S
Co105 O113 2.055 . S
Co105 O116 2.039 . S
Co105 N119 2.140 . S
C106 O107 1.227 . S
C106 O116 1.265 . S
O107 C106 1.227 . S
N108 Co105 2.120 1_556 S
N108 C110 1.375 . S
N108 C111 1.314 . S
C109 C110 1.338 . S
C109 N112 1.377 . S
C109 H129 0.930 . S
C110 N108 1.375 . S
C110 C109 1.338 . S
C110 H114 0.931 1_556 S
C111 N108 1.314 . S
C111 N112 1.344 . S
C111 H115 0.930 . S
N112 C109 1.377 . S
N112 C111 1.344 . S
O113 Co105 2.055 . S
O113 C117 1.253 . S
H114 C110 0.931 1_554 S
H115 C111 0.930 . S
O116 Co105 2.039 . S
O116 C106 1.265 . S
C117 O113 1.253 . S
C117 O118 1.227 . S
O118 C117 1.227 . S
N119 Co105 2.140 . S
N119 C122 1.346 . S
N119 C123 1.345 . S
C120 C121 1.387 . S
C120 C124 1.391 . S
C121 C120 1.387 . S
C121 C122 1.369 . S
C121 H130 0.929 . S
C122 N119 1.346 . S
C122 C121 1.369 . S
C122 H125 0.928 . S
C123 N119 1.345 . S
C123 C124 1.371 . S
C123 H126 0.931 . S
C124 C120 1.391 . S
C124 C123 1.371 . S
C124 H131 0.930 1_554 S
H125 C122 0.928 . S
H126 C123 0.931 . S
H127 C103 0.930 . S
H128 C100 0.930 . S
H129 C109 0.930 . S
H130 C121 0.929 . S
H131 C124 0.930 1_556 S
C132 C133 1.351 . S
C132 N135 1.368 . S
C132 H137 0.931 . S
C133 C132 1.351 . S
C133 N134 1.373 . S
C133 H161 0.930 . S
N134 C133 1.373 . S
N134 C136 1.340 . S
N135 C132 1.368 . S
N135 C136 1.321 . S
N135 Co138 2.135 . S
C136 N134 1.340 . S
C136 N135 1.321 . S
C136 H160 0.930 . S
H137 C132 0.931 . S
Co138 N135 2.135 . S
Co138 N141 2.120 1_556 S
Co138 O146 2.055 . S
Co138 O149 2.039 . S
Co138 N152 2.140 . S
C139 O140 1.227 . S
C139 O149 1.265 . S
O140 C139 1.227 . S
N141 Co138 2.120 1_554 S
N141 C143 1.375 . S
N141 C144 1.314 . S
C142 C143 1.338 . S
C142 N145 1.377 . S
C142 H162 0.930 . S
C143 N141 1.375 . S
C143 C142 1.338 . S
C143 H147 0.931 1_554 S
C144 N141 1.314 . S
C144 N145 1.344 . S
C144 H148 0.930 . S
N145 C142 1.377 . S
N145 C144 1.344 . S
O146 Co138 2.055 . S
O146 C150 1.253 . S
H147 C143 0.931 1_556 S
H148 C144 0.930 . S
O149 Co138 2.039 . S
O149 C139 1.265 . S
C150 O146 1.253 . S
C150 O151 1.227 . S
O151 C150 1.227 . S
N152 Co138 2.140 . S
N152 C155 1.346 . S
N152 C156 1.345 . S
C153 C154 1.387 . S
C153 C157 1.391 . S
C154 C153 1.387 . S
C154 C155 1.369 . S
C154 H163 0.929 . S
C155 N152 1.346 . S
C155 C154 1.369 . S
C155 H158 0.928 . S
C156 N152 1.345 . S
C156 C157 1.371 . S
C156 H159 0.931 . S
C157 C153 1.391 . S
C157 C156 1.371 . S
C157 H164 0.930 1_556 S
H158 C155 0.928 . S
H159 C156 0.931 . S
H160 C136 0.930 . S
H161 C133 0.930 . S
H162 C142 0.930 . S
H163 C154 0.929 . S
H164 C157 0.930 1_554 S
C165 C166 1.351 . S
C165 N168 1.368 . S
C165 H170 0.931 . S
C166 C165 1.351 . S
C166 N167 1.373 . S
C166 H194 0.930 . S
N167 C166 1.373 . S
N167 C169 1.340 . S
N168 C165 1.368 . S
N168 C169 1.321 . S
N168 Co171 2.135 . S
C169 N167 1.340 . S
C169 N168 1.321 . S
C169 H193 0.930 . S
H170 C165 0.931 . S
Co171 N168 2.135 . S
Co171 N174 2.120 1_556 S
Co171 O179 2.055 . S
Co171 O182 2.039 . S
Co171 N185 2.140 . S
C172 O173 1.227 . S
C172 O182 1.265 . S
O173 C172 1.227 . S
N174 Co171 2.120 1_554 S
N174 C176 1.375 . S
N174 C177 1.314 . S
C175 C176 1.338 . S
C175 N178 1.377 . S
C175 H195 0.930 . S
C176 N174 1.375 . S
C176 C175 1.338 . S
C176 H180 0.931 1_554 S
C177 N174 1.314 . S
C177 N178 1.344 . S
C177 H181 0.930 . S
N178 C175 1.377 . S
N178 C177 1.344 . S
O179 Co171 2.055 . S
O179 C183 1.253 . S
H180 C176 0.931 1_556 S
H181 C177 0.930 . S
O182 Co171 2.039 . S
O182 C172 1.265 . S
C183 O179 1.253 . S
C183 O184 1.227 . S
O184 C183 1.227 . S
N185 Co171 2.140 . S
N185 C188 1.346 . S
N185 C189 1.345 . S
C186 C187 1.387 . S
C186 C190 1.391 . S
C187 C186 1.387 . S
C187 C188 1.369 . S
C187 H196 0.929 . S
C188 N185 1.346 . S
C188 C187 1.369 . S
C188 H191 0.928 . S
C189 N185 1.345 . S
C189 C190 1.371 . S
C189 H192 0.931 . S
C190 C186 1.391 . S
C190 C189 1.371 . S
C190 H197 0.930 1_556 S
H191 C188 0.928 . S
H192 C189 0.931 . S
H193 C169 0.930 . S
H194 C166 0.930 . S
H195 C175 0.930 . S
H196 C187 0.929 . S
H197 C190 0.930 1_554 S
C198 C199 1.351 . S
C198 N201 1.368 . S
C198 H203 0.931 . S
C199 C198 1.351 . S
C199 N200 1.373 . S
C199 H227 0.930 . S
N200 C199 1.373 . S
N200 C202 1.340 . S
N201 C198 1.368 . S
N201 C202 1.321 . S
N201 Co204 2.135 . S
C202 N200 1.340 . S
C202 N201 1.321 . S
C202 H226 0.930 . S
H203 C198 0.931 . S
Co204 N201 2.135 . S
Co204 N207 2.120 1_556 S
Co204 O212 2.055 . S
Co204 O215 2.039 . S
Co204 N218 2.140 . S
C205 O206 1.227 . S
C205 O215 1.265 . S
O206 C205 1.227 . S
N207 Co204 2.120 1_554 S
N207 C209 1.375 . S
N207 C210 1.314 . S
C208 C209 1.338 . S
C208 N211 1.377 . S
C208 H228 0.930 . S
C209 N207 1.375 . S
C209 C208 1.338 . S
C209 H213 0.931 1_554 S
C210 N207 1.314 . S
C210 N211 1.344 . S
C210 H214 0.930 . S
N211 C208 1.377 . S
N211 C210 1.344 . S
O212 Co204 2.055 . S
O212 C216 1.253 . S
H213 C209 0.931 1_556 S
H214 C210 0.930 . S
O215 Co204 2.039 . S
O215 C205 1.265 . S
C216 O212 1.253 . S
C216 O217 1.227 . S
O217 C216 1.227 . S
N218 Co204 2.140 . S
N218 C221 1.346 . S
N218 C222 1.345 . S
C219 C220 1.387 . S
C219 C223 1.391 . S
C220 C219 1.387 . S
C220 C221 1.369 . S
C220 H229 0.929 . S
C221 N218 1.346 . S
C221 C220 1.369 . S
C221 H224 0.928 . S
C222 N218 1.345 . S
C222 C223 1.371 . S
C222 H225 0.931 . S
C223 C219 1.391 . S
C223 C222 1.371 . S
C223 H230 0.930 1_556 S
H224 C221 0.928 . S
H225 C222 0.931 . S
H226 C202 0.930 . S
H227 C199 0.930 . S
H228 C208 0.930 . S
H229 C220 0.929 . S
H230 C223 0.930 1_554 S
C231 C232 1.351 . S
C231 N234 1.368 . S
C231 H236 0.931 . S
C232 C231 1.351 . S
C232 N233 1.373 . S
C232 H260 0.930 . S
N233 C232 1.373 . S
N233 C235 1.340 . S
N234 C231 1.368 . S
N234 C235 1.321 . S
N234 Co237 2.135 . S
C235 N233 1.340 . S
C235 N234 1.321 . S
C235 H259 0.930 . S
H236 C231 0.931 . S
Co237 N234 2.135 . S
Co237 N240 2.120 1_556 S
Co237 O245 2.055 . S
Co237 O248 2.039 . S
Co237 N251 2.140 . S
C238 O239 1.227 . S
C238 O248 1.265 . S
O239 C238 1.227 . S
N240 Co237 2.120 1_554 S
N240 C242 1.375 . S
N240 C243 1.314 . S
C241 C242 1.338 . S
C241 N244 1.377 . S
C241 H261 0.930 . S
C242 N240 1.375 . S
C242 C241 1.338 . S
C242 H246 0.931 1_554 S
C243 N240 1.314 . S
C243 N244 1.344 . S
C243 H247 0.930 . S
N244 C241 1.377 . S
N244 C243 1.344 . S
O245 Co237 2.055 . S
O245 C249 1.253 . S
H246 C242 0.931 1_556 S
H247 C243 0.930 . S
O248 Co237 2.039 . S
O248 C238 1.265 . S
C249 O245 1.253 . S
C249 O250 1.227 . S
O250 C249 1.227 . S
N251 Co237 2.140 . S
N251 C254 1.346 . S
N251 C255 1.345 . S
C252 C253 1.387 . S
C252 C256 1.391 . S
C253 C252 1.387 . S
C253 C254 1.369 . S
C253 H262 0.929 . S
C254 N251 1.346 . S
C254 C253 1.369 . S
C254 H257 0.928 . S
C255 N251 1.345 . S
C255 C256 1.371 . S
C255 H258 0.931 . S
C256 C252 1.391 . S
C256 C255 1.371 . S
C256 H263 0.930 1_556 S
H257 C254 0.928 . S
H258 C255 0.931 . S
H259 C235 0.930 . S
H260 C232 0.930 . S
H261 C241 0.930 . S
H262 C253 0.929 . S
H263 C256 0.930 1_554 S
C264 C265 1.351 . S
C264 N267 1.368 . S
C264 H269 0.931 . S
C265 C264 1.351 . S
C265 N266 1.373 . S
C265 H293 0.930 . S
N266 C265 1.373 . S
N266 C268 1.340 . S
N267 C264 1.368 . S
N267 C268 1.321 . S
N267 Co270 2.135 . S
C268 N266 1.340 . S
C268 N267 1.321 . S
C268 H292 0.930 . S
H269 C264 0.931 . S
Co270 N267 2.135 . S
Co270 N273 2.121 . S
Co270 O278 2.055 . S
Co270 O281 2.039 . S
Co270 N284 2.140 . S
C271 O272 1.227 . S
C271 O281 1.265 . S
O272 C271 1.227 . S
N273 Co270 2.121 . S
N273 C275 1.375 . S
N273 C276 1.313 . S
C274 C275 1.338 . S
C274 N277 1.377 . S
C274 H294 0.930 . S
C275 N273 1.375 . S
C275 C274 1.338 . S
C275 H279 0.931 . S
C276 N273 1.313 . S
C276 N277 1.344 . S
C276 H280 0.930 . S
N277 C274 1.377 . S
N277 C276 1.344 . S
O278 Co270 2.055 . S
O278 C282 1.253 . S
H279 C275 0.931 . S
H280 C276 0.930 . S
O281 Co270 2.039 . S
O281 C271 1.265 . S
C282 O278 1.253 . S
C282 O283 1.227 . S
O283 C282 1.227 . S
N284 Co270 2.140 . S
N284 C287 1.346 . S
N284 C288 1.345 . S
C285 C286 1.387 . S
C285 C289 1.391 . S
C286 C285 1.387 . S
C286 C287 1.369 . S
C286 H295 0.929 . S
C287 N284 1.346 . S
C287 C286 1.369 . S
C287 H290 0.928 . S
C288 N284 1.345 . S
C288 C289 1.371 . S
C288 H291 0.931 . S
C289 C285 1.391 . S
C289 C288 1.371 . S
C289 H296 0.930 . S
H290 C287 0.928 . S
H291 C288 0.931 . S
H292 C268 0.930 . S
H293 C265 0.930 . S
H294 C274 0.930 . S
H295 C286 0.929 . S
H296 C289 0.930 . S
C297 C298 1.351 . S
C297 N300 1.368 . S
C297 H302 0.931 . S
C298 C297 1.351 . S
C298 N299 1.373 . S
C298 H326 0.930 . S
N299 C298 1.373 . S
N299 C301 1.340 . S
N300 C297 1.368 . S
N300 C301 1.321 . S
N300 Co303 2.135 . S
C301 N299 1.340 . S
C301 N300 1.321 . S
C301 H325 0.930 . S
H302 C297 0.931 . S
Co303 N300 2.135 . S
Co303 N306 2.121 . S
Co303 O311 2.055 . S
Co303 O314 2.039 . S
Co303 N317 2.140 . S
C304 O305 1.227 . S
C304 O314 1.265 . S
O305 C304 1.227 . S
N306 Co303 2.121 . S
N306 C308 1.375 . S
N306 C309 1.313 . S
C307 C308 1.338 . S
C307 N310 1.377 . S
C307 H327 0.930 . S
C308 N306 1.375 . S
C308 C307 1.338 . S
C308 H312 0.931 . S
C309 N306 1.313 . S
C309 N310 1.344 . S
C309 H313 0.930 . S
N310 C307 1.377 . S
N310 C309 1.344 . S
O311 Co303 2.055 . S
O311 C315 1.253 . S
H312 C308 0.931 . S
H313 C309 0.930 . S
O314 Co303 2.039 . S
O314 C304 1.265 . S
C315 O311 1.253 . S
C315 O316 1.227 . S
O316 C315 1.227 . S
N317 Co303 2.140 . S
N317 C320 1.346 . S
N317 C321 1.345 . S
C318 C319 1.387 . S
C318 C322 1.391 . S
C319 C318 1.387 . S
C319 C320 1.369 . S
C319 H328 0.929 . S
C320 N317 1.346 . S
C320 C319 1.369 . S
C320 H323 0.928 . S
C321 N317 1.345 . S
C321 C322 1.371 . S
C321 H324 0.931 . S
C322 C318 1.391 . S
C322 C321 1.371 . S
C322 H329 0.930 . S
H323 C320 0.928 . S
H324 C321 0.931 . S
H325 C301 0.930 . S
H326 C298 0.930 . S
H327 C307 0.930 . S
H328 C319 0.929 . S
H329 C322 0.930 . S
C330 C331 1.351 . S
C330 N333 1.368 . S
C330 H335 0.931 . S
C331 C330 1.351 . S
C331 N332 1.373 . S
C331 H359 0.930 . S
N332 C331 1.373 . S
N332 C334 1.340 . S
N333 C330 1.368 . S
N333 C334 1.321 . S
N333 Co336 2.135 . S
C334 N332 1.340 . S
C334 N333 1.321 . S
C334 H358 0.930 . S
H335 C330 0.931 . S
Co336 N333 2.135 . S
Co336 N339 2.121 . S
Co336 O344 2.055 . S
Co336 O347 2.039 . S
Co336 N350 2.140 . S
C337 O338 1.227 . S
C337 O347 1.265 . S
O338 C337 1.227 . S
N339 Co336 2.121 . S
N339 C341 1.375 . S
N339 C342 1.313 . S
C340 C341 1.338 . S
C340 N343 1.377 . S
C340 H360 0.930 . S
C341 N339 1.375 . S
C341 C340 1.338 . S
C341 H345 0.931 . S
C342 N339 1.313 . S
C342 N343 1.344 . S
C342 H346 0.930 . S
N343 C340 1.377 . S
N343 C342 1.344 . S
O344 Co336 2.055 . S
O344 C348 1.253 . S
H345 C341 0.931 . S
H346 C342 0.930 . S
O347 Co336 2.039 . S
O347 C337 1.265 . S
C348 O344 1.253 . S
C348 O349 1.227 . S
O349 C348 1.227 . S
N350 Co336 2.140 . S
N350 C353 1.346 . S
N350 C354 1.345 . S
C351 C352 1.387 . S
C351 C355 1.391 . S
C352 C351 1.387 . S
C352 C353 1.369 . S
C352 H361 0.929 . S
C353 N350 1.346 . S
C353 C352 1.369 . S
C353 H356 0.928 . S
C354 N350 1.345 . S
C354 C355 1.371 . S
C354 H357 0.931 . S
C355 C351 1.391 . S
C355 C354 1.371 . S
C355 H362 0.930 . S
H356 C353 0.928 . S
H357 C354 0.931 . S
H358 C334 0.930 . S
H359 C331 0.930 . S
H360 C340 0.930 . S
H361 C352 0.929 . S
H362 C355 0.930 . S
C363 C364 1.351 . S
C363 N366 1.368 . S
C363 H368 0.931 . S
C364 C363 1.351 . S
C364 N365 1.373 . S
C364 H392 0.930 . S
N365 C364 1.373 . S
N365 C367 1.340 . S
N366 C363 1.368 . S
N366 C367 1.321 . S
N366 Co369 2.135 . S
C367 N365 1.340 . S
C367 N366 1.321 . S
C367 H391 0.930 . S
H368 C363 0.931 . S
Co369 N366 2.135 . S
Co369 N372 2.121 . S
Co369 O377 2.055 . S
Co369 O380 2.039 . S
Co369 N383 2.140 . S
C370 O371 1.227 . S
C370 O380 1.265 . S
O371 C370 1.227 . S
N372 Co369 2.121 . S
N372 C374 1.375 . S
N372 C375 1.313 . S
C373 C374 1.338 . S
C373 N376 1.377 . S
C373 H393 0.930 . S
C374 N372 1.375 . S
C374 C373 1.338 . S
C374 H378 0.931 . S
C375 N372 1.313 . S
C375 N376 1.344 . S
C375 H379 0.930 . S
N376 C373 1.377 . S
N376 C375 1.344 . S
O377 Co369 2.055 . S
O377 C381 1.253 . S
H378 C374 0.931 . S
H379 C375 0.930 . S
O380 Co369 2.039 . S
O380 C370 1.265 . S
C381 O377 1.253 . S
C381 O382 1.227 . S
O382 C381 1.227 . S
N383 Co369 2.140 . S
N383 C386 1.346 . S
N383 C387 1.345 . S
C384 C385 1.387 . S
C384 C388 1.391 . S
C385 C384 1.387 . S
C385 C386 1.369 . S
C385 H394 0.929 . S
C386 N383 1.346 . S
C386 C385 1.369 . S
C386 H389 0.928 . S
C387 N383 1.345 . S
C387 C388 1.371 . S
C387 H390 0.931 . S
C388 C384 1.391 . S
C388 C387 1.371 . S
C388 H395 0.930 . S
H389 C386 0.928 . S
H390 C387 0.931 . S
H391 C367 0.930 . S
H392 C364 0.930 . S
H393 C373 0.930 . S
H394 C385 0.929 . S
H395 C388 0.930 . S
C396 C397 1.351 . S
C396 N399 1.368 . S
C396 H401 0.931 . S
C397 C396 1.351 . S
C397 N398 1.373 . S
C397 H425 0.930 . S
N398 C397 1.373 . S
N398 C400 1.340 . S
N399 C396 1.368 . S
N399 C400 1.321 . S
N399 Co402 2.135 . S
C400 N398 1.340 . S
C400 N399 1.321 . S
C400 H424 0.930 . S
H401 C396 0.931 . S
Co402 N399 2.135 . S
Co402 N405 2.121 . S
Co402 O410 2.055 . S
Co402 O413 2.039 . S
Co402 N416 2.140 . S
C403 O404 1.227 . S
C403 O413 1.265 . S
O404 C403 1.227 . S
N405 Co402 2.121 . S
N405 C407 1.375 . S
N405 C408 1.313 . S
C406 C407 1.338 . S
C406 N409 1.377 . S
C406 H426 0.930 . S
C407 N405 1.375 . S
C407 C406 1.338 . S
C407 H411 0.931 . S
C408 N405 1.313 . S
C408 N409 1.344 . S
C408 H412 0.930 . S
N409 C406 1.377 . S
N409 C408 1.344 . S
O410 Co402 2.055 . S
O410 C414 1.253 . S
H411 C407 0.931 . S
H412 C408 0.930 . S
O413 Co402 2.039 . S
O413 C403 1.265 . S
C414 O410 1.253 . S
C414 O415 1.227 . S
O415 C414 1.227 . S
N416 Co402 2.140 . S
N416 C419 1.346 . S
N416 C420 1.345 . S
C417 C418 1.387 . S
C417 C421 1.391 . S
C418 C417 1.387 . S
C418 C419 1.369 . S
C418 H427 0.929 . S
C419 N416 1.346 . S
C419 C418 1.369 . S
C419 H422 0.928 . S
C420 N416 1.345 . S
C420 C421 1.371 . S
C420 H423 0.931 . S
C421 C417 1.391 . S
C421 C420 1.371 . S
C421 H428 0.930 . S
H422 C419 0.928 . S
H423 C420 0.931 . S
H424 C400 0.930 . S
H425 C397 0.930 . S
H426 C406 0.930 . S
H427 C418 0.929 . S
H428 C421 0.930 . S
C429 C430 1.351 . S
C429 N432 1.368 . S
C429 H434 0.931 . S
C430 C429 1.351 . S
C430 N431 1.373 . S
C430 H458 0.930 . S
N431 C430 1.373 . S
N431 C433 1.340 . S
N432 C429 1.368 . S
N432 C433 1.321 . S
N432 Co435 2.135 . S
C433 N431 1.340 . S
C433 N432 1.321 . S
C433 H457 0.930 . S
H434 C429 0.931 . S
Co435 N432 2.135 . S
Co435 N438 2.121 . S
Co435 O443 2.055 . S
Co435 O446 2.039 . S
Co435 N449 2.140 . S
C436 O437 1.227 . S
C436 O446 1.265 . S
O437 C436 1.227 . S
N438 Co435 2.121 . S
N438 C440 1.375 . S
N438 C441 1.313 . S
C439 C440 1.338 . S
C439 N442 1.377 . S
C439 H459 0.930 . S
C440 N438 1.375 . S
C440 C439 1.338 . S
C440 H444 0.931 . S
C441 N438 1.313 . S
C441 N442 1.344 . S
C441 H445 0.930 . S
N442 C439 1.377 . S
N442 C441 1.344 . S
O443 Co435 2.055 . S
O443 C447 1.253 . S
H444 C440 0.931 . S
H445 C441 0.930 . S
O446 Co435 2.039 . S
O446 C436 1.265 . S
C447 O443 1.253 . S
C447 O448 1.227 . S
O448 C447 1.227 . S
N449 Co435 2.140 . S
N449 C452 1.346 . S
N449 C453 1.345 . S
C450 C451 1.387 . S
C450 C454 1.391 . S
C451 C450 1.387 . S
C451 C452 1.369 . S
C451 H460 0.929 . S
C452 N449 1.346 . S
C452 C451 1.369 . S
C452 H455 0.928 . S
C453 N449 1.345 . S
C453 C454 1.371 . S
C453 H456 0.931 . S
C454 C450 1.391 . S
C454 C453 1.371 . S
C454 H461 0.930 . S
H455 C452 0.928 . S
H456 C453 0.931 . S
H457 C433 0.930 . S
H458 C430 0.930 . S
H459 C439 0.930 . S
H460 C451 0.929 . S
H461 C454 0.930 . S
C462 C463 1.351 . S
C462 N465 1.368 . S
C462 H467 0.931 . S
C463 C462 1.351 . S
C463 N464 1.373 . S
C463 H491 0.930 . S
N464 C463 1.373 . S
N464 C466 1.340 . S
N465 C462 1.368 . S
N465 C466 1.321 . S
N465 Co468 2.135 . S
C466 N464 1.340 . S
C466 N465 1.321 . S
C466 H490 0.930 . S
H467 C462 0.931 . S
Co468 N465 2.135 . S
Co468 N471 2.121 . S
Co468 O476 2.055 . S
Co468 O479 2.039 . S
Co468 N482 2.140 . S
C469 O470 1.227 . S
C469 O479 1.265 . S
O470 C469 1.227 . S
N471 Co468 2.121 . S
N471 C473 1.375 . S
N471 C474 1.313 . S
C472 C473 1.338 . S
C472 N475 1.377 . S
C472 H492 0.930 . S
C473 N471 1.375 . S
C473 C472 1.338 . S
C473 H477 0.931 . S
C474 N471 1.313 . S
C474 N475 1.344 . S
C474 H478 0.930 . S
N475 C472 1.377 . S
N475 C474 1.344 . S
O476 Co468 2.055 . S
O476 C480 1.253 . S
H477 C473 0.931 . S
H478 C474 0.930 . S
O479 Co468 2.039 . S
O479 C469 1.265 . S
C480 O476 1.253 . S
C480 O481 1.227 . S
O481 C480 1.227 . S
N482 Co468 2.140 . S
N482 C485 1.346 . S
N482 C486 1.345 . S
C483 C484 1.387 . S
C483 C487 1.391 . S
C484 C483 1.387 . S
C484 C485 1.369 . S
C484 H493 0.929 . S
C485 N482 1.346 . S
C485 C484 1.369 . S
C485 H488 0.928 . S
C486 N482 1.345 . S
C486 C487 1.371 . S
C486 H489 0.931 . S
C487 C483 1.391 . S
C487 C486 1.371 . S
C487 H494 0.930 . S
H488 C485 0.928 . S
H489 C486 0.931 . S
H490 C466 0.930 . S
H491 C463 0.930 . S
H492 C472 0.930 . S
H493 C484 0.929 . S
H494 C487 0.930 . S
C495 C496 1.351 . S
C495 N498 1.368 . S
C495 H500 0.931 . S
C496 C495 1.351 . S
C496 N497 1.373 . S
C496 H524 0.930 . S
N497 C496 1.373 . S
N497 C499 1.340 . S
N498 C495 1.368 . S
N498 C499 1.321 . S
N498 Co501 2.135 . S
C499 N497 1.340 . S
C499 N498 1.321 . S
C499 H523 0.930 . S
H500 C495 0.931 . S
Co501 N498 2.135 . S
Co501 N504 2.121 . S
Co501 O509 2.055 . S
Co501 O512 2.039 . S
Co501 N515 2.140 . S
C502 O503 1.227 . S
C502 O512 1.265 . S
O503 C502 1.227 . S
N504 Co501 2.121 . S
N504 C506 1.375 . S
N504 C507 1.313 . S
C505 C506 1.338 . S
C505 N508 1.377 . S
C505 H525 0.930 . S
C506 N504 1.375 . S
C506 C505 1.338 . S
C506 H510 0.931 . S
C507 N504 1.313 . S
C507 N508 1.344 . S
C507 H511 0.930 . S
N508 C505 1.377 . S
N508 C507 1.344 . S
O509 Co501 2.055 . S
O509 C513 1.253 . S
H510 C506 0.931 . S
H511 C507 0.930 . S
O512 Co501 2.039 . S
O512 C502 1.265 . S
C513 O509 1.253 . S
C513 O514 1.227 . S
O514 C513 1.227 . S
N515 Co501 2.140 . S
N515 C518 1.346 . S
N515 C519 1.345 . S
C516 C517 1.387 . S
C516 C520 1.391 . S
C517 C516 1.387 . S
C517 C518 1.369 . S
C517 H526 0.929 . S
C518 N515 1.346 . S
C518 C517 1.369 . S
C518 H521 0.928 . S
C519 N515 1.345 . S
C519 C520 1.371 . S
C519 H522 0.931 . S
C520 C516 1.391 . S
C520 C519 1.371 . S
C520 H527 0.930 . S
H521 C518 0.928 . S
H522 C519 0.931 . S
H523 C499 0.930 . S
H524 C496 0.930 . S
H525 C505 0.930 . S
H526 C517 0.929 . S
H527 C520 0.930 . S
H528 C546 0.951 . S
H529 C548 0.951 . S
H530 C550 0.950 . S
H531 C551 0.950 . S
H532 C553 0.950 . S
H533 C556 0.950 . S
H534 C557 0.950 . S
H535 C559 0.950 . S
H536 C560 0.950 . S
H537 C561 0.951 . S
H538 C563 0.951 . S
H539 C565 0.950 . S
H540 C566 0.950 . S
H541 C568 0.950 . S
H542 C571 0.950 . S
H543 C572 0.950 . S
H544 C574 0.950 . S
H545 C575 0.950 . S
C546 H528 0.951 . S
C546 C547 1.366 . S
C546 C548 1.388 . S
C547 C546 1.366 . S
C547 C551 1.385 . S
C548 H529 0.951 . S
C548 C546 1.388 . S
C548 C549 1.366 . S
C549 C548 1.366 . S
C549 C550 1.414 . S
C549 C552 1.499 . S
C550 H530 0.950 . S
C550 C549 1.414 . S
C550 C551 1.374 . S
C551 H531 0.950 . S
C551 C547 1.385 . S
C551 C550 1.374 . S
C552 C549 1.499 . S
C552 C553 1.373 . S
C552 C554 1.389 . S
C553 H532 0.950 . S
C553 C552 1.373 . S
C553 C569 1.377 . S
C554 C552 1.389 . S
C554 C555 1.524 . S
C554 C568 1.377 . S
C555 C554 1.524 . S
C555 C556 1.397 . S
C555 C560 1.363 . S
C556 H533 0.950 . S
C556 C555 1.397 . S
C556 C557 1.334 . S
C557 H534 0.950 . S
C557 C556 1.334 . S
C557 C558 1.287 . S
C558 C557 1.287 . S
C558 C559 1.524 . S
C558 H577 0.913 . S
C559 H535 0.950 . S
C559 C558 1.524 . S
C559 C560 1.415 . S
C560 H536 0.950 . S
C560 C555 1.363 . S
C560 C559 1.415 . S
C561 H537 0.951 . S
C561 C562 1.366 . S
C561 C563 1.388 . S
C562 C561 1.366 . S
C562 C566 1.385 . S
C563 H538 0.951 . S
C563 C561 1.388 . S
C563 C564 1.366 . S
C564 C563 1.366 . S
C564 C565 1.414 . S
C564 C567 1.499 . S
C565 H539 0.950 . S
C565 C564 1.414 . S
C565 C566 1.374 . S
C566 H540 0.950 . S
C566 C562 1.385 . S
C566 C565 1.374 . S
C567 C564 1.499 . S
C567 C568 1.373 . S
C567 C569 1.389 . S
C568 H541 0.950 . S
C568 C554 1.377 . S
C568 C567 1.373 . S
C569 C553 1.377 . S
C569 C567 1.389 . S
C569 C570 1.524 . S
C570 C569 1.524 . S
C570 C571 1.397 . S
C570 C575 1.363 . S
C571 H542 0.950 . S
C571 C570 1.397 . S
C571 C572 1.334 . S
C572 H543 0.950 . S
C572 C571 1.334 . S
C572 C573 1.287 . S
C573 C572 1.287 . S
C573 C574 1.524 . S
C573 H576 0.999 . S
C574 H544 0.950 . S
C574 C573 1.524 . S
C574 C575 1.415 . S
C575 H545 0.950 . S
C575 C570 1.363 . S
C575 C574 1.415 . S
H576 C573 0.999 . S
H577 C558 0.913 . S
H578 C596 0.951 . S
H579 C598 0.951 . S
H580 C600 0.950 . S
H581 C601 0.950 . S
H582 C603 0.950 . S
H583 C606 0.950 . S
H584 C607 0.950 . S
H585 C609 0.950 . S
H586 C610 0.950 . S
H587 C611 0.951 . S
H588 C613 0.951 . S
H589 C615 0.950 . S
H590 C616 0.950 . S
H591 C618 0.950 . S
H592 C621 0.950 . S
H593 C622 0.950 . S
H594 C624 0.950 . S
H595 C625 0.950 . S
C596 H578 0.951 . S
C596 C597 1.366 . S
C596 C598 1.388 . S
C597 C596 1.366 . S
C597 C601 1.385 . S
C598 H579 0.951 . S
C598 C596 1.388 . S
C598 C599 1.366 . S
C599 C598 1.366 . S
C599 C600 1.414 . S
C599 C602 1.499 . S
C600 H580 0.950 . S
C600 C599 1.414 . S
C600 C601 1.374 . S
C601 H581 0.950 . S
C601 C597 1.385 . S
C601 C600 1.374 . S
C602 C599 1.499 . S
C602 C603 1.373 . S
C602 C604 1.389 . S
C603 H582 0.950 . S
C603 C602 1.373 . S
C603 C619 1.377 . S
C604 C602 1.389 . S
C604 C605 1.524 . S
C604 C618 1.377 . S
C605 C604 1.524 . S
C605 C606 1.397 . S
C605 C610 1.363 . S
C606 H583 0.950 . S
C606 C605 1.397 . S
C606 C607 1.334 . S
C607 H584 0.950 . S
C607 C606 1.334 . S
C607 C608 1.287 . S
C608 C607 1.287 . S
C608 C609 1.524 . S
C608 H627 0.913 . S
C609 H585 0.950 . S
C609 C608 1.524 . S
C609 C610 1.415 . S
C610 H586 0.950 . S
C610 C605 1.363 . S
C610 C609 1.415 . S
C611 H587 0.951 . S
C611 C612 1.366 . S
C611 C613 1.388 . S
C612 C611 1.366 . S
C612 C616 1.385 . S
C613 H588 0.951 . S
C613 C611 1.388 . S
C613 C614 1.366 . S
C614 C613 1.366 . S
C614 C615 1.414 . S
C614 C617 1.499 . S
C615 H589 0.950 . S
C615 C614 1.414 . S
C615 C616 1.374 . S
C616 H590 0.950 . S
C616 C612 1.385 . S
C616 C615 1.374 . S
C617 C614 1.499 . S
C617 C618 1.373 . S
C617 C619 1.389 . S
C618 H591 0.950 . S
C618 C604 1.377 . S
C618 C617 1.373 . S
C619 C603 1.377 . S
C619 C617 1.389 . S
C619 C620 1.524 . S
C620 C619 1.524 . S
C620 C621 1.397 . S
C620 C625 1.363 . S
C621 H592 0.950 . S
C621 C620 1.397 . S
C621 C622 1.334 . S
C622 H593 0.950 . S
C622 C621 1.334 . S
C622 C623 1.287 . S
C623 C622 1.287 . S
C623 C624 1.524 . S
C623 H626 0.999 . S
C624 H594 0.950 . S
C624 C623 1.524 . S
C624 C625 1.415 . S
C625 H595 0.950 . S
C625 C620 1.363 . S
C625 C624 1.415 . S
H626 C623 0.999 . S
H627 C608 0.913 . S
H628 C646 0.951 . S
H629 C648 0.951 . S
H630 C650 0.950 . S
H631 C651 0.950 . S
H632 C653 0.950 . S
H633 C656 0.950 . S
H634 C657 0.950 . S
H635 C659 0.950 . S
H636 C660 0.950 . S
H637 C661 0.951 . S
H638 C663 0.951 . S
H639 C665 0.950 . S
H640 C666 0.950 . S
H641 C668 0.950 . S
H642 C671 0.950 . S
H643 C672 0.950 . S
H644 C674 0.950 . S
H645 C675 0.950 . S
C646 H628 0.951 . S
C646 C647 1.366 . S
C646 C648 1.388 . S
C647 C646 1.366 . S
C647 C651 1.385 . S
C648 H629 0.951 . S
C648 C646 1.388 . S
C648 C649 1.366 . S
C649 C648 1.366 . S
C649 C650 1.414 . S
C649 C652 1.499 . S
C650 H630 0.950 . S
C650 C649 1.414 . S
C650 C651 1.374 . S
C651 H631 0.950 . S
C651 C647 1.385 . S
C651 C650 1.374 . S
C652 C649 1.499 . S
C652 C653 1.373 . S
C652 C654 1.389 . S
C653 H632 0.950 . S
C653 C652 1.373 . S
C653 C669 1.377 . S
C654 C652 1.389 . S
C654 C655 1.524 . S
C654 C668 1.377 . S
C655 C654 1.524 . S
C655 C656 1.397 . S
C655 C660 1.363 . S
C656 H633 0.950 . S
C656 C655 1.397 . S
C656 C657 1.334 . S
C657 H634 0.950 . S
C657 C656 1.334 . S
C657 C658 1.287 . S
C658 C657 1.287 . S
C658 C659 1.524 . S
C658 H677 0.913 . S
C659 H635 0.950 . S
C659 C658 1.524 . S
C659 C660 1.415 . S
C660 H636 0.950 . S
C660 C655 1.363 . S
C660 C659 1.415 . S
C661 H637 0.951 . S
C661 C662 1.366 . S
C661 C663 1.388 . S
C662 C661 1.366 . S
C662 C666 1.385 . S
C663 H638 0.951 . S
C663 C661 1.388 . S
C663 C664 1.366 . S
C664 C663 1.366 . S
C664 C665 1.414 . S
C664 C667 1.499 . S
C665 H639 0.950 . S
C665 C664 1.414 . S
C665 C666 1.374 . S
C666 H640 0.950 . S
C666 C662 1.385 . S
C666 C665 1.374 . S
C667 C664 1.499 . S
C667 C668 1.373 . S
C667 C669 1.389 . S
C668 H641 0.950 . S
C668 C654 1.377 . S
C668 C667 1.373 . S
C669 C653 1.377 . S
C669 C667 1.389 . S
C669 C670 1.524 . S
C670 C669 1.524 . S
C670 C671 1.397 . S
C670 C675 1.363 . S
C671 H642 0.950 . S
C671 C670 1.397 . S
C671 C672 1.334 . S
C672 H643 0.950 . S
C672 C671 1.334 . S
C672 C673 1.287 . S
C673 C672 1.287 . S
C673 C674 1.524 . S
C673 H676 0.999 . S
C674 H644 0.950 . S
C674 C673 1.524 . S
C674 C675 1.415 . S
C675 H645 0.950 . S
C675 C670 1.363 . S
C675 C674 1.415 . S
H676 C673 0.999 . S
H677 C658 0.913 . S
H678 C696 0.951 . S
H679 C698 0.951 . S
H680 C700 0.950 . S
H681 C701 0.950 . S
H682 C703 0.950 . S
H683 C706 0.950 . S
H684 C707 0.950 . S
H685 C709 0.950 . S
H686 C710 0.950 . S
H687 C711 0.951 . S
H688 C713 0.951 . S
H689 C715 0.950 . S
H690 C716 0.950 . S
H691 C718 0.950 . S
H692 C721 0.950 . S
H693 C722 0.950 . S
H694 C724 0.950 . S
H695 C725 0.950 . S
C696 H678 0.951 . S
C696 C697 1.366 . S
C696 C698 1.388 . S
C697 C696 1.366 . S
C697 C701 1.385 . S
C698 H679 0.951 . S
C698 C696 1.388 . S
C698 C699 1.366 . S
C699 C698 1.366 . S
C699 C700 1.414 . S
C699 C702 1.499 . S
C700 H680 0.950 . S
C700 C699 1.414 . S
C700 C701 1.374 . S
C701 H681 0.950 . S
C701 C697 1.385 . S
C701 C700 1.374 . S
C702 C699 1.499 . S
C702 C703 1.373 . S
C702 C704 1.389 . S
C703 H682 0.950 . S
C703 C702 1.373 . S
C703 C719 1.377 . S
C704 C702 1.389 . S
C704 C705 1.524 . S
C704 C718 1.377 . S
C705 C704 1.524 . S
C705 C706 1.397 . S
C705 C710 1.363 . S
C706 H683 0.950 . S
C706 C705 1.397 . S
C706 C707 1.334 . S
C707 H684 0.950 . S
C707 C706 1.334 . S
C707 C708 1.287 . S
C708 C707 1.287 . S
C708 C709 1.524 . S
C708 H727 0.913 . S
C709 H685 0.950 . S
C709 C708 1.524 . S
C709 C710 1.415 . S
C710 H686 0.950 . S
C710 C705 1.363 . S
C710 C709 1.415 . S
C711 H687 0.951 . S
C711 C712 1.366 . S
C711 C713 1.388 . S
C712 C711 1.366 . S
C712 C716 1.385 . S
C713 H688 0.951 . S
C713 C711 1.388 . S
C713 C714 1.366 . S
C714 C713 1.366 . S
C714 C715 1.414 . S
C714 C717 1.499 . S
C715 H689 0.950 . S
C715 C714 1.414 . S
C715 C716 1.374 . S
C716 H690 0.950 . S
C716 C712 1.385 . S
C716 C715 1.374 . S
C717 C714 1.499 . S
C717 C718 1.373 . S
C717 C719 1.389 . S
C718 H691 0.950 . S
C718 C704 1.377 . S
C718 C717 1.373 . S
C719 C703 1.377 . S
C719 C717 1.389 . S
C719 C720 1.524 . S
C720 C719 1.524 . S
C720 C721 1.397 . S
C720 C725 1.363 . S
C721 H692 0.950 . S
C721 C720 1.397 . S
C721 C722 1.334 . S
C722 H693 0.950 . S
C722 C721 1.334 . S
C722 C723 1.287 . S
C723 C722 1.287 . S
C723 C724 1.524 . S
C723 H726 0.999 . S
C724 H694 0.950 . S
C724 C723 1.524 . S
C724 C725 1.415 . S
C725 H695 0.950 . S
C725 C720 1.363 . S
C725 C724 1.415 . S
H726 C723 0.999 . S
H727 C708 0.913 . S
H728 C746 0.951 . S
H729 C748 0.951 . S
H730 C750 0.950 . S
H731 C751 0.950 . S
H732 C753 0.950 . S
H733 C756 0.950 . S
H734 C757 0.950 . S
H735 C759 0.950 . S
H736 C760 0.950 . S
H737 C761 0.951 . S
H738 C763 0.951 . S
H739 C765 0.950 . S
H740 C766 0.950 . S
H741 C768 0.950 . S
H742 C771 0.950 . S
H743 C772 0.950 . S
H744 C774 0.950 . S
H745 C775 0.950 . S
C746 H728 0.951 . S
C746 C747 1.366 . S
C746 C748 1.388 . S
C747 C746 1.366 . S
C747 C751 1.385 . S
C748 H729 0.951 . S
C748 C746 1.388 . S
C748 C749 1.366 . S
C749 C748 1.366 . S
C749 C750 1.414 . S
C749 C752 1.499 . S
C750 H730 0.950 . S
C750 C749 1.414 . S
C750 C751 1.374 . S
C751 H731 0.950 . S
C751 C747 1.385 . S
C751 C750 1.374 . S
C752 C749 1.499 . S
C752 C753 1.373 . S
C752 C754 1.389 . S
C753 H732 0.950 . S
C753 C752 1.373 . S
C753 C769 1.377 . S
C754 C752 1.389 . S
C754 C755 1.524 . S
C754 C768 1.377 . S
C755 C754 1.524 . S
C755 C756 1.397 . S
C755 C760 1.363 . S
C756 H733 0.950 . S
C756 C755 1.397 . S
C756 C757 1.334 . S
C757 H734 0.950 . S
C757 C756 1.334 . S
C757 C758 1.287 . S
C758 C757 1.287 . S
C758 C759 1.524 . S
C758 H777 0.913 . S
C759 H735 0.950 . S
C759 C758 1.524 . S
C759 C760 1.415 . S
C760 H736 0.950 . S
C760 C755 1.363 . S
C760 C759 1.415 . S
C761 H737 0.951 . S
C761 C762 1.366 . S
C761 C763 1.388 . S
C762 C761 1.366 . S
C762 C766 1.385 . S
C763 H738 0.951 . S
C763 C761 1.388 . S
C763 C764 1.366 . S
C764 C763 1.366 . S
C764 C765 1.414 . S
C764 C767 1.499 . S
C765 H739 0.950 . S
C765 C764 1.414 . S
C765 C766 1.374 . S
C766 H740 0.950 . S
C766 C762 1.385 . S
C766 C765 1.374 . S
C767 C764 1.499 . S
C767 C768 1.373 . S
C767 C769 1.389 . S
C768 H741 0.950 . S
C768 C754 1.377 . S
C768 C767 1.373 . S
C769 C753 1.377 . S
C769 C767 1.389 . S
C769 C770 1.524 . S
C770 C769 1.524 . S
C770 C771 1.397 . S
C770 C775 1.363 . S
C771 H742 0.950 . S
C771 C770 1.397 . S
C771 C772 1.334 . S
C772 H743 0.950 . S
C772 C771 1.334 . S
C772 C773 1.287 . S
C773 C772 1.287 . S
C773 C774 1.524 . S
C773 H776 0.999 . S
C774 H744 0.950 . S
C774 C773 1.524 . S
C774 C775 1.415 . S
C775 H745 0.950 . S
C775 C770 1.363 . S
C775 C774 1.415 . S
H776 C773 0.999 . S
H777 C758 0.913 . S
H778 C796 0.951 . S
H779 C798 0.951 . S
H780 C800 0.950 . S
H781 C801 0.950 . S
H782 C803 0.950 . S
H783 C806 0.950 . S
H784 C807 0.950 . S
H785 C809 0.950 . S
H786 C810 0.950 . S
H787 C811 0.951 . S
H788 C813 0.951 . S
H789 C815 0.950 . S
H790 C816 0.950 . S
H791 C818 0.950 . S
H792 C821 0.950 . S
H793 C822 0.950 . S
H794 C824 0.950 . S
H795 C825 0.950 . S
C796 H778 0.951 . S
C796 C797 1.366 . S
C796 C798 1.388 . S
C797 C796 1.366 . S
C797 C801 1.385 . S
C798 H779 0.951 . S
C798 C796 1.388 . S
C798 C799 1.366 . S
C799 C798 1.366 . S
C799 C800 1.414 . S
C799 C802 1.499 . S
C800 H780 0.950 . S
C800 C799 1.414 . S
C800 C801 1.374 . S
C801 H781 0.950 . S
C801 C797 1.385 . S
C801 C800 1.374 . S
C802 C799 1.499 . S
C802 C803 1.373 . S
C802 C804 1.389 . S
C803 H782 0.950 . S
C803 C802 1.373 . S
C803 C819 1.377 . S
C804 C802 1.389 . S
C804 C805 1.524 . S
C804 C818 1.377 . S
C805 C804 1.524 . S
C805 C806 1.397 . S
C805 C810 1.363 . S
C806 H783 0.950 . S
C806 C805 1.397 . S
C806 C807 1.334 . S
C807 H784 0.950 . S
C807 C806 1.334 . S
C807 C808 1.287 . S
C808 C807 1.287 . S
C808 C809 1.524 . S
C808 H827 0.913 . S
C809 H785 0.950 . S
C809 C808 1.524 . S
C809 C810 1.415 . S
C810 H786 0.950 . S
C810 C805 1.363 . S
C810 C809 1.415 . S
C811 H787 0.951 . S
C811 C812 1.366 . S
C811 C813 1.388 . S
C812 C811 1.366 . S
C812 C816 1.385 . S
C813 H788 0.951 . S
C813 C811 1.388 . S
C813 C814 1.366 . S
C814 C813 1.366 . S
C814 C815 1.414 . S
C814 C817 1.499 . S
C815 H789 0.950 . S
C815 C814 1.414 . S
C815 C816 1.374 . S
C816 H790 0.950 . S
C816 C812 1.385 . S
C816 C815 1.374 . S
C817 C814 1.499 . S
C817 C818 1.373 . S
C817 C819 1.389 . S
C818 H791 0.950 . S
C818 C804 1.377 . S
C818 C817 1.373 . S
C819 C803 1.377 . S
C819 C817 1.389 . S
C819 C820 1.524 . S
C820 C819 1.524 . S
C820 C821 1.397 . S
C820 C825 1.363 . S
C821 H792 0.950 . S
C821 C820 1.397 . S
C821 C822 1.334 . S
C822 H793 0.950 . S
C822 C821 1.334 . S
C822 C823 1.287 . S
C823 C822 1.287 . S
C823 C824 1.524 . S
C823 H826 0.999 . S
C824 H794 0.950 . S
C824 C823 1.524 . S
C824 C825 1.415 . S
C825 H795 0.950 . S
C825 C820 1.363 . S
C825 C824 1.415 . S
H826 C823 0.999 . S
H827 C808 0.913 . S
H828 C846 0.951 . S
H829 C848 0.951 . S
H830 C850 0.950 . S
H831 C851 0.950 . S
H832 C853 0.950 . S
H833 C856 0.950 . S
H834 C857 0.950 . S
H835 C859 0.950 . S
H836 C860 0.950 . S
H837 C861 0.951 . S
H838 C863 0.951 . S
H839 C865 0.950 . S
H840 C866 0.950 . S
H841 C868 0.950 . S
H842 C871 0.950 . S
H843 C872 0.950 . S
H844 C874 0.950 . S
H845 C875 0.950 . S
C846 H828 0.951 . S
C846 C847 1.366 . S
C846 C848 1.388 . S
C847 C846 1.366 . S
C847 C851 1.385 . S
C848 H829 0.951 . S
C848 C846 1.388 . S
C848 C849 1.366 . S
C849 C848 1.366 . S
C849 C850 1.414 . S
C849 C852 1.499 . S
C850 H830 0.950 . S
C850 C849 1.414 . S
C850 C851 1.374 . S
C851 H831 0.950 . S
C851 C847 1.385 . S
C851 C850 1.374 . S
C852 C849 1.499 . S
C852 C853 1.373 . S
C852 C854 1.389 . S
C853 H832 0.950 . S
C853 C852 1.373 . S
C853 C869 1.377 . S
C854 C852 1.389 . S
C854 C855 1.524 . S
C854 C868 1.377 . S
C855 C854 1.524 . S
C855 C856 1.397 . S
C855 C860 1.363 . S
C856 H833 0.950 . S
C856 C855 1.397 . S
C856 C857 1.334 . S
C857 H834 0.950 . S
C857 C856 1.334 . S
C857 C858 1.287 . S
C858 C857 1.287 . S
C858 C859 1.524 . S
C858 H877 0.913 . S
C859 H835 0.950 . S
C859 C858 1.524 . S
C859 C860 1.415 . S
C860 H836 0.950 . S
C860 C855 1.363 . S
C860 C859 1.415 . S
C861 H837 0.951 . S
C861 C862 1.366 . S
C861 C863 1.388 . S
C862 C861 1.366 . S
C862 C866 1.385 . S
C863 H838 0.951 . S
C863 C861 1.388 . S
C863 C864 1.366 . S
C864 C863 1.366 . S
C864 C865 1.414 . S
C864 C867 1.499 . S
C865 H839 0.950 . S
C865 C864 1.414 . S
C865 C866 1.374 . S
C866 H840 0.950 . S
C866 C862 1.385 . S
C866 C865 1.374 . S
C867 C864 1.499 . S
C867 C868 1.373 . S
C867 C869 1.389 . S
C868 H841 0.950 . S
C868 C854 1.377 . S
C868 C867 1.373 . S
C869 C853 1.377 . S
C869 C867 1.389 . S
C869 C870 1.524 . S
C870 C869 1.524 . S
C870 C871 1.397 . S
C870 C875 1.363 . S
C871 H842 0.950 . S
C871 C870 1.397 . S
C871 C872 1.334 . S
C872 H843 0.950 . S
C872 C871 1.334 . S
C872 C873 1.287 . S
C873 C872 1.287 . S
C873 C874 1.524 . S
C873 H876 0.999 . S
C874 H844 0.950 . S
C874 C873 1.524 . S
C874 C875 1.415 . S
C875 H845 0.950 . S
C875 C870 1.363 . S
C875 C874 1.415 . S
H876 C873 0.999 . S
H877 C858 0.913 . S
H878 C896 0.951 . S
H879 C898 0.951 . S
H880 C900 0.950 . S
H881 C901 0.950 . S
H882 C903 0.950 . S
H883 C906 0.950 . S
H884 C907 0.950 . S
H885 C909 0.950 . S
H886 C910 0.950 . S
H887 C911 0.951 . S
H888 C913 0.951 . S
H889 C915 0.950 . S
H890 C916 0.950 . S
H891 C918 0.950 . S
H892 C921 0.950 . S
H893 C922 0.950 . S
H894 C924 0.950 . S
H895 C925 0.950 . S
C896 H878 0.951 . S
C896 C897 1.366 . S
C896 C898 1.388 . S
C897 C896 1.366 . S
C897 C901 1.385 . S
C898 H879 0.951 . S
C898 C896 1.388 . S
C898 C899 1.366 . S
C899 C898 1.366 . S
C899 C900 1.414 . S
C899 C902 1.499 . S
C900 H880 0.950 . S
C900 C899 1.414 . S
C900 C901 1.374 . S
C901 H881 0.950 . S
C901 C897 1.385 . S
C901 C900 1.374 . S
C902 C899 1.499 . S
C902 C903 1.373 . S
C902 C904 1.389 . S
C903 H882 0.950 . S
C903 C902 1.373 . S
C903 C919 1.377 . S
C904 C902 1.389 . S
C904 C905 1.524 . S
C904 C918 1.377 . S
C905 C904 1.524 . S
C905 C906 1.397 . S
C905 C910 1.363 . S
C906 H883 0.950 . S
C906 C905 1.397 . S
C906 C907 1.334 . S
C907 H884 0.950 . S
C907 C906 1.334 . S
C907 C908 1.287 . S
C908 C907 1.287 . S
C908 C909 1.524 . S
C908 H927 0.913 . S
C909 H885 0.950 . S
C909 C908 1.524 . S
C909 C910 1.415 . S
C910 H886 0.950 . S
C910 C905 1.363 . S
C910 C909 1.415 . S
C911 H887 0.951 . S
C911 C912 1.366 . S
C911 C913 1.388 . S
C912 C911 1.366 . S
C912 C916 1.385 . S
C913 H888 0.951 . S
C913 C911 1.388 . S
C913 C914 1.366 . S
C914 C913 1.366 . S
C914 C915 1.414 . S
C914 C917 1.499 . S
C915 H889 0.950 . S
C915 C914 1.414 . S
C915 C916 1.374 . S
C916 H890 0.950 . S
C916 C912 1.385 . S
C916 C915 1.374 . S
C917 C914 1.499 . S
C917 C918 1.373 . S
C917 C919 1.389 . S
C918 H891 0.950 . S
C918 C904 1.377 . S
C918 C917 1.373 . S
C919 C903 1.377 . S
C919 C917 1.389 . S
C919 C920 1.524 . S
C920 C919 1.524 . S
C920 C921 1.397 . S
C920 C925 1.363 . S
C921 H892 0.950 . S
C921 C920 1.397 . S
C921 C922 1.334 . S
C922 H893 0.950 . S
C922 C921 1.334 . S
C922 C923 1.287 . S
C923 C922 1.287 . S
C923 C924 1.524 . S
C923 H926 0.999 . S
C924 H894 0.950 . S
C924 C923 1.524 . S
C924 C925 1.415 . S
C925 H895 0.950 . S
C925 C920 1.363 . S
C925 C924 1.415 . S
H926 C923 0.999 . S
H927 C908 0.913 . S
H928 C946 0.951 . S
H929 C948 0.951 . S
H930 C950 0.950 . S
H931 C951 0.950 . S
H932 C953 0.950 . S
H933 C956 0.950 . S
H934 C957 0.950 . S
H935 C959 0.950 . S
H936 C960 0.950 . S
H937 C961 0.951 . S
H938 C963 0.951 . S
H939 C965 0.950 . S
H940 C966 0.950 . S
H941 C968 0.950 . S
H942 C971 0.950 . S
H943 C972 0.950 . S
H944 C974 0.950 . S
H945 C975 0.950 . S
C946 H928 0.951 . S
C946 C947 1.366 . S
C946 C948 1.388 . S
C947 C946 1.366 . S
C947 C951 1.385 . S
C948 H929 0.951 . S
C948 C946 1.388 . S
C948 C949 1.366 . S
C949 C948 1.366 . S
C949 C950 1.414 . S
C949 C952 1.499 . S
C950 H930 0.950 . S
C950 C949 1.414 . S
C950 C951 1.374 . S
C951 H931 0.950 . S
C951 C947 1.385 . S
C951 C950 1.374 . S
C952 C949 1.499 . S
C952 C953 1.373 . S
C952 C954 1.389 . S
C953 H932 0.950 . S
C953 C952 1.373 . S
C953 C969 1.377 . S
C954 C952 1.389 . S
C954 C955 1.524 . S
C954 C968 1.377 . S
C955 C954 1.524 . S
C955 C956 1.397 . S
C955 C960 1.363 . S
C956 H933 0.950 . S
C956 C955 1.397 . S
C956 C957 1.334 . S
C957 H934 0.950 . S
C957 C956 1.334 . S
C957 C958 1.287 . S
C958 C957 1.287 . S
C958 C959 1.524 . S
C958 H977 0.913 . S
C959 H935 0.950 . S
C959 C958 1.524 . S
C959 C960 1.415 . S
C960 H936 0.950 . S
C960 C955 1.363 . S
C960 C959 1.415 . S
C961 H937 0.951 . S
C961 C962 1.366 . S
C961 C963 1.388 . S
C962 C961 1.366 . S
C962 C966 1.385 . S
C963 H938 0.951 . S
C963 C961 1.388 . S
C963 C964 1.366 . S
C964 C963 1.366 . S
C964 C965 1.414 . S
C964 C967 1.499 1_556 S
C965 H939 0.950 . S
C965 C964 1.414 . S
C965 C966 1.374 . S
C966 H940 0.950 . S
C966 C962 1.385 . S
C966 C965 1.374 . S
C967 C964 1.499 1_554 S
C967 C968 1.373 . S
C967 C969 1.389 . S
C968 H941 0.950 . S
C968 C954 1.377 . S
C968 C967 1.373 . S
C969 C953 1.377 . S
C969 C967 1.389 . S
C969 C970 1.524 . S
C970 C969 1.524 . S
C970 C971 1.397 . S
C970 C975 1.363 . S
C971 H942 0.950 . S
C971 C970 1.397 . S
C971 C972 1.334 1_554 S
C972 H943 0.950 . S
C972 C971 1.334 1_556 S
C972 C973 1.287 1_556 S
C973 C972 1.287 1_554 S
C973 C974 1.524 . S
C973 H976 0.999 1_554 S
C974 H944 0.950 . S
C974 C973 1.524 . S
C974 C975 1.415 . S
C975 H945 0.950 . S
C975 C970 1.363 . S
C975 C974 1.415 . S
H976 C973 0.999 1_556 S
H977 C958 0.913 . S
H978 C996 0.951 . S
H979 C998 0.951 . S
H980 C1000 0.950 . S
H981 C1001 0.950 . S
H982 C1003 0.950 . S
H983 C1006 0.950 . S
H984 C1007 0.950 . S
H985 C1009 0.950 . S
H986 C1010 0.950 . S
H987 C1011 0.951 . S
H988 C1013 0.951 . S
H989 C1015 0.950 . S
H990 C1016 0.950 . S
H991 C1018 0.950 . S
H992 C1021 0.950 1_556 S
H993 C1022 0.950 . S
H994 C1024 0.950 . S
H995 C1025 0.950 . S
C996 H978 0.951 . S
C996 C997 1.366 . S
C996 C998 1.388 . S
C997 C996 1.366 . S
C997 C1001 1.385 . S
C998 H979 0.951 . S
C998 C996 1.388 . S
C998 C999 1.366 . S
C999 C998 1.366 . S
C999 C1000 1.414 . S
C999 C1002 1.499 . S
C1000 H980 0.950 . S
C1000 C999 1.414 . S
C1000 C1001 1.374 . S
C1001 H981 0.950 . S
C1001 C997 1.385 . S
C1001 C1000 1.374 . S
C1002 C999 1.499 . S
C1002 C1003 1.373 . S
C1002 C1004 1.389 . S
C1003 H982 0.950 . S
C1003 C1002 1.373 . S
C1003 C1019 1.377 . S
C1004 C1002 1.389 . S
C1004 C1005 1.524 . S
C1004 C1018 1.377 . S
C1005 C1004 1.524 . S
C1005 C1006 1.397 . S
C1005 C1010 1.363 . S
C1006 H983 0.950 . S
C1006 C1005 1.397 . S
C1006 C1007 1.334 . S
C1007 H984 0.950 . S
C1007 C1006 1.334 . S
C1007 C1008 1.287 . S
C1008 C1007 1.287 . S
C1008 C1009 1.524 . S
C1008 H1027 0.913 . S
C1009 H985 0.950 . S
C1009 C1008 1.524 . S
C1009 C1010 1.415 . S
C1010 H986 0.950 . S
C1010 C1005 1.363 . S
C1010 C1009 1.415 . S
C1011 H987 0.951 . S
C1011 C1012 1.366 . S
C1011 C1013 1.388 . S
C1012 C1011 1.366 . S
C1012 C1016 1.385 . S
C1013 H988 0.951 . S
C1013 C1011 1.388 . S
C1013 C1014 1.366 . S
C1014 C1013 1.366 . S
C1014 C1015 1.414 . S
C1014 C1017 1.499 1_556 S
C1015 H989 0.950 . S
C1015 C1014 1.414 . S
C1015 C1016 1.374 . S
C1016 H990 0.950 . S
C1016 C1012 1.385 . S
C1016 C1015 1.374 . S
C1017 C1014 1.499 1_554 S
C1017 C1018 1.373 . S
C1017 C1019 1.389 . S
C1018 H991 0.950 . S
C1018 C1004 1.377 . S
C1018 C1017 1.373 . S
C1019 C1003 1.377 . S
C1019 C1017 1.389 . S
C1019 C1020 1.524 . S
C1020 C1019 1.524 . S
C1020 C1021 1.397 . S
C1020 C1025 1.363 . S
C1021 H992 0.950 1_554 S
C1021 C1020 1.397 . S
C1021 C1022 1.334 1_554 S
C1022 H993 0.950 . S
C1022 C1021 1.334 1_556 S
C1022 C1023 1.287 1_556 S
C1023 C1022 1.287 1_554 S
C1023 C1024 1.524 . S
C1023 H1026 0.999 1_554 S
C1024 H994 0.950 . S
C1024 C1023 1.524 . S
C1024 C1025 1.415 . S
C1025 H995 0.950 . S
C1025 C1020 1.363 . S
C1025 C1024 1.415 . S
H1026 C1023 0.999 1_556 S
H1027 C1008 0.913 . S
H1028 C1046 0.951 . S
H1029 C1048 0.951 . S
H1030 C1050 0.950 . S
H1031 C1051 0.950 . S
H1032 C1053 0.950 . S
H1033 C1056 0.950 . S
H1034 C1057 0.950 . S
H1035 C1059 0.950 . S
H1036 C1060 0.950 . S
H1037 C1061 0.951 . S
H1038 C1063 0.951 . S
H1039 C1065 0.950 . S
H1040 C1066 0.950 . S
H1041 C1068 0.950 . S
H1042 C1071 0.950 . S
H1043 C1072 0.950 . S
H1044 C1074 0.950 . S
H1045 C1075 0.950 . S
C1046 H1028 0.951 . S
C1046 C1047 1.366 . S
C1046 C1048 1.388 . S
C1047 C1046 1.366 . S
C1047 C1051 1.385 . S
C1048 H1029 0.951 . S
C1048 C1046 1.388 . S
C1048 C1049 1.366 . S
C1049 C1048 1.366 . S
C1049 C1050 1.414 . S
C1049 C1052 1.499 . S
C1050 H1030 0.950 . S
C1050 C1049 1.414 . S
C1050 C1051 1.374 . S
C1051 H1031 0.950 . S
C1051 C1047 1.385 . S
C1051 C1050 1.374 . S
C1052 C1049 1.499 . S
C1052 C1053 1.373 . S
C1052 C1054 1.389 . S
C1053 H1032 0.950 . S
C1053 C1052 1.373 . S
C1053 C1069 1.377 . S
C1054 C1052 1.389 . S
C1054 C1055 1.524 . S
C1054 C1068 1.377 . S
C1055 C1054 1.524 . S
C1055 C1056 1.397 . S
C1055 C1060 1.363 . S
C1056 H1033 0.950 . S
C1056 C1055 1.397 . S
C1056 C1057 1.334 . S
C1057 H1034 0.950 . S
C1057 C1056 1.334 . S
C1057 C1058 1.287 . S
C1058 C1057 1.287 . S
C1058 C1059 1.524 . S
C1058 H1077 0.913 . S
C1059 H1035 0.950 . S
C1059 C1058 1.524 . S
C1059 C1060 1.415 . S
C1060 H1036 0.950 . S
C1060 C1055 1.363 . S
C1060 C1059 1.415 . S
C1061 H1037 0.951 . S
C1061 C1062 1.366 . S
C1061 C1063 1.388 . S
C1062 C1061 1.366 . S
C1062 C1066 1.385 . S
C1063 H1038 0.951 . S
C1063 C1061 1.388 . S
C1063 C1064 1.366 . S
C1064 C1063 1.366 . S
C1064 C1065 1.414 . S
C1064 C1067 1.499 1_556 S
C1065 H1039 0.950 . S
C1065 C1064 1.414 . S
C1065 C1066 1.374 . S
C1066 H1040 0.950 . S
C1066 C1062 1.385 . S
C1066 C1065 1.374 . S
C1067 C1064 1.499 1_554 S
C1067 C1068 1.373 . S
C1067 C1069 1.389 . S
C1068 H1041 0.950 . S
C1068 C1054 1.377 . S
C1068 C1067 1.373 . S
C1069 C1053 1.377 . S
C1069 C1067 1.389 . S
C1069 C1070 1.524 . S
C1070 C1069 1.524 . S
C1070 C1071 1.397 1_554 S
C1070 C1075 1.363 . S
C1071 H1042 0.950 . S
C1071 C1070 1.397 1_556 S
C1071 C1072 1.334 . S
C1072 H1043 0.950 . S
C1072 C1071 1.334 . S
C1072 C1073 1.287 . S
C1073 C1072 1.287 . S
C1073 C1074 1.524 1_556 S
C1073 H1076 0.999 . S
C1074 H1044 0.950 . S
C1074 C1073 1.524 1_554 S
C1074 C1075 1.415 . S
C1075 H1045 0.950 . S
C1075 C1070 1.363 . S
C1075 C1074 1.415 . S
H1076 C1073 0.999 . S
H1077 C1058 0.913 . S
H1078 C1096 0.951 . S
H1079 C1098 0.951 . S
H1080 C1100 0.950 . S
H1081 C1101 0.950 . S
H1082 C1103 0.950 . S
H1083 C1106 0.950 . S
H1084 C1107 0.950 . S
H1085 C1109 0.950 . S
H1086 C1110 0.950 . S
H1087 C1111 0.951 . S
H1088 C1113 0.951 . S
H1089 C1115 0.950 . S
H1090 C1116 0.950 . S
H1091 C1118 0.950 . S
H1092 C1121 0.950 . S
H1093 C1122 0.950 . S
H1094 C1124 0.950 . S
H1095 C1125 0.950 . S
C1096 H1078 0.951 . S
C1096 C1097 1.366 . S
C1096 C1098 1.388 . S
C1097 C1096 1.366 . S
C1097 C1101 1.385 . S
C1098 H1079 0.951 . S
C1098 C1096 1.388 . S
C1098 C1099 1.366 . S
C1099 C1098 1.366 . S
C1099 C1100 1.414 . S
C1099 C1102 1.499 . S
C1100 H1080 0.950 . S
C1100 C1099 1.414 . S
C1100 C1101 1.374 . S
C1101 H1081 0.950 . S
C1101 C1097 1.385 . S
C1101 C1100 1.374 . S
C1102 C1099 1.499 . S
C1102 C1103 1.373 . S
C1102 C1104 1.389 . S
C1103 H1082 0.950 . S
C1103 C1102 1.373 . S
C1103 C1119 1.377 . S
C1104 C1102 1.389 . S
C1104 C1105 1.524 . S
C1104 C1118 1.377 . S
C1105 C1104 1.524 . S
C1105 C1106 1.397 . S
C1105 C1110 1.363 . S
C1106 H1083 0.950 . S
C1106 C1105 1.397 . S
C1106 C1107 1.334 . S
C1107 H1084 0.950 . S
C1107 C1106 1.334 . S
C1107 C1108 1.287 . S
C1108 C1107 1.287 . S
C1108 C1109 1.524 . S
C1108 H1127 0.913 . S
C1109 H1085 0.950 . S
C1109 C1108 1.524 . S
C1109 C1110 1.415 . S
C1110 H1086 0.950 . S
C1110 C1105 1.363 . S
C1110 C1109 1.415 . S
C1111 H1087 0.951 . S
C1111 C1112 1.366 . S
C1111 C1113 1.388 . S
C1112 C1111 1.366 . S
C1112 C1116 1.385 . S
C1113 H1088 0.951 . S
C1113 C1111 1.388 . S
C1113 C1114 1.366 . S
C1114 C1113 1.366 . S
C1114 C1115 1.414 . S
C1114 C1117 1.499 1_556 S
C1115 H1089 0.950 . S
C1115 C1114 1.414 . S
C1115 C1116 1.374 . S
C1116 H1090 0.950 . S
C1116 C1112 1.385 . S
C1116 C1115 1.374 . S
C1117 C1114 1.499 1_554 S
C1117 C1118 1.373 . S
C1117 C1119 1.389 . S
C1118 H1091 0.950 . S
C1118 C1104 1.377 . S
C1118 C1117 1.373 . S
C1119 C1103 1.377 . S
C1119 C1117 1.389 . S
C1119 C1120 1.524 . S
C1120 C1119 1.524 . S
C1120 C1121 1.397 . S
C1120 C1125 1.363 . S
C1121 H1092 0.950 . S
C1121 C1120 1.397 . S
C1121 C1122 1.334 1_554 S
C1122 H1093 0.950 . S
C1122 C1121 1.334 1_556 S
C1122 C1123 1.287 1_556 S
C1123 C1122 1.287 1_554 S
C1123 C1124 1.524 . S
C1123 H1126 0.999 1_554 S
C1124 H1094 0.950 . S
C1124 C1123 1.524 . S
C1124 C1125 1.415 . S
C1125 H1095 0.950 . S
C1125 C1120 1.363 . S
C1125 C1124 1.415 . S
H1126 C1123 0.999 1_556 S
H1127 C1108 0.913 . S
H1128 C1146 0.951 . S
H1129 C1148 0.951 . S
H1130 C1150 0.950 . S
H1131 C1151 0.950 . S
H1132 C1153 0.950 . S
H1133 C1156 0.950 . S
H1134 C1157 0.950 . S
H1135 C1159 0.950 . S
H1136 C1160 0.950 . S
H1137 C1161 0.951 . S
H1138 C1163 0.951 . S
H1139 C1165 0.950 . S
H1140 C1166 0.950 . S
H1141 C1168 0.950 . S
H1142 C1171 0.950 . S
H1143 C1172 0.950 . S
H1144 C1174 0.950 . S
H1145 C1175 0.950 . S
C1146 H1128 0.951 . S
C1146 C1147 1.366 . S
C1146 C1148 1.388 . S
C1147 C1146 1.366 . S
C1147 C1151 1.385 . S
C1148 H1129 0.951 . S
C1148 C1146 1.388 . S
C1148 C1149 1.366 . S
C1149 C1148 1.366 . S
C1149 C1150 1.414 . S
C1149 C1152 1.499 1_554 S
C1150 H1130 0.950 . S
C1150 C1149 1.414 . S
C1150 C1151 1.374 . S
C1151 H1131 0.950 . S
C1151 C1147 1.385 . S
C1151 C1150 1.374 . S
C1152 C1149 1.499 1_556 S
C1152 C1153 1.373 . S
C1152 C1154 1.389 . S
C1153 H1132 0.950 . S
C1153 C1152 1.373 . S
C1153 C1169 1.377 . S
C1154 C1152 1.389 . S
C1154 C1155 1.524 . S
C1154 C1168 1.377 . S
C1155 C1154 1.524 . S
C1155 C1156 1.397 1_556 S
C1155 C1160 1.363 . S
C1156 H1133 0.950 . S
C1156 C1155 1.397 1_554 S
C1156 C1157 1.334 . S
C1157 H1134 0.950 . S
C1157 C1156 1.334 . S
C1157 C1158 1.287 . S
C1158 C1157 1.287 . S
C1158 C1159 1.524 1_554 S
C1158 H1177 0.913 . S
C1159 H1135 0.950 . S
C1159 C1158 1.524 1_556 S
C1159 C1160 1.415 . S
C1160 H1136 0.950 . S
C1160 C1155 1.363 . S
C1160 C1159 1.415 . S
C1161 H1137 0.951 . S
C1161 C1162 1.366 . S
C1161 C1163 1.388 . S
C1162 C1161 1.366 . S
C1162 C1166 1.385 . S
C1163 H1138 0.951 . S
C1163 C1161 1.388 . S
C1163 C1164 1.366 . S
C1164 C1163 1.366 . S
C1164 C1165 1.414 . S
C1164 C1167 1.499 . S
C1165 H1139 0.950 . S
C1165 C1164 1.414 . S
C1165 C1166 1.374 . S
C1166 H1140 0.950 . S
C1166 C1162 1.385 . S
C1166 C1165 1.374 . S
C1167 C1164 1.499 . S
C1167 C1168 1.373 . S
C1167 C1169 1.389 . S
C1168 H1141 0.950 . S
C1168 C1154 1.377 . S
C1168 C1167 1.373 . S
C1169 C1153 1.377 . S
C1169 C1167 1.389 . S
C1169 C1170 1.524 . S
C1170 C1169 1.524 . S
C1170 C1171 1.397 . S
C1170 C1175 1.363 . S
C1171 H1142 0.950 . S
C1171 C1170 1.397 . S
C1171 C1172 1.334 . S
C1172 H1143 0.950 . S
C1172 C1171 1.334 . S
C1172 C1173 1.287 . S
C1173 C1172 1.287 . S
C1173 C1174 1.524 . S
C1173 H1176 0.999 . S
C1174 H1144 0.950 . S
C1174 C1173 1.524 . S
C1174 C1175 1.415 . S
C1175 H1145 0.950 . S
C1175 C1170 1.363 . S
C1175 C1174 1.415 . S
H1176 C1173 0.999 . S
H1177 C1158 0.913 . S
H1178 C1196 0.951 . S
H1179 C1198 0.951 . S
H1180 C1200 0.950 . S
H1181 C1201 0.950 . S
H1182 C1203 0.950 . S
H1183 C1206 0.950 1_554 S
H1184 C1207 0.950 . S
H1185 C1209 0.950 . S
H1186 C1210 0.950 . S
H1187 C1211 0.951 . S
H1188 C1213 0.951 . S
H1189 C1215 0.950 . S
H1190 C1216 0.950 . S
H1191 C1218 0.950 . S
H1192 C1221 0.950 . S
H1193 C1222 0.950 . S
H1194 C1224 0.950 . S
H1195 C1225 0.950 . S
C1196 H1178 0.951 . S
C1196 C1197 1.366 . S
C1196 C1198 1.388 . S
C1197 C1196 1.366 . S
C1197 C1201 1.385 . S
C1198 H1179 0.951 . S
C1198 C1196 1.388 . S
C1198 C1199 1.366 . S
C1199 C1198 1.366 . S
C1199 C1200 1.414 . S
C1199 C1202 1.499 1_554 S
C1200 H1180 0.950 . S
C1200 C1199 1.414 . S
C1200 C1201 1.374 . S
C1201 H1181 0.950 . S
C1201 C1197 1.385 . S
C1201 C1200 1.374 . S
C1202 C1199 1.499 1_556 S
C1202 C1203 1.373 . S
C1202 C1204 1.389 . S
C1203 H1182 0.950 . S
C1203 C1202 1.373 . S
C1203 C1219 1.377 . S
C1204 C1202 1.389 . S
C1204 C1205 1.524 . S
C1204 C1218 1.377 . S
C1205 C1204 1.524 . S
C1205 C1206 1.397 . S
C1205 C1210 1.363 . S
C1206 H1183 0.950 1_556 S
C1206 C1205 1.397 . S
C1206 C1207 1.334 1_556 S
C1207 H1184 0.950 . S
C1207 C1206 1.334 1_554 S
C1207 C1208 1.287 . S
C1208 C1207 1.287 . S
C1208 C1209 1.524 1_554 S
C1208 H1227 0.913 . S
C1209 H1185 0.950 . S
C1209 C1208 1.524 1_556 S
C1209 C1210 1.415 . S
C1210 H1186 0.950 . S
C1210 C1205 1.363 . S
C1210 C1209 1.415 . S
C1211 H1187 0.951 . S
C1211 C1212 1.366 . S
C1211 C1213 1.388 . S
C1212 C1211 1.366 . S
C1212 C1216 1.385 . S
C1213 H1188 0.951 . S
C1213 C1211 1.388 . S
C1213 C1214 1.366 . S
C1214 C1213 1.366 . S
C1214 C1215 1.414 . S
C1214 C1217 1.499 . S
C1215 H1189 0.950 . S
C1215 C1214 1.414 . S
C1215 C1216 1.374 . S
C1216 H1190 0.950 . S
C1216 C1212 1.385 . S
C1216 C1215 1.374 . S
C1217 C1214 1.499 . S
C1217 C1218 1.373 . S
C1217 C1219 1.389 . S
C1218 H1191 0.950 . S
C1218 C1204 1.377 . S
C1218 C1217 1.373 . S
C1219 C1203 1.377 . S
C1219 C1217 1.389 . S
C1219 C1220 1.524 . S
C1220 C1219 1.524 . S
C1220 C1221 1.397 . S
C1220 C1225 1.363 . S
C1221 H1192 0.950 . S
C1221 C1220 1.397 . S
C1221 C1222 1.334 . S
C1222 H1193 0.950 . S
C1222 C1221 1.334 . S
C1222 C1223 1.287 . S
C1223 C1222 1.287 . S
C1223 C1224 1.524 . S
C1223 H1226 0.999 . S
C1224 H1194 0.950 . S
C1224 C1223 1.524 . S
C1224 C1225 1.415 . S
C1225 H1195 0.950 . S
C1225 C1220 1.363 . S
C1225 C1224 1.415 . S
H1226 C1223 0.999 . S
H1227 C1208 0.913 . S
H1228 C1246 0.951 . S
H1229 C1248 0.951 . S
H1230 C1250 0.950 . S
H1231 C1251 0.950 . S
H1232 C1253 0.950 . S
H1233 C1256 0.950 1_554 S
H1234 C1257 0.950 . S
H1235 C1259 0.950 . S
H1236 C1260 0.950 . S
H1237 C1261 0.951 . S
H1238 C1263 0.951 . S
H1239 C1265 0.950 . S
H1240 C1266 0.950 . S
H1241 C1268 0.950 . S
H1242 C1271 0.950 . S
H1243 C1272 0.950 . S
H1244 C1274 0.950 . S
H1245 C1275 0.950 . S
C1246 H1228 0.951 . S
C1246 C1247 1.366 . S
C1246 C1248 1.388 . S
C1247 C1246 1.366 . S
C1247 C1251 1.385 . S
C1248 H1229 0.951 . S
C1248 C1246 1.388 . S
C1248 C1249 1.366 . S
C1249 C1248 1.366 . S
C1249 C1250 1.414 . S
C1249 C1252 1.499 1_554 S
C1250 H1230 0.950 . S
C1250 C1249 1.414 . S
C1250 C1251 1.374 . S
C1251 H1231 0.950 . S
C1251 C1247 1.385 . S
C1251 C1250 1.374 . S
C1252 C1249 1.499 1_556 S
C1252 C1253 1.373 . S
C1252 C1254 1.389 . S
C1253 H1232 0.950 . S
C1253 C1252 1.373 . S
C1253 C1269 1.377 . S
C1254 C1252 1.389 . S
C1254 C1255 1.524 . S
C1254 C1268 1.377 . S
C1255 C1254 1.524 . S
C1255 C1256 1.397 . S
C1255 C1260 1.363 . S
C1256 H1233 0.950 1_556 S
C1256 C1255 1.397 . S
C1256 C1257 1.334 1_556 S
C1257 H1234 0.950 . S
C1257 C1256 1.334 1_554 S
C1257 C1258 1.287 . S
C1258 C1257 1.287 . S
C1258 C1259 1.524 1_554 S
C1258 H1277 0.913 . S
C1259 H1235 0.950 . S
C1259 C1258 1.524 1_556 S
C1259 C1260 1.415 . S
C1260 H1236 0.950 . S
C1260 C1255 1.363 . S
C1260 C1259 1.415 . S
C1261 H1237 0.951 . S
C1261 C1262 1.366 . S
C1261 C1263 1.388 . S
C1262 C1261 1.366 . S
C1262 C1266 1.385 . S
C1263 H1238 0.951 . S
C1263 C1261 1.388 . S
C1263 C1264 1.366 . S
C1264 C1263 1.366 . S
C1264 C1265 1.414 . S
C1264 C1267 1.499 . S
C1265 H1239 0.950 . S
C1265 C1264 1.414 . S
C1265 C1266 1.374 . S
C1266 H1240 0.950 . S
C1266 C1262 1.385 . S
C1266 C1265 1.374 . S
C1267 C1264 1.499 . S
C1267 C1268 1.373 . S
C1267 C1269 1.389 . S
C1268 H1241 0.950 . S
C1268 C1254 1.377 . S
C1268 C1267 1.373 . S
C1269 C1253 1.377 . S
C1269 C1267 1.389 . S
C1269 C1270 1.524 . S
C1270 C1269 1.524 . S
C1270 C1271 1.397 . S
C1270 C1275 1.363 . S
C1271 H1242 0.950 . S
C1271 C1270 1.397 . S
C1271 C1272 1.334 . S
C1272 H1243 0.950 . S
C1272 C1271 1.334 . S
C1272 C1273 1.287 . S
C1273 C1272 1.287 . S
C1273 C1274 1.524 . S
C1273 H1276 0.999 . S
C1274 H1244 0.950 . S
C1274 C1273 1.524 . S
C1274 C1275 1.415 . S
C1275 H1245 0.950 . S
C1275 C1270 1.363 . S
C1275 C1274 1.415 . S
H1276 C1273 0.999 . S
H1277 C1258 0.913 . S
H1278 C1296 0.951 . S
H1279 C1298 0.951 . S
H1280 C1300 0.950 . S
H1281 C1301 0.950 . S
H1282 C1303 0.950 . S
H1283 C1306 0.950 . S
H1284 C1307 0.950 . S
H1285 C1309 0.950 . S
H1286 C1310 0.950 . S
H1287 C1311 0.951 . S
H1288 C1313 0.951 . S
H1289 C1315 0.950 . S
H1290 C1316 0.950 . S
H1291 C1318 0.950 . S
H1292 C1321 0.950 . S
H1293 C1322 0.950 . S
H1294 C1324 0.950 . S
H1295 C1325 0.950 . S
C1296 H1278 0.951 . S
C1296 C1297 1.366 . S
C1296 C1298 1.388 . S
C1297 C1296 1.366 . S
C1297 C1301 1.385 . S
C1298 H1279 0.951 . S
C1298 C1296 1.388 . S
C1298 C1299 1.366 . S
C1299 C1298 1.366 . S
C1299 C1300 1.414 . S
C1299 C1302 1.499 1_554 S
C1300 H1280 0.950 . S
C1300 C1299 1.414 . S
C1300 C1301 1.374 . S
C1301 H1281 0.950 . S
C1301 C1297 1.385 . S
C1301 C1300 1.374 . S
C1302 C1299 1.499 1_556 S
C1302 C1303 1.373 . S
C1302 C1304 1.389 . S
C1303 H1282 0.950 . S
C1303 C1302 1.373 . S
C1303 C1319 1.377 . S
C1304 C1302 1.389 . S
C1304 C1305 1.524 . S
C1304 C1318 1.377 . S
C1305 C1304 1.524 . S
C1305 C1306 1.397 . S
C1305 C1310 1.363 . S
C1306 H1283 0.950 . S
C1306 C1305 1.397 . S
C1306 C1307 1.334 1_556 S
C1307 H1284 0.950 . S
C1307 C1306 1.334 1_554 S
C1307 C1308 1.287 1_554 S
C1308 C1307 1.287 1_556 S
C1308 C1309 1.524 . S
C1308 H1327 0.913 1_556 S
C1309 H1285 0.950 . S
C1309 C1308 1.524 . S
C1309 C1310 1.415 . S
C1310 H1286 0.950 . S
C1310 C1305 1.363 . S
C1310 C1309 1.415 . S
C1311 H1287 0.951 . S
C1311 C1312 1.366 . S
C1311 C1313 1.388 . S
C1312 C1311 1.366 . S
C1312 C1316 1.385 . S
C1313 H1288 0.951 . S
C1313 C1311 1.388 . S
C1313 C1314 1.366 . S
C1314 C1313 1.366 . S
C1314 C1315 1.414 . S
C1314 C1317 1.499 . S
C1315 H1289 0.950 . S
C1315 C1314 1.414 . S
C1315 C1316 1.374 . S
C1316 H1290 0.950 . S
C1316 C1312 1.385 . S
C1316 C1315 1.374 . S
C1317 C1314 1.499 . S
C1317 C1318 1.373 . S
C1317 C1319 1.389 . S
C1318 H1291 0.950 . S
C1318 C1304 1.377 . S
C1318 C1317 1.373 . S
C1319 C1303 1.377 . S
C1319 C1317 1.389 . S
C1319 C1320 1.524 . S
C1320 C1319 1.524 . S
C1320 C1321 1.397 . S
C1320 C1325 1.363 . S
C1321 H1292 0.950 . S
C1321 C1320 1.397 . S
C1321 C1322 1.334 . S
C1322 H1293 0.950 . S
C1322 C1321 1.334 . S
C1322 C1323 1.287 . S
C1323 C1322 1.287 . S
C1323 C1324 1.524 . S
C1323 H1326 0.999 . S
C1324 H1294 0.950 . S
C1324 C1323 1.524 . S
C1324 C1325 1.415 . S
C1325 H1295 0.950 . S
C1325 C1320 1.363 . S
C1325 C1324 1.415 . S
H1326 C1323 0.999 . S
H1327 C1308 0.913 1_554 S
H1328 C1346 0.951 . S
H1329 C1348 0.951 . S
H1330 C1350 0.950 . S
H1331 C1351 0.950 . S
H1332 C1353 0.950 . S
H1333 C1356 0.950 . S
H1334 C1357 0.950 . S
H1335 C1359 0.950 . S
H1336 C1360 0.950 . S
H1337 C1361 0.951 . S
H1338 C1363 0.951 . S
H1339 C1365 0.950 . S
H1340 C1366 0.950 . S
H1341 C1368 0.950 . S
H1342 C1371 0.950 . S
H1343 C1372 0.950 . S
H1344 C1374 0.950 . S
H1345 C1375 0.950 . S
C1346 H1328 0.951 . S
C1346 C1347 1.366 . S
C1346 C1348 1.388 . S
C1347 C1346 1.366 . S
C1347 C1351 1.385 . S
C1348 H1329 0.951 . S
C1348 C1346 1.388 . S
C1348 C1349 1.366 . S
C1349 C1348 1.366 . S
C1349 C1350 1.414 . S
C1349 C1352 1.499 . S
C1350 H1330 0.950 . S
C1350 C1349 1.414 . S
C1350 C1351 1.374 . S
C1351 H1331 0.950 . S
C1351 C1347 1.385 . S
C1351 C1350 1.374 . S
C1352 C1349 1.499 . S
C1352 C1353 1.373 . S
C1352 C1354 1.389 . S
C1353 H1332 0.950 . S
C1353 C1352 1.373 . S
C1353 C1369 1.377 . S
C1354 C1352 1.389 . S
C1354 C1355 1.524 . S
C1354 C1368 1.377 . S
C1355 C1354 1.524 . S
C1355 C1356 1.397 . S
C1355 C1360 1.363 . S
C1356 H1333 0.950 . S
C1356 C1355 1.397 . S
C1356 C1357 1.334 . S
C1357 H1334 0.950 . S
C1357 C1356 1.334 . S
C1357 C1358 1.287 . S
C1358 C1357 1.287 . S
C1358 C1359 1.524 . S
C1358 H1377 0.913 . S
C1359 H1335 0.950 . S
C1359 C1358 1.524 . S
C1359 C1360 1.415 . S
C1360 H1336 0.950 . S
C1360 C1355 1.363 . S
C1360 C1359 1.415 . S
C1361 H1337 0.951 . S
C1361 C1362 1.366 . S
C1361 C1363 1.388 . S
C1362 C1361 1.366 . S
C1362 C1366 1.385 . S
C1363 H1338 0.951 . S
C1363 C1361 1.388 . S
C1363 C1364 1.366 . S
C1364 C1363 1.366 . S
C1364 C1365 1.414 . S
C1364 C1367 1.499 . S
C1365 H1339 0.950 . S
C1365 C1364 1.414 . S
C1365 C1366 1.374 . S
C1366 H1340 0.950 . S
C1366 C1362 1.385 . S
C1366 C1365 1.374 . S
C1367 C1364 1.499 . S
C1367 C1368 1.373 . S
C1367 C1369 1.389 . S
C1368 H1341 0.950 . S
C1368 C1354 1.377 . S
C1368 C1367 1.373 . S
C1369 C1353 1.377 . S
C1369 C1367 1.389 . S
C1369 C1370 1.524 . S
C1370 C1369 1.524 . S
C1370 C1371 1.397 . S
C1370 C1375 1.363 . S
C1371 H1342 0.950 . S
C1371 C1370 1.397 . S
C1371 C1372 1.334 . S
C1372 H1343 0.950 . S
C1372 C1371 1.334 . S
C1372 C1373 1.287 . S
C1373 C1372 1.287 . S
C1373 C1374 1.524 . S
C1373 H1376 0.999 . S
C1374 H1344 0.950 . S
C1374 C1373 1.524 . S
C1374 C1375 1.415 . S
C1375 H1345 0.950 . S
C1375 C1370 1.363 . S
C1375 C1374 1.415 . S
H1376 C1373 0.999 . S
H1377 C1358 0.913 . S
H1378 C1396 0.951 . S
H1379 C1398 0.951 . S
H1380 C1400 0.950 . S
H1381 C1401 0.950 . S
H1382 C1403 0.950 . S
H1383 C1406 0.950 . S
H1384 C1407 0.950 . S
H1385 C1409 0.950 . S
H1386 C1410 0.950 . S
H1387 C1411 0.951 . S
H1388 C1413 0.951 . S
H1389 C1415 0.950 . S
H1390 C1416 0.950 . S
H1391 C1418 0.950 . S
H1392 C1421 0.950 . S
H1393 C1422 0.950 . S
H1394 C1424 0.950 . S
H1395 C1425 0.950 . S
C1396 H1378 0.951 . S
C1396 C1397 1.366 . S
C1396 C1398 1.388 . S
C1397 C1396 1.366 . S
C1397 C1401 1.385 . S
C1398 H1379 0.951 . S
C1398 C1396 1.388 . S
C1398 C1399 1.366 . S
C1399 C1398 1.366 . S
C1399 C1400 1.414 . S
C1399 C1402 1.499 . S
C1400 H1380 0.950 . S
C1400 C1399 1.414 . S
C1400 C1401 1.374 . S
C1401 H1381 0.950 . S
C1401 C1397 1.385 . S
C1401 C1400 1.374 . S
C1402 C1399 1.499 . S
C1402 C1403 1.373 . S
C1402 C1404 1.389 . S
C1403 H1382 0.950 . S
C1403 C1402 1.373 . S
C1403 C1419 1.377 . S
C1404 C1402 1.389 . S
C1404 C1405 1.524 . S
C1404 C1418 1.377 . S
C1405 C1404 1.524 . S
C1405 C1406 1.397 . S
C1405 C1410 1.363 . S
C1406 H1383 0.950 . S
C1406 C1405 1.397 . S
C1406 C1407 1.334 . S
C1407 H1384 0.950 . S
C1407 C1406 1.334 . S
C1407 C1408 1.287 . S
C1408 C1407 1.287 . S
C1408 C1409 1.524 . S
C1408 H1427 0.913 . S
C1409 H1385 0.950 . S
C1409 C1408 1.524 . S
C1409 C1410 1.415 . S
C1410 H1386 0.950 . S
C1410 C1405 1.363 . S
C1410 C1409 1.415 . S
C1411 H1387 0.951 . S
C1411 C1412 1.366 . S
C1411 C1413 1.388 . S
C1412 C1411 1.366 . S
C1412 C1416 1.385 . S
C1413 H1388 0.951 . S
C1413 C1411 1.388 . S
C1413 C1414 1.366 . S
C1414 C1413 1.366 . S
C1414 C1415 1.414 . S
C1414 C1417 1.499 . S
C1415 H1389 0.950 . S
C1415 C1414 1.414 . S
C1415 C1416 1.374 . S
C1416 H1390 0.950 . S
C1416 C1412 1.385 . S
C1416 C1415 1.374 . S
C1417 C1414 1.499 . S
C1417 C1418 1.373 . S
C1417 C1419 1.389 . S
C1418 H1391 0.950 . S
C1418 C1404 1.377 . S
C1418 C1417 1.373 . S
C1419 C1403 1.377 . S
C1419 C1417 1.389 . S
C1419 C1420 1.524 . S
C1420 C1419 1.524 . S
C1420 C1421 1.397 . S
C1420 C1425 1.363 . S
C1421 H1392 0.950 . S
C1421 C1420 1.397 . S
C1421 C1422 1.334 . S
C1422 H1393 0.950 . S
C1422 C1421 1.334 . S
C1422 C1423 1.287 . S
C1423 C1422 1.287 . S
C1423 C1424 1.524 . S
C1423 H1426 0.999 . S
C1424 H1394 0.950 . S
C1424 C1423 1.524 . S
C1424 C1425 1.415 . S
C1425 H1395 0.950 . S
C1425 C1420 1.363 . S
C1425 C1424 1.415 . S
H1426 C1423 0.999 . S
H1427 C1408 0.913 . S
H1428 C1446 0.951 . S
H1429 C1448 0.951 . S
H1430 C1450 0.950 . S
H1431 C1451 0.950 . S
H1432 C1453 0.950 . S
H1433 C1456 0.950 . S
H1434 C1457 0.950 . S
H1435 C1459 0.950 . S
H1436 C1460 0.950 . S
H1437 C1461 0.951 . S
H1438 C1463 0.951 . S
H1439 C1465 0.950 . S
H1440 C1466 0.950 . S
H1441 C1468 0.950 . S
H1442 C1471 0.950 . S
H1443 C1472 0.950 . S
H1444 C1474 0.950 . S
H1445 C1475 0.950 . S
C1446 H1428 0.951 . S
C1446 C1447 1.366 . S
C1446 C1448 1.388 . S
C1447 C1446 1.366 . S
C1447 C1451 1.385 . S
C1448 H1429 0.951 . S
C1448 C1446 1.388 . S
C1448 C1449 1.366 . S
C1449 C1448 1.366 . S
C1449 C1450 1.414 . S
C1449 C1452 1.499 . S
C1450 H1430 0.950 . S
C1450 C1449 1.414 . S
C1450 C1451 1.374 . S
C1451 H1431 0.950 . S
C1451 C1447 1.385 . S
C1451 C1450 1.374 . S
C1452 C1449 1.499 . S
C1452 C1453 1.373 . S
C1452 C1454 1.389 . S
C1453 H1432 0.950 . S
C1453 C1452 1.373 . S
C1453 C1469 1.377 . S
C1454 C1452 1.389 . S
C1454 C1455 1.524 . S
C1454 C1468 1.377 . S
C1455 C1454 1.524 . S
C1455 C1456 1.397 . S
C1455 C1460 1.363 . S
C1456 H1433 0.950 . S
C1456 C1455 1.397 . S
C1456 C1457 1.334 . S
C1457 H1434 0.950 . S
C1457 C1456 1.334 . S
C1457 C1458 1.287 . S
C1458 C1457 1.287 . S
C1458 C1459 1.524 . S
C1458 H1477 0.913 . S
C1459 H1435 0.950 . S
C1459 C1458 1.524 . S
C1459 C1460 1.415 . S
C1460 H1436 0.950 . S
C1460 C1455 1.363 . S
C1460 C1459 1.415 . S
C1461 H1437 0.951 . S
C1461 C1462 1.366 . S
C1461 C1463 1.388 . S
C1462 C1461 1.366 . S
C1462 C1466 1.385 . S
C1463 H1438 0.951 . S
C1463 C1461 1.388 . S
C1463 C1464 1.366 . S
C1464 C1463 1.366 . S
C1464 C1465 1.414 . S
C1464 C1467 1.499 . S
C1465 H1439 0.950 . S
C1465 C1464 1.414 . S
C1465 C1466 1.374 . S
C1466 H1440 0.950 . S
C1466 C1462 1.385 . S
C1466 C1465 1.374 . S
C1467 C1464 1.499 . S
C1467 C1468 1.373 . S
C1467 C1469 1.389 . S
C1468 H1441 0.950 . S
C1468 C1454 1.377 . S
C1468 C1467 1.373 . S
C1469 C1453 1.377 . S
C1469 C1467 1.389 . S
C1469 C1470 1.524 . S
C1470 C1469 1.524 . S
C1470 C1471 1.397 . S
C1470 C1475 1.363 . S
C1471 H1442 0.950 . S
C1471 C1470 1.397 . S
C1471 C1472 1.334 . S
C1472 H1443 0.950 . S
C1472 C1471 1.334 . S
C1472 C1473 1.287 . S
C1473 C1472 1.287 . S
C1473 C1474 1.524 . S
C1473 H1476 0.999 . S
C1474 H1444 0.950 . S
C1474 C1473 1.524 . S
C1474 C1475 1.415 . S
C1475 H1445 0.950 . S
C1475 C1470 1.363 . S
C1475 C1474 1.415 . S
H1476 C1473 0.999 . S
H1477 C1458 0.913 . S
H1478 C1496 0.951 . S
H1479 C1498 0.951 . S
H1480 C1500 0.950 . S
H1481 C1501 0.950 . S
H1482 C1503 0.950 . S
H1483 C1506 0.950 . S
H1484 C1507 0.950 . S
H1485 C1509 0.950 . S
H1486 C1510 0.950 . S
H1487 C1511 0.951 . S
H1488 C1513 0.951 . S
H1489 C1515 0.950 . S
H1490 C1516 0.950 . S
H1491 C1518 0.950 . S
H1492 C1521 0.950 . S
H1493 C1522 0.950 . S
H1494 C1524 0.950 . S
H1495 C1525 0.950 . S
C1496 H1478 0.951 . S
C1496 C1497 1.366 . S
C1496 C1498 1.388 . S
C1497 C1496 1.366 . S
C1497 C1501 1.385 . S
C1498 H1479 0.951 . S
C1498 C1496 1.388 . S
C1498 C1499 1.366 . S
C1499 C1498 1.366 . S
C1499 C1500 1.414 . S
C1499 C1502 1.499 . S
C1500 H1480 0.950 . S
C1500 C1499 1.414 . S
C1500 C1501 1.374 . S
C1501 H1481 0.950 . S
C1501 C1497 1.385 . S
C1501 C1500 1.374 . S
C1502 C1499 1.499 . S
C1502 C1503 1.373 . S
C1502 C1504 1.389 . S
C1503 H1482 0.950 . S
C1503 C1502 1.373 . S
C1503 C1519 1.377 . S
C1504 C1502 1.389 . S
C1504 C1505 1.524 . S
C1504 C1518 1.377 . S
C1505 C1504 1.524 . S
C1505 C1506 1.397 . S
C1505 C1510 1.363 . S
C1506 H1483 0.950 . S
C1506 C1505 1.397 . S
C1506 C1507 1.334 . S
C1507 H1484 0.950 . S
C1507 C1506 1.334 . S
C1507 C1508 1.287 . S
C1508 C1507 1.287 . S
C1508 C1509 1.524 . S
C1508 H1527 0.913 . S
C1509 H1485 0.950 . S
C1509 C1508 1.524 . S
C1509 C1510 1.415 . S
C1510 H1486 0.950 . S
C1510 C1505 1.363 . S
C1510 C1509 1.415 . S
C1511 H1487 0.951 . S
C1511 C1512 1.366 . S
C1511 C1513 1.388 . S
C1512 C1511 1.366 . S
C1512 C1516 1.385 . S
C1513 H1488 0.951 . S
C1513 C1511 1.388 . S
C1513 C1514 1.366 . S
C1514 C1513 1.366 . S
C1514 C1515 1.414 . S
C1514 C1517 1.499 . S
C1515 H1489 0.950 . S
C1515 C1514 1.414 . S
C1515 C1516 1.374 . S
C1516 H1490 0.950 . S
C1516 C1512 1.385 . S
C1516 C1515 1.374 . S
C1517 C1514 1.499 . S
C1517 C1518 1.373 . S
C1517 C1519 1.389 . S
C1518 H1491 0.950 . S
C1518 C1504 1.377 . S
C1518 C1517 1.373 . S
C1519 C1503 1.377 . S
C1519 C1517 1.389 . S
C1519 C1520 1.524 . S
C1520 C1519 1.524 . S
C1520 C1521 1.397 . S
C1520 C1525 1.363 . S
C1521 H1492 0.950 . S
C1521 C1520 1.397 . S
C1521 C1522 1.334 . S
C1522 H1493 0.950 . S
C1522 C1521 1.334 . S
C1522 C1523 1.287 . S
C1523 C1522 1.287 . S
C1523 C1524 1.524 . S
C1523 H1526 0.999 . S
C1524 H1494 0.950 . S
C1524 C1523 1.524 . S
C1524 C1525 1.415 . S
C1525 H1495 0.950 . S
C1525 C1520 1.363 . S
C1525 C1524 1.415 . S
H1526 C1523 0.999 . S
H1527 C1508 0.913 . S
H1528 C1546 0.951 . S
H1529 C1548 0.951 . S
H1530 C1550 0.950 . S
H1531 C1551 0.950 . S
H1532 C1553 0.950 . S
H1533 C1556 0.950 . S
H1534 C1557 0.950 . S
H1535 C1559 0.950 . S
H1536 C1560 0.950 . S
H1537 C1561 0.951 . S
H1538 C1563 0.951 . S
H1539 C1565 0.950 . S
H1540 C1566 0.950 . S
H1541 C1568 0.950 . S
H1542 C1571 0.950 . S
H1543 C1572 0.950 . S
H1544 C1574 0.950 . S
H1545 C1575 0.950 . S
C1546 H1528 0.951 . S
C1546 C1547 1.366 . S
C1546 C1548 1.388 . S
C1547 C1546 1.366 . S
C1547 C1551 1.385 . S
C1548 H1529 0.951 . S
C1548 C1546 1.388 . S
C1548 C1549 1.366 . S
C1549 C1548 1.366 . S
C1549 C1550 1.414 . S
C1549 C1552 1.499 . S
C1550 H1530 0.950 . S
C1550 C1549 1.414 . S
C1550 C1551 1.374 . S
C1551 H1531 0.950 . S
C1551 C1547 1.385 . S
C1551 C1550 1.374 . S
C1552 C1549 1.499 . S
C1552 C1553 1.373 . S
C1552 C1554 1.389 . S
C1553 H1532 0.950 . S
C1553 C1552 1.373 . S
C1553 C1569 1.377 . S
C1554 C1552 1.389 . S
C1554 C1555 1.524 . S
C1554 C1568 1.377 . S
C1555 C1554 1.524 . S
C1555 C1556 1.397 . S
C1555 C1560 1.363 . S
C1556 H1533 0.950 . S
C1556 C1555 1.397 . S
C1556 C1557 1.334 . S
C1557 H1534 0.950 . S
C1557 C1556 1.334 . S
C1557 C1558 1.287 . S
C1558 C1557 1.287 . S
C1558 C1559 1.524 . S
C1558 H1577 0.913 . S
C1559 H1535 0.950 . S
C1559 C1558 1.524 . S
C1559 C1560 1.415 . S
C1560 H1536 0.950 . S
C1560 C1555 1.363 . S
C1560 C1559 1.415 . S
C1561 H1537 0.951 . S
C1561 C1562 1.366 . S
C1561 C1563 1.388 . S
C1562 C1561 1.366 . S
C1562 C1566 1.385 . S
C1563 H1538 0.951 . S
C1563 C1561 1.388 . S
C1563 C1564 1.366 . S
C1564 C1563 1.366 . S
C1564 C1565 1.414 . S
C1564 C1567 1.499 . S
C1565 H1539 0.950 . S
C1565 C1564 1.414 . S
C1565 C1566 1.374 . S
C1566 H1540 0.950 . S
C1566 C1562 1.385 . S
C1566 C1565 1.374 . S
C1567 C1564 1.499 . S
C1567 C1568 1.373 . S
C1567 C1569 1.389 . S
C1568 H1541 0.950 . S
C1568 C1554 1.377 . S
C1568 C1567 1.373 . S
C1569 C1553 1.377 . S
C1569 C1567 1.389 . S
C1569 C1570 1.524 . S
C1570 C1569 1.524 . S
C1570 C1571 1.397 . S
C1570 C1575 1.363 . S
C1571 H1542 0.950 . S
C1571 C1570 1.397 . S
C1571 C1572 1.334 . S
C1572 H1543 0.950 . S
C1572 C1571 1.334 . S
C1572 C1573 1.287 . S
C1573 C1572 1.287 . S
C1573 C1574 1.524 . S
C1573 H1576 0.999 . S
C1574 H1544 0.950 . S
C1574 C1573 1.524 . S
C1574 C1575 1.415 . S
C1575 H1545 0.950 . S
C1575 C1570 1.363 . S
C1575 C1574 1.415 . S
H1576 C1573 0.999 . S
H1577 C1558 0.913 . S
H1578 C1596 0.951 . S
H1579 C1598 0.951 . S
H1580 C1600 0.950 . S
H1581 C1601 0.950 . S
H1582 C1603 0.950 . S
H1583 C1606 0.950 . S
H1584 C1607 0.950 . S
H1585 C1609 0.950 . S
H1586 C1610 0.950 . S
H1587 C1611 0.951 . S
H1588 C1613 0.951 . S
H1589 C1615 0.950 . S
H1590 C1616 0.950 . S
H1591 C1618 0.950 . S
H1592 C1621 0.950 . S
H1593 C1622 0.950 . S
H1594 C1624 0.950 . S
H1595 C1625 0.950 . S
C1596 H1578 0.951 . S
C1596 C1597 1.366 . S
C1596 C1598 1.388 . S
C1597 C1596 1.366 . S
C1597 C1601 1.385 . S
C1598 H1579 0.951 . S
C1598 C1596 1.388 . S
C1598 C1599 1.366 . S
C1599 C1598 1.366 . S
C1599 C1600 1.414 . S
C1599 C1602 1.499 . S
C1600 H1580 0.950 . S
C1600 C1599 1.414 . S
C1600 C1601 1.374 . S
C1601 H1581 0.950 . S
C1601 C1597 1.385 . S
C1601 C1600 1.374 . S
C1602 C1599 1.499 . S
C1602 C1603 1.373 . S
C1602 C1604 1.389 . S
C1603 H1582 0.950 . S
C1603 C1602 1.373 . S
C1603 C1619 1.377 . S
C1604 C1602 1.389 . S
C1604 C1605 1.524 . S
C1604 C1618 1.377 . S
C1605 C1604 1.524 . S
C1605 C1606 1.397 . S
C1605 C1610 1.363 . S
C1606 H1583 0.950 . S
C1606 C1605 1.397 . S
C1606 C1607 1.334 . S
C1607 H1584 0.950 . S
C1607 C1606 1.334 . S
C1607 C1608 1.287 . S
C1608 C1607 1.287 . S
C1608 C1609 1.524 . S
C1608 H1627 0.913 . S
C1609 H1585 0.950 . S
C1609 C1608 1.524 . S
C1609 C1610 1.415 . S
C1610 H1586 0.950 . S
C1610 C1605 1.363 . S
C1610 C1609 1.415 . S
C1611 H1587 0.951 . S
C1611 C1612 1.366 . S
C1611 C1613 1.388 . S
C1612 C1611 1.366 . S
C1612 C1616 1.385 . S
C1613 H1588 0.951 . S
C1613 C1611 1.388 . S
C1613 C1614 1.366 . S
C1614 C1613 1.366 . S
C1614 C1615 1.414 . S
C1614 C1617 1.499 . S
C1615 H1589 0.950 . S
C1615 C1614 1.414 . S
C1615 C1616 1.374 . S
C1616 H1590 0.950 . S
C1616 C1612 1.385 . S
C1616 C1615 1.374 . S
C1617 C1614 1.499 . S
C1617 C1618 1.373 . S
C1617 C1619 1.389 . S
C1618 H1591 0.950 . S
C1618 C1604 1.377 . S
C1618 C1617 1.373 . S
C1619 C1603 1.377 . S
C1619 C1617 1.389 . S
C1619 C1620 1.524 . S
C1620 C1619 1.524 . S
C1620 C1621 1.397 . S
C1620 C1625 1.363 . S
C1621 H1592 0.950 . S
C1621 C1620 1.397 . S
C1621 C1622 1.334 . S
C1622 H1593 0.950 . S
C1622 C1621 1.334 . S
C1622 C1623 1.287 . S
C1623 C1622 1.287 . S
C1623 C1624 1.524 . S
C1623 H1626 0.999 . S
C1624 H1594 0.950 . S
C1624 C1623 1.524 . S
C1624 C1625 1.415 . S
C1625 H1595 0.950 . S
C1625 C1620 1.363 . S
C1625 C1624 1.415 . S
H1626 C1623 0.999 . S
H1627 C1608 0.913 . S
H1628 C1646 0.951 . S
H1629 C1648 0.951 . S
H1630 C1650 0.950 . S
H1631 C1651 0.950 . S
H1632 C1653 0.950 . S
H1633 C1656 0.950 . S
H1634 C1657 0.950 . S
H1635 C1659 0.950 . S
H1636 C1660 0.950 . S
H1637 C1661 0.951 . S
H1638 C1663 0.951 . S
H1639 C1665 0.950 . S
H1640 C1666 0.950 . S
H1641 C1668 0.950 . S
H1642 C1671 0.950 . S
H1643 C1672 0.950 . S
H1644 C1674 0.950 . S
H1645 C1675 0.950 . S
C1646 H1628 0.951 . S
C1646 C1647 1.366 . S
C1646 C1648 1.388 . S
C1647 C1646 1.366 . S
C1647 C1651 1.385 . S
C1648 H1629 0.951 . S
C1648 C1646 1.388 . S
C1648 C1649 1.366 . S
C1649 C1648 1.366 . S
C1649 C1650 1.414 . S
C1649 C1652 1.499 . S
C1650 H1630 0.950 . S
C1650 C1649 1.414 . S
C1650 C1651 1.374 . S
C1651 H1631 0.950 . S
C1651 C1647 1.385 . S
C1651 C1650 1.374 . S
C1652 C1649 1.499 . S
C1652 C1653 1.373 . S
C1652 C1654 1.389 . S
C1653 H1632 0.950 . S
C1653 C1652 1.373 . S
C1653 C1669 1.377 . S
C1654 C1652 1.389 . S
C1654 C1655 1.524 . S
C1654 C1668 1.377 . S
C1655 C1654 1.524 . S
C1655 C1656 1.397 . S
C1655 C1660 1.363 . S
C1656 H1633 0.950 . S
C1656 C1655 1.397 . S
C1656 C1657 1.334 . S
C1657 H1634 0.950 . S
C1657 C1656 1.334 . S
C1657 C1658 1.287 . S
C1658 C1657 1.287 . S
C1658 C1659 1.524 . S
C1658 H1677 0.913 . S
C1659 H1635 0.950 . S
C1659 C1658 1.524 . S
C1659 C1660 1.415 . S
C1660 H1636 0.950 . S
C1660 C1655 1.363 . S
C1660 C1659 1.415 . S
C1661 H1637 0.951 . S
C1661 C1662 1.366 . S
C1661 C1663 1.388 . S
C1662 C1661 1.366 . S
C1662 C1666 1.385 . S
C1663 H1638 0.951 . S
C1663 C1661 1.388 . S
C1663 C1664 1.366 . S
C1664 C1663 1.366 . S
C1664 C1665 1.414 . S
C1664 C1667 1.499 . S
C1665 H1639 0.950 . S
C1665 C1664 1.414 . S
C1665 C1666 1.374 . S
C1666 H1640 0.950 . S
C1666 C1662 1.385 . S
C1666 C1665 1.374 . S
C1667 C1664 1.499 . S
C1667 C1668 1.373 . S
C1667 C1669 1.389 . S
C1668 H1641 0.950 . S
C1668 C1654 1.377 . S
C1668 C1667 1.373 . S
C1669 C1653 1.377 . S
C1669 C1667 1.389 . S
C1669 C1670 1.524 . S
C1670 C1669 1.524 . S
C1670 C1671 1.397 . S
C1670 C1675 1.363 . S
C1671 H1642 0.950 . S
C1671 C1670 1.397 . S
C1671 C1672 1.334 . S
C1672 H1643 0.950 . S
C1672 C1671 1.334 . S
C1672 C1673 1.287 . S
C1673 C1672 1.287 . S
C1673 C1674 1.524 . S
C1673 H1676 0.999 . S
C1674 H1644 0.950 . S
C1674 C1673 1.524 . S
C1674 C1675 1.415 . S
C1675 H1645 0.950 . S
C1675 C1670 1.363 . S
C1675 C1674 1.415 . S
H1676 C1673 0.999 . S
H1677 C1658 0.913 . S
H1678 C1696 0.951 . S
H1679 C1698 0.951 . S
H1680 C1700 0.950 . S
H1681 C1701 0.950 . S
H1682 C1703 0.950 . S
H1683 C1706 0.950 . S
H1684 C1707 0.950 . S
H1685 C1709 0.950 . S
H1686 C1710 0.950 . S
H1687 C1711 0.951 . S
H1688 C1713 0.951 . S
H1689 C1715 0.950 . S
H1690 C1716 0.950 . S
H1691 C1718 0.950 . S
H1692 C1721 0.950 . S
H1693 C1722 0.950 . S
H1694 C1724 0.950 . S
H1695 C1725 0.950 . S
C1696 H1678 0.951 . S
C1696 C1697 1.366 . S
C1696 C1698 1.388 . S
C1697 C1696 1.366 . S
C1697 C1701 1.385 . S
C1698 H1679 0.951 . S
C1698 C1696 1.388 . S
C1698 C1699 1.366 . S
C1699 C1698 1.366 . S
C1699 C1700 1.414 . S
C1699 C1702 1.499 . S
C1700 H1680 0.950 . S
C1700 C1699 1.414 . S
C1700 C1701 1.374 . S
C1701 H1681 0.950 . S
C1701 C1697 1.385 . S
C1701 C1700 1.374 . S
C1702 C1699 1.499 . S
C1702 C1703 1.373 . S
C1702 C1704 1.389 . S
C1703 H1682 0.950 . S
C1703 C1702 1.373 . S
C1703 C1719 1.377 . S
C1704 C1702 1.389 . S
C1704 C1705 1.524 . S
C1704 C1718 1.377 . S
C1705 C1704 1.524 . S
C1705 C1706 1.397 . S
C1705 C1710 1.363 . S
C1706 H1683 0.950 . S
C1706 C1705 1.397 . S
C1706 C1707 1.334 . S
C1707 H1684 0.950 . S
C1707 C1706 1.334 . S
C1707 C1708 1.287 . S
C1708 C1707 1.287 . S
C1708 C1709 1.524 . S
C1708 H1727 0.913 . S
C1709 H1685 0.950 . S
C1709 C1708 1.524 . S
C1709 C1710 1.415 . S
C1710 H1686 0.950 . S
C1710 C1705 1.363 . S
C1710 C1709 1.415 . S
C1711 H1687 0.951 . S
C1711 C1712 1.366 . S
C1711 C1713 1.388 . S
C1712 C1711 1.366 . S
C1712 C1716 1.385 . S
C1713 H1688 0.951 . S
C1713 C1711 1.388 . S
C1713 C1714 1.366 . S
C1714 C1713 1.366 . S
C1714 C1715 1.414 . S
C1714 C1717 1.499 . S
C1715 H1689 0.950 . S
C1715 C1714 1.414 . S
C1715 C1716 1.374 . S
C1716 H1690 0.950 . S
C1716 C1712 1.385 . S
C1716 C1715 1.374 . S
C1717 C1714 1.499 . S
C1717 C1718 1.373 . S
C1717 C1719 1.389 . S
C1718 H1691 0.950 . S
C1718 C1704 1.377 . S
C1718 C1717 1.373 . S
C1719 C1703 1.377 . S
C1719 C1717 1.389 . S
C1719 C1720 1.524 . S
C1720 C1719 1.524 . S
C1720 C1721 1.397 . S
C1720 C1725 1.363 . S
C1721 H1692 0.950 . S
C1721 C1720 1.397 . S
C1721 C1722 1.334 . S
C1722 H1693 0.950 . S
C1722 C1721 1.334 . S
C1722 C1723 1.287 . S
C1723 C1722 1.287 . S
C1723 C1724 1.524 . S
C1723 H1726 0.999 . S
C1724 H1694 0.950 . S
C1724 C1723 1.524 . S
C1724 C1725 1.415 . S
C1725 H1695 0.950 . S
C1725 C1720 1.363 . S
C1725 C1724 1.415 . S
H1726 C1723 0.999 . S
H1727 C1708 0.913 . S
H1728 C1746 0.951 1_556 S
H1729 C1748 0.951 . S
H1730 C1750 0.950 . S
H1731 C1751 0.950 . S
H1732 C1753 0.950 . S
H1733 C1756 0.950 . S
H1734 C1757 0.950 . S
H1735 C1759 0.950 . S
H1736 C1760 0.950 . S
H1737 C1761 0.951 1_554 S
H1738 C1763 0.951 . S
H1739 C1765 0.950 . S
H1740 C1766 0.950 . S
H1741 C1768 0.950 . S
H1742 C1771 0.950 . S
H1743 C1772 0.950 . S
H1744 C1774 0.950 . S
H1745 C1775 0.950 . S
C1746 H1728 0.951 1_554 S
C1746 C1747 1.366 . S
C1746 C1748 1.388 1_554 S
C1747 C1746 1.366 . S
C1747 C1751 1.385 . S
C1748 H1729 0.951 . S
C1748 C1746 1.388 1_556 S
C1748 C1749 1.366 1_556 S
C1749 C1748 1.366 1_554 S
C1749 C1750 1.414 . S
C1749 C1752 1.499 . S
C1750 H1730 0.950 . S
C1750 C1749 1.414 . S
C1750 C1751 1.374 . S
C1751 H1731 0.950 . S
C1751 C1747 1.385 . S
C1751 C1750 1.374 . S
C1752 C1749 1.499 . S
C1752 C1753 1.373 . S
C1752 C1754 1.389 1_554 S
C1753 H1732 0.950 . S
C1753 C1752 1.373 . S
C1753 C1769 1.377 1_545 S
C1754 C1752 1.389 1_556 S
C1754 C1755 1.524 . S
C1754 C1768 1.377 1_545 S
C1755 C1754 1.524 . S
C1755 C1756 1.397 . S
C1755 C1760 1.363 . S
C1756 H1733 0.950 . S
C1756 C1755 1.397 . S
C1756 C1757 1.334 . S
C1757 H1734 0.950 . S
C1757 C1756 1.334 . S
C1757 C1758 1.287 . S
C1758 C1757 1.287 . S
C1758 C1759 1.524 . S
C1758 H1777 0.913 . S
C1759 H1735 0.950 . S
C1759 C1758 1.524 . S
C1759 C1760 1.415 . S
C1760 H1736 0.950 . S
C1760 C1755 1.363 . S
C1760 C1759 1.415 . S
C1761 H1737 0.951 1_556 S
C1761 C1762 1.366 . S
C1761 C1763 1.388 1_556 S
C1762 C1761 1.366 . S
C1762 C1766 1.385 . S
C1763 H1738 0.951 . S
C1763 C1761 1.388 1_554 S
C1763 C1764 1.366 1_554 S
C1764 C1763 1.366 1_556 S
C1764 C1765 1.414 . S
C1764 C1767 1.499 . S
C1765 H1739 0.950 . S
C1765 C1764 1.414 . S
C1765 C1766 1.374 . S
C1766 H1740 0.950 . S
C1766 C1762 1.385 . S
C1766 C1765 1.374 . S
C1767 C1764 1.499 . S
C1767 C1768 1.373 . S
C1767 C1769 1.389 1_556 S
C1768 H1741 0.950 . S
C1768 C1754 1.377 1_565 S
C1768 C1767 1.373 . S
C1769 C1753 1.377 1_565 S
C1769 C1767 1.389 1_554 S
C1769 C1770 1.524 . S
C1770 C1769 1.524 . S
C1770 C1771 1.397 . S
C1770 C1775 1.363 . S
C1771 H1742 0.950 . S
C1771 C1770 1.397 . S
C1771 C1772 1.334 . S
C1772 H1743 0.950 . S
C1772 C1771 1.334 . S
C1772 C1773 1.287 . S
C1773 C1772 1.287 . S
C1773 C1774 1.524 . S
C1773 H1776 0.999 . S
C1774 H1744 0.950 . S
C1774 C1773 1.524 . S
C1774 C1775 1.415 . S
C1775 H1745 0.950 . S
C1775 C1770 1.363 . S
C1775 C1774 1.415 . S
H1776 C1773 0.999 . S
H1777 C1758 0.913 . S
H1778 C1796 0.950 . S
H1779 C1798 0.951 1_554 S
H1780 C1800 0.950 . S
H1781 C1801 0.950 . S
H1782 C1803 0.950 . S
H1783 C1806 0.950 . S
H1784 C1807 0.950 . S
H1785 C1809 0.950 . S
H1786 C1810 0.950 1_554 S
H1787 C1811 0.950 . S
H1788 C1813 0.951 1_556 S
H1789 C1815 0.950 . S
H1790 C1816 0.950 . S
H1791 C1818 0.950 . S
H1792 C1821 0.950 . S
H1793 C1822 0.950 . S
H1794 C1824 0.950 . S
H1795 C1825 0.950 1_556 S
C1796 H1778 0.950 . S
C1796 C1797 1.366 . S
C1796 C1798 1.388 . S
C1797 C1796 1.366 . S
C1797 C1801 1.385 . S
C1798 H1779 0.951 1_556 S
C1798 C1796 1.388 . S
C1798 C1799 1.366 . S
C1799 C1798 1.366 . S
C1799 C1800 1.414 . S
C1799 C1802 1.499 . S
C1800 H1780 0.950 . S
C1800 C1799 1.414 . S
C1800 C1801 1.374 . S
C1801 H1781 0.950 . S
C1801 C1797 1.385 . S
C1801 C1800 1.374 . S
C1802 C1799 1.499 . S
C1802 C1803 1.373 1_556 S
C1802 C1804 1.389 . S
C1803 H1782 0.950 . S
C1803 C1802 1.373 1_554 S
C1803 C1819 1.377 1_455 S
C1804 C1802 1.389 . S
C1804 C1805 1.524 . S
C1804 C1818 1.377 1_455 S
C1805 C1804 1.524 . S
C1805 C1806 1.397 . S
C1805 C1810 1.363 . S
C1806 H1783 0.950 . S
C1806 C1805 1.397 . S
C1806 C1807 1.334 . S
C1807 H1784 0.950 . S
C1807 C1806 1.334 . S
C1807 C1808 1.287 . S
C1808 C1807 1.287 . S
C1808 C1809 1.524 . S
C1808 H1827 0.913 . S
C1809 H1785 0.950 . S
C1809 C1808 1.524 . S
C1809 C1810 1.415 . S
C1810 H1786 0.950 1_556 S
C1810 C1805 1.363 . S
C1810 C1809 1.415 . S
C1811 H1787 0.950 . S
C1811 C1812 1.366 . S
C1811 C1813 1.388 . S
C1812 C1811 1.366 . S
C1812 C1816 1.385 . S
C1813 H1788 0.951 1_554 S
C1813 C1811 1.388 . S
C1813 C1814 1.366 . S
C1814 C1813 1.366 . S
C1814 C1815 1.414 . S
C1814 C1817 1.499 . S
C1815 H1789 0.950 . S
C1815 C1814 1.414 . S
C1815 C1816 1.374 . S
C1816 H1790 0.950 . S
C1816 C1812 1.385 . S
C1816 C1815 1.374 . S
C1817 C1814 1.499 . S
C1817 C1818 1.373 1_554 S
C1817 C1819 1.389 . S
C1818 H1791 0.950 . S
C1818 C1804 1.377 1_655 S
C1818 C1817 1.373 1_556 S
C1819 C1803 1.377 1_655 S
C1819 C1817 1.389 . S
C1819 C1820 1.524 . S
C1820 C1819 1.524 . S
C1820 C1821 1.397 . S
C1820 C1825 1.363 . S
C1821 H1792 0.950 . S
C1821 C1820 1.397 . S
C1821 C1822 1.334 . S
C1822 H1793 0.950 . S
C1822 C1821 1.334 . S
C1822 C1823 1.287 . S
C1823 C1822 1.287 . S
C1823 C1824 1.524 . S
C1823 H1826 0.999 . S
C1824 H1794 0.950 . S
C1824 C1823 1.524 . S
C1824 C1825 1.415 . S
C1825 H1795 0.950 1_554 S
C1825 C1820 1.363 . S
C1825 C1824 1.415 . S
H1826 C1823 0.999 . S
H1827 C1808 0.913 . S
H1828 C1846 0.951 . S
H1829 C1848 0.951 1_556 S
H1830 C1850 0.950 . S
H1831 C1851 0.950 . S
H1832 C1853 0.950 . S
H1833 C1856 0.950 . S
H1834 C1857 0.950 . S
H1835 C1859 0.950 . S
H1836 C1860 0.950 . S
H1837 C1861 0.951 . S
H1838 C1863 0.951 1_554 S
H1839 C1865 0.950 . S
H1840 C1866 0.950 . S
H1841 C1868 0.950 . S
H1842 C1871 0.950 . S
H1843 C1872 0.950 . S
H1844 C1874 0.950 . S
H1845 C1875 0.950 . S
C1846 H1828 0.951 . S
C1846 C1847 1.366 . S
C1846 C1848 1.388 . S
C1847 C1846 1.366 . S
C1847 C1851 1.385 . S
C1848 H1829 0.951 1_554 S
C1848 C1846 1.388 . S
C1848 C1849 1.366 . S
C1849 C1848 1.366 . S
C1849 C1850 1.414 . S
C1849 C1852 1.499 . S
C1850 H1830 0.950 . S
C1850 C1849 1.414 . S
C1850 C1851 1.374 . S
C1851 H1831 0.950 . S
C1851 C1847 1.385 . S
C1851 C1850 1.374 . S
C1852 C1849 1.499 . S
C1852 C1853 1.373 . S
C1852 C1854 1.389 1_554 S
C1853 H1832 0.950 . S
C1853 C1852 1.373 . S
C1853 C1869 1.377 1_565 S
C1854 C1852 1.389 1_556 S
C1854 C1855 1.524 . S
C1854 C1868 1.377 1_565 S
C1855 C1854 1.524 . S
C1855 C1856 1.397 . S
C1855 C1860 1.363 . S
C1856 H1833 0.950 . S
C1856 C1855 1.397 . S
C1856 C1857 1.334 . S
C1857 H1834 0.950 . S
C1857 C1856 1.334 . S
C1857 C1858 1.287 . S
C1858 C1857 1.287 . S
C1858 C1859 1.524 . S
C1858 H1877 0.913 . S
C1859 H1835 0.950 . S
C1859 C1858 1.524 . S
C1859 C1860 1.415 . S
C1860 H1836 0.950 . S
C1860 C1855 1.363 . S
C1860 C1859 1.415 . S
C1861 H1837 0.951 . S
C1861 C1862 1.366 . S
C1861 C1863 1.388 . S
C1862 C1861 1.366 . S
C1862 C1866 1.385 . S
C1863 H1838 0.951 1_556 S
C1863 C1861 1.388 . S
C1863 C1864 1.366 . S
C1864 C1863 1.366 . S
C1864 C1865 1.414 . S
C1864 C1867 1.499 . S
C1865 H1839 0.950 . S
C1865 C1864 1.414 . S
C1865 C1866 1.374 . S
C1866 H1840 0.950 . S
C1866 C1862 1.385 . S
C1866 C1865 1.374 . S
C1867 C1864 1.499 . S
C1867 C1868 1.373 . S
C1867 C1869 1.389 1_556 S
C1868 H1841 0.950 . S
C1868 C1854 1.377 1_545 S
C1868 C1867 1.373 . S
C1869 C1853 1.377 1_545 S
C1869 C1867 1.389 1_554 S
C1869 C1870 1.524 . S
C1870 C1869 1.524 . S
C1870 C1871 1.397 . S
C1870 C1875 1.363 . S
C1871 H1842 0.950 . S
C1871 C1870 1.397 . S
C1871 C1872 1.334 . S
C1872 H1843 0.950 . S
C1872 C1871 1.334 . S
C1872 C1873 1.287 . S
C1873 C1872 1.287 . S
C1873 C1874 1.524 . S
C1873 H1876 0.999 . S
C1874 H1844 0.950 . S
C1874 C1873 1.524 . S
C1874 C1875 1.415 . S
C1875 H1845 0.950 . S
C1875 C1870 1.363 . S
C1875 C1874 1.415 . S
H1876 C1873 0.999 . S
H1877 C1858 0.913 . S
H1878 C1896 0.951 . S
H1879 C1898 0.951 . S
H1880 C1900 0.950 . S
H1881 C1901 0.950 . S
H1882 C1903 0.950 . S
H1883 C1906 0.950 1_556 S
H1884 C1907 0.950 . S
H1885 C1909 0.950 . S
H1886 C1910 0.950 . S
H1887 C1911 0.951 . S
H1888 C1913 0.951 . S
H1889 C1915 0.950 . S
H1890 C1916 0.950 . S
H1891 C1918 0.950 . S
H1892 C1921 0.950 1_554 S
H1893 C1922 0.950 . S
H1894 C1924 0.950 . S
H1895 C1925 0.950 . S
C1896 H1878 0.951 . S
C1896 C1897 1.366 1_554 S
C1896 C1898 1.388 . S
C1897 C1896 1.366 1_556 S
C1897 C1901 1.385 . S
C1898 H1879 0.951 . S
C1898 C1896 1.388 . S
C1898 C1899 1.366 1_554 S
C1899 C1898 1.366 1_556 S
C1899 C1900 1.414 . S
C1899 C1902 1.499 . S
C1900 H1880 0.950 . S
C1900 C1899 1.414 . S
C1900 C1901 1.374 . S
C1901 H1881 0.950 . S
C1901 C1897 1.385 . S
C1901 C1900 1.374 . S
C1902 C1899 1.499 . S
C1902 C1903 1.373 . S
C1902 C1904 1.389 1_556 S
C1903 H1882 0.950 . S
C1903 C1902 1.373 . S
C1903 C1919 1.377 1_655 S
C1904 C1902 1.389 1_554 S
C1904 C1905 1.524 . S
C1904 C1918 1.377 1_655 S
C1905 C1904 1.524 . S
C1905 C1906 1.397 . S
C1905 C1910 1.363 . S
C1906 H1883 0.950 1_554 S
C1906 C1905 1.397 . S
C1906 C1907 1.334 . S
C1907 H1884 0.950 . S
C1907 C1906 1.334 . S
C1907 C1908 1.287 . S
C1908 C1907 1.287 . S
C1908 C1909 1.524 . S
C1908 H1927 0.913 . S
C1909 H1885 0.950 . S
C1909 C1908 1.524 . S
C1909 C1910 1.415 . S
C1910 H1886 0.950 . S
C1910 C1905 1.363 . S
C1910 C1909 1.415 . S
C1911 H1887 0.951 . S
C1911 C1912 1.366 1_556 S
C1911 C1913 1.388 . S
C1912 C1911 1.366 1_554 S
C1912 C1916 1.385 . S
C1913 H1888 0.951 . S
C1913 C1911 1.388 . S
C1913 C1914 1.366 1_556 S
C1914 C1913 1.366 1_554 S
C1914 C1915 1.414 . S
C1914 C1917 1.499 . S
C1915 H1889 0.950 . S
C1915 C1914 1.414 . S
C1915 C1916 1.374 . S
C1916 H1890 0.950 . S
C1916 C1912 1.385 . S
C1916 C1915 1.374 . S
C1917 C1914 1.499 . S
C1917 C1918 1.373 . S
C1917 C1919 1.389 1_554 S
C1918 H1891 0.950 . S
C1918 C1904 1.377 1_455 S
C1918 C1917 1.373 . S
C1919 C1903 1.377 1_455 S
C1919 C1917 1.389 1_556 S
C1919 C1920 1.524 . S
C1920 C1919 1.524 . S
C1920 C1921 1.397 . S
C1920 C1925 1.363 . S
C1921 H1892 0.950 1_556 S
C1921 C1920 1.397 . S
C1921 C1922 1.334 . S
C1922 H1893 0.950 . S
C1922 C1921 1.334 . S
C1922 C1923 1.287 . S
C1923 C1922 1.287 . S
C1923 C1924 1.524 . S
C1923 H1926 0.999 . S
C1924 H1894 0.950 . S
C1924 C1923 1.524 . S
C1924 C1925 1.415 . S
C1925 H1895 0.950 . S
C1925 C1920 1.363 . S
C1925 C1924 1.415 . S
H1926 C1923 0.999 . S
H1927 C1908 0.913 . S
H1928 C1946 0.951 . S
H1929 C1948 0.951 . S
H1930 C1950 0.950 . S
H1931 C1951 0.950 . S
H1932 C1953 0.950 . S
H1933 C1956 0.950 . S
H1934 C1957 0.950 . S
H1935 C1959 0.950 . S
H1936 C1960 0.950 . S
H1937 C1961 0.951 . S
H1938 C1963 0.951 . S
H1939 C1965 0.950 . S
H1940 C1966 0.950 . S
H1941 C1968 0.950 . S
H1942 C1971 0.950 . S
H1943 C1972 0.950 . S
H1944 C1974 0.950 . S
H1945 C1975 0.950 . S
C1946 H1928 0.951 . S
C1946 C1947 1.366 . S
C1946 C1948 1.388 . S
C1947 C1946 1.366 . S
C1947 C1951 1.385 . S
C1948 H1929 0.951 . S
C1948 C1946 1.388 . S
C1948 C1949 1.366 . S
C1949 C1948 1.366 . S
C1949 C1950 1.414 . S
C1949 C1952 1.499 . S
C1950 H1930 0.950 . S
C1950 C1949 1.414 . S
C1950 C1951 1.374 . S
C1951 H1931 0.950 . S
C1951 C1947 1.385 . S
C1951 C1950 1.374 . S
C1952 C1949 1.499 . S
C1952 C1953 1.373 . S
C1952 C1954 1.389 . S
C1953 H1932 0.950 . S
C1953 C1952 1.373 . S
C1953 C1969 1.377 . S
C1954 C1952 1.389 . S
C1954 C1955 1.524 . S
C1954 C1968 1.377 . S
C1955 C1954 1.524 . S
C1955 C1956 1.397 . S
C1955 C1960 1.363 . S
C1956 H1933 0.950 . S
C1956 C1955 1.397 . S
C1956 C1957 1.334 . S
C1957 H1934 0.950 . S
C1957 C1956 1.334 . S
C1957 C1958 1.287 . S
C1958 C1957 1.287 . S
C1958 C1959 1.524 . S
C1958 H1977 0.913 . S
C1959 H1935 0.950 . S
C1959 C1958 1.524 . S
C1959 C1960 1.415 . S
C1960 H1936 0.950 . S
C1960 C1955 1.363 . S
C1960 C1959 1.415 . S
C1961 H1937 0.951 . S
C1961 C1962 1.366 . S
C1961 C1963 1.388 . S
C1962 C1961 1.366 . S
C1962 C1966 1.385 . S
C1963 H1938 0.951 . S
C1963 C1961 1.388 . S
C1963 C1964 1.366 . S
C1964 C1963 1.366 . S
C1964 C1965 1.414 . S
C1964 C1967 1.499 . S
C1965 H1939 0.950 . S
C1965 C1964 1.414 . S
C1965 C1966 1.374 . S
C1966 H1940 0.950 . S
C1966 C1962 1.385 . S
C1966 C1965 1.374 . S
C1967 C1964 1.499 . S
C1967 C1968 1.373 . S
C1967 C1969 1.389 . S
C1968 H1941 0.950 . S
C1968 C1954 1.377 . S
C1968 C1967 1.373 . S
C1969 C1953 1.377 . S
C1969 C1967 1.389 . S
C1969 C1970 1.524 . S
C1970 C1969 1.524 . S
C1970 C1971 1.397 . S
C1970 C1975 1.363 . S
C1971 H1942 0.950 . S
C1971 C1970 1.397 . S
C1971 C1972 1.334 . S
C1972 H1943 0.950 . S
C1972 C1971 1.334 . S
C1972 C1973 1.287 . S
C1973 C1972 1.287 . S
C1973 C1974 1.524 . S
C1973 H1976 0.999 . S
C1974 H1944 0.950 . S
C1974 C1973 1.524 . S
C1974 C1975 1.415 . S
C1975 H1945 0.950 . S
C1975 C1970 1.363 . S
C1975 C1974 1.415 . S
H1976 C1973 0.999 . S
H1977 C1958 0.913 . S
H1978 C1996 0.951 . S
H1979 C1998 0.951 . S
H1980 C2000 0.950 . S
H1981 C2001 0.950 . S
H1982 C2003 0.950 . S
H1983 C2006 0.950 . S
H1984 C2007 0.950 . S
H1985 C2009 0.950 . S
H1986 C2010 0.950 . S
H1987 C2011 0.951 . S
H1988 C2013 0.951 . S
H1989 C2015 0.950 . S
H1990 C2016 0.950 . S
H1991 C2018 0.950 . S
H1992 C2021 0.950 . S
H1993 C2022 0.950 . S
H1994 C2024 0.950 . S
H1995 C2025 0.950 . S
C1996 H1978 0.951 . S
C1996 C1997 1.366 . S
C1996 C1998 1.388 . S
C1997 C1996 1.366 . S
C1997 C2001 1.385 . S
C1998 H1979 0.951 . S
C1998 C1996 1.388 . S
C1998 C1999 1.366 . S
C1999 C1998 1.366 . S
C1999 C2000 1.414 . S
C1999 C2002 1.499 . S
C2000 H1980 0.950 . S
C2000 C1999 1.414 . S
C2000 C2001 1.374 . S
C2001 H1981 0.950 . S
C2001 C1997 1.385 . S
C2001 C2000 1.374 . S
C2002 C1999 1.499 . S
C2002 C2003 1.373 . S
C2002 C2004 1.389 . S
C2003 H1982 0.950 . S
C2003 C2002 1.373 . S
C2003 C2019 1.377 . S
C2004 C2002 1.389 . S
C2004 C2005 1.524 . S
C2004 C2018 1.377 . S
C2005 C2004 1.524 . S
C2005 C2006 1.397 . S
C2005 C2010 1.363 . S
C2006 H1983 0.950 . S
C2006 C2005 1.397 . S
C2006 C2007 1.334 . S
C2007 H1984 0.950 . S
C2007 C2006 1.334 . S
C2007 C2008 1.287 . S
C2008 C2007 1.287 . S
C2008 C2009 1.524 . S
C2008 H2027 0.913 . S
C2009 H1985 0.950 . S
C2009 C2008 1.524 . S
C2009 C2010 1.415 . S
C2010 H1986 0.950 . S
C2010 C2005 1.363 . S
C2010 C2009 1.415 . S
C2011 H1987 0.951 . S
C2011 C2012 1.366 . S
C2011 C2013 1.388 . S
C2012 C2011 1.366 . S
C2012 C2016 1.385 . S
C2013 H1988 0.951 . S
C2013 C2011 1.388 . S
C2013 C2014 1.366 . S
C2014 C2013 1.366 . S
C2014 C2015 1.414 . S
C2014 C2017 1.499 . S
C2015 H1989 0.950 . S
C2015 C2014 1.414 . S
C2015 C2016 1.374 . S
C2016 H1990 0.950 . S
C2016 C2012 1.385 . S
C2016 C2015 1.374 . S
C2017 C2014 1.499 . S
C2017 C2018 1.373 . S
C2017 C2019 1.389 . S
C2018 H1991 0.950 . S
C2018 C2004 1.377 . S
C2018 C2017 1.373 . S
C2019 C2003 1.377 . S
C2019 C2017 1.389 . S
C2019 C2020 1.524 . S
C2020 C2019 1.524 . S
C2020 C2021 1.397 . S
C2020 C2025 1.363 . S
C2021 H1992 0.950 . S
C2021 C2020 1.397 . S
C2021 C2022 1.334 . S
C2022 H1993 0.950 . S
C2022 C2021 1.334 . S
C2022 C2023 1.287 . S
C2023 C2022 1.287 . S
C2023 C2024 1.524 . S
C2023 H2026 0.999 . S
C2024 H1994 0.950 . S
C2024 C2023 1.524 . S
C2024 C2025 1.415 . S
C2025 H1995 0.950 . S
C2025 C2020 1.363 . S
C2025 C2024 1.415 . S
H2026 C2023 0.999 . S
H2027 C2008 0.913 . S
H2028 C2046 0.951 . S
H2029 C2048 0.951 . S
H2030 C2050 0.950 . S
H2031 C2051 0.950 . S
H2032 C2053 0.950 . S
H2033 C2056 0.950 . S
H2034 C2057 0.950 . S
H2035 C2059 0.950 . S
H2036 C2060 0.950 . S
H2037 C2061 0.951 . S
H2038 C2063 0.951 . S
H2039 C2065 0.950 . S
H2040 C2066 0.950 . S
H2041 C2068 0.950 . S
H2042 C2071 0.950 . S
H2043 C2072 0.950 . S
H2044 C2074 0.950 . S
H2045 C2075 0.950 . S
C2046 H2028 0.951 . S
C2046 C2047 1.366 . S
C2046 C2048 1.388 . S
C2047 C2046 1.366 . S
C2047 C2051 1.385 . S
C2048 H2029 0.951 . S
C2048 C2046 1.388 . S
C2048 C2049 1.366 . S
C2049 C2048 1.366 . S
C2049 C2050 1.414 . S
C2049 C2052 1.499 . S
C2050 H2030 0.950 . S
C2050 C2049 1.414 . S
C2050 C2051 1.374 . S
C2051 H2031 0.950 . S
C2051 C2047 1.385 . S
C2051 C2050 1.374 . S
C2052 C2049 1.499 . S
C2052 C2053 1.373 . S
C2052 C2054 1.389 . S
C2053 H2032 0.950 . S
C2053 C2052 1.373 . S
C2053 C2069 1.377 . S
C2054 C2052 1.389 . S
C2054 C2055 1.524 . S
C2054 C2068 1.377 . S
C2055 C2054 1.524 . S
C2055 C2056 1.397 . S
C2055 C2060 1.363 . S
C2056 H2033 0.950 . S
C2056 C2055 1.397 . S
C2056 C2057 1.334 . S
C2057 H2034 0.950 . S
C2057 C2056 1.334 . S
C2057 C2058 1.287 . S
C2058 C2057 1.287 . S
C2058 C2059 1.524 . S
C2058 H2077 0.913 . S
C2059 H2035 0.950 . S
C2059 C2058 1.524 . S
C2059 C2060 1.415 . S
C2060 H2036 0.950 . S
C2060 C2055 1.363 . S
C2060 C2059 1.415 . S
C2061 H2037 0.951 . S
C2061 C2062 1.366 . S
C2061 C2063 1.388 . S
C2062 C2061 1.366 . S
C2062 C2066 1.385 . S
C2063 H2038 0.951 . S
C2063 C2061 1.388 . S
C2063 C2064 1.366 . S
C2064 C2063 1.366 . S
C2064 C2065 1.414 . S
C2064 C2067 1.499 . S
C2065 H2039 0.950 . S
C2065 C2064 1.414 . S
C2065 C2066 1.374 . S
C2066 H2040 0.950 . S
C2066 C2062 1.385 . S
C2066 C2065 1.374 . S
C2067 C2064 1.499 . S
C2067 C2068 1.373 . S
C2067 C2069 1.389 . S
C2068 H2041 0.950 . S
C2068 C2054 1.377 . S
C2068 C2067 1.373 . S
C2069 C2053 1.377 . S
C2069 C2067 1.389 . S
C2069 C2070 1.524 . S
C2070 C2069 1.524 . S
C2070 C2071 1.397 . S
C2070 C2075 1.363 . S
C2071 H2042 0.950 . S
C2071 C2070 1.397 . S
C2071 C2072 1.334 . S
C2072 H2043 0.950 . S
C2072 C2071 1.334 . S
C2072 C2073 1.287 . S
C2073 C2072 1.287 . S
C2073 C2074 1.524 . S
C2073 H2076 0.999 . S
C2074 H2044 0.950 . S
C2074 C2073 1.524 . S
C2074 C2075 1.415 . S
C2075 H2045 0.950 . S
C2075 C2070 1.363 . S
C2075 C2074 1.415 . S
H2076 C2073 0.999 . S
H2077 C2058 0.913 . S
H2078 C2096 0.951 . S
H2079 C2098 0.951 . S
H2080 C2100 0.950 . S
H2081 C2101 0.950 . S
H2082 C2103 0.950 . S
H2083 C2106 0.950 . S
H2084 C2107 0.950 . S
H2085 C2109 0.950 . S
H2086 C2110 0.950 . S
H2087 C2111 0.951 . S
H2088 C2113 0.951 . S
H2089 C2115 0.950 . S
H2090 C2116 0.950 . S
H2091 C2118 0.950 . S
H2092 C2121 0.950 . S
H2093 C2122 0.950 . S
H2094 C2124 0.950 . S
H2095 C2125 0.950 . S
C2096 H2078 0.951 . S
C2096 C2097 1.366 . S
C2096 C2098 1.388 . S
C2097 C2096 1.366 . S
C2097 C2101 1.385 . S
C2098 H2079 0.951 . S
C2098 C2096 1.388 . S
C2098 C2099 1.366 . S
C2099 C2098 1.366 . S
C2099 C2100 1.414 . S
C2099 C2102 1.499 . S
C2100 H2080 0.950 . S
C2100 C2099 1.414 . S
C2100 C2101 1.374 . S
C2101 H2081 0.950 . S
C2101 C2097 1.385 . S
C2101 C2100 1.374 . S
C2102 C2099 1.499 . S
C2102 C2103 1.373 . S
C2102 C2104 1.389 . S
C2103 H2082 0.950 . S
C2103 C2102 1.373 . S
C2103 C2119 1.377 . S
C2104 C2102 1.389 . S
C2104 C2105 1.524 . S
C2104 C2118 1.377 . S
C2105 C2104 1.524 . S
C2105 C2106 1.397 . S
C2105 C2110 1.363 . S
C2106 H2083 0.950 . S
C2106 C2105 1.397 . S
C2106 C2107 1.334 . S
C2107 H2084 0.950 . S
C2107 C2106 1.334 . S
C2107 C2108 1.287 . S
C2108 C2107 1.287 . S
C2108 C2109 1.524 . S
C2108 H2127 0.913 . S
C2109 H2085 0.950 . S
C2109 C2108 1.524 . S
C2109 C2110 1.415 . S
C2110 H2086 0.950 . S
C2110 C2105 1.363 . S
C2110 C2109 1.415 . S
C2111 H2087 0.951 . S
C2111 C2112 1.366 . S
C2111 C2113 1.388 . S
C2112 C2111 1.366 . S
C2112 C2116 1.385 . S
C2113 H2088 0.951 . S
C2113 C2111 1.388 . S
C2113 C2114 1.366 . S
C2114 C2113 1.366 . S
C2114 C2115 1.414 . S
C2114 C2117 1.499 . S
C2115 H2089 0.950 . S
C2115 C2114 1.414 . S
C2115 C2116 1.374 . S
C2116 H2090 0.950 . S
C2116 C2112 1.385 . S
C2116 C2115 1.374 . S
C2117 C2114 1.499 . S
C2117 C2118 1.373 . S
C2117 C2119 1.389 . S
C2118 H2091 0.950 . S
C2118 C2104 1.377 . S
C2118 C2117 1.373 . S
C2119 C2103 1.377 . S
C2119 C2117 1.389 . S
C2119 C2120 1.524 . S
C2120 C2119 1.524 . S
C2120 C2121 1.397 . S
C2120 C2125 1.363 . S
C2121 H2092 0.950 . S
C2121 C2120 1.397 . S
C2121 C2122 1.334 . S
C2122 H2093 0.950 . S
C2122 C2121 1.334 . S
C2122 C2123 1.287 . S
C2123 C2122 1.287 . S
C2123 C2124 1.524 . S
C2123 H2126 0.999 . S
C2124 H2094 0.950 . S
C2124 C2123 1.524 . S
C2124 C2125 1.415 . S
C2125 H2095 0.950 . S
C2125 C2120 1.363 . S
C2125 C2124 1.415 . S
H2126 C2123 0.999 . S
H2127 C2108 0.913 . S
H2128 C2146 0.951 . S
H2129 C2148 0.951 . S
H2130 C2150 0.950 . S
H2131 C2151 0.950 . S
H2132 C2153 0.950 . S
H2133 C2156 0.950 . S
H2134 C2157 0.950 . S
H2135 C2159 0.950 . S
H2136 C2160 0.950 . S
H2137 C2161 0.951 . S
H2138 C2163 0.951 . S
H2139 C2165 0.950 . S
H2140 C2166 0.950 . S
H2141 C2168 0.950 . S
H2142 C2171 0.950 . S
H2143 C2172 0.950 . S
H2144 C2174 0.950 . S
H2145 C2175 0.950 . S
C2146 H2128 0.951 . S
C2146 C2147 1.366 . S
C2146 C2148 1.388 . S
C2147 C2146 1.366 . S
C2147 C2151 1.385 . S
C2148 H2129 0.951 . S
C2148 C2146 1.388 . S
C2148 C2149 1.366 . S
C2149 C2148 1.366 . S
C2149 C2150 1.414 . S
C2149 C2152 1.499 . S
C2150 H2130 0.950 . S
C2150 C2149 1.414 . S
C2150 C2151 1.374 . S
C2151 H2131 0.950 . S
C2151 C2147 1.385 . S
C2151 C2150 1.374 . S
C2152 C2149 1.499 . S
C2152 C2153 1.373 1_554 S
C2152 C2154 1.389 . S
C2153 H2132 0.950 . S
C2153 C2152 1.373 1_556 S
C2153 C2169 1.377 . S
C2154 C2152 1.389 . S
C2154 C2155 1.524 . S
C2154 C2168 1.377 . S
C2155 C2154 1.524 . S
C2155 C2156 1.397 . S
C2155 C2160 1.363 . S
C2156 H2133 0.950 . S
C2156 C2155 1.397 . S
C2156 C2157 1.334 . S
C2157 H2134 0.950 . S
C2157 C2156 1.334 . S
C2157 C2158 1.287 . S
C2158 C2157 1.287 . S
C2158 C2159 1.524 . S
C2158 H2177 0.913 . S
C2159 H2135 0.950 . S
C2159 C2158 1.524 . S
C2159 C2160 1.415 . S
C2160 H2136 0.950 . S
C2160 C2155 1.363 . S
C2160 C2159 1.415 . S
C2161 H2137 0.951 . S
C2161 C2162 1.366 . S
C2161 C2163 1.388 . S
C2162 C2161 1.366 . S
C2162 C2166 1.385 . S
C2163 H2138 0.951 . S
C2163 C2161 1.388 . S
C2163 C2164 1.366 . S
C2164 C2163 1.366 . S
C2164 C2165 1.414 . S
C2164 C2167 1.499 . S
C2165 H2139 0.950 . S
C2165 C2164 1.414 . S
C2165 C2166 1.374 . S
C2166 H2140 0.950 . S
C2166 C2162 1.385 . S
C2166 C2165 1.374 . S
C2167 C2164 1.499 . S
C2167 C2168 1.373 1_556 S
C2167 C2169 1.389 . S
C2168 H2141 0.950 . S
C2168 C2154 1.377 . S
C2168 C2167 1.373 1_554 S
C2169 C2153 1.377 . S
C2169 C2167 1.389 . S
C2169 C2170 1.524 . S
C2170 C2169 1.524 . S
C2170 C2171 1.397 . S
C2170 C2175 1.363 . S
C2171 H2142 0.950 . S
C2171 C2170 1.397 . S
C2171 C2172 1.334 . S
C2172 H2143 0.950 . S
C2172 C2171 1.334 . S
C2172 C2173 1.287 . S
C2173 C2172 1.287 . S
C2173 C2174 1.524 . S
C2173 H2176 0.999 . S
C2174 H2144 0.950 . S
C2174 C2173 1.524 . S
C2174 C2175 1.415 . S
C2175 H2145 0.950 . S
C2175 C2170 1.363 . S
C2175 C2174 1.415 . S
H2176 C2173 0.999 . S
H2177 C2158 0.913 . S
H2178 C2196 0.951 . S
H2179 C2198 0.951 . S
H2180 C2200 0.950 . S
H2181 C2201 0.950 . S
H2182 C2203 0.950 . S
H2183 C2206 0.950 . S
H2184 C2207 0.950 . S
H2185 C2209 0.950 . S
H2186 C2210 0.950 . S
H2187 C2211 0.951 . S
H2188 C2213 0.951 . S
H2189 C2215 0.950 . S
H2190 C2216 0.950 . S
H2191 C2218 0.950 . S
H2192 C2221 0.950 . S
H2193 C2222 0.950 . S
H2194 C2224 0.950 . S
H2195 C2225 0.950 . S
C2196 H2178 0.951 . S
C2196 C2197 1.366 . S
C2196 C2198 1.388 . S
C2197 C2196 1.366 . S
C2197 C2201 1.385 . S
C2198 H2179 0.951 . S
C2198 C2196 1.388 . S
C2198 C2199 1.366 . S
C2199 C2198 1.366 . S
C2199 C2200 1.414 . S
C2199 C2202 1.499 . S
C2200 H2180 0.950 . S
C2200 C2199 1.414 . S
C2200 C2201 1.374 . S
C2201 H2181 0.950 . S
C2201 C2197 1.385 . S
C2201 C2200 1.374 . S
C2202 C2199 1.499 . S
C2202 C2203 1.373 1_554 S
C2202 C2204 1.389 . S
C2203 H2182 0.950 . S
C2203 C2202 1.373 1_556 S
C2203 C2219 1.377 . S
C2204 C2202 1.389 . S
C2204 C2205 1.524 . S
C2204 C2218 1.377 . S
C2205 C2204 1.524 . S
C2205 C2206 1.397 . S
C2205 C2210 1.363 . S
C2206 H2183 0.950 . S
C2206 C2205 1.397 . S
C2206 C2207 1.334 . S
C2207 H2184 0.950 . S
C2207 C2206 1.334 . S
C2207 C2208 1.287 . S
C2208 C2207 1.287 . S
C2208 C2209 1.524 . S
C2208 H2227 0.913 . S
C2209 H2185 0.950 . S
C2209 C2208 1.524 . S
C2209 C2210 1.415 . S
C2210 H2186 0.950 . S
C2210 C2205 1.363 . S
C2210 C2209 1.415 . S
C2211 H2187 0.951 . S
C2211 C2212 1.366 . S
C2211 C2213 1.388 . S
C2212 C2211 1.366 . S
C2212 C2216 1.385 . S
C2213 H2188 0.951 . S
C2213 C2211 1.388 . S
C2213 C2214 1.366 . S
C2214 C2213 1.366 . S
C2214 C2215 1.414 . S
C2214 C2217 1.499 . S
C2215 H2189 0.950 . S
C2215 C2214 1.414 . S
C2215 C2216 1.374 . S
C2216 H2190 0.950 . S
C2216 C2212 1.385 . S
C2216 C2215 1.374 . S
C2217 C2214 1.499 . S
C2217 C2218 1.373 1_556 S
C2217 C2219 1.389 . S
C2218 H2191 0.950 . S
C2218 C2204 1.377 . S
C2218 C2217 1.373 1_554 S
C2219 C2203 1.377 . S
C2219 C2217 1.389 . S
C2219 C2220 1.524 . S
C2220 C2219 1.524 . S
C2220 C2221 1.397 . S
C2220 C2225 1.363 . S
C2221 H2192 0.950 . S
C2221 C2220 1.397 . S
C2221 C2222 1.334 . S
C2222 H2193 0.950 . S
C2222 C2221 1.334 . S
C2222 C2223 1.287 . S
C2223 C2222 1.287 . S
C2223 C2224 1.524 . S
C2223 H2226 0.999 . S
C2224 H2194 0.950 . S
C2224 C2223 1.524 . S
C2224 C2225 1.415 . S
C2225 H2195 0.950 . S
C2225 C2220 1.363 . S
C2225 C2224 1.415 . S
H2226 C2223 0.999 . S
H2227 C2208 0.913 . S
H2228 C2246 0.951 . S
H2229 C2248 0.951 . S
H2230 C2250 0.950 . S
H2231 C2251 0.950 1_554 S
H2232 C2253 0.950 . S
H2233 C2256 0.950 . S
H2234 C2257 0.950 . S
H2235 C2259 0.950 . S
H2236 C2260 0.950 . S
H2237 C2261 0.951 . S
H2238 C2263 0.951 . S
H2239 C2265 0.950 . S
H2240 C2266 0.950 1_556 S
H2241 C2268 0.950 . S
H2242 C2271 0.950 . S
H2243 C2272 0.950 . S
H2244 C2274 0.950 . S
H2245 C2275 0.950 . S
C2246 H2228 0.951 . S
C2246 C2247 1.366 . S
C2246 C2248 1.388 . S
C2247 C2246 1.366 . S
C2247 C2251 1.385 . S
C2248 H2229 0.951 . S
C2248 C2246 1.388 . S
C2248 C2249 1.366 . S
C2249 C2248 1.366 . S
C2249 C2250 1.414 1_556 S
C2249 C2252 1.499 . S
C2250 H2230 0.950 . S
C2250 C2249 1.414 1_554 S
C2250 C2251 1.374 1_554 S
C2251 H2231 0.950 1_556 S
C2251 C2247 1.385 . S
C2251 C2250 1.374 1_556 S
C2252 C2249 1.499 . S
C2252 C2253 1.373 1_556 S
C2252 C2254 1.389 . S
C2253 H2232 0.950 . S
C2253 C2252 1.373 1_554 S
C2253 C2269 1.377 . S
C2254 C2252 1.389 . S
C2254 C2255 1.524 . S
C2254 C2268 1.377 . S
C2255 C2254 1.524 . S
C2255 C2256 1.397 1_556 S
C2255 C2260 1.363 . S
C2256 H2233 0.950 . S
C2256 C2255 1.397 1_554 S
C2256 C2257 1.334 . S
C2257 H2234 0.950 . S
C2257 C2256 1.334 . S
C2257 C2258 1.287 1_554 S
C2258 C2257 1.287 1_556 S
C2258 C2259 1.524 . S
C2258 H2277 0.913 . S
C2259 H2235 0.950 . S
C2259 C2258 1.524 . S
C2259 C2260 1.415 . S
C2260 H2236 0.950 . S
C2260 C2255 1.363 . S
C2260 C2259 1.415 . S
C2261 H2237 0.951 . S
C2261 C2262 1.366 . S
C2261 C2263 1.388 . S
C2262 C2261 1.366 . S
C2262 C2266 1.385 . S
C2263 H2238 0.951 . S
C2263 C2261 1.388 . S
C2263 C2264 1.366 . S
C2264 C2263 1.366 . S
C2264 C2265 1.414 1_554 S
C2264 C2267 1.499 . S
C2265 H2239 0.950 . S
C2265 C2264 1.414 1_556 S
C2265 C2266 1.374 1_556 S
C2266 H2240 0.950 1_554 S
C2266 C2262 1.385 . S
C2266 C2265 1.374 1_554 S
C2267 C2264 1.499 . S
C2267 C2268 1.373 1_554 S
C2267 C2269 1.389 . S
C2268 H2241 0.950 . S
C2268 C2254 1.377 . S
C2268 C2267 1.373 1_556 S
C2269 C2253 1.377 . S
C2269 C2267 1.389 . S
C2269 C2270 1.524 . S
C2270 C2269 1.524 . S
C2270 C2271 1.397 1_554 S
C2270 C2275 1.363 . S
C2271 H2242 0.950 . S
C2271 C2270 1.397 1_556 S
C2271 C2272 1.334 . S
C2272 H2243 0.950 . S
C2272 C2271 1.334 . S
C2272 C2273 1.287 1_556 S
C2273 C2272 1.287 1_554 S
C2273 C2274 1.524 . S
C2273 H2276 0.999 . S
C2274 H2244 0.950 . S
C2274 C2273 1.524 . S
C2274 C2275 1.415 . S
C2275 H2245 0.950 . S
C2275 C2270 1.363 . S
C2275 C2274 1.415 . S
H2276 C2273 0.999 . S
H2277 C2258 0.913 . S
H2278 C2296 0.951 . S
H2279 C2298 0.951 . S
H2280 C2300 0.950 . S
H2281 C2301 0.950 1_556 S
H2282 C2303 0.950 . S
H2283 C2306 0.950 . S
H2284 C2307 0.950 . S
H2285 C2309 0.950 . S
H2286 C2310 0.950 . S
H2287 C2311 0.951 . S
H2288 C2313 0.951 . S
H2289 C2315 0.950 . S
H2290 C2316 0.950 1_554 S
H2291 C2318 0.950 . S
H2292 C2321 0.950 . S
H2293 C2322 0.950 . S
H2294 C2324 0.950 . S
H2295 C2325 0.950 . S
C2296 H2278 0.951 . S
C2296 C2297 1.366 . S
C2296 C2298 1.388 . S
C2297 C2296 1.366 . S
C2297 C2301 1.385 . S
C2298 H2279 0.951 . S
C2298 C2296 1.388 . S
C2298 C2299 1.366 . S
C2299 C2298 1.366 . S
C2299 C2300 1.414 1_554 S
C2299 C2302 1.499 . S
C2300 H2280 0.950 . S
C2300 C2299 1.414 1_556 S
C2300 C2301 1.374 1_556 S
C2301 H2281 0.950 1_554 S
C2301 C2297 1.385 . S
C2301 C2300 1.374 1_554 S
C2302 C2299 1.499 . S
C2302 C2303 1.373 1_554 S
C2302 C2304 1.389 . S
C2303 H2282 0.950 . S
C2303 C2302 1.373 1_556 S
C2303 C2319 1.377 . S
C2304 C2302 1.389 . S
C2304 C2305 1.524 . S
C2304 C2318 1.377 . S
C2305 C2304 1.524 . S
C2305 C2306 1.397 . S
C2305 C2310 1.363 . S
C2306 H2283 0.950 . S
C2306 C2305 1.397 . S
C2306 C2307 1.334 . S
C2307 H2284 0.950 . S
C2307 C2306 1.334 . S
C2307 C2308 1.287 . S
C2308 C2307 1.287 . S
C2308 C2309 1.524 . S
C2308 H2327 0.913 . S
C2309 H2285 0.950 . S
C2309 C2308 1.524 . S
C2309 C2310 1.415 . S
C2310 H2286 0.950 . S
C2310 C2305 1.363 . S
C2310 C2309 1.415 . S
C2311 H2287 0.951 . S
C2311 C2312 1.366 . S
C2311 C2313 1.388 . S
C2312 C2311 1.366 . S
C2312 C2316 1.385 . S
C2313 H2288 0.951 . S
C2313 C2311 1.388 . S
C2313 C2314 1.366 . S
C2314 C2313 1.366 . S
C2314 C2315 1.414 1_556 S
C2314 C2317 1.499 . S
C2315 H2289 0.950 . S
C2315 C2314 1.414 1_554 S
C2315 C2316 1.374 1_554 S
C2316 H2290 0.950 1_556 S
C2316 C2312 1.385 . S
C2316 C2315 1.374 1_556 S
C2317 C2314 1.499 . S
C2317 C2318 1.373 1_556 S
C2317 C2319 1.389 . S
C2318 H2291 0.950 . S
C2318 C2304 1.377 . S
C2318 C2317 1.373 1_554 S
C2319 C2303 1.377 . S
C2319 C2317 1.389 . S
C2319 C2320 1.524 . S
C2320 C2319 1.524 . S
C2320 C2321 1.397 . S
C2320 C2325 1.363 . S
C2321 H2292 0.950 . S
C2321 C2320 1.397 . S
C2321 C2322 1.334 . S
C2322 H2293 0.950 . S
C2322 C2321 1.334 . S
C2322 C2323 1.287 . S
C2323 C2322 1.287 . S
C2323 C2324 1.524 . S
C2323 H2326 0.999 . S
C2324 H2294 0.950 . S
C2324 C2323 1.524 . S
C2324 C2325 1.415 . S
C2325 H2295 0.950 . S
C2325 C2320 1.363 . S
C2325 C2324 1.415 . S
H2326 C2323 0.999 . S
H2327 C2308 0.913 . S
H2328 C2346 0.951 . S
H2329 C2348 0.951 . S
H2330 C2350 0.950 . S
H2331 C2351 0.950 . S
H2332 C2353 0.950 . S
H2333 C2356 0.950 . S
H2334 C2357 0.950 . S
H2335 C2359 0.950 . S
H2336 C2360 0.950 . S
H2337 C2361 0.951 . S
H2338 C2363 0.951 . S
H2339 C2365 0.950 . S
H2340 C2366 0.950 . S
H2341 C2368 0.950 . S
H2342 C2371 0.950 . S
H2343 C2372 0.950 . S
H2344 C2374 0.950 . S
H2345 C2375 0.950 . S
C2346 H2328 0.951 . S
C2346 C2347 1.366 . S
C2346 C2348 1.388 . S
C2347 C2346 1.366 . S
C2347 C2351 1.385 . S
C2348 H2329 0.951 . S
C2348 C2346 1.388 . S
C2348 C2349 1.366 . S
C2349 C2348 1.366 . S
C2349 C2350 1.414 . S
C2349 C2352 1.499 . S
C2350 H2330 0.950 . S
C2350 C2349 1.414 . S
C2350 C2351 1.374 . S
C2351 H2331 0.950 . S
C2351 C2347 1.385 . S
C2351 C2350 1.374 . S
C2352 C2349 1.499 . S
C2352 C2353 1.373 . S
C2352 C2354 1.389 . S
C2353 H2332 0.950 . S
C2353 C2352 1.373 . S
C2353 C2369 1.377 . S
C2354 C2352 1.389 . S
C2354 C2355 1.524 . S
C2354 C2368 1.377 . S
C2355 C2354 1.524 . S
C2355 C2356 1.397 . S
C2355 C2360 1.363 . S
C2356 H2333 0.950 . S
C2356 C2355 1.397 . S
C2356 C2357 1.334 . S
C2357 H2334 0.950 . S
C2357 C2356 1.334 . S
C2357 C2358 1.287 . S
C2358 C2357 1.287 . S
C2358 C2359 1.524 . S
C2358 H2377 0.913 . S
C2359 H2335 0.950 . S
C2359 C2358 1.524 . S
C2359 C2360 1.415 . S
C2360 H2336 0.950 . S
C2360 C2355 1.363 . S
C2360 C2359 1.415 . S
C2361 H2337 0.951 . S
C2361 C2362 1.366 . S
C2361 C2363 1.388 . S
C2362 C2361 1.366 . S
C2362 C2366 1.385 . S
C2363 H2338 0.951 . S
C2363 C2361 1.388 . S
C2363 C2364 1.366 . S
C2364 C2363 1.366 . S
C2364 C2365 1.414 . S
C2364 C2367 1.499 . S
C2365 H2339 0.950 . S
C2365 C2364 1.414 . S
C2365 C2366 1.374 . S
C2366 H2340 0.950 . S
C2366 C2362 1.385 . S
C2366 C2365 1.374 . S
C2367 C2364 1.499 . S
C2367 C2368 1.373 . S
C2367 C2369 1.389 . S
C2368 H2341 0.950 . S
C2368 C2354 1.377 . S
C2368 C2367 1.373 . S
C2369 C2353 1.377 . S
C2369 C2367 1.389 . S
C2369 C2370 1.524 . S
C2370 C2369 1.524 . S
C2370 C2371 1.397 . S
C2370 C2375 1.363 . S
C2371 H2342 0.950 . S
C2371 C2370 1.397 . S
C2371 C2372 1.334 . S
C2372 H2343 0.950 . S
C2372 C2371 1.334 . S
C2372 C2373 1.287 . S
C2373 C2372 1.287 . S
C2373 C2374 1.524 . S
C2373 H2376 0.999 . S
C2374 H2344 0.950 . S
C2374 C2373 1.524 . S
C2374 C2375 1.415 . S
C2375 H2345 0.950 . S
C2375 C2370 1.363 . S
C2375 C2374 1.415 . S
H2376 C2373 0.999 . S
H2377 C2358 0.913 . S
H2378 C2396 0.951 . S
H2379 C2398 0.951 . S
H2380 C2400 0.950 . S
H2381 C2401 0.950 . S
H2382 C2403 0.950 . S
H2383 C2406 0.950 . S
H2384 C2407 0.950 . S
H2385 C2409 0.950 . S
H2386 C2410 0.950 . S
H2387 C2411 0.951 . S
H2388 C2413 0.951 . S
H2389 C2415 0.950 . S
H2390 C2416 0.950 . S
H2391 C2418 0.950 . S
H2392 C2421 0.950 . S
H2393 C2422 0.950 . S
H2394 C2424 0.950 . S
H2395 C2425 0.950 . S
C2396 H2378 0.951 . S
C2396 C2397 1.366 . S
C2396 C2398 1.388 . S
C2397 C2396 1.366 . S
C2397 C2401 1.385 . S
C2398 H2379 0.951 . S
C2398 C2396 1.388 . S
C2398 C2399 1.366 . S
C2399 C2398 1.366 . S
C2399 C2400 1.414 . S
C2399 C2402 1.499 . S
C2400 H2380 0.950 . S
C2400 C2399 1.414 . S
C2400 C2401 1.374 . S
C2401 H2381 0.950 . S
C2401 C2397 1.385 . S
C2401 C2400 1.374 . S
C2402 C2399 1.499 . S
C2402 C2403 1.373 . S
C2402 C2404 1.389 . S
C2403 H2382 0.950 . S
C2403 C2402 1.373 . S
C2403 C2419 1.377 . S
C2404 C2402 1.389 . S
C2404 C2405 1.524 . S
C2404 C2418 1.377 . S
C2405 C2404 1.524 . S
C2405 C2406 1.397 . S
C2405 C2410 1.363 . S
C2406 H2383 0.950 . S
C2406 C2405 1.397 . S
C2406 C2407 1.334 . S
C2407 H2384 0.950 . S
C2407 C2406 1.334 . S
C2407 C2408 1.287 . S
C2408 C2407 1.287 . S
C2408 C2409 1.524 . S
C2408 H2427 0.913 . S
C2409 H2385 0.950 . S
C2409 C2408 1.524 . S
C2409 C2410 1.415 . S
C2410 H2386 0.950 . S
C2410 C2405 1.363 . S
C2410 C2409 1.415 . S
C2411 H2387 0.951 . S
C2411 C2412 1.366 . S
C2411 C2413 1.388 . S
C2412 C2411 1.366 . S
C2412 C2416 1.385 . S
C2413 H2388 0.951 . S
C2413 C2411 1.388 . S
C2413 C2414 1.366 . S
C2414 C2413 1.366 . S
C2414 C2415 1.414 . S
C2414 C2417 1.499 . S
C2415 H2389 0.950 . S
C2415 C2414 1.414 . S
C2415 C2416 1.374 . S
C2416 H2390 0.950 . S
C2416 C2412 1.385 . S
C2416 C2415 1.374 . S
C2417 C2414 1.499 . S
C2417 C2418 1.373 . S
C2417 C2419 1.389 . S
C2418 H2391 0.950 . S
C2418 C2404 1.377 . S
C2418 C2417 1.373 . S
C2419 C2403 1.377 . S
C2419 C2417 1.389 . S
C2419 C2420 1.524 . S
C2420 C2419 1.524 . S
C2420 C2421 1.397 . S
C2420 C2425 1.363 . S
C2421 H2392 0.950 . S
C2421 C2420 1.397 . S
C2421 C2422 1.334 . S
C2422 H2393 0.950 . S
C2422 C2421 1.334 . S
C2422 C2423 1.287 . S
C2423 C2422 1.287 . S
C2423 C2424 1.524 . S
C2423 H2426 0.999 . S
C2424 H2394 0.950 . S
C2424 C2423 1.524 . S
C2424 C2425 1.415 . S
C2425 H2395 0.950 . S
C2425 C2420 1.363 . S
C2425 C2424 1.415 . S
H2426 C2423 0.999 . S
H2427 C2408 0.913 . S
H2428 C2446 0.951 . S
H2429 C2448 0.951 . S
H2430 C2450 0.950 . S
H2431 C2451 0.950 . S
H2432 C2453 0.950 . S
H2433 C2456 0.950 . S
H2434 C2457 0.950 . S
H2435 C2459 0.950 . S
H2436 C2460 0.950 . S
H2437 C2461 0.951 . S
H2438 C2463 0.951 . S
H2439 C2465 0.950 . S
H2440 C2466 0.950 . S
H2441 C2468 0.950 . S
H2442 C2471 0.950 . S
H2443 C2472 0.950 . S
H2444 C2474 0.950 . S
H2445 C2475 0.950 . S
C2446 H2428 0.951 . S
C2446 C2447 1.366 . S
C2446 C2448 1.388 . S
C2447 C2446 1.366 . S
C2447 C2451 1.385 . S
C2448 H2429 0.951 . S
C2448 C2446 1.388 . S
C2448 C2449 1.366 . S
C2449 C2448 1.366 . S
C2449 C2450 1.414 . S
C2449 C2452 1.499 . S
C2450 H2430 0.950 . S
C2450 C2449 1.414 . S
C2450 C2451 1.374 . S
C2451 H2431 0.950 . S
C2451 C2447 1.385 . S
C2451 C2450 1.374 . S
C2452 C2449 1.499 . S
C2452 C2453 1.373 . S
C2452 C2454 1.389 . S
C2453 H2432 0.950 . S
C2453 C2452 1.373 . S
C2453 C2469 1.377 . S
C2454 C2452 1.389 . S
C2454 C2455 1.524 . S
C2454 C2468 1.377 . S
C2455 C2454 1.524 . S
C2455 C2456 1.397 . S
C2455 C2460 1.363 . S
C2456 H2433 0.950 . S
C2456 C2455 1.397 . S
C2456 C2457 1.334 . S
C2457 H2434 0.950 . S
C2457 C2456 1.334 . S
C2457 C2458 1.287 . S
C2458 C2457 1.287 . S
C2458 C2459 1.524 . S
C2458 H2477 0.913 . S
C2459 H2435 0.950 . S
C2459 C2458 1.524 . S
C2459 C2460 1.415 . S
C2460 H2436 0.950 . S
C2460 C2455 1.363 . S
C2460 C2459 1.415 . S
C2461 H2437 0.951 . S
C2461 C2462 1.366 . S
C2461 C2463 1.388 . S
C2462 C2461 1.366 . S
C2462 C2466 1.385 . S
C2463 H2438 0.951 . S
C2463 C2461 1.388 . S
C2463 C2464 1.366 . S
C2464 C2463 1.366 . S
C2464 C2465 1.414 . S
C2464 C2467 1.499 . S
C2465 H2439 0.950 . S
C2465 C2464 1.414 . S
C2465 C2466 1.374 . S
C2466 H2440 0.950 . S
C2466 C2462 1.385 . S
C2466 C2465 1.374 . S
C2467 C2464 1.499 . S
C2467 C2468 1.373 . S
C2467 C2469 1.389 . S
C2468 H2441 0.950 . S
C2468 C2454 1.377 . S
C2468 C2467 1.373 . S
C2469 C2453 1.377 . S
C2469 C2467 1.389 . S
C2469 C2470 1.524 . S
C2470 C2469 1.524 . S
C2470 C2471 1.397 . S
C2470 C2475 1.363 . S
C2471 H2442 0.950 . S
C2471 C2470 1.397 . S
C2471 C2472 1.334 . S
C2472 H2443 0.950 . S
C2472 C2471 1.334 . S
C2472 C2473 1.287 . S
C2473 C2472 1.287 . S
C2473 C2474 1.524 . S
C2473 H2476 0.999 . S
C2474 H2444 0.950 . S
C2474 C2473 1.524 . S
C2474 C2475 1.415 . S
C2475 H2445 0.950 . S
C2475 C2470 1.363 . S
C2475 C2474 1.415 . S
H2476 C2473 0.999 . S
H2477 C2458 0.913 . S
H2478 C2496 0.951 . S
H2479 C2498 0.951 . S
H2480 C2500 0.950 . S
H2481 C2501 0.950 . S
H2482 C2503 0.950 . S
H2483 C2506 0.950 . S
H2484 C2507 0.950 . S
H2485 C2509 0.950 . S
H2486 C2510 0.950 . S
H2487 C2511 0.951 . S
H2488 C2513 0.951 . S
H2489 C2515 0.950 . S
H2490 C2516 0.950 . S
H2491 C2518 0.950 . S
H2492 C2521 0.950 . S
H2493 C2522 0.950 . S
H2494 C2524 0.950 . S
H2495 C2525 0.950 . S
C2496 H2478 0.951 . S
C2496 C2497 1.366 . S
C2496 C2498 1.388 . S
C2497 C2496 1.366 . S
C2497 C2501 1.385 . S
C2498 H2479 0.951 . S
C2498 C2496 1.388 . S
C2498 C2499 1.366 . S
C2499 C2498 1.366 . S
C2499 C2500 1.414 . S
C2499 C2502 1.499 . S
C2500 H2480 0.950 . S
C2500 C2499 1.414 . S
C2500 C2501 1.374 . S
C2501 H2481 0.950 . S
C2501 C2497 1.385 . S
C2501 C2500 1.374 . S
C2502 C2499 1.499 . S
C2502 C2503 1.373 . S
C2502 C2504 1.389 . S
C2503 H2482 0.950 . S
C2503 C2502 1.373 . S
C2503 C2519 1.377 . S
C2504 C2502 1.389 . S
C2504 C2505 1.524 . S
C2504 C2518 1.377 . S
C2505 C2504 1.524 . S
C2505 C2506 1.397 . S
C2505 C2510 1.363 . S
C2506 H2483 0.950 . S
C2506 C2505 1.397 . S
C2506 C2507 1.334 . S
C2507 H2484 0.950 . S
C2507 C2506 1.334 . S
C2507 C2508 1.287 . S
C2508 C2507 1.287 . S
C2508 C2509 1.524 . S
C2508 H2527 0.913 . S
C2509 H2485 0.950 . S
C2509 C2508 1.524 . S
C2509 C2510 1.415 . S
C2510 H2486 0.950 . S
C2510 C2505 1.363 . S
C2510 C2509 1.415 . S
C2511 H2487 0.951 . S
C2511 C2512 1.366 . S
C2511 C2513 1.388 . S
C2512 C2511 1.366 . S
C2512 C2516 1.385 . S
C2513 H2488 0.951 . S
C2513 C2511 1.388 . S
C2513 C2514 1.366 . S
C2514 C2513 1.366 . S
C2514 C2515 1.414 . S
C2514 C2517 1.499 . S
C2515 H2489 0.950 . S
C2515 C2514 1.414 . S
C2515 C2516 1.374 . S
C2516 H2490 0.950 . S
C2516 C2512 1.385 . S
C2516 C2515 1.374 . S
C2517 C2514 1.499 . S
C2517 C2518 1.373 . S
C2517 C2519 1.389 . S
C2518 H2491 0.950 . S
C2518 C2504 1.377 . S
C2518 C2517 1.373 . S
C2519 C2503 1.377 . S
C2519 C2517 1.389 . S
C2519 C2520 1.524 . S
C2520 C2519 1.524 . S
C2520 C2521 1.397 . S
C2520 C2525 1.363 . S
C2521 H2492 0.950 . S
C2521 C2520 1.397 . S
C2521 C2522 1.334 . S
C2522 H2493 0.950 . S
C2522 C2521 1.334 . S
C2522 C2523 1.287 . S
C2523 C2522 1.287 . S
C2523 C2524 1.524 . S
C2523 H2526 0.999 . S
C2524 H2494 0.950 . S
C2524 C2523 1.524 . S
C2524 C2525 1.415 . S
C2525 H2495 0.950 . S
C2525 C2520 1.363 . S
C2525 C2524 1.415 . S
H2526 C2523 0.999 . S
H2527 C2508 0.913 . S
C547 N13 1.195 . S
C562 N2 1.194 . S
C597 N46 1.196 . S
C612 N35 1.194 . S
C647 N68 1.193 . S
C662 N79 1.195 . S
C697 N101 1.194 . S
C712 N112 1.195 . S
C747 N145 1.196 . S
C762 N134 1.194 . S
C797 N167 1.193 . S
C812 N178 1.195 . S
C847 N200 1.193 . S
C862 N211 1.195 . S
C897 N233 1.194 . S
C912 N244 1.196 . S
C947 N277 1.195 . S
C962 N266 1.194 . S
C997 N310 1.196 . S
C1012 N299 1.194 . S
C1047 N343 1.195 . S
C1062 N332 1.193 . S
C1097 N376 1.195 . S
C1112 N365 1.194 . S
C1147 N398 1.194 . S
C1162 N409 1.196 . S
C1197 N431 1.193 . S
C1212 N442 1.195 . S
C1247 N464 1.193 . S
C1262 N475 1.195 . S
C1297 N497 1.194 . S
C1312 N508 1.195 . S
C1347 C7 1.351 . S
C1362 C502 1.352 . S
C1397 C403 1.352 . S
C1412 C40 1.352 . S
C1447 C436 1.351 . S
C1462 C73 1.351 . S
C1497 C469 1.351 . S
C1512 C106 1.351 . S
C1547 C304 1.352 . S
C1562 C139 1.351 . S
C1597 C172 1.351 . S
C1612 C337 1.352 . S
C1647 C205 1.351 . S
C1662 C370 1.351 . S
C1697 C271 1.352 . S
C1712 C238 1.352 . S
C1747 C18 1.066 . S
C1762 C150 1.066 . S
C1797 C183 1.066 . S
C1812 C51 1.066 . S
C1847 C84 1.066 . S
C1862 C216 1.066 . S
C1897 C249 1.066 . S
C1912 C117 1.066 . S
C1947 C414 1.066 . S
C1962 C282 1.066 . S
C1997 C315 1.066 . S
C2012 C447 1.066 . S
C2047 C348 1.066 . S
C2062 C480 1.066 . S
C2097 C381 1.066 . S
C2112 C513 1.066 . S
C2147 C21 1.494 . S
C2162 C186 1.494 . S
C2197 C54 1.494 . S
C2212 C219 1.494 . S
C2247 C252 1.494 . S
C2262 C87 1.495 . S
C2297 C120 1.494 . S
C2312 C153 1.494 . S
C2347 C450 1.494 . S
C2362 C285 1.494 . S
C2397 C318 1.494 . S
C2412 C483 1.494 . S
C2447 C516 1.495 . S
C2462 C351 1.494 . S
C2497 C417 1.495 . S
C2512 C384 1.494 . S
