# Generated by pormake.
# Topology umf, (4)-cn, num edge types: 1
# Building blocks:
#     Node 0, Type 0, BuildingBlock: ESEHIV_clean_sbu_0, # of connection points: 4
#     Node 1, Type 0, BuildingBlock: ESEHIV_clean_sbu_0, # of connection points: 4
#     Node 2, Type 0, BuildingBlock: ESEHIV_clean_sbu_0, # of connection points: 4
#     Node 3, Type 0, BuildingBlock: ESEHIV_clean_sbu_0, # of connection points: 4
#     Node 4, Type 0, BuildingBlock: ESEHIV_clean_sbu_0, # of connection points: 4
#     Node 5, Type 0, BuildingBlock: ESEHIV_clean_sbu_0, # of connection points: 4
#     Node 6, Type 0, BuildingBlock: ESEHIV_clean_sbu_0, # of connection points: 4
#     Node 7, Type 0, BuildingBlock: ESEHIV_clean_sbu_0, # of connection points: 4
#     Edge 8, Type (0, 0), BuildingBlock: ZUJKAS_clean_linker_0, # of connection points: 2
#     Edge 9, Type (0, 0), BuildingBlock: ZUJKAS_clean_linker_0, # of connection points: 2
#     Edge 10, Type (0, 0), BuildingBlock: ZUJKAS_clean_linker_0, # of connection points: 2
#     Edge 11, Type (0, 0), BuildingBlock: ZUJKAS_clean_linker_0, # of connection points: 2
#     Edge 12, Type (0, 0), BuildingBlock: ZUJKAS_clean_linker_0, # of connection points: 2
#     Edge 13, Type (0, 0), BuildingBlock: ZUJKAS_clean_linker_0, # of connection points: 2
#     Edge 14, Type (0, 0), BuildingBlock: ZUJKAS_clean_linker_0, # of connection points: 2
#     Edge 15, Type (0, 0), BuildingBlock: ZUJKAS_clean_linker_0, # of connection points: 2
#     Edge 16, Type (0, 0), BuildingBlock: ZUJKAS_clean_linker_0, # of connection points: 2
#     Edge 17, Type (0, 0), BuildingBlock: ZUJKAS_clean_linker_0, # of connection points: 2
#     Edge 18, Type (0, 0), BuildingBlock: ZUJKAS_clean_linker_0, # of connection points: 2
#     Edge 19, Type (0, 0), BuildingBlock: ZUJKAS_clean_linker_0, # of connection points: 2
#     Edge 20, Type (0, 0), BuildingBlock: ZUJKAS_clean_linker_0, # of connection points: 2
#     Edge 21, Type (0, 0), BuildingBlock: ZUJKAS_clean_linker_0, # of connection points: 2
#     Edge 22, Type (0, 0), BuildingBlock: ZUJKAS_clean_linker_0, # of connection points: 2
#     Edge 23, Type (0, 0), BuildingBlock: ZUJKAS_clean_linker_0, # of connection points: 2
# Relax obj value: 0.063
# Max RMSD: 0.101
# Mean RMSD: 0.101
data_MOF--net-umf--node1-ESEHIV_clean_sbu_0--edge1-ZUJKAS_clean_linker_0
_symmetry_space_group_name_H-M    P1
_symmetry_Int_Tables_number       1
_symmetry_cell_setting            triclinic
loop_
_symmetry_equiv_pos_as_xyz
'x, y, z'
_cell_length_a     42.873004
_cell_length_b     42.602428
_cell_length_c     67.718558
_cell_angle_alpha  90.021338
_cell_angle_beta   89.841016
_cell_angle_gamma 89.751207
loop_
_atom_site_label
_atom_site_type_symbol
_atom_site_fract_x
_atom_site_fract_y
_atom_site_fract_z
_atom_type_partial_charge
Cu0 Cu 0.06625 0.26526 0.15749 0.0
N1 N 0.08858 0.23167 0.14647 0.0
N2 N 0.099 0.18083 0.14103 0.0
C3 C 0.08018 0.20183 0.15008 0.0
C4 C 0.12032 0.19826 0.13128 0.0
C5 C 0.1137 0.22972 0.13456 0.0
O6 O 0.06463 0.25447 0.18579 0.0
C7 C 0.03128 0.27774 0.12455 0.0
O8 O 0.05875 0.28883 0.11961 0.0
H9 H 0.06075 0.19574 0.15955 0.0
H10 H 0.12622 0.24957 0.12862 0.0
N11 N 0.08531 0.30498 0.15526 0.0
N12 N 0.08988 0.35755 0.15518 0.0
C13 C 0.07044 0.3328 0.15737 0.0
C14 C 0.11528 0.31228 0.15166 0.0
C15 C 0.11816 0.34454 0.1516 0.0
C16 C 0.09203 0.25129 0.19299 0.0
O17 O 0.11589 0.25734 0.18141 0.0
H18 H 0.04567 0.33467 0.16023 0.0
H19 H 0.13385 0.29539 0.14946 0.0
O20 O 0.02767 0.26629 0.14187 0.0
H21 H 0.13905 0.189 0.12222 0.0
H22 H 0.13967 0.35728 0.14943 0.0
Cu23 Cu 0.75302 0.04038 0.66702 0.0
N24 N 0.78695 0.01302 0.66875 0.0
N25 N 0.83597 0.99604 0.67208 0.0
C26 C 0.81559 0.01959 0.67566 0.0
C27 C 0.81946 0.97368 0.6627 0.0
C28 C 0.7892 0.98422 0.6607 0.0
O29 O 0.75982 0.07476 0.68574 0.0
C30 C 0.73548 0.03143 0.62755 0.0
O31 O 0.72224 1.00671 0.63548 0.0
H32 H 0.82186 0.04186 0.68216 0.0
H33 H 0.77045 0.97228 0.65319 0.0
N34 N 0.71726 0.01938 0.67562 0.0
N35 N 0.66734 1.00626 0.68048 0.0
C36 C 0.68722 0.02727 0.67241 0.0
C37 C 0.71642 0.99269 0.68619 0.0
C38 C 0.68574 0.98452 0.68919 0.0
C39 C 0.78137 0.09527 0.68525 0.0
O40 O 0.79948 0.09701 0.6696 0.0
H41 H 0.68021 0.04798 0.66427 0.0
H42 H 0.73676 0.97989 0.69118 0.0
O43 O 0.74938 0.05097 0.63881 0.0
H44 H 0.82879 0.95169 0.6572 0.0
H45 H 0.67771 0.96375 0.69683 0.0
Cu46 Cu 0.99579 0.77593 0.17079 0.0
N47 N 0.02697 0.80577 0.17484 0.0
N48 N 0.05173 0.85193 0.17343 0.0
C49 C 0.02509 0.83622 0.16958 0.0
C50 C 0.0711 0.83036 0.18146 0.0
C51 C 0.05577 0.80193 0.18231 0.0
O52 O 0.95965 0.79165 0.18583 0.0
C53 C 0.9771 0.75546 0.13114 0.0
O54 O 0.96149 0.73229 0.13921 0.0
H55 H 1.00477 0.84635 0.16255 0.0
H56 H 0.0651 0.77996 0.18775 0.0
N57 N 0.00922 0.73671 0.18059 0.0
N58 N 0.02233 0.68579 0.18387 0.0
C59 C 0.01301 0.7088 0.17131 0.0
C60 C 0.01676 0.73123 0.19953 0.0
C61 C 0.02481 0.70011 0.2016 0.0
C62 C 0.94139 0.77488 0.19631 0.0
O63 O 0.94391 0.74417 0.19553 0.0
H64 H 0.00875 0.70537 0.15575 0.0
H65 H 0.0163 0.74878 0.21107 0.0
O66 O 0.99063 0.77545 0.14212 0.0
H67 H 0.09465 0.83473 0.18643 0.0
H68 H 0.03224 0.6891 0.2152 0.0
Cu69 Cu 0.24661 0.97378 0.66727 0.0
N70 N 0.21481 1.00317 0.67045 0.0
N71 N 0.16666 0.02193 0.67487 0.0
C72 C 0.18559 0.99669 0.67637 0.0
C73 C 0.1847 0.04525 0.66778 0.0
C74 C 0.21451 0.0336 0.66513 0.0
O75 O 0.23271 0.93682 0.68219 0.0
C76 C 0.26536 0.98884 0.62872 0.0
O77 O 0.27871 0.01204 0.63822 0.0
H78 H 0.17795 0.97346 0.68062 0.0
H79 H 0.23425 0.04609 0.65908 0.0
N80 N 0.28325 0.99008 0.67808 0.0
N81 N 0.33354 1.00065 0.68371 0.0
C82 C 0.31304 0.9835 0.67309 0.0
C83 C 0.2849 0.01197 0.69233 0.0
C84 C 0.3158 0.01854 0.69584 0.0
C85 C 0.24842 0.92403 0.69602 0.0
O86 O 0.27746 0.9326 0.69879 0.0
H87 H 0.31941 0.9665 0.6619 0.0
H88 H 0.26494 0.02269 0.69948 0.0
O89 O 0.25093 0.9679 0.63863 0.0
H90 H 0.17674 0.06876 0.66434 0.0
H91 H 0.32441 0.03577 0.70619 0.0
Cu92 Cu 0.04288 0.75973 0.88361 0.0
N93 N 0.01146 0.78981 0.8822 0.0
N94 N 0.98928 0.83715 0.8802 0.0
C95 C 0.01541 0.82005 0.87716 0.0
C96 C 0.96802 0.81679 0.88735 0.0
C97 C 0.98179 0.78751 0.88852 0.0
O98 O 0.07785 0.77674 0.86832 0.0
C99 C 0.05279 0.77522 0.92377 0.0
O100 O 0.05432 0.80395 0.91679 0.0
H101 H 0.03759 0.8297 0.87257 0.0
H102 H 0.97141 0.76636 0.89438 0.0
N103 N 0.02831 0.7228 0.87211 0.0
N104 N 0.01616 0.67243 0.86711 0.0
C105 C 0.02846 0.69359 0.87976 0.0
C106 C 0.01533 0.72014 0.85414 0.0
C107 C 0.00789 0.68912 0.85098 0.0
C108 C 0.09366 0.7611 0.8557 0.0
O109 O 0.08979 0.73058 0.85456 0.0
H110 H 0.03783 0.68796 0.89415 0.0
H111 H 0.01163 0.73947 0.84405 0.0
O112 O 0.05055 0.75242 0.91167 0.0
H113 H 0.94453 0.8228 0.89193 0.0
H114 H 0.99688 0.6797 0.83791 0.0
Cu115 Cu 0.24408 0.05311 0.38041 0.0
N116 N 0.21379 0.02284 0.37496 0.0
N117 N 0.16698 1.00243 0.36832 0.0
C118 C 0.18477 0.02847 0.36829 0.0
C119 C 0.18581 0.97929 0.37503 0.0
C120 C 0.2147 0.99196 0.37906 0.0
O121 O 0.23137 0.09127 0.36628 0.0
C122 C 0.22572 0.05018 0.42081 0.0
O123 O 0.19817 0.04433 0.41327 0.0
H124 H 0.17624 0.05157 0.36456 0.0
H125 H 0.23455 0.97984 0.38534 0.0
N126 N 0.282 0.0391 0.36971 0.0
N127 N 0.33263 0.0281 0.36478 0.0
C128 C 0.31113 0.04075 0.3772 0.0
C129 C 0.28515 0.02486 0.35211 0.0
C130 C 0.31619 0.01806 0.34902 0.0
C131 C 0.20651 0.10679 0.36996 0.0
O132 O 0.19056 0.10029 0.38603 0.0
H133 H 0.31643 0.05135 0.39132 0.0
H134 H 0.26607 0.01971 0.34222 0.0
O135 O 0.24824 0.05685 0.4092 0.0
H136 H 0.17902 0.95515 0.37741 0.0
H137 H 0.32577 1.00619 0.33623 0.0
Cu138 Cu 0.94156 0.25459 0.89049 0.0
N139 N 0.96916 0.22073 0.89156 0.0
N140 N 0.98813 0.17193 0.89009 0.0
C141 C 0.96482 0.19145 0.88465 0.0
C142 C 0.00802 0.1897 0.90066 0.0
C143 C 0.99626 0.21982 0.9015 0.0
O144 O 0.91075 0.24635 0.86977 0.0
C145 C 0.92207 0.23949 0.92956 0.0
O146 O 0.92236 0.21058 0.92283 0.0
H147 H 0.94426 0.18419 0.87668 0.0
H148 H 1.00616 0.23947 0.90938 0.0
N149 N 0.96435 0.28955 0.88242 0.0
N150 N 0.98156 0.33871 0.87852 0.0
C151 C 0.96118 0.31976 0.88806 0.0
C152 C 0.98733 0.2893 0.8689 0.0
C153 C 0.99798 0.31947 0.86645 0.0
C154 C 0.89083 0.22423 0.86933 0.0
O155 O 0.88696 0.20662 0.88505 0.0
H156 H 0.94431 0.32754 0.89894 0.0
H157 H 0.99547 0.26859 0.86117 0.0
O158 O 0.92665 0.26203 0.9175 0.0
H159 H 0.02918 0.18139 0.90764 0.0
H160 H 0.01591 0.32667 0.85616 0.0
Cu161 Cu 0.75322 0.97103 0.37943 0.0
N162 N 0.78561 0.99895 0.37432 0.0
N163 N 0.83451 0.01476 0.36896 0.0
C164 C 0.81504 0.99006 0.37019 0.0
C165 C 0.81644 0.04033 0.37213 0.0
C166 C 0.78622 0.03046 0.37552 0.0
O167 O 0.76603 0.93269 0.3652 0.0
C168 C 0.77269 0.97002 0.41975 0.0
O169 O 0.80076 0.97156 0.41203 0.0
H170 H 0.82211 0.96577 0.36868 0.0
H171 H 0.76636 0.04508 0.37922 0.0
N172 N 0.71583 0.98798 0.36967 0.0
N173 N 0.66544 1.00139 0.36639 0.0
C174 C 0.68657 0.98435 0.37674 0.0
C175 C 0.71314 1.00793 0.35438 0.0
C176 C 0.68223 0.01614 0.35228 0.0
C177 C 0.75563 0.92588 0.34807 0.0
O178 O 0.73165 0.9416 0.34114 0.0
H179 H 0.68108 0.97005 0.38948 0.0
H180 H 0.73241 0.01597 0.3454 0.0
O181 O 0.74931 0.96706 0.40828 0.0
H182 H 0.82468 0.06428 0.37281 0.0
H183 H 0.6729 0.03159 0.34106 0.0
H184 H 0.03873 0.38439 0.17257 0.0
H185 H 0.02654 0.44026 0.17528 0.0
H186 H 0.11137 0.46273 0.14421 0.0
H187 H 0.12361 0.40695 0.1411 0.0
H188 H 0.10268 0.49777 0.17891 0.0
H189 H 0.99666 0.50148 0.13213 0.0
H190 H 0.99586 0.47228 0.15126 0.0
H191 H 0.02391 0.46903 0.13159 0.0
C192 C 0.05467 0.40103 0.16602 0.0
C193 C 0.08224 0.39075 0.15657 0.0
C194 C 0.0476 0.43312 0.16759 0.0
C195 C 0.06783 0.45579 0.15974 0.0
C196 C 0.09534 0.44572 0.15035 0.0
H197 H 0.03374 0.65853 0.14794 0.0
H198 H 0.04472 0.60301 0.14132 0.0
C199 C 0.10239 0.41366 0.1487 0.0
C200 C 0.06099 0.48999 0.162 0.0
H201 H 0.00771 0.54737 0.15087 0.0
C202 C 0.08198 0.50861 0.1727 0.0
C203 C 0.03415 0.5043 0.15372 0.0
C204 C 0.01144 0.48587 0.14137 0.0
C205 C 0.0765 0.54084 0.17576 0.0
C206 C 0.04917 0.55494 0.16804 0.0
C207 C 0.02855 0.53654 0.1569 0.0
C208 C 0.04136 0.58855 0.17185 0.0
C209 C 0.10012 0.55965 0.18717 0.0
C210 C 0.03515 0.59885 0.19114 0.0
C211 C 0.02861 0.63048 0.19498 0.0
C212 C 0.02815 0.65283 0.17962 0.0
C213 C 0.03374 0.64225 0.16019 0.0
C214 C 0.04014 0.61044 0.15636 0.0
H215 H 0.12303 0.54744 0.18797 0.0
H216 H 0.10355 0.5831 0.18037 0.0
H217 H 0.0915 0.56322 0.20248 0.0
H218 H 0.03532 0.58232 0.2033 0.0
H219 H 0.02371 0.63724 0.21006 0.0
H220 H 0.37499 0.01853 0.71174 0.0
H221 H 0.43166 0.02036 0.70876 0.0
H222 H 0.42579 0.98435 0.64941 0.0
H223 H 0.36888 0.98289 0.6521 0.0
H224 H 0.47126 0.95414 0.67336 0.0
H225 H 0.48249 0.08377 0.67575 0.0
H226 H 0.45986 0.06767 0.69565 0.0
H227 H 0.44598 0.06439 0.67071 0.0
C228 C 0.38559 0.01133 0.69795 0.0
C229 C 0.36717 1.00078 0.68211 0.0
C230 C 0.41806 0.01238 0.69628 0.0
C231 C 0.43289 1.00298 0.67876 0.0
C232 C 0.41476 0.99186 0.66304 0.0
H233 H 0.63051 0.0346 0.65302 0.0
H234 H 0.57351 0.03362 0.65138 0.0
C235 C 0.38221 0.99087 0.66466 0.0
C236 C 0.46737 1.00419 0.67708 0.0
H237 H 0.52936 0.05413 0.67967 0.0
C238 C 0.48398 0.97601 0.67459 0.0
C239 C 0.48388 0.0328 0.67841 0.0
C240 C 0.46719 0.06394 0.68009 0.0
C241 C 0.51674 0.97556 0.67408 0.0
C242 C 0.53328 1.00401 0.67636 0.0
C243 C 0.51664 0.03231 0.67814 0.0
C244 C 0.56783 1.00477 0.6774 0.0
C245 C 0.53339 0.94464 0.67108 0.0
C246 C 0.5835 0.98939 0.69278 0.0
C247 C 0.61604 0.99009 0.69386 0.0
C248 C 0.63366 1.00631 0.6796 0.0
C249 C 0.61779 0.02214 0.66436 0.0
C250 C 0.58519 0.02145 0.66332 0.0
H251 H 0.51785 0.9268 0.66436 0.0
H252 H 0.55424 0.94753 0.6615 0.0
H253 H 0.54126 0.93556 0.6856 0.0
H254 H 0.57052 0.977 0.70408 0.0
H255 H 0.62732 0.97818 0.70602 0.0
H256 H 0.93831 0.38064 0.89218 0.0
H257 H 0.94312 0.43775 0.89337 0.0
H258 H 0.03596 0.43092 0.8691 0.0
H259 H 0.03199 0.37392 0.86869 0.0
H260 H 0.03279 0.47367 0.89883 0.0
H261 H 0.93688 0.4942 0.84536 0.0
H262 H 0.92563 0.47239 0.86689 0.0
H263 H 0.95322 0.45576 0.84974 0.0
C264 C 0.95992 0.39116 0.88731 0.0
C265 C 0.98461 0.37245 0.8801 0.0
C266 C 0.96248 0.42393 0.88779 0.0
C267 C 0.98965 0.4387 0.88092 0.0
C268 C 0.01465 0.42009 0.87431 0.0
H269 H 0.01562 0.62739 0.83887 0.0
H270 H 0.00891 0.57101 0.84358 0.0
C271 C 0.01219 0.3874 0.87392 0.0
C272 C 0.99212 0.4735 0.88026 0.0
H273 H 0.96009 0.5391 0.85939 0.0
C274 C 0.01683 0.48801 0.89028 0.0
C275 C 0.97151 0.49216 0.86888 0.0
C276 C 0.94548 0.47789 0.85694 0.0
C277 C 0.02165 0.52059 0.88911 0.0
C278 C 1.00079 0.53928 0.87793 0.0
C279 C 0.97593 0.52479 0.86806 0.0
C280 C 1.00516 0.57366 0.87541 0.0
C281 C 0.04965 0.5345 0.89928 0.0
C282 C 1.00513 0.59403 0.89173 0.0
C283 C 0.00906 0.62639 0.88906 0.0
C284 C 0.01269 0.63904 0.87 0.0
C285 C 0.01251 0.61854 0.85372 0.0
C286 C 0.00878 0.58625 0.8564 0.0
H287 H 0.06737 0.51631 0.90293 0.0
H288 H 0.0608 0.55269 0.88992 0.0
H289 H 0.04206 0.54574 0.91329 0.0
H290 H 1.00167 0.58498 0.90651 0.0
H291 H 0.0086 0.64155 0.90189 0.0
H292 H 0.37678 0.02449 0.33608 0.0
H293 H 0.43285 0.01802 0.34024 0.0
H294 H 0.42145 0.0201 0.40348 0.0
H295 H 0.36489 0.02644 0.39944 0.0
H296 H 0.47108 0.0566 0.39048 0.0
H297 H 0.47794 0.9381 0.35723 0.0
H298 H 0.45899 0.96598 0.34139 0.0
H299 H 0.44145 0.95584 0.36469 0.0
C300 C 0.38599 0.02321 0.35091 0.0
C301 C 0.36607 0.02558 0.36742 0.0
C302 C 0.41818 0.01949 0.35326 0.0
C303 C 0.43137 0.01783 0.37217 0.0
C304 C 0.41178 0.02104 0.38873 0.0
H305 H 0.62748 0.95897 0.38447 0.0
H306 H 0.57079 0.96264 0.3887 0.0
C307 C 0.37944 0.02481 0.38639 0.0
C308 C 0.46568 0.01334 0.37443 0.0
H309 H 0.52619 0.96578 0.3603 0.0
C310 C 0.4831 0.03657 0.38407 0.0
C311 C 0.48142 0.98692 0.36642 0.0
C312 C 0.46397 0.96012 0.35703 0.0
C313 C 0.51586 0.03482 0.38509 0.0
C314 C 0.53171 1.00942 0.37593 0.0
C315 C 0.51417 0.98547 0.36712 0.0
C316 C 0.56641 1.00793 0.3745 0.0
C317 C 0.53314 0.06025 0.39598 0.0
C318 C 0.58292 0.03204 0.36505 0.0
C319 C 0.6153 0.03009 0.36271 0.0
C320 C 0.63208 1.00379 0.36959 0.0
C321 C 0.6155 0.9797 0.37917 0.0
C322 C 0.58301 0.9817 0.38151 0.0
H323 H 0.51805 0.0717 0.40726 0.0
H324 H 0.55427 0.05079 0.40337 0.0
H325 H 0.54051 0.07856 0.38531 0.0
H326 H 0.57069 0.05222 0.35912 0.0
H327 H 0.62714 0.04928 0.35546 0.0
H328 H 0.93834 0.2931 0.94964 0.0
H329 H 0.94686 0.29869 0.98523 0.0
H330 H 0.91471 0.20405 0.99439 0.0
H331 H 0.90693 0.198 0.95884 0.0
H332 H 0.91088 0.29392 1.01874 0.0
H333 H 1.00074 0.19967 1.01827 0.0
H334 H 0.98498 0.21606 0.99586 0.0
H335 H 0.96325 0.18732 1.00959 0.0
C336 C 0.93265 0.27361 0.95925 0.0
C337 C 0.92225 0.24497 0.9513 0.0
C338 C 0.9376 0.27681 0.97963 0.0
C339 C 0.93222 0.25152 0.99252 0.0
C340 C 0.91993 0.22362 0.98475 0.0
H341 H 0.98905 0.23059 0.11716 0.0
H342 H 0.95883 0.22357 0.08657 0.0
C343 C 0.91524 0.22029 0.96439 0.0
C344 C 0.94078 0.25392 1.01386 0.0
H345 H 0.98844 0.22209 0.04912 0.0
C346 C 0.92771 0.2781 0.02539 0.0
C347 C 0.96277 0.23328 1.02266 0.0
C348 C 0.979 0.2078 1.01095 0.0
C349 C 0.93622 0.28235 0.0453 0.0
C350 C 0.95862 0.2621 0.05393 0.0
C351 C 0.97102 0.23741 0.04259 0.0
C352 C 0.97225 0.26813 0.07383 0.0
C353 C 0.92127 0.30864 0.0569 0.0
C354 C 0.98931 0.29568 0.07704 0.0
C355 C 1.00657 0.29957 0.09433 0.0
C356 C 0.0071 0.27614 0.10895 0.0
C357 C 0.98863 0.24928 0.10633 0.0
C358 C 0.97159 0.24517 0.08879 0.0
H359 H 0.8983 0.31542 0.0506 0.0
H360 H 0.91797 0.30196 0.07262 0.0
H361 H 0.93661 0.32954 0.05635 0.0
H362 H 0.99077 0.31346 0.06565 0.0
H363 H 0.02079 0.3204 0.09586 0.0
H364 H 0.78167 0.05679 0.60422 0.0
H365 H 0.78771 0.05035 0.56825 0.0
H366 H 0.69919 1.003 0.56574 0.0
H367 H 0.69326 1.00889 0.60147 0.0
H368 H 0.78406 0.98429 0.54976 0.0
H369 H 0.69935 0.07046 0.51903 0.0
H370 H 0.71732 0.07549 0.54294 0.0
H371 H 0.68668 0.04741 0.53982 0.0
C372 C 0.76316 0.04577 0.5959 0.0
C373 C 0.73696 0.03342 0.60567 0.0
C374 C 0.76672 0.04191 0.57539 0.0
C375 C 0.74382 0.02628 0.56431 0.0
C376 C 0.717 0.01536 0.57394 0.0
H377 H 0.71855 0.96755 0.44182 0.0
H378 H 0.71204 0.9802 0.47697 0.0
C379 C 0.71368 0.01874 0.59438 0.0
C380 C 0.74887 0.01875 0.54306 0.0
H381 H 0.72142 0.03386 0.49667 0.0
C382 C 0.77062 0.99533 0.5381 0.0
C383 C 0.73086 0.0327 0.52795 0.0
C384 C 0.70731 0.05807 0.53256 0.0
C385 C 0.77448 0.98507 0.51848 0.0
C386 C 0.75675 0.99931 0.50322 0.0
C387 C 0.73504 0.02287 0.50825 0.0
C388 C 0.76079 0.99052 0.48197 0.0
C389 C 0.79673 0.95825 0.51446 0.0
C390 C 0.79027 0.99214 0.47295 0.0
C391 C 0.7941 0.98449 0.45299 0.0
C392 C 0.76845 0.97557 0.44134 0.0
C393 C 0.73885 0.97409 0.45034 0.0
C394 C 0.73508 0.98148 0.47043 0.0
H395 H 0.80032 0.94357 0.52783 0.0
H396 H 0.78816 0.94298 0.50237 0.0
H397 H 0.81975 0.96785 0.51008 0.0
H398 H 0.81035 0.99989 0.48125 0.0
H399 H 0.81719 0.98635 0.44658 0.0
H400 H 1.003 0.80306 0.1096 0.0
H401 H 0.01524 0.8037 0.07436 0.0
H402 H 0.97636 0.71105 0.06813 0.0
H403 H 0.96332 0.71053 0.10337 0.0
H404 H 0.05418 0.76558 0.05428 0.0
H405 H 0.93553 0.75563 1.02248 0.0
H406 H 0.94201 0.76454 0.04819 0.0
H407 H 0.94511 0.72476 0.03946 0.0
C408 C 0.99662 0.78294 0.10072 0.0
C409 C 0.98202 0.75678 0.10937 0.0
C410 C 1.00374 0.78332 0.08053 0.0
C411 C 0.99648 0.75758 0.06845 0.0
C412 C 0.9816 0.73152 0.07698 0.0
H413 H 0.03531 0.72129 0.94307 0.0
H414 H 0.02336 0.71515 0.9783 0.0
C415 C 0.97424 0.73121 0.09719 0.0
C416 C 1.0059 0.75765 0.04719 0.0
H417 H 0.97797 0.7516 1.00006 0.0
C418 C 0.03746 0.76257 0.04245 0.0
C419 C 0.98418 0.7536 0.03167 0.0
C420 C 0.94977 0.74962 0.03564 0.0
C421 C 0.04784 0.76356 1.02273 0.0
C422 C 0.0261 0.7598 1.00725 0.0
C423 C 0.99465 0.75436 1.01194 0.0
C424 C 0.03528 0.76284 0.9861 0.0
C425 C 0.08208 0.7684 1.01862 0.0
C426 C 0.04614 0.79162 0.97877 0.0
C427 C 0.05291 0.79523 0.95866 0.0
C428 C 0.04902 0.77012 0.94539 0.0
C429 C 0.03883 0.74106 0.95286 0.0
C430 C 0.03182 0.73754 0.97299 0.0
H431 H 0.09662 0.76283 0.03172 0.0
H432 H 0.09 0.75363 1.00604 0.0
H433 H 0.08606 0.79334 1.01467 0.0
H434 H 0.04857 0.81161 0.98852 0.0
H435 H 0.06055 0.81798 0.95345 0.0
H436 H 0.27931 0.05999 0.44237 0.0
H437 H 0.28796 0.04796 0.47745 0.0
H438 H 0.19295 0.01651 0.48282 0.0
H439 H 0.18394 0.02864 0.44807 0.0
H440 H 0.24807 0.07118 0.51256 0.0
H441 H 0.25167 0.94156 0.5027 0.0
H442 H 0.26001 0.9685 0.48278 0.0
H443 H 0.22052 0.96257 0.49069 0.0
C444 C 0.26019 0.05075 0.45106 0.0
C445 C 0.23093 0.04529 0.44233 0.0
C446 C 0.2652 0.04381 0.47108 0.0
C447 C 0.2412 0.03094 0.48265 0.0
C448 C 0.21189 0.02605 0.4741 0.0
H449 H 0.22229 0.96256 0.60362 0.0
H450 H 0.21716 0.97206 0.56797 0.0
C451 C 0.20677 0.0332 0.45421 0.0
C452 C 0.24649 0.02276 0.50374 0.0
H453 H 0.2523 0.9606 0.53548 0.0
C454 C 0.24924 0.04703 0.51759 0.0
C455 C 0.24753 0.99124 0.51027 0.0
C456 C 0.24498 0.96433 0.49589 0.0
C457 C 0.25247 0.04066 0.53787 0.0
C458 C 0.25402 1.00906 0.54445 0.0
C459 C 0.25125 0.98478 0.53052 0.0
C460 C 0.25851 1.00088 0.56571 0.0
C461 C 0.25311 0.06797 0.55208 0.0
C462 C 0.2841 0.01271 0.57619 0.0
C463 C 0.28687 1.00758 0.5965 0.0
C464 C 0.26449 0.98986 0.6068 0.0
C465 C 0.23995 0.97623 0.59611 0.0
C466 C 0.23694 0.98178 0.57575 0.0
H467 H 0.24215 0.08927 0.5456 0.0
H468 H 0.24083 0.06225 0.56607 0.0
H469 H 0.2777 0.07374 0.55558 0.0
H470 H 0.30167 0.02656 0.56873 0.0
H471 H 0.30629 0.01808 0.60425 0.0
H472 H 0.05065 0.23731 0.2236 0.0
H473 H 0.06413 0.21739 0.25678 0.0
H474 H 0.16149 0.21724 0.24074 0.0
H475 H 0.14864 0.23737 0.20839 0.0
H476 H 0.09514 0.16276 0.26846 0.0
H477 H 0.16391 0.26536 0.29188 0.0
H478 H 0.13826 0.26661 0.2708 0.0
H479 H 0.17721 0.25091 0.26846 0.0
C480 C 0.0749 0.23326 0.22727 0.0
C481 C 0.0985 0.23939 0.21331 0.0
C482 C 0.0826 0.22184 0.24622 0.0
C483 C 0.11397 0.21654 0.2515 0.0
C484 C 0.13725 0.22204 0.23738 0.0
H485 H 0.23309 0.12673 0.33523 0.0
H486 H 0.20778 0.15495 0.30808 0.0
C487 C 0.1297 0.23346 0.2187 0.0
C488 C 0.12313 0.20431 0.27135 0.0
H489 H 0.17529 0.21664 0.30873 0.0
C490 C 0.11215 0.17483 0.27748 0.0
C491 C 0.14535 0.22001 0.28324 0.0
C492 C 0.1566 0.25262 0.27836 0.0
C493 C 0.12411 0.15996 0.29448 0.0
C494 C 0.14758 0.17498 0.30569 0.0
C495 C 0.15757 0.20496 0.30003 0.0
C496 C 0.1631 0.15932 0.32275 0.0
C497 C 0.11265 0.12763 0.29986 0.0
C498 C 0.14669 0.15312 0.34027 0.0
C499 C 0.1612 0.13727 0.35593 0.0
C500 C 0.19245 0.12711 0.35438 0.0
C501 C 0.20906 0.13418 0.33699 0.0
C502 C 0.19459 0.15026 0.32141 0.0
H503 H 0.09794 0.11727 0.28808 0.0
H504 H 0.13266 0.11165 0.30274 0.0
H505 H 0.09855 0.12908 0.3136 0.0
H506 H 0.12251 0.16026 0.34176 0.0
H507 H 0.1476 0.13218 0.36903 0.0
H508 H 0.84633 0.1792 0.86281 0.0
H509 H 0.82541 0.16158 0.83104 0.0
H510 H 0.88021 0.23136 0.80091 0.0
H511 H 0.90117 0.24926 0.83254 0.0
H512 H 0.79332 0.19803 0.79923 0.0
H513 H 0.90613 0.14463 0.77581 0.0
H514 H 0.89746 0.15377 0.8013 0.0
H515 H 0.90747 0.18457 0.78439 0.0
C516 C 0.85372 0.19107 0.84947 0.0
C517 C 0.87557 0.21563 0.85031 0.0
C518 C 0.84172 0.18093 0.8313 0.0
C519 C 0.85153 0.19487 0.81356 0.0
C520 C 0.87257 0.21999 0.81437 0.0
H521 H 0.82526 0.14154 0.68985 0.0
H522 H 0.84051 0.16804 0.72042 0.0
C523 C 0.88441 0.23031 0.83252 0.0
C524 C 0.84048 0.18254 0.7942 0.0
H525 H 0.86496 0.14325 0.7529 0.0
C526 C 0.80894 0.18605 0.78908 0.0
C527 C 0.86091 0.16708 0.7809 0.0
C528 C 0.89486 0.16199 0.78582 0.0
C529 C 0.79737 0.17481 0.77095 0.0
C530 C 0.81769 0.15877 0.75776 0.0
C531 C 0.84931 0.15552 0.76289 0.0
C532 C 0.80665 0.1444 0.73886 0.0
C533 C 0.76361 0.1809 0.76597 0.0
C534 C 0.7824 0.1223 0.73886 0.0
C535 C 0.7734 0.10735 0.72135 0.0
C536 C 0.78874 0.11372 0.70338 0.0
C537 C 0.8128 0.1361 0.70335 0.0
C538 C 0.82164 0.15123 0.72087 0.0
H539 H 0.75436 0.20169 0.77402 0.0
H540 H 0.76042 0.18477 0.74988 0.0
H541 H 0.7495 0.16031 0.77044 0.0
H542 H 0.77096 0.11584 0.75253 0.0
H543 H 0.75502 0.09001 0.72205 0.0
H544 H 0.7347 0.89827 0.31427 0.0
H545 H 0.76502 0.86974 0.28944 0.0
H546 H 0.84739 0.87878 0.32538 0.0
H547 H 0.81685 0.90653 0.3506 0.0
H548 H 0.81121 0.8907 0.26779 0.0
H549 H 0.85512 0.78848 0.30994 0.0
H550 H 0.82479 0.81394 0.31933 0.0
H551 H 0.86512 0.82514 0.32125 0.0
C552 C 0.75913 0.8936 0.31712 0.0
C553 C 0.77323 0.90455 0.33454 0.0
C554 C 0.77653 0.87738 0.30282 0.0
C555 C 0.80858 0.87174 0.30546 0.0
C556 C 0.82261 0.88204 0.32308 0.0
H557 H 0.93821 0.83686 0.20748 0.0
H558 H 0.90603 0.86023 0.23353 0.0
C559 C 0.80509 0.898 0.33754 0.0
C560 C 0.82741 0.85702 0.28919 0.0
H561 H 0.87873 0.79757 0.27854 0.0
C562 C 0.82584 0.87022 0.27018 0.0
C563 C 0.84632 0.83004 0.29207 0.0
C564 C 0.84774 0.81336 0.3117 0.0
C565 C 0.8427 0.85755 0.25414 0.0
C566 C 0.86255 0.83132 0.25719 0.0
C567 C 0.86385 0.81785 0.27614 0.0
C568 C 0.88186 0.81727 0.24092 0.0
C569 C 0.8384 0.87205 0.234 0.0
C570 C 0.8797 0.7851 0.2365 0.0
C571 C 0.89841 0.77156 0.22172 0.0
C572 C 0.9198 0.78983 0.21093 0.0
C573 C 0.92175 0.8221 0.21525 0.0
C574 C 0.9032 0.83557 0.23016 0.0
H575 H 0.81588 0.88494 0.23294 0.0
H576 H 0.8574 0.88912 0.23126 0.0
H577 H 0.83917 0.85397 0.22219 0.0
H578 H 0.86354 0.77036 0.24455 0.0
H579 H 0.89631 0.74664 0.2189 0.0
H580 H 0.18575 0.91268 0.70087 0.0
H581 H 0.16048 0.88428 0.72796 0.0
H582 H 0.25061 0.86014 0.75176 0.0
H583 H 0.27599 0.88899 0.72504 0.0
H584 H 0.16189 0.82398 0.74089 0.0
H585 H 0.20976 0.90168 0.79887 0.0
H586 H 0.21241 0.91094 0.77293 0.0
H587 H 0.23949 0.88373 0.78393 0.0
C588 C 0.20022 0.90105 0.71175 0.0
C589 C 0.23295 0.90336 0.71082 0.0
C590 C 0.18572 0.88488 0.72729 0.0
C591 C 0.20357 0.87069 0.74225 0.0
C592 C 0.23624 0.87165 0.74078 0.0
H593 H 0.1329 0.73505 0.82814 0.0
H594 H 0.16 0.76148 0.80107 0.0
C595 C 0.25075 0.88795 0.72535 0.0
C596 C 0.18808 0.85521 0.75945 0.0
H597 H 0.18412 0.85552 0.80994 0.0
C598 C 0.16672 0.83093 0.75598 0.0
C599 C 0.19386 0.8646 0.7792 0.0
C600 C 0.21487 0.89187 0.784 0.0
C601 C 0.15149 0.81546 0.77163 0.0
C602 C 0.15828 0.82396 0.7914 0.0
C603 C 0.17919 0.84863 0.79485 0.0
C604 C 0.14342 0.80801 0.80867 0.0
C605 C 0.12772 0.79063 0.76675 0.0
C606 C 0.1263 0.82543 0.82265 0.0
C607 C 0.11114 0.8104 0.83839 0.0
C608 C 0.11277 0.77756 0.84051 0.0
C609 C 0.13091 0.76033 0.82691 0.0
C610 C 0.14621 0.7754 0.81127 0.0
H611 H 0.11872 0.79332 0.75147 0.0
H612 H 0.13881 0.76713 0.76787 0.0
H613 H 0.10768 0.79151 0.77717 0.0
H614 H 0.12397 0.85064 0.8211 0.0
H615 H 0.09736 0.82446 0.84852 0.0
H616 H 0.04624 0.14705 0.14615 0.0
H617 H 0.04193 0.0903 0.15014 0.0
H618 H 0.14119 0.08052 0.14171 0.0
H619 H 0.1458 0.13768 0.13809 0.0
H620 H 0.05911 0.04134 0.124 0.0
H621 H 0.12476 0.03502 0.19463 0.0
H622 H 0.10992 0.07153 0.18482 0.0
H623 H 0.14438 0.05396 0.17442 0.0
C624 C 0.06724 0.13293 0.14528 0.0
C625 C 0.09645 0.14703 0.14205 0.0
C626 C 0.06469 0.10042 0.14744 0.0
C627 C 0.09127 0.08117 0.14654 0.0
C628 C 0.12042 0.09497 0.14279 0.0
H629 H 0.10845 0.87872 0.16727 0.0
H630 H 0.11916 0.93385 0.15988 0.0
C631 C 0.12299 0.12761 0.14053 0.0
C632 C 0.08813 0.04675 0.14964 0.0
H633 H 0.10648 0.98729 0.18152 0.0
C634 C 0.06957 0.02948 0.13653 0.0
C635 C 0.10182 0.03128 0.16598 0.0
C636 C 0.12116 0.04882 0.1809 0.0
C637 C 0.06427 0.99724 0.13931 0.0
C638 C 0.07731 0.98191 0.15593 0.0
C639 C 0.09642 0.99903 0.16882 0.0
C640 C 0.07076 0.94836 0.16046 0.0
C641 C 0.04497 0.97983 0.1243 0.0
C642 C 0.04003 0.93819 0.16362 0.0
C643 C 0.03383 0.90668 0.16789 0.0
C644 C 0.05824 0.8846 0.1693 0.0
C645 C 0.08908 0.895 0.16647 0.0
C646 C 0.09525 0.92654 0.16215 0.0
H647 H 0.04463 0.99219 0.10986 0.0
H648 H 0.05397 0.95563 0.12198 0.0
H649 H 0.02056 0.97826 0.12969 0.0
H650 H 0.02079 0.95471 0.16295 0.0
H651 H 0.00989 0.89975 0.17037 0.0
H652 H 0.12371 0.05368 0.65353 0.0
H653 H 0.06702 0.05012 0.65667 0.0
H654 H 0.07775 0.98748 0.70629 0.0
H655 H 0.13453 0.99028 0.70273 0.0
H656 H 0.03737 0.9646 0.68144 0.0
H657 H 1.00658 0.08903 0.69434 0.0
H658 H 0.0288 0.0844 0.67207 0.0
H659 H 0.04627 0.07492 0.69551 0.0
C660 C 0.11393 0.03967 0.66533 0.0
C661 C 0.13345 0.02232 0.67793 0.0
C662 C 0.08152 0.03772 0.66718 0.0
C663 C 0.06804 0.01896 0.68195 0.0
C664 C 0.08758 1.00218 0.69482 0.0
H665 H 0.86637 0.02395 0.70222 0.0
H666 H 0.92296 0.02778 0.70654 0.0
C667 C 0.11997 1.00376 0.69278 0.0
C668 C 0.03368 0.01502 0.68303 0.0
H669 H 0.9648 0.05546 0.68395 0.0
C670 C 0.02152 0.98448 0.68224 0.0
C671 C 0.01293 0.04086 0.6844 0.0
C672 C 0.02434 0.0741 0.68685 0.0
C673 C 0.98926 0.97912 0.68213 0.0
C674 C 0.96854 1.00507 0.68217 0.0
C675 C 0.98066 0.03556 0.68365 0.0
C676 C 0.93429 1.00124 0.68019 0.0
C677 C 0.97781 0.94567 0.68216 0.0
C678 C 0.92183 0.98511 0.66395 0.0
C679 C 0.88958 0.98259 0.66162 0.0
C680 C 0.86914 0.99672 0.67526 0.0
C681 C 0.88161 0.01294 0.69147 0.0
C682 C 0.9139 0.0151 0.69394 0.0
H683 H 0.99525 0.92954 0.68885 0.0
H684 H 0.95551 0.9434 0.6904 0.0
H685 H 0.974 0.93793 0.66671 0.0
H686 H 0.93703 0.97507 0.6528 0.0
H687 H 0.88065 0.97054 0.64876 0.0
H688 H 0.96609 0.13934 0.85883 0.0
H689 H 0.96591 0.0822 0.85473 0.0
H690 H 0.01214 0.0717 0.91086 0.0
H691 H 0.01288 0.12869 0.91482 0.0
H692 H 0.03709 0.03354 0.88357 0.0
H693 H 0.90824 0.02227 0.88272 0.0
H694 H 0.9231 0.04779 0.86387 0.0
H695 H 0.92751 0.05825 0.88945 0.0
C696 C 0.97615 0.12479 0.87028 0.0
C697 C 0.98939 0.13846 0.88717 0.0
C698 C 0.97592 0.09217 0.86797 0.0
C699 C 0.98842 0.07265 0.88268 0.0
C700 C 1.00227 0.0863 0.89935 0.0
H701 H 0.9551 0.87572 0.90362 0.0
H702 H 0.95464 0.93314 0.90302 0.0
C703 C 1.00281 0.11888 0.90156 0.0
C704 C 0.98726 0.03797 0.88081 0.0
H705 H 0.93745 0.97612 0.87592 0.0
C706 C 0.01531 0.02097 0.88188 0.0
C707 C 0.95876 0.0216 0.87889 0.0
C708 C 0.92766 0.03835 0.87886 0.0
C709 C 0.0157 0.98806 0.88115 0.0
C710 C 0.98729 0.97171 0.87867 0.0
C711 C 0.95922 0.98871 0.87758 0.0
C712 C 0.98608 0.93693 0.87807 0.0
C713 C 0.04645 0.97115 0.88368 0.0
C714 C 1.00317 0.91998 0.8639 0.0
C715 C 1.00364 0.88719 0.86433 0.0
C716 C 0.98656 0.87075 0.8787 0.0
C717 C 0.96828 0.88774 0.89229 0.0
C718 C 0.96811 0.92054 0.892 0.0
H719 H 0.06418 0.98637 0.89078 0.0
H720 H 0.04366 0.94965 0.89277 0.0
H721 H 0.05557 0.96416 0.86897 0.0
H722 H 0.01648 0.93211 0.85266 0.0
H723 H 0.0175 0.87465 0.85349 0.0
H724 H 0.87194 0.05909 0.35273 0.0
H725 H 0.92889 0.05667 0.34918 0.0
H726 H 0.92967 0.96566 0.37703 0.0
H727 H 0.87315 0.96783 0.38049 0.0
H728 H 0.97338 0.05193 0.37765 0.0
H729 H 0.98131 0.94865 0.32821 0.0
H730 H 0.94508 0.96921 0.33272 0.0
H731 H 0.95929 0.94072 0.35019 0.0
C732 C 0.8843 0.03856 0.35803 0.0
C733 C 0.86795 0.0135 0.36666 0.0
C734 C 0.91678 0.03714 0.35593 0.0
C735 C 0.93347 0.01065 0.36242 0.0
C736 C 0.91724 0.98587 0.37132 0.0
H737 H 0.12534 0.96075 0.38341 0.0
H738 H 0.06855 0.96275 0.38023 0.0
C739 C 0.88485 0.98719 0.37331 0.0
C740 C 0.968 1.0094 0.36082 0.0
H741 H 0.02861 0.96406 0.34422 0.0
C742 C 0.98545 0.03294 0.37012 0.0
C743 C 0.98374 0.98457 0.35101 0.0
C744 C 0.96639 0.95953 0.3398 0.0
C745 C 0.01817 0.03178 0.37043 0.0
C746 C 0.03382 1.00655 0.36104 0.0
C747 C 0.01647 0.98327 0.35148 0.0
C748 C 0.06824 1.00374 0.36141 0.0
C749 C 0.03581 0.05701 0.38128 0.0
C750 C 0.08681 0.02553 0.35135 0.0
C751 C 0.11927 0.02429 0.35298 0.0
C752 C 0.13381 1.00128 0.36476 0.0
C753 C 0.11507 0.97864 0.37412 0.0
C754 C 0.08257 0.97985 0.37241 0.0
H755 H 0.02022 0.07158 0.39073 0.0
H756 H 0.05428 0.04648 0.39068 0.0
H757 H 0.04732 0.07267 0.37041 0.0
H758 H 0.07615 0.04383 0.34251 0.0
H759 H 0.13293 0.04168 0.34522 0.0
loop_
_geom_bond_atom_site_label_1
_geom_bond_atom_site_label_2
_geom_bond_distance
_geom_bond_site_symmetry_2
_ccdc_geom_bond_type
Cu0 N1 1.999 . S
Cu0 O6 1.974 . S
Cu0 N11 1.985 . S
Cu0 O20 1.959 . S
N1 Cu0 1.999 . S
N1 C3 1.263 . S
N1 C5 1.389 . S
N2 C3 1.358 . S
N2 C4 1.400 . S
C3 N1 1.263 . S
C3 N2 1.358 . S
C3 H9 0.930 . S
C4 N2 1.400 . S
C4 C5 1.351 . S
C4 H21 0.930 . S
C5 N1 1.389 . S
C5 C4 1.351 . S
C5 H10 0.930 . S
O6 Cu0 1.974 . S
O6 C16 1.282 . S
C7 O8 1.261 . S
C7 O20 1.251 . S
O8 C7 1.261 . S
H9 C3 0.930 . S
H10 C5 0.930 . S
N11 Cu0 1.985 . S
N11 C13 1.335 . S
N11 C14 1.390 . S
N12 C13 1.345 . S
N12 C15 1.336 . S
C13 N11 1.335 . S
C13 N12 1.345 . S
C13 H18 0.930 . S
C14 N11 1.390 . S
C14 C15 1.346 . S
C14 H19 0.930 . S
C15 N12 1.336 . S
C15 C14 1.346 . S
C15 H22 0.929 . S
C16 O6 1.282 . S
C16 O17 1.216 . S
O17 C16 1.216 . S
H18 C13 0.930 . S
H19 C14 0.930 . S
O20 Cu0 1.959 . S
O20 C7 1.251 . S
H21 C4 0.930 . S
H22 C15 0.929 . S
Cu23 N24 1.999 . S
Cu23 O29 1.974 . S
Cu23 N34 1.985 . S
Cu23 O43 1.959 . S
N24 Cu23 1.999 . S
N24 C26 1.263 . S
N24 C28 1.389 . S
N25 C26 1.358 . S
N25 C27 1.400 . S
C26 N24 1.263 . S
C26 N25 1.358 . S
C26 H32 0.930 . S
C27 N25 1.400 . S
C27 C28 1.351 . S
C27 H44 0.930 . S
C28 N24 1.389 . S
C28 C27 1.351 . S
C28 H33 0.930 . S
O29 Cu23 1.974 . S
O29 C39 1.282 . S
C30 O31 1.261 . S
C30 O43 1.251 . S
O31 C30 1.261 . S
H32 C26 0.930 . S
H33 C28 0.930 . S
N34 Cu23 1.985 . S
N34 C36 1.335 . S
N34 C37 1.390 . S
N35 C36 1.345 . S
N35 C38 1.336 . S
C36 N34 1.335 . S
C36 N35 1.345 . S
C36 H41 0.930 . S
C37 N34 1.390 . S
C37 C38 1.346 . S
C37 H42 0.930 . S
C38 N35 1.336 . S
C38 C37 1.346 . S
C38 H45 0.929 . S
C39 O29 1.282 . S
C39 O40 1.216 . S
O40 C39 1.216 . S
H41 C36 0.930 . S
H42 C37 0.930 . S
O43 Cu23 1.959 . S
O43 C30 1.251 . S
H44 C27 0.930 . S
H45 C38 0.929 . S
Cu46 N47 1.999 . S
Cu46 O52 1.974 . S
Cu46 N57 1.985 . S
Cu46 O66 1.959 . S
N47 Cu46 1.999 . S
N47 C49 1.263 . S
N47 C51 1.389 . S
N48 C49 1.358 . S
N48 C50 1.400 . S
C49 N47 1.263 . S
C49 N48 1.358 . S
C49 H55 0.930 . S
C50 N48 1.400 . S
C50 C51 1.351 . S
C50 H67 0.930 . S
C51 N47 1.389 . S
C51 C50 1.351 . S
C51 H56 0.930 . S
O52 Cu46 1.974 . S
O52 C62 1.282 . S
C53 O54 1.261 . S
C53 O66 1.251 . S
O54 C53 1.261 . S
H55 C49 0.930 . S
H56 C51 0.930 . S
N57 Cu46 1.985 . S
N57 C59 1.335 . S
N57 C60 1.390 . S
N58 C59 1.345 . S
N58 C61 1.336 . S
C59 N57 1.335 . S
C59 N58 1.345 . S
C59 H64 0.930 . S
C60 N57 1.390 . S
C60 C61 1.346 . S
C60 H65 0.930 . S
C61 N58 1.336 . S
C61 C60 1.346 . S
C61 H68 0.929 . S
C62 O52 1.282 . S
C62 O63 1.216 . S
O63 C62 1.216 . S
H64 C59 0.930 . S
H65 C60 0.930 . S
O66 Cu46 1.959 . S
O66 C53 1.251 . S
H67 C50 0.930 . S
H68 C61 0.929 . S
Cu69 N70 1.999 . S
Cu69 O75 1.974 . S
Cu69 N80 1.985 . S
Cu69 O89 1.959 . S
N70 Cu69 1.999 . S
N70 C72 1.263 . S
N70 C74 1.389 . S
N71 C72 1.358 . S
N71 C73 1.400 . S
C72 N70 1.263 . S
C72 N71 1.358 . S
C72 H78 0.930 . S
C73 N71 1.400 . S
C73 C74 1.351 . S
C73 H90 0.930 . S
C74 N70 1.389 . S
C74 C73 1.351 . S
C74 H79 0.930 . S
O75 Cu69 1.974 . S
O75 C85 1.282 . S
C76 O77 1.261 . S
C76 O89 1.251 . S
O77 C76 1.261 . S
H78 C72 0.930 . S
H79 C74 0.930 . S
N80 Cu69 1.985 . S
N80 C82 1.335 . S
N80 C83 1.390 . S
N81 C82 1.345 . S
N81 C84 1.336 . S
C82 N80 1.335 . S
C82 N81 1.345 . S
C82 H87 0.930 . S
C83 N80 1.390 . S
C83 C84 1.346 . S
C83 H88 0.930 . S
C84 N81 1.336 . S
C84 C83 1.346 . S
C84 H91 0.929 . S
C85 O75 1.282 . S
C85 O86 1.216 . S
O86 C85 1.216 . S
H87 C82 0.930 . S
H88 C83 0.930 . S
O89 Cu69 1.959 . S
O89 C76 1.251 . S
H90 C73 0.930 . S
H91 C84 0.929 . S
Cu92 N93 1.999 . S
Cu92 O98 1.974 . S
Cu92 N103 1.985 . S
Cu92 O112 1.959 . S
N93 Cu92 1.999 . S
N93 C95 1.263 . S
N93 C97 1.389 . S
N94 C95 1.358 . S
N94 C96 1.400 . S
C95 N93 1.263 . S
C95 N94 1.358 . S
C95 H101 0.930 . S
C96 N94 1.400 . S
C96 C97 1.351 . S
C96 H113 0.930 . S
C97 N93 1.389 . S
C97 C96 1.351 . S
C97 H102 0.930 . S
O98 Cu92 1.974 . S
O98 C108 1.282 . S
C99 O100 1.261 . S
C99 O112 1.251 . S
O100 C99 1.261 . S
H101 C95 0.930 . S
H102 C97 0.930 . S
N103 Cu92 1.985 . S
N103 C105 1.335 . S
N103 C106 1.390 . S
N104 C105 1.345 . S
N104 C107 1.336 . S
C105 N103 1.335 . S
C105 N104 1.345 . S
C105 H110 0.930 . S
C106 N103 1.390 . S
C106 C107 1.346 . S
C106 H111 0.930 . S
C107 N104 1.336 . S
C107 C106 1.346 . S
C107 H114 0.929 . S
C108 O98 1.282 . S
C108 O109 1.216 . S
O109 C108 1.216 . S
H110 C105 0.930 . S
H111 C106 0.930 . S
O112 Cu92 1.959 . S
O112 C99 1.251 . S
H113 C96 0.930 . S
H114 C107 0.929 . S
Cu115 N116 1.999 . S
Cu115 O121 1.974 . S
Cu115 N126 1.985 . S
Cu115 O135 1.959 . S
N116 Cu115 1.999 . S
N116 C118 1.263 . S
N116 C120 1.389 . S
N117 C118 1.358 . S
N117 C119 1.400 . S
C118 N116 1.263 . S
C118 N117 1.358 . S
C118 H124 0.930 . S
C119 N117 1.400 . S
C119 C120 1.351 . S
C119 H136 0.930 . S
C120 N116 1.389 . S
C120 C119 1.351 . S
C120 H125 0.930 . S
O121 Cu115 1.974 . S
O121 C131 1.282 . S
C122 O123 1.261 . S
C122 O135 1.251 . S
O123 C122 1.261 . S
H124 C118 0.930 . S
H125 C120 0.930 . S
N126 Cu115 1.985 . S
N126 C128 1.335 . S
N126 C129 1.390 . S
N127 C128 1.345 . S
N127 C130 1.336 . S
C128 N126 1.335 . S
C128 N127 1.345 . S
C128 H133 0.930 . S
C129 N126 1.390 . S
C129 C130 1.346 . S
C129 H134 0.930 . S
C130 N127 1.336 . S
C130 C129 1.346 . S
C130 H137 0.929 . S
C131 O121 1.282 . S
C131 O132 1.216 . S
O132 C131 1.216 . S
H133 C128 0.930 . S
H134 C129 0.930 . S
O135 Cu115 1.959 . S
O135 C122 1.251 . S
H136 C119 0.930 . S
H137 C130 0.929 . S
Cu138 N139 1.999 . S
Cu138 O144 1.974 . S
Cu138 N149 1.985 . S
Cu138 O158 1.959 . S
N139 Cu138 1.999 . S
N139 C141 1.263 . S
N139 C143 1.389 . S
N140 C141 1.358 . S
N140 C142 1.400 . S
C141 N139 1.263 . S
C141 N140 1.358 . S
C141 H147 0.930 . S
C142 N140 1.400 . S
C142 C143 1.351 . S
C142 H159 0.930 . S
C143 N139 1.389 . S
C143 C142 1.351 . S
C143 H148 0.930 . S
O144 Cu138 1.974 . S
O144 C154 1.282 . S
C145 O146 1.261 . S
C145 O158 1.251 . S
O146 C145 1.261 . S
H147 C141 0.930 . S
H148 C143 0.930 . S
N149 Cu138 1.985 . S
N149 C151 1.335 . S
N149 C152 1.390 . S
N150 C151 1.345 . S
N150 C153 1.336 . S
C151 N149 1.335 . S
C151 N150 1.345 . S
C151 H156 0.930 . S
C152 N149 1.390 . S
C152 C153 1.346 . S
C152 H157 0.930 . S
C153 N150 1.336 . S
C153 C152 1.346 . S
C153 H160 0.929 . S
C154 O144 1.282 . S
C154 O155 1.216 . S
O155 C154 1.216 . S
H156 C151 0.930 . S
H157 C152 0.930 . S
O158 Cu138 1.959 . S
O158 C145 1.251 . S
H159 C142 0.930 . S
H160 C153 0.929 . S
Cu161 N162 1.999 . S
Cu161 O167 1.974 . S
Cu161 N172 1.985 . S
Cu161 O181 1.959 . S
N162 Cu161 1.999 . S
N162 C164 1.263 . S
N162 C166 1.389 . S
N163 C164 1.358 . S
N163 C165 1.400 . S
C164 N162 1.263 . S
C164 N163 1.358 . S
C164 H170 0.930 . S
C165 N163 1.400 . S
C165 C166 1.351 . S
C165 H182 0.930 . S
C166 N162 1.389 . S
C166 C165 1.351 . S
C166 H171 0.930 . S
O167 Cu161 1.974 . S
O167 C177 1.282 . S
C168 O169 1.261 . S
C168 O181 1.251 . S
O169 C168 1.261 . S
H170 C164 0.930 . S
H171 C166 0.930 . S
N172 Cu161 1.985 . S
N172 C174 1.335 . S
N172 C175 1.390 . S
N173 C174 1.345 . S
N173 C176 1.336 . S
C174 N172 1.335 . S
C174 N173 1.345 . S
C174 H179 0.930 . S
C175 N172 1.390 . S
C175 C176 1.346 . S
C175 H180 0.930 . S
C176 N173 1.336 . S
C176 C175 1.346 . S
C176 H183 0.929 . S
C177 O167 1.282 . S
C177 O178 1.216 . S
O178 C177 1.216 . S
H179 C174 0.930 . S
H180 C175 0.930 . S
O181 Cu161 1.959 . S
O181 C168 1.251 . S
H182 C165 0.930 . S
H183 C176 0.929 . S
H184 C192 0.929 . S
H185 C194 0.930 . S
H186 C196 0.930 . S
H187 C199 0.929 . S
H188 C202 0.930 . S
H189 C204 0.960 . S
H190 C204 0.960 . S
H191 C204 0.960 . S
C192 H184 0.929 . S
C192 C193 1.377 . S
C192 C194 1.384 . S
C193 C192 1.377 . S
C193 C199 1.390 . S
C194 H185 0.930 . S
C194 C192 1.384 . S
C194 C195 1.372 . S
C195 C194 1.372 . S
C195 C196 1.400 . S
C195 C200 1.490 . S
C196 H186 0.930 . S
C196 C195 1.400 . S
C196 C199 1.386 . S
H197 C213 0.930 . S
H198 C214 0.931 . S
C199 H187 0.929 . S
C199 C193 1.390 . S
C199 C196 1.386 . S
C200 C195 1.490 . S
C200 C202 1.395 . S
C200 C203 1.403 1_455 S
H201 C207 0.930 . S
C202 H188 0.930 . S
C202 C200 1.395 . S
C202 C205 1.403 . S
C203 C200 1.403 1_655 S
C203 C204 1.524 . S
C203 C207 1.400 . S
C204 H189 0.960 . S
C204 H190 0.960 . S
C204 H191 0.960 . S
C204 C203 1.524 . S
C205 C202 1.403 . S
C205 C206 1.392 1_455 S
C205 C209 1.495 . S
C206 C205 1.392 1_655 S
C206 C207 1.385 . S
C206 C208 1.478 . S
C207 H201 0.930 . S
C207 C203 1.400 . S
C207 C206 1.385 . S
C208 C206 1.478 . S
C208 C210 1.381 . S
C208 C214 1.383 . S
C209 C205 1.495 . S
C209 H215 0.959 . S
C209 H216 0.961 . S
C209 H217 0.960 . S
C210 C208 1.381 . S
C210 C211 1.394 . S
C210 H218 0.930 . S
C211 C210 1.394 . S
C211 C212 1.383 . S
C211 H219 0.929 . S
C212 C211 1.383 . S
C212 C213 1.377 . S
C213 H197 0.930 . S
C213 C212 1.377 . S
C213 C214 1.379 . S
C214 H198 0.931 . S
C214 C208 1.383 . S
C214 C213 1.379 . S
H215 C209 0.959 . S
H216 C209 0.961 . S
H217 C209 0.960 . S
H218 C210 0.930 . S
H219 C211 0.929 . S
H220 C228 0.929 . S
H221 C230 0.930 . S
H222 C232 0.930 . S
H223 C235 0.929 . S
H224 C238 0.930 . S
H225 C240 0.960 . S
H226 C240 0.960 . S
H227 C240 0.960 . S
C228 H220 0.929 . S
C228 C229 1.377 . S
C228 C230 1.384 . S
C229 C228 1.377 . S
C229 C235 1.390 . S
C230 H221 0.930 . S
C230 C228 1.384 . S
C230 C231 1.372 . S
C231 C230 1.372 . S
C231 C232 1.400 . S
C231 C236 1.490 . S
C232 H222 0.930 . S
C232 C231 1.400 . S
C232 C235 1.386 . S
H233 C249 0.930 . S
H234 C250 0.931 . S
C235 H223 0.929 . S
C235 C229 1.390 . S
C235 C232 1.386 . S
C236 C231 1.490 . S
C236 C238 1.395 . S
C236 C239 1.403 1_565 S
H237 C243 0.930 . S
C238 H224 0.930 . S
C238 C236 1.395 . S
C238 C241 1.403 . S
C239 C236 1.403 1_545 S
C239 C240 1.524 . S
C239 C243 1.400 . S
C240 H225 0.960 . S
C240 H226 0.960 . S
C240 H227 0.960 . S
C240 C239 1.524 . S
C241 C238 1.403 . S
C241 C242 1.392 1_565 S
C241 C245 1.495 . S
C242 C241 1.392 1_545 S
C242 C243 1.385 . S
C242 C244 1.478 . S
C243 H237 0.930 . S
C243 C239 1.400 . S
C243 C242 1.385 . S
C244 C242 1.478 . S
C244 C246 1.381 . S
C244 C250 1.383 . S
C245 C241 1.495 . S
C245 H251 0.959 . S
C245 H252 0.961 . S
C245 H253 0.960 . S
C246 C244 1.381 . S
C246 C247 1.394 . S
C246 H254 0.949 . S
C247 C246 1.394 . S
C247 C248 1.383 . S
C247 H255 0.929 . S
C248 C247 1.383 . S
C248 C249 1.377 . S
C249 H233 0.930 . S
C249 C248 1.377 . S
C249 C250 1.379 . S
C250 H234 0.931 . S
C250 C244 1.383 . S
C250 C249 1.379 . S
H251 C245 0.959 . S
H252 C245 0.961 . S
H253 C245 0.960 . S
H254 C246 0.949 . S
H255 C247 0.929 . S
H256 C264 0.929 . S
H257 C266 0.930 . S
H258 C268 0.930 1_455 S
H259 C271 0.929 . S
H260 C274 0.930 . S
H261 C276 0.960 . S
H262 C276 0.960 1_655 S
H263 C276 0.960 . S
C264 H256 0.929 . S
C264 C265 1.377 . S
C264 C266 1.384 . S
C265 C264 1.377 . S
C265 C271 1.390 . S
C266 H257 0.930 . S
C266 C264 1.384 . S
C266 C267 1.372 . S
C267 C266 1.372 . S
C267 C268 1.400 . S
C267 C272 1.490 . S
C268 H258 0.930 1_655 S
C268 C267 1.400 . S
C268 C271 1.386 . S
H269 C285 0.930 . S
H270 C286 0.931 . S
C271 H259 0.929 . S
C271 C265 1.390 . S
C271 C268 1.386 . S
C272 C267 1.490 . S
C272 C274 1.395 . S
C272 C275 1.386 1_655 S
H273 C279 0.930 . S
C274 H260 0.930 . S
C274 C272 1.395 . S
C274 C277 1.403 . S
C275 C272 1.386 1_455 S
C275 C276 1.528 . S
C275 C279 1.414 . S
C276 H261 0.960 . S
C276 H262 0.960 1_455 S
C276 H263 0.960 . S
C276 C275 1.528 . S
C277 C274 1.403 . S
C277 C278 1.392 1_655 S
C277 C281 1.495 . S
C278 C277 1.392 1_455 S
C278 C279 1.385 . S
C278 C280 1.478 . S
C279 H273 0.930 . S
C279 C275 1.414 . S
C279 C278 1.385 . S
C280 C278 1.478 . S
C280 C282 1.381 . S
C280 C286 1.383 . S
C281 C277 1.495 . S
C281 H287 0.959 . S
C281 H288 0.961 1_655 S
C281 H289 0.960 . S
C282 C280 1.381 . S
C282 C283 1.394 . S
C282 H290 0.930 1_455 S
C283 C282 1.394 . S
C283 C284 1.383 . S
C283 H291 0.929 . S
C284 C283 1.383 . S
C284 C285 1.377 . S
C285 H269 0.930 . S
C285 C284 1.377 . S
C285 C286 1.379 . S
C286 H270 0.931 . S
C286 C280 1.383 . S
C286 C285 1.379 . S
H287 C281 0.959 . S
H288 C281 0.961 1_455 S
H289 C281 0.960 . S
H290 C282 0.930 1_655 S
H291 C283 0.929 . S
H292 C300 0.929 . S
H293 C302 0.930 . S
H294 C304 0.930 1_565 S
H295 C307 0.929 . S
H296 C310 0.930 . S
H297 C312 0.960 . S
H298 C312 0.960 . S
H299 C312 0.960 . S
C300 H292 0.929 . S
C300 C301 1.377 . S
C300 C302 1.384 . S
C301 C300 1.377 . S
C301 C307 1.390 . S
C302 H293 0.930 . S
C302 C300 1.384 . S
C302 C303 1.372 . S
C303 C302 1.372 . S
C303 C304 1.400 . S
C303 C308 1.490 . S
C304 H294 0.930 1_545 S
C304 C303 1.400 . S
C304 C307 1.386 . S
H305 C321 0.930 . S
H306 C322 0.931 . S
C307 H295 0.929 . S
C307 C301 1.390 . S
C307 C304 1.386 . S
C308 C303 1.490 . S
C308 C310 1.395 . S
C308 C311 1.403 1_545 S
H309 C315 0.930 . S
C310 H296 0.930 . S
C310 C308 1.395 . S
C310 C313 1.403 . S
C311 C308 1.403 1_565 S
C311 C312 1.524 . S
C311 C315 1.400 . S
C312 H297 0.960 . S
C312 H298 0.960 . S
C312 H299 0.960 . S
C312 C311 1.524 . S
C313 C310 1.403 . S
C313 C314 1.392 1_545 S
C313 C317 1.495 . S
C314 C313 1.392 1_565 S
C314 C315 1.385 . S
C314 C316 1.478 . S
C315 H309 0.930 . S
C315 C311 1.400 . S
C315 C314 1.385 . S
C316 C314 1.478 . S
C316 C318 1.381 . S
C316 C322 1.383 . S
C317 C313 1.495 . S
C317 H323 0.959 . S
C317 H324 0.961 . S
C317 H325 0.960 . S
C318 C316 1.381 . S
C318 C319 1.394 . S
C318 H326 0.930 1_565 S
C319 C318 1.394 . S
C319 C320 1.383 . S
C319 H327 0.929 . S
C320 C319 1.383 . S
C320 C321 1.377 . S
C321 H305 0.930 . S
C321 C320 1.377 . S
C321 C322 1.379 . S
C322 H306 0.931 . S
C322 C316 1.383 . S
C322 C321 1.379 . S
H323 C317 0.959 . S
H324 C317 0.961 . S
H325 C317 0.960 . S
H326 C318 0.930 1_545 S
H327 C319 0.929 . S
H328 C336 0.929 . S
H329 C338 0.930 1_455 S
H330 C340 0.930 . S
H331 C343 0.929 . S
H332 C346 0.930 . S
H333 C348 0.960 . S
H334 C348 0.960 . S
H335 C348 0.942 1_655 S
C336 H328 0.929 . S
C336 C337 1.377 . S
C336 C338 1.384 . S
C337 C336 1.377 . S
C337 C343 1.390 . S
C338 H329 0.930 1_655 S
C338 C336 1.384 . S
C338 C339 1.372 . S
C339 C338 1.372 . S
C339 C340 1.400 . S
C339 C344 1.490 . S
C340 H330 0.930 . S
C340 C339 1.400 . S
C340 C343 1.386 . S
H341 C357 0.930 . S
H342 C358 0.931 1_655 S
C343 H331 0.929 . S
C343 C337 1.390 . S
C343 C340 1.386 . S
C344 C339 1.490 . S
C344 C346 1.395 . S
C344 C347 1.403 1_655 S
H345 C351 0.930 . S
C346 H332 0.930 . S
C346 C344 1.395 . S
C346 C349 1.403 1_556 S
C347 C344 1.403 1_455 S
C347 C348 1.524 . S
C347 C351 1.400 1_556 S
C348 H333 0.960 . S
C348 H334 0.960 . S
C348 H335 0.942 1_455 S
C348 C347 1.524 . S
C349 C346 1.403 1_554 S
C349 C350 1.392 1_655 S
C349 C353 1.495 . S
C350 C349 1.392 1_455 S
C350 C351 1.385 . S
C350 C352 1.478 . S
C351 H345 0.930 . S
C351 C347 1.400 1_554 S
C351 C350 1.385 . S
C352 C350 1.478 . S
C352 C354 1.381 . S
C352 C358 1.383 . S
C353 C349 1.495 . S
C353 H359 0.959 . S
C353 H360 0.961 . S
C353 H361 0.960 1_655 S
C354 C352 1.381 . S
C354 C355 1.394 . S
C354 H362 0.930 . S
C355 C354 1.394 . S
C355 C356 1.383 . S
C355 H363 0.929 . S
C356 C355 1.383 . S
C356 C357 1.377 . S
C357 H341 0.930 . S
C357 C356 1.377 . S
C357 C358 1.379 . S
C358 H342 0.931 1_455 S
C358 C352 1.383 . S
C358 C357 1.379 . S
H359 C353 0.959 . S
H360 C353 0.961 . S
H361 C353 0.960 1_455 S
H362 C354 0.930 . S
H363 C355 0.929 . S
H364 C372 0.942 . S
H365 C374 0.930 1_565 S
H366 C376 0.930 . S
H367 C379 0.929 . S
H368 C382 0.930 . S
H369 C384 0.960 . S
H370 C384 0.960 . S
H371 C384 0.960 . S
C372 H364 0.942 . S
C372 C373 1.377 . S
C372 C374 1.384 . S
C373 C372 1.377 . S
C373 C379 1.390 . S
C374 H365 0.930 1_545 S
C374 C372 1.384 . S
C374 C375 1.372 . S
C375 C374 1.372 . S
C375 C376 1.400 . S
C375 C380 1.490 . S
C376 H366 0.930 . S
C376 C375 1.400 . S
C376 C379 1.386 . S
H377 C393 0.930 . S
H378 C394 0.931 1_545 S
C379 H367 0.929 . S
C379 C373 1.390 . S
C379 C376 1.386 . S
C380 C375 1.490 . S
C380 C382 1.395 1_545 S
C380 C383 1.403 . S
H381 C387 0.930 . S
C382 H368 0.930 . S
C382 C380 1.395 1_565 S
C382 C385 1.403 . S
C383 C380 1.403 . S
C383 C384 1.524 . S
C383 C387 1.400 . S
C384 H369 0.960 . S
C384 H370 0.960 . S
C384 H371 0.960 . S
C384 C383 1.524 . S
C385 C382 1.403 . S
C385 C386 1.392 . S
C385 C389 1.495 . S
C386 C385 1.392 . S
C386 C387 1.385 1_565 S
C386 C388 1.478 . S
C387 H381 0.930 . S
C387 C383 1.400 . S
C387 C386 1.385 1_545 S
C388 C386 1.478 . S
C388 C390 1.381 . S
C388 C394 1.383 . S
C389 C385 1.495 . S
C389 H395 0.959 . S
C389 H396 0.961 . S
C389 H397 0.960 . S
C390 C388 1.381 . S
C390 C391 1.394 . S
C390 H398 0.930 . S
C391 C390 1.394 . S
C391 C392 1.383 . S
C391 H399 0.929 . S
C392 C391 1.383 . S
C392 C393 1.377 . S
C393 H377 0.930 . S
C393 C392 1.377 . S
C393 C394 1.379 . S
C394 H378 0.931 1_565 S
C394 C388 1.383 . S
C394 C393 1.379 . S
H395 C389 0.959 . S
H396 C389 0.961 . S
H397 C389 0.960 . S
H398 C390 0.930 . S
H399 C391 0.929 . S
H400 C408 0.914 1_455 S
H401 C410 0.897 1_455 S
H402 C412 0.930 . S
H403 C415 0.929 . S
H404 C418 0.930 . S
H405 C420 0.960 1_556 S
H406 C420 0.960 . S
H407 C420 0.960 . S
C408 H400 0.914 1_655 S
C408 C409 1.377 . S
C408 C410 1.396 . S
C409 C408 1.377 . S
C409 C415 1.390 . S
C410 H401 0.897 1_655 S
C410 C408 1.396 . S
C410 C411 1.393 . S
C411 C410 1.393 . S
C411 C412 1.400 . S
C411 C416 1.490 . S
C412 H402 0.930 . S
C412 C411 1.400 . S
C412 C415 1.386 . S
H413 C429 0.930 . S
H414 C430 0.931 1_655 S
C415 H403 0.929 . S
C415 C409 1.390 . S
C415 C412 1.386 . S
C416 C411 1.490 . S
C416 C418 1.395 1_655 S
C416 C419 1.403 . S
H417 C423 0.930 . S
C418 H404 0.930 . S
C418 C416 1.395 1_455 S
C418 C421 1.403 1_554 S
C419 C416 1.403 . S
C419 C420 1.524 . S
C419 C423 1.400 1_554 S
C420 H405 0.960 1_554 S
C420 H406 0.960 . S
C420 H407 0.960 . S
C420 C419 1.524 . S
C421 C418 1.403 1_556 S
C421 C422 1.392 . S
C421 C425 1.495 . S
C422 C421 1.392 . S
C422 C423 1.385 1_455 S
C422 C424 1.478 . S
C423 H417 0.930 . S
C423 C419 1.400 1_556 S
C423 C422 1.385 1_655 S
C424 C422 1.478 . S
C424 C426 1.381 . S
C424 C430 1.383 . S
C425 C421 1.495 . S
C425 H431 0.959 1_556 S
C425 H432 0.961 . S
C425 H433 0.960 . S
C426 C424 1.381 . S
C426 C427 1.394 . S
C426 H434 0.930 . S
C427 C426 1.394 . S
C427 C428 1.383 . S
C427 H435 0.929 . S
C428 C427 1.383 . S
C428 C429 1.377 . S
C429 H413 0.930 . S
C429 C428 1.377 . S
C429 C430 1.379 . S
C430 H414 0.931 1_455 S
C430 C424 1.383 . S
C430 C429 1.379 . S
H431 C425 0.959 1_554 S
H432 C425 0.961 . S
H433 C425 0.960 . S
H434 C426 0.930 . S
H435 C427 0.929 . S
H436 C444 0.929 . S
H437 C446 0.927 1_565 S
H438 C448 0.930 . S
H439 C451 0.929 . S
H440 C454 0.930 . S
H441 C456 0.960 . S
H442 C456 0.960 . S
H443 C456 0.960 . S
C444 H436 0.929 . S
C444 C445 1.377 . S
C444 C446 1.384 . S
C445 C444 1.377 . S
C445 C451 1.390 . S
C446 H437 0.927 1_545 S
C446 C444 1.384 . S
C446 C447 1.372 . S
C447 C446 1.372 . S
C447 C448 1.400 . S
C447 C452 1.490 . S
C448 H438 0.930 . S
C448 C447 1.400 . S
C448 C451 1.386 . S
H449 C465 0.930 . S
H450 C466 0.931 1_545 S
C451 H439 0.929 . S
C451 C445 1.390 . S
C451 C448 1.386 . S
C452 C447 1.490 . S
C452 C454 1.395 . S
C452 C455 1.403 1_545 S
H453 C459 0.930 . S
C454 H440 0.930 . S
C454 C452 1.395 . S
C454 C457 1.403 . S
C455 C452 1.403 1_565 S
C455 C456 1.524 . S
C455 C459 1.400 . S
C456 H441 0.960 . S
C456 H442 0.960 . S
C456 H443 0.960 . S
C456 C455 1.524 . S
C457 C454 1.403 . S
C457 C458 1.392 1_545 S
C457 C461 1.495 . S
C458 C457 1.392 1_565 S
C458 C459 1.385 . S
C458 C460 1.478 . S
C459 H453 0.930 . S
C459 C455 1.400 . S
C459 C458 1.385 . S
C460 C458 1.478 . S
C460 C462 1.381 . S
C460 C466 1.383 . S
C461 C457 1.495 . S
C461 H467 0.959 . S
C461 H468 0.961 . S
C461 H469 0.960 . S
C462 C460 1.381 . S
C462 C463 1.394 . S
C462 H470 0.930 . S
C463 C462 1.394 . S
C463 C464 1.383 . S
C463 H471 0.929 . S
C464 C463 1.383 . S
C464 C465 1.377 . S
C465 H449 0.930 . S
C465 C464 1.377 . S
C465 C466 1.379 . S
C466 H450 0.931 1_565 S
C466 C460 1.383 . S
C466 C465 1.379 . S
H467 C461 0.959 . S
H468 C461 0.961 . S
H469 C461 0.960 . S
H470 C462 0.930 . S
H471 C463 0.929 . S
H472 C480 0.929 . S
H473 C482 0.930 . S
H474 C484 0.930 . S
H475 C487 0.929 . S
H476 C490 0.930 . S
H477 C492 0.960 . S
H478 C492 0.960 . S
H479 C492 0.960 . S
C480 H472 0.929 . S
C480 C481 1.377 . S
C480 C482 1.384 . S
C481 C480 1.377 . S
C481 C487 1.390 . S
C482 H473 0.930 . S
C482 C480 1.384 . S
C482 C483 1.372 . S
C483 C482 1.372 . S
C483 C484 1.400 . S
C483 C488 1.490 . S
C484 H474 0.930 . S
C484 C483 1.400 . S
C484 C487 1.386 . S
H485 C501 0.930 . S
H486 C502 0.931 . S
C487 H475 0.929 . S
C487 C481 1.390 . S
C487 C484 1.386 . S
C488 C483 1.490 . S
C488 C490 1.395 . S
C488 C491 1.403 . S
H489 C495 0.930 . S
C490 H476 0.930 . S
C490 C488 1.395 . S
C490 C493 1.403 . S
C491 C488 1.403 . S
C491 C492 1.524 . S
C491 C495 1.400 . S
C492 H477 0.960 . S
C492 H478 0.960 . S
C492 H479 0.960 . S
C492 C491 1.524 . S
C493 C490 1.403 . S
C493 C494 1.392 . S
C493 C497 1.495 . S
C494 C493 1.392 . S
C494 C495 1.385 . S
C494 C496 1.478 . S
C495 H489 0.930 . S
C495 C491 1.400 . S
C495 C494 1.385 . S
C496 C494 1.478 . S
C496 C498 1.381 . S
C496 C502 1.383 . S
C497 C493 1.495 . S
C497 H503 0.959 . S
C497 H504 0.961 . S
C497 H505 0.960 . S
C498 C496 1.381 . S
C498 C499 1.394 . S
C498 H506 0.930 . S
C499 C498 1.394 . S
C499 C500 1.383 . S
C499 H507 0.929 . S
C500 C499 1.383 . S
C500 C501 1.377 . S
C501 H485 0.930 . S
C501 C500 1.377 . S
C501 C502 1.379 . S
C502 H486 0.931 . S
C502 C496 1.383 . S
C502 C501 1.379 . S
H503 C497 0.959 . S
H504 C497 0.961 . S
H505 C497 0.960 . S
H506 C498 0.930 . S
H507 C499 0.929 . S
H508 C516 0.929 . S
H509 C518 0.930 . S
H510 C520 0.930 . S
H511 C523 0.929 . S
H512 C526 0.930 . S
H513 C528 0.960 . S
H514 C528 0.960 . S
H515 C528 0.960 . S
C516 H508 0.929 . S
C516 C517 1.377 . S
C516 C518 1.384 . S
C517 C516 1.377 . S
C517 C523 1.390 . S
C518 H509 0.930 . S
C518 C516 1.384 . S
C518 C519 1.372 . S
C519 C518 1.372 . S
C519 C520 1.400 . S
C519 C524 1.490 . S
C520 H510 0.930 . S
C520 C519 1.400 . S
C520 C523 1.386 . S
H521 C537 0.930 . S
H522 C538 0.931 . S
C523 H511 0.929 . S
C523 C517 1.390 . S
C523 C520 1.386 . S
C524 C519 1.490 . S
C524 C526 1.395 . S
C524 C527 1.403 . S
H525 C531 0.930 . S
C526 H512 0.930 . S
C526 C524 1.395 . S
C526 C529 1.403 . S
C527 C524 1.403 . S
C527 C528 1.524 . S
C527 C531 1.400 . S
C528 H513 0.960 . S
C528 H514 0.960 . S
C528 H515 0.960 . S
C528 C527 1.524 . S
C529 C526 1.403 . S
C529 C530 1.392 . S
C529 C533 1.495 . S
C530 C529 1.392 . S
C530 C531 1.385 . S
C530 C532 1.478 . S
C531 H525 0.930 . S
C531 C527 1.400 . S
C531 C530 1.385 . S
C532 C530 1.478 . S
C532 C534 1.381 . S
C532 C538 1.383 . S
C533 C529 1.495 . S
C533 H539 0.959 . S
C533 H540 0.961 . S
C533 H541 0.960 . S
C534 C532 1.381 . S
C534 C535 1.394 . S
C534 H542 0.930 . S
C535 C534 1.394 . S
C535 C536 1.383 . S
C535 H543 0.929 . S
C536 C535 1.383 . S
C536 C537 1.377 . S
C537 H521 0.930 . S
C537 C536 1.377 . S
C537 C538 1.379 . S
C538 H522 0.931 . S
C538 C532 1.383 . S
C538 C537 1.379 . S
H539 C533 0.959 . S
H540 C533 0.961 . S
H541 C533 0.960 . S
H542 C534 0.930 . S
H543 C535 0.929 . S
H544 C552 0.929 . S
H545 C554 0.930 . S
H546 C556 0.930 . S
H547 C559 0.929 . S
H548 C562 0.930 . S
H549 C564 0.960 . S
H550 C564 0.960 . S
H551 C564 0.960 . S
C552 H544 0.929 . S
C552 C553 1.377 . S
C552 C554 1.384 . S
C553 C552 1.377 . S
C553 C559 1.390 . S
C554 H545 0.930 . S
C554 C552 1.384 . S
C554 C555 1.372 . S
C555 C554 1.372 . S
C555 C556 1.400 . S
C555 C560 1.490 . S
C556 H546 0.930 . S
C556 C555 1.400 . S
C556 C559 1.386 . S
H557 C573 0.930 . S
H558 C574 0.931 . S
C559 H547 0.929 . S
C559 C553 1.390 . S
C559 C556 1.386 . S
C560 C555 1.490 . S
C560 C562 1.395 . S
C560 C563 1.403 . S
H561 C567 0.930 . S
C562 H548 0.930 . S
C562 C560 1.395 . S
C562 C565 1.403 . S
C563 C560 1.403 . S
C563 C564 1.524 . S
C563 C567 1.400 . S
C564 H549 0.960 . S
C564 H550 0.960 . S
C564 H551 0.960 . S
C564 C563 1.524 . S
C565 C562 1.403 . S
C565 C566 1.392 . S
C565 C569 1.495 . S
C566 C565 1.392 . S
C566 C567 1.385 . S
C566 C568 1.478 . S
C567 H561 0.930 . S
C567 C563 1.400 . S
C567 C566 1.385 . S
C568 C566 1.478 . S
C568 C570 1.381 . S
C568 C574 1.383 . S
C569 C565 1.495 . S
C569 H575 0.959 . S
C569 H576 0.961 . S
C569 H577 0.960 . S
C570 C568 1.381 . S
C570 C571 1.394 . S
C570 H578 0.930 . S
C571 C570 1.394 . S
C571 C572 1.383 . S
C571 H579 0.929 . S
C572 C571 1.383 . S
C572 C573 1.377 . S
C573 H557 0.930 . S
C573 C572 1.377 . S
C573 C574 1.379 . S
C574 H558 0.931 . S
C574 C568 1.383 . S
C574 C573 1.379 . S
H575 C569 0.959 . S
H576 C569 0.961 . S
H577 C569 0.960 . S
H578 C570 0.930 . S
H579 C571 0.929 . S
H580 C588 0.929 . S
H581 C590 0.930 . S
H582 C592 0.930 . S
H583 C595 0.929 . S
H584 C598 0.930 . S
H585 C600 0.960 . S
H586 C600 0.960 . S
H587 C600 0.960 . S
C588 H580 0.929 . S
C588 C589 1.377 . S
C588 C590 1.384 . S
C589 C588 1.377 . S
C589 C595 1.390 . S
C590 H581 0.930 . S
C590 C588 1.384 . S
C590 C591 1.372 . S
C591 C590 1.372 . S
C591 C592 1.400 . S
C591 C596 1.490 . S
C592 H582 0.930 . S
C592 C591 1.400 . S
C592 C595 1.386 . S
H593 C609 0.930 . S
H594 C610 0.931 . S
C595 H583 0.929 . S
C595 C589 1.390 . S
C595 C592 1.386 . S
C596 C591 1.490 . S
C596 C598 1.395 . S
C596 C599 1.403 . S
H597 C603 0.930 . S
C598 H584 0.930 . S
C598 C596 1.395 . S
C598 C601 1.403 . S
C599 C596 1.403 . S
C599 C600 1.524 . S
C599 C603 1.400 . S
C600 H585 0.960 . S
C600 H586 0.960 . S
C600 H587 0.960 . S
C600 C599 1.524 . S
C601 C598 1.403 . S
C601 C602 1.392 . S
C601 C605 1.495 . S
C602 C601 1.392 . S
C602 C603 1.385 . S
C602 C604 1.478 . S
C603 H597 0.930 . S
C603 C599 1.400 . S
C603 C602 1.385 . S
C604 C602 1.478 . S
C604 C606 1.381 . S
C604 C610 1.383 . S
C605 C601 1.495 . S
C605 H611 0.959 . S
C605 H612 0.961 . S
C605 H613 0.960 . S
C606 C604 1.381 . S
C606 C607 1.394 . S
C606 H614 0.930 . S
C607 C606 1.394 . S
C607 C608 1.383 . S
C607 H615 0.929 . S
C608 C607 1.383 . S
C608 C609 1.377 . S
C609 H593 0.930 . S
C609 C608 1.377 . S
C609 C610 1.379 . S
C610 H594 0.931 . S
C610 C604 1.383 . S
C610 C609 1.379 . S
H611 C605 0.959 . S
H612 C605 0.961 . S
H613 C605 0.960 . S
H614 C606 0.930 . S
H615 C607 0.929 . S
H616 C624 0.929 . S
H617 C626 0.930 1_655 S
H618 C628 0.930 . S
H619 C631 0.929 . S
H620 C634 0.930 . S
H621 C636 0.960 1_565 S
H622 C636 0.960 . S
H623 C636 0.960 . S
C624 H616 0.929 . S
C624 C625 1.377 . S
C624 C626 1.384 . S
C625 C624 1.377 . S
C625 C631 1.390 . S
C626 H617 0.930 1_455 S
C626 C624 1.384 . S
C626 C627 1.372 . S
C627 C626 1.372 . S
C627 C628 1.400 . S
C627 C632 1.490 . S
C628 H618 0.930 . S
C628 C627 1.400 . S
C628 C631 1.386 . S
H629 C645 0.930 . S
H630 C646 0.931 . S
C631 H619 0.929 . S
C631 C625 1.390 . S
C631 C628 1.386 . S
C632 C627 1.490 . S
C632 C634 1.395 1_455 S
C632 C635 1.403 . S
H633 C639 0.930 . S
C634 H620 0.930 . S
C634 C632 1.395 1_655 S
C634 C637 1.403 1_545 S
C635 C632 1.403 . S
C635 C636 1.524 . S
C635 C639 1.400 1_545 S
C636 H621 0.960 1_545 S
C636 H622 0.960 . S
C636 H623 0.960 . S
C636 C635 1.524 . S
C637 C634 1.403 1_565 S
C637 C638 1.392 . S
C637 C641 1.495 . S
C638 C637 1.392 . S
C638 C639 1.385 1_655 S
C638 C640 1.478 . S
C639 H633 0.930 . S
C639 C635 1.400 1_565 S
C639 C638 1.385 1_455 S
C640 C638 1.478 . S
C640 C642 1.381 . S
C640 C646 1.383 . S
C641 C637 1.495 . S
C641 H647 0.959 1_565 S
C641 H648 0.961 . S
C641 H649 0.960 . S
C642 C640 1.381 . S
C642 C643 1.394 . S
C642 H650 0.930 . S
C643 C642 1.394 . S
C643 C644 1.383 . S
C643 H651 0.929 . S
C644 C643 1.383 . S
C644 C645 1.377 . S
C645 H629 0.930 . S
C645 C644 1.377 . S
C645 C646 1.379 . S
C646 H630 0.931 . S
C646 C640 1.383 . S
C646 C645 1.379 . S
H647 C641 0.959 1_545 S
H648 C641 0.961 . S
H649 C641 0.960 . S
H650 C642 0.930 . S
H651 C643 0.929 . S
H652 C660 0.929 . S
H653 C662 0.930 . S
H654 C664 0.930 . S
H655 C667 0.929 . S
H656 C670 0.930 . S
H657 C672 0.960 . S
H658 C672 0.960 . S
H659 C672 0.960 . S
C660 H652 0.929 . S
C660 C661 1.377 . S
C660 C662 1.384 . S
C661 C660 1.377 . S
C661 C667 1.390 . S
C662 H653 0.930 . S
C662 C660 1.384 . S
C662 C663 1.372 . S
C663 C662 1.372 . S
C663 C664 1.400 . S
C663 C668 1.490 . S
C664 H654 0.930 . S
C664 C663 1.400 . S
C664 C667 1.386 . S
H665 C681 0.930 . S
H666 C682 0.931 . S
C667 H655 0.929 . S
C667 C661 1.390 . S
C667 C664 1.386 . S
C668 C663 1.490 . S
C668 C670 1.395 . S
C668 C671 1.403 1_565 S
H669 C675 0.930 . S
C670 H656 0.930 . S
C670 C668 1.395 . S
C670 C673 1.403 1_455 S
C671 C668 1.403 1_545 S
C671 C672 1.524 . S
C671 C675 1.400 1_455 S
C672 H657 0.960 . S
C672 H658 0.960 . S
C672 H659 0.960 . S
C672 C671 1.524 . S
C673 C670 1.403 1_655 S
C673 C674 1.392 1_565 S
C673 C677 1.495 . S
C674 C673 1.392 1_545 S
C674 C675 1.385 . S
C674 C676 1.478 . S
C675 H669 0.930 . S
C675 C671 1.400 1_655 S
C675 C674 1.385 . S
C676 C674 1.478 . S
C676 C678 1.381 . S
C676 C682 1.383 . S
C677 C673 1.495 . S
C677 H683 0.959 . S
C677 H684 0.961 . S
C677 H685 0.960 . S
C678 C676 1.381 . S
C678 C679 1.394 . S
C678 H686 0.930 . S
C679 C678 1.394 . S
C679 C680 1.383 . S
C679 H687 0.929 . S
C680 C679 1.383 . S
C680 C681 1.377 . S
C681 H665 0.930 . S
C681 C680 1.377 . S
C681 C682 1.379 . S
C682 H666 0.931 . S
C682 C676 1.383 . S
C682 C681 1.379 . S
H683 C677 0.959 . S
H684 C677 0.961 . S
H685 C677 0.960 . S
H686 C678 0.930 . S
H687 C679 0.929 . S
H688 C696 0.929 . S
H689 C698 0.930 . S
H690 C700 0.930 . S
H691 C703 0.929 . S
H692 C706 0.930 . S
H693 C708 0.960 1_565 S
H694 C708 0.960 . S
H695 C708 0.960 . S
C696 H688 0.929 . S
C696 C697 1.377 . S
C696 C698 1.384 . S
C697 C696 1.377 . S
C697 C703 1.390 . S
C698 H689 0.930 . S
C698 C696 1.384 . S
C698 C699 1.372 . S
C699 C698 1.372 . S
C699 C700 1.400 . S
C699 C704 1.490 . S
C700 H690 0.930 . S
C700 C699 1.400 . S
C700 C703 1.386 . S
H701 C717 0.930 . S
H702 C718 0.931 . S
C703 H691 0.929 . S
C703 C697 1.390 . S
C703 C700 1.386 . S
C704 C699 1.490 . S
C704 C706 1.395 1_655 S
C704 C707 1.403 . S
H705 C711 0.930 . S
C706 H692 0.930 . S
C706 C704 1.395 1_455 S
C706 C709 1.403 1_545 S
C707 C704 1.403 . S
C707 C708 1.524 . S
C707 C711 1.400 1_545 S
C708 H693 0.960 1_545 S
C708 H694 0.960 . S
C708 H695 0.960 . S
C708 C707 1.524 . S
C709 C706 1.403 1_565 S
C709 C710 1.392 . S
C709 C713 1.495 . S
C710 C709 1.392 . S
C710 C711 1.385 1_455 S
C710 C712 1.478 . S
C711 H705 0.930 . S
C711 C707 1.400 1_565 S
C711 C710 1.385 1_655 S
C712 C710 1.478 . S
C712 C714 1.381 . S
C712 C718 1.383 . S
C713 C709 1.495 . S
C713 H719 0.959 1_565 S
C713 H720 0.961 . S
C713 H721 0.960 . S
C714 C712 1.381 . S
C714 C715 1.394 . S
C714 H722 0.930 . S
C715 C714 1.394 . S
C715 C716 1.383 . S
C715 H723 0.929 . S
C716 C715 1.383 . S
C716 C717 1.377 . S
C717 H701 0.930 . S
C717 C716 1.377 . S
C717 C718 1.379 . S
C718 H702 0.931 . S
C718 C712 1.383 . S
C718 C717 1.379 . S
H719 C713 0.959 1_545 S
H720 C713 0.961 . S
H721 C713 0.960 . S
H722 C714 0.930 . S
H723 C715 0.929 . S
H724 C732 0.929 . S
H725 C734 0.942 . S
H726 C736 0.930 . S
H727 C739 0.929 . S
H728 C742 0.930 . S
H729 C744 0.960 1_455 S
H730 C744 0.960 . S
H731 C744 0.960 . S
C732 H724 0.929 . S
C732 C733 1.377 . S
C732 C734 1.384 . S
C733 C732 1.377 . S
C733 C739 1.390 . S
C734 H725 0.942 . S
C734 C732 1.384 . S
C734 C735 1.372 . S
C735 C734 1.372 . S
C735 C736 1.400 . S
C735 C740 1.490 . S
C736 H726 0.930 . S
C736 C735 1.400 . S
C736 C739 1.386 . S
H737 C753 0.930 . S
H738 C754 0.931 . S
C739 H727 0.929 . S
C739 C733 1.390 . S
C739 C736 1.386 . S
C740 C735 1.490 . S
C740 C742 1.395 1_565 S
C740 C743 1.403 . S
H741 C747 0.930 . S
C742 H728 0.930 . S
C742 C740 1.395 1_545 S
C742 C745 1.403 1_655 S
C743 C740 1.403 . S
C743 C744 1.524 . S
C743 C747 1.400 1_655 S
C744 H729 0.960 1_655 S
C744 H730 0.960 . S
C744 H731 0.960 . S
C744 C743 1.524 . S
C745 C742 1.403 1_455 S
C745 C746 1.392 . S
C745 C749 1.495 . S
C746 C745 1.392 . S
C746 C747 1.385 1_545 S
C746 C748 1.478 . S
C747 H741 0.930 . S
C747 C743 1.400 1_455 S
C747 C746 1.385 1_565 S
C748 C746 1.478 . S
C748 C750 1.381 . S
C748 C754 1.383 . S
C749 C745 1.495 . S
C749 H755 0.959 1_455 S
C749 H756 0.961 . S
C749 H757 0.960 . S
C750 C748 1.381 . S
C750 C751 1.394 . S
C750 H758 0.930 . S
C751 C750 1.394 . S
C751 C752 1.383 . S
C751 H759 0.929 . S
C752 C751 1.383 . S
C752 C753 1.377 . S
C753 H737 0.930 . S
C753 C752 1.377 . S
C753 C754 1.379 . S
C754 H738 0.931 . S
C754 C748 1.383 . S
C754 C753 1.379 . S
H755 C749 0.959 1_655 S
H756 C749 0.961 . S
H757 C749 0.960 . S
H758 C750 0.930 . S
H759 C751 0.929 . S
C193 N12 1.693 . S
C212 N58 1.677 . S
C229 N81 1.691 . S
C248 N35 1.690 . S
C265 N150 1.693 . S
C284 N104 1.705 . S
C301 N127 1.691 . S
C320 N173 1.695 . S
C337 C145 1.672 . S
C356 C7 1.681 . S
C373 C30 1.669 . S
C392 C168 1.673 . S
C409 C53 1.669 . S
C428 C99 1.674 . S
C445 C122 1.673 . S
C464 C76 1.680 . S
C481 C16 1.680 . S
C500 C131 1.669 . S
C517 C154 1.681 . S
C536 C39 1.684 . S
C553 C177 1.678 . S
C572 C62 1.664 . S
C589 C85 1.683 . S
C608 C108 1.692 . S
C625 N2 1.335 . S
C644 N48 1.359 . S
C661 N71 1.326 . S
C680 N25 1.291 . S
C697 N140 1.340 . S
C716 N94 1.368 . S
C733 N163 1.337 . S
C752 N117 1.365 . S
