# Generated by pormake.
# Topology uky, (4)-cn, num edge types: 1
# Building blocks:
#     Node 0, Type 0, BuildingBlock: GALJAG_clean_sbu_0, # of connection points: 4
#     Node 1, Type 0, BuildingBlock: GALJAG_clean_sbu_0, # of connection points: 4
#     Node 2, Type 0, BuildingBlock: GALJAG_clean_sbu_0, # of connection points: 4
#     Node 3, Type 0, BuildingBlock: GALJAG_clean_sbu_0, # of connection points: 4
#     Node 4, Type 0, BuildingBlock: GALJAG_clean_sbu_0, # of connection points: 4
#     Node 5, Type 0, BuildingBlock: GALJAG_clean_sbu_0, # of connection points: 4
#     Node 6, Type 0, BuildingBlock: GALJAG_clean_sbu_0, # of connection points: 4
#     Node 7, Type 0, BuildingBlock: GALJAG_clean_sbu_0, # of connection points: 4
#     Node 8, Type 0, BuildingBlock: GALJAG_clean_sbu_0, # of connection points: 4
#     Node 9, Type 0, BuildingBlock: GALJAG_clean_sbu_0, # of connection points: 4
#     Node 10, Type 0, BuildingBlock: GALJAG_clean_sbu_0, # of connection points: 4
#     Node 11, Type 0, BuildingBlock: GALJAG_clean_sbu_0, # of connection points: 4
#     Node 12, Type 0, BuildingBlock: GALJAG_clean_sbu_0, # of connection points: 4
#     Node 13, Type 0, BuildingBlock: GALJAG_clean_sbu_0, # of connection points: 4
#     Node 14, Type 0, BuildingBlock: GALJAG_clean_sbu_0, # of connection points: 4
#     Node 15, Type 0, BuildingBlock: GALJAG_clean_sbu_0, # of connection points: 4
#     Node 16, Type 0, BuildingBlock: GALJAG_clean_sbu_0, # of connection points: 4
#     Node 17, Type 0, BuildingBlock: GALJAG_clean_sbu_0, # of connection points: 4
#     Node 18, Type 0, BuildingBlock: GALJAG_clean_sbu_0, # of connection points: 4
#     Node 19, Type 0, BuildingBlock: GALJAG_clean_sbu_0, # of connection points: 4
#     Node 20, Type 0, BuildingBlock: GALJAG_clean_sbu_0, # of connection points: 4
#     Node 21, Type 0, BuildingBlock: GALJAG_clean_sbu_0, # of connection points: 4
#     Node 22, Type 0, BuildingBlock: GALJAG_clean_sbu_0, # of connection points: 4
#     Node 23, Type 0, BuildingBlock: GALJAG_clean_sbu_0, # of connection points: 4
#     Node 24, Type 0, BuildingBlock: GALJAG_clean_sbu_0, # of connection points: 4
#     Node 25, Type 0, BuildingBlock: GALJAG_clean_sbu_0, # of connection points: 4
#     Node 26, Type 0, BuildingBlock: GALJAG_clean_sbu_0, # of connection points: 4
#     Node 27, Type 0, BuildingBlock: GALJAG_clean_sbu_0, # of connection points: 4
#     Node 28, Type 0, BuildingBlock: GALJAG_clean_sbu_0, # of connection points: 4
#     Node 29, Type 0, BuildingBlock: GALJAG_clean_sbu_0, # of connection points: 4
#     Node 30, Type 0, BuildingBlock: GALJAG_clean_sbu_0, # of connection points: 4
#     Node 31, Type 0, BuildingBlock: GALJAG_clean_sbu_0, # of connection points: 4
#     Node 32, Type 0, BuildingBlock: GALJAG_clean_sbu_0, # of connection points: 4
#     Node 33, Type 0, BuildingBlock: GALJAG_clean_sbu_0, # of connection points: 4
#     Node 34, Type 0, BuildingBlock: GALJAG_clean_sbu_0, # of connection points: 4
#     Node 35, Type 0, BuildingBlock: GALJAG_clean_sbu_0, # of connection points: 4
#     Node 36, Type 0, BuildingBlock: GALJAG_clean_sbu_0, # of connection points: 4
#     Node 37, Type 0, BuildingBlock: GALJAG_clean_sbu_0, # of connection points: 4
#     Node 38, Type 0, BuildingBlock: GALJAG_clean_sbu_0, # of connection points: 4
#     Node 39, Type 0, BuildingBlock: GALJAG_clean_sbu_0, # of connection points: 4
#     Node 40, Type 0, BuildingBlock: GALJAG_clean_sbu_0, # of connection points: 4
#     Node 41, Type 0, BuildingBlock: GALJAG_clean_sbu_0, # of connection points: 4
#     Node 42, Type 0, BuildingBlock: GALJAG_clean_sbu_0, # of connection points: 4
#     Node 43, Type 0, BuildingBlock: GALJAG_clean_sbu_0, # of connection points: 4
#     Node 44, Type 0, BuildingBlock: GALJAG_clean_sbu_0, # of connection points: 4
#     Node 45, Type 0, BuildingBlock: GALJAG_clean_sbu_0, # of connection points: 4
#     Node 46, Type 0, BuildingBlock: GALJAG_clean_sbu_0, # of connection points: 4
#     Node 47, Type 0, BuildingBlock: GALJAG_clean_sbu_0, # of connection points: 4
#     Edge 48, Type (0, 0), BuildingBlock: KIFKEQ_clean_linker_1, # of connection points: 2
#     Edge 49, Type (0, 0), BuildingBlock: KIFKEQ_clean_linker_1, # of connection points: 2
#     Edge 50, Type (0, 0), BuildingBlock: KIFKEQ_clean_linker_1, # of connection points: 2
#     Edge 51, Type (0, 0), BuildingBlock: KIFKEQ_clean_linker_1, # of connection points: 2
#     Edge 52, Type (0, 0), BuildingBlock: KIFKEQ_clean_linker_1, # of connection points: 2
#     Edge 53, Type (0, 0), BuildingBlock: KIFKEQ_clean_linker_1, # of connection points: 2
#     Edge 54, Type (0, 0), BuildingBlock: KIFKEQ_clean_linker_1, # of connection points: 2
#     Edge 55, Type (0, 0), BuildingBlock: KIFKEQ_clean_linker_1, # of connection points: 2
#     Edge 56, Type (0, 0), BuildingBlock: KIFKEQ_clean_linker_1, # of connection points: 2
#     Edge 57, Type (0, 0), BuildingBlock: KIFKEQ_clean_linker_1, # of connection points: 2
#     Edge 58, Type (0, 0), BuildingBlock: KIFKEQ_clean_linker_1, # of connection points: 2
#     Edge 59, Type (0, 0), BuildingBlock: KIFKEQ_clean_linker_1, # of connection points: 2
#     Edge 60, Type (0, 0), BuildingBlock: KIFKEQ_clean_linker_1, # of connection points: 2
#     Edge 61, Type (0, 0), BuildingBlock: KIFKEQ_clean_linker_1, # of connection points: 2
#     Edge 62, Type (0, 0), BuildingBlock: KIFKEQ_clean_linker_1, # of connection points: 2
#     Edge 63, Type (0, 0), BuildingBlock: KIFKEQ_clean_linker_1, # of connection points: 2
#     Edge 64, Type (0, 0), BuildingBlock: KIFKEQ_clean_linker_1, # of connection points: 2
#     Edge 65, Type (0, 0), BuildingBlock: KIFKEQ_clean_linker_1, # of connection points: 2
#     Edge 66, Type (0, 0), BuildingBlock: KIFKEQ_clean_linker_1, # of connection points: 2
#     Edge 67, Type (0, 0), BuildingBlock: KIFKEQ_clean_linker_1, # of connection points: 2
#     Edge 68, Type (0, 0), BuildingBlock: KIFKEQ_clean_linker_1, # of connection points: 2
#     Edge 69, Type (0, 0), BuildingBlock: KIFKEQ_clean_linker_1, # of connection points: 2
#     Edge 70, Type (0, 0), BuildingBlock: KIFKEQ_clean_linker_1, # of connection points: 2
#     Edge 71, Type (0, 0), BuildingBlock: KIFKEQ_clean_linker_1, # of connection points: 2
#     Edge 72, Type (0, 0), BuildingBlock: KIFKEQ_clean_linker_1, # of connection points: 2
#     Edge 73, Type (0, 0), BuildingBlock: KIFKEQ_clean_linker_1, # of connection points: 2
#     Edge 74, Type (0, 0), BuildingBlock: KIFKEQ_clean_linker_1, # of connection points: 2
#     Edge 75, Type (0, 0), BuildingBlock: KIFKEQ_clean_linker_1, # of connection points: 2
#     Edge 76, Type (0, 0), BuildingBlock: KIFKEQ_clean_linker_1, # of connection points: 2
#     Edge 77, Type (0, 0), BuildingBlock: KIFKEQ_clean_linker_1, # of connection points: 2
#     Edge 78, Type (0, 0), BuildingBlock: KIFKEQ_clean_linker_1, # of connection points: 2
#     Edge 79, Type (0, 0), BuildingBlock: KIFKEQ_clean_linker_1, # of connection points: 2
#     Edge 80, Type (0, 0), BuildingBlock: KIFKEQ_clean_linker_1, # of connection points: 2
#     Edge 81, Type (0, 0), BuildingBlock: KIFKEQ_clean_linker_1, # of connection points: 2
#     Edge 82, Type (0, 0), BuildingBlock: KIFKEQ_clean_linker_1, # of connection points: 2
#     Edge 83, Type (0, 0), BuildingBlock: KIFKEQ_clean_linker_1, # of connection points: 2
#     Edge 84, Type (0, 0), BuildingBlock: KIFKEQ_clean_linker_1, # of connection points: 2
#     Edge 85, Type (0, 0), BuildingBlock: KIFKEQ_clean_linker_1, # of connection points: 2
#     Edge 86, Type (0, 0), BuildingBlock: KIFKEQ_clean_linker_1, # of connection points: 2
#     Edge 87, Type (0, 0), BuildingBlock: KIFKEQ_clean_linker_1, # of connection points: 2
#     Edge 88, Type (0, 0), BuildingBlock: KIFKEQ_clean_linker_1, # of connection points: 2
#     Edge 89, Type (0, 0), BuildingBlock: KIFKEQ_clean_linker_1, # of connection points: 2
#     Edge 90, Type (0, 0), BuildingBlock: KIFKEQ_clean_linker_1, # of connection points: 2
#     Edge 91, Type (0, 0), BuildingBlock: KIFKEQ_clean_linker_1, # of connection points: 2
#     Edge 92, Type (0, 0), BuildingBlock: KIFKEQ_clean_linker_1, # of connection points: 2
#     Edge 93, Type (0, 0), BuildingBlock: KIFKEQ_clean_linker_1, # of connection points: 2
#     Edge 94, Type (0, 0), BuildingBlock: KIFKEQ_clean_linker_1, # of connection points: 2
#     Edge 95, Type (0, 0), BuildingBlock: KIFKEQ_clean_linker_1, # of connection points: 2
#     Edge 96, Type (0, 0), BuildingBlock: KIFKEQ_clean_linker_1, # of connection points: 2
#     Edge 97, Type (0, 0), BuildingBlock: KIFKEQ_clean_linker_1, # of connection points: 2
#     Edge 98, Type (0, 0), BuildingBlock: KIFKEQ_clean_linker_1, # of connection points: 2
#     Edge 99, Type (0, 0), BuildingBlock: KIFKEQ_clean_linker_1, # of connection points: 2
#     Edge 100, Type (0, 0), BuildingBlock: KIFKEQ_clean_linker_1, # of connection points: 2
#     Edge 101, Type (0, 0), BuildingBlock: KIFKEQ_clean_linker_1, # of connection points: 2
#     Edge 102, Type (0, 0), BuildingBlock: KIFKEQ_clean_linker_1, # of connection points: 2
#     Edge 103, Type (0, 0), BuildingBlock: KIFKEQ_clean_linker_1, # of connection points: 2
#     Edge 104, Type (0, 0), BuildingBlock: KIFKEQ_clean_linker_1, # of connection points: 2
#     Edge 105, Type (0, 0), BuildingBlock: KIFKEQ_clean_linker_1, # of connection points: 2
#     Edge 106, Type (0, 0), BuildingBlock: KIFKEQ_clean_linker_1, # of connection points: 2
#     Edge 107, Type (0, 0), BuildingBlock: KIFKEQ_clean_linker_1, # of connection points: 2
#     Edge 108, Type (0, 0), BuildingBlock: KIFKEQ_clean_linker_1, # of connection points: 2
#     Edge 109, Type (0, 0), BuildingBlock: KIFKEQ_clean_linker_1, # of connection points: 2
#     Edge 110, Type (0, 0), BuildingBlock: KIFKEQ_clean_linker_1, # of connection points: 2
#     Edge 111, Type (0, 0), BuildingBlock: KIFKEQ_clean_linker_1, # of connection points: 2
#     Edge 112, Type (0, 0), BuildingBlock: KIFKEQ_clean_linker_1, # of connection points: 2
#     Edge 113, Type (0, 0), BuildingBlock: KIFKEQ_clean_linker_1, # of connection points: 2
#     Edge 114, Type (0, 0), BuildingBlock: KIFKEQ_clean_linker_1, # of connection points: 2
#     Edge 115, Type (0, 0), BuildingBlock: KIFKEQ_clean_linker_1, # of connection points: 2
#     Edge 116, Type (0, 0), BuildingBlock: KIFKEQ_clean_linker_1, # of connection points: 2
#     Edge 117, Type (0, 0), BuildingBlock: KIFKEQ_clean_linker_1, # of connection points: 2
#     Edge 118, Type (0, 0), BuildingBlock: KIFKEQ_clean_linker_1, # of connection points: 2
#     Edge 119, Type (0, 0), BuildingBlock: KIFKEQ_clean_linker_1, # of connection points: 2
#     Edge 120, Type (0, 0), BuildingBlock: KIFKEQ_clean_linker_1, # of connection points: 2
#     Edge 121, Type (0, 0), BuildingBlock: KIFKEQ_clean_linker_1, # of connection points: 2
#     Edge 122, Type (0, 0), BuildingBlock: KIFKEQ_clean_linker_1, # of connection points: 2
#     Edge 123, Type (0, 0), BuildingBlock: KIFKEQ_clean_linker_1, # of connection points: 2
#     Edge 124, Type (0, 0), BuildingBlock: KIFKEQ_clean_linker_1, # of connection points: 2
#     Edge 125, Type (0, 0), BuildingBlock: KIFKEQ_clean_linker_1, # of connection points: 2
#     Edge 126, Type (0, 0), BuildingBlock: KIFKEQ_clean_linker_1, # of connection points: 2
#     Edge 127, Type (0, 0), BuildingBlock: KIFKEQ_clean_linker_1, # of connection points: 2
#     Edge 128, Type (0, 0), BuildingBlock: KIFKEQ_clean_linker_1, # of connection points: 2
#     Edge 129, Type (0, 0), BuildingBlock: KIFKEQ_clean_linker_1, # of connection points: 2
#     Edge 130, Type (0, 0), BuildingBlock: KIFKEQ_clean_linker_1, # of connection points: 2
#     Edge 131, Type (0, 0), BuildingBlock: KIFKEQ_clean_linker_1, # of connection points: 2
#     Edge 132, Type (0, 0), BuildingBlock: KIFKEQ_clean_linker_1, # of connection points: 2
#     Edge 133, Type (0, 0), BuildingBlock: KIFKEQ_clean_linker_1, # of connection points: 2
#     Edge 134, Type (0, 0), BuildingBlock: KIFKEQ_clean_linker_1, # of connection points: 2
#     Edge 135, Type (0, 0), BuildingBlock: KIFKEQ_clean_linker_1, # of connection points: 2
#     Edge 136, Type (0, 0), BuildingBlock: KIFKEQ_clean_linker_1, # of connection points: 2
#     Edge 137, Type (0, 0), BuildingBlock: KIFKEQ_clean_linker_1, # of connection points: 2
#     Edge 138, Type (0, 0), BuildingBlock: KIFKEQ_clean_linker_1, # of connection points: 2
#     Edge 139, Type (0, 0), BuildingBlock: KIFKEQ_clean_linker_1, # of connection points: 2
#     Edge 140, Type (0, 0), BuildingBlock: KIFKEQ_clean_linker_1, # of connection points: 2
#     Edge 141, Type (0, 0), BuildingBlock: KIFKEQ_clean_linker_1, # of connection points: 2
#     Edge 142, Type (0, 0), BuildingBlock: KIFKEQ_clean_linker_1, # of connection points: 2
#     Edge 143, Type (0, 0), BuildingBlock: KIFKEQ_clean_linker_1, # of connection points: 2
# Relax obj value: 0.129
# Max RMSD: 0.165
# Mean RMSD: 0.165
data_MOF--net-uky--node1-GALJAG_clean_sbu_0--edge1-KIFKEQ_clean_linker_1
_symmetry_space_group_name_H-M    P1
_symmetry_Int_Tables_number       1
_symmetry_cell_setting            triclinic
loop_
_symmetry_equiv_pos_as_xyz
'x, y, z'
_cell_length_a     63.554943
_cell_length_b     63.580786
_cell_length_c     63.596502
_cell_angle_alpha  89.928087
_cell_angle_beta   90.054353
_cell_angle_gamma 89.996173
loop_
_atom_site_label
_atom_site_type_symbol
_atom_site_fract_x
_atom_site_fract_y
_atom_site_fract_z
_atom_type_partial_charge
In0 In 0.22304 0.20244 0.37762 0.0
O1 O 0.20716 0.17003 0.3778 0.0
O2 O 0.18783 0.19726 0.3771 0.0
C3 C 0.25894 0.19515 0.35635 0.0
C4 C 0.232 0.20419 0.41908 0.0
C5 C 0.20992 0.23608 0.35562 0.0
O6 O 0.24284 0.18372 0.35438 0.0
O7 O 0.25712 0.20983 0.36953 0.0
O8 O 0.2142 0.23709 0.37501 0.0
O9 O 0.21238 0.21817 0.34743 0.0
C10 C 0.18878 0.17749 0.3773 0.0
O11 O 0.22495 0.21976 0.40898 0.0
O12 O 0.23469 0.18783 0.40824 0.0
In13 In 0.042 0.97709 0.62917 0.0
O14 O 0.07288 0.9586 0.62806 0.0
O15 O 0.04411 0.94162 0.63041 0.0
C16 C 0.05236 0.01221 0.60768 0.0
C17 C 0.04147 0.98664 0.67045 0.0
C18 C 0.00778 0.96485 0.60752 0.0
O19 O 0.06209 0.99507 0.60547 0.0
O20 O 0.03801 0.01181 0.62133 0.0
O21 O 0.0072 0.96826 0.62708 0.0
O22 O 0.0255 0.96775 0.59906 0.0
C23 C 0.06389 0.94092 0.62918 0.0
O24 O 0.02501 0.98644 0.65936 0.0
O25 O 0.05816 0.98231 0.66067 0.0
In26 In 0.2677 0.79346 0.87857 0.0
O27 O 0.25919 0.77607 0.90875 0.0
O28 O 0.26166 0.80935 0.91007 0.0
C29 C 0.28107 0.75916 0.85787 0.0
C30 C 0.30303 0.81674 0.87813 0.0
C31 C 0.23221 0.80225 0.85693 0.0
O32 O 0.2779 0.75906 0.87749 0.0
O33 O 0.27739 0.77647 0.84885 0.0
O34 O 0.24898 0.81257 0.85452 0.0
O35 O 0.23316 0.78811 0.87078 0.0
C36 C 0.25812 0.79246 0.91984 0.0
O37 O 0.285 0.82508 0.87791 0.0
O38 O 0.30309 0.79694 0.87869 0.0
In39 In 0.44773 0.02096 0.12482 0.0
O40 O 0.44092 0.05555 0.11986 0.0
O41 O 0.41509 0.03616 0.12815 0.0
C42 C 0.4403 0.98541 0.103 0.0
C43 C 0.45033 0.01364 0.1665 0.0
C44 C 0.48284 0.03255 0.10442 0.0
O45 O 0.42906 0.00165 0.101 0.0
O46 O 0.45477 0.98694 0.11648 0.0
O47 O 0.48318 0.02645 0.12334 0.0
O48 O 0.46488 0.03264 0.09592 0.0
C49 C 0.42157 0.05439 0.12377 0.0
O50 O 0.46303 0.02549 0.15692 0.0
O51 O 0.43637 0.00542 0.15504 0.0
In52 In 0.22222 0.78665 0.11753 0.0
O53 O 0.23254 0.77147 0.08658 0.0
O54 O 0.22439 0.80372 0.08598 0.0
C55 C 0.21273 0.74696 0.1288 0.0
C56 C 0.18851 0.81132 0.12438 0.0
C57 C 0.25322 0.7982 0.14413 0.0
O58 O 0.2308 0.75479 0.13124 0.0
O59 O 0.19951 0.75899 0.12013 0.0
O60 O 0.2342 0.79702 0.14953 0.0
O61 O 0.25663 0.79418 0.12502 0.0
C62 C 0.23045 0.78793 0.07577 0.0
O63 O 0.2063 0.81878 0.11964 0.0
O64 O 0.18793 0.79156 0.12597 0.0
In65 In 0.45894 0.97486 0.36325 0.0
O66 O 0.428 0.95675 0.36684 0.0
O67 O 0.45588 0.93964 0.35978 0.0
C68 C 0.45104 0.0101 0.3853 0.0
C69 C 0.45785 0.98544 0.3222 0.0
C70 C 0.49264 0.96152 0.38499 0.0
O71 O 0.43938 0.99407 0.38628 0.0
O72 O 0.46624 0.00857 0.37269 0.0
O73 O 0.49388 0.96677 0.36584 0.0
O74 O 0.47457 0.96326 0.393 0.0
C75 C 0.43644 0.93908 0.36356 0.0
O76 O 0.4747 0.98062 0.33153 0.0
O77 O 0.44166 0.98511 0.33361 0.0
In78 In 0.27 0.20514 0.61625 0.0
O79 O 0.2866 0.17312 0.616 0.0
O80 O 0.30505 0.20091 0.61304 0.0
C81 C 0.23663 0.19611 0.64082 0.0
C82 C 0.25992 0.20644 0.57505 0.0
C83 C 0.28286 0.23917 0.63772 0.0
O84 O 0.25355 0.18576 0.64165 0.0
O85 O 0.23635 0.21044 0.62712 0.0
O86 O 0.27109 0.24067 0.62175 0.0
O87 O 0.28795 0.22066 0.64271 0.0
C88 C 0.3047 0.18113 0.61412 0.0
O89 O 0.2695 0.22123 0.58415 0.0
O90 O 0.2552 0.19116 0.58678 0.0
In91 In 0.03881 0.02068 0.86862 0.0
O92 O 0.02274 0.01223 0.8375 0.0
O93 O 0.05574 0.01642 0.83722 0.0
C94 C -0.00066 0.02935 0.88127 0.0
C95 C 0.06357 0.05459 0.8741 0.0
C96 C 0.05049 0.99038 0.89599 0.0
O97 O 0.00685 0.01097 0.88136 0.0
O98 O 0.01158 0.04332 0.87423 0.0
O99 O 0.04922 0.00952 0.90092 0.0
O100 O 0.04653 0.9865 0.87695 0.0
C101 C 0.0394 0.01236 0.82683 0.0
O102 O 0.07105 0.03641 0.87127 0.0
O103 O 0.04376 0.0555 0.87436 0.0
In104 In 0.37918 0.22502 0.20247 0.0
O105 O 0.41186 0.22609 0.21712 0.0
O106 O 0.40851 0.23723 0.1858 0.0
C107 C 0.35791 0.21378 0.23717 0.0
C108 C 0.37741 0.18929 0.17989 0.0
C109 C 0.35787 0.2609 0.19506 0.0
O110 O 0.37676 0.22006 0.23794 0.0
O111 O 0.34992 0.21334 0.219 0.0
O112 O 0.35596 0.24485 0.18355 0.0
O113 O 0.37103 0.25901 0.2098 0.0
C114 C 0.42066 0.23382 0.20113 0.0
O115 O 0.37472 0.20709 0.17148 0.0
O116 O 0.38127 0.18972 0.19931 0.0
In117 In 0.0188 0.1287 0.4519 0.0
O118 O 0.00865 0.15937 0.46758 0.0
O119 O 0.01556 0.16008 0.43493 0.0
C120 C 0.03108 0.10791 0.48668 0.0
C121 C 0.05467 0.12667 0.42972 0.0
C122 C 0.98319 0.10794 0.4418 0.0
O123 O 0.02848 0.12762 0.48653 0.0
O124 O 0.02732 0.09888 0.46943 0.0
O125 O 0.00016 0.10554 0.43184 0.0
O126 O 0.98402 0.12136 0.45633 0.0
C127 C 0.00999 0.1702 0.45101 0.0
O128 O 0.03684 0.1252 0.42104 0.0
O129 O 0.05426 0.12934 0.44936 0.0
In130 In 0.11378 0.76811 0.70243 0.0
O131 O 0.11463 0.78623 0.67124 0.0
O132 O 0.11143 0.80348 0.69966 0.0
C133 C 0.13677 0.73358 0.69378 0.0
C134 C 0.07275 0.75738 0.7021 0.0
C135 C 0.13486 0.78033 0.73696 0.0
O136 O 0.1385 0.75043 0.68343 0.0
O137 O 0.12294 0.73396 0.70796 0.0
O138 O 0.11587 0.77443 0.73771 0.0
O139 O 0.14306 0.77989 0.71889 0.0
C140 C 0.11289 0.80398 0.67993 0.0
O141 O 0.0821 0.76336 0.71854 0.0
O142 O 0.08415 0.7566 0.6859 0.0
In143 In 0.47574 0.86533 0.95036 0.0
O144 O 0.45719 0.86819 0.91961 0.0
O145 O 0.44037 0.86292 0.94808 0.0
C146 C 0.51114 0.88701 0.94161 0.0
C147 C 0.48548 0.82408 0.94935 0.0
C148 C 0.46314 0.88665 0.98457 0.0
O149 O 0.4945 0.88905 0.93098 0.0
O150 O 0.51012 0.87345 0.95604 0.0
O151 O 0.46758 0.86728 0.9853 0.0
O152 O 0.46519 0.89507 0.9667 0.0
C153 C 0.43957 0.86575 0.92847 0.0
O154 O 0.48379 0.83418 0.96633 0.0
O155 O 0.48251 0.83483 0.93295 0.0
In156 In 0.37942 0.7693 0.29313 0.0
O157 O 0.38058 0.7858 0.32515 0.0
O158 O 0.38151 0.80441 0.29731 0.0
C159 C 0.3547 0.7361 0.30237 0.0
C160 C 0.42073 0.75967 0.29191 0.0
C161 C 0.35836 0.78183 0.25867 0.0
O162 O 0.35338 0.75336 0.31201 0.0
O163 O 0.36899 0.73538 0.28867 0.0
O164 O 0.37428 0.76996 0.25751 0.0
O165 O 0.35322 0.78716 0.27705 0.0
C166 C 0.38142 0.80396 0.3171 0.0
O167 O 0.4115 0.76903 0.27703 0.0
O168 O 0.40907 0.75494 0.30723 0.0
In169 In 0.47635 0.12621 0.5431 0.0
O170 O 0.4802 0.15783 0.52672 0.0
O171 O 0.488 0.15609 0.55916 0.0
C172 C 0.46587 0.10569 0.50772 0.0
C173 C 0.44007 0.12697 0.56495 0.0
C174 C 0.51048 0.10308 0.55311 0.0
O175 O 0.47238 0.12447 0.50751 0.0
O176 O 0.46474 0.09739 0.52573 0.0
O177 O 0.4931 0.10103 0.56244 0.0
O178 O 0.51081 0.11729 0.53929 0.0
C179 C 0.48662 0.16735 0.54288 0.0
O180 O 0.45775 0.12612 0.57396 0.0
O181 O 0.44082 0.12759 0.54518 0.0
In182 In 0.11858 0.22018 0.79835 0.0
O183 O 0.08659 0.21702 0.78241 0.0
O184 O 0.08778 0.23199 0.81225 0.0
C185 C 0.14052 0.20968 0.7638 0.0
C186 C 0.12071 0.18634 0.82386 0.0
C187 C 0.13723 0.25762 0.80514 0.0
O188 O 0.12118 0.21425 0.76309 0.0
O189 O 0.14868 0.21047 0.78189 0.0
O190 O 0.14183 0.24141 0.81566 0.0
O191 O 0.12292 0.25499 0.79166 0.0
C192 C 0.07659 0.22595 0.79702 0.0
O193 O 0.11933 0.20478 0.83103 0.0
O194 O 0.12118 0.18516 0.80412 0.0
In195 In 0.02183 0.86581 0.04671 0.0
O196 O 0.0375 0.86609 0.07924 0.0
O197 O 0.0568 0.8634 0.05204 0.0
C198 C 0.98773 0.88976 0.05451 0.0
C199 C 0.01254 0.82443 0.04574 0.0
C200 C 0.03468 0.88687 0.01234 0.0
O201 O 0.00454 0.89148 0.06493 0.0
O202 O 0.98795 0.87553 0.04075 0.0
O203 O 0.02337 0.87056 0.01109 0.0
O204 O 0.03937 0.89239 0.0308 0.0
C205 C 0.05586 0.86451 0.0718 0.0
O206 O 0.02267 0.83347 0.03127 0.0
O207 O 0.00692 0.8363 0.06057 0.0
In208 In 0.20523 0.38226 0.22694 0.0
O209 O 0.17814 0.37869 0.20329 0.0
O210 O 0.20556 0.39576 0.19431 0.0
C211 C 0.19365 0.35802 0.25966 0.0
C212 C 0.20276 0.42155 0.24212 0.0
C213 C 0.23964 0.36104 0.21436 0.0
O214 O 0.18387 0.35768 0.24235 0.0
O215 O 0.20858 0.37103 0.26051 0.0
O216 O 0.24076 0.37929 0.22212 0.0
O217 O 0.22128 0.35364 0.21309 0.0
C218 C 0.18761 0.38904 0.18918 0.0
O219 O 0.22006 0.41204 0.23993 0.0
O220 O 0.18667 0.41105 0.23709 0.0
In221 In 0.69876 0.11998 0.76626 0.0
O222 O 0.71593 0.08916 0.75981 0.0
O223 O 0.68252 0.08876 0.75931 0.0
C224 C 0.73473 0.13972 0.77673 0.0
C225 C 0.67796 0.11788 0.80286 0.0
C226 C 0.68576 0.14414 0.73367 0.0
O227 O 0.73422 0.12515 0.76329 0.0
O228 O 0.71717 0.14443 0.78462 0.0
O229 O 0.67951 0.147 0.75224 0.0
O230 O 0.69796 0.12872 0.73146 0.0
C231 C 0.69938 0.07849 0.75752 0.0
O232 O 0.66845 0.12046 0.78556 0.0
O233 O 0.69769 0.11617 0.8015 0.0
In234 In 0.13345 0.45816 0.01318 0.0
O235 O 0.16304 0.47535 0.00245 0.0
O236 O 0.16127 0.44213 -0.00211 0.0
C237 C 0.11971 0.49649 0.0257 0.0
C238 C 0.14028 0.43286 0.04656 0.0
C239 C 0.10511 0.44351 0.98506 0.0
O240 O 0.12202 0.4916 0.00666 0.0
O241 O 0.12505 0.48233 0.03848 0.0
O242 O 0.10162 0.44389 0.00455 0.0
O243 O 0.12317 0.4497 0.97986 0.0
C244 C 0.172 0.45877 0.99608 0.0
O245 O 0.12203 0.4357 0.03924 0.0
O246 O 0.15465 0.44261 0.03709 0.0
In247 In 0.79134 0.88143 0.26702 0.0
O248 O 0.77477 0.91326 0.26537 0.0
O249 O 0.80609 0.91132 0.25396 0.0
C250 C 0.75769 0.85875 0.27885 0.0
C251 C 0.81487 0.88177 0.30227 0.0
C252 C 0.80008 0.85993 0.23166 0.0
O253 O 0.75615 0.87774 0.27311 0.0
O254 O 0.77612 0.85132 0.27842 0.0
O255 O 0.81138 0.85871 0.24794 0.0
O256 O 0.78472 0.8724 0.23308 0.0
C257 C 0.79021 0.92271 0.25725 0.0
O258 O 0.82307 0.88086 0.28424 0.0
O259 O 0.79509 0.8827 0.30237 0.0
In260 In 0.86718 0.04389 0.02177 0.0
O261 O 0.83529 0.02748 0.02188 0.0
O262 O 0.83649 0.05924 0.01149 0.0
C263 C 0.88957 0.01 0.03348 0.0
C264 C 0.86922 0.06865 0.05606 0.0
C265 C 0.88592 0.05047 0.98433 0.0
O266 O 0.87014 0.00895 0.02937 0.0
O267 O 0.89759 0.02806 0.03154 0.0
O268 O 0.8901 0.0614 0.00036 0.0
O269 O 0.87195 0.03669 0.98712 0.0
C270 C 0.82533 0.04322 0.01499 0.0
O271 O 0.86944 0.0762 0.03769 0.0
O272 O 0.86793 0.04891 0.05694 0.0
In273 In 0.29253 0.61666 0.72778 0.0
O274 O 0.27509 0.58692 0.7378 0.0
O275 O 0.30811 0.58487 0.73314 0.0
C276 C 0.25816 0.63778 0.71496 0.0
C277 C 0.31537 0.61643 0.69223 0.0
C278 C 0.30291 0.63841 0.76268 0.0
O279 O 0.25795 0.61815 0.71807 0.0
O280 O 0.27561 0.6466 0.71839 0.0
O281 O 0.3124 0.64076 0.74544 0.0
O282 O 0.28874 0.62456 0.76247 0.0
C283 C 0.29131 0.5755 0.73792 0.0
O284 O 0.32388 0.61708 0.71017 0.0
O285 O 0.29555 0.61578 0.69236 0.0
In286 In 0.12972 0.53903 0.47042 0.0
O287 O 0.16055 0.52163 0.4767 0.0
O288 O 0.16161 0.5549 0.47368 0.0
C289 C 0.10666 0.50613 0.45711 0.0
C290 C 0.12647 0.56437 0.43672 0.0
C291 C 0.11264 0.5464 0.50851 0.0
O292 O 0.12651 0.50543 0.45803 0.0
O293 O 0.09863 0.52325 0.46308 0.0
O294 O 0.10811 0.55727 0.49253 0.0
O295 O 0.12611 0.53223 0.50535 0.0
C296 C 0.17165 0.53808 0.47682 0.0
O297 O 0.12586 0.57147 0.45526 0.0
O298 O 0.12886 0.54473 0.43536 0.0
In299 In 0.37049 0.4522 0.96956 0.0
O300 O 0.37207 0.41883 0.95613 0.0
O301 O 0.37227 0.44488 0.93497 0.0
C302 C 0.39126 0.44257 0.00553 0.0
C303 C 0.32816 0.45488 0.97218 0.0
C304 C 0.38939 0.488 0.95687 0.0
O305 O 0.39879 0.43901 0.98757 0.0
O306 O 0.37307 0.45035 0.00534 0.0
O307 O 0.37658 0.48759 0.97202 0.0
O308 O 0.39274 0.47044 0.94837 0.0
C309 C 0.37263 0.42517 0.93727 0.0
O310 O 0.33979 0.47091 0.97163 0.0
O311 O 0.33782 0.4376 0.9717 0.0
In312 In 0.7289 0.7022 0.88002 0.0
O313 O 0.72041 0.71243 0.91335 0.0
O314 O 0.74989 0.69742 0.90859 0.0
C315 C 0.71503 0.73729 0.86082 0.0
C316 C 0.69774 0.6734 0.87847 0.0
C317 C 0.76382 0.69511 0.85721 0.0
O318 O 0.72091 0.73737 0.87982 0.0
O319 O 0.71633 0.7197 0.85179 0.0
O320 O 0.74897 0.68195 0.85817 0.0
O321 O 0.76121 0.7114 0.86816 0.0
C322 C 0.73728 0.70572 0.92141 0.0
O323 O 0.71547 0.66922 0.88639 0.0
O324 O 0.69605 0.69173 0.87124 0.0
In325 In 0.53533 0.47689 0.13051 0.0
O326 O 0.52278 0.47085 0.1637 0.0
O327 O 0.54633 0.49416 0.1598 0.0
C328 C 0.49728 0.46406 0.11667 0.0
C329 C 0.56523 0.44723 0.1261 0.0
C330 C 0.54424 0.50898 0.10422 0.0
O331 O 0.50156 0.48315 0.11999 0.0
O332 O 0.51189 0.45142 0.12115 0.0
O333 O 0.55223 0.49096 0.10216 0.0
O334 O 0.5321 0.5109 0.11974 0.0
C335 C 0.53449 0.48436 0.17229 0.0
O336 O 0.54806 0.4468 0.11616 0.0
O337 O 0.56759 0.46299 0.13793 0.0
In338 In 0.76572 0.28565 0.38211 0.0
O339 O 0.78053 0.31687 0.39171 0.0
O340 O 0.79635 0.29833 0.36885 0.0
C341 C 0.73515 0.29648 0.35471 0.0
C342 C 0.75627 0.28349 0.42339 0.0
C343 C 0.77684 0.24694 0.36868 0.0
O344 O 0.75377 0.30307 0.35298 0.0
O345 O 0.73191 0.28494 0.37049 0.0
O346 O 0.75795 0.25256 0.37083 0.0
O347 O 0.79018 0.26062 0.37394 0.0
C348 C 0.79639 0.31476 0.37994 0.0
O349 O 0.77102 0.27298 0.41532 0.0
O350 O 0.74633 0.295 0.41067 0.0
In351 In 0.96306 0.52185 0.62845 0.0
O352 O 0.93068 0.53739 0.62553 0.0
O353 O 0.95777 0.55694 0.62533 0.0
C354 C 0.9524 0.49276 0.59957 0.0
C355 C 0.96167 0.5122 0.6699 0.0
C356 C 0.00264 0.52964 0.61568 0.0
O357 O 0.95313 0.51216 0.59553 0.0
O358 O 0.95658 0.48801 0.61837 0.0
O359 O 0.99567 0.5112 0.61813 0.0
O360 O 0.98984 0.54407 0.62029 0.0
C361 C 0.93801 0.55579 0.62436 0.0
O362 O 0.97826 0.51811 0.66087 0.0
O363 O 0.94584 0.51107 0.65807 0.0
In364 In 0.7203 0.29954 0.61937 0.0
O365 O 0.71013 0.28791 0.58702 0.0
O366 O 0.74092 0.30077 0.59036 0.0
C367 C 0.70342 0.2661 0.63928 0.0
C368 C 0.69227 0.33157 0.6205 0.0
C369 C 0.75759 0.30419 0.63895 0.0
O370 O 0.70683 0.26605 0.61973 0.0
O371 O 0.70843 0.28289 0.64851 0.0
O372 O 0.74426 0.31891 0.63809 0.0
O373 O 0.75218 0.28757 0.62966 0.0
C374 C 0.72738 0.29262 0.57833 0.0
O375 O 0.70682 0.33069 0.60709 0.0
O376 O 0.69239 0.31681 0.63366 0.0
In377 In 0.95047 0.4748 0.86681 0.0
O378 O 0.94311 0.4403 0.87028 0.0
O379 O 0.91773 0.46033 0.86173 0.0
C380 C 0.94256 0.50901 0.89054 0.0
C381 C 0.95371 0.48279 0.8253 0.0
C382 C 0.98502 0.46145 0.88714 0.0
O383 O 0.93173 0.49245 0.89189 0.0
O384 O 0.95683 0.50846 0.87683 0.0
O385 O 0.98615 0.47236 0.87054 0.0
O386 O 0.9666 0.45753 0.89339 0.0
C387 C 0.92389 0.44188 0.86579 0.0
O388 O 0.96637 0.47087 0.83489 0.0
O389 O 0.93954 0.49071 0.83666 0.0
In390 In 0.77453 0.70159 0.11846 0.0
O391 O 0.78254 0.71237 0.0852 0.0
O392 O 0.75476 0.69431 0.08949 0.0
C393 C 0.78648 0.73763 0.13703 0.0
C394 C 0.80679 0.67406 0.12058 0.0
C395 C 0.73968 0.69413 0.14133 0.0
O396 O 0.77988 0.73718 0.11829 0.0
O397 O 0.78691 0.72002 0.14619 0.0
O398 O 0.75542 0.68202 0.14179 0.0
O399 O 0.7414 0.70953 0.12896 0.0
C400 C 0.76662 0.70396 0.07687 0.0
O401 O 0.78871 0.66859 0.11443 0.0
O402 O 0.80833 0.6931 0.1257 0.0
In403 In 0.5442 0.51677 0.37004 0.0
O404 O 0.57596 0.53399 0.37024 0.0
O405 O 0.5479 0.55213 0.37064 0.0
C406 C 0.55329 0.48033 0.38997 0.0
C407 C 0.54195 0.50847 0.32857 0.0
C408 C 0.50987 0.52903 0.3914 0.0
O409 O 0.56252 0.49736 0.39422 0.0
O410 O 0.53997 0.48162 0.37535 0.0
O411 O 0.50961 0.52604 0.37177 0.0
O412 O 0.52735 0.52558 0.40019 0.0
C413 C 0.5677 0.55205 0.37063 0.0
O414 O 0.52585 0.51112 0.33983 0.0
O415 O 0.55923 0.50991 0.33825 0.0
In416 In 0.87545 0.7202 0.6968 0.0
O417 O 0.90772 0.71752 0.71202 0.0
O418 O 0.90534 0.73483 0.68348 0.0
C419 C 0.85694 0.70908 0.73312 0.0
C420 C 0.87567 0.68652 0.67115 0.0
C421 C 0.85158 0.7544 0.68891 0.0
O422 O 0.8746 0.7182 0.73263 0.0
O423 O 0.84875 0.70574 0.71536 0.0
O424 O 0.84765 0.7366 0.68114 0.0
O425 O 0.86801 0.75514 0.69999 0.0
C426 C 0.91704 0.7281 0.69806 0.0
O427 O 0.87734 0.70501 0.66411 0.0
O428 O 0.87384 0.68524 0.69081 0.0
In429 In 0.52276 0.62673 0.94586 0.0
O430 O 0.5436 0.62357 0.91669 0.0
O431 O 0.55822 0.62886 0.94634 0.0
C432 C 0.48809 0.60586 0.93317 0.0
C433 C 0.51335 0.66802 0.94578 0.0
C434 C 0.5316 0.60487 0.98097 0.0
O435 O 0.50608 0.60227 0.92564 0.0
O436 O 0.48745 0.6207 0.94626 0.0
O437 O 0.52934 0.6246 0.98116 0.0
O438 O 0.52929 0.59638 0.96322 0.0
C439 C 0.56052 0.62584 0.92689 0.0
O440 O 0.51219 0.65678 0.9621 0.0
O441 O 0.51901 0.65838 0.9294 0.0
In442 In 0.61709 0.27587 0.19659 0.0
O443 O 0.61952 0.29504 0.16602 0.0
O444 O 0.61458 0.31119 0.19483 0.0
C445 C 0.63825 0.24034 0.18757 0.0
C446 C 0.57585 0.26609 0.19718 0.0
C447 C 0.6397 0.28619 0.23075 0.0
O448 O 0.64042 0.257 0.17695 0.0
O449 O 0.62478 0.24144 0.20207 0.0
O450 O 0.62027 0.2821 0.23174 0.0
O451 O 0.6476 0.28504 0.21259 0.0
C452 C 0.61715 0.31246 0.17525 0.0
O453 O 0.58572 0.27209 0.2133 0.0
O454 O 0.58682 0.26488 0.18069 0.0
In455 In 0.97185 0.36732 0.44719 0.0
O456 O 0.95078 0.36922 0.41801 0.0
O457 O 0.93696 0.36116 0.44746 0.0
C458 C 0.00608 0.38931 0.43497 0.0
C459 C 0.9818 0.32619 0.44773 0.0
C460 C 0.96181 0.39013 0.48131 0.0
O461 O 0.98825 0.39193 0.42662 0.0
O462 O 0.00671 0.37504 0.4487 0.0
O463 O 0.97111 0.37263 0.4827 0.0
O464 O 0.95768 0.39601 0.46283 0.0
C465 C 0.93427 0.36459 0.4281 0.0
O466 O 0.97895 0.3367 0.4643 0.0
O467 O 0.97986 0.33648 0.43086 0.0
In468 In 0.88085 0.26917 0.7882 0.0
O469 O 0.87757 0.28848 0.81837 0.0
O470 O 0.88723 0.304 0.79031 0.0
C471 C 0.85653 0.23573 0.79738 0.0
C472 C 0.92141 0.25709 0.78995 0.0
C473 C 0.8603 0.28177 0.75344 0.0
O474 O 0.8546 0.25319 0.80655 0.0
O475 O 0.87125 0.2349 0.78414 0.0
O476 O 0.87823 0.27323 0.75251 0.0
O477 O 0.85289 0.28361 0.77172 0.0
C478 C 0.88253 0.30556 0.80949 0.0
O479 O 0.9127 0.26307 0.77313 0.0
O480 O 0.9096 0.25707 0.80589 0.0
In481 In 0.97697 0.62672 0.04563 0.0
O482 O 0.95915 0.62302 0.07689 0.0
O483 O 0.94168 0.62772 0.04875 0.0
C484 C 0.01408 0.60731 0.05268 0.0
C485 C 0.98452 0.66841 0.04586 0.0
C486 C 0.96527 0.60509 0.01132 0.0
O487 O -0.00229 0.60293 0.06302 0.0
O488 O 0.01183 0.62189 0.03943 0.0
O489 O 0.96952 0.62449 0.01062 0.0
O490 O 0.96723 0.59669 0.0292 0.0
C491 C 0.94128 0.62478 0.06832 0.0
O492 O 0.97963 0.65848 0.0294 0.0
O493 O 0.9857 0.65727 0.06227 0.0
In494 In 0.61819 0.72248 0.29448 0.0
O495 O 0.58646 0.72398 0.27786 0.0
O496 O 0.58797 0.73463 0.30947 0.0
C497 C 0.63996 0.71054 0.26036 0.0
C498 C 0.61815 0.68731 0.31815 0.0
C499 C 0.64005 0.75805 0.30198 0.0
O500 O 0.62107 0.71665 0.25923 0.0
O501 O 0.64773 0.71053 0.27864 0.0
O502 O 0.64236 0.74165 0.31294 0.0
O503 O 0.62617 0.7567 0.28788 0.0
C504 C 0.57675 0.73151 0.2934 0.0
O505 O 0.61887 0.70539 0.32632 0.0
O506 O 0.61731 0.68717 0.29837 0.0
In507 In 0.52291 0.36482 0.54315 0.0
O508 O 0.5273 0.33198 0.5294 0.0
O509 O 0.50777 0.33514 0.5563 0.0
C510 C 0.53378 0.3775 0.50411 0.0
C511 C 0.55431 0.37071 0.57101 0.0
C512 C 0.48987 0.3895 0.55335 0.0
O513 O 0.51493 0.37579 0.51001 0.0
O514 O 0.54723 0.37223 0.51771 0.0
O515 O 0.50818 0.39277 0.56024 0.0
O516 O 0.48815 0.37346 0.54189 0.0
C517 C 0.51572 0.32302 0.54279 0.0
O518 O 0.55122 0.3829 0.55565 0.0
O519 O 0.54121 0.35588 0.57261 0.0
In520 In 0.70358 0.87963 0.72958 0.0
O521 O 0.71987 0.91133 0.73408 0.0
O522 O 0.68657 0.91028 0.73673 0.0
C523 C 0.73767 0.8582 0.71658 0.0
C524 C 0.68088 0.87977 0.69407 0.0
C525 C 0.69423 0.85779 0.76483 0.0
O526 O 0.73921 0.8746 0.72766 0.0
O527 O 0.71912 0.85263 0.71235 0.0
O528 O 0.68432 0.85533 0.74783 0.0
O529 O 0.70832 0.87167 0.76418 0.0
C530 C 0.70302 0.92133 0.73716 0.0
O531 O 0.67249 0.87645 0.7118 0.0
O532 O 0.70043 0.88327 0.69447 0.0
In533 In 0.19727 0.61981 0.27071 0.0
O534 O 0.21476 0.58896 0.26551 0.0
O535 O 0.18161 0.58762 0.26965 0.0
C536 C 0.23163 0.6417 0.28208 0.0
C537 C 0.17292 0.62375 0.30504 0.0
C538 C 0.18869 0.63617 0.23244 0.0
O539 O 0.23153 0.62186 0.28122 0.0
O540 O 0.21448 0.65039 0.2771 0.0
O541 O 0.17921 0.64199 0.24884 0.0
O542 O 0.20193 0.62172 0.2353 0.0
C543 C 0.19849 0.57766 0.26667 0.0
O544 O 0.16516 0.62216 0.28682 0.0
O545 O 0.19273 0.62356 0.30574 0.0
In546 In 0.62829 0.94747 0.52212 0.0
O547 O 0.65849 0.96493 0.5137 0.0
O548 O 0.66028 0.93187 0.51827 0.0
C549 C 0.60666 0.98177 0.53396 0.0
C550 C 0.62694 0.92471 0.55775 0.0
C551 C 0.60845 0.93759 0.48593 0.0
O552 O 0.62643 0.98194 0.53191 0.0
O553 O 0.59795 0.96439 0.52995 0.0
O554 O 0.6051 0.92786 0.50289 0.0
O555 O 0.62231 0.9517 0.48713 0.0
C556 C 0.66988 0.94869 0.51401 0.0
O557 O 0.62737 0.91612 0.53986 0.0
O558 O 0.62722 0.94452 0.55751 0.0
In559 In 0.28708 0.37797 0.77573 0.0
O560 O 0.31951 0.37385 0.79074 0.0
O561 O 0.2926 0.37292 0.81057 0.0
C562 C 0.29878 0.3519 0.74446 0.0
C563 C 0.28745 0.41987 0.76794 0.0
C564 C 0.24804 0.36406 0.78461 0.0
O565 O 0.29771 0.3462 0.76342 0.0
O566 O 0.29456 0.37103 0.74129 0.0
O567 O 0.25528 0.36466 0.76615 0.0
O568 O 0.2603 0.37106 0.79857 0.0
C569 C 0.31237 0.37197 0.80917 0.0
O570 O 0.27083 0.40912 0.7676 0.0
O571 O 0.3038 0.40954 0.77208 0.0
In572 In 0.3676 0.54196 0.52143 0.0
O573 O 0.36839 0.57313 0.53931 0.0
O574 O 0.36569 0.54468 0.5568 0.0
C575 C 0.38895 0.55237 0.48634 0.0
C576 C 0.32656 0.54036 0.51082 0.0
C577 C 0.39033 0.50855 0.53399 0.0
O578 O 0.39105 0.56227 0.50339 0.0
O579 O 0.37545 0.53786 0.48681 0.0
O580 O 0.37061 0.50757 0.53162 0.0
O581 O 0.39836 0.52625 0.52999 0.0
C582 C 0.36696 0.56446 0.55714 0.0
O583 O 0.33801 0.52416 0.51146 0.0
O584 O 0.33583 0.55727 0.51541 0.0
In585 In 0.7918 0.12052 0.22266 0.0
O586 O 0.82412 0.12258 0.20668 0.0
O587 O 0.79678 0.12155 0.18748 0.0
C588 C 0.7987 0.13895 0.2602 0.0
C589 C 0.79114 0.07866 0.22919 0.0
C590 C 0.75763 0.1425 0.21093 0.0
O591 O 0.80896 0.14384 0.24393 0.0
O592 O 0.78536 0.12454 0.25756 0.0
O593 O 0.7568 0.12308 0.21511 0.0
O594 O 0.77559 0.15074 0.21293 0.0
C595 C 0.81654 0.1226 0.18833 0.0
O596 O 0.77527 0.08871 0.22273 0.0
O597 O 0.8073 0.08973 0.23235 0.0
In598 In 0.62849 0.0425 0.975 0.0
O599 O 0.62904 0.07425 0.95777 0.0
O600 O 0.62913 0.04625 0.93963 0.0
C601 C 0.60541 0.05073 0.00952 0.0
C602 C 0.6696 0.04182 0.98549 0.0
C603 C 0.60754 0.00786 0.96298 0.0
O604 O 0.604 0.06157 0.99294 0.0
O605 O 0.61892 0.03623 0.00886 0.0
O606 O 0.62642 0.00715 0.96922 0.0
O607 O 0.59935 0.02595 0.96298 0.0
C608 C 0.62919 0.06603 0.93973 0.0
O609 O 0.6605 0.02642 0.97693 0.0
O610 O 0.65793 0.05749 0.98889 0.0
In611 In 0.86669 0.95268 0.47419 0.0
O612 O 0.86873 0.92184 0.45575 0.0
O613 O 0.86507 0.95048 0.43877 0.0
C614 C 0.8886 0.94317 0.50929 0.0
C615 C 0.82552 0.95196 0.48418 0.0
C616 C 0.88711 0.98752 0.46171 0.0
O617 O 0.8911 0.93341 0.49222 0.0
O618 O 0.87455 0.95713 0.5088 0.0
O619 O 0.86759 0.98754 0.46551 0.0
O620 O 0.89615 0.97004 0.46435 0.0
C621 C 0.86705 0.93077 0.43807 0.0
O622 O 0.83603 0.96877 0.48353 0.0
O623 O 0.83581 0.93555 0.47999 0.0
H624 H 0.26924 0.2372 0.54658 0.0
H625 H 0.24007 0.17609 0.55224 0.0
H626 H 0.26267 0.23687 0.50875 0.0
H627 H 0.23317 0.17591 0.51451 0.0
H628 H 0.2464 0.17239 0.44398 0.0
H629 H 0.25303 0.17331 0.48174 0.0
H630 H 0.2336 0.23842 0.48346 0.0
H631 H 0.22731 0.23758 0.44559 0.0
C632 C 0.26129 0.22378 0.53975 0.0
C633 C 0.25519 0.20666 0.55233 0.0
C634 C 0.25745 0.22362 0.51812 0.0
C635 C 0.24746 0.20633 0.50864 0.0
C636 C 0.24117 0.18932 0.5213 0.0
C637 C 0.245 0.18949 0.54292 0.0
C638 C 0.2436 0.1869 0.45242 0.0
C639 C 0.23634 0.20491 0.44186 0.0
C640 C 0.24726 0.1874 0.47406 0.0
C641 C 0.24376 0.20592 0.4856 0.0
C642 C 0.23665 0.22398 0.47498 0.0
C643 C 0.23296 0.22347 0.45332 0.0
H644 H 0.07335 0.98077 0.69842 0.0
H645 H 0.00901 0.00213 0.69382 0.0
H646 H 0.07272 0.98661 0.73623 0.0
H647 H 0.00857 0.00887 0.73156 0.0
H648 H 0.00748 -0.00243 0.80228 0.0
H649 H 0.00804 0.99132 0.76447 0.0
H650 H 0.07238 0.01334 0.76195 0.0
H651 H 0.07201 0.0187 0.79985 0.0
C652 C 0.05914 0.98695 0.7055 0.0
C653 C 0.04122 0.99099 0.69322 0.0
C654 C 0.0588 0.99041 0.72716 0.0
C655 C 0.0406 -0.00176 0.737 0.0
C656 C 0.02274 0.00249 0.7246 0.0
C657 C 0.02302 -0.00121 0.70294 0.0
C658 C 0.02174 0.00099 0.79361 0.0
C659 C 0.03972 0.00854 0.80398 0.0
C660 C 0.02203 -0.00243 0.77192 0.0
C661 C 0.04025 0.00185 0.7601 0.0
C662 C 0.05819 0.00952 0.77056 0.0
C663 C 0.05796 0.0127 0.79227 0.0
H664 H 0.26113 0.8247 0.94782 0.0
H665 H 0.24494 0.75891 0.94306 0.0
H666 H 0.25478 0.82355 0.98556 0.0
H667 H 0.23777 0.75788 0.9807 0.0
H668 H 0.24852 0.75759 0.0515 0.0
H669 H 0.25529 0.75883 0.01379 0.0
H670 H 0.22739 0.82081 0.01082 0.0
H671 H 0.22142 0.81982 0.04863 0.0
C672 C 0.256 0.81004 0.95484 0.0
C673 C 0.25355 0.79189 0.94255 0.0
C674 C 0.25225 0.80939 0.97645 0.0
C675 C 0.24575 0.79062 0.9862 0.0
C676 C 0.2431 0.77251 0.97379 0.0
C677 C 0.24705 0.77312 0.9522 0.0
C678 C 0.2439 0.77148 0.04276 0.0
C679 C 0.2345 0.78863 0.05296 0.0
C680 C 0.24763 0.77215 0.02113 0.0
C681 C 0.24185 0.78991 0.00923 0.0
C682 C 0.23236 0.80702 0.01952 0.0
C683 C 0.22882 0.80642 0.04117 0.0
H684 H 0.49058 0.98734 0.2945 0.0
H685 H 0.42316 0.99485 0.29884 0.0
H686 H 0.48887 0.9944 0.25677 0.0
H687 H 0.42149 0.00221 0.26124 0.0
H688 H 0.42431 0.98938 0.19041 0.0
H689 H 0.42638 0.98301 0.22818 0.0
H690 H 0.48113 0.02312 0.23198 0.0
H691 H 0.47924 0.02924 0.19411 0.0
C692 C 0.47543 0.99064 0.28741 0.0
C693 C 0.457 0.9905 0.29957 0.0
C694 C 0.47446 0.99477 0.26584 0.0
C695 C 0.45503 -0.00121 0.25604 0.0
C696 C 0.43665 -0.00112 0.26829 0.0
C697 C 0.43762 0.99479 0.28984 0.0
C698 C 0.43679 0.99682 0.19932 0.0
C699 C 0.45162 0.00979 0.18934 0.0
C700 C 0.4379 0.99328 0.22096 0.0
C701 C 0.45389 0.00261 0.23306 0.0
C702 C 0.46876 0.01554 0.22304 0.0
C703 C 0.46762 0.01912 0.20139 0.0
H704 H 0.54893 0.27015 0.2302 0.0
H705 H 0.55163 0.2509 0.16513 0.0
H706 H 0.51139 0.2625 0.23092 0.0
H707 H 0.51412 0.2427 0.16598 0.0
H708 H 0.44267 0.2522 0.16919 0.0
H709 H 0.48024 0.26002 0.16816 0.0
H710 H 0.48756 0.23303 0.23015 0.0
H711 H 0.44994 0.22573 0.23137 0.0
C712 C 0.54151 0.26415 0.21608 0.0
C713 C 0.55319 0.26111 0.19761 0.0
C714 C 0.52002 0.25966 0.21653 0.0
C715 C 0.50976 0.25194 0.19852 0.0
C716 C 0.52149 0.24888 0.18004 0.0
C717 C 0.54299 0.25345 0.17958 0.0
C718 C 0.45233 0.24797 0.1826 0.0
C719 C 0.44339 0.23841 0.20039 0.0
C720 C 0.47386 0.25232 0.18195 0.0
C721 C 0.4869 0.24715 0.19908 0.0
C722 C 0.47791 0.2375 0.21683 0.0
C723 C 0.45638 0.23321 0.21749 0.0
H724 H 0.98046 0.29879 0.41488 0.0
H725 H 0.99355 0.30243 0.48141 0.0
H726 H 0.98679 0.26102 0.4157 0.0
H727 H 0.00085 0.26482 0.48215 0.0
H728 H 0.99112 0.19404 0.48119 0.0
H729 H 0.98413 0.23173 0.48021 0.0
H730 H 0.01347 0.23551 0.41897 0.0
H731 H 0.01951 0.19771 0.41965 0.0
C732 C 0.98494 0.29151 0.42963 0.0
C733 C 0.98649 0.30349 0.44809 0.0
C734 C 0.98868 0.26988 0.43011 0.0
C735 C 0.99434 0.2598 0.449 0.0
C736 C 0.99615 0.27193 0.4674 0.0
C737 C 0.99213 0.29352 0.46697 0.0
C738 C 0.99599 0.20297 0.46752 0.0
C739 C 0.00579 0.19299 0.45048 0.0
C740 C 0.99214 0.2246 0.467 0.0
C741 C -0.00172 0.23674 0.44952 0.0
C742 C 0.00819 0.22666 0.43252 0.0
C743 C 0.01177 0.205 0.43295 0.0
H744 H 0.04929 0.74527 0.66831 0.0
H745 H 0.04514 0.75805 0.73489 0.0
H746 H 0.01166 0.73772 0.66739 0.0
H747 H 0.00744 0.75084 0.7339 0.0
H748 H 0.94507 0.7152 0.72786 0.0
H749 H 0.98291 0.72159 0.7288 0.0
H750 H 0.97835 0.75678 0.6708 0.0
H751 H 0.94055 0.75007 0.66968 0.0
C752 C 0.04033 0.74645 0.68275 0.0
C753 C 0.05012 0.75225 0.70168 0.0
C754 C 0.01877 0.74226 0.68219 0.0
C755 C 0.00658 0.74375 0.70056 0.0
C756 C 0.01645 0.74934 0.71953 0.0
C757 C 0.03801 0.75356 0.72009 0.0
C758 C 0.95216 0.7243 0.71532 0.0
C759 C 0.93988 0.73215 0.6987 0.0
C760 C 0.97381 0.72804 0.71591 0.0
C761 C 0.98361 0.73968 0.69988 0.0
C762 C 0.97129 0.74752 0.68325 0.0
C763 C 0.94964 0.7438 0.68267 0.0
H764 H 0.48271 0.79799 0.91556 0.0
H765 H 0.49839 0.79893 0.98164 0.0
H766 H 0.48892 0.76021 0.91461 0.0
H767 H 0.5055 0.76127 0.98057 0.0
H768 H 0.49512 0.69072 0.97715 0.0
H769 H 0.48824 0.7284 0.9778 0.0
H770 H 0.51574 0.73447 0.91591 0.0
H771 H 0.52176 0.69664 0.91498 0.0
C772 C 0.48771 0.79012 0.92984 0.0
C773 C 0.49004 0.80135 0.94868 0.0
C774 C 0.49139 0.76848 0.92928 0.0
C775 C 0.49772 0.75763 0.94751 0.0
C776 C 0.50028 0.76901 0.96631 0.0
C777 C 0.49636 0.79062 0.96692 0.0
C778 C 0.4996 0.70013 0.96366 0.0
C779 C 0.50893 0.69078 0.946 0.0
C780 C 0.49582 0.72176 0.96409 0.0
C781 C 0.50151 0.73455 0.94694 0.0
C782 C 0.51084 0.7251 0.92926 0.0
C783 C 0.5144 0.70343 0.92875 0.0
H784 H 0.54966 0.72608 0.26059 0.0
H785 H 0.55243 0.74694 0.32516 0.0
H786 H 0.51183 0.73262 0.26003 0.0
H787 H 0.51466 0.75381 0.3245 0.0
H788 H 0.44389 0.74079 0.32267 0.0
H789 H 0.48165 0.734 0.3228 0.0
H790 H 0.48682 0.76196 0.26106 0.0
H791 H 0.44895 0.76844 0.2608 0.0
C792 C 0.54219 0.73216 0.27462 0.0
C793 C 0.55397 0.73597 0.29292 0.0
C794 C 0.52056 0.736 0.27427 0.0
C795 C 0.51026 0.74369 0.29224 0.0
C796 C 0.5221 0.74761 0.3105 0.0
C797 C 0.54374 0.74381 0.31084 0.0
C798 C 0.45308 0.74541 0.3091 0.0
C799 C 0.44349 0.75513 0.29172 0.0
C800 C 0.47473 0.74166 0.30924 0.0
C801 C 0.48723 0.74751 0.29197 0.0
C802 C 0.47758 0.75708 0.27451 0.0
C803 C 0.45592 0.76087 0.27439 0.0
H804 H 0.52962 0.29415 0.51429 0.0
H805 H 0.49318 0.30029 0.57128 0.0
H806 H 0.52329 0.25626 0.5144 0.0
H807 H 0.48667 0.26248 0.57125 0.0
H808 H 0.49856 0.19159 0.57616 0.0
H809 H 0.50621 0.22923 0.57612 0.0
H810 H 0.49347 0.23182 0.50942 0.0
H811 H 0.48606 0.19416 0.50942 0.0
C812 C 0.52023 0.2874 0.52681 0.0
C813 C 0.51188 0.30015 0.54277 0.0
C814 C 0.51654 0.26574 0.52682 0.0
C815 C 0.5045 0.25641 0.54284 0.0
C816 C 0.49622 0.26918 0.55884 0.0
C817 C 0.49983 0.29084 0.55878 0.0
C818 C 0.49747 0.2002 0.56149 0.0
C819 C 0.49171 0.18998 0.5428 0.0
C820 C 0.50173 0.22175 0.56149 0.0
C821 C 0.5004 0.23347 0.54278 0.0
C822 C 0.49484 0.22316 0.52404 0.0
C823 C 0.4905 0.20163 0.52406 0.0
H824 H 0.9499 0.25714 0.75796 0.0
H825 H 0.94346 0.24359 0.82422 0.0
H826 H 0.98727 0.24872 0.75989 0.0
H827 H 0.98078 0.23471 0.82608 0.0
H828 H 0.05221 0.24615 0.82585 0.0
H829 H 0.01445 0.25268 0.82415 0.0
H830 H 0.01133 0.21947 0.76497 0.0
H831 H 0.04921 0.21337 0.76647 0.0
C832 C 0.95645 0.25218 0.7729 0.0
C833 C 0.94381 0.25109 0.79096 0.0
C834 C 0.97783 0.24724 0.77398 0.0
C835 C 0.987 0.24107 0.79314 0.0
C836 C 0.97424 0.23969 0.81115 0.0
C837 C 0.95286 0.24466 0.81007 0.0
C838 C 0.04344 0.24021 0.81251 0.0
C839 C 0.05364 0.22933 0.79625 0.0
C840 C 0.02179 0.24383 0.8116 0.0
C841 C 0.00989 0.23659 0.79442 0.0
C842 C 0.0201 0.22549 0.77827 0.0
C843 C 0.04177 0.2219 0.77918 0.0
H844 H 0.98208 0.69535 0.01261 0.0
H845 H 0.99582 0.69306 0.07911 0.0
H846 H 0.98835 0.73318 0.01253 0.0
H847 H 0.00253 0.73086 0.07897 0.0
H848 H 0.99091 0.80179 0.07505 0.0
H849 H 0.98381 0.76408 0.07501 0.0
H850 H 0.01727 0.75795 0.01621 0.0
H851 H 0.02398 0.79572 0.01605 0.0
C852 C 0.98653 0.70293 0.02719 0.0
C853 C 0.98847 0.69127 0.04586 0.0
C854 C 0.99023 0.72458 0.02713 0.0
C855 C 0.99597 0.73502 0.04574 0.0
C856 C -0.00212 0.72332 0.06443 0.0
C857 C 0.99416 0.70166 0.06449 0.0
C858 C 0.99668 0.79238 0.0621 0.0
C859 C 0.00798 0.80168 0.04554 0.0
C860 C 0.99274 0.77077 0.06214 0.0
C861 C 1e-05 0.75801 0.04563 0.0
C862 C 0.01123 0.76738 0.02903 0.0
C863 C 0.01516 0.78899 0.02899 0.0
H864 H 0.16896 0.44769 0.23938 0.0
H865 H 0.23399 0.44557 0.25902 0.0
H866 H 0.16796 0.48527 0.24648 0.0
H867 H 0.23281 0.48303 0.26706 0.0
H868 H 0.23115 0.55351 0.2531 0.0
H869 H 0.23186 0.51546 0.24885 0.0
H870 H 0.1682 0.51165 0.27256 0.0
H871 H 0.16727 0.54982 0.27588 0.0
C872 C 0.18293 0.45522 0.2456 0.0
C873 C 0.20158 0.44377 0.24855 0.0
C874 C 0.18234 0.47676 0.24978 0.0
C875 C 0.20034 0.48726 0.25724 0.0
C876 C 0.21878 0.47556 0.26091 0.0
C877 C 0.21943 0.45407 0.25648 0.0
C878 C 0.21734 0.5445 0.25741 0.0
C879 C 0.19912 0.55458 0.2647 0.0
C880 C 0.21778 0.52267 0.25515 0.0
C881 C 0.20009 0.51043 0.26039 0.0
C882 C 0.18198 0.52058 0.26803 0.0
C883 C 0.18147 0.54244 0.27004 0.0
H884 H 0.66769 0.0506 0.7643 0.0
H885 H 0.73191 0.05493 0.74273 0.0
H886 H 0.66871 0.01259 0.76007 0.0
H887 H 0.73268 0.01704 0.73719 0.0
H888 H 0.73524 0.94687 0.74929 0.0
H889 H 0.73422 0.98482 0.75448 0.0
H890 H 0.66872 0.98544 0.7358 0.0
H891 H 0.66957 0.9474 0.73193 0.0
C892 C 0.68193 0.04339 0.75833 0.0
C893 C 0.69973 0.05563 0.75385 0.0
C894 C 0.68251 0.02159 0.75577 0.0
C895 C 0.70079 0.0116 0.74825 0.0
C896 C 0.71848 0.02404 0.74344 0.0
C897 C 0.71801 0.04579 0.74642 0.0
C898 C 0.72064 0.95519 0.74642 0.0
C899 C 0.70247 0.94426 0.74032 0.0
C900 C 0.72006 0.97697 0.7492 0.0
C901 C 0.70139 0.98834 0.74552 0.0
C902 C 0.68327 0.97727 0.73923 0.0
C903 C 0.68376 0.95546 0.73687 0.0
H904 H 0.19793 0.42497 0.99482 0.0
H905 H 0.19601 0.4917 0.98244 0.0
H906 H 0.23536 0.42453 0.9876 0.0
H907 H 0.23343 0.49119 0.97381 0.0
H908 H 0.30435 0.48764 0.98609 0.0
H909 H 0.26622 0.48881 0.98984 0.0
H910 H 0.26187 0.42642 0.963 0.0
H911 H 0.30003 0.42491 0.96065 0.0
C912 C 0.20548 0.43948 0.99003 0.0
C913 C 0.19413 0.45838 0.98923 0.0
C914 C 0.22699 0.43924 0.98575 0.0
C915 C 0.2376 0.45784 0.98011 0.0
C916 C 0.22595 0.47663 0.97853 0.0
C917 C 0.20447 0.47693 0.98327 0.0
C918 C 0.29515 0.47424 0.981 0.0
C919 C 0.30506 0.45611 0.97331 0.0
C920 C 0.27326 0.47493 0.98296 0.0
C921 C 0.26081 0.45766 0.97682 0.0
C922 C 0.27086 0.43982 0.96841 0.0
C923 C 0.29275 0.43897 0.96692 0.0
H924 H 0.7586 0.05148 0.22245 0.0
H925 H 0.82295 0.05419 0.24425 0.0
H926 H 0.75818 0.01356 0.2285 0.0
H927 H 0.82239 0.01641 0.25074 0.0
H928 H 0.82133 0.94584 0.23905 0.0
H929 H 0.82128 0.98345 0.2316 0.0
H930 H 0.75862 0.98848 0.25746 0.0
H931 H 0.75851 0.95073 0.26448 0.0
C932 C 0.77263 0.04397 0.2286 0.0
C933 C 0.79082 0.05576 0.23287 0.0
C934 C 0.77235 0.02229 0.23217 0.0
C935 C 0.79025 0.01198 0.24009 0.0
C936 C 0.80844 0.02382 0.24434 0.0
C937 C 0.80873 0.04548 0.24075 0.0
C938 C 0.80752 0.95498 0.24307 0.0
C939 C 0.78993 0.94539 0.25236 0.0
C940 C 0.80754 0.97654 0.23892 0.0
C941 C 0.78998 0.98897 0.24402 0.0
C942 C 0.7723 0.9793 0.25313 0.0
C943 C 0.77227 0.95771 0.25725 0.0
H944 H 0.69787 0.01028 0.97878 0.0
H945 H 0.69235 0.07313 0.00391 0.0
H946 H 0.73552 0.01056 0.9863 0.0
H947 H 0.72991 0.07327 0.01181 0.0
H948 H 0.80094 0.07491 -0.00048 0.0
H949 H 0.76317 0.07433 0.99287 0.0
H950 H 0.76016 0.01036 0.01572 0.0
H951 H 0.79806 0.01082 0.02197 0.0
C952 C 0.70469 0.02409 0.98605 0.0
C953 C 0.69221 0.0417 0.99071 0.0
C954 C 0.72622 0.02421 0.99046 0.0
C955 C 0.7357 0.04196 -0.00038 0.0
C956 C 0.72313 0.05948 0.00448 0.0
C957 C 0.70161 0.05935 7e-05 0.0
C958 C 0.7922 0.06074 0.00313 0.0
C959 C 0.80243 0.0429 0.01123 0.0
C960 C 0.77055 0.06044 -0.00056 0.0
C961 C 0.75867 0.04231 0.0038 0.0
C962 C 0.76892 0.02448 0.01197 0.0
C963 C 0.79059 0.02478 0.01565 0.0
H964 H 0.32008 0.44685 0.77411 0.0
H965 H 0.25562 0.44434 0.75273 0.0
H966 H 0.32079 0.48459 0.76771 0.0
H967 H 0.25652 0.48201 0.74546 0.0
H968 H 0.25848 0.55306 0.75404 0.0
H969 H 0.25747 0.51553 0.76199 0.0
H970 H 0.32147 0.50926 0.73982 0.0
H971 H 0.32268 0.54686 0.73273 0.0
C972 C 0.30611 0.45438 0.76788 0.0
C973 C 0.2878 0.4427 0.7639 0.0
C974 C 0.30654 0.476 0.76409 0.0
C975 C 0.28874 0.48638 0.75599 0.0
C976 C 0.27041 0.47461 0.75201 0.0
C977 C 0.26992 0.45301 0.75603 0.0
C978 C 0.27233 0.54362 0.75097 0.0
C979 C 0.29067 0.55285 0.74284 0.0
C980 C 0.27172 0.5221 0.75537 0.0
C981 C 0.28939 0.50933 0.75154 0.0
C982 C 0.3077 0.51865 0.74333 0.0
C983 C 0.30837 0.54019 0.73914 0.0
H984 H 0.29778 0.57165 0.51529 0.0
H985 H 0.30454 0.50752 0.49408 0.0
H986 H 0.26046 0.57061 0.50686 0.0
H987 H 0.26729 0.50668 0.48474 0.0
H988 H 0.1955 0.50552 0.49151 0.0
H989 H 0.23303 0.50583 0.4996 0.0
H990 H 0.23693 0.5703 0.47819 0.0
H991 H 0.19931 0.57018 0.47101 0.0
C992 C 0.29129 0.55739 0.50862 0.0
C993 C 0.30403 0.53967 0.50533 0.0
C994 C 0.26991 0.55682 0.50364 0.0
C995 C 0.26082 0.53859 0.495 0.0
C996 C 0.27366 0.52087 0.49164 0.0
C997 C 0.29503 0.52138 0.49687 0.0
C998 C 0.20444 0.51971 0.48852 0.0
C999 C 0.19451 0.53785 0.48075 0.0
C1000 C 0.22597 0.51988 0.49303 0.0
C1001 C 0.23804 0.53813 0.48964 0.0
C1002 C 0.22808 0.55611 0.48142 0.0
C1003 C 0.20654 0.55601 0.47716 0.0
H1004 H 0.73146 0.69065 0.05628 0.0
H1005 H 0.79184 0.7202 0.04621 0.0
H1006 H 0.72436 0.69226 0.01857 0.0
H1007 H 0.78468 0.72188 0.00848 0.0
H1008 H 0.77375 0.69544 0.94142 0.0
H1009 H 0.78077 0.69599 0.97914 0.0
H1010 H 0.71791 0.71917 0.99044 0.0
H1011 H 0.71082 0.71854 0.95266 0.0
C1012 C 0.74317 0.69754 0.046 0.0
C1013 C 0.76222 0.70525 0.05414 0.0
C1014 C 0.73905 0.69858 0.02446 0.0
C1015 C 0.75397 0.7072 0.01062 0.0
C1016 C 0.77298 0.71499 0.01878 0.0
C1017 C 0.77704 0.7141 0.04035 0.0
C1018 C 0.76147 0.70075 0.95195 0.0
C1019 C 0.74173 0.70691 0.94414 0.0
C1020 C 0.76553 0.70116 0.97352 0.0
C1021 C 0.74988 0.7076 0.9877 0.0
C1022 C 0.73019 0.71395 0.97986 0.0
C1023 C 0.72618 0.71369 0.95826 0.0
H1024 H 0.57442 0.50394 0.30096 0.0
H1025 H 0.50655 0.50374 0.30481 0.0
H1026 H 0.57224 0.49778 0.26315 0.0
H1027 H 0.50436 0.49787 0.26694 0.0
H1028 H 0.51055 0.46527 0.20244 0.0
H1029 H 0.51228 0.47062 0.24046 0.0
H1030 H 0.56099 0.51719 0.23164 0.0
H1031 H 0.55947 0.51165 0.19377 0.0
C1032 C 0.55904 0.50258 0.29371 0.0
C1033 C 0.54065 0.50435 0.30579 0.0
C1034 C 0.55779 0.49918 0.27206 0.0
C1035 C 0.53812 0.49742 0.26208 0.0
C1036 C 0.51973 0.49895 0.27423 0.0
C1037 C 0.52099 0.50242 0.29588 0.0
C1038 C 0.52157 0.47668 0.20866 0.0
C1039 C 0.53489 0.48802 0.19518 0.0
C1040 C 0.52251 0.4798 0.23039 0.0
C1041 C 0.53684 0.49426 0.23902 0.0
C1042 C 0.55001 0.50571 0.22548 0.0
C1043 C 0.54904 0.50264 0.20378 0.0
H1044 H 0.7227 0.30118 0.44319 0.0
H1045 H 0.7788 0.2645 0.45462 0.0
H1046 H 0.71536 0.30162 0.48085 0.0
H1047 H 0.77141 0.26494 0.49234 0.0
H1048 H 0.76457 0.29711 0.55768 0.0
H1049 H 0.7711 0.29314 0.52011 0.0
H1050 H 0.70584 0.27683 0.5104 0.0
H1051 H 0.69926 0.28082 0.54808 0.0
C1052 C 0.73338 0.2931 0.45375 0.0
C1053 C 0.75136 0.28287 0.44602 0.0
C1054 C 0.7291 0.29325 0.47527 0.0
C1055 C 0.74283 0.28333 0.48948 0.0
C1056 C 0.76067 0.27285 0.48172 0.0
C1057 C 0.76484 0.27253 0.46016 0.0
C1058 C 0.75164 0.29257 0.54754 0.0
C1059 C 0.73139 0.28934 0.55575 0.0
C1060 C 0.75542 0.29017 0.52607 0.0
C1061 C 0.73897 0.28468 0.51238 0.0
C1062 C 0.71876 0.28123 0.52061 0.0
C1063 C 0.71502 0.28343 0.54215 0.0
H1064 H 0.99416 0.51167 0.69796 0.0
H1065 H 0.92709 0.50176 0.69294 0.0
H1066 H 0.99243 0.50441 0.73564 0.0
H1067 H 0.9254 0.49429 0.73053 0.0
H1068 H 0.92748 0.50687 0.80146 0.0
H1069 H 0.92967 0.51373 0.76379 0.0
H1070 H 0.98529 0.47485 0.76002 0.0
H1071 H 0.98325 0.46819 0.79781 0.0
C1072 C 0.97908 0.50786 0.7049 0.0
C1073 C 0.96075 0.50732 0.69255 0.0
C1074 C 0.97811 0.5036 0.72643 0.0
C1075 C 0.95877 0.49883 0.73603 0.0
C1076 C 0.94048 0.49817 0.72362 0.0
C1077 C 0.94147 0.50234 0.70209 0.0
C1078 C 0.94018 0.49981 0.79259 0.0
C1079 C 0.95519 0.487 0.80254 0.0
C1080 C 0.94136 0.50364 0.77101 0.0
C1081 C 0.95762 0.49478 0.75896 0.0
C1082 C 0.97271 0.48205 0.76895 0.0
C1083 C 0.97148 0.47816 0.79054 0.0
H1084 H 0.79856 0.91905 0.47961 0.0
H1085 H 0.8014 0.98388 0.49958 0.0
H1086 H 0.76092 0.91845 0.4866 0.0
H1087 H 0.76386 0.98311 0.50745 0.0
H1088 H 0.69276 0.98129 0.49813 0.0
H1089 H 0.73041 0.98206 0.49087 0.0
H1090 H 0.73612 0.91841 0.51427 0.0
H1091 H 0.69837 0.91743 0.52065 0.0
C1092 C 0.79114 0.93311 0.48571 0.0
C1093 C 0.80286 0.95151 0.48905 0.0
C1094 C 0.76958 0.93275 0.48984 0.0
C1095 C 0.75932 0.95072 0.49764 0.0
C1096 C 0.77116 0.96909 0.50114 0.0
C1097 C 0.7927 0.96951 0.49678 0.0
C1098 C 0.7021 0.96748 0.50167 0.0
C1099 C 0.69267 0.94928 0.50987 0.0
C1100 C 0.7237 0.96795 0.49766 0.0
C1101 C 0.73635 0.9503 0.50199 0.0
C1102 C 0.72684 0.93216 0.51038 0.0
C1103 C 0.70522 0.93162 0.51416 0.0
H1104 H 0.2126 0.3567 0.29792 0.0
H1105 H 0.1671 0.32415 0.25936 0.0
H1106 H 0.21237 0.32774 0.32286 0.0
H1107 H 0.16647 0.2952 0.28469 0.0
H1108 H 0.20114 0.23752 0.31378 0.0
H1109 H 0.19237 0.26825 0.29272 0.0
H1110 H 0.19365 0.3069 0.34857 0.0
H1111 H 0.20295 0.27609 0.36962 0.0
C1112 C 0.20213 0.34356 0.29505 0.0
C1113 C 0.19007 0.34254 0.27657 0.0
C1114 C 0.2019 0.32699 0.30943 0.0
C1115 C 0.18958 0.30904 0.30565 0.0
C1116 C 0.1764 0.30868 0.28786 0.0
C1117 C 0.17663 0.3253 0.27344 0.0
C1118 C 0.19936 0.25254 0.32159 0.0
C1119 C 0.20297 0.25447 0.34329 0.0
C1120 C 0.19412 0.27014 0.30956 0.0
C1121 C 0.19232 0.29005 0.31896 0.0
C1122 C 0.19515 0.29182 0.34083 0.0
C1123 C 0.20044 0.27419 0.35288 0.0
H1124 H 0.00665 0.95458 0.56613 0.0
H1125 H 0.96732 0.9595 0.62129 0.0
H1126 H 0.97617 0.94497 0.54517 0.0
H1127 H 0.93664 0.94951 0.60023 0.0
H1128 H 0.88816 0.965 0.54611 0.0
H1129 H 0.91614 0.9666 0.57223 0.0
H1130 H 0.94981 0.91768 0.53927 0.0
H1131 H 0.92197 0.91641 0.51285 0.0
C1132 C 0.99149 0.95338 0.57382 0.0
C1133 C 0.98932 0.95794 0.5953 0.0
C1134 C 0.97405 0.94765 0.56185 0.0
C1135 C 0.954 0.94636 0.57107 0.0
C1136 C 0.95188 0.95048 0.59269 0.0
C1137 C 0.96941 0.95617 0.60472 0.0
C1138 C 0.9013 0.95425 0.5447 0.0
C1139 C 0.90307 0.94081 0.52728 0.0
C1140 C 0.9173 0.9551 0.55974 0.0
C1141 C 0.93533 0.9425 0.55762 0.0
C1142 C 0.93628 0.92788 0.54107 0.0
C1143 C 0.92029 0.92705 0.52602 0.0
H1144 H 0.29145 0.7571 0.81654 0.0
H1145 H 0.28733 0.7193 0.87289 0.0
H1146 H 0.30151 0.72619 0.79649 0.0
H1147 H 0.29772 0.6882 0.85276 0.0
H1148 H 0.28159 0.63851 0.79982 0.0
H1149 H 0.28034 0.66695 0.8254 0.0
H1150 H 0.3291 0.69982 0.79131 0.0
H1151 H 0.33005 0.67151 0.76546 0.0
C1152 C 0.29294 0.7422 0.82469 0.0
C1153 C 0.28844 0.74055 0.84622 0.0
C1154 C 0.29892 0.72451 0.81324 0.0
C1155 C 0.30051 0.70476 0.82307 0.0
C1156 C 0.29653 0.7032 0.84476 0.0
C1157 C 0.29061 0.72097 0.85626 0.0
C1158 C 0.2924 0.65156 0.79807 0.0
C1159 C 0.30567 0.65299 0.78047 0.0
C1160 C 0.29176 0.66782 0.81279 0.0
C1161 C 0.30438 0.68577 0.81016 0.0
C1162 C 0.3189 0.68634 0.7935 0.0
C1163 C 0.31954 0.67009 0.77878 0.0
H1164 H 0.603 0.02644 0.04473 0.0
H1165 H 0.57391 0.07957 0.01383 0.0
H1166 H 0.57438 0.02545 0.0701 0.0
H1167 H 0.54548 0.07893 0.03958 0.0
H1168 H 0.48524 0.04611 0.06399 0.0
H1169 H 0.51666 0.05439 0.04391 0.0
H1170 H 0.55509 0.042 0.09866 0.0
H1171 H 0.52345 0.03324 0.11873 0.0
C1172 C 0.59075 0.03826 0.04369 0.0
C1173 C 0.59049 0.05288 0.02713 0.0
C1174 C 0.5744 0.03776 0.05831 0.0
C1175 C 0.5575 0.05193 0.05667 0.0
C1176 C 0.55807 0.06754 0.041 0.0
C1177 C 0.57441 0.06799 0.02633 0.0
C1178 C 0.50037 0.04531 0.0718 0.0
C1179 C 0.50193 0.03885 0.09286 0.0
C1180 C 0.51839 0.05027 0.06035 0.0
C1181 C 0.53839 0.04892 0.06971 0.0
C1182 C 0.53991 0.04302 0.09098 0.0
C1183 C 0.52182 0.03804 0.10246 0.0
H1184 H 0.23914 0.71713 0.14432 0.0
H1185 H 0.17332 0.73059 0.1339 0.0
H1186 H 0.22965 0.68626 0.16482 0.0
H1187 H 0.16376 0.69946 0.15445 0.0
H1188 H 0.16401 0.67011 0.22337 0.0
H1189 H 0.1672 0.6933 0.193 0.0
H1190 H 0.21288 0.65117 0.16561 0.0
H1191 H 0.20987 0.62806 0.19611 0.0
C1192 C 0.22264 0.71319 0.14601 0.0
C1193 C 0.20697 0.72635 0.13773 0.0
C1194 C 0.21719 0.6954 0.15763 0.0
C1195 C 0.19594 0.6905 0.16133 0.0
C1196 C 0.18025 0.70298 0.15197 0.0
C1197 C 0.18573 0.72071 0.14016 0.0
C1198 C 0.1743 0.66552 0.2106 0.0
C1199 C 0.18696 0.64749 0.21225 0.0
C1200 C 0.17605 0.67875 0.19314 0.0
C1201 C 0.19051 0.67417 0.17706 0.0
C1202 C 0.20185 0.65522 0.17793 0.0
C1203 C 0.20006 0.64198 0.19535 0.0
H1204 H 0.57592 0.91012 0.48039 0.0
H1205 H 0.61018 0.96002 0.44949 0.0
H1206 H 0.54915 0.91154 0.45289 0.0
H1207 H 0.58322 0.96186 0.42239 0.0
H1208 H 0.53351 0.95719 0.37207 0.0
H1209 H 0.56367 0.9462 0.3934 0.0
H1210 H 0.5226 0.93821 0.44696 0.0
H1211 H 0.49267 0.9487 0.42568 0.0
C1212 C 0.57795 0.92108 0.4675 0.0
C1213 C 0.59493 0.93519 0.46724 0.0
C1214 C 0.56257 0.922 0.45183 0.0
C1215 C 0.56386 0.93709 0.4357 0.0
C1216 C 0.58177 0.94999 0.43453 0.0
C1217 C 0.59719 0.94901 0.45014 0.0
C1218 C 0.53098 0.95286 0.38835 0.0
C1219 C 0.51081 0.95396 0.39728 0.0
C1220 C 0.54821 0.9466 0.40055 0.0
C1221 C 0.54552 0.94127 0.42185 0.0
C1222 C 0.5252 0.94181 0.43052 0.0
C1223 C 0.50805 0.94807 0.41837 0.0
H1224 H 0.2667 0.27897 0.63702 0.0
H1225 H 0.314 0.24038 0.6669 0.0
H1226 H 0.27478 0.30758 0.66127 0.0
H1227 H 0.32269 0.26915 0.69059 0.0
H1228 H 0.30546 0.30987 0.74798 0.0
H1229 H 0.3051 0.28396 0.72003 0.0
H1230 H 0.29929 0.33364 0.67389 0.0
H1231 H 0.299 0.35966 0.70215 0.0
C1232 C 0.27913 0.2768 0.64849 0.0
C1233 C 0.2895 0.2574 0.65034 0.0
C1234 C 0.28388 0.29322 0.6623 0.0
C1235 C 0.29924 0.29057 0.67805 0.0
C1236 C 0.31046 0.27155 0.67896 0.0
C1237 C 0.30554 0.25509 0.66535 0.0
C1238 C 0.30446 0.31531 0.73186 0.0
C1239 C 0.30208 0.33676 0.72725 0.0
C1240 C 0.30439 0.30044 0.71577 0.0
C1241 C 0.30205 0.3067 0.69468 0.0
C1242 C 0.30078 0.32829 0.68999 0.0
C1243 C 0.30078 0.34319 0.70615 0.0
H1244 H 0.88013 0.02788 0.94842 0.0
H1245 H 0.91975 0.07558 0.97618 0.0
H1246 H 0.90421 0.02519 0.9187 0.0
H1247 H 0.94402 0.07262 0.9467 0.0
H1248 H 0.98227 0.06818 0.88804 0.0
H1249 H 0.95102 0.07639 0.90888 0.0
H1250 H 0.93945 0.00995 0.91742 0.0
H1251 H 0.97036 0.00181 0.89645 0.0
C1252 C 0.89378 0.03807 0.94798 0.0
C1253 C 0.89824 0.05173 0.96474 0.0
C1254 C 0.90761 0.03646 0.93101 0.0
C1255 C 0.92615 0.04848 0.9305 0.0
C1256 C 0.9298 0.06325 0.94654 0.0
C1257 C 0.91595 0.06487 0.9635 0.0
C1258 C 0.97276 0.05536 0.89401 0.0
C1259 C 0.97882 0.03436 0.89082 0.0
C1260 C 0.95495 0.06006 0.90601 0.0
C1261 C 0.94286 0.04383 0.91491 0.0
C1262 C 0.94827 0.02283 0.9106 0.0
C1263 C 0.96608 0.01815 0.8987 0.0
H1264 H 0.37075 0.21464 0.27825 0.0
H1265 H 0.31784 0.19906 0.23851 0.0
H1266 H 0.34979 0.20607 0.30938 0.0
H1267 H 0.29691 0.19091 0.26939 0.0
H1268 H 0.26583 0.1657 0.32599 0.0
H1269 H 0.29269 0.16669 0.29863 0.0
H1270 H 0.31971 0.22215 0.32711 0.0
H1271 H 0.2932 0.22085 0.35469 0.0
C1272 C 0.35471 0.20928 0.27618 0.0
C1273 C 0.34586 0.20764 0.256 0.0
C1274 C 0.34272 0.20441 0.29397 0.0
C1275 C 0.32172 0.19776 0.29184 0.0
C1276 C 0.31314 0.19562 0.27158 0.0
C1277 C 0.32508 0.2005 0.25387 0.0
C1278 C 0.2778 0.17781 0.32666 0.0
C1279 C 0.27728 0.19337 0.34229 0.0
C1280 C 0.2931 0.17845 0.31093 0.0
C1281 C 0.3081 0.1947 0.31052 0.0
C1282 C 0.30845 0.20936 0.32703 0.0
C1283 C 0.29319 0.20869 0.34279 0.0
H1284 H 0.03091 0.04933 0.60757 0.0
H1285 H 0.07947 0.01516 0.57459 0.0
H1286 H 0.02957 0.075 0.57913 0.0
H1287 H 0.07838 0.04108 0.54627 0.0
H1288 H 0.03706 0.12281 0.52663 0.0
H1289 H 0.0471 0.10251 0.55784 0.0
H1290 H 0.05058 0.04625 0.51994 0.0
H1291 H 0.04083 0.06643 0.48897 0.0
C1292 C 0.04172 0.04764 0.59452 0.0
C1293 C 0.05505 0.03007 0.59311 0.0
C1294 C 0.04101 0.06241 0.57826 0.0
C1295 C 0.05363 0.05985 0.56032 0.0
C1296 C 0.06819 0.04322 0.55975 0.0
C1297 C 0.06891 0.02846 0.57601 0.0
C1298 C 0.04017 0.10614 0.52501 0.0
C1299 C 0.03804 0.09615 0.50543 0.0
C1300 C 0.04589 0.09455 0.54284 0.0
C1301 C 0.04973 0.07282 0.54132 0.0
C1302 C 0.0481 0.06303 0.52159 0.0
C1303 C 0.0423 0.07455 0.50387 0.0
H1304 H 0.17544 0.79358 0.73835 0.0
H1305 H 0.12119 0.78246 0.77771 0.0
H1306 H 0.19602 0.80293 0.76913 0.0
H1307 H 0.14178 0.79231 0.8087 0.0
H1308 H 0.22728 0.83009 0.8246 0.0
H1309 H 0.20088 0.82859 0.79675 0.0
H1310 H 0.17058 0.77659 0.82839 0.0
H1311 H 0.19657 0.77849 0.85643 0.0
C1312 C 0.16784 0.79338 0.75359 0.0
C1313 C 0.14677 0.78712 0.75566 0.0
C1314 C 0.17958 0.79896 0.77124 0.0
C1315 C 0.17052 0.79846 0.79138 0.0
C1316 C 0.14924 0.7927 0.79341 0.0
C1317 C 0.13746 0.78709 0.77569 0.0
C1318 C 0.21466 0.8187 0.82584 0.0
C1319 C 0.21412 0.80423 0.84252 0.0
C1320 C 0.19964 0.81773 0.80983 0.0
C1321 C 0.18386 0.80222 0.81017 0.0
C1322 C 0.18244 0.78879 0.82768 0.0
C1323 C 0.19741 0.78982 0.84372 0.0
H1324 H 0.45031 0.92734 0.98533 0.0
H1325 H 0.46022 0.87333 0.02542 0.0
H1326 H 0.44076 0.9483 0.01577 0.0
H1327 H 0.45031 0.89437 0.05609 0.0
H1328 H 0.46467 0.95017 0.10281 0.0
H1329 H 0.46671 0.92376 0.07518 0.0
H1330 H 0.41433 0.95312 0.04323 0.0
H1331 H 0.41257 0.97983 0.0707 0.0
C1332 C 0.45022 0.91989 0.00066 0.0
C1333 C 0.45617 0.89876 0.00305 0.0
C1334 C 0.44453 0.93185 0.01809 0.0
C1335 C 0.44468 0.92297 0.03833 0.0
C1336 C 0.45016 0.90166 0.04069 0.0
C1337 C 0.45579 0.88963 0.02317 0.0
C1338 C 0.4533 0.95072 0.09012 0.0
C1339 C 0.43866 0.96723 0.08872 0.0
C1340 C 0.4544 0.93552 0.07434 0.0
C1341 C 0.44087 0.93654 0.05688 0.0
C1342 C 0.42522 0.95217 0.05631 0.0
C1343 C 0.42413 0.96738 0.07209 0.0
H1344 H 0.35947 0.7655 0.21896 0.0
H1345 H 0.3293 0.81304 0.25687 0.0
H1346 H 0.33564 0.77362 0.18993 0.0
H1347 H 0.30604 0.82174 0.2277 0.0
H1348 H 0.24912 0.80477 0.18608 0.0
H1349 H 0.27669 0.8042 0.21246 0.0
H1350 H 0.32357 0.79827 0.1636 0.0
H1351 H 0.29568 0.79821 0.13709 0.0
C1352 C 0.34803 0.77798 0.2209 0.0
C1353 C 0.34597 0.78841 0.24022 0.0
C1354 C 0.33446 0.78275 0.20424 0.0
C1355 C 0.31876 0.79819 0.20658 0.0
C1356 C 0.31764 0.80945 0.22554 0.0
C1357 C 0.331 0.80452 0.24222 0.0
C1358 C 0.26533 0.8037 0.18093 0.0
C1359 C 0.27025 0.80136 0.15956 0.0
C1360 C 0.28119 0.8035 0.19606 0.0
C1361 C 0.30238 0.80108 0.19017 0.0
C1362 C 0.30738 0.79984 0.16867 0.0
C1363 C 0.29145 0.79997 0.15349 0.0
H1364 H 0.47679 0.04415 0.3889 0.0
H1365 H 0.42062 0.01611 0.41491 0.0
H1366 H 0.47723 0.06978 0.41731 0.0
H1367 H 0.42076 0.04209 0.44311 0.0
H1368 H 0.46805 0.11951 0.46705 0.0
H1369 H 0.4605 0.09937 0.43518 0.0
H1370 H 0.44397 0.04555 0.47332 0.0
H1371 H 0.45109 0.06571 0.50498 0.0
C1372 C 0.46422 0.04381 0.40039 0.0
C1373 C 0.44884 0.02797 0.39989 0.0
C1374 C 0.46442 0.05857 0.41663 0.0
C1375 C 0.44919 0.05776 0.43262 0.0
C1376 C 0.43293 0.04283 0.43123 0.0
C1377 C 0.43277 0.02805 0.41502 0.0
C1378 C 0.46259 0.10344 0.46856 0.0
C1379 C 0.46028 0.09411 0.48846 0.0
C1380 C 0.45832 0.09191 0.45034 0.0
C1381 C 0.4516 0.07089 0.45173 0.0
C1382 C 0.44876 0.06182 0.47169 0.0
C1383 C 0.45305 0.0733 0.48985 0.0
H1384 H 0.12684 0.20752 0.7231 0.0
H1385 H 0.18205 0.19956 0.76197 0.0
H1386 H 0.14789 0.20022 0.69179 0.0
H1387 H 0.2031 0.19271 0.73081 0.0
H1388 H 0.2348 0.16826 0.67349 0.0
H1389 H 0.20947 0.16808 0.70233 0.0
H1390 H 0.17526 0.21873 0.67247 0.0
H1391 H 0.20026 0.21856 0.6435 0.0
C1392 C 0.14344 0.20411 0.72495 0.0
C1393 C 0.15285 0.20423 0.74494 0.0
C1394 C 0.15549 0.19999 0.70704 0.0
C1395 C 0.17716 0.19588 0.70881 0.0
C1396 C 0.18639 0.19547 0.7289 0.0
C1397 C 0.17437 0.1996 0.74676 0.0
C1398 C 0.22162 0.17904 0.6729 0.0
C1399 C 0.2196 0.19356 0.65637 0.0
C1400 C 0.2072 0.17905 0.68947 0.0
C1401 C 0.19052 0.19358 0.68982 0.0
C1402 C 0.18783 0.20723 0.67262 0.0
C1403 C 0.20222 0.2072 0.65606 0.0
H1404 H 0.01923 0.88461 0.97232 0.0
H1405 H 0.06483 0.91708 0.01079 0.0
H1406 H 0.02712 0.90819 0.94307 0.0
H1407 H 0.07338 0.9401 0.98139 0.0
H1408 H 0.05619 0.99551 0.93798 0.0
H1409 H 0.0557 0.96854 0.96496 0.0
H1410 H 0.05164 0.9205 0.91706 0.0
H1411 H 0.05143 0.94778 0.88993 0.0
C1412 C 0.03125 0.89652 0.97435 0.0
C1413 C 0.0412 0.89925 0.99387 0.0
C1414 C 0.0359 0.90994 0.95756 0.0
C1415 C 0.05075 0.9262 0.95994 0.0
C1416 C 0.06153 0.92806 0.97916 0.0
C1417 C 0.0567 0.91482 0.99598 0.0
C1418 C 0.05554 0.97918 0.93317 0.0
C1419 C 0.05368 0.97375 0.91187 0.0
C1420 C 0.05539 0.96366 0.94866 0.0
C1421 C 0.05353 0.9423 0.94321 0.0
C1422 C 0.05276 0.93681 0.9218 0.0
C1423 C 0.05281 0.95241 0.90626 0.0
H1424 H 0.24036 0.32153 0.1982 0.0
H1425 H 0.28094 0.37314 0.21571 0.0
H1426 H 0.27094 0.30024 0.18984 0.0
H1427 H 0.31175 0.35191 0.20681 0.0
H1428 H 0.35631 0.29494 0.22092 0.0
H1429 H 0.32896 0.32166 0.22223 0.0
H1430 H 0.30037 0.29529 0.16649 0.0
H1431 H 0.32749 0.26813 0.16556 0.0
C1432 C 0.25585 0.32843 0.19998 0.0
C1433 C 0.25828 0.34892 0.2078 0.0
C1434 C 0.2734 0.31629 0.19498 0.0
C1435 C 0.29382 0.32438 0.19762 0.0
C1436 C 0.29623 0.34516 0.2048 0.0
C1437 C 0.27862 0.35732 0.20985 0.0
C1438 C 0.34442 0.2951 0.2087 0.0
C1439 C 0.34384 0.27929 0.19331 0.0
C1440 C 0.32879 0.3105 0.20938 0.0
C1441 C 0.31231 0.31044 0.19463 0.0
C1442 C 0.31262 0.2955 0.17833 0.0
C1443 C 0.32822 0.28003 0.17771 0.0
H1444 H 0.77119 0.14225 0.75443 0.0
H1445 H 0.7421 0.16179 0.81251 0.0
H1446 H 0.80217 0.16314 0.76283 0.0
H1447 H 0.77352 0.18168 0.82168 0.0
H1448 H 0.81752 0.23854 0.81444 0.0
H1449 H 0.78933 0.21299 0.81185 0.0
H1450 H 0.83223 0.16865 0.78315 0.0
H1451 H 0.86016 0.19492 0.78469 0.0
C1452 C 0.77165 0.15071 0.76921 0.0
C1453 C 0.75422 0.15069 0.78269 0.0
C1454 C 0.78949 0.16255 0.77416 0.0
C1455 C 0.7904 0.17428 0.79293 0.0
C1456 C 0.77324 0.17331 0.80687 0.0
C1457 C 0.75526 0.16184 0.80168 0.0
C1458 C 0.82101 0.22319 0.80794 0.0
C1459 C 0.84092 0.21876 0.79957 0.0
C1460 C 0.80484 0.20843 0.80652 0.0
C1461 C 0.80835 0.18874 0.79704 0.0
C1462 C 0.82877 0.18382 0.79003 0.0
C1463 C 0.84485 0.19877 0.7911 0.0
H1464 H 0.05137 0.61497 0.03305 0.0
H1465 H 0.02042 0.57071 0.07428 0.0
H1466 H 0.08103 0.59093 0.02948 0.0
H1467 H 0.04983 0.54643 0.07032 0.0
H1468 H 0.10632 0.52859 0.00072 0.0
H1469 H 0.08408 0.55804 0.01069 0.0
H1470 H 0.08691 0.53821 0.07566 0.0
H1471 H 0.10894 0.50838 0.06554 0.0
C1472 C 0.05107 0.60025 0.04163 0.0
C1473 C 0.03349 0.59459 0.05375 0.0
C1474 C 0.06801 0.58643 0.03949 0.0
C1475 C 0.06767 0.56664 0.04935 0.0
C1476 C 0.05069 0.56161 0.06262 0.0
C1477 C 0.03377 0.57548 0.06484 0.0
C1478 C 0.10253 0.53073 0.01718 0.0
C1479 C 0.10922 0.5161 0.03232 0.0
C1480 C 0.08987 0.5477 0.02294 0.0
C1481 C 0.08362 0.55043 0.04398 0.0
C1482 C 0.09123 0.53638 0.05929 0.0
C1483 C 0.10395 0.51939 0.05352 0.0
H1484 H 0.63978 0.79344 0.27783 0.0
H1485 H 0.67315 0.76335 0.32886 0.0
H1486 H 0.66736 0.81986 0.27529 0.0
H1487 H 0.70058 0.79014 0.32668 0.0
H1488 H 0.75782 0.81788 0.2914 0.0
H1489 H 0.7278 0.79611 0.30068 0.0
H1490 H 0.68627 0.8491 0.29105 0.0
H1491 H 0.71646 0.87087 0.28129 0.0
C1492 C 0.65276 0.79279 0.28887 0.0
C1493 C 0.65446 0.77618 0.30336 0.0
C1494 C 0.66853 0.808 0.28748 0.0
C1495 C 0.68631 0.80693 0.30059 0.0
C1496 C 0.68727 0.79114 0.31607 0.0
C1497 C 0.67149 0.77589 0.31744 0.0
C1498 C 0.74231 0.82494 0.29139 0.0
C1499 C 0.73945 0.84602 0.28547 0.0
C1500 C 0.7251 0.81251 0.29692 0.0
C1501 C 0.70463 0.82088 0.29669 0.0
C1502 C 0.70183 0.84214 0.29122 0.0
C1503 C 0.71909 0.85461 0.28566 0.0
H1504 H 0.87639 0.96929 0.0379 0.0
H1505 H 0.9311 0.0092 0.04366 0.0
H1506 H 0.89783 0.9387 0.04719 0.0
H1507 H 0.9525 0.97876 0.05252 0.0
H1508 H 0.9849 0.92365 0.08067 0.0
H1509 H 0.95893 0.95191 0.0791 0.0
H1510 H 0.92573 0.91873 0.02996 0.0
H1511 H 0.95137 0.89035 0.03186 0.0
C1512 C 0.89296 0.97152 0.04124 0.0
C1513 C 0.90213 0.99158 0.03993 0.0
C1514 C 0.90522 0.95403 0.04651 0.0
C1515 C 0.92685 0.95631 0.05063 0.0
C1516 C 0.93583 0.97649 0.0498 0.0
C1517 C 0.92361 0.99393 0.04451 0.0
C1518 C 0.97179 0.92221 0.06987 0.0
C1519 C 0.97027 0.90493 0.05623 0.0
C1520 C 0.95701 0.93844 0.06887 0.0
C1521 C 0.94045 0.93769 0.0542 0.0
C1522 C 0.93821 0.91974 0.04153 0.0
C1523 C 0.95297 0.90351 0.04254 0.0
H1524 H 0.25627 0.67921 0.70477 0.0
H1525 H 0.21799 0.62326 0.70954 0.0
H1526 H 0.22533 0.69967 0.6954 0.0
H1527 H 0.18686 0.64382 0.69987 0.0
H1528 H 0.13756 0.69698 0.71611 0.0
H1529 H 0.16616 0.6715 0.71759 0.0
H1530 H 0.19852 0.70501 0.66811 0.0
H1531 H 0.17004 0.73074 0.66688 0.0
C1532 C 0.24125 0.67124 0.70358 0.0
C1533 C 0.23949 0.64969 0.70804 0.0
C1534 C 0.22355 0.68293 0.69801 0.0
C1535 C 0.20366 0.67333 0.69681 0.0
C1536 C 0.20197 0.65164 0.70078 0.0
C1537 C 0.21976 0.63989 0.70628 0.0
C1538 C 0.15056 0.69864 0.70523 0.0
C1539 C 0.15174 0.716 0.6916 0.0
C1540 C 0.1669 0.68398 0.70601 0.0
C1541 C 0.18472 0.68644 0.69317 0.0
C1542 C 0.18514 0.70295 0.67845 0.0
C1543 C 0.16879 0.7176 0.67767 0.0
H1544 H 0.04525 0.38695 0.45214 0.0
H1545 H 0.00673 0.42493 0.41093 0.0
H1546 H 0.07152 0.41477 0.45334 0.0
H1547 H 0.03326 0.4527 0.41183 0.0
H1548 H 0.06434 0.50577 0.45132 0.0
H1549 H 0.04232 0.47633 0.44087 0.0
H1550 H 0.09748 0.43701 0.43517 0.0
H1551 H 0.11962 0.46662 0.44596 0.0
C1552 C 0.04267 0.40102 0.44286 0.0
C1553 C 0.02381 0.40391 0.43169 0.0
C1554 C 0.05779 0.41693 0.44347 0.0
C1555 C 0.05431 0.43606 0.43294 0.0
C1556 C 0.03618 0.43826 0.42041 0.0
C1557 C 0.02107 0.42232 0.41977 0.0
C1558 C 0.07181 0.4909 0.44769 0.0
C1559 C 0.09367 0.48843 0.44963 0.0
C1560 C 0.05921 0.47407 0.44147 0.0
C1561 C 0.06817 0.45436 0.43709 0.0
C1562 C 0.09013 0.452 0.43855 0.0
C1563 C 0.10278 0.46892 0.4447 0.0
H1564 H 0.44724 0.61172 0.94497 0.0
H1565 H 0.48885 0.5671 0.91522 0.0
H1566 H 0.41981 0.58496 0.94683 0.0
H1567 H 0.46203 0.54012 0.91797 0.0
H1568 H 0.40943 0.49457 0.9197 0.0
H1569 H 0.42955 0.5254 0.90907 0.0
H1570 H 0.41455 0.55527 0.96829 0.0
H1571 H 0.39357 0.52485 0.97829 0.0
C1572 C 0.45037 0.59628 0.9385 0.0
C1573 C 0.47021 0.59141 0.93013 0.0
C1574 C 0.43475 0.58087 0.93976 0.0
C1575 C 0.43879 0.56021 0.93295 0.0
C1576 C 0.45819 0.55585 0.92322 0.0
C1577 C 0.47367 0.57133 0.92169 0.0
C1578 C 0.41025 0.50788 0.93029 0.0
C1579 C 0.40015 0.50729 0.9499 0.0
C1580 C 0.42185 0.52552 0.92425 0.0
C1581 C 0.42391 0.54282 0.93787 0.0
C1582 C 0.4131 0.54245 0.9572 0.0
C1583 C 0.40121 0.52493 0.96307 0.0
H1584 H 0.70056 0.73941 0.82079 0.0
H1585 H 0.71284 0.77779 0.87544 0.0
H1586 H 0.69104 0.77051 0.80087 0.0
H1587 H 0.70279 0.80921 0.85548 0.0
H1588 H 0.71768 0.85686 0.80066 0.0
H1589 H 0.71866 0.82892 0.8268 0.0
H1590 H 0.666 0.7986 0.7963 0.0
H1591 H 0.66545 0.82631 0.76973 0.0
C1592 C 0.70093 0.75451 0.82864 0.0
C1593 C 0.70764 0.75621 0.8496 0.0
C1594 C 0.69523 0.77236 0.81728 0.0
C1595 C 0.69607 0.79237 0.8266 0.0
C1596 C 0.70213 0.79402 0.84782 0.0
C1597 C 0.70784 0.77606 0.85925 0.0
C1598 C 0.70601 0.84447 0.7998 0.0
C1599 C 0.69174 0.84354 0.78296 0.0
C1600 C 0.70649 0.8285 0.81488 0.0
C1601 C 0.69263 0.81135 0.81343 0.0
C1602 C 0.67718 0.81138 0.79757 0.0
C1603 C 0.67679 0.8273 0.78242 0.0
H1604 H 0.46338 0.48819 0.10627 0.0
H1605 H 0.48793 0.425 0.10163 0.0
H1606 H 0.43487 0.47891 0.08236 0.0
H1607 H 0.4593 0.41569 0.07772 0.0
H1608 H 0.43038 0.4255 0.00989 0.0
H1609 H 0.45315 0.42729 0.04071 0.0
H1610 H 0.40315 0.45674 0.07597 0.0
H1611 H 0.38035 0.45503 0.04506 0.0
C1612 C 0.46238 0.47218 0.10054 0.0
C1613 C 0.47798 0.45739 0.10563 0.0
C1614 C 0.446 0.46683 0.08692 0.0
C1615 C 0.44497 0.44661 0.07803 0.0
C1616 C 0.45985 0.43145 0.08416 0.0
C1617 C 0.47615 0.43676 0.09792 0.0
C1618 C 0.42411 0.43194 0.02435 0.0
C1619 C 0.40369 0.44033 0.02502 0.0
C1620 C 0.4371 0.43286 0.04204 0.0
C1621 C 0.42996 0.4423 0.06071 0.0
C1622 C 0.40912 0.44959 0.06172 0.0
C1623 C 0.39607 0.44852 0.04406 0.0
H1624 H 0.75064 0.21588 0.35535 0.0
H1625 H 0.81626 0.23339 0.3582 0.0
H1626 H 0.75942 0.18644 0.33268 0.0
H1627 H 0.82518 0.20354 0.33574 0.0
H1628 H 0.8217 0.17434 0.26791 0.0
H1629 H 0.81915 0.19723 0.29847 0.0
H1630 H 0.77689 0.15298 0.32811 0.0
H1631 H 0.77905 0.13033 0.29727 0.0
C1632 C 0.76702 0.21312 0.35154 0.0
C1633 C 0.78273 0.22706 0.35832 0.0
C1634 C 0.7721 0.19614 0.33865 0.0
C1635 C 0.793 0.19273 0.33226 0.0
C1636 C 0.8089 0.20593 0.34015 0.0
C1637 C 0.8038 0.22294 0.3531 0.0
C1638 C 0.81221 0.16931 0.28113 0.0
C1639 C 0.80031 0.15074 0.28009 0.0
C1640 C 0.81084 0.18236 0.29873 0.0
C1641 C 0.79761 0.17703 0.31564 0.0
C1642 C 0.78692 0.15769 0.31518 0.0
C1643 C 0.78822 0.14469 0.29755 0.0
H1644 H 0.03129 0.5012 0.60143 0.0
H1645 H 0.01999 0.56795 0.60712 0.0
H1646 H 0.0617 0.50823 0.57934 0.0
H1647 H 0.05078 0.57506 0.58532 0.0
H1648 H 0.07956 0.57216 0.51742 0.0
H1649 H 0.05649 0.57022 0.54788 0.0
H1650 H 0.09674 0.5228 0.57546 0.0
H1651 H 0.11957 0.52442 0.54469 0.0
C1652 C 0.03564 0.51739 0.5984 0.0
C1653 C 0.02313 0.53401 0.60575 0.0
C1654 C 0.05317 0.52146 0.58583 0.0
C1655 C 0.05855 0.54223 0.58041 0.0
C1656 C 0.04683 0.55889 0.58896 0.0
C1657 C 0.02927 0.55481 0.60152 0.0
C1658 C 0.08372 0.56166 0.5302 0.0
C1659 C 0.10116 0.54822 0.52856 0.0
C1660 C 0.07057 0.56062 0.54773 0.0
C1661 C 0.07466 0.54616 0.564 0.0
C1662 C 0.09298 0.53383 0.56302 0.0
C1663 C 0.1061 0.53483 0.54545 0.0
H1664 H 0.69425 0.26391 0.68086 0.0
H1665 H 0.6944 0.22683 0.62399 0.0
H1666 H 0.6847 0.23304 0.70112 0.0
H1667 H 0.68427 0.19573 0.64434 0.0
H1668 H 0.70302 0.14458 0.6945 0.0
H1669 H 0.70239 0.17348 0.66941 0.0
H1670 H 0.65855 0.20698 0.70906 0.0
H1671 H 0.65975 0.17827 0.73453 0.0
C1672 C 0.69187 0.24919 0.67263 0.0
C1673 C 0.69529 0.24772 0.65088 0.0
C1674 C 0.68617 0.23149 0.68423 0.0
C1675 C 0.6837 0.21187 0.67437 0.0
C1676 C 0.68625 0.21058 0.65242 0.0
C1677 C 0.69198 0.22837 0.64077 0.0
C1678 C 0.69289 0.15791 0.69764 0.0
C1679 C 0.68172 0.15936 0.71663 0.0
C1680 C 0.69242 0.17445 0.68318 0.0
C1681 C 0.68068 0.1927 0.68739 0.0
C1682 C 0.66812 0.19333 0.70558 0.0
C1683 C 0.6687 0.17685 0.72011 0.0
H1684 H 0.06344 0.43731 0.99253 0.0
H1685 H 0.10912 0.44105 0.94242 0.0
H1686 H 0.03514 0.43784 0.96689 0.0
H1687 H 0.08075 0.44077 0.91654 0.0
H1688 H 0.02548 0.47527 0.88328 0.0
H1689 H 0.05533 0.4661 0.90558 0.0
H1690 H 0.01649 0.4215 0.9392 0.0
H1691 H 0.9865 0.43139 0.91747 0.0
C1692 C 0.06744 0.43763 0.97598 0.0
C1693 C 0.08845 0.43939 0.96947 0.0
C1694 C 0.05119 0.43784 0.96121 0.0
C1695 C 0.05563 0.43961 0.93961 0.0
C1696 C 0.07677 0.43986 0.93307 0.0
C1697 C 0.09302 0.43983 0.94787 0.0
C1698 C 0.02344 0.46335 0.8953 0.0
C1699 C 0.00366 0.45426 0.89889 0.0
C1700 C 0.04057 0.45795 0.90799 0.0
C1701 C 0.03828 0.44315 0.92433 0.0
C1702 C 0.0187 0.43326 0.92708 0.0
C1703 C 0.00154 0.43887 0.91459 0.0
H1704 H 0.77467 0.8562 0.19736 0.0
H1705 H 0.83162 0.83159 0.2252 0.0
H1706 H 0.77521 0.82817 0.17133 0.0
H1707 H 0.83249 0.80382 0.19877 0.0
H1708 H 0.80272 0.7412 0.1763 0.0
H1709 H 0.81007 0.77318 0.19571 0.0
H1710 H 0.79192 0.81035 0.1417 0.0
H1711 H 0.78413 0.77805 0.12226 0.0
C1712 C 0.78763 0.84513 0.19755 0.0
C1713 C 0.8029 0.84582 0.21351 0.0
C1714 C 0.78801 0.82913 0.18254 0.0
C1715 C 0.80372 0.81359 0.1832 0.0
C1716 C 0.81995 0.81533 0.19814 0.0
C1717 C 0.81951 0.83128 0.2132 0.0
C1718 C 0.8005 0.75618 0.16846 0.0
C1719 C 0.79266 0.75716 0.14785 0.0
C1720 C 0.80493 0.77454 0.17953 0.0
C1721 C 0.80163 0.79433 0.17023 0.0
C1722 C 0.79447 0.79532 0.14932 0.0
C1723 C 0.79006 0.77687 0.1382 0.0
H1724 H 0.3888 0.53111 0.4492 0.0
H1725 H 0.42252 0.57896 0.48368 0.0
H1726 H 0.41741 0.52923 0.42384 0.0
H1727 H 0.45104 0.57733 0.45807 0.0
H1728 H 0.5078 0.53869 0.43295 0.0
H1729 H 0.47694 0.54906 0.45301 0.0
H1730 H 0.43907 0.54635 0.39661 0.0
H1731 H 0.47007 0.53567 0.37648 0.0
C1732 C 0.40206 0.54167 0.45101 0.0
C1733 C 0.40361 0.55494 0.46858 0.0
C1734 C 0.41842 0.54065 0.43643 0.0
C1735 C 0.43662 0.55289 0.43918 0.0
C1736 C 0.43736 0.56743 0.4558 0.0
C1737 C 0.42098 0.56847 0.47037 0.0
C1738 C 0.49292 0.54044 0.42479 0.0
C1739 C 0.49128 0.5362 0.40321 0.0
C1740 C 0.47529 0.54661 0.43624 0.0
C1741 C 0.4556 0.54864 0.42636 0.0
C1742 C 0.45403 0.54483 0.40465 0.0
C1743 C 0.47174 0.53872 0.39315 0.0
H1744 H 0.7959 0.72272 0.85117 0.0
H1745 H 0.77161 0.66297 0.82981 0.0
H1746 H 0.82132 0.72273 0.82266 0.0
H1747 H 0.79753 0.66269 0.80148 0.0
H1748 H 0.87092 0.71482 0.77339 0.0
H1749 H 0.85182 0.70735 0.8059 0.0
H1750 H 0.79962 0.68326 0.76955 0.0
H1751 H 0.81884 0.69023 0.7373 0.0
C1752 C 0.79636 0.70932 0.84067 0.0
C1753 C 0.78159 0.69299 0.8425 0.0
C1754 C 0.81103 0.70926 0.82439 0.0
C1755 C 0.81128 0.69283 0.80964 0.0
C1756 C 0.79746 0.67576 0.81238 0.0
C1757 C 0.78272 0.67586 0.82866 0.0
C1758 C 0.85547 0.70769 0.77243 0.0
C1759 C 0.84626 0.70328 0.75284 0.0
C1760 C 0.84452 0.70346 0.79101 0.0
C1761 C 0.82419 0.69474 0.79032 0.0
C1762 C 0.81538 0.68966 0.7707 0.0
C1763 C 0.82631 0.69385 0.75217 0.0
H1764 H 0.56997 0.50861 0.06999 0.0
H1765 H 0.52445 0.54695 0.10271 0.0
H1766 H 0.57044 0.5339 0.04112 0.0
H1767 H 0.52449 0.57194 0.07364 0.0
H1768 H 0.53679 0.61898 0.0213 0.0
H1769 H 0.54392 0.59776 0.05266 0.0
H1770 H 0.54428 0.54161 0.01441 0.0
H1771 H 0.53761 0.56271 0.98328 0.0
C1772 C 0.56028 0.52259 0.07112 0.0
C1773 C 0.54698 0.52572 0.08843 0.0
C1774 C 0.56047 0.537 0.05457 0.0
C1775 C 0.54726 0.55474 0.05497 0.0
C1776 C 0.53494 0.55851 0.07291 0.0
C1777 C 0.53482 0.54413 0.08951 0.0
C1778 C 0.53857 0.60211 0.01965 0.0
C1779 C 0.53656 0.59246 -9e-05 0.0
C1780 C 0.5426 0.58999 0.03757 0.0
C1781 C 0.54475 0.56803 0.03599 0.0
C1782 C 0.54311 0.55852 0.01613 0.0
C1783 C 0.53907 0.57059 -0.0017 0.0
H1784 H 0.62605 0.29252 0.27097 0.0
H1785 H 0.68204 0.29176 0.23253 0.0
H1786 H 0.64755 0.29953 0.30204 0.0
H1787 H 0.70355 0.29805 0.2635 0.0
H1788 H 0.73801 0.32114 0.31966 0.0
H1789 H 0.71328 0.32261 0.2903 0.0
H1790 H 0.67178 0.27998 0.32327 0.0
H1791 H 0.6961 0.27913 0.35277 0.0
C1792 C 0.64294 0.29391 0.26918 0.0
C1793 C 0.65241 0.29147 0.2494 0.0
C1794 C 0.65526 0.29786 0.28695 0.0
C1795 C 0.67728 0.29932 0.28528 0.0
C1796 C 0.68662 0.29739 0.26534 0.0
C1797 C 0.67431 0.29358 0.24759 0.0
C1798 C 0.7234 0.31243 0.32075 0.0
C1799 C 0.71904 0.29987 0.33838 0.0
C1800 C 0.70931 0.31315 0.3039 0.0
C1801 C 0.69068 0.30119 0.30431 0.0
C1802 C 0.68586 0.28954 0.32248 0.0
C1803 C 0.69987 0.28895 0.33937 0.0
H1804 H 0.94906 0.45017 0.60433 0.0
H1805 H 0.94874 0.49948 0.55755 0.0
H1806 H 0.94762 0.42377 0.57649 0.0
H1807 H 0.94812 0.4733 0.52982 0.0
H1808 H 0.93518 0.42351 0.48276 0.0
H1809 H 0.92869 0.44691 0.51232 0.0
H1810 H 0.97119 0.41008 0.55068 0.0
H1811 H 0.97691 0.38617 0.52128 0.0
C1812 C 0.94849 0.45534 0.5881 0.0
C1813 C 0.9491 0.47684 0.58307 0.0
C1814 C 0.94783 0.44024 0.57216 0.0
C1815 C 0.9479 0.44638 0.5509 0.0
C1816 C 0.94772 0.46796 0.54599 0.0
C1817 C 0.94821 0.48301 0.5619 0.0
C1818 C 0.94294 0.42031 0.4976 0.0
C1819 C 0.95671 0.40318 0.49972 0.0
C1820 C 0.9393 0.43376 0.51451 0.0
C1821 C 0.9496 0.43055 0.53383 0.0
C1822 C 0.96279 0.41291 0.53613 0.0
C1823 C 0.96621 0.39928 0.51926 0.0
H1824 H 0.82305 0.30255 0.75284 0.0
H1825 H 0.87097 0.27708 0.712 0.0
H1826 H 0.80186 0.31185 0.72245 0.0
H1827 H 0.84976 0.28677 0.68131 0.0
H1828 H 0.78851 0.27483 0.64142 0.0
H1829 H 0.81671 0.273 0.66719 0.0
H1830 H 0.79871 0.33395 0.69118 0.0
H1831 H 0.77007 0.33559 0.66553 0.0
C1832 C 0.82919 0.2992 0.73732 0.0
C1833 C 0.84853 0.28886 0.73477 0.0
C1834 C 0.81714 0.30476 0.71987 0.0
C1835 C 0.82415 0.30008 0.69947 0.0
C1836 C 0.8439 0.29043 0.69687 0.0
C1837 C 0.85602 0.28491 0.71439 0.0
C1838 C 0.79082 0.28804 0.65192 0.0
C1839 C 0.77691 0.3052 0.65173 0.0
C1840 C 0.8071 0.28706 0.66659 0.0
C1841 C 0.80978 0.30322 0.68137 0.0
C1842 C 0.79679 0.32111 0.68017 0.0
C1843 C 0.78049 0.3221 0.66544 0.0
H1844 H 0.96547 0.54513 0.89128 0.0
H1845 H 0.91589 0.51213 0.92402 0.0
H1846 H 0.96746 0.57056 0.91976 0.0
H1847 H 0.91758 0.53791 0.95241 0.0
H1848 H 0.95424 0.56385 0.00994 0.0
H1849 H 0.94454 0.54325 0.97926 0.0
H1850 H 0.9506 0.59851 0.94008 0.0
H1851 H 0.96071 0.61914 0.97092 0.0
C1852 C 0.95463 0.54362 0.90434 0.0
C1853 C 0.94073 0.5265 0.90561 0.0
C1854 C 0.95569 0.55827 0.92061 0.0
C1855 C 0.94287 0.55607 0.93845 0.0
C1856 C 0.92792 0.53977 0.939 0.0
C1857 C 0.92686 0.5251 0.92271 0.0
C1858 C 0.95337 0.57164 0.99481 0.0
C1859 C 0.95842 0.59304 0.99276 0.0
C1860 C 0.94759 0.55989 0.97725 0.0
C1861 C 0.94673 0.56928 0.95725 0.0
C1862 C 0.95128 0.59083 0.95528 0.0
C1863 C 0.95704 0.60262 0.9729 0.0
H1864 H 0.62753 0.71068 0.21919 0.0
H1865 H 0.68029 0.69638 0.25966 0.0
H1866 H 0.64902 0.7025 0.18839 0.0
H1867 H 0.70178 0.68862 0.22903 0.0
H1868 H 0.73395 0.66457 0.17201 0.0
H1869 H 0.70719 0.66479 0.19955 0.0
H1870 H 0.67874 0.71974 0.17132 0.0
H1871 H 0.70512 0.71924 0.14365 0.0
C1872 C 0.64365 0.70565 0.22149 0.0
C1873 C 0.65231 0.70432 0.24178 0.0
C1874 C 0.65595 0.70102 0.20389 0.0
C1875 C 0.67709 0.69492 0.20628 0.0
C1876 C 0.68547 0.69294 0.22664 0.0
C1877 C 0.6732 0.69759 0.2442 0.0
C1878 C 0.7217 0.6764 0.17147 0.0
C1879 C 0.72174 0.69203 0.15585 0.0
C1880 C 0.70647 0.67661 0.18729 0.0
C1881 C 0.69101 0.69244 0.18775 0.0
C1882 C 0.69031 0.70724 0.17134 0.0
C1883 C 0.70552 0.70702 0.15555 0.0
H1884 H 0.53508 0.4421 0.38344 0.0
H1885 H 0.5765 0.47542 0.42576 0.0
H1886 H 0.53364 0.41266 0.40802 0.0
H1887 H 0.57471 0.44621 0.45053 0.0
H1888 H 0.57303 0.38825 0.49022 0.0
H1889 H 0.58163 0.4093 0.45918 0.0
H1890 H 0.51589 0.41018 0.44176 0.0
H1891 H 0.50742 0.38899 0.47243 0.0
C1892 C 0.54418 0.44297 0.39783 0.0
C1893 C 0.55567 0.46116 0.40284 0.0
C1894 C 0.54328 0.42615 0.41193 0.0
C1895 C 0.5538 0.42722 0.43135 0.0
C1896 C 0.56653 0.4448 0.43565 0.0
C1897 C 0.56748 0.4616 0.4215 0.0
C1898 C 0.56052 0.39258 0.47948 0.0
C1899 C 0.53953 0.38717 0.48382 0.0
C1900 C 0.56543 0.40471 0.46179 0.0
C1901 C 0.54944 0.41153 0.44809 0.0
C1902 C 0.52863 0.405 0.45183 0.0
C1903 C 0.52374 0.39297 0.46951 0.0
H1904 H 0.77655 0.85587 0.73454 0.0
H1905 H 0.73989 0.83343 0.68203 0.0
H1906 H 0.80537 0.83272 0.72445 0.0
H1907 H 0.76909 0.81133 0.67096 0.0
H1908 H 0.81058 0.75283 0.67709 0.0
H1909 H 0.78427 0.78007 0.68129 0.0
H1910 H 0.83255 0.82349 0.70175 0.0
H1911 H 0.85871 0.79558 0.6987 0.0
C1912 C 0.7749 0.84629 0.72056 0.0
C1913 C 0.75598 0.84614 0.70923 0.0
C1914 C 0.79147 0.83313 0.71462 0.0
C1915 C 0.78958 0.8199 0.69694 0.0
C1916 C 0.77096 0.82078 0.68498 0.0
C1917 C 0.75425 0.83354 0.69122 0.0
C1918 C 0.81562 0.76831 0.68214 0.0
C1919 C 0.83663 0.77206 0.68773 0.0
C1920 C 0.80052 0.78405 0.68446 0.0
C1921 C 0.80616 0.80407 0.69206 0.0
C1922 C 0.8275 0.80816 0.69637 0.0
C1923 C 0.84255 0.79224 0.69441 0.0
H1924 H 0.2341 0.68393 0.28814 0.0
H1925 H 0.27121 0.62703 0.29045 0.0
H1926 H 0.26507 0.70452 0.29719 0.0
H1927 H 0.30232 0.64772 0.29974 0.0
H1928 H 0.3539 0.69826 0.28234 0.0
H1929 H 0.32459 0.67359 0.2808 0.0
H1930 H 0.29047 0.71124 0.32583 0.0
H1931 H 0.31971 0.73611 0.32716 0.0
C1932 C 0.24886 0.67581 0.29077 0.0
C1933 C 0.25029 0.6539 0.28846 0.0
C1934 C 0.26656 0.68758 0.29615 0.0
C1935 C 0.2861 0.67772 0.29928 0.0
C1936 C 0.28747 0.65574 0.29733 0.0
C1937 C 0.26969 0.64392 0.29205 0.0
C1938 C 0.34033 0.70103 0.29225 0.0
C1939 C 0.33895 0.71923 0.30467 0.0
C1940 C 0.32358 0.68684 0.29143 0.0
C1941 C 0.30514 0.69065 0.30299 0.0
C1942 C 0.30437 0.70812 0.31649 0.0
C1943 C 0.32114 0.72227 0.31735 0.0
H1944 H 0.54809 0.10275 0.53258 0.0
H1945 H 0.51201 0.06918 0.57937 0.0
H1946 H 0.57351 0.07409 0.53163 0.0
H1947 H 0.53766 0.04063 0.57868 0.0
H1948 H 0.56475 0.98373 0.54196 0.0
H1949 H 0.54404 0.01456 0.55097 0.0
H1950 H 0.60028 0.05274 0.5501 0.0
H1951 H 0.6211 0.02172 0.54078 0.0
C1952 C 0.5459 0.08949 0.54307 0.0
C1953 C 0.52792 0.08803 0.55582 0.0
C1954 C 0.56051 0.07311 0.54259 0.0
C1955 C 0.5574 0.05498 0.55486 0.0
C1956 C 0.54025 0.05426 0.56877 0.0
C1957 C 0.52564 0.07065 0.56926 0.0
C1958 C 0.57274 -0.00134 0.54384 0.0
C1959 C 0.5945 0.00037 0.54052 0.0
C1960 C 0.5609 0.01629 0.54922 0.0
C1961 C 0.57055 0.03606 0.55135 0.0
C1962 C 0.59242 0.03772 0.54846 0.0
C1963 C 0.60431 0.01999 0.54316 0.0
H1964 H 0.21905 0.3488 0.75712 0.0
H1965 H 0.23181 0.35569 0.82348 0.0
H1966 H 0.18887 0.32671 0.76516 0.0
H1967 H 0.20131 0.33371 0.8316 0.0
H1968 H 0.17156 0.26571 0.82963 0.0
H1969 H 0.19522 0.29576 0.82691 0.0
H1970 H 0.1539 0.3242 0.78097 0.0
H1971 H 0.13042 0.29395 0.78343 0.0
C1972 C 0.21511 0.34597 0.77345 0.0
C1973 C 0.22788 0.35377 0.78966 0.0
C1974 C 0.19772 0.33342 0.77808 0.0
C1975 C 0.19277 0.32837 0.79903 0.0
C1976 C 0.20489 0.33715 0.81531 0.0
C1977 C 0.22226 0.3498 0.81066 0.0
C1978 C 0.16731 0.27859 0.81929 0.0
C1979 C 0.14934 0.27736 0.80651 0.0
C1980 C 0.1808 0.29587 0.81781 0.0
C1981 C 0.17653 0.31224 0.80353 0.0
C1982 C 0.15776 0.31166 0.79186 0.0
C1983 C 0.14429 0.29438 0.79333 0.0
H1984 H 0.3773 0.46848 0.54299 0.0
H1985 H 0.43259 0.5079 0.54003 0.0
H1986 H 0.39938 0.43837 0.55244 0.0
H1987 H 0.45456 0.47796 0.54896 0.0
H1988 H 0.45095 0.38829 0.53543 0.0
H1989 H 0.42512 0.41654 0.53438 0.0
H1990 H 0.46382 0.45335 0.57642 0.0
H1991 H 0.48996 0.42526 0.57699 0.0
C1992 C 0.39413 0.47071 0.54446 0.0
C1993 C 0.40325 0.49048 0.54067 0.0
C1994 C 0.40676 0.4535 0.54982 0.0
C1995 C 0.42872 0.45578 0.55151 0.0
C1996 C 0.43769 0.47571 0.54819 0.0
C1997 C 0.4251 0.49285 0.54285 0.0
C1998 C 0.45374 0.40224 0.54478 0.0
C1999 C 0.47259 0.40473 0.55605 0.0
C2000 C 0.43888 0.41841 0.54426 0.0
C2001 C 0.44256 0.43732 0.55508 0.0
C2002 C 0.46074 0.43914 0.56757 0.0
C2003 C 0.47565 0.42301 0.56801 0.0
H2004 H 0.67139 0.23605 0.16064 0.0
H2005 H 0.63802 0.20416 0.21052 0.0
H2006 H 0.69933 0.20978 0.16264 0.0
H2007 H 0.66609 0.17821 0.21281 0.0
H2008 H 0.75655 0.18372 0.19969 0.0
H2009 H 0.72602 0.20456 0.18984 0.0
H2010 H 0.68633 0.14977 0.19645 0.0
H2011 H 0.71702 0.12888 0.20667 0.0
C2012 C 0.66981 0.22319 0.17171 0.0
C2013 C 0.65268 0.22229 0.18561 0.0
C2014 C 0.68587 0.20824 0.17297 0.0
C2015 C 0.68508 0.19215 0.18813 0.0
C2016 C 0.66714 0.19035 0.2009 0.0
C2017 C 0.65108 0.20529 0.19964 0.0
C2018 C 0.74134 0.17608 0.19892 0.0
C2019 C 0.73913 0.15473 0.2041 0.0
C2020 C 0.72386 0.18797 0.19305 0.0
C2021 C 0.70376 0.17879 0.19226 0.0
C2022 C 0.7016 0.1573 0.19704 0.0
C2023 C 0.71915 0.14536 0.20286 0.0
H2024 H 0.62139 0.96715 0.96143 0.0
H2025 H 0.56703 0.00618 0.94944 0.0
H2026 H 0.60103 0.93596 0.95178 0.0
H2027 H 0.54666 0.97518 0.9403 0.0
H2028 H 0.54657 0.88807 0.96569 0.0
H2029 H 0.57228 0.91635 0.96753 0.0
H2030 H 0.54211 0.9472 0.91494 0.0
H2031 H 0.51599 0.91909 0.91348 0.0
C2032 C 0.60514 0.96905 0.95665 0.0
C2033 C 0.59574 0.98904 0.95631 0.0
C2034 C 0.59349 0.95122 0.95116 0.0
C2035 C 0.57224 0.95309 0.94522 0.0
C2036 C 0.56308 0.9732 0.94441 0.0
C2037 C 0.5747 0.99096 0.94987 0.0
C2038 C 0.5457 0.90065 0.95422 0.0
C2039 C 0.5291 0.90155 0.93965 0.0
C2040 C 0.56051 0.91683 0.95521 0.0
C2041 C 0.55904 0.93419 0.94159 0.0
C2042 C 0.54338 0.93424 0.92594 0.0
C2043 C 0.52852 0.91808 0.925 0.0
H2044 H 0.97879 0.07628 0.41325 0.0
H2045 H 0.94679 0.10744 0.46439 0.0
H2046 H 0.95246 0.04838 0.41383 0.0
H2047 H 0.92074 0.07936 0.46526 0.0
H2048 H 0.87228 0.02778 0.45785 0.0
H2049 H 0.89239 0.05916 0.44809 0.0
H2050 H 0.94804 0.02087 0.4404 0.0
H2051 H 0.92803 0.98973 0.44983 0.0
C2052 C 0.96588 0.0774 0.4243 0.0
C2053 C 0.96501 0.09383 0.439 0.0
C2054 C 0.95088 0.06138 0.42471 0.0
C2055 C 0.93477 0.06149 0.43985 0.0
C2056 C 0.93291 0.07885 0.45336 0.0
C2057 C 0.9479 0.0949 0.45293 0.0
C2058 C 0.88876 0.02612 0.45385 0.0
C2059 C 0.89866 0.00638 0.45475 0.0
C2060 C 0.90025 0.04405 0.44829 0.0
C2061 C 0.92176 0.04247 0.44339 0.0
C2062 C 0.93141 0.02258 0.44371 0.0
C2063 C 0.91999 0.00475 0.44934 0.0
H2064 H 0.06008 0.13242 0.38749 0.0
H2065 H 0.09402 0.12166 0.44539 0.0
H2066 H 0.0934 0.13895 0.3693 0.0
H2067 H 0.12712 0.12811 0.42732 0.0
H2068 H 0.14912 0.18918 0.36707 0.0
H2069 H 0.11672 0.17051 0.37511 0.0
H2070 H 0.15276 0.11793 0.39874 0.0
H2071 H 0.18542 0.13673 0.39057 0.0
C2072 C 0.07467 0.13095 0.39618 0.0
C2073 C 0.07453 0.12691 0.41788 0.0
C2074 C 0.09369 0.13467 0.38579 0.0
C2075 C 0.11279 0.13413 0.39694 0.0
C2076 C 0.11267 0.12843 0.41828 0.0
C2077 C 0.0937 0.12496 0.42867 0.0
C2078 C 0.15013 0.17343 0.37352 0.0
C2079 C 0.16969 0.16449 0.37853 0.0
C2080 C 0.13158 0.16265 0.37793 0.0
C2081 C 0.13225 0.14283 0.38765 0.0
C2082 C 0.15186 0.13325 0.39133 0.0
C2083 C 0.17049 0.14397 0.38665 0.0
H2084 H 0.10517 0.93478 0.6395 0.0
H2085 H 0.04832 0.90191 0.62203 0.0
H2086 H 0.12219 0.90106 0.6473 0.0
H2087 H 0.06528 0.8684 0.62963 0.0
H2088 H 0.11966 0.84317 0.69506 0.0
H2089 H 0.11245 0.87646 0.67755 0.0
H2090 H 0.09537 0.84314 0.62091 0.0
H2091 H 0.10281 0.8096 0.6385 0.0
C2092 C 0.09652 0.92034 0.63684 0.0
C2093 C 0.07538 0.92088 0.63047 0.0
C2094 C 0.10622 0.90111 0.64131 0.0
C2095 C 0.095 0.88219 0.63912 0.0
C2096 C 0.07437 0.88273 0.63126 0.0
C2097 C 0.0646 0.90191 0.6271 0.0
C2098 C 0.11477 0.84297 0.67874 0.0
C2099 C 0.11152 0.82387 0.66818 0.0
C2100 C 0.11085 0.86203 0.66865 0.0
C2101 C 0.10333 0.86233 0.6479 0.0
C2102 C 0.10113 0.84327 0.63694 0.0
C2103 C 0.10538 0.82414 0.64697 0.0
H2104 H 0.40053 0.87108 0.94459 0.0
H2105 H 0.43343 0.85847 0.88656 0.0
H2106 H 0.36706 0.86447 0.92719 0.0
H2107 H 0.39971 0.85165 0.86907 0.0
H2108 H 0.30813 0.85761 0.89036 0.0
H2109 H 0.34155 0.87523 0.89817 0.0
H2110 H 0.37542 0.82057 0.87634 0.0
H2111 H 0.34224 0.80302 0.86873 0.0
C2112 C 0.40054 0.86728 0.92798 0.0
C2113 C 0.41951 0.86498 0.91695 0.0
C2114 C 0.38137 0.86371 0.91797 0.0
C2115 C 0.38083 0.85751 0.89681 0.0
C2116 C 0.39975 0.85637 0.88543 0.0
C2117 C 0.41898 0.86027 0.8954 0.0
C2118 C 0.32275 0.84963 0.88677 0.0
C2119 C 0.32269 0.82888 0.87926 0.0
C2120 C 0.34181 0.85967 0.89125 0.0
C2121 C 0.36101 0.84921 0.88792 0.0
C2122 C 0.36087 0.82909 0.87886 0.0
C2123 C 0.34188 0.81897 0.8747 0.0
H2124 H 0.37867 0.18367 0.13721 0.0
H2125 H 0.37515 0.15 0.19613 0.0
H2126 H 0.38278 0.15022 0.11851 0.0
H2127 H 0.37933 0.11688 0.17766 0.0
H2128 H 0.38298 0.05825 0.14234 0.0
H2129 H 0.3655 0.09117 0.15189 0.0
H2130 H 0.41358 0.12616 0.11897 0.0
H2131 H 0.43082 0.09344 0.10934 0.0
C2132 C 0.37837 0.16912 0.14608 0.0
C2133 C 0.37695 0.16938 0.16811 0.0
C2134 C 0.38071 0.15003 0.13542 0.0
C2135 C 0.38142 0.13095 0.14663 0.0
C2136 C 0.37857 0.13125 0.16853 0.0
C2137 C 0.37643 0.15026 0.17915 0.0
C2138 C 0.38941 0.07297 0.13664 0.0
C2139 C 0.40844 0.07339 0.12548 0.0
C2140 C 0.37946 0.09178 0.14214 0.0
C2141 C 0.38834 0.11123 0.1364 0.0
C2142 C 0.40627 0.11146 0.12353 0.0
C2143 C 0.41626 0.09271 0.11817 0.0
H2144 H 0.14904 0.7985 0.13481 0.0
H2145 H 0.18443 0.85307 0.1151 0.0
H2146 H 0.11634 0.81706 0.12768 0.0
H2147 H 0.15158 0.87182 0.10822 0.0
H2148 H 0.09589 0.87125 0.05925 0.0
H2149 H 0.12794 0.86363 0.07854 0.0
H2150 H 0.09123 0.84665 0.13316 0.0
H2151 H 0.05883 0.85433 0.11358 0.0
C2152 C 0.14982 0.8147 0.12956 0.0
C2153 C 0.16924 0.8242 0.12504 0.0
C2154 C 0.13106 0.82541 0.12564 0.0
C2155 C 0.13142 0.84578 0.11709 0.0
C2156 C 0.15087 0.856 0.11453 0.0
C2157 C 0.16966 0.84529 0.1185 0.0
C2158 C 0.09465 0.86628 0.0755 0.0
C2159 C 0.07493 0.86305 0.08485 0.0
C2160 C 0.11304 0.86215 0.08666 0.0
C2161 C 0.11211 0.8545 0.10737 0.0
C2162 C 0.09237 0.85245 0.11717 0.0
C2163 C 0.07389 0.85685 0.10602 0.0
H2164 H 0.39398 0.93359 0.3593 0.0
H2165 H 0.45242 0.89979 0.36726 0.0
H2166 H 0.37552 0.90017 0.35377 0.0
H2167 H 0.43407 0.86663 0.36194 0.0
H2168 H 0.37125 0.84331 0.30462 0.0
H2169 H 0.38024 0.87616 0.32203 0.0
H2170 H 0.40552 0.8414 0.37471 0.0
H2171 H 0.39628 0.80828 0.35722 0.0
C2172 C 0.40275 0.91901 0.36033 0.0
C2173 C 0.42463 0.9192 0.36334 0.0
C2174 C 0.39222 0.89996 0.35721 0.0
C2175 C 0.4034 0.88088 0.35743 0.0
C2176 C 0.42502 0.88107 0.36194 0.0
C2177 C 0.43556 0.90006 0.36474 0.0
C2178 C 0.37827 0.8427 0.32015 0.0
C2179 C 0.3834 0.82335 0.32949 0.0
C2180 C 0.38322 0.86149 0.3302 0.0
C2181 C 0.39365 0.86128 0.34966 0.0
C2182 C 0.39753 0.84192 0.35966 0.0
C2183 C 0.39225 0.82304 0.3497 0.0
H2184 H 0.40089 0.12082 0.54922 0.0
H2185 H 0.43405 0.1369 0.6063 0.0
H2186 H 0.36753 0.12901 0.56612 0.0
H2187 H 0.40049 0.1452 0.62328 0.0
H2188 H 0.34438 0.19461 0.62137 0.0
H2189 H 0.37702 0.17607 0.61406 0.0
H2190 H 0.34169 0.12104 0.59563 0.0
H2191 H 0.30876 0.13972 0.60315 0.0
C2192 C 0.40098 0.1257 0.56553 0.0
C2193 C 0.42001 0.12857 0.57638 0.0
C2194 C 0.38187 0.13018 0.57527 0.0
C2195 C 0.38147 0.13783 0.59596 0.0
C2196 C 0.40043 0.13942 0.60726 0.0
C2197 C 0.41958 0.13467 0.59757 0.0
C2198 C 0.34358 0.17842 0.61614 0.0
C2199 C 0.32411 0.16865 0.61253 0.0
C2200 C 0.36227 0.16773 0.61217 0.0
C2201 C 0.36186 0.14714 0.60426 0.0
C2202 C 0.34239 0.13694 0.60168 0.0
C2203 C 0.32361 0.14759 0.60598 0.0
H2204 H 0.10839 0.18338 0.86498 0.0
H2205 H 0.13006 0.14642 0.81235 0.0
H2206 H 0.0996 0.15103 0.88397 0.0
H2207 H 0.12118 0.11434 0.83105 0.0
H2208 H 0.05081 0.09453 0.88227 0.0
H2209 H 0.07045 0.12671 0.87601 0.0
H2210 H 0.12571 0.09017 0.86085 0.0
H2211 H 0.10584 0.05779 0.86687 0.0
C2212 C 0.11178 0.16836 0.85772 0.0
C2213 C 0.11955 0.16734 0.83709 0.0
C2214 C 0.1067 0.14987 0.86854 0.0
C2215 C 0.10951 0.13015 0.85893 0.0
C2216 C 0.11899 0.12923 0.83901 0.0
C2217 C 0.1239 0.14764 0.82818 0.0
C2218 C 0.06729 0.09336 0.87809 0.0
C2219 C 0.0767 0.07369 0.87464 0.0
C2220 C 0.07862 0.11183 0.8747 0.0
C2221 C 0.09958 0.11097 0.86772 0.0
C2222 C 0.1095 0.09128 0.86598 0.0
C2223 C 0.09815 0.07277 0.86946 0.0
H2224 H 0.15104 0.3737 0.17176 0.0
H2225 H 0.2045 0.41372 0.15903 0.0
H2226 H 0.13786 0.38019 0.13596 0.0
H2227 H 0.19133 0.42042 0.12396 0.0
H2228 H 0.17735 0.41519 0.05731 0.0
H2229 H 0.18728 0.40098 0.0914 0.0
H2230 H 0.12366 0.40973 0.11365 0.0
H2231 H 0.11352 0.42339 0.07899 0.0
C2232 C 0.15989 0.38389 0.16136 0.0
C2233 C 0.17886 0.39308 0.16808 0.0
C2234 C 0.15236 0.38761 0.14096 0.0
C2235 C 0.16376 0.4005 0.12705 0.0
C2236 C 0.18247 0.40994 0.13406 0.0
C2237 C 0.18995 0.40622 0.15426 0.0
C2238 C 0.16537 0.41366 0.06934 0.0
C2239 C 0.14477 0.42067 0.06571 0.0
C2240 C 0.17107 0.40563 0.08888 0.0
C2241 C 0.15638 0.40477 0.10535 0.0
C2242 C 0.13532 0.41024 0.10125 0.0
C2243 C 0.12952 0.41808 0.08148 0.0
H2244 H 0.69513 0.12179 0.84166 0.0
H2245 H 0.63632 0.10965 0.8098 0.0
H2246 H 0.67859 0.1141 0.87532 0.0
H2247 H 0.61971 0.10179 0.84369 0.0
H2248 H 0.61971 0.05265 0.90046 0.0
H2249 H 0.62735 0.07038 0.86739 0.0
H2250 H 0.65011 0.1245 0.90151 0.0
H2251 H 0.64227 0.10669 0.93482 0.0
C2252 C 0.67855 0.11782 0.84192 0.0
C2253 C 0.66704 0.11602 0.82316 0.0
C2254 C 0.66904 0.11363 0.86121 0.0
C2255 C 0.64789 0.10733 0.86207 0.0
C2256 C 0.63606 0.10657 0.84339 0.0
C2257 C 0.64554 0.11106 0.82407 0.0
C2258 C 0.62594 0.06851 0.9009 0.0
C2259 C 0.63068 0.07823 0.92013 0.0
C2260 C 0.63012 0.07873 0.88197 0.0
C2261 C 0.63939 0.09876 0.88193 0.0
C2262 C 0.64303 0.10901 0.90118 0.0
C2263 C 0.63854 0.09886 0.92017 0.0
H2264 H 0.80109 0.87368 0.34172 0.0
H2265 H 0.85622 0.89268 0.30687 0.0
H2266 H 0.81934 0.88079 0.37461 0.0
H2267 H 0.87455 0.9 0.34001 0.0
H2268 H 0.87322 0.94659 0.399 0.0
H2269 H 0.86562 0.92949 0.36562 0.0
H2270 H 0.85034 0.87199 0.39847 0.0
H2271 H 0.85812 0.88917 0.43208 0.0
C2272 C 0.81727 0.879 0.34114 0.0
C2273 C 0.82718 0.88293 0.32182 0.0
C2274 C 0.82779 0.88286 0.35997 0.0
C2275 C 0.84832 0.89099 0.35982 0.0
C2276 C 0.85869 0.89378 0.3405 0.0
C2277 C 0.84823 0.8896 0.3216 0.0
C2278 C 0.86869 0.93016 0.39906 0.0
C2279 C 0.86594 0.91925 0.41806 0.0
C2280 C 0.86454 0.92031 0.37995 0.0
C2281 C 0.85732 0.89946 0.37951 0.0
C2282 C 0.85582 0.88812 0.39844 0.0
C2283 C 0.86028 0.89792 0.41761 0.0
H2284 H 0.80377 0.13079 0.14851 0.0
H2285 H 0.85828 0.11268 0.18488 0.0
H2286 H 0.82262 0.1231 0.1162 0.0
H2287 H 0.87732 0.10497 0.15231 0.0
H2288 H 0.87703 0.05584 0.09593 0.0
H2289 H 0.86976 0.07496 0.12818 0.0
H2290 H 0.85269 0.12986 0.09186 0.0
H2291 H 0.85998 0.11054 0.05936 0.0
C2292 C 0.81999 0.12564 0.14955 0.0
C2293 C 0.82947 0.12196 0.16915 0.0
C2294 C 0.83088 0.12144 0.13102 0.0
C2295 C 0.8514 0.11329 0.13174 0.0
C2296 C 0.86145 0.11111 0.15134 0.0
C2297 C 0.85059 0.11554 0.16994 0.0
C2298 C 0.8722 0.07215 0.09484 0.0
C2299 C 0.86871 0.08163 0.0752 0.0
C2300 C 0.86824 0.08318 0.11332 0.0
C2301 C 0.86053 0.10386 0.11253 0.0
C2302 C 0.8585 0.11387 0.09289 0.0
C2303 C 0.86269 0.10285 0.07433 0.0
H2304 H 0.37297 0.5495 0.59659 0.0
H2305 H 0.35742 0.60605 0.56221 0.0
H2306 H 0.3653 0.56731 0.62956 0.0
H2307 H 0.34958 0.62394 0.59541 0.0
H2308 H 0.30106 0.62376 0.65274 0.0
H2309 H 0.31888 0.61583 0.61982 0.0
H2310 H 0.37453 0.59741 0.65426 0.0
H2311 H 0.35664 0.60551 0.6874 0.0
C2312 C 0.36829 0.56588 0.59615 0.0
C2313 C 0.36548 0.57635 0.57691 0.0
C2314 C 0.36411 0.57614 0.61503 0.0
C2315 C 0.35679 0.59697 0.61499 0.0
C2316 C 0.35514 0.60784 0.5958 0.0
C2317 C 0.35962 0.59763 0.57687 0.0
C2318 C 0.31726 0.61845 0.65326 0.0
C2319 C 0.32741 0.61494 0.67256 0.0
C2320 C 0.32752 0.61411 0.63442 0.0
C2321 C 0.34804 0.60593 0.63454 0.0
C2322 C 0.35866 0.60362 0.6538 0.0
C2323 C 0.34846 0.60826 0.6727 0.0
H2324 H 0.13177 0.61201 0.30907 0.0
H2325 H 0.18561 0.6334 0.34458 0.0
H2326 H 0.11387 0.60283 0.34187 0.0
H2327 H 0.16788 0.62419 0.37717 0.0
H2328 H 0.1193 0.55217 0.39657 0.0
H2329 H 0.12448 0.57279 0.36481 0.0
H2330 H 0.13799 0.6277 0.40244 0.0
H2331 H 0.13279 0.60687 0.43447 0.0
C2332 C 0.13949 0.61535 0.32388 0.0
C2333 C 0.16019 0.62303 0.32435 0.0
C2334 C 0.12929 0.61005 0.34262 0.0
C2335 C 0.13959 0.61256 0.36204 0.0
C2336 C 0.15947 0.62219 0.36249 0.0
C2337 C 0.16971 0.6273 0.3438 0.0
C2338 C 0.12293 0.56876 0.39807 0.0
C2339 C 0.126 0.57788 0.41792 0.0
C2340 C 0.12566 0.58064 0.37987 0.0
C2341 C 0.13172 0.60185 0.38115 0.0
C2342 C 0.13342 0.61135 0.40104 0.0
C2343 C 0.13044 0.59946 0.41932 0.0
H2344 H 0.38199 0.43462 0.89685 0.0
H2345 H 0.35996 0.38405 0.93651 0.0
H2346 H 0.37245 0.41462 0.8658 0.0
H2347 H 0.35045 0.36375 0.90519 0.0
H2348 H 0.3003 0.36517 0.84957 0.0
H2349 H 0.32092 0.37161 0.8811 0.0
H2350 H 0.37582 0.38366 0.84291 0.0
H2351 H 0.35498 0.37743 0.81118 0.0
C2352 C 0.37563 0.41894 0.89889 0.0
C2353 C 0.37135 0.411 0.91903 0.0
C2354 C 0.37035 0.40736 0.88107 0.0
C2355 C 0.36051 0.38767 0.88305 0.0
C2356 C 0.35784 0.37898 0.90323 0.0
C2357 C 0.36333 0.39054 0.92112 0.0
C2358 C 0.31689 0.36867 0.84791 0.0
C2359 C 0.32595 0.37125 0.82795 0.0
C2360 C 0.32879 0.37216 0.86601 0.0
C2361 C 0.34995 0.37838 0.86447 0.0
C2362 C 0.35947 0.37912 0.84453 0.0
C2363 C 0.34756 0.37554 0.8264 0.0
H2364 H 0.57001 0.62486 0.88491 0.0
H2365 H 0.5983 0.627 0.94666 0.0
H2366 H 0.60478 0.62939 0.86898 0.0
H2367 H 0.6327 0.63185 0.93093 0.0
H2368 H 0.69415 0.6369 0.90103 0.0
H2369 H 0.66143 0.61846 0.90942 0.0
H2370 H 0.62735 0.66036 0.86805 0.0
H2371 H 0.65989 0.67835 0.85942 0.0
C2372 C 0.58368 0.62598 0.89504 0.0
C2373 C 0.58146 0.62594 0.917 0.0
C2374 C 0.60354 0.62857 0.88594 0.0
C2375 C 0.62148 0.63107 0.89869 0.0
C2376 C 0.6193 0.62969 0.92063 0.0
C2377 C 0.59951 0.62718 0.92967 0.0
C2378 C 0.67974 0.64171 0.89328 0.0
C2379 C 0.67943 0.65928 0.87991 0.0
C2380 C 0.66102 0.63124 0.89814 0.0
C2381 C 0.64176 0.63818 0.88966 0.0
C2382 C 0.64188 0.65452 0.87477 0.0
C2383 C 0.66053 0.66497 0.86997 0.0
H2384 H 0.61511 0.31994 0.13278 0.0
H2385 H 0.61748 0.35101 0.1931 0.0
H2386 H 0.60925 0.35397 0.11558 0.0
H2387 H 0.61129 0.38457 0.17624 0.0
H2388 H 0.60327 0.44439 0.14583 0.0
H2389 H 0.62281 0.41218 0.1532 0.0
H2390 H 0.57876 0.37699 0.1152 0.0
H2391 H 0.55978 0.40921 0.10728 0.0
C2392 C 0.61472 0.33405 0.14229 0.0
C2393 C 0.61642 0.33285 0.16427 0.0
C2394 C 0.61134 0.35349 0.13248 0.0
C2395 C 0.60974 0.37198 0.14453 0.0
C2396 C 0.61275 0.37076 0.16639 0.0
C2397 C 0.61604 0.35144 0.17613 0.0
C2398 C 0.59818 0.42986 0.13856 0.0
C2399 C 0.57976 0.42918 0.12639 0.0
C2400 C 0.6093 0.41141 0.14283 0.0
C2401 C 0.60204 0.39195 0.1352 0.0
C2402 C 0.58484 0.39168 0.1213 0.0
C2403 C 0.57384 0.41016 0.11687 0.0
H2404 H 0.8009 0.35018 0.40369 0.0
H2405 H 0.83391 0.31027 0.35979 0.0
H2406 H 0.83382 0.36806 0.41208 0.0
H2407 H 0.86684 0.32772 0.36856 0.0
H2408 H 0.92433 0.36507 0.38611 0.0
H2409 H 0.88961 0.35892 0.37041 0.0
H2410 H 0.86271 0.35368 0.43259 0.0
H2411 H 0.89697 0.36003 0.44807 0.0
C2412 C 0.8151 0.34555 0.3955 0.0
C2413 C 0.81495 0.32858 0.38141 0.0
C2414 C 0.83395 0.35572 0.40036 0.0
C2415 C 0.85298 0.34901 0.3913 0.0
C2416 C 0.85246 0.33332 0.37577 0.0
C2417 C 0.83359 0.32322 0.37084 0.0
C2418 C 0.91088 0.3629 0.39633 0.0
C2419 C 0.91334 0.36279 0.41828 0.0
C2420 C 0.89106 0.35937 0.38737 0.0
C2421 C 0.87341 0.35587 0.40025 0.0
C2422 C 0.87586 0.35668 0.42219 0.0
C2423 C 0.89558 0.36008 0.43109 0.0
H2424 H 0.89086 0.68382 0.631 0.0
H2425 H 0.86583 0.64652 0.68197 0.0
H2426 H 0.90133 0.6516 0.61273 0.0
H2427 H 0.87638 0.61457 0.664 0.0
H2428 H 0.95074 0.59604 0.6181 0.0
H2429 H 0.9302 0.62785 0.62315 0.0
H2430 H 0.87455 0.59032 0.63397 0.0
H2431 H 0.89532 0.55829 0.62914 0.0
C2432 C 0.8871 0.66875 0.63801 0.0
C2433 C 0.87791 0.6676 0.65803 0.0
C2434 C 0.89314 0.65034 0.62761 0.0
C2435 C 0.88989 0.63058 0.63704 0.0
C2436 C 0.87897 0.6295 0.6562 0.0
C2437 C 0.8731 0.64783 0.66662 0.0
C2438 C 0.93403 0.59458 0.62112 0.0
C2439 C 0.92469 0.57473 0.62365 0.0
C2440 C 0.92219 0.61282 0.62378 0.0
C2441 C 0.90078 0.61158 0.62911 0.0
C2442 C 0.89108 0.59172 0.63007 0.0
C2443 C 0.90295 0.57342 0.62731 0.0
H2444 H 0.58602 0.39966 0.56892 0.0
H2445 H 0.56563 0.34439 0.6028 0.0
H2446 H 0.62035 0.39749 0.58609 0.0
H2447 H 0.59988 0.34183 0.61943 0.0
H2448 H 0.66093 0.33807 0.64895 0.0
H2449 H 0.62701 0.35463 0.64207 0.0
H2450 H 0.64879 0.37332 0.58043 0.0
H2451 H 0.68282 0.35746 0.58765 0.0
C2452 C 0.58874 0.38731 0.58035 0.0
C2453 C 0.5733 0.37199 0.5843 0.0
C2454 C 0.60842 0.38601 0.59011 0.0
C2455 C 0.613 0.36935 0.60394 0.0
C2456 C 0.59691 0.35503 0.60906 0.0
C2457 C 0.57726 0.35637 0.59938 0.0
C2458 C 0.65865 0.34633 0.63421 0.0
C2459 C 0.67432 0.34614 0.61866 0.0
C2460 C 0.63919 0.3557 0.63021 0.0
C2461 C 0.63498 0.36485 0.61051 0.0
C2462 C 0.65145 0.3665 0.59581 0.0
C2463 C 0.67098 0.3573 0.5999 0.0
H2464 H 0.87939 0.31307 0.85177 0.0
H2465 H 0.8859 0.34408 0.79163 0.0
H2466 H 0.88259 0.34714 0.86951 0.0
H2467 H 0.8891 0.37782 0.8092 0.0
H2468 H 0.88793 0.43788 0.84259 0.0
H2469 H 0.87146 0.40475 0.83189 0.0
H2470 H 0.9142 0.37057 0.87227 0.0
H2471 H 0.9305 0.40348 0.8829 0.0
C2472 C 0.88123 0.32717 0.84237 0.0
C2473 C 0.88273 0.32596 0.82038 0.0
C2474 C 0.88298 0.34661 0.85249 0.0
C2475 C 0.886 0.3651 0.84072 0.0
C2476 C 0.88644 0.3639 0.81868 0.0
C2477 C 0.8849 0.34453 0.80863 0.0
C2478 C 0.89329 0.42332 0.84965 0.0
C2479 C 0.91067 0.4231 0.86325 0.0
C2480 C 0.88395 0.4044 0.84348 0.0
C2481 C 0.89175 0.38511 0.85106 0.0
C2482 C 0.90778 0.38517 0.86625 0.0
C2483 C 0.91723 0.40401 0.87221 0.0
H2484 H 0.80984 0.63492 0.10299 0.0
H2485 H 0.84581 0.68228 0.1358 0.0
H2486 H 0.84235 0.61599 0.09497 0.0
H2487 H 0.87813 0.66376 0.12748 0.0
H2488 H 0.93526 0.62806 0.1109 0.0
H2489 H 0.90162 0.63338 0.12898 0.0
H2490 H 0.86891 0.62687 0.06972 0.0
H2491 H 0.90216 0.62133 0.05195 0.0
C2492 C 0.82462 0.64099 0.10891 0.0
C2493 C 0.82539 0.66027 0.11961 0.0
C2494 C 0.84322 0.63021 0.10428 0.0
C2495 C 0.86284 0.63855 0.1103 0.0
C2496 C 0.86332 0.65681 0.1227 0.0
C2497 C 0.84478 0.66756 0.12729 0.0
C2498 C 0.92079 0.6273 0.10192 0.0
C2499 C 0.92128 0.62466 0.08001 0.0
C2500 C 0.90158 0.63037 0.11222 0.0
C2501 C 0.88261 0.63067 0.10076 0.0
C2502 C 0.88314 0.62649 0.07909 0.0
C2503 C 0.90226 0.62356 0.06884 0.0
H2504 H 0.60822 0.68259 0.35976 0.0
H2505 H 0.62542 0.64782 0.30406 0.0
H2506 H 0.60093 0.64943 0.37808 0.0
H2507 H 0.61819 0.61494 0.3222 0.0
H2508 H 0.60898 0.55706 0.35952 0.0
H2509 H 0.62678 0.59033 0.35166 0.0
H2510 H 0.57131 0.62445 0.37102 0.0
H2511 H 0.55368 0.59143 0.37887 0.0
C2512 C 0.61089 0.66787 0.35162 0.0
C2513 C 0.61705 0.66771 0.33044 0.0
C2514 C 0.60671 0.64894 0.36206 0.0
C2515 C 0.60891 0.62963 0.35153 0.0
C2516 C 0.61655 0.62953 0.33082 0.0
C2517 C 0.62048 0.64838 0.32036 0.0
C2518 C 0.60084 0.57172 0.36256 0.0
C2519 C 0.57987 0.57173 0.36946 0.0
C2520 C 0.61099 0.59071 0.35804 0.0
C2521 C 0.60037 0.60995 0.36061 0.0
C2522 C 0.57998 0.60991 0.36907 0.0
C2523 C 0.5698 0.59098 0.37337 0.0
H2524 H 0.61681 0.93873 0.59666 0.0
H2525 H 0.64013 0.88424 0.56355 0.0
H2526 H 0.62533 0.92211 0.63011 0.0
H2527 H 0.64883 0.86758 0.59722 0.0
H2528 H 0.69641 0.8751 0.65477 0.0
H2529 H 0.67798 0.88046 0.62164 0.0
H2530 H 0.62002 0.89121 0.65539 0.0
H2531 H 0.63857 0.88559 0.68878 0.0
C2532 C 0.62329 0.92297 0.59659 0.0
C2533 C 0.62813 0.91286 0.57759 0.0
C2534 C 0.62799 0.91338 0.61574 0.0
C2535 C 0.63786 0.89364 0.6162 0.0
C2536 C 0.64131 0.88287 0.59722 0.0
C2537 C 0.63631 0.89237 0.57802 0.0
C2538 C 0.67965 0.87822 0.6551 0.0
C2539 C 0.66893 0.88023 0.67427 0.0
C2540 C 0.66905 0.88105 0.63613 0.0
C2541 C 0.64759 0.88624 0.63599 0.0
C2542 C 0.63659 0.88722 0.65513 0.0
C2543 C 0.64717 0.88404 0.67417 0.0
loop_
_geom_bond_atom_site_label_1
_geom_bond_atom_site_label_2
_geom_bond_distance
_geom_bond_site_symmetry_2
_ccdc_geom_bond_type
In0 O1 2.294 . S
In0 O2 2.326 . S
In0 O6 2.266 . S
In0 O7 2.326 . S
In0 O8 2.266 . S
In0 O9 2.326 . S
In0 O11 2.294 . S
In0 O12 2.326 . S
O1 In0 2.294 . S
O1 C10 1.240 . S
O2 In0 2.326 . S
O2 C10 1.252 . S
C3 O6 1.252 . S
C3 O7 1.260 . S
C4 O11 1.240 . S
C4 O12 1.252 . S
C5 O8 1.252 . S
C5 O9 1.260 . S
O6 In0 2.266 . S
O6 C3 1.252 . S
O7 In0 2.326 . S
O7 C3 1.260 . S
O8 In0 2.266 . S
O8 C5 1.252 . S
O9 In0 2.326 . S
O9 C5 1.260 . S
C10 O1 1.240 . S
C10 O2 1.252 . S
O11 In0 2.294 . S
O11 C4 1.240 . S
O12 In0 2.326 . S
O12 C4 1.252 . S
In13 O14 2.294 . S
In13 O15 2.326 . S
In13 O19 2.266 . S
In13 O20 2.326 1_565 S
In13 O21 2.266 1_455 S
In13 O22 2.326 . S
In13 O24 2.294 . S
In13 O25 2.326 . S
O14 In13 2.294 . S
O14 C23 1.240 . S
O15 In13 2.326 . S
O15 C23 1.252 . S
C16 O19 1.252 1_545 S
C16 O20 1.260 . S
C17 O24 1.240 . S
C17 O25 1.252 . S
C18 O21 1.252 1_455 S
C18 O22 1.260 . S
O19 In13 2.266 . S
O19 C16 1.252 1_565 S
O20 In13 2.326 1_545 S
O20 C16 1.260 . S
O21 In13 2.266 1_655 S
O21 C18 1.252 1_655 S
O22 In13 2.326 . S
O22 C18 1.260 . S
C23 O14 1.240 . S
C23 O15 1.252 . S
O24 In13 2.294 . S
O24 C17 1.240 . S
O25 In13 2.326 . S
O25 C17 1.252 . S
In26 O27 2.294 . S
In26 O28 2.326 . S
In26 O32 2.266 . S
In26 O33 2.326 . S
In26 O34 2.266 . S
In26 O35 2.326 . S
In26 O37 2.294 . S
In26 O38 2.326 . S
O27 In26 2.294 . S
O27 C36 1.240 . S
O28 In26 2.326 . S
O28 C36 1.252 . S
C29 O32 1.252 . S
C29 O33 1.260 . S
C30 O37 1.240 . S
C30 O38 1.252 . S
C31 O34 1.252 . S
C31 O35 1.260 . S
O32 In26 2.266 . S
O32 C29 1.252 . S
O33 In26 2.326 . S
O33 C29 1.260 . S
O34 In26 2.266 . S
O34 C31 1.252 . S
O35 In26 2.326 . S
O35 C31 1.260 . S
C36 O27 1.240 . S
C36 O28 1.252 . S
O37 In26 2.294 . S
O37 C30 1.240 . S
O38 In26 2.326 . S
O38 C30 1.252 . S
In39 O40 2.294 . S
In39 O41 2.326 . S
In39 O45 2.266 . S
In39 O46 2.326 1_545 S
In39 O47 2.266 . S
In39 O48 2.326 . S
In39 O50 2.294 . S
In39 O51 2.326 . S
O40 In39 2.294 . S
O40 C49 1.240 . S
O41 In39 2.326 . S
O41 C49 1.252 . S
C42 O45 1.252 1_565 S
C42 O46 1.260 . S
C43 O50 1.240 . S
C43 O51 1.252 . S
C44 O47 1.252 . S
C44 O48 1.260 . S
O45 In39 2.266 . S
O45 C42 1.252 1_545 S
O46 In39 2.326 1_565 S
O46 C42 1.260 . S
O47 In39 2.266 . S
O47 C44 1.252 . S
O48 In39 2.326 . S
O48 C44 1.260 . S
C49 O40 1.240 . S
C49 O41 1.252 . S
O50 In39 2.294 . S
O50 C43 1.240 . S
O51 In39 2.326 . S
O51 C43 1.252 . S
In52 O53 2.294 . S
In52 O54 2.326 . S
In52 O58 2.266 . S
In52 O59 2.326 . S
In52 O60 2.266 . S
In52 O61 2.326 . S
In52 O63 2.294 . S
In52 O64 2.326 . S
O53 In52 2.294 . S
O53 C62 1.240 . S
O54 In52 2.326 . S
O54 C62 1.252 . S
C55 O58 1.252 . S
C55 O59 1.260 . S
C56 O63 1.240 . S
C56 O64 1.252 . S
C57 O60 1.252 . S
C57 O61 1.260 . S
O58 In52 2.266 . S
O58 C55 1.252 . S
O59 In52 2.326 . S
O59 C55 1.260 . S
O60 In52 2.266 . S
O60 C57 1.252 . S
O61 In52 2.326 . S
O61 C57 1.260 . S
C62 O53 1.240 . S
C62 O54 1.252 . S
O63 In52 2.294 . S
O63 C56 1.240 . S
O64 In52 2.326 . S
O64 C56 1.252 . S
In65 O66 2.294 . S
In65 O67 2.326 . S
In65 O71 2.266 . S
In65 O72 2.326 1_565 S
In65 O73 2.266 . S
In65 O74 2.326 . S
In65 O76 2.294 . S
In65 O77 2.326 . S
O66 In65 2.294 . S
O66 C75 1.240 . S
O67 In65 2.326 . S
O67 C75 1.252 . S
C68 O71 1.252 1_545 S
C68 O72 1.260 . S
C69 O76 1.240 . S
C69 O77 1.252 . S
C70 O73 1.252 . S
C70 O74 1.260 . S
O71 In65 2.266 . S
O71 C68 1.252 1_565 S
O72 In65 2.326 1_545 S
O72 C68 1.260 . S
O73 In65 2.266 . S
O73 C70 1.252 . S
O74 In65 2.326 . S
O74 C70 1.260 . S
C75 O66 1.240 . S
C75 O67 1.252 . S
O76 In65 2.294 . S
O76 C69 1.240 . S
O77 In65 2.326 . S
O77 C69 1.252 . S
In78 O79 2.294 . S
In78 O80 2.326 . S
In78 O84 2.266 . S
In78 O85 2.326 . S
In78 O86 2.266 . S
In78 O87 2.326 . S
In78 O89 2.294 . S
In78 O90 2.326 . S
O79 In78 2.294 . S
O79 C88 1.240 . S
O80 In78 2.326 . S
O80 C88 1.252 . S
C81 O84 1.252 . S
C81 O85 1.260 . S
C82 O89 1.240 . S
C82 O90 1.252 . S
C83 O86 1.252 . S
C83 O87 1.260 . S
O84 In78 2.266 . S
O84 C81 1.252 . S
O85 In78 2.326 . S
O85 C81 1.260 . S
O86 In78 2.266 . S
O86 C83 1.252 . S
O87 In78 2.326 . S
O87 C83 1.260 . S
C88 O79 1.240 . S
C88 O80 1.252 . S
O89 In78 2.294 . S
O89 C82 1.240 . S
O90 In78 2.326 . S
O90 C82 1.252 . S
In91 O92 2.294 . S
In91 O93 2.326 . S
In91 O97 2.266 1_455 S
In91 O98 2.326 . S
In91 O99 2.266 . S
In91 O100 2.326 1_545 S
In91 O102 2.294 . S
In91 O103 2.326 . S
O92 In91 2.294 . S
O92 C101 1.240 . S
O93 In91 2.326 . S
O93 C101 1.252 . S
C94 O97 1.252 1_455 S
C94 O98 1.260 . S
C95 O102 1.240 . S
C95 O103 1.252 . S
C96 O99 1.252 1_565 S
C96 O100 1.260 . S
O97 In91 2.266 1_655 S
O97 C94 1.252 1_655 S
O98 In91 2.326 . S
O98 C94 1.260 . S
O99 In91 2.266 . S
O99 C96 1.252 1_545 S
O100 In91 2.326 1_565 S
O100 C96 1.260 . S
C101 O92 1.240 . S
C101 O93 1.252 . S
O102 In91 2.294 . S
O102 C95 1.240 . S
O103 In91 2.326 . S
O103 C95 1.252 . S
In104 O105 2.294 . S
In104 O106 2.326 . S
In104 O110 2.266 . S
In104 O111 2.326 . S
In104 O112 2.266 . S
In104 O113 2.326 . S
In104 O115 2.294 . S
In104 O116 2.326 . S
O105 In104 2.294 . S
O105 C114 1.240 . S
O106 In104 2.326 . S
O106 C114 1.252 . S
C107 O110 1.252 . S
C107 O111 1.260 . S
C108 O115 1.240 . S
C108 O116 1.252 . S
C109 O112 1.252 . S
C109 O113 1.260 . S
O110 In104 2.266 . S
O110 C107 1.252 . S
O111 In104 2.326 . S
O111 C107 1.260 . S
O112 In104 2.266 . S
O112 C109 1.252 . S
O113 In104 2.326 . S
O113 C109 1.260 . S
C114 O105 1.240 . S
C114 O106 1.252 . S
O115 In104 2.294 . S
O115 C108 1.240 . S
O116 In104 2.326 . S
O116 C108 1.252 . S
In117 O118 2.294 . S
In117 O119 2.326 . S
In117 O123 2.266 . S
In117 O124 2.326 . S
In117 O125 2.266 . S
In117 O126 2.326 1_455 S
In117 O128 2.294 . S
In117 O129 2.326 . S
O118 In117 2.294 . S
O118 C127 1.240 . S
O119 In117 2.326 . S
O119 C127 1.252 . S
C120 O123 1.252 . S
C120 O124 1.260 . S
C121 O128 1.240 . S
C121 O129 1.252 . S
C122 O125 1.252 1_655 S
C122 O126 1.260 . S
O123 In117 2.266 . S
O123 C120 1.252 . S
O124 In117 2.326 . S
O124 C120 1.260 . S
O125 In117 2.266 . S
O125 C122 1.252 1_455 S
O126 In117 2.326 1_655 S
O126 C122 1.260 . S
C127 O118 1.240 . S
C127 O119 1.252 . S
O128 In117 2.294 . S
O128 C121 1.240 . S
O129 In117 2.326 . S
O129 C121 1.252 . S
In130 O131 2.294 . S
In130 O132 2.326 . S
In130 O136 2.266 . S
In130 O137 2.326 . S
In130 O138 2.266 . S
In130 O139 2.326 . S
In130 O141 2.294 . S
In130 O142 2.326 . S
O131 In130 2.294 . S
O131 C140 1.240 . S
O132 In130 2.326 . S
O132 C140 1.252 . S
C133 O136 1.252 . S
C133 O137 1.260 . S
C134 O141 1.240 . S
C134 O142 1.252 . S
C135 O138 1.252 . S
C135 O139 1.260 . S
O136 In130 2.266 . S
O136 C133 1.252 . S
O137 In130 2.326 . S
O137 C133 1.260 . S
O138 In130 2.266 . S
O138 C135 1.252 . S
O139 In130 2.326 . S
O139 C135 1.260 . S
C140 O131 1.240 . S
C140 O132 1.252 . S
O141 In130 2.294 . S
O141 C134 1.240 . S
O142 In130 2.326 . S
O142 C134 1.252 . S
In143 O144 2.294 . S
In143 O145 2.326 . S
In143 O149 2.266 . S
In143 O150 2.326 . S
In143 O151 2.266 1_556 S
In143 O152 2.326 . S
In143 O154 2.294 . S
In143 O155 2.326 . S
O144 In143 2.294 . S
O144 C153 1.240 . S
O145 In143 2.326 . S
O145 C153 1.252 . S
C146 O149 1.252 . S
C146 O150 1.260 . S
C147 O154 1.240 . S
C147 O155 1.252 . S
C148 O151 1.252 1_556 S
C148 O152 1.260 . S
O149 In143 2.266 . S
O149 C146 1.252 . S
O150 In143 2.326 . S
O150 C146 1.260 . S
O151 In143 2.266 1_554 S
O151 C148 1.252 1_554 S
O152 In143 2.326 . S
O152 C148 1.260 . S
C153 O144 1.240 . S
C153 O145 1.252 . S
O154 In143 2.294 . S
O154 C147 1.240 . S
O155 In143 2.326 . S
O155 C147 1.252 . S
In156 O157 2.294 . S
In156 O158 2.326 . S
In156 O162 2.266 . S
In156 O163 2.326 . S
In156 O164 2.266 . S
In156 O165 2.326 . S
In156 O167 2.294 . S
In156 O168 2.326 . S
O157 In156 2.294 . S
O157 C166 1.240 . S
O158 In156 2.326 . S
O158 C166 1.252 . S
C159 O162 1.252 . S
C159 O163 1.260 . S
C160 O167 1.240 . S
C160 O168 1.252 . S
C161 O164 1.252 . S
C161 O165 1.260 . S
O162 In156 2.266 . S
O162 C159 1.252 . S
O163 In156 2.326 . S
O163 C159 1.260 . S
O164 In156 2.266 . S
O164 C161 1.252 . S
O165 In156 2.326 . S
O165 C161 1.260 . S
C166 O157 1.240 . S
C166 O158 1.252 . S
O167 In156 2.294 . S
O167 C160 1.240 . S
O168 In156 2.326 . S
O168 C160 1.252 . S
In169 O170 2.294 . S
In169 O171 2.326 . S
In169 O175 2.266 . S
In169 O176 2.326 . S
In169 O177 2.266 . S
In169 O178 2.326 . S
In169 O180 2.294 . S
In169 O181 2.326 . S
O170 In169 2.294 . S
O170 C179 1.240 . S
O171 In169 2.326 . S
O171 C179 1.252 . S
C172 O175 1.252 . S
C172 O176 1.260 . S
C173 O180 1.240 . S
C173 O181 1.252 . S
C174 O177 1.252 . S
C174 O178 1.260 . S
O175 In169 2.266 . S
O175 C172 1.252 . S
O176 In169 2.326 . S
O176 C172 1.260 . S
O177 In169 2.266 . S
O177 C174 1.252 . S
O178 In169 2.326 . S
O178 C174 1.260 . S
C179 O170 1.240 . S
C179 O171 1.252 . S
O180 In169 2.294 . S
O180 C173 1.240 . S
O181 In169 2.326 . S
O181 C173 1.252 . S
In182 O183 2.294 . S
In182 O184 2.326 . S
In182 O188 2.266 . S
In182 O189 2.326 . S
In182 O190 2.266 . S
In182 O191 2.326 . S
In182 O193 2.294 . S
In182 O194 2.326 . S
O183 In182 2.294 . S
O183 C192 1.240 . S
O184 In182 2.326 . S
O184 C192 1.252 . S
C185 O188 1.252 . S
C185 O189 1.260 . S
C186 O193 1.240 . S
C186 O194 1.252 . S
C187 O190 1.252 . S
C187 O191 1.260 . S
O188 In182 2.266 . S
O188 C185 1.252 . S
O189 In182 2.326 . S
O189 C185 1.260 . S
O190 In182 2.266 . S
O190 C187 1.252 . S
O191 In182 2.326 . S
O191 C187 1.260 . S
C192 O183 1.240 . S
C192 O184 1.252 . S
O193 In182 2.294 . S
O193 C186 1.240 . S
O194 In182 2.326 . S
O194 C186 1.252 . S
In195 O196 2.294 . S
In195 O197 2.326 . S
In195 O201 2.266 . S
In195 O202 2.326 1_455 S
In195 O203 2.266 1_554 S
In195 O204 2.326 . S
In195 O206 2.294 . S
In195 O207 2.326 . S
O196 In195 2.294 . S
O196 C205 1.240 . S
O197 In195 2.326 . S
O197 C205 1.252 . S
C198 O201 1.252 1_655 S
C198 O202 1.260 . S
C199 O206 1.240 . S
C199 O207 1.252 . S
C200 O203 1.252 1_554 S
C200 O204 1.260 . S
O201 In195 2.266 . S
O201 C198 1.252 1_455 S
O202 In195 2.326 1_655 S
O202 C198 1.260 . S
O203 In195 2.266 1_556 S
O203 C200 1.252 1_556 S
O204 In195 2.326 . S
O204 C200 1.260 . S
C205 O196 1.240 . S
C205 O197 1.252 . S
O206 In195 2.294 . S
O206 C199 1.240 . S
O207 In195 2.326 . S
O207 C199 1.252 . S
In208 O209 2.294 . S
In208 O210 2.326 . S
In208 O214 2.266 . S
In208 O215 2.326 . S
In208 O216 2.266 . S
In208 O217 2.326 . S
In208 O219 2.294 . S
In208 O220 2.326 . S
O209 In208 2.294 . S
O209 C218 1.240 . S
O210 In208 2.326 . S
O210 C218 1.252 . S
C211 O214 1.252 . S
C211 O215 1.260 . S
C212 O219 1.240 . S
C212 O220 1.252 . S
C213 O216 1.252 . S
C213 O217 1.260 . S
O214 In208 2.266 . S
O214 C211 1.252 . S
O215 In208 2.326 . S
O215 C211 1.260 . S
O216 In208 2.266 . S
O216 C213 1.252 . S
O217 In208 2.326 . S
O217 C213 1.260 . S
C218 O209 1.240 . S
C218 O210 1.252 . S
O219 In208 2.294 . S
O219 C212 1.240 . S
O220 In208 2.326 . S
O220 C212 1.252 . S
In221 O222 2.294 . S
In221 O223 2.326 . S
In221 O227 2.266 . S
In221 O228 2.326 . S
In221 O229 2.266 . S
In221 O230 2.326 . S
In221 O232 2.294 . S
In221 O233 2.326 . S
O222 In221 2.294 . S
O222 C231 1.240 . S
O223 In221 2.326 . S
O223 C231 1.252 . S
C224 O227 1.252 . S
C224 O228 1.260 . S
C225 O232 1.240 . S
C225 O233 1.252 . S
C226 O229 1.252 . S
C226 O230 1.260 . S
O227 In221 2.266 . S
O227 C224 1.252 . S
O228 In221 2.326 . S
O228 C224 1.260 . S
O229 In221 2.266 . S
O229 C226 1.252 . S
O230 In221 2.326 . S
O230 C226 1.260 . S
C231 O222 1.240 . S
C231 O223 1.252 . S
O232 In221 2.294 . S
O232 C225 1.240 . S
O233 In221 2.326 . S
O233 C225 1.252 . S
In234 O235 2.294 . S
In234 O236 2.326 . S
In234 O240 2.266 . S
In234 O241 2.326 . S
In234 O242 2.266 . S
In234 O243 2.326 1_554 S
In234 O245 2.294 . S
In234 O246 2.326 . S
O235 In234 2.294 . S
O235 C244 1.240 . S
O236 In234 2.326 . S
O236 C244 1.252 . S
C237 O240 1.252 . S
C237 O241 1.260 . S
C238 O245 1.240 . S
C238 O246 1.252 . S
C239 O242 1.252 1_556 S
C239 O243 1.260 . S
O240 In234 2.266 . S
O240 C237 1.252 . S
O241 In234 2.326 . S
O241 C237 1.260 . S
O242 In234 2.266 . S
O242 C239 1.252 1_554 S
O243 In234 2.326 1_556 S
O243 C239 1.260 . S
C244 O235 1.240 . S
C244 O236 1.252 . S
O245 In234 2.294 . S
O245 C238 1.240 . S
O246 In234 2.326 . S
O246 C238 1.252 . S
In247 O248 2.294 . S
In247 O249 2.326 . S
In247 O253 2.266 . S
In247 O254 2.326 . S
In247 O255 2.266 . S
In247 O256 2.326 . S
In247 O258 2.294 . S
In247 O259 2.326 . S
O248 In247 2.294 . S
O248 C257 1.240 . S
O249 In247 2.326 . S
O249 C257 1.252 . S
C250 O253 1.252 . S
C250 O254 1.260 . S
C251 O258 1.240 . S
C251 O259 1.252 . S
C252 O255 1.252 . S
C252 O256 1.260 . S
O253 In247 2.266 . S
O253 C250 1.252 . S
O254 In247 2.326 . S
O254 C250 1.260 . S
O255 In247 2.266 . S
O255 C252 1.252 . S
O256 In247 2.326 . S
O256 C252 1.260 . S
C257 O248 1.240 . S
C257 O249 1.252 . S
O258 In247 2.294 . S
O258 C251 1.240 . S
O259 In247 2.326 . S
O259 C251 1.252 . S
In260 O261 2.294 . S
In260 O262 2.326 . S
In260 O266 2.266 1_545 S
In260 O267 2.326 . S
In260 O268 2.266 . S
In260 O269 2.326 1_554 S
In260 O271 2.294 . S
In260 O272 2.326 . S
O261 In260 2.294 . S
O261 C270 1.240 . S
O262 In260 2.326 . S
O262 C270 1.252 . S
C263 O266 1.252 1_545 S
C263 O267 1.260 . S
C264 O271 1.240 . S
C264 O272 1.252 . S
C265 O268 1.252 1_556 S
C265 O269 1.260 . S
O266 In260 2.266 1_565 S
O266 C263 1.252 1_565 S
O267 In260 2.326 . S
O267 C263 1.260 . S
O268 In260 2.266 . S
O268 C265 1.252 1_554 S
O269 In260 2.326 1_556 S
O269 C265 1.260 . S
C270 O261 1.240 . S
C270 O262 1.252 . S
O271 In260 2.294 . S
O271 C264 1.240 . S
O272 In260 2.326 . S
O272 C264 1.252 . S
In273 O274 2.294 . S
In273 O275 2.326 . S
In273 O279 2.266 . S
In273 O280 2.326 . S
In273 O281 2.266 . S
In273 O282 2.326 . S
In273 O284 2.294 . S
In273 O285 2.326 . S
O274 In273 2.294 . S
O274 C283 1.240 . S
O275 In273 2.326 . S
O275 C283 1.252 . S
C276 O279 1.252 . S
C276 O280 1.260 . S
C277 O284 1.240 . S
C277 O285 1.252 . S
C278 O281 1.252 . S
C278 O282 1.260 . S
O279 In273 2.266 . S
O279 C276 1.252 . S
O280 In273 2.326 . S
O280 C276 1.260 . S
O281 In273 2.266 . S
O281 C278 1.252 . S
O282 In273 2.326 . S
O282 C278 1.260 . S
C283 O274 1.240 . S
C283 O275 1.252 . S
O284 In273 2.294 . S
O284 C277 1.240 . S
O285 In273 2.326 . S
O285 C277 1.252 . S
In286 O287 2.294 . S
In286 O288 2.326 . S
In286 O292 2.266 . S
In286 O293 2.326 . S
In286 O294 2.266 . S
In286 O295 2.326 . S
In286 O297 2.294 . S
In286 O298 2.326 . S
O287 In286 2.294 . S
O287 C296 1.240 . S
O288 In286 2.326 . S
O288 C296 1.252 . S
C289 O292 1.252 . S
C289 O293 1.260 . S
C290 O297 1.240 . S
C290 O298 1.252 . S
C291 O294 1.252 . S
C291 O295 1.260 . S
O292 In286 2.266 . S
O292 C289 1.252 . S
O293 In286 2.326 . S
O293 C289 1.260 . S
O294 In286 2.266 . S
O294 C291 1.252 . S
O295 In286 2.326 . S
O295 C291 1.260 . S
C296 O287 1.240 . S
C296 O288 1.252 . S
O297 In286 2.294 . S
O297 C290 1.240 . S
O298 In286 2.326 . S
O298 C290 1.252 . S
In299 O300 2.294 . S
In299 O301 2.326 . S
In299 O305 2.266 . S
In299 O306 2.326 1_556 S
In299 O307 2.266 . S
In299 O308 2.326 . S
In299 O310 2.294 . S
In299 O311 2.326 . S
O300 In299 2.294 . S
O300 C309 1.240 . S
O301 In299 2.326 . S
O301 C309 1.252 . S
C302 O305 1.252 1_554 S
C302 O306 1.260 . S
C303 O310 1.240 . S
C303 O311 1.252 . S
C304 O307 1.252 . S
C304 O308 1.260 . S
O305 In299 2.266 . S
O305 C302 1.252 1_556 S
O306 In299 2.326 1_554 S
O306 C302 1.260 . S
O307 In299 2.266 . S
O307 C304 1.252 . S
O308 In299 2.326 . S
O308 C304 1.260 . S
C309 O300 1.240 . S
C309 O301 1.252 . S
O310 In299 2.294 . S
O310 C303 1.240 . S
O311 In299 2.326 . S
O311 C303 1.252 . S
In312 O313 2.294 . S
In312 O314 2.326 . S
In312 O318 2.266 . S
In312 O319 2.326 . S
In312 O320 2.266 . S
In312 O321 2.326 . S
In312 O323 2.294 . S
In312 O324 2.326 . S
O313 In312 2.294 . S
O313 C322 1.240 . S
O314 In312 2.326 . S
O314 C322 1.252 . S
C315 O318 1.252 . S
C315 O319 1.260 . S
C316 O323 1.240 . S
C316 O324 1.252 . S
C317 O320 1.252 . S
C317 O321 1.260 . S
O318 In312 2.266 . S
O318 C315 1.252 . S
O319 In312 2.326 . S
O319 C315 1.260 . S
O320 In312 2.266 . S
O320 C317 1.252 . S
O321 In312 2.326 . S
O321 C317 1.260 . S
C322 O313 1.240 . S
C322 O314 1.252 . S
O323 In312 2.294 . S
O323 C316 1.240 . S
O324 In312 2.326 . S
O324 C316 1.252 . S
In325 O326 2.294 . S
In325 O327 2.326 . S
In325 O331 2.266 . S
In325 O332 2.326 . S
In325 O333 2.266 . S
In325 O334 2.326 . S
In325 O336 2.294 . S
In325 O337 2.326 . S
O326 In325 2.294 . S
O326 C335 1.240 . S
O327 In325 2.326 . S
O327 C335 1.252 . S
C328 O331 1.252 . S
C328 O332 1.260 . S
C329 O336 1.240 . S
C329 O337 1.252 . S
C330 O333 1.252 . S
C330 O334 1.260 . S
O331 In325 2.266 . S
O331 C328 1.252 . S
O332 In325 2.326 . S
O332 C328 1.260 . S
O333 In325 2.266 . S
O333 C330 1.252 . S
O334 In325 2.326 . S
O334 C330 1.260 . S
C335 O326 1.240 . S
C335 O327 1.252 . S
O336 In325 2.294 . S
O336 C329 1.240 . S
O337 In325 2.326 . S
O337 C329 1.252 . S
In338 O339 2.294 . S
In338 O340 2.326 . S
In338 O344 2.266 . S
In338 O345 2.326 . S
In338 O346 2.266 . S
In338 O347 2.326 . S
In338 O349 2.294 . S
In338 O350 2.326 . S
O339 In338 2.294 . S
O339 C348 1.240 . S
O340 In338 2.326 . S
O340 C348 1.252 . S
C341 O344 1.252 . S
C341 O345 1.260 . S
C342 O349 1.240 . S
C342 O350 1.252 . S
C343 O346 1.252 . S
C343 O347 1.260 . S
O344 In338 2.266 . S
O344 C341 1.252 . S
O345 In338 2.326 . S
O345 C341 1.260 . S
O346 In338 2.266 . S
O346 C343 1.252 . S
O347 In338 2.326 . S
O347 C343 1.260 . S
C348 O339 1.240 . S
C348 O340 1.252 . S
O349 In338 2.294 . S
O349 C342 1.240 . S
O350 In338 2.326 . S
O350 C342 1.252 . S
In351 O352 2.294 . S
In351 O353 2.326 . S
In351 O357 2.266 . S
In351 O358 2.326 . S
In351 O359 2.266 1_655 S
In351 O360 2.326 . S
In351 O362 2.294 . S
In351 O363 2.326 . S
O352 In351 2.294 . S
O352 C361 1.240 . S
O353 In351 2.326 . S
O353 C361 1.252 . S
C354 O357 1.252 . S
C354 O358 1.260 . S
C355 O362 1.240 . S
C355 O363 1.252 . S
C356 O359 1.252 1_655 S
C356 O360 1.260 . S
O357 In351 2.266 . S
O357 C354 1.252 . S
O358 In351 2.326 . S
O358 C354 1.260 . S
O359 In351 2.266 1_455 S
O359 C356 1.252 1_455 S
O360 In351 2.326 . S
O360 C356 1.260 . S
C361 O352 1.240 . S
C361 O353 1.252 . S
O362 In351 2.294 . S
O362 C355 1.240 . S
O363 In351 2.326 . S
O363 C355 1.252 . S
In364 O365 2.294 . S
In364 O366 2.326 . S
In364 O370 2.266 . S
In364 O371 2.326 . S
In364 O372 2.266 . S
In364 O373 2.326 . S
In364 O375 2.294 . S
In364 O376 2.326 . S
O365 In364 2.294 . S
O365 C374 1.240 . S
O366 In364 2.326 . S
O366 C374 1.252 . S
C367 O370 1.252 . S
C367 O371 1.260 . S
C368 O375 1.240 . S
C368 O376 1.252 . S
C369 O372 1.252 . S
C369 O373 1.260 . S
O370 In364 2.266 . S
O370 C367 1.252 . S
O371 In364 2.326 . S
O371 C367 1.260 . S
O372 In364 2.266 . S
O372 C369 1.252 . S
O373 In364 2.326 . S
O373 C369 1.260 . S
C374 O365 1.240 . S
C374 O366 1.252 . S
O375 In364 2.294 . S
O375 C368 1.240 . S
O376 In364 2.326 . S
O376 C368 1.252 . S
In377 O378 2.294 . S
In377 O379 2.326 . S
In377 O383 2.266 . S
In377 O384 2.326 . S
In377 O385 2.266 1_655 S
In377 O386 2.326 . S
In377 O388 2.294 . S
In377 O389 2.326 . S
O378 In377 2.294 . S
O378 C387 1.240 . S
O379 In377 2.326 . S
O379 C387 1.252 . S
C380 O383 1.252 . S
C380 O384 1.260 . S
C381 O388 1.240 . S
C381 O389 1.252 . S
C382 O385 1.252 1_655 S
C382 O386 1.260 . S
O383 In377 2.266 . S
O383 C380 1.252 . S
O384 In377 2.326 . S
O384 C380 1.260 . S
O385 In377 2.266 1_455 S
O385 C382 1.252 1_455 S
O386 In377 2.326 . S
O386 C382 1.260 . S
C387 O378 1.240 . S
C387 O379 1.252 . S
O388 In377 2.294 . S
O388 C381 1.240 . S
O389 In377 2.326 . S
O389 C381 1.252 . S
In390 O391 2.294 . S
In390 O392 2.326 . S
In390 O396 2.266 . S
In390 O397 2.326 . S
In390 O398 2.266 . S
In390 O399 2.326 . S
In390 O401 2.294 . S
In390 O402 2.326 . S
O391 In390 2.294 . S
O391 C400 1.240 . S
O392 In390 2.326 . S
O392 C400 1.252 . S
C393 O396 1.252 . S
C393 O397 1.260 . S
C394 O401 1.240 . S
C394 O402 1.252 . S
C395 O398 1.252 . S
C395 O399 1.260 . S
O396 In390 2.266 . S
O396 C393 1.252 . S
O397 In390 2.326 . S
O397 C393 1.260 . S
O398 In390 2.266 . S
O398 C395 1.252 . S
O399 In390 2.326 . S
O399 C395 1.260 . S
C400 O391 1.240 . S
C400 O392 1.252 . S
O401 In390 2.294 . S
O401 C394 1.240 . S
O402 In390 2.326 . S
O402 C394 1.252 . S
In403 O404 2.294 . S
In403 O405 2.326 . S
In403 O409 2.266 . S
In403 O410 2.326 . S
In403 O411 2.266 . S
In403 O412 2.326 . S
In403 O414 2.294 . S
In403 O415 2.326 . S
O404 In403 2.294 . S
O404 C413 1.240 . S
O405 In403 2.326 . S
O405 C413 1.252 . S
C406 O409 1.252 . S
C406 O410 1.260 . S
C407 O414 1.240 . S
C407 O415 1.252 . S
C408 O411 1.252 . S
C408 O412 1.260 . S
O409 In403 2.266 . S
O409 C406 1.252 . S
O410 In403 2.326 . S
O410 C406 1.260 . S
O411 In403 2.266 . S
O411 C408 1.252 . S
O412 In403 2.326 . S
O412 C408 1.260 . S
C413 O404 1.240 . S
C413 O405 1.252 . S
O414 In403 2.294 . S
O414 C407 1.240 . S
O415 In403 2.326 . S
O415 C407 1.252 . S
In416 O417 2.294 . S
In416 O418 2.326 . S
In416 O422 2.266 . S
In416 O423 2.326 . S
In416 O424 2.266 . S
In416 O425 2.326 . S
In416 O427 2.294 . S
In416 O428 2.326 . S
O417 In416 2.294 . S
O417 C426 1.240 . S
O418 In416 2.326 . S
O418 C426 1.252 . S
C419 O422 1.252 . S
C419 O423 1.260 . S
C420 O427 1.240 . S
C420 O428 1.252 . S
C421 O424 1.252 . S
C421 O425 1.260 . S
O422 In416 2.266 . S
O422 C419 1.252 . S
O423 In416 2.326 . S
O423 C419 1.260 . S
O424 In416 2.266 . S
O424 C421 1.252 . S
O425 In416 2.326 . S
O425 C421 1.260 . S
C426 O417 1.240 . S
C426 O418 1.252 . S
O427 In416 2.294 . S
O427 C420 1.240 . S
O428 In416 2.326 . S
O428 C420 1.252 . S
In429 O430 2.294 . S
In429 O431 2.326 . S
In429 O435 2.266 . S
In429 O436 2.326 . S
In429 O437 2.266 1_556 S
In429 O438 2.326 . S
In429 O440 2.294 . S
In429 O441 2.326 . S
O430 In429 2.294 . S
O430 C439 1.240 . S
O431 In429 2.326 . S
O431 C439 1.252 . S
C432 O435 1.252 . S
C432 O436 1.260 . S
C433 O440 1.240 . S
C433 O441 1.252 . S
C434 O437 1.252 1_556 S
C434 O438 1.260 . S
O435 In429 2.266 . S
O435 C432 1.252 . S
O436 In429 2.326 . S
O436 C432 1.260 . S
O437 In429 2.266 1_554 S
O437 C434 1.252 1_554 S
O438 In429 2.326 . S
O438 C434 1.260 . S
C439 O430 1.240 . S
C439 O431 1.252 . S
O440 In429 2.294 . S
O440 C433 1.240 . S
O441 In429 2.326 . S
O441 C433 1.252 . S
In442 O443 2.294 . S
In442 O444 2.326 . S
In442 O448 2.266 . S
In442 O449 2.326 . S
In442 O450 2.266 . S
In442 O451 2.326 . S
In442 O453 2.294 . S
In442 O454 2.326 . S
O443 In442 2.294 . S
O443 C452 1.240 . S
O444 In442 2.326 . S
O444 C452 1.252 . S
C445 O448 1.252 . S
C445 O449 1.260 . S
C446 O453 1.240 . S
C446 O454 1.252 . S
C447 O450 1.252 . S
C447 O451 1.260 . S
O448 In442 2.266 . S
O448 C445 1.252 . S
O449 In442 2.326 . S
O449 C445 1.260 . S
O450 In442 2.266 . S
O450 C447 1.252 . S
O451 In442 2.326 . S
O451 C447 1.260 . S
C452 O443 1.240 . S
C452 O444 1.252 . S
O453 In442 2.294 . S
O453 C446 1.240 . S
O454 In442 2.326 . S
O454 C446 1.252 . S
In455 O456 2.294 . S
In455 O457 2.326 . S
In455 O461 2.266 . S
In455 O462 2.326 1_655 S
In455 O463 2.266 . S
In455 O464 2.326 . S
In455 O466 2.294 . S
In455 O467 2.326 . S
O456 In455 2.294 . S
O456 C465 1.240 . S
O457 In455 2.326 . S
O457 C465 1.252 . S
C458 O461 1.252 1_455 S
C458 O462 1.260 . S
C459 O466 1.240 . S
C459 O467 1.252 . S
C460 O463 1.252 . S
C460 O464 1.260 . S
O461 In455 2.266 . S
O461 C458 1.252 1_655 S
O462 In455 2.326 1_455 S
O462 C458 1.260 . S
O463 In455 2.266 . S
O463 C460 1.252 . S
O464 In455 2.326 . S
O464 C460 1.260 . S
C465 O456 1.240 . S
C465 O457 1.252 . S
O466 In455 2.294 . S
O466 C459 1.240 . S
O467 In455 2.326 . S
O467 C459 1.252 . S
In468 O469 2.294 . S
In468 O470 2.326 . S
In468 O474 2.266 . S
In468 O475 2.326 . S
In468 O476 2.266 . S
In468 O477 2.326 . S
In468 O479 2.294 . S
In468 O480 2.326 . S
O469 In468 2.294 . S
O469 C478 1.240 . S
O470 In468 2.326 . S
O470 C478 1.252 . S
C471 O474 1.252 . S
C471 O475 1.260 . S
C472 O479 1.240 . S
C472 O480 1.252 . S
C473 O476 1.252 . S
C473 O477 1.260 . S
O474 In468 2.266 . S
O474 C471 1.252 . S
O475 In468 2.326 . S
O475 C471 1.260 . S
O476 In468 2.266 . S
O476 C473 1.252 . S
O477 In468 2.326 . S
O477 C473 1.260 . S
C478 O469 1.240 . S
C478 O470 1.252 . S
O479 In468 2.294 . S
O479 C472 1.240 . S
O480 In468 2.326 . S
O480 C472 1.252 . S
In481 O482 2.294 . S
In481 O483 2.326 . S
In481 O487 2.266 . S
In481 O488 2.326 1_655 S
In481 O489 2.266 1_554 S
In481 O490 2.326 . S
In481 O492 2.294 . S
In481 O493 2.326 . S
O482 In481 2.294 . S
O482 C491 1.240 . S
O483 In481 2.326 . S
O483 C491 1.252 . S
C484 O487 1.252 1_455 S
C484 O488 1.260 . S
C485 O492 1.240 . S
C485 O493 1.252 . S
C486 O489 1.252 1_554 S
C486 O490 1.260 . S
O487 In481 2.266 . S
O487 C484 1.252 1_655 S
O488 In481 2.326 1_455 S
O488 C484 1.260 . S
O489 In481 2.266 1_556 S
O489 C486 1.252 1_556 S
O490 In481 2.326 . S
O490 C486 1.260 . S
C491 O482 1.240 . S
C491 O483 1.252 . S
O492 In481 2.294 . S
O492 C485 1.240 . S
O493 In481 2.326 . S
O493 C485 1.252 . S
In494 O495 2.294 . S
In494 O496 2.326 . S
In494 O500 2.266 . S
In494 O501 2.326 . S
In494 O502 2.266 . S
In494 O503 2.326 . S
In494 O505 2.294 . S
In494 O506 2.326 . S
O495 In494 2.294 . S
O495 C504 1.240 . S
O496 In494 2.326 . S
O496 C504 1.252 . S
C497 O500 1.252 . S
C497 O501 1.260 . S
C498 O505 1.240 . S
C498 O506 1.252 . S
C499 O502 1.252 . S
C499 O503 1.260 . S
O500 In494 2.266 . S
O500 C497 1.252 . S
O501 In494 2.326 . S
O501 C497 1.260 . S
O502 In494 2.266 . S
O502 C499 1.252 . S
O503 In494 2.326 . S
O503 C499 1.260 . S
C504 O495 1.240 . S
C504 O496 1.252 . S
O505 In494 2.294 . S
O505 C498 1.240 . S
O506 In494 2.326 . S
O506 C498 1.252 . S
In507 O508 2.294 . S
In507 O509 2.326 . S
In507 O513 2.266 . S
In507 O514 2.326 . S
In507 O515 2.266 . S
In507 O516 2.326 . S
In507 O518 2.294 . S
In507 O519 2.326 . S
O508 In507 2.294 . S
O508 C517 1.240 . S
O509 In507 2.326 . S
O509 C517 1.252 . S
C510 O513 1.252 . S
C510 O514 1.260 . S
C511 O518 1.240 . S
C511 O519 1.252 . S
C512 O515 1.252 . S
C512 O516 1.260 . S
O513 In507 2.266 . S
O513 C510 1.252 . S
O514 In507 2.326 . S
O514 C510 1.260 . S
O515 In507 2.266 . S
O515 C512 1.252 . S
O516 In507 2.326 . S
O516 C512 1.260 . S
C517 O508 1.240 . S
C517 O509 1.252 . S
O518 In507 2.294 . S
O518 C511 1.240 . S
O519 In507 2.326 . S
O519 C511 1.252 . S
In520 O521 2.294 . S
In520 O522 2.326 . S
In520 O526 2.266 . S
In520 O527 2.326 . S
In520 O528 2.266 . S
In520 O529 2.326 . S
In520 O531 2.294 . S
In520 O532 2.326 . S
O521 In520 2.294 . S
O521 C530 1.240 . S
O522 In520 2.326 . S
O522 C530 1.252 . S
C523 O526 1.252 . S
C523 O527 1.260 . S
C524 O531 1.240 . S
C524 O532 1.252 . S
C525 O528 1.252 . S
C525 O529 1.260 . S
O526 In520 2.266 . S
O526 C523 1.252 . S
O527 In520 2.326 . S
O527 C523 1.260 . S
O528 In520 2.266 . S
O528 C525 1.252 . S
O529 In520 2.326 . S
O529 C525 1.260 . S
C530 O521 1.240 . S
C530 O522 1.252 . S
O531 In520 2.294 . S
O531 C524 1.240 . S
O532 In520 2.326 . S
O532 C524 1.252 . S
In533 O534 2.294 . S
In533 O535 2.326 . S
In533 O539 2.266 . S
In533 O540 2.326 . S
In533 O541 2.266 . S
In533 O542 2.326 . S
In533 O544 2.294 . S
In533 O545 2.326 . S
O534 In533 2.294 . S
O534 C543 1.240 . S
O535 In533 2.326 . S
O535 C543 1.252 . S
C536 O539 1.252 . S
C536 O540 1.260 . S
C537 O544 1.240 . S
C537 O545 1.252 . S
C538 O541 1.252 . S
C538 O542 1.260 . S
O539 In533 2.266 . S
O539 C536 1.252 . S
O540 In533 2.326 . S
O540 C536 1.260 . S
O541 In533 2.266 . S
O541 C538 1.252 . S
O542 In533 2.326 . S
O542 C538 1.260 . S
C543 O534 1.240 . S
C543 O535 1.252 . S
O544 In533 2.294 . S
O544 C537 1.240 . S
O545 In533 2.326 . S
O545 C537 1.252 . S
In546 O547 2.294 . S
In546 O548 2.326 . S
In546 O552 2.266 1_565 S
In546 O553 2.326 . S
In546 O554 2.266 . S
In546 O555 2.326 . S
In546 O557 2.294 . S
In546 O558 2.326 . S
O547 In546 2.294 . S
O547 C556 1.240 . S
O548 In546 2.326 . S
O548 C556 1.252 . S
C549 O552 1.252 1_565 S
C549 O553 1.260 . S
C550 O557 1.240 . S
C550 O558 1.252 . S
C551 O554 1.252 . S
C551 O555 1.260 . S
O552 In546 2.266 1_545 S
O552 C549 1.252 1_545 S
O553 In546 2.326 . S
O553 C549 1.260 . S
O554 In546 2.266 . S
O554 C551 1.252 . S
O555 In546 2.326 . S
O555 C551 1.260 . S
C556 O547 1.240 . S
C556 O548 1.252 . S
O557 In546 2.294 . S
O557 C550 1.240 . S
O558 In546 2.326 . S
O558 C550 1.252 . S
In559 O560 2.294 . S
In559 O561 2.326 . S
In559 O565 2.266 . S
In559 O566 2.326 . S
In559 O567 2.266 . S
In559 O568 2.326 . S
In559 O570 2.294 . S
In559 O571 2.326 . S
O560 In559 2.294 . S
O560 C569 1.240 . S
O561 In559 2.326 . S
O561 C569 1.252 . S
C562 O565 1.252 . S
C562 O566 1.260 . S
C563 O570 1.240 . S
C563 O571 1.252 . S
C564 O567 1.252 . S
C564 O568 1.260 . S
O565 In559 2.266 . S
O565 C562 1.252 . S
O566 In559 2.326 . S
O566 C562 1.260 . S
O567 In559 2.266 . S
O567 C564 1.252 . S
O568 In559 2.326 . S
O568 C564 1.260 . S
C569 O560 1.240 . S
C569 O561 1.252 . S
O570 In559 2.294 . S
O570 C563 1.240 . S
O571 In559 2.326 . S
O571 C563 1.252 . S
In572 O573 2.294 . S
In572 O574 2.326 . S
In572 O578 2.266 . S
In572 O579 2.326 . S
In572 O580 2.266 . S
In572 O581 2.326 . S
In572 O583 2.294 . S
In572 O584 2.326 . S
O573 In572 2.294 . S
O573 C582 1.240 . S
O574 In572 2.326 . S
O574 C582 1.252 . S
C575 O578 1.252 . S
C575 O579 1.260 . S
C576 O583 1.240 . S
C576 O584 1.252 . S
C577 O580 1.252 . S
C577 O581 1.260 . S
O578 In572 2.266 . S
O578 C575 1.252 . S
O579 In572 2.326 . S
O579 C575 1.260 . S
O580 In572 2.266 . S
O580 C577 1.252 . S
O581 In572 2.326 . S
O581 C577 1.260 . S
C582 O573 1.240 . S
C582 O574 1.252 . S
O583 In572 2.294 . S
O583 C576 1.240 . S
O584 In572 2.326 . S
O584 C576 1.252 . S
In585 O586 2.294 . S
In585 O587 2.326 . S
In585 O591 2.266 . S
In585 O592 2.326 . S
In585 O593 2.266 . S
In585 O594 2.326 . S
In585 O596 2.294 . S
In585 O597 2.326 . S
O586 In585 2.294 . S
O586 C595 1.240 . S
O587 In585 2.326 . S
O587 C595 1.252 . S
C588 O591 1.252 . S
C588 O592 1.260 . S
C589 O596 1.240 . S
C589 O597 1.252 . S
C590 O593 1.252 . S
C590 O594 1.260 . S
O591 In585 2.266 . S
O591 C588 1.252 . S
O592 In585 2.326 . S
O592 C588 1.260 . S
O593 In585 2.266 . S
O593 C590 1.252 . S
O594 In585 2.326 . S
O594 C590 1.260 . S
C595 O586 1.240 . S
C595 O587 1.252 . S
O596 In585 2.294 . S
O596 C589 1.240 . S
O597 In585 2.326 . S
O597 C589 1.252 . S
In598 O599 2.294 . S
In598 O600 2.326 . S
In598 O604 2.266 . S
In598 O605 2.326 1_556 S
In598 O606 2.266 1_545 S
In598 O607 2.326 . S
In598 O609 2.294 . S
In598 O610 2.326 . S
O599 In598 2.294 . S
O599 C608 1.240 . S
O600 In598 2.326 . S
O600 C608 1.252 . S
C601 O604 1.252 1_554 S
C601 O605 1.260 . S
C602 O609 1.240 . S
C602 O610 1.252 . S
C603 O606 1.252 1_545 S
C603 O607 1.260 . S
O604 In598 2.266 . S
O604 C601 1.252 1_556 S
O605 In598 2.326 1_554 S
O605 C601 1.260 . S
O606 In598 2.266 1_565 S
O606 C603 1.252 1_565 S
O607 In598 2.326 . S
O607 C603 1.260 . S
C608 O599 1.240 . S
C608 O600 1.252 . S
O609 In598 2.294 . S
O609 C602 1.240 . S
O610 In598 2.326 . S
O610 C602 1.252 . S
In611 O612 2.294 . S
In611 O613 2.326 . S
In611 O617 2.266 . S
In611 O618 2.326 . S
In611 O619 2.266 1_565 S
In611 O620 2.326 . S
In611 O622 2.294 . S
In611 O623 2.326 . S
O612 In611 2.294 . S
O612 C621 1.240 . S
O613 In611 2.326 . S
O613 C621 1.252 . S
C614 O617 1.252 . S
C614 O618 1.260 . S
C615 O622 1.240 . S
C615 O623 1.252 . S
C616 O619 1.252 1_565 S
C616 O620 1.260 . S
O617 In611 2.266 . S
O617 C614 1.252 . S
O618 In611 2.326 . S
O618 C614 1.260 . S
O619 In611 2.266 1_545 S
O619 C616 1.252 1_545 S
O620 In611 2.326 . S
O620 C616 1.260 . S
C621 O612 1.240 . S
C621 O613 1.252 . S
O622 In611 2.294 . S
O622 C615 1.240 . S
O623 In611 2.326 . S
O623 C615 1.252 . S
H624 C632 0.950 . S
H625 C637 0.950 . S
H626 C634 0.950 . S
H627 C636 0.950 . S
H628 C638 0.950 . S
H629 C640 0.950 . S
H630 C642 0.950 . S
H631 C643 0.950 . S
C632 H624 0.950 . S
C632 C633 1.386 . S
C632 C634 1.391 . S
C633 C632 1.386 . S
C633 C637 1.393 . S
C634 H626 0.950 . S
C634 C632 1.391 . S
C634 C635 1.400 . S
C635 C634 1.400 . S
C635 C636 1.398 . S
C635 C641 1.491 . S
C636 H627 0.950 . S
C636 C635 1.398 . S
C636 C637 1.391 . S
C637 H625 0.950 . S
C637 C633 1.393 . S
C637 C636 1.391 . S
C638 H628 0.950 . S
C638 C639 1.386 . S
C638 C640 1.391 . S
C639 C638 1.386 . S
C639 C643 1.393 . S
C640 H629 0.950 . S
C640 C638 1.391 . S
C640 C641 1.400 . S
C641 C635 1.491 . S
C641 C640 1.400 . S
C641 C642 1.398 . S
C642 H630 0.950 . S
C642 C641 1.398 . S
C642 C643 1.391 . S
C643 H631 0.950 . S
C643 C639 1.393 . S
C643 C642 1.391 . S
H644 C652 0.950 . S
H645 C657 0.946 1_545 S
H646 C654 0.950 . S
H647 C656 0.950 . S
H648 C658 0.950 . S
H649 C660 0.950 . S
H650 C662 0.950 . S
H651 C663 0.946 1_565 S
C652 H644 0.950 . S
C652 C653 1.386 . S
C652 C654 1.391 . S
C653 C652 1.386 . S
C653 C657 1.400 . S
C654 H646 0.950 . S
C654 C652 1.391 . S
C654 C655 1.400 . S
C655 C654 1.400 . S
C655 C656 1.398 1_565 S
C655 C661 1.491 1_565 S
C656 H647 0.950 . S
C656 C655 1.398 1_545 S
C656 C657 1.388 1_545 S
C657 H645 0.946 1_565 S
C657 C653 1.400 . S
C657 C656 1.388 1_565 S
C658 H648 0.950 . S
C658 C659 1.386 . S
C658 C660 1.391 . S
C659 C658 1.386 . S
C659 C663 1.400 . S
C660 H649 0.950 . S
C660 C658 1.391 . S
C660 C661 1.400 . S
C661 C655 1.491 1_545 S
C661 C660 1.400 . S
C661 C662 1.398 1_545 S
C662 H650 0.950 . S
C662 C661 1.398 1_565 S
C662 C663 1.388 1_565 S
C663 H651 0.946 1_545 S
C663 C659 1.400 . S
C663 C662 1.388 1_545 S
H664 C672 0.950 . S
H665 C677 0.950 . S
H666 C674 0.950 . S
H667 C676 0.950 . S
H668 C678 0.950 . S
H669 C680 0.950 . S
H670 C682 0.950 . S
H671 C683 0.950 . S
C672 H664 0.950 . S
C672 C673 1.386 . S
C672 C674 1.391 . S
C673 C672 1.386 . S
C673 C677 1.393 . S
C674 H666 0.950 . S
C674 C672 1.391 . S
C674 C675 1.400 . S
C675 C674 1.400 . S
C675 C676 1.398 . S
C675 C681 1.491 1_556 S
C676 H667 0.950 . S
C676 C675 1.398 . S
C676 C677 1.391 . S
C677 H665 0.950 . S
C677 C673 1.393 . S
C677 C676 1.391 . S
C678 H668 0.950 . S
C678 C679 1.386 . S
C678 C680 1.391 . S
C679 C678 1.386 . S
C679 C683 1.393 . S
C680 H669 0.950 . S
C680 C678 1.391 . S
C680 C681 1.400 . S
C681 C675 1.491 1_554 S
C681 C680 1.400 . S
C681 C682 1.398 . S
C682 H670 0.950 . S
C682 C681 1.398 . S
C682 C683 1.391 . S
C683 H671 0.950 . S
C683 C679 1.393 . S
C683 C682 1.391 . S
H684 C692 0.950 1_545 S
H685 C697 0.950 . S
H686 C694 0.950 . S
H687 C696 0.950 . S
H688 C698 0.950 1_565 S
H689 C700 0.950 . S
H690 C702 0.950 . S
H691 C703 0.950 . S
C692 H684 0.950 1_565 S
C692 C693 1.386 . S
C692 C694 1.391 1_565 S
C693 C692 1.386 . S
C693 C697 1.393 . S
C694 H686 0.950 . S
C694 C692 1.391 1_545 S
C694 C695 1.400 1_545 S
C695 C694 1.400 1_565 S
C695 C696 1.398 . S
C695 C701 1.491 1_565 S
C696 H687 0.950 . S
C696 C695 1.398 . S
C696 C697 1.391 . S
C697 H685 0.950 . S
C697 C693 1.393 . S
C697 C696 1.391 . S
C698 H688 0.950 1_545 S
C698 C699 1.386 . S
C698 C700 1.391 1_545 S
C699 C698 1.386 . S
C699 C703 1.393 . S
C700 H689 0.950 . S
C700 C698 1.391 1_565 S
C700 C701 1.400 1_565 S
C701 C695 1.491 1_545 S
C701 C700 1.400 1_545 S
C701 C702 1.398 . S
C702 H690 0.950 . S
C702 C701 1.398 . S
C702 C703 1.391 . S
C703 H691 0.950 . S
C703 C699 1.393 . S
C703 C702 1.391 . S
H704 C712 0.950 . S
H705 C717 0.950 . S
H706 C714 0.950 . S
H707 C716 0.950 . S
H708 C718 0.950 . S
H709 C720 0.950 . S
H710 C722 0.950 . S
H711 C723 0.950 . S
C712 H704 0.950 . S
C712 C713 1.386 . S
C712 C714 1.391 . S
C713 C712 1.386 . S
C713 C717 1.393 . S
C714 H706 0.950 . S
C714 C712 1.391 . S
C714 C715 1.400 . S
C715 C714 1.400 . S
C715 C716 1.398 . S
C715 C721 1.491 . S
C716 H707 0.950 . S
C716 C715 1.398 . S
C716 C717 1.391 . S
C717 H705 0.950 . S
C717 C713 1.393 . S
C717 C716 1.391 . S
C718 H708 0.950 . S
C718 C719 1.386 . S
C718 C720 1.391 . S
C719 C718 1.386 . S
C719 C723 1.393 . S
C720 H709 0.950 . S
C720 C718 1.391 . S
C720 C721 1.400 . S
C721 C715 1.491 . S
C721 C720 1.400 . S
C721 C722 1.398 . S
C722 H710 0.950 . S
C722 C721 1.398 . S
C722 C723 1.391 . S
C723 H711 0.950 . S
C723 C719 1.393 . S
C723 C722 1.391 . S
H724 C732 0.950 . S
H725 C737 0.950 . S
H726 C734 0.950 . S
H727 C736 0.950 . S
H728 C738 0.950 . S
H729 C740 0.950 . S
H730 C742 0.950 . S
H731 C743 0.950 . S
C732 H724 0.950 . S
C732 C733 1.386 . S
C732 C734 1.391 . S
C733 C732 1.386 . S
C733 C737 1.393 1_655 S
C734 H726 0.950 . S
C734 C732 1.391 . S
C734 C735 1.400 . S
C735 C734 1.400 . S
C735 C736 1.398 1_655 S
C735 C741 1.491 1_655 S
C736 H727 0.950 . S
C736 C735 1.398 1_455 S
C736 C737 1.391 . S
C737 H725 0.950 . S
C737 C733 1.393 1_455 S
C737 C736 1.391 . S
C738 H728 0.950 . S
C738 C739 1.386 . S
C738 C740 1.391 . S
C739 C738 1.386 . S
C739 C743 1.393 1_455 S
C740 H729 0.950 . S
C740 C738 1.391 . S
C740 C741 1.400 . S
C741 C735 1.491 1_455 S
C741 C740 1.400 . S
C741 C742 1.398 1_455 S
C742 H730 0.950 . S
C742 C741 1.398 1_655 S
C742 C743 1.391 . S
C743 H731 0.950 . S
C743 C739 1.393 1_655 S
C743 C742 1.391 . S
H744 C752 0.950 . S
H745 C757 0.950 . S
H746 C754 0.950 . S
H747 C756 0.950 . S
H748 C758 0.950 . S
H749 C760 0.950 . S
H750 C762 0.950 . S
H751 C763 0.950 . S
C752 H744 0.950 . S
C752 C753 1.386 . S
C752 C754 1.391 . S
C753 C752 1.386 . S
C753 C757 1.393 . S
C754 H746 0.950 . S
C754 C752 1.391 . S
C754 C755 1.400 . S
C755 C754 1.400 . S
C755 C756 1.398 . S
C755 C761 1.491 1_455 S
C756 H747 0.950 . S
C756 C755 1.398 . S
C756 C757 1.391 . S
C757 H745 0.950 . S
C757 C753 1.393 . S
C757 C756 1.391 . S
C758 H748 0.950 . S
C758 C759 1.386 . S
C758 C760 1.391 . S
C759 C758 1.386 . S
C759 C763 1.393 . S
C760 H749 0.950 . S
C760 C758 1.391 . S
C760 C761 1.400 . S
C761 C755 1.491 1_655 S
C761 C760 1.400 . S
C761 C762 1.398 . S
C762 H750 0.950 . S
C762 C761 1.398 . S
C762 C763 1.391 . S
C763 H751 0.950 . S
C763 C759 1.393 . S
C763 C762 1.391 . S
H764 C772 0.950 . S
H765 C777 0.950 . S
H766 C774 0.950 . S
H767 C776 0.950 . S
H768 C778 0.950 . S
H769 C780 0.950 . S
H770 C782 0.950 . S
H771 C783 0.950 . S
C772 H764 0.950 . S
C772 C773 1.386 . S
C772 C774 1.391 . S
C773 C772 1.386 . S
C773 C777 1.393 . S
C774 H766 0.950 . S
C774 C772 1.391 . S
C774 C775 1.400 . S
C775 C774 1.400 . S
C775 C776 1.398 . S
C775 C781 1.491 . S
C776 H767 0.950 . S
C776 C775 1.398 . S
C776 C777 1.391 . S
C777 H765 0.950 . S
C777 C773 1.393 . S
C777 C776 1.391 . S
C778 H768 0.950 . S
C778 C779 1.386 . S
C778 C780 1.391 . S
C779 C778 1.386 . S
C779 C783 1.393 . S
C780 H769 0.950 . S
C780 C778 1.391 . S
C780 C781 1.400 . S
C781 C775 1.491 . S
C781 C780 1.400 . S
C781 C782 1.398 . S
C782 H770 0.950 . S
C782 C781 1.398 . S
C782 C783 1.391 . S
C783 H771 0.950 . S
C783 C779 1.393 . S
C783 C782 1.391 . S
H784 C792 0.950 . S
H785 C797 0.950 . S
H786 C794 0.950 . S
H787 C796 0.950 . S
H788 C798 0.950 . S
H789 C800 0.950 . S
H790 C802 0.950 . S
H791 C803 0.950 . S
C792 H784 0.950 . S
C792 C793 1.386 . S
C792 C794 1.391 . S
C793 C792 1.386 . S
C793 C797 1.393 . S
C794 H786 0.950 . S
C794 C792 1.391 . S
C794 C795 1.400 . S
C795 C794 1.400 . S
C795 C796 1.398 . S
C795 C801 1.491 . S
C796 H787 0.950 . S
C796 C795 1.398 . S
C796 C797 1.391 . S
C797 H785 0.950 . S
C797 C793 1.393 . S
C797 C796 1.391 . S
C798 H788 0.950 . S
C798 C799 1.386 . S
C798 C800 1.391 . S
C799 C798 1.386 . S
C799 C803 1.393 . S
C800 H789 0.950 . S
C800 C798 1.391 . S
C800 C801 1.400 . S
C801 C795 1.491 . S
C801 C800 1.400 . S
C801 C802 1.398 . S
C802 H790 0.950 . S
C802 C801 1.398 . S
C802 C803 1.391 . S
C803 H791 0.950 . S
C803 C799 1.393 . S
C803 C802 1.391 . S
H804 C812 0.950 . S
H805 C817 0.950 . S
H806 C814 0.950 . S
H807 C816 0.950 . S
H808 C818 0.950 . S
H809 C820 0.950 . S
H810 C822 0.950 . S
H811 C823 0.950 . S
C812 H804 0.950 . S
C812 C813 1.386 . S
C812 C814 1.391 . S
C813 C812 1.386 . S
C813 C817 1.393 . S
C814 H806 0.950 . S
C814 C812 1.391 . S
C814 C815 1.400 . S
C815 C814 1.400 . S
C815 C816 1.398 . S
C815 C821 1.491 . S
C816 H807 0.950 . S
C816 C815 1.398 . S
C816 C817 1.391 . S
C817 H805 0.950 . S
C817 C813 1.393 . S
C817 C816 1.391 . S
C818 H808 0.950 . S
C818 C819 1.386 . S
C818 C820 1.391 . S
C819 C818 1.386 . S
C819 C823 1.393 . S
C820 H809 0.950 . S
C820 C818 1.391 . S
C820 C821 1.400 . S
C821 C815 1.491 . S
C821 C820 1.400 . S
C821 C822 1.398 . S
C822 H810 0.950 . S
C822 C821 1.398 . S
C822 C823 1.391 . S
C823 H811 0.950 . S
C823 C819 1.393 . S
C823 C822 1.391 . S
H824 C832 0.950 . S
H825 C837 0.950 . S
H826 C834 0.950 . S
H827 C836 0.950 . S
H828 C838 0.950 . S
H829 C840 0.950 . S
H830 C842 0.950 . S
H831 C843 0.950 . S
C832 H824 0.950 . S
C832 C833 1.386 . S
C832 C834 1.391 . S
C833 C832 1.386 . S
C833 C837 1.393 . S
C834 H826 0.950 . S
C834 C832 1.391 . S
C834 C835 1.400 . S
C835 C834 1.400 . S
C835 C836 1.398 . S
C835 C841 1.491 1_655 S
C836 H827 0.950 . S
C836 C835 1.398 . S
C836 C837 1.391 . S
C837 H825 0.950 . S
C837 C833 1.393 . S
C837 C836 1.391 . S
C838 H828 0.950 . S
C838 C839 1.386 . S
C838 C840 1.391 . S
C839 C838 1.386 . S
C839 C843 1.393 . S
C840 H829 0.950 . S
C840 C838 1.391 . S
C840 C841 1.400 . S
C841 C835 1.491 1_455 S
C841 C840 1.400 . S
C841 C842 1.398 . S
C842 H830 0.950 . S
C842 C841 1.398 . S
C842 C843 1.391 . S
C843 H831 0.950 . S
C843 C839 1.393 . S
C843 C842 1.391 . S
H844 C852 0.950 . S
H845 C857 0.950 . S
H846 C854 0.950 . S
H847 C856 0.950 . S
H848 C858 0.950 . S
H849 C860 0.950 . S
H850 C862 0.950 . S
H851 C863 0.950 . S
C852 H844 0.950 . S
C852 C853 1.386 1_455 S
C852 C854 1.391 . S
C853 C852 1.386 1_655 S
C853 C857 1.393 . S
C854 H846 0.950 . S
C854 C852 1.391 . S
C854 C855 1.400 1_455 S
C855 C854 1.400 1_655 S
C855 C856 1.398 . S
C855 C861 1.491 1_655 S
C856 H847 0.950 . S
C856 C855 1.398 . S
C856 C857 1.391 . S
C857 H845 0.950 . S
C857 C853 1.393 . S
C857 C856 1.391 . S
C858 H848 0.950 . S
C858 C859 1.386 1_655 S
C858 C860 1.391 . S
C859 C858 1.386 1_455 S
C859 C863 1.393 . S
C860 H849 0.950 . S
C860 C858 1.391 . S
C860 C861 1.400 1_655 S
C861 C855 1.491 1_455 S
C861 C860 1.400 1_455 S
C861 C862 1.398 . S
C862 H850 0.950 . S
C862 C861 1.398 . S
C862 C863 1.391 . S
C863 H851 0.950 . S
C863 C859 1.393 . S
C863 C862 1.391 . S
H864 C872 0.950 . S
H865 C877 0.950 . S
H866 C874 0.950 . S
H867 C876 0.950 . S
H868 C878 0.950 . S
H869 C880 0.950 . S
H870 C882 0.950 . S
H871 C883 0.950 . S
C872 H864 0.950 . S
C872 C873 1.386 . S
C872 C874 1.391 . S
C873 C872 1.386 . S
C873 C877 1.393 . S
C874 H866 0.950 . S
C874 C872 1.391 . S
C874 C875 1.400 . S
C875 C874 1.400 . S
C875 C876 1.398 . S
C875 C881 1.491 . S
C876 H867 0.950 . S
C876 C875 1.398 . S
C876 C877 1.391 . S
C877 H865 0.950 . S
C877 C873 1.393 . S
C877 C876 1.391 . S
C878 H868 0.950 . S
C878 C879 1.386 . S
C878 C880 1.391 . S
C879 C878 1.386 . S
C879 C883 1.393 . S
C880 H869 0.950 . S
C880 C878 1.391 . S
C880 C881 1.400 . S
C881 C875 1.491 . S
C881 C880 1.400 . S
C881 C882 1.398 . S
C882 H870 0.950 . S
C882 C881 1.398 . S
C882 C883 1.391 . S
C883 H871 0.950 . S
C883 C879 1.393 . S
C883 C882 1.391 . S
H884 C892 0.950 . S
H885 C897 0.950 . S
H886 C894 0.950 . S
H887 C896 0.950 . S
H888 C898 0.950 . S
H889 C900 0.950 . S
H890 C902 0.950 . S
H891 C903 0.950 . S
C892 H884 0.950 . S
C892 C893 1.386 . S
C892 C894 1.391 . S
C893 C892 1.386 . S
C893 C897 1.393 . S
C894 H886 0.950 . S
C894 C892 1.391 . S
C894 C895 1.400 . S
C895 C894 1.400 . S
C895 C896 1.398 . S
C895 C901 1.491 1_545 S
C896 H887 0.950 . S
C896 C895 1.398 . S
C896 C897 1.391 . S
C897 H885 0.950 . S
C897 C893 1.393 . S
C897 C896 1.391 . S
C898 H888 0.950 . S
C898 C899 1.386 . S
C898 C900 1.391 . S
C899 C898 1.386 . S
C899 C903 1.393 . S
C900 H889 0.950 . S
C900 C898 1.391 . S
C900 C901 1.400 . S
C901 C895 1.491 1_565 S
C901 C900 1.400 . S
C901 C902 1.398 . S
C902 H890 0.950 . S
C902 C901 1.398 . S
C902 C903 1.391 . S
C903 H891 0.950 . S
C903 C899 1.393 . S
C903 C902 1.391 . S
H904 C912 0.950 . S
H905 C917 0.950 . S
H906 C914 0.950 . S
H907 C916 0.950 . S
H908 C918 0.950 . S
H909 C920 0.950 . S
H910 C922 0.950 . S
H911 C923 0.950 . S
C912 H904 0.950 . S
C912 C913 1.386 . S
C912 C914 1.391 . S
C913 C912 1.386 . S
C913 C917 1.393 1_554 S
C914 H906 0.950 . S
C914 C912 1.391 . S
C914 C915 1.400 . S
C915 C914 1.400 . S
C915 C916 1.398 1_554 S
C915 C921 1.491 1_554 S
C916 H907 0.950 . S
C916 C915 1.398 1_556 S
C916 C917 1.391 . S
C917 H905 0.950 . S
C917 C913 1.393 1_556 S
C917 C916 1.391 . S
C918 H908 0.950 . S
C918 C919 1.386 . S
C918 C920 1.391 . S
C919 C918 1.386 . S
C919 C923 1.393 1_556 S
C920 H909 0.950 . S
C920 C918 1.391 . S
C920 C921 1.400 . S
C921 C915 1.491 1_556 S
C921 C920 1.400 . S
C921 C922 1.398 1_556 S
C922 H910 0.950 . S
C922 C921 1.398 1_554 S
C922 C923 1.391 . S
C923 H911 0.950 . S
C923 C919 1.393 1_554 S
C923 C922 1.391 . S
H924 C932 0.950 . S
H925 C937 0.950 . S
H926 C934 0.950 . S
H927 C936 0.950 . S
H928 C938 0.950 . S
H929 C940 0.950 . S
H930 C942 0.950 . S
H931 C943 0.950 . S
C932 H924 0.950 . S
C932 C933 1.386 . S
C932 C934 1.391 . S
C933 C932 1.386 . S
C933 C937 1.393 . S
C934 H926 0.950 . S
C934 C932 1.391 . S
C934 C935 1.400 . S
C935 C934 1.400 . S
C935 C936 1.398 . S
C935 C941 1.491 1_545 S
C936 H927 0.950 . S
C936 C935 1.398 . S
C936 C937 1.391 . S
C937 H925 0.950 . S
C937 C933 1.393 . S
C937 C936 1.391 . S
C938 H928 0.950 . S
C938 C939 1.386 . S
C938 C940 1.391 . S
C939 C938 1.386 . S
C939 C943 1.393 . S
C940 H929 0.950 . S
C940 C938 1.391 . S
C940 C941 1.400 . S
C941 C935 1.491 1_565 S
C941 C940 1.400 . S
C941 C942 1.398 . S
C942 H930 0.950 . S
C942 C941 1.398 . S
C942 C943 1.391 . S
C943 H931 0.950 . S
C943 C939 1.393 . S
C943 C942 1.391 . S
H944 C952 0.950 . S
H945 C957 0.950 . S
H946 C954 0.950 . S
H947 C956 0.950 . S
H948 C958 0.950 . S
H949 C960 0.950 . S
H950 C962 0.950 . S
H951 C963 0.950 . S
C952 H944 0.950 . S
C952 C953 1.386 1_554 S
C952 C954 1.391 . S
C953 C952 1.386 1_556 S
C953 C957 1.393 . S
C954 H946 0.950 . S
C954 C952 1.391 . S
C954 C955 1.400 1_554 S
C955 C954 1.400 1_556 S
C955 C956 1.398 . S
C955 C961 1.491 1_556 S
C956 H947 0.950 . S
C956 C955 1.398 . S
C956 C957 1.391 . S
C957 H945 0.950 . S
C957 C953 1.393 . S
C957 C956 1.391 . S
C958 H948 0.950 . S
C958 C959 1.386 1_556 S
C958 C960 1.391 . S
C959 C958 1.386 1_554 S
C959 C963 1.393 . S
C960 H949 0.950 . S
C960 C958 1.391 . S
C960 C961 1.400 1_556 S
C961 C955 1.491 1_554 S
C961 C960 1.400 1_554 S
C961 C962 1.398 . S
C962 H950 0.950 . S
C962 C961 1.398 . S
C962 C963 1.391 . S
C963 H951 0.950 . S
C963 C959 1.393 . S
C963 C962 1.391 . S
H964 C972 0.950 . S
H965 C977 0.950 . S
H966 C974 0.950 . S
H967 C976 0.950 . S
H968 C978 0.950 . S
H969 C980 0.950 . S
H970 C982 0.950 . S
H971 C983 0.950 . S
C972 H964 0.950 . S
C972 C973 1.386 . S
C972 C974 1.391 . S
C973 C972 1.386 . S
C973 C977 1.393 . S
C974 H966 0.950 . S
C974 C972 1.391 . S
C974 C975 1.400 . S
C975 C974 1.400 . S
C975 C976 1.398 . S
C975 C981 1.491 . S
C976 H967 0.950 . S
C976 C975 1.398 . S
C976 C977 1.391 . S
C977 H965 0.950 . S
C977 C973 1.393 . S
C977 C976 1.391 . S
C978 H968 0.950 . S
C978 C979 1.386 . S
C978 C980 1.391 . S
C979 C978 1.386 . S
C979 C983 1.393 . S
C980 H969 0.950 . S
C980 C978 1.391 . S
C980 C981 1.400 . S
C981 C975 1.491 . S
C981 C980 1.400 . S
C981 C982 1.398 . S
C982 H970 0.950 . S
C982 C981 1.398 . S
C982 C983 1.391 . S
C983 H971 0.950 . S
C983 C979 1.393 . S
C983 C982 1.391 . S
H984 C992 0.950 . S
H985 C997 0.950 . S
H986 C994 0.950 . S
H987 C996 0.950 . S
H988 C998 0.950 . S
H989 C1000 0.950 . S
H990 C1002 0.950 . S
H991 C1003 0.950 . S
C992 H984 0.950 . S
C992 C993 1.386 . S
C992 C994 1.391 . S
C993 C992 1.386 . S
C993 C997 1.393 . S
C994 H986 0.950 . S
C994 C992 1.391 . S
C994 C995 1.400 . S
C995 C994 1.400 . S
C995 C996 1.398 . S
C995 C1001 1.491 . S
C996 H987 0.950 . S
C996 C995 1.398 . S
C996 C997 1.391 . S
C997 H985 0.950 . S
C997 C993 1.393 . S
C997 C996 1.391 . S
C998 H988 0.950 . S
C998 C999 1.386 . S
C998 C1000 1.391 . S
C999 C998 1.386 . S
C999 C1003 1.393 . S
C1000 H989 0.950 . S
C1000 C998 1.391 . S
C1000 C1001 1.400 . S
C1001 C995 1.491 . S
C1001 C1000 1.400 . S
C1001 C1002 1.398 . S
C1002 H990 0.950 . S
C1002 C1001 1.398 . S
C1002 C1003 1.391 . S
C1003 H991 0.950 . S
C1003 C999 1.393 . S
C1003 C1002 1.391 . S
H1004 C1012 0.950 . S
H1005 C1017 0.950 . S
H1006 C1014 0.950 . S
H1007 C1016 0.950 . S
H1008 C1018 0.950 . S
H1009 C1020 0.950 . S
H1010 C1022 0.950 . S
H1011 C1023 0.950 . S
C1012 H1004 0.950 . S
C1012 C1013 1.386 . S
C1012 C1014 1.391 . S
C1013 C1012 1.386 . S
C1013 C1017 1.393 . S
C1014 H1006 0.950 . S
C1014 C1012 1.391 . S
C1014 C1015 1.400 . S
C1015 C1014 1.400 . S
C1015 C1016 1.398 . S
C1015 C1021 1.491 1_554 S
C1016 H1007 0.950 . S
C1016 C1015 1.398 . S
C1016 C1017 1.391 . S
C1017 H1005 0.950 . S
C1017 C1013 1.393 . S
C1017 C1016 1.391 . S
C1018 H1008 0.950 . S
C1018 C1019 1.386 . S
C1018 C1020 1.391 . S
C1019 C1018 1.386 . S
C1019 C1023 1.393 . S
C1020 H1009 0.950 . S
C1020 C1018 1.391 . S
C1020 C1021 1.400 . S
C1021 C1015 1.491 1_556 S
C1021 C1020 1.400 . S
C1021 C1022 1.398 . S
C1022 H1010 0.950 . S
C1022 C1021 1.398 . S
C1022 C1023 1.391 . S
C1023 H1011 0.950 . S
C1023 C1019 1.393 . S
C1023 C1022 1.391 . S
H1024 C1032 0.950 . S
H1025 C1037 0.950 . S
H1026 C1034 0.950 . S
H1027 C1036 0.950 . S
H1028 C1038 0.950 . S
H1029 C1040 0.950 . S
H1030 C1042 0.950 . S
H1031 C1043 0.950 . S
C1032 H1024 0.950 . S
C1032 C1033 1.386 . S
C1032 C1034 1.391 . S
C1033 C1032 1.386 . S
C1033 C1037 1.393 . S
C1034 H1026 0.950 . S
C1034 C1032 1.391 . S
C1034 C1035 1.400 . S
C1035 C1034 1.400 . S
C1035 C1036 1.398 . S
C1035 C1041 1.491 . S
C1036 H1027 0.950 . S
C1036 C1035 1.398 . S
C1036 C1037 1.391 . S
C1037 H1025 0.950 . S
C1037 C1033 1.393 . S
C1037 C1036 1.391 . S
C1038 H1028 0.950 . S
C1038 C1039 1.386 . S
C1038 C1040 1.391 . S
C1039 C1038 1.386 . S
C1039 C1043 1.393 . S
C1040 H1029 0.950 . S
C1040 C1038 1.391 . S
C1040 C1041 1.400 . S
C1041 C1035 1.491 . S
C1041 C1040 1.400 . S
C1041 C1042 1.398 . S
C1042 H1030 0.950 . S
C1042 C1041 1.398 . S
C1042 C1043 1.391 . S
C1043 H1031 0.950 . S
C1043 C1039 1.393 . S
C1043 C1042 1.391 . S
H1044 C1052 0.950 . S
H1045 C1057 0.950 . S
H1046 C1054 0.950 . S
H1047 C1056 0.950 . S
H1048 C1058 0.950 . S
H1049 C1060 0.950 . S
H1050 C1062 0.950 . S
H1051 C1063 0.950 . S
C1052 H1044 0.950 . S
C1052 C1053 1.386 . S
C1052 C1054 1.391 . S
C1053 C1052 1.386 . S
C1053 C1057 1.393 . S
C1054 H1046 0.950 . S
C1054 C1052 1.391 . S
C1054 C1055 1.400 . S
C1055 C1054 1.400 . S
C1055 C1056 1.398 . S
C1055 C1061 1.491 . S
C1056 H1047 0.950 . S
C1056 C1055 1.398 . S
C1056 C1057 1.391 . S
C1057 H1045 0.950 . S
C1057 C1053 1.393 . S
C1057 C1056 1.391 . S
C1058 H1048 0.950 . S
C1058 C1059 1.386 . S
C1058 C1060 1.391 . S
C1059 C1058 1.386 . S
C1059 C1063 1.393 . S
C1060 H1049 0.950 . S
C1060 C1058 1.391 . S
C1060 C1061 1.400 . S
C1061 C1055 1.491 . S
C1061 C1060 1.400 . S
C1061 C1062 1.398 . S
C1062 H1050 0.950 . S
C1062 C1061 1.398 . S
C1062 C1063 1.391 . S
C1063 H1051 0.950 . S
C1063 C1059 1.393 . S
C1063 C1062 1.391 . S
H1064 C1072 0.950 . S
H1065 C1077 0.950 . S
H1066 C1074 0.950 . S
H1067 C1076 0.950 . S
H1068 C1078 0.950 . S
H1069 C1080 0.950 . S
H1070 C1082 0.950 . S
H1071 C1083 0.950 . S
C1072 H1064 0.950 . S
C1072 C1073 1.386 . S
C1072 C1074 1.391 . S
C1073 C1072 1.386 . S
C1073 C1077 1.393 . S
C1074 H1066 0.950 . S
C1074 C1072 1.391 . S
C1074 C1075 1.400 . S
C1075 C1074 1.400 . S
C1075 C1076 1.398 . S
C1075 C1081 1.491 . S
C1076 H1067 0.950 . S
C1076 C1075 1.398 . S
C1076 C1077 1.391 . S
C1077 H1065 0.950 . S
C1077 C1073 1.393 . S
C1077 C1076 1.391 . S
C1078 H1068 0.950 . S
C1078 C1079 1.386 . S
C1078 C1080 1.391 . S
C1079 C1078 1.386 . S
C1079 C1083 1.393 . S
C1080 H1069 0.950 . S
C1080 C1078 1.391 . S
C1080 C1081 1.400 . S
C1081 C1075 1.491 . S
C1081 C1080 1.400 . S
C1081 C1082 1.398 . S
C1082 H1070 0.950 . S
C1082 C1081 1.398 . S
C1082 C1083 1.391 . S
C1083 H1071 0.950 . S
C1083 C1079 1.393 . S
C1083 C1082 1.391 . S
H1084 C1092 0.950 . S
H1085 C1097 0.950 . S
H1086 C1094 0.950 . S
H1087 C1096 0.950 . S
H1088 C1098 0.950 . S
H1089 C1100 0.950 . S
H1090 C1102 0.950 . S
H1091 C1103 0.950 . S
C1092 H1084 0.950 . S
C1092 C1093 1.386 . S
C1092 C1094 1.391 . S
C1093 C1092 1.386 . S
C1093 C1097 1.393 . S
C1094 H1086 0.950 . S
C1094 C1092 1.391 . S
C1094 C1095 1.400 . S
C1095 C1094 1.400 . S
C1095 C1096 1.398 . S
C1095 C1101 1.491 . S
C1096 H1087 0.950 . S
C1096 C1095 1.398 . S
C1096 C1097 1.391 . S
C1097 H1085 0.950 . S
C1097 C1093 1.393 . S
C1097 C1096 1.391 . S
C1098 H1088 0.950 . S
C1098 C1099 1.386 . S
C1098 C1100 1.391 . S
C1099 C1098 1.386 . S
C1099 C1103 1.393 . S
C1100 H1089 0.950 . S
C1100 C1098 1.391 . S
C1100 C1101 1.400 . S
C1101 C1095 1.491 . S
C1101 C1100 1.400 . S
C1101 C1102 1.398 . S
C1102 H1090 0.950 . S
C1102 C1101 1.398 . S
C1102 C1103 1.391 . S
C1103 H1091 0.950 . S
C1103 C1099 1.393 . S
C1103 C1102 1.391 . S
H1104 C1112 0.950 . S
H1105 C1117 0.950 . S
H1106 C1114 0.950 . S
H1107 C1116 0.950 . S
H1108 C1118 0.950 . S
H1109 C1120 0.950 . S
H1110 C1122 0.950 . S
H1111 C1123 0.950 . S
C1112 H1104 0.950 . S
C1112 C1113 1.386 . S
C1112 C1114 1.391 . S
C1113 C1112 1.386 . S
C1113 C1117 1.393 . S
C1114 H1106 0.950 . S
C1114 C1112 1.391 . S
C1114 C1115 1.400 . S
C1115 C1114 1.400 . S
C1115 C1116 1.398 . S
C1115 C1121 1.491 . S
C1116 H1107 0.950 . S
C1116 C1115 1.398 . S
C1116 C1117 1.391 . S
C1117 H1105 0.950 . S
C1117 C1113 1.393 . S
C1117 C1116 1.391 . S
C1118 H1108 0.950 . S
C1118 C1119 1.386 . S
C1118 C1120 1.391 . S
C1119 C1118 1.386 . S
C1119 C1123 1.393 . S
C1120 H1109 0.950 . S
C1120 C1118 1.391 . S
C1120 C1121 1.400 . S
C1121 C1115 1.491 . S
C1121 C1120 1.400 . S
C1121 C1122 1.398 . S
C1122 H1110 0.950 . S
C1122 C1121 1.398 . S
C1122 C1123 1.391 . S
C1123 H1111 0.950 . S
C1123 C1119 1.393 . S
C1123 C1122 1.391 . S
H1124 C1132 0.950 . S
H1125 C1137 0.950 . S
H1126 C1134 0.950 . S
H1127 C1136 0.950 . S
H1128 C1138 0.950 . S
H1129 C1140 0.950 . S
H1130 C1142 0.950 . S
H1131 C1143 0.950 . S
C1132 H1124 0.950 . S
C1132 C1133 1.386 . S
C1132 C1134 1.391 . S
C1133 C1132 1.386 . S
C1133 C1137 1.393 . S
C1134 H1126 0.950 . S
C1134 C1132 1.391 . S
C1134 C1135 1.400 . S
C1135 C1134 1.400 . S
C1135 C1136 1.398 . S
C1135 C1141 1.491 . S
C1136 H1127 0.950 . S
C1136 C1135 1.398 . S
C1136 C1137 1.391 . S
C1137 H1125 0.950 . S
C1137 C1133 1.393 . S
C1137 C1136 1.391 . S
C1138 H1128 0.950 . S
C1138 C1139 1.386 . S
C1138 C1140 1.391 . S
C1139 C1138 1.386 . S
C1139 C1143 1.393 . S
C1140 H1129 0.950 . S
C1140 C1138 1.391 . S
C1140 C1141 1.400 . S
C1141 C1135 1.491 . S
C1141 C1140 1.400 . S
C1141 C1142 1.398 . S
C1142 H1130 0.950 . S
C1142 C1141 1.398 . S
C1142 C1143 1.391 . S
C1143 H1131 0.950 . S
C1143 C1139 1.393 . S
C1143 C1142 1.391 . S
H1144 C1152 0.950 . S
H1145 C1157 0.950 . S
H1146 C1154 0.950 . S
H1147 C1156 0.950 . S
H1148 C1158 0.950 . S
H1149 C1160 0.950 . S
H1150 C1162 0.950 . S
H1151 C1163 0.950 . S
C1152 H1144 0.950 . S
C1152 C1153 1.386 . S
C1152 C1154 1.391 . S
C1153 C1152 1.386 . S
C1153 C1157 1.393 . S
C1154 H1146 0.950 . S
C1154 C1152 1.391 . S
C1154 C1155 1.400 . S
C1155 C1154 1.400 . S
C1155 C1156 1.398 . S
C1155 C1161 1.491 . S
C1156 H1147 0.950 . S
C1156 C1155 1.398 . S
C1156 C1157 1.391 . S
C1157 H1145 0.950 . S
C1157 C1153 1.393 . S
C1157 C1156 1.391 . S
C1158 H1148 0.950 . S
C1158 C1159 1.386 . S
C1158 C1160 1.391 . S
C1159 C1158 1.386 . S
C1159 C1163 1.393 . S
C1160 H1149 0.950 . S
C1160 C1158 1.391 . S
C1160 C1161 1.400 . S
C1161 C1155 1.491 . S
C1161 C1160 1.400 . S
C1161 C1162 1.398 . S
C1162 H1150 0.950 . S
C1162 C1161 1.398 . S
C1162 C1163 1.391 . S
C1163 H1151 0.950 . S
C1163 C1159 1.393 . S
C1163 C1162 1.391 . S
H1164 C1172 0.950 . S
H1165 C1177 0.945 . S
H1166 C1174 0.950 . S
H1167 C1176 0.950 . S
H1168 C1178 0.950 . S
H1169 C1180 0.950 . S
H1170 C1182 0.950 . S
H1171 C1183 0.950 . S
C1172 H1164 0.950 . S
C1172 C1173 1.386 . S
C1172 C1174 1.391 . S
C1173 C1172 1.386 . S
C1173 C1177 1.393 . S
C1174 H1166 0.950 . S
C1174 C1172 1.391 . S
C1174 C1175 1.400 . S
C1175 C1174 1.400 . S
C1175 C1176 1.398 . S
C1175 C1181 1.491 . S
C1176 H1167 0.950 . S
C1176 C1175 1.398 . S
C1176 C1177 1.391 . S
C1177 H1165 0.945 . S
C1177 C1173 1.393 . S
C1177 C1176 1.391 . S
C1178 H1168 0.950 . S
C1178 C1179 1.386 . S
C1178 C1180 1.391 . S
C1179 C1178 1.386 . S
C1179 C1183 1.393 . S
C1180 H1169 0.950 . S
C1180 C1178 1.391 . S
C1180 C1181 1.400 . S
C1181 C1175 1.491 . S
C1181 C1180 1.400 . S
C1181 C1182 1.398 . S
C1182 H1170 0.950 . S
C1182 C1181 1.398 . S
C1182 C1183 1.391 . S
C1183 H1171 0.950 . S
C1183 C1179 1.393 . S
C1183 C1182 1.391 . S
H1184 C1192 0.950 . S
H1185 C1197 0.950 . S
H1186 C1194 0.950 . S
H1187 C1196 0.950 . S
H1188 C1198 0.950 . S
H1189 C1200 0.950 . S
H1190 C1202 0.950 . S
H1191 C1203 0.950 . S
C1192 H1184 0.950 . S
C1192 C1193 1.386 . S
C1192 C1194 1.391 . S
C1193 C1192 1.386 . S
C1193 C1197 1.393 . S
C1194 H1186 0.950 . S
C1194 C1192 1.391 . S
C1194 C1195 1.400 . S
C1195 C1194 1.400 . S
C1195 C1196 1.398 . S
C1195 C1201 1.491 . S
C1196 H1187 0.950 . S
C1196 C1195 1.398 . S
C1196 C1197 1.391 . S
C1197 H1185 0.950 . S
C1197 C1193 1.393 . S
C1197 C1196 1.391 . S
C1198 H1188 0.950 . S
C1198 C1199 1.386 . S
C1198 C1200 1.391 . S
C1199 C1198 1.386 . S
C1199 C1203 1.393 . S
C1200 H1189 0.950 . S
C1200 C1198 1.391 . S
C1200 C1201 1.400 . S
C1201 C1195 1.491 . S
C1201 C1200 1.400 . S
C1201 C1202 1.398 . S
C1202 H1190 0.950 . S
C1202 C1201 1.398 . S
C1202 C1203 1.391 . S
C1203 H1191 0.950 . S
C1203 C1199 1.393 . S
C1203 C1202 1.391 . S
H1204 C1212 0.950 . S
H1205 C1217 0.950 . S
H1206 C1214 0.950 . S
H1207 C1216 0.950 . S
H1208 C1218 0.950 . S
H1209 C1220 0.950 . S
H1210 C1222 0.950 . S
H1211 C1223 0.950 . S
C1212 H1204 0.950 . S
C1212 C1213 1.386 . S
C1212 C1214 1.391 . S
C1213 C1212 1.386 . S
C1213 C1217 1.393 . S
C1214 H1206 0.950 . S
C1214 C1212 1.391 . S
C1214 C1215 1.400 . S
C1215 C1214 1.400 . S
C1215 C1216 1.398 . S
C1215 C1221 1.491 . S
C1216 H1207 0.950 . S
C1216 C1215 1.398 . S
C1216 C1217 1.391 . S
C1217 H1205 0.950 . S
C1217 C1213 1.393 . S
C1217 C1216 1.391 . S
C1218 H1208 0.950 . S
C1218 C1219 1.386 . S
C1218 C1220 1.391 . S
C1219 C1218 1.386 . S
C1219 C1223 1.393 . S
C1220 H1209 0.950 . S
C1220 C1218 1.391 . S
C1220 C1221 1.400 . S
C1221 C1215 1.491 . S
C1221 C1220 1.400 . S
C1221 C1222 1.398 . S
C1222 H1210 0.950 . S
C1222 C1221 1.398 . S
C1222 C1223 1.391 . S
C1223 H1211 0.950 . S
C1223 C1219 1.393 . S
C1223 C1222 1.391 . S
H1224 C1232 0.950 . S
H1225 C1237 0.950 . S
H1226 C1234 0.950 . S
H1227 C1236 0.950 . S
H1228 C1238 0.950 . S
H1229 C1240 0.950 . S
H1230 C1242 0.950 . S
H1231 C1243 0.950 . S
C1232 H1224 0.950 . S
C1232 C1233 1.386 . S
C1232 C1234 1.391 . S
C1233 C1232 1.386 . S
C1233 C1237 1.393 . S
C1234 H1226 0.950 . S
C1234 C1232 1.391 . S
C1234 C1235 1.400 . S
C1235 C1234 1.400 . S
C1235 C1236 1.398 . S
C1235 C1241 1.491 . S
C1236 H1227 0.950 . S
C1236 C1235 1.398 . S
C1236 C1237 1.391 . S
C1237 H1225 0.950 . S
C1237 C1233 1.393 . S
C1237 C1236 1.391 . S
C1238 H1228 0.950 . S
C1238 C1239 1.386 . S
C1238 C1240 1.391 . S
C1239 C1238 1.386 . S
C1239 C1243 1.393 . S
C1240 H1229 0.950 . S
C1240 C1238 1.391 . S
C1240 C1241 1.400 . S
C1241 C1235 1.491 . S
C1241 C1240 1.400 . S
C1241 C1242 1.398 . S
C1242 H1230 0.950 . S
C1242 C1241 1.398 . S
C1242 C1243 1.391 . S
C1243 H1231 0.950 . S
C1243 C1239 1.393 . S
C1243 C1242 1.391 . S
H1244 C1252 0.950 . S
H1245 C1257 0.950 . S
H1246 C1254 0.950 . S
H1247 C1256 0.950 . S
H1248 C1258 0.950 1_455 S
H1249 C1260 0.950 . S
H1250 C1262 0.950 . S
H1251 C1263 0.950 . S
C1252 H1244 0.950 . S
C1252 C1253 1.386 . S
C1252 C1254 1.391 . S
C1253 C1252 1.386 . S
C1253 C1257 1.393 . S
C1254 H1246 0.950 . S
C1254 C1252 1.391 . S
C1254 C1255 1.400 . S
C1255 C1254 1.400 . S
C1255 C1256 1.398 . S
C1255 C1261 1.491 . S
C1256 H1247 0.950 . S
C1256 C1255 1.398 . S
C1256 C1257 1.391 . S
C1257 H1245 0.950 . S
C1257 C1253 1.393 . S
C1257 C1256 1.391 . S
C1258 H1248 0.950 1_655 S
C1258 C1259 1.386 . S
C1258 C1260 1.391 . S
C1259 C1258 1.386 . S
C1259 C1263 1.393 . S
C1260 H1249 0.950 . S
C1260 C1258 1.391 . S
C1260 C1261 1.400 . S
C1261 C1255 1.491 . S
C1261 C1260 1.400 . S
C1261 C1262 1.398 . S
C1262 H1250 0.950 . S
C1262 C1261 1.398 . S
C1262 C1263 1.391 . S
C1263 H1251 0.950 . S
C1263 C1259 1.393 . S
C1263 C1262 1.391 . S
H1264 C1272 0.950 . S
H1265 C1277 0.950 . S
H1266 C1274 0.950 . S
H1267 C1276 0.950 . S
H1268 C1278 0.950 . S
H1269 C1280 0.950 . S
H1270 C1282 0.950 . S
H1271 C1283 0.950 . S
C1272 H1264 0.950 . S
C1272 C1273 1.386 . S
C1272 C1274 1.391 . S
C1273 C1272 1.386 . S
C1273 C1277 1.393 . S
C1274 H1266 0.950 . S
C1274 C1272 1.391 . S
C1274 C1275 1.400 . S
C1275 C1274 1.400 . S
C1275 C1276 1.398 . S
C1275 C1281 1.491 . S
C1276 H1267 0.950 . S
C1276 C1275 1.398 . S
C1276 C1277 1.391 . S
C1277 H1265 0.950 . S
C1277 C1273 1.393 . S
C1277 C1276 1.391 . S
C1278 H1268 0.950 . S
C1278 C1279 1.386 . S
C1278 C1280 1.391 . S
C1279 C1278 1.386 . S
C1279 C1283 1.393 . S
C1280 H1269 0.950 . S
C1280 C1278 1.391 . S
C1280 C1281 1.400 . S
C1281 C1275 1.491 . S
C1281 C1280 1.400 . S
C1281 C1282 1.398 . S
C1282 H1270 0.950 . S
C1282 C1281 1.398 . S
C1282 C1283 1.391 . S
C1283 H1271 0.950 . S
C1283 C1279 1.393 . S
C1283 C1282 1.391 . S
H1284 C1292 0.950 . S
H1285 C1297 0.950 . S
H1286 C1294 0.950 . S
H1287 C1296 0.950 . S
H1288 C1298 0.950 . S
H1289 C1300 0.950 . S
H1290 C1302 0.950 . S
H1291 C1303 0.950 . S
C1292 H1284 0.950 . S
C1292 C1293 1.386 . S
C1292 C1294 1.391 . S
C1293 C1292 1.386 . S
C1293 C1297 1.393 . S
C1294 H1286 0.950 . S
C1294 C1292 1.391 . S
C1294 C1295 1.400 . S
C1295 C1294 1.400 . S
C1295 C1296 1.398 . S
C1295 C1301 1.491 . S
C1296 H1287 0.950 . S
C1296 C1295 1.398 . S
C1296 C1297 1.391 . S
C1297 H1285 0.950 . S
C1297 C1293 1.393 . S
C1297 C1296 1.391 . S
C1298 H1288 0.950 . S
C1298 C1299 1.386 . S
C1298 C1300 1.391 . S
C1299 C1298 1.386 . S
C1299 C1303 1.393 . S
C1300 H1289 0.950 . S
C1300 C1298 1.391 . S
C1300 C1301 1.400 . S
C1301 C1295 1.491 . S
C1301 C1300 1.400 . S
C1301 C1302 1.398 . S
C1302 H1290 0.950 . S
C1302 C1301 1.398 . S
C1302 C1303 1.391 . S
C1303 H1291 0.950 . S
C1303 C1299 1.393 . S
C1303 C1302 1.391 . S
H1304 C1312 0.950 . S
H1305 C1317 0.950 . S
H1306 C1314 0.950 . S
H1307 C1316 0.950 . S
H1308 C1318 0.950 . S
H1309 C1320 0.950 . S
H1310 C1322 0.950 . S
H1311 C1323 0.950 . S
C1312 H1304 0.950 . S
C1312 C1313 1.386 . S
C1312 C1314 1.391 . S
C1313 C1312 1.386 . S
C1313 C1317 1.393 . S
C1314 H1306 0.950 . S
C1314 C1312 1.391 . S
C1314 C1315 1.400 . S
C1315 C1314 1.400 . S
C1315 C1316 1.398 . S
C1315 C1321 1.491 . S
C1316 H1307 0.950 . S
C1316 C1315 1.398 . S
C1316 C1317 1.391 . S
C1317 H1305 0.950 . S
C1317 C1313 1.393 . S
C1317 C1316 1.391 . S
C1318 H1308 0.950 . S
C1318 C1319 1.386 . S
C1318 C1320 1.391 . S
C1319 C1318 1.386 . S
C1319 C1323 1.393 . S
C1320 H1309 0.950 . S
C1320 C1318 1.391 . S
C1320 C1321 1.400 . S
C1321 C1315 1.491 . S
C1321 C1320 1.400 . S
C1321 C1322 1.398 . S
C1322 H1310 0.950 . S
C1322 C1321 1.398 . S
C1322 C1323 1.391 . S
C1323 H1311 0.950 . S
C1323 C1319 1.393 . S
C1323 C1322 1.391 . S
H1324 C1332 0.955 . S
H1325 C1337 0.950 . S
H1326 C1334 0.950 . S
H1327 C1336 0.950 . S
H1328 C1338 0.950 . S
H1329 C1340 0.950 . S
H1330 C1342 0.950 . S
H1331 C1343 0.950 . S
C1332 H1324 0.955 . S
C1332 C1333 1.386 . S
C1332 C1334 1.391 . S
C1333 C1332 1.386 . S
C1333 C1337 1.393 . S
C1334 H1326 0.950 . S
C1334 C1332 1.391 . S
C1334 C1335 1.400 . S
C1335 C1334 1.400 . S
C1335 C1336 1.398 . S
C1335 C1341 1.491 . S
C1336 H1327 0.950 . S
C1336 C1335 1.398 . S
C1336 C1337 1.391 . S
C1337 H1325 0.950 . S
C1337 C1333 1.393 . S
C1337 C1336 1.391 . S
C1338 H1328 0.950 . S
C1338 C1339 1.386 . S
C1338 C1340 1.391 . S
C1339 C1338 1.386 . S
C1339 C1343 1.393 . S
C1340 H1329 0.950 . S
C1340 C1338 1.391 . S
C1340 C1341 1.400 . S
C1341 C1335 1.491 . S
C1341 C1340 1.400 . S
C1341 C1342 1.398 . S
C1342 H1330 0.950 . S
C1342 C1341 1.398 . S
C1342 C1343 1.391 . S
C1343 H1331 0.950 . S
C1343 C1339 1.393 . S
C1343 C1342 1.391 . S
H1344 C1352 0.950 . S
H1345 C1357 0.950 . S
H1346 C1354 0.950 . S
H1347 C1356 0.950 . S
H1348 C1358 0.950 . S
H1349 C1360 0.950 . S
H1350 C1362 0.950 . S
H1351 C1363 0.950 . S
C1352 H1344 0.950 . S
C1352 C1353 1.386 . S
C1352 C1354 1.391 . S
C1353 C1352 1.386 . S
C1353 C1357 1.393 . S
C1354 H1346 0.950 . S
C1354 C1352 1.391 . S
C1354 C1355 1.400 . S
C1355 C1354 1.400 . S
C1355 C1356 1.398 . S
C1355 C1361 1.491 . S
C1356 H1347 0.950 . S
C1356 C1355 1.398 . S
C1356 C1357 1.391 . S
C1357 H1345 0.950 . S
C1357 C1353 1.393 . S
C1357 C1356 1.391 . S
C1358 H1348 0.950 . S
C1358 C1359 1.386 . S
C1358 C1360 1.391 . S
C1359 C1358 1.386 . S
C1359 C1363 1.393 . S
C1360 H1349 0.950 . S
C1360 C1358 1.391 . S
C1360 C1361 1.400 . S
C1361 C1355 1.491 . S
C1361 C1360 1.400 . S
C1361 C1362 1.398 . S
C1362 H1350 0.950 . S
C1362 C1361 1.398 . S
C1362 C1363 1.391 . S
C1363 H1351 0.950 . S
C1363 C1359 1.393 . S
C1363 C1362 1.391 . S
H1364 C1372 0.950 . S
H1365 C1377 0.950 . S
H1366 C1374 0.950 . S
H1367 C1376 0.950 . S
H1368 C1378 0.950 . S
H1369 C1380 0.950 . S
H1370 C1382 0.950 . S
H1371 C1383 0.950 . S
C1372 H1364 0.950 . S
C1372 C1373 1.386 . S
C1372 C1374 1.391 . S
C1373 C1372 1.386 . S
C1373 C1377 1.393 . S
C1374 H1366 0.950 . S
C1374 C1372 1.391 . S
C1374 C1375 1.400 . S
C1375 C1374 1.400 . S
C1375 C1376 1.398 . S
C1375 C1381 1.491 . S
C1376 H1367 0.950 . S
C1376 C1375 1.398 . S
C1376 C1377 1.391 . S
C1377 H1365 0.950 . S
C1377 C1373 1.393 . S
C1377 C1376 1.391 . S
C1378 H1368 0.950 . S
C1378 C1379 1.386 . S
C1378 C1380 1.391 . S
C1379 C1378 1.386 . S
C1379 C1383 1.393 . S
C1380 H1369 0.950 . S
C1380 C1378 1.391 . S
C1380 C1381 1.400 . S
C1381 C1375 1.491 . S
C1381 C1380 1.400 . S
C1381 C1382 1.398 . S
C1382 H1370 0.950 . S
C1382 C1381 1.398 . S
C1382 C1383 1.391 . S
C1383 H1371 0.950 . S
C1383 C1379 1.393 . S
C1383 C1382 1.391 . S
H1384 C1392 0.950 . S
H1385 C1397 0.950 . S
H1386 C1394 0.950 . S
H1387 C1396 0.950 . S
H1388 C1398 0.950 . S
H1389 C1400 0.950 . S
H1390 C1402 0.950 . S
H1391 C1403 0.950 . S
C1392 H1384 0.950 . S
C1392 C1393 1.386 . S
C1392 C1394 1.391 . S
C1393 C1392 1.386 . S
C1393 C1397 1.393 . S
C1394 H1386 0.950 . S
C1394 C1392 1.391 . S
C1394 C1395 1.400 . S
C1395 C1394 1.400 . S
C1395 C1396 1.398 . S
C1395 C1401 1.491 . S
C1396 H1387 0.950 . S
C1396 C1395 1.398 . S
C1396 C1397 1.391 . S
C1397 H1385 0.950 . S
C1397 C1393 1.393 . S
C1397 C1396 1.391 . S
C1398 H1388 0.950 . S
C1398 C1399 1.386 . S
C1398 C1400 1.391 . S
C1399 C1398 1.386 . S
C1399 C1403 1.393 . S
C1400 H1389 0.950 . S
C1400 C1398 1.391 . S
C1400 C1401 1.400 . S
C1401 C1395 1.491 . S
C1401 C1400 1.400 . S
C1401 C1402 1.398 . S
C1402 H1390 0.950 . S
C1402 C1401 1.398 . S
C1402 C1403 1.391 . S
C1403 H1391 0.950 . S
C1403 C1399 1.393 . S
C1403 C1402 1.391 . S
H1404 C1412 0.950 . S
H1405 C1417 0.950 . S
H1406 C1414 0.950 . S
H1407 C1416 0.950 . S
H1408 C1418 0.950 . S
H1409 C1420 0.950 . S
H1410 C1422 0.950 . S
H1411 C1423 0.950 . S
C1412 H1404 0.950 . S
C1412 C1413 1.386 . S
C1412 C1414 1.391 . S
C1413 C1412 1.386 . S
C1413 C1417 1.393 . S
C1414 H1406 0.950 . S
C1414 C1412 1.391 . S
C1414 C1415 1.400 . S
C1415 C1414 1.400 . S
C1415 C1416 1.398 . S
C1415 C1421 1.491 . S
C1416 H1407 0.950 . S
C1416 C1415 1.398 . S
C1416 C1417 1.391 . S
C1417 H1405 0.950 . S
C1417 C1413 1.393 . S
C1417 C1416 1.391 . S
C1418 H1408 0.950 . S
C1418 C1419 1.386 . S
C1418 C1420 1.391 . S
C1419 C1418 1.386 . S
C1419 C1423 1.393 . S
C1420 H1409 0.950 . S
C1420 C1418 1.391 . S
C1420 C1421 1.400 . S
C1421 C1415 1.491 . S
C1421 C1420 1.400 . S
C1421 C1422 1.398 . S
C1422 H1410 0.950 . S
C1422 C1421 1.398 . S
C1422 C1423 1.391 . S
C1423 H1411 0.950 . S
C1423 C1419 1.393 . S
C1423 C1422 1.391 . S
H1424 C1432 0.950 . S
H1425 C1437 0.950 . S
H1426 C1434 0.950 . S
H1427 C1436 0.950 . S
H1428 C1438 0.950 . S
H1429 C1440 0.950 . S
H1430 C1442 0.950 . S
H1431 C1443 0.950 . S
C1432 H1424 0.950 . S
C1432 C1433 1.386 . S
C1432 C1434 1.391 . S
C1433 C1432 1.386 . S
C1433 C1437 1.393 . S
C1434 H1426 0.950 . S
C1434 C1432 1.391 . S
C1434 C1435 1.400 . S
C1435 C1434 1.400 . S
C1435 C1436 1.398 . S
C1435 C1441 1.491 . S
C1436 H1427 0.950 . S
C1436 C1435 1.398 . S
C1436 C1437 1.391 . S
C1437 H1425 0.950 . S
C1437 C1433 1.393 . S
C1437 C1436 1.391 . S
C1438 H1428 0.950 . S
C1438 C1439 1.386 . S
C1438 C1440 1.391 . S
C1439 C1438 1.386 . S
C1439 C1443 1.393 . S
C1440 H1429 0.950 . S
C1440 C1438 1.391 . S
C1440 C1441 1.400 . S
C1441 C1435 1.491 . S
C1441 C1440 1.400 . S
C1441 C1442 1.398 . S
C1442 H1430 0.950 . S
C1442 C1441 1.398 . S
C1442 C1443 1.391 . S
C1443 H1431 0.950 . S
C1443 C1439 1.393 . S
C1443 C1442 1.391 . S
H1444 C1452 0.950 . S
H1445 C1457 0.950 . S
H1446 C1454 0.950 . S
H1447 C1456 0.950 . S
H1448 C1458 0.950 . S
H1449 C1460 0.950 . S
H1450 C1462 0.950 . S
H1451 C1463 0.950 . S
C1452 H1444 0.950 . S
C1452 C1453 1.386 . S
C1452 C1454 1.391 . S
C1453 C1452 1.386 . S
C1453 C1457 1.393 . S
C1454 H1446 0.950 . S
C1454 C1452 1.391 . S
C1454 C1455 1.400 . S
C1455 C1454 1.400 . S
C1455 C1456 1.398 . S
C1455 C1461 1.491 . S
C1456 H1447 0.950 . S
C1456 C1455 1.398 . S
C1456 C1457 1.391 . S
C1457 H1445 0.950 . S
C1457 C1453 1.393 . S
C1457 C1456 1.391 . S
C1458 H1448 0.950 . S
C1458 C1459 1.386 . S
C1458 C1460 1.391 . S
C1459 C1458 1.386 . S
C1459 C1463 1.393 . S
C1460 H1449 0.950 . S
C1460 C1458 1.391 . S
C1460 C1461 1.400 . S
C1461 C1455 1.491 . S
C1461 C1460 1.400 . S
C1461 C1462 1.398 . S
C1462 H1450 0.950 . S
C1462 C1461 1.398 . S
C1462 C1463 1.391 . S
C1463 H1451 0.950 . S
C1463 C1459 1.393 . S
C1463 C1462 1.391 . S
H1464 C1472 0.950 . S
H1465 C1477 0.950 . S
H1466 C1474 0.950 . S
H1467 C1476 0.950 . S
H1468 C1478 0.950 . S
H1469 C1480 0.950 . S
H1470 C1482 0.950 . S
H1471 C1483 0.950 . S
C1472 H1464 0.950 . S
C1472 C1473 1.386 . S
C1472 C1474 1.391 . S
C1473 C1472 1.386 . S
C1473 C1477 1.393 . S
C1474 H1466 0.950 . S
C1474 C1472 1.391 . S
C1474 C1475 1.400 . S
C1475 C1474 1.400 . S
C1475 C1476 1.398 . S
C1475 C1481 1.491 . S
C1476 H1467 0.950 . S
C1476 C1475 1.398 . S
C1476 C1477 1.391 . S
C1477 H1465 0.950 . S
C1477 C1473 1.393 . S
C1477 C1476 1.391 . S
C1478 H1468 0.950 . S
C1478 C1479 1.386 . S
C1478 C1480 1.391 . S
C1479 C1478 1.386 . S
C1479 C1483 1.393 . S
C1480 H1469 0.950 . S
C1480 C1478 1.391 . S
C1480 C1481 1.400 . S
C1481 C1475 1.491 . S
C1481 C1480 1.400 . S
C1481 C1482 1.398 . S
C1482 H1470 0.950 . S
C1482 C1481 1.398 . S
C1482 C1483 1.391 . S
C1483 H1471 0.950 . S
C1483 C1479 1.393 . S
C1483 C1482 1.391 . S
H1484 C1492 0.950 . S
H1485 C1497 0.950 . S
H1486 C1494 0.950 . S
H1487 C1496 0.950 . S
H1488 C1498 0.950 . S
H1489 C1500 0.950 . S
H1490 C1502 0.950 . S
H1491 C1503 0.950 . S
C1492 H1484 0.950 . S
C1492 C1493 1.386 . S
C1492 C1494 1.391 . S
C1493 C1492 1.386 . S
C1493 C1497 1.393 . S
C1494 H1486 0.950 . S
C1494 C1492 1.391 . S
C1494 C1495 1.400 . S
C1495 C1494 1.400 . S
C1495 C1496 1.398 . S
C1495 C1501 1.491 . S
C1496 H1487 0.950 . S
C1496 C1495 1.398 . S
C1496 C1497 1.391 . S
C1497 H1485 0.950 . S
C1497 C1493 1.393 . S
C1497 C1496 1.391 . S
C1498 H1488 0.950 . S
C1498 C1499 1.386 . S
C1498 C1500 1.391 . S
C1499 C1498 1.386 . S
C1499 C1503 1.393 . S
C1500 H1489 0.950 . S
C1500 C1498 1.391 . S
C1500 C1501 1.400 . S
C1501 C1495 1.491 . S
C1501 C1500 1.400 . S
C1501 C1502 1.398 . S
C1502 H1490 0.950 . S
C1502 C1501 1.398 . S
C1502 C1503 1.391 . S
C1503 H1491 0.950 . S
C1503 C1499 1.393 . S
C1503 C1502 1.391 . S
H1504 C1512 0.950 . S
H1505 C1517 0.950 1_545 S
H1506 C1514 0.950 . S
H1507 C1516 0.950 . S
H1508 C1518 0.950 1_455 S
H1509 C1520 0.950 . S
H1510 C1522 0.950 . S
H1511 C1523 0.950 . S
C1512 H1504 0.950 . S
C1512 C1513 1.386 . S
C1512 C1514 1.391 . S
C1513 C1512 1.386 . S
C1513 C1517 1.393 . S
C1514 H1506 0.950 . S
C1514 C1512 1.391 . S
C1514 C1515 1.400 . S
C1515 C1514 1.400 . S
C1515 C1516 1.398 . S
C1515 C1521 1.491 . S
C1516 H1507 0.950 . S
C1516 C1515 1.398 . S
C1516 C1517 1.391 . S
C1517 H1505 0.950 1_565 S
C1517 C1513 1.393 . S
C1517 C1516 1.391 . S
C1518 H1508 0.950 1_655 S
C1518 C1519 1.386 . S
C1518 C1520 1.391 . S
C1519 C1518 1.386 . S
C1519 C1523 1.393 . S
C1520 H1509 0.950 . S
C1520 C1518 1.391 . S
C1520 C1521 1.400 . S
C1521 C1515 1.491 . S
C1521 C1520 1.400 . S
C1521 C1522 1.398 . S
C1522 H1510 0.950 . S
C1522 C1521 1.398 . S
C1522 C1523 1.391 . S
C1523 H1511 0.950 . S
C1523 C1519 1.393 . S
C1523 C1522 1.391 . S
H1524 C1532 0.950 . S
H1525 C1537 0.950 . S
H1526 C1534 0.950 . S
H1527 C1536 0.950 . S
H1528 C1538 0.950 . S
H1529 C1540 0.950 . S
H1530 C1542 0.950 . S
H1531 C1543 0.950 . S
C1532 H1524 0.950 . S
C1532 C1533 1.386 . S
C1532 C1534 1.391 . S
C1533 C1532 1.386 . S
C1533 C1537 1.393 . S
C1534 H1526 0.950 . S
C1534 C1532 1.391 . S
C1534 C1535 1.400 . S
C1535 C1534 1.400 . S
C1535 C1536 1.398 . S
C1535 C1541 1.491 . S
C1536 H1527 0.950 . S
C1536 C1535 1.398 . S
C1536 C1537 1.391 . S
C1537 H1525 0.950 . S
C1537 C1533 1.393 . S
C1537 C1536 1.391 . S
C1538 H1528 0.950 . S
C1538 C1539 1.386 . S
C1538 C1540 1.391 . S
C1539 C1538 1.386 . S
C1539 C1543 1.393 . S
C1540 H1529 0.950 . S
C1540 C1538 1.391 . S
C1540 C1541 1.400 . S
C1541 C1535 1.491 . S
C1541 C1540 1.400 . S
C1541 C1542 1.398 . S
C1542 H1530 0.950 . S
C1542 C1541 1.398 . S
C1542 C1543 1.391 . S
C1543 H1531 0.950 . S
C1543 C1539 1.393 . S
C1543 C1542 1.391 . S
H1544 C1552 0.950 . S
H1545 C1557 0.950 1_655 S
H1546 C1554 0.950 . S
H1547 C1556 0.950 . S
H1548 C1558 0.950 . S
H1549 C1560 0.950 . S
H1550 C1562 0.950 . S
H1551 C1563 0.950 . S
C1552 H1544 0.950 . S
C1552 C1553 1.386 . S
C1552 C1554 1.391 . S
C1553 C1552 1.386 . S
C1553 C1557 1.393 . S
C1554 H1546 0.950 . S
C1554 C1552 1.391 . S
C1554 C1555 1.400 . S
C1555 C1554 1.400 . S
C1555 C1556 1.398 . S
C1555 C1561 1.491 . S
C1556 H1547 0.950 . S
C1556 C1555 1.398 . S
C1556 C1557 1.391 . S
C1557 H1545 0.950 1_455 S
C1557 C1553 1.393 . S
C1557 C1556 1.391 . S
C1558 H1548 0.950 . S
C1558 C1559 1.386 . S
C1558 C1560 1.391 . S
C1559 C1558 1.386 . S
C1559 C1563 1.393 . S
C1560 H1549 0.950 . S
C1560 C1558 1.391 . S
C1560 C1561 1.400 . S
C1561 C1555 1.491 . S
C1561 C1560 1.400 . S
C1561 C1562 1.398 . S
C1562 H1550 0.950 . S
C1562 C1561 1.398 . S
C1562 C1563 1.391 . S
C1563 H1551 0.950 . S
C1563 C1559 1.393 . S
C1563 C1562 1.391 . S
H1564 C1572 0.950 . S
H1565 C1577 0.950 . S
H1566 C1574 0.950 . S
H1567 C1576 0.950 . S
H1568 C1578 0.950 . S
H1569 C1580 0.950 . S
H1570 C1582 0.950 . S
H1571 C1583 0.950 . S
C1572 H1564 0.950 . S
C1572 C1573 1.386 . S
C1572 C1574 1.391 . S
C1573 C1572 1.386 . S
C1573 C1577 1.393 . S
C1574 H1566 0.950 . S
C1574 C1572 1.391 . S
C1574 C1575 1.400 . S
C1575 C1574 1.400 . S
C1575 C1576 1.398 . S
C1575 C1581 1.491 . S
C1576 H1567 0.950 . S
C1576 C1575 1.398 . S
C1576 C1577 1.391 . S
C1577 H1565 0.950 . S
C1577 C1573 1.393 . S
C1577 C1576 1.391 . S
C1578 H1568 0.950 . S
C1578 C1579 1.386 . S
C1578 C1580 1.391 . S
C1579 C1578 1.386 . S
C1579 C1583 1.393 . S
C1580 H1569 0.950 . S
C1580 C1578 1.391 . S
C1580 C1581 1.400 . S
C1581 C1575 1.491 . S
C1581 C1580 1.400 . S
C1581 C1582 1.398 . S
C1582 H1570 0.950 . S
C1582 C1581 1.398 . S
C1582 C1583 1.391 . S
C1583 H1571 0.950 . S
C1583 C1579 1.393 . S
C1583 C1582 1.391 . S
H1584 C1592 0.950 . S
H1585 C1597 0.950 . S
H1586 C1594 0.950 . S
H1587 C1596 0.950 . S
H1588 C1598 0.950 . S
H1589 C1600 0.950 . S
H1590 C1602 0.950 . S
H1591 C1603 0.950 . S
C1592 H1584 0.950 . S
C1592 C1593 1.386 . S
C1592 C1594 1.391 . S
C1593 C1592 1.386 . S
C1593 C1597 1.393 . S
C1594 H1586 0.950 . S
C1594 C1592 1.391 . S
C1594 C1595 1.400 . S
C1595 C1594 1.400 . S
C1595 C1596 1.398 . S
C1595 C1601 1.491 . S
C1596 H1587 0.950 . S
C1596 C1595 1.398 . S
C1596 C1597 1.391 . S
C1597 H1585 0.950 . S
C1597 C1593 1.393 . S
C1597 C1596 1.391 . S
C1598 H1588 0.950 . S
C1598 C1599 1.386 . S
C1598 C1600 1.391 . S
C1599 C1598 1.386 . S
C1599 C1603 1.393 . S
C1600 H1589 0.950 . S
C1600 C1598 1.391 . S
C1600 C1601 1.400 . S
C1601 C1595 1.491 . S
C1601 C1600 1.400 . S
C1601 C1602 1.398 . S
C1602 H1590 0.950 . S
C1602 C1601 1.398 . S
C1602 C1603 1.391 . S
C1603 H1591 0.950 . S
C1603 C1599 1.393 . S
C1603 C1602 1.391 . S
H1604 C1612 0.950 . S
H1605 C1617 0.950 . S
H1606 C1614 0.950 . S
H1607 C1616 0.950 . S
H1608 C1618 0.950 . S
H1609 C1620 0.950 . S
H1610 C1622 0.950 . S
H1611 C1623 0.950 . S
C1612 H1604 0.950 . S
C1612 C1613 1.386 . S
C1612 C1614 1.391 . S
C1613 C1612 1.386 . S
C1613 C1617 1.393 . S
C1614 H1606 0.950 . S
C1614 C1612 1.391 . S
C1614 C1615 1.400 . S
C1615 C1614 1.400 . S
C1615 C1616 1.398 . S
C1615 C1621 1.491 . S
C1616 H1607 0.950 . S
C1616 C1615 1.398 . S
C1616 C1617 1.391 . S
C1617 H1605 0.950 . S
C1617 C1613 1.393 . S
C1617 C1616 1.391 . S
C1618 H1608 0.950 . S
C1618 C1619 1.386 . S
C1618 C1620 1.391 . S
C1619 C1618 1.386 . S
C1619 C1623 1.393 . S
C1620 H1609 0.950 . S
C1620 C1618 1.391 . S
C1620 C1621 1.400 . S
C1621 C1615 1.491 . S
C1621 C1620 1.400 . S
C1621 C1622 1.398 . S
C1622 H1610 0.950 . S
C1622 C1621 1.398 . S
C1622 C1623 1.391 . S
C1623 H1611 0.950 . S
C1623 C1619 1.393 . S
C1623 C1622 1.391 . S
H1624 C1632 0.950 . S
H1625 C1637 0.950 . S
H1626 C1634 0.950 . S
H1627 C1636 0.950 . S
H1628 C1638 0.950 . S
H1629 C1640 0.950 . S
H1630 C1642 0.950 . S
H1631 C1643 0.950 . S
C1632 H1624 0.950 . S
C1632 C1633 1.386 . S
C1632 C1634 1.391 . S
C1633 C1632 1.386 . S
C1633 C1637 1.393 . S
C1634 H1626 0.950 . S
C1634 C1632 1.391 . S
C1634 C1635 1.400 . S
C1635 C1634 1.400 . S
C1635 C1636 1.398 . S
C1635 C1641 1.491 . S
C1636 H1627 0.950 . S
C1636 C1635 1.398 . S
C1636 C1637 1.391 . S
C1637 H1625 0.950 . S
C1637 C1633 1.393 . S
C1637 C1636 1.391 . S
C1638 H1628 0.950 . S
C1638 C1639 1.386 . S
C1638 C1640 1.391 . S
C1639 C1638 1.386 . S
C1639 C1643 1.393 . S
C1640 H1629 0.950 . S
C1640 C1638 1.391 . S
C1640 C1641 1.400 . S
C1641 C1635 1.491 . S
C1641 C1640 1.400 . S
C1641 C1642 1.398 . S
C1642 H1630 0.950 . S
C1642 C1641 1.398 . S
C1642 C1643 1.391 . S
C1643 H1631 0.950 . S
C1643 C1639 1.393 . S
C1643 C1642 1.391 . S
H1644 C1652 0.950 . S
H1645 C1657 0.950 1_655 S
H1646 C1654 0.950 . S
H1647 C1656 0.950 . S
H1648 C1658 0.950 . S
H1649 C1660 0.950 . S
H1650 C1662 0.950 . S
H1651 C1663 0.950 . S
C1652 H1644 0.950 . S
C1652 C1653 1.386 . S
C1652 C1654 1.391 . S
C1653 C1652 1.386 . S
C1653 C1657 1.393 . S
C1654 H1646 0.950 . S
C1654 C1652 1.391 . S
C1654 C1655 1.400 . S
C1655 C1654 1.400 . S
C1655 C1656 1.398 . S
C1655 C1661 1.491 . S
C1656 H1647 0.950 . S
C1656 C1655 1.398 . S
C1656 C1657 1.391 . S
C1657 H1645 0.950 1_455 S
C1657 C1653 1.393 . S
C1657 C1656 1.391 . S
C1658 H1648 0.950 . S
C1658 C1659 1.386 . S
C1658 C1660 1.391 . S
C1659 C1658 1.386 . S
C1659 C1663 1.393 . S
C1660 H1649 0.950 . S
C1660 C1658 1.391 . S
C1660 C1661 1.400 . S
C1661 C1655 1.491 . S
C1661 C1660 1.400 . S
C1661 C1662 1.398 . S
C1662 H1650 0.950 . S
C1662 C1661 1.398 . S
C1662 C1663 1.391 . S
C1663 H1651 0.950 . S
C1663 C1659 1.393 . S
C1663 C1662 1.391 . S
H1664 C1672 0.950 . S
H1665 C1677 0.950 . S
H1666 C1674 0.950 . S
H1667 C1676 0.950 . S
H1668 C1678 0.950 . S
H1669 C1680 0.950 . S
H1670 C1682 0.950 . S
H1671 C1683 0.950 . S
C1672 H1664 0.950 . S
C1672 C1673 1.386 . S
C1672 C1674 1.391 . S
C1673 C1672 1.386 . S
C1673 C1677 1.393 . S
C1674 H1666 0.950 . S
C1674 C1672 1.391 . S
C1674 C1675 1.400 . S
C1675 C1674 1.400 . S
C1675 C1676 1.398 . S
C1675 C1681 1.491 . S
C1676 H1667 0.950 . S
C1676 C1675 1.398 . S
C1676 C1677 1.391 . S
C1677 H1665 0.950 . S
C1677 C1673 1.393 . S
C1677 C1676 1.391 . S
C1678 H1668 0.950 . S
C1678 C1679 1.386 . S
C1678 C1680 1.391 . S
C1679 C1678 1.386 . S
C1679 C1683 1.393 . S
C1680 H1669 0.950 . S
C1680 C1678 1.391 . S
C1680 C1681 1.400 . S
C1681 C1675 1.491 . S
C1681 C1680 1.400 . S
C1681 C1682 1.398 . S
C1682 H1670 0.950 . S
C1682 C1681 1.398 . S
C1682 C1683 1.391 . S
C1683 H1671 0.950 . S
C1683 C1679 1.393 . S
C1683 C1682 1.391 . S
H1684 C1692 0.950 . S
H1685 C1697 0.950 . S
H1686 C1694 0.950 . S
H1687 C1696 0.950 . S
H1688 C1698 0.950 . S
H1689 C1700 0.950 . S
H1690 C1702 0.950 . S
H1691 C1703 0.950 1_655 S
C1692 H1684 0.950 . S
C1692 C1693 1.386 . S
C1692 C1694 1.391 . S
C1693 C1692 1.386 . S
C1693 C1697 1.393 . S
C1694 H1686 0.950 . S
C1694 C1692 1.391 . S
C1694 C1695 1.400 . S
C1695 C1694 1.400 . S
C1695 C1696 1.398 . S
C1695 C1701 1.491 . S
C1696 H1687 0.950 . S
C1696 C1695 1.398 . S
C1696 C1697 1.391 . S
C1697 H1685 0.950 . S
C1697 C1693 1.393 . S
C1697 C1696 1.391 . S
C1698 H1688 0.950 . S
C1698 C1699 1.386 . S
C1698 C1700 1.391 . S
C1699 C1698 1.386 . S
C1699 C1703 1.393 . S
C1700 H1689 0.950 . S
C1700 C1698 1.391 . S
C1700 C1701 1.400 . S
C1701 C1695 1.491 . S
C1701 C1700 1.400 . S
C1701 C1702 1.398 . S
C1702 H1690 0.950 . S
C1702 C1701 1.398 . S
C1702 C1703 1.391 . S
C1703 H1691 0.950 1_455 S
C1703 C1699 1.393 . S
C1703 C1702 1.391 . S
H1704 C1712 0.950 . S
H1705 C1717 0.950 . S
H1706 C1714 0.950 . S
H1707 C1716 0.950 . S
H1708 C1718 0.950 . S
H1709 C1720 0.950 . S
H1710 C1722 0.950 . S
H1711 C1723 0.950 . S
C1712 H1704 0.950 . S
C1712 C1713 1.386 . S
C1712 C1714 1.391 . S
C1713 C1712 1.386 . S
C1713 C1717 1.393 . S
C1714 H1706 0.950 . S
C1714 C1712 1.391 . S
C1714 C1715 1.400 . S
C1715 C1714 1.400 . S
C1715 C1716 1.398 . S
C1715 C1721 1.491 . S
C1716 H1707 0.950 . S
C1716 C1715 1.398 . S
C1716 C1717 1.391 . S
C1717 H1705 0.950 . S
C1717 C1713 1.393 . S
C1717 C1716 1.391 . S
C1718 H1708 0.950 . S
C1718 C1719 1.386 . S
C1718 C1720 1.391 . S
C1719 C1718 1.386 . S
C1719 C1723 1.393 . S
C1720 H1709 0.950 . S
C1720 C1718 1.391 . S
C1720 C1721 1.400 . S
C1721 C1715 1.491 . S
C1721 C1720 1.400 . S
C1721 C1722 1.398 . S
C1722 H1710 0.950 . S
C1722 C1721 1.398 . S
C1722 C1723 1.391 . S
C1723 H1711 0.950 . S
C1723 C1719 1.393 . S
C1723 C1722 1.391 . S
H1724 C1732 0.950 . S
H1725 C1737 0.950 . S
H1726 C1734 0.950 . S
H1727 C1736 0.950 . S
H1728 C1738 0.950 . S
H1729 C1740 0.950 . S
H1730 C1742 0.950 . S
H1731 C1743 0.950 . S
C1732 H1724 0.950 . S
C1732 C1733 1.386 . S
C1732 C1734 1.391 . S
C1733 C1732 1.386 . S
C1733 C1737 1.393 . S
C1734 H1726 0.950 . S
C1734 C1732 1.391 . S
C1734 C1735 1.400 . S
C1735 C1734 1.400 . S
C1735 C1736 1.398 . S
C1735 C1741 1.491 . S
C1736 H1727 0.950 . S
C1736 C1735 1.398 . S
C1736 C1737 1.391 . S
C1737 H1725 0.950 . S
C1737 C1733 1.393 . S
C1737 C1736 1.391 . S
C1738 H1728 0.950 . S
C1738 C1739 1.386 . S
C1738 C1740 1.391 . S
C1739 C1738 1.386 . S
C1739 C1743 1.393 . S
C1740 H1729 0.950 . S
C1740 C1738 1.391 . S
C1740 C1741 1.400 . S
C1741 C1735 1.491 . S
C1741 C1740 1.400 . S
C1741 C1742 1.398 . S
C1742 H1730 0.950 . S
C1742 C1741 1.398 . S
C1742 C1743 1.391 . S
C1743 H1731 0.950 . S
C1743 C1739 1.393 . S
C1743 C1742 1.391 . S
H1744 C1752 0.950 . S
H1745 C1757 0.950 . S
H1746 C1754 0.950 . S
H1747 C1756 0.950 . S
H1748 C1758 0.950 . S
H1749 C1760 0.950 . S
H1750 C1762 0.950 . S
H1751 C1763 0.950 . S
C1752 H1744 0.950 . S
C1752 C1753 1.386 . S
C1752 C1754 1.391 . S
C1753 C1752 1.386 . S
C1753 C1757 1.393 . S
C1754 H1746 0.950 . S
C1754 C1752 1.391 . S
C1754 C1755 1.400 . S
C1755 C1754 1.400 . S
C1755 C1756 1.398 . S
C1755 C1761 1.491 . S
C1756 H1747 0.950 . S
C1756 C1755 1.398 . S
C1756 C1757 1.391 . S
C1757 H1745 0.950 . S
C1757 C1753 1.393 . S
C1757 C1756 1.391 . S
C1758 H1748 0.950 . S
C1758 C1759 1.386 . S
C1758 C1760 1.391 . S
C1759 C1758 1.386 . S
C1759 C1763 1.393 . S
C1760 H1749 0.950 . S
C1760 C1758 1.391 . S
C1760 C1761 1.400 . S
C1761 C1755 1.491 . S
C1761 C1760 1.400 . S
C1761 C1762 1.398 . S
C1762 H1750 0.950 . S
C1762 C1761 1.398 . S
C1762 C1763 1.391 . S
C1763 H1751 0.950 . S
C1763 C1759 1.393 . S
C1763 C1762 1.391 . S
H1764 C1772 0.950 . S
H1765 C1777 0.950 . S
H1766 C1774 0.950 . S
H1767 C1776 0.950 . S
H1768 C1778 0.950 . S
H1769 C1780 0.950 . S
H1770 C1782 0.950 . S
H1771 C1783 0.950 . S
C1772 H1764 0.950 . S
C1772 C1773 1.386 . S
C1772 C1774 1.391 . S
C1773 C1772 1.386 . S
C1773 C1777 1.393 . S
C1774 H1766 0.950 . S
C1774 C1772 1.391 . S
C1774 C1775 1.400 . S
C1775 C1774 1.400 . S
C1775 C1776 1.398 . S
C1775 C1781 1.491 . S
C1776 H1767 0.950 . S
C1776 C1775 1.398 . S
C1776 C1777 1.391 . S
C1777 H1765 0.950 . S
C1777 C1773 1.393 . S
C1777 C1776 1.391 . S
C1778 H1768 0.950 . S
C1778 C1779 1.386 . S
C1778 C1780 1.391 . S
C1779 C1778 1.386 . S
C1779 C1783 1.393 . S
C1780 H1769 0.950 . S
C1780 C1778 1.391 . S
C1780 C1781 1.400 . S
C1781 C1775 1.491 . S
C1781 C1780 1.400 . S
C1781 C1782 1.398 . S
C1782 H1770 0.950 . S
C1782 C1781 1.398 . S
C1782 C1783 1.391 . S
C1783 H1771 0.950 . S
C1783 C1779 1.393 . S
C1783 C1782 1.391 . S
H1784 C1792 0.950 . S
H1785 C1797 0.950 . S
H1786 C1794 0.950 . S
H1787 C1796 0.950 . S
H1788 C1798 0.950 . S
H1789 C1800 0.950 . S
H1790 C1802 0.950 . S
H1791 C1803 0.950 . S
C1792 H1784 0.950 . S
C1792 C1793 1.386 . S
C1792 C1794 1.391 . S
C1793 C1792 1.386 . S
C1793 C1797 1.393 . S
C1794 H1786 0.950 . S
C1794 C1792 1.391 . S
C1794 C1795 1.400 . S
C1795 C1794 1.400 . S
C1795 C1796 1.398 . S
C1795 C1801 1.491 . S
C1796 H1787 0.950 . S
C1796 C1795 1.398 . S
C1796 C1797 1.391 . S
C1797 H1785 0.950 . S
C1797 C1793 1.393 . S
C1797 C1796 1.391 . S
C1798 H1788 0.950 . S
C1798 C1799 1.386 . S
C1798 C1800 1.391 . S
C1799 C1798 1.386 . S
C1799 C1803 1.393 . S
C1800 H1789 0.950 . S
C1800 C1798 1.391 . S
C1800 C1801 1.400 . S
C1801 C1795 1.491 . S
C1801 C1800 1.400 . S
C1801 C1802 1.398 . S
C1802 H1790 0.950 . S
C1802 C1801 1.398 . S
C1802 C1803 1.391 . S
C1803 H1791 0.950 . S
C1803 C1799 1.393 . S
C1803 C1802 1.391 . S
H1804 C1812 0.950 . S
H1805 C1817 0.950 . S
H1806 C1814 0.950 . S
H1807 C1816 0.950 . S
H1808 C1818 0.950 . S
H1809 C1820 0.950 . S
H1810 C1822 0.950 . S
H1811 C1823 0.950 . S
C1812 H1804 0.950 . S
C1812 C1813 1.386 . S
C1812 C1814 1.391 . S
C1813 C1812 1.386 . S
C1813 C1817 1.393 . S
C1814 H1806 0.950 . S
C1814 C1812 1.391 . S
C1814 C1815 1.400 . S
C1815 C1814 1.400 . S
C1815 C1816 1.398 . S
C1815 C1821 1.491 . S
C1816 H1807 0.950 . S
C1816 C1815 1.398 . S
C1816 C1817 1.391 . S
C1817 H1805 0.950 . S
C1817 C1813 1.393 . S
C1817 C1816 1.391 . S
C1818 H1808 0.950 . S
C1818 C1819 1.386 . S
C1818 C1820 1.391 . S
C1819 C1818 1.386 . S
C1819 C1823 1.393 . S
C1820 H1809 0.950 . S
C1820 C1818 1.391 . S
C1820 C1821 1.400 . S
C1821 C1815 1.491 . S
C1821 C1820 1.400 . S
C1821 C1822 1.398 . S
C1822 H1810 0.950 . S
C1822 C1821 1.398 . S
C1822 C1823 1.391 . S
C1823 H1811 0.950 . S
C1823 C1819 1.393 . S
C1823 C1822 1.391 . S
H1824 C1832 0.950 . S
H1825 C1837 0.950 . S
H1826 C1834 0.950 . S
H1827 C1836 0.950 . S
H1828 C1838 0.950 . S
H1829 C1840 0.950 . S
H1830 C1842 0.950 . S
H1831 C1843 0.950 . S
C1832 H1824 0.950 . S
C1832 C1833 1.386 . S
C1832 C1834 1.391 . S
C1833 C1832 1.386 . S
C1833 C1837 1.393 . S
C1834 H1826 0.950 . S
C1834 C1832 1.391 . S
C1834 C1835 1.400 . S
C1835 C1834 1.400 . S
C1835 C1836 1.398 . S
C1835 C1841 1.491 . S
C1836 H1827 0.950 . S
C1836 C1835 1.398 . S
C1836 C1837 1.391 . S
C1837 H1825 0.950 . S
C1837 C1833 1.393 . S
C1837 C1836 1.391 . S
C1838 H1828 0.950 . S
C1838 C1839 1.386 . S
C1838 C1840 1.391 . S
C1839 C1838 1.386 . S
C1839 C1843 1.393 . S
C1840 H1829 0.950 . S
C1840 C1838 1.391 . S
C1840 C1841 1.400 . S
C1841 C1835 1.491 . S
C1841 C1840 1.400 . S
C1841 C1842 1.398 . S
C1842 H1830 0.950 . S
C1842 C1841 1.398 . S
C1842 C1843 1.391 . S
C1843 H1831 0.950 . S
C1843 C1839 1.393 . S
C1843 C1842 1.391 . S
H1844 C1852 0.950 . S
H1845 C1857 0.950 . S
H1846 C1854 0.950 . S
H1847 C1856 0.950 . S
H1848 C1858 0.950 1_554 S
H1849 C1860 0.950 . S
H1850 C1862 0.950 . S
H1851 C1863 0.950 . S
C1852 H1844 0.950 . S
C1852 C1853 1.386 . S
C1852 C1854 1.391 . S
C1853 C1852 1.386 . S
C1853 C1857 1.393 . S
C1854 H1846 0.950 . S
C1854 C1852 1.391 . S
C1854 C1855 1.400 . S
C1855 C1854 1.400 . S
C1855 C1856 1.398 . S
C1855 C1861 1.491 . S
C1856 H1847 0.950 . S
C1856 C1855 1.398 . S
C1856 C1857 1.391 . S
C1857 H1845 0.950 . S
C1857 C1853 1.393 . S
C1857 C1856 1.391 . S
C1858 H1848 0.950 1_556 S
C1858 C1859 1.386 . S
C1858 C1860 1.391 . S
C1859 C1858 1.386 . S
C1859 C1863 1.393 . S
C1860 H1849 0.950 . S
C1860 C1858 1.391 . S
C1860 C1861 1.400 . S
C1861 C1855 1.491 . S
C1861 C1860 1.400 . S
C1861 C1862 1.398 . S
C1862 H1850 0.950 . S
C1862 C1861 1.398 . S
C1862 C1863 1.391 . S
C1863 H1851 0.950 . S
C1863 C1859 1.393 . S
C1863 C1862 1.391 . S
H1864 C1872 0.950 . S
H1865 C1877 0.950 . S
H1866 C1874 0.950 . S
H1867 C1876 0.950 . S
H1868 C1878 0.950 . S
H1869 C1880 0.950 . S
H1870 C1882 0.950 . S
H1871 C1883 0.950 . S
C1872 H1864 0.950 . S
C1872 C1873 1.386 . S
C1872 C1874 1.391 . S
C1873 C1872 1.386 . S
C1873 C1877 1.393 . S
C1874 H1866 0.950 . S
C1874 C1872 1.391 . S
C1874 C1875 1.400 . S
C1875 C1874 1.400 . S
C1875 C1876 1.398 . S
C1875 C1881 1.491 . S
C1876 H1867 0.950 . S
C1876 C1875 1.398 . S
C1876 C1877 1.391 . S
C1877 H1865 0.950 . S
C1877 C1873 1.393 . S
C1877 C1876 1.391 . S
C1878 H1868 0.950 . S
C1878 C1879 1.386 . S
C1878 C1880 1.391 . S
C1879 C1878 1.386 . S
C1879 C1883 1.393 . S
C1880 H1869 0.950 . S
C1880 C1878 1.391 . S
C1880 C1881 1.400 . S
C1881 C1875 1.491 . S
C1881 C1880 1.400 . S
C1881 C1882 1.398 . S
C1882 H1870 0.950 . S
C1882 C1881 1.398 . S
C1882 C1883 1.391 . S
C1883 H1871 0.950 . S
C1883 C1879 1.393 . S
C1883 C1882 1.391 . S
H1884 C1892 0.950 . S
H1885 C1897 0.950 . S
H1886 C1894 0.950 . S
H1887 C1896 0.950 . S
H1888 C1898 0.950 . S
H1889 C1900 0.950 . S
H1890 C1902 0.950 . S
H1891 C1903 0.950 . S
C1892 H1884 0.950 . S
C1892 C1893 1.386 . S
C1892 C1894 1.391 . S
C1893 C1892 1.386 . S
C1893 C1897 1.393 . S
C1894 H1886 0.950 . S
C1894 C1892 1.391 . S
C1894 C1895 1.400 . S
C1895 C1894 1.400 . S
C1895 C1896 1.398 . S
C1895 C1901 1.491 . S
C1896 H1887 0.950 . S
C1896 C1895 1.398 . S
C1896 C1897 1.391 . S
C1897 H1885 0.950 . S
C1897 C1893 1.393 . S
C1897 C1896 1.391 . S
C1898 H1888 0.950 . S
C1898 C1899 1.386 . S
C1898 C1900 1.391 . S
C1899 C1898 1.386 . S
C1899 C1903 1.393 . S
C1900 H1889 0.950 . S
C1900 C1898 1.391 . S
C1900 C1901 1.400 . S
C1901 C1895 1.491 . S
C1901 C1900 1.400 . S
C1901 C1902 1.398 . S
C1902 H1890 0.950 . S
C1902 C1901 1.398 . S
C1902 C1903 1.391 . S
C1903 H1891 0.950 . S
C1903 C1899 1.393 . S
C1903 C1902 1.391 . S
H1904 C1912 0.950 . S
H1905 C1917 0.950 . S
H1906 C1914 0.950 . S
H1907 C1916 0.950 . S
H1908 C1918 0.950 . S
H1909 C1920 0.950 . S
H1910 C1922 0.950 . S
H1911 C1923 0.950 . S
C1912 H1904 0.950 . S
C1912 C1913 1.386 . S
C1912 C1914 1.391 . S
C1913 C1912 1.386 . S
C1913 C1917 1.393 . S
C1914 H1906 0.950 . S
C1914 C1912 1.391 . S
C1914 C1915 1.400 . S
C1915 C1914 1.400 . S
C1915 C1916 1.398 . S
C1915 C1921 1.491 . S
C1916 H1907 0.950 . S
C1916 C1915 1.398 . S
C1916 C1917 1.391 . S
C1917 H1905 0.950 . S
C1917 C1913 1.393 . S
C1917 C1916 1.391 . S
C1918 H1908 0.950 . S
C1918 C1919 1.386 . S
C1918 C1920 1.391 . S
C1919 C1918 1.386 . S
C1919 C1923 1.393 . S
C1920 H1909 0.950 . S
C1920 C1918 1.391 . S
C1920 C1921 1.400 . S
C1921 C1915 1.491 . S
C1921 C1920 1.400 . S
C1921 C1922 1.398 . S
C1922 H1910 0.950 . S
C1922 C1921 1.398 . S
C1922 C1923 1.391 . S
C1923 H1911 0.950 . S
C1923 C1919 1.393 . S
C1923 C1922 1.391 . S
H1924 C1932 0.950 . S
H1925 C1937 0.950 . S
H1926 C1934 0.950 . S
H1927 C1936 0.950 . S
H1928 C1938 0.950 . S
H1929 C1940 0.950 . S
H1930 C1942 0.950 . S
H1931 C1943 0.950 . S
C1932 H1924 0.950 . S
C1932 C1933 1.386 . S
C1932 C1934 1.391 . S
C1933 C1932 1.386 . S
C1933 C1937 1.393 . S
C1934 H1926 0.950 . S
C1934 C1932 1.391 . S
C1934 C1935 1.400 . S
C1935 C1934 1.400 . S
C1935 C1936 1.398 . S
C1935 C1941 1.491 . S
C1936 H1927 0.950 . S
C1936 C1935 1.398 . S
C1936 C1937 1.391 . S
C1937 H1925 0.950 . S
C1937 C1933 1.393 . S
C1937 C1936 1.391 . S
C1938 H1928 0.950 . S
C1938 C1939 1.386 . S
C1938 C1940 1.391 . S
C1939 C1938 1.386 . S
C1939 C1943 1.393 . S
C1940 H1929 0.950 . S
C1940 C1938 1.391 . S
C1940 C1941 1.400 . S
C1941 C1935 1.491 . S
C1941 C1940 1.400 . S
C1941 C1942 1.398 . S
C1942 H1930 0.950 . S
C1942 C1941 1.398 . S
C1942 C1943 1.391 . S
C1943 H1931 0.950 . S
C1943 C1939 1.393 . S
C1943 C1942 1.391 . S
H1944 C1952 0.950 . S
H1945 C1957 0.950 . S
H1946 C1954 0.950 . S
H1947 C1956 0.950 . S
H1948 C1958 0.950 1_565 S
H1949 C1960 0.950 . S
H1950 C1962 0.950 . S
H1951 C1963 0.950 . S
C1952 H1944 0.950 . S
C1952 C1953 1.386 . S
C1952 C1954 1.391 . S
C1953 C1952 1.386 . S
C1953 C1957 1.393 . S
C1954 H1946 0.950 . S
C1954 C1952 1.391 . S
C1954 C1955 1.400 . S
C1955 C1954 1.400 . S
C1955 C1956 1.398 . S
C1955 C1961 1.491 . S
C1956 H1947 0.950 . S
C1956 C1955 1.398 . S
C1956 C1957 1.391 . S
C1957 H1945 0.950 . S
C1957 C1953 1.393 . S
C1957 C1956 1.391 . S
C1958 H1948 0.950 1_545 S
C1958 C1959 1.386 . S
C1958 C1960 1.391 . S
C1959 C1958 1.386 . S
C1959 C1963 1.393 . S
C1960 H1949 0.950 . S
C1960 C1958 1.391 . S
C1960 C1961 1.400 . S
C1961 C1955 1.491 . S
C1961 C1960 1.400 . S
C1961 C1962 1.398 . S
C1962 H1950 0.950 . S
C1962 C1961 1.398 . S
C1962 C1963 1.391 . S
C1963 H1951 0.950 . S
C1963 C1959 1.393 . S
C1963 C1962 1.391 . S
H1964 C1972 0.950 . S
H1965 C1977 0.950 . S
H1966 C1974 0.950 . S
H1967 C1976 0.950 . S
H1968 C1978 0.950 . S
H1969 C1980 0.950 . S
H1970 C1982 0.950 . S
H1971 C1983 0.950 . S
C1972 H1964 0.950 . S
C1972 C1973 1.386 . S
C1972 C1974 1.391 . S
C1973 C1972 1.386 . S
C1973 C1977 1.393 . S
C1974 H1966 0.950 . S
C1974 C1972 1.391 . S
C1974 C1975 1.400 . S
C1975 C1974 1.400 . S
C1975 C1976 1.398 . S
C1975 C1981 1.491 . S
C1976 H1967 0.950 . S
C1976 C1975 1.398 . S
C1976 C1977 1.391 . S
C1977 H1965 0.950 . S
C1977 C1973 1.393 . S
C1977 C1976 1.391 . S
C1978 H1968 0.950 . S
C1978 C1979 1.386 . S
C1978 C1980 1.391 . S
C1979 C1978 1.386 . S
C1979 C1983 1.393 . S
C1980 H1969 0.950 . S
C1980 C1978 1.391 . S
C1980 C1981 1.400 . S
C1981 C1975 1.491 . S
C1981 C1980 1.400 . S
C1981 C1982 1.398 . S
C1982 H1970 0.950 . S
C1982 C1981 1.398 . S
C1982 C1983 1.391 . S
C1983 H1971 0.950 . S
C1983 C1979 1.393 . S
C1983 C1982 1.391 . S
H1984 C1992 0.950 . S
H1985 C1997 0.950 . S
H1986 C1994 0.950 . S
H1987 C1996 0.950 . S
H1988 C1998 0.950 . S
H1989 C2000 0.950 . S
H1990 C2002 0.950 . S
H1991 C2003 0.950 . S
C1992 H1984 0.950 . S
C1992 C1993 1.386 . S
C1992 C1994 1.391 . S
C1993 C1992 1.386 . S
C1993 C1997 1.393 . S
C1994 H1986 0.950 . S
C1994 C1992 1.391 . S
C1994 C1995 1.400 . S
C1995 C1994 1.400 . S
C1995 C1996 1.398 . S
C1995 C2001 1.491 . S
C1996 H1987 0.950 . S
C1996 C1995 1.398 . S
C1996 C1997 1.391 . S
C1997 H1985 0.950 . S
C1997 C1993 1.393 . S
C1997 C1996 1.391 . S
C1998 H1988 0.950 . S
C1998 C1999 1.386 . S
C1998 C2000 1.391 . S
C1999 C1998 1.386 . S
C1999 C2003 1.393 . S
C2000 H1989 0.950 . S
C2000 C1998 1.391 . S
C2000 C2001 1.400 . S
C2001 C1995 1.491 . S
C2001 C2000 1.400 . S
C2001 C2002 1.398 . S
C2002 H1990 0.950 . S
C2002 C2001 1.398 . S
C2002 C2003 1.391 . S
C2003 H1991 0.950 . S
C2003 C1999 1.393 . S
C2003 C2002 1.391 . S
H2004 C2012 0.950 . S
H2005 C2017 0.950 . S
H2006 C2014 0.950 . S
H2007 C2016 0.950 . S
H2008 C2018 0.950 . S
H2009 C2020 0.950 . S
H2010 C2022 0.950 . S
H2011 C2023 0.950 . S
C2012 H2004 0.950 . S
C2012 C2013 1.386 . S
C2012 C2014 1.391 . S
C2013 C2012 1.386 . S
C2013 C2017 1.393 . S
C2014 H2006 0.950 . S
C2014 C2012 1.391 . S
C2014 C2015 1.400 . S
C2015 C2014 1.400 . S
C2015 C2016 1.398 . S
C2015 C2021 1.491 . S
C2016 H2007 0.950 . S
C2016 C2015 1.398 . S
C2016 C2017 1.391 . S
C2017 H2005 0.950 . S
C2017 C2013 1.393 . S
C2017 C2016 1.391 . S
C2018 H2008 0.950 . S
C2018 C2019 1.386 . S
C2018 C2020 1.391 . S
C2019 C2018 1.386 . S
C2019 C2023 1.393 . S
C2020 H2009 0.950 . S
C2020 C2018 1.391 . S
C2020 C2021 1.400 . S
C2021 C2015 1.491 . S
C2021 C2020 1.400 . S
C2021 C2022 1.398 . S
C2022 H2010 0.950 . S
C2022 C2021 1.398 . S
C2022 C2023 1.391 . S
C2023 H2011 0.950 . S
C2023 C2019 1.393 . S
C2023 C2022 1.391 . S
H2024 C2032 0.950 . S
H2025 C2037 0.950 . S
H2026 C2034 0.950 . S
H2027 C2036 0.950 . S
H2028 C2038 0.950 . S
H2029 C2040 0.950 . S
H2030 C2042 0.950 . S
H2031 C2043 0.950 . S
C2032 H2024 0.950 . S
C2032 C2033 1.386 . S
C2032 C2034 1.391 . S
C2033 C2032 1.386 . S
C2033 C2037 1.393 . S
C2034 H2026 0.950 . S
C2034 C2032 1.391 . S
C2034 C2035 1.400 . S
C2035 C2034 1.400 . S
C2035 C2036 1.398 . S
C2035 C2041 1.491 . S
C2036 H2027 0.950 . S
C2036 C2035 1.398 . S
C2036 C2037 1.391 . S
C2037 H2025 0.950 . S
C2037 C2033 1.393 . S
C2037 C2036 1.391 . S
C2038 H2028 0.950 . S
C2038 C2039 1.386 . S
C2038 C2040 1.391 . S
C2039 C2038 1.386 . S
C2039 C2043 1.393 . S
C2040 H2029 0.950 . S
C2040 C2038 1.391 . S
C2040 C2041 1.400 . S
C2041 C2035 1.491 . S
C2041 C2040 1.400 . S
C2041 C2042 1.398 . S
C2042 H2030 0.950 . S
C2042 C2041 1.398 . S
C2042 C2043 1.391 . S
C2043 H2031 0.950 . S
C2043 C2039 1.393 . S
C2043 C2042 1.391 . S
H2044 C2052 0.950 . S
H2045 C2057 0.950 . S
H2046 C2054 0.950 . S
H2047 C2056 0.950 . S
H2048 C2058 0.950 . S
H2049 C2060 0.950 . S
H2050 C2062 0.950 . S
H2051 C2063 0.950 . S
C2052 H2044 0.950 . S
C2052 C2053 1.386 . S
C2052 C2054 1.391 . S
C2053 C2052 1.386 . S
C2053 C2057 1.393 . S
C2054 H2046 0.950 . S
C2054 C2052 1.391 . S
C2054 C2055 1.400 . S
C2055 C2054 1.400 . S
C2055 C2056 1.398 . S
C2055 C2061 1.491 . S
C2056 H2047 0.950 . S
C2056 C2055 1.398 . S
C2056 C2057 1.391 . S
C2057 H2045 0.950 . S
C2057 C2053 1.393 . S
C2057 C2056 1.391 . S
C2058 H2048 0.950 . S
C2058 C2059 1.386 . S
C2058 C2060 1.391 . S
C2059 C2058 1.386 . S
C2059 C2063 1.393 . S
C2060 H2049 0.950 . S
C2060 C2058 1.391 . S
C2060 C2061 1.400 . S
C2061 C2055 1.491 . S
C2061 C2060 1.400 . S
C2061 C2062 1.398 . S
C2062 H2050 0.950 . S
C2062 C2061 1.398 . S
C2062 C2063 1.391 . S
C2063 H2051 0.950 . S
C2063 C2059 1.393 . S
C2063 C2062 1.391 . S
H2064 C2072 0.950 . S
H2065 C2077 0.950 . S
H2066 C2074 0.950 . S
H2067 C2076 0.950 . S
H2068 C2078 0.950 . S
H2069 C2080 0.950 . S
H2070 C2082 0.950 . S
H2071 C2083 0.950 . S
C2072 H2064 0.950 . S
C2072 C2073 1.386 . S
C2072 C2074 1.391 . S
C2073 C2072 1.386 . S
C2073 C2077 1.393 . S
C2074 H2066 0.950 . S
C2074 C2072 1.391 . S
C2074 C2075 1.400 . S
C2075 C2074 1.400 . S
C2075 C2076 1.398 . S
C2075 C2081 1.491 . S
C2076 H2067 0.950 . S
C2076 C2075 1.398 . S
C2076 C2077 1.391 . S
C2077 H2065 0.950 . S
C2077 C2073 1.393 . S
C2077 C2076 1.391 . S
C2078 H2068 0.950 . S
C2078 C2079 1.386 . S
C2078 C2080 1.391 . S
C2079 C2078 1.386 . S
C2079 C2083 1.393 . S
C2080 H2069 0.950 . S
C2080 C2078 1.391 . S
C2080 C2081 1.400 . S
C2081 C2075 1.491 . S
C2081 C2080 1.400 . S
C2081 C2082 1.398 . S
C2082 H2070 0.950 . S
C2082 C2081 1.398 . S
C2082 C2083 1.391 . S
C2083 H2071 0.950 . S
C2083 C2079 1.393 . S
C2083 C2082 1.391 . S
H2084 C2092 0.950 . S
H2085 C2097 0.950 . S
H2086 C2094 0.950 . S
H2087 C2096 0.950 . S
H2088 C2098 0.950 . S
H2089 C2100 0.950 . S
H2090 C2102 0.950 . S
H2091 C2103 0.950 . S
C2092 H2084 0.950 . S
C2092 C2093 1.386 . S
C2092 C2094 1.391 . S
C2093 C2092 1.386 . S
C2093 C2097 1.393 . S
C2094 H2086 0.950 . S
C2094 C2092 1.391 . S
C2094 C2095 1.400 . S
C2095 C2094 1.400 . S
C2095 C2096 1.398 . S
C2095 C2101 1.491 . S
C2096 H2087 0.950 . S
C2096 C2095 1.398 . S
C2096 C2097 1.391 . S
C2097 H2085 0.950 . S
C2097 C2093 1.393 . S
C2097 C2096 1.391 . S
C2098 H2088 0.950 . S
C2098 C2099 1.386 . S
C2098 C2100 1.391 . S
C2099 C2098 1.386 . S
C2099 C2103 1.393 . S
C2100 H2089 0.950 . S
C2100 C2098 1.391 . S
C2100 C2101 1.400 . S
C2101 C2095 1.491 . S
C2101 C2100 1.400 . S
C2101 C2102 1.398 . S
C2102 H2090 0.950 . S
C2102 C2101 1.398 . S
C2102 C2103 1.391 . S
C2103 H2091 0.950 . S
C2103 C2099 1.393 . S
C2103 C2102 1.391 . S
H2104 C2112 0.950 . S
H2105 C2117 0.950 . S
H2106 C2114 0.950 . S
H2107 C2116 0.950 . S
H2108 C2118 0.950 . S
H2109 C2120 0.950 . S
H2110 C2122 0.950 . S
H2111 C2123 0.950 . S
C2112 H2104 0.950 . S
C2112 C2113 1.386 . S
C2112 C2114 1.391 . S
C2113 C2112 1.386 . S
C2113 C2117 1.393 . S
C2114 H2106 0.950 . S
C2114 C2112 1.391 . S
C2114 C2115 1.400 . S
C2115 C2114 1.400 . S
C2115 C2116 1.398 . S
C2115 C2121 1.491 . S
C2116 H2107 0.950 . S
C2116 C2115 1.398 . S
C2116 C2117 1.391 . S
C2117 H2105 0.950 . S
C2117 C2113 1.393 . S
C2117 C2116 1.391 . S
C2118 H2108 0.950 . S
C2118 C2119 1.386 . S
C2118 C2120 1.391 . S
C2119 C2118 1.386 . S
C2119 C2123 1.393 . S
C2120 H2109 0.950 . S
C2120 C2118 1.391 . S
C2120 C2121 1.400 . S
C2121 C2115 1.491 . S
C2121 C2120 1.400 . S
C2121 C2122 1.398 . S
C2122 H2110 0.950 . S
C2122 C2121 1.398 . S
C2122 C2123 1.391 . S
C2123 H2111 0.950 . S
C2123 C2119 1.393 . S
C2123 C2122 1.391 . S
H2124 C2132 0.950 . S
H2125 C2137 0.950 . S
H2126 C2134 0.950 . S
H2127 C2136 0.950 . S
H2128 C2138 0.950 . S
H2129 C2140 0.950 . S
H2130 C2142 0.950 . S
H2131 C2143 0.950 . S
C2132 H2124 0.950 . S
C2132 C2133 1.386 . S
C2132 C2134 1.391 . S
C2133 C2132 1.386 . S
C2133 C2137 1.393 . S
C2134 H2126 0.950 . S
C2134 C2132 1.391 . S
C2134 C2135 1.400 . S
C2135 C2134 1.400 . S
C2135 C2136 1.398 . S
C2135 C2141 1.491 . S
C2136 H2127 0.950 . S
C2136 C2135 1.398 . S
C2136 C2137 1.391 . S
C2137 H2125 0.950 . S
C2137 C2133 1.393 . S
C2137 C2136 1.391 . S
C2138 H2128 0.950 . S
C2138 C2139 1.386 . S
C2138 C2140 1.391 . S
C2139 C2138 1.386 . S
C2139 C2143 1.393 . S
C2140 H2129 0.950 . S
C2140 C2138 1.391 . S
C2140 C2141 1.400 . S
C2141 C2135 1.491 . S
C2141 C2140 1.400 . S
C2141 C2142 1.398 . S
C2142 H2130 0.950 . S
C2142 C2141 1.398 . S
C2142 C2143 1.391 . S
C2143 H2131 0.950 . S
C2143 C2139 1.393 . S
C2143 C2142 1.391 . S
H2144 C2152 0.950 . S
H2145 C2157 0.950 . S
H2146 C2154 0.950 . S
H2147 C2156 0.950 . S
H2148 C2158 0.950 . S
H2149 C2160 0.950 . S
H2150 C2162 0.950 . S
H2151 C2163 0.950 . S
C2152 H2144 0.950 . S
C2152 C2153 1.386 . S
C2152 C2154 1.391 . S
C2153 C2152 1.386 . S
C2153 C2157 1.393 . S
C2154 H2146 0.950 . S
C2154 C2152 1.391 . S
C2154 C2155 1.400 . S
C2155 C2154 1.400 . S
C2155 C2156 1.398 . S
C2155 C2161 1.491 . S
C2156 H2147 0.950 . S
C2156 C2155 1.398 . S
C2156 C2157 1.391 . S
C2157 H2145 0.950 . S
C2157 C2153 1.393 . S
C2157 C2156 1.391 . S
C2158 H2148 0.950 . S
C2158 C2159 1.386 . S
C2158 C2160 1.391 . S
C2159 C2158 1.386 . S
C2159 C2163 1.393 . S
C2160 H2149 0.950 . S
C2160 C2158 1.391 . S
C2160 C2161 1.400 . S
C2161 C2155 1.491 . S
C2161 C2160 1.400 . S
C2161 C2162 1.398 . S
C2162 H2150 0.950 . S
C2162 C2161 1.398 . S
C2162 C2163 1.391 . S
C2163 H2151 0.950 . S
C2163 C2159 1.393 . S
C2163 C2162 1.391 . S
H2164 C2172 0.950 . S
H2165 C2177 0.950 . S
H2166 C2174 0.950 . S
H2167 C2176 0.950 . S
H2168 C2178 0.950 . S
H2169 C2180 0.950 . S
H2170 C2182 0.950 . S
H2171 C2183 0.950 . S
C2172 H2164 0.950 . S
C2172 C2173 1.386 . S
C2172 C2174 1.391 . S
C2173 C2172 1.386 . S
C2173 C2177 1.393 . S
C2174 H2166 0.950 . S
C2174 C2172 1.391 . S
C2174 C2175 1.400 . S
C2175 C2174 1.400 . S
C2175 C2176 1.398 . S
C2175 C2181 1.491 . S
C2176 H2167 0.950 . S
C2176 C2175 1.398 . S
C2176 C2177 1.391 . S
C2177 H2165 0.950 . S
C2177 C2173 1.393 . S
C2177 C2176 1.391 . S
C2178 H2168 0.950 . S
C2178 C2179 1.386 . S
C2178 C2180 1.391 . S
C2179 C2178 1.386 . S
C2179 C2183 1.393 . S
C2180 H2169 0.950 . S
C2180 C2178 1.391 . S
C2180 C2181 1.400 . S
C2181 C2175 1.491 . S
C2181 C2180 1.400 . S
C2181 C2182 1.398 . S
C2182 H2170 0.950 . S
C2182 C2181 1.398 . S
C2182 C2183 1.391 . S
C2183 H2171 0.950 . S
C2183 C2179 1.393 . S
C2183 C2182 1.391 . S
H2184 C2192 0.950 . S
H2185 C2197 0.950 . S
H2186 C2194 0.950 . S
H2187 C2196 0.950 . S
H2188 C2198 0.950 . S
H2189 C2200 0.950 . S
H2190 C2202 0.950 . S
H2191 C2203 0.950 . S
C2192 H2184 0.950 . S
C2192 C2193 1.386 . S
C2192 C2194 1.391 . S
C2193 C2192 1.386 . S
C2193 C2197 1.393 . S
C2194 H2186 0.950 . S
C2194 C2192 1.391 . S
C2194 C2195 1.400 . S
C2195 C2194 1.400 . S
C2195 C2196 1.398 . S
C2195 C2201 1.491 . S
C2196 H2187 0.950 . S
C2196 C2195 1.398 . S
C2196 C2197 1.391 . S
C2197 H2185 0.950 . S
C2197 C2193 1.393 . S
C2197 C2196 1.391 . S
C2198 H2188 0.950 . S
C2198 C2199 1.386 . S
C2198 C2200 1.391 . S
C2199 C2198 1.386 . S
C2199 C2203 1.393 . S
C2200 H2189 0.950 . S
C2200 C2198 1.391 . S
C2200 C2201 1.400 . S
C2201 C2195 1.491 . S
C2201 C2200 1.400 . S
C2201 C2202 1.398 . S
C2202 H2190 0.950 . S
C2202 C2201 1.398 . S
C2202 C2203 1.391 . S
C2203 H2191 0.950 . S
C2203 C2199 1.393 . S
C2203 C2202 1.391 . S
H2204 C2212 0.950 . S
H2205 C2217 0.950 . S
H2206 C2214 0.950 . S
H2207 C2216 0.950 . S
H2208 C2218 0.950 . S
H2209 C2220 0.950 . S
H2210 C2222 0.950 . S
H2211 C2223 0.950 . S
C2212 H2204 0.950 . S
C2212 C2213 1.386 . S
C2212 C2214 1.391 . S
C2213 C2212 1.386 . S
C2213 C2217 1.393 . S
C2214 H2206 0.950 . S
C2214 C2212 1.391 . S
C2214 C2215 1.400 . S
C2215 C2214 1.400 . S
C2215 C2216 1.398 . S
C2215 C2221 1.491 . S
C2216 H2207 0.950 . S
C2216 C2215 1.398 . S
C2216 C2217 1.391 . S
C2217 H2205 0.950 . S
C2217 C2213 1.393 . S
C2217 C2216 1.391 . S
C2218 H2208 0.950 . S
C2218 C2219 1.386 . S
C2218 C2220 1.391 . S
C2219 C2218 1.386 . S
C2219 C2223 1.393 . S
C2220 H2209 0.950 . S
C2220 C2218 1.391 . S
C2220 C2221 1.400 . S
C2221 C2215 1.491 . S
C2221 C2220 1.400 . S
C2221 C2222 1.398 . S
C2222 H2210 0.950 . S
C2222 C2221 1.398 . S
C2222 C2223 1.391 . S
C2223 H2211 0.950 . S
C2223 C2219 1.393 . S
C2223 C2222 1.391 . S
H2224 C2232 0.950 . S
H2225 C2237 0.950 . S
H2226 C2234 0.950 . S
H2227 C2236 0.950 . S
H2228 C2238 0.950 . S
H2229 C2240 0.950 . S
H2230 C2242 0.950 . S
H2231 C2243 0.950 . S
C2232 H2224 0.950 . S
C2232 C2233 1.386 . S
C2232 C2234 1.391 . S
C2233 C2232 1.386 . S
C2233 C2237 1.393 . S
C2234 H2226 0.950 . S
C2234 C2232 1.391 . S
C2234 C2235 1.400 . S
C2235 C2234 1.400 . S
C2235 C2236 1.398 . S
C2235 C2241 1.491 . S
C2236 H2227 0.950 . S
C2236 C2235 1.398 . S
C2236 C2237 1.391 . S
C2237 H2225 0.950 . S
C2237 C2233 1.393 . S
C2237 C2236 1.391 . S
C2238 H2228 0.950 . S
C2238 C2239 1.386 . S
C2238 C2240 1.391 . S
C2239 C2238 1.386 . S
C2239 C2243 1.393 . S
C2240 H2229 0.950 . S
C2240 C2238 1.391 . S
C2240 C2241 1.400 . S
C2241 C2235 1.491 . S
C2241 C2240 1.400 . S
C2241 C2242 1.398 . S
C2242 H2230 0.950 . S
C2242 C2241 1.398 . S
C2242 C2243 1.391 . S
C2243 H2231 0.950 . S
C2243 C2239 1.393 . S
C2243 C2242 1.391 . S
H2244 C2252 0.950 . S
H2245 C2257 0.950 . S
H2246 C2254 0.950 . S
H2247 C2256 0.950 . S
H2248 C2258 0.950 . S
H2249 C2260 0.950 . S
H2250 C2262 0.950 . S
H2251 C2263 0.950 . S
C2252 H2244 0.950 . S
C2252 C2253 1.386 . S
C2252 C2254 1.391 . S
C2253 C2252 1.386 . S
C2253 C2257 1.393 . S
C2254 H2246 0.950 . S
C2254 C2252 1.391 . S
C2254 C2255 1.400 . S
C2255 C2254 1.400 . S
C2255 C2256 1.398 . S
C2255 C2261 1.491 . S
C2256 H2247 0.950 . S
C2256 C2255 1.398 . S
C2256 C2257 1.391 . S
C2257 H2245 0.950 . S
C2257 C2253 1.393 . S
C2257 C2256 1.391 . S
C2258 H2248 0.950 . S
C2258 C2259 1.386 . S
C2258 C2260 1.391 . S
C2259 C2258 1.386 . S
C2259 C2263 1.393 . S
C2260 H2249 0.950 . S
C2260 C2258 1.391 . S
C2260 C2261 1.400 . S
C2261 C2255 1.491 . S
C2261 C2260 1.400 . S
C2261 C2262 1.398 . S
C2262 H2250 0.950 . S
C2262 C2261 1.398 . S
C2262 C2263 1.391 . S
C2263 H2251 0.950 . S
C2263 C2259 1.393 . S
C2263 C2262 1.391 . S
H2264 C2272 0.950 . S
H2265 C2277 0.950 . S
H2266 C2274 0.950 . S
H2267 C2276 0.950 . S
H2268 C2278 0.950 . S
H2269 C2280 0.950 . S
H2270 C2282 0.950 . S
H2271 C2283 0.950 . S
C2272 H2264 0.950 . S
C2272 C2273 1.386 . S
C2272 C2274 1.391 . S
C2273 C2272 1.386 . S
C2273 C2277 1.393 . S
C2274 H2266 0.950 . S
C2274 C2272 1.391 . S
C2274 C2275 1.400 . S
C2275 C2274 1.400 . S
C2275 C2276 1.398 . S
C2275 C2281 1.491 . S
C2276 H2267 0.950 . S
C2276 C2275 1.398 . S
C2276 C2277 1.391 . S
C2277 H2265 0.950 . S
C2277 C2273 1.393 . S
C2277 C2276 1.391 . S
C2278 H2268 0.950 . S
C2278 C2279 1.386 . S
C2278 C2280 1.391 . S
C2279 C2278 1.386 . S
C2279 C2283 1.393 . S
C2280 H2269 0.950 . S
C2280 C2278 1.391 . S
C2280 C2281 1.400 . S
C2281 C2275 1.491 . S
C2281 C2280 1.400 . S
C2281 C2282 1.398 . S
C2282 H2270 0.950 . S
C2282 C2281 1.398 . S
C2282 C2283 1.391 . S
C2283 H2271 0.950 . S
C2283 C2279 1.393 . S
C2283 C2282 1.391 . S
H2284 C2292 0.950 . S
H2285 C2297 0.950 . S
H2286 C2294 0.950 . S
H2287 C2296 0.950 . S
H2288 C2298 0.950 . S
H2289 C2300 0.950 . S
H2290 C2302 0.950 . S
H2291 C2303 0.950 . S
C2292 H2284 0.950 . S
C2292 C2293 1.386 . S
C2292 C2294 1.391 . S
C2293 C2292 1.386 . S
C2293 C2297 1.393 . S
C2294 H2286 0.950 . S
C2294 C2292 1.391 . S
C2294 C2295 1.400 . S
C2295 C2294 1.400 . S
C2295 C2296 1.398 . S
C2295 C2301 1.491 . S
C2296 H2287 0.950 . S
C2296 C2295 1.398 . S
C2296 C2297 1.391 . S
C2297 H2285 0.950 . S
C2297 C2293 1.393 . S
C2297 C2296 1.391 . S
C2298 H2288 0.950 . S
C2298 C2299 1.386 . S
C2298 C2300 1.391 . S
C2299 C2298 1.386 . S
C2299 C2303 1.393 . S
C2300 H2289 0.950 . S
C2300 C2298 1.391 . S
C2300 C2301 1.400 . S
C2301 C2295 1.491 . S
C2301 C2300 1.400 . S
C2301 C2302 1.398 . S
C2302 H2290 0.950 . S
C2302 C2301 1.398 . S
C2302 C2303 1.391 . S
C2303 H2291 0.950 . S
C2303 C2299 1.393 . S
C2303 C2302 1.391 . S
H2304 C2312 0.950 . S
H2305 C2317 0.950 . S
H2306 C2314 0.950 . S
H2307 C2316 0.950 . S
H2308 C2318 0.950 . S
H2309 C2320 0.950 . S
H2310 C2322 0.950 . S
H2311 C2323 0.950 . S
C2312 H2304 0.950 . S
C2312 C2313 1.386 . S
C2312 C2314 1.391 . S
C2313 C2312 1.386 . S
C2313 C2317 1.393 . S
C2314 H2306 0.950 . S
C2314 C2312 1.391 . S
C2314 C2315 1.400 . S
C2315 C2314 1.400 . S
C2315 C2316 1.398 . S
C2315 C2321 1.491 . S
C2316 H2307 0.950 . S
C2316 C2315 1.398 . S
C2316 C2317 1.391 . S
C2317 H2305 0.950 . S
C2317 C2313 1.393 . S
C2317 C2316 1.391 . S
C2318 H2308 0.950 . S
C2318 C2319 1.386 . S
C2318 C2320 1.391 . S
C2319 C2318 1.386 . S
C2319 C2323 1.393 . S
C2320 H2309 0.950 . S
C2320 C2318 1.391 . S
C2320 C2321 1.400 . S
C2321 C2315 1.491 . S
C2321 C2320 1.400 . S
C2321 C2322 1.398 . S
C2322 H2310 0.950 . S
C2322 C2321 1.398 . S
C2322 C2323 1.391 . S
C2323 H2311 0.950 . S
C2323 C2319 1.393 . S
C2323 C2322 1.391 . S
H2324 C2332 0.950 . S
H2325 C2337 0.950 . S
H2326 C2334 0.950 . S
H2327 C2336 0.950 . S
H2328 C2338 0.950 . S
H2329 C2340 0.950 . S
H2330 C2342 0.950 . S
H2331 C2343 0.950 . S
C2332 H2324 0.950 . S
C2332 C2333 1.386 . S
C2332 C2334 1.391 . S
C2333 C2332 1.386 . S
C2333 C2337 1.393 . S
C2334 H2326 0.950 . S
C2334 C2332 1.391 . S
C2334 C2335 1.400 . S
C2335 C2334 1.400 . S
C2335 C2336 1.398 . S
C2335 C2341 1.491 . S
C2336 H2327 0.950 . S
C2336 C2335 1.398 . S
C2336 C2337 1.391 . S
C2337 H2325 0.950 . S
C2337 C2333 1.393 . S
C2337 C2336 1.391 . S
C2338 H2328 0.950 . S
C2338 C2339 1.386 . S
C2338 C2340 1.391 . S
C2339 C2338 1.386 . S
C2339 C2343 1.393 . S
C2340 H2329 0.950 . S
C2340 C2338 1.391 . S
C2340 C2341 1.400 . S
C2341 C2335 1.491 . S
C2341 C2340 1.400 . S
C2341 C2342 1.398 . S
C2342 H2330 0.950 . S
C2342 C2341 1.398 . S
C2342 C2343 1.391 . S
C2343 H2331 0.950 . S
C2343 C2339 1.393 . S
C2343 C2342 1.391 . S
H2344 C2352 0.950 . S
H2345 C2357 0.950 . S
H2346 C2354 0.950 . S
H2347 C2356 0.950 . S
H2348 C2358 0.950 . S
H2349 C2360 0.950 . S
H2350 C2362 0.950 . S
H2351 C2363 0.950 . S
C2352 H2344 0.950 . S
C2352 C2353 1.386 . S
C2352 C2354 1.391 . S
C2353 C2352 1.386 . S
C2353 C2357 1.393 . S
C2354 H2346 0.950 . S
C2354 C2352 1.391 . S
C2354 C2355 1.400 . S
C2355 C2354 1.400 . S
C2355 C2356 1.398 . S
C2355 C2361 1.491 . S
C2356 H2347 0.950 . S
C2356 C2355 1.398 . S
C2356 C2357 1.391 . S
C2357 H2345 0.950 . S
C2357 C2353 1.393 . S
C2357 C2356 1.391 . S
C2358 H2348 0.950 . S
C2358 C2359 1.386 . S
C2358 C2360 1.391 . S
C2359 C2358 1.386 . S
C2359 C2363 1.393 . S
C2360 H2349 0.950 . S
C2360 C2358 1.391 . S
C2360 C2361 1.400 . S
C2361 C2355 1.491 . S
C2361 C2360 1.400 . S
C2361 C2362 1.398 . S
C2362 H2350 0.950 . S
C2362 C2361 1.398 . S
C2362 C2363 1.391 . S
C2363 H2351 0.950 . S
C2363 C2359 1.393 . S
C2363 C2362 1.391 . S
H2364 C2372 0.950 . S
H2365 C2377 0.950 . S
H2366 C2374 0.950 . S
H2367 C2376 0.950 . S
H2368 C2378 0.950 . S
H2369 C2380 0.950 . S
H2370 C2382 0.950 . S
H2371 C2383 0.950 . S
C2372 H2364 0.950 . S
C2372 C2373 1.386 . S
C2372 C2374 1.391 . S
C2373 C2372 1.386 . S
C2373 C2377 1.393 . S
C2374 H2366 0.950 . S
C2374 C2372 1.391 . S
C2374 C2375 1.400 . S
C2375 C2374 1.400 . S
C2375 C2376 1.398 . S
C2375 C2381 1.491 . S
C2376 H2367 0.950 . S
C2376 C2375 1.398 . S
C2376 C2377 1.391 . S
C2377 H2365 0.950 . S
C2377 C2373 1.393 . S
C2377 C2376 1.391 . S
C2378 H2368 0.950 . S
C2378 C2379 1.386 . S
C2378 C2380 1.391 . S
C2379 C2378 1.386 . S
C2379 C2383 1.393 . S
C2380 H2369 0.950 . S
C2380 C2378 1.391 . S
C2380 C2381 1.400 . S
C2381 C2375 1.491 . S
C2381 C2380 1.400 . S
C2381 C2382 1.398 . S
C2382 H2370 0.950 . S
C2382 C2381 1.398 . S
C2382 C2383 1.391 . S
C2383 H2371 0.950 . S
C2383 C2379 1.393 . S
C2383 C2382 1.391 . S
H2384 C2392 0.950 . S
H2385 C2397 0.950 . S
H2386 C2394 0.950 . S
H2387 C2396 0.950 . S
H2388 C2398 0.950 . S
H2389 C2400 0.950 . S
H2390 C2402 0.950 . S
H2391 C2403 0.950 . S
C2392 H2384 0.950 . S
C2392 C2393 1.386 . S
C2392 C2394 1.391 . S
C2393 C2392 1.386 . S
C2393 C2397 1.393 . S
C2394 H2386 0.950 . S
C2394 C2392 1.391 . S
C2394 C2395 1.400 . S
C2395 C2394 1.400 . S
C2395 C2396 1.398 . S
C2395 C2401 1.491 . S
C2396 H2387 0.950 . S
C2396 C2395 1.398 . S
C2396 C2397 1.391 . S
C2397 H2385 0.950 . S
C2397 C2393 1.393 . S
C2397 C2396 1.391 . S
C2398 H2388 0.950 . S
C2398 C2399 1.386 . S
C2398 C2400 1.391 . S
C2399 C2398 1.386 . S
C2399 C2403 1.393 . S
C2400 H2389 0.950 . S
C2400 C2398 1.391 . S
C2400 C2401 1.400 . S
C2401 C2395 1.491 . S
C2401 C2400 1.400 . S
C2401 C2402 1.398 . S
C2402 H2390 0.950 . S
C2402 C2401 1.398 . S
C2402 C2403 1.391 . S
C2403 H2391 0.950 . S
C2403 C2399 1.393 . S
C2403 C2402 1.391 . S
H2404 C2412 0.950 . S
H2405 C2417 0.950 . S
H2406 C2414 0.950 . S
H2407 C2416 0.950 . S
H2408 C2418 0.950 . S
H2409 C2420 0.950 . S
H2410 C2422 0.950 . S
H2411 C2423 0.950 . S
C2412 H2404 0.950 . S
C2412 C2413 1.386 . S
C2412 C2414 1.391 . S
C2413 C2412 1.386 . S
C2413 C2417 1.393 . S
C2414 H2406 0.950 . S
C2414 C2412 1.391 . S
C2414 C2415 1.400 . S
C2415 C2414 1.400 . S
C2415 C2416 1.398 . S
C2415 C2421 1.491 . S
C2416 H2407 0.950 . S
C2416 C2415 1.398 . S
C2416 C2417 1.391 . S
C2417 H2405 0.950 . S
C2417 C2413 1.393 . S
C2417 C2416 1.391 . S
C2418 H2408 0.950 . S
C2418 C2419 1.386 . S
C2418 C2420 1.391 . S
C2419 C2418 1.386 . S
C2419 C2423 1.393 . S
C2420 H2409 0.950 . S
C2420 C2418 1.391 . S
C2420 C2421 1.400 . S
C2421 C2415 1.491 . S
C2421 C2420 1.400 . S
C2421 C2422 1.398 . S
C2422 H2410 0.950 . S
C2422 C2421 1.398 . S
C2422 C2423 1.391 . S
C2423 H2411 0.950 . S
C2423 C2419 1.393 . S
C2423 C2422 1.391 . S
H2424 C2432 0.950 . S
H2425 C2437 0.950 . S
H2426 C2434 0.950 . S
H2427 C2436 0.950 . S
H2428 C2438 0.950 . S
H2429 C2440 0.950 . S
H2430 C2442 0.950 . S
H2431 C2443 0.950 . S
C2432 H2424 0.950 . S
C2432 C2433 1.386 . S
C2432 C2434 1.391 . S
C2433 C2432 1.386 . S
C2433 C2437 1.393 . S
C2434 H2426 0.950 . S
C2434 C2432 1.391 . S
C2434 C2435 1.400 . S
C2435 C2434 1.400 . S
C2435 C2436 1.398 . S
C2435 C2441 1.491 . S
C2436 H2427 0.950 . S
C2436 C2435 1.398 . S
C2436 C2437 1.391 . S
C2437 H2425 0.950 . S
C2437 C2433 1.393 . S
C2437 C2436 1.391 . S
C2438 H2428 0.950 . S
C2438 C2439 1.386 . S
C2438 C2440 1.391 . S
C2439 C2438 1.386 . S
C2439 C2443 1.393 . S
C2440 H2429 0.950 . S
C2440 C2438 1.391 . S
C2440 C2441 1.400 . S
C2441 C2435 1.491 . S
C2441 C2440 1.400 . S
C2441 C2442 1.398 . S
C2442 H2430 0.950 . S
C2442 C2441 1.398 . S
C2442 C2443 1.391 . S
C2443 H2431 0.950 . S
C2443 C2439 1.393 . S
C2443 C2442 1.391 . S
H2444 C2452 0.950 . S
H2445 C2457 0.950 . S
H2446 C2454 0.950 . S
H2447 C2456 0.950 . S
H2448 C2458 0.950 . S
H2449 C2460 0.950 . S
H2450 C2462 0.950 . S
H2451 C2463 0.950 . S
C2452 H2444 0.950 . S
C2452 C2453 1.386 . S
C2452 C2454 1.391 . S
C2453 C2452 1.386 . S
C2453 C2457 1.393 . S
C2454 H2446 0.950 . S
C2454 C2452 1.391 . S
C2454 C2455 1.400 . S
C2455 C2454 1.400 . S
C2455 C2456 1.398 . S
C2455 C2461 1.491 . S
C2456 H2447 0.950 . S
C2456 C2455 1.398 . S
C2456 C2457 1.391 . S
C2457 H2445 0.950 . S
C2457 C2453 1.393 . S
C2457 C2456 1.391 . S
C2458 H2448 0.950 . S
C2458 C2459 1.386 . S
C2458 C2460 1.391 . S
C2459 C2458 1.386 . S
C2459 C2463 1.393 . S
C2460 H2449 0.950 . S
C2460 C2458 1.391 . S
C2460 C2461 1.400 . S
C2461 C2455 1.491 . S
C2461 C2460 1.400 . S
C2461 C2462 1.398 . S
C2462 H2450 0.950 . S
C2462 C2461 1.398 . S
C2462 C2463 1.391 . S
C2463 H2451 0.950 . S
C2463 C2459 1.393 . S
C2463 C2462 1.391 . S
H2464 C2472 0.950 . S
H2465 C2477 0.950 . S
H2466 C2474 0.950 . S
H2467 C2476 0.950 . S
H2468 C2478 0.950 . S
H2469 C2480 0.950 . S
H2470 C2482 0.950 . S
H2471 C2483 0.950 . S
C2472 H2464 0.950 . S
C2472 C2473 1.386 . S
C2472 C2474 1.391 . S
C2473 C2472 1.386 . S
C2473 C2477 1.393 . S
C2474 H2466 0.950 . S
C2474 C2472 1.391 . S
C2474 C2475 1.400 . S
C2475 C2474 1.400 . S
C2475 C2476 1.398 . S
C2475 C2481 1.491 . S
C2476 H2467 0.950 . S
C2476 C2475 1.398 . S
C2476 C2477 1.391 . S
C2477 H2465 0.950 . S
C2477 C2473 1.393 . S
C2477 C2476 1.391 . S
C2478 H2468 0.950 . S
C2478 C2479 1.386 . S
C2478 C2480 1.391 . S
C2479 C2478 1.386 . S
C2479 C2483 1.393 . S
C2480 H2469 0.950 . S
C2480 C2478 1.391 . S
C2480 C2481 1.400 . S
C2481 C2475 1.491 . S
C2481 C2480 1.400 . S
C2481 C2482 1.398 . S
C2482 H2470 0.950 . S
C2482 C2481 1.398 . S
C2482 C2483 1.391 . S
C2483 H2471 0.950 . S
C2483 C2479 1.393 . S
C2483 C2482 1.391 . S
H2484 C2492 0.950 . S
H2485 C2497 0.950 . S
H2486 C2494 0.950 . S
H2487 C2496 0.950 . S
H2488 C2498 0.950 . S
H2489 C2500 0.950 . S
H2490 C2502 0.950 . S
H2491 C2503 0.950 . S
C2492 H2484 0.950 . S
C2492 C2493 1.386 . S
C2492 C2494 1.391 . S
C2493 C2492 1.386 . S
C2493 C2497 1.393 . S
C2494 H2486 0.950 . S
C2494 C2492 1.391 . S
C2494 C2495 1.400 . S
C2495 C2494 1.400 . S
C2495 C2496 1.398 . S
C2495 C2501 1.491 . S
C2496 H2487 0.950 . S
C2496 C2495 1.398 . S
C2496 C2497 1.391 . S
C2497 H2485 0.950 . S
C2497 C2493 1.393 . S
C2497 C2496 1.391 . S
C2498 H2488 0.950 . S
C2498 C2499 1.386 . S
C2498 C2500 1.391 . S
C2499 C2498 1.386 . S
C2499 C2503 1.393 . S
C2500 H2489 0.950 . S
C2500 C2498 1.391 . S
C2500 C2501 1.400 . S
C2501 C2495 1.491 . S
C2501 C2500 1.400 . S
C2501 C2502 1.398 . S
C2502 H2490 0.950 . S
C2502 C2501 1.398 . S
C2502 C2503 1.391 . S
C2503 H2491 0.950 . S
C2503 C2499 1.393 . S
C2503 C2502 1.391 . S
H2504 C2512 0.950 . S
H2505 C2517 0.950 . S
H2506 C2514 0.950 . S
H2507 C2516 0.950 . S
H2508 C2518 0.950 . S
H2509 C2520 0.950 . S
H2510 C2522 0.950 . S
H2511 C2523 0.950 . S
C2512 H2504 0.950 . S
C2512 C2513 1.386 . S
C2512 C2514 1.391 . S
C2513 C2512 1.386 . S
C2513 C2517 1.393 . S
C2514 H2506 0.950 . S
C2514 C2512 1.391 . S
C2514 C2515 1.400 . S
C2515 C2514 1.400 . S
C2515 C2516 1.398 . S
C2515 C2521 1.491 . S
C2516 H2507 0.950 . S
C2516 C2515 1.398 . S
C2516 C2517 1.391 . S
C2517 H2505 0.950 . S
C2517 C2513 1.393 . S
C2517 C2516 1.391 . S
C2518 H2508 0.950 . S
C2518 C2519 1.386 . S
C2518 C2520 1.391 . S
C2519 C2518 1.386 . S
C2519 C2523 1.393 . S
C2520 H2509 0.950 . S
C2520 C2518 1.391 . S
C2520 C2521 1.400 . S
C2521 C2515 1.491 . S
C2521 C2520 1.400 . S
C2521 C2522 1.398 . S
C2522 H2510 0.950 . S
C2522 C2521 1.398 . S
C2522 C2523 1.391 . S
C2523 H2511 0.950 . S
C2523 C2519 1.393 . S
C2523 C2522 1.391 . S
H2524 C2532 0.950 . S
H2525 C2537 0.950 . S
H2526 C2534 0.950 . S
H2527 C2536 0.950 . S
H2528 C2538 0.950 . S
H2529 C2540 0.950 . S
H2530 C2542 0.950 . S
H2531 C2543 0.950 . S
C2532 H2524 0.950 . S
C2532 C2533 1.386 . S
C2532 C2534 1.391 . S
C2533 C2532 1.386 . S
C2533 C2537 1.393 . S
C2534 H2526 0.950 . S
C2534 C2532 1.391 . S
C2534 C2535 1.400 . S
C2535 C2534 1.400 . S
C2535 C2536 1.398 . S
C2535 C2541 1.491 . S
C2536 H2527 0.950 . S
C2536 C2535 1.398 . S
C2536 C2537 1.391 . S
C2537 H2525 0.950 . S
C2537 C2533 1.393 . S
C2537 C2536 1.391 . S
C2538 H2528 0.950 . S
C2538 C2539 1.386 . S
C2538 C2540 1.391 . S
C2539 C2538 1.386 . S
C2539 C2543 1.393 . S
C2540 H2529 0.950 . S
C2540 C2538 1.391 . S
C2540 C2541 1.400 . S
C2541 C2535 1.491 . S
C2541 C2540 1.400 . S
C2541 C2542 1.398 . S
C2542 H2530 0.950 . S
C2542 C2541 1.398 . S
C2542 C2543 1.391 . S
C2543 H2531 0.950 . S
C2543 C2539 1.393 . S
C2543 C2542 1.391 . S
C633 C82 1.356 . S
C639 C4 1.356 . S
C653 C17 1.366 . S
C659 C101 1.366 . S
C673 C36 1.366 . S
C679 C62 1.366 . S
C693 C69 1.356 . S
C699 C43 1.356 . S
C713 C446 1.356 . S
C719 C114 1.356 . S
C733 C459 1.365 . S
C739 C127 1.363 . S
C753 C134 1.365 . S
C759 C426 1.363 . S
C773 C147 1.362 . S
C779 C433 1.364 . S
C793 C504 1.357 . S
C799 C160 1.359 . S
C813 C517 1.356 . S
C819 C179 1.356 . S
C833 C472 1.357 . S
C839 C192 1.358 . S
C853 C485 1.356 . S
C859 C199 1.357 . S
C873 C212 1.366 . S
C879 C543 1.366 . S
C893 C231 1.366 . S
C899 C530 1.365 . S
C913 C244 1.366 . S
C919 C303 1.365 . S
C933 C589 1.357 . S
C939 C257 1.356 . S
C953 C602 1.357 . S
C959 C270 1.358 . S
C973 C563 1.365 . S
C979 C283 1.363 . S
C993 C576 1.366 . S
C999 C296 1.364 . S
C1013 C400 1.360 . S
C1019 C322 1.362 . S
C1033 C407 1.366 . S
C1039 C335 1.364 . S
C1053 C342 1.358 . S
C1059 C374 1.361 . S
C1073 C355 1.356 . S
C1079 C381 1.356 . S
C1093 C615 1.366 . S
C1099 C556 1.366 . S
C1113 C211 1.202 . S
C1119 C5 1.209 . S
C1133 C18 1.215 1_655 S
C1139 C614 1.189 . S
C1153 C29 1.216 . S
C1159 C278 1.187 . S
C1173 C601 1.201 . S
C1179 C44 1.209 . S
C1193 C55 1.211 . S
C1199 C538 1.199 . S
C1213 C551 1.189 . S
C1219 C70 1.216 . S
C1233 C83 1.212 . S
C1239 C562 1.199 . S
C1253 C265 1.207 . S
C1259 C94 1.207 1_655 S
C1273 C107 1.207 . S
C1279 C3 1.207 . S
C1293 C16 1.197 . S
C1299 C120 1.212 . S
C1313 C135 1.215 . S
C1319 C31 1.191 . S
C1333 C148 1.216 1_554 S
C1339 C42 1.186 . S
C1353 C161 1.208 . S
C1359 C57 1.206 . S
C1373 C68 1.197 . S
C1379 C172 1.212 . S
C1393 C185 1.207 . S
C1399 C81 1.206 . S
C1413 C200 1.212 1_556 S
C1419 C96 1.198 . S
C1433 C213 1.217 . S
C1439 C109 1.186 . S
C1453 C224 1.207 . S
C1459 C471 1.207 . S
C1473 C484 1.193 . S
C1479 C237 1.213 . S
C1493 C499 1.197 . S
C1499 C250 1.211 . S
C1513 C263 1.207 1_565 S
C1519 C198 1.205 . S
C1533 C276 1.217 . S
C1539 C133 1.185 . S
C1553 C458 1.206 . S
C1559 C289 1.207 . S
C1573 C432 1.200 . S
C1579 C304 1.209 . S
C1593 C315 1.214 . S
C1599 C525 1.191 . S
C1613 C328 1.207 . S
C1619 C302 1.207 . S
C1633 C343 1.208 . S
C1639 C588 1.206 . S
C1653 C356 1.207 1_455 S
C1659 C291 1.207 . S
C1673 C367 1.215 . S
C1679 C226 1.188 . S
C1693 C239 1.192 . S
C1699 C382 1.214 1_455 S
C1713 C252 1.199 . S
C1719 C393 1.210 . S
C1733 C575 1.204 . S
C1739 C408 1.208 . S
C1753 C317 1.197 . S
C1759 C419 1.212 . S
C1773 C330 1.188 . S
C1779 C434 1.215 1_554 S
C1793 C447 1.211 . S
C1799 C341 1.199 . S
C1813 C354 1.203 . S
C1819 C460 1.209 . S
C1833 C473 1.216 . S
C1839 C369 1.186 . S
C1853 C380 1.206 . S
C1859 C486 1.207 1_556 S
C1873 C497 1.213 . S
C1879 C395 1.195 . S
C1893 C406 1.206 . S
C1899 C510 1.208 . S
C1913 C523 1.207 . S
C1919 C421 1.206 . S
C1933 C536 1.217 . S
C1939 C159 1.185 . S
C1953 C174 1.205 . S
C1959 C549 1.207 1_545 S
C1973 C564 1.207 . S
C1979 C187 1.207 . S
C1993 C577 1.210 . S
C1999 C512 1.199 . S
C2013 C445 1.192 . S
C2019 C590 1.213 . S
C2033 C603 1.210 1_565 S
C2039 C146 1.199 . S
C2053 C122 1.188 . S
C2059 C616 1.215 1_545 S
C2073 C121 1.001 . S
C2079 C10 1.007 . S
C2093 C23 1.001 . S
C2099 C140 1.007 . S
C2113 C153 1.008 . S
C2119 C30 1.011 . S
C2133 C108 1.002 . S
C2139 C49 1.006 . S
C2153 C56 1.012 . S
C2159 C205 1.001 . S
C2173 C75 1.006 . S
C2179 C166 1.002 . S
C2193 C173 1.011 . S
C2199 C88 1.001 . S
C2213 C186 1.005 . S
C2219 C95 1.002 . S
C2233 C218 1.003 . S
C2239 C238 1.004 . S
C2253 C225 1.012 . S
C2259 C608 1.002 . S
C2273 C251 1.012 . S
C2279 C621 1.002 . S
C2293 C595 1.011 . S
C2299 C264 1.001 . S
C2313 C582 1.012 . S
C2319 C277 1.002 . S
C2333 C537 1.002 . S
C2339 C290 1.006 . S
C2353 C309 1.012 . S
C2359 C569 1.001 . S
C2373 C439 1.001 . S
C2379 C316 1.011 . S
C2393 C452 1.002 . S
C2399 C329 1.006 . S
C2413 C348 1.001 . S
C2419 C465 1.011 . S
C2433 C420 1.001 . S
C2439 C361 1.008 . S
C2453 C511 1.008 . S
C2459 C368 1.001 . S
C2473 C478 1.005 . S
C2479 C387 1.003 . S
C2493 C394 1.003 . S
C2499 C491 1.013 . S
C2513 C498 1.004 . S
C2519 C413 1.013 . S
C2533 C550 1.010 . S
C2539 C524 1.000 . S
