# Generated by pormake.
# Topology why, (6)-cn, num edge types: 1
# Building blocks:
#     Node 0, Type 0, BuildingBlock: UKALOJ_clean_sbu_0, # of connection points: 6
#     Node 1, Type 0, BuildingBlock: UKALOJ_clean_sbu_0, # of connection points: 6
#     Node 2, Type 0, BuildingBlock: UKALOJ_clean_sbu_0, # of connection points: 6
#     Node 3, Type 0, BuildingBlock: UKALOJ_clean_sbu_0, # of connection points: 6
#     Node 4, Type 0, BuildingBlock: UKALOJ_clean_sbu_0, # of connection points: 6
#     Node 5, Type 0, BuildingBlock: UKALOJ_clean_sbu_0, # of connection points: 6
#     Node 6, Type 0, BuildingBlock: UKALOJ_clean_sbu_0, # of connection points: 6
#     Node 7, Type 0, BuildingBlock: UKALOJ_clean_sbu_0, # of connection points: 6
#     Node 8, Type 0, BuildingBlock: UKALOJ_clean_sbu_0, # of connection points: 6
#     Node 9, Type 0, BuildingBlock: UKALOJ_clean_sbu_0, # of connection points: 6
#     Node 10, Type 0, BuildingBlock: UKALOJ_clean_sbu_0, # of connection points: 6
#     Node 11, Type 0, BuildingBlock: UKALOJ_clean_sbu_0, # of connection points: 6
#     Node 12, Type 0, BuildingBlock: UKALOJ_clean_sbu_0, # of connection points: 6
#     Node 13, Type 0, BuildingBlock: UKALOJ_clean_sbu_0, # of connection points: 6
#     Node 14, Type 0, BuildingBlock: UKALOJ_clean_sbu_0, # of connection points: 6
#     Node 15, Type 0, BuildingBlock: UKALOJ_clean_sbu_0, # of connection points: 6
#     Edge 16, Type (0, 0), None
#     Edge 17, Type (0, 0), None
#     Edge 18, Type (0, 0), None
#     Edge 19, Type (0, 0), None
#     Edge 20, Type (0, 0), None
#     Edge 21, Type (0, 0), None
#     Edge 22, Type (0, 0), None
#     Edge 23, Type (0, 0), None
#     Edge 24, Type (0, 0), None
#     Edge 25, Type (0, 0), None
#     Edge 26, Type (0, 0), None
#     Edge 27, Type (0, 0), None
#     Edge 28, Type (0, 0), None
#     Edge 29, Type (0, 0), None
#     Edge 30, Type (0, 0), None
#     Edge 31, Type (0, 0), None
#     Edge 32, Type (0, 0), None
#     Edge 33, Type (0, 0), None
#     Edge 34, Type (0, 0), None
#     Edge 35, Type (0, 0), None
#     Edge 36, Type (0, 0), None
#     Edge 37, Type (0, 0), None
#     Edge 38, Type (0, 0), None
#     Edge 39, Type (0, 0), None
#     Edge 40, Type (0, 0), None
#     Edge 41, Type (0, 0), None
#     Edge 42, Type (0, 0), None
#     Edge 43, Type (0, 0), None
#     Edge 44, Type (0, 0), None
#     Edge 45, Type (0, 0), None
#     Edge 46, Type (0, 0), None
#     Edge 47, Type (0, 0), None
#     Edge 48, Type (0, 0), None
#     Edge 49, Type (0, 0), None
#     Edge 50, Type (0, 0), None
#     Edge 51, Type (0, 0), None
#     Edge 52, Type (0, 0), None
#     Edge 53, Type (0, 0), None
#     Edge 54, Type (0, 0), None
#     Edge 55, Type (0, 0), None
#     Edge 56, Type (0, 0), None
#     Edge 57, Type (0, 0), None
#     Edge 58, Type (0, 0), None
#     Edge 59, Type (0, 0), None
#     Edge 60, Type (0, 0), None
#     Edge 61, Type (0, 0), None
#     Edge 62, Type (0, 0), None
#     Edge 63, Type (0, 0), None
# Relax obj value: 0.831
# Max RMSD: 0.220
# Mean RMSD: 0.220
data_MOF--net-why--node1-UKALOJ_clean_sbu_0--edge1-none
_symmetry_space_group_name_H-M    P1
_symmetry_Int_Tables_number       1
_symmetry_cell_setting            triclinic
loop_
_symmetry_equiv_pos_as_xyz
'x, y, z'
_cell_length_a     26.617847
_cell_length_b     26.733238
_cell_length_c     11.435315
_cell_angle_alpha  90.003473
_cell_angle_beta   90.001198
_cell_angle_gamma 90.246271
loop_
_atom_site_label
_atom_site_type_symbol
_atom_site_fract_x
_atom_site_fract_y
_atom_site_fract_z
_atom_type_partial_charge
Zn0 Zn 0.3462 0.21889 0.99036 0.0
O1 O 0.34665 0.14451 0.0539 0.0
C2 C 0.29588 0.26434 0.23717 0.0
Zn3 Zn 0.39268 0.22655 0.13554 0.0
C4 C 0.3713 0.127 0.13822 0.0
O5 O 0.38766 0.1572 0.21401 0.0
C6 C 0.39085 0.3189 0.95773 0.0
O7 O 0.45221 0.19184 1.01843 0.0
O8 O 0.40385 0.18401 0.86627 0.0
N9 N 0.43628 0.24734 0.24694 0.0
C10 C 0.481 0.23253 0.28132 0.0
C11 C 0.46684 0.30529 0.35069 0.0
N12 N 0.42657 0.29179 0.29147 0.0
N13 N 0.50144 0.26921 0.34548 0.0
C14 C 0.24873 0.16359 0.95314 0.0
C15 C 0.25122 0.14011 0.77554 0.0
N16 N 0.2868 0.18918 0.9007 0.0
N17 N 0.28886 0.17362 0.79089 0.0
N18 N 0.22602 0.13258 0.87668 0.0
H19 H 0.27018 0.16994 0.13757 0.0
H20 H 0.22093 0.12729 0.11036 0.0
H21 H 0.20901 0.19333 0.10131 0.0
C22 C 0.23694 0.16373 0.08239 0.0
C23 C 0.50731 0.18697 0.23423 0.0
H24 H 0.4803 0.15858 0.20296 0.0
H25 H 0.53034 0.16854 0.3019 0.0
H26 H 0.53238 0.19812 0.16103 0.0
O27 O 0.40727 0.30171 0.05417 0.0
O28 O 0.35738 0.29273 0.9042 0.0
C29 C 0.44626 0.17475 0.91492 0.0
O30 O 0.28657 0.25583 0.128 0.0
O31 O 0.33972 0.25456 0.26786 0.0
Zn32 Zn 0.58388 0.63564 0.39302 0.0
O33 O 0.62457 0.68907 0.27371 0.0
C34 C 0.48871 0.64452 0.20943 0.0
Zn35 Zn 0.58426 0.59256 0.24014 0.0
C36 C 0.63587 0.68607 0.1663 0.0
O37 O 0.6198 0.64726 0.11222 0.0
C38 C 0.53765 0.5437 0.4892 0.0
O39 O 0.66093 0.58912 0.30003 0.0
O40 O 0.65172 0.62242 0.47006 0.0
N41 N 0.60875 0.53156 0.15074 0.0
C42 C 0.63101 0.49163 0.20284 0.0
C43 C 0.65667 0.49418 1.02675 0.0
N44 N 0.62557 0.53346 0.04188 0.0
N45 N 0.66122 0.4679 0.1271 0.0
C46 C 0.57785 0.72963 0.46253 0.0
C47 C 0.50154 0.71585 0.50996 0.0
N48 N 0.5746 0.68415 0.50766 0.0
N49 N 0.5278 0.67617 0.54131 0.0
N50 N 0.53187 0.74925 0.45803 0.0
H51 H 0.65909 0.73153 0.44428 0.0
H52 H 0.63434 0.78199 0.52539 0.0
H53 H 0.62577 0.78174 0.36979 0.0
C54 C 0.62698 0.75768 0.44886 0.0
C55 C 0.63064 0.47997 0.33201 0.0
H56 H 0.63004 0.51387 0.38652 0.0
H57 H 0.66482 0.45934 0.35855 0.0
H58 H 0.59746 0.45635 0.35284 0.0
O59 O 0.54501 0.53579 0.3791 0.0
O60 O 0.55008 0.58614 0.52424 0.0
C61 C 0.68057 0.60953 0.38844 0.0
O62 O 0.50855 0.65898 0.30581 0.0
O63 O 0.51041 0.60801 0.15692 0.0
Zn64 Zn 0.16095 0.82237 0.63562 0.0
O65 O 0.10143 0.85709 0.51851 0.0
C66 C 0.16278 0.73002 0.45781 0.0
Zn67 Zn 0.20744 0.83003 0.49044 0.0
C68 C 0.10739 0.87418 0.415 0.0
O69 O 0.1498 0.86492 0.36636 0.0
C70 C 0.25776 0.78458 0.73723 0.0
O71 O 0.207 0.90441 0.55399 0.0
O72 O 0.16599 0.89173 0.71408 0.0
N73 N 0.26684 0.85973 0.40077 0.0
C74 C 0.30491 0.88532 0.4532 0.0
C75 C 0.3024 0.9088 0.2756 0.0
N76 N 0.26477 0.87529 0.29096 0.0
N77 N 0.32762 0.91634 0.37674 0.0
C78 C 0.07264 0.81641 0.78141 0.0
C79 C 0.0868 0.74366 0.8508 0.0
N80 N 0.11736 0.8016 0.74703 0.0
N81 N 0.12707 0.75715 0.79156 0.0
N82 N 0.05221 0.77974 0.84558 0.0
H83 H 0.07334 0.89035 0.70305 0.0
H84 H 1.0233 0.8804 0.802 0.0
H85 H 1.02126 0.85082 0.66113 0.0
C86 C 0.04633 0.86196 0.73432 0.0
C87 C 0.31671 0.88518 0.58245 0.0
H88 H 0.28348 0.87898 0.63764 0.0
H89 H 0.33273 0.92163 0.61043 0.0
H90 H 0.34464 0.85558 0.60136 0.0
O91 O 0.26707 0.79309 0.62807 0.0
O92 O 0.21392 0.79437 0.76793 0.0
C93 C 0.18235 0.92192 0.63829 0.0
O94 O 0.14637 0.74722 0.55425 0.0
O95 O 0.19626 0.75619 0.40428 0.0
Zn96 Zn 0.96976 0.41329 0.89299 0.0
O97 O 0.92907 0.35987 0.77366 0.0
C98 C 0.06494 0.40441 0.7094 0.0
Zn99 Zn 0.96938 0.45638 0.74012 0.0
C100 C 0.91777 0.36287 0.66625 0.0
O101 O 0.93385 0.40168 0.61217 0.0
C102 C 1.01599 0.50523 0.9892 0.0
O103 O 0.89272 0.45982 0.8 0.0
O104 O 0.90193 0.42652 0.97003 0.0
N105 N 0.9449 0.51739 0.65074 0.0
C106 C 0.92264 0.55731 0.70285 0.0
C107 C 0.89697 0.55477 0.52676 0.0
N108 N 0.92807 0.51549 0.54188 0.0
N109 N 0.89242 0.58104 0.62712 0.0
C110 C 0.97578 0.3193 0.96246 0.0
C111 C 0.05209 0.33308 1.00991 0.0
N112 N 0.97903 0.36478 1.00761 0.0
N113 N 1.02584 0.37276 0.04127 0.0
N114 N 1.02177 0.29968 0.95796 0.0
H115 H 0.89455 0.31741 0.94419 0.0
H116 H 0.91929 0.26695 1.02528 0.0
H117 H 0.92787 0.26719 0.86968 0.0
C118 C 0.92666 0.29125 0.94877 0.0
C119 C 0.92301 0.56897 0.83202 0.0
H120 H 0.92361 0.53507 0.88653 0.0
H121 H 0.88883 0.58961 0.85857 0.0
H122 H 0.95619 0.59259 0.85287 0.0
O123 O 1.00864 0.51314 0.8791 0.0
O124 O 1.00357 0.46279 1.02422 0.0
C125 C 0.87308 0.43941 0.8884 0.0
O126 O 0.04509 0.38995 0.80577 0.0
O127 O 0.04324 0.44092 0.65691 0.0
Zn128 Zn 0.66095 0.82237 0.93008 0.0
O129 O 0.60143 0.85709 0.04719 0.0
C130 C 0.66278 0.73004 0.1079 0.0
Zn131 Zn 0.70744 0.83004 0.07526 0.0
C132 C 0.60738 0.87418 0.1507 0.0
O133 O 0.64979 0.86493 0.19935 0.0
C134 C 0.75776 0.78459 0.82846 0.0
O135 O 0.70699 0.90442 1.01172 0.0
O136 O 0.66598 0.89173 0.85161 0.0
N137 N 0.76684 0.85975 0.16493 0.0
C138 C 0.80491 0.88534 0.11249 0.0
C139 C 0.80242 0.90882 0.29009 0.0
N140 N 0.76478 0.87531 0.27474 0.0
N141 N 0.82762 0.91635 0.18895 0.0
C142 C 0.57264 0.8164 0.7843 0.0
C143 C 0.5868 0.74364 0.71491 0.0
N144 N 0.61736 0.80159 0.81867 0.0
N145 N 0.62707 0.75714 0.77414 0.0
N146 N 0.5522 0.77972 0.72013 0.0
H147 H 0.57334 0.89035 0.86266 0.0
H148 H 0.52329 0.88039 0.76372 0.0
H149 H 0.52126 0.85081 0.90458 0.0
C150 C 0.54633 0.86195 0.83139 0.0
C151 C 0.8167 0.8852 0.98324 0.0
H152 H 0.78346 0.879 0.92806 0.0
H153 H 0.83272 0.92165 0.95527 0.0
H154 H 0.84463 0.8556 0.96432 0.0
O155 O 0.76707 0.79311 0.93763 0.0
O156 O 0.71392 0.79437 0.79776 0.0
C157 C 0.68234 0.92193 0.9274 0.0
O158 O 0.64637 0.74722 1.01144 0.0
O159 O 0.69627 0.7562 0.16142 0.0
Zn160 Zn 0.46976 0.41329 0.67259 0.0
O161 O 0.42907 0.35985 0.79191 0.0
C162 C 0.56494 0.40442 0.85619 0.0
Zn163 Zn 0.46938 0.45637 0.82547 0.0
C164 C 0.41778 0.36286 0.89933 0.0
O165 O 0.43385 0.40167 0.9534 0.0
C166 C 0.51599 0.50523 0.57642 0.0
O167 O 0.39272 0.45981 0.76559 0.0
O168 O 0.40193 0.42651 0.59556 0.0
N169 N 0.4449 0.51738 0.91488 0.0
C170 C 0.42264 0.5573 0.86278 0.0
C171 C 0.39697 0.55475 0.03887 0.0
N172 N 0.42807 0.51547 1.02374 0.0
N173 N 0.39242 0.58103 0.93852 0.0
C174 C 0.47579 0.3193 0.60308 0.0
C175 C 0.5521 0.33308 0.55565 0.0
N176 N 0.47904 0.36478 0.55795 0.0
N177 N 0.52585 0.37276 0.52431 0.0
N178 N 0.52177 0.29968 0.60757 0.0
H179 H 0.39455 0.31741 0.62133 0.0
H180 H 0.4193 0.26695 0.54022 0.0
H181 H 0.42787 0.26719 0.69582 0.0
C182 C 0.42667 0.29125 0.61674 0.0
C183 C 0.42301 0.56896 0.73361 0.0
H184 H 0.4236 0.53506 0.67909 0.0
H185 H 0.38883 0.5896 0.70707 0.0
H186 H 0.45619 0.59258 0.71278 0.0
O187 O 0.50864 0.51314 0.68652 0.0
O188 O 0.50357 0.4628 0.54138 0.0
C189 C 0.37307 0.4394 0.67718 0.0
O190 O 0.54509 0.38995 0.75981 0.0
O191 O 0.54323 0.44092 0.90869 0.0
Zn192 Zn 0.89269 0.22656 0.43002 0.0
O193 O 0.95221 0.19184 0.54713 0.0
C194 C 0.89086 0.3189 0.60784 0.0
Zn195 Zn 0.84619 0.2189 0.57519 0.0
C196 C 0.94625 0.17475 0.65064 0.0
O197 O 0.90384 0.18401 0.69928 0.0
C198 C 0.79588 0.26435 0.3284 0.0
O199 O 0.84664 0.14452 0.51165 0.0
O200 O 0.88765 0.1572 0.35156 0.0
N201 N 0.78679 0.1892 0.66486 0.0
C202 C 0.74873 0.16361 0.61243 0.0
C203 C 0.75123 0.14013 0.79002 0.0
N204 N 0.78886 0.17364 0.77466 0.0
N205 N 0.72602 0.13259 0.68888 0.0
C206 C 0.981 0.23252 0.28423 0.0
C207 C 0.96684 0.30527 0.21484 0.0
N208 N 0.93628 0.24733 0.31861 0.0
N209 N 0.92657 0.29178 0.27407 0.0
N210 N 1.00143 0.26919 0.22006 0.0
H211 H 0.9803 0.15858 0.3626 0.0
H212 H 0.03034 0.16853 0.26364 0.0
H213 H 0.03238 0.19812 0.40451 0.0
C214 C 1.00731 0.18697 0.33132 0.0
C215 C 0.73693 0.16375 0.48318 0.0
H216 H 0.77016 0.16995 0.42799 0.0
H217 H 0.72091 0.1273 0.4552 0.0
H218 H 0.709 0.19335 0.46426 0.0
O219 O 0.78657 0.25584 0.43756 0.0
O220 O 0.83972 0.25456 0.29771 0.0
C221 C 0.87129 0.12701 0.42734 0.0
O222 O 0.90727 0.30171 0.51139 0.0
O223 O 0.85738 0.29274 0.66135 0.0
Zn224 Zn 0.08387 0.63564 0.17265 0.0
O225 O 0.12457 0.68906 0.29198 0.0
C226 C 0.9887 0.64452 0.35624 0.0
Zn227 Zn 0.08426 0.59255 0.32551 0.0
C228 C 0.13586 0.68606 0.3994 0.0
O229 O 0.11979 0.64725 0.45346 0.0
C230 C 0.03765 0.5437 0.07644 0.0
O231 O 0.16092 0.58911 0.26564 0.0
O232 O 0.15171 0.62241 0.09561 0.0
N233 N 0.10874 0.53154 0.4149 0.0
C234 C 0.131 0.49161 0.36278 0.0
C235 C 0.15667 0.49416 0.53888 0.0
N236 N 0.12557 0.53344 0.52376 0.0
N237 N 0.16122 0.46789 0.43852 0.0
C238 C 0.07786 0.72963 0.10317 0.0
C239 C 1.00155 0.71585 0.05573 0.0
N240 N 0.0746 0.68415 0.05803 0.0
N241 N 0.0278 0.67617 1.02437 0.0
N242 N 0.03187 0.74925 0.10767 0.0
H243 H 0.15909 0.73151 0.12144 0.0
H244 H 0.13435 0.78198 0.04035 0.0
H245 H 0.12578 0.78173 0.19595 0.0
C246 C 0.12698 0.75767 0.11686 0.0
C247 C 0.13063 0.47996 0.23362 0.0
H248 H 0.13004 0.51386 0.17911 0.0
H249 H 0.16481 0.45932 0.20707 0.0
H250 H 0.09745 0.45634 0.21277 0.0
O251 O 0.045 0.53578 0.18654 0.0
O252 O 0.05007 0.58614 0.04141 0.0
C253 C 0.18056 0.60952 0.17723 0.0
O254 O 1.00855 0.65898 0.25986 0.0
O255 O 1.01041 0.60801 0.40873 0.0
Zn256 Zn 0.84622 0.71891 0.49051 0.0
O257 O 0.84663 0.64453 0.55402 0.0
C258 C 0.79592 0.76435 0.73733 0.0
Zn259 Zn 0.89272 0.72654 0.63568 0.0
C260 C 0.87129 0.62701 0.63833 0.0
O261 O 0.8877 0.65718 0.7141 0.0
C262 C 0.89089 0.81891 0.45789 0.0
O263 O 0.95224 0.69183 0.51852 0.0
O264 O 0.90385 0.68401 0.3664 0.0
N265 N 0.93633 0.7473 0.74709 0.0
C266 C 0.98109 0.73253 0.78132 0.0
C267 C 0.96688 0.80529 0.85081 0.0
N268 N 0.9266 0.79174 0.79169 0.0
N269 N 1.0015 0.76925 0.84537 0.0
C270 C 0.74871 0.66369 0.45323 0.0
C271 C 0.75123 0.64018 0.27563 0.0
N272 N 0.78681 0.68924 0.40082 0.0
N273 N 0.78889 0.67365 0.29103 0.0
N274 N 0.72596 0.63273 0.37672 0.0
H275 H 0.77016 0.66999 0.63767 0.0
H276 H 0.72089 0.62737 0.61043 0.0
H277 H 0.709 0.69343 0.60143 0.0
C278 C 0.73692 0.66381 0.58248 0.0
C279 C 1.00741 0.68698 0.7342 0.0
H280 H 0.98039 0.65858 0.70297 0.0
H281 H 0.03045 0.66855 0.80185 0.0
H282 H 0.03246 0.69814 0.66098 0.0
O283 O 0.90731 0.80171 0.55433 0.0
O284 O 0.85741 0.79274 0.40437 0.0
C285 C 0.94627 0.67475 0.41502 0.0
O286 O 0.78661 0.75586 0.62815 0.0
O287 O 0.83976 0.75454 0.76803 0.0
Zn288 Zn 0.08389 0.13563 0.89294 0.0
O289 O 0.12457 0.18906 0.7736 0.0
C290 C 0.9887 0.14452 0.70937 0.0
Zn291 Zn 0.08423 0.09255 0.74006 0.0
C292 C 0.13584 0.18606 0.66617 0.0
O293 O 0.11975 0.14725 0.61211 0.0
C294 C 0.03765 0.0437 0.98919 0.0
O295 O 0.16091 0.08911 0.7999 0.0
O296 O 0.15173 0.12242 0.96997 0.0
N297 N 0.1087 0.03154 0.65067 0.0
C298 C 0.13093 0.99159 0.70277 0.0
C299 C 0.1566 0.99413 0.52666 0.0
N300 N 0.12553 0.03344 0.54181 0.0
N301 N 0.16109 0.96783 0.62698 0.0
C302 C 0.07789 0.22962 0.96249 0.0
C303 C 1.00154 0.21585 1.00987 0.0
N304 N 0.0746 0.18413 1.00753 0.0
N305 N 0.02778 0.17615 0.04111 0.0
N306 N 0.03193 0.24926 0.9582 0.0
H307 H 0.15913 0.23149 0.94424 0.0
H308 H 0.13438 0.28197 1.02532 0.0
H309 H 0.12582 0.28171 0.86973 0.0
C310 C 0.12702 0.25765 0.94882 0.0
C311 C 0.1306 0.97996 0.83195 0.0
H312 H 0.13001 1.01387 0.88643 0.0
H313 H 0.16479 0.95934 0.85847 0.0
H314 H 0.09743 0.95634 0.85286 0.0
O315 O 0.04497 0.03578 0.87907 0.0
O316 O 0.05011 0.08612 1.02421 0.0
C317 C 0.18056 0.1095 0.88832 0.0
O318 O 1.00856 0.15897 0.80575 0.0
O319 O 1.01038 0.108 0.65686 0.0
Zn320 Zn 0.66093 0.3224 0.13562 0.0
O321 O 0.60141 0.35711 1.01846 0.0
C322 C 0.66276 0.23003 0.95782 0.0
Zn323 Zn 0.70743 0.33003 0.99045 0.0
C324 C 0.60738 0.37419 0.91496 0.0
O325 O 0.64979 0.36493 0.86634 0.0
C326 C 0.75772 0.28459 0.23727 0.0
O327 O 0.70701 0.40442 0.05398 0.0
O328 O 0.66595 0.39176 0.21406 0.0
N329 N 0.76683 0.35971 0.90077 0.0
C330 C 0.80493 0.38525 0.95318 0.0
C331 C 0.80242 0.40876 0.77559 0.0
N332 N 0.76475 0.37529 0.79098 0.0
N333 N 0.82768 0.41621 0.87668 0.0
C334 C 0.57256 0.31642 0.28124 0.0
C335 C 0.58676 0.24365 0.35072 0.0
N336 N 0.61732 0.30165 0.24702 0.0
N337 N 0.62705 0.2572 0.29161 0.0
N338 N 0.55215 0.2797 0.34527 0.0
H339 H 0.57326 0.39036 0.20291 0.0
H340 H 0.5232 0.38039 0.30178 0.0
H341 H 0.52119 0.35081 0.16091 0.0
C342 C 0.54624 0.36196 0.23413 0.0
C343 C 0.81673 0.38513 0.08244 0.0
H344 H 0.78349 0.37896 0.13762 0.0
H345 H 0.83276 0.42157 0.11039 0.0
H346 H 0.84465 0.35552 0.10138 0.0
O347 O 0.76704 0.29308 0.12809 0.0
O348 O 0.71389 0.29441 0.26796 0.0
C349 C 0.68236 0.42193 0.13829 0.0
O350 O 0.64635 0.24724 0.05426 0.0
O351 O 0.69624 0.2562 0.9043 0.0
Zn352 Zn 0.46974 0.9133 0.39299 0.0
O353 O 0.42907 0.85986 0.27365 0.0
C354 C 0.56493 0.9044 0.20942 0.0
Zn355 Zn 0.46939 0.95637 0.2401 0.0
C356 C 0.41779 0.86285 0.16623 0.0
O357 O 0.43387 0.90166 0.11216 0.0
C358 C 0.51598 1.00523 0.48919 0.0
O359 O 0.39271 0.95982 0.29994 0.0
O360 O 0.4019 0.92651 0.47 0.0
N361 N 0.44492 1.01737 0.15068 0.0
C362 C 0.4227 0.05733 0.20275 0.0
C363 C 0.39704 0.05477 1.02663 0.0
N364 N 0.4281 1.01546 0.04181 0.0
N365 N 0.39255 0.08109 0.12694 0.0
C366 C 0.47574 0.81931 0.46257 0.0
C367 C 0.55209 0.83308 0.50997 0.0
N368 N 0.47903 0.86481 0.5076 0.0
N369 N 0.52585 0.87279 0.54119 0.0
N370 N 0.52171 0.79967 0.45829 0.0
H371 H 0.39451 0.81744 0.44429 0.0
H372 H 0.41925 0.76696 0.52537 0.0
H373 H 0.42782 0.76722 0.36978 0.0
C374 C 0.42661 0.79128 0.44887 0.0
C375 C 0.42303 0.06897 0.33192 0.0
H376 H 0.42361 0.03508 0.38642 0.0
H377 H 0.38884 0.08961 0.35842 0.0
H378 H 0.4562 0.0926 0.35283 0.0
O379 O 0.50865 1.01314 0.37908 0.0
O380 O 0.50353 0.96281 0.52423 0.0
C381 C 0.37307 0.93943 0.38837 0.0
O382 O 0.54508 0.88995 0.30581 0.0
O383 O 0.54324 0.94091 0.15691 0.0
Zn384 Zn 0.16092 0.32239 0.42996 0.0
O385 O 0.1014 0.35709 0.54712 0.0
C386 C 0.16274 0.23003 0.60775 0.0
Zn387 Zn 0.20742 0.33002 0.57512 0.0
C388 C 0.10737 0.37418 0.65062 0.0
O389 O 0.14979 0.36492 0.69924 0.0
C390 C 0.25772 0.28458 0.3283 0.0
O391 O 0.20701 0.4044 0.51161 0.0
O392 O 0.16594 0.39174 0.35154 0.0
N393 N 0.26683 0.35969 0.66481 0.0
C394 C 0.30493 0.38524 0.61239 0.0
C395 C 0.30242 0.40875 0.79 0.0
N396 N 0.26475 0.37528 0.7746 0.0
N397 N 0.32768 0.4162 0.6889 0.0
C398 C 0.07255 0.3164 0.28432 0.0
C399 C 0.08676 0.24364 0.21482 0.0
N400 N 0.11731 0.30163 0.31854 0.0
N401 N 0.12704 0.25719 0.27395 0.0
N402 N 0.05214 0.27969 0.22027 0.0
H403 H 0.07325 0.39034 0.36268 0.0
H404 H 1.02319 0.38038 0.2638 0.0
H405 H 1.02118 0.35079 0.40466 0.0
C406 C 0.04623 0.36194 0.33144 0.0
C407 C 0.31672 0.38512 0.48314 0.0
H408 H 0.28348 0.37894 0.42796 0.0
H409 H 0.33276 0.42156 0.4552 0.0
H410 H 0.34464 0.35551 0.46419 0.0
O411 O 0.26703 0.29307 0.43748 0.0
O412 O 0.21388 0.29439 0.29761 0.0
C413 C 0.18235 0.42192 0.42731 0.0
O414 O 0.14633 0.24722 0.5113 0.0
O415 O 0.19623 0.25619 0.66127 0.0
Zn416 Zn 0.96975 0.9133 0.1727 0.0
O417 O 0.92908 0.85987 0.29204 0.0
C418 C 0.06494 0.90441 0.35627 0.0
Zn419 Zn 0.96941 0.95638 0.32557 0.0
C420 C 0.91781 0.86287 0.39947 0.0
O421 O 0.93389 0.90169 0.45353 0.0
C422 C 1.01599 1.00523 0.07645 0.0
O423 O 0.89273 0.95983 0.26574 0.0
O424 O 0.90191 0.92651 0.09567 0.0
N425 N 0.94494 1.0174 0.41497 0.0
C426 C 0.92271 0.05734 0.36287 0.0
C427 C 0.89704 0.0548 0.53898 0.0
N428 N 0.92811 1.0155 0.52383 0.0
N429 N 0.89255 0.0811 0.43866 0.0
C430 C 0.97575 0.81931 0.10314 0.0
C431 C 0.0521 0.83308 0.05576 0.0
N432 N 0.97904 0.86481 0.0581 0.0
N433 N 1.02586 0.87279 1.02453 0.0
N434 N 1.02171 0.79967 0.10743 0.0
H435 H 0.89451 0.81745 0.12139 0.0
H436 H 0.91926 0.76696 0.04031 0.0
H437 H 0.92782 0.76723 0.1959 0.0
C438 C 0.92662 0.79128 0.11681 0.0
C439 C 0.92304 0.06897 0.23369 0.0
H440 H 0.92363 0.03506 0.17921 0.0
H441 H 0.88885 0.0896 0.20717 0.0
H442 H 0.95621 0.0926 0.21278 0.0
O443 O 1.00867 1.01315 0.18657 0.0
O444 O 1.00353 0.96281 0.04143 0.0
C445 C 0.87308 0.93943 0.17732 0.0
O446 O 0.04509 0.88996 0.25989 0.0
O447 O 0.04326 0.94094 0.40878 0.0
Zn448 Zn 0.34621 0.71889 0.07517 0.0
O449 O 0.34663 0.64451 1.01164 0.0
C450 C 0.29592 0.76433 0.82836 0.0
Zn451 Zn 0.39272 0.72653 0.93 0.0
C452 C 0.37128 0.627 0.92733 0.0
O453 O 0.3877 0.65717 0.85157 0.0
C454 C 0.39089 0.81889 0.10781 0.0
O455 O 0.45223 0.69182 0.04716 0.0
O456 O 0.40385 0.68399 0.19928 0.0
N457 N 0.43633 0.74728 0.81859 0.0
C458 C 0.48109 0.73252 0.78438 0.0
C459 C 0.46688 0.80528 0.71489 0.0
N460 N 0.42659 0.79173 0.774 0.0
N461 N 0.50149 0.76923 0.72034 0.0
C462 C 0.24871 0.66368 0.11244 0.0
C463 C 0.25123 0.64017 0.29004 0.0
N464 N 0.28681 0.68922 0.16486 0.0
N465 N 0.28889 0.67364 0.27465 0.0
N466 N 0.22596 0.63272 0.18895 0.0
H467 H 0.27015 0.66997 0.92801 0.0
H468 H 0.22088 0.62735 0.95524 0.0
H469 H 0.20899 0.69341 0.96425 0.0
C470 C 0.23691 0.66379 0.98319 0.0
C471 C 0.5074 0.68697 0.83149 0.0
H472 H 0.48039 0.65857 0.86271 0.0
H473 H 0.53045 0.66854 0.76384 0.0
H474 H 0.53246 0.69812 0.90471 0.0
O475 O 0.4073 0.8017 1.01136 0.0
O476 O 0.3574 0.79272 0.16133 0.0
C477 C 0.44627 0.67474 0.15066 0.0
O478 O 0.2866 0.75584 0.93754 0.0
O479 O 0.33975 0.75452 0.79766 0.0
Zn480 Zn 0.58389 0.13563 0.67263 0.0
O481 O 0.62457 0.18907 0.79197 0.0
C482 C 0.48871 0.14453 0.85619 0.0
Zn483 Zn 0.58425 0.09256 0.82552 0.0
C484 C 0.63584 0.18608 0.8994 0.0
O485 O 0.61977 0.14726 0.95346 0.0
C486 C 0.53766 0.0437 0.57643 0.0
O487 O 0.66092 0.08911 0.76568 0.0
O488 O 0.65173 0.12242 0.59562 0.0
N489 N 0.60871 0.03156 0.91494 0.0
C490 C 0.63094 0.9916 0.86287 0.0
C491 C 0.6566 0.99416 0.03899 0.0
N492 N 0.62553 0.03347 1.02381 0.0
N493 N 0.66109 0.96784 0.93868 0.0
C494 C 0.5779 0.22962 0.60304 0.0
C495 C 0.50155 0.21585 0.55564 0.0
N496 N 0.57461 0.18412 0.55801 0.0
N497 N 0.52779 0.17614 0.52443 0.0
N498 N 0.53193 0.24926 0.60732 0.0
H499 H 0.65913 0.23148 0.62132 0.0
H500 H 0.63439 0.28197 0.54023 0.0
H501 H 0.62582 0.28171 0.69582 0.0
C502 C 0.62703 0.25765 0.61673 0.0
C503 C 0.6306 0.97995 0.7337 0.0
H504 H 0.63002 1.01385 0.6792 0.0
H505 H 0.6648 0.95932 0.7072 0.0
H506 H 0.59744 0.95633 0.71279 0.0
O507 O 0.54499 0.03579 0.68654 0.0
O508 O 0.55011 0.08612 0.54139 0.0
C509 C 0.68056 0.1095 0.67725 0.0
O510 O 0.50856 0.15898 0.75981 0.0
O511 O 0.51039 0.10801 0.90871 0.0
loop_
_geom_bond_atom_site_label_1
_geom_bond_atom_site_label_2
_geom_bond_distance
_geom_bond_site_symmetry_2
_ccdc_geom_bond_type
Zn0 O1 2.055 1_556 S
Zn0 O8 2.046 . S
Zn0 N16 2.036 . S
Zn0 O28 2.053 . S
Zn0 O30 2.066 1_556 S
O1 Zn0 2.055 1_554 S
O1 C4 1.259 . S
C2 O30 1.256 . S
C2 O31 1.244 . S
Zn3 O5 2.046 . S
Zn3 O7 2.055 1_554 S
Zn3 N9 2.036 . S
Zn3 O27 2.066 1_554 S
Zn3 O31 2.053 . S
C4 O1 1.259 . S
C4 O5 1.254 . S
O5 Zn3 2.046 . S
O5 C4 1.254 . S
C6 O27 1.256 . S
C6 O28 1.244 . S
O7 Zn3 2.055 1_556 S
O7 C29 1.259 . S
O8 Zn0 2.046 . S
O8 C29 1.254 . S
N9 Zn3 2.036 . S
N9 C10 1.298 . S
N9 N12 1.398 . S
C10 N9 1.298 . S
C10 N13 1.367 . S
C10 C23 1.481 . S
C11 N12 1.299 . S
C11 N13 1.379 . S
N12 N9 1.398 . S
N12 C11 1.299 . S
N13 C10 1.367 . S
N13 C11 1.379 . S
C14 N16 1.298 . S
C14 N18 1.367 . S
C14 C22 1.481 1_556 S
C15 N17 1.299 . S
C15 N18 1.379 . S
N16 Zn0 2.036 . S
N16 C14 1.298 . S
N16 N17 1.398 . S
N17 C15 1.299 . S
N17 N16 1.398 . S
N18 C14 1.367 . S
N18 C15 1.379 . S
H19 C22 0.980 . S
H20 C22 0.981 . S
H21 C22 0.981 . S
C22 C14 1.481 1_554 S
C22 H19 0.980 . S
C22 H20 0.981 . S
C22 H21 0.981 . S
C23 C10 1.481 . S
C23 H24 0.980 1_554 S
C23 H25 0.981 . S
C23 H26 0.981 1_554 S
H24 C23 0.980 1_556 S
H25 C23 0.981 . S
H26 C23 0.981 1_556 S
O27 Zn3 2.066 1_556 S
O27 C6 1.256 . S
O28 Zn0 2.053 . S
O28 C6 1.244 . S
C29 O7 1.259 . S
C29 O8 1.254 . S
O30 Zn0 2.066 1_554 S
O30 C2 1.256 . S
O31 C2 1.244 . S
O31 Zn3 2.053 . S
Zn32 O33 2.055 . S
Zn32 O40 2.046 . S
Zn32 N48 2.036 . S
Zn32 O60 2.053 . S
Zn32 O62 2.066 . S
O33 Zn32 2.055 . S
O33 C36 1.259 . S
C34 O62 1.256 . S
C34 O63 1.244 . S
Zn35 O37 2.046 . S
Zn35 O39 2.055 . S
Zn35 N41 2.036 . S
Zn35 O59 2.066 . S
Zn35 O63 2.053 . S
C36 O33 1.259 . S
C36 O37 1.254 . S
O37 Zn35 2.046 . S
O37 C36 1.254 . S
C38 O59 1.256 . S
C38 O60 1.244 . S
O39 Zn35 2.055 . S
O39 C61 1.259 . S
O40 Zn32 2.046 . S
O40 C61 1.254 . S
N41 Zn35 2.036 . S
N41 C42 1.298 . S
N41 N44 1.398 . S
C42 N41 1.298 . S
C42 N45 1.367 . S
C42 C55 1.481 . S
C43 N44 1.299 . S
C43 N45 1.379 . S
N44 N41 1.398 . S
N44 C43 1.299 . S
N45 C42 1.367 . S
N45 C43 1.379 . S
C46 N48 1.298 . S
C46 N50 1.367 . S
C46 C54 1.481 . S
C47 N49 1.299 . S
C47 N50 1.379 . S
N48 Zn32 2.036 . S
N48 C46 1.298 . S
N48 N49 1.398 . S
N49 C47 1.299 . S
N49 N48 1.398 . S
N50 C46 1.367 . S
N50 C47 1.379 . S
H51 C54 0.980 . S
H52 C54 0.981 . S
H53 C54 0.981 . S
C54 C46 1.481 . S
C54 H51 0.980 . S
C54 H52 0.981 . S
C54 H53 0.981 . S
C55 C42 1.481 . S
C55 H56 0.980 . S
C55 H57 0.981 . S
C55 H58 0.981 . S
H56 C55 0.980 . S
H57 C55 0.981 . S
H58 C55 0.981 . S
O59 Zn35 2.066 . S
O59 C38 1.256 . S
O60 Zn32 2.053 . S
O60 C38 1.244 . S
C61 O39 1.259 . S
C61 O40 1.254 . S
O62 Zn32 2.066 . S
O62 C34 1.256 . S
O63 C34 1.244 . S
O63 Zn35 2.053 . S
Zn64 O65 2.055 . S
Zn64 O72 2.046 . S
Zn64 N80 2.036 . S
Zn64 O92 2.053 . S
Zn64 O94 2.066 . S
O65 Zn64 2.055 . S
O65 C68 1.259 . S
C66 O94 1.256 . S
C66 O95 1.244 . S
Zn67 O69 2.046 . S
Zn67 O71 2.055 . S
Zn67 N73 2.036 . S
Zn67 O91 2.066 . S
Zn67 O95 2.053 . S
C68 O65 1.259 . S
C68 O69 1.254 . S
O69 Zn67 2.046 . S
O69 C68 1.254 . S
C70 O91 1.256 . S
C70 O92 1.244 . S
O71 Zn67 2.055 . S
O71 C93 1.259 . S
O72 Zn64 2.046 . S
O72 C93 1.254 . S
N73 Zn67 2.036 . S
N73 C74 1.298 . S
N73 N76 1.398 . S
C74 N73 1.298 . S
C74 N77 1.367 . S
C74 C87 1.481 . S
C75 N76 1.299 . S
C75 N77 1.379 . S
N76 N73 1.398 . S
N76 C75 1.299 . S
N77 C74 1.367 . S
N77 C75 1.379 . S
C78 N80 1.298 . S
C78 N82 1.367 1_455 S
C78 C86 1.481 . S
C79 N81 1.299 . S
C79 N82 1.379 1_455 S
N80 Zn64 2.036 . S
N80 C78 1.298 . S
N80 N81 1.398 . S
N81 C79 1.299 . S
N81 N80 1.398 . S
N82 C78 1.367 1_655 S
N82 C79 1.379 1_655 S
H83 C86 0.980 . S
H84 C86 0.981 1_655 S
H85 C86 0.981 . S
C86 C78 1.481 . S
C86 H83 0.980 . S
C86 H84 0.981 1_455 S
C86 H85 0.981 . S
C87 C74 1.481 . S
C87 H88 0.980 . S
C87 H89 0.981 . S
C87 H90 0.981 . S
H88 C87 0.980 . S
H89 C87 0.981 . S
H90 C87 0.981 . S
O91 Zn67 2.066 . S
O91 C70 1.256 . S
O92 Zn64 2.053 . S
O92 C70 1.244 . S
C93 O71 1.259 . S
C93 O72 1.254 . S
O94 Zn64 2.066 . S
O94 C66 1.256 . S
O95 C66 1.244 . S
O95 Zn67 2.053 . S
Zn96 O97 2.055 . S
Zn96 O104 2.046 . S
Zn96 N112 2.036 . S
Zn96 O124 2.053 . S
Zn96 O126 2.066 1_655 S
O97 Zn96 2.055 . S
O97 C100 1.259 . S
C98 O126 1.256 . S
C98 O127 1.244 1_455 S
Zn99 O101 2.046 . S
Zn99 O103 2.055 . S
Zn99 N105 2.036 . S
Zn99 O123 2.066 . S
Zn99 O127 2.053 . S
C100 O97 1.259 . S
C100 O101 1.254 . S
O101 Zn99 2.046 . S
O101 C100 1.254 . S
C102 O123 1.256 . S
C102 O124 1.244 . S
O103 Zn99 2.055 . S
O103 C125 1.259 . S
O104 Zn96 2.046 . S
O104 C125 1.254 . S
N105 Zn99 2.036 . S
N105 C106 1.298 . S
N105 N108 1.398 . S
C106 N105 1.298 . S
C106 N109 1.367 . S
C106 C119 1.481 . S
C107 N108 1.299 . S
C107 N109 1.379 . S
N108 N105 1.398 . S
N108 C107 1.299 . S
N109 C106 1.367 . S
N109 C107 1.379 . S
C110 N112 1.298 . S
C110 N114 1.367 1_655 S
C110 C118 1.481 . S
C111 N113 1.299 1_455 S
C111 N114 1.379 1_554 S
N112 Zn96 2.036 . S
N112 C110 1.298 . S
N112 N113 1.398 1_556 S
N113 C111 1.299 1_655 S
N113 N112 1.398 1_554 S
N114 C110 1.367 1_455 S
N114 C111 1.379 1_556 S
H115 C118 0.980 . S
H116 C118 0.981 . S
H117 C118 0.981 1_455 S
C118 C110 1.481 . S
C118 H115 0.980 . S
C118 H116 0.981 . S
C118 H117 0.981 1_655 S
C119 C106 1.481 . S
C119 H120 0.980 . S
C119 H121 0.981 . S
C119 H122 0.981 . S
H120 C119 0.980 . S
H121 C119 0.981 . S
H122 C119 0.981 . S
O123 Zn99 2.066 . S
O123 C102 1.256 . S
O124 Zn96 2.053 . S
O124 C102 1.244 . S
C125 O103 1.259 . S
C125 O104 1.254 . S
O126 Zn96 2.066 1_455 S
O126 C98 1.256 . S
O127 C98 1.244 1_655 S
O127 Zn99 2.053 . S
Zn128 O129 2.055 1_556 S
Zn128 O136 2.046 . S
Zn128 N144 2.036 . S
Zn128 O156 2.053 . S
Zn128 O158 2.066 1_556 S
O129 Zn128 2.055 1_554 S
O129 C132 1.259 . S
C130 O158 1.256 . S
C130 O159 1.244 . S
Zn131 O133 2.046 . S
Zn131 O135 2.055 1_554 S
Zn131 N137 2.036 . S
Zn131 O155 2.066 1_554 S
Zn131 O159 2.053 . S
C132 O129 1.259 . S
C132 O133 1.254 . S
O133 Zn131 2.046 . S
O133 C132 1.254 . S
C134 O155 1.256 . S
C134 O156 1.244 . S
O135 Zn131 2.055 1_556 S
O135 C157 1.259 . S
O136 Zn128 2.046 . S
O136 C157 1.254 . S
N137 Zn131 2.036 . S
N137 C138 1.298 . S
N137 N140 1.398 . S
C138 N137 1.298 . S
C138 N141 1.367 . S
C138 C151 1.481 1_554 S
C139 N140 1.299 . S
C139 N141 1.379 . S
N140 N137 1.398 . S
N140 C139 1.299 . S
N141 C138 1.367 . S
N141 C139 1.379 . S
C142 N144 1.298 . S
C142 N146 1.367 . S
C142 C150 1.481 . S
C143 N145 1.299 . S
C143 N146 1.379 . S
N144 Zn128 2.036 . S
N144 C142 1.298 . S
N144 N145 1.398 . S
N145 C143 1.299 . S
N145 N144 1.398 . S
N146 C142 1.367 . S
N146 C143 1.379 . S
H147 C150 0.980 1_554 S
H148 C150 0.981 . S
H149 C150 0.981 1_554 S
C150 C142 1.481 . S
C150 H147 0.980 1_556 S
C150 H148 0.981 . S
C150 H149 0.981 1_556 S
C151 C138 1.481 1_556 S
C151 H152 0.980 . S
C151 H153 0.981 . S
C151 H154 0.981 . S
H152 C151 0.980 . S
H153 C151 0.981 . S
H154 C151 0.981 . S
O155 Zn131 2.066 1_556 S
O155 C134 1.256 . S
O156 Zn128 2.053 . S
O156 C134 1.244 . S
C157 O135 1.259 . S
C157 O136 1.254 . S
O158 Zn128 2.066 1_554 S
O158 C130 1.256 . S
O159 C130 1.244 . S
O159 Zn131 2.053 . S
Zn160 O161 2.055 . S
Zn160 O168 2.046 . S
Zn160 N176 2.036 . S
Zn160 O188 2.053 . S
Zn160 O190 2.066 . S
O161 Zn160 2.055 . S
O161 C164 1.259 . S
C162 O190 1.256 . S
C162 O191 1.244 . S
Zn163 O165 2.046 . S
Zn163 O167 2.055 . S
Zn163 N169 2.036 . S
Zn163 O187 2.066 . S
Zn163 O191 2.053 . S
C164 O161 1.259 . S
C164 O165 1.254 . S
O165 Zn163 2.046 . S
O165 C164 1.254 . S
C166 O187 1.256 . S
C166 O188 1.244 . S
O167 Zn163 2.055 . S
O167 C189 1.259 . S
O168 Zn160 2.046 . S
O168 C189 1.254 . S
N169 Zn163 2.036 . S
N169 C170 1.298 . S
N169 N172 1.398 . S
C170 N169 1.298 . S
C170 N173 1.367 . S
C170 C183 1.481 . S
C171 N172 1.299 . S
C171 N173 1.379 . S
N172 N169 1.398 . S
N172 C171 1.299 . S
N173 C170 1.367 . S
N173 C171 1.379 . S
C174 N176 1.298 . S
C174 N178 1.367 . S
C174 C182 1.481 . S
C175 N177 1.299 . S
C175 N178 1.379 . S
N176 Zn160 2.036 . S
N176 C174 1.298 . S
N176 N177 1.398 . S
N177 C175 1.299 . S
N177 N176 1.398 . S
N178 C174 1.367 . S
N178 C175 1.379 . S
H179 C182 0.980 . S
H180 C182 0.981 . S
H181 C182 0.981 . S
C182 C174 1.481 . S
C182 H179 0.980 . S
C182 H180 0.981 . S
C182 H181 0.981 . S
C183 C170 1.481 . S
C183 H184 0.980 . S
C183 H185 0.981 . S
C183 H186 0.981 . S
H184 C183 0.980 . S
H185 C183 0.981 . S
H186 C183 0.981 . S
O187 Zn163 2.066 . S
O187 C166 1.256 . S
O188 Zn160 2.053 . S
O188 C166 1.244 . S
C189 O167 1.259 . S
C189 O168 1.254 . S
O190 Zn160 2.066 . S
O190 C162 1.256 . S
O191 C162 1.244 . S
O191 Zn163 2.053 . S
Zn192 O193 2.055 . S
Zn192 O200 2.046 . S
Zn192 N208 2.036 . S
Zn192 O220 2.053 . S
Zn192 O222 2.066 . S
O193 Zn192 2.055 . S
O193 C196 1.259 . S
C194 O222 1.256 . S
C194 O223 1.244 . S
Zn195 O197 2.046 . S
Zn195 O199 2.055 . S
Zn195 N201 2.036 . S
Zn195 O219 2.066 . S
Zn195 O223 2.053 . S
C196 O193 1.259 . S
C196 O197 1.254 . S
O197 Zn195 2.046 . S
O197 C196 1.254 . S
C198 O219 1.256 . S
C198 O220 1.244 . S
O199 Zn195 2.055 . S
O199 C221 1.259 . S
O200 Zn192 2.046 . S
O200 C221 1.254 . S
N201 Zn195 2.036 . S
N201 C202 1.298 . S
N201 N204 1.398 . S
C202 N201 1.298 . S
C202 N205 1.367 . S
C202 C215 1.481 . S
C203 N204 1.299 . S
C203 N205 1.379 . S
N204 N201 1.398 . S
N204 C203 1.299 . S
N205 C202 1.367 . S
N205 C203 1.379 . S
C206 N208 1.298 . S
C206 N210 1.367 1_655 S
C206 C214 1.481 . S
C207 N209 1.299 . S
C207 N210 1.379 1_655 S
N208 Zn192 2.036 . S
N208 C206 1.298 . S
N208 N209 1.398 . S
N209 C207 1.299 . S
N209 N208 1.398 . S
N210 C206 1.367 1_455 S
N210 C207 1.379 1_455 S
H211 C214 0.980 . S
H212 C214 0.981 1_455 S
H213 C214 0.981 . S
C214 C206 1.481 . S
C214 H211 0.980 . S
C214 H212 0.981 1_655 S
C214 H213 0.981 . S
C215 C202 1.481 . S
C215 H216 0.980 . S
C215 H217 0.981 . S
C215 H218 0.981 . S
H216 C215 0.980 . S
H217 C215 0.981 . S
H218 C215 0.981 . S
O219 Zn195 2.066 . S
O219 C198 1.256 . S
O220 Zn192 2.053 . S
O220 C198 1.244 . S
C221 O199 1.259 . S
C221 O200 1.254 . S
O222 Zn192 2.066 . S
O222 C194 1.256 . S
O223 C194 1.244 . S
O223 Zn195 2.053 . S
Zn224 O225 2.055 . S
Zn224 O232 2.046 . S
Zn224 N240 2.036 . S
Zn224 O252 2.053 . S
Zn224 O254 2.066 1_455 S
O225 Zn224 2.055 . S
O225 C228 1.259 . S
C226 O254 1.256 . S
C226 O255 1.244 1_655 S
Zn227 O229 2.046 . S
Zn227 O231 2.055 . S
Zn227 N233 2.036 . S
Zn227 O251 2.066 . S
Zn227 O255 2.053 . S
C228 O225 1.259 . S
C228 O229 1.254 . S
O229 Zn227 2.046 . S
O229 C228 1.254 . S
C230 O251 1.256 . S
C230 O252 1.244 . S
O231 Zn227 2.055 . S
O231 C253 1.259 . S
O232 Zn224 2.046 . S
O232 C253 1.254 . S
N233 Zn227 2.036 . S
N233 C234 1.298 . S
N233 N236 1.398 . S
C234 N233 1.298 . S
C234 N237 1.367 . S
C234 C247 1.481 . S
C235 N236 1.299 . S
C235 N237 1.379 . S
N236 N233 1.398 . S
N236 C235 1.299 . S
N237 C234 1.367 . S
N237 C235 1.379 . S
C238 N240 1.298 . S
C238 N242 1.367 1_455 S
C238 C246 1.481 . S
C239 N241 1.299 1_655 S
C239 N242 1.379 1_556 S
N240 Zn224 2.036 . S
N240 C238 1.298 . S
N240 N241 1.398 1_554 S
N241 C239 1.299 1_455 S
N241 N240 1.398 1_556 S
N242 C238 1.367 1_655 S
N242 C239 1.379 1_554 S
H243 C246 0.980 . S
H244 C246 0.981 . S
H245 C246 0.981 1_655 S
C246 C238 1.481 . S
C246 H243 0.980 . S
C246 H244 0.981 . S
C246 H245 0.981 1_455 S
C247 C234 1.481 . S
C247 H248 0.980 . S
C247 H249 0.981 . S
C247 H250 0.981 . S
H248 C247 0.980 . S
H249 C247 0.981 . S
H250 C247 0.981 . S
O251 Zn227 2.066 . S
O251 C230 1.256 . S
O252 Zn224 2.053 . S
O252 C230 1.244 . S
C253 O231 1.259 . S
C253 O232 1.254 . S
O254 Zn224 2.066 1_655 S
O254 C226 1.256 . S
O255 C226 1.244 1_455 S
O255 Zn227 2.053 . S
Zn256 O257 2.055 . S
Zn256 O264 2.046 . S
Zn256 N272 2.036 . S
Zn256 O284 2.053 . S
Zn256 O286 2.066 . S
O257 Zn256 2.055 . S
O257 C260 1.259 . S
C258 O286 1.256 . S
C258 O287 1.244 . S
Zn259 O261 2.046 . S
Zn259 O263 2.055 . S
Zn259 N265 2.036 . S
Zn259 O283 2.066 . S
Zn259 O287 2.053 . S
C260 O257 1.259 . S
C260 O261 1.254 . S
O261 Zn259 2.046 . S
O261 C260 1.254 . S
C262 O283 1.256 . S
C262 O284 1.244 . S
O263 Zn259 2.055 . S
O263 C285 1.259 . S
O264 Zn256 2.046 . S
O264 C285 1.254 . S
N265 Zn259 2.036 . S
N265 C266 1.298 . S
N265 N268 1.398 . S
C266 N265 1.298 . S
C266 N269 1.367 1_655 S
C266 C279 1.481 . S
C267 N268 1.299 . S
C267 N269 1.379 1_655 S
N268 N265 1.398 . S
N268 C267 1.299 . S
N269 C266 1.367 1_455 S
N269 C267 1.379 1_455 S
C270 N272 1.298 . S
C270 N274 1.367 . S
C270 C278 1.481 . S
C271 N273 1.299 . S
C271 N274 1.379 . S
N272 Zn256 2.036 . S
N272 C270 1.298 . S
N272 N273 1.398 . S
N273 C271 1.299 . S
N273 N272 1.398 . S
N274 C270 1.367 . S
N274 C271 1.379 . S
H275 C278 0.980 . S
H276 C278 0.981 . S
H277 C278 0.981 . S
C278 C270 1.481 . S
C278 H275 0.980 . S
C278 H276 0.981 . S
C278 H277 0.981 . S
C279 C266 1.481 . S
C279 H280 0.980 . S
C279 H281 0.981 1_655 S
C279 H282 0.981 . S
H280 C279 0.980 . S
H281 C279 0.981 1_455 S
H282 C279 0.981 . S
O283 Zn259 2.066 . S
O283 C262 1.256 . S
O284 Zn256 2.053 . S
O284 C262 1.244 . S
C285 O263 1.259 . S
C285 O264 1.254 . S
O286 Zn256 2.066 . S
O286 C258 1.256 . S
O287 C258 1.244 . S
O287 Zn259 2.053 . S
Zn288 O289 2.055 . S
Zn288 O296 2.046 . S
Zn288 N304 2.036 . S
Zn288 O316 2.053 . S
Zn288 O318 2.066 1_455 S
O289 Zn288 2.055 . S
O289 C292 1.259 . S
C290 O318 1.256 . S
C290 O319 1.244 1_655 S
Zn291 O293 2.046 . S
Zn291 O295 2.055 . S
Zn291 N297 2.036 1_545 S
Zn291 O315 2.066 . S
Zn291 O319 2.053 . S
C292 O289 1.259 . S
C292 O293 1.254 . S
O293 Zn291 2.046 . S
O293 C292 1.254 . S
C294 O315 1.256 . S
C294 O316 1.244 . S
O295 Zn291 2.055 . S
O295 C317 1.259 . S
O296 Zn288 2.046 . S
O296 C317 1.254 . S
N297 Zn291 2.036 1_565 S
N297 C298 1.298 . S
N297 N300 1.398 . S
C298 N297 1.298 . S
C298 N301 1.367 . S
C298 C311 1.481 . S
C299 N300 1.299 . S
C299 N301 1.379 . S
N300 N297 1.398 . S
N300 C299 1.299 . S
N301 C298 1.367 . S
N301 C299 1.379 . S
C302 N304 1.298 . S
C302 N306 1.367 1_455 S
C302 C310 1.481 . S
C303 N305 1.299 1_655 S
C303 N306 1.379 1_554 S
N304 Zn288 2.036 . S
N304 C302 1.298 . S
N304 N305 1.398 1_556 S
N305 C303 1.299 1_455 S
N305 N304 1.398 1_554 S
N306 C302 1.367 1_655 S
N306 C303 1.379 1_556 S
H307 C310 0.980 . S
H308 C310 0.981 . S
H309 C310 0.981 1_655 S
C310 C302 1.481 . S
C310 H307 0.980 . S
C310 H308 0.981 . S
C310 H309 0.981 1_455 S
C311 C298 1.481 . S
C311 H312 0.980 . S
C311 H313 0.981 . S
C311 H314 0.981 . S
H312 C311 0.980 . S
H313 C311 0.981 . S
H314 C311 0.981 . S
O315 Zn291 2.066 . S
O315 C294 1.256 . S
O316 Zn288 2.053 . S
O316 C294 1.244 . S
C317 O295 1.259 . S
C317 O296 1.254 . S
O318 Zn288 2.066 1_655 S
O318 C290 1.256 . S
O319 C290 1.244 1_455 S
O319 Zn291 2.053 . S
Zn320 O321 2.055 1_554 S
Zn320 O328 2.046 . S
Zn320 N336 2.036 . S
Zn320 O348 2.053 . S
Zn320 O350 2.066 1_554 S
O321 Zn320 2.055 1_556 S
O321 C324 1.259 . S
C322 O350 1.256 . S
C322 O351 1.244 . S
Zn323 O325 2.046 . S
Zn323 O327 2.055 1_556 S
Zn323 N329 2.036 . S
Zn323 O347 2.066 1_556 S
Zn323 O351 2.053 . S
C324 O321 1.259 . S
C324 O325 1.254 . S
O325 Zn323 2.046 . S
O325 C324 1.254 . S
C326 O347 1.256 . S
C326 O348 1.244 . S
O327 Zn323 2.055 1_554 S
O327 C349 1.259 . S
O328 Zn320 2.046 . S
O328 C349 1.254 . S
N329 Zn323 2.036 . S
N329 C330 1.298 . S
N329 N332 1.398 . S
C330 N329 1.298 . S
C330 N333 1.367 . S
C330 C343 1.481 1_556 S
C331 N332 1.299 . S
C331 N333 1.379 . S
N332 N329 1.398 . S
N332 C331 1.299 . S
N333 C330 1.367 . S
N333 C331 1.379 . S
C334 N336 1.298 . S
C334 N338 1.367 . S
C334 C342 1.481 . S
C335 N337 1.299 . S
C335 N338 1.379 . S
N336 Zn320 2.036 . S
N336 C334 1.298 . S
N336 N337 1.398 . S
N337 C335 1.299 . S
N337 N336 1.398 . S
N338 C334 1.367 . S
N338 C335 1.379 . S
H339 C342 0.980 1_556 S
H340 C342 0.981 . S
H341 C342 0.981 1_556 S
C342 C334 1.481 . S
C342 H339 0.980 1_554 S
C342 H340 0.981 . S
C342 H341 0.981 1_554 S
C343 C330 1.481 1_554 S
C343 H344 0.980 . S
C343 H345 0.981 . S
C343 H346 0.981 . S
H344 C343 0.980 . S
H345 C343 0.981 . S
H346 C343 0.981 . S
O347 Zn323 2.066 1_554 S
O347 C326 1.256 . S
O348 Zn320 2.053 . S
O348 C326 1.244 . S
C349 O327 1.259 . S
C349 O328 1.254 . S
O350 Zn320 2.066 1_556 S
O350 C322 1.256 . S
O351 C322 1.244 . S
O351 Zn323 2.053 . S
Zn352 O353 2.055 . S
Zn352 O360 2.046 . S
Zn352 N368 2.036 . S
Zn352 O380 2.053 . S
Zn352 O382 2.066 . S
O353 Zn352 2.055 . S
O353 C356 1.259 . S
C354 O382 1.256 . S
C354 O383 1.244 . S
Zn355 O357 2.046 . S
Zn355 O359 2.055 . S
Zn355 N361 2.036 1_565 S
Zn355 O379 2.066 . S
Zn355 O383 2.053 . S
C356 O353 1.259 . S
C356 O357 1.254 . S
O357 Zn355 2.046 . S
O357 C356 1.254 . S
C358 O379 1.256 . S
C358 O380 1.244 . S
O359 Zn355 2.055 . S
O359 C381 1.259 . S
O360 Zn352 2.046 . S
O360 C381 1.254 . S
N361 Zn355 2.036 1_545 S
N361 C362 1.298 . S
N361 N364 1.398 . S
C362 N361 1.298 . S
C362 N365 1.367 . S
C362 C375 1.481 . S
C363 N364 1.299 . S
C363 N365 1.379 . S
N364 N361 1.398 . S
N364 C363 1.299 . S
N365 C362 1.367 . S
N365 C363 1.379 . S
C366 N368 1.298 . S
C366 N370 1.367 . S
C366 C374 1.481 . S
C367 N369 1.299 . S
C367 N370 1.379 . S
N368 Zn352 2.036 . S
N368 C366 1.298 . S
N368 N369 1.398 . S
N369 C367 1.299 . S
N369 N368 1.398 . S
N370 C366 1.367 . S
N370 C367 1.379 . S
H371 C374 0.980 . S
H372 C374 0.981 . S
H373 C374 0.981 . S
C374 C366 1.481 . S
C374 H371 0.980 . S
C374 H372 0.981 . S
C374 H373 0.981 . S
C375 C362 1.481 . S
C375 H376 0.980 . S
C375 H377 0.981 . S
C375 H378 0.981 . S
H376 C375 0.980 . S
H377 C375 0.981 . S
H378 C375 0.981 . S
O379 Zn355 2.066 . S
O379 C358 1.256 . S
O380 Zn352 2.053 . S
O380 C358 1.244 . S
C381 O359 1.259 . S
C381 O360 1.254 . S
O382 Zn352 2.066 . S
O382 C354 1.256 . S
O383 C354 1.244 . S
O383 Zn355 2.053 . S
Zn384 O385 2.055 . S
Zn384 O392 2.046 . S
Zn384 N400 2.036 . S
Zn384 O412 2.053 . S
Zn384 O414 2.066 . S
O385 Zn384 2.055 . S
O385 C388 1.259 . S
C386 O414 1.256 . S
C386 O415 1.244 . S
Zn387 O389 2.046 . S
Zn387 O391 2.055 . S
Zn387 N393 2.036 . S
Zn387 O411 2.066 . S
Zn387 O415 2.053 . S
C388 O385 1.259 . S
C388 O389 1.254 . S
O389 Zn387 2.046 . S
O389 C388 1.254 . S
C390 O411 1.256 . S
C390 O412 1.244 . S
O391 Zn387 2.055 . S
O391 C413 1.259 . S
O392 Zn384 2.046 . S
O392 C413 1.254 . S
N393 Zn387 2.036 . S
N393 C394 1.298 . S
N393 N396 1.398 . S
C394 N393 1.298 . S
C394 N397 1.367 . S
C394 C407 1.481 . S
C395 N396 1.299 . S
C395 N397 1.379 . S
N396 N393 1.398 . S
N396 C395 1.299 . S
N397 C394 1.367 . S
N397 C395 1.379 . S
C398 N400 1.298 . S
C398 N402 1.367 1_455 S
C398 C406 1.481 . S
C399 N401 1.299 . S
C399 N402 1.379 1_455 S
N400 Zn384 2.036 . S
N400 C398 1.298 . S
N400 N401 1.398 . S
N401 C399 1.299 . S
N401 N400 1.398 . S
N402 C398 1.367 1_655 S
N402 C399 1.379 1_655 S
H403 C406 0.980 . S
H404 C406 0.981 1_655 S
H405 C406 0.981 . S
C406 C398 1.481 . S
C406 H403 0.980 . S
C406 H404 0.981 1_455 S
C406 H405 0.981 . S
C407 C394 1.481 . S
C407 H408 0.980 . S
C407 H409 0.981 . S
C407 H410 0.981 . S
H408 C407 0.980 . S
H409 C407 0.981 . S
H410 C407 0.981 . S
O411 Zn387 2.066 . S
O411 C390 1.256 . S
O412 Zn384 2.053 . S
O412 C390 1.244 . S
C413 O391 1.259 . S
C413 O392 1.254 . S
O414 Zn384 2.066 . S
O414 C386 1.256 . S
O415 C386 1.244 . S
O415 Zn387 2.053 . S
Zn416 O417 2.055 . S
Zn416 O424 2.046 . S
Zn416 N432 2.036 . S
Zn416 O444 2.053 . S
Zn416 O446 2.066 1_655 S
O417 Zn416 2.055 . S
O417 C420 1.259 . S
C418 O446 1.256 . S
C418 O447 1.244 1_455 S
Zn419 O421 2.046 . S
Zn419 O423 2.055 . S
Zn419 N425 2.036 1_565 S
Zn419 O443 2.066 . S
Zn419 O447 2.053 . S
C420 O417 1.259 . S
C420 O421 1.254 . S
O421 Zn419 2.046 . S
O421 C420 1.254 . S
C422 O443 1.256 . S
C422 O444 1.244 . S
O423 Zn419 2.055 . S
O423 C445 1.259 . S
O424 Zn416 2.046 . S
O424 C445 1.254 . S
N425 Zn419 2.036 1_545 S
N425 C426 1.298 . S
N425 N428 1.398 . S
C426 N425 1.298 . S
C426 N429 1.367 . S
C426 C439 1.481 . S
C427 N428 1.299 . S
C427 N429 1.379 . S
N428 N425 1.398 . S
N428 C427 1.299 . S
N429 C426 1.367 . S
N429 C427 1.379 . S
C430 N432 1.298 . S
C430 N434 1.367 1_655 S
C430 C438 1.481 . S
C431 N433 1.299 1_455 S
C431 N434 1.379 1_556 S
N432 Zn416 2.036 . S
N432 C430 1.298 . S
N432 N433 1.398 1_554 S
N433 C431 1.299 1_655 S
N433 N432 1.398 1_556 S
N434 C430 1.367 1_455 S
N434 C431 1.379 1_554 S
H435 C438 0.980 . S
H436 C438 0.981 . S
H437 C438 0.981 1_455 S
C438 C430 1.481 . S
C438 H435 0.980 . S
C438 H436 0.981 . S
C438 H437 0.981 1_655 S
C439 C426 1.481 . S
C439 H440 0.980 . S
C439 H441 0.981 . S
C439 H442 0.981 . S
H440 C439 0.980 . S
H441 C439 0.981 . S
H442 C439 0.981 . S
O443 Zn419 2.066 . S
O443 C422 1.256 . S
O444 Zn416 2.053 . S
O444 C422 1.244 . S
C445 O423 1.259 . S
C445 O424 1.254 . S
O446 Zn416 2.066 1_455 S
O446 C418 1.256 . S
O447 C418 1.244 1_655 S
O447 Zn419 2.053 . S
Zn448 O449 2.055 1_554 S
Zn448 O456 2.046 . S
Zn448 N464 2.036 . S
Zn448 O476 2.053 . S
Zn448 O478 2.066 1_554 S
O449 Zn448 2.055 1_556 S
O449 C452 1.259 . S
C450 O478 1.256 . S
C450 O479 1.244 . S
Zn451 O453 2.046 . S
Zn451 O455 2.055 1_556 S
Zn451 N457 2.036 . S
Zn451 O475 2.066 1_556 S
Zn451 O479 2.053 . S
C452 O449 1.259 . S
C452 O453 1.254 . S
O453 Zn451 2.046 . S
O453 C452 1.254 . S
C454 O475 1.256 . S
C454 O476 1.244 . S
O455 Zn451 2.055 1_554 S
O455 C477 1.259 . S
O456 Zn448 2.046 . S
O456 C477 1.254 . S
N457 Zn451 2.036 . S
N457 C458 1.298 . S
N457 N460 1.398 . S
C458 N457 1.298 . S
C458 N461 1.367 . S
C458 C471 1.481 . S
C459 N460 1.299 . S
C459 N461 1.379 . S
N460 N457 1.398 . S
N460 C459 1.299 . S
N461 C458 1.367 . S
N461 C459 1.379 . S
C462 N464 1.298 . S
C462 N466 1.367 . S
C462 C470 1.481 1_554 S
C463 N465 1.299 . S
C463 N466 1.379 . S
N464 Zn448 2.036 . S
N464 C462 1.298 . S
N464 N465 1.398 . S
N465 C463 1.299 . S
N465 N464 1.398 . S
N466 C462 1.367 . S
N466 C463 1.379 . S
H467 C470 0.980 . S
H468 C470 0.981 . S
H469 C470 0.981 . S
C470 C462 1.481 1_556 S
C470 H467 0.980 . S
C470 H468 0.981 . S
C470 H469 0.981 . S
C471 C458 1.481 . S
C471 H472 0.980 1_556 S
C471 H473 0.981 . S
C471 H474 0.981 1_556 S
H472 C471 0.980 1_554 S
H473 C471 0.981 . S
H474 C471 0.981 1_554 S
O475 Zn451 2.066 1_554 S
O475 C454 1.256 . S
O476 Zn448 2.053 . S
O476 C454 1.244 . S
C477 O455 1.259 . S
C477 O456 1.254 . S
O478 Zn448 2.066 1_556 S
O478 C450 1.256 . S
O479 C450 1.244 . S
O479 Zn451 2.053 . S
Zn480 O481 2.055 . S
Zn480 O488 2.046 . S
Zn480 N496 2.036 . S
Zn480 O508 2.053 . S
Zn480 O510 2.066 . S
O481 Zn480 2.055 . S
O481 C484 1.259 . S
C482 O510 1.256 . S
C482 O511 1.244 . S
Zn483 O485 2.046 . S
Zn483 O487 2.055 . S
Zn483 N489 2.036 1_545 S
Zn483 O507 2.066 . S
Zn483 O511 2.053 . S
C484 O481 1.259 . S
C484 O485 1.254 . S
O485 Zn483 2.046 . S
O485 C484 1.254 . S
C486 O507 1.256 . S
C486 O508 1.244 . S
O487 Zn483 2.055 . S
O487 C509 1.259 . S
O488 Zn480 2.046 . S
O488 C509 1.254 . S
N489 Zn483 2.036 1_565 S
N489 C490 1.298 . S
N489 N492 1.398 . S
C490 N489 1.298 . S
C490 N493 1.367 . S
C490 C503 1.481 . S
C491 N492 1.299 . S
C491 N493 1.379 . S
N492 N489 1.398 . S
N492 C491 1.299 . S
N493 C490 1.367 . S
N493 C491 1.379 . S
C494 N496 1.298 . S
C494 N498 1.367 . S
C494 C502 1.481 . S
C495 N497 1.299 . S
C495 N498 1.379 . S
N496 Zn480 2.036 . S
N496 C494 1.298 . S
N496 N497 1.398 . S
N497 C495 1.299 . S
N497 N496 1.398 . S
N498 C494 1.367 . S
N498 C495 1.379 . S
H499 C502 0.980 . S
H500 C502 0.981 . S
H501 C502 0.981 . S
C502 C494 1.481 . S
C502 H499 0.980 . S
C502 H500 0.981 . S
C502 H501 0.981 . S
C503 C490 1.481 . S
C503 H504 0.980 . S
C503 H505 0.981 . S
C503 H506 0.981 . S
H504 C503 0.980 . S
H505 C503 0.981 . S
H506 C503 0.981 . S
O507 Zn483 2.066 . S
O507 C486 1.256 . S
O508 Zn480 2.053 . S
O508 C486 1.244 . S
C509 O487 1.259 . S
C509 O488 1.254 . S
O510 Zn480 2.066 . S
O510 C482 1.256 . S
O511 C482 1.244 . S
O511 Zn483 2.053 . S
N13 N338 1.289 . S
N50 N370 1.289 . S
N82 N269 1.289 1_655 S
N114 N306 1.289 1_455 S
N146 N461 1.289 . S
N178 N498 1.289 . S
N210 N402 1.289 1_455 S
N242 N434 1.289 1_655 S
C317 N18 1.466 . S
C349 N45 1.466 . S
C381 N77 1.466 . S
C260 N109 1.467 . S
N141 C445 1.466 . S
C452 N173 1.466 . S
C509 N205 1.466 . S
C413 N237 1.467 . S
C61 N274 1.466 . S
N301 C93 1.466 . S
N333 C125 1.466 . S
N365 C4 1.466 . S
N397 C189 1.466 . S
C221 N429 1.466 . S
C253 N466 1.466 . S
N493 C157 1.466 . S
C29 C482 3.256 . S
C36 C130 3.256 . S
C418 C68 3.256 . S
C194 C100 3.256 . S
C132 C354 3.256 . S
C164 C6 3.256 . S
C290 C196 3.256 . S
C66 C228 3.256 . S
C285 C226 3.256 . S
C292 C386 3.256 . S
C162 C324 3.256 . S
C454 C356 3.256 . S
C388 C98 3.256 . S
C420 C262 3.256 . S
C477 C34 3.256 . S
C322 C484 3.256 . S
C2 C390 3.097 . S
C38 C166 3.097 . S
C70 C450 3.097 . S
C230 C102 3.097 1_454 S
C134 C258 3.097 . S
C326 C198 3.097 . S
C294 C422 3.097 1_446 S
C486 C358 3.097 1_545 S
