# Generated by pormake.
# Topology tzs, (4)-cn, num edge types: 1
# Building blocks:
#     Node 0, Type 0, BuildingBlock: QUQFOY_clean_sbu_3, # of connection points: 4
#     Node 1, Type 0, BuildingBlock: QUQFOY_clean_sbu_3, # of connection points: 4
#     Node 2, Type 0, BuildingBlock: QUQFOY_clean_sbu_3, # of connection points: 4
#     Node 3, Type 0, BuildingBlock: QUQFOY_clean_sbu_3, # of connection points: 4
#     Node 4, Type 0, BuildingBlock: QUQFOY_clean_sbu_3, # of connection points: 4
#     Node 5, Type 0, BuildingBlock: QUQFOY_clean_sbu_3, # of connection points: 4
#     Node 6, Type 0, BuildingBlock: QUQFOY_clean_sbu_3, # of connection points: 4
#     Node 7, Type 0, BuildingBlock: QUQFOY_clean_sbu_3, # of connection points: 4
#     Node 8, Type 0, BuildingBlock: QUQFOY_clean_sbu_3, # of connection points: 4
#     Node 9, Type 0, BuildingBlock: QUQFOY_clean_sbu_3, # of connection points: 4
#     Node 10, Type 0, BuildingBlock: QUQFOY_clean_sbu_3, # of connection points: 4
#     Node 11, Type 0, BuildingBlock: QUQFOY_clean_sbu_3, # of connection points: 4
#     Node 12, Type 0, BuildingBlock: QUQFOY_clean_sbu_3, # of connection points: 4
#     Node 13, Type 0, BuildingBlock: QUQFOY_clean_sbu_3, # of connection points: 4
#     Node 14, Type 0, BuildingBlock: QUQFOY_clean_sbu_3, # of connection points: 4
#     Node 15, Type 0, BuildingBlock: QUQFOY_clean_sbu_3, # of connection points: 4
#     Edge 16, Type (0, 0), BuildingBlock: XUDNAN_clean_linker_2, # of connection points: 2
#     Edge 17, Type (0, 0), BuildingBlock: XUDNAN_clean_linker_2, # of connection points: 2
#     Edge 18, Type (0, 0), BuildingBlock: XUDNAN_clean_linker_2, # of connection points: 2
#     Edge 19, Type (0, 0), BuildingBlock: XUDNAN_clean_linker_2, # of connection points: 2
#     Edge 20, Type (0, 0), BuildingBlock: XUDNAN_clean_linker_2, # of connection points: 2
#     Edge 21, Type (0, 0), BuildingBlock: XUDNAN_clean_linker_2, # of connection points: 2
#     Edge 22, Type (0, 0), BuildingBlock: XUDNAN_clean_linker_2, # of connection points: 2
#     Edge 23, Type (0, 0), BuildingBlock: XUDNAN_clean_linker_2, # of connection points: 2
#     Edge 24, Type (0, 0), BuildingBlock: XUDNAN_clean_linker_2, # of connection points: 2
#     Edge 25, Type (0, 0), BuildingBlock: XUDNAN_clean_linker_2, # of connection points: 2
#     Edge 26, Type (0, 0), BuildingBlock: XUDNAN_clean_linker_2, # of connection points: 2
#     Edge 27, Type (0, 0), BuildingBlock: XUDNAN_clean_linker_2, # of connection points: 2
#     Edge 28, Type (0, 0), BuildingBlock: XUDNAN_clean_linker_2, # of connection points: 2
#     Edge 29, Type (0, 0), BuildingBlock: XUDNAN_clean_linker_2, # of connection points: 2
#     Edge 30, Type (0, 0), BuildingBlock: XUDNAN_clean_linker_2, # of connection points: 2
#     Edge 31, Type (0, 0), BuildingBlock: XUDNAN_clean_linker_2, # of connection points: 2
#     Edge 32, Type (0, 0), BuildingBlock: XUDNAN_clean_linker_2, # of connection points: 2
#     Edge 33, Type (0, 0), BuildingBlock: XUDNAN_clean_linker_2, # of connection points: 2
#     Edge 34, Type (0, 0), BuildingBlock: XUDNAN_clean_linker_2, # of connection points: 2
#     Edge 35, Type (0, 0), BuildingBlock: XUDNAN_clean_linker_2, # of connection points: 2
#     Edge 36, Type (0, 0), BuildingBlock: XUDNAN_clean_linker_2, # of connection points: 2
#     Edge 37, Type (0, 0), BuildingBlock: XUDNAN_clean_linker_2, # of connection points: 2
#     Edge 38, Type (0, 0), BuildingBlock: XUDNAN_clean_linker_2, # of connection points: 2
#     Edge 39, Type (0, 0), BuildingBlock: XUDNAN_clean_linker_2, # of connection points: 2
#     Edge 40, Type (0, 0), BuildingBlock: XUDNAN_clean_linker_2, # of connection points: 2
#     Edge 41, Type (0, 0), BuildingBlock: XUDNAN_clean_linker_2, # of connection points: 2
#     Edge 42, Type (0, 0), BuildingBlock: XUDNAN_clean_linker_2, # of connection points: 2
#     Edge 43, Type (0, 0), BuildingBlock: XUDNAN_clean_linker_2, # of connection points: 2
#     Edge 44, Type (0, 0), BuildingBlock: XUDNAN_clean_linker_2, # of connection points: 2
#     Edge 45, Type (0, 0), BuildingBlock: XUDNAN_clean_linker_2, # of connection points: 2
#     Edge 46, Type (0, 0), BuildingBlock: XUDNAN_clean_linker_2, # of connection points: 2
#     Edge 47, Type (0, 0), BuildingBlock: XUDNAN_clean_linker_2, # of connection points: 2
# Relax obj value: 0.118
# Max RMSD: 0.119
# Mean RMSD: 0.119
data_MOF--net-tzs--node1-QUQFOY_clean_sbu_3--edge1-XUDNAN_clean_linker_2
_symmetry_space_group_name_H-M    P1
_symmetry_Int_Tables_number       1
_symmetry_cell_setting            triclinic
loop_
_symmetry_equiv_pos_as_xyz
'x, y, z'
_cell_length_a     50.953073
_cell_length_b     50.552742
_cell_length_c     41.198616
_cell_angle_alpha  90.070486
_cell_angle_beta   90.009728
_cell_angle_gamma 89.616356
loop_
_atom_site_label
_atom_site_type_symbol
_atom_site_fract_x
_atom_site_fract_y
_atom_site_fract_z
_atom_type_partial_charge
C0 C 0.05651 0.33157 0.1839 0.0
O1 O 0.0525 0.34382 0.15747 0.0
Cd2 Cd 0.08712 0.35327 0.12035 0.0
O3 O 0.07955 0.32374 0.19149 0.0
Cd4 Cd 0.12413 0.32476 0.16731 0.0
C5 C 0.1254 0.39128 0.16953 0.0
O6 O 0.10968 0.31183 0.1137 0.0
O7 O 0.14891 0.32737 0.11564 0.0
O8 O 0.12991 0.28103 0.19108 0.0
C9 C 0.13155 0.31494 0.09982 0.0
O10 O 0.11217 0.39017 0.14336 0.0
C11 C 0.15352 0.28443 0.1998 0.0
O12 O 0.13083 0.37039 0.18541 0.0
O13 O 0.16321 0.30715 0.19479 0.0
C14 C 0.63842 0.08145 0.18694 0.0
O15 O 0.62949 0.07339 0.15997 0.0
Cd16 Cd 0.6123 0.10124 0.11953 0.0
O17 O 0.64012 0.10619 0.19309 0.0
Cd18 Cd 0.63253 0.14811 0.16089 0.0
C19 C 0.56739 0.13724 0.16405 0.0
O20 O 0.64888 0.12992 0.11066 0.0
O21 O 0.62707 0.16617 0.10518 0.0
O22 O 0.67291 0.167 0.18382 0.0
C23 C 0.64239 0.14911 0.09278 0.0
O24 O 0.57153 0.11858 0.1439 0.0
C25 C 0.66308 0.18989 0.18807 0.0
O26 O 0.58619 0.1512 0.1746 0.0
O27 O 0.63897 0.19278 0.18119 0.0
C28 C 0.90793 0.63727 0.16551 0.0
O29 O 0.90488 0.61972 0.14373 0.0
Cd30 Cd 0.86429 0.60204 0.12524 0.0
O31 O 0.88827 0.64781 0.18 0.0
Cd32 Cd 0.8392 0.64529 0.17606 0.0
C33 C 0.83904 0.5798 0.19767 0.0
O34 O 0.84175 0.64265 0.11806 0.0
O35 O 0.80223 0.64254 0.13631 0.0
O36 O 0.83827 0.69265 0.19025 0.0
C37 C 0.81751 0.64259 0.11214 0.0
O38 O 0.84785 0.57442 0.16948 0.0
C39 C 0.81715 0.69108 0.20653 0.0
O40 O 0.83526 0.6037 0.20645 0.0
O41 O 0.80769 0.66813 0.21044 0.0
C42 C 0.33231 0.89456 0.16178 0.0
O43 O 0.34137 0.89512 0.1331 0.0
Cd44 Cd 0.35864 0.85822 0.10438 0.0
O45 O 0.33094 0.87289 0.17758 0.0
Cd46 Cd 0.34042 0.82526 0.16489 0.0
C47 C 0.40556 0.83689 0.15845 0.0
O48 O 0.32454 0.82668 0.10986 0.0
O49 O 0.34815 0.79257 0.12052 0.0
O50 O 0.30014 0.81055 0.1918 0.0
C51 C 0.33308 0.80441 0.10076 0.0
O52 O 0.40047 0.84595 0.13028 0.0
C53 C 0.31126 0.79209 0.20764 0.0
O54 O 0.38715 0.82966 0.17727 0.0
O55 O 0.33603 0.79024 0.20507 0.0
C56 C 0.07516 0.63182 0.27184 0.0
O57 O 0.06843 0.61716 0.29536 0.0
Cd58 Cd 0.09746 0.59835 0.33359 0.0
O59 O 0.09925 0.63755 0.26698 0.0
Cd60 Cd 0.14088 0.62691 0.29746 0.0
C61 C 0.13434 0.56116 0.28216 0.0
O62 O 0.12032 0.63813 0.34797 0.0
O63 O 0.15773 0.61898 0.35403 0.0
O64 O 0.15939 0.66924 0.27844 0.0
C65 C 0.1394 0.63282 0.36628 0.0
O66 O 0.11818 0.56041 0.30566 0.0
C67 C 0.18266 0.66022 0.27626 0.0
O68 O 0.14429 0.58303 0.27357 0.0
O69 O 0.18591 0.63584 0.28235 0.0
C70 C 0.33716 0.0604 0.27986 0.0
O71 O 0.35236 0.05647 0.30384 0.0
Cd72 Cd 0.36992 0.09112 0.33624 0.0
O73 O 0.32944 0.08374 0.27258 0.0
Cd74 Cd 0.33317 0.12992 0.29358 0.0
C75 C 0.39858 0.1292 0.27678 0.0
O76 O 0.33104 0.11552 0.34963 0.0
O77 O 0.3348 0.15766 0.34256 0.0
O78 O 0.28726 0.13334 0.27752 0.0
C79 C 0.33169 0.13847 0.36186 0.0
O80 O 0.40093 0.11234 0.29952 0.0
C81 C 0.28895 0.15648 0.26584 0.0
O82 O 0.37629 0.13908 0.26954 0.0
O83 O 0.31158 0.16689 0.26572 0.0
C84 C 0.89504 0.33997 0.30999 0.0
O85 O 0.89594 0.34991 0.33828 0.0
Cd86 Cd 0.85954 0.36531 0.36887 0.0
O87 O 0.87323 0.33716 0.29511 0.0
Cd88 Cd 0.82616 0.34572 0.30973 0.0
C89 C 0.83541 0.41202 0.31681 0.0
O90 O 0.83093 0.32845 0.36381 0.0
O91 O 0.79466 0.34912 0.3561 0.0
O92 O 0.8115 0.30614 0.28033 0.0
C93 C 0.80846 0.33445 0.37438 0.0
O94 O 0.8451 0.4074 0.34473 0.0
C95 C 0.7923 0.31777 0.26662 0.0
O96 O 0.82865 0.39307 0.29834 0.0
O97 O 0.79004 0.34247 0.27151 0.0
C98 C 0.63115 0.91661 0.30266 0.0
O99 O 0.61381 0.9137 0.32453 0.0
Cd100 Cd 0.597 0.87297 0.34467 0.0
O101 O 0.64177 0.89664 0.28862 0.0
Cd102 Cd 0.63953 0.8472 0.29305 0.0
C103 C 0.57398 0.84614 0.27342 0.0
O104 O 0.63763 0.85066 0.35087 0.0
O105 O 0.63815 0.81049 0.3337 0.0
O106 O 0.68622 0.8464 0.27753 0.0
C107 C 0.63808 0.82635 0.35745 0.0
O108 O 0.56904 0.85538 0.30155 0.0
C109 C 0.68449 0.82488 0.26171 0.0
O110 O 0.59758 0.84249 0.26408 0.0
O111 O 0.66173 0.81513 0.25863 0.0
C112 C 0.83857 0.57827 0.79458 0.0
O113 O 0.84986 0.57339 0.82143 0.0
Cd114 Cd 0.86338 0.60698 0.8581 0.0
O115 O 0.83208 0.60188 0.78682 0.0
Cd116 Cd 0.83183 0.64745 0.81031 0.0
C117 C 0.8983 0.64603 0.80448 0.0
O118 O 0.82349 0.63136 0.86414 0.0
O119 O 0.82842 0.67359 0.86101 0.0
O120 O 0.78805 0.65075 0.78697 0.0
C121 C 0.82318 0.65356 0.87821 0.0
O122 O 0.89785 0.62854 0.82666 0.0
C123 C 0.79067 0.67422 0.77661 0.0
O124 O 0.87722 0.65672 0.7941 0.0
O125 O 0.81296 0.68486 0.78062 0.0
C126 C 0.40118 0.84909 0.7838 0.0
O127 O 0.40284 0.86431 0.80821 0.0
Cd128 Cd 0.36932 0.86721 0.84848 0.0
O129 O 0.38012 0.83652 0.77782 0.0
Cd130 Cd 0.33548 0.83666 0.80216 0.0
C131 C 0.32786 0.90349 0.80419 0.0
O132 O 0.3534 0.82266 0.85356 0.0
O133 O 0.31234 0.83284 0.85516 0.0
O134 O 0.33086 0.79454 0.77376 0.0
C135 C 0.33187 0.82172 0.86863 0.0
O136 O 0.33991 0.90265 0.83118 0.0
C137 C 0.30674 0.79761 0.76701 0.0
O138 O 0.32564 0.88273 0.78696 0.0
O139 O 0.29621 0.81939 0.77541 0.0
C140 C 0.1354 0.408 0.80924 0.0
O141 O 0.1242 0.40642 0.83668 0.0
Cd142 Cd 0.11098 0.3662 0.86137 0.0
O143 O 0.14142 0.38723 0.79315 0.0
Cd144 Cd 0.13948 0.3383 0.80214 0.0
C145 C 0.07346 0.33934 0.7997 0.0
O146 O 0.14977 0.3401 0.85941 0.0
O147 O 0.1336 0.30321 0.84341 0.0
O148 O 0.18389 0.33539 0.77988 0.0
C149 C 0.14438 0.31635 0.86592 0.0
O150 O 0.07501 0.34802 0.82869 0.0
C151 C 0.18005 0.31411 0.76426 0.0
O152 O 0.09401 0.33589 0.78256 0.0
O153 O 0.15687 0.30501 0.76458 0.0
C154 C 0.56889 0.13808 0.77503 0.0
O155 O 0.56653 0.12349 0.7999 0.0
Cd156 Cd 0.60273 0.10917 0.83225 0.0
O157 O 0.59128 0.14706 0.76683 0.0
Cd158 Cd 0.63698 0.14573 0.78878 0.0
C159 C 0.64105 0.08006 0.77353 0.0
O160 O 0.62557 0.14891 0.84581 0.0
O161 O 0.66534 0.13668 0.83582 0.0
O162 O 0.64158 0.19275 0.77586 0.0
C163 C 0.64847 0.14439 0.8564 0.0
O164 O 0.62711 0.07699 0.7989 0.0
C165 C 0.6642 0.19034 0.76324 0.0
O166 O 0.6464 0.10316 0.76332 0.0
O167 O 0.67351 0.16705 0.76107 0.0
C168 C 0.84943 0.41393 0.67189 0.0
O169 O 0.86402 0.4127 0.64696 0.0
Cd170 Cd 0.87542 0.37252 0.62109 0.0
O171 O 0.83984 0.39304 0.68452 0.0
Cd172 Cd 0.84033 0.34472 0.67019 0.0
C173 C 0.90616 0.34007 0.68291 0.0
O174 O 0.83147 0.35584 0.6149 0.0
O175 O 0.84003 0.31447 0.62185 0.0
O176 O 0.796 0.34372 0.69352 0.0
C177 C 0.8304 0.33255 0.60413 0.0
O178 O 0.90908 0.35165 0.65577 0.0
C179 C 0.79796 0.32016 0.70393 0.0
O180 O 0.88326 0.33591 0.69391 0.0
O181 O 0.82005 0.3088 0.70034 0.0
C182 C 0.56948 0.85574 0.67068 0.0
O183 O 0.5687 0.87256 0.64782 0.0
Cd184 Cd 0.60384 0.87982 0.61015 0.0
O185 O 0.59056 0.84325 0.67759 0.0
Cd186 Cd 0.63681 0.84447 0.65923 0.0
C187 C 0.64436 0.91177 0.66119 0.0
O188 O 0.62243 0.83669 0.6043 0.0
O189 O 0.66439 0.83849 0.61008 0.0
O190 O 0.63922 0.80073 0.68413 0.0
C191 C 0.64491 0.83422 0.59177 0.0
O192 O 0.63232 0.91259 0.63419 0.0
C193 C 0.66237 0.80343 0.69495 0.0
O194 O 0.64651 0.8902 0.67696 0.0
O195 O 0.67312 0.82572 0.69052 0.0
C196 C 0.12814 0.57314 0.68886 0.0
O197 O 0.11484 0.56783 0.66367 0.0
Cd198 Cd 0.09675 0.60135 0.63008 0.0
O199 O 0.13414 0.597 0.69567 0.0
Cd200 Cd 0.13005 0.64193 0.6706 0.0
C201 C 0.06536 0.64061 0.68721 0.0
O202 O 0.13404 0.62709 0.61482 0.0
O203 O 0.12098 0.66743 0.62103 0.0
O204 O 0.17641 0.64731 0.68284 0.0
C205 C 0.12884 0.64927 0.60208 0.0
O206 O 0.06412 0.62305 0.66509 0.0
C207 C 0.17423 0.67032 0.6949 0.0
O208 O 0.0871 0.65119 0.69478 0.0
O209 O 0.1512 0.67998 0.69672 0.0
C210 C 0.4004 0.12589 0.66578 0.0
O211 O 0.39966 0.10851 0.64347 0.0
Cd212 Cd 0.36144 0.09123 0.61777 0.0
O213 O 0.37948 0.13659 0.67696 0.0
Cd214 Cd 0.33131 0.13435 0.66462 0.0
C215 C 0.32748 0.0685 0.68412 0.0
O216 O 0.34045 0.13228 0.60748 0.0
O217 O 0.29927 0.13371 0.61867 0.0
O218 O 0.32968 0.18123 0.6802 0.0
C219 C 0.31713 0.13316 0.59736 0.0
O220 O 0.33961 0.06328 0.65783 0.0
C221 C 0.30732 0.17973 0.6937 0.0
O222 O 0.32306 0.09236 0.69258 0.0
O223 O 0.29703 0.15696 0.69518 0.0
H224 H 0.28581 0.20837 0.24674 0.0
H225 H 0.23874 0.1381 0.26136 0.0
H226 H 0.19878 0.16356 0.24748 0.0
H227 H 0.24012 0.25428 0.28119 0.0
H228 H 0.24692 0.2802 0.25246 0.0
H229 H 0.27203 0.25635 0.26251 0.0
H230 H 0.27732 0.24429 0.20168 0.0
H231 H 0.25244 0.26833 0.19141 0.0
H232 H 0.24893 0.23442 0.17864 0.0
H233 H 0.16394 0.19675 0.23289 0.0
H234 H 0.13676 0.23495 0.21612 0.0
H235 H 0.20648 0.28374 0.21185 0.0
C236 C 0.26714 0.19826 0.2467 0.0
C237 C 0.26538 0.17122 0.25503 0.0
C238 C 0.24055 0.15878 0.25497 0.0
C239 C 0.21774 0.17309 0.24722 0.0
C240 C 0.22011 0.19981 0.23966 0.0
C241 C 0.24417 0.21226 0.23916 0.0
C242 C 0.24127 0.24122 0.2304 0.0
C243 C 0.25064 0.25906 0.25831 0.0
C244 C 0.25585 0.24742 0.19864 0.0
C245 C 0.21182 0.2431 0.22603 0.0
C246 C 0.19998 0.21901 0.23154 0.0
C247 C 0.17298 0.21573 0.22853 0.0
C248 C 0.1577 0.23756 0.21908 0.0
C249 C 0.16948 0.26234 0.2128 0.0
C250 C 0.19687 0.26513 0.21674 0.0
H251 H 0.78999 0.26419 0.25544 0.0
H252 H 0.74793 0.33792 0.23871 0.0
H253 H 0.71072 0.31307 0.21607 0.0
H254 H 0.76612 0.23007 0.18185 0.0
H255 H 0.764 0.19861 0.20218 0.0
H256 H 0.78818 0.22236 0.21477 0.0
H257 H 0.77019 0.22019 0.27352 0.0
H258 H 0.74571 0.19676 0.26104 0.0
H259 H 0.73594 0.22706 0.28087 0.0
H260 H 0.67658 0.28045 0.20031 0.0
H261 H 0.64913 0.24202 0.18676 0.0
H262 H 0.7135 0.18921 0.21205 0.0
C263 C 0.77319 0.27513 0.24639 0.0
C264 C 0.77189 0.30301 0.24882 0.0
C265 C 0.74943 0.31658 0.237 0.0
C266 C 0.72814 0.30265 0.22419 0.0
C267 C 0.7297 0.27516 0.22308 0.0
C268 C 0.75178 0.26152 0.23334 0.0
C269 C 0.74807 0.2319 0.23014 0.0
C270 C 0.76776 0.22004 0.20578 0.0
C271 C 0.7501 0.21818 0.26337 0.0
C272 C 0.7203 0.23106 0.21706 0.0
C273 C 0.71007 0.25625 0.21329 0.0
C274 C 0.68445 0.26062 0.20277 0.0
C275 C 0.66896 0.23865 0.19534 0.0
C276 C 0.67919 0.21263 0.19828 0.0
C277 C 0.70519 0.20886 0.20942 0.0
H278 H 0.76534 0.6942 0.22179 0.0
H279 H 0.83547 0.74186 0.21346 0.0
H280 H 0.80922 0.78208 0.22608 0.0
H281 H 0.72297 0.73974 0.18236 0.0
H282 H 0.69503 0.73247 0.20758 0.0
H283 H 0.71969 0.70747 0.20044 0.0
H284 H 0.72658 0.70198 0.26243 0.0
H285 H 0.70166 0.72669 0.26978 0.0
H286 H 0.73399 0.73061 0.28683 0.0
H287 H 0.77447 0.81713 0.24004 0.0
H288 H 0.73462 0.84355 0.25305 0.0
H289 H 0.68766 0.77244 0.2475 0.0
C290 C 0.77532 0.71301 0.22319 0.0
C291 C 0.8025 0.7149 0.21713 0.0
C292 C 0.81468 0.73999 0.21835 0.0
C293 C 0.79992 0.7629 0.22541 0.0
C294 C 0.773 0.76036 0.23066 0.0
C295 C 0.76087 0.736 0.22951 0.0
C296 C 0.73157 0.73849 0.23454 0.0
C297 C 0.71643 0.72898 0.20443 0.0
C298 C 0.72295 0.72357 0.26522 0.0
C299 C 0.72901 0.76808 0.23888 0.0
C300 C 0.75308 0.78043 0.23685 0.0
C301 C 0.75552 0.80766 0.2414 0.0
C302 C 0.73281 0.82252 0.24867 0.0
C303 C 0.70803 0.81011 0.2508 0.0
C304 C 0.70623 0.78261 0.2454 0.0
H305 H 0.25764 0.78895 0.21382 0.0
H306 H 0.33029 0.74894 0.23998 0.0
H307 H 0.30498 0.71165 0.26195 0.0
H308 H 0.21922 0.76613 0.28486 0.0
H309 H 0.18964 0.76262 0.26128 0.0
H310 H 0.21342 0.7873 0.25037 0.0
H311 H 0.2159 0.76762 0.19236 0.0
H312 H 0.19246 0.74265 0.20318 0.0
H313 H 0.22405 0.73311 0.18713 0.0
H314 H 0.27248 0.67683 0.27536 0.0
H315 H 0.23433 0.64818 0.2848 0.0
H316 H 0.18227 0.71094 0.25172 0.0
C317 C 0.26821 0.77263 0.22485 0.0
C318 C 0.29596 0.77189 0.22523 0.0
C319 C 0.30906 0.75002 0.23953 0.0
C320 C 0.29485 0.72869 0.25201 0.0
C321 C 0.26757 0.72965 0.2503 0.0
C322 C 0.25432 0.7512 0.2376 0.0
C323 C 0.2249 0.74676 0.23769 0.0
C324 C 0.21098 0.7669 0.25988 0.0
C325 C 0.21368 0.74758 0.20303 0.0
C326 C 0.22378 0.71909 0.25173 0.0
C327 C 0.24865 0.70963 0.25875 0.0
C328 C 0.25287 0.68414 0.27041 0.0
C329 C 0.23107 0.66796 0.27547 0.0
C330 C 0.20532 0.67736 0.26909 0.0
C331 C 0.2017 0.70329 0.25704 0.0
H332 H 0.71382 0.80222 0.71416 0.0
H333 H 0.64394 0.7538 0.70787 0.0
H334 H 0.66936 0.71521 0.72741 0.0
H335 H 0.75869 0.75348 0.68586 0.0
H336 H 0.78488 0.76298 0.7128 0.0
H337 H 0.76098 0.78718 0.6999 0.0
H338 H 0.75 0.79814 0.75988 0.0
H339 H 0.7741 0.77422 0.77297 0.0
H340 H 0.74069 0.77186 0.78699 0.0
H341 H 0.70275 0.6816 0.74582 0.0
H342 H 0.74122 0.65588 0.7646 0.0
H343 H 0.78928 0.72628 0.75815 0.0
C344 C 0.70376 0.7836 0.71729 0.0
C345 C 0.67688 0.78103 0.7096 0.0
C346 C 0.66451 0.75624 0.71373 0.0
C347 C 0.67879 0.7342 0.72472 0.0
C348 C 0.70539 0.7373 0.73143 0.0
C349 C 0.71771 0.76141 0.72812 0.0
C350 C 0.74659 0.75937 0.73648 0.0
C351 C 0.76379 0.76615 0.707 0.0
C352 C 0.75322 0.77693 0.76583 0.0
C353 C 0.74861 0.7303 0.74491 0.0
C354 C 0.72464 0.71792 0.74182 0.0
C355 C 0.72161 0.69109 0.74839 0.0
C356 C 0.74359 0.67664 0.75893 0.0
C357 C 0.76825 0.68906 0.76275 0.0
C358 C 0.77074 0.71619 0.75529 0.0
H359 H 0.17603 0.72134 0.7178 0.0
H360 H 0.22534 0.65366 0.69401 0.0
H361 H 0.26471 0.67946 0.70795 0.0
H362 H 0.21901 0.77102 0.68591 0.0
H363 H 0.21205 0.79461 0.71765 0.0
H364 H 0.18759 0.77083 0.70603 0.0
H365 H 0.18456 0.75447 0.76551 0.0
H366 H 0.20882 0.77835 0.77735 0.0
H367 H 0.21396 0.74378 0.78616 0.0
H368 H 0.29868 0.71246 0.72442 0.0
H369 H 0.32489 0.74998 0.74451 0.0
H370 H 0.25353 0.79631 0.75707 0.0
C371 C 0.19509 0.7119 0.71567 0.0
C372 C 0.19762 0.68547 0.70486 0.0
C373 C 0.22293 0.67387 0.70229 0.0
C374 C 0.24542 0.68838 0.71005 0.0
C375 C 0.24227 0.71446 0.7203 0.0
C376 C 0.21777 0.72611 0.72326 0.0
C377 C 0.21983 0.7544 0.73507 0.0
C378 C 0.20898 0.77386 0.70964 0.0
C379 C 0.20598 0.75794 0.76798 0.0
C380 C 0.24932 0.75679 0.7384 0.0
C381 C 0.26189 0.73356 0.72965 0.0
C382 C 0.28908 0.73079 0.73127 0.0
C383 C 0.30379 0.75223 0.74265 0.0
C384 C 0.29127 0.77609 0.75223 0.0
C385 C 0.2637 0.77841 0.74966 0.0
H386 H 0.18054 0.26221 0.74587 0.0
H387 H 0.2296 0.3319 0.75113 0.0
H388 H 0.26779 0.30526 0.73298 0.0
H389 H 0.22726 0.218 0.77816 0.0
H390 H 0.21813 0.1905 0.75275 0.0
H391 H 0.19417 0.21546 0.76302 0.0
H392 H 0.185 0.2239 0.702 0.0
H393 H 0.20866 0.19867 0.69152 0.0
H394 H 0.21191 0.23157 0.67528 0.0
H395 H 0.30101 0.2703 0.71615 0.0
H396 H 0.32627 0.23007 0.7013 0.0
H397 H 0.2555 0.18332 0.71004 0.0
C398 C 0.19917 0.27201 0.74252 0.0
C399 C 0.20207 0.29918 0.74956 0.0
C400 C 0.22693 0.31114 0.74562 0.0
C401 C 0.24873 0.29616 0.73541 0.0
C402 C 0.24533 0.26924 0.72948 0.0
C403 C 0.22114 0.25732 0.7328 0.0
C404 C 0.22292 0.22786 0.72657 0.0
C405 C 0.21516 0.21204 0.75694 0.0
C406 C 0.20613 0.22005 0.69708 0.0
C407 C 0.2519 0.22501 0.71938 0.0
C408 C 0.26451 0.24909 0.72094 0.0
C409 C 0.29133 0.25134 0.71487 0.0
C410 C 0.30553 0.22839 0.70657 0.0
C411 C 0.2929 0.20356 0.70478 0.0
C412 C 0.26579 0.20196 0.71157 0.0
H413 H 0.71601 0.19136 0.74608 0.0
H414 H 0.64783 0.24205 0.75997 0.0
H415 H 0.67493 0.28128 0.74806 0.0
H416 H 0.76224 0.23436 0.78378 0.0
H417 H 0.78842 0.22648 0.7559 0.0
H418 H 0.76349 0.20237 0.76442 0.0
H419 H 0.75296 0.19853 0.70303 0.0
H420 H 0.77808 0.22236 0.6943 0.0
H421 H 0.74499 0.22797 0.68031 0.0
H422 H 0.70979 0.31498 0.73449 0.0
H423 H 0.74929 0.34022 0.71898 0.0
H424 H 0.79455 0.26722 0.71615 0.0
C425 C 0.70668 0.21068 0.7463 0.0
C426 C 0.67978 0.21366 0.75376 0.0
C427 C 0.6684 0.23931 0.75418 0.0
C428 C 0.68365 0.2617 0.74754 0.0
C429 C 0.71023 0.25807 0.74077 0.0
C430 C 0.72162 0.23318 0.74004 0.0
C431 C 0.75063 0.2346 0.73249 0.0
C432 C 0.76716 0.22382 0.76084 0.0
C433 C 0.75703 0.22001 0.70064 0.0
C434 C 0.7538 0.26418 0.72891 0.0
C435 C 0.73031 0.27741 0.73376 0.0
C436 C 0.72832 0.30483 0.73079 0.0
C437 C 0.75085 0.319 0.72208 0.0
C438 C 0.77502 0.30572 0.71661 0.0
C439 C 0.77646 0.278 0.72057 0.0
H440 H 0.17019 0.33879 0.91666 0.0
H441 H 0.11921 0.27345 0.89167 0.0
H442 H 0.11486 0.26242 0.94984 0.0
H443 H 0.20246 0.30608 -0.01167 0.0
H444 H 0.20354 0.33688 0.01037 0.0
H445 H 0.20596 0.33684 0.96671 0.0
H446 H 0.16659 0.36946 0.96352 0.0
H447 H 0.16386 0.36942 0.007 0.0
H448 H 0.13594 0.36071 0.98242 0.0
H449 H 0.1098 0.26367 0.01008 0.0
H450 H 0.10713 0.2748 0.06839 0.0
H451 H 0.16314 0.33797 0.05439 0.0
C452 C 0.15867 0.32172 0.92338 0.0
C453 C 0.14499 0.30697 0.89977 0.0
C454 C 0.12996 0.2849 0.90941 0.0
C455 C 0.12739 0.2785 0.94237 0.0
C456 C 0.14041 0.29407 0.96516 0.0
C457 C 0.15615 0.31493 0.95605 0.0
C458 C 0.16636 0.32984 -0.01471 0.0
C459 C 0.19636 0.32724 -0.01218 0.0
C460 C 0.15765 0.35907 -0.01551 0.0
C461 C 0.15289 0.3149 0.01226 0.0
C462 C 0.13816 0.29421 0.00014 0.0
C463 C 0.12178 0.27934 0.01996 0.0
C464 C 0.12027 0.2859 0.05295 0.0
C465 C 0.13517 0.30701 0.06575 0.0
C466 C 0.15205 0.32133 0.04527 0.0
H467 H 0.61851 0.16717 0.90376 0.0
H468 H 0.69128 0.12392 0.88794 0.0
H469 H 0.69931 0.12347 0.94712 0.0
H470 H 0.64241 0.2077 0.97179 0.0
H471 H 0.61135 0.20656 -0.00732 0.0
H472 H 0.61233 0.20507 0.94898 0.0
H473 H 0.5863 0.1612 0.9502 0.0
H474 H 0.58528 0.16252 -0.00619 0.0
H475 H 0.5987 0.13377 0.97371 0.0
H476 H 0.69693 0.1236 0.0077 0.0
H477 H 0.68558 0.12634 0.06588 0.0
H478 H 0.61558 0.17165 0.04215 0.0
C479 C 0.63628 0.15785 0.91272 0.0
C480 C 0.65425 0.14548 0.89139 0.0
C481 C 0.6773 0.13354 0.90394 0.0
C482 C 0.68203 0.13321 0.93746 0.0
C483 C 0.66371 0.14529 0.95788 0.0
C484 C 0.64145 0.15765 0.94599 0.0
C485 C 0.62445 0.1684 0.97315 0.0
C486 C 0.62254 0.19873 0.97155 0.0
C487 C 0.59707 0.1557 0.97268 0.0
C488 C 0.64023 0.15946 0.00226 0.0
C489 C 0.66284 0.1462 -0.0071 0.0
C490 C 0.67956 0.13434 0.01536 0.0
C491 C 0.67291 0.13592 0.04827 0.0
C492 C 0.64988 0.14942 0.05833 0.0
C493 C 0.63357 0.16168 0.03508 0.0
H494 H 0.83599 0.6183 0.92502 0.0
H495 H 0.79668 0.69348 0.90922 0.0
H496 H 0.78491 0.69546 0.96763 0.0
H497 H 0.79299 0.59223 -0.01203 0.0
H498 H 0.81986 0.57819 0.01079 0.0
H499 H 0.82227 0.58117 0.9673 0.0
H500 H 0.86525 0.60796 0.97335 0.0
H501 H 0.86317 0.60467 0.01671 0.0
H502 H 0.86541 0.63706 -0.00129 0.0
H503 H 0.77832 0.68925 0.02815 0.0
H504 H 0.78455 0.67977 0.08676 0.0
H505 H 0.83161 0.61095 0.06241 0.0
C506 C 0.82463 0.63501 0.93386 0.0
C507 C 0.81691 0.6556 0.91288 0.0
C508 C 0.80268 0.67753 0.92518 0.0
C509 C 0.7957 0.67865 0.95813 0.0
C510 C 0.80349 0.65786 0.97827 0.0
C511 C 0.81812 0.63674 0.96665 0.0
C512 C 0.82678 0.61852 -0.00632 0.0
C513 C 0.81475 0.59089 -0.01032 0.0
C514 C 0.85693 0.61699 -0.00427 0.0
C515 C 0.81514 0.63288 0.02248 0.0
C516 C 0.80108 0.6551 0.01311 0.0
C517 C 0.78914 0.67184 0.03575 0.0
C518 C 0.79257 0.66624 0.06887 0.0
C519 C 0.80829 0.64454 0.07863 0.0
C520 C 0.81919 0.62742 0.05525 0.0
H521 H 0.30004 0.82517 0.05556 0.0
H522 H 0.36201 0.76683 0.06832 0.0
H523 H 0.3636 0.76002 0.00894 0.0
H524 H 0.26825 0.79304 0.98255 0.0
H525 H 0.2613 0.82487 0.96472 0.0
H526 H 0.26143 0.82115 0.00824 0.0
H527 H 0.29553 0.85877 0.01282 0.0
H528 H 0.29577 0.86242 0.96946 0.0
H529 H 0.32603 0.85605 -0.00917 0.0
H530 H 0.36463 0.76626 0.94907 0.0
H531 H 0.36291 0.78263 0.8927 0.0
H532 H 0.29908 0.83576 0.91846 0.0
C533 C 0.31338 0.81034 0.04593 0.0
C534 C 0.33093 0.79652 0.06642 0.0
C535 C 0.34829 0.77749 0.05301 0.0
C536 C 0.34929 0.77349 0.01934 0.0
C537 C 0.33247 0.78832 -0.00034 0.0
C538 C 0.31448 0.80602 0.0125 0.0
C539 C 0.30048 0.82145 -0.01389 0.0
C540 C 0.27112 0.81471 -0.01464 0.0
C541 C 0.30473 0.85143 -0.00995 0.0
C542 C 0.31445 0.81075 0.95645 0.0
C543 C 0.33261 0.79142 0.96477 0.0
C544 C 0.35 0.78079 0.94212 0.0
C545 C 0.349 0.79034 0.91026 0.0
C546 C 0.33068 0.81021 0.90136 0.0
C547 C 0.31281 0.82009 0.92456 0.0
H548 H 0.15191 0.61635 0.55767 0.0
H549 H 0.1093 0.69066 0.56664 0.0
H550 H 0.11034 0.69587 0.50703 0.0
H551 H 0.19404 0.63688 0.49001 0.0
H552 H 0.19322 0.60475 0.47103 0.0
H553 H 0.19045 0.6076 0.51451 0.0
H554 H 0.14673 0.58173 0.51288 0.0
H555 H 0.14935 0.57881 0.46946 0.0
H556 H 0.12037 0.5934 0.48731 0.0
H557 H 0.11227 0.69092 0.44702 0.0
H558 H 0.11667 0.67724 0.3898 0.0
H559 H 0.16023 0.60732 0.41942 0.0
C560 C 0.14299 0.63383 0.5471 0.0
C561 C 0.13043 0.65308 0.56668 0.0
C562 C 0.11904 0.67571 0.55204 0.0
C563 C 0.11957 0.67885 0.51826 0.0
C564 C 0.1319 0.65937 0.49964 0.0
C565 C 0.14363 0.63743 0.5135 0.0
C566 C 0.15494 0.61906 0.48791 0.0
C567 C 0.18495 0.61696 0.49106 0.0
C568 C 0.14207 0.59164 0.48949 0.0
C569 C 0.1471 0.63376 0.4574 0.0
C570 C 0.13386 0.65698 0.46481 0.0
C571 C 0.12298 0.67305 0.44088 0.0
C572 C 0.1255 0.66507 0.40852 0.0
C573 C 0.13899 0.6414 0.40038 0.0
C574 C 0.15029 0.62576 0.42507 0.0
H575 H 0.33973 0.10442 0.54953 0.0
H576 H 0.28355 0.16749 0.56725 0.0
H577 H 0.28098 0.17618 0.50803 0.0
H578 H 0.37467 0.13376 0.48704 0.0
H579 H 0.37896 0.10411 0.46323 0.0
H580 H 0.37513 0.10185 0.50655 0.0
H581 H 0.33552 0.07047 0.49934 0.0
H582 H 0.33954 0.07218 0.45596 0.0
H583 H 0.30837 0.08055 0.47405 0.0
H584 H 0.28957 0.18144 0.44763 0.0
H585 H 0.30197 0.17752 0.38958 0.0
H586 H 0.34903 0.10814 0.41174 0.0
C587 C 0.32646 0.11966 0.54077 0.0
C588 C 0.31178 0.13532 0.56254 0.0
C589 C 0.29467 0.15516 0.55062 0.0
C590 C 0.29328 0.16033 0.51717 0.0
C591 C 0.30865 0.14498 0.49627 0.0
C592 C 0.32431 0.12453 0.50757 0.0
C593 C 0.33871 0.11074 0.48024 0.0
C594 C 0.36863 0.11275 0.48454 0.0
C595 C 0.33 0.08177 0.47722 0.0
C596 C 0.32929 0.12706 0.4518 0.0
C597 C 0.31226 0.14696 0.46151 0.0
C598 C 0.30246 0.16562 0.43966 0.0
C599 C 0.30977 0.16342 0.40691 0.0
C600 C 0.32625 0.14245 0.39649 0.0
C601 C 0.33615 0.12416 0.41921 0.0
H602 H 0.83587 0.30433 0.41743 0.0
H603 H 0.76663 0.35425 0.40885 0.0
H604 H 0.7602 0.35172 0.46819 0.0
H605 H 0.81222 0.26348 0.48896 0.0
H606 H 0.84478 0.26266 0.50607 0.0
H607 H 0.84048 0.2634 0.46263 0.0
H608 H 0.86979 0.30498 0.4594 0.0
H609 H 0.87402 0.30454 0.50265 0.0
H610 H 0.86124 0.33379 0.48309 0.0
H611 H 0.76677 0.3519 0.52757 0.0
H612 H 0.78477 0.35342 0.58311 0.0
H613 H 0.84901 0.3021 0.55408 0.0
C614 C 0.81886 0.31403 0.42791 0.0
C615 C 0.80173 0.32951 0.40864 0.0
C616 C 0.7799 0.34219 0.42319 0.0
C617 C 0.77606 0.34077 0.45685 0.0
C618 C 0.79398 0.32623 0.47536 0.0
C619 C 0.81475 0.31274 0.46136 0.0
C620 C 0.83303 0.30128 0.48682 0.0
C621 C 0.83259 0.2709 0.48608 0.0
C622 C 0.86116 0.3118 0.48274 0.0
C623 C 0.82025 0.31188 0.51735 0.0
C624 C 0.79746 0.32581 0.51018 0.0
C625 C 0.78406 0.34038 0.53365 0.0
C626 C 0.79448 0.34124 0.56502 0.0
C627 C 0.81793 0.32749 0.57267 0.0
C628 C 0.83058 0.31201 0.54887 0.0
H629 H 0.61156 0.84773 0.54352 0.0
H630 H 0.68465 0.80621 0.56249 0.0
H631 H 0.68773 0.79402 0.50419 0.0
H632 H 0.58601 0.80457 0.48046 0.0
H633 H 0.57316 0.83176 0.45692 0.0
H634 H 0.57536 0.83452 0.50044 0.0
H635 H 0.60308 0.87713 0.49471 0.0
H636 H 0.6006 0.87471 0.45128 0.0
H637 H 0.63242 0.87636 0.47026 0.0
H638 H 0.68266 0.78718 0.44328 0.0
H639 H 0.67421 0.79291 0.38432 0.0
H640 H 0.60659 0.84206 0.40629 0.0
C641 C 0.62806 0.8358 0.53544 0.0
C642 C 0.64773 0.82758 0.55726 0.0
C643 C 0.6694 0.8126 0.54589 0.0
C644 C 0.67114 0.8054 0.51301 0.0
C645 C 0.65121 0.8137 0.49203 0.0
C646 C 0.63036 0.82902 0.5028 0.0
C647 C 0.613 0.83793 0.47516 0.0
C648 C 0.58524 0.8265 0.47845 0.0
C649 C 0.61226 0.86832 0.47271 0.0
C650 C 0.62751 0.8256 0.44696 0.0
C651 C 0.64908 0.81106 0.45713 0.0
C652 C 0.66576 0.7984 0.43508 0.0
C653 C 0.66075 0.80155 0.40177 0.0
C654 C 0.63968 0.8177 0.39124 0.0
C655 C 0.62262 0.82936 0.41403 0.0
H656 H 0.12377 0.50919 0.29759 0.0
H657 H 0.15651 0.55877 0.22192 0.0
H658 H 0.16097 0.51986 0.18629 0.0
H659 H 0.16579 0.45045 0.27987 0.0
H660 H 0.13975 0.42761 0.28876 0.0
H661 H 0.14107 0.45902 0.30943 0.0
H662 H 0.09373 0.46969 0.29031 0.0
H663 H 0.0923 0.43843 0.26948 0.0
H664 H 0.08615 0.46869 0.24758 0.0
H665 H 0.15601 0.47723 0.15621 0.0
H666 H 0.14621 0.4323 0.13572 0.0
H667 H 0.1204 0.40919 0.23176 0.0
C668 C 0.13232 0.51177 0.27375 0.0
C669 C 0.13976 0.53708 0.26259 0.0
C670 C 0.15078 0.5396 0.23115 0.0
C671 C 0.15337 0.51761 0.21065 0.0
C672 C 0.14533 0.49307 0.2221 0.0
C673 C 0.13549 0.48988 0.25311 0.0
C674 C 0.12763 0.46141 0.25903 0.0
C675 C 0.14458 0.44889 0.28586 0.0
C676 C 0.09821 0.45946 0.26706 0.0
C677 C 0.13379 0.44934 0.22616 0.0
C678 C 0.1439 0.468 0.20518 0.0
C679 C 0.14875 0.46225 0.1726 0.0
C680 C 0.14306 0.43679 0.16115 0.0
C681 C 0.13312 0.41731 0.18236 0.0
C682 C 0.12875 0.42359 0.21534 0.0
H683 H 0.5338 0.09995 0.1864 0.0
H684 H 0.54192 0.18443 0.17252 0.0
H685 H 0.49804 0.19174 0.19721 0.0
H686 H 0.46325 0.09499 0.17379 0.0
H687 H 0.45914 0.07113 0.20584 0.0
H688 H 0.48967 0.07257 0.18388 0.0
H689 H 0.51483 0.07867 0.23804 0.0
H690 H 0.4844 0.07735 0.26013 0.0
H691 H 0.50572 0.1054 0.26487 0.0
H692 H 0.45277 0.18933 0.22318 0.0
H693 H 0.41245 0.17801 0.25389 0.0
H694 H 0.43703 0.09578 0.25609 0.0
C695 C 0.52605 0.11992 0.18803 0.0
C696 C 0.5408 0.14163 0.17705 0.0
C697 C 0.53061 0.16758 0.18053 0.0
C698 C 0.50576 0.17188 0.19442 0.0
C699 C 0.49173 0.15002 0.20533 0.0
C700 C 0.5017 0.12458 0.20271 0.0
C701 C 0.48392 0.10472 0.21893 0.0
C702 C 0.47337 0.08468 0.19412 0.0
C703 C 0.49807 0.09072 0.24717 0.0
C704 C 0.46237 0.1229 0.23109 0.0
C705 C 0.46688 0.14889 0.22247 0.0
C706 C 0.44915 0.16908 0.23029 0.0
C707 C 0.42635 0.16251 0.24763 0.0
C708 C 0.42195 0.13615 0.2576 0.0
C709 C 0.44019 0.11618 0.24914 0.0
H710 H 0.83565 0.52673 0.18449 0.0
H711 H 0.83296 0.5834 0.2637 0.0
H712 H 0.82953 0.54665 0.30294 0.0
H713 H 0.7892 0.47975 0.22007 0.0
H714 H 0.80682 0.45139 0.20458 0.0
H715 H 0.80752 0.48225 0.18278 0.0
H716 H 0.85836 0.4816 0.18462 0.0
H717 H 0.85782 0.45083 0.20653 0.0
H718 H 0.87481 0.47889 0.22324 0.0
H719 H 0.83068 0.50345 0.33375 0.0
H720 H 0.83308 0.45729 0.35343 0.0
H721 H 0.83284 0.42914 0.25388 0.0
C722 C 0.83404 0.53147 0.21006 0.0
C723 C 0.83462 0.55797 0.22101 0.0
C724 C 0.83243 0.56327 0.2547 0.0
C725 C 0.83053 0.54252 0.27718 0.0
C726 C 0.83047 0.51661 0.26557 0.0
C727 C 0.83181 0.51105 0.23276 0.0
C728 C 0.83188 0.48151 0.22658 0.0
C729 C 0.80739 0.47324 0.20737 0.0
C730 C 0.85723 0.4727 0.20923 0.0
C731 C 0.83097 0.47128 0.26108 0.0
C732 C 0.83022 0.49182 0.28325 0.0
C733 C 0.83086 0.48722 0.3166 0.0
C734 C 0.83232 0.46095 0.32755 0.0
C735 C 0.83288 0.43963 0.30521 0.0
C736 C 0.83197 0.44499 0.27157 0.0
H737 H 0.52158 0.84252 0.28806 0.0
H738 H 0.57642 0.83868 0.20752 0.0
H739 H 0.53933 0.83391 0.16938 0.0
H740 H 0.47505 0.79432 0.25532 0.0
H741 H 0.44691 0.81203 0.27089 0.0
H742 H 0.47789 0.81374 0.29187 0.0
H743 H 0.47641 0.8649 0.28824 0.0
H744 H 0.44553 0.86336 0.26713 0.0
H745 H 0.47281 0.88048 0.24913 0.0
H746 H 0.49602 0.83367 0.13969 0.0
H747 H 0.4499 0.83466 0.12103 0.0
H748 H 0.42354 0.83648 0.22117 0.0
C749 C 0.52585 0.84039 0.26244 0.0
C750 C 0.55195 0.84103 0.25079 0.0
C751 C 0.55663 0.83814 0.21706 0.0
C752 C 0.53568 0.83548 0.19519 0.0
C753 C 0.51018 0.83537 0.20746 0.0
C754 C 0.50522 0.83741 0.24034 0.0
C755 C 0.47602 0.83719 0.24725 0.0
C756 C 0.46853 0.81287 0.26753 0.0
C757 C 0.46719 0.86302 0.26391 0.0
C758 C 0.46529 0.83527 0.21306 0.0
C759 C 0.4853 0.83432 0.19044 0.0
C760 C 0.48019 0.83401 0.1572 0.0
C761 C 0.45395 0.83469 0.14684 0.0
C762 C 0.43314 0.8354 0.16964 0.0
C763 C 0.43901 0.83549 0.20316 0.0
H764 H 0.83943 0.52517 0.80745 0.0
H765 H 0.82849 0.58193 0.7295 0.0
H766 H 0.82614 0.54526 0.69001 0.0
H767 H 0.88072 0.48205 0.76638 0.0
H768 H 0.86733 0.45209 0.78306 0.0
H769 H 0.86523 0.48246 0.80572 0.0
H770 H 0.81473 0.47767 0.80966 0.0
H771 H 0.81666 0.44711 0.78716 0.0
H772 H 0.79572 0.4736 0.77311 0.0
H773 H 0.83135 0.50347 0.65864 0.0
H774 H 0.83998 0.45856 0.63745 0.0
H775 H 0.84476 0.4284 0.73578 0.0
C776 C 0.83608 0.52988 0.78214 0.0
C777 C 0.83421 0.55639 0.77149 0.0
C778 C 0.82985 0.56176 0.7382 0.0
C779 C 0.8285 0.54107 0.71561 0.0
C780 C 0.83105 0.51519 0.72683 0.0
C781 C 0.83431 0.50948 0.75936 0.0
C782 C 0.83772 0.48003 0.76487 0.0
C783 C 0.86433 0.47381 0.78095 0.0
C784 C 0.81484 0.46895 0.78488 0.0
C785 C 0.83686 0.47016 0.73021 0.0
C786 C 0.83296 0.4908 0.70868 0.0
C787 C 0.83382 0.48707 0.67523 0.0
C788 C 0.83889 0.46157 0.66346 0.0
C789 C 0.84273 0.44015 0.68507 0.0
C790 C 0.8413 0.44442 0.71884 0.0
H791 H 0.53346 0.89043 0.69521 0.0
H792 H 0.55089 0.80683 0.68459 0.0
H793 H 0.50808 0.7959 0.70957 0.0
H794 H 0.50364 0.88403 0.77453 0.0
H795 H 0.47978 0.90984 0.76732 0.0
H796 H 0.51114 0.91079 0.74724 0.0
H797 H 0.48757 0.91343 0.69155 0.0
H798 H 0.45613 0.91216 0.71145 0.0
H799 H 0.46432 0.88823 0.68054 0.0
H800 H 0.46222 0.79444 0.73249 0.0
H801 H 0.41998 0.80216 0.76091 0.0
H802 H 0.43501 0.88646 0.76192 0.0
C803 C 0.52819 0.86986 0.69827 0.0
C804 C 0.54514 0.8494 0.68792 0.0
C805 C 0.53801 0.82268 0.69257 0.0
C806 C 0.51374 0.81633 0.70645 0.0
C807 C 0.49723 0.83698 0.7161 0.0
C808 C 0.50443 0.86319 0.71295 0.0
C809 C 0.48393 0.88157 0.72726 0.0
C810 C 0.4953 0.89749 0.75579 0.0
C811 C 0.4723 0.89993 0.70114 0.0
C812 C 0.46399 0.86163 0.73873 0.0
C813 C 0.47174 0.83605 0.73143 0.0
C814 C 0.45606 0.81435 0.73865 0.0
C815 C 0.4321 0.8189 0.75453 0.0
C816 C 0.42453 0.84484 0.76358 0.0
C817 C 0.44056 0.86643 0.75536 0.0
H818 H 0.13426 0.42315 0.74559 0.0
H819 H 0.14755 0.45248 0.84313 0.0
H820 H 0.15253 0.49778 0.82168 0.0
H821 H 0.17776 0.47012 0.70205 0.0
H822 H 0.15505 0.47354 0.66874 0.0
H823 H 0.15688 0.4429 0.691 0.0
H824 H 0.10696 0.44588 0.7027 0.0
H825 H 0.105 0.47649 0.68063 0.0
H826 H 0.09377 0.47508 0.72208 0.0
H827 H 0.15243 0.54019 0.79042 0.0
H828 H 0.14428 0.57696 0.75216 0.0
H829 H 0.12858 0.52015 0.67557 0.0
C830 C 0.13895 0.43903 0.76224 0.0
C831 C 0.14087 0.4344 0.79589 0.0
C832 C 0.14615 0.45572 0.81719 0.0
C833 C 0.14915 0.48144 0.80523 0.0
C834 C 0.14657 0.48552 0.77196 0.0
C835 C 0.14148 0.46493 0.75076 0.0
C836 C 0.13663 0.47502 0.7167 0.0
C837 C 0.15785 0.46479 0.69324 0.0
C838 C 0.10895 0.46769 0.70486 0.0
C839 C 0.1391 0.50449 0.72227 0.0
C840 C 0.1454 0.51012 0.75414 0.0
C841 C 0.14773 0.53604 0.76532 0.0
C842 C 0.14308 0.55679 0.74343 0.0
C843 C 0.13574 0.55141 0.71095 0.0
C844 C 0.13416 0.5249 0.70026 0.0
H845 H 0.41774 0.12777 0.72854 0.0
H846 H 0.44132 0.14164 0.62902 0.0
H847 H 0.48627 0.1521 0.6474 0.0
H848 H 0.46142 0.17709 0.76822 0.0
H849 H 0.46866 0.15529 0.80168 0.0
H850 H 0.43733 0.15349 0.78149 0.0
H851 H 0.44504 0.10354 0.77054 0.0
H852 H 0.47634 0.1052 0.79059 0.0
H853 H 0.47436 0.09302 0.74953 0.0
H854 H 0.52915 0.15769 0.67582 0.0
H855 H 0.56792 0.15407 0.71158 0.0
H856 H 0.51724 0.1333 0.79218 0.0
C857 C 0.43226 0.13377 0.71088 0.0
C858 C 0.4262 0.13443 0.67752 0.0
C859 C 0.44574 0.14135 0.65474 0.0
C860 C 0.47121 0.14742 0.66496 0.0
C861 C 0.47684 0.14613 0.698 0.0
C862 C 0.458 0.13927 0.72063 0.0
C863 C 0.46997 0.13609 0.75406 0.0
C864 C 0.45867 0.15673 0.77776 0.0
C865 C 0.46621 0.10778 0.76691 0.0
C866 C 0.49851 0.14157 0.74649 0.0
C867 C 0.50195 0.14795 0.7142 0.0
C868 C 0.5267 0.15293 0.70124 0.0
C869 C 0.5486 0.15085 0.72172 0.0
C870 C 0.5456 0.14334 0.7546 0.0
C871 C 0.52015 0.13908 0.76714 0.0
H872 H 0.63521 0.02758 0.7893 0.0
H873 H 0.66582 0.07938 0.71451 0.0
H874 H 0.67581 0.04057 0.68032 0.0
H875 H 0.68249 0.9718 0.775 0.0
H876 H 0.65771 0.94731 0.78265 0.0
H877 H 0.65625 0.97882 0.80313 0.0
H878 H 0.60905 0.98633 0.78143 0.0
H879 H 0.61036 0.95494 0.76094 0.0
H880 H 0.60306 0.9846 0.73834 0.0
H881 H 0.67584 -0.00256 0.65099 0.0
H882 H 0.66756 0.95256 0.62957 0.0
H883 H 0.63944 0.92806 0.72405 0.0
C884 C 0.64455 0.03076 0.76604 0.0
C885 C 0.64972 0.05659 0.75463 0.0
C886 C 0.66174 0.05983 0.72389 0.0
C887 C 0.66757 0.03788 0.70429 0.0
C888 C 0.66165 0.01276 0.71594 0.0
C889 C 0.65071 0.00903 0.74627 0.0
C890 C 0.64449 0.98014 0.75204 0.0
C891 C 0.66124 0.96885 0.77986 0.0
C892 C 0.615 0.9763 0.75855 0.0
C893 C 0.65258 0.96837 0.71969 0.0
C894 C 0.66263 0.98752 0.6993 0.0
C895 C 0.6687 0.98211 0.66697 0.0
C896 C 0.66391 0.95664 0.655 0.0
C897 C 0.65345 0.93684 0.6754 0.0
C898 C 0.64833 0.94263 0.70832 0.0
H899 H 0.93387 0.61003 0.78344 0.0
H900 H 0.91857 0.69435 0.78785 0.0
H901 H 0.96091 0.70274 0.75982 0.0
H902 H 0.00398 0.61105 0.79372 0.0
H903 H 0.00974 0.58501 0.76461 0.0
H904 H 0.97941 0.58614 0.78701 0.0
H905 H 0.95322 0.58605 0.73305 0.0
H906 H 0.98346 0.58493 0.71049 0.0
H907 H 0.95988 0.61093 0.70289 0.0
H908 H 0.00635 0.70124 0.73311 0.0
H909 H 0.04761 0.69005 0.70387 0.0
H910 H 0.02952 0.6067 0.71179 0.0
C911 C 0.93963 0.63027 0.77883 0.0
C912 C 0.9234 0.65162 0.78824 0.0
C913 C 0.93101 0.67781 0.78101 0.0
C914 C 0.95498 0.6827 0.76522 0.0
C915 C 0.97062 0.66111 0.75621 0.0
C916 C 0.96296 0.6354 0.76229 0.0
C917 C 0.98213 0.61555 0.74814 0.0
C918 C -0.00545 0.59844 0.77498 0.0
C919 C 0.96888 0.59836 0.7221 0.0
C920 C 0.00198 0.63404 0.73332 0.0
C921 C -0.00465 0.66025 0.7387 0.0
C922 C 0.01152 0.6808 0.72843 0.0
C923 C 0.03488 0.67431 0.71197 0.0
C924 C 0.04137 0.6476 0.70532 0.0
C925 C 0.0247 0.62731 0.71614 0.0
H926 H 0.32766 0.01536 0.67057 0.0
H927 H 0.31128 0.07185 0.74751 0.0
H928 H 0.30401 0.035 0.78566 0.0
H929 H 0.27979 0.96443 0.69764 0.0
H930 H 0.30145 0.93767 0.68618 0.0
H931 H 0.30208 0.96841 0.66406 0.0
H932 H 0.35199 0.97236 0.67511 0.0
H933 H 0.3515 0.94175 0.69723 0.0
H934 H 0.36377 0.97128 0.71636 0.0
H935 H 0.30525 -0.00755 0.81706 0.0
H936 H 0.31277 0.94736 0.83853 0.0
H937 H 0.32585 0.91849 0.74067 0.0
C938 C 0.322 0.02002 0.69527 0.0
C939 C 0.32006 0.04653 0.70602 0.0
C940 C 0.31277 0.05173 0.73862 0.0
C941 C 0.30856 0.03091 0.76049 0.0
C942 C 0.31127 0.00501 0.74926 0.0
C943 C 0.31747 -0.0005 0.71729 0.0
C944 C 0.32087 0.97005 0.71181 0.0
C945 C 0.29978 0.95952 0.68854 0.0
C946 C 0.34868 0.96349 0.69942 0.0
C947 C 0.31668 0.95991 0.74597 0.0
C948 C 0.311 0.98036 0.7672 0.0
C949 C 0.30902 0.97619 0.80056 0.0
C950 C 0.31338 0.95056 0.81255 0.0
C951 C 0.31941 0.92941 0.7912 0.0
C952 C 0.32047 0.93413 0.75745 0.0
H953 H 0.05687 0.34547 0.73665 0.0
H954 H 0.03078 0.32136 0.83229 0.0
H955 H -0.01393 0.31446 0.81095 0.0
H956 H 0.00049 0.38316 0.71862 0.0
H957 H -0.00033 0.37496 0.67604 0.0
H958 H 0.0304 0.37462 0.69756 0.0
H959 H 0.03845 0.32606 0.67981 0.0
H960 H 0.00768 0.32625 0.65819 0.0
H961 H 0.01405 0.30141 0.6886 0.0
H962 H 0.94395 0.31259 0.78048 0.0
H963 H 0.90619 0.31902 0.74401 0.0
H964 H 0.95862 0.34665 0.66831 0.0
C965 C 0.04183 0.33818 0.75285 0.0
C966 C 0.04728 0.33363 0.78603 0.0
C967 C 0.02699 0.32485 0.80677 0.0
C968 C 0.00159 0.32075 0.79484 0.0
C969 C -0.00329 0.32577 0.76215 0.0
C970 C 0.01617 0.33447 0.74144 0.0
C971 C 0.00506 0.34081 0.70815 0.0
C972 C 0.00914 0.37013 0.69961 0.0
C973 C 0.01702 0.32254 0.68215 0.0
C974 C 0.97627 0.33476 0.7136 0.0
C975 C 0.97203 0.32566 0.74475 0.0
C976 C 0.94702 0.31954 0.75595 0.0
C977 C 0.92567 0.32327 0.73498 0.0
C978 C 0.92934 0.33336 0.70321 0.0
C979 C 0.95512 0.33876 0.69233 0.0
H980 H 0.34438 0.00776 0.29298 0.0
H981 H 0.31196 0.06156 0.22105 0.0
H982 H 0.30192 0.02358 0.18555 0.0
H983 H 0.3762 0.96589 0.23957 0.0
H984 H 0.36954 0.9358 0.26142 0.0
H985 H 0.37105 0.96674 0.28286 0.0
H986 H 0.32433 0.95907 0.30573 0.0
H987 H 0.32267 0.928 0.2843 0.0
H988 H 0.29759 0.95281 0.27816 0.0
H989 H 0.30135 0.98102 0.15501 0.0
H990 H 0.30888 0.93643 0.13217 0.0
H991 H 0.33957 0.90982 0.22477 0.0
C992 C 0.33474 0.01157 0.27001 0.0
C993 C 0.32899 0.03765 0.25976 0.0
C994 C 0.31647 0.04175 0.22947 0.0
C995 C 0.31063 0.02031 0.20917 0.0
C996 C 0.31703 -0.0051 0.21978 0.0
C997 C 0.32855 -0.0096 0.24963 0.0
C998 C 0.33508 0.96138 0.25436 0.0
C999 C 0.36472 0.95723 0.25986 0.0
C1000 C 0.31895 0.94963 0.2823 0.0
C1001 C 0.32644 0.9504 0.22192 0.0
C1002 C 0.31588 0.97005 0.20244 0.0
C1003 C 0.30897 0.96534 0.17026 0.0
C1004 C 0.3134 0.94003 0.15749 0.0
C1005 C 0.32441 0.91974 0.17694 0.0
C1006 C 0.33042 0.92483 0.20975 0.0
H1007 H 0.90882 0.34389 0.24589 0.0
H1008 H 0.93752 0.31888 0.34017 0.0
H1009 H 0.9811 0.3096 0.31652 0.0
H1010 H 0.94906 0.29746 0.19576 0.0
H1011 H 0.95481 0.32208 0.16501 0.0
H1012 H 0.92477 0.32279 0.1881 0.0
H1013 H 0.93415 0.37118 0.20514 0.0
H1014 H 0.96425 0.37057 0.18233 0.0
H1015 H 0.96475 0.37886 0.22489 0.0
H1016 H 0.0222 0.30679 0.2843 0.0
H1017 H 0.05883 0.31203 0.24579 0.0
H1018 H 0.00415 0.34082 0.1728 0.0
C1019 C 0.92412 0.33573 0.26123 0.0
C1020 C 0.91988 0.33179 0.29469 0.0
C1021 C 0.94048 0.32191 0.3144 0.0
C1022 C 0.96522 0.31648 0.30119 0.0
C1023 C 0.96905 0.32121 0.26828 0.0
C1024 C 0.94913 0.33064 0.24851 0.0
C1025 C 0.95924 0.33663 0.21476 0.0
C1026 C 0.94619 0.31866 0.18941 0.0
C1027 C 0.95537 0.36605 0.20631 0.0
C1028 C -0.01199 0.32972 0.21897 0.0
C1029 C -0.00686 0.32044 0.24984 0.0
C1030 C 0.01843 0.31377 0.25992 0.0
C1031 C 0.03911 0.31687 0.23788 0.0
C1032 C 0.03439 0.32686 0.2063 0.0
C1033 C 0.00842 0.33309 0.19674 0.0
H1034 H 0.6489 0.93334 0.24358 0.0
H1035 H 0.62871 0.96109 0.34007 0.0
H1036 H 0.63625 0.00715 0.3228 0.0
H1037 H 0.69834 0.98579 0.22372 0.0
H1038 H 0.6871 0.98778 0.18231 0.0
H1039 H 0.68545 0.95684 0.20391 0.0
H1040 H 0.63563 0.95409 0.19161 0.0
H1041 H 0.63714 0.98489 0.17004 0.0
H1042 H 0.61444 0.98119 0.20325 0.0
H1043 H 0.64051 0.05035 0.29343 0.0
H1044 H 0.63759 0.08671 0.25331 0.0
H1045 H 0.65331 0.03062 0.17588 0.0
C1046 C 0.64691 0.94907 0.2613 0.0
C1047 C 0.63849 0.94371 0.29318 0.0
C1048 C 0.63524 0.96483 0.31549 0.0
C1049 C 0.63968 -0.00897 0.30599 0.0
C1050 C 0.64731 -0.00422 0.27409 0.0
C1051 C 0.65085 0.97536 0.25205 0.0
C1052 C 0.65552 0.98585 0.21821 0.0
C1053 C 0.68326 0.97864 0.20635 0.0
C1054 C 0.63442 0.97593 0.19441 0.0
C1055 C 0.65289 0.01526 0.2244 0.0
C1056 C 0.64889 0.0207 0.25689 0.0
C1057 C 0.64406 0.04639 0.26798 0.0
C1058 C 0.64248 0.06692 0.24509 0.0
C1059 C 0.6452 0.06141 0.2116 0.0
C1060 C 0.65125 0.0354 0.20139 0.0
H1061 H 0.02523 0.64425 0.28849 0.0
H1062 H 0.078 0.64015 0.20612 0.0
H1063 H 0.04046 0.64829 0.16908 0.0
H1064 H 0.97559 0.60947 0.25641 0.0
H1065 H 0.94901 0.62862 0.27355 0.0
H1066 H 0.98032 0.62778 0.29353 0.0
H1067 H 0.98274 0.67893 0.29138 0.0
H1068 H 0.95118 0.68 0.27161 0.0
H1069 H 0.97906 0.69568 0.25303 0.0
H1070 H -0.00343 0.64714 0.14155 0.0
H1071 H 0.95028 0.64082 0.12556 0.0
H1072 H 0.92633 0.64856 0.22605 0.0
C1073 C 0.02898 0.64588 0.26269 0.0
C1074 C 0.05437 0.64157 0.25 0.0
C1075 C 0.05866 0.64367 0.21621 0.0
C1076 C 0.03747 0.64825 0.19508 0.0
C1077 C 0.01241 0.65137 0.20835 0.0
C1078 C 0.0082 0.65085 0.24148 0.0
C1079 C 0.97927 0.65237 0.24962 0.0
C1080 C 0.97056 0.62812 0.26942 0.0
C1081 C 0.97268 0.67829 0.26746 0.0
C1082 C 0.96765 0.65217 0.21588 0.0
C1083 C -0.01292 0.65186 0.19237 0.0
C1084 C 0.9812 0.64823 0.15965 0.0
C1085 C 0.95492 0.6445 0.15082 0.0
C1086 C 0.93485 0.64464 0.17459 0.0
C1087 C 0.94126 0.64919 0.20737 0.0
loop_
_geom_bond_atom_site_label_1
_geom_bond_atom_site_label_2
_geom_bond_distance
_geom_bond_site_symmetry_2
_ccdc_geom_bond_type
C0 O1 1.306 . S
C0 O3 1.160 . S
O1 C0 1.306 . S
O1 Cd2 2.228 . S
Cd2 O1 2.228 . S
Cd2 O6 2.273 . S
Cd2 O10 2.277 . S
O3 C0 1.160 . S
O3 Cd4 2.203 . S
Cd4 O3 2.203 . S
Cd4 O6 2.411 . S
Cd4 O7 2.333 . S
Cd4 O8 2.352 . S
Cd4 O12 2.277 . S
Cd4 O13 2.356 . S
C5 O10 1.209 . S
C5 O12 1.226 . S
O6 Cd2 2.273 . S
O6 Cd4 2.411 . S
O6 C9 1.320 . S
O7 Cd4 2.333 . S
O7 C9 1.214 . S
O8 Cd4 2.352 . S
O8 C11 1.258 . S
C9 O6 1.320 . S
C9 O7 1.214 . S
O10 Cd2 2.277 . S
O10 C5 1.209 . S
C11 O8 1.258 . S
C11 O13 1.282 . S
O12 Cd4 2.277 . S
O12 C5 1.226 . S
O13 Cd4 2.356 . S
O13 C11 1.282 . S
C14 O15 1.306 . S
C14 O17 1.160 . S
O15 C14 1.306 . S
O15 Cd16 2.228 . S
Cd16 O15 2.228 . S
Cd16 O20 2.273 . S
Cd16 O24 2.277 . S
O17 C14 1.160 . S
O17 Cd18 2.203 . S
Cd18 O17 2.203 . S
Cd18 O20 2.411 . S
Cd18 O21 2.333 . S
Cd18 O22 2.352 . S
Cd18 O26 2.277 . S
Cd18 O27 2.356 . S
C19 O24 1.209 . S
C19 O26 1.226 . S
O20 Cd16 2.273 . S
O20 Cd18 2.411 . S
O20 C23 1.320 . S
O21 Cd18 2.333 . S
O21 C23 1.214 . S
O22 Cd18 2.352 . S
O22 C25 1.258 . S
C23 O20 1.320 . S
C23 O21 1.214 . S
O24 Cd16 2.277 . S
O24 C19 1.209 . S
C25 O22 1.258 . S
C25 O27 1.282 . S
O26 Cd18 2.277 . S
O26 C19 1.226 . S
O27 Cd18 2.356 . S
O27 C25 1.282 . S
C28 O29 1.306 . S
C28 O31 1.160 . S
O29 C28 1.306 . S
O29 Cd30 2.228 . S
Cd30 O29 2.228 . S
Cd30 O34 2.273 . S
Cd30 O38 2.277 . S
O31 C28 1.160 . S
O31 Cd32 2.203 . S
Cd32 O31 2.203 . S
Cd32 O34 2.411 . S
Cd32 O35 2.333 . S
Cd32 O36 2.352 . S
Cd32 O40 2.277 . S
Cd32 O41 2.356 . S
C33 O38 1.209 . S
C33 O40 1.226 . S
O34 Cd30 2.273 . S
O34 Cd32 2.411 . S
O34 C37 1.320 . S
O35 Cd32 2.333 . S
O35 C37 1.214 . S
O36 Cd32 2.352 . S
O36 C39 1.258 . S
C37 O34 1.320 . S
C37 O35 1.214 . S
O38 Cd30 2.277 . S
O38 C33 1.209 . S
C39 O36 1.258 . S
C39 O41 1.282 . S
O40 Cd32 2.277 . S
O40 C33 1.226 . S
O41 Cd32 2.356 . S
O41 C39 1.282 . S
C42 O43 1.306 . S
C42 O45 1.160 . S
O43 C42 1.306 . S
O43 Cd44 2.228 . S
Cd44 O43 2.228 . S
Cd44 O48 2.273 . S
Cd44 O52 2.277 . S
O45 C42 1.160 . S
O45 Cd46 2.203 . S
Cd46 O45 2.203 . S
Cd46 O48 2.411 . S
Cd46 O49 2.333 . S
Cd46 O50 2.352 . S
Cd46 O54 2.277 . S
Cd46 O55 2.356 . S
C47 O52 1.209 . S
C47 O54 1.226 . S
O48 Cd44 2.273 . S
O48 Cd46 2.411 . S
O48 C51 1.320 . S
O49 Cd46 2.333 . S
O49 C51 1.214 . S
O50 Cd46 2.352 . S
O50 C53 1.258 . S
C51 O48 1.320 . S
C51 O49 1.214 . S
O52 Cd44 2.277 . S
O52 C47 1.209 . S
C53 O50 1.258 . S
C53 O55 1.282 . S
O54 Cd46 2.277 . S
O54 C47 1.226 . S
O55 Cd46 2.356 . S
O55 C53 1.282 . S
C56 O57 1.306 . S
C56 O59 1.160 . S
O57 C56 1.306 . S
O57 Cd58 2.228 . S
Cd58 O57 2.228 . S
Cd58 O62 2.273 . S
Cd58 O66 2.277 . S
O59 C56 1.160 . S
O59 Cd60 2.203 . S
Cd60 O59 2.203 . S
Cd60 O62 2.411 . S
Cd60 O63 2.333 . S
Cd60 O64 2.352 . S
Cd60 O68 2.277 . S
Cd60 O69 2.356 . S
C61 O66 1.209 . S
C61 O68 1.226 . S
O62 Cd58 2.273 . S
O62 Cd60 2.411 . S
O62 C65 1.320 . S
O63 Cd60 2.333 . S
O63 C65 1.214 . S
O64 Cd60 2.352 . S
O64 C67 1.258 . S
C65 O62 1.320 . S
C65 O63 1.214 . S
O66 Cd58 2.277 . S
O66 C61 1.209 . S
C67 O64 1.258 . S
C67 O69 1.282 . S
O68 Cd60 2.277 . S
O68 C61 1.226 . S
O69 Cd60 2.356 . S
O69 C67 1.282 . S
C70 O71 1.306 . S
C70 O73 1.160 . S
O71 C70 1.306 . S
O71 Cd72 2.228 . S
Cd72 O71 2.228 . S
Cd72 O76 2.273 . S
Cd72 O80 2.277 . S
O73 C70 1.160 . S
O73 Cd74 2.203 . S
Cd74 O73 2.203 . S
Cd74 O76 2.411 . S
Cd74 O77 2.333 . S
Cd74 O78 2.352 . S
Cd74 O82 2.277 . S
Cd74 O83 2.356 . S
C75 O80 1.209 . S
C75 O82 1.226 . S
O76 Cd72 2.273 . S
O76 Cd74 2.411 . S
O76 C79 1.320 . S
O77 Cd74 2.333 . S
O77 C79 1.214 . S
O78 Cd74 2.352 . S
O78 C81 1.258 . S
C79 O76 1.320 . S
C79 O77 1.214 . S
O80 Cd72 2.277 . S
O80 C75 1.209 . S
C81 O78 1.258 . S
C81 O83 1.282 . S
O82 Cd74 2.277 . S
O82 C75 1.226 . S
O83 Cd74 2.356 . S
O83 C81 1.282 . S
C84 O85 1.306 . S
C84 O87 1.160 . S
O85 C84 1.306 . S
O85 Cd86 2.228 . S
Cd86 O85 2.228 . S
Cd86 O90 2.273 . S
Cd86 O94 2.277 . S
O87 C84 1.160 . S
O87 Cd88 2.203 . S
Cd88 O87 2.203 . S
Cd88 O90 2.411 . S
Cd88 O91 2.333 . S
Cd88 O92 2.352 . S
Cd88 O96 2.277 . S
Cd88 O97 2.356 . S
C89 O94 1.209 . S
C89 O96 1.226 . S
O90 Cd86 2.273 . S
O90 Cd88 2.411 . S
O90 C93 1.320 . S
O91 Cd88 2.333 . S
O91 C93 1.214 . S
O92 Cd88 2.352 . S
O92 C95 1.258 . S
C93 O90 1.320 . S
C93 O91 1.214 . S
O94 Cd86 2.277 . S
O94 C89 1.209 . S
C95 O92 1.258 . S
C95 O97 1.282 . S
O96 Cd88 2.277 . S
O96 C89 1.226 . S
O97 Cd88 2.356 . S
O97 C95 1.282 . S
C98 O99 1.306 . S
C98 O101 1.160 . S
O99 C98 1.306 . S
O99 Cd100 2.228 . S
Cd100 O99 2.228 . S
Cd100 O104 2.273 . S
Cd100 O108 2.277 . S
O101 C98 1.160 . S
O101 Cd102 2.203 . S
Cd102 O101 2.203 . S
Cd102 O104 2.411 . S
Cd102 O105 2.333 . S
Cd102 O106 2.352 . S
Cd102 O110 2.277 . S
Cd102 O111 2.356 . S
C103 O108 1.209 . S
C103 O110 1.226 . S
O104 Cd100 2.273 . S
O104 Cd102 2.411 . S
O104 C107 1.320 . S
O105 Cd102 2.333 . S
O105 C107 1.214 . S
O106 Cd102 2.352 . S
O106 C109 1.258 . S
C107 O104 1.320 . S
C107 O105 1.214 . S
O108 Cd100 2.277 . S
O108 C103 1.209 . S
C109 O106 1.258 . S
C109 O111 1.282 . S
O110 Cd102 2.277 . S
O110 C103 1.226 . S
O111 Cd102 2.356 . S
O111 C109 1.282 . S
C112 O113 1.306 . S
C112 O115 1.160 . S
O113 C112 1.306 . S
O113 Cd114 2.228 . S
Cd114 O113 2.228 . S
Cd114 O118 2.273 . S
Cd114 O122 2.277 . S
O115 C112 1.160 . S
O115 Cd116 2.203 . S
Cd116 O115 2.203 . S
Cd116 O118 2.411 . S
Cd116 O119 2.333 . S
Cd116 O120 2.352 . S
Cd116 O124 2.277 . S
Cd116 O125 2.356 . S
C117 O122 1.209 . S
C117 O124 1.226 . S
O118 Cd114 2.273 . S
O118 Cd116 2.411 . S
O118 C121 1.320 . S
O119 Cd116 2.333 . S
O119 C121 1.214 . S
O120 Cd116 2.352 . S
O120 C123 1.258 . S
C121 O118 1.320 . S
C121 O119 1.214 . S
O122 Cd114 2.277 . S
O122 C117 1.209 . S
C123 O120 1.258 . S
C123 O125 1.282 . S
O124 Cd116 2.277 . S
O124 C117 1.226 . S
O125 Cd116 2.356 . S
O125 C123 1.282 . S
C126 O127 1.306 . S
C126 O129 1.160 . S
O127 C126 1.306 . S
O127 Cd128 2.228 . S
Cd128 O127 2.228 . S
Cd128 O132 2.273 . S
Cd128 O136 2.277 . S
O129 C126 1.160 . S
O129 Cd130 2.203 . S
Cd130 O129 2.203 . S
Cd130 O132 2.411 . S
Cd130 O133 2.333 . S
Cd130 O134 2.352 . S
Cd130 O138 2.277 . S
Cd130 O139 2.356 . S
C131 O136 1.209 . S
C131 O138 1.226 . S
O132 Cd128 2.273 . S
O132 Cd130 2.411 . S
O132 C135 1.320 . S
O133 Cd130 2.333 . S
O133 C135 1.214 . S
O134 Cd130 2.352 . S
O134 C137 1.258 . S
C135 O132 1.320 . S
C135 O133 1.214 . S
O136 Cd128 2.277 . S
O136 C131 1.209 . S
C137 O134 1.258 . S
C137 O139 1.282 . S
O138 Cd130 2.277 . S
O138 C131 1.226 . S
O139 Cd130 2.356 . S
O139 C137 1.282 . S
C140 O141 1.306 . S
C140 O143 1.160 . S
O141 C140 1.306 . S
O141 Cd142 2.228 . S
Cd142 O141 2.228 . S
Cd142 O146 2.273 . S
Cd142 O150 2.277 . S
O143 C140 1.160 . S
O143 Cd144 2.203 . S
Cd144 O143 2.203 . S
Cd144 O146 2.411 . S
Cd144 O147 2.333 . S
Cd144 O148 2.352 . S
Cd144 O152 2.277 . S
Cd144 O153 2.356 . S
C145 O150 1.209 . S
C145 O152 1.226 . S
O146 Cd142 2.273 . S
O146 Cd144 2.411 . S
O146 C149 1.320 . S
O147 Cd144 2.333 . S
O147 C149 1.214 . S
O148 Cd144 2.352 . S
O148 C151 1.258 . S
C149 O146 1.320 . S
C149 O147 1.214 . S
O150 Cd142 2.277 . S
O150 C145 1.209 . S
C151 O148 1.258 . S
C151 O153 1.282 . S
O152 Cd144 2.277 . S
O152 C145 1.226 . S
O153 Cd144 2.356 . S
O153 C151 1.282 . S
C154 O155 1.306 . S
C154 O157 1.160 . S
O155 C154 1.306 . S
O155 Cd156 2.228 . S
Cd156 O155 2.228 . S
Cd156 O160 2.273 . S
Cd156 O164 2.277 . S
O157 C154 1.160 . S
O157 Cd158 2.203 . S
Cd158 O157 2.203 . S
Cd158 O160 2.411 . S
Cd158 O161 2.333 . S
Cd158 O162 2.352 . S
Cd158 O166 2.277 . S
Cd158 O167 2.356 . S
C159 O164 1.209 . S
C159 O166 1.226 . S
O160 Cd156 2.273 . S
O160 Cd158 2.411 . S
O160 C163 1.320 . S
O161 Cd158 2.333 . S
O161 C163 1.214 . S
O162 Cd158 2.352 . S
O162 C165 1.258 . S
C163 O160 1.320 . S
C163 O161 1.214 . S
O164 Cd156 2.277 . S
O164 C159 1.209 . S
C165 O162 1.258 . S
C165 O167 1.282 . S
O166 Cd158 2.277 . S
O166 C159 1.226 . S
O167 Cd158 2.356 . S
O167 C165 1.282 . S
C168 O169 1.306 . S
C168 O171 1.160 . S
O169 C168 1.306 . S
O169 Cd170 2.228 . S
Cd170 O169 2.228 . S
Cd170 O174 2.273 . S
Cd170 O178 2.277 . S
O171 C168 1.160 . S
O171 Cd172 2.203 . S
Cd172 O171 2.203 . S
Cd172 O174 2.411 . S
Cd172 O175 2.333 . S
Cd172 O176 2.352 . S
Cd172 O180 2.277 . S
Cd172 O181 2.356 . S
C173 O178 1.209 . S
C173 O180 1.226 . S
O174 Cd170 2.273 . S
O174 Cd172 2.411 . S
O174 C177 1.320 . S
O175 Cd172 2.333 . S
O175 C177 1.214 . S
O176 Cd172 2.352 . S
O176 C179 1.258 . S
C177 O174 1.320 . S
C177 O175 1.214 . S
O178 Cd170 2.277 . S
O178 C173 1.209 . S
C179 O176 1.258 . S
C179 O181 1.282 . S
O180 Cd172 2.277 . S
O180 C173 1.226 . S
O181 Cd172 2.356 . S
O181 C179 1.282 . S
C182 O183 1.306 . S
C182 O185 1.160 . S
O183 C182 1.306 . S
O183 Cd184 2.228 . S
Cd184 O183 2.228 . S
Cd184 O188 2.273 . S
Cd184 O192 2.277 . S
O185 C182 1.160 . S
O185 Cd186 2.203 . S
Cd186 O185 2.203 . S
Cd186 O188 2.411 . S
Cd186 O189 2.333 . S
Cd186 O190 2.352 . S
Cd186 O194 2.277 . S
Cd186 O195 2.356 . S
C187 O192 1.209 . S
C187 O194 1.226 . S
O188 Cd184 2.273 . S
O188 Cd186 2.411 . S
O188 C191 1.320 . S
O189 Cd186 2.333 . S
O189 C191 1.214 . S
O190 Cd186 2.352 . S
O190 C193 1.258 . S
C191 O188 1.320 . S
C191 O189 1.214 . S
O192 Cd184 2.277 . S
O192 C187 1.209 . S
C193 O190 1.258 . S
C193 O195 1.282 . S
O194 Cd186 2.277 . S
O194 C187 1.226 . S
O195 Cd186 2.356 . S
O195 C193 1.282 . S
C196 O197 1.306 . S
C196 O199 1.160 . S
O197 C196 1.306 . S
O197 Cd198 2.228 . S
Cd198 O197 2.228 . S
Cd198 O202 2.273 . S
Cd198 O206 2.277 . S
O199 C196 1.160 . S
O199 Cd200 2.203 . S
Cd200 O199 2.203 . S
Cd200 O202 2.411 . S
Cd200 O203 2.333 . S
Cd200 O204 2.352 . S
Cd200 O208 2.277 . S
Cd200 O209 2.356 . S
C201 O206 1.209 . S
C201 O208 1.226 . S
O202 Cd198 2.273 . S
O202 Cd200 2.411 . S
O202 C205 1.320 . S
O203 Cd200 2.333 . S
O203 C205 1.214 . S
O204 Cd200 2.352 . S
O204 C207 1.258 . S
C205 O202 1.320 . S
C205 O203 1.214 . S
O206 Cd198 2.277 . S
O206 C201 1.209 . S
C207 O204 1.258 . S
C207 O209 1.282 . S
O208 Cd200 2.277 . S
O208 C201 1.226 . S
O209 Cd200 2.356 . S
O209 C207 1.282 . S
C210 O211 1.306 . S
C210 O213 1.160 . S
O211 C210 1.306 . S
O211 Cd212 2.228 . S
Cd212 O211 2.228 . S
Cd212 O216 2.273 . S
Cd212 O220 2.277 . S
O213 C210 1.160 . S
O213 Cd214 2.203 . S
Cd214 O213 2.203 . S
Cd214 O216 2.411 . S
Cd214 O217 2.333 . S
Cd214 O218 2.352 . S
Cd214 O222 2.277 . S
Cd214 O223 2.356 . S
C215 O220 1.209 . S
C215 O222 1.226 . S
O216 Cd212 2.273 . S
O216 Cd214 2.411 . S
O216 C219 1.320 . S
O217 Cd214 2.333 . S
O217 C219 1.214 . S
O218 Cd214 2.352 . S
O218 C221 1.258 . S
C219 O216 1.320 . S
C219 O217 1.214 . S
O220 Cd212 2.277 . S
O220 C215 1.209 . S
C221 O218 1.258 . S
C221 O223 1.282 . S
O222 Cd214 2.277 . S
O222 C215 1.226 . S
O223 Cd214 2.356 . S
O223 C221 1.282 . S
H224 C236 0.930 . S
H225 C238 0.930 . S
H226 C239 0.930 . S
H227 C243 0.959 . S
H228 C243 0.959 . S
H229 C243 0.961 . S
H230 C244 0.960 . S
H231 C244 0.961 . S
H232 C244 0.959 . S
H233 C247 0.929 . S
H234 C248 0.931 . S
H235 C250 0.930 . S
C236 H224 0.930 . S
C236 C237 1.399 . S
C236 C241 1.399 . S
C237 C236 1.399 . S
C237 C238 1.376 . S
C238 H225 0.930 . S
C238 C237 1.376 . S
C238 C239 1.388 . S
C239 H226 0.930 . S
C239 C238 1.388 . S
C239 C240 1.390 . S
C240 C239 1.390 . S
C240 C241 1.394 . S
C240 C246 1.465 . S
C241 C236 1.399 . S
C241 C240 1.394 . S
C241 C242 1.516 . S
C242 C241 1.516 . S
C242 C243 1.502 . S
C242 C244 1.561 . S
C242 C245 1.526 . S
C243 H227 0.959 . S
C243 H228 0.959 . S
C243 H229 0.961 . S
C243 C242 1.502 . S
C244 H230 0.960 . S
C244 H231 0.961 . S
C244 H232 0.959 . S
C244 C242 1.561 . S
C245 C242 1.526 . S
C245 C246 1.396 . S
C245 C250 1.390 . S
C246 C240 1.465 . S
C246 C245 1.396 . S
C246 C247 1.399 . S
C247 H233 0.929 . S
C247 C246 1.399 . S
C247 C248 1.385 . S
C248 H234 0.931 . S
C248 C247 1.385 . S
C248 C249 1.389 . S
C249 C248 1.389 . S
C249 C250 1.387 . S
C250 H235 0.930 . S
C250 C245 1.390 . S
C250 C249 1.387 . S
H251 C263 0.930 . S
H252 C265 0.930 . S
H253 C266 0.930 . S
H254 C270 0.959 . S
H255 C270 0.959 . S
H256 C270 0.961 . S
H257 C271 0.960 . S
H258 C271 0.961 . S
H259 C271 0.959 . S
H260 C274 0.929 . S
H261 C275 0.931 . S
H262 C277 0.930 . S
C263 H251 0.930 . S
C263 C264 1.399 . S
C263 C268 1.399 . S
C264 C263 1.399 . S
C264 C265 1.376 . S
C265 H252 0.930 . S
C265 C264 1.376 . S
C265 C266 1.388 . S
C266 H253 0.930 . S
C266 C265 1.388 . S
C266 C267 1.390 . S
C267 C266 1.390 . S
C267 C268 1.394 . S
C267 C273 1.465 . S
C268 C263 1.399 . S
C268 C267 1.394 . S
C268 C269 1.516 . S
C269 C268 1.516 . S
C269 C270 1.502 . S
C269 C271 1.561 . S
C269 C272 1.526 . S
C270 H254 0.959 . S
C270 H255 0.959 . S
C270 H256 0.961 . S
C270 C269 1.502 . S
C271 H257 0.960 . S
C271 H258 0.961 . S
C271 H259 0.959 . S
C271 C269 1.561 . S
C272 C269 1.526 . S
C272 C273 1.396 . S
C272 C277 1.390 . S
C273 C267 1.465 . S
C273 C272 1.396 . S
C273 C274 1.399 . S
C274 H260 0.929 . S
C274 C273 1.399 . S
C274 C275 1.385 . S
C275 H261 0.931 . S
C275 C274 1.385 . S
C275 C276 1.389 . S
C276 C275 1.389 . S
C276 C277 1.387 . S
C277 H262 0.930 . S
C277 C272 1.390 . S
C277 C276 1.387 . S
H278 C290 0.930 . S
H279 C292 0.930 . S
H280 C293 0.930 . S
H281 C297 0.959 . S
H282 C297 0.959 . S
H283 C297 0.961 . S
H284 C298 0.960 . S
H285 C298 0.961 . S
H286 C298 0.959 . S
H287 C301 0.929 . S
H288 C302 0.931 . S
H289 C304 0.930 . S
C290 H278 0.930 . S
C290 C291 1.399 . S
C290 C295 1.399 . S
C291 C290 1.399 . S
C291 C292 1.376 . S
C292 H279 0.930 . S
C292 C291 1.376 . S
C292 C293 1.388 . S
C293 H280 0.930 . S
C293 C292 1.388 . S
C293 C294 1.390 . S
C294 C293 1.390 . S
C294 C295 1.394 . S
C294 C300 1.465 . S
C295 C290 1.399 . S
C295 C294 1.394 . S
C295 C296 1.516 . S
C296 C295 1.516 . S
C296 C297 1.502 . S
C296 C298 1.561 . S
C296 C299 1.526 . S
C297 H281 0.959 . S
C297 H282 0.959 . S
C297 H283 0.961 . S
C297 C296 1.502 . S
C298 H284 0.960 . S
C298 H285 0.961 . S
C298 H286 0.959 . S
C298 C296 1.561 . S
C299 C296 1.526 . S
C299 C300 1.396 . S
C299 C304 1.390 . S
C300 C294 1.465 . S
C300 C299 1.396 . S
C300 C301 1.399 . S
C301 H287 0.929 . S
C301 C300 1.399 . S
C301 C302 1.385 . S
C302 H288 0.931 . S
C302 C301 1.385 . S
C302 C303 1.389 . S
C303 C302 1.389 . S
C303 C304 1.387 . S
C304 H289 0.930 . S
C304 C299 1.390 . S
C304 C303 1.387 . S
H305 C317 0.930 . S
H306 C319 0.930 . S
H307 C320 0.930 . S
H308 C324 0.959 . S
H309 C324 0.959 . S
H310 C324 0.961 . S
H311 C325 0.960 . S
H312 C325 0.961 . S
H313 C325 0.959 . S
H314 C328 0.929 . S
H315 C329 0.931 . S
H316 C331 0.930 . S
C317 H305 0.930 . S
C317 C318 1.399 . S
C317 C322 1.399 . S
C318 C317 1.399 . S
C318 C319 1.376 . S
C319 H306 0.930 . S
C319 C318 1.376 . S
C319 C320 1.388 . S
C320 H307 0.930 . S
C320 C319 1.388 . S
C320 C321 1.390 . S
C321 C320 1.390 . S
C321 C322 1.394 . S
C321 C327 1.465 . S
C322 C317 1.399 . S
C322 C321 1.394 . S
C322 C323 1.516 . S
C323 C322 1.516 . S
C323 C324 1.502 . S
C323 C325 1.561 . S
C323 C326 1.526 . S
C324 H308 0.959 . S
C324 H309 0.959 . S
C324 H310 0.961 . S
C324 C323 1.502 . S
C325 H311 0.960 . S
C325 H312 0.961 . S
C325 H313 0.959 . S
C325 C323 1.561 . S
C326 C323 1.526 . S
C326 C327 1.396 . S
C326 C331 1.390 . S
C327 C321 1.465 . S
C327 C326 1.396 . S
C327 C328 1.399 . S
C328 H314 0.929 . S
C328 C327 1.399 . S
C328 C329 1.385 . S
C329 H315 0.931 . S
C329 C328 1.385 . S
C329 C330 1.389 . S
C330 C329 1.389 . S
C330 C331 1.387 . S
C331 H316 0.930 . S
C331 C326 1.390 . S
C331 C330 1.387 . S
H332 C344 0.930 . S
H333 C346 0.930 . S
H334 C347 0.930 . S
H335 C351 0.959 . S
H336 C351 0.959 . S
H337 C351 0.961 . S
H338 C352 0.960 . S
H339 C352 0.961 . S
H340 C352 0.959 . S
H341 C355 0.929 . S
H342 C356 0.931 . S
H343 C358 0.930 . S
C344 H332 0.930 . S
C344 C345 1.399 . S
C344 C349 1.399 . S
C345 C344 1.399 . S
C345 C346 1.376 . S
C346 H333 0.930 . S
C346 C345 1.376 . S
C346 C347 1.388 . S
C347 H334 0.930 . S
C347 C346 1.388 . S
C347 C348 1.390 . S
C348 C347 1.390 . S
C348 C349 1.394 . S
C348 C354 1.465 . S
C349 C344 1.399 . S
C349 C348 1.394 . S
C349 C350 1.516 . S
C350 C349 1.516 . S
C350 C351 1.502 . S
C350 C352 1.561 . S
C350 C353 1.526 . S
C351 H335 0.959 . S
C351 H336 0.959 . S
C351 H337 0.961 . S
C351 C350 1.502 . S
C352 H338 0.960 . S
C352 H339 0.961 . S
C352 H340 0.959 . S
C352 C350 1.561 . S
C353 C350 1.526 . S
C353 C354 1.396 . S
C353 C358 1.390 . S
C354 C348 1.465 . S
C354 C353 1.396 . S
C354 C355 1.399 . S
C355 H341 0.929 . S
C355 C354 1.399 . S
C355 C356 1.385 . S
C356 H342 0.931 . S
C356 C355 1.385 . S
C356 C357 1.389 . S
C357 C356 1.389 . S
C357 C358 1.387 . S
C358 H343 0.930 . S
C358 C353 1.390 . S
C358 C357 1.387 . S
H359 C371 0.930 . S
H360 C373 0.930 . S
H361 C374 0.930 . S
H362 C378 0.959 . S
H363 C378 0.959 . S
H364 C378 0.961 . S
H365 C379 0.960 . S
H366 C379 0.961 . S
H367 C379 0.959 . S
H368 C382 0.929 . S
H369 C383 0.931 . S
H370 C385 0.930 . S
C371 H359 0.930 . S
C371 C372 1.399 . S
C371 C376 1.399 . S
C372 C371 1.399 . S
C372 C373 1.376 . S
C373 H360 0.930 . S
C373 C372 1.376 . S
C373 C374 1.388 . S
C374 H361 0.930 . S
C374 C373 1.388 . S
C374 C375 1.390 . S
C375 C374 1.390 . S
C375 C376 1.394 . S
C375 C381 1.465 . S
C376 C371 1.399 . S
C376 C375 1.394 . S
C376 C377 1.516 . S
C377 C376 1.516 . S
C377 C378 1.502 . S
C377 C379 1.561 . S
C377 C380 1.526 . S
C378 H362 0.959 . S
C378 H363 0.959 . S
C378 H364 0.961 . S
C378 C377 1.502 . S
C379 H365 0.960 . S
C379 H366 0.961 . S
C379 H367 0.959 . S
C379 C377 1.561 . S
C380 C377 1.526 . S
C380 C381 1.396 . S
C380 C385 1.390 . S
C381 C375 1.465 . S
C381 C380 1.396 . S
C381 C382 1.399 . S
C382 H368 0.929 . S
C382 C381 1.399 . S
C382 C383 1.385 . S
C383 H369 0.931 . S
C383 C382 1.385 . S
C383 C384 1.389 . S
C384 C383 1.389 . S
C384 C385 1.387 . S
C385 H370 0.930 . S
C385 C380 1.390 . S
C385 C384 1.387 . S
H386 C398 0.930 . S
H387 C400 0.930 . S
H388 C401 0.930 . S
H389 C405 0.959 . S
H390 C405 0.959 . S
H391 C405 0.961 . S
H392 C406 0.960 . S
H393 C406 0.961 . S
H394 C406 0.959 . S
H395 C409 0.929 . S
H396 C410 0.931 . S
H397 C412 0.930 . S
C398 H386 0.930 . S
C398 C399 1.399 . S
C398 C403 1.399 . S
C399 C398 1.399 . S
C399 C400 1.376 . S
C400 H387 0.930 . S
C400 C399 1.376 . S
C400 C401 1.388 . S
C401 H388 0.930 . S
C401 C400 1.388 . S
C401 C402 1.390 . S
C402 C401 1.390 . S
C402 C403 1.394 . S
C402 C408 1.465 . S
C403 C398 1.399 . S
C403 C402 1.394 . S
C403 C404 1.516 . S
C404 C403 1.516 . S
C404 C405 1.502 . S
C404 C406 1.561 . S
C404 C407 1.526 . S
C405 H389 0.959 . S
C405 H390 0.959 . S
C405 H391 0.961 . S
C405 C404 1.502 . S
C406 H392 0.960 . S
C406 H393 0.961 . S
C406 H394 0.959 . S
C406 C404 1.561 . S
C407 C404 1.526 . S
C407 C408 1.396 . S
C407 C412 1.390 . S
C408 C402 1.465 . S
C408 C407 1.396 . S
C408 C409 1.399 . S
C409 H395 0.929 . S
C409 C408 1.399 . S
C409 C410 1.385 . S
C410 H396 0.931 . S
C410 C409 1.385 . S
C410 C411 1.389 . S
C411 C410 1.389 . S
C411 C412 1.387 . S
C412 H397 0.930 . S
C412 C407 1.390 . S
C412 C411 1.387 . S
H413 C425 0.930 . S
H414 C427 0.930 . S
H415 C428 0.930 . S
H416 C432 0.959 . S
H417 C432 0.959 . S
H418 C432 0.961 . S
H419 C433 0.960 . S
H420 C433 0.961 . S
H421 C433 0.959 . S
H422 C436 0.929 . S
H423 C437 0.931 . S
H424 C439 0.930 . S
C425 H413 0.930 . S
C425 C426 1.399 . S
C425 C430 1.399 . S
C426 C425 1.399 . S
C426 C427 1.376 . S
C427 H414 0.930 . S
C427 C426 1.376 . S
C427 C428 1.388 . S
C428 H415 0.930 . S
C428 C427 1.388 . S
C428 C429 1.390 . S
C429 C428 1.390 . S
C429 C430 1.394 . S
C429 C435 1.465 . S
C430 C425 1.399 . S
C430 C429 1.394 . S
C430 C431 1.516 . S
C431 C430 1.516 . S
C431 C432 1.502 . S
C431 C433 1.561 . S
C431 C434 1.526 . S
C432 H416 0.959 . S
C432 H417 0.959 . S
C432 H418 0.961 . S
C432 C431 1.502 . S
C433 H419 0.960 . S
C433 H420 0.961 . S
C433 H421 0.959 . S
C433 C431 1.561 . S
C434 C431 1.526 . S
C434 C435 1.396 . S
C434 C439 1.390 . S
C435 C429 1.465 . S
C435 C434 1.396 . S
C435 C436 1.399 . S
C436 H422 0.929 . S
C436 C435 1.399 . S
C436 C437 1.385 . S
C437 H423 0.931 . S
C437 C436 1.385 . S
C437 C438 1.389 . S
C438 C437 1.389 . S
C438 C439 1.387 . S
C439 H424 0.930 . S
C439 C434 1.390 . S
C439 C438 1.387 . S
H440 C452 0.930 . S
H441 C454 0.930 . S
H442 C455 0.930 . S
H443 C459 0.959 . S
H444 C459 0.959 . S
H445 C459 0.961 1_556 S
H446 C460 0.960 1_556 S
H447 C460 0.961 . S
H448 C460 0.959 . S
H449 C463 0.929 . S
H450 C464 0.931 . S
H451 C466 0.930 . S
C452 H440 0.930 . S
C452 C453 1.399 . S
C452 C457 1.399 . S
C453 C452 1.399 . S
C453 C454 1.376 . S
C454 H441 0.930 . S
C454 C453 1.376 . S
C454 C455 1.388 . S
C455 H442 0.930 . S
C455 C454 1.388 . S
C455 C456 1.390 . S
C456 C455 1.390 . S
C456 C457 1.394 . S
C456 C462 1.465 1_556 S
C457 C452 1.399 . S
C457 C456 1.394 . S
C457 C458 1.516 1_556 S
C458 C457 1.516 1_554 S
C458 C459 1.502 . S
C458 C460 1.561 . S
C458 C461 1.526 . S
C459 H443 0.959 . S
C459 H444 0.959 . S
C459 H445 0.961 1_554 S
C459 C458 1.502 . S
C460 H446 0.960 1_554 S
C460 H447 0.961 . S
C460 H448 0.959 . S
C460 C458 1.561 . S
C461 C458 1.526 . S
C461 C462 1.396 . S
C461 C466 1.390 . S
C462 C456 1.465 1_554 S
C462 C461 1.396 . S
C462 C463 1.399 . S
C463 H449 0.929 . S
C463 C462 1.399 . S
C463 C464 1.385 . S
C464 H450 0.931 . S
C464 C463 1.385 . S
C464 C465 1.389 . S
C465 C464 1.389 . S
C465 C466 1.387 . S
C466 H451 0.930 . S
C466 C461 1.390 . S
C466 C465 1.387 . S
H467 C479 0.930 . S
H468 C481 0.930 . S
H469 C482 0.930 . S
H470 C486 0.961 . S
H471 C486 0.985 . S
H472 C486 0.934 1_556 S
H473 C487 0.960 1_556 S
H474 C487 0.961 . S
H475 C487 0.959 . S
H476 C490 0.929 . S
H477 C491 0.931 . S
H478 C493 0.930 . S
C479 H467 0.930 . S
C479 C480 1.399 . S
C479 C484 1.399 . S
C480 C479 1.399 . S
C480 C481 1.376 . S
C481 H468 0.930 . S
C481 C480 1.376 . S
C481 C482 1.388 . S
C482 H469 0.930 . S
C482 C481 1.388 . S
C482 C483 1.390 . S
C483 C482 1.390 . S
C483 C484 1.394 . S
C483 C489 1.465 1_556 S
C484 C479 1.399 . S
C484 C483 1.394 . S
C484 C485 1.516 1_556 S
C485 C484 1.516 1_554 S
C485 C486 1.502 . S
C485 C487 1.561 . S
C485 C488 1.526 . S
C486 H470 0.961 . S
C486 H471 0.985 . S
C486 H472 0.934 1_554 S
C486 C485 1.502 . S
C487 H473 0.960 1_554 S
C487 H474 0.961 . S
C487 H475 0.959 . S
C487 C485 1.561 . S
C488 C485 1.526 . S
C488 C489 1.396 . S
C488 C493 1.390 . S
C489 C483 1.465 1_554 S
C489 C488 1.396 . S
C489 C490 1.399 . S
C490 H476 0.929 . S
C490 C489 1.399 . S
C490 C491 1.385 . S
C491 H477 0.931 . S
C491 C490 1.385 . S
C491 C492 1.389 . S
C492 C491 1.389 . S
C492 C493 1.387 . S
C493 H478 0.930 . S
C493 C488 1.390 . S
C493 C492 1.387 . S
H494 C506 0.930 . S
H495 C508 0.930 . S
H496 C509 0.930 . S
H497 C513 0.959 . S
H498 C513 0.959 . S
H499 C513 0.961 1_556 S
H500 C514 0.966 . S
H501 C514 0.955 1_554 S
H502 C514 0.959 1_554 S
H503 C517 0.929 . S
H504 C518 0.931 . S
H505 C520 0.930 . S
C506 H494 0.930 . S
C506 C507 1.399 . S
C506 C511 1.399 . S
C507 C506 1.399 . S
C507 C508 1.376 . S
C508 H495 0.930 . S
C508 C507 1.376 . S
C508 C509 1.388 . S
C509 H496 0.930 . S
C509 C508 1.388 . S
C509 C510 1.390 . S
C510 C509 1.390 . S
C510 C511 1.394 . S
C510 C516 1.465 1_556 S
C511 C506 1.399 . S
C511 C510 1.394 . S
C511 C512 1.516 1_556 S
C512 C511 1.516 1_554 S
C512 C513 1.502 . S
C512 C514 1.561 1_554 S
C512 C515 1.526 . S
C513 H497 0.959 . S
C513 H498 0.959 . S
C513 H499 0.961 1_554 S
C513 C512 1.502 . S
C514 H500 0.966 . S
C514 H501 0.955 1_556 S
C514 H502 0.959 1_556 S
C514 C512 1.561 1_556 S
C515 C512 1.526 . S
C515 C516 1.396 . S
C515 C520 1.390 . S
C516 C510 1.465 1_554 S
C516 C515 1.396 . S
C516 C517 1.399 . S
C517 H503 0.929 . S
C517 C516 1.399 . S
C517 C518 1.385 . S
C518 H504 0.931 . S
C518 C517 1.385 . S
C518 C519 1.389 . S
C519 C518 1.389 . S
C519 C520 1.387 . S
C520 H505 0.930 . S
C520 C515 1.390 . S
C520 C519 1.387 . S
H521 C533 0.930 . S
H522 C535 0.930 . S
H523 C536 0.930 . S
H524 C540 0.959 . S
H525 C540 0.959 . S
H526 C540 0.961 1_554 S
H527 C541 0.960 1_554 S
H528 C541 0.961 . S
H529 C541 0.959 . S
H530 C544 0.929 . S
H531 C545 0.931 . S
H532 C547 0.930 . S
C533 H521 0.930 . S
C533 C534 1.399 . S
C533 C538 1.399 . S
C534 C533 1.399 . S
C534 C535 1.376 . S
C535 H522 0.930 . S
C535 C534 1.376 . S
C535 C536 1.388 . S
C536 H523 0.930 . S
C536 C535 1.388 . S
C536 C537 1.390 . S
C537 C536 1.390 . S
C537 C538 1.394 . S
C537 C543 1.465 1_554 S
C538 C533 1.399 . S
C538 C537 1.394 . S
C538 C539 1.516 1_554 S
C539 C538 1.516 1_556 S
C539 C540 1.502 . S
C539 C541 1.561 . S
C539 C542 1.526 . S
C540 H524 0.959 . S
C540 H525 0.959 . S
C540 H526 0.961 1_556 S
C540 C539 1.502 . S
C541 H527 0.960 1_556 S
C541 H528 0.961 . S
C541 H529 0.959 . S
C541 C539 1.561 . S
C542 C539 1.526 . S
C542 C543 1.396 . S
C542 C547 1.390 . S
C543 C537 1.465 1_556 S
C543 C542 1.396 . S
C543 C544 1.399 . S
C544 H530 0.929 . S
C544 C543 1.399 . S
C544 C545 1.385 . S
C545 H531 0.931 . S
C545 C544 1.385 . S
C545 C546 1.389 . S
C546 C545 1.389 . S
C546 C547 1.387 . S
C547 H532 0.930 . S
C547 C542 1.390 . S
C547 C546 1.387 . S
H548 C560 0.930 . S
H549 C562 0.930 . S
H550 C563 0.930 . S
H551 C567 0.959 . S
H552 C567 0.959 . S
H553 C567 0.961 . S
H554 C568 0.960 . S
H555 C568 0.961 . S
H556 C568 0.959 . S
H557 C571 0.929 . S
H558 C572 0.931 . S
H559 C574 0.930 . S
C560 H548 0.930 . S
C560 C561 1.399 . S
C560 C565 1.399 . S
C561 C560 1.399 . S
C561 C562 1.376 . S
C562 H549 0.930 . S
C562 C561 1.376 . S
C562 C563 1.388 . S
C563 H550 0.930 . S
C563 C562 1.388 . S
C563 C564 1.390 . S
C564 C563 1.390 . S
C564 C565 1.394 . S
C564 C570 1.465 . S
C565 C560 1.399 . S
C565 C564 1.394 . S
C565 C566 1.516 . S
C566 C565 1.516 . S
C566 C567 1.502 . S
C566 C568 1.561 . S
C566 C569 1.526 . S
C567 H551 0.959 . S
C567 H552 0.959 . S
C567 H553 0.961 . S
C567 C566 1.502 . S
C568 H554 0.960 . S
C568 H555 0.961 . S
C568 H556 0.959 . S
C568 C566 1.561 . S
C569 C566 1.526 . S
C569 C570 1.396 . S
C569 C574 1.390 . S
C570 C564 1.465 . S
C570 C569 1.396 . S
C570 C571 1.399 . S
C571 H557 0.929 . S
C571 C570 1.399 . S
C571 C572 1.385 . S
C572 H558 0.931 . S
C572 C571 1.385 . S
C572 C573 1.389 . S
C573 C572 1.389 . S
C573 C574 1.387 . S
C574 H559 0.930 . S
C574 C569 1.390 . S
C574 C573 1.387 . S
H575 C587 0.930 . S
H576 C589 0.930 . S
H577 C590 0.930 . S
H578 C594 0.959 . S
H579 C594 0.959 . S
H580 C594 0.961 . S
H581 C595 0.960 . S
H582 C595 0.961 . S
H583 C595 0.959 . S
H584 C598 0.929 . S
H585 C599 0.931 . S
H586 C601 0.930 . S
C587 H575 0.930 . S
C587 C588 1.399 . S
C587 C592 1.399 . S
C588 C587 1.399 . S
C588 C589 1.376 . S
C589 H576 0.930 . S
C589 C588 1.376 . S
C589 C590 1.388 . S
C590 H577 0.930 . S
C590 C589 1.388 . S
C590 C591 1.390 . S
C591 C590 1.390 . S
C591 C592 1.394 . S
C591 C597 1.465 . S
C592 C587 1.399 . S
C592 C591 1.394 . S
C592 C593 1.516 . S
C593 C592 1.516 . S
C593 C594 1.502 . S
C593 C595 1.561 . S
C593 C596 1.526 . S
C594 H578 0.959 . S
C594 H579 0.959 . S
C594 H580 0.961 . S
C594 C593 1.502 . S
C595 H581 0.960 . S
C595 H582 0.961 . S
C595 H583 0.959 . S
C595 C593 1.561 . S
C596 C593 1.526 . S
C596 C597 1.396 . S
C596 C601 1.390 . S
C597 C591 1.465 . S
C597 C596 1.396 . S
C597 C598 1.399 . S
C598 H584 0.929 . S
C598 C597 1.399 . S
C598 C599 1.385 . S
C599 H585 0.931 . S
C599 C598 1.385 . S
C599 C600 1.389 . S
C600 C599 1.389 . S
C600 C601 1.387 . S
C601 H586 0.930 . S
C601 C596 1.390 . S
C601 C600 1.387 . S
H602 C614 0.930 . S
H603 C616 0.930 . S
H604 C617 0.930 . S
H605 C621 0.959 . S
H606 C621 0.959 . S
H607 C621 0.961 . S
H608 C622 0.960 . S
H609 C622 0.961 . S
H610 C622 0.959 . S
H611 C625 0.929 . S
H612 C626 0.931 . S
H613 C628 0.930 . S
C614 H602 0.930 . S
C614 C615 1.399 . S
C614 C619 1.399 . S
C615 C614 1.399 . S
C615 C616 1.376 . S
C616 H603 0.930 . S
C616 C615 1.376 . S
C616 C617 1.388 . S
C617 H604 0.930 . S
C617 C616 1.388 . S
C617 C618 1.390 . S
C618 C617 1.390 . S
C618 C619 1.394 . S
C618 C624 1.465 . S
C619 C614 1.399 . S
C619 C618 1.394 . S
C619 C620 1.516 . S
C620 C619 1.516 . S
C620 C621 1.502 . S
C620 C622 1.561 . S
C620 C623 1.526 . S
C621 H605 0.959 . S
C621 H606 0.959 . S
C621 H607 0.961 . S
C621 C620 1.502 . S
C622 H608 0.960 . S
C622 H609 0.961 . S
C622 H610 0.959 . S
C622 C620 1.561 . S
C623 C620 1.526 . S
C623 C624 1.396 . S
C623 C628 1.390 . S
C624 C618 1.465 . S
C624 C623 1.396 . S
C624 C625 1.399 . S
C625 H611 0.929 . S
C625 C624 1.399 . S
C625 C626 1.385 . S
C626 H612 0.931 . S
C626 C625 1.385 . S
C626 C627 1.389 . S
C627 C626 1.389 . S
C627 C628 1.387 . S
C628 H613 0.930 . S
C628 C623 1.390 . S
C628 C627 1.387 . S
H629 C641 0.930 . S
H630 C643 0.930 . S
H631 C644 0.930 . S
H632 C648 0.959 . S
H633 C648 0.959 . S
H634 C648 0.961 . S
H635 C649 0.960 . S
H636 C649 0.961 . S
H637 C649 0.959 . S
H638 C652 0.929 . S
H639 C653 0.931 . S
H640 C655 0.930 . S
C641 H629 0.930 . S
C641 C642 1.399 . S
C641 C646 1.399 . S
C642 C641 1.399 . S
C642 C643 1.376 . S
C643 H630 0.930 . S
C643 C642 1.376 . S
C643 C644 1.388 . S
C644 H631 0.930 . S
C644 C643 1.388 . S
C644 C645 1.390 . S
C645 C644 1.390 . S
C645 C646 1.394 . S
C645 C651 1.465 . S
C646 C641 1.399 . S
C646 C645 1.394 . S
C646 C647 1.516 . S
C647 C646 1.516 . S
C647 C648 1.502 . S
C647 C649 1.561 . S
C647 C650 1.526 . S
C648 H632 0.959 . S
C648 H633 0.959 . S
C648 H634 0.961 . S
C648 C647 1.502 . S
C649 H635 0.960 . S
C649 H636 0.961 . S
C649 H637 0.959 . S
C649 C647 1.561 . S
C650 C647 1.526 . S
C650 C651 1.396 . S
C650 C655 1.390 . S
C651 C645 1.465 . S
C651 C650 1.396 . S
C651 C652 1.399 . S
C652 H638 0.929 . S
C652 C651 1.399 . S
C652 C653 1.385 . S
C653 H639 0.931 . S
C653 C652 1.385 . S
C653 C654 1.389 . S
C654 C653 1.389 . S
C654 C655 1.387 . S
C655 H640 0.930 . S
C655 C650 1.390 . S
C655 C654 1.387 . S
H656 C668 0.930 . S
H657 C670 0.930 . S
H658 C671 0.930 . S
H659 C675 0.959 . S
H660 C675 0.959 . S
H661 C675 0.961 . S
H662 C676 0.960 . S
H663 C676 0.961 . S
H664 C676 0.959 . S
H665 C679 0.929 . S
H666 C680 0.931 . S
H667 C682 0.930 . S
C668 H656 0.930 . S
C668 C669 1.399 . S
C668 C673 1.399 . S
C669 C668 1.399 . S
C669 C670 1.376 . S
C670 H657 0.930 . S
C670 C669 1.376 . S
C670 C671 1.388 . S
C671 H658 0.930 . S
C671 C670 1.388 . S
C671 C672 1.390 . S
C672 C671 1.390 . S
C672 C673 1.394 . S
C672 C678 1.465 . S
C673 C668 1.399 . S
C673 C672 1.394 . S
C673 C674 1.516 . S
C674 C673 1.516 . S
C674 C675 1.502 . S
C674 C676 1.561 . S
C674 C677 1.526 . S
C675 H659 0.959 . S
C675 H660 0.959 . S
C675 H661 0.961 . S
C675 C674 1.502 . S
C676 H662 0.960 . S
C676 H663 0.961 . S
C676 H664 0.959 . S
C676 C674 1.561 . S
C677 C674 1.526 . S
C677 C678 1.396 . S
C677 C682 1.390 . S
C678 C672 1.465 . S
C678 C677 1.396 . S
C678 C679 1.399 . S
C679 H665 0.929 . S
C679 C678 1.399 . S
C679 C680 1.385 . S
C680 H666 0.931 . S
C680 C679 1.385 . S
C680 C681 1.389 . S
C681 C680 1.389 . S
C681 C682 1.387 . S
C682 H667 0.930 . S
C682 C677 1.390 . S
C682 C681 1.387 . S
H683 C695 0.930 . S
H684 C697 0.930 . S
H685 C698 0.930 . S
H686 C702 0.959 . S
H687 C702 0.959 . S
H688 C702 0.961 . S
H689 C703 0.960 . S
H690 C703 0.961 . S
H691 C703 0.959 . S
H692 C706 0.929 . S
H693 C707 0.931 . S
H694 C709 0.930 . S
C695 H683 0.930 . S
C695 C696 1.399 . S
C695 C700 1.399 . S
C696 C695 1.399 . S
C696 C697 1.376 . S
C697 H684 0.930 . S
C697 C696 1.376 . S
C697 C698 1.388 . S
C698 H685 0.930 . S
C698 C697 1.388 . S
C698 C699 1.390 . S
C699 C698 1.390 . S
C699 C700 1.394 . S
C699 C705 1.465 . S
C700 C695 1.399 . S
C700 C699 1.394 . S
C700 C701 1.516 . S
C701 C700 1.516 . S
C701 C702 1.502 . S
C701 C703 1.561 . S
C701 C704 1.526 . S
C702 H686 0.959 . S
C702 H687 0.959 . S
C702 H688 0.961 . S
C702 C701 1.502 . S
C703 H689 0.960 . S
C703 H690 0.961 . S
C703 H691 0.959 . S
C703 C701 1.561 . S
C704 C701 1.526 . S
C704 C705 1.396 . S
C704 C709 1.390 . S
C705 C699 1.465 . S
C705 C704 1.396 . S
C705 C706 1.399 . S
C706 H692 0.929 . S
C706 C705 1.399 . S
C706 C707 1.385 . S
C707 H693 0.931 . S
C707 C706 1.385 . S
C707 C708 1.389 . S
C708 C707 1.389 . S
C708 C709 1.387 . S
C709 H694 0.930 . S
C709 C704 1.390 . S
C709 C708 1.387 . S
H710 C722 0.930 . S
H711 C724 0.930 . S
H712 C725 0.930 . S
H713 C729 0.959 . S
H714 C729 0.959 . S
H715 C729 0.961 . S
H716 C730 0.960 . S
H717 C730 0.961 . S
H718 C730 0.959 . S
H719 C733 0.929 . S
H720 C734 0.931 . S
H721 C736 0.930 . S
C722 H710 0.930 . S
C722 C723 1.399 . S
C722 C727 1.399 . S
C723 C722 1.399 . S
C723 C724 1.376 . S
C724 H711 0.930 . S
C724 C723 1.376 . S
C724 C725 1.388 . S
C725 H712 0.930 . S
C725 C724 1.388 . S
C725 C726 1.390 . S
C726 C725 1.390 . S
C726 C727 1.394 . S
C726 C732 1.465 . S
C727 C722 1.399 . S
C727 C726 1.394 . S
C727 C728 1.516 . S
C728 C727 1.516 . S
C728 C729 1.502 . S
C728 C730 1.561 . S
C728 C731 1.526 . S
C729 H713 0.959 . S
C729 H714 0.959 . S
C729 H715 0.961 . S
C729 C728 1.502 . S
C730 H716 0.960 . S
C730 H717 0.961 . S
C730 H718 0.959 . S
C730 C728 1.561 . S
C731 C728 1.526 . S
C731 C732 1.396 . S
C731 C736 1.390 . S
C732 C726 1.465 . S
C732 C731 1.396 . S
C732 C733 1.399 . S
C733 H719 0.929 . S
C733 C732 1.399 . S
C733 C734 1.385 . S
C734 H720 0.931 . S
C734 C733 1.385 . S
C734 C735 1.389 . S
C735 C734 1.389 . S
C735 C736 1.387 . S
C736 H721 0.930 . S
C736 C731 1.390 . S
C736 C735 1.387 . S
H737 C749 0.930 . S
H738 C751 0.930 . S
H739 C752 0.930 . S
H740 C756 0.959 . S
H741 C756 0.959 . S
H742 C756 0.961 . S
H743 C757 0.960 . S
H744 C757 0.961 . S
H745 C757 0.959 . S
H746 C760 0.929 . S
H747 C761 0.931 . S
H748 C763 0.930 . S
C749 H737 0.930 . S
C749 C750 1.399 . S
C749 C754 1.399 . S
C750 C749 1.399 . S
C750 C751 1.376 . S
C751 H738 0.930 . S
C751 C750 1.376 . S
C751 C752 1.388 . S
C752 H739 0.930 . S
C752 C751 1.388 . S
C752 C753 1.390 . S
C753 C752 1.390 . S
C753 C754 1.394 . S
C753 C759 1.465 . S
C754 C749 1.399 . S
C754 C753 1.394 . S
C754 C755 1.516 . S
C755 C754 1.516 . S
C755 C756 1.502 . S
C755 C757 1.561 . S
C755 C758 1.526 . S
C756 H740 0.959 . S
C756 H741 0.959 . S
C756 H742 0.961 . S
C756 C755 1.502 . S
C757 H743 0.960 . S
C757 H744 0.961 . S
C757 H745 0.959 . S
C757 C755 1.561 . S
C758 C755 1.526 . S
C758 C759 1.396 . S
C758 C763 1.390 . S
C759 C753 1.465 . S
C759 C758 1.396 . S
C759 C760 1.399 . S
C760 H746 0.929 . S
C760 C759 1.399 . S
C760 C761 1.385 . S
C761 H747 0.931 . S
C761 C760 1.385 . S
C761 C762 1.389 . S
C762 C761 1.389 . S
C762 C763 1.387 . S
C763 H748 0.930 . S
C763 C758 1.390 . S
C763 C762 1.387 . S
H764 C776 0.930 . S
H765 C778 0.930 . S
H766 C779 0.930 . S
H767 C783 0.959 . S
H768 C783 0.959 . S
H769 C783 0.961 . S
H770 C784 0.960 . S
H771 C784 0.961 . S
H772 C784 0.959 . S
H773 C787 0.929 . S
H774 C788 0.931 . S
H775 C790 0.930 . S
C776 H764 0.930 . S
C776 C777 1.399 . S
C776 C781 1.399 . S
C777 C776 1.399 . S
C777 C778 1.376 . S
C778 H765 0.930 . S
C778 C777 1.376 . S
C778 C779 1.388 . S
C779 H766 0.930 . S
C779 C778 1.388 . S
C779 C780 1.390 . S
C780 C779 1.390 . S
C780 C781 1.394 . S
C780 C786 1.465 . S
C781 C776 1.399 . S
C781 C780 1.394 . S
C781 C782 1.516 . S
C782 C781 1.516 . S
C782 C783 1.502 . S
C782 C784 1.561 . S
C782 C785 1.526 . S
C783 H767 0.959 . S
C783 H768 0.959 . S
C783 H769 0.961 . S
C783 C782 1.502 . S
C784 H770 0.960 . S
C784 H771 0.961 . S
C784 H772 0.959 . S
C784 C782 1.561 . S
C785 C782 1.526 . S
C785 C786 1.396 . S
C785 C790 1.390 . S
C786 C780 1.465 . S
C786 C785 1.396 . S
C786 C787 1.399 . S
C787 H773 0.929 . S
C787 C786 1.399 . S
C787 C788 1.385 . S
C788 H774 0.931 . S
C788 C787 1.385 . S
C788 C789 1.389 . S
C789 C788 1.389 . S
C789 C790 1.387 . S
C790 H775 0.930 . S
C790 C785 1.390 . S
C790 C789 1.387 . S
H791 C803 0.930 . S
H792 C805 0.930 . S
H793 C806 0.930 . S
H794 C810 0.959 . S
H795 C810 0.959 . S
H796 C810 0.961 . S
H797 C811 0.960 . S
H798 C811 0.961 . S
H799 C811 0.959 . S
H800 C814 0.929 . S
H801 C815 0.931 . S
H802 C817 0.930 . S
C803 H791 0.930 . S
C803 C804 1.399 . S
C803 C808 1.399 . S
C804 C803 1.399 . S
C804 C805 1.376 . S
C805 H792 0.930 . S
C805 C804 1.376 . S
C805 C806 1.388 . S
C806 H793 0.930 . S
C806 C805 1.388 . S
C806 C807 1.390 . S
C807 C806 1.390 . S
C807 C808 1.394 . S
C807 C813 1.465 . S
C808 C803 1.399 . S
C808 C807 1.394 . S
C808 C809 1.516 . S
C809 C808 1.516 . S
C809 C810 1.502 . S
C809 C811 1.561 . S
C809 C812 1.526 . S
C810 H794 0.959 . S
C810 H795 0.959 . S
C810 H796 0.961 . S
C810 C809 1.502 . S
C811 H797 0.960 . S
C811 H798 0.961 . S
C811 H799 0.959 . S
C811 C809 1.561 . S
C812 C809 1.526 . S
C812 C813 1.396 . S
C812 C817 1.390 . S
C813 C807 1.465 . S
C813 C812 1.396 . S
C813 C814 1.399 . S
C814 H800 0.929 . S
C814 C813 1.399 . S
C814 C815 1.385 . S
C815 H801 0.931 . S
C815 C814 1.385 . S
C815 C816 1.389 . S
C816 C815 1.389 . S
C816 C817 1.387 . S
C817 H802 0.930 . S
C817 C812 1.390 . S
C817 C816 1.387 . S
H818 C830 0.930 . S
H819 C832 0.930 . S
H820 C833 0.930 . S
H821 C837 0.959 . S
H822 C837 0.959 . S
H823 C837 0.961 . S
H824 C838 0.960 . S
H825 C838 0.961 . S
H826 C838 0.959 . S
H827 C841 0.929 . S
H828 C842 0.931 . S
H829 C844 0.930 . S
C830 H818 0.930 . S
C830 C831 1.399 . S
C830 C835 1.399 . S
C831 C830 1.399 . S
C831 C832 1.376 . S
C832 H819 0.930 . S
C832 C831 1.376 . S
C832 C833 1.388 . S
C833 H820 0.930 . S
C833 C832 1.388 . S
C833 C834 1.390 . S
C834 C833 1.390 . S
C834 C835 1.394 . S
C834 C840 1.465 . S
C835 C830 1.399 . S
C835 C834 1.394 . S
C835 C836 1.516 . S
C836 C835 1.516 . S
C836 C837 1.502 . S
C836 C838 1.561 . S
C836 C839 1.526 . S
C837 H821 0.959 . S
C837 H822 0.959 . S
C837 H823 0.961 . S
C837 C836 1.502 . S
C838 H824 0.960 . S
C838 H825 0.961 . S
C838 H826 0.959 . S
C838 C836 1.561 . S
C839 C836 1.526 . S
C839 C840 1.396 . S
C839 C844 1.390 . S
C840 C834 1.465 . S
C840 C839 1.396 . S
C840 C841 1.399 . S
C841 H827 0.929 . S
C841 C840 1.399 . S
C841 C842 1.385 . S
C842 H828 0.931 . S
C842 C841 1.385 . S
C842 C843 1.389 . S
C843 C842 1.389 . S
C843 C844 1.387 . S
C844 H829 0.930 . S
C844 C839 1.390 . S
C844 C843 1.387 . S
H845 C857 0.930 . S
H846 C859 0.930 . S
H847 C860 0.930 . S
H848 C864 0.959 . S
H849 C864 0.959 . S
H850 C864 0.961 . S
H851 C865 0.960 . S
H852 C865 0.961 . S
H853 C865 0.959 . S
H854 C868 0.929 . S
H855 C869 0.931 . S
H856 C871 0.930 . S
C857 H845 0.930 . S
C857 C858 1.399 . S
C857 C862 1.399 . S
C858 C857 1.399 . S
C858 C859 1.376 . S
C859 H846 0.930 . S
C859 C858 1.376 . S
C859 C860 1.388 . S
C860 H847 0.930 . S
C860 C859 1.388 . S
C860 C861 1.390 . S
C861 C860 1.390 . S
C861 C862 1.394 . S
C861 C867 1.465 . S
C862 C857 1.399 . S
C862 C861 1.394 . S
C862 C863 1.516 . S
C863 C862 1.516 . S
C863 C864 1.502 . S
C863 C865 1.561 . S
C863 C866 1.526 . S
C864 H848 0.959 . S
C864 H849 0.959 . S
C864 H850 0.961 . S
C864 C863 1.502 . S
C865 H851 0.960 . S
C865 H852 0.961 . S
C865 H853 0.959 . S
C865 C863 1.561 . S
C866 C863 1.526 . S
C866 C867 1.396 . S
C866 C871 1.390 . S
C867 C861 1.465 . S
C867 C866 1.396 . S
C867 C868 1.399 . S
C868 H854 0.929 . S
C868 C867 1.399 . S
C868 C869 1.385 . S
C869 H855 0.931 . S
C869 C868 1.385 . S
C869 C870 1.389 . S
C870 C869 1.389 . S
C870 C871 1.387 . S
C871 H856 0.930 . S
C871 C866 1.390 . S
C871 C870 1.387 . S
H872 C884 0.930 . S
H873 C886 0.930 . S
H874 C887 0.930 . S
H875 C891 0.959 . S
H876 C891 0.959 . S
H877 C891 0.961 1_545 S
H878 C892 0.960 . S
H879 C892 0.961 1_565 S
H880 C892 0.959 . S
H881 C895 0.929 . S
H882 C896 0.931 . S
H883 C898 0.930 . S
C884 H872 0.930 . S
C884 C885 1.399 . S
C884 C889 1.399 . S
C885 C884 1.399 . S
C885 C886 1.376 . S
C886 H873 0.930 . S
C886 C885 1.376 . S
C886 C887 1.388 . S
C887 H874 0.930 . S
C887 C886 1.388 . S
C887 C888 1.390 . S
C888 C887 1.390 . S
C888 C889 1.394 . S
C888 C894 1.465 1_545 S
C889 C884 1.399 . S
C889 C888 1.394 . S
C889 C890 1.516 1_545 S
C890 C889 1.516 1_565 S
C890 C891 1.502 . S
C890 C892 1.561 1_565 S
C890 C893 1.526 . S
C891 H875 0.959 . S
C891 H876 0.959 . S
C891 H877 0.961 1_565 S
C891 C890 1.502 . S
C892 H878 0.960 . S
C892 H879 0.961 1_545 S
C892 H880 0.959 . S
C892 C890 1.561 1_545 S
C893 C890 1.526 . S
C893 C894 1.396 . S
C893 C898 1.390 . S
C894 C888 1.465 1_565 S
C894 C893 1.396 . S
C894 C895 1.399 . S
C895 H881 0.929 . S
C895 C894 1.399 . S
C895 C896 1.385 . S
C896 H882 0.931 . S
C896 C895 1.385 . S
C896 C897 1.389 . S
C897 C896 1.389 . S
C897 C898 1.387 . S
C898 H883 0.930 . S
C898 C893 1.390 . S
C898 C897 1.387 . S
H899 C911 0.930 . S
H900 C913 0.930 . S
H901 C914 0.930 . S
H902 C918 0.959 . S
H903 C918 0.959 . S
H904 C918 0.961 . S
H905 C919 0.960 1_655 S
H906 C919 0.961 . S
H907 C919 0.959 1_655 S
H908 C922 0.929 . S
H909 C923 0.931 . S
H910 C925 0.930 . S
C911 H899 0.930 . S
C911 C912 1.399 . S
C911 C916 1.399 . S
C912 C911 1.399 . S
C912 C913 1.376 . S
C913 H900 0.930 . S
C913 C912 1.376 . S
C913 C914 1.388 . S
C914 H901 0.930 . S
C914 C913 1.388 . S
C914 C915 1.390 . S
C915 C914 1.390 . S
C915 C916 1.394 . S
C915 C921 1.465 1_655 S
C916 C911 1.399 . S
C916 C915 1.394 . S
C916 C917 1.516 1_655 S
C917 C916 1.516 1_455 S
C917 C918 1.502 . S
C917 C919 1.561 . S
C917 C920 1.526 . S
C918 H902 0.959 . S
C918 H903 0.959 . S
C918 H904 0.961 . S
C918 C917 1.502 . S
C919 H905 0.960 1_455 S
C919 H906 0.961 . S
C919 H907 0.959 1_455 S
C919 C917 1.561 . S
C920 C917 1.526 . S
C920 C921 1.396 . S
C920 C925 1.390 . S
C921 C915 1.465 1_455 S
C921 C920 1.396 . S
C921 C922 1.399 . S
C922 H908 0.929 . S
C922 C921 1.399 . S
C922 C923 1.385 . S
C923 H909 0.931 . S
C923 C922 1.385 . S
C923 C924 1.389 . S
C924 C923 1.389 . S
C924 C925 1.387 . S
C925 H910 0.930 . S
C925 C920 1.390 . S
C925 C924 1.387 . S
H926 C938 0.930 . S
H927 C940 0.930 . S
H928 C941 0.930 . S
H929 C945 0.959 . S
H930 C945 0.959 . S
H931 C945 0.961 . S
H932 C946 0.960 . S
H933 C946 0.961 . S
H934 C946 0.959 . S
H935 C949 0.929 . S
H936 C950 0.931 . S
H937 C952 0.930 . S
C938 H926 0.930 . S
C938 C939 1.399 . S
C938 C943 1.399 . S
C939 C938 1.399 . S
C939 C940 1.376 . S
C940 H927 0.930 . S
C940 C939 1.376 . S
C940 C941 1.388 . S
C941 H928 0.930 . S
C941 C940 1.388 . S
C941 C942 1.390 . S
C942 C941 1.390 . S
C942 C943 1.394 . S
C942 C948 1.465 1_545 S
C943 C938 1.399 . S
C943 C942 1.394 . S
C943 C944 1.516 1_545 S
C944 C943 1.516 1_565 S
C944 C945 1.502 . S
C944 C946 1.561 . S
C944 C947 1.526 . S
C945 H929 0.959 . S
C945 H930 0.959 . S
C945 H931 0.961 . S
C945 C944 1.502 . S
C946 H932 0.960 . S
C946 H933 0.961 . S
C946 H934 0.959 . S
C946 C944 1.561 . S
C947 C944 1.526 . S
C947 C948 1.396 . S
C947 C952 1.390 . S
C948 C942 1.465 1_565 S
C948 C947 1.396 . S
C948 C949 1.399 . S
C949 H935 0.929 . S
C949 C948 1.399 . S
C949 C950 1.385 . S
C950 H936 0.931 . S
C950 C949 1.385 . S
C950 C951 1.389 . S
C951 C950 1.389 . S
C951 C952 1.387 . S
C952 H937 0.930 . S
C952 C947 1.390 . S
C952 C951 1.387 . S
H953 C965 0.930 . S
H954 C967 0.930 . S
H955 C968 0.930 . S
H956 C972 0.959 . S
H957 C972 0.959 . S
H958 C972 0.961 . S
H959 C973 0.960 1_455 S
H960 C973 0.961 . S
H961 C973 0.959 . S
H962 C976 0.929 . S
H963 C977 0.931 . S
H964 C979 0.930 . S
C965 H953 0.930 . S
C965 C966 1.399 . S
C965 C970 1.399 . S
C966 C965 1.399 . S
C966 C967 1.376 . S
C967 H954 0.930 . S
C967 C966 1.376 . S
C967 C968 1.388 . S
C968 H955 0.930 . S
C968 C967 1.388 . S
C968 C969 1.390 . S
C969 C968 1.390 . S
C969 C970 1.394 . S
C969 C975 1.465 1_455 S
C970 C965 1.399 . S
C970 C969 1.394 . S
C970 C971 1.516 . S
C971 C970 1.516 . S
C971 C972 1.502 . S
C971 C973 1.561 1_455 S
C971 C974 1.526 1_455 S
C972 H956 0.959 . S
C972 H957 0.959 . S
C972 H958 0.961 . S
C972 C971 1.502 . S
C973 H959 0.960 1_655 S
C973 H960 0.961 . S
C973 H961 0.959 . S
C973 C971 1.561 1_655 S
C974 C971 1.526 1_655 S
C974 C975 1.396 . S
C974 C979 1.390 . S
C975 C969 1.465 1_655 S
C975 C974 1.396 . S
C975 C976 1.399 . S
C976 H962 0.929 . S
C976 C975 1.399 . S
C976 C977 1.385 . S
C977 H963 0.931 . S
C977 C976 1.385 . S
C977 C978 1.389 . S
C978 C977 1.389 . S
C978 C979 1.387 . S
C979 H964 0.930 . S
C979 C974 1.390 . S
C979 C978 1.387 . S
H980 C992 0.930 . S
H981 C994 0.930 . S
H982 C995 0.930 . S
H983 C999 0.959 . S
H984 C999 0.959 . S
H985 C999 0.961 1_545 S
H986 C1000 0.974 . S
H987 C1000 0.961 . S
H988 C1000 0.959 . S
H989 C1003 0.929 . S
H990 C1004 0.931 . S
H991 C1006 0.930 . S
C992 H980 0.930 . S
C992 C993 1.399 . S
C992 C997 1.399 . S
C993 C992 1.399 . S
C993 C994 1.376 . S
C994 H981 0.930 . S
C994 C993 1.376 . S
C994 C995 1.388 . S
C995 H982 0.930 . S
C995 C994 1.388 . S
C995 C996 1.390 . S
C996 C995 1.390 . S
C996 C997 1.394 . S
C996 C1002 1.465 1_545 S
C997 C992 1.399 . S
C997 C996 1.394 . S
C997 C998 1.516 1_545 S
C998 C997 1.516 1_565 S
C998 C999 1.502 . S
C998 C1000 1.561 . S
C998 C1001 1.526 . S
C999 H983 0.959 . S
C999 H984 0.959 . S
C999 H985 0.961 1_565 S
C999 C998 1.502 . S
C1000 H986 0.974 . S
C1000 H987 0.961 . S
C1000 H988 0.959 . S
C1000 C998 1.561 . S
C1001 C998 1.526 . S
C1001 C1002 1.396 . S
C1001 C1006 1.390 . S
C1002 C996 1.465 1_565 S
C1002 C1001 1.396 . S
C1002 C1003 1.399 . S
C1003 H989 0.929 . S
C1003 C1002 1.399 . S
C1003 C1004 1.385 . S
C1004 H990 0.931 . S
C1004 C1003 1.385 . S
C1004 C1005 1.389 . S
C1005 C1004 1.389 . S
C1005 C1006 1.387 . S
C1006 H991 0.930 . S
C1006 C1001 1.390 . S
C1006 C1005 1.387 . S
H1007 C1019 0.930 . S
H1008 C1021 0.930 . S
H1009 C1022 0.930 . S
H1010 C1026 0.959 . S
H1011 C1026 0.959 1_455 S
H1012 C1026 0.961 . S
H1013 C1027 0.960 1_655 S
H1014 C1027 0.961 . S
H1015 C1027 0.959 . S
H1016 C1030 0.929 . S
H1017 C1031 0.931 . S
H1018 C1033 0.930 . S
C1019 H1007 0.930 . S
C1019 C1020 1.399 . S
C1019 C1024 1.399 . S
C1020 C1019 1.399 . S
C1020 C1021 1.376 . S
C1021 H1008 0.930 . S
C1021 C1020 1.376 . S
C1021 C1022 1.388 . S
C1022 H1009 0.930 . S
C1022 C1021 1.388 . S
C1022 C1023 1.390 . S
C1023 C1022 1.390 . S
C1023 C1024 1.394 . S
C1023 C1029 1.465 1_655 S
C1024 C1019 1.399 . S
C1024 C1023 1.394 . S
C1024 C1025 1.516 . S
C1025 C1024 1.516 . S
C1025 C1026 1.502 . S
C1025 C1027 1.561 1_655 S
C1025 C1028 1.526 1_655 S
C1026 H1010 0.959 . S
C1026 H1011 0.959 1_655 S
C1026 H1012 0.961 . S
C1026 C1025 1.502 . S
C1027 H1013 0.960 1_455 S
C1027 H1014 0.961 . S
C1027 H1015 0.959 . S
C1027 C1025 1.561 1_455 S
C1028 C1025 1.526 1_455 S
C1028 C1029 1.396 . S
C1028 C1033 1.390 . S
C1029 C1023 1.465 1_455 S
C1029 C1028 1.396 . S
C1029 C1030 1.399 . S
C1030 H1016 0.929 . S
C1030 C1029 1.399 . S
C1030 C1031 1.385 . S
C1031 H1017 0.931 . S
C1031 C1030 1.385 . S
C1031 C1032 1.389 . S
C1032 C1031 1.389 . S
C1032 C1033 1.387 . S
C1033 H1018 0.930 . S
C1033 C1028 1.390 . S
C1033 C1032 1.387 . S
H1034 C1046 0.930 . S
H1035 C1048 0.930 . S
H1036 C1049 0.930 . S
H1037 C1053 0.959 . S
H1038 C1053 0.946 1_545 S
H1039 C1053 0.961 . S
H1040 C1054 0.960 . S
H1041 C1054 0.961 . S
H1042 C1054 0.959 . S
H1043 C1057 0.929 . S
H1044 C1058 0.931 . S
H1045 C1060 0.930 . S
C1046 H1034 0.930 . S
C1046 C1047 1.399 . S
C1046 C1051 1.399 . S
C1047 C1046 1.399 . S
C1047 C1048 1.376 . S
C1048 H1035 0.930 . S
C1048 C1047 1.376 . S
C1048 C1049 1.388 . S
C1049 H1036 0.930 . S
C1049 C1048 1.388 . S
C1049 C1050 1.390 . S
C1050 C1049 1.390 . S
C1050 C1051 1.394 . S
C1050 C1056 1.465 1_565 S
C1051 C1046 1.399 . S
C1051 C1050 1.394 . S
C1051 C1052 1.516 . S
C1052 C1051 1.516 . S
C1052 C1053 1.502 . S
C1052 C1054 1.561 . S
C1052 C1055 1.526 1_565 S
C1053 H1037 0.959 . S
C1053 H1038 0.946 1_565 S
C1053 H1039 0.961 . S
C1053 C1052 1.502 . S
C1054 H1040 0.960 . S
C1054 H1041 0.961 . S
C1054 H1042 0.959 . S
C1054 C1052 1.561 . S
C1055 C1052 1.526 1_545 S
C1055 C1056 1.396 . S
C1055 C1060 1.390 . S
C1056 C1050 1.465 1_545 S
C1056 C1055 1.396 . S
C1056 C1057 1.399 . S
C1057 H1043 0.929 . S
C1057 C1056 1.399 . S
C1057 C1058 1.385 . S
C1058 H1044 0.931 . S
C1058 C1057 1.385 . S
C1058 C1059 1.389 . S
C1059 C1058 1.389 . S
C1059 C1060 1.387 . S
C1060 H1045 0.930 . S
C1060 C1055 1.390 . S
C1060 C1059 1.387 . S
H1061 C1073 0.930 . S
H1062 C1075 0.930 . S
H1063 C1076 0.930 . S
H1064 C1080 0.959 . S
H1065 C1080 0.959 . S
H1066 C1080 0.961 1_455 S
H1067 C1081 0.938 1_455 S
H1068 C1081 0.985 . S
H1069 C1081 0.954 1_455 S
H1070 C1084 0.929 . S
H1071 C1085 0.931 . S
H1072 C1087 0.930 . S
C1073 H1061 0.930 . S
C1073 C1074 1.399 . S
C1073 C1078 1.399 . S
C1074 C1073 1.399 . S
C1074 C1075 1.376 . S
C1075 H1062 0.930 . S
C1075 C1074 1.376 . S
C1075 C1076 1.388 . S
C1076 H1063 0.930 . S
C1076 C1075 1.388 . S
C1076 C1077 1.390 . S
C1077 C1076 1.390 . S
C1077 C1078 1.394 . S
C1077 C1083 1.465 1_455 S
C1078 C1073 1.399 . S
C1078 C1077 1.394 . S
C1078 C1079 1.516 1_455 S
C1079 C1078 1.516 1_655 S
C1079 C1080 1.502 . S
C1079 C1081 1.565 . S
C1079 C1082 1.526 . S
C1080 H1064 0.959 . S
C1080 H1065 0.959 . S
C1080 H1066 0.961 1_655 S
C1080 C1079 1.502 . S
C1081 H1067 0.938 1_655 S
C1081 H1068 0.985 . S
C1081 H1069 0.954 1_655 S
C1081 C1079 1.565 . S
C1082 C1079 1.526 . S
C1082 C1083 1.396 . S
C1082 C1087 1.390 . S
C1083 C1077 1.465 1_655 S
C1083 C1082 1.396 . S
C1083 C1084 1.399 . S
C1084 H1070 0.929 . S
C1084 C1083 1.399 . S
C1084 C1085 1.385 . S
C1085 H1071 0.931 . S
C1085 C1084 1.385 . S
C1085 C1086 1.389 . S
C1086 C1085 1.389 . S
C1086 C1087 1.387 . S
C1087 H1072 0.930 . S
C1087 C1082 1.390 . S
C1087 C1086 1.387 . S
C237 C81 1.419 . S
C249 C11 1.405 . S
C264 C95 1.383 . S
C276 C25 1.382 . S
C291 C39 1.416 . S
C303 C109 1.399 . S
C318 C53 1.406 . S
C330 C67 1.388 . S
C345 C193 1.389 . S
C357 C123 1.408 . S
C372 C207 1.418 . S
C384 C137 1.403 . S
C399 C151 1.384 . S
C411 C221 1.402 . S
C426 C165 1.401 . S
C438 C179 1.417 . S
C453 C149 1.537 . S
C465 C9 1.530 . S
C480 C163 1.535 . S
C492 C23 1.535 . S
C507 C121 1.535 . S
C519 C37 1.531 . S
C534 C51 1.537 . S
C546 C135 1.530 . S
C561 C205 1.537 . S
C573 C65 1.530 . S
C588 C219 1.532 . S
C600 C79 1.533 . S
C615 C93 1.536 . S
C627 C177 1.535 . S
C642 C191 1.535 . S
C654 C107 1.531 . S
C669 C61 1.912 . S
C681 C5 1.923 . S
C696 C19 1.916 . S
C708 C75 1.928 . S
C723 C33 1.911 . S
C735 C89 1.926 . S
C750 C103 1.917 . S
C762 C47 1.916 . S
C777 C112 0.973 . S
C789 C168 0.907 . S
C804 C182 0.933 . S
C816 C126 0.967 . S
C831 C140 0.867 . S
C843 C196 0.918 . S
C858 C210 0.867 . S
C870 C154 0.919 . S
C885 C159 1.918 . S
C897 C187 1.927 . S
C912 C117 1.915 . S
C924 C201 1.928 . S
C939 C215 1.911 . S
C951 C131 1.926 . S
C966 C145 1.923 . S
C978 C173 1.912 . S
C993 C70 0.968 . S
C1005 C42 0.933 . S
C1020 C84 0.921 . S
C1032 C0 0.971 . S
C1047 C98 0.865 . S
C1059 C14 0.935 . S
C1074 C56 0.933 . S
C1086 C28 0.866 . S
