# Generated by pormake.
# Topology vme, (6)-cn, num edge types: 1
# Building blocks:
#     Node 0, Type 0, BuildingBlock: IZENUY_clean_sbu_0, # of connection points: 6
#     Node 1, Type 0, BuildingBlock: IZENUY_clean_sbu_0, # of connection points: 6
#     Node 2, Type 0, BuildingBlock: IZENUY_clean_sbu_0, # of connection points: 6
#     Node 3, Type 0, BuildingBlock: IZENUY_clean_sbu_0, # of connection points: 6
#     Edge 4, Type (0, 0), BuildingBlock: KIFKEQ_clean_linker_1, # of connection points: 2
#     Edge 5, Type (0, 0), BuildingBlock: KIFKEQ_clean_linker_1, # of connection points: 2
#     Edge 6, Type (0, 0), BuildingBlock: KIFKEQ_clean_linker_1, # of connection points: 2
#     Edge 7, Type (0, 0), BuildingBlock: KIFKEQ_clean_linker_1, # of connection points: 2
#     Edge 8, Type (0, 0), BuildingBlock: KIFKEQ_clean_linker_1, # of connection points: 2
#     Edge 9, Type (0, 0), BuildingBlock: KIFKEQ_clean_linker_1, # of connection points: 2
#     Edge 10, Type (0, 0), BuildingBlock: KIFKEQ_clean_linker_1, # of connection points: 2
#     Edge 11, Type (0, 0), BuildingBlock: KIFKEQ_clean_linker_1, # of connection points: 2
#     Edge 12, Type (0, 0), BuildingBlock: KIFKEQ_clean_linker_1, # of connection points: 2
#     Edge 13, Type (0, 0), BuildingBlock: KIFKEQ_clean_linker_1, # of connection points: 2
#     Edge 14, Type (0, 0), BuildingBlock: KIFKEQ_clean_linker_1, # of connection points: 2
#     Edge 15, Type (0, 0), BuildingBlock: KIFKEQ_clean_linker_1, # of connection points: 2
# Relax obj value: 0.240
# Max RMSD: 0.243
# Mean RMSD: 0.243
data_MOF--net-vme--node1-IZENUY_clean_sbu_0--edge1-KIFKEQ_clean_linker_1
_symmetry_space_group_name_H-M    P1
_symmetry_Int_Tables_number       1
_symmetry_cell_setting            triclinic
loop_
_symmetry_equiv_pos_as_xyz
'x, y, z'
_cell_length_a     26.170046
_cell_length_b     26.017498
_cell_length_c     28.295997
_cell_angle_alpha  90.190305
_cell_angle_beta   117.92363
_cell_angle_gamma 89.86168
loop_
_atom_site_label
_atom_site_type_symbol
_atom_site_fract_x
_atom_site_fract_y
_atom_site_fract_z
_atom_type_partial_charge
Fe0 Fe 0.14311 0.39161 0.3435 0.0
Fe1 Fe 0.25302 0.32982 0.41353 0.0
O2 O 0.20627 0.38217 0.40476 0.0
Fe3 Fe 0.22156 0.42535 0.45785 0.0
O4 O 0.15638 0.40681 0.45962 0.0
O5 O 0.1006 0.42058 0.37438 0.0
O6 O 0.11465 0.3308 0.34911 0.0
C7 C 0.13897 0.28811 0.35311 0.0
C8 C 0.17319 0.49046 0.36567 0.0
O9 O 0.19354 0.28509 0.37056 0.0
C10 C 0.3282 0.41509 0.46543 0.0
O11 O 0.1734 0.36365 0.3016 0.0
O12 O 0.26461 0.34992 0.35837 0.0
O13 O 0.18619 0.48129 0.41411 0.0
O14 O 0.16848 0.45365 0.33487 0.0
C15 C 0.25248 0.33004 0.50996 0.0
O16 O 0.31985 0.36671 0.45764 0.0
O17 O 0.28739 0.44494 0.4586 0.0
C18 C 0.22493 0.35401 0.31102 0.0
O19 O 0.24416 0.30516 0.46887 0.0
O20 O 0.25899 0.37827 0.51159 0.0
C21 C 0.10718 0.41592 0.42165 0.0
Fe22 Fe 0.7876 0.82901 0.13622 0.0
Fe23 Fe 0.82054 0.92299 0.09189 0.0
O24 O 0.83605 0.87939 0.14431 0.0
Fe25 Fe 0.90126 0.88553 0.20432 0.0
O26 O 0.92546 0.82381 0.19412 0.0
O27 O 0.84553 0.78254 0.17789 0.0
O28 O 0.79449 0.80339 0.08035 0.0
C29 C 0.78684 0.82791 0.03943 0.0
C30 C 0.82018 0.85263 0.23921 0.0
O31 O 0.7807 0.87631 0.0377 0.0
C32 C 0.87473 0.98547 0.18653 0.0
O33 O 0.72161 0.86725 0.0931 0.0
O34 O 0.75609 0.94443 0.09322 0.0
O35 O 0.87187 0.858 0.24704 0.0
O36 O 0.77897 0.85113 0.19238 0.0
C37 C 0.93418 0.9111 0.12472 0.0
O38 O 0.85852 0.9777 0.13704 0.0
O39 O 0.88013 0.94807 0.21673 0.0
C40 C 0.71448 0.91574 0.08618 0.0
O41 O 0.88417 0.90315 0.08759 0.0
O42 O 0.94277 0.9141 0.17268 0.0
C43 C 0.89886 0.7824 0.18964 0.0
Fe44 Fe 0.81357 0.59002 0.58627 0.0
Fe45 Fe 0.90281 0.6298 0.69497 0.0
O46 O 0.83363 0.63388 0.6394 0.0
Fe47 Fe 0.7849 0.68226 0.63625 0.0
O48 O 0.7839 0.70904 0.57733 0.0
O49 O 0.76672 0.63596 0.53403 0.0
O50 O 0.87057 0.61242 0.57365 0.0
C51 C 0.92311 0.6079 0.60641 0.0
C52 C 0.71407 0.59355 0.59328 0.0
O53 O 0.93884 0.60438 0.65623 0.0
C54 C 0.82903 0.65757 0.74037 0.0
O55 O 0.85823 0.53635 0.62905 0.0
O56 O 0.8879 0.5662 0.71028 0.0
O57 O 0.71922 0.64234 0.59727 0.0
O58 O 0.75509 0.56604 0.59633 0.0
C59 C 0.89426 0.73302 0.68278 0.0
O60 O 0.87906 0.65466 0.7433 0.0
O61 O 0.78452 0.65821 0.69552 0.0
C62 C 0.87916 0.52883 0.67911 0.0
O63 O 0.92108 0.69302 0.68226 0.0
O64 O 0.84226 0.73033 0.67492 0.0
C65 C 0.77204 0.68452 0.53512 0.0
Fe66 Fe 0.25436 0.18257 0.90958 0.0
Fe67 Fe 0.22828 0.09014 0.96091 0.0
O68 O 0.20644 0.13418 0.90792 0.0
Fe69 Fe 0.13614 0.13047 0.85394 0.0
O70 O 0.11904 0.19365 0.86853 0.0
O71 O 0.1964 0.23058 0.87255 0.0
O72 O 0.25772 0.20936 0.9698 0.0
C73 C 0.2705 0.18484 1.01213 0.0
C74 C 0.20607 0.15786 0.80485 0.0
O75 O 0.27577 0.13624 1.01286 0.0
C76 C 0.16017 0.02937 0.86788 0.0
O77 O 0.3206 0.14285 0.94695 0.0
O78 O 0.28587 0.0665 0.94892 0.0
O79 O 0.15721 0.15577 0.8043 0.0
O80 O 0.25215 0.15859 0.84863 0.0
C81 C 0.11957 0.1071 0.9441 0.0
O82 O 0.18314 0.03647 0.91822 0.0
O83 O 0.14994 0.06701 0.8369 0.0
C84 C 0.32636 0.09416 0.95127 0.0
O85 O 0.1724 0.11191 0.97579 0.0
O86 O 0.10233 0.1045 0.89402 0.0
C87 C 0.14513 0.2335 0.86661 0.0
H88 H 0.88082 0.07406 0.13725 0.0
H89 H 0.94201 1.00492 0.29329 0.0
H90 H 0.94642 0.14636 0.1783 0.0
H91 H 1.00778 0.07689 0.33375 0.0
H92 H 0.166 0.18469 0.36908 0.0
H93 H 0.09905 0.11207 0.32925 0.0
H94 H 0.95882 0.21834 0.24427 0.0
H95 H 0.02429 0.28998 0.28353 0.0
C96 C 0.90737 0.07465 0.18028 0.0
C97 C 0.9059 0.03363 0.21183 0.0
C98 C 0.94522 0.11586 0.20372 0.0
C99 C 0.98276 0.11669 0.25909 0.0
C100 C 0.98003 0.07669 0.29088 0.0
C101 C 0.94169 0.03584 0.26762 0.0
C102 C 0.12092 0.19233 0.34188 0.0
C103 C 0.10059 0.24308 0.32977 0.0
C104 C 0.08263 0.15094 0.31934 0.0
C105 C 0.02381 0.15978 0.28363 0.0
C106 C 1.00391 0.21041 0.27126 0.0
C107 C 0.04162 0.25144 0.2942 0.0
H108 H 0.13841 0.56681 0.41123 0.0
H109 H 0.13742 0.52341 0.26317 0.0
H110 H 0.06876 0.6349 0.36452 0.0
H111 H 0.06837 0.59207 0.21687 0.0
H112 H 0.98927 0.75747 0.17283 0.0
H113 H 0.05997 0.68904 0.21552 0.0
H114 H 0.96173 0.63447 0.29247 0.0
H115 H 0.89039 0.70314 0.24915 0.0
C116 C 0.12449 0.57247 0.36903 0.0
C117 C 0.14314 0.53918 0.34087 0.0
C118 C 0.08393 0.61104 0.34218 0.0
C119 C 0.06222 0.61797 0.28687 0.0
C120 C 0.08405 0.58731 0.25946 0.0
C121 C 0.12388 0.54819 0.2861 0.0
C122 C 0.9822 0.73018 0.19804 0.0
C123 C 0.93436 0.73537 0.20762 0.0
C124 C 0.0227 0.69113 0.22252 0.0
C125 C 1.01674 0.65691 0.25782 0.0
C126 C 0.96771 0.66086 0.26594 0.0
C127 C 0.92653 0.69957 0.24065 0.0
H128 H 0.11602 0.95888 0.9107 0.0
H129 H 0.13217 0.99233 0.76889 0.0
H130 H 0.04911 0.88877 0.86316 0.0
H131 H 0.06519 0.92287 0.72142 0.0
H132 H 0.98918 0.76015 0.67386 0.0
H133 H 0.05708 0.8291 0.72049 0.0
H134 H 0.94778 0.88097 0.78757 0.0
H135 H 0.87962 0.8111 0.74096 0.0
C136 C 0.10644 0.95044 0.86986 0.0
C137 C 0.12971 0.98083 0.84362 0.0
C138 C 0.06733 0.91093 0.84235 0.0
C139 C 0.05129 0.90071 0.78833 0.0
C140 C 0.07673 0.92963 0.76302 0.0
C141 C 0.11527 0.96932 0.79026 0.0
C142 C 0.97914 0.78675 0.69791 0.0
C143 C 0.929 0.78032 0.70365 0.0
C144 C 1.0181 0.82624 0.72466 0.0
C145 C 1.00816 0.86017 0.75818 0.0
C146 C 0.95702 0.85489 0.76263 0.0
C147 C 0.91757 0.81546 0.73533 0.0
H148 H 0.92401 0.45779 0.63695 0.0
H149 H 0.90537 0.49199 0.77758 0.0
H150 H 0.99034 0.38752 0.68485 0.0
H151 H 0.97193 0.42248 0.82546 0.0
H152 H 0.04953 0.26072 0.87482 0.0
H153 H 0.98113 0.32908 0.82729 0.0
H154 H 0.09076 0.37995 0.76055 0.0
H155 H 0.15924 0.31066 0.80784 0.0
C156 C 0.93294 0.44951 0.6776 0.0
C157 C 0.90922 0.48021 0.70343 0.0
C158 C 0.97171 0.40989 0.70532 0.0
C159 C 0.98698 0.39991 0.75917 0.0
C160 C 0.96097 0.42905 0.78401 0.0
C161 C 0.92271 0.4688 0.75653 0.0
C162 C 0.0595 0.28697 0.85062 0.0
C163 C 0.10985 0.28043 0.84519 0.0
C164 C 1.02026 0.32612 0.82336 0.0
C165 C 0.03019 0.3596 0.7897 0.0
C166 C 0.0815 0.3542 0.78556 0.0
C167 C 0.12116 0.31511 0.81328 0.0
H168 H 0.02063 0.54732 0.65147 0.0
H169 H 0.90785 0.62938 0.50738 0.0
H170 H 0.06264 0.50145 0.60256 0.0
H171 H 0.94533 0.58097 0.45765 0.0
H172 H 0.04827 0.50516 0.38483 0.0
H173 H 1.01307 0.5594 0.43331 0.0
H174 H 0.03851 0.43431 0.54287 0.0
H175 H 0.07906 0.38235 0.4969 0.0
C176 C 1.00579 0.55639 0.60973 0.0
C177 C 0.96059 0.59149 0.58317 0.0
C178 C 0.02871 0.52916 0.58116 0.0
C179 C 1.00611 0.53595 0.52542 0.0
C180 C 0.96422 0.5743 0.50025 0.0
C181 C 0.94245 0.60217 0.52892 0.0
C182 C 0.04493 0.48905 0.41849 0.0
C183 C 0.06642 0.43978 0.43727 0.0
C184 C 0.02495 0.52021 0.44669 0.0
C185 C 0.02416 0.50198 0.49325 0.0
C186 C 0.04063 0.45069 0.50872 0.0
C187 C 0.06232 0.42023 0.4815 0.0
H188 H 0.96125 0.87935 0.04799 0.0
H189 H 0.99071 1.00119 0.16159 0.0
H190 H 1.00254 0.93211 1.00338 0.0
H191 H 0.02807 0.05562 0.11521 0.0
H192 H 0.13904 0.12318 0.04569 0.0
H193 H 0.10015 0.07405 0.09373 0.0
H194 H 0.97798 1.0021 0.94553 0.0
H195 H 1.0204 0.04905 0.89789 0.0
C196 C 0.97799 0.91708 0.06408 0.0
C197 C 0.97384 0.93598 0.10863 0.0
C198 C 1.00024 0.94789 0.03778 0.0
C199 C 1.01737 0.99881 0.05466 0.0
C200 C 1.01586 0.0166 0.10109 0.0
C201 C 0.99491 0.98526 0.12814 0.0
C202 C 0.10313 0.0975 1.0231 0.0
C203 C 0.08333 0.08941 0.96809 0.0
C204 C 0.08062 0.06929 0.05077 0.0
C205 C 0.03673 0.03298 0.02396 0.0
C206 C 1.0132 0.02839 0.96791 0.0
C207 C 0.03652 0.05615 0.94024 0.0
H208 H 0.24411 0.28557 1.01671 0.0
H209 H 0.30164 0.1482 0.11327 0.0
H210 H 0.23645 0.33008 0.08889 0.0
H211 H 0.29445 0.19348 0.186 0.0
H212 H 0.32376 0.30913 0.32011 0.0
H213 H 0.33966 0.27035 0.24962 0.0
H214 H 0.16995 0.31969 0.13185 0.0
H215 H 0.15334 0.3582 0.20253 0.0
C216 C 0.2561 0.265 0.05365 0.0
C217 C 0.2737 0.21316 0.05914 0.0
C218 C 0.25118 0.29054 0.09483 0.0
C219 C 0.26448 0.26523 0.14289 0.0
C220 C 0.2842 0.21405 0.1494 0.0
C221 C 0.28836 0.18813 0.10779 0.0
C222 C 0.28991 0.31239 0.27917 0.0
C223 C 0.23707 0.33681 0.26709 0.0
C224 C 0.29901 0.28973 0.23887 0.0
C225 C 0.25596 0.29162 0.18536 0.0
C226 C 0.20404 0.31781 0.17282 0.0
C227 C 0.19452 0.33987 0.21328 0.0
H228 H 0.71937 0.8142 0.23117 0.0
H229 H 0.89516 0.85123 0.34698 0.0
H230 H 0.70357 0.77538 0.30139 0.0
H231 H 0.8785 0.81285 0.41751 0.0
H232 H 0.803 0.78397 0.53331 0.0
H233 H 0.81217 0.82828 0.4621 0.0
H234 H 0.74778 0.69405 0.36142 0.0
H235 H 0.73923 0.6488 0.43325 0.0
C236 C 0.75448 0.81483 0.27172 0.0
C237 C 0.80876 0.83577 0.2834 0.0
C238 C 0.74537 0.79218 0.31178 0.0
C239 C 0.7899 0.79076 0.36461 0.0
C240 C 0.84339 0.81357 0.37696 0.0
C241 C 0.8529 0.83556 0.33665 0.0
C242 C 0.78996 0.7639 0.4958 0.0
C243 C 0.77014 0.71274 0.48893 0.0
C244 C 0.79575 0.78929 0.45524 0.0
C245 C 0.78101 0.7645 0.40653 0.0
C246 C 0.7592 0.71407 0.39867 0.0
C247 C 0.75425 0.68822 0.43969 0.0
H248 H 0.74654 0.85836 0.93512 0.0
H249 H 0.83452 0.73398 0.04434 0.0
H250 H 0.7566 0.81211 0.86422 0.0
H251 H 0.84535 0.68871 0.97395 0.0
H252 H 0.91336 0.67028 0.84467 0.0
H253 H 0.90152 0.70943 0.91793 0.0
H254 H 0.71779 0.72237 0.8148 0.0
H255 H 0.72875 0.68248 0.74231 0.0
C256 C 0.76763 0.82117 0.94387 0.0
C257 C 0.78915 0.79963 0.99507 0.0
C258 C 0.7734 0.79477 0.90344 0.0
C259 C 0.80188 0.74699 0.91392 0.0
C260 C 0.82351 0.72558 0.96505 0.0
C261 C 0.81676 0.75138 1.00508 0.0
C262 C 0.87035 0.68055 0.83795 0.0
C263 C 0.82218 0.67347 0.78746 0.0
C264 C 0.86364 0.70307 0.87976 0.0
C265 C 0.80884 0.71954 0.87147 0.0
C266 C 0.76056 0.71071 0.82183 0.0
C267 C 0.76701 0.68749 0.78049 0.0
H268 H 0.29504 0.14218 0.78161 0.0
H269 H 0.12614 0.2122 0.71999 0.0
H270 H 0.30791 0.18184 0.7095 0.0
H271 H 0.13956 0.2524 0.6486 0.0
H272 H 0.22679 0.37008 0.5855 0.0
H273 H 0.21323 0.32336 0.65363 0.0
H274 H 0.26015 0.18161 0.60417 0.0
H275 H 0.27282 0.2281 0.53525 0.0
C276 C 0.26029 0.16524 0.75209 0.0
C277 C 0.20951 0.17392 0.75632 0.0
C278 C 0.26771 0.18796 0.71097 0.0
C279 C 0.225 0.2206 0.67399 0.0
C280 C 0.17337 0.22778 0.67701 0.0
C281 C 0.16545 0.20428 0.71747 0.0
C282 C 0.23501 0.32908 0.58962 0.0
C283 C 0.25117 0.3028 0.55521 0.0
C284 C 0.2266 0.3023 0.62818 0.0
C285 C 0.23517 0.24886 0.63375 0.0
C286 C 0.25326 0.2228 0.60064 0.0
C287 C 0.26057 0.24942 0.56133 0.0
H288 H 0.3632 0.50611 0.51777 0.0
H289 H 0.4257 0.37687 0.46325 0.0
H290 H 0.45587 0.54817 0.55027 0.0
H291 H 0.51918 0.42022 0.49466 0.0
H292 H 0.69576 0.49182 0.60153 0.0
H293 H 0.60433 0.44734 0.57236 0.0
H294 H 0.51335 0.59174 0.51923 0.0
H295 H 0.60543 0.63656 0.55017 0.0
C296 C 0.39678 0.48665 0.51242 0.0
C297 C 0.38681 0.43808 0.48753 0.0
C298 C 0.45002 0.51114 0.53082 0.0
C299 C 0.49502 0.48815 0.52454 0.0
C300 C 0.48564 0.439 0.50057 0.0
C301 C 0.4321 0.4141 0.48245 0.0
C302 C 0.65624 0.51421 0.58383 0.0
C303 C 0.65793 0.56786 0.57817 0.0
C304 C 0.60368 0.48852 0.56665 0.0
C305 C 0.5512 0.51567 0.54305 0.0
C306 C 0.55291 0.56951 0.53789 0.0
C307 C 0.60569 0.59534 0.55553 0.0
H308 H 0.34612 0.99299 0.94089 0.0
H309 H 0.43465 0.1377 0.99775 0.0
H310 H 0.43838 0.94911 0.97201 0.0
H311 H 0.52744 0.09354 0.03089 0.0
H312 H 0.68257 0.00964 0.03952 0.0
H313 H 0.58964 0.05182 1.00486 0.0
H314 H 0.52095 0.92067 0.04977 0.0
H315 H 0.61457 0.87717 0.08297 0.0
C316 C 0.38543 0.0155 0.96015 0.0
C317 C 0.38298 0.06896 0.96678 0.0
C318 C 0.43848 0.99015 0.9785 0.0
C319 C 0.49075 0.01744 1.00448 0.0
C320 C 0.48822 0.07115 1.01045 0.0
C321 C 0.43498 0.09663 0.9915 0.0
C322 C 0.64778 0.98952 0.04213 0.0
C323 C 0.65628 0.93988 0.06433 0.0
C324 C 0.59431 0.01408 1.02246 0.0
C325 C 0.54753 0.99016 0.02482 0.0
C326 C 0.55572 0.94021 0.04665 0.0
C327 C 0.60944 0.91524 0.06594 0.0
loop_
_geom_bond_atom_site_label_1
_geom_bond_atom_site_label_2
_geom_bond_distance
_geom_bond_site_symmetry_2
_ccdc_geom_bond_type
Fe0 O2 1.918 . S
Fe0 O5 1.997 . S
Fe0 O6 2.002 . S
Fe0 O11 1.976 . S
Fe0 O14 1.996 . S
Fe1 O2 1.918 . S
Fe1 O9 1.997 . S
Fe1 O12 1.996 . S
Fe1 O16 1.976 . S
Fe1 O19 2.002 . S
O2 Fe0 1.918 . S
O2 Fe1 1.918 . S
O2 Fe3 1.918 . S
Fe3 O2 1.918 . S
Fe3 O4 2.002 . S
Fe3 O13 1.976 . S
Fe3 O17 1.996 . S
Fe3 O20 1.997 . S
O4 Fe3 2.002 . S
O4 C21 1.295 . S
O5 Fe0 1.997 . S
O5 C21 1.235 . S
O6 Fe0 2.002 . S
O6 C7 1.295 . S
C7 O6 1.295 . S
C7 O9 1.235 . S
C8 O13 1.287 . S
C8 O14 1.255 . S
O9 Fe1 1.997 . S
O9 C7 1.235 . S
C10 O16 1.287 . S
C10 O17 1.255 . S
O11 Fe0 1.976 . S
O11 C18 1.287 . S
O12 Fe1 1.996 . S
O12 C18 1.255 . S
O13 Fe3 1.976 . S
O13 C8 1.287 . S
O14 Fe0 1.996 . S
O14 C8 1.255 . S
C15 O19 1.295 . S
C15 O20 1.235 . S
O16 Fe1 1.976 . S
O16 C10 1.287 . S
O17 Fe3 1.996 . S
O17 C10 1.255 . S
C18 O11 1.287 . S
C18 O12 1.255 . S
O19 Fe1 2.002 . S
O19 C15 1.295 . S
O20 Fe3 1.997 . S
O20 C15 1.235 . S
C21 O4 1.295 . S
C21 O5 1.235 . S
Fe22 O24 1.918 . S
Fe22 O27 1.997 . S
Fe22 O28 2.002 . S
Fe22 O33 1.976 . S
Fe22 O36 1.996 . S
Fe23 O24 1.918 . S
Fe23 O31 1.997 . S
Fe23 O34 1.996 . S
Fe23 O38 1.976 . S
Fe23 O41 2.002 . S
O24 Fe22 1.918 . S
O24 Fe23 1.918 . S
O24 Fe25 1.918 . S
Fe25 O24 1.918 . S
Fe25 O26 2.002 . S
Fe25 O35 1.976 . S
Fe25 O39 1.996 . S
Fe25 O42 1.997 . S
O26 Fe25 2.002 . S
O26 C43 1.295 . S
O27 Fe22 1.997 . S
O27 C43 1.235 . S
O28 Fe22 2.002 . S
O28 C29 1.297 . S
C29 O28 1.297 . S
C29 O31 1.235 . S
C30 O35 1.287 . S
C30 O36 1.255 . S
O31 Fe23 1.997 . S
O31 C29 1.235 . S
C32 O38 1.288 . S
C32 O39 1.266 . S
O33 Fe22 1.976 . S
O33 C40 1.287 . S
O34 Fe23 1.996 . S
O34 C40 1.255 . S
O35 Fe25 1.976 . S
O35 C30 1.287 . S
O36 Fe22 1.996 . S
O36 C30 1.255 . S
C37 O41 1.295 . S
C37 O42 1.235 . S
O38 Fe23 1.976 . S
O38 C32 1.288 . S
O39 Fe25 1.996 . S
O39 C32 1.266 . S
C40 O33 1.287 . S
C40 O34 1.255 . S
O41 Fe23 2.002 . S
O41 C37 1.295 . S
O42 Fe25 1.997 . S
O42 C37 1.235 . S
C43 O26 1.295 . S
C43 O27 1.235 . S
Fe44 O46 1.918 . S
Fe44 O49 1.997 . S
Fe44 O50 2.002 . S
Fe44 O55 1.976 . S
Fe44 O58 1.996 . S
Fe45 O46 1.918 . S
Fe45 O53 1.997 . S
Fe45 O56 1.996 . S
Fe45 O60 1.976 . S
Fe45 O63 2.002 . S
O46 Fe44 1.918 . S
O46 Fe45 1.918 . S
O46 Fe47 1.918 . S
Fe47 O46 1.918 . S
Fe47 O48 2.002 . S
Fe47 O57 1.976 . S
Fe47 O61 1.996 . S
Fe47 O64 1.997 . S
O48 Fe47 2.002 . S
O48 C65 1.295 . S
O49 Fe44 1.997 . S
O49 C65 1.235 . S
O50 Fe44 2.002 . S
O50 C51 1.295 . S
C51 O50 1.295 . S
C51 O53 1.235 . S
C52 O57 1.287 . S
C52 O58 1.255 . S
O53 Fe45 1.997 . S
O53 C51 1.235 . S
C54 O60 1.287 . S
C54 O61 1.255 . S
O55 Fe44 1.976 . S
O55 C62 1.287 . S
O56 Fe45 1.996 . S
O56 C62 1.255 . S
O57 Fe47 1.976 . S
O57 C52 1.287 . S
O58 Fe44 1.996 . S
O58 C52 1.255 . S
C59 O63 1.295 . S
C59 O64 1.235 . S
O60 Fe45 1.976 . S
O60 C54 1.287 . S
O61 Fe47 1.996 . S
O61 C54 1.255 . S
C62 O55 1.287 . S
C62 O56 1.255 . S
O63 Fe45 2.002 . S
O63 C59 1.295 . S
O64 Fe47 1.997 . S
O64 C59 1.235 . S
C65 O48 1.295 . S
C65 O49 1.235 . S
Fe66 O68 1.918 . S
Fe66 O71 1.997 . S
Fe66 O72 2.002 . S
Fe66 O77 1.976 . S
Fe66 O80 1.996 . S
Fe67 O68 1.918 . S
Fe67 O75 1.997 . S
Fe67 O78 1.996 . S
Fe67 O82 1.976 . S
Fe67 O85 2.002 . S
O68 Fe66 1.918 . S
O68 Fe67 1.918 . S
O68 Fe69 1.918 . S
Fe69 O68 1.918 . S
Fe69 O70 2.002 . S
Fe69 O79 1.976 . S
Fe69 O83 1.996 . S
Fe69 O86 1.997 . S
O70 Fe69 2.002 . S
O70 C87 1.295 . S
O71 Fe66 1.997 . S
O71 C87 1.235 . S
O72 Fe66 2.002 . S
O72 C73 1.297 . S
C73 O72 1.297 . S
C73 O75 1.235 . S
C74 O79 1.287 . S
C74 O80 1.255 . S
O75 Fe67 1.997 . S
O75 C73 1.235 . S
C76 O82 1.288 . S
C76 O83 1.266 . S
O77 Fe66 1.976 . S
O77 C84 1.287 . S
O78 Fe67 1.996 . S
O78 C84 1.255 . S
O79 Fe69 1.976 . S
O79 C74 1.287 . S
O80 Fe66 1.996 . S
O80 C74 1.255 . S
C81 O85 1.295 . S
C81 O86 1.235 . S
O82 Fe67 1.976 . S
O82 C76 1.288 . S
O83 Fe69 1.996 . S
O83 C76 1.266 . S
C84 O77 1.287 . S
C84 O78 1.255 . S
O85 Fe67 2.002 . S
O85 C81 1.295 . S
O86 Fe69 1.997 . S
O86 C81 1.235 . S
C87 O70 1.295 . S
C87 O71 1.235 . S
H88 C96 0.950 . S
H89 C101 0.963 . S
H90 C98 0.950 . S
H91 C100 0.950 1_455 S
H92 C102 0.950 . S
H93 C104 0.950 . S
H94 C106 0.950 . S
H95 C107 0.950 . S
C96 H88 0.950 . S
C96 C97 1.386 . S
C96 C98 1.391 . S
C97 C96 1.386 . S
C97 C101 1.393 . S
C98 H90 0.950 . S
C98 C96 1.391 . S
C98 C99 1.400 . S
C99 C98 1.400 . S
C99 C100 1.398 . S
C99 C105 1.491 . S
C100 H91 0.950 1_655 S
C100 C99 1.398 . S
C100 C101 1.391 . S
C101 H89 0.963 . S
C101 C97 1.393 . S
C101 C100 1.391 . S
C102 H92 0.950 . S
C102 C103 1.386 . S
C102 C104 1.391 . S
C103 C102 1.386 . S
C103 C107 1.393 . S
C104 H93 0.950 . S
C104 C102 1.391 . S
C104 C105 1.400 1_455 S
C105 C99 1.491 . S
C105 C104 1.400 1_655 S
C105 C106 1.398 . S
C106 H94 0.950 . S
C106 C105 1.398 . S
C106 C107 1.391 1_655 S
C107 H95 0.950 . S
C107 C103 1.393 . S
C107 C106 1.391 1_455 S
H108 C116 0.950 . S
H109 C121 0.950 . S
H110 C118 0.950 . S
H111 C120 0.950 . S
H112 C122 0.950 . S
H113 C124 0.950 1_455 S
H114 C126 0.950 . S
H115 C127 0.950 . S
C116 H108 0.950 . S
C116 C117 1.386 . S
C116 C118 1.391 . S
C117 C116 1.386 . S
C117 C121 1.393 . S
C118 H110 0.950 . S
C118 C116 1.391 . S
C118 C119 1.400 . S
C119 C118 1.400 . S
C119 C120 1.398 . S
C119 C125 1.499 . S
C120 H111 0.950 . S
C120 C119 1.398 . S
C120 C121 1.391 . S
C121 H109 0.950 . S
C121 C117 1.393 . S
C121 C120 1.391 . S
C122 H112 0.950 . S
C122 C123 1.386 . S
C122 C124 1.391 . S
C123 C122 1.386 . S
C123 C127 1.393 . S
C124 H113 0.950 1_655 S
C124 C122 1.391 . S
C124 C125 1.404 1_655 S
C125 C119 1.499 . S
C125 C124 1.404 1_455 S
C125 C126 1.385 1_455 S
C126 H114 0.950 . S
C126 C125 1.385 1_655 S
C126 C127 1.391 . S
C127 H115 0.950 . S
C127 C123 1.393 . S
C127 C126 1.391 . S
H128 C136 0.950 . S
H129 C141 0.950 . S
H130 C138 0.950 1_655 S
H131 C140 0.950 . S
H132 C142 0.950 . S
H133 C144 0.950 . S
H134 C146 0.950 . S
H135 C147 0.950 . S
C136 H128 0.950 . S
C136 C137 1.386 . S
C136 C138 1.391 . S
C137 C136 1.386 . S
C137 C141 1.393 . S
C138 H130 0.950 1_455 S
C138 C136 1.391 . S
C138 C139 1.400 . S
C139 C138 1.400 . S
C139 C140 1.398 . S
C139 C145 1.491 . S
C140 H131 0.950 . S
C140 C139 1.398 . S
C140 C141 1.391 . S
C141 H129 0.950 . S
C141 C137 1.393 . S
C141 C140 1.391 . S
C142 H132 0.950 . S
C142 C143 1.386 . S
C142 C144 1.391 1_655 S
C143 C142 1.386 . S
C143 C147 1.393 . S
C144 H133 0.950 . S
C144 C142 1.391 1_455 S
C144 C145 1.400 . S
C145 C139 1.491 . S
C145 C144 1.400 . S
C145 C146 1.398 1_455 S
C146 H134 0.950 . S
C146 C145 1.398 1_655 S
C146 C147 1.391 . S
C147 H135 0.950 . S
C147 C143 1.393 . S
C147 C146 1.391 . S
H148 C156 0.950 . S
H149 C161 0.950 . S
H150 C158 0.950 1_455 S
H151 C160 0.950 . S
H152 C162 0.950 . S
H153 C164 0.950 . S
H154 C166 0.950 . S
H155 C167 0.950 . S
C156 H148 0.950 . S
C156 C157 1.386 . S
C156 C158 1.391 . S
C157 C156 1.386 . S
C157 C161 1.393 . S
C158 H150 0.950 1_655 S
C158 C156 1.391 . S
C158 C159 1.400 . S
C159 C158 1.400 . S
C159 C160 1.398 . S
C159 C165 1.491 . S
C160 H151 0.950 . S
C160 C159 1.398 . S
C160 C161 1.391 . S
C161 H149 0.950 . S
C161 C157 1.393 . S
C161 C160 1.391 . S
C162 H152 0.950 . S
C162 C163 1.386 . S
C162 C164 1.391 1_455 S
C163 C162 1.386 . S
C163 C167 1.393 . S
C164 H153 0.950 . S
C164 C162 1.391 1_655 S
C164 C165 1.400 . S
C165 C159 1.491 . S
C165 C164 1.400 . S
C165 C166 1.398 1_655 S
C166 H154 0.950 . S
C166 C165 1.398 1_455 S
C166 C167 1.391 . S
C167 H155 0.950 . S
C167 C163 1.393 . S
C167 C166 1.391 . S
H168 C176 0.950 1_455 S
H169 C181 0.950 . S
H170 C178 0.950 . S
H171 C180 0.950 . S
H172 C182 0.950 1_655 S
H173 C184 0.950 . S
H174 C186 0.950 . S
H175 C187 0.950 . S
C176 H168 0.950 1_655 S
C176 C177 1.384 . S
C176 C178 1.393 1_655 S
C177 C176 1.384 . S
C177 C181 1.393 . S
C178 H170 0.950 . S
C178 C176 1.393 1_455 S
C178 C179 1.400 1_455 S
C179 C178 1.400 1_655 S
C179 C180 1.398 . S
C179 C185 1.491 1_655 S
C180 H171 0.950 . S
C180 C179 1.398 . S
C180 C181 1.391 . S
C181 H169 0.950 . S
C181 C177 1.393 . S
C181 C180 1.391 . S
C182 H172 0.950 1_455 S
C182 C183 1.384 . S
C182 C184 1.393 1_455 S
C183 C182 1.384 . S
C183 C187 1.393 . S
C184 H173 0.950 . S
C184 C182 1.393 1_655 S
C184 C185 1.400 1_655 S
C185 C179 1.491 1_455 S
C185 C184 1.400 1_455 S
C185 C186 1.398 . S
C186 H174 0.950 . S
C186 C185 1.398 . S
C186 C187 1.391 . S
C187 H175 0.950 . S
C187 C183 1.393 . S
C187 C186 1.391 . S
H188 C196 0.950 . S
H189 C201 0.952 1_455 S
H190 C198 0.950 . S
H191 C200 0.941 1_545 S
H192 C202 0.950 . S
H193 C204 0.950 . S
H194 C206 0.941 1_565 S
H195 C207 0.952 1_655 S
C196 H188 0.950 . S
C196 C197 1.386 . S
C196 C198 1.391 1_554 S
C197 C196 1.386 . S
C197 C201 1.393 . S
C198 H190 0.950 . S
C198 C196 1.391 1_556 S
C198 C199 1.400 1_556 S
C199 C198 1.400 1_554 S
C199 C200 1.401 1_655 S
C199 C205 1.491 1_664 S
C200 H191 0.941 1_565 S
C200 C199 1.401 1_455 S
C200 C201 1.397 1_455 S
C201 H189 0.952 1_655 S
C201 C197 1.393 . S
C201 C200 1.397 1_655 S
C202 H192 0.950 . S
C202 C203 1.386 . S
C202 C204 1.391 1_556 S
C203 C202 1.386 . S
C203 C207 1.393 . S
C204 H193 0.950 . S
C204 C202 1.391 1_554 S
C204 C205 1.400 1_554 S
C205 C199 1.491 1_446 S
C205 C204 1.400 1_556 S
C205 C206 1.401 1_455 S
C206 H194 0.941 1_545 S
C206 C205 1.401 1_655 S
C206 C207 1.397 1_655 S
C207 H195 0.952 1_455 S
C207 C203 1.393 . S
C207 C206 1.397 1_455 S
H208 C216 0.950 . S
H209 C221 0.950 . S
H210 C218 0.950 . S
H211 C220 0.950 . S
H212 C222 0.950 . S
H213 C224 0.950 . S
H214 C226 0.950 . S
H215 C227 0.950 . S
C216 H208 0.950 . S
C216 C217 1.386 . S
C216 C218 1.391 . S
C217 C216 1.386 . S
C217 C221 1.393 . S
C218 H210 0.950 . S
C218 C216 1.391 . S
C218 C219 1.400 . S
C219 C218 1.400 . S
C219 C220 1.398 . S
C219 C225 1.491 . S
C220 H211 0.950 . S
C220 C219 1.398 . S
C220 C221 1.391 . S
C221 H209 0.950 . S
C221 C217 1.393 . S
C221 C220 1.391 . S
C222 H212 0.950 . S
C222 C223 1.386 . S
C222 C224 1.391 . S
C223 C222 1.386 . S
C223 C227 1.393 . S
C224 H213 0.950 . S
C224 C222 1.391 . S
C224 C225 1.400 . S
C225 C219 1.491 . S
C225 C224 1.400 . S
C225 C226 1.398 . S
C226 H214 0.950 . S
C226 C225 1.398 . S
C226 C227 1.391 . S
C227 H215 0.950 . S
C227 C223 1.393 . S
C227 C226 1.391 . S
H228 C236 0.950 . S
H229 C241 0.950 . S
H230 C238 0.950 . S
H231 C240 0.950 . S
H232 C242 0.950 . S
H233 C244 0.950 . S
H234 C246 0.950 . S
H235 C247 0.950 . S
C236 H228 0.950 . S
C236 C237 1.386 . S
C236 C238 1.391 . S
C237 C236 1.386 . S
C237 C241 1.393 . S
C238 H230 0.950 . S
C238 C236 1.391 . S
C238 C239 1.400 . S
C239 C238 1.400 . S
C239 C240 1.398 . S
C239 C245 1.491 . S
C240 H231 0.950 . S
C240 C239 1.398 . S
C240 C241 1.391 . S
C241 H229 0.950 . S
C241 C237 1.393 . S
C241 C240 1.391 . S
C242 H232 0.950 . S
C242 C243 1.386 . S
C242 C244 1.391 . S
C243 C242 1.386 . S
C243 C247 1.393 . S
C244 H233 0.950 . S
C244 C242 1.391 . S
C244 C245 1.400 . S
C245 C239 1.491 . S
C245 C244 1.400 . S
C245 C246 1.398 . S
C246 H234 0.950 . S
C246 C245 1.398 . S
C246 C247 1.391 . S
C247 H235 0.950 . S
C247 C243 1.393 . S
C247 C246 1.391 . S
H248 C256 0.950 . S
H249 C261 0.950 . S
H250 C258 0.950 . S
H251 C260 0.950 . S
H252 C262 0.950 . S
H253 C264 0.950 . S
H254 C266 0.950 . S
H255 C267 0.950 . S
C256 H248 0.950 . S
C256 C257 1.386 . S
C256 C258 1.391 . S
C257 C256 1.386 . S
C257 C261 1.393 . S
C258 H250 0.950 . S
C258 C256 1.391 . S
C258 C259 1.400 . S
C259 C258 1.400 . S
C259 C260 1.398 . S
C259 C265 1.491 . S
C260 H251 0.950 . S
C260 C259 1.398 . S
C260 C261 1.391 . S
C261 H249 0.950 . S
C261 C257 1.393 . S
C261 C260 1.391 . S
C262 H252 0.950 . S
C262 C263 1.386 . S
C262 C264 1.391 . S
C263 C262 1.386 . S
C263 C267 1.393 . S
C264 H253 0.950 . S
C264 C262 1.391 . S
C264 C265 1.400 . S
C265 C259 1.491 . S
C265 C264 1.400 . S
C265 C266 1.398 . S
C266 H254 0.950 . S
C266 C265 1.398 . S
C266 C267 1.391 . S
C267 H255 0.950 . S
C267 C263 1.393 . S
C267 C266 1.391 . S
H268 C276 0.950 . S
H269 C281 0.950 . S
H270 C278 0.950 . S
H271 C280 0.950 . S
H272 C282 0.950 . S
H273 C284 0.950 . S
H274 C286 0.950 . S
H275 C287 0.950 . S
C276 H268 0.950 . S
C276 C277 1.386 . S
C276 C278 1.391 . S
C277 C276 1.386 . S
C277 C281 1.393 . S
C278 H270 0.950 . S
C278 C276 1.391 . S
C278 C279 1.400 . S
C279 C278 1.400 . S
C279 C280 1.398 . S
C279 C285 1.491 . S
C280 H271 0.950 . S
C280 C279 1.398 . S
C280 C281 1.391 . S
C281 H269 0.950 . S
C281 C277 1.393 . S
C281 C280 1.391 . S
C282 H272 0.950 . S
C282 C283 1.386 . S
C282 C284 1.391 . S
C283 C282 1.386 . S
C283 C287 1.393 . S
C284 H273 0.950 . S
C284 C282 1.391 . S
C284 C285 1.400 . S
C285 C279 1.491 . S
C285 C284 1.400 . S
C285 C286 1.398 . S
C286 H274 0.950 . S
C286 C285 1.398 . S
C286 C287 1.391 . S
C287 H275 0.950 . S
C287 C283 1.393 . S
C287 C286 1.391 . S
H288 C296 0.950 . S
H289 C301 0.950 . S
H290 C298 0.950 . S
H291 C300 0.950 . S
H292 C302 0.950 . S
H293 C304 0.950 . S
H294 C306 0.950 . S
H295 C307 0.950 . S
C296 H288 0.950 . S
C296 C297 1.386 . S
C296 C298 1.391 . S
C297 C296 1.386 . S
C297 C301 1.393 . S
C298 H290 0.950 . S
C298 C296 1.391 . S
C298 C299 1.400 . S
C299 C298 1.400 . S
C299 C300 1.398 . S
C299 C305 1.491 . S
C300 H291 0.950 . S
C300 C299 1.398 . S
C300 C301 1.391 . S
C301 H289 0.950 . S
C301 C297 1.393 . S
C301 C300 1.391 . S
C302 H292 0.950 . S
C302 C303 1.386 . S
C302 C304 1.391 . S
C303 C302 1.386 . S
C303 C307 1.393 . S
C304 H293 0.950 . S
C304 C302 1.391 . S
C304 C305 1.400 . S
C305 C299 1.491 . S
C305 C304 1.400 . S
C305 C306 1.398 . S
C306 H294 0.950 . S
C306 C305 1.398 . S
C306 C307 1.391 . S
C307 H295 0.950 . S
C307 C303 1.393 . S
C307 C306 1.391 . S
H308 C316 0.950 1_565 S
H309 C321 0.950 . S
H310 C318 0.950 . S
H311 C320 0.950 1_554 S
H312 C322 0.950 1_545 S
H313 C324 0.950 . S
H314 C326 0.950 1_556 S
H315 C327 0.950 . S
C316 H308 0.950 1_545 S
C316 C317 1.386 . S
C316 C318 1.391 1_545 S
C317 C316 1.386 . S
C317 C321 1.393 . S
C318 H310 0.950 . S
C318 C316 1.391 1_565 S
C318 C319 1.400 1_565 S
C319 C318 1.400 1_545 S
C319 C320 1.398 . S
C319 C325 1.491 1_546 S
C320 H311 0.950 1_556 S
C320 C319 1.398 . S
C320 C321 1.391 . S
C321 H309 0.950 . S
C321 C317 1.393 . S
C321 C320 1.391 . S
C322 H312 0.950 1_565 S
C322 C323 1.386 . S
C322 C324 1.391 1_565 S
C323 C322 1.386 . S
C323 C327 1.393 . S
C324 H313 0.950 . S
C324 C322 1.391 1_545 S
C324 C325 1.400 1_545 S
C325 C319 1.491 1_564 S
C325 C324 1.400 1_565 S
C325 C326 1.398 . S
C326 H314 0.950 1_554 S
C326 C325 1.398 . S
C326 C327 1.391 . S
C327 H315 0.950 . S
C327 C323 1.393 . S
C327 C326 1.391 . S
C97 C32 1.464 1_545 S
C103 C7 1.490 . S
C117 C8 1.491 . S
C123 C43 1.506 . S
C137 C76 1.460 1_565 S
C143 C59 1.490 . S
C157 C62 1.469 . S
C163 C87 1.490 . S
C177 C51 0.954 . S
C183 C21 0.954 . S
C197 C37 0.953 . S
C203 C81 0.953 . S
C217 C73 1.555 1_554 S
C223 C18 1.551 . S
C237 C30 1.534 . S
C243 C65 1.556 . S
C257 C29 1.555 1_556 S
C263 C54 1.551 . S
C277 C74 1.544 . S
C283 C15 1.561 . S
C297 C10 1.556 . S
C303 C52 1.556 . S
C317 C84 1.559 . S
C323 C40 1.559 . S
