# Generated by pormake.
# Topology bcs, (6)-cn, num edge types: 1
# Building blocks:
#     Node 0, Type 0, BuildingBlock: JUFBIX_clean_sbu_0, # of connection points: 6
#     Node 1, Type 0, BuildingBlock: JUFBIX_clean_sbu_0, # of connection points: 6
#     Node 2, Type 0, BuildingBlock: JUFBIX_clean_sbu_0, # of connection points: 6
#     Node 3, Type 0, BuildingBlock: JUFBIX_clean_sbu_0, # of connection points: 6
#     Node 4, Type 0, BuildingBlock: JUFBIX_clean_sbu_0, # of connection points: 6
#     Node 5, Type 0, BuildingBlock: JUFBIX_clean_sbu_0, # of connection points: 6
#     Node 6, Type 0, BuildingBlock: JUFBIX_clean_sbu_0, # of connection points: 6
#     Node 7, Type 0, BuildingBlock: JUFBIX_clean_sbu_0, # of connection points: 6
#     Node 8, Type 0, BuildingBlock: JUFBIX_clean_sbu_0, # of connection points: 6
#     Node 9, Type 0, BuildingBlock: JUFBIX_clean_sbu_0, # of connection points: 6
#     Node 10, Type 0, BuildingBlock: JUFBIX_clean_sbu_0, # of connection points: 6
#     Node 11, Type 0, BuildingBlock: JUFBIX_clean_sbu_0, # of connection points: 6
#     Node 12, Type 0, BuildingBlock: JUFBIX_clean_sbu_0, # of connection points: 6
#     Node 13, Type 0, BuildingBlock: JUFBIX_clean_sbu_0, # of connection points: 6
#     Node 14, Type 0, BuildingBlock: JUFBIX_clean_sbu_0, # of connection points: 6
#     Node 15, Type 0, BuildingBlock: JUFBIX_clean_sbu_0, # of connection points: 6
#     Edge 16, Type (0, 0), BuildingBlock: KIFKEQ_clean_linker_1, # of connection points: 2
#     Edge 17, Type (0, 0), BuildingBlock: KIFKEQ_clean_linker_1, # of connection points: 2
#     Edge 18, Type (0, 0), BuildingBlock: KIFKEQ_clean_linker_1, # of connection points: 2
#     Edge 19, Type (0, 0), BuildingBlock: KIFKEQ_clean_linker_1, # of connection points: 2
#     Edge 20, Type (0, 0), BuildingBlock: KIFKEQ_clean_linker_1, # of connection points: 2
#     Edge 21, Type (0, 0), BuildingBlock: KIFKEQ_clean_linker_1, # of connection points: 2
#     Edge 22, Type (0, 0), BuildingBlock: KIFKEQ_clean_linker_1, # of connection points: 2
#     Edge 23, Type (0, 0), BuildingBlock: KIFKEQ_clean_linker_1, # of connection points: 2
#     Edge 24, Type (0, 0), BuildingBlock: KIFKEQ_clean_linker_1, # of connection points: 2
#     Edge 25, Type (0, 0), BuildingBlock: KIFKEQ_clean_linker_1, # of connection points: 2
#     Edge 26, Type (0, 0), BuildingBlock: KIFKEQ_clean_linker_1, # of connection points: 2
#     Edge 27, Type (0, 0), BuildingBlock: KIFKEQ_clean_linker_1, # of connection points: 2
#     Edge 28, Type (0, 0), BuildingBlock: KIFKEQ_clean_linker_1, # of connection points: 2
#     Edge 29, Type (0, 0), BuildingBlock: KIFKEQ_clean_linker_1, # of connection points: 2
#     Edge 30, Type (0, 0), BuildingBlock: KIFKEQ_clean_linker_1, # of connection points: 2
#     Edge 31, Type (0, 0), BuildingBlock: KIFKEQ_clean_linker_1, # of connection points: 2
#     Edge 32, Type (0, 0), BuildingBlock: KIFKEQ_clean_linker_1, # of connection points: 2
#     Edge 33, Type (0, 0), BuildingBlock: KIFKEQ_clean_linker_1, # of connection points: 2
#     Edge 34, Type (0, 0), BuildingBlock: KIFKEQ_clean_linker_1, # of connection points: 2
#     Edge 35, Type (0, 0), BuildingBlock: KIFKEQ_clean_linker_1, # of connection points: 2
#     Edge 36, Type (0, 0), BuildingBlock: KIFKEQ_clean_linker_1, # of connection points: 2
#     Edge 37, Type (0, 0), BuildingBlock: KIFKEQ_clean_linker_1, # of connection points: 2
#     Edge 38, Type (0, 0), BuildingBlock: KIFKEQ_clean_linker_1, # of connection points: 2
#     Edge 39, Type (0, 0), BuildingBlock: KIFKEQ_clean_linker_1, # of connection points: 2
#     Edge 40, Type (0, 0), BuildingBlock: KIFKEQ_clean_linker_1, # of connection points: 2
#     Edge 41, Type (0, 0), BuildingBlock: KIFKEQ_clean_linker_1, # of connection points: 2
#     Edge 42, Type (0, 0), BuildingBlock: KIFKEQ_clean_linker_1, # of connection points: 2
#     Edge 43, Type (0, 0), BuildingBlock: KIFKEQ_clean_linker_1, # of connection points: 2
#     Edge 44, Type (0, 0), BuildingBlock: KIFKEQ_clean_linker_1, # of connection points: 2
#     Edge 45, Type (0, 0), BuildingBlock: KIFKEQ_clean_linker_1, # of connection points: 2
#     Edge 46, Type (0, 0), BuildingBlock: KIFKEQ_clean_linker_1, # of connection points: 2
#     Edge 47, Type (0, 0), BuildingBlock: KIFKEQ_clean_linker_1, # of connection points: 2
#     Edge 48, Type (0, 0), BuildingBlock: KIFKEQ_clean_linker_1, # of connection points: 2
#     Edge 49, Type (0, 0), BuildingBlock: KIFKEQ_clean_linker_1, # of connection points: 2
#     Edge 50, Type (0, 0), BuildingBlock: KIFKEQ_clean_linker_1, # of connection points: 2
#     Edge 51, Type (0, 0), BuildingBlock: KIFKEQ_clean_linker_1, # of connection points: 2
#     Edge 52, Type (0, 0), BuildingBlock: KIFKEQ_clean_linker_1, # of connection points: 2
#     Edge 53, Type (0, 0), BuildingBlock: KIFKEQ_clean_linker_1, # of connection points: 2
#     Edge 54, Type (0, 0), BuildingBlock: KIFKEQ_clean_linker_1, # of connection points: 2
#     Edge 55, Type (0, 0), BuildingBlock: KIFKEQ_clean_linker_1, # of connection points: 2
#     Edge 56, Type (0, 0), BuildingBlock: KIFKEQ_clean_linker_1, # of connection points: 2
#     Edge 57, Type (0, 0), BuildingBlock: KIFKEQ_clean_linker_1, # of connection points: 2
#     Edge 58, Type (0, 0), BuildingBlock: KIFKEQ_clean_linker_1, # of connection points: 2
#     Edge 59, Type (0, 0), BuildingBlock: KIFKEQ_clean_linker_1, # of connection points: 2
#     Edge 60, Type (0, 0), BuildingBlock: KIFKEQ_clean_linker_1, # of connection points: 2
#     Edge 61, Type (0, 0), BuildingBlock: KIFKEQ_clean_linker_1, # of connection points: 2
#     Edge 62, Type (0, 0), BuildingBlock: KIFKEQ_clean_linker_1, # of connection points: 2
#     Edge 63, Type (0, 0), BuildingBlock: KIFKEQ_clean_linker_1, # of connection points: 2
# Relax obj value: 0.391
# Max RMSD: 0.294
# Mean RMSD: 0.241
data_MOF--net-bcs--node1-JUFBIX_clean_sbu_0--edge1-KIFKEQ_clean_linker_1
_symmetry_space_group_name_H-M    P1
_symmetry_Int_Tables_number       1
_symmetry_cell_setting            triclinic
loop_
_symmetry_equiv_pos_as_xyz
'x, y, z'
_cell_length_a     35.737494
_cell_length_b     37.327226
_cell_length_c     36.699992
_cell_angle_alpha  97.588332
_cell_angle_beta   97.157501
_cell_angle_gamma 88.487304
loop_
_atom_site_label
_atom_site_type_symbol
_atom_site_fract_x
_atom_site_fract_y
_atom_site_fract_z
_atom_type_partial_charge
Co0 Co 0.99591 1.00104 1.01069 0.0
C1 C 0.98472 0.06252 0.06458 0.0
Co2 Co 0.04059 0.04211 0.01682 0.0
C3 C 0.95097 0.95152 0.04098 0.0
C4 C 0.93597 0.94903 0.98243 0.0
N5 N 0.95941 0.96573 1.01083 0.0
N6 N 0.92326 0.92666 0.03266 0.0
C7 C 0.9137 0.92517 0.99573 0.0
H8 H 0.96454 0.9598 0.06876 0.0
H9 H 0.93512 0.95385 0.95392 0.0
C10 C 0.05184 0.9806 0.96294 0.0
N11 N 0.07676 0.07754 0.01622 0.0
C12 C 0.08723 0.08799 0.98499 0.0
C13 C 0.09503 0.10019 0.04399 0.0
N14 N 0.11107 0.11632 0.99189 0.0
C15 C 0.11604 0.12405 0.02916 0.0
C16 C 0.06157 0.98805 0.06333 0.0
O17 O 0.02039 0.97042 0.97142 0.0
O18 O 0.06447 1.01119 0.97868 0.0
O19 O 0.0732 1.01773 0.05471 0.0
O20 O 0.02887 0.97734 0.04827 0.0
O21 O 1.01602 0.07275 0.05583 0.0
H22 H 0.09254 0.09997 0.07303 0.0
H23 H 0.07629 0.07579 0.95745 0.0
O24 O 0.9721 0.0318 0.04909 0.0
O25 O 0.96325 0.02573 0.97295 0.0
O26 O 1.00784 0.06573 0.97911 0.0
C27 C 0.97503 0.05527 0.96421 0.0
H28 H 0.89243 0.90777 0.97931 0.0
H29 H 0.1335 0.14547 0.0447 0.0
Co30 Co 0.29223 0.77411 0.24577 0.0
C31 C 0.29538 0.82664 0.30802 0.0
Co32 Co 0.24703 0.77004 0.28067 0.0
C33 C 0.33944 0.80914 0.20332 0.0
C34 C 0.35724 0.75448 0.20746 0.0
N35 N 0.33085 0.77911 0.21737 0.0
N36 N 0.37019 0.80431 0.18522 0.0
C37 C 0.38159 0.76996 0.18786 0.0
H38 H 0.32398 0.83443 0.20706 0.0
H39 H 0.35885 0.7271 0.21424 0.0
C40 C 0.24407 0.71754 0.21856 0.0
N41 N 0.20854 0.76486 0.30912 0.0
C42 C 0.20083 0.73479 0.32354 0.0
C43 C 0.18151 0.78892 0.31871 0.0
N44 N 0.17007 0.73902 0.34161 0.0
C45 C 0.15766 0.77302 0.33853 0.0
C46 C 0.22646 0.81614 0.22391 0.0
O47 O 0.27265 0.73383 0.21156 0.0
O48 O 0.22874 0.72895 0.2474 0.0
O49 O 0.2144 0.80256 0.25053 0.0
O50 O 0.25992 0.80729 0.21706 0.0
O51 O 0.26586 0.81121 0.31417 0.0
H52 H 0.1791 0.81614 0.31153 0.0
H53 H 0.21691 0.70985 0.32005 0.0
O54 O 0.31133 0.81431 0.2798 0.0
O55 O 0.32438 0.74058 0.27522 0.0
O56 O 0.27968 0.73782 0.31009 0.0
C57 C 0.31264 0.72791 0.30252 0.0
H58 H 0.40559 0.7569 0.17615 0.0
H59 H 0.13331 0.78553 0.35004 0.0
Co60 Co 0.52306 0.99682 0.52777 0.0
C61 C 0.58606 0.03911 0.54571 0.0
Co62 Co 0.51661 0.04658 0.50214 0.0
C63 C 0.55401 0.92872 0.54284 0.0
C64 C 0.49823 0.93635 0.55813 0.0
N65 N 0.52576 0.95303 0.54503 0.0
N66 N 0.54526 0.89719 0.55375 0.0
C67 C 0.51014 0.90198 0.56354 0.0
H68 H 0.58054 0.93437 0.53357 0.0
H69 H 0.47096 0.94816 0.56266 0.0
C70 C 0.4536 1.00416 0.48408 0.0
N71 N 0.51345 0.0904 0.48495 0.0
C72 C 0.48365 0.11303 0.48462 0.0
C73 C 0.54099 0.10838 0.47332 0.0
N74 N 0.49129 0.14469 0.47334 0.0
C75 C 0.52742 0.14183 0.46611 0.0
C76 C 0.54297 0.99213 0.45623 0.0
O77 O 0.4731 0.98557 0.50614 0.0
O78 O 0.4668 0.03387 0.47811 0.0
O79 O 0.53594 0.02572 0.4591 0.0
O80 O 0.54019 0.97492 0.48334 0.0
O81 O 0.56568 0.0587 0.52533 0.0
H82 H 0.56919 0.09799 0.47063 0.0
H83 H 0.45665 0.10596 0.49196 0.0
O84 O 0.57371 1.00851 0.55016 0.0
O85 O 0.50597 1.01827 0.57155 0.0
O86 O 0.49717 0.06797 0.54575 0.0
C87 C 0.49656 0.05132 0.57368 0.0
H88 H 0.49402 0.88217 0.57378 0.0
H89 H 0.54298 0.16223 0.45614 0.0
Co90 Co 0.24389 0.29137 0.759 0.0
C91 C 0.3059 0.30072 0.81239 0.0
Co92 Co 0.28274 0.24526 0.75627 0.0
C93 C 0.17518 0.33136 0.76132 0.0
C94 C 0.22117 0.36514 0.75615 0.0
N95 N 0.2123 0.33069 0.75835 0.0
N96 N 0.1605 0.36503 0.76208 0.0
C97 C 0.18935 0.38634 0.75847 0.0
H98 H 0.15962 0.3078 0.76475 0.0
H99 H 0.24929 0.37451 0.75481 0.0
C100 C 0.22062 0.23593 0.70287 0.0
N101 N 0.31381 0.20564 0.75701 0.0
C102 C 0.35165 0.20433 0.75919 0.0
C103 C 0.30314 0.17126 0.75651 0.0
N104 N 0.36529 0.17024 0.7595 0.0
C105 C 0.33458 0.14947 0.75795 0.0
C106 C 0.22664 0.24111 0.80352 0.0
O107 O 0.21192 0.26694 0.71839 0.0
O108 O 0.25104 0.22091 0.71524 0.0
O109 O 0.25472 0.22555 0.78998 0.0
O110 O 0.21593 0.27158 0.79375 0.0
O111 O 0.31436 0.2695 0.79717 0.0
H112 H 0.27423 0.1625 0.75428 0.0
H113 H 0.36853 0.22799 0.75949 0.0
O114 O 0.27578 0.31602 0.79967 0.0
O115 O 0.27174 0.31088 0.72499 0.0
O116 O 0.31126 0.26524 0.72211 0.0
C117 C 0.30039 0.29564 0.71214 0.0
H118 H 0.18833 0.41555 0.76071 0.0
H119 H 0.33431 0.12029 0.7555 0.0
Co120 Co 0.02747 1.01307 0.48921 0.0
C121 C 0.04166 0.08198 0.52287 0.0
Co122 Co 0.99192 0.02837 0.53368 0.0
C123 C 0.05938 1.01228 0.4216 0.0
C124 C 0.07611 0.96555 0.44781 0.0
N125 N 0.05603 0.99665 0.45196 0.0
N126 N 0.08056 0.9922 0.39848 0.0
C127 C 0.09155 0.96287 0.41498 0.0
H128 H 0.04689 0.03825 0.41685 0.0
H129 H 0.07903 0.94595 0.46725 0.0
C130 C 0.97772 0.95951 0.49991 0.0
N131 N 0.96337 0.04471 0.571 0.0
C132 C 0.96056 0.02917 0.60153 0.0
C133 C 0.94277 0.0755 0.57506 0.0
N134 N 0.93924 0.04901 0.62467 0.0
C135 C 0.92755 0.07806 0.60802 0.0
C136 C 0.95789 0.03941 0.46476 0.0
O137 O 1.00422 0.96726 0.48235 0.0
O138 O 0.96813 0.98234 0.52612 0.0
O139 O 0.95407 0.0433 0.49891 0.0
O140 O 0.98904 0.02828 0.45409 0.0
O141 O 1.01539 0.07417 0.54072 0.0
H142 H 0.93932 0.09496 0.55548 0.0
H143 H 0.97351 1.00341 0.60639 0.0
O144 O 0.05101 0.05916 0.49654 0.0
O145 O 0.06534 0.99831 0.52392 0.0
O146 O 0.03036 1.01282 0.56881 0.0
C147 C 0.06151 1.00178 0.55803 0.0
H148 H 0.10921 0.94107 0.40403 0.0
H149 H 0.90954 0.09957 0.61895 0.0
Co150 Co 0.2719 0.75631 0.78443 0.0
C151 C 0.32559 0.8085 0.79371 0.0
Co152 Co 0.26441 0.79012 0.74009 0.0
C153 C 0.27715 0.691 0.81633 0.0
C154 C 0.27871 0.73723 0.85778 0.0
N155 N 0.27572 0.7273 0.82092 0.0
N156 N 0.28174 0.67761 0.84892 0.0
C157 C 0.28251 0.70669 0.87511 0.0
H158 H 0.27617 0.67484 0.7895 0.0
H159 H 0.27961 0.76487 0.87115 0.0
C160 C 0.21069 0.73795 0.7308 0.0
N161 N 0.26055 0.81916 0.70356 0.0
C162 C 0.25805 0.85543 0.70792 0.0
C163 C 0.2583 0.8091 0.66676 0.0
N164 N 0.25349 0.86864 0.67521 0.0
C165 C 0.25388 0.83949 0.64923 0.0
C166 C 0.31293 0.72929 0.72418 0.0
O167 O 0.22893 0.72998 0.76063 0.0
O168 O 0.22181 0.76396 0.71603 0.0
O169 O 0.29755 0.75718 0.71176 0.0
O170 O 0.30567 0.72318 0.75601 0.0
O171 O 0.30723 0.8166 0.76398 0.0
H172 H 0.25822 0.78143 0.65352 0.0
H173 H 0.25818 0.87168 0.73462 0.0
O174 O 0.31461 0.78234 0.80836 0.0
O175 O 0.23901 0.78924 0.81285 0.0
O176 O 0.23044 0.82314 0.76853 0.0
C177 C 0.22343 0.81703 0.80046 0.0
H178 H 0.28824 0.70619 0.9047 0.0
H179 H 0.24843 0.83975 0.61959 0.0
Co180 Co 0.49193 0.03853 1.00812 0.0
C181 C 0.53765 0.06738 0.0693 0.0
Co182 Co 0.54491 1.00798 0.01548 0.0
C183 C 0.41982 0.06532 0.02314 0.0
C184 C 0.42936 0.07271 0.96828 0.0
N185 N 0.44582 0.06048 0.99952 0.0
N186 N 0.38769 0.07986 1.00807 0.0
C187 C 0.39358 0.0852 0.97369 0.0
H188 H 0.42475 0.05924 0.05141 0.0
H189 H 0.4425 0.07249 0.94325 0.0
C190 C 0.49935 0.97947 0.95404 0.0
N191 N 0.59087 0.98568 0.0235 0.0
C192 C 0.61507 0.97871 0.99826 0.0
C193 C 0.60777 0.9725 0.05401 0.0
N194 N 0.64639 0.96159 1.01146 0.0
C195 C 0.64193 0.95709 0.04645 0.0
C196 C 0.48997 0.98105 0.05016 0.0
O197 O 0.47866 1.00571 0.96525 0.0
O198 O 0.53126 0.97459 0.97224 0.0
O199 O 0.52402 0.97657 0.04399 0.0
O200 O 0.47088 1.00674 0.03726 0.0
O201 O 0.55826 0.04089 0.05838 0.0
H202 H 0.59565 0.97325 0.07968 0.0
H203 H 0.60891 0.98438 0.96993 0.0
O204 O 0.50557 0.07207 0.05123 0.0
O205 O 0.5128 0.06986 0.97967 0.0
O206 O 0.56598 0.03975 0.98645 0.0
C207 C 0.54686 0.06543 0.97357 0.0
H208 H 0.37368 0.09755 0.95422 0.0
H209 H 0.66135 0.94283 0.06468 0.0
Co210 Co 0.23895 0.24669 0.26392 0.0
C211 C 0.23249 0.31529 0.30098 0.0
Co212 Co 0.28241 0.28402 0.25513 0.0
C213 C 0.2024 0.18146 0.27148 0.0
C214 C 0.1628 0.22422 0.26169 0.0
N215 N 0.20004 0.21678 0.26738 0.0
N216 N 0.16811 0.1664 0.2681 0.0
C217 C 0.14304 0.19321 0.26209 0.0
H218 H 0.22882 0.16685 0.27581 0.0
H219 H 0.15085 0.25032 0.25671 0.0
C220 C 0.28931 0.21557 0.21829 0.0
N221 N 0.32145 0.31383 0.25166 0.0
C222 C 0.31958 0.34893 0.24656 0.0
C223 C 0.3586 0.30607 0.2578 0.0
N224 N 0.3541 0.36351 0.24974 0.0
C225 C 0.37877 0.33663 0.25667 0.0
C226 C 0.29774 0.24795 0.31751 0.0
O227 O 0.26065 0.20934 0.23352 0.0
O228 O 0.30439 0.24648 0.22544 0.0
O229 O 0.30934 0.27003 0.29813 0.0
O230 O 0.26664 0.23198 0.3068 0.0
O231 O 0.26052 0.32139 0.28479 0.0
H232 H 0.37021 0.28002 0.26342 0.0
H233 H 0.29336 0.3637 0.24152 0.0
O234 O 0.21736 0.28432 0.29447 0.0
O235 O 0.21167 0.26117 0.22129 0.0
O236 O 0.25505 0.2982 0.21191 0.0
C237 C 0.2236 0.28274 0.20156 0.0
H238 H 0.11266 0.19067 0.25873 0.0
H239 H 0.40919 0.33878 0.26007 0.0
Co240 Co 0.53735 0.50551 0.98395 0.0
C241 C 0.55386 0.57331 0.02085 0.0
Co242 Co 0.50289 0.5203 0.02932 0.0
C243 C 0.56999 0.50749 0.91708 0.0
C244 C 0.58481 0.45872 0.94036 0.0
N245 N 0.56552 0.49015 0.94605 0.0
N246 N 0.59119 0.48821 0.89341 0.0
C247 C 0.60096 0.45759 0.90805 0.0
H248 H 0.55844 0.53413 0.91378 0.0
H249 H 0.58685 0.43793 0.95846 0.0
C250 C 0.48635 0.4526 0.99264 0.0
N251 N 0.47467 0.5357 0.06712 0.0
C252 C 0.47012 0.51849 0.09616 0.0
C253 C 0.45518 0.56703 0.07249 0.0
N254 N 0.4486 0.53775 0.11956 0.0
C255 C 0.43881 0.56824 0.10467 0.0
C256 C 0.46895 0.53524 0.96158 0.0
O257 O 0.51186 0.4609 0.97416 0.0
O258 O 0.47857 0.47439 0.02045 0.0
O259 O 0.46513 0.53669 0.99557 0.0
O260 O 0.49993 0.52453 0.95019 0.0
O261 O 0.52672 0.56578 0.03768 0.0
H262 H 0.45306 0.58765 0.05419 0.0
H263 H 0.48176 0.49191 0.09962 0.0
O264 O 0.56337 0.55068 0.99441 0.0
O265 O 0.57393 0.48674 0.01721 0.0
O266 O 0.54133 0.50353 0.06344 0.0
C267 C 0.57117 0.49008 0.05156 0.0
H268 H 0.61832 0.436 0.89619 0.0
H269 H 0.4212 0.58978 0.11622 0.0
Co270 Co 0.77266 0.25371 0.28654 0.0
C271 C 0.82719 0.30493 0.30094 0.0
Co272 Co 0.76791 0.2898 0.24417 0.0
C273 C 0.77257 0.18655 0.31491 0.0
C274 C 0.77384 0.23133 0.358 0.0
N275 N 0.77316 0.22285 0.32113 0.0
N276 N 0.77352 0.17172 0.34656 0.0
C277 C 0.77417 0.19995 0.37374 0.0
H278 H 0.77254 0.17138 0.28767 0.0
H279 H 0.77524 0.25851 0.37255 0.0
C280 C 0.71305 0.23878 0.22987 0.0
N281 N 0.76766 0.32112 0.20989 0.0
C282 C 0.7649 0.35733 0.21658 0.0
C283 C 0.77059 0.31372 0.17342 0.0
N284 N 0.76521 0.37299 0.18567 0.0
C285 C 0.76901 0.34564 0.15841 0.0
C286 C 0.81551 0.22822 0.22753 0.0
O287 O 0.73015 0.22936 0.25957 0.0
O288 O 0.72517 0.26554 0.21686 0.0
O289 O 0.80138 0.25702 0.21606 0.0
O290 O 0.80699 0.22098 0.25855 0.0
O291 O 0.81028 0.31429 0.27118 0.0
H292 H 0.77227 0.28686 0.15846 0.0
H293 H 0.76111 0.37198 0.24337 0.0
O294 O 0.8154 0.27797 0.31377 0.0
O295 O 0.73869 0.28614 0.31446 0.0
O296 O 0.73396 0.32253 0.27243 0.0
C297 C 0.72484 0.31509 0.30311 0.0
H298 H 0.7774 0.1982 0.40317 0.0
H299 H 0.7675 0.34828 0.12923 0.0
Co300 Co 0.99969 0.53099 0.50898 0.0
C301 C 0.04266 0.56231 0.57143 0.0
Co302 Co 0.05354 0.50249 0.51989 0.0
C303 C 0.92771 0.55833 0.52265 0.0
C304 C 0.93721 0.56415 0.46739 0.0
N305 N 0.95327 0.55185 0.49872 0.0
N306 N 0.89632 0.57425 0.50785 0.0
C307 C 0.90216 0.57855 0.47317 0.0
H308 H 0.93285 0.55322 0.55123 0.0
H309 H 0.95048 0.56351 0.44238 0.0
C310 C 1.01069 0.47074 0.45786 0.0
N311 N 0.1 0.48165 0.53016 0.0
C312 C 0.12549 0.47534 0.50614 0.0
C313 C 0.11596 0.46872 0.56119 0.0
N314 N 0.15671 0.45887 0.52055 0.0
C315 C 0.15082 0.45405 0.55508 0.0
C316 C 0.99776 0.47513 0.55294 0.0
O317 O 0.98863 0.49681 0.46643 0.0
O318 O 0.04198 0.46752 0.47775 0.0
O319 O 0.03242 0.4716 0.5488 0.0
O320 O 0.9784 0.49952 0.538 0.0
O321 O 0.06474 0.53657 0.56193 0.0
H322 H 0.10263 0.46892 0.58611 0.0
H323 H 0.12027 0.48069 0.47764 0.0
O324 O 1.01114 0.56564 0.55186 0.0
O325 O 0.02068 0.56208 0.48062 0.0
O326 O 0.07477 0.534 0.49027 0.0
C327 C 0.05519 0.55868 0.47594 0.0
H328 H 0.88305 0.59202 0.45397 0.0
H329 H 0.16965 0.43979 0.57384 0.0
Co330 Co 0.74513 0.79071 0.25893 0.0
C331 C 0.806 0.80378 0.31371 0.0
Co332 Co 0.78625 0.74639 0.25909 0.0
C333 C 0.67501 0.82897 0.25954 0.0
C334 C 0.71989 0.8632 0.25239 0.0
N335 N 0.71206 0.82888 0.25625 0.0
N336 N 0.65942 0.86221 0.25902 0.0
C337 C 0.68758 0.88375 0.2541 0.0
H338 H 0.66021 0.80541 0.26426 0.0
H339 H 0.74768 0.87305 0.25048 0.0
C340 C 0.72532 0.73318 0.20437 0.0
N341 N 0.81893 0.70807 0.26195 0.0
C342 C 0.85674 0.70795 0.26358 0.0
C343 C 0.80971 0.67365 0.26355 0.0
N344 N 0.87175 0.67453 0.26548 0.0
C345 C 0.84196 0.65301 0.26567 0.0
C346 C 0.72922 0.74164 0.30527 0.0
O347 O 0.71495 0.76417 0.21854 0.0
O348 O 0.75611 0.71973 0.21812 0.0
O349 O 0.75843 0.72694 0.29316 0.0
O350 O 0.71713 0.77099 0.29371 0.0
O351 O 0.81608 0.77267 0.29966 0.0
H352 H 0.78123 0.66399 0.26212 0.0
H353 H 0.87257 0.73189 0.26213 0.0
O354 O 0.7755 0.8176 0.2997 0.0
O355 O 0.7728 0.80995 0.22461 0.0
O356 O 0.81472 0.76631 0.22477 0.0
C357 C 0.80242 0.79556 0.21301 0.0
H358 H 0.68586 0.91286 0.25516 0.0
H359 H 0.84279 0.62392 0.26465 0.0
Co360 Co 0.7925 0.27425 0.74653 0.0
C361 C 0.79598 0.32784 0.80784 0.0
Co362 Co 0.74698 0.27146 0.78121 0.0
C363 C 0.84083 0.30735 0.70374 0.0
C364 C 0.8572 0.25247 0.70876 0.0
N365 N 0.8313 0.27787 0.71812 0.0
N366 N 0.87173 0.30146 0.68602 0.0
C367 C 0.88225 0.26699 0.68919 0.0
H368 H 0.82598 0.33301 0.70705 0.0
H369 H 0.85804 0.22527 0.71598 0.0
C370 C 0.74351 0.21792 0.7199 0.0
N371 N 0.70826 0.26762 0.80963 0.0
C372 C 0.69918 0.23788 0.82382 0.0
C373 C 0.68219 0.2927 0.81934 0.0
N374 N 0.66845 0.24328 0.84183 0.0
C375 C 0.65751 0.27771 0.83899 0.0
C376 C 0.72728 0.31679 0.72373 0.0
O377 O 0.77289 0.23327 0.71334 0.0
O378 O 0.72776 0.23058 0.74814 0.0
O379 O 0.71521 0.30416 0.75085 0.0
O380 O 0.7605 0.30703 0.71667 0.0
O381 O 0.76652 0.31255 0.81434 0.0
H382 H 0.681 0.31999 0.81232 0.0
H383 H 0.71425 0.21237 0.82017 0.0
O384 O 0.81181 0.31509 0.77966 0.0
O385 O 0.82421 0.24141 0.77688 0.0
O386 O 0.77896 0.23879 0.81109 0.0
C387 C 0.81209 0.22885 0.80401 0.0
H388 H 0.90615 0.25324 0.67794 0.0
H389 H 0.63361 0.29113 0.85054 0.0
Co390 Co 0.74868 0.74819 0.76233 0.0
C391 C 0.73837 0.81635 0.79834 0.0
Co392 Co 0.79149 0.78677 0.75477 0.0
C393 C 0.71376 0.68168 0.76932 0.0
C394 C 0.67327 0.72322 0.75757 0.0
N395 N 0.71062 0.71684 0.76459 0.0
N396 N 0.67984 0.66573 0.76509 0.0
C397 C 0.65424 0.69178 0.75784 0.0
H398 H 0.74048 0.66786 0.77482 0.0
H399 H 0.66076 0.74892 0.75191 0.0
C400 C 0.80171 0.71863 0.71873 0.0
N401 N 0.82939 0.8183 0.75254 0.0
C402 C 0.82558 0.85352 0.74828 0.0
C403 C 0.86685 0.81251 0.75951 0.0
N404 N 0.85914 0.87013 0.75277 0.0
C405 C 0.88527 0.84442 0.75968 0.0
C406 C 0.80615 0.75149 0.81763 0.0
O407 O 0.77295 0.71169 0.73346 0.0
O408 O 0.81571 0.75006 0.7257 0.0
O409 O 0.8179 0.77356 0.79832 0.0
O410 O 0.77551 0.73488 0.80631 0.0
O411 O 0.76723 0.82324 0.78376 0.0
H412 H 0.87983 0.78694 0.76498 0.0
H413 H 0.79858 0.86695 0.74309 0.0
O414 O 0.72438 0.78494 0.79131 0.0
O415 O 0.72231 0.76136 0.71857 0.0
O416 O 0.76472 0.80018 0.71097 0.0
C417 C 0.73415 0.78356 0.69943 0.0
H418 H 0.62394 0.68847 0.75362 0.0
H419 H 0.91548 0.84832 0.76408 0.0
Co420 Co 0.49619 0.50128 0.51108 0.0
C421 C 0.4847 0.56319 0.56404 0.0
Co422 Co 0.54056 0.54246 0.516 0.0
C423 C 0.44881 0.45458 0.54194 0.0
C424 C 0.44192 0.44384 0.48281 0.0
N425 N 0.45992 0.46581 0.51133 0.0
N426 N 0.42485 0.42633 0.53385 0.0
C427 C 0.42046 0.41958 0.49651 0.0
H428 H 0.45928 0.46618 0.56984 0.0
H429 H 0.44485 0.44484 0.45398 0.0
C430 C 0.55186 0.48067 0.4629 0.0
N431 N 0.57698 0.5777 0.51546 0.0
C432 C 0.5849 0.59145 0.48489 0.0
C433 C 0.60092 0.59458 0.54334 0.0
N434 N 0.6127 0.61621 0.49239 0.0
C435 C 0.62295 0.61811 0.52926 0.0
C436 C 0.56176 0.48857 0.5633 0.0
O437 O 0.52138 0.47009 0.47302 0.0
O438 O 0.56385 0.51199 0.47705 0.0
O439 O 0.57359 0.51762 0.55347 0.0
O440 O 0.52859 0.47828 0.54941 0.0
O441 O 0.51632 0.57303 0.55558 0.0
H442 H 0.60233 0.59005 0.57199 0.0
H443 H 0.57094 0.58284 0.45734 0.0
O444 O 0.47186 0.53258 0.54852 0.0
O445 O 0.46379 0.52526 0.47233 0.0
O446 O 0.50755 0.56617 0.47893 0.0
C447 C 0.47511 0.55507 0.46369 0.0
H448 H 0.40305 0.39857 0.48016 0.0
H449 H 0.64457 0.63553 0.54508 0.0
Co450 Co 0.01817 0.49788 0.02901 0.0
C451 C 0.08286 0.53752 0.04874 0.0
Co452 Co 1.01511 0.54794 1.00385 0.0
C453 C 0.04593 0.42876 0.04391 0.0
C454 C 0.98998 0.43814 0.05828 0.0
N455 N 0.0185 0.45394 0.04577 0.0
N456 N 0.03577 0.39756 0.05451 0.0
C457 C 1.00055 0.40342 0.06375 0.0
H458 H 0.073 0.43358 0.03526 0.0
H459 H 0.96302 0.45083 0.06247 0.0
C460 C 0.95041 0.50778 0.98401 0.0
N461 N 1.01429 0.59192 0.98714 0.0
C462 C 0.98544 0.61567 0.9868 0.0
C463 C 0.04288 0.60899 0.97617 0.0
N464 N 0.9947 0.64715 0.97618 0.0
C465 C 0.03088 0.64301 0.96933 0.0
C466 C 0.04036 0.49281 0.95822 0.0
O467 O 0.96838 0.48856 1.0064 0.0
O468 O 0.9652 0.53695 0.97852 0.0
O469 O 0.03486 0.52664 0.96137 0.0
O470 O 0.03571 0.47552 0.98483 0.0
O471 O 0.06433 0.55824 0.02825 0.0
H472 H 0.07074 0.59758 0.97373 0.0
H473 H 0.95795 0.60954 0.99368 0.0
O474 O 0.06861 0.50758 0.05256 0.0
O475 O 1.00083 0.51978 0.07246 0.0
O476 O 0.9953 0.56988 0.04707 0.0
C477 C 0.99318 0.55323 0.07473 0.0
H478 H 0.98355 0.38413 0.07373 0.0
H479 H 0.0475 0.66295 0.95986 0.0
H480 H 0.17237 0.26946 0.84716 0.0
H481 H 0.2383 0.17282 0.82176 0.0
H482 H 0.14351 0.24009 0.89271 0.0
H483 H 0.20983 0.14384 0.86694 0.0
H484 H 0.1243 0.0885 0.92238 0.0
H485 H 0.14984 0.11945 0.87663 0.0
H486 H 0.15963 0.21749 0.95386 0.0
H487 H 0.13329 0.18658 0.99956 0.0
C488 C 0.18063 0.24199 0.85115 0.0
C489 C 0.20769 0.22359 0.83063 0.0
C490 C 0.16427 0.2252 0.87745 0.0
C491 C 0.17419 0.18945 0.88357 0.0
C492 C 0.20102 0.17114 0.86277 0.0
C493 C 0.21756 0.18793 0.83688 0.0
C494 C 0.13156 0.11672 0.92963 0.0
C495 C 0.12665 0.13488 0.96487 0.0
C496 C 0.14658 0.13446 0.9034 0.0
C497 C 0.15698 0.17106 0.91142 0.0
C498 C 0.1517 0.18942 0.94651 0.0
C499 C 0.13696 0.17153 0.97293 0.0
H500 H 0.04123 0.92776 0.0929 0.0
H501 H 0.13799 0.99385 0.09208 0.0
H502 H 0.07965 0.88815 0.13079 0.0
H503 H 0.17671 0.95416 0.13027 0.0
H504 H 0.2464 0.85586 0.17028 0.0
H505 H 0.20816 0.89704 0.13386 0.0
H506 H 0.11236 0.87762 0.18897 0.0
H507 H 0.15073 0.83635 0.2253 0.0
C508 C 0.07072 0.93422 0.10094 0.0
C509 C 0.08588 0.96472 0.08896 0.0
C510 C 0.09307 0.91124 0.12313 0.0
C511 C 0.13205 0.91713 0.13433 0.0
C512 C 0.14721 0.94777 0.1224 0.0
C513 C 0.12469 0.97105 0.10048 0.0
C514 C 0.21717 0.86024 0.17482 0.0
C515 C 0.2022 0.84208 0.20122 0.0
C516 C 0.19498 0.88438 0.15382 0.0
C517 C 0.15641 0.89145 0.15773 0.0
C518 C 0.14148 0.87317 0.18417 0.0
C519 C 0.1638 0.84931 0.20546 0.0
H520 H 0.42128 1.01838 0.41558 0.0
H521 H 0.41079 0.95055 0.50029 0.0
H522 H 0.37645 0.98013 0.37253 0.0
H523 H 0.36653 0.91233 0.45745 0.0
H524 H 0.27512 0.85524 0.37585 0.0
H525 H 0.30536 0.90466 0.41907 0.0
H526 H 0.38325 0.91839 0.34109 0.0
H527 H 0.35299 0.86952 0.29797 0.0
C528 C 0.40854 0.99602 0.42537 0.0
C529 C 0.41973 0.98744 0.46131 0.0
C530 C 0.3832 0.97382 0.40058 0.0
C531 C 0.36825 0.94281 0.41134 0.0
C532 C 0.37724 0.93601 0.4482 0.0
C533 C 0.40274 0.95795 0.4728 0.0
C534 C 0.29845 0.86907 0.3678 0.0
C535 C 0.3118 0.85815 0.33354 0.0
C536 C 0.31584 0.89735 0.39261 0.0
C537 C 0.34677 0.91558 0.3836 0.0
C538 C 0.3592 0.9054 0.3488 0.0
C539 C 0.34203 0.87704 0.32417 0.0
H540 H 0.42197 0.20839 0.739 0.0
H541 H 0.3951 0.10293 0.76475 0.0
H542 H 0.47071 0.18145 0.70391 0.0
H543 H 0.44193 0.07585 0.72738 0.0
H544 H 0.5117 0.02966 0.64209 0.0
H545 H 0.49875 0.06285 0.70109 0.0
H546 H 0.45087 0.15062 0.64366 0.0
H547 H 0.46506 0.11816 0.58537 0.0
C548 C 0.42675 0.17961 0.73804 0.0
C549 C 0.40236 0.15741 0.75222 0.0
C550 C 0.45482 0.16414 0.71772 0.0
C551 C 0.45844 0.1264 0.71092 0.0
C552 C 0.43917 0.10502 0.73111 0.0
C553 C 0.41165 0.12056 0.75207 0.0
C554 C 0.49854 0.05615 0.64226 0.0
C555 C 0.48854 0.07109 0.60916 0.0
C556 C 0.49148 0.07524 0.67604 0.0
C557 C 0.47392 0.10941 0.67719 0.0
C558 C 0.46526 0.12475 0.64407 0.0
C559 C 0.47268 0.10587 0.61045 0.0
H560 H 0.06396 0.97313 0.62279 0.0
H561 H 0.13275 0.02065 0.55356 0.0
H562 H 0.12063 0.95655 0.66135 0.0
H563 H 0.18947 1.00618 0.59317 0.0
H564 H 0.25897 0.90099 0.61456 0.0
H565 H 0.21768 0.94876 0.59446 0.0
H566 H 0.17773 0.96664 0.70197 0.0
H567 H 0.21744 0.91728 0.72126 0.0
C568 C 0.09127 0.9808 0.61655 0.0
C569 C 0.09446 0.99669 0.58468 0.0
C570 C 0.12376 0.97189 0.63887 0.0
C571 C 0.15972 0.97951 0.6299 0.0
C572 C 0.16231 0.99908 0.60021 0.0
C573 C 0.12995 1.00714 0.57746 0.0
C574 C 0.24199 0.91565 0.63416 0.0
C575 C 0.24012 0.90415 0.66872 0.0
C576 C 0.21862 0.94351 0.62287 0.0
C577 C 0.19334 0.96065 0.64627 0.0
C578 C 0.19601 0.95306 0.68295 0.0
C579 C 0.21911 0.92486 0.69409 0.0
H580 H 0.3573 0.86457 0.76818 0.0
H581 H 0.36889 0.80063 0.85905 0.0
H582 H 0.40834 0.9033 0.79994 0.0
H583 H 0.4194 0.83982 0.89106 0.0
H584 H 0.51902 0.90826 0.93748 0.0
H585 H 0.48387 0.86331 0.8922 0.0
H586 H 0.40926 0.9477 0.85502 0.0
H587 H 0.44431 0.99217 0.89955 0.0
C588 C 0.37095 0.85858 0.79478 0.0
C589 C 0.35868 0.82989 0.8114 0.0
C590 C 0.40019 0.88075 0.81292 0.0
C591 C 0.41772 0.87474 0.84807 0.0
C592 C 0.40677 0.84491 0.8638 0.0
C593 C 0.37754 0.82269 0.84564 0.0
C594 C 0.49577 0.91718 0.91884 0.0
C595 C 0.48406 0.95355 0.92224 0.0
C596 C 0.4755 0.89149 0.89317 0.0
C597 C 0.4436 0.90194 0.87032 0.0
C598 C 0.43385 0.93875 0.87195 0.0
C599 C 0.4538 0.96424 0.89768 0.0
H600 H 0.35045 0.14318 1.00474 0.0
H601 H 0.3575 0.04623 0.05759 0.0
H602 H 0.31681 0.17379 0.05416 0.0
H603 H 0.32446 0.07688 0.10737 0.0
H604 H 0.345 0.22386 0.17627 0.0
H605 H 0.35553 0.18792 0.11834 0.0
H606 H 0.2683 0.11427 0.13111 0.0
H607 H 0.25736 0.15047 0.18956 0.0
C608 C 0.34325 0.12799 0.02601 0.0
C609 C 0.35727 0.09284 0.02819 0.0
C610 C 0.32436 0.1455 0.05438 0.0
C611 C 0.31924 0.12785 0.08489 0.0
C612 C 0.32839 0.09107 0.08423 0.0
C613 C 0.34738 0.07364 0.05594 0.0
C614 C 0.32827 0.19984 0.16705 0.0
C615 C 0.30028 0.19005 0.18738 0.0
C616 C 0.33384 0.17965 0.13357 0.0
C617 C 0.31178 0.14915 0.11988 0.0
C618 C 0.28511 0.13812 0.14097 0.0
C619 C 0.27925 0.15857 0.17449 0.0
H620 H 0.03929 0.03082 0.35074 0.0
H621 H 0.14661 0.97658 0.37048 0.0
H622 H 0.06326 0.06196 0.30487 0.0
H623 H 0.1705 1.00653 0.32291 0.0
H624 H 0.20834 0.12455 0.31345 0.0
H625 H 0.18804 0.06852 0.33092 0.0
H626 H 0.08916 0.06898 0.24993 0.0
H627 H 0.10933 0.12608 0.23331 0.0
C628 C 0.06776 0.02484 0.34443 0.0
C629 C 0.09157 1.00244 0.36506 0.0
C630 C 0.08141 0.04223 0.31761 0.0
C631 C 0.11918 0.03738 0.31079 0.0
C632 C 0.14153 1.01143 0.3282 0.0
C633 C 0.12783 0.99412 0.35526 0.0
C634 C 0.18286 0.11214 0.29865 0.0
C635 C 0.15983 0.13004 0.27282 0.0
C636 C 0.17129 0.07976 0.3084 0.0
C637 C 0.13657 0.06452 0.29226 0.0
C638 C 0.1156 0.0805 0.26349 0.0
C639 C 0.12698 0.1132 0.25409 0.0
H640 H 0.87262 0.18099 0.25069 0.0
H641 H 0.81718 0.21922 0.15181 0.0
H642 H 0.91455 0.14253 0.21313 0.0
H643 H 0.85779 0.17958 0.11431 0.0
H644 H 0.90773 0.06363 0.06492 0.0
H645 H 0.86854 0.10329 0.10373 0.0
H646 H 0.96816 0.15585 0.16261 0.0
H647 H 1.00759 0.11713 0.12241 0.0
C648 C 0.86909 0.18114 0.22097 0.0
C649 C 0.84114 0.20362 0.20464 0.0
C650 C 0.89338 0.15908 0.19935 0.0
C651 C 0.88991 0.15769 0.16039 0.0
C652 C 0.86158 0.17971 0.14407 0.0
C653 C 0.83817 0.2026 0.16574 0.0
C654 C 0.92156 0.08356 0.0861 0.0
C655 C 0.96126 0.08672 0.09017 0.0
C656 C 0.89886 0.10653 0.10842 0.0
C657 C 0.91483 0.133 0.13669 0.0
C658 C 0.9546 0.13582 0.14138 0.0
C659 C 0.97732 0.11355 0.11816 0.0
H660 H 0.0287 0.62508 0.46211 0.0
H661 H 0.12049 0.5501 0.44345 0.0
H662 H 0.05695 0.66823 0.43007 0.0
H663 H 0.14794 0.59246 0.40917 0.0
H664 H 0.20737 0.69039 0.38139 0.0
H665 H 0.18006 0.64638 0.41373 0.0
H666 H 0.06827 0.68244 0.37338 0.0
H667 H 0.09605 0.7276 0.34299 0.0
C668 C 0.05473 0.61761 0.45062 0.0
C669 C 0.07234 0.58415 0.45526 0.0
C670 C 0.07088 0.64232 0.4319 0.0
C671 C 0.10477 0.63401 0.41658 0.0
C672 C 0.12221 0.60026 0.42102 0.0
C673 C 0.10636 0.57577 0.44045 0.0
C674 C 0.17697 0.68874 0.37953 0.0
C675 C 0.15379 0.71251 0.35994 0.0
C676 C 0.1612 0.66335 0.39786 0.0
C677 C 0.12178 0.66064 0.39645 0.0
C678 C 0.0987 0.68412 0.37607 0.0
C679 C 0.11453 0.70997 0.35842 0.0
H680 H 0.60875 0.88002 0.52085 0.0
H681 H 0.53896 0.84506 0.59751 0.0
H682 H 0.65934 0.84025 0.54279 0.0
H683 H 0.58867 0.80492 0.6182 0.0
H684 H 0.73944 0.83924 0.65905 0.0
H685 H 0.69451 0.85393 0.60741 0.0
H686 H 0.63507 0.75475 0.60819 0.0
H687 H 0.67952 0.74033 0.66015 0.0
C688 C 0.60381 0.86344 0.54178 0.0
C689 C 0.57039 0.86704 0.55868 0.0
C690 C 0.63264 0.84038 0.55392 0.0
C691 C 0.6281 0.82014 0.58258 0.0
C692 C 0.59294 0.82017 0.59592 0.0
C693 C 0.56436 0.84347 0.58414 0.0
C694 C 0.71733 0.82022 0.64756 0.0
C695 C 0.71201 0.78941 0.6643 0.0
C696 C 0.69192 0.82833 0.6177 0.0
C697 C 0.6611 0.8056 0.60425 0.0
C698 C 0.65835 0.77285 0.61844 0.0
C699 C 0.68354 0.76487 0.64836 0.0
H700 H 0.50238 0.39511 0.94319 0.0
H701 H 0.41346 0.44203 1.00435 0.0
H702 H 0.45734 0.35467 0.90418 0.0
H703 H 0.36819 0.40093 0.9655 0.0
H704 H 0.29749 0.36812 0.85045 0.0
H705 H 0.34066 0.39905 0.90078 0.0
H706 H 0.41395 0.30507 0.89763 0.0
H707 H 0.37119 0.2744 0.84682 0.0
C708 C 0.47337 0.39597 0.94908 0.0
C709 C 0.46147 0.42191 0.97675 0.0
C710 C 0.44748 0.37271 0.92669 0.0
C711 C 0.40898 0.37488 0.93132 0.0
C712 C 0.39754 0.399 0.96081 0.0
C713 C 0.42357 0.42219 0.98343 0.0
C714 C 0.32268 0.35396 0.86065 0.0
C715 C 0.33104 0.31892 0.84432 0.0
C716 C 0.34728 0.37157 0.88979 0.0
C717 C 0.38083 0.35455 0.90331 0.0
C718 C 0.38859 0.31911 0.88765 0.0
C719 C 0.36402 0.30152 0.85852 0.0
H720 H 0.86942 0.77889 0.35243 0.0
H721 H 0.7958 0.87238 0.34872 0.0
H722 H 0.90934 0.81079 0.40457 0.0
H723 H 0.83637 0.90468 0.40046 0.0
H724 H 0.90336 0.95006 0.50699 0.0
H725 H 0.85981 0.90869 0.46627 0.0
H726 H 0.95321 0.85962 0.41305 0.0
H727 H 0.9965 0.9003 0.45399 0.0
C728 C 0.86171 0.80629 0.36273 0.0
C729 C 0.82954 0.82319 0.34613 0.0
C730 C 0.88468 0.8246 0.39266 0.0
C731 C 0.8762 0.86036 0.40675 0.0
C732 C 0.8435 0.87698 0.39072 0.0
C733 C 0.82041 0.8586 0.36079 0.0
C734 C 0.91471 0.92951 0.48754 0.0
C735 C 0.95339 0.92849 0.48369 0.0
C736 C 0.88967 0.90619 0.46377 0.0
C737 C 0.90288 0.8812 0.43592 0.0
C738 C 0.94196 0.87833 0.43421 0.0
C739 C 0.96687 0.9017 0.45776 0.0
H740 H 0.50696 0.61804 0.62204 0.0
H741 H 0.40764 0.56465 0.56319 0.0
H742 H 0.46692 0.65691 0.6615 0.0
H743 H 0.3679 0.60438 0.60124 0.0
H744 H 0.31333 0.71763 0.64825 0.0
H745 H 0.35461 0.67811 0.61144 0.0
H746 H 0.41461 0.64631 0.71144 0.0
H747 H 0.37206 0.68464 0.74836 0.0
C748 C 0.47669 0.61453 0.61731 0.0
C749 C 0.46097 0.58767 0.58916 0.0
C750 C 0.4536 0.63687 0.64012 0.0
C751 C 0.41379 0.63413 0.63484 0.0
C752 C 0.3982 0.60763 0.60639 0.0
C753 C 0.42124 0.58461 0.5845 0.0
C754 C 0.33516 0.70217 0.66259 0.0
C755 C 0.33884 0.70462 0.70164 0.0
C756 C 0.35898 0.67934 0.64132 0.0
C757 C 0.38844 0.65882 0.65813 0.0
C758 C 0.39259 0.66167 0.69723 0.0
C759 C 0.36792 0.68365 0.7185 0.0
H760 H 0.6108 0.055 0.9394 0.0
H761 H 0.52237 0.133 0.96131 0.0
H762 H 0.6395 0.09697 0.90577 0.0
H763 H 0.552 0.17579 0.92974 0.0
H764 H 0.59389 0.23501 0.8434 0.0
H765 H 0.56397 0.19064 0.87316 0.0
H766 H 0.67401 0.14973 0.91246 0.0
H767 H 0.7034 0.19298 0.88088 0.0
C768 C 0.59766 0.08125 0.93722 0.0
C769 C 0.56427 0.09065 0.95286 0.0
C770 C 0.61426 0.10551 0.91818 0.0
C771 C 0.59826 0.14004 0.91493 0.0
C772 C 0.56485 0.14931 0.93082 0.0
C773 C 0.54792 0.12481 0.94922 0.0
C774 C 0.61152 0.21649 0.85848 0.0
C775 C 0.65089 0.21739 0.85989 0.0
C776 C 0.59446 0.1911 0.87574 0.0
C777 C 0.61644 0.16644 0.89551 0.0
C778 C 0.65597 0.16762 0.89696 0.0
C779 C 0.67294 0.19256 0.87906 0.0
H780 H 0.02813 0.34731 0.09994 0.0
H781 H 0.09839 0.37759 0.02137 0.0
H782 H 0.077 0.30676 0.12175 0.0
H783 H 0.14816 0.33743 0.04436 0.0
H784 H 0.22925 0.33757 0.1601 0.0
H785 H 0.18389 0.35234 0.10874 0.0
H786 H 0.12214 0.25521 0.11268 0.0
H787 H 0.16699 0.24073 0.16429 0.0
C788 C 0.05342 0.34451 0.08639 0.0
C789 C 0.05994 0.36689 0.06002 0.0
C790 C 0.08152 0.32102 0.09883 0.0
C791 C 0.11662 0.31965 0.08522 0.0
C792 C 0.12151 0.33863 0.0557 0.0
C793 C 0.09317 0.36187 0.04293 0.0
C794 C 0.20648 0.31903 0.14939 0.0
C795 C 0.20075 0.28881 0.16686 0.0
C796 C 0.18082 0.32716 0.11971 0.0
C797 C 0.14934 0.30502 0.10716 0.0
C798 C 0.14595 0.27285 0.12221 0.0
C799 C 0.17139 0.26486 0.15194 0.0
H800 H 0.6583 0.47451 0.86709 0.0
H801 H 0.55108 0.52878 0.84693 0.0
H802 H 0.68322 0.5062 0.82123 0.0
H803 H 0.57592 0.56131 0.80246 0.0
H804 H 0.62251 0.62393 0.72959 0.0
H805 H 0.60264 0.56707 0.74693 0.0
H806 H 0.69983 0.56925 0.83014 0.0
H807 H 0.71983 0.62527 0.81214 0.0
C808 C 0.6398 0.49244 0.85209 0.0
C809 C 0.60316 0.50009 0.86116 0.0
C810 C 0.65407 0.51071 0.82602 0.0
C811 C 0.63182 0.5368 0.80874 0.0
C812 C 0.5939 0.54137 0.81507 0.0
C813 C 0.57974 0.52316 0.84101 0.0
C814 C 0.6399 0.61172 0.75104 0.0
C815 C 0.67213 0.62933 0.77022 0.0
C816 C 0.62868 0.57915 0.76085 0.0
C817 C 0.64925 0.564 0.79037 0.0
C818 C 0.68344 0.57994 0.80706 0.0
C819 C 0.69483 0.61227 0.79696 0.0
H820 H 0.78599 0.41572 0.13809 0.0
H821 H 0.71067 0.40939 0.22018 0.0
H822 H 0.74494 0.46149 0.11168 0.0
H823 H 0.66902 0.45324 0.19313 0.0
H824 H 0.58586 0.51465 0.12539 0.0
H825 H 0.64363 0.50474 0.1663 0.0
H826 H 0.68849 0.43897 0.0752 0.0
H827 H 0.63197 0.44974 0.03472 0.0
C828 C 0.76144 0.42518 0.15127 0.0
C829 C 0.75062 0.40818 0.18008 0.0
C830 C 0.73789 0.45119 0.1362 0.0
C831 C 0.70285 0.45945 0.14917 0.0
C832 C 0.69551 0.44714 0.18207 0.0
C833 C 0.71945 0.42174 0.19759 0.0
C834 C 0.60821 0.49806 0.11436 0.0
C835 C 0.60433 0.4824 0.07715 0.0
C836 C 0.64138 0.4928 0.13758 0.0
C837 C 0.67093 0.47155 0.12394 0.0
C838 C 0.66695 0.45646 0.08649 0.0
C839 C 0.63413 0.46195 0.06338 0.0
H840 H 1.00106 0.40121 0.46645 0.0
H841 H 0.98636 0.47609 0.38584 0.0
H842 H 0.96075 0.35798 0.42518 0.0
H843 H 0.94891 0.43177 0.3426 0.0
H844 H 0.8374 0.37656 0.30293 0.0
H845 H 0.8885 0.41309 0.3366 0.0
H846 H 0.94267 0.31719 0.37447 0.0
H847 H 0.88929 0.28117 0.34278 0.0
C848 C 0.99055 0.40756 0.43901 0.0
C849 C 0.99656 0.44171 0.42908 0.0
C850 C 0.96739 0.38278 0.41519 0.0
C851 C 0.95055 0.39148 0.38061 0.0
C852 C 0.95999 0.42451 0.36948 0.0
C853 C 0.98202 0.44973 0.39387 0.0
C854 C 0.86032 0.36335 0.31845 0.0
C855 C 0.85938 0.32619 0.32057 0.0
C856 C 0.89007 0.38423 0.33745 0.0
C857 C 0.92033 0.3683 0.35824 0.0
C858 C 0.91973 0.3307 0.35941 0.0
C859 C 0.88926 0.30995 0.34118 0.0
H860 H 0.68421 0.64095 0.49716 0.0
H861 H 0.577 0.63648 0.42825 0.0
H862 H 0.71115 0.67288 0.45274 0.0
H863 H 0.60405 0.66829 0.38359 0.0
H864 H 0.66002 0.75774 0.33037 0.0
H865 H 0.63091 0.72873 0.37607 0.0
H866 H 0.72793 0.65814 0.38879 0.0
H867 H 0.75669 0.68665 0.34339 0.0
C868 C 0.66628 0.64697 0.47267 0.0
C869 C 0.62842 0.63591 0.46635 0.0
C870 C 0.68181 0.66508 0.447 0.0
C871 C 0.65986 0.67314 0.41441 0.0
C872 C 0.62176 0.66277 0.40843 0.0
C873 C 0.60634 0.64418 0.43389 0.0
C874 C 0.67509 0.73603 0.34294 0.0
C875 C 0.71075 0.72463 0.33306 0.0
C876 C 0.65834 0.71928 0.36904 0.0
C877 C 0.67711 0.69113 0.38634 0.0
C878 C 0.7128 0.67997 0.37649 0.0
C879 C 0.72922 0.69627 0.35017 0.0
H880 H 0.7726 0.36007 0.87305 0.0
H881 H 0.85615 0.36826 0.7991 0.0
H882 H 0.80169 0.41067 0.91529 0.0
H883 H 0.88542 0.41825 0.84141 0.0
H884 H 0.92329 0.51965 0.91324 0.0
H885 H 0.87954 0.48093 0.86941 0.0
H886 H 0.85996 0.41939 0.95686 0.0
H887 H 0.90301 0.45816 1.00038 0.0
C888 C 0.79701 0.37275 0.86568 0.0
C889 C 0.8122 0.35981 0.8328 0.0
C890 C 0.81374 0.40175 0.88993 0.0
C891 C 0.84595 0.41865 0.88183 0.0
C892 C 0.86035 0.40637 0.84837 0.0
C893 C 0.84374 0.37735 0.82423 0.0
C894 C 0.90854 0.49869 0.92332 0.0
C895 C 0.91669 0.49193 0.96026 0.0
C896 C 0.88387 0.47615 0.89811 0.0
C897 C 0.86662 0.44661 0.90942 0.0
C898 C 0.87248 0.44187 0.94708 0.0
C899 C 0.89726 0.46415 0.97211 0.0
H900 H 0.77495 0.85027 0.17451 0.0
H901 H 0.87293 0.78123 0.19011 0.0
H902 H 0.80485 0.88032 0.13097 0.0
H903 H 0.90316 0.81175 0.14621 0.0
H904 H 0.95742 0.90599 0.09733 0.0
H905 H 0.92938 0.87277 0.1403 0.0
H906 H 0.8241 0.86755 0.06818 0.0
H907 H 0.85194 0.90093 0.02555 0.0
C908 C 0.80293 0.84138 0.16864 0.0
C909 C 0.82142 0.81315 0.18595 0.0
C910 C 0.82004 0.85858 0.14339 0.0
C911 C 0.85643 0.84848 0.13482 0.0
C912 C 0.87519 0.82041 0.15227 0.0
C913 C 0.85778 0.80276 0.1773 0.0
C914 C 0.92825 0.89788 0.0907 0.0
C915 C 0.90697 0.90638 0.05791 0.0
C916 C 0.91227 0.87847 0.11519 0.0
C917 C 0.87438 0.86746 0.10787 0.0
C918 C 0.85323 0.87581 0.07498 0.0
C919 C 0.86932 0.89476 0.05031 0.0
H920 H 0.8872 0.20698 0.802 0.0
H921 H 0.79176 0.19027 0.85849 0.0
H922 H 0.92497 0.16532 0.83826 0.0
H923 H 0.82944 0.14861 0.89486 0.0
H924 H 0.89828 0.05057 0.93628 0.0
H925 H 0.85987 0.09071 0.89831 0.0
H926 H 0.95792 0.15494 0.8964 0.0
H927 H 0.99599 0.11494 0.93408 0.0
C928 C 0.87405 0.19456 0.82217 0.0
C929 C 0.83591 0.20272 0.82684 0.0
C930 C 0.89603 0.17046 0.84342 0.0
C931 C 0.881 0.15281 0.87025 0.0
C932 C 0.84267 0.16079 0.8746 0.0
C933 C 0.82082 0.1852 0.85365 0.0
C934 C 0.91185 0.07307 0.92761 0.0
C935 C 0.95084 0.07879 0.93867 0.0
C936 C 0.88952 0.0966 0.90583 0.0
C937 C 0.90507 0.12688 0.89357 0.0
C938 C 0.94421 0.13215 0.90432 0.0
C939 C 0.96636 0.10894 0.92639 0.0
H940 H 0.76451 0.18793 0.65288 0.0
H941 H 0.68551 0.17558 0.73027 0.0
H942 H 0.73475 0.13781 0.61039 0.0
H943 H 0.6557 0.12595 0.68781 0.0
H944 H 0.61787 0.02517 0.61444 0.0
H945 H 0.66268 0.06363 0.6574 0.0
H946 H 0.67391 0.13001 0.57156 0.0
H947 H 0.62966 0.09163 0.5289 0.0
C948 C 0.74102 0.17439 0.66098 0.0
C949 C 0.72721 0.18606 0.69486 0.0
C950 C 0.72392 0.14568 0.63659 0.0
C951 C 0.69281 0.12777 0.64564 0.0
C952 C 0.67991 0.1387 0.68011 0.0
C953 C 0.6968 0.16748 0.70434 0.0
C954 C 0.63098 0.04721 0.60444 0.0
C955 C 0.62016 0.05542 0.56832 0.0
C956 C 0.65627 0.06954 0.62917 0.0
C957 C 0.67152 0.10025 0.61811 0.0
C958 C 0.66296 0.10657 0.58106 0.0
C959 C 0.63749 0.08454 0.55655 0.0
H960 H 0.57875 1.01599 0.40303 0.0
H961 H 0.51946 0.92483 0.42829 0.0
H962 H 0.5915 0.98183 0.3446 0.0
H963 H 0.52973 0.8913 0.36877 0.0
H964 H 0.62485 0.83178 0.30864 0.0
H965 H 0.58324 0.86277 0.34892 0.0
H966 H 0.57383 0.95218 0.28422 0.0
H967 H 0.61721 0.92094 0.24396 0.0
C968 C 0.56803 0.98878 0.39566 0.0
C969 C 0.54943 0.97242 0.42041 0.0
C970 C 0.57461 0.96938 0.3619 0.0
C971 C 0.56185 0.93361 0.35202 0.0
C972 C 0.54074 0.91842 0.37587 0.0
C973 C 0.5351 0.93746 0.41001 0.0
C974 C 0.61285 0.85734 0.30187 0.0
C975 C 0.62537 0.87454 0.27388 0.0
C976 C 0.58867 0.87528 0.32514 0.0
C977 C 0.57618 0.91061 0.3206 0.0
C978 C 0.58416 0.92551 0.28922 0.0
C979 C 0.60879 0.90763 0.26609 0.0
H980 H 0.80597 0.12098 0.2994 0.0
H981 H 0.76221 0.13796 0.405 0.0
H982 H 0.84239 0.06959 0.31837 0.0
H983 H 0.80045 0.08827 0.42493 0.0
H984 H 0.88671 0.02038 0.46971 0.0
H985 H 0.83006 0.03233 0.42869 0.0
H986 H 0.89886 0.07989 0.3589 0.0
H987 H 0.95536 0.06569 0.39882 0.0
C988 C 0.80305 0.1132 0.32624 0.0
C989 C 0.78295 0.1349 0.35168 0.0
C990 C 0.82425 0.08375 0.33719 0.0
C991 C 0.82603 0.07609 0.3738 0.0
C992 C 0.80055 0.09373 0.39669 0.0
C993 C 0.77894 0.12275 0.38552 0.0
C994 C 0.88949 0.03296 0.4452 0.0
C995 C 0.92489 0.04358 0.43788 0.0
C996 C 0.85718 0.0395 0.42161 0.0
C997 C 0.85969 0.05783 0.39098 0.0
C998 C 0.89568 0.0655 0.38206 0.0
C999 C 0.9281 0.05803 0.4052 0.0
H1000 H 0.67738 0.18502 0.25483 0.0
H1001 H 0.67389 0.24561 0.16186 0.0
H1002 H 0.6268 0.14681 0.22168 0.0
H1003 H 0.6235 0.20672 0.12834 0.0
H1004 H 0.52072 0.13959 0.08203 0.0
H1005 H 0.55712 0.18518 0.12555 0.0
H1006 H 0.62774 0.10056 0.16801 0.0
H1007 H 0.59156 0.0555 0.12508 0.0
C1008 C 0.66564 0.19037 0.22739 0.0
C1009 C 0.68005 0.218 0.21071 0.0
C1010 C 0.63663 0.16846 0.20844 0.0
C1011 C 0.6214 0.17356 0.17232 0.0
C1012 C 0.63444 0.20235 0.1563 0.0
C1013 C 0.66352 0.22441 0.17535 0.0
C1014 C 0.54334 0.13083 0.10146 0.0
C1015 C 0.5535 0.0941 0.10014 0.0
C1016 C 0.56437 0.15688 0.12605 0.0
C1017 C 0.59543 0.14645 0.14998 0.0
C1018 C 0.6038 0.10949 0.15021 0.0
C1019 C 0.58316 0.08365 0.12549 0.0
H1020 H 0.76822 0.88233 0.82604 0.0
H1021 H 0.68197 0.8077 0.83978 0.0
H1022 H 0.75614 0.91912 0.88348 0.0
H1023 H 0.6697 0.84476 0.89675 0.0
H1024 H 0.67678 0.99108 0.95939 0.0
H1025 H 0.70437 0.95716 0.90767 0.0
H1026 H 0.704 0.8603 0.96044 0.0
H1027 H 0.67553 0.89433 1.01176 0.0
C1028 C 0.74624 0.87412 0.84094 0.0
C1029 C 0.72609 0.84206 0.8285 0.0
C1030 C 0.73961 0.89503 0.87392 0.0
C1031 C 0.71276 0.88417 0.89493 0.0
C1032 C 0.69143 0.85306 0.88161 0.0
C1033 C 0.69799 0.83221 0.84867 0.0
C1034 C 0.68385 0.96279 0.96036 0.0
C1035 C 0.67351 0.945 0.98892 0.0
C1036 C 0.69962 0.94342 0.93089 0.0
C1037 C 0.70524 0.906 0.92973 0.0
C1038 C 0.69902 0.88906 0.96043 0.0
C1039 C 0.6833 0.90853 0.98998 0.0
H1040 H 0.98218 1.01241 0.67303 0.0
H1041 H 0.87263 0.06219 0.6522 0.0
H1042 H 0.95946 0.98006 0.7187 0.0
H1043 H 0.84987 0.03096 0.6995 0.0
H1044 H 0.81761 0.91079 0.70705 0.0
H1045 H 0.8354 0.96811 0.69058 0.0
H1046 H 0.93333 0.97109 0.77305 0.0
H1047 H 0.91569 0.91275 0.78876 0.0
C1048 C 0.95346 1.0172 0.67914 0.0
C1049 C 0.92873 0.03862 0.65822 0.0
C1050 C 0.9405 0.99911 0.7058 0.0
C1051 C 0.90248 1.00223 0.71214 0.0
C1052 C 0.87908 0.02738 0.69457 0.0
C1053 C 0.89212 0.04542 0.66767 0.0
C1054 C 0.84232 0.92417 0.7224 0.0
C1055 C 0.86587 0.90695 0.74841 0.0
C1056 C 0.85243 0.95731 0.71321 0.0
C1057 C 0.8862 0.97398 0.73009 0.0
C1058 C 0.90761 0.95851 0.75896 0.0
C1059 C 0.89768 0.92509 0.76782 0.0
H1060 H 0.16367 0.86132 0.7768 0.0
H1061 H 0.22383 0.82861 0.8764 0.0
H1062 H 0.12115 0.89914 0.81423 0.0
H1063 H 0.18258 0.8676 0.91369 0.0
H1064 H 0.1288 0.98008 0.96301 0.0
H1065 H 0.16852 0.94108 0.92428 0.0
H1066 H 0.06965 0.88775 0.86468 0.0
H1067 H 0.02964 0.92589 0.9048 0.0
C1068 C 0.16814 0.86229 0.80664 0.0
C1069 C 0.19761 0.84154 0.82322 0.0
C1070 C 0.14349 0.88396 0.82821 0.0
C1071 C 0.14805 0.88671 0.86732 0.0
C1072 C 0.1779 0.86644 0.88383 0.0
C1073 C 0.2017 0.84392 0.86227 0.0
C1074 C 0.11523 0.9601 0.9417 0.0
C1075 C 0.07556 0.95657 0.93743 0.0
C1076 C 0.13826 0.93751 0.91942 0.0
C1077 C 0.12269 0.91101 0.89095 0.0
C1078 C 0.08294 0.90782 0.88605 0.0
C1079 C 0.05987 0.92973 0.90924 0.0
H1080 H 0.02218 0.40821 0.56779 0.0
H1081 H 0.93279 0.48631 0.58507 0.0
H1082 H 0.99147 0.36634 0.59967 0.0
H1083 H 0.90303 0.44546 0.61906 0.0
H1084 H 0.83795 0.35101 0.64528 0.0
H1085 H 0.86848 0.39311 0.61323 0.0
H1086 H 0.97761 0.35266 0.65594 0.0
H1087 H 0.94655 0.30934 0.68604 0.0
C1088 C 0.9962 0.41662 0.57896 0.0
C1089 C 0.97987 0.4505 0.57391 0.0
C1090 C 0.97863 0.39268 0.59753 0.0
C1091 C 0.94461 0.40229 0.6122 0.0
C1092 C 0.9287 0.4366 0.60758 0.0
C1093 C 0.94591 0.46023 0.58834 0.0
C1094 C 0.86846 0.3513 0.64773 0.0
C1095 C 0.88992 0.32689 0.66793 0.0
C1096 C 0.88609 0.37558 0.62957 0.0
C1097 C 0.92572 0.37654 0.63182 0.0
C1098 C 0.94709 0.35233 0.65269 0.0
C1099 C 0.92938 0.32757 0.67017 0.0
H1100 H 0.49621 0.19409 0.42634 0.0
H1101 H 0.42507 0.15932 0.50191 0.0
H1102 H 0.44481 0.23007 0.40095 0.0
H1103 H 0.37289 0.19478 0.47527 0.0
H1104 H 0.29459 0.19157 0.3576 0.0
H1105 H 0.34001 0.17815 0.40961 0.0
H1106 H 0.39634 0.27897 0.40856 0.0
H1107 H 0.35155 0.2921 0.35639 0.0
C1108 C 0.47006 0.19492 0.43842 0.0
C1109 C 0.4644 0.17268 0.46519 0.0
C1110 C 0.4405 0.21573 0.42388 0.0
C1111 C 0.40475 0.21457 0.43576 0.0
C1112 C 0.4001 0.19552 0.46528 0.0
C1113 C 0.42988 0.175 0.48018 0.0
C1114 C 0.31618 0.21114 0.36907 0.0
C1115 C 0.32047 0.24217 0.35235 0.0
C1116 C 0.34187 0.20374 0.39906 0.0
C1117 C 0.37184 0.22744 0.41266 0.0
C1118 C 0.37374 0.26014 0.39819 0.0
C1119 C 0.34832 0.26739 0.36817 0.0
H1120 H 0.62799 0.58391 0.01317 0.0
H1121 H 0.53505 0.63165 0.0679 0.0
H1122 H 0.67121 0.62627 0.05312 0.0
H1123 H 0.57799 0.67326 0.10804 0.0
H1124 H 0.73678 0.66489 0.16938 0.0
H1125 H 0.69614 0.63136 0.11859 0.0
H1126 H 0.62032 0.72326 0.11524 0.0
H1127 H 0.66042 0.75644 0.1665 0.0
C1128 C 0.6166 0.60412 0.03293 0.0
C1129 C 0.57809 0.60433 0.03742 0.0
C1130 C 0.64145 0.62805 0.05621 0.0
C1131 C 0.62822 0.65285 0.08422 0.0
C1132 C 0.58925 0.65475 0.08671 0.0
C1133 C 0.56455 0.6308 0.06365 0.0
C1134 C 0.71154 0.67801 0.15767 0.0
C1135 C 0.7017 0.71323 0.17231 0.0
C1136 C 0.68839 0.6589 0.12827 0.0
C1137 C 0.65486 0.67456 0.11275 0.0
C1138 C 0.64564 0.71017 0.12678 0.0
C1139 C 0.66871 0.72923 0.15618 0.0
H1140 H 0.15469 0.2616 0.66889 0.0
H1141 H 0.22956 0.16875 0.66459 0.0
H1142 H 0.11201 0.2306 0.61818 0.0
H1143 H 0.18651 0.13748 0.61442 0.0
H1144 H 0.02465 0.13965 0.57187 0.0
H1145 H 0.06912 0.18065 0.61093 0.0
H1146 H 0.15895 0.13537 0.55 0.0
H1147 H 0.11434 0.0937 0.51119 0.0
C1148 C 0.16212 0.23461 0.65707 0.0
C1149 C 0.19545 0.21756 0.67103 0.0
C1150 C 0.13759 0.21681 0.628 0.0
C1151 C 0.14574 0.18151 0.61216 0.0
C1152 C 0.17957 0.16485 0.62551 0.0
C1153 C 0.20413 0.18266 0.65457 0.0
C1154 C 0.05367 0.13913 0.56605 0.0
C1155 C 0.06596 0.11322 0.53855 0.0
C1156 C 0.07925 0.16271 0.5885 0.0
C1157 C 0.1178 0.16094 0.58405 0.0
C1158 C 0.12957 0.13697 0.55462 0.0
C1159 C 0.10388 0.11343 0.532 0.0
H1160 H 0.69813 0.3844 0.2936 0.0
H1161 H 0.69095 0.30162 0.3638 0.0
H1162 H 0.65613 0.42338 0.3299 0.0
H1163 H 0.64883 0.34037 0.39992 0.0
H1164 H 0.54594 0.4067 0.43931 0.0
H1165 H 0.58606 0.36755 0.40093 0.0
H1166 H 0.65127 0.45997 0.38917 0.0
H1167 H 0.61139 0.49888 0.42761 0.0
C1168 C 0.68765 0.37433 0.31672 0.0
C1169 C 0.69844 0.33944 0.32538 0.0
C1170 C 0.66346 0.39694 0.33787 0.0
C1171 C 0.64845 0.38554 0.36835 0.0
C1172 C 0.65902 0.35047 0.37669 0.0
C1173 C 0.68362 0.3281 0.3559 0.0
C1174 C 0.56862 0.41884 0.42836 0.0
C1175 C 0.57486 0.45641 0.43688 0.0
C1176 C 0.59207 0.39616 0.4064 0.0
C1177 C 0.62254 0.41005 0.39147 0.0
C1178 C 0.62822 0.44776 0.39946 0.0
C1179 C 0.60516 0.47031 0.42184 0.0
H1180 H 0.42584 0.9916 0.08414 0.0
H1181 H 0.51466 0.91374 0.06338 0.0
H1182 H 0.39746 0.95017 0.11863 0.0
H1183 H 0.48535 0.87145 0.09579 0.0
H1184 H 0.44457 0.81325 0.18321 0.0
H1185 H 0.47384 0.85735 0.15262 0.0
H1186 H 0.36328 0.89749 0.11387 0.0
H1187 H 0.33453 0.85449 0.14632 0.0
C1188 C 0.43913 0.96549 0.08674 0.0
C1189 C 0.47258 0.95601 0.07119 0.0
C1190 C 0.42271 0.94152 0.10629 0.0
C1191 C 0.43893 0.90718 0.11019 0.0
C1192 C 0.47233 0.8978 0.09429 0.0
C1193 C 0.48909 0.92201 0.07538 0.0
C1194 C 0.42667 0.83157 0.16811 0.0
C1195 C 0.38733 0.83045 0.16707 0.0
C1196 C 0.44336 0.8568 0.15034 0.0
C1197 C 0.42108 0.88111 0.13036 0.0
C1198 C 0.38158 0.87984 0.12944 0.0
C1199 C 0.36497 0.85505 0.14786 0.0
H1200 H 0.92903 0.66444 1.00484 0.0
H1201 H 1.00199 0.69611 0.9293 0.0
H1202 H 0.87815 0.70104 0.97768 0.0
H1203 H 0.95189 0.73324 0.90334 0.0
H1204 H 0.86021 0.79561 0.85631 0.0
H1205 H 0.90407 0.78303 0.90938 0.0
H1206 H 0.84589 0.68354 0.91195 0.0
H1207 H 0.80147 0.69636 0.85901 0.0
C1208 C 0.93453 0.67974 0.98304 0.0
C1209 C 0.96907 0.67613 0.96812 0.0
C1210 C 0.90551 0.70092 0.96785 0.0
C1211 C 0.91097 0.71931 0.93807 0.0
C1212 C 0.94694 0.71938 0.92642 0.0
C1213 C 0.97574 0.69792 0.94128 0.0
C1214 C 0.85637 0.77133 0.86861 0.0
C1215 C 0.82829 0.74625 0.85295 0.0
C1216 C 0.88124 0.7644 0.89915 0.0
C1217 C 0.87856 0.73221 0.91434 0.0
C1218 C 0.84834 0.70876 0.90086 0.0
C1219 C 0.82323 0.7158 0.87033 0.0
H1220 H 0.38151 0.55256 0.14567 0.0
H1221 H 0.48746 0.49606 0.16584 0.0
H1222 H 0.35568 0.52152 0.19142 0.0
H1223 H 0.46159 0.46404 0.21009 0.0
H1224 H 0.41316 0.4036 0.28402 0.0
H1225 H 0.43491 0.4593 0.26569 0.0
H1226 H 0.33722 0.45917 0.18326 0.0
H1227 H 0.31533 0.40436 0.20234 0.0
C1228 C 0.39955 0.53423 0.1606 0.0
C1229 C 0.4361 0.52586 0.15158 0.0
C1230 C 0.38473 0.5163 0.18659 0.0
C1231 C 0.40629 0.4898 0.20386 0.0
C1232 C 0.44413 0.48434 0.19749 0.0
C1233 C 0.45886 0.50225 0.17166 0.0
C1234 C 0.39609 0.41605 0.26252 0.0
C1235 C 0.36311 0.39936 0.24393 0.0
C1236 C 0.4084 0.44793 0.25213 0.0
C1237 C 0.38818 0.4633 0.22257 0.0
C1238 C 0.35337 0.44832 0.20636 0.0
C1239 C 0.34088 0.41669 0.21708 0.0
H1240 H 0.39692 0.51909 0.96633 0.0
H1241 H 0.46739 0.56571 0.89792 0.0
H1242 H 0.34072 0.53668 0.92787 0.0
H1243 H 0.41129 0.58521 0.86047 0.0
H1244 H 0.31552 0.62806 0.8019 0.0
H1245 H 0.35342 0.57714 0.82007 0.0
H1246 H 0.31538 0.59573 0.9284 0.0
H1247 H 0.27588 0.64523 0.90948 0.0
C1248 C 0.40022 0.53308 0.94287 0.0
C1249 C 0.4361 0.54236 0.93558 0.0
C1250 C 0.36814 0.54288 0.92076 0.0
C1251 C 0.37144 0.56297 0.89163 0.0
C1252 C 0.40764 0.56951 0.88254 0.0
C1253 C 0.43982 0.55891 0.90423 0.0
C1254 C 0.31384 0.62037 0.82904 0.0
C1255 C 0.29395 0.64168 0.85495 0.0
C1256 C 0.33589 0.59126 0.8395 0.0
C1257 C 0.33858 0.58331 0.87605 0.0
C1258 C 0.31435 0.60125 0.90006 0.0
C1259 C 0.29203 0.63007 0.88946 0.0
H1260 H 0.09451 0.55207 0.62936 0.0
H1261 H 0.02183 0.63365 0.58386 0.0
H1262 H 0.12748 0.59819 0.67352 0.0
H1263 H 0.05484 0.68035 0.62881 0.0
H1264 H 0.16933 0.74365 0.66392 0.0
H1265 H 0.11934 0.70382 0.63197 0.0
H1266 H 0.12652 0.64466 0.72621 0.0
H1267 H 0.17712 0.68393 0.75786 0.0
C1268 C 0.08495 0.57988 0.62951 0.0
C1269 C 0.05597 0.5894 0.60294 0.0
C1270 C 0.10369 0.60634 0.65502 0.0
C1271 C 0.09399 0.64298 0.65444 0.0
C1272 C 0.06316 0.65232 0.62958 0.0
C1273 C 0.0441 0.62564 0.6041 0.0
C1274 C 0.15991 0.72243 0.67801 0.0
C1275 C 0.17764 0.71649 0.7131 0.0
C1276 C 0.13096 0.69985 0.65986 0.0
C1277 C 0.11914 0.67096 0.67649 0.0
C1278 C 0.13538 0.6664 0.7125 0.0
C1279 C 0.16439 0.68888 0.73059 0.0
H1280 H 0.35668 0.26856 0.67037 0.0
H1281 H 0.28917 0.36434 0.69483 0.0
H1282 H 0.38794 0.29941 0.62751 0.0
H1283 H 0.32015 0.39483 0.65239 0.0
H1284 H 0.40948 0.45224 0.60324 0.0
H1285 H 0.38155 0.41986 0.6466 0.0
H1286 H 0.37432 0.32366 0.56679 0.0
H1287 H 0.40283 0.35597 0.52355 0.0
C1288 C 0.34853 0.29613 0.66671 0.0
C1289 C 0.32033 0.31384 0.68619 0.0
C1290 C 0.36632 0.31379 0.64198 0.0
C1291 C 0.35674 0.34976 0.63647 0.0
C1292 C 0.32871 0.36738 0.65617 0.0
C1293 C 0.31072 0.3497 0.68045 0.0
C1294 C 0.40225 0.42412 0.59497 0.0
C1295 C 0.40842 0.40689 0.55969 0.0
C1296 C 0.38589 0.40556 0.61978 0.0
C1297 C 0.37548 0.36905 0.61029 0.0
C1298 C 0.38217 0.35162 0.57524 0.0
C1299 C 0.39818 0.37032 0.55023 0.0
H1300 H 0.23121 0.70958 0.14323 0.0
H1301 H 0.22054 0.6547 0.23748 0.0
H1302 H 0.19798 0.66089 0.10249 0.0
H1303 H 0.19067 0.60394 0.19689 0.0
H1304 H 0.09362 0.5435 0.12338 0.0
H1305 H 0.13691 0.58374 0.16446 0.0
H1306 H 0.19095 0.60583 0.07053 0.0
H1307 H 0.14463 0.56812 0.02948 0.0
C1308 C 0.22257 0.68645 0.15501 0.0
C1309 C 0.22807 0.68597 0.19341 0.0
C1310 C 0.20371 0.65811 0.13162 0.0
C1311 C 0.19096 0.62787 0.14592 0.0
C1312 C 0.19861 0.62687 0.18445 0.0
C1313 C 0.2162 0.65584 0.2079 0.0
C1314 C 0.11555 0.55619 0.1118 0.0
C1315 C 0.11611 0.55245 0.07338 0.0
C1316 C 0.14062 0.57953 0.13541 0.0
C1317 C 0.16768 0.59906 0.12126 0.0
C1318 C 0.16997 0.59265 0.0828 0.0
C1319 C 0.14395 0.57032 0.05913 0.0
H1320 H 0.74685 0.35495 0.66853 0.0
H1321 H 0.65226 0.33857 0.72631 0.0
H1322 H 0.70859 0.39619 0.63207 0.0
H1323 H 0.61395 0.37983 0.69004 0.0
H1324 H 0.54146 0.42945 0.59474 0.0
H1325 H 0.58017 0.38987 0.63239 0.0
H1326 H 0.67788 0.45372 0.62795 0.0
H1327 H 0.63883 0.4934 0.58997 0.0
C1328 C 0.71786 0.36001 0.67365 0.0
C1329 C 0.70318 0.34271 0.70084 0.0
C1330 C 0.69567 0.38418 0.65264 0.0
C1331 C 0.6574 0.39212 0.65734 0.0
C1332 C 0.6428 0.37469 0.68458 0.0
C1333 C 0.66511 0.35083 0.70584 0.0
C1334 C 0.57116 0.43546 0.60188 0.0
C1335 C 0.58637 0.46536 0.58887 0.0
C1336 C 0.59369 0.41249 0.62393 0.0
C1337 C 0.63292 0.41778 0.63397 0.0
C1338 C 0.64817 0.44781 0.621 0.0
C1339 C 0.62546 0.47109 0.59921 0.0
H1340 H 0.90416 0.60851 0.27255 0.0
H1341 H 0.92601 0.71301 0.24125 0.0
H1342 H 0.94891 0.58101 0.23305 0.0
H1343 H 0.97291 0.68578 0.20399 0.0
H1344 H 0.96139 0.61989 0.08657 0.0
H1345 H 0.95047 0.65357 0.14543 0.0
H1346 H 1.00266 0.56735 0.20266 0.0
H1347 H 1.01206 0.53292 0.1432 0.0
C1348 C 0.91924 0.62588 0.25817 0.0
C1349 C 0.90879 0.66237 0.25736 0.0
C1350 C 0.94561 0.61012 0.23592 0.0
C1351 C 0.96265 0.631 0.21353 0.0
C1352 C 0.95853 0.66875 0.21942 0.0
C1353 C 0.93153 0.6844 0.24103 0.0
C1354 C 0.97052 0.60819 0.11175 0.0
C1355 C 0.9865 0.57348 0.11038 0.0
C1356 C 0.96504 0.62778 0.14564 0.0
C1357 C 0.97593 0.61325 0.17894 0.0
C1358 C 0.99361 0.57912 0.17755 0.0
C1359 C 0.9986 0.55929 0.14352 0.0
H1360 H 0.86395 0.54433 0.55837 0.0
H1361 H 0.86608 0.64091 0.50591 0.0
H1362 H 0.83478 0.57813 0.6091 0.0
H1363 H 0.83602 0.67484 0.55622 0.0
H1364 H 0.85802 0.72721 0.67719 0.0
H1365 H 0.86997 0.69034 0.62002 0.0
H1366 H 0.78307 0.61635 0.63303 0.0
H1367 H 0.77132 0.65295 0.69069 0.0
C1368 C 0.85662 0.57251 0.55707 0.0
C1369 C 0.8678 0.59036 0.52892 0.0
C1370 C 0.83996 0.59183 0.58599 0.0
C1371 C 0.83427 0.62923 0.58696 0.0
C1372 C 0.84105 0.64611 0.55639 0.0
C1373 C 0.85769 0.62669 0.52741 0.0
C1374 C 0.84182 0.70282 0.66818 0.0
C1375 C 0.81374 0.69299 0.68838 0.0
C1376 C 0.84817 0.68209 0.63512 0.0
C1377 C 0.82663 0.65114 0.62168 0.0
C1378 C 0.79974 0.64033 0.64267 0.0
C1379 C 0.79332 0.66111 0.67578 0.0
H1380 H 0.49613 0.61437 0.43318 0.0
H1381 H 0.39842 0.54994 0.43529 0.0
H1382 H 0.45825 0.65405 0.39505 0.0
H1383 H 0.36017 0.58981 0.39683 0.0
H1384 H 0.29233 0.68935 0.35683 0.0
H1385 H 0.32987 0.64772 0.39324 0.0
H1386 H 0.4255 0.66417 0.33667 0.0
H1387 H 0.3878 0.70588 0.30031 0.0
C1388 C 0.46652 0.60828 0.42537 0.0
C1389 C 0.45095 0.57823 0.43778 0.0
C1390 C 0.4445 0.63131 0.40303 0.0
C1391 C 0.40542 0.62595 0.39212 0.0
C1392 C 0.3898 0.59575 0.40447 0.0
C1393 C 0.41202 0.57237 0.42653 0.0
C1394 C 0.32138 0.68423 0.35197 0.0
C1395 C 0.33652 0.7017 0.32516 0.0
C1396 C 0.34314 0.65982 0.37296 0.0
C1397 C 0.38145 0.65179 0.36864 0.0
C1398 C 0.39656 0.66937 0.34178 0.0
C1399 C 0.37464 0.69348 0.32048 0.0
H1400 H 0.11926 0.42446 0.74774 0.0
H1401 H 0.12486 0.33387 0.81034 0.0
H1402 H 0.07502 0.45506 0.78745 0.0
H1403 H 0.08248 0.36427 0.85024 0.0
H1404 H 1.01708 0.4256 0.92908 0.0
H1405 H 0.02863 0.39272 0.86961 0.0
H1406 H 0.0919 0.48353 0.84833 0.0
H1407 H 0.07801 0.51698 0.90663 0.0
C1408 C 0.11021 0.41073 0.76929 0.0
C1409 C 0.12635 0.37737 0.77666 0.0
C1410 C 0.0851 0.42822 0.7921 0.0
C1411 C 0.07631 0.41272 0.82286 0.0
C1412 C 0.08851 0.37722 0.82694 0.0
C1413 C 0.11313 0.35964 0.80392 0.0
C1414 C 0.03333 0.43841 0.91145 0.0
C1415 C 0.04771 0.47327 0.9226 0.0
C1416 C 0.0397 0.41976 0.87733 0.0
C1417 C 0.06151 0.43526 0.85428 0.0
C1418 C 0.07444 0.47087 0.86496 0.0
C1419 C 0.06719 0.48986 0.89867 0.0
H1420 H 0.17827 0.30863 0.34557 0.0
H1421 H 0.26738 0.37886 0.329 0.0
H1422 H 0.17182 0.3445 0.4048 0.0
H1423 H 0.26133 0.41425 0.38872 0.0
H1424 H 0.18316 0.39061 0.51973 0.0
H1425 H 0.2089 0.35631 0.46692 0.0
H1426 H 0.21517 0.45468 0.41774 0.0
H1427 H 0.19045 0.48875 0.47099 0.0
C1428 C 0.19615 0.33195 0.35435 0.0
C1429 C 0.22331 0.3409 0.33266 0.0
C1430 C 0.19299 0.35205 0.38858 0.0
C1431 C 0.2169 0.38144 0.40175 0.0
C1432 C 0.24284 0.39147 0.37933 0.0
C1433 C 0.24599 0.37139 0.34502 0.0
C1434 C 0.19193 0.40499 0.49852 0.0
C1435 C 0.1843 0.44202 0.49876 0.0
C1436 C 0.20602 0.38539 0.46807 0.0
C1437 C 0.21269 0.40277 0.43779 0.0
C1438 C 0.20997 0.44055 0.44055 0.0
C1439 C 0.19593 0.46006 0.47097 0.0
loop_
_geom_bond_atom_site_label_1
_geom_bond_atom_site_label_2
_geom_bond_distance
_geom_bond_site_symmetry_2
_ccdc_geom_bond_type
Co0 N5 2.057 . S
Co0 O17 2.021 1_554 S
Co0 O20 2.062 1_655 S
Co0 O24 2.117 1_565 S
Co0 O25 2.020 1_554 S
C1 O21 1.259 1_655 S
C1 O24 1.258 . S
Co2 N11 2.057 . S
Co2 O18 2.117 1_545 S
Co2 O19 2.020 1_556 S
Co2 O21 2.021 1_556 S
Co2 O26 2.062 1_455 S
C3 N5 1.316 . S
C3 N6 1.347 . S
C3 H8 0.937 . S
C4 N5 1.375 . S
C4 C7 1.350 . S
C4 H9 0.930 . S
N5 Co0 2.057 . S
N5 C3 1.316 . S
N5 C4 1.375 . S
N6 C3 1.347 . S
N6 C7 1.373 . S
C7 C4 1.350 . S
C7 N6 1.373 . S
C7 H28 0.931 . S
H8 C3 0.937 . S
H9 C4 0.930 . S
C10 O17 1.259 1_455 S
C10 O18 1.258 . S
N11 Co2 2.057 . S
N11 C12 1.316 . S
N11 C13 1.375 . S
C12 N11 1.316 . S
C12 N14 1.347 . S
C12 H23 0.933 . S
C13 N11 1.375 . S
C13 C15 1.350 . S
C13 H22 0.930 . S
N14 C12 1.347 . S
N14 C15 1.373 . S
C15 C13 1.350 . S
C15 N14 1.373 . S
C15 H29 0.931 . S
C16 O19 1.256 1_565 S
C16 O20 1.255 . S
O17 Co0 2.021 1_556 S
O17 C10 1.259 1_655 S
O18 Co2 2.117 1_565 S
O18 C10 1.258 . S
O19 Co2 2.020 1_554 S
O19 C16 1.256 1_545 S
O20 Co0 2.062 1_455 S
O20 C16 1.255 . S
O21 C1 1.259 1_455 S
O21 Co2 2.021 1_554 S
H22 C13 0.930 . S
H23 C12 0.933 . S
O24 Co0 2.117 1_545 S
O24 C1 1.258 . S
O25 Co0 2.020 1_556 S
O25 C27 1.256 1_565 S
O26 Co2 2.062 1_655 S
O26 C27 1.255 . S
C27 O25 1.256 1_545 S
C27 O26 1.255 . S
H28 C7 0.931 . S
H29 C15 0.931 . S
Co30 N35 2.057 . S
Co30 O47 2.021 . S
Co30 O50 2.062 . S
Co30 O54 2.117 . S
Co30 O55 2.020 . S
C31 O51 1.259 . S
C31 O54 1.258 . S
Co32 N41 2.057 . S
Co32 O48 2.117 . S
Co32 O49 2.020 . S
Co32 O51 2.021 . S
Co32 O56 2.062 . S
C33 N35 1.316 . S
C33 N36 1.347 . S
C33 H38 0.931 . S
C34 N35 1.375 . S
C34 C37 1.350 . S
C34 H39 0.930 . S
N35 Co30 2.057 . S
N35 C33 1.316 . S
N35 C34 1.375 . S
N36 C33 1.347 . S
N36 C37 1.373 . S
C37 C34 1.350 . S
C37 N36 1.373 . S
C37 H58 0.931 . S
H38 C33 0.931 . S
H39 C34 0.930 . S
C40 O47 1.259 . S
C40 O48 1.258 . S
N41 Co32 2.057 . S
N41 C42 1.316 . S
N41 C43 1.375 . S
C42 N41 1.316 . S
C42 N44 1.347 . S
C42 H53 0.931 . S
C43 N41 1.375 . S
C43 C45 1.350 . S
C43 H52 0.930 . S
N44 C42 1.347 . S
N44 C45 1.373 . S
C45 C43 1.350 . S
C45 N44 1.373 . S
C45 H59 0.931 . S
C46 O49 1.256 . S
C46 O50 1.255 . S
O47 Co30 2.021 . S
O47 C40 1.259 . S
O48 Co32 2.117 . S
O48 C40 1.258 . S
O49 Co32 2.020 . S
O49 C46 1.256 . S
O50 Co30 2.062 . S
O50 C46 1.255 . S
O51 C31 1.259 . S
O51 Co32 2.021 . S
H52 C43 0.930 . S
H53 C42 0.931 . S
O54 Co30 2.117 . S
O54 C31 1.258 . S
O55 Co30 2.020 . S
O55 C57 1.256 . S
O56 Co32 2.062 . S
O56 C57 1.255 . S
C57 O55 1.256 . S
C57 O56 1.255 . S
H58 C37 0.931 . S
H59 C45 0.931 . S
Co60 N65 2.057 . S
Co60 O77 2.021 . S
Co60 O80 2.062 . S
Co60 O84 2.117 1_565 S
Co60 O85 2.020 1_565 S
C61 O81 1.259 . S
C61 O84 1.258 . S
Co62 N71 2.057 . S
Co62 O78 2.117 1_545 S
Co62 O79 2.020 1_545 S
Co62 O81 2.021 . S
Co62 O86 2.062 . S
C63 N65 1.316 . S
C63 N66 1.347 . S
C63 H68 0.931 . S
C64 N65 1.375 . S
C64 C67 1.350 . S
C64 H69 0.930 . S
N65 Co60 2.057 . S
N65 C63 1.316 . S
N65 C64 1.375 . S
N66 C63 1.347 . S
N66 C67 1.373 . S
C67 C64 1.350 . S
C67 N66 1.373 . S
C67 H88 0.931 . S
H68 C63 0.931 . S
H69 C64 0.930 . S
C70 O77 1.259 . S
C70 O78 1.258 . S
N71 Co62 2.057 . S
N71 C72 1.316 . S
N71 C73 1.375 . S
C72 N71 1.316 . S
C72 N74 1.347 . S
C72 H83 0.931 . S
C73 N71 1.375 . S
C73 C75 1.350 . S
C73 H82 0.930 . S
N74 C72 1.347 . S
N74 C75 1.373 . S
C75 C73 1.350 . S
C75 N74 1.373 . S
C75 H89 0.931 . S
C76 O79 1.256 . S
C76 O80 1.255 . S
O77 Co60 2.021 . S
O77 C70 1.259 . S
O78 Co62 2.117 1_565 S
O78 C70 1.258 . S
O79 Co62 2.020 1_565 S
O79 C76 1.256 . S
O80 Co60 2.062 . S
O80 C76 1.255 . S
O81 C61 1.259 . S
O81 Co62 2.021 . S
H82 C73 0.930 . S
H83 C72 0.931 . S
O84 Co60 2.117 1_545 S
O84 C61 1.258 . S
O85 Co60 2.020 1_545 S
O85 C87 1.256 . S
O86 Co62 2.062 . S
O86 C87 1.255 . S
C87 O85 1.256 . S
C87 O86 1.255 . S
H88 C67 0.931 . S
H89 C75 0.931 . S
Co90 N95 2.057 . S
Co90 O107 2.021 . S
Co90 O110 2.062 . S
Co90 O114 2.117 . S
Co90 O115 2.020 . S
C91 O111 1.259 . S
C91 O114 1.258 . S
Co92 N101 2.057 . S
Co92 O108 2.117 . S
Co92 O109 2.020 . S
Co92 O111 2.021 . S
Co92 O116 2.062 . S
C93 N95 1.316 . S
C93 N96 1.347 . S
C93 H98 0.931 . S
C94 N95 1.375 . S
C94 C97 1.350 . S
C94 H99 0.930 . S
N95 Co90 2.057 . S
N95 C93 1.316 . S
N95 C94 1.375 . S
N96 C93 1.347 . S
N96 C97 1.373 . S
C97 C94 1.350 . S
C97 N96 1.373 . S
C97 H118 0.931 . S
H98 C93 0.931 . S
H99 C94 0.930 . S
C100 O107 1.259 . S
C100 O108 1.258 . S
N101 Co92 2.057 . S
N101 C102 1.316 . S
N101 C103 1.375 . S
C102 N101 1.316 . S
C102 N104 1.347 . S
C102 H113 0.931 . S
C103 N101 1.375 . S
C103 C105 1.350 . S
C103 H112 0.930 . S
N104 C102 1.347 . S
N104 C105 1.373 . S
C105 C103 1.350 . S
C105 N104 1.373 . S
C105 H119 0.931 . S
C106 O109 1.256 . S
C106 O110 1.255 . S
O107 Co90 2.021 . S
O107 C100 1.259 . S
O108 Co92 2.117 . S
O108 C100 1.258 . S
O109 Co92 2.020 . S
O109 C106 1.256 . S
O110 Co90 2.062 . S
O110 C106 1.255 . S
O111 C91 1.259 . S
O111 Co92 2.021 . S
H112 C103 0.930 . S
H113 C102 0.931 . S
O114 Co90 2.117 . S
O114 C91 1.258 . S
O115 Co90 2.020 . S
O115 C117 1.256 . S
O116 Co92 2.062 . S
O116 C117 1.255 . S
C117 O115 1.256 . S
C117 O116 1.255 . S
H118 C97 0.931 . S
H119 C105 0.931 . S
Co120 N125 2.057 . S
Co120 O137 2.021 1_445 S
Co120 O140 2.062 1_455 S
Co120 O144 2.117 . S
Co120 O145 2.020 1_545 S
C121 O141 1.259 . S
C121 O144 1.258 . S
Co122 N131 2.057 . S
Co122 O138 2.117 . S
Co122 O139 2.020 1_565 S
Co122 O141 2.021 1_665 S
Co122 O146 2.062 1_655 S
C123 N125 1.316 . S
C123 N126 1.347 . S
C123 H128 0.931 . S
C124 N125 1.375 . S
C124 C127 1.350 . S
C124 H129 0.930 . S
N125 Co120 2.057 . S
N125 C123 1.316 . S
N125 C124 1.375 . S
N126 C123 1.347 . S
N126 C127 1.373 . S
C127 C124 1.350 . S
C127 N126 1.373 . S
C127 H148 0.931 . S
H128 C123 0.931 . S
H129 C124 0.930 . S
C130 O137 1.259 . S
C130 O138 1.258 . S
N131 Co122 2.057 . S
N131 C132 1.316 . S
N131 C133 1.375 . S
C132 N131 1.316 . S
C132 N134 1.347 . S
C132 H143 0.931 . S
C133 N131 1.375 . S
C133 C135 1.350 . S
C133 H142 0.930 . S
N134 C132 1.347 . S
N134 C135 1.373 . S
C135 C133 1.350 . S
C135 N134 1.373 . S
C135 H149 0.931 . S
C136 O139 1.256 . S
C136 O140 1.255 . S
O137 Co120 2.021 1_665 S
O137 C130 1.259 . S
O138 Co122 2.117 . S
O138 C130 1.258 . S
O139 Co122 2.020 1_545 S
O139 C136 1.256 . S
O140 Co120 2.062 1_655 S
O140 C136 1.255 . S
O141 C121 1.259 . S
O141 Co122 2.021 1_445 S
H142 C133 0.930 . S
H143 C132 0.931 . S
O144 Co120 2.117 . S
O144 C121 1.258 . S
O145 Co120 2.020 1_565 S
O145 C147 1.256 . S
O146 Co122 2.062 1_455 S
O146 C147 1.255 . S
C147 O145 1.256 . S
C147 O146 1.255 . S
H148 C127 0.931 . S
H149 C135 0.931 . S
Co150 N155 2.057 . S
Co150 O167 2.021 . S
Co150 O170 2.062 . S
Co150 O174 2.117 . S
Co150 O175 2.020 . S
C151 O171 1.259 . S
C151 O174 1.258 . S
Co152 N161 2.057 . S
Co152 O168 2.117 . S
Co152 O169 2.020 . S
Co152 O171 2.021 . S
Co152 O176 2.062 . S
C153 N155 1.316 . S
C153 N156 1.347 . S
C153 H158 0.931 . S
C154 N155 1.375 . S
C154 C157 1.350 . S
C154 H159 0.930 . S
N155 Co150 2.057 . S
N155 C153 1.316 . S
N155 C154 1.375 . S
N156 C153 1.347 . S
N156 C157 1.373 . S
C157 C154 1.350 . S
C157 N156 1.373 . S
C157 H178 0.931 . S
H158 C153 0.931 . S
H159 C154 0.930 . S
C160 O167 1.259 . S
C160 O168 1.258 . S
N161 Co152 2.057 . S
N161 C162 1.316 . S
N161 C163 1.375 . S
C162 N161 1.316 . S
C162 N164 1.347 . S
C162 H173 0.931 . S
C163 N161 1.375 . S
C163 C165 1.350 . S
C163 H172 0.930 . S
N164 C162 1.347 . S
N164 C165 1.373 . S
C165 C163 1.350 . S
C165 N164 1.373 . S
C165 H179 0.931 . S
C166 O169 1.256 . S
C166 O170 1.255 . S
O167 Co150 2.021 . S
O167 C160 1.259 . S
O168 Co152 2.117 . S
O168 C160 1.258 . S
O169 Co152 2.020 . S
O169 C166 1.256 . S
O170 Co150 2.062 . S
O170 C166 1.255 . S
O171 C151 1.259 . S
O171 Co152 2.021 . S
H172 C163 0.930 . S
H173 C162 0.931 . S
O174 Co150 2.117 . S
O174 C151 1.258 . S
O175 Co150 2.020 . S
O175 C177 1.256 . S
O176 Co152 2.062 . S
O176 C177 1.255 . S
C177 O175 1.256 . S
C177 O176 1.255 . S
H178 C157 0.931 . S
H179 C165 0.931 . S
Co180 N185 2.057 . S
Co180 O197 2.021 1_544 S
Co180 O200 2.062 1_545 S
Co180 O204 2.117 . S
Co180 O205 2.020 1_554 S
C181 O201 1.259 . S
C181 O204 1.258 . S
Co182 N191 2.057 . S
Co182 O198 2.117 . S
Co182 O199 2.020 1_556 S
Co182 O201 2.021 1_566 S
Co182 O206 2.062 1_565 S
C183 N185 1.316 . S
C183 N186 1.347 . S
C183 H188 0.931 . S
C184 N185 1.375 . S
C184 C187 1.350 . S
C184 H189 0.930 . S
N185 Co180 2.057 . S
N185 C183 1.316 . S
N185 C184 1.375 . S
N186 C183 1.347 . S
N186 C187 1.373 . S
C187 C184 1.350 . S
C187 N186 1.373 . S
C187 H208 0.931 . S
H188 C183 0.931 . S
H189 C184 0.930 . S
C190 O197 1.259 . S
C190 O198 1.258 . S
N191 Co182 2.057 . S
N191 C192 1.316 . S
N191 C193 1.375 . S
C192 N191 1.316 . S
C192 N194 1.347 . S
C192 H203 0.931 . S
C193 N191 1.375 . S
C193 C195 1.350 . S
C193 H202 0.930 . S
N194 C192 1.347 . S
N194 C195 1.373 . S
C195 C193 1.350 . S
C195 N194 1.373 . S
C195 H209 0.931 . S
C196 O199 1.256 . S
C196 O200 1.255 . S
O197 Co180 2.021 1_566 S
O197 C190 1.259 . S
O198 Co182 2.117 . S
O198 C190 1.258 . S
O199 Co182 2.020 1_554 S
O199 C196 1.256 . S
O200 Co180 2.062 1_565 S
O200 C196 1.255 . S
O201 C181 1.259 . S
O201 Co182 2.021 1_544 S
H202 C193 0.930 . S
H203 C192 0.931 . S
O204 Co180 2.117 . S
O204 C181 1.258 . S
O205 Co180 2.020 1_556 S
O205 C207 1.256 . S
O206 Co182 2.062 1_545 S
O206 C207 1.255 . S
C207 O205 1.256 . S
C207 O206 1.255 . S
H208 C187 0.931 . S
H209 C195 0.931 . S
Co210 N215 2.057 . S
Co210 O227 2.021 . S
Co210 O230 2.062 . S
Co210 O234 2.117 . S
Co210 O235 2.020 . S
C211 O231 1.259 . S
C211 O234 1.258 . S
Co212 N221 2.057 . S
Co212 O228 2.117 . S
Co212 O229 2.020 . S
Co212 O231 2.021 . S
Co212 O236 2.062 . S
C213 N215 1.316 . S
C213 N216 1.347 . S
C213 H218 0.931 . S
C214 N215 1.375 . S
C214 C217 1.350 . S
C214 H219 0.930 . S
N215 Co210 2.057 . S
N215 C213 1.316 . S
N215 C214 1.375 . S
N216 C213 1.347 . S
N216 C217 1.373 . S
C217 C214 1.350 . S
C217 N216 1.373 . S
C217 H238 0.931 . S
H218 C213 0.931 . S
H219 C214 0.930 . S
C220 O227 1.259 . S
C220 O228 1.258 . S
N221 Co212 2.057 . S
N221 C222 1.316 . S
N221 C223 1.375 . S
C222 N221 1.316 . S
C222 N224 1.347 . S
C222 H233 0.931 . S
C223 N221 1.375 . S
C223 C225 1.350 . S
C223 H232 0.930 . S
N224 C222 1.347 . S
N224 C225 1.373 . S
C225 C223 1.350 . S
C225 N224 1.373 . S
C225 H239 0.931 . S
C226 O229 1.256 . S
C226 O230 1.255 . S
O227 Co210 2.021 . S
O227 C220 1.259 . S
O228 Co212 2.117 . S
O228 C220 1.258 . S
O229 Co212 2.020 . S
O229 C226 1.256 . S
O230 Co210 2.062 . S
O230 C226 1.255 . S
O231 C211 1.259 . S
O231 Co212 2.021 . S
H232 C223 0.930 . S
H233 C222 0.931 . S
O234 Co210 2.117 . S
O234 C211 1.258 . S
O235 Co210 2.020 . S
O235 C237 1.256 . S
O236 Co212 2.062 . S
O236 C237 1.255 . S
C237 O235 1.256 . S
C237 O236 1.255 . S
H238 C217 0.931 . S
H239 C225 0.931 . S
Co240 N245 2.057 . S
Co240 O257 2.021 . S
Co240 O260 2.062 . S
Co240 O264 2.117 1_556 S
Co240 O265 2.008 1_556 S
C241 O261 1.259 . S
C241 O264 1.258 . S
Co242 N251 2.057 . S
Co242 O258 2.117 1_554 S
Co242 O259 2.012 1_554 S
Co242 O261 2.021 . S
Co242 O266 2.062 . S
C243 N245 1.316 . S
C243 N246 1.347 . S
C243 H248 0.931 . S
C244 N245 1.375 . S
C244 C247 1.350 . S
C244 H249 0.930 . S
N245 Co240 2.057 . S
N245 C243 1.316 . S
N245 C244 1.375 . S
N246 C243 1.347 . S
N246 C247 1.373 . S
C247 C244 1.350 . S
C247 N246 1.373 . S
C247 H268 0.931 . S
H248 C243 0.931 . S
H249 C244 0.930 . S
C250 O257 1.259 . S
C250 O258 1.258 . S
N251 Co242 2.057 . S
N251 C252 1.316 . S
N251 C253 1.375 . S
C252 N251 1.316 . S
C252 N254 1.347 . S
C252 H263 0.931 . S
C253 N251 1.375 . S
C253 C255 1.350 . S
C253 H262 0.930 . S
N254 C252 1.347 . S
N254 C255 1.373 . S
C255 C253 1.350 . S
C255 N254 1.373 . S
C255 H269 0.931 . S
C256 O259 1.268 . S
C256 O260 1.255 . S
O257 Co240 2.021 . S
O257 C250 1.259 . S
O258 Co242 2.117 1_556 S
O258 C250 1.258 . S
O259 Co242 2.012 1_556 S
O259 C256 1.268 . S
O260 Co240 2.062 . S
O260 C256 1.255 . S
O261 C241 1.259 . S
O261 Co242 2.021 . S
H262 C253 0.930 . S
H263 C252 0.931 . S
O264 Co240 2.117 1_554 S
O264 C241 1.258 . S
O265 Co240 2.008 1_554 S
O265 C267 1.275 . S
O266 Co242 2.062 . S
O266 C267 1.255 . S
C267 O265 1.275 . S
C267 O266 1.255 . S
H268 C247 0.931 . S
H269 C255 0.931 . S
Co270 N275 2.057 . S
Co270 O287 2.021 . S
Co270 O290 2.062 . S
Co270 O294 2.117 . S
Co270 O295 2.020 . S
C271 O291 1.259 . S
C271 O294 1.258 . S
Co272 N281 2.057 . S
Co272 O288 2.117 . S
Co272 O289 2.020 . S
Co272 O291 2.021 . S
Co272 O296 2.062 . S
C273 N275 1.316 . S
C273 N276 1.347 . S
C273 H278 0.931 . S
C274 N275 1.375 . S
C274 C277 1.350 . S
C274 H279 0.930 . S
N275 Co270 2.057 . S
N275 C273 1.316 . S
N275 C274 1.375 . S
N276 C273 1.347 . S
N276 C277 1.373 . S
C277 C274 1.350 . S
C277 N276 1.373 . S
C277 H298 0.931 . S
H278 C273 0.931 . S
H279 C274 0.930 . S
C280 O287 1.259 . S
C280 O288 1.258 . S
N281 Co272 2.057 . S
N281 C282 1.316 . S
N281 C283 1.375 . S
C282 N281 1.316 . S
C282 N284 1.347 . S
C282 H293 0.931 . S
C283 N281 1.375 . S
C283 C285 1.350 . S
C283 H292 0.930 . S
N284 C282 1.347 . S
N284 C285 1.373 . S
C285 C283 1.350 . S
C285 N284 1.373 . S
C285 H299 0.931 . S
C286 O289 1.256 . S
C286 O290 1.255 . S
O287 Co270 2.021 . S
O287 C280 1.259 . S
O288 Co272 2.117 . S
O288 C280 1.258 . S
O289 Co272 2.020 . S
O289 C286 1.256 . S
O290 Co270 2.062 . S
O290 C286 1.255 . S
O291 C271 1.259 . S
O291 Co272 2.021 . S
H292 C283 0.930 . S
H293 C282 0.931 . S
O294 Co270 2.117 . S
O294 C271 1.258 . S
O295 Co270 2.020 . S
O295 C297 1.256 . S
O296 Co272 2.062 . S
O296 C297 1.255 . S
C297 O295 1.256 . S
C297 O296 1.255 . S
H298 C277 0.931 . S
H299 C285 0.931 . S
Co300 N305 2.057 . S
Co300 O317 2.021 . S
Co300 O320 2.062 . S
Co300 O324 2.117 1_655 S
Co300 O325 2.020 . S
C301 O321 1.259 . S
C301 O324 1.258 . S
Co302 N311 2.057 . S
Co302 O318 2.117 1_455 S
Co302 O319 2.020 . S
Co302 O321 2.021 . S
Co302 O326 2.062 . S
C303 N305 1.316 . S
C303 N306 1.347 . S
C303 H308 0.931 . S
C304 N305 1.375 . S
C304 C307 1.350 . S
C304 H309 0.930 . S
N305 Co300 2.057 . S
N305 C303 1.316 . S
N305 C304 1.375 . S
N306 C303 1.347 . S
N306 C307 1.373 . S
C307 C304 1.350 . S
C307 N306 1.373 . S
C307 H328 0.931 . S
H308 C303 0.931 . S
H309 C304 0.930 . S
C310 O317 1.259 . S
C310 O318 1.258 . S
N311 Co302 2.057 . S
N311 C312 1.316 . S
N311 C313 1.375 . S
C312 N311 1.316 . S
C312 N314 1.347 . S
C312 H323 0.931 . S
C313 N311 1.375 . S
C313 C315 1.350 . S
C313 H322 0.930 . S
N314 C312 1.347 . S
N314 C315 1.373 . S
C315 C313 1.350 . S
C315 N314 1.373 . S
C315 H329 0.931 . S
C316 O319 1.256 1_655 S
C316 O320 1.255 . S
O317 Co300 2.021 . S
O317 C310 1.259 . S
O318 Co302 2.117 1_655 S
O318 C310 1.258 . S
O319 Co302 2.020 . S
O319 C316 1.256 1_455 S
O320 Co300 2.062 . S
O320 C316 1.255 . S
O321 C301 1.259 . S
O321 Co302 2.021 . S
H322 C313 0.930 . S
H323 C312 0.931 . S
O324 Co300 2.117 1_455 S
O324 C301 1.258 . S
O325 Co300 2.020 . S
O325 C327 1.256 1_655 S
O326 Co302 2.062 . S
O326 C327 1.255 . S
C327 O325 1.256 1_455 S
C327 O326 1.255 . S
H328 C307 0.931 . S
H329 C315 0.931 . S
Co330 N335 2.057 . S
Co330 O347 2.021 . S
Co330 O350 2.062 . S
Co330 O354 2.117 . S
Co330 O355 2.020 . S
C331 O351 1.259 . S
C331 O354 1.258 . S
Co332 N341 2.057 . S
Co332 O348 2.117 . S
Co332 O349 2.020 . S
Co332 O351 2.021 . S
Co332 O356 2.062 . S
C333 N335 1.316 . S
C333 N336 1.347 . S
C333 H338 0.931 . S
C334 N335 1.375 . S
C334 C337 1.350 . S
C334 H339 0.930 . S
N335 Co330 2.057 . S
N335 C333 1.316 . S
N335 C334 1.375 . S
N336 C333 1.347 . S
N336 C337 1.373 . S
C337 C334 1.350 . S
C337 N336 1.373 . S
C337 H358 0.931 . S
H338 C333 0.931 . S
H339 C334 0.930 . S
C340 O347 1.259 . S
C340 O348 1.258 . S
N341 Co332 2.057 . S
N341 C342 1.316 . S
N341 C343 1.375 . S
C342 N341 1.316 . S
C342 N344 1.347 . S
C342 H353 0.931 . S
C343 N341 1.375 . S
C343 C345 1.350 . S
C343 H352 0.930 . S
N344 C342 1.347 . S
N344 C345 1.373 . S
C345 C343 1.350 . S
C345 N344 1.373 . S
C345 H359 0.931 . S
C346 O349 1.256 . S
C346 O350 1.255 . S
O347 Co330 2.021 . S
O347 C340 1.259 . S
O348 Co332 2.117 . S
O348 C340 1.258 . S
O349 Co332 2.020 . S
O349 C346 1.256 . S
O350 Co330 2.062 . S
O350 C346 1.255 . S
O351 C331 1.259 . S
O351 Co332 2.021 . S
H352 C343 0.930 . S
H353 C342 0.931 . S
O354 Co330 2.117 . S
O354 C331 1.258 . S
O355 Co330 2.020 . S
O355 C357 1.256 . S
O356 Co332 2.062 . S
O356 C357 1.255 . S
C357 O355 1.256 . S
C357 O356 1.255 . S
H358 C337 0.931 . S
H359 C345 0.931 . S
Co360 N365 2.057 . S
Co360 O377 2.021 . S
Co360 O380 2.062 . S
Co360 O384 2.117 . S
Co360 O385 2.020 . S
C361 O381 1.259 . S
C361 O384 1.258 . S
Co362 N371 2.057 . S
Co362 O378 2.117 . S
Co362 O379 2.020 . S
Co362 O381 2.021 . S
Co362 O386 2.062 . S
C363 N365 1.316 . S
C363 N366 1.347 . S
C363 H368 0.931 . S
C364 N365 1.375 . S
C364 C367 1.350 . S
C364 H369 0.930 . S
N365 Co360 2.057 . S
N365 C363 1.316 . S
N365 C364 1.375 . S
N366 C363 1.347 . S
N366 C367 1.373 . S
C367 C364 1.350 . S
C367 N366 1.373 . S
C367 H388 0.931 . S
H368 C363 0.931 . S
H369 C364 0.930 . S
C370 O377 1.259 . S
C370 O378 1.258 . S
N371 Co362 2.057 . S
N371 C372 1.316 . S
N371 C373 1.375 . S
C372 N371 1.316 . S
C372 N374 1.347 . S
C372 H383 0.931 . S
C373 N371 1.375 . S
C373 C375 1.350 . S
C373 H382 0.930 . S
N374 C372 1.347 . S
N374 C375 1.373 . S
C375 C373 1.350 . S
C375 N374 1.373 . S
C375 H389 0.931 . S
C376 O379 1.256 . S
C376 O380 1.255 . S
O377 Co360 2.021 . S
O377 C370 1.259 . S
O378 Co362 2.117 . S
O378 C370 1.258 . S
O379 Co362 2.020 . S
O379 C376 1.256 . S
O380 Co360 2.062 . S
O380 C376 1.255 . S
O381 C361 1.259 . S
O381 Co362 2.021 . S
H382 C373 0.930 . S
H383 C372 0.931 . S
O384 Co360 2.117 . S
O384 C361 1.258 . S
O385 Co360 2.020 . S
O385 C387 1.256 . S
O386 Co362 2.062 . S
O386 C387 1.255 . S
C387 O385 1.256 . S
C387 O386 1.255 . S
H388 C367 0.931 . S
H389 C375 0.931 . S
Co390 N395 2.057 . S
Co390 O407 2.021 . S
Co390 O410 2.062 . S
Co390 O414 2.117 . S
Co390 O415 2.020 . S
C391 O411 1.259 . S
C391 O414 1.258 . S
Co392 N401 2.057 . S
Co392 O408 2.117 . S
Co392 O409 2.020 . S
Co392 O411 2.021 . S
Co392 O416 2.062 . S
C393 N395 1.316 . S
C393 N396 1.347 . S
C393 H398 0.931 . S
C394 N395 1.375 . S
C394 C397 1.350 . S
C394 H399 0.930 . S
N395 Co390 2.057 . S
N395 C393 1.316 . S
N395 C394 1.375 . S
N396 C393 1.347 . S
N396 C397 1.373 . S
C397 C394 1.350 . S
C397 N396 1.373 . S
C397 H418 0.931 . S
H398 C393 0.931 . S
H399 C394 0.930 . S
C400 O407 1.259 . S
C400 O408 1.258 . S
N401 Co392 2.057 . S
N401 C402 1.316 . S
N401 C403 1.375 . S
C402 N401 1.316 . S
C402 N404 1.347 . S
C402 H413 0.931 . S
C403 N401 1.375 . S
C403 C405 1.350 . S
C403 H412 0.930 . S
N404 C402 1.347 . S
N404 C405 1.373 . S
C405 C403 1.350 . S
C405 N404 1.373 . S
C405 H419 0.931 . S
C406 O409 1.256 . S
C406 O410 1.255 . S
O407 Co390 2.021 . S
O407 C400 1.259 . S
O408 Co392 2.117 . S
O408 C400 1.258 . S
O409 Co392 2.020 . S
O409 C406 1.256 . S
O410 Co390 2.062 . S
O410 C406 1.255 . S
O411 C391 1.259 . S
O411 Co392 2.021 . S
H412 C403 0.930 . S
H413 C402 0.931 . S
O414 Co390 2.117 . S
O414 C391 1.258 . S
O415 Co390 2.020 . S
O415 C417 1.256 . S
O416 Co392 2.062 . S
O416 C417 1.255 . S
C417 O415 1.256 . S
C417 O416 1.255 . S
H418 C397 0.931 . S
H419 C405 0.931 . S
Co420 N425 2.057 . S
Co420 O437 2.021 . S
Co420 O440 2.062 . S
Co420 O444 2.117 . S
Co420 O445 2.020 . S
C421 O441 1.259 . S
C421 O444 1.258 . S
Co422 N431 2.057 . S
Co422 O438 2.117 . S
Co422 O439 2.020 . S
Co422 O441 2.021 . S
Co422 O446 2.062 . S
C423 N425 1.316 . S
C423 N426 1.347 . S
C423 H428 0.931 . S
C424 N425 1.375 . S
C424 C427 1.350 . S
C424 H429 0.930 . S
N425 Co420 2.057 . S
N425 C423 1.316 . S
N425 C424 1.375 . S
N426 C423 1.347 . S
N426 C427 1.373 . S
C427 C424 1.350 . S
C427 N426 1.373 . S
C427 H448 0.931 . S
H428 C423 0.931 . S
H429 C424 0.930 . S
C430 O437 1.259 . S
C430 O438 1.258 . S
N431 Co422 2.057 . S
N431 C432 1.316 . S
N431 C433 1.375 . S
C432 N431 1.316 . S
C432 N434 1.347 . S
C432 H443 0.931 . S
C433 N431 1.375 . S
C433 C435 1.350 . S
C433 H442 0.930 . S
N434 C432 1.347 . S
N434 C435 1.373 . S
C435 C433 1.350 . S
C435 N434 1.373 . S
C435 H449 0.931 . S
C436 O439 1.256 . S
C436 O440 1.255 . S
O437 Co420 2.021 . S
O437 C430 1.259 . S
O438 Co422 2.117 . S
O438 C430 1.258 . S
O439 Co422 2.020 . S
O439 C436 1.256 . S
O440 Co420 2.062 . S
O440 C436 1.255 . S
O441 C421 1.259 . S
O441 Co422 2.021 . S
H442 C433 0.930 . S
H443 C432 0.931 . S
O444 Co420 2.117 . S
O444 C421 1.258 . S
O445 Co420 2.020 . S
O445 C447 1.256 . S
O446 Co422 2.062 . S
O446 C447 1.255 . S
C447 O445 1.256 . S
C447 O446 1.255 . S
H448 C427 0.931 . S
H449 C435 0.931 . S
Co450 N455 2.057 . S
Co450 O467 2.021 1_454 S
Co450 O470 2.062 1_554 S
Co450 O474 2.117 . S
Co450 O475 2.020 1_455 S
C451 O471 1.259 . S
C451 O474 1.258 . S
Co452 N461 2.057 . S
Co452 O468 2.117 . S
Co452 O469 2.020 1_655 S
Co452 O471 2.021 1_656 S
Co452 O476 2.062 1_556 S
C453 N455 1.316 . S
C453 N456 1.347 . S
C453 H458 0.931 . S
C454 N455 1.375 . S
C454 C457 1.350 . S
C454 H459 0.930 . S
N455 Co450 2.057 . S
N455 C453 1.316 . S
N455 C454 1.375 . S
N456 C453 1.347 . S
N456 C457 1.373 . S
C457 C454 1.350 . S
C457 N456 1.373 . S
C457 H478 0.931 . S
H458 C453 0.931 . S
H459 C454 0.930 . S
C460 O467 1.259 . S
C460 O468 1.258 . S
N461 Co452 2.057 . S
N461 C462 1.316 . S
N461 C463 1.375 . S
C462 N461 1.316 . S
C462 N464 1.347 . S
C462 H473 0.931 . S
C463 N461 1.375 . S
C463 C465 1.350 . S
C463 H472 0.930 . S
N464 C462 1.347 . S
N464 C465 1.373 . S
C465 C463 1.350 . S
C465 N464 1.373 . S
C465 H479 0.931 . S
C466 O469 1.256 . S
C466 O470 1.255 . S
O467 Co450 2.021 1_656 S
O467 C460 1.259 . S
O468 Co452 2.117 . S
O468 C460 1.258 . S
O469 Co452 2.020 1_455 S
O469 C466 1.256 . S
O470 Co450 2.062 1_556 S
O470 C466 1.255 . S
O471 C451 1.259 . S
O471 Co452 2.021 1_454 S
H472 C463 0.930 . S
H473 C462 0.931 . S
O474 Co450 2.117 . S
O474 C451 1.258 . S
O475 Co450 2.020 1_655 S
O475 C477 1.256 . S
O476 Co452 2.062 1_554 S
O476 C477 1.255 . S
C477 O475 1.256 . S
C477 O476 1.255 . S
H478 C457 0.931 . S
H479 C465 0.931 . S
H480 C488 0.950 . S
H481 C493 0.950 . S
H482 C490 0.950 . S
H483 C492 0.950 . S
H484 C494 0.950 . S
H485 C496 0.950 . S
H486 C498 0.950 . S
H487 C499 0.950 . S
C488 H480 0.950 . S
C488 C489 1.386 . S
C488 C490 1.391 . S
C489 C488 1.386 . S
C489 C493 1.393 . S
C490 H482 0.950 . S
C490 C488 1.391 . S
C490 C491 1.400 . S
C491 C490 1.400 . S
C491 C492 1.398 . S
C491 C497 1.491 . S
C492 H483 0.950 . S
C492 C491 1.398 . S
C492 C493 1.391 . S
C493 H481 0.950 . S
C493 C489 1.393 . S
C493 C492 1.391 . S
C494 H484 0.950 . S
C494 C495 1.386 . S
C494 C496 1.391 . S
C495 C494 1.386 . S
C495 C499 1.393 . S
C496 H485 0.950 . S
C496 C494 1.391 . S
C496 C497 1.400 . S
C497 C491 1.491 . S
C497 C496 1.400 . S
C497 C498 1.398 . S
C498 H486 0.950 . S
C498 C497 1.398 . S
C498 C499 1.391 . S
C499 H487 0.950 . S
C499 C495 1.393 . S
C499 C498 1.391 . S
H500 C508 0.950 . S
H501 C513 0.950 . S
H502 C510 0.950 . S
H503 C512 0.950 . S
H504 C514 0.950 . S
H505 C516 0.950 . S
H506 C518 0.950 . S
H507 C519 0.950 . S
C508 H500 0.950 . S
C508 C509 1.386 . S
C508 C510 1.391 . S
C509 C508 1.386 . S
C509 C513 1.393 . S
C510 H502 0.950 . S
C510 C508 1.391 . S
C510 C511 1.400 . S
C511 C510 1.400 . S
C511 C512 1.398 . S
C511 C517 1.491 . S
C512 H503 0.950 . S
C512 C511 1.398 . S
C512 C513 1.391 . S
C513 H501 0.950 . S
C513 C509 1.393 . S
C513 C512 1.391 . S
C514 H504 0.950 . S
C514 C515 1.386 . S
C514 C516 1.391 . S
C515 C514 1.386 . S
C515 C519 1.393 . S
C516 H505 0.950 . S
C516 C514 1.391 . S
C516 C517 1.400 . S
C517 C511 1.491 . S
C517 C516 1.400 . S
C517 C518 1.398 . S
C518 H506 0.950 . S
C518 C517 1.398 . S
C518 C519 1.391 . S
C519 H507 0.950 . S
C519 C515 1.393 . S
C519 C518 1.391 . S
H520 C528 0.950 . S
H521 C533 0.950 . S
H522 C530 0.950 . S
H523 C532 0.950 . S
H524 C534 0.950 . S
H525 C536 0.950 . S
H526 C538 0.950 . S
H527 C539 0.950 . S
C528 H520 0.950 . S
C528 C529 1.386 . S
C528 C530 1.391 . S
C529 C528 1.386 . S
C529 C533 1.393 . S
C530 H522 0.950 . S
C530 C528 1.391 . S
C530 C531 1.400 . S
C531 C530 1.400 . S
C531 C532 1.398 . S
C531 C537 1.491 . S
C532 H523 0.950 . S
C532 C531 1.398 . S
C532 C533 1.391 . S
C533 H521 0.950 . S
C533 C529 1.393 . S
C533 C532 1.391 . S
C534 H524 0.950 . S
C534 C535 1.386 . S
C534 C536 1.391 . S
C535 C534 1.386 . S
C535 C539 1.393 . S
C536 H525 0.950 . S
C536 C534 1.391 . S
C536 C537 1.400 . S
C537 C531 1.491 . S
C537 C536 1.400 . S
C537 C538 1.398 . S
C538 H526 0.950 . S
C538 C537 1.398 . S
C538 C539 1.391 . S
C539 H527 0.950 . S
C539 C535 1.393 . S
C539 C538 1.391 . S
H540 C548 0.950 . S
H541 C553 0.950 . S
H542 C550 0.950 . S
H543 C552 0.950 . S
H544 C554 0.950 . S
H545 C556 0.950 . S
H546 C558 0.950 . S
H547 C559 0.950 . S
C548 H540 0.950 . S
C548 C549 1.386 . S
C548 C550 1.391 . S
C549 C548 1.386 . S
C549 C553 1.393 . S
C550 H542 0.950 . S
C550 C548 1.391 . S
C550 C551 1.400 . S
C551 C550 1.400 . S
C551 C552 1.398 . S
C551 C557 1.491 . S
C552 H543 0.950 . S
C552 C551 1.398 . S
C552 C553 1.391 . S
C553 H541 0.950 . S
C553 C549 1.393 . S
C553 C552 1.391 . S
C554 H544 0.950 . S
C554 C555 1.386 . S
C554 C556 1.391 . S
C555 C554 1.386 . S
C555 C559 1.393 . S
C556 H545 0.950 . S
C556 C554 1.391 . S
C556 C557 1.400 . S
C557 C551 1.491 . S
C557 C556 1.400 . S
C557 C558 1.398 . S
C558 H546 0.950 . S
C558 C557 1.398 . S
C558 C559 1.391 . S
C559 H547 0.950 . S
C559 C555 1.393 . S
C559 C558 1.391 . S
H560 C568 0.950 . S
H561 C573 0.950 . S
H562 C570 0.950 . S
H563 C572 0.950 . S
H564 C574 0.950 . S
H565 C576 0.950 . S
H566 C578 0.950 . S
H567 C579 0.950 . S
C568 H560 0.950 . S
C568 C569 1.386 . S
C568 C570 1.391 . S
C569 C568 1.386 . S
C569 C573 1.393 . S
C570 H562 0.950 . S
C570 C568 1.391 . S
C570 C571 1.400 . S
C571 C570 1.400 . S
C571 C572 1.398 . S
C571 C577 1.491 . S
C572 H563 0.950 . S
C572 C571 1.398 . S
C572 C573 1.391 . S
C573 H561 0.950 . S
C573 C569 1.393 . S
C573 C572 1.391 . S
C574 H564 0.950 . S
C574 C575 1.386 . S
C574 C576 1.391 . S
C575 C574 1.386 . S
C575 C579 1.393 . S
C576 H565 0.950 . S
C576 C574 1.391 . S
C576 C577 1.400 . S
C577 C571 1.491 . S
C577 C576 1.400 . S
C577 C578 1.398 . S
C578 H566 0.950 . S
C578 C577 1.398 . S
C578 C579 1.391 . S
C579 H567 0.950 . S
C579 C575 1.393 . S
C579 C578 1.391 . S
H580 C588 0.950 . S
H581 C593 0.950 . S
H582 C590 0.950 . S
H583 C592 0.950 . S
H584 C594 0.950 . S
H585 C596 0.950 . S
H586 C598 0.950 . S
H587 C599 0.950 . S
C588 H580 0.950 . S
C588 C589 1.386 . S
C588 C590 1.391 . S
C589 C588 1.386 . S
C589 C593 1.393 . S
C590 H582 0.950 . S
C590 C588 1.391 . S
C590 C591 1.400 . S
C591 C590 1.400 . S
C591 C592 1.398 . S
C591 C597 1.491 . S
C592 H583 0.950 . S
C592 C591 1.398 . S
C592 C593 1.391 . S
C593 H581 0.950 . S
C593 C589 1.393 . S
C593 C592 1.391 . S
C594 H584 0.950 . S
C594 C595 1.386 . S
C594 C596 1.391 . S
C595 C594 1.386 . S
C595 C599 1.393 . S
C596 H585 0.950 . S
C596 C594 1.391 . S
C596 C597 1.400 . S
C597 C591 1.491 . S
C597 C596 1.400 . S
C597 C598 1.398 . S
C598 H586 0.950 . S
C598 C597 1.398 . S
C598 C599 1.391 . S
C599 H587 0.950 . S
C599 C595 1.393 . S
C599 C598 1.391 . S
H600 C608 0.950 . S
H601 C613 0.950 . S
H602 C610 0.950 . S
H603 C612 0.950 . S
H604 C614 0.950 . S
H605 C616 0.950 . S
H606 C618 0.950 . S
H607 C619 0.950 . S
C608 H600 0.950 . S
C608 C609 1.386 . S
C608 C610 1.391 . S
C609 C608 1.386 . S
C609 C613 1.393 . S
C610 H602 0.950 . S
C610 C608 1.391 . S
C610 C611 1.400 . S
C611 C610 1.400 . S
C611 C612 1.398 . S
C611 C617 1.491 . S
C612 H603 0.950 . S
C612 C611 1.398 . S
C612 C613 1.391 . S
C613 H601 0.950 . S
C613 C609 1.393 . S
C613 C612 1.391 . S
C614 H604 0.950 . S
C614 C615 1.386 . S
C614 C616 1.391 . S
C615 C614 1.386 . S
C615 C619 1.393 . S
C616 H605 0.950 . S
C616 C614 1.391 . S
C616 C617 1.400 . S
C617 C611 1.491 . S
C617 C616 1.400 . S
C617 C618 1.398 . S
C618 H606 0.950 . S
C618 C617 1.398 . S
C618 C619 1.391 . S
C619 H607 0.950 . S
C619 C615 1.393 . S
C619 C618 1.391 . S
H620 C628 0.950 . S
H621 C633 0.950 . S
H622 C630 0.950 . S
H623 C632 0.950 . S
H624 C634 0.950 . S
H625 C636 0.950 . S
H626 C638 0.950 . S
H627 C639 0.950 . S
C628 H620 0.950 . S
C628 C629 1.386 . S
C628 C630 1.391 . S
C629 C628 1.386 . S
C629 C633 1.393 . S
C630 H622 0.950 . S
C630 C628 1.391 . S
C630 C631 1.400 . S
C631 C630 1.400 . S
C631 C632 1.398 . S
C631 C637 1.491 . S
C632 H623 0.950 . S
C632 C631 1.398 . S
C632 C633 1.391 . S
C633 H621 0.950 . S
C633 C629 1.393 . S
C633 C632 1.391 . S
C634 H624 0.950 . S
C634 C635 1.386 . S
C634 C636 1.391 . S
C635 C634 1.386 . S
C635 C639 1.393 . S
C636 H625 0.950 . S
C636 C634 1.391 . S
C636 C637 1.400 . S
C637 C631 1.491 . S
C637 C636 1.400 . S
C637 C638 1.398 . S
C638 H626 0.950 . S
C638 C637 1.398 . S
C638 C639 1.391 . S
C639 H627 0.950 . S
C639 C635 1.393 . S
C639 C638 1.391 . S
H640 C648 0.950 . S
H641 C653 0.950 . S
H642 C650 0.950 . S
H643 C652 0.950 . S
H644 C654 0.950 . S
H645 C656 0.950 . S
H646 C658 0.950 . S
H647 C659 0.950 . S
C648 H640 0.950 . S
C648 C649 1.386 . S
C648 C650 1.391 . S
C649 C648 1.386 . S
C649 C653 1.393 . S
C650 H642 0.950 . S
C650 C648 1.391 . S
C650 C651 1.400 . S
C651 C650 1.400 . S
C651 C652 1.398 . S
C651 C657 1.491 . S
C652 H643 0.950 . S
C652 C651 1.398 . S
C652 C653 1.391 . S
C653 H641 0.950 . S
C653 C649 1.393 . S
C653 C652 1.391 . S
C654 H644 0.950 . S
C654 C655 1.386 . S
C654 C656 1.391 . S
C655 C654 1.386 . S
C655 C659 1.393 . S
C656 H645 0.950 . S
C656 C654 1.391 . S
C656 C657 1.400 . S
C657 C651 1.491 . S
C657 C656 1.400 . S
C657 C658 1.398 . S
C658 H646 0.950 . S
C658 C657 1.398 . S
C658 C659 1.391 . S
C659 H647 0.950 . S
C659 C655 1.393 . S
C659 C658 1.391 . S
H660 C668 0.919 1_655 S
H661 C673 0.950 . S
H662 C670 0.950 . S
H663 C672 0.950 . S
H664 C674 0.950 . S
H665 C676 0.950 . S
H666 C678 0.950 . S
H667 C679 0.950 . S
C668 H660 0.919 1_455 S
C668 C669 1.386 . S
C668 C670 1.391 . S
C669 C668 1.386 . S
C669 C673 1.393 . S
C670 H662 0.950 . S
C670 C668 1.391 . S
C670 C671 1.400 . S
C671 C670 1.400 . S
C671 C672 1.398 . S
C671 C677 1.491 . S
C672 H663 0.950 . S
C672 C671 1.398 . S
C672 C673 1.391 . S
C673 H661 0.950 . S
C673 C669 1.393 . S
C673 C672 1.391 . S
C674 H664 0.950 . S
C674 C675 1.386 . S
C674 C676 1.391 . S
C675 C674 1.386 . S
C675 C679 1.393 . S
C676 H665 0.950 . S
C676 C674 1.391 . S
C676 C677 1.400 . S
C677 C671 1.491 . S
C677 C676 1.400 . S
C677 C678 1.398 . S
C678 H666 0.950 . S
C678 C677 1.398 . S
C678 C679 1.391 . S
C679 H667 0.950 . S
C679 C675 1.393 . S
C679 C678 1.391 . S
H680 C688 0.950 . S
H681 C693 0.950 . S
H682 C690 0.950 . S
H683 C692 0.950 . S
H684 C694 0.950 . S
H685 C696 0.950 . S
H686 C698 0.950 . S
H687 C699 0.950 . S
C688 H680 0.950 . S
C688 C689 1.386 . S
C688 C690 1.391 . S
C689 C688 1.386 . S
C689 C693 1.393 . S
C690 H682 0.950 . S
C690 C688 1.391 . S
C690 C691 1.400 . S
C691 C690 1.400 . S
C691 C692 1.398 . S
C691 C697 1.491 . S
C692 H683 0.950 . S
C692 C691 1.398 . S
C692 C693 1.391 . S
C693 H681 0.950 . S
C693 C689 1.393 . S
C693 C692 1.391 . S
C694 H684 0.950 . S
C694 C695 1.386 . S
C694 C696 1.391 . S
C695 C694 1.386 . S
C695 C699 1.393 . S
C696 H685 0.950 . S
C696 C694 1.391 . S
C696 C697 1.400 . S
C697 C691 1.491 . S
C697 C696 1.400 . S
C697 C698 1.398 . S
C698 H686 0.950 . S
C698 C697 1.398 . S
C698 C699 1.391 . S
C699 H687 0.950 . S
C699 C695 1.393 . S
C699 C698 1.391 . S
H700 C708 0.950 . S
H701 C713 0.950 . S
H702 C710 0.950 . S
H703 C712 0.950 . S
H704 C714 0.950 . S
H705 C716 0.950 . S
H706 C718 0.950 . S
H707 C719 0.950 . S
C708 H700 0.950 . S
C708 C709 1.386 . S
C708 C710 1.391 . S
C709 C708 1.386 . S
C709 C713 1.393 . S
C710 H702 0.950 . S
C710 C708 1.391 . S
C710 C711 1.400 . S
C711 C710 1.400 . S
C711 C712 1.398 . S
C711 C717 1.491 . S
C712 H703 0.950 . S
C712 C711 1.398 . S
C712 C713 1.391 . S
C713 H701 0.950 . S
C713 C709 1.393 . S
C713 C712 1.391 . S
C714 H704 0.950 . S
C714 C715 1.386 . S
C714 C716 1.391 . S
C715 C714 1.386 . S
C715 C719 1.393 . S
C716 H705 0.950 . S
C716 C714 1.391 . S
C716 C717 1.400 . S
C717 C711 1.491 . S
C717 C716 1.400 . S
C717 C718 1.398 . S
C718 H706 0.950 . S
C718 C717 1.398 . S
C718 C719 1.391 . S
C719 H707 0.950 . S
C719 C715 1.393 . S
C719 C718 1.391 . S
H720 C728 0.950 . S
H721 C733 0.950 . S
H722 C730 0.950 . S
H723 C732 0.950 . S
H724 C734 0.950 . S
H725 C736 0.950 . S
H726 C738 0.950 . S
H727 C739 0.950 . S
C728 H720 0.950 . S
C728 C729 1.386 . S
C728 C730 1.391 . S
C729 C728 1.386 . S
C729 C733 1.393 . S
C730 H722 0.950 . S
C730 C728 1.391 . S
C730 C731 1.400 . S
C731 C730 1.400 . S
C731 C732 1.398 . S
C731 C737 1.491 . S
C732 H723 0.950 . S
C732 C731 1.398 . S
C732 C733 1.391 . S
C733 H721 0.950 . S
C733 C729 1.393 . S
C733 C732 1.391 . S
C734 H724 0.950 . S
C734 C735 1.386 . S
C734 C736 1.391 . S
C735 C734 1.386 . S
C735 C739 1.393 . S
C736 H725 0.950 . S
C736 C734 1.391 . S
C736 C737 1.400 . S
C737 C731 1.491 . S
C737 C736 1.400 . S
C737 C738 1.398 . S
C738 H726 0.950 . S
C738 C737 1.398 . S
C738 C739 1.391 . S
C739 H727 0.950 . S
C739 C735 1.393 . S
C739 C738 1.391 . S
H740 C748 0.950 . S
H741 C753 0.950 . S
H742 C750 0.950 . S
H743 C752 0.950 . S
H744 C754 0.950 . S
H745 C756 0.950 . S
H746 C758 0.950 . S
H747 C759 0.950 . S
C748 H740 0.950 . S
C748 C749 1.386 . S
C748 C750 1.391 . S
C749 C748 1.386 . S
C749 C753 1.393 . S
C750 H742 0.950 . S
C750 C748 1.391 . S
C750 C751 1.400 . S
C751 C750 1.400 . S
C751 C752 1.398 . S
C751 C757 1.491 . S
C752 H743 0.950 . S
C752 C751 1.398 . S
C752 C753 1.391 . S
C753 H741 0.950 . S
C753 C749 1.393 . S
C753 C752 1.391 . S
C754 H744 0.950 . S
C754 C755 1.386 . S
C754 C756 1.391 . S
C755 C754 1.386 . S
C755 C759 1.393 . S
C756 H745 0.950 . S
C756 C754 1.391 . S
C756 C757 1.400 . S
C757 C751 1.491 . S
C757 C756 1.400 . S
C757 C758 1.398 . S
C758 H746 0.950 . S
C758 C757 1.398 . S
C758 C759 1.391 . S
C759 H747 0.950 . S
C759 C755 1.393 . S
C759 C758 1.391 . S
H760 C768 0.950 . S
H761 C773 0.950 . S
H762 C770 0.950 . S
H763 C772 0.950 . S
H764 C774 0.950 . S
H765 C776 0.950 . S
H766 C778 0.950 . S
H767 C779 0.950 . S
C768 H760 0.950 . S
C768 C769 1.386 . S
C768 C770 1.391 . S
C769 C768 1.386 . S
C769 C773 1.393 . S
C770 H762 0.950 . S
C770 C768 1.391 . S
C770 C771 1.400 . S
C771 C770 1.400 . S
C771 C772 1.398 . S
C771 C777 1.491 . S
C772 H763 0.950 . S
C772 C771 1.398 . S
C772 C773 1.391 . S
C773 H761 0.950 . S
C773 C769 1.393 . S
C773 C772 1.391 . S
C774 H764 0.950 . S
C774 C775 1.386 . S
C774 C776 1.391 . S
C775 C774 1.386 . S
C775 C779 1.393 . S
C776 H765 0.950 . S
C776 C774 1.391 . S
C776 C777 1.400 . S
C777 C771 1.491 . S
C777 C776 1.400 . S
C777 C778 1.398 . S
C778 H766 0.950 . S
C778 C777 1.398 . S
C778 C779 1.391 . S
C779 H767 0.950 . S
C779 C775 1.393 . S
C779 C778 1.391 . S
H780 C788 0.950 . S
H781 C793 0.950 . S
H782 C790 0.950 . S
H783 C792 0.950 . S
H784 C794 0.950 . S
H785 C796 0.950 . S
H786 C798 0.950 . S
H787 C799 0.950 . S
C788 H780 0.950 . S
C788 C789 1.386 . S
C788 C790 1.391 . S
C789 C788 1.386 . S
C789 C793 1.393 . S
C790 H782 0.950 . S
C790 C788 1.391 . S
C790 C791 1.400 . S
C791 C790 1.400 . S
C791 C792 1.398 . S
C791 C797 1.491 . S
C792 H783 0.950 . S
C792 C791 1.398 . S
C792 C793 1.391 . S
C793 H781 0.950 . S
C793 C789 1.393 . S
C793 C792 1.391 . S
C794 H784 0.950 . S
C794 C795 1.386 . S
C794 C796 1.391 . S
C795 C794 1.386 . S
C795 C799 1.393 . S
C796 H785 0.950 . S
C796 C794 1.391 . S
C796 C797 1.400 . S
C797 C791 1.491 . S
C797 C796 1.400 . S
C797 C798 1.398 . S
C798 H786 0.950 . S
C798 C797 1.398 . S
C798 C799 1.391 . S
C799 H787 0.950 . S
C799 C795 1.393 . S
C799 C798 1.391 . S
H800 C808 0.950 . S
H801 C813 0.950 . S
H802 C810 0.950 . S
H803 C812 0.950 . S
H804 C814 0.950 . S
H805 C816 0.950 . S
H806 C818 0.950 . S
H807 C819 0.950 . S
C808 H800 0.950 . S
C808 C809 1.386 . S
C808 C810 1.391 . S
C809 C808 1.386 . S
C809 C813 1.393 . S
C810 H802 0.950 . S
C810 C808 1.391 . S
C810 C811 1.400 . S
C811 C810 1.400 . S
C811 C812 1.398 . S
C811 C817 1.491 . S
C812 H803 0.950 . S
C812 C811 1.398 . S
C812 C813 1.391 . S
C813 H801 0.950 . S
C813 C809 1.393 . S
C813 C812 1.391 . S
C814 H804 0.950 . S
C814 C815 1.386 . S
C814 C816 1.391 . S
C815 C814 1.386 . S
C815 C819 1.393 . S
C816 H805 0.950 . S
C816 C814 1.391 . S
C816 C817 1.400 . S
C817 C811 1.491 . S
C817 C816 1.400 . S
C817 C818 1.398 . S
C818 H806 0.950 . S
C818 C817 1.398 . S
C818 C819 1.391 . S
C819 H807 0.950 . S
C819 C815 1.393 . S
C819 C818 1.391 . S
H820 C828 0.950 . S
H821 C833 0.950 . S
H822 C830 0.950 . S
H823 C832 0.950 . S
H824 C834 0.950 . S
H825 C836 0.950 . S
H826 C838 0.950 . S
H827 C839 0.968 . S
C828 H820 0.950 . S
C828 C829 1.386 . S
C828 C830 1.391 . S
C829 C828 1.386 . S
C829 C833 1.393 . S
C830 H822 0.950 . S
C830 C828 1.391 . S
C830 C831 1.400 . S
C831 C830 1.400 . S
C831 C832 1.398 . S
C831 C837 1.491 . S
C832 H823 0.950 . S
C832 C831 1.398 . S
C832 C833 1.391 . S
C833 H821 0.950 . S
C833 C829 1.393 . S
C833 C832 1.391 . S
C834 H824 0.950 . S
C834 C835 1.386 . S
C834 C836 1.391 . S
C835 C834 1.386 . S
C835 C839 1.393 . S
C836 H825 0.950 . S
C836 C834 1.391 . S
C836 C837 1.400 . S
C837 C831 1.491 . S
C837 C836 1.400 . S
C837 C838 1.398 . S
C838 H826 0.950 . S
C838 C837 1.398 . S
C838 C839 1.391 . S
C839 H827 0.968 . S
C839 C835 1.393 . S
C839 C838 1.391 . S
H840 C848 0.950 . S
H841 C853 0.950 . S
H842 C850 0.950 . S
H843 C852 0.950 . S
H844 C854 0.950 . S
H845 C856 0.950 . S
H846 C858 0.950 . S
H847 C859 0.950 . S
C848 H840 0.950 . S
C848 C849 1.386 . S
C848 C850 1.391 . S
C849 C848 1.386 . S
C849 C853 1.393 . S
C850 H842 0.950 . S
C850 C848 1.391 . S
C850 C851 1.400 . S
C851 C850 1.400 . S
C851 C852 1.398 . S
C851 C857 1.491 . S
C852 H843 0.950 . S
C852 C851 1.398 . S
C852 C853 1.391 . S
C853 H841 0.950 . S
C853 C849 1.393 . S
C853 C852 1.391 . S
C854 H844 0.950 . S
C854 C855 1.386 . S
C854 C856 1.391 . S
C855 C854 1.386 . S
C855 C859 1.393 . S
C856 H845 0.950 . S
C856 C854 1.391 . S
C856 C857 1.400 . S
C857 C851 1.491 . S
C857 C856 1.400 . S
C857 C858 1.398 . S
C858 H846 0.950 . S
C858 C857 1.398 . S
C858 C859 1.391 . S
C859 H847 0.950 . S
C859 C855 1.393 . S
C859 C858 1.391 . S
H860 C868 0.950 . S
H861 C873 0.950 . S
H862 C870 0.950 . S
H863 C872 0.950 . S
H864 C874 0.950 . S
H865 C876 0.950 . S
H866 C878 0.950 . S
H867 C879 0.950 . S
C868 H860 0.950 . S
C868 C869 1.386 . S
C868 C870 1.391 . S
C869 C868 1.386 . S
C869 C873 1.393 . S
C870 H862 0.950 . S
C870 C868 1.391 . S
C870 C871 1.400 . S
C871 C870 1.400 . S
C871 C872 1.398 . S
C871 C877 1.491 . S
C872 H863 0.950 . S
C872 C871 1.398 . S
C872 C873 1.391 . S
C873 H861 0.950 . S
C873 C869 1.393 . S
C873 C872 1.391 . S
C874 H864 0.950 . S
C874 C875 1.386 . S
C874 C876 1.391 . S
C875 C874 1.386 . S
C875 C879 1.393 . S
C876 H865 0.950 . S
C876 C874 1.391 . S
C876 C877 1.400 . S
C877 C871 1.491 . S
C877 C876 1.400 . S
C877 C878 1.398 . S
C878 H866 0.950 . S
C878 C877 1.398 . S
C878 C879 1.391 . S
C879 H867 0.950 . S
C879 C875 1.393 . S
C879 C878 1.391 . S
H880 C888 0.950 . S
H881 C893 0.950 . S
H882 C890 0.950 . S
H883 C892 0.950 . S
H884 C894 0.950 . S
H885 C896 0.950 . S
H886 C898 0.950 . S
H887 C899 0.950 . S
C888 H880 0.950 . S
C888 C889 1.386 . S
C888 C890 1.391 . S
C889 C888 1.386 . S
C889 C893 1.393 . S
C890 H882 0.950 . S
C890 C888 1.391 . S
C890 C891 1.400 . S
C891 C890 1.400 . S
C891 C892 1.398 . S
C891 C897 1.491 . S
C892 H883 0.950 . S
C892 C891 1.398 . S
C892 C893 1.391 . S
C893 H881 0.950 . S
C893 C889 1.393 . S
C893 C892 1.391 . S
C894 H884 0.950 . S
C894 C895 1.386 . S
C894 C896 1.391 . S
C895 C894 1.386 . S
C895 C899 1.393 . S
C896 H885 0.950 . S
C896 C894 1.391 . S
C896 C897 1.400 . S
C897 C891 1.491 . S
C897 C896 1.400 . S
C897 C898 1.398 . S
C898 H886 0.950 . S
C898 C897 1.398 . S
C898 C899 1.391 . S
C899 H887 0.950 . S
C899 C895 1.393 . S
C899 C898 1.391 . S
H900 C908 0.950 . S
H901 C913 0.950 . S
H902 C910 0.950 . S
H903 C912 0.950 . S
H904 C914 0.950 . S
H905 C916 0.950 . S
H906 C918 0.950 . S
H907 C919 0.950 . S
C908 H900 0.950 . S
C908 C909 1.386 . S
C908 C910 1.391 . S
C909 C908 1.386 . S
C909 C913 1.393 . S
C910 H902 0.950 . S
C910 C908 1.391 . S
C910 C911 1.400 . S
C911 C910 1.400 . S
C911 C912 1.398 . S
C911 C917 1.491 . S
C912 H903 0.950 . S
C912 C911 1.398 . S
C912 C913 1.391 . S
C913 H901 0.950 . S
C913 C909 1.393 . S
C913 C912 1.391 . S
C914 H904 0.950 . S
C914 C915 1.386 . S
C914 C916 1.391 . S
C915 C914 1.386 . S
C915 C919 1.393 . S
C916 H905 0.950 . S
C916 C914 1.391 . S
C916 C917 1.400 . S
C917 C911 1.491 . S
C917 C916 1.400 . S
C917 C918 1.398 . S
C918 H906 0.950 . S
C918 C917 1.398 . S
C918 C919 1.391 . S
C919 H907 0.950 . S
C919 C915 1.393 . S
C919 C918 1.391 . S
H920 C928 0.950 . S
H921 C933 0.950 . S
H922 C930 0.950 . S
H923 C932 0.950 . S
H924 C934 0.950 . S
H925 C936 0.950 . S
H926 C938 0.950 . S
H927 C939 0.950 . S
C928 H920 0.950 . S
C928 C929 1.386 . S
C928 C930 1.391 . S
C929 C928 1.386 . S
C929 C933 1.393 . S
C930 H922 0.950 . S
C930 C928 1.391 . S
C930 C931 1.400 . S
C931 C930 1.400 . S
C931 C932 1.398 . S
C931 C937 1.491 . S
C932 H923 0.950 . S
C932 C931 1.398 . S
C932 C933 1.391 . S
C933 H921 0.950 . S
C933 C929 1.393 . S
C933 C932 1.391 . S
C934 H924 0.950 . S
C934 C935 1.386 . S
C934 C936 1.391 . S
C935 C934 1.386 . S
C935 C939 1.393 . S
C936 H925 0.950 . S
C936 C934 1.391 . S
C936 C937 1.400 . S
C937 C931 1.491 . S
C937 C936 1.400 . S
C937 C938 1.398 . S
C938 H926 0.950 . S
C938 C937 1.398 . S
C938 C939 1.391 . S
C939 H927 0.950 . S
C939 C935 1.393 . S
C939 C938 1.391 . S
H940 C948 0.950 . S
H941 C953 0.950 . S
H942 C950 0.950 . S
H943 C952 0.950 . S
H944 C954 0.950 . S
H945 C956 0.950 . S
H946 C958 0.950 . S
H947 C959 0.950 . S
C948 H940 0.950 . S
C948 C949 1.386 . S
C948 C950 1.391 . S
C949 C948 1.386 . S
C949 C953 1.393 . S
C950 H942 0.950 . S
C950 C948 1.391 . S
C950 C951 1.400 . S
C951 C950 1.400 . S
C951 C952 1.398 . S
C951 C957 1.491 . S
C952 H943 0.950 . S
C952 C951 1.398 . S
C952 C953 1.391 . S
C953 H941 0.950 . S
C953 C949 1.393 . S
C953 C952 1.391 . S
C954 H944 0.950 . S
C954 C955 1.386 . S
C954 C956 1.391 . S
C955 C954 1.386 . S
C955 C959 1.393 . S
C956 H945 0.950 . S
C956 C954 1.391 . S
C956 C957 1.400 . S
C957 C951 1.491 . S
C957 C956 1.400 . S
C957 C958 1.398 . S
C958 H946 0.950 . S
C958 C957 1.398 . S
C958 C959 1.391 . S
C959 H947 0.950 . S
C959 C955 1.393 . S
C959 C958 1.391 . S
H960 C968 0.950 . S
H961 C973 0.950 . S
H962 C970 0.950 . S
H963 C972 0.950 . S
H964 C974 0.950 . S
H965 C976 0.950 . S
H966 C978 0.950 . S
H967 C979 0.950 . S
C968 H960 0.950 . S
C968 C969 1.386 . S
C968 C970 1.391 . S
C969 C968 1.386 . S
C969 C973 1.393 . S
C970 H962 0.950 . S
C970 C968 1.391 . S
C970 C971 1.400 . S
C971 C970 1.400 . S
C971 C972 1.398 . S
C971 C977 1.491 . S
C972 H963 0.950 . S
C972 C971 1.398 . S
C972 C973 1.391 . S
C973 H961 0.950 . S
C973 C969 1.393 . S
C973 C972 1.391 . S
C974 H964 0.950 . S
C974 C975 1.386 . S
C974 C976 1.391 . S
C975 C974 1.386 . S
C975 C979 1.393 . S
C976 H965 0.950 . S
C976 C974 1.391 . S
C976 C977 1.400 . S
C977 C971 1.491 . S
C977 C976 1.400 . S
C977 C978 1.398 . S
C978 H966 0.950 . S
C978 C977 1.398 . S
C978 C979 1.391 . S
C979 H967 0.950 . S
C979 C975 1.393 . S
C979 C978 1.391 . S
H980 C988 0.950 . S
H981 C993 0.950 . S
H982 C990 0.950 . S
H983 C992 0.950 . S
H984 C994 0.950 . S
H985 C996 0.950 . S
H986 C998 0.950 . S
H987 C999 0.950 . S
C988 H980 0.950 . S
C988 C989 1.386 . S
C988 C990 1.391 . S
C989 C988 1.386 . S
C989 C993 1.393 . S
C990 H982 0.950 . S
C990 C988 1.391 . S
C990 C991 1.400 . S
C991 C990 1.400 . S
C991 C992 1.398 . S
C991 C997 1.491 . S
C992 H983 0.950 . S
C992 C991 1.398 . S
C992 C993 1.391 . S
C993 H981 0.950 . S
C993 C989 1.393 . S
C993 C992 1.391 . S
C994 H984 0.950 . S
C994 C995 1.386 . S
C994 C996 1.391 . S
C995 C994 1.386 . S
C995 C999 1.393 . S
C996 H985 0.950 . S
C996 C994 1.391 . S
C996 C997 1.400 . S
C997 C991 1.491 . S
C997 C996 1.400 . S
C997 C998 1.398 . S
C998 H986 0.950 . S
C998 C997 1.398 . S
C998 C999 1.391 . S
C999 H987 0.950 . S
C999 C995 1.393 . S
C999 C998 1.391 . S
H1000 C1008 0.950 . S
H1001 C1013 0.950 . S
H1002 C1010 0.950 . S
H1003 C1012 0.950 . S
H1004 C1014 0.950 . S
H1005 C1016 0.950 . S
H1006 C1018 0.950 . S
H1007 C1019 0.950 . S
C1008 H1000 0.950 . S
C1008 C1009 1.386 . S
C1008 C1010 1.391 . S
C1009 C1008 1.386 . S
C1009 C1013 1.393 . S
C1010 H1002 0.950 . S
C1010 C1008 1.391 . S
C1010 C1011 1.400 . S
C1011 C1010 1.400 . S
C1011 C1012 1.398 . S
C1011 C1017 1.491 . S
C1012 H1003 0.950 . S
C1012 C1011 1.398 . S
C1012 C1013 1.391 . S
C1013 H1001 0.950 . S
C1013 C1009 1.393 . S
C1013 C1012 1.391 . S
C1014 H1004 0.950 . S
C1014 C1015 1.386 . S
C1014 C1016 1.391 . S
C1015 C1014 1.386 . S
C1015 C1019 1.393 . S
C1016 H1005 0.950 . S
C1016 C1014 1.391 . S
C1016 C1017 1.400 . S
C1017 C1011 1.491 . S
C1017 C1016 1.400 . S
C1017 C1018 1.398 . S
C1018 H1006 0.950 . S
C1018 C1017 1.398 . S
C1018 C1019 1.391 . S
C1019 H1007 0.950 . S
C1019 C1015 1.393 . S
C1019 C1018 1.391 . S
H1020 C1028 0.950 . S
H1021 C1033 0.950 . S
H1022 C1030 0.950 . S
H1023 C1032 0.950 . S
H1024 C1034 0.950 . S
H1025 C1036 0.950 . S
H1026 C1038 0.950 . S
H1027 C1039 0.950 . S
C1028 H1020 0.950 . S
C1028 C1029 1.386 . S
C1028 C1030 1.391 . S
C1029 C1028 1.386 . S
C1029 C1033 1.393 . S
C1030 H1022 0.950 . S
C1030 C1028 1.391 . S
C1030 C1031 1.400 . S
C1031 C1030 1.400 . S
C1031 C1032 1.398 . S
C1031 C1037 1.491 . S
C1032 H1023 0.950 . S
C1032 C1031 1.398 . S
C1032 C1033 1.391 . S
C1033 H1021 0.950 . S
C1033 C1029 1.393 . S
C1033 C1032 1.391 . S
C1034 H1024 0.950 . S
C1034 C1035 1.386 . S
C1034 C1036 1.391 . S
C1035 C1034 1.386 . S
C1035 C1039 1.393 . S
C1036 H1025 0.950 . S
C1036 C1034 1.391 . S
C1036 C1037 1.400 . S
C1037 C1031 1.491 . S
C1037 C1036 1.400 . S
C1037 C1038 1.398 . S
C1038 H1026 0.950 . S
C1038 C1037 1.398 . S
C1038 C1039 1.391 . S
C1039 H1027 0.950 . S
C1039 C1035 1.393 . S
C1039 C1038 1.391 . S
H1040 C1048 0.950 . S
H1041 C1053 0.950 . S
H1042 C1050 0.950 . S
H1043 C1052 0.950 . S
H1044 C1054 0.950 . S
H1045 C1056 0.950 . S
H1046 C1058 0.950 . S
H1047 C1059 0.950 . S
C1048 H1040 0.950 . S
C1048 C1049 1.386 . S
C1048 C1050 1.391 . S
C1049 C1048 1.386 . S
C1049 C1053 1.393 . S
C1050 H1042 0.950 . S
C1050 C1048 1.391 . S
C1050 C1051 1.400 . S
C1051 C1050 1.400 . S
C1051 C1052 1.398 . S
C1051 C1057 1.491 . S
C1052 H1043 0.950 . S
C1052 C1051 1.398 . S
C1052 C1053 1.391 . S
C1053 H1041 0.950 . S
C1053 C1049 1.393 . S
C1053 C1052 1.391 . S
C1054 H1044 0.950 . S
C1054 C1055 1.386 . S
C1054 C1056 1.391 . S
C1055 C1054 1.386 . S
C1055 C1059 1.393 . S
C1056 H1045 0.950 . S
C1056 C1054 1.391 . S
C1056 C1057 1.400 . S
C1057 C1051 1.491 . S
C1057 C1056 1.400 . S
C1057 C1058 1.398 . S
C1058 H1046 0.950 . S
C1058 C1057 1.398 . S
C1058 C1059 1.391 . S
C1059 H1047 0.950 . S
C1059 C1055 1.393 . S
C1059 C1058 1.391 . S
H1060 C1068 0.950 . S
H1061 C1073 0.950 . S
H1062 C1070 0.950 . S
H1063 C1072 0.950 . S
H1064 C1074 0.950 . S
H1065 C1076 0.950 . S
H1066 C1078 0.950 . S
H1067 C1079 0.950 . S
C1068 H1060 0.950 . S
C1068 C1069 1.386 . S
C1068 C1070 1.391 . S
C1069 C1068 1.386 . S
C1069 C1073 1.393 . S
C1070 H1062 0.950 . S
C1070 C1068 1.391 . S
C1070 C1071 1.400 . S
C1071 C1070 1.400 . S
C1071 C1072 1.398 . S
C1071 C1077 1.491 . S
C1072 H1063 0.950 . S
C1072 C1071 1.398 . S
C1072 C1073 1.391 . S
C1073 H1061 0.950 . S
C1073 C1069 1.393 . S
C1073 C1072 1.391 . S
C1074 H1064 0.950 . S
C1074 C1075 1.386 . S
C1074 C1076 1.391 . S
C1075 C1074 1.386 . S
C1075 C1079 1.393 . S
C1076 H1065 0.950 . S
C1076 C1074 1.391 . S
C1076 C1077 1.400 . S
C1077 C1071 1.491 . S
C1077 C1076 1.400 . S
C1077 C1078 1.398 . S
C1078 H1066 0.950 . S
C1078 C1077 1.398 . S
C1078 C1079 1.391 . S
C1079 H1067 0.950 . S
C1079 C1075 1.393 . S
C1079 C1078 1.391 . S
H1080 C1088 0.950 . S
H1081 C1093 0.950 . S
H1082 C1090 0.950 . S
H1083 C1092 0.950 . S
H1084 C1094 0.950 . S
H1085 C1096 0.950 . S
H1086 C1098 0.950 . S
H1087 C1099 0.950 . S
C1088 H1080 0.950 . S
C1088 C1089 1.386 . S
C1088 C1090 1.391 . S
C1089 C1088 1.386 . S
C1089 C1093 1.393 . S
C1090 H1082 0.950 . S
C1090 C1088 1.391 . S
C1090 C1091 1.400 . S
C1091 C1090 1.400 . S
C1091 C1092 1.398 . S
C1091 C1097 1.491 . S
C1092 H1083 0.950 . S
C1092 C1091 1.398 . S
C1092 C1093 1.391 . S
C1093 H1081 0.950 . S
C1093 C1089 1.393 . S
C1093 C1092 1.391 . S
C1094 H1084 0.950 . S
C1094 C1095 1.386 . S
C1094 C1096 1.391 . S
C1095 C1094 1.386 . S
C1095 C1099 1.393 . S
C1096 H1085 0.950 . S
C1096 C1094 1.391 . S
C1096 C1097 1.400 . S
C1097 C1091 1.491 . S
C1097 C1096 1.400 . S
C1097 C1098 1.398 . S
C1098 H1086 0.950 . S
C1098 C1097 1.398 . S
C1098 C1099 1.391 . S
C1099 H1087 0.950 . S
C1099 C1095 1.393 . S
C1099 C1098 1.391 . S
H1100 C1108 0.950 . S
H1101 C1113 0.950 . S
H1102 C1110 0.950 . S
H1103 C1112 0.950 . S
H1104 C1114 0.950 . S
H1105 C1116 0.950 . S
H1106 C1118 0.950 . S
H1107 C1119 0.950 . S
C1108 H1100 0.950 . S
C1108 C1109 1.386 . S
C1108 C1110 1.391 . S
C1109 C1108 1.386 . S
C1109 C1113 1.393 . S
C1110 H1102 0.950 . S
C1110 C1108 1.391 . S
C1110 C1111 1.400 . S
C1111 C1110 1.400 . S
C1111 C1112 1.398 . S
C1111 C1117 1.491 . S
C1112 H1103 0.950 . S
C1112 C1111 1.398 . S
C1112 C1113 1.391 . S
C1113 H1101 0.950 . S
C1113 C1109 1.393 . S
C1113 C1112 1.391 . S
C1114 H1104 0.950 . S
C1114 C1115 1.386 . S
C1114 C1116 1.391 . S
C1115 C1114 1.386 . S
C1115 C1119 1.393 . S
C1116 H1105 0.950 . S
C1116 C1114 1.391 . S
C1116 C1117 1.400 . S
C1117 C1111 1.491 . S
C1117 C1116 1.400 . S
C1117 C1118 1.398 . S
C1118 H1106 0.950 . S
C1118 C1117 1.398 . S
C1118 C1119 1.391 . S
C1119 H1107 0.950 . S
C1119 C1115 1.393 . S
C1119 C1118 1.391 . S
H1120 C1128 0.950 . S
H1121 C1133 0.950 . S
H1122 C1130 0.950 . S
H1123 C1132 0.950 . S
H1124 C1134 0.950 . S
H1125 C1136 0.950 . S
H1126 C1138 0.950 . S
H1127 C1139 0.950 . S
C1128 H1120 0.950 . S
C1128 C1129 1.386 . S
C1128 C1130 1.391 . S
C1129 C1128 1.386 . S
C1129 C1133 1.393 . S
C1130 H1122 0.950 . S
C1130 C1128 1.391 . S
C1130 C1131 1.400 . S
C1131 C1130 1.400 . S
C1131 C1132 1.398 . S
C1131 C1137 1.491 . S
C1132 H1123 0.950 . S
C1132 C1131 1.398 . S
C1132 C1133 1.391 . S
C1133 H1121 0.950 . S
C1133 C1129 1.393 . S
C1133 C1132 1.391 . S
C1134 H1124 0.950 . S
C1134 C1135 1.386 . S
C1134 C1136 1.391 . S
C1135 C1134 1.386 . S
C1135 C1139 1.393 . S
C1136 H1125 0.950 . S
C1136 C1134 1.391 . S
C1136 C1137 1.400 . S
C1137 C1131 1.491 . S
C1137 C1136 1.400 . S
C1137 C1138 1.398 . S
C1138 H1126 0.950 . S
C1138 C1137 1.398 . S
C1138 C1139 1.391 . S
C1139 H1127 0.950 . S
C1139 C1135 1.393 . S
C1139 C1138 1.391 . S
H1140 C1148 0.950 . S
H1141 C1153 0.950 . S
H1142 C1150 0.950 . S
H1143 C1152 0.950 . S
H1144 C1154 0.950 . S
H1145 C1156 0.950 . S
H1146 C1158 0.950 . S
H1147 C1159 0.950 . S
C1148 H1140 0.950 . S
C1148 C1149 1.386 . S
C1148 C1150 1.391 . S
C1149 C1148 1.386 . S
C1149 C1153 1.393 . S
C1150 H1142 0.950 . S
C1150 C1148 1.391 . S
C1150 C1151 1.400 . S
C1151 C1150 1.400 . S
C1151 C1152 1.398 . S
C1151 C1157 1.491 . S
C1152 H1143 0.950 . S
C1152 C1151 1.398 . S
C1152 C1153 1.391 . S
C1153 H1141 0.950 . S
C1153 C1149 1.393 . S
C1153 C1152 1.391 . S
C1154 H1144 0.950 . S
C1154 C1155 1.386 . S
C1154 C1156 1.391 . S
C1155 C1154 1.386 . S
C1155 C1159 1.393 . S
C1156 H1145 0.950 . S
C1156 C1154 1.391 . S
C1156 C1157 1.400 . S
C1157 C1151 1.491 . S
C1157 C1156 1.400 . S
C1157 C1158 1.398 . S
C1158 H1146 0.950 . S
C1158 C1157 1.398 . S
C1158 C1159 1.391 . S
C1159 H1147 0.950 . S
C1159 C1155 1.393 . S
C1159 C1158 1.391 . S
H1160 C1168 0.950 . S
H1161 C1173 0.950 . S
H1162 C1170 0.950 . S
H1163 C1172 0.950 . S
H1164 C1174 0.950 . S
H1165 C1176 0.950 . S
H1166 C1178 0.950 . S
H1167 C1179 0.950 . S
C1168 H1160 0.950 . S
C1168 C1169 1.386 . S
C1168 C1170 1.391 . S
C1169 C1168 1.386 . S
C1169 C1173 1.393 . S
C1170 H1162 0.950 . S
C1170 C1168 1.391 . S
C1170 C1171 1.400 . S
C1171 C1170 1.400 . S
C1171 C1172 1.398 . S
C1171 C1177 1.491 . S
C1172 H1163 0.950 . S
C1172 C1171 1.398 . S
C1172 C1173 1.391 . S
C1173 H1161 0.950 . S
C1173 C1169 1.393 . S
C1173 C1172 1.391 . S
C1174 H1164 0.950 . S
C1174 C1175 1.386 . S
C1174 C1176 1.391 . S
C1175 C1174 1.386 . S
C1175 C1179 1.393 . S
C1176 H1165 0.950 . S
C1176 C1174 1.391 . S
C1176 C1177 1.400 . S
C1177 C1171 1.491 . S
C1177 C1176 1.400 . S
C1177 C1178 1.398 . S
C1178 H1166 0.950 . S
C1178 C1177 1.398 . S
C1178 C1179 1.391 . S
C1179 H1167 0.950 . S
C1179 C1175 1.393 . S
C1179 C1178 1.391 . S
H1180 C1188 0.950 . S
H1181 C1193 0.950 . S
H1182 C1190 0.950 . S
H1183 C1192 0.950 . S
H1184 C1194 0.950 . S
H1185 C1196 0.950 . S
H1186 C1198 0.950 . S
H1187 C1199 0.950 . S
C1188 H1180 0.950 . S
C1188 C1189 1.386 . S
C1188 C1190 1.391 . S
C1189 C1188 1.386 . S
C1189 C1193 1.393 . S
C1190 H1182 0.950 . S
C1190 C1188 1.391 . S
C1190 C1191 1.400 . S
C1191 C1190 1.400 . S
C1191 C1192 1.398 . S
C1191 C1197 1.491 . S
C1192 H1183 0.950 . S
C1192 C1191 1.398 . S
C1192 C1193 1.391 . S
C1193 H1181 0.950 . S
C1193 C1189 1.393 . S
C1193 C1192 1.391 . S
C1194 H1184 0.950 . S
C1194 C1195 1.386 . S
C1194 C1196 1.391 . S
C1195 C1194 1.386 . S
C1195 C1199 1.393 . S
C1196 H1185 0.950 . S
C1196 C1194 1.391 . S
C1196 C1197 1.400 . S
C1197 C1191 1.491 . S
C1197 C1196 1.400 . S
C1197 C1198 1.398 . S
C1198 H1186 0.950 . S
C1198 C1197 1.398 . S
C1198 C1199 1.391 . S
C1199 H1187 0.950 . S
C1199 C1195 1.393 . S
C1199 C1198 1.391 . S
H1200 C1208 0.950 . S
H1201 C1213 0.950 . S
H1202 C1210 0.950 . S
H1203 C1212 0.950 . S
H1204 C1214 0.950 . S
H1205 C1216 0.950 . S
H1206 C1218 0.950 . S
H1207 C1219 0.950 . S
C1208 H1200 0.950 . S
C1208 C1209 1.386 . S
C1208 C1210 1.391 . S
C1209 C1208 1.386 . S
C1209 C1213 1.393 . S
C1210 H1202 0.950 . S
C1210 C1208 1.391 . S
C1210 C1211 1.400 . S
C1211 C1210 1.400 . S
C1211 C1212 1.398 . S
C1211 C1217 1.491 . S
C1212 H1203 0.950 . S
C1212 C1211 1.398 . S
C1212 C1213 1.391 . S
C1213 H1201 0.950 . S
C1213 C1209 1.393 . S
C1213 C1212 1.391 . S
C1214 H1204 0.950 . S
C1214 C1215 1.386 . S
C1214 C1216 1.391 . S
C1215 C1214 1.386 . S
C1215 C1219 1.393 . S
C1216 H1205 0.950 . S
C1216 C1214 1.391 . S
C1216 C1217 1.400 . S
C1217 C1211 1.491 . S
C1217 C1216 1.400 . S
C1217 C1218 1.398 . S
C1218 H1206 0.950 . S
C1218 C1217 1.398 . S
C1218 C1219 1.391 . S
C1219 H1207 0.950 . S
C1219 C1215 1.393 . S
C1219 C1218 1.391 . S
H1220 C1228 0.950 . S
H1221 C1233 0.950 . S
H1222 C1230 0.950 . S
H1223 C1232 0.950 . S
H1224 C1234 0.950 . S
H1225 C1236 0.950 . S
H1226 C1238 0.950 . S
H1227 C1239 0.950 . S
C1228 H1220 0.950 . S
C1228 C1229 1.386 . S
C1228 C1230 1.391 . S
C1229 C1228 1.386 . S
C1229 C1233 1.393 . S
C1230 H1222 0.950 . S
C1230 C1228 1.391 . S
C1230 C1231 1.400 . S
C1231 C1230 1.400 . S
C1231 C1232 1.398 . S
C1231 C1237 1.491 . S
C1232 H1223 0.950 . S
C1232 C1231 1.398 . S
C1232 C1233 1.391 . S
C1233 H1221 0.950 . S
C1233 C1229 1.393 . S
C1233 C1232 1.391 . S
C1234 H1224 0.950 . S
C1234 C1235 1.386 . S
C1234 C1236 1.391 . S
C1235 C1234 1.386 . S
C1235 C1239 1.393 . S
C1236 H1225 0.950 . S
C1236 C1234 1.391 . S
C1236 C1237 1.400 . S
C1237 C1231 1.491 . S
C1237 C1236 1.400 . S
C1237 C1238 1.398 . S
C1238 H1226 0.950 . S
C1238 C1237 1.398 . S
C1238 C1239 1.391 . S
C1239 H1227 0.950 . S
C1239 C1235 1.393 . S
C1239 C1238 1.391 . S
H1240 C1248 0.950 . S
H1241 C1253 0.950 . S
H1242 C1250 0.950 . S
H1243 C1252 0.950 . S
H1244 C1254 0.950 . S
H1245 C1256 0.950 . S
H1246 C1258 0.950 . S
H1247 C1259 0.950 . S
C1248 H1240 0.950 . S
C1248 C1249 1.386 . S
C1248 C1250 1.391 . S
C1249 C1248 1.386 . S
C1249 C1253 1.393 . S
C1250 H1242 0.950 . S
C1250 C1248 1.391 . S
C1250 C1251 1.400 . S
C1251 C1250 1.400 . S
C1251 C1252 1.398 . S
C1251 C1257 1.491 . S
C1252 H1243 0.950 . S
C1252 C1251 1.398 . S
C1252 C1253 1.391 . S
C1253 H1241 0.950 . S
C1253 C1249 1.393 . S
C1253 C1252 1.391 . S
C1254 H1244 0.950 . S
C1254 C1255 1.386 . S
C1254 C1256 1.391 . S
C1255 C1254 1.386 . S
C1255 C1259 1.393 . S
C1256 H1245 0.950 . S
C1256 C1254 1.391 . S
C1256 C1257 1.400 . S
C1257 C1251 1.491 . S
C1257 C1256 1.400 . S
C1257 C1258 1.398 . S
C1258 H1246 0.950 . S
C1258 C1257 1.398 . S
C1258 C1259 1.391 . S
C1259 H1247 0.950 . S
C1259 C1255 1.393 . S
C1259 C1258 1.391 . S
H1260 C1268 0.950 . S
H1261 C1273 0.950 . S
H1262 C1270 0.950 . S
H1263 C1272 0.950 . S
H1264 C1274 0.950 . S
H1265 C1276 0.950 . S
H1266 C1278 0.950 . S
H1267 C1279 0.950 . S
C1268 H1260 0.950 . S
C1268 C1269 1.386 . S
C1268 C1270 1.391 . S
C1269 C1268 1.386 . S
C1269 C1273 1.393 . S
C1270 H1262 0.950 . S
C1270 C1268 1.391 . S
C1270 C1271 1.400 . S
C1271 C1270 1.400 . S
C1271 C1272 1.398 . S
C1271 C1277 1.491 . S
C1272 H1263 0.950 . S
C1272 C1271 1.398 . S
C1272 C1273 1.391 . S
C1273 H1261 0.950 . S
C1273 C1269 1.393 . S
C1273 C1272 1.391 . S
C1274 H1264 0.950 . S
C1274 C1275 1.386 . S
C1274 C1276 1.391 . S
C1275 C1274 1.386 . S
C1275 C1279 1.393 . S
C1276 H1265 0.950 . S
C1276 C1274 1.391 . S
C1276 C1277 1.400 . S
C1277 C1271 1.491 . S
C1277 C1276 1.400 . S
C1277 C1278 1.398 . S
C1278 H1266 0.950 . S
C1278 C1277 1.398 . S
C1278 C1279 1.391 . S
C1279 H1267 0.950 . S
C1279 C1275 1.393 . S
C1279 C1278 1.391 . S
H1280 C1288 0.950 . S
H1281 C1293 0.950 . S
H1282 C1290 0.950 . S
H1283 C1292 0.950 . S
H1284 C1294 0.950 . S
H1285 C1296 0.950 . S
H1286 C1298 0.950 . S
H1287 C1299 0.950 . S
C1288 H1280 0.950 . S
C1288 C1289 1.386 . S
C1288 C1290 1.391 . S
C1289 C1288 1.386 . S
C1289 C1293 1.393 . S
C1290 H1282 0.950 . S
C1290 C1288 1.391 . S
C1290 C1291 1.400 . S
C1291 C1290 1.400 . S
C1291 C1292 1.398 . S
C1291 C1297 1.491 . S
C1292 H1283 0.950 . S
C1292 C1291 1.398 . S
C1292 C1293 1.391 . S
C1293 H1281 0.950 . S
C1293 C1289 1.393 . S
C1293 C1292 1.391 . S
C1294 H1284 0.950 . S
C1294 C1295 1.386 . S
C1294 C1296 1.391 . S
C1295 C1294 1.386 . S
C1295 C1299 1.393 . S
C1296 H1285 0.950 . S
C1296 C1294 1.391 . S
C1296 C1297 1.400 . S
C1297 C1291 1.491 . S
C1297 C1296 1.400 . S
C1297 C1298 1.398 . S
C1298 H1286 0.950 . S
C1298 C1297 1.398 . S
C1298 C1299 1.391 . S
C1299 H1287 0.950 . S
C1299 C1295 1.393 . S
C1299 C1298 1.391 . S
H1300 C1308 0.950 . S
H1301 C1313 0.950 . S
H1302 C1310 0.950 . S
H1303 C1312 0.950 . S
H1304 C1314 0.950 . S
H1305 C1316 0.950 . S
H1306 C1318 0.950 . S
H1307 C1319 0.950 . S
C1308 H1300 0.950 . S
C1308 C1309 1.386 . S
C1308 C1310 1.391 . S
C1309 C1308 1.386 . S
C1309 C1313 1.393 . S
C1310 H1302 0.950 . S
C1310 C1308 1.391 . S
C1310 C1311 1.400 . S
C1311 C1310 1.400 . S
C1311 C1312 1.398 . S
C1311 C1317 1.491 . S
C1312 H1303 0.950 . S
C1312 C1311 1.398 . S
C1312 C1313 1.391 . S
C1313 H1301 0.950 . S
C1313 C1309 1.393 . S
C1313 C1312 1.391 . S
C1314 H1304 0.950 . S
C1314 C1315 1.386 . S
C1314 C1316 1.391 . S
C1315 C1314 1.386 . S
C1315 C1319 1.393 . S
C1316 H1305 0.950 . S
C1316 C1314 1.391 . S
C1316 C1317 1.400 . S
C1317 C1311 1.491 . S
C1317 C1316 1.400 . S
C1317 C1318 1.398 . S
C1318 H1306 0.950 . S
C1318 C1317 1.398 . S
C1318 C1319 1.391 . S
C1319 H1307 0.950 . S
C1319 C1315 1.393 . S
C1319 C1318 1.391 . S
H1320 C1328 0.950 . S
H1321 C1333 0.950 . S
H1322 C1330 0.950 . S
H1323 C1332 0.950 . S
H1324 C1334 0.950 . S
H1325 C1336 0.950 . S
H1326 C1338 0.950 . S
H1327 C1339 0.950 . S
C1328 H1320 0.950 . S
C1328 C1329 1.386 . S
C1328 C1330 1.391 . S
C1329 C1328 1.386 . S
C1329 C1333 1.393 . S
C1330 H1322 0.950 . S
C1330 C1328 1.391 . S
C1330 C1331 1.400 . S
C1331 C1330 1.400 . S
C1331 C1332 1.398 . S
C1331 C1337 1.491 . S
C1332 H1323 0.950 . S
C1332 C1331 1.398 . S
C1332 C1333 1.391 . S
C1333 H1321 0.950 . S
C1333 C1329 1.393 . S
C1333 C1332 1.391 . S
C1334 H1324 0.950 . S
C1334 C1335 1.386 . S
C1334 C1336 1.391 . S
C1335 C1334 1.386 . S
C1335 C1339 1.393 . S
C1336 H1325 0.950 . S
C1336 C1334 1.391 . S
C1336 C1337 1.400 . S
C1337 C1331 1.491 . S
C1337 C1336 1.400 . S
C1337 C1338 1.398 . S
C1338 H1326 0.950 . S
C1338 C1337 1.398 . S
C1338 C1339 1.391 . S
C1339 H1327 0.950 . S
C1339 C1335 1.393 . S
C1339 C1338 1.391 . S
H1340 C1348 0.950 . S
H1341 C1353 0.950 . S
H1342 C1350 0.950 . S
H1343 C1352 0.950 . S
H1344 C1354 0.950 . S
H1345 C1356 0.950 . S
H1346 C1358 0.950 . S
H1347 C1359 0.950 . S
C1348 H1340 0.950 . S
C1348 C1349 1.386 . S
C1348 C1350 1.391 . S
C1349 C1348 1.386 . S
C1349 C1353 1.393 . S
C1350 H1342 0.950 . S
C1350 C1348 1.391 . S
C1350 C1351 1.400 . S
C1351 C1350 1.400 . S
C1351 C1352 1.398 . S
C1351 C1357 1.491 . S
C1352 H1343 0.950 . S
C1352 C1351 1.398 . S
C1352 C1353 1.391 . S
C1353 H1341 0.950 . S
C1353 C1349 1.393 . S
C1353 C1352 1.391 . S
C1354 H1344 0.950 . S
C1354 C1355 1.386 . S
C1354 C1356 1.391 . S
C1355 C1354 1.386 . S
C1355 C1359 1.393 . S
C1356 H1345 0.950 . S
C1356 C1354 1.391 . S
C1356 C1357 1.400 . S
C1357 C1351 1.491 . S
C1357 C1356 1.400 . S
C1357 C1358 1.398 . S
C1358 H1346 0.950 . S
C1358 C1357 1.398 . S
C1358 C1359 1.391 . S
C1359 H1347 0.950 . S
C1359 C1355 1.393 . S
C1359 C1358 1.391 . S
H1360 C1368 0.950 . S
H1361 C1373 0.950 . S
H1362 C1370 0.950 . S
H1363 C1372 0.950 . S
H1364 C1374 0.950 . S
H1365 C1376 0.950 . S
H1366 C1378 0.950 . S
H1367 C1379 0.950 . S
C1368 H1360 0.950 . S
C1368 C1369 1.386 . S
C1368 C1370 1.391 . S
C1369 C1368 1.386 . S
C1369 C1373 1.393 . S
C1370 H1362 0.950 . S
C1370 C1368 1.391 . S
C1370 C1371 1.400 . S
C1371 C1370 1.400 . S
C1371 C1372 1.398 . S
C1371 C1377 1.491 . S
C1372 H1363 0.950 . S
C1372 C1371 1.398 . S
C1372 C1373 1.391 . S
C1373 H1361 0.950 . S
C1373 C1369 1.393 . S
C1373 C1372 1.391 . S
C1374 H1364 0.950 . S
C1374 C1375 1.386 . S
C1374 C1376 1.391 . S
C1375 C1374 1.386 . S
C1375 C1379 1.393 . S
C1376 H1365 0.950 . S
C1376 C1374 1.391 . S
C1376 C1377 1.400 . S
C1377 C1371 1.491 . S
C1377 C1376 1.400 . S
C1377 C1378 1.398 . S
C1378 H1366 0.950 . S
C1378 C1377 1.398 . S
C1378 C1379 1.391 . S
C1379 H1367 0.950 . S
C1379 C1375 1.393 . S
C1379 C1378 1.391 . S
H1380 C1388 0.950 . S
H1381 C1393 0.950 . S
H1382 C1390 0.950 . S
H1383 C1392 0.950 . S
H1384 C1394 0.950 . S
H1385 C1396 0.950 . S
H1386 C1398 0.950 . S
H1387 C1399 0.950 . S
C1388 H1380 0.950 . S
C1388 C1389 1.386 . S
C1388 C1390 1.391 . S
C1389 C1388 1.386 . S
C1389 C1393 1.393 . S
C1390 H1382 0.950 . S
C1390 C1388 1.391 . S
C1390 C1391 1.400 . S
C1391 C1390 1.400 . S
C1391 C1392 1.398 . S
C1391 C1397 1.491 . S
C1392 H1383 0.950 . S
C1392 C1391 1.398 . S
C1392 C1393 1.391 . S
C1393 H1381 0.950 . S
C1393 C1389 1.393 . S
C1393 C1392 1.391 . S
C1394 H1384 0.950 . S
C1394 C1395 1.386 . S
C1394 C1396 1.391 . S
C1395 C1394 1.386 . S
C1395 C1399 1.393 . S
C1396 H1385 0.950 . S
C1396 C1394 1.391 . S
C1396 C1397 1.400 . S
C1397 C1391 1.491 . S
C1397 C1396 1.400 . S
C1397 C1398 1.398 . S
C1398 H1386 0.950 . S
C1398 C1397 1.398 . S
C1398 C1399 1.391 . S
C1399 H1387 0.950 . S
C1399 C1395 1.393 . S
C1399 C1398 1.391 . S
H1400 C1408 0.950 . S
H1401 C1413 0.950 . S
H1402 C1410 0.950 . S
H1403 C1412 0.950 . S
H1404 C1414 0.950 . S
H1405 C1416 0.950 . S
H1406 C1418 0.950 . S
H1407 C1419 0.950 . S
C1408 H1400 0.950 . S
C1408 C1409 1.386 . S
C1408 C1410 1.391 . S
C1409 C1408 1.386 . S
C1409 C1413 1.393 . S
C1410 H1402 0.950 . S
C1410 C1408 1.391 . S
C1410 C1411 1.400 . S
C1411 C1410 1.400 . S
C1411 C1412 1.398 . S
C1411 C1417 1.491 . S
C1412 H1403 0.950 . S
C1412 C1411 1.398 . S
C1412 C1413 1.391 . S
C1413 H1401 0.950 . S
C1413 C1409 1.393 . S
C1413 C1412 1.391 . S
C1414 H1404 0.950 . S
C1414 C1415 1.386 . S
C1414 C1416 1.391 . S
C1415 C1414 1.386 . S
C1415 C1419 1.393 . S
C1416 H1405 0.950 . S
C1416 C1414 1.391 . S
C1416 C1417 1.400 . S
C1417 C1411 1.491 . S
C1417 C1416 1.400 . S
C1417 C1418 1.398 . S
C1418 H1406 0.950 . S
C1418 C1417 1.398 . S
C1418 C1419 1.391 . S
C1419 H1407 0.950 . S
C1419 C1415 1.393 . S
C1419 C1418 1.391 . S
H1420 C1428 0.950 . S
H1421 C1433 0.950 . S
H1422 C1430 0.950 . S
H1423 C1432 0.950 . S
H1424 C1434 0.950 . S
H1425 C1436 0.950 . S
H1426 C1438 0.950 . S
H1427 C1439 0.950 . S
C1428 H1420 0.950 . S
C1428 C1429 1.386 . S
C1428 C1430 1.391 . S
C1429 C1428 1.386 . S
C1429 C1433 1.393 . S
C1430 H1422 0.950 . S
C1430 C1428 1.391 . S
C1430 C1431 1.400 . S
C1431 C1430 1.400 . S
C1431 C1432 1.398 . S
C1431 C1437 1.491 . S
C1432 H1423 0.950 . S
C1432 C1431 1.398 . S
C1432 C1433 1.391 . S
C1433 H1421 0.950 . S
C1433 C1429 1.393 . S
C1433 C1432 1.391 . S
C1434 H1424 0.950 . S
C1434 C1435 1.386 . S
C1434 C1436 1.391 . S
C1435 C1434 1.386 . S
C1435 C1439 1.393 . S
C1436 H1425 0.950 . S
C1436 C1434 1.391 . S
C1436 C1437 1.400 . S
C1437 C1431 1.491 . S
C1437 C1436 1.400 . S
C1437 C1438 1.398 . S
C1438 H1426 0.950 . S
C1438 C1437 1.398 . S
C1438 C1439 1.391 . S
C1439 H1427 0.950 . S
C1439 C1435 1.393 . S
C1439 C1438 1.391 . S
C489 C106 1.621 . S
C495 N14 1.507 . S
C509 C16 2.275 . S
C515 C46 2.287 . S
C529 C70 1.130 . S
C535 C31 1.135 . S
C549 N104 0.785 . S
C555 C87 0.770 . S
C569 C147 0.860 . S
C575 N164 0.845 . S
C589 C151 1.136 . S
C595 C190 1.144 . S
C609 N186 0.784 . S
C615 C220 0.748 . S
C629 N126 0.333 . S
C635 N216 0.482 . S
C649 C286 2.124 . S
C655 C1 2.125 . S
C669 C327 1.574 . S
C675 N44 1.471 . S
C689 N66 0.826 . S
C695 C417 0.864 . S
C709 C250 1.153 . S
C715 C91 1.154 . S
C729 C331 1.152 . S
C735 C130 1.157 . S
C749 C421 2.124 . S
C755 C166 2.125 . S
C769 C207 1.589 . S
C775 N374 1.502 . S
C789 N456 0.868 . S
C795 C237 0.838 . S
C809 N246 0.411 . S
C815 N396 0.397 . S
C829 N284 0.804 . S
C835 C267 0.838 . S
C849 C310 1.139 . S
C855 C271 1.145 . S
C869 N434 1.494 . S
C875 C346 1.623 . S
C889 C361 1.124 . S
C895 C460 1.135 . S
C909 C357 1.625 . S
C915 N6 1.523 . S
C929 C387 2.286 . S
C935 C27 2.278 . S
C949 C370 1.131 . S
C955 C61 1.131 . S
C969 C76 0.771 . S
C975 N336 0.788 . S
C989 N276 0.826 . S
C995 C136 0.839 . S
C1009 C280 1.140 . S
C1015 C181 1.131 . S
C1029 C391 0.771 . S
C1035 N194 0.746 . S
C1049 N134 0.423 . S
C1055 N404 0.392 . S
C1069 C177 2.130 . S
C1075 C10 2.128 . S
C1089 C316 1.589 . S
C1095 N366 1.502 . S
C1109 N74 0.827 . S
C1115 C226 0.868 . S
C1129 C241 1.163 . S
C1135 C340 1.157 . S
C1149 C100 1.157 . S
C1155 C121 1.158 . S
C1169 C297 2.127 . S
C1175 C430 2.121 . S
C1189 C196 1.575 . S
C1195 N36 1.472 . S
C1209 N464 0.869 . S
C1215 C406 0.850 . S
C1229 N254 0.363 . S
C1235 N224 0.469 . S
C1249 C256 0.859 . S
C1255 N156 0.842 . S
C1269 C301 1.142 . S
C1275 C160 1.141 . S
C1289 C117 1.631 . S
C1295 N426 1.515 . S
C1309 C40 1.132 . S
C1315 C451 1.129 . S
C1329 C376 2.288 . S
C1335 C436 2.275 . S
C1349 N344 0.732 . S
C1355 C477 0.742 . S
C1369 N306 0.744 . S
C1375 C400 0.758 . S
C1389 C447 2.277 . S
C1395 C57 2.284 . S
C1409 N96 0.766 . S
C1415 C466 0.756 . S
C1429 C211 0.751 . S
C1435 N314 0.757 . S
