# Generated by pormake.
# Topology wmy, (6)-cn, num edge types: 1
# Building blocks:
#     Node 0, Type 0, BuildingBlock: IZENUY_clean_sbu_0, # of connection points: 6
#     Node 1, Type 0, BuildingBlock: IZENUY_clean_sbu_0, # of connection points: 6
#     Node 2, Type 0, BuildingBlock: IZENUY_clean_sbu_0, # of connection points: 6
#     Node 3, Type 0, BuildingBlock: IZENUY_clean_sbu_0, # of connection points: 6
#     Node 4, Type 0, BuildingBlock: IZENUY_clean_sbu_0, # of connection points: 6
#     Node 5, Type 0, BuildingBlock: IZENUY_clean_sbu_0, # of connection points: 6
#     Node 6, Type 0, BuildingBlock: IZENUY_clean_sbu_0, # of connection points: 6
#     Node 7, Type 0, BuildingBlock: IZENUY_clean_sbu_0, # of connection points: 6
#     Node 8, Type 0, BuildingBlock: IZENUY_clean_sbu_0, # of connection points: 6
#     Node 9, Type 0, BuildingBlock: IZENUY_clean_sbu_0, # of connection points: 6
#     Node 10, Type 0, BuildingBlock: IZENUY_clean_sbu_0, # of connection points: 6
#     Node 11, Type 0, BuildingBlock: IZENUY_clean_sbu_0, # of connection points: 6
#     Node 12, Type 0, BuildingBlock: IZENUY_clean_sbu_0, # of connection points: 6
#     Node 13, Type 0, BuildingBlock: IZENUY_clean_sbu_0, # of connection points: 6
#     Node 14, Type 0, BuildingBlock: IZENUY_clean_sbu_0, # of connection points: 6
#     Node 15, Type 0, BuildingBlock: IZENUY_clean_sbu_0, # of connection points: 6
#     Node 16, Type 0, BuildingBlock: IZENUY_clean_sbu_0, # of connection points: 6
#     Node 17, Type 0, BuildingBlock: IZENUY_clean_sbu_0, # of connection points: 6
#     Node 18, Type 0, BuildingBlock: IZENUY_clean_sbu_0, # of connection points: 6
#     Node 19, Type 0, BuildingBlock: IZENUY_clean_sbu_0, # of connection points: 6
#     Node 20, Type 0, BuildingBlock: IZENUY_clean_sbu_0, # of connection points: 6
#     Node 21, Type 0, BuildingBlock: IZENUY_clean_sbu_0, # of connection points: 6
#     Node 22, Type 0, BuildingBlock: IZENUY_clean_sbu_0, # of connection points: 6
#     Node 23, Type 0, BuildingBlock: IZENUY_clean_sbu_0, # of connection points: 6
#     Node 24, Type 0, BuildingBlock: IZENUY_clean_sbu_0, # of connection points: 6
#     Node 25, Type 0, BuildingBlock: IZENUY_clean_sbu_0, # of connection points: 6
#     Node 26, Type 0, BuildingBlock: IZENUY_clean_sbu_0, # of connection points: 6
#     Node 27, Type 0, BuildingBlock: IZENUY_clean_sbu_0, # of connection points: 6
#     Node 28, Type 0, BuildingBlock: IZENUY_clean_sbu_0, # of connection points: 6
#     Node 29, Type 0, BuildingBlock: IZENUY_clean_sbu_0, # of connection points: 6
#     Node 30, Type 0, BuildingBlock: IZENUY_clean_sbu_0, # of connection points: 6
#     Node 31, Type 0, BuildingBlock: IZENUY_clean_sbu_0, # of connection points: 6
#     Node 32, Type 0, BuildingBlock: IZENUY_clean_sbu_0, # of connection points: 6
#     Node 33, Type 0, BuildingBlock: IZENUY_clean_sbu_0, # of connection points: 6
#     Node 34, Type 0, BuildingBlock: IZENUY_clean_sbu_0, # of connection points: 6
#     Node 35, Type 0, BuildingBlock: IZENUY_clean_sbu_0, # of connection points: 6
#     Edge 36, Type (0, 0), BuildingBlock: OJICUG_clean_linker_0, # of connection points: 2
#     Edge 37, Type (0, 0), BuildingBlock: OJICUG_clean_linker_0, # of connection points: 2
#     Edge 38, Type (0, 0), BuildingBlock: OJICUG_clean_linker_0, # of connection points: 2
#     Edge 39, Type (0, 0), BuildingBlock: OJICUG_clean_linker_0, # of connection points: 2
#     Edge 40, Type (0, 0), BuildingBlock: OJICUG_clean_linker_0, # of connection points: 2
#     Edge 41, Type (0, 0), BuildingBlock: OJICUG_clean_linker_0, # of connection points: 2
#     Edge 42, Type (0, 0), BuildingBlock: OJICUG_clean_linker_0, # of connection points: 2
#     Edge 43, Type (0, 0), BuildingBlock: OJICUG_clean_linker_0, # of connection points: 2
#     Edge 44, Type (0, 0), BuildingBlock: OJICUG_clean_linker_0, # of connection points: 2
#     Edge 45, Type (0, 0), BuildingBlock: OJICUG_clean_linker_0, # of connection points: 2
#     Edge 46, Type (0, 0), BuildingBlock: OJICUG_clean_linker_0, # of connection points: 2
#     Edge 47, Type (0, 0), BuildingBlock: OJICUG_clean_linker_0, # of connection points: 2
#     Edge 48, Type (0, 0), BuildingBlock: OJICUG_clean_linker_0, # of connection points: 2
#     Edge 49, Type (0, 0), BuildingBlock: OJICUG_clean_linker_0, # of connection points: 2
#     Edge 50, Type (0, 0), BuildingBlock: OJICUG_clean_linker_0, # of connection points: 2
#     Edge 51, Type (0, 0), BuildingBlock: OJICUG_clean_linker_0, # of connection points: 2
#     Edge 52, Type (0, 0), BuildingBlock: OJICUG_clean_linker_0, # of connection points: 2
#     Edge 53, Type (0, 0), BuildingBlock: OJICUG_clean_linker_0, # of connection points: 2
#     Edge 54, Type (0, 0), BuildingBlock: OJICUG_clean_linker_0, # of connection points: 2
#     Edge 55, Type (0, 0), BuildingBlock: OJICUG_clean_linker_0, # of connection points: 2
#     Edge 56, Type (0, 0), BuildingBlock: OJICUG_clean_linker_0, # of connection points: 2
#     Edge 57, Type (0, 0), BuildingBlock: OJICUG_clean_linker_0, # of connection points: 2
#     Edge 58, Type (0, 0), BuildingBlock: OJICUG_clean_linker_0, # of connection points: 2
#     Edge 59, Type (0, 0), BuildingBlock: OJICUG_clean_linker_0, # of connection points: 2
#     Edge 60, Type (0, 0), BuildingBlock: OJICUG_clean_linker_0, # of connection points: 2
#     Edge 61, Type (0, 0), BuildingBlock: OJICUG_clean_linker_0, # of connection points: 2
#     Edge 62, Type (0, 0), BuildingBlock: OJICUG_clean_linker_0, # of connection points: 2
#     Edge 63, Type (0, 0), BuildingBlock: OJICUG_clean_linker_0, # of connection points: 2
#     Edge 64, Type (0, 0), BuildingBlock: OJICUG_clean_linker_0, # of connection points: 2
#     Edge 65, Type (0, 0), BuildingBlock: OJICUG_clean_linker_0, # of connection points: 2
#     Edge 66, Type (0, 0), BuildingBlock: OJICUG_clean_linker_0, # of connection points: 2
#     Edge 67, Type (0, 0), BuildingBlock: OJICUG_clean_linker_0, # of connection points: 2
#     Edge 68, Type (0, 0), BuildingBlock: OJICUG_clean_linker_0, # of connection points: 2
#     Edge 69, Type (0, 0), BuildingBlock: OJICUG_clean_linker_0, # of connection points: 2
#     Edge 70, Type (0, 0), BuildingBlock: OJICUG_clean_linker_0, # of connection points: 2
#     Edge 71, Type (0, 0), BuildingBlock: OJICUG_clean_linker_0, # of connection points: 2
#     Edge 72, Type (0, 0), BuildingBlock: OJICUG_clean_linker_0, # of connection points: 2
#     Edge 73, Type (0, 0), BuildingBlock: OJICUG_clean_linker_0, # of connection points: 2
#     Edge 74, Type (0, 0), BuildingBlock: OJICUG_clean_linker_0, # of connection points: 2
#     Edge 75, Type (0, 0), BuildingBlock: OJICUG_clean_linker_0, # of connection points: 2
#     Edge 76, Type (0, 0), BuildingBlock: OJICUG_clean_linker_0, # of connection points: 2
#     Edge 77, Type (0, 0), BuildingBlock: OJICUG_clean_linker_0, # of connection points: 2
#     Edge 78, Type (0, 0), BuildingBlock: OJICUG_clean_linker_0, # of connection points: 2
#     Edge 79, Type (0, 0), BuildingBlock: OJICUG_clean_linker_0, # of connection points: 2
#     Edge 80, Type (0, 0), BuildingBlock: OJICUG_clean_linker_0, # of connection points: 2
#     Edge 81, Type (0, 0), BuildingBlock: OJICUG_clean_linker_0, # of connection points: 2
#     Edge 82, Type (0, 0), BuildingBlock: OJICUG_clean_linker_0, # of connection points: 2
#     Edge 83, Type (0, 0), BuildingBlock: OJICUG_clean_linker_0, # of connection points: 2
#     Edge 84, Type (0, 0), BuildingBlock: OJICUG_clean_linker_0, # of connection points: 2
#     Edge 85, Type (0, 0), BuildingBlock: OJICUG_clean_linker_0, # of connection points: 2
#     Edge 86, Type (0, 0), BuildingBlock: OJICUG_clean_linker_0, # of connection points: 2
#     Edge 87, Type (0, 0), BuildingBlock: OJICUG_clean_linker_0, # of connection points: 2
#     Edge 88, Type (0, 0), BuildingBlock: OJICUG_clean_linker_0, # of connection points: 2
#     Edge 89, Type (0, 0), BuildingBlock: OJICUG_clean_linker_0, # of connection points: 2
#     Edge 90, Type (0, 0), BuildingBlock: OJICUG_clean_linker_0, # of connection points: 2
#     Edge 91, Type (0, 0), BuildingBlock: OJICUG_clean_linker_0, # of connection points: 2
#     Edge 92, Type (0, 0), BuildingBlock: OJICUG_clean_linker_0, # of connection points: 2
#     Edge 93, Type (0, 0), BuildingBlock: OJICUG_clean_linker_0, # of connection points: 2
#     Edge 94, Type (0, 0), BuildingBlock: OJICUG_clean_linker_0, # of connection points: 2
#     Edge 95, Type (0, 0), BuildingBlock: OJICUG_clean_linker_0, # of connection points: 2
#     Edge 96, Type (0, 0), BuildingBlock: OJICUG_clean_linker_0, # of connection points: 2
#     Edge 97, Type (0, 0), BuildingBlock: OJICUG_clean_linker_0, # of connection points: 2
#     Edge 98, Type (0, 0), BuildingBlock: OJICUG_clean_linker_0, # of connection points: 2
#     Edge 99, Type (0, 0), BuildingBlock: OJICUG_clean_linker_0, # of connection points: 2
#     Edge 100, Type (0, 0), BuildingBlock: OJICUG_clean_linker_0, # of connection points: 2
#     Edge 101, Type (0, 0), BuildingBlock: OJICUG_clean_linker_0, # of connection points: 2
#     Edge 102, Type (0, 0), BuildingBlock: OJICUG_clean_linker_0, # of connection points: 2
#     Edge 103, Type (0, 0), BuildingBlock: OJICUG_clean_linker_0, # of connection points: 2
#     Edge 104, Type (0, 0), BuildingBlock: OJICUG_clean_linker_0, # of connection points: 2
#     Edge 105, Type (0, 0), BuildingBlock: OJICUG_clean_linker_0, # of connection points: 2
#     Edge 106, Type (0, 0), BuildingBlock: OJICUG_clean_linker_0, # of connection points: 2
#     Edge 107, Type (0, 0), BuildingBlock: OJICUG_clean_linker_0, # of connection points: 2
#     Edge 108, Type (0, 0), BuildingBlock: OJICUG_clean_linker_0, # of connection points: 2
#     Edge 109, Type (0, 0), BuildingBlock: OJICUG_clean_linker_0, # of connection points: 2
#     Edge 110, Type (0, 0), BuildingBlock: OJICUG_clean_linker_0, # of connection points: 2
#     Edge 111, Type (0, 0), BuildingBlock: OJICUG_clean_linker_0, # of connection points: 2
#     Edge 112, Type (0, 0), BuildingBlock: OJICUG_clean_linker_0, # of connection points: 2
#     Edge 113, Type (0, 0), BuildingBlock: OJICUG_clean_linker_0, # of connection points: 2
#     Edge 114, Type (0, 0), BuildingBlock: OJICUG_clean_linker_0, # of connection points: 2
#     Edge 115, Type (0, 0), BuildingBlock: OJICUG_clean_linker_0, # of connection points: 2
#     Edge 116, Type (0, 0), BuildingBlock: OJICUG_clean_linker_0, # of connection points: 2
#     Edge 117, Type (0, 0), BuildingBlock: OJICUG_clean_linker_0, # of connection points: 2
#     Edge 118, Type (0, 0), BuildingBlock: OJICUG_clean_linker_0, # of connection points: 2
#     Edge 119, Type (0, 0), BuildingBlock: OJICUG_clean_linker_0, # of connection points: 2
#     Edge 120, Type (0, 0), BuildingBlock: OJICUG_clean_linker_0, # of connection points: 2
#     Edge 121, Type (0, 0), BuildingBlock: OJICUG_clean_linker_0, # of connection points: 2
#     Edge 122, Type (0, 0), BuildingBlock: OJICUG_clean_linker_0, # of connection points: 2
#     Edge 123, Type (0, 0), BuildingBlock: OJICUG_clean_linker_0, # of connection points: 2
#     Edge 124, Type (0, 0), BuildingBlock: OJICUG_clean_linker_0, # of connection points: 2
#     Edge 125, Type (0, 0), BuildingBlock: OJICUG_clean_linker_0, # of connection points: 2
#     Edge 126, Type (0, 0), BuildingBlock: OJICUG_clean_linker_0, # of connection points: 2
#     Edge 127, Type (0, 0), BuildingBlock: OJICUG_clean_linker_0, # of connection points: 2
#     Edge 128, Type (0, 0), BuildingBlock: OJICUG_clean_linker_0, # of connection points: 2
#     Edge 129, Type (0, 0), BuildingBlock: OJICUG_clean_linker_0, # of connection points: 2
#     Edge 130, Type (0, 0), BuildingBlock: OJICUG_clean_linker_0, # of connection points: 2
#     Edge 131, Type (0, 0), BuildingBlock: OJICUG_clean_linker_0, # of connection points: 2
#     Edge 132, Type (0, 0), BuildingBlock: OJICUG_clean_linker_0, # of connection points: 2
#     Edge 133, Type (0, 0), BuildingBlock: OJICUG_clean_linker_0, # of connection points: 2
#     Edge 134, Type (0, 0), BuildingBlock: OJICUG_clean_linker_0, # of connection points: 2
#     Edge 135, Type (0, 0), BuildingBlock: OJICUG_clean_linker_0, # of connection points: 2
#     Edge 136, Type (0, 0), BuildingBlock: OJICUG_clean_linker_0, # of connection points: 2
#     Edge 137, Type (0, 0), BuildingBlock: OJICUG_clean_linker_0, # of connection points: 2
#     Edge 138, Type (0, 0), BuildingBlock: OJICUG_clean_linker_0, # of connection points: 2
#     Edge 139, Type (0, 0), BuildingBlock: OJICUG_clean_linker_0, # of connection points: 2
#     Edge 140, Type (0, 0), BuildingBlock: OJICUG_clean_linker_0, # of connection points: 2
#     Edge 141, Type (0, 0), BuildingBlock: OJICUG_clean_linker_0, # of connection points: 2
#     Edge 142, Type (0, 0), BuildingBlock: OJICUG_clean_linker_0, # of connection points: 2
#     Edge 143, Type (0, 0), BuildingBlock: OJICUG_clean_linker_0, # of connection points: 2
# Relax obj value: 0.471
# Max RMSD: 0.183
# Mean RMSD: 0.183
data_MOF--net-wmy--node1-IZENUY_clean_sbu_0--edge1-OJICUG_clean_linker_0
_symmetry_space_group_name_H-M    P1
_symmetry_Int_Tables_number       1
_symmetry_cell_setting            triclinic
loop_
_symmetry_equiv_pos_as_xyz
'x, y, z'
_cell_length_a     39.472163
_cell_length_b     39.501645
_cell_length_c     40.517821
_cell_angle_alpha  89.957281
_cell_angle_beta   89.895455
_cell_angle_gamma 120.02267
loop_
_atom_site_label
_atom_site_type_symbol
_atom_site_fract_x
_atom_site_fract_y
_atom_site_fract_z
_atom_type_partial_charge
Fe0 Fe 0.03297 0.14666 0.09914 0.0
Fe1 Fe 0.99148 0.18521 0.13258 0.0
O2 O 0.03478 0.18331 0.12486 0.0
Fe3 Fe 0.07976 0.21794 0.14299 0.0
O4 O 0.09976 0.18454 0.1462 0.0
O5 O 0.04981 0.12787 0.13215 0.0
O6 O 0.9833 0.10996 0.11073 0.0
C7 C 0.96477 0.10656 0.13708 0.0
C8 C 0.10426 0.21303 0.08109 0.0
O9 O 0.96729 0.13627 0.15124 0.0
C10 C 0.04571 0.26267 0.12353 0.0
O11 O 0.01614 0.16351 0.0646 0.0
O12 O 0.96934 0.16552 0.09222 0.0
O13 O 0.10307 0.23559 0.1026 0.0
O14 O 0.08229 0.17647 0.08302 0.0
C15 C 0.02819 0.20095 0.1944 0.0
O16 O 0.01357 0.23403 0.11413 0.0
O17 O 0.06799 0.2574 0.14274 0.0
C18 C 0.98491 0.16489 0.06507 0.0
O19 O 1.00563 0.20479 0.17449 0.0
O20 O 0.059 0.20198 0.18407 0.0
C21 C 0.08258 0.14751 0.146 0.0
Fe22 Fe 0.87382 0.89115 0.09942 0.0
Fe23 Fe 0.83116 0.81111 0.13319 0.0
O24 O 0.83595 0.85752 0.12524 0.0
Fe25 Fe 0.80271 0.87014 0.14318 0.0
O26 O 0.83802 0.92302 0.14614 0.0
O27 O 0.89373 0.92732 0.13207 0.0
O28 O 0.90896 0.87622 0.11168 0.0
C29 C 0.9108 0.85967 0.13775 0.0
C30 C 0.80942 0.89945 0.08097 0.0
O31 O 0.88005 0.83357 0.15174 0.0
C32 C 0.75447 0.79163 0.12419 0.0
O33 O 0.85609 0.85715 0.06501 0.0
O34 O 0.85003 0.80687 0.09301 0.0
O35 O 0.78618 0.87653 0.10266 0.0
O36 O 0.84579 0.91236 0.08269 0.0
C37 C 0.81732 0.83431 0.19471 0.0
O38 O 0.78207 0.78626 0.11488 0.0
O39 O 0.76142 0.81982 0.14323 0.0
C40 C 0.85178 0.82328 0.06576 0.0
O41 O 0.81193 0.80725 0.17498 0.0
O42 O 0.81757 0.8647 0.18447 0.0
C43 C 0.87509 0.94184 0.14563 0.0
Fe44 Fe 0.14524 0.93678 0.14109 0.0
Fe45 Fe 0.12461 0.98577 0.09633 0.0
O46 O 0.15844 0.98266 0.12274 0.0
Fe47 Fe 0.2047 0.02529 0.1298 0.0
O48 O 0.19786 0.02159 0.17375 0.0
O49 O 0.1708 0.95792 0.18058 0.0
O50 O 0.10107 0.93196 0.16034 0.0
C51 C 0.07395 0.9315 0.14363 0.0
C52 C 0.22219 0.96392 0.12166 0.0
O53 O 0.08058 0.94523 0.11477 0.0
C54 C 0.19559 0.03791 0.0652 0.0
O55 O 0.11784 0.90827 0.10418 0.0
O56 O 0.12893 0.95375 0.06719 0.0
O57 O 0.23265 0.99886 0.12993 0.0
O58 O 0.18702 0.93707 0.12309 0.0
C59 C 0.14777 0.04953 0.13528 0.0
O60 O 0.16047 0.02711 0.07174 0.0
O61 O 0.2166 0.03366 0.08605 0.0
C62 C 0.12047 0.91926 0.07422 0.0
O63 O 0.11975 0.01763 0.12498 0.0
O64 O 0.18332 0.05815 0.13096 0.0
C65 C 0.18674 0.9924 0.19226 0.0
Fe66 Fe 0.14929 0.02909 0.43114 0.0
Fe67 Fe 0.18914 0.98977 0.39637 0.0
O68 O 0.18578 0.03237 0.40388 0.0
Fe69 Fe 0.21772 0.07824 0.38517 0.0
O70 O 0.17761 0.08286 0.36775 0.0
O71 O 0.14609 0.07031 0.41439 0.0
O72 O 0.11208 0.99793 0.40246 0.0
C73 C 0.10781 0.96595 0.39184 0.0
C74 C 0.21224 0.09498 0.45315 0.0
O75 O 0.13472 0.95714 0.39557 0.0
C76 C 0.26885 0.05159 0.40112 0.0
O77 O 0.14331 0.98702 0.45445 0.0
O78 O 0.19318 0.98134 0.44001 0.0
O79 O 0.2204 0.10637 0.42314 0.0
O80 O 0.18631 0.06033 0.46005 0.0
C81 C 0.20253 0.02261 0.33365 0.0
O82 O 0.2434 0.01604 0.39571 0.0
O83 O 0.26042 0.07836 0.40039 0.0
C84 C 0.16775 0.97651 0.46093 0.0
O85 O 0.18572 0.99342 0.3524 0.0
O86 O 0.22026 0.05724 0.34502 0.0
C87 C 0.15211 0.08391 0.38559 0.0
Fe88 Fe 0.9867 0.12046 0.43039 0.0
Fe89 Fe 0.025 0.2 0.39645 0.0
O90 O 0.9828 0.15365 0.40388 0.0
Fe91 Fe 0.93679 0.14013 0.38579 0.0
O92 O 0.93246 0.09634 0.36648 0.0
O93 O 0.947 0.0763 0.41184 0.0
O94 O 0.01934 0.11631 0.40181 0.0
C95 C 0.05123 0.14483 0.39198 0.0
C96 C 0.91942 0.11503 0.4526 0.0
O97 O 0.05892 0.17995 0.39664 0.0
C98 C 0.96368 0.21684 0.40474 0.0
O99 O 0.02738 0.15728 0.45476 0.0
O100 O 0.03218 0.21253 0.43996 0.0
O101 O 0.9083 0.11228 0.42271 0.0
O102 O 0.95403 0.12384 0.45946 0.0
C103 C 0.99246 0.18042 0.33446 0.0
O104 O 0.99803 0.22722 0.39474 0.0
O105 O 0.9369 0.18162 0.40416 0.0
C106 C 0.0364 0.19195 0.46127 0.0
O107 O 0.0216 0.1916 0.35294 0.0
O108 O 0.95804 0.16611 0.34624 0.0
C109 C 0.93331 0.06972 0.383 0.0
Fe110 Fe 0.8147 0.82848 0.39434 0.0
Fe111 Fe 0.87079 0.79623 0.38449 0.0
O112 O 0.86008 0.8309 0.40219 0.0
Fe113 Fe 0.89469 0.86795 0.42775 0.0
O114 O 0.88161 0.90447 0.41559 0.0
O115 O 0.8389 0.87723 0.37555 0.0
O116 O 0.81004 0.80894 0.35263 0.0
C117 C 0.8367 0.81295 0.33288 0.0
C118 C 0.82774 0.84871 0.4617 0.0
O119 O 0.86627 0.81158 0.3431 0.0
C120 C 0.89949 0.80181 0.44668 0.0
O121 O 0.78809 0.77974 0.41282 0.0
O122 O 0.81953 0.75636 0.38468 0.0
O123 O 0.86086 0.85124 0.46226 0.0
O124 O 0.81166 0.84804 0.43455 0.0
C125 C 0.94402 0.86707 0.38145 0.0
O126 O 0.876 0.7791 0.42514 0.0
O127 O 0.91433 0.8384 0.44442 0.0
C128 C 0.7915 0.75108 0.40342 0.0
O129 O 0.92434 0.82999 0.38147 0.0
O130 O 0.93045 0.88659 0.39478 0.0
C131 C 0.86584 0.9073 0.38942 0.0
Fe132 Fe 0.98027 0.8625 0.93187 0.0
Fe133 Fe 0.0253 0.82929 0.89597 0.0
O134 O 0.98064 0.82853 0.90397 0.0
Fe135 Fe 0.93588 0.79419 0.88503 0.0
O136 O 0.92907 0.83254 0.86661 0.0
O137 O 0.93851 0.86348 0.91344 0.0
O138 O 0.01097 0.90205 0.90487 0.0
C139 C 0.04412 0.90941 0.89452 0.0
C140 C 0.91521 0.7977 0.9519 0.0
O141 O 0.05507 0.88397 0.8967 0.0
C142 C 0.96781 0.74829 0.90191 0.0
O143 O 0.02206 0.86962 0.95629 0.0
O144 O 0.03398 0.82436 0.93925 0.0
O145 O 0.90543 0.79011 0.92169 0.0
O146 O 0.94945 0.82347 0.95957 0.0
C147 C 0.9926 0.81375 0.83376 0.0
O148 O 1.00214 0.77521 0.89411 0.0
O149 O 0.93904 0.75383 0.90193 0.0
C150 C 0.03515 0.84693 0.96148 0.0
O151 O 0.02131 0.83408 0.85216 0.0
O152 O 0.95857 0.79223 0.84565 0.0
C153 C 0.92631 0.85736 0.88412 0.0
Fe154 Fe 0.14328 0.12825 0.93208 0.0
Fe155 Fe 0.18569 0.20691 0.89609 0.0
O156 O 0.18072 0.16062 0.90532 0.0
Fe157 Fe 0.21316 0.14687 0.88761 0.0
O158 O 0.1774 0.09399 0.88599 0.0
O159 O 0.12228 0.09074 0.90057 0.0
O160 O 0.10826 0.14327 0.91943 0.0
C161 C 0.10602 0.15833 0.89259 0.0
C162 C 0.20753 0.11943 0.9505 0.0
O163 O 0.13657 0.18376 0.87793 0.0
C164 C 0.26233 0.22604 0.90466 0.0
O165 O 0.16225 0.16357 0.96533 0.0
O166 O 0.16742 0.21283 0.93633 0.0
O167 O 0.2304 0.14135 0.92812 0.0
O168 O 0.17126 0.10721 0.9494 0.0
C169 C 0.19866 0.18164 0.83493 0.0
O170 O 0.23512 0.23212 0.91383 0.0
O171 O 0.25479 0.19705 0.88641 0.0
C172 C 0.1665 0.19736 0.96393 0.0
O173 O 0.20435 0.20936 0.85405 0.0
O174 O 0.19756 0.15121 0.84626 0.0
C175 C 0.14037 0.07544 0.88736 0.0
Fe176 Fe 0.81136 0.98409 0.89741 0.0
Fe177 Fe 0.87153 0.07227 0.88546 0.0
O178 O 0.85804 0.02638 0.90395 0.0
Fe179 Fe 0.89193 0.02261 0.92985 0.0
O180 O 0.8955 0.99001 0.90098 0.0
O181 O 0.83168 0.95047 0.89657 0.0
O182 O 0.81783 0.98716 0.85344 0.0
C183 C 0.82906 0.01638 0.8349 0.0
C184 C 0.82109 0.97266 0.96197 0.0
O185 O 0.84569 0.05095 0.84633 0.0
C186 C 0.89791 0.09 0.95195 0.0
O187 O 0.78406 0.01085 0.8969 0.0
O188 O 0.82983 0.07271 0.90301 0.0
O189 O 0.85575 0.98193 0.95491 0.0
O190 O 0.80008 0.97693 0.9412 0.0
C191 C 0.94272 0.07716 0.88251 0.0
O192 O 0.89933 0.10073 0.92208 0.0
O193 O 0.88917 0.05545 0.9591 0.0
C194 C 0.79452 0.04606 0.90385 0.0
O195 O 0.91551 0.07686 0.86609 0.0
O196 O 0.93608 0.06248 0.91102 0.0
C197 C 0.86677 0.95829 0.8912 0.0
Fe198 Fe 0.79954 0.93299 0.64284 0.0
Fe199 Fe 0.87011 0.98319 0.59911 0.0
O200 O 0.83239 0.97913 0.62504 0.0
Fe201 Fe 0.82801 0.02124 0.63206 0.0
O202 O 0.83142 0.01751 0.67585 0.0
O203 O 0.79393 0.95376 0.68203 0.0
O204 O 0.83863 0.92843 0.66269 0.0
C205 C 0.86587 0.92863 0.64626 0.0
C206 C 0.7496 0.9596 0.62343 0.0
O207 O 0.87392 0.94313 0.61768 0.0
C208 C 0.84938 0.03316 0.56745 0.0
O209 O 0.79982 0.90495 0.60621 0.0
O210 O 0.83459 0.95088 0.56963 0.0
O211 O 0.77364 0.99422 0.6327 0.0
O212 O 0.75835 0.93306 0.62402 0.0
C213 C 0.90963 0.04732 0.63776 0.0
O214 O 0.87488 0.02419 0.57466 0.0
O215 O 0.82402 0.02887 0.5883 0.0
C216 C 0.80897 0.91614 0.57641 0.0
O217 O 0.90628 0.01541 0.62814 0.0
O218 O 0.88219 0.05505 0.63288 0.0
C219 C 0.81275 0.98806 0.69401 0.0
Fe220 Fe 0.0748 0.86656 0.63978 0.0
Fe221 Fe 0.02459 0.88481 0.59424 0.0
O222 O 0.02854 0.85212 0.62166 0.0
Fe223 Fe 0.98621 0.80602 0.62998 0.0
O224 O 0.9906 0.81376 0.67388 0.0
O225 O 0.05459 0.84331 0.68012 0.0
O226 O 0.07938 0.91136 0.65709 0.0
C227 C 0.07969 0.9376 0.6393 0.0
C228 C 0.04823 0.78872 0.62393 0.0
O229 O 0.06555 0.92967 0.61072 0.0
C230 C 0.97231 0.81299 0.56531 0.0
O231 O 0.10242 0.89188 0.60172 0.0
O232 O 0.05617 0.87949 0.56511 0.0
O233 O 0.01281 0.77841 0.63034 0.0
O234 O 0.07497 0.82399 0.62444 0.0
C235 C 0.96189 0.86301 0.63472 0.0
O236 O 0.98258 0.84805 0.57109 0.0
O237 O 0.97726 0.79289 0.58658 0.0
C238 C 0.09095 0.88848 0.57184 0.0
O239 O 0.9933 0.89071 0.62309 0.0
O240 O 0.95323 0.82736 0.63114 0.0
C241 C 0.0202 0.82647 0.6921 0.0
Fe242 Fe 0.14363 0.21309 0.64193 0.0
Fe243 Fe 0.12298 0.1441 0.59638 0.0
O244 O 0.15621 0.17992 0.62375 0.0
Fe245 Fe 0.20148 0.18212 0.63196 0.0
O246 O 0.19193 0.17684 0.67554 0.0
O247 O 0.16821 0.21643 0.68181 0.0
O248 O 0.09874 0.17391 0.66032 0.0
C249 C 0.07187 0.14794 0.64294 0.0
C250 C 0.22127 0.26163 0.6247 0.0
O251 O 0.07893 0.14113 0.61413 0.0
C252 C 0.19478 0.16357 0.56676 0.0
O253 O 0.11733 0.21545 0.60469 0.0
O254 O 0.129 0.18156 0.56776 0.0
O255 O 0.23029 0.23639 0.63397 0.0
O256 O 0.18636 0.25422 0.62454 0.0
C257 C 0.1437 0.10094 0.63467 0.0
O258 O 0.15947 0.13896 0.5725 0.0
O259 O 0.21532 0.18755 0.5886 0.0
C260 C 0.12065 0.20764 0.57474 0.0
O261 O 0.1163 0.10594 0.62449 0.0
O262 O 0.17944 0.1278 0.63136 0.0
C263 C 0.18133 0.1955 0.69387 0.0
Fe264 Fe 0.65833 0.51565 0.46052 0.0
Fe265 Fe 0.7475 0.55031 0.47265 0.0
O266 O 0.70302 0.5162 0.45312 0.0
Fe267 Fe 0.70368 0.48226 0.42537 0.0
O268 O 0.67243 0.44272 0.4522 0.0
O269 O 0.62849 0.46113 0.45972 0.0
O270 O 0.6617 0.51038 0.50421 0.0
C271 C 0.69004 0.52995 0.52312 0.0
C272 C 0.64899 0.49792 0.39498 0.0
O273 O 0.7242 0.55217 0.51179 0.0
C274 C 0.76908 0.54753 0.40611 0.0
O275 O 0.6817 0.56978 0.46257 0.0
O276 O 0.74467 0.59052 0.45519 0.0
O277 O 0.66236 0.47543 0.40026 0.0
O278 O 0.65014 0.52068 0.41706 0.0
C279 C 0.75709 0.48714 0.47378 0.0
O280 O 0.77845 0.55458 0.43643 0.0
O281 O 0.73516 0.52137 0.39794 0.0
C282 C 0.71608 0.59624 0.45442 0.0
O283 O 0.75402 0.51183 0.49128 0.0
O284 O 0.7451 0.48106 0.44438 0.0
C285 C 0.63951 0.43587 0.46275 0.0
Fe286 Fe 0.54436 0.22134 0.43098 0.0
Fe287 Fe 0.50091 0.14129 0.46434 0.0
O288 O 0.50545 0.18756 0.45585 0.0
Fe289 Fe 0.47151 0.2001 0.4722 0.0
O290 O 0.50739 0.25274 0.47664 0.0
O291 O 0.56344 0.25657 0.46425 0.0
O292 O 0.57848 0.20533 0.44352 0.0
C293 C 0.58007 0.19001 0.47034 0.0
C294 C 0.48218 0.232 0.41051 0.0
O295 O 0.54912 0.16432 0.48433 0.0
C296 C 0.42476 0.12158 0.45182 0.0
O297 O 0.52674 0.18786 0.39644 0.0
O298 O 0.52129 0.13782 0.4245 0.0
O299 O 0.45756 0.20829 0.43104 0.0
O300 O 0.51817 0.2441 0.41372 0.0
C301 C 0.48308 0.16292 0.52505 0.0
O302 O 0.45288 0.11614 0.44478 0.0
O303 O 0.4298 0.14988 0.46999 0.0
C304 C 0.52213 0.15389 0.39721 0.0
O305 O 0.47966 0.13647 0.50548 0.0
O306 O 0.48366 0.19327 0.51418 0.0
C307 C 0.54452 0.2713 0.47697 0.0
Fe308 Fe 0.79404 0.32414 0.42774 0.0
Fe309 Fe 0.87444 0.36216 0.46034 0.0
O310 O 0.82781 0.32005 0.45355 0.0
Fe311 Fe 0.81414 0.274 0.4717 0.0
O312 O 0.77038 0.26962 0.49111 0.0
O313 O 0.74973 0.28374 0.44617 0.0
O314 O 0.79018 0.35619 0.45702 0.0
C315 C 0.81884 0.38787 0.46697 0.0
C316 C 0.78891 0.25736 0.40483 0.0
O317 O 0.85401 0.3958 0.46161 0.0
C318 C 0.89104 0.29992 0.45357 0.0
O319 O 0.83041 0.36546 0.40317 0.0
O320 O 0.8858 0.36972 0.41662 0.0
O321 O 0.78668 0.24599 0.43464 0.0
O322 O 0.79728 0.29193 0.39815 0.0
C323 C 0.85638 0.32938 0.52265 0.0
O324 O 0.90169 0.33521 0.46054 0.0
O325 O 0.85568 0.27349 0.45422 0.0
C326 C 0.86513 0.3749 0.39612 0.0
O327 O 0.86789 0.35871 0.50424 0.0
O328 O 0.83974 0.29487 0.51105 0.0
C329 C 0.74318 0.26932 0.4748 0.0
Fe330 Fe 0.81006 0.3605 0.75731 0.0
Fe331 Fe 0.85421 0.324 0.7254 0.0
O332 O 0.84882 0.36558 0.73215 0.0
Fe333 Fe 0.88167 0.41207 0.71492 0.0
O334 O 0.8428 0.41671 0.69469 0.0
O335 O 0.80598 0.40049 0.73879 0.0
O336 O 0.7749 0.32814 0.72755 0.0
C337 C 0.7723 0.29631 0.71857 0.0
C338 C 0.87094 0.42734 0.7814 0.0
O339 O 0.80024 0.28948 0.72401 0.0
C340 C 0.93216 0.38614 0.73475 0.0
O341 O 0.80547 0.31945 0.78169 0.0
O342 O 0.85759 0.31647 0.76925 0.0
O343 O 0.88071 0.43938 0.75185 0.0
O344 O 0.84446 0.3927 0.7875 0.0
C345 C 0.86993 0.35744 0.66357 0.0
O346 O 0.90855 0.35151 0.72531 0.0
O347 O 0.92291 0.4123 0.73404 0.0
C348 C 0.83127 0.31108 0.78947 0.0
O349 O 0.85148 0.32782 0.68159 0.0
O350 O 0.88792 0.39179 0.67564 0.0
C351 C 0.81486 0.41581 0.71053 0.0
Fe352 Fe 0.69402 0.53722 0.72481 0.0
Fe353 Fe 0.60676 0.47657 0.71607 0.0
O354 O 0.65307 0.49048 0.73338 0.0
Fe355 Fe 0.65857 0.45771 0.75913 0.0
O356 O 0.70895 0.47397 0.74647 0.0
O357 O 0.72072 0.51531 0.70579 0.0
O358 O 0.67776 0.54045 0.6831 0.0
C359 C 0.65597 0.51309 0.66361 0.0
C360 C 0.70338 0.52579 0.79226 0.0
O361 O 0.62677 0.48218 0.67454 0.0
C362 C 0.58518 0.44737 0.7785 0.0
O363 O 0.66933 0.56139 0.74341 0.0
O364 O 0.61464 0.52648 0.71595 0.0
O365 O 0.67405 0.49183 0.7932 0.0
O366 O 0.71787 0.54215 0.76488 0.0
C367 C 0.60954 0.40597 0.71377 0.0
O368 O 0.58411 0.46993 0.75687 0.0
O369 O 0.60926 0.43527 0.77636 0.0
C370 C 0.63599 0.55521 0.73448 0.0
O371 O 0.59037 0.42386 0.71343 0.0
O372 O 0.64307 0.42162 0.72662 0.0
C373 C 0.72642 0.49003 0.71989 0.0
Fe374 Fe 0.56087 0.19546 0.76359 0.0
Fe375 Fe 0.48259 0.16109 0.72795 0.0
O376 O 0.52685 0.1611 0.73574 0.0
Fe377 Fe 0.53793 0.12727 0.71671 0.0
O378 O 0.58347 0.16616 0.69874 0.0
O379 O 0.60407 0.19661 0.74582 0.0
O380 O 0.56951 0.23463 0.73612 0.0
C381 C 0.54326 0.24122 0.72563 0.0
C382 C 0.5599 0.13003 0.78393 0.0
O383 O 0.50698 0.21562 0.72859 0.0
C384 C 0.45994 0.08058 0.73398 0.0
O385 O 0.52579 0.20257 0.78761 0.0
O386 O 0.46897 0.15601 0.77134 0.0
O387 O 0.56342 0.12297 0.75378 0.0
O388 O 0.55258 0.15667 0.79148 0.0
C389 C 0.50113 0.14711 0.66555 0.0
O390 O 0.45203 0.107 0.72594 0.0
O391 O 0.49438 0.08657 0.73348 0.0
C392 C 0.49014 0.17943 0.79321 0.0
O393 O 0.49157 0.16621 0.68433 0.0
O394 O 0.51384 0.1256 0.67701 0.0
C395 C 0.61079 0.19091 0.71656 0.0
Fe396 Fe 0.65108 0.20013 0.26087 0.0
Fe397 Fe 0.69439 0.16364 0.22728 0.0
O398 O 0.6504 0.16478 0.2339 0.0
Fe399 Fe 0.60552 0.1313 0.21465 0.0
O400 O 0.59966 0.17031 0.19599 0.0
O401 O 0.60985 0.202 0.24235 0.0
O402 O 0.68263 0.23839 0.23307 0.0
C403 C 0.71554 0.2442 0.2234 0.0
C404 C 0.58559 0.13553 0.28136 0.0
O405 O 0.72541 0.21813 0.22718 0.0
C406 C 0.63512 0.08331 0.23281 0.0
O407 O 0.69254 0.20694 0.28561 0.0
O408 O 0.70168 0.15922 0.27099 0.0
O409 O 0.57546 0.12784 0.25123 0.0
O410 O 0.6195 0.1622 0.28907 0.0
C411 C 0.66304 0.14873 0.16443 0.0
O412 O 0.67009 0.10959 0.22633 0.0
O413 O 0.60707 0.0899 0.23144 0.0
C414 C 0.70402 0.18326 0.29224 0.0
O415 O 0.69171 0.16759 0.18326 0.0
O416 O 0.62838 0.12908 0.17559 0.0
C417 C 0.59753 0.19579 0.21312 0.0
Fe418 Fe 0.81628 0.46062 0.2609 0.0
Fe419 Fe 0.85798 0.53963 0.2255 0.0
O420 O 0.85354 0.49354 0.23431 0.0
Fe421 Fe 0.88642 0.48054 0.21641 0.0
O422 O 0.85121 0.42756 0.2146 0.0
O423 O 0.79572 0.42361 0.22898 0.0
O424 O 0.78093 0.47526 0.24869 0.0
C425 C 0.77837 0.4905 0.22209 0.0
C426 C 0.88107 0.45313 0.27919 0.0
O427 O 0.80875 0.51622 0.20736 0.0
C428 C 0.93475 0.55935 0.23414 0.0
O429 O 0.83481 0.49554 0.29452 0.0
O430 O 0.83947 0.54467 0.26568 0.0
O431 O 0.90385 0.47524 0.25687 0.0
O432 O 0.84465 0.43991 0.2778 0.0
C433 C 0.87127 0.51528 0.16422 0.0
O434 O 0.90731 0.56503 0.24339 0.0
O435 O 0.92753 0.53091 0.21532 0.0
C436 C 0.83848 0.5291 0.29321 0.0
O437 O 0.87684 0.54275 0.18355 0.0
O438 O 0.87058 0.4849 0.17519 0.0
C439 C 0.81417 0.40886 0.21551 0.0
Fe440 Fe 0.56472 0.36112 0.25714 0.0
Fe441 Fe 0.48287 0.32206 0.22647 0.0
O442 O 0.52925 0.36438 0.23325 0.0
Fe443 Fe 0.53999 0.41017 0.21617 0.0
O444 O 0.59319 0.42934 0.2115 0.0
O445 O 0.59967 0.37874 0.22329 0.0
O446 O 0.55063 0.31159 0.24398 0.0
C447 C 0.53225 0.29236 0.2188 0.0
C448 C 0.57169 0.43277 0.27765 0.0
O449 O 0.50493 0.29614 0.20644 0.0
C450 C 0.46201 0.37792 0.23762 0.0
O451 O 0.53234 0.34366 0.29268 0.0
O452 O 0.48062 0.29891 0.26652 0.0
O453 O 0.54745 0.43255 0.25712 0.0
O454 O 0.58534 0.41004 0.27452 0.0
C455 C 0.503 0.35985 0.16459 0.0
O456 O 0.45826 0.34551 0.24649 0.0
O457 O 0.48911 0.40004 0.21795 0.0
C458 C 0.49873 0.31367 0.29314 0.0
O459 O 0.47696 0.33722 0.18491 0.0
O460 O 0.53341 0.39021 0.17463 0.0
C461 C 0.61325 0.41236 0.21083 0.0
Fe462 Fe 0.49891 0.35919 0.96145 0.0
Fe463 Fe 0.46927 0.27058 0.97228 0.0
O464 O 0.50224 0.31652 0.95408 0.0
Fe465 Fe 0.53931 0.31983 0.92758 0.0
O466 O 0.57615 0.35151 0.95648 0.0
O467 O 0.55316 0.39201 0.96213 0.0
O468 O 0.50267 0.35526 1.00521 0.0
C469 C 0.48496 0.32606 0.02383 0.0
C470 C 0.52007 0.37151 0.89671 0.0
O471 O 0.46533 0.29163 1.01215 0.0
C472 C 0.47678 0.25351 0.90509 0.0
O473 O 0.44455 0.33307 0.96234 0.0
O474 O 0.42786 0.27133 0.95471 0.0
O475 O 0.54483 0.36133 0.90333 0.0
O476 O 0.49493 0.36741 0.91774 0.0
C477 C 0.53472 0.26446 0.97405 0.0
O478 O 0.46782 0.2423 0.93499 0.0
O479 O 0.50302 0.28805 0.89831 0.0
C480 C 0.41975 0.29831 0.95395 0.0
O481 O 0.50837 0.26517 0.99108 0.0
O482 O 0.54244 0.27902 0.94551 0.0
C483 C 0.58003 0.38343 0.9668 0.0
Fe484 Fe 0.65703 0.14252 0.96224 0.0
Fe485 Fe 0.7455 0.20279 0.97073 0.0
O486 O 0.69893 0.18869 0.9536 0.0
Fe487 Fe 0.69435 0.2212 0.9267 0.0
O488 O 0.66274 0.22635 0.95566 0.0
O489 O 0.62319 0.16292 0.96294 0.0
O490 O 0.66188 0.1514 1.00572 0.0
C491 C 0.69166 0.16238 0.02336 0.0
C492 C 0.64372 0.14902 0.89751 0.0
O493 O 0.72571 0.17759 1.01071 0.0
C494 C 0.76101 0.22633 0.90347 0.0
O495 O 0.68426 0.1154 0.96304 0.0
O496 O 0.74515 0.16118 0.95268 0.0
O497 O 0.65284 0.18384 0.90341 0.0
O498 O 0.6483 0.129 0.91907 0.0
C499 C 0.74921 0.27306 0.97267 0.0
O500 O 0.77289 0.22994 0.93318 0.0
O501 O 0.72607 0.2168 0.89721 0.0
C502 C 0.7185 0.12593 0.9525 0.0
O503 O 0.74993 0.24671 0.98965 0.0
O504 O 0.73481 0.26581 0.94407 0.0
C505 C 0.6312 0.19835 0.96665 0.0
Fe506 Fe 0.87035 0.51623 0.96177 0.0
Fe507 Fe 0.81327 0.54782 0.9732 0.0
O508 O 0.82492 0.51415 0.95473 0.0
Fe509 Fe 0.79071 0.47802 0.9282 0.0
O510 O 0.78487 0.44034 0.95648 0.0
O511 O 0.84816 0.46197 0.96149 0.0
O512 O 0.86209 0.51136 1.00541 0.0
C513 C 0.85216 0.53031 0.02402 0.0
C514 C 0.86124 0.4971 0.89682 0.0
O515 O 0.83918 0.55155 0.01238 0.0
C516 C 0.78787 0.54134 0.90674 0.0
O517 O 0.89941 0.57036 0.96343 0.0
O518 O 0.85555 0.58836 0.95457 0.0
O519 O 0.82628 0.4724 0.90356 0.0
O520 O 0.8827 0.52126 0.91815 0.0
C521 C 0.7414 0.48281 0.97595 0.0
O522 O 0.78572 0.54967 0.93675 0.0
O523 O 0.79582 0.51505 0.89943 0.0
C524 C 0.89033 0.59538 0.95375 0.0
O525 O 0.76881 0.50916 0.9927 0.0
O526 O 0.74749 0.47554 0.947 0.0
C527 C 0.81255 0.43546 0.96607 0.0
Fe528 Fe 0.36875 0.81187 0.76523 0.0
Fe529 Fe 0.32577 0.849 0.79814 0.0
O530 O 0.36974 0.84843 0.79061 0.0
Fe531 Fe 0.41459 0.88413 0.80837 0.0
O532 O 0.4351 0.8513 0.81238 0.0
O533 O 0.38559 0.79395 0.79888 0.0
O534 O 0.31917 0.77468 0.77609 0.0
C535 C 0.3006 0.77049 0.80249 0.0
C536 C 0.43941 0.87822 0.74684 0.0
O537 O 0.30237 0.79983 0.81678 0.0
C538 C 0.37874 0.92718 0.78861 0.0
O539 O 0.35192 0.82819 0.73028 0.0
O540 O 0.3044 0.82934 0.75759 0.0
O541 O 0.43752 0.9011 0.76763 0.0
O542 O 0.41813 0.84173 0.7496 0.0
C543 C 0.36297 0.86653 0.86 0.0
O544 O 0.34676 0.89787 0.77975 0.0
O545 O 0.402 0.92299 0.80741 0.0
C546 C 0.32054 0.82938 0.73053 0.0
O547 O 0.33934 0.86848 0.84006 0.0
O548 O 0.39456 0.86918 0.84984 0.0
C549 C 0.41809 0.81428 0.81302 0.0
Fe550 Fe 0.16446 0.47303 0.79711 0.0
Fe551 Fe 0.13825 0.53385 0.80666 0.0
O552 O 0.17058 0.52003 0.78887 0.0
Fe553 Fe 0.2089 0.55294 0.76303 0.0
O554 O 0.24304 0.53692 0.77592 0.0
O555 O 0.21304 0.49479 0.81613 0.0
O556 O 0.14487 0.46955 0.83892 0.0
C557 C 0.15087 0.49688 0.85861 0.0
C558 C 0.18552 0.48442 0.7297 0.0
O559 O 0.1528 0.52793 0.84794 0.0
C560 C 0.14567 0.56332 0.74435 0.0
O561 O 0.11546 0.4492 0.77844 0.0
O562 O 0.0962 0.484 0.80669 0.0
O563 O 0.19054 0.51856 0.72892 0.0
O564 O 0.18349 0.46795 0.757 0.0
C565 C 0.21144 0.60488 0.8088 0.0
O566 O 0.12214 0.5409 0.76615 0.0
O567 O 0.18181 0.57494 0.74581 0.0
C568 C 0.08848 0.4557 0.78755 0.0
O569 O 0.17439 0.58647 0.80963 0.0
O570 O 0.22954 0.58972 0.7953 0.0
C571 C 0.24416 0.52067 0.80245 0.0
Fe572 Fe 0.45596 0.65168 0.76469 0.0
Fe573 Fe 0.53718 0.69048 0.79605 0.0
O574 O 0.49034 0.64819 0.79003 0.0
Fe575 Fe 0.47722 0.60237 0.80841 0.0
O576 O 0.43405 0.59821 0.82903 0.0
O577 O 0.4124 0.61205 0.78439 0.0
O578 O 0.453 0.68433 0.79361 0.0
C579 C 0.48175 0.71606 0.80323 0.0
C580 C 0.449 0.58407 0.74252 0.0
O581 O 0.51686 0.72411 0.79755 0.0
C582 C 0.55322 0.62842 0.78718 0.0
O583 O 0.49146 0.69217 0.73914 0.0
O584 O 0.54768 0.69786 0.75203 0.0
O585 O 0.44791 0.57357 0.77241 0.0
O586 O 0.45816 0.61869 0.73532 0.0
C587 C 0.52082 0.6584 0.85864 0.0
O588 O 0.56435 0.66336 0.79583 0.0
O589 O 0.51793 0.60194 0.78894 0.0
C590 C 0.52615 0.70203 0.73165 0.0
O591 O 0.53147 0.68749 0.84009 0.0
O592 O 0.5046 0.62384 0.84708 0.0
C593 C 0.40653 0.59803 0.81314 0.0
Fe594 Fe 0.54637 0.74135 0.05158 0.0
Fe595 Fe 0.47518 0.68858 0.09397 0.0
O596 O 0.51434 0.69456 0.06875 0.0
Fe597 Fe 0.52068 0.65353 0.06184 0.0
O598 O 0.51889 0.65772 0.01794 0.0
O599 O 0.55275 0.72181 1.01187 0.0
O600 O 0.50691 0.74535 0.03182 0.0
C601 C 0.47918 0.74441 0.048 0.0
C602 C 0.5981 0.71678 0.07145 0.0
O603 O 0.47061 0.72871 0.07613 0.0
C604 C 0.49622 0.63858 0.12561 0.0
O605 O 0.54508 0.76789 0.08902 0.0
O606 O 0.50925 0.72061 0.12447 0.0
O607 O 0.57494 0.68175 0.06272 0.0
O608 O 0.58827 0.74249 0.0701 0.0
C609 C 0.43914 0.62575 0.05348 0.0
O610 O 0.47042 0.647 0.11797 0.0
O611 O 0.52328 0.64535 0.10575 0.0
C612 C 0.53525 0.75556 0.11855 0.0
O613 O 0.44077 0.65673 0.0637 0.0
O614 O 0.46688 0.61874 0.05938 0.0
C615 C 0.53611 0.68744 0.99984 0.0
Fe616 Fe 0.3624 0.87094 0.06057 0.0
Fe617 Fe 0.27481 0.81136 0.05157 0.0
O618 O 0.32096 0.82461 0.06904 0.0
Fe619 Fe 0.32571 0.79152 0.09504 0.0
O620 O 0.37611 0.80715 0.08302 0.0
O621 O 0.38873 0.84826 0.04205 0.0
O622 O 0.34673 0.87415 0.01871 0.0
C623 C 0.32458 0.84697 0.99925 0.0
C624 C 0.37065 0.85957 0.12823 0.0
O625 O 0.29462 0.8166 1.00995 0.0
C626 C 0.25318 0.78273 0.11419 0.0
O627 O 0.33816 0.89592 0.07871 0.0
O628 O 0.28336 0.86153 0.05128 0.0
O629 O 0.34121 0.82566 0.12913 0.0
O630 O 0.38561 0.87571 0.10088 0.0
C631 C 0.27692 0.74048 0.04915 0.0
O632 O 0.25239 0.80528 0.09241 0.0
O633 O 0.2763 0.76952 0.11186 0.0
C634 C 0.305 0.89024 0.06972 0.0
O635 O 0.25789 0.75853 0.04902 0.0
O636 O 0.31019 0.75554 0.06244 0.0
C637 C 0.39395 0.82283 0.05651 0.0
Fe638 Fe 0.15219 0.49596 0.06144 0.0
Fe639 Fe 0.2067 0.46138 0.0496 0.0
O640 O 0.1967 0.49612 0.06828 0.0
Fe641 Fe 0.23187 0.53151 0.0947 0.0
O642 O 0.23904 0.56966 0.06659 0.0
O643 O 0.17624 0.55039 0.06154 0.0
O644 O 0.16012 0.50032 0.0177 0.0
C645 C 0.16874 0.48041 0.999 0.0
C646 C 0.16226 0.51585 0.12632 0.0
O647 O 0.18071 0.45831 1.01058 0.0
C648 C 0.23286 0.46739 0.11599 0.0
O649 O 0.12159 0.4419 0.06 0.0
O650 O 0.16395 0.42171 0.06833 0.0
O651 O 0.19764 0.53899 0.1196 0.0
O652 O 0.14016 0.49175 0.10518 0.0
C653 C 0.27938 0.52474 0.04635 0.0
O654 O 0.23422 0.45867 0.0859 0.0
O655 O 0.22533 0.49392 0.12334 0.0
C656 C 0.12956 0.41582 0.06894 0.0
O657 O 0.25131 0.49911 0.02975 0.0
O658 O 0.27412 0.53217 0.07552 0.0
C659 C 0.21224 0.57602 0.05727 0.0
Fe660 Fe 0.3572 0.49378 0.56089 0.0
Fe661 Fe 0.26874 0.45967 0.54962 0.0
O662 O 0.31343 0.49493 0.5679 0.0
Fe663 Fe 0.31444 0.53157 0.5932 0.0
O664 O 0.36424 0.56852 0.58261 0.0
O665 O 0.38132 0.54301 0.54236 0.0
O666 O 0.34407 0.47451 0.51886 0.0
C667 C 0.32125 0.47738 0.49859 0.0
C668 C 0.3619 0.51348 0.62847 0.0
O669 O 0.28959 0.47496 0.50832 0.0
C670 C 0.24332 0.46537 0.61107 0.0
O671 O 0.33539 0.44474 0.57923 0.0
O672 O 0.28089 0.42051 0.55066 0.0
O673 O 0.33071 0.515 0.62837 0.0
O674 O 0.37819 0.51322 0.60159 0.0
C675 C 0.26566 0.52977 0.54513 0.0
O676 O 0.24516 0.44252 0.59017 0.0
O677 O 0.26485 0.50186 0.60851 0.0
C678 C 0.30337 0.41573 0.56998 0.0
O679 O 0.24858 0.49275 0.54549 0.0
O680 O 0.29812 0.54985 0.55941 0.0
C681 C 0.38318 0.5725 0.55646 0.0
Fe682 Fe 0.51726 0.86951 0.56114 0.0
Fe683 Fe 0.54469 0.80951 0.5521 0.0
O684 O 0.5117 0.82275 0.56945 0.0
Fe685 Fe 0.47326 0.78952 0.59506 0.0
O686 O 0.43888 0.8051 0.5819 0.0
O687 O 0.46885 0.84731 0.54174 0.0
O688 O 0.53755 0.8735 0.51962 0.0
C689 C 0.53275 0.84666 0.49986 0.0
C690 C 0.49589 0.85792 0.62833 0.0
O691 O 0.53088 0.81562 0.51053 0.0
C692 C 0.53658 0.77959 0.6144 0.0
O693 O 0.566 0.89386 0.58018 0.0
O694 O 0.58645 0.85955 0.5526 0.0
O695 O 0.49109 0.82385 0.62923 0.0
O696 O 0.4976 0.87416 0.601 0.0
C697 C 0.47182 0.73803 0.54938 0.0
O698 O 0.56029 0.80234 0.59284 0.0
O699 O 0.50043 0.76775 0.61258 0.0
C700 C 0.59344 0.88798 0.57135 0.0
O701 O 0.50889 0.7568 0.54874 0.0
O702 O 0.45327 0.75283 0.56269 0.0
C703 C 0.43773 0.8213 0.55535 0.0
Fe704 Fe 0.22619 0.69144 0.59432 0.0
Fe705 Fe 0.14501 0.65223 0.5628 0.0
O706 O 0.19165 0.69472 0.56907 0.0
Fe707 Fe 0.20434 0.74061 0.55107 0.0
O708 O 0.24766 0.74532 0.53021 0.0
O709 O 0.26959 0.73135 0.57466 0.0
O710 O 0.22953 0.65912 0.56527 0.0
C711 C 0.20102 0.62733 0.55548 0.0
C712 C 0.23266 0.75868 0.61688 0.0
O713 O 0.16578 0.61896 0.56102 0.0
C714 C 0.12827 0.71354 0.57294 0.0
O715 O 0.19085 0.6507 0.61973 0.0
O716 O 0.1344 0.64439 0.60674 0.0
O717 O 0.23366 0.7693 0.58706 0.0
O718 O 0.22367 0.72408 0.62389 0.0
C719 C 0.16144 0.68499 0.50046 0.0
O720 O 0.11741 0.67894 0.56339 0.0
O721 O 0.16344 0.74035 0.57094 0.0
C722 C 0.15606 0.64052 0.62715 0.0
O723 O 0.1509 0.65571 0.51876 0.0
O724 O 0.17698 0.71934 0.51236 0.0
C725 C 0.27528 0.74545 0.54594 0.0
Fe726 Fe 0.1683 0.69305 0.29747 0.0
Fe727 Fe 0.14119 0.60482 0.30672 0.0
O728 O 0.17394 0.65169 0.29003 0.0
Fe729 Fe 0.21296 0.65737 0.26482 0.0
O730 O 0.2476 0.68898 0.29507 0.0
O731 O 0.22216 0.72745 0.29983 0.0
O732 O 0.17014 0.68823 0.34131 0.0
C733 C 0.15163 0.65828 0.35896 0.0
C734 C 0.19236 0.70794 0.23357 0.0
O735 O 0.13437 0.62414 0.34642 0.0
C736 C 0.15283 0.59065 0.23988 0.0
O737 O 0.11402 0.66537 0.29675 0.0
O738 O 0.09999 0.60468 0.28769 0.0
O739 O 0.21791 0.69901 0.24088 0.0
O740 O 0.16572 0.70179 0.25371 0.0
C741 C 0.20811 0.60125 0.31089 0.0
O742 O 0.14266 0.57828 0.26934 0.0
O743 O 0.17888 0.6256 0.23416 0.0
C744 C 0.09064 0.63079 0.28707 0.0
O745 O 0.18006 0.60007 0.3268 0.0
O746 O 0.21712 0.61708 0.28281 0.0
C747 C 0.2497 0.72009 0.30545 0.0
Fe748 Fe 0.41456 0.53494 0.30801 0.0
Fe749 Fe 0.36475 0.55685 0.26489 0.0
O750 O 0.36865 0.52292 0.29048 0.0
Fe751 Fe 0.32663 0.47687 0.2984 0.0
O752 O 0.3419 0.47257 0.34011 0.0
O753 O 0.39455 0.52942 0.34969 0.0
O754 O 0.43253 0.58805 0.31107 0.0
C755 C 0.41423 0.60685 0.31103 0.0
C756 C 0.38309 0.45638 0.28873 0.0
O757 O 0.38096 0.59245 0.29782 0.0
C758 C 0.31874 0.48946 0.23095 0.0
O759 O 0.43697 0.54121 0.26709 0.0
O760 O 0.41409 0.57806 0.24804 0.0
O761 O 0.35041 0.45188 0.2797 0.0
O762 O 0.40515 0.48427 0.30771 0.0
C763 C 0.29625 0.52591 0.30329 0.0
O764 O 0.34855 0.52317 0.23034 0.0
O765 O 0.30363 0.4731 0.25818 0.0
C766 C 0.4366 0.56416 0.24547 0.0
O767 O 0.31463 0.54212 0.27709 0.0
O768 O 0.30071 0.49976 0.31731 0.0
C769 C 0.36399 0.49928 0.35996 0.0
Fe770 Fe 0.4819 0.88463 0.30896 0.0
Fe771 Fe 0.45737 0.81426 0.2643 0.0
O772 O 0.49257 0.85035 0.29025 0.0
Fe773 Fe 0.5378 0.85173 0.29651 0.0
O774 O 0.5309 0.848 0.34039 0.0
O775 O 0.50843 0.88846 0.34772 0.0
O776 O 0.43779 0.84656 0.32921 0.0
C777 C 0.40977 0.82048 0.31286 0.0
C778 C 0.55847 0.93117 0.2878 0.0
O779 O 0.41497 0.81297 0.28372 0.0
C780 C 0.52677 0.83071 0.23194 0.0
O781 O 0.4538 0.88652 0.2729 0.0
O782 O 0.46274 0.85126 0.23544 0.0
O783 O 0.56758 0.90597 0.297 0.0
O784 O 0.52392 0.92463 0.28974 0.0
C785 C 0.47882 0.77116 0.30179 0.0
O786 O 0.49167 0.80716 0.23919 0.0
O787 O 0.54894 0.85541 0.25265 0.0
C788 C 0.45532 0.87788 0.24284 0.0
O789 O 0.45142 0.77673 0.29267 0.0
O790 O 0.51461 0.79727 0.29711 0.0
C791 C 0.5213 0.86707 0.35917 0.0
C792 C 0.1261 0.24004 0.02508 0.0
C793 C 0.13376 0.22685 0.05478 0.0
H794 H 0.13113 0.24132 0.9723 0.0
C795 C 0.15956 0.2121 0.05461 0.0
H796 H 0.10545 0.25053 0.02455 0.0
C797 C 0.17329 0.20574 0.02485 0.0
C798 C 0.16185 0.21456 0.99478 0.0
H799 H 0.16529 0.20109 0.07716 0.0
H800 H 0.19018 0.19097 0.02525 0.0
C801 C 0.14037 0.23422 0.99517 0.0
C802 C 0.81353 0.95643 0.05289 0.0
C803 C 0.79652 0.9156 0.05443 0.0
H804 H 0.83442 0.00672 0.02156 0.0
C805 C 0.77997 0.89334 0.02585 0.0
H806 H 0.82734 0.97416 0.07451 0.0
C807 C 0.78413 0.91206 0.99546 0.0
C808 C 0.80487 0.95306 0.99359 0.0
H809 H 0.76785 0.86194 0.02633 0.0
H810 H 0.77459 0.8947 0.97314 0.0
C811 C 0.81786 0.97506 0.02263 0.0
C812 C 0.06402 0.86031 0.05024 0.0
C813 C 0.10303 0.8906 0.04748 0.0
H814 H 0.01119 0.82226 0.02402 0.0
C815 C 0.12131 0.8997 0.01641 0.0
H816 H 0.04916 0.85344 0.07389 0.0
C817 C 0.09985 0.88144 0.98809 0.0
C818 C 0.05979 0.8543 0.99056 0.0
H819 H 0.15124 0.92338 0.01377 0.0
H820 H 0.11355 0.89137 0.96412 0.0
C821 C 0.04231 0.8426 0.02179 0.0
C822 C 0.21438 0.15356 0.47796 0.0
C823 C 0.22302 0.1232 0.48034 0.0
H824 H 0.1983 0.19053 0.5045 0.0
C825 C 0.23078 0.113 0.51151 0.0
H826 H 0.20746 0.16133 0.45429 0.0
C827 C 0.22602 0.12999 0.54006 0.0
C828 C 0.21318 0.15717 0.5378 0.0
H829 H 0.23689 0.08925 0.51395 0.0
H830 H 0.22867 0.11911 0.56392 0.0
C831 C 0.20898 0.17013 0.50663 0.0
C832 C 0.88342 0.09695 0.53931 0.0
C833 C 0.85591 0.05697 0.53789 0.0
H834 H 0.92489 0.14745 0.51227 0.0
C835 C 0.84319 0.0387 0.5071 0.0
H836 H 0.89409 0.11126 0.56291 0.0
C837 C 0.86043 0.05952 0.47804 0.0
C838 C 0.89106 0.09845 0.47977 0.0
H839 H 0.82258 0.0076 0.50569 0.0
H840 H 0.85293 0.04401 0.45474 0.0
C841 C 0.90098 0.11757 0.51041 0.0
C842 C 0.97228 0.8039 0.50508 0.0
C843 C 0.95107 0.79549 0.53463 0.0
H844 H 0.97126 0.81056 0.45272 0.0
C845 C 0.91033 0.77946 0.53353 0.0
H846 H 1.00384 0.81704 0.50551 0.0
C847 C 0.89158 0.77548 0.50325 0.0
C848 C 0.91353 0.78768 0.47395 0.0
H849 H 0.89367 0.77369 0.55618 0.0
H850 H 0.86094 0.76721 0.50319 0.0
C851 C 0.95361 0.79994 0.47491 0.0
C852 C 0.87452 0.78268 0.03648 0.0
C853 C 0.85757 0.80663 0.0351 0.0
H854 H 0.90607 0.76026 1.00993 0.0
C855 C 0.85093 0.81832 1.00419 0.0
H856 H 0.87991 0.77312 0.05995 0.0
C857 C 0.86462 0.80955 0.97545 0.0
C858 C 0.8858 0.78976 0.97738 0.0
H859 H 0.83757 0.83645 1.00243 0.0
H860 H 0.86262 0.82217 0.95233 0.0
C861 C 0.88907 0.77482 1.00784 0.0
C862 C 0.20528 0.06152 0.97534 0.0
C863 C 0.2204 0.10214 0.9762 0.0
H864 H 0.18594 0.00907 1.00359 0.0
C865 C 0.23503 0.12218 1.00607 0.0
H866 H 0.19281 0.04537 0.95276 0.0
C867 C 0.23112 0.10133 0.03523 0.0
C868 C 0.21241 0.06032 0.0347 0.0
H869 H 0.24554 0.15327 1.0075 0.0
H870 H 0.23913 0.11685 0.05852 0.0
C871 C 0.20113 0.04074 1.0044 0.0
C872 C 0.89878 0.11391 1.00837 0.0
C873 C 0.91756 0.11907 0.97788 0.0
H874 H 0.90561 0.12573 0.0601 0.0
C875 C 0.95793 0.14513 0.97529 0.0
H876 H 0.86772 0.09339 1.01085 0.0
C877 C 0.97991 0.1627 1.00359 0.0
C878 C 0.96155 0.15498 0.03461 0.0
H879 H 0.97301 0.14882 0.95206 0.0
H880 H 0.01147 0.18022 1.00152 0.0
C881 C 0.92055 0.13228 0.0365 0.0
C882 C 0.79193 0.87656 0.49125 0.0
C883 C 0.81262 0.85619 0.49242 0.0
H884 H 0.77422 0.91187 0.51809 0.0
C885 C 0.82345 0.84815 0.52317 0.0
H886 H 0.78322 0.88316 0.46787 0.0
C887 C 0.81706 0.86354 0.55199 0.0
C888 C 0.80051 0.8877 0.55018 0.0
H889 H 0.83917 0.83223 0.5247 0.0
H890 H 0.8288 0.86001 0.57505 0.0
C891 C 0.78646 0.89275 0.51993 0.0
C892 C 0.15314 0.94221 0.5483 0.0
C893 C 0.11946 0.90531 0.54466 0.0
H894 H 0.19569 0.9945 0.52348 0.0
C895 C 0.10835 0.88912 0.51297 0.0
H896 H 0.1619 0.95552 0.57245 0.0
C897 C 0.12799 0.91111 0.48518 0.0
C898 C 0.15885 0.94961 0.4887 0.0
H899 H 0.08236 0.86082 0.50959 0.0
H900 H 0.11658 0.89947 0.46092 0.0
C901 C 0.1725 0.96448 0.52036 0.0
C902 C 0.06478 0.21064 0.55002 0.0
C903 C 0.10378 0.21917 0.54775 0.0
H904 H 0.01206 0.195 0.52322 0.0
C905 C 0.12225 0.22754 0.51677 0.0
H906 H 0.04979 0.20332 0.5736 0.0
C907 C 0.10087 0.22318 0.48816 0.0
C908 C 0.06078 0.21024 0.49025 0.0
H909 H 0.15217 0.23366 0.5145 0.0
H910 H 0.11467 0.22613 0.46435 0.0
C911 C 0.04319 0.20572 0.52128 0.0
C912 C 0.79447 0.57158 0.3502 0.0
C913 C 0.79909 0.55771 0.38074 0.0
H914 H 0.80451 0.57422 0.29818 0.0
C915 C 0.82365 0.54164 0.38308 0.0
H916 H 0.77505 0.58343 0.34787 0.0
C917 C 0.83941 0.53503 0.35456 0.0
C918 C 0.83144 0.54527 0.32352 0.0
H919 H 0.8269 0.53002 0.4063 0.0
H920 H 0.85533 0.51935 0.35654 0.0
C921 C 0.81106 0.56594 0.32178 0.0
C922 C 0.45489 0.23053 0.35499 0.0
C923 C 0.47171 0.25083 0.38433 0.0
H924 H 0.45004 0.23482 0.30257 0.0
C925 C 0.49101 0.29187 0.38418 0.0
H926 H 0.44082 0.19892 0.35434 0.0
C927 C 0.4972 0.31239 0.35467 0.0
C928 C 0.48392 0.29223 0.3247 0.0
H929 H 0.50483 0.30814 0.40642 0.0
H930 H 0.51472 0.34401 0.35504 0.0
C931 C 0.46069 0.25115 0.32532 0.0
C932 C 0.71259 0.1785 0.35231 0.0
C933 C 0.72929 0.19164 0.321 0.0
H934 H 0.7197 0.18867 0.4045 0.0
C935 C 0.7686 0.22094 0.31828 0.0
H936 H 0.68198 0.15646 0.35473 0.0
C937 C 0.78988 0.23967 0.34651 0.0
C938 C 0.77216 0.22906 0.37776 0.0
H939 H 0.78164 0.23191 0.29425 0.0
H940 H 0.81903 0.2647 0.34372 0.0
C941 C 0.73415 0.19685 0.3807 0.0
C942 C 0.87386 0.50423 0.83669 0.0
C943 C 0.8783 0.49034 0.86732 0.0
H944 H 0.86955 0.49542 0.78427 0.0
C945 C 0.88889 0.46141 0.86852 0.0
H946 H 0.8648 0.52597 0.83548 0.0
C947 C 0.89103 0.44366 0.8395 0.0
C948 C 0.88289 0.45489 0.809 0.0
H949 H 0.89161 0.44986 0.89202 0.0
H950 H 0.89557 0.41881 0.84112 0.0
C951 C 0.8766 0.48682 0.8075 0.0
C952 C 0.51716 0.36994 0.83593 0.0
C953 C 0.524 0.39143 0.86509 0.0
H954 H 0.53029 0.37174 0.7845 0.0
C955 C 0.54358 0.43246 0.86349 0.0
H956 H 0.50275 0.3383 0.83675 0.0
C957 C 0.55943 0.45172 0.83344 0.0
C958 C 0.55572 0.43002 0.80488 0.0
H959 H 0.54993 0.44952 0.88589 0.0
H960 H 0.57801 0.48324 0.83332 0.0
C961 C 0.53275 0.38908 0.80604 0.0
C962 C 0.55794 0.10875 0.84137 0.0
C963 C 0.57683 0.11814 0.81054 0.0
H964 H 0.56514 0.11092 0.89387 0.0
C965 C 0.6165 0.12896 0.80863 0.0
H966 H 0.5275 0.10098 0.84334 0.0
C967 C 0.63815 0.1354 0.83756 0.0
C968 C 0.61997 0.13009 0.8684 0.0
H969 H 0.63178 0.13713 0.78519 0.0
H970 H 0.66958 0.14783 0.83588 0.0
C971 C 0.57944 0.11466 0.8702 0.0
C972 C 0.54706 0.11617 0.36656 0.0
C973 C 0.52732 0.13748 0.3663 0.0
H974 H 0.58115 0.09809 0.33832 0.0
C975 C 0.51798 0.14798 0.33595 0.0
H976 H 0.55452 0.10764 0.38962 0.0
C977 C 0.53206 0.14122 0.30653 0.0
C978 C 0.55627 0.12468 0.30735 0.0
H979 H 0.50238 0.16407 0.33517 0.0
H980 H 0.52802 0.15319 0.28378 0.0
C981 C 0.56194 0.11029 0.33722 0.0
C982 C 0.89787 0.43825 0.3662 0.0
C983 C 0.88271 0.39767 0.36601 0.0
H984 H 0.9113 0.48894 0.33721 0.0
C985 C 0.87707 0.3782 0.33589 0.0
H986 H 0.90172 0.45356 0.3893 0.0
C987 C 0.88305 0.39848 0.30619 0.0
C988 C 0.89452 0.43836 0.30635 0.0
H989 H 0.86479 0.34677 0.33534 0.0
H990 H 0.87449 0.38211 0.28332 0.0
C991 C 0.90381 0.45855 0.33646 0.0
C992 C 0.58751 0.47446 0.36251 0.0
C993 C 0.62859 0.49372 0.3636 0.0
H994 H 0.53628 0.44019 0.33292 0.0
C995 C 0.64973 0.5006 0.33417 0.0
H996 H 0.57072 0.46823 0.38513 0.0
C997 C 0.63019 0.48525 0.30449 0.0
C998 C 0.5892 0.4623 0.30383 0.0
H999 H 0.6814 0.51496 0.33457 0.0
H1000 H 0.64727 0.48777 0.28269 0.0
C1001 C 0.56783 0.45868 0.33267 0.0
C1002 C 0.4759 0.17492 0.8532 0.0
C1003 C 0.47255 0.18769 0.82169 0.0
H1004 H 0.47801 0.18524 0.90532 0.0
C1005 C 0.46205 0.21658 0.81861 0.0
H1006 H 0.48484 0.15322 0.85595 0.0
C1007 C 0.45878 0.23526 0.84666 0.0
C1008 C 0.46564 0.22501 0.87812 0.0
H1009 H 0.46015 0.22732 0.79446 0.0
H1010 H 0.4543 0.26 0.84359 0.0
C1011 C 0.47193 0.19317 0.88138 0.0
C1012 C 0.8206 0.2815 0.87817 0.0
C1013 C 0.78875 0.24323 0.87588 0.0
H1014 H 0.85966 0.33376 0.85142 0.0
C1015 C 0.77752 0.22531 0.84481 0.0
H1016 H 0.82924 0.29609 0.90184 0.0
C1017 C 0.79502 0.24665 0.81622 0.0
C1018 C 0.8239 0.28613 0.81838 0.0
H1019 H 0.75279 0.19593 0.84253 0.0
H1020 H 0.78349 0.23339 0.79242 0.0
C1021 C 0.8379 0.30304 0.84942 0.0
C1022 C 0.76719 0.56067 0.82159 0.0
C1023 C 0.72613 0.54142 0.82279 0.0
H1024 H 0.81966 0.57606 0.84845 0.0
C1025 C 0.70714 0.53138 0.85358 0.0
H1026 H 0.78253 0.56859 0.79815 0.0
C1027 C 0.72859 0.53687 0.88243 0.0
C1028 C 0.76908 0.55164 0.88063 0.0
H1029 H 0.6755 0.51666 0.85509 0.0
H1030 H 0.71303 0.52554 0.9055 0.0
C1031 C 0.78849 0.56519 0.85032 0.0
C1032 C 0.45976 0.90403 0.69038 0.0
C1033 C 0.46826 0.89142 0.72 0.0
H1034 H 0.46224 0.90331 0.63748 0.0
C1035 C 0.49309 0.87548 0.71921 0.0
H1036 H 0.43982 0.91538 0.69029 0.0
C1037 C 0.5046 0.86715 0.68915 0.0
C1038 C 0.49225 0.8755 0.65936 0.0
H1039 H 0.49945 0.86489 0.7417 0.0
H1040 H 0.52071 0.85156 0.68922 0.0
C1041 C 0.47201 0.89641 0.66015 0.0
C1042 C 0.15609 0.64173 0.68798 0.0
C1043 C 0.14068 0.62052 0.65883 0.0
H1044 H 0.16778 0.63927 0.73919 0.0
C1045 C 0.11839 0.57952 0.66024 0.0
H1046 H 0.17386 0.67335 0.68727 0.0
C1047 C 0.11492 0.5599 0.69006 0.0
C1048 C 0.13363 0.58124 0.71856 0.0
H1049 H 0.10699 0.56268 0.63781 0.0
H1050 H 0.10133 0.52832 0.68998 0.0
C1051 C 0.1524 0.62224 0.71766 0.0
C1052 C 0.44718 0.55828 0.6868 0.0
C1053 C 0.4282 0.55502 0.71685 0.0
H1054 H 0.44078 0.54647 0.63509 0.0
C1055 C 0.38731 0.53209 0.71875 0.0
H1056 H 0.47869 0.57649 0.68484 0.0
C1057 C 0.36539 0.51591 0.69013 0.0
C1058 C 0.38427 0.522 0.65945 0.0
H1059 H 0.37216 0.53 0.74165 0.0
H1060 H 0.33375 0.50086 0.69168 0.0
C1061 C 0.42538 0.54133 0.65835 0.0
C1062 C 0.5436 0.81692 0.14352 0.0
C1063 C 0.54659 0.78306 0.14627 0.0
H1064 H 0.53498 0.85934 0.16969 0.0
C1065 C 0.55186 0.77101 0.1775 0.0
H1066 H 0.53895 0.82637 0.1197 0.0
C1067 C 0.5502 0.79012 0.20582 0.0
C1068 C 0.54306 0.82137 0.20326 0.0
H1069 H 0.55405 0.74486 0.18013 0.0
H1070 H 0.55081 0.7782 0.22978 0.0
C1071 C 0.54138 0.83577 0.17201 0.0
C1072 C 0.22274 0.77031 0.20199 0.0
C1073 C 0.1972 0.72972 0.20287 0.0
H1074 H 0.25966 0.82 0.17173 0.0
C1075 C 0.18336 0.70915 0.1732 0.0
H1076 H 0.23436 0.78648 0.2247 0.0
C1077 C 0.19759 0.72831 0.143 0.0
C1078 C 0.22579 0.76827 0.14213 0.0
H1079 H 0.16424 0.67771 0.17344 0.0
H1080 H 0.18966 0.71111 0.12057 0.0
C1081 C 0.23688 0.78952 0.17173 0.0
C1082 C 0.31583 0.48488 0.16939 0.0
C1083 C 0.29671 0.47331 0.20007 0.0
H1084 H 0.30948 0.48972 0.11742 0.0
C1085 C 0.25567 0.45043 0.2009 0.0
H1086 H 0.34746 0.50222 0.16805 0.0
C1087 C 0.23404 0.44357 0.17195 0.0
C1088 C 0.25317 0.45847 0.14175 0.0
H1089 H 0.24013 0.44104 0.22419 0.0
H1090 H 0.20247 0.42985 0.1736 0.0
C1091 C 0.29414 0.47715 0.14035 0.0
C1092 C 0.18961 0.46823 0.63866 0.0
C1093 C 0.21431 0.45214 0.63785 0.0
H1094 H 0.16159 0.4917 0.66868 0.0
C1095 C 0.22236 0.43907 0.66744 0.0
H1096 H 0.18362 0.47923 0.61623 0.0
C1097 C 0.20967 0.44621 0.69768 0.0
C1098 C 0.18943 0.46712 0.69855 0.0
H1099 H 0.24224 0.42763 0.66756 0.0
H1100 H 0.2191 0.43892 0.72035 0.0
C1101 C 0.17762 0.47604 0.66873 0.0
C1102 C 0.56709 0.78289 0.66888 0.0
C1103 C 0.54848 0.76162 0.64031 0.0
H1104 H 0.57501 0.77998 0.72111 0.0
C1105 C 0.52983 0.72061 0.64114 0.0
H1106 H 0.58058 0.81445 0.66902 0.0
C1107 C 0.52623 0.70104 0.67078 0.0
C1108 C 0.5416 0.72216 0.69999 0.0
H1109 H 0.51452 0.70363 0.61958 0.0
H1110 H 0.50856 0.66942 0.67141 0.0
C1111 C 0.5637 0.76319 0.69865 0.0
C1112 C 0.29431 0.81097 0.6404 0.0
C1113 C 0.25347 0.78764 0.64259 0.0
H1114 H 0.34809 0.84257 0.66712 0.0
C1115 C 0.23472 0.78402 0.67282 0.0
H1116 H 0.30929 0.81336 0.61733 0.0
C1117 C 0.25672 0.801 0.70116 0.0
C1118 C 0.29784 0.82075 0.69974 0.0
H1119 H 0.20326 0.76551 0.67499 0.0
H1120 H 0.24153 0.7956 0.72456 0.0
C1121 C 0.31645 0.82719 0.6689 0.0
C1122 C 0.14815 0.51104 0.18637 0.0
C1123 C 0.1459 0.52506 0.15509 0.0
H1124 H 0.15073 0.52061 0.23868 0.0
C1125 C 0.13814 0.55591 0.15255 0.0
H1126 H 0.15507 0.48784 0.18869 0.0
C1127 C 0.1363 0.57495 0.18089 0.0
C1128 C 0.14192 0.56319 0.21213 0.0
H1129 H 0.13716 0.56761 0.12858 0.0
H1130 H 0.13358 0.60079 0.17825 0.0
C1131 C 0.14569 0.52977 0.21487 0.0
C1132 C 0.50704 0.63608 0.18566 0.0
C1133 C 0.49101 0.61617 0.15605 0.0
H1134 H 0.50283 0.63388 0.23849 0.0
C1135 C 0.46347 0.57606 0.15695 0.0
H1136 H 0.52773 0.66721 0.18545 0.0
C1137 C 0.44978 0.55682 0.18724 0.0
C1138 C 0.46316 0.5776 0.21694 0.0
H1139 H 0.45021 0.56042 0.13433 0.0
H1140 H 0.42568 0.52693 0.18738 0.0
C1141 C 0.49312 0.61693 0.21595 0.0
C1142 C 0.37372 0.86485 0.18961 0.0
C1143 C 0.39291 0.87567 0.15893 0.0
H1144 H 0.37966 0.85924 0.24154 0.0
C1145 C 0.43401 0.89672 0.15798 0.0
H1146 H 0.34205 0.84884 0.19096 0.0
C1147 C 0.45539 0.90224 0.18685 0.0
C1148 C 0.43597 0.88784 0.21702 0.0
H1149 H 0.44955 0.90541 0.13466 0.0
H1150 H 0.48679 0.91445 0.18514 0.0
C1151 C 0.39521 0.87127 0.21858 0.0
C1152 C 0.08415 0.08861 0.16492 0.0
C1153 C 0.10451 0.12716 0.15324 0.0
H1154 H 0.08282 0.03414 0.16927 0.0
C1155 C 0.14333 0.14258 0.14214 0.0
H1156 H 0.05452 0.07624 0.17411 0.0
C1157 C 0.15966 0.11826 0.13906 0.0
C1158 C 0.1373 0.07845 0.14728 0.0
H1159 H 0.15969 0.17231 0.13302 0.0
H1160 H 0.18814 0.1297 0.12759 0.0
C1161 C 0.10043 0.06457 0.16211 0.0
C1162 C 0.87765 0.00661 0.15127 0.0
C1163 C 0.89649 0.98428 0.1531 0.0
H1164 H 0.88492 0.06407 0.14511 0.0
C1165 C 0.93729 1.00382 0.15672 0.0
H1166 H 0.84621 0.9924 0.1483 0.0
C1167 C 0.95905 0.04449 0.15514 0.0
C1168 C 0.94066 0.06663 0.1501 0.0
H1169 H 0.9527 0.98763 0.15842 0.0
H1170 H 0.99063 0.0585 0.15524 0.0
C1171 C 0.89968 0.04763 0.14963 0.0
C1172 C 0.9726 0.91043 0.16271 0.0
C1173 C 0.95024 0.87209 0.15069 0.0
H1174 H 0.03013 0.95928 0.17076 0.0
C1175 C 0.96915 0.85103 0.14287 0.0
H1176 H 0.95874 0.92751 0.16819 0.0
C1177 C 0.01013 0.86921 0.14457 0.0
C1178 C 0.03264 0.90864 0.15405 0.0
H1179 H 0.95269 0.82189 0.13259 0.0
H1180 H 0.02438 0.85365 0.13554 0.0
C1181 C 0.01343 0.92859 0.1643 0.0
C1182 C 0.06984 0.10017 0.36464 0.0
C1183 C 0.08153 0.13579 0.38093 0.0
H1184 H 0.0843 0.05611 0.35237 0.0
C1185 C 0.12041 0.15825 0.39158 0.0
H1186 H 0.04004 0.0824 0.35602 0.0
C1187 C 0.14576 0.1431 0.38932 0.0
C1188 C 0.13268 0.10577 0.3759 0.0
H1189 H 0.13006 0.1856 0.40444 0.0
H1190 H 0.17437 0.159 0.40066 0.0
C1191 C 0.09521 0.08525 0.36219 0.0
C1192 C 0.93737 0.01137 0.36892 0.0
C1193 C 0.9142 0.02889 0.37166 0.0
H1194 H 0.93949 0.95846 0.37181 0.0
C1195 C 0.87328 1.00495 0.37374 0.0
H1196 H 0.96898 0.02921 0.36811 0.0
C1197 C 0.85621 0.96406 0.37594 0.0
C1198 C 0.88007 0.94703 0.37632 0.0
H1199 H 0.85496 0.01794 0.37693 0.0
H1200 H 0.82507 0.94631 0.38049 0.0
C1201 C 0.92048 0.97088 0.37123 0.0
C1202 C 0.04488 0.9509 0.36609 0.0
C1203 C 0.06812 0.93704 0.38033 0.0
H1204 H 0.98714 0.93901 0.35453 0.0
C1205 C 0.05077 0.89715 0.38829 0.0
H1206 H 0.05757 0.9814 0.35925 0.0
C1207 C 0.01008 0.87263 0.38531 0.0
C1208 C 0.98649 0.88788 0.37447 0.0
H1209 H 0.06796 0.88574 0.39939 0.0
H1210 H 0.99683 0.84284 0.39428 0.0
C1211 C 1.00454 0.92665 0.3633 0.0
C1212 C 0.86678 0.86317 0.88549 0.0
C1213 C 0.9047 0.87653 0.87314 0.0
H1214 H 0.82425 0.87886 0.90057 0.0
C1215 C 0.92606 0.91449 0.86043 0.0
H1216 H 0.85007 0.83403 0.8958 0.0
C1217 C 0.91162 0.94016 0.86345 0.0
C1218 C 0.87555 0.9282 0.87923 0.0
H1219 H 0.95555 0.9255 0.85126 0.0
H1220 H 0.93012 0.97032 0.85587 0.0
C1221 C 0.85209 0.88882 0.88833 0.0
C1222 C 0.07843 0.01449 0.87385 0.0
C1223 C 0.11842 0.03279 0.88111 0.0
H1224 H 0.02412 0.96111 0.87126 0.0
C1225 C 0.1354 0.00936 0.88729 0.0
H1226 H 0.06456 0.03159 0.86867 0.0
C1227 C 0.11191 0.96845 0.88929 0.0
C1228 C 0.07125 0.95058 0.88484 0.0
H1229 H 0.16624 0.02271 0.89302 0.0
H1230 H 0.12509 0.95125 0.89655 0.0
C1231 C 0.05525 0.97397 0.87543 0.0
C1232 C 1.00595 0.08471 0.86356 0.0
C1233 C 0.98413 0.10225 0.87302 0.0
H1234 H 0.06276 0.09028 0.86088 0.0
C1235 C 1.00409 0.14175 0.88273 0.0
H1236 H 0.99126 0.05406 0.85686 0.0
C1237 C 0.04504 0.16223 0.88578 0.0
C1238 C 0.06653 0.14359 0.87868 0.0
H1239 H 0.98779 0.15556 0.89097 0.0
H1240 H 0.05944 0.1913 0.89635 0.0
C1241 C 0.0468 0.10535 0.86608 0.0
C1242 C 0.94767 0.91059 0.66262 0.0
C1243 C 0.93339 0.87367 0.64784 0.0
H1244 H 0.93632 0.95675 0.67484 0.0
C1245 C 0.89327 0.85122 0.64083 0.0
H1246 H 0.97842 0.9284 0.66856 0.0
C1247 C 0.86898 0.86747 0.64494 0.0
C1248 C 0.88447 0.90605 0.6564 0.0
H1249 H 0.88152 0.82283 0.62927 0.0
H1250 H 0.83913 0.8514 0.63606 0.0
C1251 C 0.92349 0.92669 0.6667 0.0
C1252 C 0.08019 0.99617 0.66112 0.0
C1253 C 0.10124 0.97905 0.6488 0.0
H1254 H 0.0778 0.04876 0.66684 0.0
C1255 C 0.1395 1.00325 0.63691 0.0
H1256 H 0.05039 0.97804 0.66971 0.0
C1257 C 0.15539 0.04393 0.63518 0.0
C1258 C 0.13279 0.06069 0.64474 0.0
H1259 H 0.15582 0.99046 0.62647 0.0
H1260 H 0.18374 0.06167 0.62368 0.0
C1261 C 0.09583 0.03661 0.65916 0.0
C1262 C 0.97322 0.0658 0.66459 0.0
C1263 C 0.94913 0.0776 0.64865 0.0
H1264 H 0.03185 0.08002 0.67623 0.0
C1265 C 0.96564 0.11654 0.63801 0.0
H1266 H 0.96123 0.03593 0.6731 0.0
C1267 C 1.00623 0.14181 0.63997 0.0
C1268 C 0.03059 0.12865 0.6531 0.0
H1269 H 0.94789 0.12631 0.62536 0.0
H1270 H 0.01892 0.17043 0.62859 0.0
C1271 C 0.01359 0.09108 0.66673 0.0
C1272 C 0.77376 0.40553 0.495 0.0
C1273 C 0.80975 0.41779 0.47897 0.0
H1274 H 0.72925 0.41939 0.50724 0.0
C1275 C 0.83253 0.45709 0.4694 0.0
H1276 H 0.75574 0.37542 0.50289 0.0
C1277 C 0.81723 0.48226 0.47209 0.0
C1278 C 0.77934 0.46853 0.48471 0.0
H1279 H 0.86027 0.46728 0.45691 0.0
H1280 H 0.83344 0.51128 0.46149 0.0
C1281 C 0.75868 0.43073 0.49783 0.0
C1282 C 0.606 0.33283 0.4897 0.0
C1283 C 0.56591 0.31397 0.48272 0.0
H1284 H 0.66033 0.38638 0.4896 0.0
C1285 C 0.54869 0.33681 0.47496 0.0
H1286 H 0.62003 0.31614 0.49605 0.0
C1287 C 0.57204 0.37744 0.47078 0.0
C1288 C 0.61279 0.39557 0.47452 0.0
H1289 H 0.51776 0.32301 0.4694 0.0
H1290 H 0.55865 0.394 0.46228 0.0
C1291 C 0.6291 0.37313 0.4858 0.0
C1292 C 0.68111 0.26157 0.49746 0.0
C1293 C 0.702 0.24435 0.48485 0.0
H1294 H 0.62472 0.25611 0.5043 0.0
C1295 C 0.68132 0.20526 0.4742 0.0
H1296 H 0.69641 0.29194 0.50505 0.0
C1297 C 0.64027 0.18485 0.47349 0.0
C1298 C 0.61942 0.20318 0.48372 0.0
H1299 H 0.6969 0.19176 0.46364 0.0
H1300 H 0.62508 0.15627 0.46203 0.0
C1301 C 0.64013 0.24102 0.4971 0.0
C1302 C 0.7586 0.42109 0.68999 0.0
C1303 C 0.79758 0.43983 0.70068 0.0
H1304 H 0.70575 0.42368 0.68658 0.0
C1305 C 0.81506 0.4788 0.71159 0.0
H1306 H 0.74414 0.39071 0.68247 0.0
C1307 C 0.79289 0.49752 0.71441 0.0
C1308 C 0.75305 0.47755 0.7061 0.0
H1309 H 0.8447 0.49336 0.72102 0.0
H1310 H 0.80588 0.52608 0.72585 0.0
C1311 C 0.73661 0.43989 0.69251 0.0
C1312 C 0.59532 0.30527 0.70417 0.0
C1313 C 0.55635 0.28172 0.71472 0.0
H1314 H 0.64248 0.36308 0.69502 0.0
C1315 C 0.53283 0.29884 0.71867 0.0
H1316 H 0.61404 0.29286 0.70031 0.0
C1317 C 0.54926 0.33946 0.71524 0.0
C1318 C 0.58938 0.36332 0.70797 0.0
H1319 H 0.5027 0.28142 0.72671 0.0
H1320 H 0.53136 0.3524 0.72088 0.0
C1321 C 0.61167 0.34556 0.70097 0.0
C1322 C 0.6674 0.24774 0.69068 0.0
C1323 C 0.65191 0.21104 0.7058 0.0
H1324 H 0.71837 0.3037 0.68263 0.0
C1325 C 0.67761 0.19999 0.71964 0.0
H1326 H 0.6481 0.25715 0.6805 0.0
C1327 C 0.71796 0.2265 0.72073 0.0
C1328 C 0.73296 0.26472 0.70866 0.0
H1329 H 0.66613 0.17211 0.73212 0.0
H1330 H 0.73672 0.21833 0.73382 0.0
C1331 C 0.70757 0.27442 0.69219 0.0
C1332 C 0.53672 0.19992 0.21184 0.0
C1333 C 0.57592 0.21518 0.20202 0.0
H1334 H 0.49126 0.21275 0.22408 0.0
C1335 C 0.59727 0.25416 0.19142 0.0
H1336 H 0.52011 0.17027 0.22115 0.0
C1337 C 0.58094 0.27842 0.19333 0.0
C1338 C 0.5429 0.26407 0.20573 0.0
H1339 H 0.62781 0.26685 0.18466 0.0
H1340 H 0.59926 0.30927 0.18784 0.0
C1341 C 0.52023 0.2242 0.21357 0.0
C1342 C 0.80823 0.34266 0.21841 0.0
C1343 C 0.79259 0.3664 0.20896 0.0
H1344 H 0.79582 0.28451 0.23051 0.0
C1345 C 0.75364 0.34856 0.19847 0.0
H1346 H 0.83825 0.35574 0.2267 0.0
C1347 C 0.72969 0.30815 0.20035 0.0
C1348 C 0.74402 0.28461 0.21312 0.0
H1349 H 0.74102 0.36599 0.19053 0.0
H1350 H 0.69915 0.29554 0.19379 0.0
C1351 C 0.78401 0.30192 0.22058 0.0
C1352 C 0.71834 0.49578 0.21288 0.0
C1353 C 0.73864 0.47537 0.20862 0.0
H1354 H 0.66215 0.4918 0.21608 0.0
C1355 C 0.71765 0.43584 0.19945 0.0
H1356 H 0.73376 0.52604 0.22073 0.0
C1357 C 0.67685 0.41601 0.19735 0.0
C1358 C 0.65603 0.43542 0.20423 0.0
H1359 H 0.73269 0.41952 0.19636 0.0
H1360 H 0.66149 0.38488 0.19246 0.0
C1361 C 0.6773 0.47601 0.21037 0.0
C1362 C 0.56254 0.18698 0.96855 0.0
C1363 C 0.60183 0.2085 0.97843 0.0
H1364 H 0.5094 0.18821 0.96027 0.0
C1365 C 0.61504 0.24473 0.99422 0.0
H1366 H 0.55171 0.15925 0.956 0.0
C1367 C 0.59089 0.26107 0.99683 0.0
C1368 C 0.55295 0.24139 0.98394 0.0
H1369 H 0.64519 0.26192 1.00216 0.0
H1370 H 0.60309 0.29062 1.00611 0.0
C1371 C 0.53833 0.2035 0.97109 0.0
C1372 C 0.74958 0.33145 0.99428 0.0
C1373 C 0.77082 0.31427 0.98257 0.0
H1374 H 0.74686 0.38394 0.99881 0.0
C1375 C 0.80915 0.33833 0.97081 0.0
H1376 H 0.71968 0.31337 1.00272 0.0
C1377 C 0.82481 0.37889 0.96829 0.0
C1378 C 0.80191 0.3956 0.977 0.0
H1379 H 0.82559 0.32544 0.96082 0.0
H1380 H 0.85317 0.39648 0.95676 0.0
C1381 C 0.76503 0.37177 0.99164 0.0
C1382 C 0.67631 0.4778 0.9751 0.0
C1383 C 0.70038 0.46355 0.98675 0.0
H1384 H 0.61847 0.46346 0.95992 0.0
C1385 C 0.68306 0.42478 0.99769 0.0
H1386 H 0.68925 0.5074 0.96571 0.0
C1387 C 0.64287 0.39959 0.99397 0.0
C1388 C 0.61927 0.41268 0.9791 0.0
H1389 H 0.70109 0.41292 1.006 0.0
H1390 H 0.63078 0.36903 1.00035 0.0
C1391 C 0.63587 0.45258 0.97152 0.0
C1392 C 0.43627 0.73239 0.83154 0.0
C1393 C 0.47246 0.74555 0.81566 0.0
H1394 H 0.39082 0.74468 0.84377 0.0
C1395 C 0.49476 0.78502 0.80643 0.0
H1396 H 0.41879 0.70221 0.83944 0.0
C1397 C 0.47872 0.80955 0.80932 0.0
C1398 C 0.44028 0.79459 0.82118 0.0
H1399 H 0.52272 0.79585 0.79417 0.0
H1400 H 0.49476 0.83885 0.79921 0.0
C1401 C 0.42023 0.75663 0.83409 0.0
C1402 C 0.27429 0.6671 0.8184 0.0
C1403 C 0.23333 0.64742 0.81641 0.0
H1404 H 0.32743 0.72194 0.8165 0.0
C1405 C 0.21435 0.6697 0.81687 0.0
H1406 H 0.28991 0.65105 0.81831 0.0
C1407 C 0.23615 0.71082 0.81602 0.0
C1408 C 0.27715 0.73006 0.81497 0.0
H1409 H 0.18277 0.65547 0.81526 0.0
H1410 H 0.22106 0.72722 0.81332 0.0
C1411 C 0.29585 0.70784 0.81763 0.0
C1412 C 0.3446 0.53414 0.81399 0.0
C1413 C 0.36535 0.57371 0.82343 0.0
H1414 H 0.28874 0.48545 0.80021 0.0
C1415 C 0.34433 0.59224 0.83243 0.0
H1416 H 0.3603 0.51963 0.80591 0.0
C1417 C 0.30355 0.57262 0.82946 0.0
C1418 C 0.2831 0.53431 0.81705 0.0
H1419 H 0.35967 0.623 0.83882 0.0
H1420 H 0.28836 0.58863 0.83402 0.0
C1421 C 0.3037 0.51458 0.81066 0.0
C1422 C 0.45956 0.82793 0.05323 0.0
C1423 C 0.42028 0.8096 0.04328 0.0
H1424 H 0.50986 0.82151 0.06128 0.0
C1425 C 0.40346 0.77232 0.02884 0.0
H1426 H 0.47278 0.85609 0.06539 0.0
C1427 C 0.42437 0.75231 0.02692 0.0
C1428 C 0.46273 0.7695 0.03898 0.0
H1429 H 0.37297 0.7573 0.02168 0.0
H1430 H 0.40951 0.72225 0.0185 0.0
C1431 C 0.48069 0.80808 0.05093 0.0
C1432 C 0.21701 0.67387 0.05043 0.0
C1433 C 0.2568 0.6981 0.04233 0.0
H1434 H 0.17118 0.61544 0.06165 0.0
C1435 C 0.27903 0.68084 0.03342 0.0
H1436 H 0.19924 0.68649 0.05759 0.0
C1437 C 0.26302 0.6405 0.03555 0.0
C1438 C 0.22452 0.61649 0.04701 0.0
H1439 H 0.30958 0.69871 0.02678 0.0
H1440 H 0.28173 0.62838 0.03026 0.0
C1441 C 0.20094 0.63323 0.05283 0.0
C1442 C 0.34453 0.53024 0.04778 0.0
C1443 C 0.31999 0.54322 0.03477 0.0
H1444 H 0.40264 0.5465 0.06357 0.0
C1445 C 0.33671 0.58084 0.02131 0.0
H1446 H 0.33202 0.50147 0.05885 0.0
C1447 C 0.37686 0.60664 0.02427 0.0
C1448 C 0.40085 0.59519 0.04082 0.0
H1449 H 0.31827 0.59168 1.01179 0.0
H1450 H 0.38854 0.63666 0.01627 0.0
C1451 C 0.38488 0.55604 0.05061 0.0
C1452 C 0.26353 0.58775 0.52479 0.0
C1453 C 0.24348 0.54957 0.53725 0.0
H1454 H 0.26466 0.64206 0.51983 0.0
C1455 C 0.20486 0.53426 0.54879 0.0
H1456 H 0.29305 0.59998 0.51532 0.0
C1457 C 0.18856 0.55857 0.55179 0.0
C1458 C 0.21077 0.59818 0.54298 0.0
H1459 H 0.1888 0.50479 0.55852 0.0
H1460 H 0.1604 0.54739 0.56379 0.0
C1461 C 0.24722 0.61176 0.52743 0.0
C1462 C 0.40949 0.67558 0.539 0.0
C1463 C 0.45038 0.69546 0.54188 0.0
H1464 H 0.35647 0.62061 0.54041 0.0
C1465 C 0.46954 0.67335 0.54257 0.0
H1466 H 0.39376 0.6915 0.53821 0.0
C1467 C 0.44786 0.63224 0.54368 0.0
C1468 C 0.40684 0.61281 0.5438 0.0
H1469 H 0.50105 0.68776 0.54494 0.0
H1470 H 0.463 0.616 0.54727 0.0
C1471 C 0.38807 0.63484 0.54 0.0
C1472 C 0.37772 0.76947 0.52897 0.0
C1473 C 0.39872 0.80794 0.54097 0.0
H1474 H 0.3212 0.71942 0.52021 0.0
C1475 C 0.37861 0.82818 0.5473 0.0
H1476 H 0.39252 0.75306 0.52451 0.0
C1477 C 0.33766 0.80899 0.54436 0.0
C1478 C 0.31639 0.76932 0.53528 0.0
H1479 H 0.39399 0.85743 0.55748 0.0
H1480 H 0.32238 0.82391 0.55245 0.0
C1481 C 0.33692 0.75026 0.5263 0.0
C1482 C 0.22989 0.51898 0.30943 0.0
C1483 C 0.27007 0.5393 0.31661 0.0
H1484 H 0.17791 0.52298 0.30306 0.0
C1485 C 0.2871 0.57783 0.32838 0.0
H1486 H 0.21637 0.4897 0.29934 0.0
C1487 C 0.26534 0.59691 0.33028 0.0
C1488 C 0.22594 0.57766 0.32077 0.0
H1489 H 0.31817 0.59431 0.33339 0.0
H1490 H 0.28017 0.6277 0.33652 0.0
C1491 C 0.20794 0.53804 0.31158 0.0
C1492 C 0.49035 0.71396 0.30508 0.0
C1493 C 0.46734 0.73096 0.31245 0.0
H1494 H 0.49141 0.66042 0.29934 0.0
C1495 C 0.42968 0.70725 0.3257 0.0
H1496 H 0.51943 0.73149 0.29479 0.0
C1497 C 0.41371 0.66692 0.32817 0.0
C1498 C 0.43511 0.64931 0.31775 0.0
H1499 H 0.41145 0.71959 0.33215 0.0
H1500 H 0.38365 0.64925 0.33625 0.0
C1501 C 0.47431 0.67329 0.30777 0.0
C1502 C 0.31207 0.73844 0.33426 0.0
C1503 C 0.28819 0.75032 0.31811 0.0
H1504 H 0.37056 0.75292 0.34656 0.0
C1505 C 0.30435 0.78967 0.30882 0.0
H1506 H 0.30026 0.70828 0.34188 0.0
C1507 C 0.34473 0.81529 0.31179 0.0
C1508 C 0.36914 0.80195 0.32446 0.0
H1509 H 0.28669 0.79954 0.29617 0.0
H1510 H 0.35737 0.84423 0.30103 0.0
C1511 C 0.35224 0.76406 0.33737 0.0
C1512 C 0.03708 0.19264 0.28662 0.0
C1513 C 1.00035 0.18532 0.29839 0.0
H1514 H 0.07458 0.20333 0.24511 0.0
C1515 C 0.97273 0.18335 0.27555 0.0
H1516 H 0.05909 0.19401 0.30338 0.0
C1517 C 0.98195 0.18907 0.24177 0.0
C1518 C 0.0188 0.19644 0.23018 0.0
H1519 H 0.94426 0.17776 0.28376 0.0
H1520 H 0.96004 0.1873 0.22469 0.0
C1521 C 0.0461 0.19799 0.25307 0.0
C1522 C 0.81306 0.8389 0.28781 0.0
C1523 C 0.83204 0.81836 0.29748 0.0
H1524 H 0.79421 0.86086 0.24761 0.0
C1525 C 0.84643 0.80357 0.27318 0.0
H1526 H 0.80204 0.85096 0.30614 0.0
C1527 C 0.84106 0.80843 0.23977 0.0
C1528 C 0.82226 0.82915 0.2301 0.0
H1529 H 0.8612 0.78773 0.27998 0.0
H1530 H 0.85214 0.79644 0.22144 0.0
C1531 C 0.80871 0.84475 0.25441 0.0
C1532 C 0.18179 0.97645 0.28528 0.0
C1533 C 0.20064 0.01516 0.29742 0.0
H1534 H 0.16271 0.93877 0.24297 0.0
C1535 C 0.21619 0.04603 0.27458 0.0
H1536 H 0.16943 0.95177 0.30207 0.0
C1537 C 0.21227 0.03842 0.24062 0.0
C1538 C 0.19273 0.99972 0.22847 0.0
H1539 H 0.23085 0.07611 0.28288 0.0
H1540 H 0.2242 0.06312 0.22385 0.0
C1541 C 0.17792 0.96884 0.2513 0.0
C1542 C 0.97537 0.79958 0.74123 0.0
C1543 C 0.01369 0.82149 0.72842 0.0
H1544 H 0.93861 0.77974 0.78416 0.0
C1545 C 0.04497 0.83957 0.75066 0.0
H1546 H 0.95044 0.78511 0.7249 0.0
C1547 C 0.03805 0.83653 0.78476 0.0
C1548 C 0.99967 0.81518 0.79753 0.0
H1549 H 0.07478 0.85668 0.74177 0.0
H1550 H 0.06292 0.85136 0.8011 0.0
C1551 C 0.96847 0.7964 0.7753 0.0
C1552 C 0.18416 0.21916 0.7524 0.0
C1553 C 0.18548 0.19262 0.73012 0.0
H1554 H 0.18781 0.23685 0.80292 0.0
C1555 C 0.19129 0.16261 0.74271 0.0
H1556 H 0.17974 0.24256 0.74359 0.0
C1557 C 0.1957 0.15918 0.77654 0.0
C1558 C 0.19482 0.18587 0.79885 0.0
H1559 H 0.19217 0.14135 0.72639 0.0
H1560 H 0.19989 0.13557 0.78518 0.0
C1561 C 0.18902 0.21595 0.78638 0.0
C1562 C 0.8366 0.04044 0.77647 0.0
C1563 C 0.82243 0.00924 0.7989 0.0
H1564 H 0.84438 0.05823 0.726 0.0
C1565 C 0.80289 0.97068 0.78654 0.0
H1566 H 0.85166 0.07042 0.78504 0.0
C1567 C 0.79861 0.96354 0.75256 0.0
C1568 C 0.81383 0.99479 0.73012 0.0
H1569 H 0.79142 0.94581 0.8031 0.0
H1570 H 0.78424 0.9336 0.74392 0.0
C1571 C 0.83238 0.03331 0.74253 0.0
C1572 C 0.63745 0.49177 0.60492 0.0
C1573 C 0.66446 0.51823 0.62764 0.0
H1574 H 0.62432 0.4748 0.5545 0.0
C1575 C 0.70037 0.54895 0.61573 0.0
H1576 H 0.60964 0.46771 0.61316 0.0
C1577 C 0.7091 0.55292 0.58188 0.0
C1578 C 0.6819 0.52651 0.55918 0.0
H1579 H 0.72205 0.5697 0.63261 0.0
H1580 H 0.73699 0.57672 0.57352 0.0
C1581 C 0.64596 0.49595 0.57119 0.0
C1582 C 0.48957 0.17993 0.6175 0.0
C1583 C 0.49627 0.15023 0.62947 0.0
H1584 H 0.48013 0.20718 0.57561 0.0
C1585 C 0.49789 0.12427 0.60675 0.0
H1586 H 0.48835 0.20071 0.63418 0.0
C1587 C 0.49276 0.12789 0.57292 0.0
C1588 C 0.48629 0.15778 0.56104 0.0
H1589 H 0.50295 0.10111 0.61507 0.0
H1590 H 0.49444 0.10754 0.55602 0.0
C1591 C 0.48482 0.18374 0.5838 0.0
C1592 C 0.84794 0.30518 0.58111 0.0
C1593 C 0.86248 0.3364 0.5587 0.0
H1594 H 0.83916 0.28733 0.63157 0.0
C1595 C 0.88167 0.37496 0.57111 0.0
H1596 H 0.83311 0.27522 0.5725 0.0
C1597 C 0.8852 0.38207 0.60509 0.0
C1598 C 0.86959 0.3508 0.62749 0.0
H1599 H 0.89341 0.39986 0.55456 0.0
H1600 H 0.89932 0.41199 0.61374 0.0
C1601 C 0.85144 0.31228 0.61506 0.0
C1602 C 0.64691 0.13484 0.07211 0.0
C1603 C 0.68534 0.15673 0.05956 0.0
H1604 H 0.60972 0.11503 0.11465 0.0
C1605 C 0.71652 0.17436 0.0819 0.0
H1606 H 0.62204 0.12059 0.05569 0.0
C1607 C 0.70928 0.17113 0.11596 0.0
C1608 C 0.6707 0.15008 0.12842 0.0
H1609 H 0.74638 0.19142 0.07313 0.0
H1610 H 0.73399 0.18574 0.1325 0.0
C1611 C 0.6397 0.13154 0.10604 0.0
C1612 C 0.86125 0.55013 0.11647 0.0
C1613 C 0.86705 0.51982 0.12836 0.0
H1614 H 0.85158 0.57722 0.07425 0.0
C1615 C 0.86751 0.49324 0.10573 0.0
H1616 H 0.86036 0.57094 0.13332 0.0
C1617 C 0.86267 0.49699 0.07208 0.0
C1618 C 0.85688 0.52724 0.06006 0.0
H1619 H 0.87167 0.46947 0.11397 0.0
H1620 H 0.86317 0.47576 0.05547 0.0
C1621 C 0.856 0.55368 0.08266 0.0
C1622 C 0.51716 0.37065 0.07178 0.0
C1623 C 0.48826 0.33374 0.06004 0.0
H1624 H 0.54441 0.40772 0.11334 0.0
C1625 C 0.46368 0.3055 0.08315 0.0
H1626 H 0.53696 0.3932 0.05488 0.0
C1627 C 0.46787 0.31418 0.11707 0.0
C1628 C 0.49702 0.35111 0.12863 0.0
H1629 H 0.44119 0.27685 0.07505 0.0
H1630 H 0.44863 0.29173 0.13429 0.0
C1631 C 0.52157 0.37912 0.10547 0.0
C1632 C 0.38292 0.87767 0.91958 0.0
C1633 C 0.35335 0.86193 0.89565 0.0
H1634 H 0.39675 0.88587 0.97111 0.0
C1635 C 0.31401 0.84094 0.90602 0.0
H1636 H 0.41344 0.89388 0.91232 0.0
C1637 C 0.30445 0.83549 0.93965 0.0
C1638 C 0.334 0.85192 0.96356 0.0
H1639 H 0.2906 0.82812 0.88807 0.0
H1640 H 0.27396 0.81894 0.94693 0.0
C1641 C 0.37331 0.87319 0.95318 0.0
C1642 C 0.15876 0.51421 0.95095 0.0
C1643 C 0.16389 0.48353 0.96292 0.0
H1644 H 0.15069 0.54245 0.90913 0.0
C1645 C 0.16424 0.45688 0.94021 0.0
H1646 H 0.15862 0.53558 0.9676 0.0
C1647 C 0.15929 0.46076 0.90636 0.0
C1648 C 0.15434 0.49162 0.89453 0.0
H1649 H 0.16814 0.433 0.94854 0.0
H1650 H 0.15987 0.43986 0.88943 0.0
C1651 C 0.15423 0.51828 0.91729 0.0
C1652 C 0.51844 0.64221 0.95127 0.0
C1653 C 0.53549 0.68073 0.96363 0.0
H1654 H 0.5005 0.60485 0.90884 0.0
C1655 C 0.54955 0.71177 0.94103 0.0
H1656 H 0.50732 0.6174 0.96787 0.0
C1657 C 0.54559 0.7044 0.90702 0.0
C1658 C 0.52748 0.66579 0.89472 0.0
H1659 H 0.56276 0.7417 0.94955 0.0
H1660 H 0.55611 0.72913 0.89039 0.0
C1661 C 0.51448 0.63485 0.91731 0.0
C1662 C 0.31387 0.47319 0.40507 0.0
C1663 C 0.35353 0.49398 0.39552 0.0
H1664 H 0.27244 0.45228 0.44502 0.0
C1665 C 0.38232 0.50941 0.42012 0.0
H1666 H 0.29097 0.46127 0.38663 0.0
C1667 C 0.37166 0.50337 0.45355 0.0
C1668 C 0.33197 0.48278 0.46308 0.0
H1669 H 0.41305 0.52558 0.41353 0.0
H1670 H 0.39452 0.51538 0.47202 0.0
C1671 C 0.30318 0.46814 0.43847 0.0
C1672 C 0.53105 0.83296 0.40717 0.0
C1673 C 0.52516 0.86321 0.39529 0.0
H1674 H 0.53787 0.80391 0.44908 0.0
C1675 C 0.52232 0.88833 0.41818 0.0
H1676 H 0.53306 0.81273 0.39034 0.0
C1677 C 0.52545 0.88333 0.45211 0.0
C1678 C 0.53099 0.85282 0.46388 0.0
H1679 H 0.5177 0.91179 0.40993 0.0
H1680 H 0.52292 0.90307 0.46916 0.0
C1681 C 0.53371 0.82772 0.44096 0.0
C1682 C 0.13539 0.63296 0.41742 0.0
C1683 C 0.15092 0.66441 0.39517 0.0
H1684 H 0.12632 0.61473 0.46791 0.0
C1685 C 0.16784 0.70274 0.40791 0.0
H1686 H 0.12219 0.60316 0.40859 0.0
C1687 C 0.17026 0.70952 0.44195 0.0
C1688 C 0.15587 0.67817 0.46424 0.0
H1689 H 0.18001 0.72785 0.39159 0.0
H1690 H 0.18427 0.73939 0.45074 0.0
C1691 C 0.13786 0.63975 0.45151 0.0
C1692 C 0.07028 0.34834 0.06644 0.0
C1693 C 0.09989 0.37914 0.08467 0.0
H1694 H 0.02899 0.28655 0.06481 0.0
C1695 C 0.10673 0.37223 0.11727 0.0
H1696 H 0.06503 0.35292 0.04103 0.0
C1697 C 0.08657 0.33473 0.13071 0.0
C1698 C 0.05907 0.30306 0.11184 0.0
H1699 H 0.12964 0.39551 0.1317 0.0
H1700 H 0.09425 0.33014 0.15532 0.0
C1701 C 0.04979 0.31045 0.08004 0.0
C1702 C 0.70379 0.74178 0.08493 0.0
C1703 C 0.7133 0.76572 0.11318 0.0
H1704 H 0.65923 0.7067 0.04928 0.0
C1705 C 0.68316 0.76847 0.12925 0.0
H1706 H 0.72632 0.73913 0.07189 0.0
C1707 C 0.64545 0.75037 0.11632 0.0
C1708 C 0.63636 0.72855 0.08707 0.0
H1709 H 0.68901 0.78614 0.15122 0.0
H1710 H 0.62352 0.75473 0.12864 0.0
C1711 C 0.66546 0.72319 0.07199 0.0
C1712 C 0.23854 0.93316 0.07606 0.0
C1713 C 0.24979 0.95351 0.1061 0.0
H1714 H 0.24755 0.89837 0.04082 0.0
C1715 C 0.28313 0.95757 0.12226 0.0
H1716 H 0.21301 0.92965 0.06302 0.0
C1717 C 0.30315 0.93914 0.10949 0.0
C1718 C 0.29 0.91648 0.08045 0.0
H1719 H 0.29214 0.97274 0.14565 0.0
H1720 H 0.32732 0.94067 0.12333 0.0
C1721 C 0.25835 0.91508 0.06338 0.0
C1722 C 0.32011 0.04358 0.43194 0.0
C1723 C 0.31013 0.06385 0.40891 0.0
H1724 H 0.36496 0.04621 0.46408 0.0
C1725 C 0.33958 0.10052 0.39748 0.0
H1726 H 0.29787 0.01553 0.44151 0.0
C1727 C 0.37733 0.11783 0.41032 0.0
C1728 C 0.38675 0.09901 0.43491 0.0
H1729 H 0.33288 0.11684 0.37971 0.0
H1730 H 0.39879 0.14684 0.40195 0.0
C1731 C 0.3583 0.06117 0.44497 0.0
C1732 C 0.96167 0.28009 0.40553 0.0
C1733 C 0.95408 0.24483 0.42052 0.0
H1734 H 0.94758 0.32632 0.40478 0.0
C1735 C 0.93205 0.23297 0.44981 0.0
H1736 H 0.97845 0.28974 0.38285 0.0
C1737 C 0.91505 0.25379 0.46237 0.0
C1738 C 0.91954 0.28708 0.44601 0.0
H1739 H 0.92611 0.20614 0.46211 0.0
H1740 H 0.89601 0.24224 0.48372 0.0
C1741 C 0.94427 0.3011 0.41818 0.0
C1742 C 0.74581 0.70278 0.44578 0.0
C1743 C 0.7632 0.71061 0.4142 0.0
H1744 H 0.71634 0.65938 0.48377 0.0
C1745 C 0.75778 0.67906 0.3945 0.0
H1746 H 0.7498 0.72658 0.46161 0.0
C1747 C 0.73828 0.64101 0.40691 0.0
C1748 C 0.72381 0.63346 0.43936 0.0
H1749 H 0.77057 0.68402 0.37004 0.0
H1750 H 0.73705 0.61769 0.3919 0.0
C1751 C 0.72647 0.66438 0.45842 0.0
C1752 C 0.91021 0.63953 0.9056 0.0
C1753 C 0.91918 0.63216 0.93738 0.0
H1754 H 0.92 0.6825 0.86892 0.0
C1755 C 0.95071 0.66248 0.95445 0.0
H1756 H 0.88588 0.61666 0.89202 0.0
C1757 C 0.97057 0.7005 0.94097 0.0
C1758 C 0.95908 0.70833 0.91034 0.0
H1759 H 0.95775 0.6576 0.97919 0.0
H1760 H 0.99226 0.72429 0.95578 0.0
C1761 C 0.9299 0.67714 0.89225 0.0
C1762 C 0.37174 0.26835 0.90893 0.0
C1763 C 0.38153 0.28833 0.93915 0.0
H1764 H 0.32715 0.23423 0.87411 0.0
C1765 C 0.35272 0.29253 0.95614 0.0
H1766 H 0.39338 0.26477 0.89526 0.0
C1767 C 0.31404 0.27452 0.94399 0.0
C1768 C 0.30383 0.25218 0.91475 0.0
H1769 H 0.35944 0.30744 0.97968 0.0
H1770 H 0.29175 0.27606 0.95846 0.0
C1771 C 0.33362 0.25072 0.89686 0.0
C1772 C 0.72237 0.06369 0.95202 0.0
C1773 C 0.72841 0.09821 0.93664 0.0
H1774 H 0.73868 0.01906 0.95314 0.0
C1775 C 0.75024 0.11035 0.90721 0.0
H1776 H 0.70592 0.05391 0.97485 0.0
C1777 C 0.76866 0.09074 0.89498 0.0
C1778 C 0.76556 0.05823 0.91166 0.0
H1779 H 0.75511 0.13669 0.89467 0.0
H1780 H 0.7875 0.10256 0.87354 0.0
C1781 C 0.74097 0.04375 0.93955 0.0
C1782 C 0.70255 0.92964 0.5778 0.0
C1783 C 0.71162 0.94942 0.60809 0.0
H1784 H 0.65887 0.896 0.54221 0.0
C1785 C 0.68251 0.9537 0.62444 0.0
H1786 H 0.72448 0.92609 0.56457 0.0
C1787 C 0.64415 0.9359 0.61161 0.0
C1788 C 0.63464 0.91378 0.58228 0.0
H1789 H 0.68872 0.96856 0.64799 0.0
H1790 H 0.62157 0.93748 0.62558 0.0
C1791 C 0.66479 0.91228 0.56503 0.0
C1792 C 0.09463 0.76456 0.63127 0.0
C1793 C 0.06063 0.75986 0.61611 0.0
H1794 H 0.14189 0.7529 0.62958 0.0
C1795 C 0.04506 0.73414 0.5891 0.0
H1796 H 0.10738 0.78428 0.65199 0.0
C1797 C 0.06518 0.71601 0.57595 0.0
C1798 C 0.10108 0.72371 0.58966 0.0
H1799 H 0.01924 0.73058 0.5766 0.0
H1800 H 0.05429 0.69851 0.5538 0.0
C1801 C 0.11452 0.74676 0.61826 0.0
C1802 C 0.26284 0.34347 0.56319 0.0
C1803 C 0.29031 0.37535 0.58191 0.0
H1804 H 0.22035 0.28249 0.5622 0.0
C1805 C 0.29984 0.36806 0.61367 0.0
H1806 H 0.2549 0.34787 0.53863 0.0
C1807 C 0.27981 0.33005 0.62729 0.0
C1808 C 0.25031 0.29898 0.60915 0.0
H1809 H 0.3206 0.39207 0.62884 0.0
H1810 H 0.28541 0.32556 0.65261 0.0
C1811 C 0.24312 0.30591 0.57663 0.0
C1812 C 0.01775 0.43505 0.79251 0.0
C1813 C 0.04713 0.43102 0.77638 0.0
H1814 H 0.95889 0.42374 0.79196 0.0
C1815 C 0.03683 0.40729 0.74796 0.0
H1816 H 0.02416 0.4526 0.81462 0.0
C1817 C 0.99854 0.39011 0.73498 0.0
C1818 C 0.97031 0.39679 0.75015 0.0
H1819 H 0.05875 0.40369 0.73485 0.0
H1820 H 0.99174 0.37367 0.71221 0.0
C1821 C 0.98014 0.41843 0.77952 0.0
C1822 C 0.61462 0.62305 0.78659 0.0
C1823 C 0.58027 0.61757 0.77134 0.0
H1824 H 0.65972 0.60742 0.78683 0.0
C1825 C 0.56797 0.59605 0.74193 0.0
H1826 H 0.6245 0.63928 0.80945 0.0
C1827 C 0.58783 0.57819 0.72904 0.0
C1828 C 0.62056 0.58098 0.74531 0.0
H1829 H 0.54171 0.59158 0.72955 0.0
H1830 H 0.57632 0.56062 0.70698 0.0
C1831 C 0.63466 0.60477 0.77365 0.0
C1832 C 0.43605 0.03708 0.78242 0.0
C1833 C 0.43026 0.04353 0.74937 0.0
H1834 H 0.42366 0.99538 0.82086 0.0
C1835 C 0.40239 0.01196 0.73059 0.0
H1836 H 0.45775 0.06088 0.79726 0.0
C1837 C 0.38256 0.97402 0.74424 0.0
C1838 C 0.39088 0.96726 0.77661 0.0
H1839 H 0.39808 0.01609 0.70484 0.0
H1840 H 0.36318 0.94968 0.72868 0.0
C1841 C 0.41666 0.9995 0.79587 0.0
C1842 C 0.59425 0.01181 0.22547 0.0
C1843 C 0.62515 0.04312 0.24208 0.0
H1844 H 0.54987 0.95154 0.22691 0.0
C1845 C 0.63888 0.03562 0.27172 0.0
H1846 H 0.58281 0.01684 0.20284 0.0
C1847 C 0.61963 0.99788 0.28584 0.0
C1848 C 0.58659 0.96745 0.27031 0.0
H1849 H 0.66212 0.05951 0.28536 0.0
H1850 H 0.62848 0.99334 0.30996 0.0
C1851 C 0.57533 0.97447 0.23934 0.0
C1852 C 0.02382 0.62554 0.28703 0.0
C1853 C 0.05266 0.62015 0.27147 0.0
H1854 H 0.96317 0.61036 0.28739 0.0
C1855 C 0.04352 0.59944 0.24163 0.0
H1856 H 0.03011 0.64121 0.31018 0.0
C1857 C 1.00591 0.58231 0.22857 0.0
C1858 C 0.97596 0.58492 0.24511 0.0
H1859 H 0.06528 0.59513 0.22894 0.0
H1860 H 0.99993 0.56535 0.20614 0.0
C1861 C 0.98559 0.60789 0.27396 0.0
C1862 C 0.39763 0.42393 0.24209 0.0
C1863 C 0.39715 0.43023 0.27618 0.0
H1864 H 0.4193 0.40296 0.20303 0.0
C1865 C 0.4149 0.41564 0.29757 0.0
H1866 H 0.38481 0.43548 0.22501 0.0
C1867 C 0.43341 0.39584 0.28507 0.0
C1868 C 0.43579 0.39152 0.25086 0.0
H1869 H 0.41534 0.42048 0.32392 0.0
H1870 H 0.44795 0.38604 0.30202 0.0
C1871 C 0.41742 0.40544 0.22951 0.0
loop_
_geom_bond_atom_site_label_1
_geom_bond_atom_site_label_2
_geom_bond_distance
_geom_bond_site_symmetry_2
_ccdc_geom_bond_type
Fe0 O2 1.918 . S
Fe0 O5 1.997 . S
Fe0 O6 2.002 1_455 S
Fe0 O11 1.976 1_455 S
Fe0 O14 1.996 . S
Fe1 O2 1.918 1_655 S
Fe1 O9 1.997 . S
Fe1 O12 1.996 . S
Fe1 O16 1.976 . S
Fe1 O19 2.002 . S
O2 Fe0 1.918 . S
O2 Fe1 1.918 1_455 S
O2 Fe3 1.918 . S
Fe3 O2 1.918 . S
Fe3 O4 2.002 . S
Fe3 O13 1.976 . S
Fe3 O17 1.996 . S
Fe3 O20 1.997 . S
O4 Fe3 2.002 . S
O4 C21 1.295 . S
O5 Fe0 1.997 . S
O5 C21 1.235 . S
O6 Fe0 2.002 1_655 S
O6 C7 1.295 . S
C7 O6 1.295 . S
C7 O9 1.235 . S
C8 O13 1.287 . S
C8 O14 1.255 . S
O9 Fe1 1.997 . S
O9 C7 1.235 . S
C10 O16 1.287 1_455 S
C10 O17 1.255 . S
O11 Fe0 1.976 1_655 S
O11 C18 1.287 . S
O12 Fe1 1.996 . S
O12 C18 1.255 . S
O13 Fe3 1.976 . S
O13 C8 1.287 . S
O14 Fe0 1.996 . S
O14 C8 1.255 . S
C15 O19 1.295 1_455 S
C15 O20 1.235 . S
O16 Fe1 1.976 . S
O16 C10 1.287 1_655 S
O17 Fe3 1.996 . S
O17 C10 1.255 . S
C18 O11 1.287 . S
C18 O12 1.255 . S
O19 Fe1 2.002 . S
O19 C15 1.295 1_655 S
O20 Fe3 1.997 . S
O20 C15 1.235 . S
C21 O4 1.295 . S
C21 O5 1.235 . S
Fe22 O24 1.918 . S
Fe22 O27 1.997 . S
Fe22 O28 2.002 . S
Fe22 O33 1.976 . S
Fe22 O36 1.996 . S
Fe23 O24 1.918 . S
Fe23 O31 1.997 . S
Fe23 O34 1.996 . S
Fe23 O38 1.976 . S
Fe23 O41 2.002 . S
O24 Fe22 1.918 . S
O24 Fe23 1.918 . S
O24 Fe25 1.918 . S
Fe25 O24 1.918 . S
Fe25 O26 2.002 . S
Fe25 O35 1.976 . S
Fe25 O39 1.996 . S
Fe25 O42 1.997 . S
O26 Fe25 2.002 . S
O26 C43 1.295 . S
O27 Fe22 1.997 . S
O27 C43 1.235 . S
O28 Fe22 2.002 . S
O28 C29 1.295 . S
C29 O28 1.295 . S
C29 O31 1.235 . S
C30 O35 1.287 . S
C30 O36 1.255 . S
O31 Fe23 1.997 . S
O31 C29 1.235 . S
C32 O38 1.287 . S
C32 O39 1.255 . S
O33 Fe22 1.976 . S
O33 C40 1.287 . S
O34 Fe23 1.996 . S
O34 C40 1.255 . S
O35 Fe25 1.976 . S
O35 C30 1.287 . S
O36 Fe22 1.996 . S
O36 C30 1.255 . S
C37 O41 1.295 . S
C37 O42 1.235 . S
O38 Fe23 1.976 . S
O38 C32 1.287 . S
O39 Fe25 1.996 . S
O39 C32 1.255 . S
C40 O33 1.287 . S
C40 O34 1.255 . S
O41 Fe23 2.002 . S
O41 C37 1.295 . S
O42 Fe25 1.997 . S
O42 C37 1.235 . S
C43 O26 1.295 . S
C43 O27 1.235 . S
Fe44 O46 1.918 . S
Fe44 O49 1.997 . S
Fe44 O50 2.002 . S
Fe44 O55 1.976 . S
Fe44 O58 1.996 . S
Fe45 O46 1.918 . S
Fe45 O53 1.997 . S
Fe45 O56 1.996 . S
Fe45 O60 1.976 1_565 S
Fe45 O63 2.002 1_565 S
O46 Fe44 1.918 . S
O46 Fe45 1.918 . S
O46 Fe47 1.918 1_565 S
Fe47 O46 1.918 1_545 S
Fe47 O48 2.002 . S
Fe47 O57 1.976 . S
Fe47 O61 1.996 . S
Fe47 O64 1.997 . S
O48 Fe47 2.002 . S
O48 C65 1.295 1_545 S
O49 Fe44 1.997 . S
O49 C65 1.235 . S
O50 Fe44 2.002 . S
O50 C51 1.295 . S
C51 O50 1.295 . S
C51 O53 1.235 . S
C52 O57 1.287 1_565 S
C52 O58 1.255 . S
O53 Fe45 1.997 . S
O53 C51 1.235 . S
C54 O60 1.287 . S
C54 O61 1.255 . S
O55 Fe44 1.976 . S
O55 C62 1.287 . S
O56 Fe45 1.996 . S
O56 C62 1.255 . S
O57 Fe47 1.976 . S
O57 C52 1.287 1_545 S
O58 Fe44 1.996 . S
O58 C52 1.255 . S
C59 O63 1.295 . S
C59 O64 1.235 . S
O60 Fe45 1.976 1_545 S
O60 C54 1.287 . S
O61 Fe47 1.996 . S
O61 C54 1.255 . S
C62 O55 1.287 . S
C62 O56 1.255 . S
O63 Fe45 2.002 1_545 S
O63 C59 1.295 . S
O64 Fe47 1.997 . S
O64 C59 1.235 . S
C65 O48 1.295 1_565 S
C65 O49 1.235 . S
Fe66 O68 1.918 . S
Fe66 O71 1.997 . S
Fe66 O72 2.002 1_545 S
Fe66 O77 1.976 1_545 S
Fe66 O80 1.996 . S
Fe67 O68 1.918 1_565 S
Fe67 O75 1.997 . S
Fe67 O78 1.996 . S
Fe67 O82 1.976 . S
Fe67 O85 2.002 . S
O68 Fe66 1.918 . S
O68 Fe67 1.918 1_545 S
O68 Fe69 1.918 . S
Fe69 O68 1.918 . S
Fe69 O70 2.002 . S
Fe69 O79 1.976 . S
Fe69 O83 1.996 . S
Fe69 O86 1.997 . S
O70 Fe69 2.002 . S
O70 C87 1.295 . S
O71 Fe66 1.997 . S
O71 C87 1.235 . S
O72 Fe66 2.002 1_565 S
O72 C73 1.295 . S
C73 O72 1.295 . S
C73 O75 1.235 . S
C74 O79 1.287 . S
C74 O80 1.255 . S
O75 Fe67 1.997 . S
O75 C73 1.235 . S
C76 O82 1.287 1_545 S
C76 O83 1.255 . S
O77 Fe66 1.976 1_565 S
O77 C84 1.287 . S
O78 Fe67 1.996 . S
O78 C84 1.255 . S
O79 Fe69 1.976 . S
O79 C74 1.287 . S
O80 Fe66 1.996 . S
O80 C74 1.255 . S
C81 O85 1.295 1_545 S
C81 O86 1.235 . S
O82 Fe67 1.976 . S
O82 C76 1.287 1_565 S
O83 Fe69 1.996 . S
O83 C76 1.255 . S
C84 O77 1.287 . S
C84 O78 1.255 . S
O85 Fe67 2.002 . S
O85 C81 1.295 1_565 S
O86 Fe69 1.997 . S
O86 C81 1.235 . S
C87 O70 1.295 . S
C87 O71 1.235 . S
Fe88 O90 1.918 . S
Fe88 O93 1.997 . S
Fe88 O94 2.002 1_655 S
Fe88 O99 1.976 1_655 S
Fe88 O102 1.996 . S
Fe89 O90 1.918 1_455 S
Fe89 O97 1.997 . S
Fe89 O100 1.996 . S
Fe89 O104 1.976 . S
Fe89 O107 2.002 . S
O90 Fe88 1.918 . S
O90 Fe89 1.918 1_655 S
O90 Fe91 1.918 . S
Fe91 O90 1.918 . S
Fe91 O92 2.002 . S
Fe91 O101 1.976 . S
Fe91 O105 1.996 . S
Fe91 O108 1.997 . S
O92 Fe91 2.002 . S
O92 C109 1.295 . S
O93 Fe88 1.997 . S
O93 C109 1.235 . S
O94 Fe88 2.002 1_455 S
O94 C95 1.295 . S
C95 O94 1.295 . S
C95 O97 1.235 . S
C96 O101 1.287 . S
C96 O102 1.255 . S
O97 Fe89 1.997 . S
O97 C95 1.235 . S
C98 O104 1.287 1_655 S
C98 O105 1.255 . S
O99 Fe88 1.976 1_455 S
O99 C106 1.287 . S
O100 Fe89 1.996 . S
O100 C106 1.255 . S
O101 Fe91 1.976 . S
O101 C96 1.287 . S
O102 Fe88 1.996 . S
O102 C96 1.255 . S
C103 O107 1.295 1_655 S
C103 O108 1.235 . S
O104 Fe89 1.976 . S
O104 C98 1.287 1_455 S
O105 Fe91 1.996 . S
O105 C98 1.255 . S
C106 O99 1.287 . S
C106 O100 1.255 . S
O107 Fe89 2.002 . S
O107 C103 1.295 1_455 S
O108 Fe91 1.997 . S
O108 C103 1.235 . S
C109 O92 1.295 . S
C109 O93 1.235 . S
Fe110 O112 1.918 . S
Fe110 O115 1.997 . S
Fe110 O116 2.002 . S
Fe110 O121 1.976 . S
Fe110 O124 1.996 . S
Fe111 O112 1.918 . S
Fe111 O119 1.997 . S
Fe111 O122 1.996 . S
Fe111 O126 1.976 . S
Fe111 O129 2.002 . S
O112 Fe110 1.918 . S
O112 Fe111 1.918 . S
O112 Fe113 1.918 . S
Fe113 O112 1.918 . S
Fe113 O114 2.002 . S
Fe113 O123 1.976 . S
Fe113 O127 1.996 . S
Fe113 O130 1.997 . S
O114 Fe113 2.002 . S
O114 C131 1.295 . S
O115 Fe110 1.997 . S
O115 C131 1.235 . S
O116 Fe110 2.002 . S
O116 C117 1.295 . S
C117 O116 1.295 . S
C117 O119 1.235 . S
C118 O123 1.287 . S
C118 O124 1.255 . S
O119 Fe111 1.997 . S
O119 C117 1.235 . S
C120 O126 1.287 . S
C120 O127 1.255 . S
O121 Fe110 1.976 . S
O121 C128 1.287 . S
O122 Fe111 1.996 . S
O122 C128 1.255 . S
O123 Fe113 1.976 . S
O123 C118 1.287 . S
O124 Fe110 1.996 . S
O124 C118 1.255 . S
C125 O129 1.295 . S
C125 O130 1.235 . S
O126 Fe111 1.976 . S
O126 C120 1.287 . S
O127 Fe113 1.996 . S
O127 C120 1.255 . S
C128 O121 1.287 . S
C128 O122 1.255 . S
O129 Fe111 2.002 . S
O129 C125 1.295 . S
O130 Fe113 1.997 . S
O130 C125 1.235 . S
C131 O114 1.295 . S
C131 O115 1.235 . S
Fe132 O134 1.918 . S
Fe132 O137 1.997 . S
Fe132 O138 2.002 1_655 S
Fe132 O143 1.976 1_655 S
Fe132 O146 1.996 . S
Fe133 O134 1.918 1_455 S
Fe133 O141 1.997 . S
Fe133 O144 1.996 . S
Fe133 O148 1.976 . S
Fe133 O151 2.002 . S
O134 Fe132 1.918 . S
O134 Fe133 1.918 1_655 S
O134 Fe135 1.918 . S
Fe135 O134 1.918 . S
Fe135 O136 2.002 . S
Fe135 O145 1.976 . S
Fe135 O149 1.996 . S
Fe135 O152 1.997 . S
O136 Fe135 2.002 . S
O136 C153 1.295 . S
O137 Fe132 1.997 . S
O137 C153 1.235 . S
O138 Fe132 2.002 1_455 S
O138 C139 1.295 . S
C139 O138 1.295 . S
C139 O141 1.235 . S
C140 O145 1.287 . S
C140 O146 1.255 . S
O141 Fe133 1.997 . S
O141 C139 1.235 . S
C142 O148 1.287 1_655 S
C142 O149 1.255 . S
O143 Fe132 1.976 1_455 S
O143 C150 1.287 . S
O144 Fe133 1.996 . S
O144 C150 1.255 . S
O145 Fe135 1.976 . S
O145 C140 1.287 . S
O146 Fe132 1.996 . S
O146 C140 1.255 . S
C147 O151 1.295 1_655 S
C147 O152 1.235 . S
O148 Fe133 1.976 . S
O148 C142 1.287 1_455 S
O149 Fe135 1.996 . S
O149 C142 1.255 . S
C150 O143 1.287 . S
C150 O144 1.255 . S
O151 Fe133 2.002 . S
O151 C147 1.295 1_455 S
O152 Fe135 1.997 . S
O152 C147 1.235 . S
C153 O136 1.295 . S
C153 O137 1.235 . S
Fe154 O156 1.918 . S
Fe154 O159 1.997 . S
Fe154 O160 2.002 . S
Fe154 O165 1.976 . S
Fe154 O168 1.996 . S
Fe155 O156 1.918 . S
Fe155 O163 1.997 . S
Fe155 O166 1.996 . S
Fe155 O170 1.976 . S
Fe155 O173 2.002 . S
O156 Fe154 1.918 . S
O156 Fe155 1.918 . S
O156 Fe157 1.918 . S
Fe157 O156 1.918 . S
Fe157 O158 2.002 . S
Fe157 O167 1.976 . S
Fe157 O171 1.996 . S
Fe157 O174 1.997 . S
O158 Fe157 2.002 . S
O158 C175 1.295 . S
O159 Fe154 1.997 . S
O159 C175 1.235 . S
O160 Fe154 2.002 . S
O160 C161 1.295 . S
C161 O160 1.295 . S
C161 O163 1.235 . S
C162 O167 1.287 . S
C162 O168 1.255 . S
O163 Fe155 1.997 . S
O163 C161 1.235 . S
C164 O170 1.287 . S
C164 O171 1.255 . S
O165 Fe154 1.976 . S
O165 C172 1.287 . S
O166 Fe155 1.996 . S
O166 C172 1.255 . S
O167 Fe157 1.976 . S
O167 C162 1.287 . S
O168 Fe154 1.996 . S
O168 C162 1.255 . S
C169 O173 1.295 . S
C169 O174 1.235 . S
O170 Fe155 1.976 . S
O170 C164 1.287 . S
O171 Fe157 1.996 . S
O171 C164 1.255 . S
C172 O165 1.287 . S
C172 O166 1.255 . S
O173 Fe155 2.002 . S
O173 C169 1.295 . S
O174 Fe157 1.997 . S
O174 C169 1.235 . S
C175 O158 1.295 . S
C175 O159 1.235 . S
Fe176 O178 1.918 1_565 S
Fe176 O181 1.997 . S
Fe176 O182 2.002 . S
Fe176 O187 1.976 . S
Fe176 O190 1.996 . S
Fe177 O178 1.918 . S
Fe177 O185 1.997 . S
Fe177 O188 1.996 . S
Fe177 O192 1.976 . S
Fe177 O195 2.002 . S
O178 Fe176 1.918 1_545 S
O178 Fe177 1.918 . S
O178 Fe179 1.918 . S
Fe179 O178 1.918 . S
Fe179 O180 2.002 1_545 S
Fe179 O189 1.976 1_545 S
Fe179 O193 1.996 . S
Fe179 O196 1.997 . S
O180 Fe179 2.002 1_565 S
O180 C197 1.295 . S
O181 Fe176 1.997 . S
O181 C197 1.235 . S
O182 Fe176 2.002 . S
O182 C183 1.295 1_565 S
C183 O182 1.295 1_545 S
C183 O185 1.235 . S
C184 O189 1.287 . S
C184 O190 1.255 . S
O185 Fe177 1.997 . S
O185 C183 1.235 . S
C186 O192 1.287 . S
C186 O193 1.255 . S
O187 Fe176 1.976 . S
O187 C194 1.287 1_565 S
O188 Fe177 1.996 . S
O188 C194 1.255 . S
O189 Fe179 1.976 1_565 S
O189 C184 1.287 . S
O190 Fe176 1.996 . S
O190 C184 1.255 . S
C191 O195 1.295 . S
C191 O196 1.235 . S
O192 Fe177 1.976 . S
O192 C186 1.287 . S
O193 Fe179 1.996 . S
O193 C186 1.255 . S
C194 O187 1.287 1_545 S
C194 O188 1.255 . S
O195 Fe177 2.002 . S
O195 C191 1.295 . S
O196 Fe179 1.997 . S
O196 C191 1.235 . S
C197 O180 1.295 . S
C197 O181 1.235 . S
Fe198 O200 1.918 . S
Fe198 O203 1.997 . S
Fe198 O204 2.002 . S
Fe198 O209 1.976 . S
Fe198 O212 1.996 . S
Fe199 O200 1.918 . S
Fe199 O207 1.997 . S
Fe199 O210 1.996 . S
Fe199 O214 1.976 1_565 S
Fe199 O217 2.002 1_565 S
O200 Fe198 1.918 . S
O200 Fe199 1.918 . S
O200 Fe201 1.918 1_565 S
Fe201 O200 1.918 1_545 S
Fe201 O202 2.002 . S
Fe201 O211 1.976 . S
Fe201 O215 1.996 . S
Fe201 O218 1.997 . S
O202 Fe201 2.002 . S
O202 C219 1.295 1_545 S
O203 Fe198 1.997 . S
O203 C219 1.235 . S
O204 Fe198 2.002 . S
O204 C205 1.295 . S
C205 O204 1.295 . S
C205 O207 1.235 . S
C206 O211 1.287 1_565 S
C206 O212 1.255 . S
O207 Fe199 1.997 . S
O207 C205 1.235 . S
C208 O214 1.287 . S
C208 O215 1.255 . S
O209 Fe198 1.976 . S
O209 C216 1.287 . S
O210 Fe199 1.996 . S
O210 C216 1.255 . S
O211 Fe201 1.976 . S
O211 C206 1.287 1_545 S
O212 Fe198 1.996 . S
O212 C206 1.255 . S
C213 O217 1.295 . S
C213 O218 1.235 . S
O214 Fe199 1.976 1_545 S
O214 C208 1.287 . S
O215 Fe201 1.996 . S
O215 C208 1.255 . S
C216 O209 1.287 . S
C216 O210 1.255 . S
O217 Fe199 2.002 1_545 S
O217 C213 1.295 . S
O218 Fe201 1.997 . S
O218 C213 1.235 . S
C219 O202 1.295 1_565 S
C219 O203 1.235 . S
Fe220 O222 1.918 . S
Fe220 O225 1.997 . S
Fe220 O226 2.002 . S
Fe220 O231 1.976 . S
Fe220 O234 1.996 . S
Fe221 O222 1.918 . S
Fe221 O229 1.997 . S
Fe221 O232 1.996 . S
Fe221 O236 1.976 1_455 S
Fe221 O239 2.002 1_455 S
O222 Fe220 1.918 . S
O222 Fe221 1.918 . S
O222 Fe223 1.918 1_455 S
Fe223 O222 1.918 1_655 S
Fe223 O224 2.002 . S
Fe223 O233 1.976 . S
Fe223 O237 1.996 . S
Fe223 O240 1.997 . S
O224 Fe223 2.002 . S
O224 C241 1.295 1_655 S
O225 Fe220 1.997 . S
O225 C241 1.235 . S
O226 Fe220 2.002 . S
O226 C227 1.295 . S
C227 O226 1.295 . S
C227 O229 1.235 . S
C228 O233 1.287 1_455 S
C228 O234 1.255 . S
O229 Fe221 1.997 . S
O229 C227 1.235 . S
C230 O236 1.287 . S
C230 O237 1.255 . S
O231 Fe220 1.976 . S
O231 C238 1.287 . S
O232 Fe221 1.996 . S
O232 C238 1.255 . S
O233 Fe223 1.976 . S
O233 C228 1.287 1_655 S
O234 Fe220 1.996 . S
O234 C228 1.255 . S
C235 O239 1.295 . S
C235 O240 1.235 . S
O236 Fe221 1.976 1_655 S
O236 C230 1.287 . S
O237 Fe223 1.996 . S
O237 C230 1.255 . S
C238 O231 1.287 . S
C238 O232 1.255 . S
O239 Fe221 2.002 1_655 S
O239 C235 1.295 . S
O240 Fe223 1.997 . S
O240 C235 1.235 . S
C241 O224 1.295 1_455 S
C241 O225 1.235 . S
Fe242 O244 1.918 . S
Fe242 O247 1.997 . S
Fe242 O248 2.002 . S
Fe242 O253 1.976 . S
Fe242 O256 1.996 . S
Fe243 O244 1.918 . S
Fe243 O251 1.997 . S
Fe243 O254 1.996 . S
Fe243 O258 1.976 . S
Fe243 O261 2.002 . S
O244 Fe242 1.918 . S
O244 Fe243 1.918 . S
O244 Fe245 1.918 . S
Fe245 O244 1.918 . S
Fe245 O246 2.002 . S
Fe245 O255 1.976 . S
Fe245 O259 1.996 . S
Fe245 O262 1.997 . S
O246 Fe245 2.002 . S
O246 C263 1.295 . S
O247 Fe242 1.997 . S
O247 C263 1.235 . S
O248 Fe242 2.002 . S
O248 C249 1.295 . S
C249 O248 1.295 . S
C249 O251 1.235 . S
C250 O255 1.287 . S
C250 O256 1.255 . S
O251 Fe243 1.997 . S
O251 C249 1.235 . S
C252 O258 1.287 . S
C252 O259 1.255 . S
O253 Fe242 1.976 . S
O253 C260 1.287 . S
O254 Fe243 1.996 . S
O254 C260 1.255 . S
O255 Fe245 1.976 . S
O255 C250 1.287 . S
O256 Fe242 1.996 . S
O256 C250 1.255 . S
C257 O261 1.295 . S
C257 O262 1.235 . S
O258 Fe243 1.976 . S
O258 C252 1.287 . S
O259 Fe245 1.996 . S
O259 C252 1.255 . S
C260 O253 1.287 . S
C260 O254 1.255 . S
O261 Fe243 2.002 . S
O261 C257 1.295 . S
O262 Fe245 1.997 . S
O262 C257 1.235 . S
C263 O246 1.295 . S
C263 O247 1.235 . S
Fe264 O266 1.918 . S
Fe264 O269 1.997 . S
Fe264 O270 2.002 . S
Fe264 O275 1.976 . S
Fe264 O278 1.996 . S
Fe265 O266 1.918 . S
Fe265 O273 1.997 . S
Fe265 O276 1.996 . S
Fe265 O280 1.976 . S
Fe265 O283 2.002 . S
O266 Fe264 1.918 . S
O266 Fe265 1.918 . S
O266 Fe267 1.918 . S
Fe267 O266 1.918 . S
Fe267 O268 2.002 . S
Fe267 O277 1.976 . S
Fe267 O281 1.996 . S
Fe267 O284 1.997 . S
O268 Fe267 2.002 . S
O268 C285 1.295 . S
O269 Fe264 1.997 . S
O269 C285 1.235 . S
O270 Fe264 2.002 . S
O270 C271 1.295 . S
C271 O270 1.295 . S
C271 O273 1.235 . S
C272 O277 1.287 . S
C272 O278 1.255 . S
O273 Fe265 1.997 . S
O273 C271 1.235 . S
C274 O280 1.287 . S
C274 O281 1.255 . S
O275 Fe264 1.976 . S
O275 C282 1.287 . S
O276 Fe265 1.996 . S
O276 C282 1.255 . S
O277 Fe267 1.976 . S
O277 C272 1.287 . S
O278 Fe264 1.996 . S
O278 C272 1.255 . S
C279 O283 1.295 . S
C279 O284 1.235 . S
O280 Fe265 1.976 . S
O280 C274 1.287 . S
O281 Fe267 1.996 . S
O281 C274 1.255 . S
C282 O275 1.287 . S
C282 O276 1.255 . S
O283 Fe265 2.002 . S
O283 C279 1.295 . S
O284 Fe267 1.997 . S
O284 C279 1.235 . S
C285 O268 1.295 . S
C285 O269 1.235 . S
Fe286 O288 1.918 . S
Fe286 O291 1.997 . S
Fe286 O292 2.002 . S
Fe286 O297 1.976 . S
Fe286 O300 1.996 . S
Fe287 O288 1.918 . S
Fe287 O295 1.997 . S
Fe287 O298 1.996 . S
Fe287 O302 1.976 . S
Fe287 O305 2.002 . S
O288 Fe286 1.918 . S
O288 Fe287 1.918 . S
O288 Fe289 1.918 . S
Fe289 O288 1.918 . S
Fe289 O290 2.002 . S
Fe289 O299 1.976 . S
Fe289 O303 1.996 . S
Fe289 O306 1.997 . S
O290 Fe289 2.002 . S
O290 C307 1.295 . S
O291 Fe286 1.997 . S
O291 C307 1.235 . S
O292 Fe286 2.002 . S
O292 C293 1.295 . S
C293 O292 1.295 . S
C293 O295 1.235 . S
C294 O299 1.287 . S
C294 O300 1.255 . S
O295 Fe287 1.997 . S
O295 C293 1.235 . S
C296 O302 1.287 . S
C296 O303 1.255 . S
O297 Fe286 1.976 . S
O297 C304 1.287 . S
O298 Fe287 1.996 . S
O298 C304 1.255 . S
O299 Fe289 1.976 . S
O299 C294 1.287 . S
O300 Fe286 1.996 . S
O300 C294 1.255 . S
C301 O305 1.295 . S
C301 O306 1.235 . S
O302 Fe287 1.976 . S
O302 C296 1.287 . S
O303 Fe289 1.996 . S
O303 C296 1.255 . S
C304 O297 1.287 . S
C304 O298 1.255 . S
O305 Fe287 2.002 . S
O305 C301 1.295 . S
O306 Fe289 1.997 . S
O306 C301 1.235 . S
C307 O290 1.295 . S
C307 O291 1.235 . S
Fe308 O310 1.918 . S
Fe308 O313 1.997 . S
Fe308 O314 2.002 . S
Fe308 O319 1.976 . S
Fe308 O322 1.996 . S
Fe309 O310 1.918 . S
Fe309 O317 1.997 . S
Fe309 O320 1.996 . S
Fe309 O324 1.976 . S
Fe309 O327 2.002 . S
O310 Fe308 1.918 . S
O310 Fe309 1.918 . S
O310 Fe311 1.918 . S
Fe311 O310 1.918 . S
Fe311 O312 2.002 . S
Fe311 O321 1.976 . S
Fe311 O325 1.996 . S
Fe311 O328 1.997 . S
O312 Fe311 2.002 . S
O312 C329 1.295 . S
O313 Fe308 1.997 . S
O313 C329 1.235 . S
O314 Fe308 2.002 . S
O314 C315 1.295 . S
C315 O314 1.295 . S
C315 O317 1.235 . S
C316 O321 1.287 . S
C316 O322 1.255 . S
O317 Fe309 1.997 . S
O317 C315 1.235 . S
C318 O324 1.287 . S
C318 O325 1.255 . S
O319 Fe308 1.976 . S
O319 C326 1.287 . S
O320 Fe309 1.996 . S
O320 C326 1.255 . S
O321 Fe311 1.976 . S
O321 C316 1.287 . S
O322 Fe308 1.996 . S
O322 C316 1.255 . S
C323 O327 1.295 . S
C323 O328 1.235 . S
O324 Fe309 1.976 . S
O324 C318 1.287 . S
O325 Fe311 1.996 . S
O325 C318 1.255 . S
C326 O319 1.287 . S
C326 O320 1.255 . S
O327 Fe309 2.002 . S
O327 C323 1.295 . S
O328 Fe311 1.997 . S
O328 C323 1.235 . S
C329 O312 1.295 . S
C329 O313 1.235 . S
Fe330 O332 1.918 . S
Fe330 O335 1.997 . S
Fe330 O336 2.002 . S
Fe330 O341 1.976 . S
Fe330 O344 1.996 . S
Fe331 O332 1.918 . S
Fe331 O339 1.997 . S
Fe331 O342 1.996 . S
Fe331 O346 1.976 . S
Fe331 O349 2.002 . S
O332 Fe330 1.918 . S
O332 Fe331 1.918 . S
O332 Fe333 1.918 . S
Fe333 O332 1.918 . S
Fe333 O334 2.002 . S
Fe333 O343 1.976 . S
Fe333 O347 1.996 . S
Fe333 O350 1.997 . S
O334 Fe333 2.002 . S
O334 C351 1.295 . S
O335 Fe330 1.997 . S
O335 C351 1.235 . S
O336 Fe330 2.002 . S
O336 C337 1.295 . S
C337 O336 1.295 . S
C337 O339 1.235 . S
C338 O343 1.287 . S
C338 O344 1.255 . S
O339 Fe331 1.997 . S
O339 C337 1.235 . S
C340 O346 1.287 . S
C340 O347 1.255 . S
O341 Fe330 1.976 . S
O341 C348 1.287 . S
O342 Fe331 1.996 . S
O342 C348 1.255 . S
O343 Fe333 1.976 . S
O343 C338 1.287 . S
O344 Fe330 1.996 . S
O344 C338 1.255 . S
C345 O349 1.295 . S
C345 O350 1.235 . S
O346 Fe331 1.976 . S
O346 C340 1.287 . S
O347 Fe333 1.996 . S
O347 C340 1.255 . S
C348 O341 1.287 . S
C348 O342 1.255 . S
O349 Fe331 2.002 . S
O349 C345 1.295 . S
O350 Fe333 1.997 . S
O350 C345 1.235 . S
C351 O334 1.295 . S
C351 O335 1.235 . S
Fe352 O354 1.918 . S
Fe352 O357 1.997 . S
Fe352 O358 2.002 . S
Fe352 O363 1.976 . S
Fe352 O366 1.996 . S
Fe353 O354 1.918 . S
Fe353 O361 1.997 . S
Fe353 O364 1.996 . S
Fe353 O368 1.976 . S
Fe353 O371 2.002 . S
O354 Fe352 1.918 . S
O354 Fe353 1.918 . S
O354 Fe355 1.918 . S
Fe355 O354 1.918 . S
Fe355 O356 2.002 . S
Fe355 O365 1.976 . S
Fe355 O369 1.996 . S
Fe355 O372 1.997 . S
O356 Fe355 2.002 . S
O356 C373 1.295 . S
O357 Fe352 1.997 . S
O357 C373 1.235 . S
O358 Fe352 2.002 . S
O358 C359 1.295 . S
C359 O358 1.295 . S
C359 O361 1.235 . S
C360 O365 1.287 . S
C360 O366 1.255 . S
O361 Fe353 1.997 . S
O361 C359 1.235 . S
C362 O368 1.287 . S
C362 O369 1.255 . S
O363 Fe352 1.976 . S
O363 C370 1.287 . S
O364 Fe353 1.996 . S
O364 C370 1.255 . S
O365 Fe355 1.976 . S
O365 C360 1.287 . S
O366 Fe352 1.996 . S
O366 C360 1.255 . S
C367 O371 1.295 . S
C367 O372 1.235 . S
O368 Fe353 1.976 . S
O368 C362 1.287 . S
O369 Fe355 1.996 . S
O369 C362 1.255 . S
C370 O363 1.287 . S
C370 O364 1.255 . S
O371 Fe353 2.002 . S
O371 C367 1.295 . S
O372 Fe355 1.997 . S
O372 C367 1.235 . S
C373 O356 1.295 . S
C373 O357 1.235 . S
Fe374 O376 1.918 . S
Fe374 O379 1.997 . S
Fe374 O380 2.002 . S
Fe374 O385 1.976 . S
Fe374 O388 1.996 . S
Fe375 O376 1.918 . S
Fe375 O383 1.997 . S
Fe375 O386 1.996 . S
Fe375 O390 1.976 . S
Fe375 O393 2.002 . S
O376 Fe374 1.918 . S
O376 Fe375 1.918 . S
O376 Fe377 1.918 . S
Fe377 O376 1.918 . S
Fe377 O378 2.002 . S
Fe377 O387 1.976 . S
Fe377 O391 1.996 . S
Fe377 O394 1.997 . S
O378 Fe377 2.002 . S
O378 C395 1.295 . S
O379 Fe374 1.997 . S
O379 C395 1.235 . S
O380 Fe374 2.002 . S
O380 C381 1.295 . S
C381 O380 1.295 . S
C381 O383 1.235 . S
C382 O387 1.287 . S
C382 O388 1.255 . S
O383 Fe375 1.997 . S
O383 C381 1.235 . S
C384 O390 1.287 . S
C384 O391 1.255 . S
O385 Fe374 1.976 . S
O385 C392 1.287 . S
O386 Fe375 1.996 . S
O386 C392 1.255 . S
O387 Fe377 1.976 . S
O387 C382 1.287 . S
O388 Fe374 1.996 . S
O388 C382 1.255 . S
C389 O393 1.295 . S
C389 O394 1.235 . S
O390 Fe375 1.976 . S
O390 C384 1.287 . S
O391 Fe377 1.996 . S
O391 C384 1.255 . S
C392 O385 1.287 . S
C392 O386 1.255 . S
O393 Fe375 2.002 . S
O393 C389 1.295 . S
O394 Fe377 1.997 . S
O394 C389 1.235 . S
C395 O378 1.295 . S
C395 O379 1.235 . S
Fe396 O398 1.918 . S
Fe396 O401 1.997 . S
Fe396 O402 2.002 . S
Fe396 O407 1.976 . S
Fe396 O410 1.996 . S
Fe397 O398 1.918 . S
Fe397 O405 1.997 . S
Fe397 O408 1.996 . S
Fe397 O412 1.976 . S
Fe397 O415 2.002 . S
O398 Fe396 1.918 . S
O398 Fe397 1.918 . S
O398 Fe399 1.918 . S
Fe399 O398 1.918 . S
Fe399 O400 2.002 . S
Fe399 O409 1.976 . S
Fe399 O413 1.996 . S
Fe399 O416 1.997 . S
O400 Fe399 2.002 . S
O400 C417 1.295 . S
O401 Fe396 1.997 . S
O401 C417 1.235 . S
O402 Fe396 2.002 . S
O402 C403 1.295 . S
C403 O402 1.295 . S
C403 O405 1.235 . S
C404 O409 1.287 . S
C404 O410 1.255 . S
O405 Fe397 1.997 . S
O405 C403 1.235 . S
C406 O412 1.287 . S
C406 O413 1.255 . S
O407 Fe396 1.976 . S
O407 C414 1.287 . S
O408 Fe397 1.996 . S
O408 C414 1.255 . S
O409 Fe399 1.976 . S
O409 C404 1.287 . S
O410 Fe396 1.996 . S
O410 C404 1.255 . S
C411 O415 1.295 . S
C411 O416 1.235 . S
O412 Fe397 1.976 . S
O412 C406 1.287 . S
O413 Fe399 1.996 . S
O413 C406 1.255 . S
C414 O407 1.287 . S
C414 O408 1.255 . S
O415 Fe397 2.002 . S
O415 C411 1.295 . S
O416 Fe399 1.997 . S
O416 C411 1.235 . S
C417 O400 1.295 . S
C417 O401 1.235 . S
Fe418 O420 1.918 . S
Fe418 O423 1.997 . S
Fe418 O424 2.002 . S
Fe418 O429 1.976 . S
Fe418 O432 1.996 . S
Fe419 O420 1.918 . S
Fe419 O427 1.997 . S
Fe419 O430 1.996 . S
Fe419 O434 1.976 . S
Fe419 O437 2.002 . S
O420 Fe418 1.918 . S
O420 Fe419 1.918 . S
O420 Fe421 1.918 . S
Fe421 O420 1.918 . S
Fe421 O422 2.002 . S
Fe421 O431 1.976 . S
Fe421 O435 1.996 . S
Fe421 O438 1.997 . S
O422 Fe421 2.002 . S
O422 C439 1.295 . S
O423 Fe418 1.997 . S
O423 C439 1.235 . S
O424 Fe418 2.002 . S
O424 C425 1.295 . S
C425 O424 1.295 . S
C425 O427 1.235 . S
C426 O431 1.287 . S
C426 O432 1.255 . S
O427 Fe419 1.997 . S
O427 C425 1.235 . S
C428 O434 1.287 . S
C428 O435 1.255 . S
O429 Fe418 1.976 . S
O429 C436 1.287 . S
O430 Fe419 1.996 . S
O430 C436 1.255 . S
O431 Fe421 1.976 . S
O431 C426 1.287 . S
O432 Fe418 1.996 . S
O432 C426 1.255 . S
C433 O437 1.295 . S
C433 O438 1.235 . S
O434 Fe419 1.976 . S
O434 C428 1.287 . S
O435 Fe421 1.996 . S
O435 C428 1.255 . S
C436 O429 1.287 . S
C436 O430 1.255 . S
O437 Fe419 2.002 . S
O437 C433 1.295 . S
O438 Fe421 1.997 . S
O438 C433 1.235 . S
C439 O422 1.295 . S
C439 O423 1.235 . S
Fe440 O442 1.918 . S
Fe440 O445 1.997 . S
Fe440 O446 2.002 . S
Fe440 O451 1.976 . S
Fe440 O454 1.996 . S
Fe441 O442 1.918 . S
Fe441 O449 1.997 . S
Fe441 O452 1.996 . S
Fe441 O456 1.976 . S
Fe441 O459 2.002 . S
O442 Fe440 1.918 . S
O442 Fe441 1.918 . S
O442 Fe443 1.918 . S
Fe443 O442 1.918 . S
Fe443 O444 2.002 . S
Fe443 O453 1.976 . S
Fe443 O457 1.996 . S
Fe443 O460 1.997 . S
O444 Fe443 2.002 . S
O444 C461 1.295 . S
O445 Fe440 1.997 . S
O445 C461 1.235 . S
O446 Fe440 2.002 . S
O446 C447 1.295 . S
C447 O446 1.295 . S
C447 O449 1.235 . S
C448 O453 1.287 . S
C448 O454 1.255 . S
O449 Fe441 1.997 . S
O449 C447 1.235 . S
C450 O456 1.287 . S
C450 O457 1.255 . S
O451 Fe440 1.976 . S
O451 C458 1.287 . S
O452 Fe441 1.996 . S
O452 C458 1.255 . S
O453 Fe443 1.976 . S
O453 C448 1.287 . S
O454 Fe440 1.996 . S
O454 C448 1.255 . S
C455 O459 1.295 . S
C455 O460 1.235 . S
O456 Fe441 1.976 . S
O456 C450 1.287 . S
O457 Fe443 1.996 . S
O457 C450 1.255 . S
C458 O451 1.287 . S
C458 O452 1.255 . S
O459 Fe441 2.002 . S
O459 C455 1.295 . S
O460 Fe443 1.997 . S
O460 C455 1.235 . S
C461 O444 1.295 . S
C461 O445 1.235 . S
Fe462 O464 1.918 . S
Fe462 O467 1.997 . S
Fe462 O468 2.032 . S
Fe462 O473 1.976 . S
Fe462 O476 1.996 . S
Fe463 O464 1.918 . S
Fe463 O471 1.997 . S
Fe463 O474 1.996 . S
Fe463 O478 1.976 . S
Fe463 O481 2.002 . S
O464 Fe462 1.918 . S
O464 Fe463 1.918 . S
O464 Fe465 1.918 . S
Fe465 O464 1.918 . S
Fe465 O466 2.002 . S
Fe465 O475 1.976 . S
Fe465 O479 1.996 . S
Fe465 O482 1.997 . S
O466 Fe465 2.002 . S
O466 C483 1.295 . S
O467 Fe462 1.997 . S
O467 C483 1.235 . S
O468 Fe462 2.032 . S
O468 C469 1.282 1_556 S
C469 O468 1.282 1_554 S
C469 O471 1.235 1_554 S
C470 O475 1.287 . S
C470 O476 1.255 . S
O471 Fe463 1.997 . S
O471 C469 1.235 1_556 S
C472 O478 1.287 . S
C472 O479 1.255 . S
O473 Fe462 1.976 . S
O473 C480 1.287 . S
O474 Fe463 1.996 . S
O474 C480 1.255 . S
O475 Fe465 1.976 . S
O475 C470 1.287 . S
O476 Fe462 1.996 . S
O476 C470 1.255 . S
C477 O481 1.295 . S
C477 O482 1.235 . S
O478 Fe463 1.976 . S
O478 C472 1.287 . S
O479 Fe465 1.996 . S
O479 C472 1.255 . S
C480 O473 1.287 . S
C480 O474 1.255 . S
O481 Fe463 2.002 . S
O481 C477 1.295 . S
O482 Fe465 1.997 . S
O482 C477 1.235 . S
C483 O466 1.295 . S
C483 O467 1.235 . S
Fe484 O486 1.918 . S
Fe484 O489 1.997 . S
Fe484 O490 2.033 . S
Fe484 O495 1.976 . S
Fe484 O498 1.996 . S
Fe485 O486 1.918 . S
Fe485 O493 1.997 . S
Fe485 O496 1.996 . S
Fe485 O500 1.976 . S
Fe485 O503 2.002 . S
O486 Fe484 1.918 . S
O486 Fe485 1.918 . S
O486 Fe487 1.918 . S
Fe487 O486 1.918 . S
Fe487 O488 2.002 . S
Fe487 O497 1.976 . S
Fe487 O501 1.996 . S
Fe487 O504 1.997 . S
O488 Fe487 2.002 . S
O488 C505 1.295 . S
O489 Fe484 1.997 . S
O489 C505 1.235 . S
O490 Fe484 2.033 . S
O490 C491 1.281 1_556 S
C491 O490 1.281 1_554 S
C491 O493 1.235 1_554 S
C492 O497 1.287 . S
C492 O498 1.255 . S
O493 Fe485 1.997 . S
O493 C491 1.235 1_556 S
C494 O500 1.287 . S
C494 O501 1.255 . S
O495 Fe484 1.976 . S
O495 C502 1.287 . S
O496 Fe485 1.996 . S
O496 C502 1.255 . S
O497 Fe487 1.976 . S
O497 C492 1.287 . S
O498 Fe484 1.996 . S
O498 C492 1.255 . S
C499 O503 1.295 . S
C499 O504 1.235 . S
O500 Fe485 1.976 . S
O500 C494 1.287 . S
O501 Fe487 1.996 . S
O501 C494 1.255 . S
C502 O495 1.287 . S
C502 O496 1.255 . S
O503 Fe485 2.002 . S
O503 C499 1.295 . S
O504 Fe487 1.997 . S
O504 C499 1.235 . S
C505 O488 1.295 . S
C505 O489 1.235 . S
Fe506 O508 1.918 . S
Fe506 O511 1.997 . S
Fe506 O512 2.033 . S
Fe506 O517 1.976 . S
Fe506 O520 1.996 . S
Fe507 O508 1.918 . S
Fe507 O515 1.997 . S
Fe507 O518 1.996 . S
Fe507 O522 1.976 . S
Fe507 O525 2.002 . S
O508 Fe506 1.918 . S
O508 Fe507 1.918 . S
O508 Fe509 1.918 . S
Fe509 O508 1.918 . S
Fe509 O510 2.002 . S
Fe509 O519 1.976 . S
Fe509 O523 1.996 . S
Fe509 O526 1.997 . S
O510 Fe509 2.002 . S
O510 C527 1.295 . S
O511 Fe506 1.997 . S
O511 C527 1.235 . S
O512 Fe506 2.033 . S
O512 C513 1.281 1_556 S
C513 O512 1.281 1_554 S
C513 O515 1.235 1_554 S
C514 O519 1.287 . S
C514 O520 1.255 . S
O515 Fe507 1.997 . S
O515 C513 1.235 1_556 S
C516 O522 1.287 . S
C516 O523 1.255 . S
O517 Fe506 1.976 . S
O517 C524 1.287 . S
O518 Fe507 1.996 . S
O518 C524 1.255 . S
O519 Fe509 1.976 . S
O519 C514 1.287 . S
O520 Fe506 1.996 . S
O520 C514 1.255 . S
C521 O525 1.295 . S
C521 O526 1.235 . S
O522 Fe507 1.976 . S
O522 C516 1.287 . S
O523 Fe509 1.996 . S
O523 C516 1.255 . S
C524 O517 1.287 . S
C524 O518 1.255 . S
O525 Fe507 2.002 . S
O525 C521 1.295 . S
O526 Fe509 1.997 . S
O526 C521 1.235 . S
C527 O510 1.295 . S
C527 O511 1.235 . S
Fe528 O530 1.918 . S
Fe528 O533 1.997 . S
Fe528 O534 2.002 . S
Fe528 O539 1.976 . S
Fe528 O542 1.996 . S
Fe529 O530 1.918 . S
Fe529 O537 1.997 . S
Fe529 O540 1.996 . S
Fe529 O544 1.976 . S
Fe529 O547 2.002 . S
O530 Fe528 1.918 . S
O530 Fe529 1.918 . S
O530 Fe531 1.918 . S
Fe531 O530 1.918 . S
Fe531 O532 2.002 . S
Fe531 O541 1.976 . S
Fe531 O545 1.996 . S
Fe531 O548 1.997 . S
O532 Fe531 2.002 . S
O532 C549 1.295 . S
O533 Fe528 1.997 . S
O533 C549 1.235 . S
O534 Fe528 2.002 . S
O534 C535 1.295 . S
C535 O534 1.295 . S
C535 O537 1.235 . S
C536 O541 1.287 . S
C536 O542 1.255 . S
O537 Fe529 1.997 . S
O537 C535 1.235 . S
C538 O544 1.287 . S
C538 O545 1.255 . S
O539 Fe528 1.976 . S
O539 C546 1.287 . S
O540 Fe529 1.996 . S
O540 C546 1.255 . S
O541 Fe531 1.976 . S
O541 C536 1.287 . S
O542 Fe528 1.996 . S
O542 C536 1.255 . S
C543 O547 1.295 . S
C543 O548 1.235 . S
O544 Fe529 1.976 . S
O544 C538 1.287 . S
O545 Fe531 1.996 . S
O545 C538 1.255 . S
C546 O539 1.287 . S
C546 O540 1.255 . S
O547 Fe529 2.002 . S
O547 C543 1.295 . S
O548 Fe531 1.997 . S
O548 C543 1.235 . S
C549 O532 1.295 . S
C549 O533 1.235 . S
Fe550 O552 1.918 . S
Fe550 O555 1.997 . S
Fe550 O556 2.002 . S
Fe550 O561 1.976 . S
Fe550 O564 1.996 . S
Fe551 O552 1.918 . S
Fe551 O559 1.997 . S
Fe551 O562 1.996 . S
Fe551 O566 1.976 . S
Fe551 O569 2.002 . S
O552 Fe550 1.918 . S
O552 Fe551 1.918 . S
O552 Fe553 1.918 . S
Fe553 O552 1.918 . S
Fe553 O554 2.002 . S
Fe553 O563 1.976 . S
Fe553 O567 1.996 . S
Fe553 O570 1.997 . S
O554 Fe553 2.002 . S
O554 C571 1.295 . S
O555 Fe550 1.997 . S
O555 C571 1.235 . S
O556 Fe550 2.002 . S
O556 C557 1.295 . S
C557 O556 1.295 . S
C557 O559 1.235 . S
C558 O563 1.287 . S
C558 O564 1.255 . S
O559 Fe551 1.997 . S
O559 C557 1.235 . S
C560 O566 1.287 . S
C560 O567 1.255 . S
O561 Fe550 1.976 . S
O561 C568 1.287 . S
O562 Fe551 1.996 . S
O562 C568 1.255 . S
O563 Fe553 1.976 . S
O563 C558 1.287 . S
O564 Fe550 1.996 . S
O564 C558 1.255 . S
C565 O569 1.295 . S
C565 O570 1.235 . S
O566 Fe551 1.976 . S
O566 C560 1.287 . S
O567 Fe553 1.996 . S
O567 C560 1.255 . S
C568 O561 1.287 . S
C568 O562 1.255 . S
O569 Fe551 2.002 . S
O569 C565 1.295 . S
O570 Fe553 1.997 . S
O570 C565 1.235 . S
C571 O554 1.295 . S
C571 O555 1.235 . S
Fe572 O574 1.918 . S
Fe572 O577 1.997 . S
Fe572 O578 2.002 . S
Fe572 O583 1.976 . S
Fe572 O586 1.996 . S
Fe573 O574 1.918 . S
Fe573 O581 1.997 . S
Fe573 O584 1.996 . S
Fe573 O588 1.976 . S
Fe573 O591 2.002 . S
O574 Fe572 1.918 . S
O574 Fe573 1.918 . S
O574 Fe575 1.918 . S
Fe575 O574 1.918 . S
Fe575 O576 2.002 . S
Fe575 O585 1.976 . S
Fe575 O589 1.996 . S
Fe575 O592 1.997 . S
O576 Fe575 2.002 . S
O576 C593 1.295 . S
O577 Fe572 1.997 . S
O577 C593 1.235 . S
O578 Fe572 2.002 . S
O578 C579 1.295 . S
C579 O578 1.295 . S
C579 O581 1.235 . S
C580 O585 1.287 . S
C580 O586 1.255 . S
O581 Fe573 1.997 . S
O581 C579 1.235 . S
C582 O588 1.287 . S
C582 O589 1.255 . S
O583 Fe572 1.976 . S
O583 C590 1.287 . S
O584 Fe573 1.996 . S
O584 C590 1.255 . S
O585 Fe575 1.976 . S
O585 C580 1.287 . S
O586 Fe572 1.996 . S
O586 C580 1.255 . S
C587 O591 1.295 . S
C587 O592 1.235 . S
O588 Fe573 1.976 . S
O588 C582 1.287 . S
O589 Fe575 1.996 . S
O589 C582 1.255 . S
C590 O583 1.287 . S
C590 O584 1.255 . S
O591 Fe573 2.002 . S
O591 C587 1.295 . S
O592 Fe575 1.997 . S
O592 C587 1.235 . S
C593 O576 1.295 . S
C593 O577 1.235 . S
Fe594 O596 1.918 . S
Fe594 O599 1.997 . S
Fe594 O600 2.002 . S
Fe594 O605 1.976 . S
Fe594 O608 1.996 . S
Fe595 O596 1.918 . S
Fe595 O603 1.997 . S
Fe595 O606 1.996 . S
Fe595 O610 1.976 . S
Fe595 O613 2.002 . S
O596 Fe594 1.918 . S
O596 Fe595 1.918 . S
O596 Fe597 1.918 . S
Fe597 O596 1.918 . S
Fe597 O598 2.032 . S
Fe597 O607 1.976 . S
Fe597 O611 1.996 . S
Fe597 O614 1.997 . S
O598 Fe597 2.032 . S
O598 C615 1.282 1_554 S
O599 Fe594 1.997 . S
O599 C615 1.235 1_554 S
O600 Fe594 2.002 . S
O600 C601 1.295 . S
C601 O600 1.295 . S
C601 O603 1.235 . S
C602 O607 1.287 . S
C602 O608 1.255 . S
O603 Fe595 1.997 . S
O603 C601 1.235 . S
C604 O610 1.287 . S
C604 O611 1.255 . S
O605 Fe594 1.976 . S
O605 C612 1.287 . S
O606 Fe595 1.996 . S
O606 C612 1.255 . S
O607 Fe597 1.976 . S
O607 C602 1.287 . S
O608 Fe594 1.996 . S
O608 C602 1.255 . S
C609 O613 1.295 . S
C609 O614 1.235 . S
O610 Fe595 1.976 . S
O610 C604 1.287 . S
O611 Fe597 1.996 . S
O611 C604 1.255 . S
C612 O605 1.287 . S
C612 O606 1.255 . S
O613 Fe595 2.002 . S
O613 C609 1.295 . S
O614 Fe597 1.997 . S
O614 C609 1.235 . S
C615 O598 1.282 1_556 S
C615 O599 1.235 1_556 S
Fe616 O618 1.918 . S
Fe616 O621 1.997 . S
Fe616 O622 2.033 . S
Fe616 O627 1.976 . S
Fe616 O630 1.996 . S
Fe617 O618 1.918 . S
Fe617 O625 1.997 . S
Fe617 O628 1.996 . S
Fe617 O632 1.976 . S
Fe617 O635 2.002 . S
O618 Fe616 1.918 . S
O618 Fe617 1.918 . S
O618 Fe619 1.918 . S
Fe619 O618 1.918 . S
Fe619 O620 2.002 . S
Fe619 O629 1.976 . S
Fe619 O633 1.996 . S
Fe619 O636 1.997 . S
O620 Fe619 2.002 . S
O620 C637 1.295 . S
O621 Fe616 1.997 . S
O621 C637 1.235 . S
O622 Fe616 2.033 . S
O622 C623 1.281 1_554 S
C623 O622 1.281 1_556 S
C623 O625 1.235 1_556 S
C624 O629 1.287 . S
C624 O630 1.255 . S
O625 Fe617 1.997 . S
O625 C623 1.235 1_554 S
C626 O632 1.287 . S
C626 O633 1.255 . S
O627 Fe616 1.976 . S
O627 C634 1.287 . S
O628 Fe617 1.996 . S
O628 C634 1.255 . S
O629 Fe619 1.976 . S
O629 C624 1.287 . S
O630 Fe616 1.996 . S
O630 C624 1.255 . S
C631 O635 1.295 . S
C631 O636 1.235 . S
O632 Fe617 1.976 . S
O632 C626 1.287 . S
O633 Fe619 1.996 . S
O633 C626 1.255 . S
C634 O627 1.287 . S
C634 O628 1.255 . S
O635 Fe617 2.002 . S
O635 C631 1.295 . S
O636 Fe619 1.997 . S
O636 C631 1.235 . S
C637 O620 1.295 . S
C637 O621 1.235 . S
Fe638 O640 1.918 . S
Fe638 O643 1.997 . S
Fe638 O644 2.033 . S
Fe638 O649 1.976 . S
Fe638 O652 1.996 . S
Fe639 O640 1.918 . S
Fe639 O647 1.997 . S
Fe639 O650 1.996 . S
Fe639 O654 1.976 . S
Fe639 O657 2.002 . S
O640 Fe638 1.918 . S
O640 Fe639 1.918 . S
O640 Fe641 1.918 . S
Fe641 O640 1.918 . S
Fe641 O642 2.002 . S
Fe641 O651 1.976 . S
Fe641 O655 1.996 . S
Fe641 O658 1.997 . S
O642 Fe641 2.002 . S
O642 C659 1.295 . S
O643 Fe638 1.997 . S
O643 C659 1.235 . S
O644 Fe638 2.033 . S
O644 C645 1.281 1_554 S
C645 O644 1.281 1_556 S
C645 O647 1.235 1_556 S
C646 O651 1.287 . S
C646 O652 1.255 . S
O647 Fe639 1.997 . S
O647 C645 1.235 1_554 S
C648 O654 1.287 . S
C648 O655 1.255 . S
O649 Fe638 1.976 . S
O649 C656 1.287 . S
O650 Fe639 1.996 . S
O650 C656 1.255 . S
O651 Fe641 1.976 . S
O651 C646 1.287 . S
O652 Fe638 1.996 . S
O652 C646 1.255 . S
C653 O657 1.295 . S
C653 O658 1.235 . S
O654 Fe639 1.976 . S
O654 C648 1.287 . S
O655 Fe641 1.996 . S
O655 C648 1.255 . S
C656 O649 1.287 . S
C656 O650 1.255 . S
O657 Fe639 2.002 . S
O657 C653 1.295 . S
O658 Fe641 1.997 . S
O658 C653 1.235 . S
C659 O642 1.295 . S
C659 O643 1.235 . S
Fe660 O662 1.918 . S
Fe660 O665 1.997 . S
Fe660 O666 2.002 . S
Fe660 O671 1.976 . S
Fe660 O674 1.996 . S
Fe661 O662 1.918 . S
Fe661 O669 1.997 . S
Fe661 O672 1.996 . S
Fe661 O676 1.976 . S
Fe661 O679 2.002 . S
O662 Fe660 1.918 . S
O662 Fe661 1.918 . S
O662 Fe663 1.918 . S
Fe663 O662 1.918 . S
Fe663 O664 2.002 . S
Fe663 O673 1.976 . S
Fe663 O677 1.996 . S
Fe663 O680 1.997 . S
O664 Fe663 2.002 . S
O664 C681 1.295 . S
O665 Fe660 1.997 . S
O665 C681 1.235 . S
O666 Fe660 2.002 . S
O666 C667 1.295 . S
C667 O666 1.295 . S
C667 O669 1.235 . S
C668 O673 1.287 . S
C668 O674 1.255 . S
O669 Fe661 1.997 . S
O669 C667 1.235 . S
C670 O676 1.287 . S
C670 O677 1.255 . S
O671 Fe660 1.976 . S
O671 C678 1.287 . S
O672 Fe661 1.996 . S
O672 C678 1.255 . S
O673 Fe663 1.976 . S
O673 C668 1.287 . S
O674 Fe660 1.996 . S
O674 C668 1.255 . S
C675 O679 1.295 . S
C675 O680 1.235 . S
O676 Fe661 1.976 . S
O676 C670 1.287 . S
O677 Fe663 1.996 . S
O677 C670 1.255 . S
C678 O671 1.287 . S
C678 O672 1.255 . S
O679 Fe661 2.002 . S
O679 C675 1.295 . S
O680 Fe663 1.997 . S
O680 C675 1.235 . S
C681 O664 1.295 . S
C681 O665 1.235 . S
Fe682 O684 1.918 . S
Fe682 O687 1.997 . S
Fe682 O688 2.002 . S
Fe682 O693 1.976 . S
Fe682 O696 1.996 . S
Fe683 O684 1.918 . S
Fe683 O691 1.997 . S
Fe683 O694 1.996 . S
Fe683 O698 1.976 . S
Fe683 O701 2.002 . S
O684 Fe682 1.918 . S
O684 Fe683 1.918 . S
O684 Fe685 1.918 . S
Fe685 O684 1.918 . S
Fe685 O686 2.002 . S
Fe685 O695 1.976 . S
Fe685 O699 1.996 . S
Fe685 O702 1.997 . S
O686 Fe685 2.002 . S
O686 C703 1.295 . S
O687 Fe682 1.997 . S
O687 C703 1.235 . S
O688 Fe682 2.002 . S
O688 C689 1.295 . S
C689 O688 1.295 . S
C689 O691 1.235 . S
C690 O695 1.287 . S
C690 O696 1.255 . S
O691 Fe683 1.997 . S
O691 C689 1.235 . S
C692 O698 1.287 . S
C692 O699 1.255 . S
O693 Fe682 1.976 . S
O693 C700 1.287 . S
O694 Fe683 1.996 . S
O694 C700 1.255 . S
O695 Fe685 1.976 . S
O695 C690 1.287 . S
O696 Fe682 1.996 . S
O696 C690 1.255 . S
C697 O701 1.295 . S
C697 O702 1.235 . S
O698 Fe683 1.976 . S
O698 C692 1.287 . S
O699 Fe685 1.996 . S
O699 C692 1.255 . S
C700 O693 1.287 . S
C700 O694 1.255 . S
O701 Fe683 2.002 . S
O701 C697 1.295 . S
O702 Fe685 1.997 . S
O702 C697 1.235 . S
C703 O686 1.295 . S
C703 O687 1.235 . S
Fe704 O706 1.918 . S
Fe704 O709 1.997 . S
Fe704 O710 2.002 . S
Fe704 O715 1.976 . S
Fe704 O718 1.996 . S
Fe705 O706 1.918 . S
Fe705 O713 1.997 . S
Fe705 O716 1.996 . S
Fe705 O720 1.976 . S
Fe705 O723 2.002 . S
O706 Fe704 1.918 . S
O706 Fe705 1.918 . S
O706 Fe707 1.918 . S
Fe707 O706 1.918 . S
Fe707 O708 2.002 . S
Fe707 O717 1.976 . S
Fe707 O721 1.996 . S
Fe707 O724 1.997 . S
O708 Fe707 2.002 . S
O708 C725 1.295 . S
O709 Fe704 1.997 . S
O709 C725 1.235 . S
O710 Fe704 2.002 . S
O710 C711 1.295 . S
C711 O710 1.295 . S
C711 O713 1.235 . S
C712 O717 1.287 . S
C712 O718 1.255 . S
O713 Fe705 1.997 . S
O713 C711 1.235 . S
C714 O720 1.287 . S
C714 O721 1.255 . S
O715 Fe704 1.976 . S
O715 C722 1.287 . S
O716 Fe705 1.996 . S
O716 C722 1.255 . S
O717 Fe707 1.976 . S
O717 C712 1.287 . S
O718 Fe704 1.996 . S
O718 C712 1.255 . S
C719 O723 1.295 . S
C719 O724 1.235 . S
O720 Fe705 1.976 . S
O720 C714 1.287 . S
O721 Fe707 1.996 . S
O721 C714 1.255 . S
C722 O715 1.287 . S
C722 O716 1.255 . S
O723 Fe705 2.002 . S
O723 C719 1.295 . S
O724 Fe707 1.997 . S
O724 C719 1.235 . S
C725 O708 1.295 . S
C725 O709 1.235 . S
Fe726 O728 1.918 . S
Fe726 O731 1.997 . S
Fe726 O732 2.002 . S
Fe726 O737 1.976 . S
Fe726 O740 1.996 . S
Fe727 O728 1.918 . S
Fe727 O735 1.997 . S
Fe727 O738 1.996 . S
Fe727 O742 1.976 . S
Fe727 O745 2.002 . S
O728 Fe726 1.918 . S
O728 Fe727 1.918 . S
O728 Fe729 1.918 . S
Fe729 O728 1.918 . S
Fe729 O730 2.002 . S
Fe729 O739 1.976 . S
Fe729 O743 1.996 . S
Fe729 O746 1.997 . S
O730 Fe729 2.002 . S
O730 C747 1.295 . S
O731 Fe726 1.997 . S
O731 C747 1.235 . S
O732 Fe726 2.002 . S
O732 C733 1.295 . S
C733 O732 1.295 . S
C733 O735 1.235 . S
C734 O739 1.287 . S
C734 O740 1.255 . S
O735 Fe727 1.997 . S
O735 C733 1.235 . S
C736 O742 1.287 . S
C736 O743 1.255 . S
O737 Fe726 1.976 . S
O737 C744 1.287 . S
O738 Fe727 1.996 . S
O738 C744 1.255 . S
O739 Fe729 1.976 . S
O739 C734 1.287 . S
O740 Fe726 1.996 . S
O740 C734 1.255 . S
C741 O745 1.295 . S
C741 O746 1.235 . S
O742 Fe727 1.976 . S
O742 C736 1.287 . S
O743 Fe729 1.996 . S
O743 C736 1.255 . S
C744 O737 1.287 . S
C744 O738 1.255 . S
O745 Fe727 2.002 . S
O745 C741 1.295 . S
O746 Fe729 1.997 . S
O746 C741 1.235 . S
C747 O730 1.295 . S
C747 O731 1.235 . S
Fe748 O750 1.918 . S
Fe748 O753 1.997 . S
Fe748 O754 2.002 . S
Fe748 O759 1.976 . S
Fe748 O762 1.996 . S
Fe749 O750 1.918 . S
Fe749 O757 1.997 . S
Fe749 O760 1.996 . S
Fe749 O764 1.976 . S
Fe749 O767 2.002 . S
O750 Fe748 1.918 . S
O750 Fe749 1.918 . S
O750 Fe751 1.918 . S
Fe751 O750 1.918 . S
Fe751 O752 2.002 . S
Fe751 O761 1.976 . S
Fe751 O765 1.996 . S
Fe751 O768 1.997 . S
O752 Fe751 2.002 . S
O752 C769 1.295 . S
O753 Fe748 1.997 . S
O753 C769 1.235 . S
O754 Fe748 2.002 . S
O754 C755 1.295 . S
C755 O754 1.295 . S
C755 O757 1.235 . S
C756 O761 1.287 . S
C756 O762 1.255 . S
O757 Fe749 1.997 . S
O757 C755 1.235 . S
C758 O764 1.287 . S
C758 O765 1.255 . S
O759 Fe748 1.976 . S
O759 C766 1.287 . S
O760 Fe749 1.996 . S
O760 C766 1.255 . S
O761 Fe751 1.976 . S
O761 C756 1.287 . S
O762 Fe748 1.996 . S
O762 C756 1.255 . S
C763 O767 1.295 . S
C763 O768 1.235 . S
O764 Fe749 1.976 . S
O764 C758 1.287 . S
O765 Fe751 1.996 . S
O765 C758 1.255 . S
C766 O759 1.287 . S
C766 O760 1.255 . S
O767 Fe749 2.002 . S
O767 C763 1.295 . S
O768 Fe751 1.997 . S
O768 C763 1.235 . S
C769 O752 1.295 . S
C769 O753 1.235 . S
Fe770 O772 1.918 . S
Fe770 O775 1.997 . S
Fe770 O776 2.002 . S
Fe770 O781 1.976 . S
Fe770 O784 1.996 . S
Fe771 O772 1.918 . S
Fe771 O779 1.997 . S
Fe771 O782 1.996 . S
Fe771 O786 1.976 . S
Fe771 O789 2.002 . S
O772 Fe770 1.918 . S
O772 Fe771 1.918 . S
O772 Fe773 1.918 . S
Fe773 O772 1.918 . S
Fe773 O774 2.002 . S
Fe773 O783 1.976 . S
Fe773 O787 1.996 . S
Fe773 O790 1.997 . S
O774 Fe773 2.002 . S
O774 C791 1.295 . S
O775 Fe770 1.997 . S
O775 C791 1.235 . S
O776 Fe770 2.002 . S
O776 C777 1.295 . S
C777 O776 1.295 . S
C777 O779 1.235 . S
C778 O783 1.287 . S
C778 O784 1.255 . S
O779 Fe771 1.997 . S
O779 C777 1.235 . S
C780 O786 1.287 . S
C780 O787 1.255 . S
O781 Fe770 1.976 . S
O781 C788 1.287 . S
O782 Fe771 1.996 . S
O782 C788 1.255 . S
O783 Fe773 1.976 . S
O783 C778 1.287 . S
O784 Fe770 1.996 . S
O784 C778 1.255 . S
C785 O789 1.295 . S
C785 O790 1.235 . S
O786 Fe771 1.976 . S
O786 C780 1.287 . S
O787 Fe773 1.996 . S
O787 C780 1.255 . S
C788 O781 1.287 . S
C788 O782 1.255 . S
O789 Fe771 2.002 . S
O789 C785 1.295 . S
O790 Fe773 1.997 . S
O790 C785 1.235 . S
C791 O774 1.295 . S
C791 O775 1.235 . S
C792 C793 1.387 . S
C792 H796 0.950 . S
C792 C801 1.390 1_554 S
C793 C792 1.387 . S
C793 C795 1.387 . S
H794 C801 0.950 . S
C795 C793 1.387 . S
C795 C797 1.390 1_554 S
C795 H799 0.950 . S
H796 C792 0.950 . S
C797 C795 1.390 1_556 S
C797 C798 1.387 . S
C797 H800 0.950 . S
C798 C797 1.387 . S
C798 C801 1.387 . S
H799 C795 0.950 . S
H800 C797 0.950 . S
C801 C792 1.390 1_556 S
C801 H794 0.950 . S
C801 C798 1.387 . S
C802 C803 1.387 . S
C802 H806 0.950 . S
C802 C811 1.390 . S
C803 C802 1.387 . S
C803 C805 1.387 1_554 S
H804 C811 0.950 . S
C805 C803 1.387 1_556 S
C805 C807 1.390 . S
C805 H809 0.950 . S
H806 C802 0.950 . S
C807 C805 1.390 . S
C807 C808 1.387 . S
C807 H810 0.950 . S
C808 C807 1.387 . S
C808 C811 1.387 1_556 S
H809 C805 0.950 . S
H810 C807 0.950 . S
C811 C802 1.390 . S
C811 H804 0.950 . S
C811 C808 1.387 1_554 S
C812 C813 1.387 . S
C812 H816 0.950 . S
C812 C821 1.390 1_554 S
C813 C812 1.387 . S
C813 C815 1.387 . S
H814 C821 0.950 . S
C815 C813 1.387 . S
C815 C817 1.390 1_554 S
C815 H819 0.950 . S
H816 C812 0.950 . S
C817 C815 1.390 1_556 S
C817 C818 1.387 . S
C817 H820 0.950 . S
C818 C817 1.387 . S
C818 C821 1.387 . S
H819 C815 0.950 . S
H820 C817 0.950 . S
C821 C812 1.390 1_556 S
C821 H814 0.950 . S
C821 C818 1.387 . S
C822 C823 1.387 . S
C822 H826 0.950 . S
C822 C831 1.390 . S
C823 C822 1.387 . S
C823 C825 1.387 . S
H824 C831 0.950 . S
C825 C823 1.387 . S
C825 C827 1.390 . S
C825 H829 0.950 . S
H826 C822 0.950 . S
C827 C825 1.390 . S
C827 C828 1.387 . S
C827 H830 0.950 . S
C828 C827 1.387 . S
C828 C831 1.387 . S
H829 C825 0.950 . S
H830 C827 0.950 . S
C831 C822 1.390 . S
C831 H824 0.950 . S
C831 C828 1.387 . S
C832 C833 1.387 . S
C832 H836 0.950 . S
C832 C841 1.390 . S
C833 C832 1.387 . S
C833 C835 1.387 . S
H834 C841 0.950 . S
C835 C833 1.387 . S
C835 C837 1.390 . S
C835 H839 0.950 . S
H836 C832 0.950 . S
C837 C835 1.390 . S
C837 C838 1.387 . S
C837 H840 0.950 . S
C838 C837 1.387 . S
C838 C841 1.387 . S
H839 C835 0.950 . S
H840 C837 0.950 . S
C841 C832 1.390 . S
C841 H834 0.950 . S
C841 C838 1.387 . S
C842 C843 1.387 . S
C842 H846 0.950 . S
C842 C851 1.390 . S
C843 C842 1.387 . S
C843 C845 1.387 . S
H844 C851 0.950 . S
C845 C843 1.387 . S
C845 C847 1.390 . S
C845 H849 0.950 . S
H846 C842 0.950 . S
C847 C845 1.390 . S
C847 C848 1.387 . S
C847 H850 0.950 . S
C848 C847 1.387 . S
C848 C851 1.387 . S
H849 C845 0.950 . S
H850 C847 0.950 . S
C851 C842 1.390 . S
C851 H844 0.950 . S
C851 C848 1.387 . S
C852 C853 1.387 . S
C852 H856 0.950 . S
C852 C861 1.390 1_554 S
C853 C852 1.387 . S
C853 C855 1.387 . S
H854 C861 0.950 . S
C855 C853 1.387 . S
C855 C857 1.390 1_554 S
C855 H859 0.950 . S
H856 C852 0.950 . S
C857 C855 1.390 1_556 S
C857 C858 1.387 . S
C857 H860 0.950 . S
C858 C857 1.387 . S
C858 C861 1.387 . S
H859 C855 0.950 . S
H860 C857 0.950 . S
C861 C852 1.390 1_556 S
C861 H854 0.950 . S
C861 C858 1.387 . S
C862 C863 1.387 . S
C862 H866 0.950 . S
C862 C871 1.390 1_556 S
C863 C862 1.387 . S
C863 C865 1.387 . S
H864 C871 0.950 . S
C865 C863 1.387 . S
C865 C867 1.390 1_556 S
C865 H869 0.950 . S
H866 C862 0.950 . S
C867 C865 1.390 1_554 S
C867 C868 1.387 . S
C867 H870 0.950 . S
C868 C867 1.387 . S
C868 C871 1.387 . S
H869 C865 0.950 . S
H870 C867 0.950 . S
C871 C862 1.390 1_554 S
C871 H864 0.950 . S
C871 C868 1.387 . S
C872 C873 1.387 . S
C872 H876 0.950 . S
C872 C881 1.390 1_556 S
C873 C872 1.387 . S
C873 C875 1.387 . S
H874 C881 0.950 . S
C875 C873 1.387 . S
C875 C877 1.390 1_556 S
C875 H879 0.950 . S
H876 C872 0.950 . S
C877 C875 1.390 1_554 S
C877 C878 1.387 . S
C877 H880 0.950 . S
C878 C877 1.387 . S
C878 C881 1.387 . S
H879 C875 0.950 . S
H880 C877 0.950 . S
C881 C872 1.390 1_554 S
C881 H874 0.950 . S
C881 C878 1.387 . S
C882 C883 1.387 . S
C882 H886 0.950 . S
C882 C891 1.390 . S
C883 C882 1.387 . S
C883 C885 1.387 . S
H884 C891 0.950 . S
C885 C883 1.387 . S
C885 C887 1.390 . S
C885 H889 0.950 . S
H886 C882 0.950 . S
C887 C885 1.390 . S
C887 C888 1.387 . S
C887 H890 0.950 . S
C888 C887 1.387 . S
C888 C891 1.387 . S
H889 C885 0.950 . S
H890 C887 0.950 . S
C891 C882 1.390 . S
C891 H884 0.950 . S
C891 C888 1.387 . S
C892 C893 1.387 . S
C892 H896 0.950 . S
C892 C901 1.390 . S
C893 C892 1.387 . S
C893 C895 1.387 . S
H894 C901 0.950 . S
C895 C893 1.387 . S
C895 C897 1.390 . S
C895 H899 0.950 . S
H896 C892 0.950 . S
C897 C895 1.390 . S
C897 C898 1.387 . S
C897 H900 0.950 . S
C898 C897 1.387 . S
C898 C901 1.387 . S
H899 C895 0.950 . S
H900 C897 0.950 . S
C901 C892 1.390 . S
C901 H894 0.950 . S
C901 C898 1.387 . S
C902 C903 1.387 . S
C902 H906 0.950 . S
C902 C911 1.390 . S
C903 C902 1.387 . S
C903 C905 1.387 . S
H904 C911 0.950 . S
C905 C903 1.387 . S
C905 C907 1.390 . S
C905 H909 0.950 . S
H906 C902 0.950 . S
C907 C905 1.390 . S
C907 C908 1.387 . S
C907 H910 0.950 . S
C908 C907 1.387 . S
C908 C911 1.387 . S
H909 C905 0.950 . S
H910 C907 0.950 . S
C911 C902 1.390 . S
C911 H904 0.950 . S
C911 C908 1.387 . S
C912 C913 1.387 . S
C912 H916 0.950 . S
C912 C921 1.390 . S
C913 C912 1.387 . S
C913 C915 1.387 . S
H914 C921 0.950 . S
C915 C913 1.387 . S
C915 C917 1.390 . S
C915 H919 0.950 . S
H916 C912 0.950 . S
C917 C915 1.390 . S
C917 C918 1.387 . S
C917 H920 0.950 . S
C918 C917 1.387 . S
C918 C921 1.387 . S
H919 C915 0.950 . S
H920 C917 0.950 . S
C921 C912 1.390 . S
C921 H914 0.950 . S
C921 C918 1.387 . S
C922 C923 1.387 . S
C922 H926 0.950 . S
C922 C931 1.390 . S
C923 C922 1.387 . S
C923 C925 1.387 . S
H924 C931 0.950 . S
C925 C923 1.387 . S
C925 C927 1.390 . S
C925 H929 0.950 . S
H926 C922 0.950 . S
C927 C925 1.390 . S
C927 C928 1.387 . S
C927 H930 0.950 . S
C928 C927 1.387 . S
C928 C931 1.387 . S
H929 C925 0.950 . S
H930 C927 0.950 . S
C931 C922 1.390 . S
C931 H924 0.950 . S
C931 C928 1.387 . S
C932 C933 1.387 . S
C932 H936 0.950 . S
C932 C941 1.390 . S
C933 C932 1.387 . S
C933 C935 1.387 . S
H934 C941 0.950 . S
C935 C933 1.387 . S
C935 C937 1.390 . S
C935 H939 0.950 . S
H936 C932 0.950 . S
C937 C935 1.390 . S
C937 C938 1.387 . S
C937 H940 0.950 . S
C938 C937 1.387 . S
C938 C941 1.387 . S
H939 C935 0.950 . S
H940 C937 0.950 . S
C941 C932 1.390 . S
C941 H934 0.950 . S
C941 C938 1.387 . S
C942 C943 1.387 . S
C942 H946 0.950 . S
C942 C951 1.390 . S
C943 C942 1.387 . S
C943 C945 1.387 . S
H944 C951 0.950 . S
C945 C943 1.387 . S
C945 C947 1.390 . S
C945 H949 0.950 . S
H946 C942 0.950 . S
C947 C945 1.390 . S
C947 C948 1.387 . S
C947 H950 0.950 . S
C948 C947 1.387 . S
C948 C951 1.387 . S
H949 C945 0.950 . S
H950 C947 0.950 . S
C951 C942 1.390 . S
C951 H944 0.950 . S
C951 C948 1.387 . S
C952 C953 1.387 . S
C952 H956 0.950 . S
C952 C961 1.390 . S
C953 C952 1.387 . S
C953 C955 1.387 . S
H954 C961 0.950 . S
C955 C953 1.387 . S
C955 C957 1.390 . S
C955 H959 0.950 . S
H956 C952 0.950 . S
C957 C955 1.390 . S
C957 C958 1.387 . S
C957 H960 0.950 . S
C958 C957 1.387 . S
C958 C961 1.387 . S
H959 C955 0.950 . S
H960 C957 0.950 . S
C961 C952 1.390 . S
C961 H954 0.950 . S
C961 C958 1.387 . S
C962 C963 1.387 . S
C962 H966 0.950 . S
C962 C971 1.390 . S
C963 C962 1.387 . S
C963 C965 1.387 . S
H964 C971 0.950 . S
C965 C963 1.387 . S
C965 C967 1.390 . S
C965 H969 0.950 . S
H966 C962 0.950 . S
C967 C965 1.390 . S
C967 C968 1.387 . S
C967 H970 0.950 . S
C968 C967 1.387 . S
C968 C971 1.387 . S
H969 C965 0.950 . S
H970 C967 0.950 . S
C971 C962 1.390 . S
C971 H964 0.950 . S
C971 C968 1.387 . S
C972 C973 1.387 . S
C972 H976 0.950 . S
C972 C981 1.390 . S
C973 C972 1.387 . S
C973 C975 1.387 . S
H974 C981 0.950 . S
C975 C973 1.387 . S
C975 C977 1.390 . S
C975 H979 0.950 . S
H976 C972 0.950 . S
C977 C975 1.390 . S
C977 C978 1.387 . S
C977 H980 0.950 . S
C978 C977 1.387 . S
C978 C981 1.387 . S
H979 C975 0.950 . S
H980 C977 0.950 . S
C981 C972 1.390 . S
C981 H974 0.950 . S
C981 C978 1.387 . S
C982 C983 1.387 . S
C982 H986 0.950 . S
C982 C991 1.390 . S
C983 C982 1.387 . S
C983 C985 1.387 . S
H984 C991 0.950 . S
C985 C983 1.387 . S
C985 C987 1.390 . S
C985 H989 0.950 . S
H986 C982 0.950 . S
C987 C985 1.390 . S
C987 C988 1.387 . S
C987 H990 0.950 . S
C988 C987 1.387 . S
C988 C991 1.387 . S
H989 C985 0.950 . S
H990 C987 0.950 . S
C991 C982 1.390 . S
C991 H984 0.950 . S
C991 C988 1.387 . S
C992 C993 1.387 . S
C992 H996 0.950 . S
C992 C1001 1.390 . S
C993 C992 1.387 . S
C993 C995 1.387 . S
H994 C1001 0.950 . S
C995 C993 1.387 . S
C995 C997 1.390 . S
C995 H999 0.950 . S
H996 C992 0.950 . S
C997 C995 1.390 . S
C997 C998 1.387 . S
C997 H1000 0.950 . S
C998 C997 1.387 . S
C998 C1001 1.387 . S
H999 C995 0.950 . S
H1000 C997 0.950 . S
C1001 C992 1.390 . S
C1001 H994 0.950 . S
C1001 C998 1.387 . S
C1002 C1003 1.387 . S
C1002 H1006 0.950 . S
C1002 C1011 1.390 . S
C1003 C1002 1.387 . S
C1003 C1005 1.387 . S
H1004 C1011 0.950 . S
C1005 C1003 1.387 . S
C1005 C1007 1.390 . S
C1005 H1009 0.950 . S
H1006 C1002 0.950 . S
C1007 C1005 1.390 . S
C1007 C1008 1.387 . S
C1007 H1010 0.950 . S
C1008 C1007 1.387 . S
C1008 C1011 1.387 . S
H1009 C1005 0.950 . S
H1010 C1007 0.950 . S
C1011 C1002 1.390 . S
C1011 H1004 0.950 . S
C1011 C1008 1.387 . S
C1012 C1013 1.387 . S
C1012 H1016 0.950 . S
C1012 C1021 1.390 . S
C1013 C1012 1.387 . S
C1013 C1015 1.387 . S
H1014 C1021 0.950 . S
C1015 C1013 1.387 . S
C1015 C1017 1.390 . S
C1015 H1019 0.950 . S
H1016 C1012 0.950 . S
C1017 C1015 1.390 . S
C1017 C1018 1.387 . S
C1017 H1020 0.950 . S
C1018 C1017 1.387 . S
C1018 C1021 1.387 . S
H1019 C1015 0.950 . S
H1020 C1017 0.950 . S
C1021 C1012 1.390 . S
C1021 H1014 0.950 . S
C1021 C1018 1.387 . S
C1022 C1023 1.387 . S
C1022 H1026 0.950 . S
C1022 C1031 1.390 . S
C1023 C1022 1.387 . S
C1023 C1025 1.387 . S
H1024 C1031 0.950 . S
C1025 C1023 1.387 . S
C1025 C1027 1.390 . S
C1025 H1029 0.950 . S
H1026 C1022 0.950 . S
C1027 C1025 1.390 . S
C1027 C1028 1.387 . S
C1027 H1030 0.950 . S
C1028 C1027 1.387 . S
C1028 C1031 1.387 . S
H1029 C1025 0.950 . S
H1030 C1027 0.950 . S
C1031 C1022 1.390 . S
C1031 H1024 0.950 . S
C1031 C1028 1.387 . S
C1032 C1033 1.387 . S
C1032 H1036 0.950 . S
C1032 C1041 1.390 . S
C1033 C1032 1.387 . S
C1033 C1035 1.387 . S
H1034 C1041 0.950 . S
C1035 C1033 1.387 . S
C1035 C1037 1.390 . S
C1035 H1039 0.950 . S
H1036 C1032 0.950 . S
C1037 C1035 1.390 . S
C1037 C1038 1.387 . S
C1037 H1040 0.950 . S
C1038 C1037 1.387 . S
C1038 C1041 1.387 . S
H1039 C1035 0.950 . S
H1040 C1037 0.950 . S
C1041 C1032 1.390 . S
C1041 H1034 0.950 . S
C1041 C1038 1.387 . S
C1042 C1043 1.387 . S
C1042 H1046 0.950 . S
C1042 C1051 1.390 . S
C1043 C1042 1.387 . S
C1043 C1045 1.387 . S
H1044 C1051 0.950 . S
C1045 C1043 1.387 . S
C1045 C1047 1.390 . S
C1045 H1049 0.950 . S
H1046 C1042 0.950 . S
C1047 C1045 1.390 . S
C1047 C1048 1.387 . S
C1047 H1050 0.950 . S
C1048 C1047 1.387 . S
C1048 C1051 1.387 . S
H1049 C1045 0.950 . S
H1050 C1047 0.950 . S
C1051 C1042 1.390 . S
C1051 H1044 0.950 . S
C1051 C1048 1.387 . S
C1052 C1053 1.387 . S
C1052 H1056 0.950 . S
C1052 C1061 1.390 . S
C1053 C1052 1.387 . S
C1053 C1055 1.387 . S
H1054 C1061 0.950 . S
C1055 C1053 1.387 . S
C1055 C1057 1.390 . S
C1055 H1059 0.950 . S
H1056 C1052 0.950 . S
C1057 C1055 1.390 . S
C1057 C1058 1.387 . S
C1057 H1060 0.950 . S
C1058 C1057 1.387 . S
C1058 C1061 1.387 . S
H1059 C1055 0.950 . S
H1060 C1057 0.950 . S
C1061 C1052 1.390 . S
C1061 H1054 0.950 . S
C1061 C1058 1.387 . S
C1062 C1063 1.387 . S
C1062 H1066 0.950 . S
C1062 C1071 1.390 . S
C1063 C1062 1.387 . S
C1063 C1065 1.387 . S
H1064 C1071 0.950 . S
C1065 C1063 1.387 . S
C1065 C1067 1.390 . S
C1065 H1069 0.950 . S
H1066 C1062 0.950 . S
C1067 C1065 1.390 . S
C1067 C1068 1.387 . S
C1067 H1070 0.950 . S
C1068 C1067 1.387 . S
C1068 C1071 1.387 . S
H1069 C1065 0.950 . S
H1070 C1067 0.950 . S
C1071 C1062 1.390 . S
C1071 H1064 0.950 . S
C1071 C1068 1.387 . S
C1072 C1073 1.387 . S
C1072 H1076 0.950 . S
C1072 C1081 1.390 . S
C1073 C1072 1.387 . S
C1073 C1075 1.387 . S
H1074 C1081 0.950 . S
C1075 C1073 1.387 . S
C1075 C1077 1.390 . S
C1075 H1079 0.950 . S
H1076 C1072 0.950 . S
C1077 C1075 1.390 . S
C1077 C1078 1.387 . S
C1077 H1080 0.950 . S
C1078 C1077 1.387 . S
C1078 C1081 1.387 . S
H1079 C1075 0.950 . S
H1080 C1077 0.950 . S
C1081 C1072 1.390 . S
C1081 H1074 0.950 . S
C1081 C1078 1.387 . S
C1082 C1083 1.387 . S
C1082 H1086 0.950 . S
C1082 C1091 1.390 . S
C1083 C1082 1.387 . S
C1083 C1085 1.387 . S
H1084 C1091 0.950 . S
C1085 C1083 1.387 . S
C1085 C1087 1.390 . S
C1085 H1089 0.950 . S
H1086 C1082 0.950 . S
C1087 C1085 1.390 . S
C1087 C1088 1.387 . S
C1087 H1090 0.950 . S
C1088 C1087 1.387 . S
C1088 C1091 1.387 . S
H1089 C1085 0.950 . S
H1090 C1087 0.950 . S
C1091 C1082 1.390 . S
C1091 H1084 0.950 . S
C1091 C1088 1.387 . S
C1092 C1093 1.387 . S
C1092 H1096 0.950 . S
C1092 C1101 1.390 . S
C1093 C1092 1.387 . S
C1093 C1095 1.387 . S
H1094 C1101 0.950 . S
C1095 C1093 1.387 . S
C1095 C1097 1.390 . S
C1095 H1099 0.950 . S
H1096 C1092 0.950 . S
C1097 C1095 1.390 . S
C1097 C1098 1.387 . S
C1097 H1100 0.950 . S
C1098 C1097 1.387 . S
C1098 C1101 1.387 . S
H1099 C1095 0.950 . S
H1100 C1097 0.950 . S
C1101 C1092 1.390 . S
C1101 H1094 0.950 . S
C1101 C1098 1.387 . S
C1102 C1103 1.387 . S
C1102 H1106 0.950 . S
C1102 C1111 1.390 . S
C1103 C1102 1.387 . S
C1103 C1105 1.387 . S
H1104 C1111 0.950 . S
C1105 C1103 1.387 . S
C1105 C1107 1.390 . S
C1105 H1109 0.950 . S
H1106 C1102 0.950 . S
C1107 C1105 1.390 . S
C1107 C1108 1.387 . S
C1107 H1110 0.950 . S
C1108 C1107 1.387 . S
C1108 C1111 1.387 . S
H1109 C1105 0.950 . S
H1110 C1107 0.950 . S
C1111 C1102 1.390 . S
C1111 H1104 0.950 . S
C1111 C1108 1.387 . S
C1112 C1113 1.387 . S
C1112 H1116 0.950 . S
C1112 C1121 1.390 . S
C1113 C1112 1.387 . S
C1113 C1115 1.387 . S
H1114 C1121 0.950 . S
C1115 C1113 1.387 . S
C1115 C1117 1.390 . S
C1115 H1119 0.950 . S
H1116 C1112 0.950 . S
C1117 C1115 1.390 . S
C1117 C1118 1.387 . S
C1117 H1120 0.950 . S
C1118 C1117 1.387 . S
C1118 C1121 1.387 . S
H1119 C1115 0.950 . S
H1120 C1117 0.950 . S
C1121 C1112 1.390 . S
C1121 H1114 0.950 . S
C1121 C1118 1.387 . S
C1122 C1123 1.387 . S
C1122 H1126 0.950 . S
C1122 C1131 1.390 . S
C1123 C1122 1.387 . S
C1123 C1125 1.387 . S
H1124 C1131 0.950 . S
C1125 C1123 1.387 . S
C1125 C1127 1.390 . S
C1125 H1129 0.950 . S
H1126 C1122 0.950 . S
C1127 C1125 1.390 . S
C1127 C1128 1.387 . S
C1127 H1130 0.950 . S
C1128 C1127 1.387 . S
C1128 C1131 1.387 . S
H1129 C1125 0.950 . S
H1130 C1127 0.950 . S
C1131 C1122 1.390 . S
C1131 H1124 0.950 . S
C1131 C1128 1.387 . S
C1132 C1133 1.387 . S
C1132 H1136 0.950 . S
C1132 C1141 1.390 . S
C1133 C1132 1.387 . S
C1133 C1135 1.387 . S
H1134 C1141 0.950 . S
C1135 C1133 1.387 . S
C1135 C1137 1.390 . S
C1135 H1139 0.950 . S
H1136 C1132 0.950 . S
C1137 C1135 1.390 . S
C1137 C1138 1.387 . S
C1137 H1140 0.950 . S
C1138 C1137 1.387 . S
C1138 C1141 1.387 . S
H1139 C1135 0.950 . S
H1140 C1137 0.950 . S
C1141 C1132 1.390 . S
C1141 H1134 0.950 . S
C1141 C1138 1.387 . S
C1142 C1143 1.387 . S
C1142 H1146 0.950 . S
C1142 C1151 1.390 . S
C1143 C1142 1.387 . S
C1143 C1145 1.387 . S
H1144 C1151 0.950 . S
C1145 C1143 1.387 . S
C1145 C1147 1.390 . S
C1145 H1149 0.950 . S
H1146 C1142 0.950 . S
C1147 C1145 1.390 . S
C1147 C1148 1.387 . S
C1147 H1150 0.950 . S
C1148 C1147 1.387 . S
C1148 C1151 1.387 . S
H1149 C1145 0.950 . S
H1150 C1147 0.950 . S
C1151 C1142 1.390 . S
C1151 H1144 0.950 . S
C1151 C1148 1.387 . S
C1152 C1153 1.387 . S
C1152 H1156 0.950 . S
C1152 C1161 1.390 . S
C1153 C1152 1.387 . S
C1153 C1155 1.387 . S
H1154 C1161 0.950 . S
C1155 C1153 1.387 . S
C1155 C1157 1.390 . S
C1155 H1159 0.950 . S
H1156 C1152 0.950 . S
C1157 C1155 1.390 . S
C1157 C1158 1.387 . S
C1157 H1160 0.950 . S
C1158 C1157 1.387 . S
C1158 C1161 1.387 . S
H1159 C1155 0.950 . S
H1160 C1157 0.950 . S
C1161 C1152 1.390 . S
C1161 H1154 0.950 . S
C1161 C1158 1.387 . S
C1162 C1163 1.387 . S
C1162 H1166 0.950 . S
C1162 C1171 1.390 1_565 S
C1163 C1162 1.387 . S
C1163 C1165 1.387 . S
H1164 C1171 0.950 . S
C1165 C1163 1.387 . S
C1165 C1167 1.390 1_565 S
C1165 H1169 0.950 . S
H1166 C1162 0.950 . S
C1167 C1165 1.390 1_545 S
C1167 C1168 1.387 . S
C1167 H1170 0.950 . S
C1168 C1167 1.387 . S
C1168 C1171 1.387 . S
H1169 C1165 0.950 . S
H1170 C1167 0.950 . S
C1171 C1162 1.390 1_545 S
C1171 H1164 0.950 . S
C1171 C1168 1.387 . S
C1172 C1173 1.387 . S
C1172 H1176 0.950 . S
C1172 C1181 1.390 1_655 S
C1173 C1172 1.387 . S
C1173 C1175 1.387 . S
H1174 C1181 0.950 . S
C1175 C1173 1.387 . S
C1175 C1177 1.390 1_655 S
C1175 H1179 0.950 . S
H1176 C1172 0.950 . S
C1177 C1175 1.390 1_455 S
C1177 C1178 1.387 . S
C1177 H1180 0.950 . S
C1178 C1177 1.387 . S
C1178 C1181 1.387 . S
H1179 C1175 0.950 . S
H1180 C1177 0.950 . S
C1181 C1172 1.390 1_455 S
C1181 H1174 0.950 . S
C1181 C1178 1.387 . S
C1182 C1183 1.387 . S
C1182 H1186 0.950 . S
C1182 C1191 1.390 . S
C1183 C1182 1.387 . S
C1183 C1185 1.387 . S
H1184 C1191 0.950 . S
C1185 C1183 1.387 . S
C1185 C1187 1.390 . S
C1185 H1189 0.950 . S
H1186 C1182 0.950 . S
C1187 C1185 1.390 . S
C1187 C1188 1.387 . S
C1187 H1190 0.950 . S
C1188 C1187 1.387 . S
C1188 C1191 1.387 . S
H1189 C1185 0.950 . S
H1190 C1187 0.950 . S
C1191 C1182 1.390 . S
C1191 H1184 0.950 . S
C1191 C1188 1.387 . S
C1192 C1193 1.387 . S
C1192 H1196 0.950 . S
C1192 C1201 1.390 1_545 S
C1193 C1192 1.387 . S
C1193 C1195 1.387 . S
H1194 C1201 0.950 . S
C1195 C1193 1.387 . S
C1195 C1197 1.390 1_545 S
C1195 H1199 0.950 . S
H1196 C1192 0.950 . S
C1197 C1195 1.390 1_565 S
C1197 C1198 1.387 . S
C1197 H1200 0.950 . S
C1198 C1197 1.387 . S
C1198 C1201 1.387 . S
H1199 C1195 0.950 . S
H1200 C1197 0.950 . S
C1201 C1192 1.390 1_565 S
C1201 H1194 0.950 . S
C1201 C1198 1.387 . S
C1202 C1203 1.387 . S
C1202 H1206 0.950 . S
C1202 C1211 1.390 1_455 S
C1203 C1202 1.387 . S
C1203 C1205 1.387 . S
H1204 C1211 0.950 . S
C1205 C1203 1.387 . S
C1205 C1207 1.390 1_455 S
C1205 H1209 0.950 . S
H1206 C1202 0.950 . S
C1207 C1205 1.390 1_655 S
C1207 C1208 1.387 . S
C1207 H1210 0.950 . S
C1208 C1207 1.387 . S
C1208 C1211 1.387 . S
H1209 C1205 0.950 . S
H1210 C1207 0.950 . S
C1211 C1202 1.390 1_655 S
C1211 H1204 0.950 . S
C1211 C1208 1.387 . S
C1212 C1213 1.387 . S
C1212 H1216 0.950 . S
C1212 C1221 1.390 . S
C1213 C1212 1.387 . S
C1213 C1215 1.387 . S
H1214 C1221 0.950 . S
C1215 C1213 1.387 . S
C1215 C1217 1.390 . S
C1215 H1219 0.950 . S
H1216 C1212 0.950 . S
C1217 C1215 1.390 . S
C1217 C1218 1.387 . S
C1217 H1220 0.950 . S
C1218 C1217 1.387 . S
C1218 C1221 1.387 . S
H1219 C1215 0.950 . S
H1220 C1217 0.950 . S
C1221 C1212 1.390 . S
C1221 H1214 0.950 . S
C1221 C1218 1.387 . S
C1222 C1223 1.387 . S
C1222 H1226 0.950 . S
C1222 C1231 1.390 1_545 S
C1223 C1222 1.387 . S
C1223 C1225 1.387 . S
H1224 C1231 0.950 . S
C1225 C1223 1.387 . S
C1225 C1227 1.390 1_545 S
C1225 H1229 0.950 . S
H1226 C1222 0.950 . S
C1227 C1225 1.390 1_565 S
C1227 C1228 1.387 . S
C1227 H1230 0.950 . S
C1228 C1227 1.387 . S
C1228 C1231 1.387 . S
H1229 C1225 0.950 . S
H1230 C1227 0.950 . S
C1231 C1222 1.390 1_565 S
C1231 H1224 0.950 . S
C1231 C1228 1.387 . S
C1232 C1233 1.387 . S
C1232 H1236 0.950 . S
C1232 C1241 1.390 1_655 S
C1233 C1232 1.387 . S
C1233 C1235 1.387 . S
H1234 C1241 0.950 . S
C1235 C1233 1.387 . S
C1235 C1237 1.390 1_655 S
C1235 H1239 0.950 . S
H1236 C1232 0.950 . S
C1237 C1235 1.390 1_455 S
C1237 C1238 1.387 . S
C1237 H1240 0.950 . S
C1238 C1237 1.387 . S
C1238 C1241 1.387 . S
H1239 C1235 0.950 . S
H1240 C1237 0.950 . S
C1241 C1232 1.390 1_455 S
C1241 H1234 0.950 . S
C1241 C1238 1.387 . S
C1242 C1243 1.387 . S
C1242 H1246 0.950 . S
C1242 C1251 1.390 . S
C1243 C1242 1.387 . S
C1243 C1245 1.387 . S
H1244 C1251 0.950 . S
C1245 C1243 1.387 . S
C1245 C1247 1.390 . S
C1245 H1249 0.950 . S
H1246 C1242 0.950 . S
C1247 C1245 1.390 . S
C1247 C1248 1.387 . S
C1247 H1250 0.950 . S
C1248 C1247 1.387 . S
C1248 C1251 1.387 . S
H1249 C1245 0.950 . S
H1250 C1247 0.950 . S
C1251 C1242 1.390 . S
C1251 H1244 0.950 . S
C1251 C1248 1.387 . S
C1252 C1253 1.387 . S
C1252 H1256 0.950 . S
C1252 C1261 1.390 1_565 S
C1253 C1252 1.387 . S
C1253 C1255 1.387 . S
H1254 C1261 0.950 . S
C1255 C1253 1.387 . S
C1255 C1257 1.390 1_565 S
C1255 H1259 0.950 . S
H1256 C1252 0.950 . S
C1257 C1255 1.390 1_545 S
C1257 C1258 1.387 . S
C1257 H1260 0.950 . S
C1258 C1257 1.387 . S
C1258 C1261 1.387 . S
H1259 C1255 0.950 . S
H1260 C1257 0.950 . S
C1261 C1252 1.390 1_545 S
C1261 H1254 0.950 . S
C1261 C1258 1.387 . S
C1262 C1263 1.387 . S
C1262 H1266 0.950 . S
C1262 C1271 1.390 1_655 S
C1263 C1262 1.387 . S
C1263 C1265 1.387 . S
H1264 C1271 0.950 . S
C1265 C1263 1.387 . S
C1265 C1267 1.390 1_655 S
C1265 H1269 0.950 . S
H1266 C1262 0.950 . S
C1267 C1265 1.390 1_455 S
C1267 C1268 1.387 . S
C1267 H1270 0.950 . S
C1268 C1267 1.387 . S
C1268 C1271 1.387 . S
H1269 C1265 0.950 . S
H1270 C1267 0.950 . S
C1271 C1262 1.390 1_455 S
C1271 H1264 0.950 . S
C1271 C1268 1.387 . S
C1272 C1273 1.387 . S
C1272 H1276 0.950 . S
C1272 C1281 1.390 . S
C1273 C1272 1.387 . S
C1273 C1275 1.387 . S
H1274 C1281 0.950 . S
C1275 C1273 1.387 . S
C1275 C1277 1.390 . S
C1275 H1279 0.950 . S
H1276 C1272 0.950 . S
C1277 C1275 1.390 . S
C1277 C1278 1.387 . S
C1277 H1280 0.950 . S
C1278 C1277 1.387 . S
C1278 C1281 1.387 . S
H1279 C1275 0.950 . S
H1280 C1277 0.950 . S
C1281 C1272 1.390 . S
C1281 H1274 0.950 . S
C1281 C1278 1.387 . S
C1282 C1283 1.387 . S
C1282 H1286 0.950 . S
C1282 C1291 1.390 . S
C1283 C1282 1.387 . S
C1283 C1285 1.387 . S
H1284 C1291 0.950 . S
C1285 C1283 1.387 . S
C1285 C1287 1.390 . S
C1285 H1289 0.950 . S
H1286 C1282 0.950 . S
C1287 C1285 1.390 . S
C1287 C1288 1.387 . S
C1287 H1290 0.950 . S
C1288 C1287 1.387 . S
C1288 C1291 1.387 . S
H1289 C1285 0.950 . S
H1290 C1287 0.950 . S
C1291 C1282 1.390 . S
C1291 H1284 0.950 . S
C1291 C1288 1.387 . S
C1292 C1293 1.387 . S
C1292 H1296 0.950 . S
C1292 C1301 1.390 . S
C1293 C1292 1.387 . S
C1293 C1295 1.387 . S
H1294 C1301 0.950 . S
C1295 C1293 1.387 . S
C1295 C1297 1.390 . S
C1295 H1299 0.950 . S
H1296 C1292 0.950 . S
C1297 C1295 1.390 . S
C1297 C1298 1.387 . S
C1297 H1300 0.950 . S
C1298 C1297 1.387 . S
C1298 C1301 1.387 . S
H1299 C1295 0.950 . S
H1300 C1297 0.950 . S
C1301 C1292 1.390 . S
C1301 H1294 0.950 . S
C1301 C1298 1.387 . S
C1302 C1303 1.387 . S
C1302 H1306 0.950 . S
C1302 C1311 1.390 . S
C1303 C1302 1.387 . S
C1303 C1305 1.387 . S
H1304 C1311 0.950 . S
C1305 C1303 1.387 . S
C1305 C1307 1.390 . S
C1305 H1309 0.950 . S
H1306 C1302 0.950 . S
C1307 C1305 1.390 . S
C1307 C1308 1.387 . S
C1307 H1310 0.950 . S
C1308 C1307 1.387 . S
C1308 C1311 1.387 . S
H1309 C1305 0.950 . S
H1310 C1307 0.950 . S
C1311 C1302 1.390 . S
C1311 H1304 0.950 . S
C1311 C1308 1.387 . S
C1312 C1313 1.387 . S
C1312 H1316 0.950 . S
C1312 C1321 1.390 . S
C1313 C1312 1.387 . S
C1313 C1315 1.387 . S
H1314 C1321 0.950 . S
C1315 C1313 1.387 . S
C1315 C1317 1.390 . S
C1315 H1319 0.950 . S
H1316 C1312 0.950 . S
C1317 C1315 1.390 . S
C1317 C1318 1.387 . S
C1317 H1320 0.950 . S
C1318 C1317 1.387 . S
C1318 C1321 1.387 . S
H1319 C1315 0.950 . S
H1320 C1317 0.950 . S
C1321 C1312 1.390 . S
C1321 H1314 0.950 . S
C1321 C1318 1.387 . S
C1322 C1323 1.387 . S
C1322 H1326 0.950 . S
C1322 C1331 1.390 . S
C1323 C1322 1.387 . S
C1323 C1325 1.387 . S
H1324 C1331 0.950 . S
C1325 C1323 1.387 . S
C1325 C1327 1.390 . S
C1325 H1329 0.950 . S
H1326 C1322 0.950 . S
C1327 C1325 1.390 . S
C1327 C1328 1.387 . S
C1327 H1330 0.950 . S
C1328 C1327 1.387 . S
C1328 C1331 1.387 . S
H1329 C1325 0.950 . S
H1330 C1327 0.950 . S
C1331 C1322 1.390 . S
C1331 H1324 0.950 . S
C1331 C1328 1.387 . S
C1332 C1333 1.387 . S
C1332 H1336 0.950 . S
C1332 C1341 1.390 . S
C1333 C1332 1.387 . S
C1333 C1335 1.387 . S
H1334 C1341 0.950 . S
C1335 C1333 1.387 . S
C1335 C1337 1.390 . S
C1335 H1339 0.950 . S
H1336 C1332 0.950 . S
C1337 C1335 1.390 . S
C1337 C1338 1.387 . S
C1337 H1340 0.950 . S
C1338 C1337 1.387 . S
C1338 C1341 1.387 . S
H1339 C1335 0.950 . S
H1340 C1337 0.950 . S
C1341 C1332 1.390 . S
C1341 H1334 0.950 . S
C1341 C1338 1.387 . S
C1342 C1343 1.387 . S
C1342 H1346 0.950 . S
C1342 C1351 1.390 . S
C1343 C1342 1.387 . S
C1343 C1345 1.387 . S
H1344 C1351 0.950 . S
C1345 C1343 1.387 . S
C1345 C1347 1.390 . S
C1345 H1349 0.950 . S
H1346 C1342 0.950 . S
C1347 C1345 1.390 . S
C1347 C1348 1.387 . S
C1347 H1350 0.950 . S
C1348 C1347 1.387 . S
C1348 C1351 1.387 . S
H1349 C1345 0.950 . S
H1350 C1347 0.950 . S
C1351 C1342 1.390 . S
C1351 H1344 0.950 . S
C1351 C1348 1.387 . S
C1352 C1353 1.387 . S
C1352 H1356 0.950 . S
C1352 C1361 1.390 . S
C1353 C1352 1.387 . S
C1353 C1355 1.387 . S
H1354 C1361 0.950 . S
C1355 C1353 1.387 . S
C1355 C1357 1.390 . S
C1355 H1359 0.950 . S
H1356 C1352 0.950 . S
C1357 C1355 1.390 . S
C1357 C1358 1.387 . S
C1357 H1360 0.950 . S
C1358 C1357 1.387 . S
C1358 C1361 1.387 . S
H1359 C1355 0.950 . S
H1360 C1357 0.950 . S
C1361 C1352 1.390 . S
C1361 H1354 0.950 . S
C1361 C1358 1.387 . S
C1362 C1363 1.387 . S
C1362 H1366 0.950 . S
C1362 C1371 1.390 . S
C1363 C1362 1.387 . S
C1363 C1365 1.387 . S
H1364 C1371 0.950 . S
C1365 C1363 1.387 . S
C1365 C1367 1.390 . S
C1365 H1369 0.950 1_556 S
H1366 C1362 0.950 . S
C1367 C1365 1.390 . S
C1367 C1368 1.387 . S
C1367 H1370 0.950 1_556 S
C1368 C1367 1.387 . S
C1368 C1371 1.387 . S
H1369 C1365 0.950 1_554 S
H1370 C1367 0.950 1_554 S
C1371 C1362 1.390 . S
C1371 H1364 0.950 . S
C1371 C1368 1.387 . S
C1372 C1373 1.387 . S
C1372 H1376 0.950 1_556 S
C1372 C1381 1.390 . S
C1373 C1372 1.387 . S
C1373 C1375 1.387 . S
H1374 C1381 0.950 1_554 S
C1375 C1373 1.387 . S
C1375 C1377 1.390 . S
C1375 H1379 0.950 . S
H1376 C1372 0.950 1_554 S
C1377 C1375 1.390 . S
C1377 C1378 1.387 . S
C1377 H1380 0.950 . S
C1378 C1377 1.387 . S
C1378 C1381 1.387 . S
H1379 C1375 0.950 . S
H1380 C1377 0.950 . S
C1381 C1372 1.390 . S
C1381 H1374 0.950 1_556 S
C1381 C1378 1.387 . S
C1382 C1383 1.387 . S
C1382 H1386 0.950 . S
C1382 C1391 1.390 . S
C1383 C1382 1.387 . S
C1383 C1385 1.387 . S
H1384 C1391 0.950 . S
C1385 C1383 1.387 . S
C1385 C1387 1.390 . S
C1385 H1389 0.950 1_556 S
H1386 C1382 0.950 . S
C1387 C1385 1.390 . S
C1387 C1388 1.387 . S
C1387 H1390 0.950 1_556 S
C1388 C1387 1.387 . S
C1388 C1391 1.387 . S
H1389 C1385 0.950 1_554 S
H1390 C1387 0.950 1_554 S
C1391 C1382 1.390 . S
C1391 H1384 0.950 . S
C1391 C1388 1.387 . S
C1392 C1393 1.387 . S
C1392 H1396 0.950 . S
C1392 C1401 1.390 . S
C1393 C1392 1.387 . S
C1393 C1395 1.387 . S
H1394 C1401 0.950 . S
C1395 C1393 1.387 . S
C1395 C1397 1.390 . S
C1395 H1399 0.950 . S
H1396 C1392 0.950 . S
C1397 C1395 1.390 . S
C1397 C1398 1.387 . S
C1397 H1400 0.950 . S
C1398 C1397 1.387 . S
C1398 C1401 1.387 . S
H1399 C1395 0.950 . S
H1400 C1397 0.950 . S
C1401 C1392 1.390 . S
C1401 H1394 0.950 . S
C1401 C1398 1.387 . S
C1402 C1403 1.387 . S
C1402 H1406 0.950 . S
C1402 C1411 1.390 . S
C1403 C1402 1.387 . S
C1403 C1405 1.387 . S
H1404 C1411 0.950 . S
C1405 C1403 1.387 . S
C1405 C1407 1.390 . S
C1405 H1409 0.950 . S
H1406 C1402 0.950 . S
C1407 C1405 1.390 . S
C1407 C1408 1.387 . S
C1407 H1410 0.950 . S
C1408 C1407 1.387 . S
C1408 C1411 1.387 . S
H1409 C1405 0.950 . S
H1410 C1407 0.950 . S
C1411 C1402 1.390 . S
C1411 H1404 0.950 . S
C1411 C1408 1.387 . S
C1412 C1413 1.387 . S
C1412 H1416 0.950 . S
C1412 C1421 1.390 . S
C1413 C1412 1.387 . S
C1413 C1415 1.387 . S
H1414 C1421 0.950 . S
C1415 C1413 1.387 . S
C1415 C1417 1.390 . S
C1415 H1419 0.950 . S
H1416 C1412 0.950 . S
C1417 C1415 1.390 . S
C1417 C1418 1.387 . S
C1417 H1420 0.950 . S
C1418 C1417 1.387 . S
C1418 C1421 1.387 . S
H1419 C1415 0.950 . S
H1420 C1417 0.950 . S
C1421 C1412 1.390 . S
C1421 H1414 0.950 . S
C1421 C1418 1.387 . S
C1422 C1423 1.387 . S
C1422 H1426 0.950 . S
C1422 C1431 1.390 . S
C1423 C1422 1.387 . S
C1423 C1425 1.387 . S
H1424 C1431 0.950 . S
C1425 C1423 1.387 . S
C1425 C1427 1.390 . S
C1425 H1429 0.950 1_554 S
H1426 C1422 0.950 . S
C1427 C1425 1.390 . S
C1427 C1428 1.387 . S
C1427 H1430 0.950 1_554 S
C1428 C1427 1.387 . S
C1428 C1431 1.387 . S
H1429 C1425 0.950 1_556 S
H1430 C1427 0.950 1_556 S
C1431 C1422 1.390 . S
C1431 H1424 0.950 . S
C1431 C1428 1.387 . S
C1432 C1433 1.387 . S
C1432 H1436 0.950 . S
C1432 C1441 1.390 . S
C1433 C1432 1.387 . S
C1433 C1435 1.387 . S
H1434 C1441 0.950 . S
C1435 C1433 1.387 . S
C1435 C1437 1.390 . S
C1435 H1439 0.950 1_554 S
H1436 C1432 0.950 . S
C1437 C1435 1.390 . S
C1437 C1438 1.387 . S
C1437 H1440 0.950 1_554 S
C1438 C1437 1.387 . S
C1438 C1441 1.387 . S
H1439 C1435 0.950 1_556 S
H1440 C1437 0.950 1_556 S
C1441 C1432 1.390 . S
C1441 H1434 0.950 . S
C1441 C1438 1.387 . S
C1442 C1443 1.387 . S
C1442 H1446 0.950 . S
C1442 C1451 1.390 . S
C1443 C1442 1.387 . S
C1443 C1445 1.387 . S
H1444 C1451 0.950 . S
C1445 C1443 1.387 . S
C1445 C1447 1.390 . S
C1445 H1449 0.950 1_554 S
H1446 C1442 0.950 . S
C1447 C1445 1.390 . S
C1447 C1448 1.387 . S
C1447 H1450 0.950 1_554 S
C1448 C1447 1.387 . S
C1448 C1451 1.387 . S
H1449 C1445 0.950 1_556 S
H1450 C1447 0.950 1_556 S
C1451 C1442 1.390 . S
C1451 H1444 0.950 . S
C1451 C1448 1.387 . S
C1452 C1453 1.387 . S
C1452 H1456 0.950 . S
C1452 C1461 1.390 . S
C1453 C1452 1.387 . S
C1453 C1455 1.387 . S
H1454 C1461 0.950 . S
C1455 C1453 1.387 . S
C1455 C1457 1.390 . S
C1455 H1459 0.950 . S
H1456 C1452 0.950 . S
C1457 C1455 1.390 . S
C1457 C1458 1.387 . S
C1457 H1460 0.950 . S
C1458 C1457 1.387 . S
C1458 C1461 1.387 . S
H1459 C1455 0.950 . S
H1460 C1457 0.950 . S
C1461 C1452 1.390 . S
C1461 H1454 0.950 . S
C1461 C1458 1.387 . S
C1462 C1463 1.387 . S
C1462 H1466 0.950 . S
C1462 C1471 1.390 . S
C1463 C1462 1.387 . S
C1463 C1465 1.387 . S
H1464 C1471 0.950 . S
C1465 C1463 1.387 . S
C1465 C1467 1.390 . S
C1465 H1469 0.950 . S
H1466 C1462 0.950 . S
C1467 C1465 1.390 . S
C1467 C1468 1.387 . S
C1467 H1470 0.950 . S
C1468 C1467 1.387 . S
C1468 C1471 1.387 . S
H1469 C1465 0.950 . S
H1470 C1467 0.950 . S
C1471 C1462 1.390 . S
C1471 H1464 0.950 . S
C1471 C1468 1.387 . S
C1472 C1473 1.387 . S
C1472 H1476 0.950 . S
C1472 C1481 1.390 . S
C1473 C1472 1.387 . S
C1473 C1475 1.387 . S
H1474 C1481 0.950 . S
C1475 C1473 1.387 . S
C1475 C1477 1.390 . S
C1475 H1479 0.950 . S
H1476 C1472 0.950 . S
C1477 C1475 1.390 . S
C1477 C1478 1.387 . S
C1477 H1480 0.950 . S
C1478 C1477 1.387 . S
C1478 C1481 1.387 . S
H1479 C1475 0.950 . S
H1480 C1477 0.950 . S
C1481 C1472 1.390 . S
C1481 H1474 0.950 . S
C1481 C1478 1.387 . S
C1482 C1483 1.387 . S
C1482 H1486 0.950 . S
C1482 C1491 1.390 . S
C1483 C1482 1.387 . S
C1483 C1485 1.387 . S
H1484 C1491 0.950 . S
C1485 C1483 1.387 . S
C1485 C1487 1.390 . S
C1485 H1489 0.950 . S
H1486 C1482 0.950 . S
C1487 C1485 1.390 . S
C1487 C1488 1.387 . S
C1487 H1490 0.950 . S
C1488 C1487 1.387 . S
C1488 C1491 1.387 . S
H1489 C1485 0.950 . S
H1490 C1487 0.950 . S
C1491 C1482 1.390 . S
C1491 H1484 0.950 . S
C1491 C1488 1.387 . S
C1492 C1493 1.387 . S
C1492 H1496 0.950 . S
C1492 C1501 1.390 . S
C1493 C1492 1.387 . S
C1493 C1495 1.387 . S
H1494 C1501 0.950 . S
C1495 C1493 1.387 . S
C1495 C1497 1.390 . S
C1495 H1499 0.950 . S
H1496 C1492 0.950 . S
C1497 C1495 1.390 . S
C1497 C1498 1.387 . S
C1497 H1500 0.950 . S
C1498 C1497 1.387 . S
C1498 C1501 1.387 . S
H1499 C1495 0.950 . S
H1500 C1497 0.950 . S
C1501 C1492 1.390 . S
C1501 H1494 0.950 . S
C1501 C1498 1.387 . S
C1502 C1503 1.387 . S
C1502 H1506 0.950 . S
C1502 C1511 1.390 . S
C1503 C1502 1.387 . S
C1503 C1505 1.387 . S
H1504 C1511 0.950 . S
C1505 C1503 1.387 . S
C1505 C1507 1.390 . S
C1505 H1509 0.950 . S
H1506 C1502 0.950 . S
C1507 C1505 1.390 . S
C1507 C1508 1.387 . S
C1507 H1510 0.950 . S
C1508 C1507 1.387 . S
C1508 C1511 1.387 . S
H1509 C1505 0.950 . S
H1510 C1507 0.950 . S
C1511 C1502 1.390 . S
C1511 H1504 0.950 . S
C1511 C1508 1.387 . S
C1512 C1513 1.387 1_455 S
C1512 H1516 0.950 . S
C1512 C1521 1.390 . S
C1513 C1512 1.387 1_655 S
C1513 C1515 1.387 . S
H1514 C1521 0.950 . S
C1515 C1513 1.387 . S
C1515 C1517 1.390 . S
C1515 H1519 0.950 . S
H1516 C1512 0.950 . S
C1517 C1515 1.390 . S
C1517 C1518 1.387 1_655 S
C1517 H1520 0.950 . S
C1518 C1517 1.387 1_455 S
C1518 C1521 1.387 . S
H1519 C1515 0.950 . S
H1520 C1517 0.950 . S
C1521 C1512 1.390 . S
C1521 H1514 0.950 . S
C1521 C1518 1.387 . S
C1522 C1523 1.387 . S
C1522 H1526 0.950 . S
C1522 C1531 1.390 . S
C1523 C1522 1.387 . S
C1523 C1525 1.387 . S
H1524 C1531 0.950 . S
C1525 C1523 1.387 . S
C1525 C1527 1.390 . S
C1525 H1529 0.950 . S
H1526 C1522 0.950 . S
C1527 C1525 1.390 . S
C1527 C1528 1.387 . S
C1527 H1530 0.950 . S
C1528 C1527 1.387 . S
C1528 C1531 1.387 . S
H1529 C1525 0.950 . S
H1530 C1527 0.950 . S
C1531 C1522 1.390 . S
C1531 H1524 0.950 . S
C1531 C1528 1.387 . S
C1532 C1533 1.387 . S
C1532 H1536 0.950 . S
C1532 C1541 1.390 1_545 S
C1533 C1532 1.387 . S
C1533 C1535 1.387 . S
H1534 C1541 0.950 . S
C1535 C1533 1.387 . S
C1535 C1537 1.390 1_545 S
C1535 H1539 0.950 . S
H1536 C1532 0.950 . S
C1537 C1535 1.390 1_565 S
C1537 C1538 1.387 . S
C1537 H1540 0.950 . S
C1538 C1537 1.387 . S
C1538 C1541 1.387 . S
H1539 C1535 0.950 . S
H1540 C1537 0.950 . S
C1541 C1532 1.390 1_565 S
C1541 H1534 0.950 . S
C1541 C1538 1.387 . S
C1542 C1543 1.387 1_655 S
C1542 H1546 0.950 . S
C1542 C1551 1.390 . S
C1543 C1542 1.387 1_455 S
C1543 C1545 1.387 . S
H1544 C1551 0.950 . S
C1545 C1543 1.387 . S
C1545 C1547 1.390 . S
C1545 H1549 0.950 . S
H1546 C1542 0.950 . S
C1547 C1545 1.390 . S
C1547 C1548 1.387 1_455 S
C1547 H1550 0.950 . S
C1548 C1547 1.387 1_655 S
C1548 C1551 1.387 . S
H1549 C1545 0.950 . S
H1550 C1547 0.950 . S
C1551 C1542 1.390 . S
C1551 H1544 0.950 . S
C1551 C1548 1.387 . S
C1552 C1553 1.387 . S
C1552 H1556 0.950 . S
C1552 C1561 1.390 . S
C1553 C1552 1.387 . S
C1553 C1555 1.387 . S
H1554 C1561 0.950 . S
C1555 C1553 1.387 . S
C1555 C1557 1.390 . S
C1555 H1559 0.950 . S
H1556 C1552 0.950 . S
C1557 C1555 1.390 . S
C1557 C1558 1.387 . S
C1557 H1560 0.950 . S
C1558 C1557 1.387 . S
C1558 C1561 1.387 . S
H1559 C1555 0.950 . S
H1560 C1557 0.950 . S
C1561 C1552 1.390 . S
C1561 H1554 0.950 . S
C1561 C1558 1.387 . S
C1562 C1563 1.387 . S
C1562 H1566 0.950 . S
C1562 C1571 1.390 1_545 S
C1563 C1562 1.387 . S
C1563 C1565 1.387 . S
H1564 C1571 0.950 . S
C1565 C1563 1.387 . S
C1565 C1567 1.390 1_545 S
C1565 H1569 0.950 . S
H1566 C1562 0.950 . S
C1567 C1565 1.390 1_565 S
C1567 C1568 1.387 . S
C1567 H1570 0.950 . S
C1568 C1567 1.387 . S
C1568 C1571 1.387 . S
H1569 C1565 0.950 . S
H1570 C1567 0.950 . S
C1571 C1562 1.390 1_565 S
C1571 H1564 0.950 . S
C1571 C1568 1.387 . S
C1572 C1573 1.387 . S
C1572 H1576 0.950 . S
C1572 C1581 1.390 . S
C1573 C1572 1.387 . S
C1573 C1575 1.387 . S
H1574 C1581 0.950 . S
C1575 C1573 1.387 . S
C1575 C1577 1.390 . S
C1575 H1579 0.950 . S
H1576 C1572 0.950 . S
C1577 C1575 1.390 . S
C1577 C1578 1.387 . S
C1577 H1580 0.950 . S
C1578 C1577 1.387 . S
C1578 C1581 1.387 . S
H1579 C1575 0.950 . S
H1580 C1577 0.950 . S
C1581 C1572 1.390 . S
C1581 H1574 0.950 . S
C1581 C1578 1.387 . S
C1582 C1583 1.387 . S
C1582 H1586 0.950 . S
C1582 C1591 1.390 . S
C1583 C1582 1.387 . S
C1583 C1585 1.387 . S
H1584 C1591 0.950 . S
C1585 C1583 1.387 . S
C1585 C1587 1.390 . S
C1585 H1589 0.950 . S
H1586 C1582 0.950 . S
C1587 C1585 1.390 . S
C1587 C1588 1.387 . S
C1587 H1590 0.950 . S
C1588 C1587 1.387 . S
C1588 C1591 1.387 . S
H1589 C1585 0.950 . S
H1590 C1587 0.950 . S
C1591 C1582 1.390 . S
C1591 H1584 0.950 . S
C1591 C1588 1.387 . S
C1592 C1593 1.387 . S
C1592 H1596 0.950 . S
C1592 C1601 1.390 . S
C1593 C1592 1.387 . S
C1593 C1595 1.387 . S
H1594 C1601 0.950 . S
C1595 C1593 1.387 . S
C1595 C1597 1.390 . S
C1595 H1599 0.950 . S
H1596 C1592 0.950 . S
C1597 C1595 1.390 . S
C1597 C1598 1.387 . S
C1597 H1600 0.950 . S
C1598 C1597 1.387 . S
C1598 C1601 1.387 . S
H1599 C1595 0.950 . S
H1600 C1597 0.950 . S
C1601 C1592 1.390 . S
C1601 H1594 0.950 . S
C1601 C1598 1.387 . S
C1602 C1603 1.387 . S
C1602 H1606 0.950 . S
C1602 C1611 1.390 . S
C1603 C1602 1.387 . S
C1603 C1605 1.387 . S
H1604 C1611 0.950 . S
C1605 C1603 1.387 . S
C1605 C1607 1.390 . S
C1605 H1609 0.950 . S
H1606 C1602 0.950 . S
C1607 C1605 1.390 . S
C1607 C1608 1.387 . S
C1607 H1610 0.950 . S
C1608 C1607 1.387 . S
C1608 C1611 1.387 . S
H1609 C1605 0.950 . S
H1610 C1607 0.950 . S
C1611 C1602 1.390 . S
C1611 H1604 0.950 . S
C1611 C1608 1.387 . S
C1612 C1613 1.387 . S
C1612 H1616 0.950 . S
C1612 C1621 1.390 . S
C1613 C1612 1.387 . S
C1613 C1615 1.387 . S
H1614 C1621 0.950 . S
C1615 C1613 1.387 . S
C1615 C1617 1.390 . S
C1615 H1619 0.950 . S
H1616 C1612 0.950 . S
C1617 C1615 1.390 . S
C1617 C1618 1.387 . S
C1617 H1620 0.950 . S
C1618 C1617 1.387 . S
C1618 C1621 1.387 . S
H1619 C1615 0.950 . S
H1620 C1617 0.950 . S
C1621 C1612 1.390 . S
C1621 H1614 0.950 . S
C1621 C1618 1.387 . S
C1622 C1623 1.387 . S
C1622 H1626 0.950 . S
C1622 C1631 1.390 . S
C1623 C1622 1.387 . S
C1623 C1625 1.387 . S
H1624 C1631 0.950 . S
C1625 C1623 1.387 . S
C1625 C1627 1.390 . S
C1625 H1629 0.950 . S
H1626 C1622 0.950 . S
C1627 C1625 1.390 . S
C1627 C1628 1.387 . S
C1627 H1630 0.950 . S
C1628 C1627 1.387 . S
C1628 C1631 1.387 . S
H1629 C1625 0.950 . S
H1630 C1627 0.950 . S
C1631 C1622 1.390 . S
C1631 H1624 0.950 . S
C1631 C1628 1.387 . S
C1632 C1633 1.387 . S
C1632 H1636 0.950 . S
C1632 C1641 1.390 . S
C1633 C1632 1.387 . S
C1633 C1635 1.387 . S
H1634 C1641 0.950 . S
C1635 C1633 1.387 . S
C1635 C1637 1.390 . S
C1635 H1639 0.950 . S
H1636 C1632 0.950 . S
C1637 C1635 1.390 . S
C1637 C1638 1.387 . S
C1637 H1640 0.950 . S
C1638 C1637 1.387 . S
C1638 C1641 1.387 . S
H1639 C1635 0.950 . S
H1640 C1637 0.950 . S
C1641 C1632 1.390 . S
C1641 H1634 0.950 . S
C1641 C1638 1.387 . S
C1642 C1643 1.387 . S
C1642 H1646 0.950 . S
C1642 C1651 1.390 . S
C1643 C1642 1.387 . S
C1643 C1645 1.387 . S
H1644 C1651 0.950 . S
C1645 C1643 1.387 . S
C1645 C1647 1.390 . S
C1645 H1649 0.950 . S
H1646 C1642 0.950 . S
C1647 C1645 1.390 . S
C1647 C1648 1.387 . S
C1647 H1650 0.950 . S
C1648 C1647 1.387 . S
C1648 C1651 1.387 . S
H1649 C1645 0.950 . S
H1650 C1647 0.950 . S
C1651 C1642 1.390 . S
C1651 H1644 0.950 . S
C1651 C1648 1.387 . S
C1652 C1653 1.387 . S
C1652 H1656 0.950 . S
C1652 C1661 1.390 . S
C1653 C1652 1.387 . S
C1653 C1655 1.387 . S
H1654 C1661 0.950 . S
C1655 C1653 1.387 . S
C1655 C1657 1.390 . S
C1655 H1659 0.950 . S
H1656 C1652 0.950 . S
C1657 C1655 1.390 . S
C1657 C1658 1.387 . S
C1657 H1660 0.950 . S
C1658 C1657 1.387 . S
C1658 C1661 1.387 . S
H1659 C1655 0.950 . S
H1660 C1657 0.950 . S
C1661 C1652 1.390 . S
C1661 H1654 0.950 . S
C1661 C1658 1.387 . S
C1662 C1663 1.387 . S
C1662 H1666 0.950 . S
C1662 C1671 1.390 . S
C1663 C1662 1.387 . S
C1663 C1665 1.387 . S
H1664 C1671 0.950 . S
C1665 C1663 1.387 . S
C1665 C1667 1.390 . S
C1665 H1669 0.950 . S
H1666 C1662 0.950 . S
C1667 C1665 1.390 . S
C1667 C1668 1.387 . S
C1667 H1670 0.950 . S
C1668 C1667 1.387 . S
C1668 C1671 1.387 . S
H1669 C1665 0.950 . S
H1670 C1667 0.950 . S
C1671 C1662 1.390 . S
C1671 H1664 0.950 . S
C1671 C1668 1.387 . S
C1672 C1673 1.387 . S
C1672 H1676 0.950 . S
C1672 C1681 1.390 . S
C1673 C1672 1.387 . S
C1673 C1675 1.387 . S
H1674 C1681 0.950 . S
C1675 C1673 1.387 . S
C1675 C1677 1.390 . S
C1675 H1679 0.950 . S
H1676 C1672 0.950 . S
C1677 C1675 1.390 . S
C1677 C1678 1.387 . S
C1677 H1680 0.950 . S
C1678 C1677 1.387 . S
C1678 C1681 1.387 . S
H1679 C1675 0.950 . S
H1680 C1677 0.950 . S
C1681 C1672 1.390 . S
C1681 H1674 0.950 . S
C1681 C1678 1.387 . S
C1682 C1683 1.387 . S
C1682 H1686 0.950 . S
C1682 C1691 1.390 . S
C1683 C1682 1.387 . S
C1683 C1685 1.387 . S
H1684 C1691 0.950 . S
C1685 C1683 1.387 . S
C1685 C1687 1.390 . S
C1685 H1689 0.950 . S
H1686 C1682 0.950 . S
C1687 C1685 1.390 . S
C1687 C1688 1.387 . S
C1687 H1690 0.950 . S
C1688 C1687 1.387 . S
C1688 C1691 1.387 . S
H1689 C1685 0.950 . S
H1690 C1687 0.950 . S
C1691 C1682 1.390 . S
C1691 H1684 0.950 . S
C1691 C1688 1.387 . S
C1692 C1693 1.387 . S
C1692 H1696 0.950 . S
C1692 C1701 1.390 . S
C1693 C1692 1.387 . S
C1693 C1695 1.387 . S
H1694 C1701 0.950 1_655 S
C1695 C1693 1.387 . S
C1695 C1697 1.390 . S
C1695 H1699 0.950 . S
H1696 C1692 0.950 . S
C1697 C1695 1.390 . S
C1697 C1698 1.387 . S
C1697 H1700 0.950 . S
C1698 C1697 1.387 . S
C1698 C1701 1.387 . S
H1699 C1695 0.950 . S
H1700 C1697 0.950 . S
C1701 C1692 1.390 . S
C1701 H1694 0.950 1_455 S
C1701 C1698 1.387 . S
C1702 C1703 1.387 . S
C1702 H1706 0.950 . S
C1702 C1711 1.390 . S
C1703 C1702 1.387 . S
C1703 C1705 1.387 . S
H1704 C1711 0.950 . S
C1705 C1703 1.387 . S
C1705 C1707 1.390 . S
C1705 H1709 0.950 . S
H1706 C1702 0.950 . S
C1707 C1705 1.390 . S
C1707 C1708 1.387 . S
C1707 H1710 0.950 . S
C1708 C1707 1.387 . S
C1708 C1711 1.387 . S
H1709 C1705 0.950 . S
H1710 C1707 0.950 . S
C1711 C1702 1.390 . S
C1711 H1704 0.950 . S
C1711 C1708 1.387 . S
C1712 C1713 1.387 . S
C1712 H1716 0.950 . S
C1712 C1721 1.390 . S
C1713 C1712 1.387 . S
C1713 C1715 1.387 . S
H1714 C1721 0.950 . S
C1715 C1713 1.387 . S
C1715 C1717 1.390 . S
C1715 H1719 0.950 . S
H1716 C1712 0.950 . S
C1717 C1715 1.390 . S
C1717 C1718 1.387 . S
C1717 H1720 0.950 . S
C1718 C1717 1.387 . S
C1718 C1721 1.387 . S
H1719 C1715 0.950 . S
H1720 C1717 0.950 . S
C1721 C1712 1.390 . S
C1721 H1714 0.950 . S
C1721 C1718 1.387 . S
C1722 C1723 1.387 . S
C1722 H1726 0.950 1_545 S
C1722 C1731 1.390 . S
C1723 C1722 1.387 . S
C1723 C1725 1.387 . S
H1724 C1731 0.950 . S
C1725 C1723 1.387 . S
C1725 C1727 1.390 . S
C1725 H1729 0.950 . S
H1726 C1722 0.950 1_565 S
C1727 C1725 1.390 . S
C1727 C1728 1.387 . S
C1727 H1730 0.950 . S
C1728 C1727 1.387 . S
C1728 C1731 1.387 . S
H1729 C1725 0.950 . S
H1730 C1727 0.950 . S
C1731 C1722 1.390 . S
C1731 H1724 0.950 . S
C1731 C1728 1.387 . S
C1732 C1733 1.387 . S
C1732 H1736 0.950 . S
C1732 C1741 1.390 . S
C1733 C1732 1.387 . S
C1733 C1735 1.387 . S
H1734 C1741 0.950 . S
C1735 C1733 1.387 . S
C1735 C1737 1.390 . S
C1735 H1739 0.950 . S
H1736 C1732 0.950 . S
C1737 C1735 1.390 . S
C1737 C1738 1.387 . S
C1737 H1740 0.950 . S
C1738 C1737 1.387 . S
C1738 C1741 1.387 . S
H1739 C1735 0.950 . S
H1740 C1737 0.950 . S
C1741 C1732 1.390 . S
C1741 H1734 0.950 . S
C1741 C1738 1.387 . S
C1742 C1743 1.387 . S
C1742 H1746 0.950 . S
C1742 C1751 1.390 . S
C1743 C1742 1.387 . S
C1743 C1745 1.387 . S
H1744 C1751 0.950 . S
C1745 C1743 1.387 . S
C1745 C1747 1.390 . S
C1745 H1749 0.950 . S
H1746 C1742 0.950 . S
C1747 C1745 1.390 . S
C1747 C1748 1.387 . S
C1747 H1750 0.950 . S
C1748 C1747 1.387 . S
C1748 C1751 1.387 . S
H1749 C1745 0.950 . S
H1750 C1747 0.950 . S
C1751 C1742 1.390 . S
C1751 H1744 0.950 . S
C1751 C1748 1.387 . S
C1752 C1753 1.387 . S
C1752 H1756 0.950 . S
C1752 C1761 1.390 . S
C1753 C1752 1.387 . S
C1753 C1755 1.387 . S
H1754 C1761 0.950 . S
C1755 C1753 1.387 . S
C1755 C1757 1.390 . S
C1755 H1759 0.950 . S
H1756 C1752 0.950 . S
C1757 C1755 1.390 . S
C1757 C1758 1.387 . S
C1757 H1760 0.950 1_655 S
C1758 C1757 1.387 . S
C1758 C1761 1.387 . S
H1759 C1755 0.950 . S
H1760 C1757 0.950 1_455 S
C1761 C1752 1.390 . S
C1761 H1754 0.950 . S
C1761 C1758 1.387 . S
C1762 C1763 1.387 . S
C1762 H1766 0.950 . S
C1762 C1771 1.390 . S
C1763 C1762 1.387 . S
C1763 C1765 1.387 . S
H1764 C1771 0.950 . S
C1765 C1763 1.387 . S
C1765 C1767 1.390 . S
C1765 H1769 0.950 . S
H1766 C1762 0.950 . S
C1767 C1765 1.390 . S
C1767 C1768 1.387 . S
C1767 H1770 0.950 . S
C1768 C1767 1.387 . S
C1768 C1771 1.387 . S
H1769 C1765 0.950 . S
H1770 C1767 0.950 . S
C1771 C1762 1.390 . S
C1771 H1764 0.950 . S
C1771 C1768 1.387 . S
C1772 C1773 1.387 . S
C1772 H1776 0.950 . S
C1772 C1781 1.390 . S
C1773 C1772 1.387 . S
C1773 C1775 1.387 . S
H1774 C1781 0.950 . S
C1775 C1773 1.387 . S
C1775 C1777 1.390 . S
C1775 H1779 0.950 . S
H1776 C1772 0.950 . S
C1777 C1775 1.390 . S
C1777 C1778 1.387 . S
C1777 H1780 0.950 . S
C1778 C1777 1.387 . S
C1778 C1781 1.387 . S
H1779 C1775 0.950 . S
H1780 C1777 0.950 . S
C1781 C1772 1.390 . S
C1781 H1774 0.950 . S
C1781 C1778 1.387 . S
C1782 C1783 1.387 . S
C1782 H1786 0.950 . S
C1782 C1791 1.390 . S
C1783 C1782 1.387 . S
C1783 C1785 1.387 . S
H1784 C1791 0.950 . S
C1785 C1783 1.387 . S
C1785 C1787 1.390 . S
C1785 H1789 0.943 1_565 S
H1786 C1782 0.950 . S
C1787 C1785 1.390 . S
C1787 C1788 1.387 . S
C1787 H1790 0.950 . S
C1788 C1787 1.387 . S
C1788 C1791 1.387 . S
H1789 C1785 0.943 1_545 S
H1790 C1787 0.950 . S
C1791 C1782 1.390 . S
C1791 H1784 0.950 . S
C1791 C1788 1.387 . S
C1792 C1793 1.387 . S
C1792 H1796 0.950 . S
C1792 C1801 1.390 . S
C1793 C1792 1.387 . S
C1793 C1795 1.387 . S
H1794 C1801 0.950 . S
C1795 C1793 1.387 . S
C1795 C1797 1.390 . S
C1795 H1799 0.950 . S
H1796 C1792 0.950 . S
C1797 C1795 1.390 . S
C1797 C1798 1.387 . S
C1797 H1800 0.950 . S
C1798 C1797 1.387 . S
C1798 C1801 1.387 . S
H1799 C1795 0.950 . S
H1800 C1797 0.950 . S
C1801 C1792 1.390 . S
C1801 H1794 0.950 . S
C1801 C1798 1.387 . S
C1802 C1803 1.387 . S
C1802 H1806 0.950 . S
C1802 C1811 1.390 . S
C1803 C1802 1.387 . S
C1803 C1805 1.387 . S
H1804 C1811 0.950 . S
C1805 C1803 1.387 . S
C1805 C1807 1.390 . S
C1805 H1809 0.950 . S
H1806 C1802 0.950 . S
C1807 C1805 1.390 . S
C1807 C1808 1.387 . S
C1807 H1810 0.950 . S
C1808 C1807 1.387 . S
C1808 C1811 1.387 . S
H1809 C1805 0.950 . S
H1810 C1807 0.950 . S
C1811 C1802 1.390 . S
C1811 H1804 0.950 . S
C1811 C1808 1.387 . S
C1812 C1813 1.387 . S
C1812 H1816 0.950 . S
C1812 C1821 1.390 1_455 S
C1813 C1812 1.387 . S
C1813 C1815 1.387 . S
H1814 C1821 0.950 . S
C1815 C1813 1.387 . S
C1815 C1817 1.390 1_455 S
C1815 H1819 0.950 . S
H1816 C1812 0.950 . S
C1817 C1815 1.390 1_655 S
C1817 C1818 1.387 . S
C1817 H1820 0.950 . S
C1818 C1817 1.387 . S
C1818 C1821 1.387 . S
H1819 C1815 0.950 . S
H1820 C1817 0.950 . S
C1821 C1812 1.390 1_655 S
C1821 H1814 0.950 . S
C1821 C1818 1.387 . S
C1822 C1823 1.387 . S
C1822 H1826 0.950 . S
C1822 C1831 1.390 . S
C1823 C1822 1.387 . S
C1823 C1825 1.387 . S
H1824 C1831 0.950 . S
C1825 C1823 1.387 . S
C1825 C1827 1.390 . S
C1825 H1829 0.950 . S
H1826 C1822 0.950 . S
C1827 C1825 1.390 . S
C1827 C1828 1.387 . S
C1827 H1830 0.950 . S
C1828 C1827 1.387 . S
C1828 C1831 1.387 . S
H1829 C1825 0.950 . S
H1830 C1827 0.950 . S
C1831 C1822 1.390 . S
C1831 H1824 0.950 . S
C1831 C1828 1.387 . S
C1832 C1833 1.387 . S
C1832 H1836 0.950 . S
C1832 C1841 1.390 1_545 S
C1833 C1832 1.387 . S
C1833 C1835 1.387 . S
H1834 C1841 0.950 . S
C1835 C1833 1.387 . S
C1835 C1837 1.390 1_545 S
C1835 H1839 0.950 . S
H1836 C1832 0.950 . S
C1837 C1835 1.390 1_565 S
C1837 C1838 1.387 . S
C1837 H1840 0.950 . S
C1838 C1837 1.387 . S
C1838 C1841 1.387 . S
H1839 C1835 0.950 . S
H1840 C1837 0.950 . S
C1841 C1832 1.390 1_565 S
C1841 H1834 0.950 . S
C1841 C1838 1.387 . S
C1842 C1843 1.387 . S
C1842 H1846 0.950 . S
C1842 C1851 1.390 1_545 S
C1843 C1842 1.387 . S
C1843 C1845 1.387 . S
H1844 C1851 0.950 . S
C1845 C1843 1.387 . S
C1845 C1847 1.390 1_545 S
C1845 H1849 0.950 . S
H1846 C1842 0.950 . S
C1847 C1845 1.390 1_565 S
C1847 C1848 1.387 . S
C1847 H1850 0.950 . S
C1848 C1847 1.387 . S
C1848 C1851 1.387 . S
H1849 C1845 0.950 . S
H1850 C1847 0.950 . S
C1851 C1842 1.390 1_565 S
C1851 H1844 0.950 . S
C1851 C1848 1.387 . S
C1852 C1853 1.387 . S
C1852 H1856 0.950 . S
C1852 C1861 1.390 1_455 S
C1853 C1852 1.387 . S
C1853 C1855 1.387 . S
H1854 C1861 0.950 . S
C1855 C1853 1.387 . S
C1855 C1857 1.390 1_455 S
C1855 H1859 0.950 . S
H1856 C1852 0.950 . S
C1857 C1855 1.390 1_655 S
C1857 C1858 1.387 . S
C1857 H1860 0.950 . S
C1858 C1857 1.387 . S
C1858 C1861 1.387 . S
H1859 C1855 0.950 . S
H1860 C1857 0.950 . S
C1861 C1852 1.390 1_655 S
C1861 H1854 0.950 . S
C1861 C1858 1.387 . S
C1862 C1863 1.387 . S
C1862 H1866 0.950 . S
C1862 C1871 1.390 . S
C1863 C1862 1.387 . S
C1863 C1865 1.387 . S
H1864 C1871 0.950 . S
C1865 C1863 1.387 . S
C1865 C1867 1.390 . S
C1865 H1869 0.950 . S
H1866 C1862 0.950 . S
C1867 C1865 1.390 . S
C1867 C1868 1.387 . S
C1867 H1870 0.950 . S
C1868 C1867 1.387 . S
C1868 C1871 1.387 . S
H1869 C1865 0.950 . S
H1870 C1867 0.950 . S
C1871 C1862 1.390 . S
C1871 H1864 0.950 . S
C1871 C1868 1.387 . S
C793 C8 1.177 . S
C798 C172 1.137 . S
C803 C30 1.177 . S
C808 C184 1.136 . S
C813 C62 1.177 . S
C818 C150 1.136 . S
C823 C74 1.177 . S
C828 C252 1.136 . S
C833 C208 1.140 . S
C838 C96 1.175 . S
C843 C230 1.136 . S
C848 C120 1.177 . S
C853 C40 1.138 . S
C858 C140 1.177 . S
C863 C162 1.175 . S
C868 C54 1.140 . S
C873 C186 1.177 . S
C878 C18 1.138 . S
C883 C118 1.138 . S
C888 C216 1.176 . S
C893 C238 1.176 . S
C898 C84 1.139 . S
C903 C260 1.176 . S
C908 C106 1.139 . S
C913 C274 1.176 . S
C918 C436 1.138 . S
C923 C294 1.176 . S
C928 C458 1.139 . S
C933 C414 1.136 . S
C938 C316 1.177 . S
C943 C514 1.136 . S
C948 C338 1.177 . S
C953 C470 1.136 . S
C958 C362 1.177 . S
C963 C382 1.176 . S
C968 C492 1.139 . S
C973 C304 1.138 . S
C978 C404 1.177 . S
C983 C326 1.136 . S
C988 C426 1.177 . S
C993 C272 1.136 . S
C998 C448 1.177 . S
C1003 C392 1.140 . S
C1008 C472 1.175 . S
C1013 C494 1.175 . S
C1018 C348 1.140 . S
C1023 C360 1.138 . S
C1028 C516 1.177 . S
C1033 C536 1.176 . S
C1038 C690 1.138 . S
C1043 C722 1.136 . S
C1048 C560 1.177 . S
C1053 C580 1.176 . S
C1058 C668 1.139 . S
C1063 C612 1.177 . S
C1068 C780 1.136 . S
C1073 C734 1.140 . S
C1078 C626 1.175 . S
C1083 C758 1.138 . S
C1088 C648 1.176 . S
C1093 C670 1.177 . S
C1098 C558 1.138 . S
C1103 C692 1.177 . S
C1108 C590 1.136 . S
C1113 C712 1.176 . S
C1118 C546 1.139 . S
C1123 C646 1.140 . S
C1128 C736 1.176 . S
C1133 C604 1.140 . S
C1138 C766 1.175 . S
C1143 C624 1.138 . S
C1148 C788 1.176 . S
C1153 C21 1.325 . S
C1158 C59 1.301 . S
C1163 C43 1.326 . S
C1168 C7 1.304 . S
C1173 C29 1.301 . S
C1178 C51 1.325 . S
C1183 C95 1.301 . S
C1188 C87 1.325 . S
C1193 C109 1.325 . S
C1198 C131 1.301 . S
C1203 C73 1.301 . S
C1208 C125 1.325 . S
C1213 C153 1.326 . S
C1218 C197 1.301 . S
C1223 C175 1.326 . S
C1228 C139 1.304 . S
C1233 C191 1.326 . S
C1238 C161 1.304 . S
C1243 C235 1.304 . S
C1248 C205 1.326 . S
C1253 C227 1.326 . S
C1258 C257 1.304 . S
C1263 C213 1.304 . S
C1268 C249 1.326 . S
C1273 C315 1.301 . S
C1278 C279 1.325 . S
C1283 C307 1.325 . S
C1288 C285 1.302 . S
C1293 C329 1.325 . S
C1298 C293 1.301 . S
C1303 C351 1.325 . S
C1308 C373 1.301 . S
C1313 C381 1.301 . S
C1318 C367 1.325 . S
C1323 C395 1.325 . S
C1328 C337 1.301 . S
C1333 C417 1.325 . S
C1338 C447 1.301 . S
C1343 C439 1.325 . S
C1348 C403 1.301 . S
C1353 C425 1.301 . S
C1358 C461 1.325 . S
C1363 C505 1.301 . S
C1368 C477 1.325 . S
C1373 C499 1.326 . S
C1378 C527 1.304 . S
C1383 C521 1.325 . S
C1388 C483 1.301 . S
C1393 C579 1.301 . S
C1398 C549 1.325 . S
C1403 C565 1.325 . S
C1408 C535 1.301 . S
C1413 C593 1.326 . S
C1418 C571 1.304 . S
C1423 C637 1.304 . S
C1428 C601 1.326 . S
C1433 C631 1.326 . S
C1438 C659 1.304 . S
C1443 C653 1.326 . S
C1448 C609 1.304 . S
C1453 C675 1.326 . S
C1458 C711 1.304 . S
C1463 C697 1.326 . S
C1468 C681 1.304 . S
C1473 C703 1.304 . S
C1478 C725 1.326 . S
C1483 C763 1.301 . S
C1488 C741 1.325 . S
C1493 C785 1.301 . S
C1498 C755 1.325 . S
C1503 C747 1.304 . S
C1508 C777 1.326 . S
C1513 C103 1.593 . S
C1518 C15 1.593 . S
C1523 C117 1.591 . S
C1528 C37 1.591 . S
C1533 C81 1.593 . S
C1538 C65 1.593 . S
C1543 C241 1.591 . S
C1548 C147 1.591 . S
C1553 C263 1.592 . S
C1558 C169 1.592 . S
C1563 C183 1.591 . S
C1568 C219 1.591 . S
C1573 C359 1.591 . S
C1578 C271 1.591 . S
C1583 C389 1.592 . S
C1588 C301 1.592 . S
C1593 C323 1.593 . S
C1598 C345 1.593 . S
C1603 C491 1.591 . S
C1608 C411 1.591 . S
C1613 C433 1.592 . S
C1618 C513 1.592 . S
C1623 C469 1.593 . S
C1628 C455 1.593 . S
C1633 C543 1.593 . S
C1638 C623 1.593 . S
C1643 C645 1.592 . S
C1648 C557 1.592 . S
C1653 C615 1.593 . S
C1658 C587 1.593 . S
C1663 C769 1.592 . S
C1668 C667 1.592 . S
C1673 C791 1.593 . S
C1678 C689 1.593 . S
C1683 C733 1.593 . S
C1688 C719 1.593 . S
C1693 C656 1.491 . S
C1698 C10 1.491 . S
C1703 C32 1.492 . S
C1708 C602 1.490 . S
C1713 C52 1.493 . S
C1718 C634 1.492 . S
C1723 C76 1.490 . S
C1728 C296 1.492 . S
C1733 C98 1.492 . S
C1738 C318 1.490 . S
C1743 C128 1.491 . S
C1748 C282 1.491 . S
C1753 C524 1.491 . S
C1758 C142 1.491 . S
C1763 C480 1.490 . S
C1768 C164 1.492 . S
C1773 C502 1.491 . S
C1778 C194 1.493 . S
C1783 C206 1.490 . S
C1788 C700 1.492 . S
C1793 C228 1.490 . S
C1798 C714 1.492 . S
C1803 C678 1.491 . S
C1808 C250 1.491 . S
C1813 C568 1.492 . S
C1818 C340 1.493 . S
C1823 C582 1.490 . S
C1828 C370 1.491 . S
C1833 C384 1.493 . S
C1838 C538 1.493 . S
C1843 C406 1.491 . S
C1848 C778 1.491 . S
C1853 C744 1.493 . S
C1858 C428 1.492 . S
C1863 C756 1.491 . S
C1868 C450 1.490 . S
