# Generated by pormake.
# Topology une, (4)-cn, num edge types: 1
# Building blocks:
#     Node 0, Type 0, BuildingBlock: KUFVIS_clean_sbu_0, # of connection points: 4
#     Node 1, Type 0, BuildingBlock: KUFVIS_clean_sbu_0, # of connection points: 4
#     Node 2, Type 0, BuildingBlock: KUFVIS_clean_sbu_0, # of connection points: 4
#     Node 3, Type 0, BuildingBlock: KUFVIS_clean_sbu_0, # of connection points: 4
#     Node 4, Type 0, BuildingBlock: KUFVIS_clean_sbu_0, # of connection points: 4
#     Node 5, Type 0, BuildingBlock: KUFVIS_clean_sbu_0, # of connection points: 4
#     Node 6, Type 0, BuildingBlock: KUFVIS_clean_sbu_0, # of connection points: 4
#     Node 7, Type 0, BuildingBlock: KUFVIS_clean_sbu_0, # of connection points: 4
#     Node 8, Type 0, BuildingBlock: KUFVIS_clean_sbu_0, # of connection points: 4
#     Node 9, Type 0, BuildingBlock: KUFVIS_clean_sbu_0, # of connection points: 4
#     Node 10, Type 0, BuildingBlock: KUFVIS_clean_sbu_0, # of connection points: 4
#     Node 11, Type 0, BuildingBlock: KUFVIS_clean_sbu_0, # of connection points: 4
#     Node 12, Type 0, BuildingBlock: KUFVIS_clean_sbu_0, # of connection points: 4
#     Node 13, Type 0, BuildingBlock: KUFVIS_clean_sbu_0, # of connection points: 4
#     Node 14, Type 0, BuildingBlock: KUFVIS_clean_sbu_0, # of connection points: 4
#     Node 15, Type 0, BuildingBlock: KUFVIS_clean_sbu_0, # of connection points: 4
#     Node 16, Type 0, BuildingBlock: KUFVIS_clean_sbu_0, # of connection points: 4
#     Node 17, Type 0, BuildingBlock: KUFVIS_clean_sbu_0, # of connection points: 4
#     Edge 18, Type (0, 0), BuildingBlock: KIFKEQ_clean_linker_1, # of connection points: 2
#     Edge 19, Type (0, 0), BuildingBlock: KIFKEQ_clean_linker_1, # of connection points: 2
#     Edge 20, Type (0, 0), BuildingBlock: KIFKEQ_clean_linker_1, # of connection points: 2
#     Edge 21, Type (0, 0), BuildingBlock: KIFKEQ_clean_linker_1, # of connection points: 2
#     Edge 22, Type (0, 0), BuildingBlock: KIFKEQ_clean_linker_1, # of connection points: 2
#     Edge 23, Type (0, 0), BuildingBlock: KIFKEQ_clean_linker_1, # of connection points: 2
#     Edge 24, Type (0, 0), BuildingBlock: KIFKEQ_clean_linker_1, # of connection points: 2
#     Edge 25, Type (0, 0), BuildingBlock: KIFKEQ_clean_linker_1, # of connection points: 2
#     Edge 26, Type (0, 0), BuildingBlock: KIFKEQ_clean_linker_1, # of connection points: 2
#     Edge 27, Type (0, 0), BuildingBlock: KIFKEQ_clean_linker_1, # of connection points: 2
#     Edge 28, Type (0, 0), BuildingBlock: KIFKEQ_clean_linker_1, # of connection points: 2
#     Edge 29, Type (0, 0), BuildingBlock: KIFKEQ_clean_linker_1, # of connection points: 2
#     Edge 30, Type (0, 0), BuildingBlock: KIFKEQ_clean_linker_1, # of connection points: 2
#     Edge 31, Type (0, 0), BuildingBlock: KIFKEQ_clean_linker_1, # of connection points: 2
#     Edge 32, Type (0, 0), BuildingBlock: KIFKEQ_clean_linker_1, # of connection points: 2
#     Edge 33, Type (0, 0), BuildingBlock: KIFKEQ_clean_linker_1, # of connection points: 2
#     Edge 34, Type (0, 0), BuildingBlock: KIFKEQ_clean_linker_1, # of connection points: 2
#     Edge 35, Type (0, 0), BuildingBlock: KIFKEQ_clean_linker_1, # of connection points: 2
#     Edge 36, Type (0, 0), BuildingBlock: KIFKEQ_clean_linker_1, # of connection points: 2
#     Edge 37, Type (0, 0), BuildingBlock: KIFKEQ_clean_linker_1, # of connection points: 2
#     Edge 38, Type (0, 0), BuildingBlock: KIFKEQ_clean_linker_1, # of connection points: 2
#     Edge 39, Type (0, 0), BuildingBlock: KIFKEQ_clean_linker_1, # of connection points: 2
#     Edge 40, Type (0, 0), BuildingBlock: KIFKEQ_clean_linker_1, # of connection points: 2
#     Edge 41, Type (0, 0), BuildingBlock: KIFKEQ_clean_linker_1, # of connection points: 2
#     Edge 42, Type (0, 0), BuildingBlock: KIFKEQ_clean_linker_1, # of connection points: 2
#     Edge 43, Type (0, 0), BuildingBlock: KIFKEQ_clean_linker_1, # of connection points: 2
#     Edge 44, Type (0, 0), BuildingBlock: KIFKEQ_clean_linker_1, # of connection points: 2
#     Edge 45, Type (0, 0), BuildingBlock: KIFKEQ_clean_linker_1, # of connection points: 2
#     Edge 46, Type (0, 0), BuildingBlock: KIFKEQ_clean_linker_1, # of connection points: 2
#     Edge 47, Type (0, 0), BuildingBlock: KIFKEQ_clean_linker_1, # of connection points: 2
#     Edge 48, Type (0, 0), BuildingBlock: KIFKEQ_clean_linker_1, # of connection points: 2
#     Edge 49, Type (0, 0), BuildingBlock: KIFKEQ_clean_linker_1, # of connection points: 2
#     Edge 50, Type (0, 0), BuildingBlock: KIFKEQ_clean_linker_1, # of connection points: 2
#     Edge 51, Type (0, 0), BuildingBlock: KIFKEQ_clean_linker_1, # of connection points: 2
#     Edge 52, Type (0, 0), BuildingBlock: KIFKEQ_clean_linker_1, # of connection points: 2
#     Edge 53, Type (0, 0), BuildingBlock: KIFKEQ_clean_linker_1, # of connection points: 2
# Relax obj value: 0.248
# Max RMSD: 0.168
# Mean RMSD: 0.159
data_MOF--net-une--node1-KUFVIS_clean_sbu_0--edge1-KIFKEQ_clean_linker_1
_symmetry_space_group_name_H-M    P1
_symmetry_Int_Tables_number       1
_symmetry_cell_setting            triclinic
loop_
_symmetry_equiv_pos_as_xyz
'x, y, z'
_cell_length_a     38.386809
_cell_length_b     39.225633
_cell_length_c     53.60773
_cell_angle_alpha  89.522244
_cell_angle_beta   89.222172
_cell_angle_gamma 119.67576
loop_
_atom_site_label
_atom_site_type_symbol
_atom_site_fract_x
_atom_site_fract_y
_atom_site_fract_z
_atom_type_partial_charge
Mn0 Mn 0.38825 0.10015 0.07136 0.0
Mn1 Mn 0.41223 0.115 1.00962 0.0
C2 C 0.36725 0.13476 0.04681 0.0
C3 C 0.39645 0.12218 0.11256 0.0
C4 C 0.34513 0.03901 0.03123 0.0
O5 O 0.43239 0.08469 0.06841 0.0
O6 O 0.44482 0.09617 0.02691 0.0
C7 C 0.49408 0.18253 0.01464 0.0
N8 N 0.45674 0.16676 1.00496 0.0
C9 C 0.47402 0.22699 0.98299 0.0
C10 C 0.51276 0.24381 0.99259 0.0
C11 C 0.5228 0.22149 1.00852 0.0
C12 C 0.44673 0.18799 0.98968 0.0
H13 H 0.50182 0.16549 0.02698 0.0
C14 C 0.45034 0.08438 0.04803 0.0
O15 O 0.37495 0.08507 0.10764 0.0
O16 O 0.4183 0.14478 0.09424 0.0
N17 N 0.38298 0.133 0.99009 0.0
C18 C 0.3441 0.11262 0.98284 0.0
C19 C 0.32902 0.13097 0.96719 0.0
C20 C 0.35421 0.1698 0.95884 0.0
C21 C 0.39439 0.18982 0.96604 0.0
C22 C 0.40779 0.16995 0.98156 0.0
H23 H 0.32465 0.08275 0.98919 0.0
O24 O 0.34888 0.11851 0.06759 0.0
O25 O 0.39818 0.13106 0.04086 0.0
O26 O 0.35021 0.04908 0.05406 0.0
O27 O 0.36588 0.06157 0.01303 0.0
C28 C 0.42149 0.22892 0.95879 0.0
C29 C 0.46125 0.24753 0.96731 0.0
H30 H 0.53495 0.2739 0.98799 0.0
H31 H 0.55258 0.23432 0.0161 0.0
H32 H 0.29802 0.11526 0.96164 0.0
H33 H 0.34236 0.18398 0.94698 0.0
H34 H 0.41196 0.2451 0.94689 0.0
H35 H 0.48169 0.27773 0.96182 0.0
Mn36 Mn 0.90545 0.30197 0.0665 0.0
Mn37 Mn 0.87349 0.30644 1.00844 0.0
C38 C 0.85995 0.24542 0.04701 0.0
C39 C 0.89792 0.29468 0.10986 0.0
C40 C 0.95081 0.30729 0.0178 0.0
O41 O 0.92631 0.36148 0.06219 0.0
O42 O 0.90456 0.35918 0.02303 0.0
C43 C 0.81601 0.3315 0.0253 0.0
N44 N 0.82372 0.30593 0.01264 0.0
C45 C 0.75479 0.26781 1.0007 0.0
C46 C 0.74616 0.29391 0.01346 0.0
C47 C 0.77689 0.32583 0.02587 0.0
C48 C 0.79429 0.27489 1.00087 0.0
H49 H 0.83951 0.35596 0.03494 0.0
C50 C 0.92377 0.37817 0.04212 0.0
O51 O 0.93258 0.30665 0.09893 0.0
O52 O 0.87013 0.29424 0.09609 0.0
N53 N 0.84323 0.25831 0.99115 0.0
C54 C 0.85689 0.23675 0.97894 0.0
C55 C 0.82998 0.20385 0.96543 0.0
C56 C 0.78959 0.1941 0.96405 0.0
C57 C 0.77655 0.21758 0.976 0.0
C58 C 0.80478 0.25006 0.98914 0.0
H59 H 0.88801 0.24437 0.97973 0.0
O60 O 0.88096 0.2444 0.06527 0.0
O61 O 0.8644 0.27969 0.04098 0.0
O62 O 0.94851 0.3076 0.04156 0.0
O63 O 0.92416 0.306 1.00317 0.0
C64 C 0.73664 0.20998 0.97547 0.0
C65 C 0.72574 0.23499 0.9879 0.0
H66 H 0.71604 0.28966 0.01392 0.0
H67 H 0.77044 0.346 0.03585 0.0
H68 H 0.84036 0.1861 0.95607 0.0
H69 H 0.76891 0.16868 0.95365 0.0
H70 H 0.71409 0.18492 0.96561 0.0
H71 H 0.69493 0.22876 0.98744 0.0
Mn72 Mn 0.69827 0.60451 0.06818 0.0
Mn73 Mn 0.69349 0.57712 1.0079 0.0
C74 C 0.75575 0.6204 0.04551 0.0
C75 C 0.70886 0.6011 0.11067 0.0
C76 C 0.68722 0.64743 0.02366 0.0
O77 O 0.63812 0.56345 0.06529 0.0
O78 O 0.64026 0.54943 0.02465 0.0
C79 C 0.67471 0.49557 0.01874 0.0
N80 N 0.69832 0.53093 1.00721 0.0
C81 C 0.74027 0.50806 0.98864 0.0
C82 C 0.71624 0.47128 1.00018 0.0
C83 C 0.68339 0.46506 0.01536 0.0
C84 C 0.7302 0.53734 0.99276 0.0
H85 H 0.64952 0.49074 0.03046 0.0
C86 C 0.6212 0.54573 0.04514 0.0
O87 O 0.69359 0.62194 0.10228 0.0
O88 O 0.71009 0.5764 0.09519 0.0
N89 N 0.74246 0.60146 0.98876 0.0
C90 C 0.76252 0.6386 0.97898 0.0
C91 C 0.79592 0.64958 0.96315 0.0
C92 C 0.80814 0.62219 0.95731 0.0
C93 C 0.78658 0.58392 0.96724 0.0
C94 C 0.75317 0.57452 0.98264 0.0
H95 H 0.75306 0.6597 0.98321 0.0
O96 O 0.7567 0.6403 0.0648 0.0
O97 O 0.7211 0.59084 0.03986 0.0
O98 O 0.68869 0.64225 0.04703 0.0
O99 O 0.68933 0.62529 1.00706 0.0
C100 C 0.79702 0.55478 0.96258 0.0
C101 C 0.774 0.51693 0.97338 0.0
H102 H 0.72285 0.44768 0.99763 0.0
H103 H 0.66482 0.43681 0.02442 0.0
H104 H 0.81194 0.67899 0.95532 0.0
H105 H 0.83391 0.63079 0.94506 0.0
H106 H 0.82287 0.56125 0.95087 0.0
H107 H 0.78253 0.49487 0.96984 0.0
Mn108 Mn 0.6275 0.91041 0.95505 0.0
Mn109 Mn 0.61561 0.89264 0.01714 0.0
C110 C 0.65367 0.87583 0.97501 0.0
C111 C 0.61429 0.88852 0.91393 0.0
C112 C 0.67546 0.97103 0.99446 0.0
O113 O 0.58134 0.92191 0.96309 0.0
O114 O 0.57913 0.91078 1.00476 0.0
C115 C 0.53379 0.82389 0.01601 0.0
N116 N 0.57294 0.84 0.02244 0.0
C117 C 0.56178 0.77839 0.03955 0.0
C118 C 0.52126 0.7612 0.03328 0.0
C119 C 0.50723 0.78405 0.02144 0.0
C120 C 0.58677 0.81827 0.03381 0.0
H121 H 0.52296 0.84126 1.00673 0.0
C122 C 0.5678 0.92159 0.9853 0.0
O123 O 0.63467 0.92583 0.91863 0.0
O124 O 0.59556 0.86559 0.93281 0.0
N125 N 0.64932 0.87477 0.03138 0.0
C126 C 0.68942 0.8956 0.03563 0.0
C127 C 0.70827 0.87697 0.04723 0.0
C128 C 0.68569 0.83721 0.05439 0.0
C129 C 0.64438 0.81651 0.05006 0.0
C130 C 0.62715 0.83678 0.03875 0.0
H131 H 0.70692 0.92609 0.03003 0.0
O132 O 0.66966 0.89458 0.95436 0.0
O133 O 0.62368 0.87872 0.98381 0.0
O134 O 0.66557 0.96196 0.97183 0.0
O135 O 0.66045 0.94687 0.01291 0.0
C136 C 0.61972 0.77644 0.05623 0.0
C137 C 0.57847 0.75738 0.05093 0.0
H138 H 0.50073 0.73043 0.0373 0.0
H139 H 0.47605 0.77095 0.01642 0.0
H140 H 0.74017 0.89314 0.0505 0.0
H141 H 0.70041 0.82287 0.06314 0.0
H142 H 0.63226 0.75993 0.06483 0.0
H143 H 0.55989 0.72647 0.05554 0.0
Mn144 Mn 0.08208 0.70238 0.95482 0.0
Mn145 Mn 0.04627 0.76294 0.93946 0.0
C146 C 0.02662 0.69829 0.97513 0.0
C147 C 0.07697 0.64031 0.95532 0.0
C148 C 0.11919 0.78767 0.97113 0.0
O149 O 0.11055 0.72496 0.92058 0.0
O150 O 0.0834 0.76382 0.9133 0.0
C151 C 0.99774 0.71764 0.89679 0.0
N152 N 0.00036 0.73475 0.9192 0.0
C153 C 0.93034 0.71559 0.91904 0.0
C154 C 0.92692 0.69798 0.89586 0.0
C155 C 0.96074 0.69887 0.88475 0.0
C156 C 0.96788 0.73352 0.93024 0.0
H157 H 0.02366 0.71826 0.88823 0.0
C158 C 0.10675 0.75049 0.90737 0.0
O159 O 0.10926 0.67112 0.96275 0.0
O160 O 0.05156 0.64701 0.94366 0.0
N161 N 0.00998 0.76542 0.96318 0.0
C162 C 0.01838 0.78373 0.98558 0.0
C163 C 0.98801 0.78615 0.99895 0.0
C164 C 0.94949 0.77009 0.98905 0.0
C165 C 0.94154 0.75138 0.96597 0.0
C166 C 0.97313 0.7503 0.95336 0.0
H167 H 0.04802 0.79644 0.99317 0.0
O168 O 0.04793 0.6855 0.98584 0.0
O169 O 0.03824 0.71335 0.95292 0.0
O170 O 0.11976 0.75545 0.97012 0.0
O171 O 0.09264 0.79339 0.96083 0.0
C172 C 0.90365 0.7341 0.95487 0.0
C173 C 0.89799 0.71601 0.93148 0.0
H174 H 0.89847 0.68359 0.88648 0.0
H175 H 0.95831 0.6852 0.86692 0.0
H176 H 0.99436 0.8006 0.01676 0.0
H177 H 0.92634 0.77258 0.99926 0.0
H178 H 0.87869 0.73453 0.96422 0.0
H179 H 0.86869 0.70265 0.92316 0.0
Mn180 Mn 0.27926 0.37489 0.94245 0.0
Mn181 Mn 0.26881 0.38718 1.00379 0.0
C182 C 0.21685 0.34893 0.96153 0.0
C183 C 0.2715 0.38685 0.90066 0.0
C184 C 0.28959 0.32744 0.9843 0.0
O185 O 0.3363 0.4201 0.95029 0.0
O186 O 0.32427 0.4223 0.99153 0.0
C187 C 0.28064 0.46752 0.99915 0.0
N188 N 0.25772 0.42943 1.00684 0.0
C189 C 0.2059 0.44159 0.02253 0.0
C190 C 0.22911 0.48103 0.01497 0.0
C191 C 0.2666 0.49402 1.00319 0.0
C192 C 0.22151 0.41658 0.01807 0.0
H193 H 0.30931 0.47757 0.98991 0.0
C194 C 0.34783 0.43339 0.97237 0.0
O195 O 0.28951 0.36725 0.90654 0.0
O196 O 0.26657 0.40604 0.91859 0.0
N197 N 0.21638 0.35495 0.01815 0.0
C198 C 0.19747 0.31588 0.02395 0.0
C199 C 0.15958 0.29821 0.03586 0.0
C200 C 0.14168 0.32092 0.04181 0.0
C201 C 0.16189 0.36114 0.03588 0.0
C202 C 0.19982 0.37723 0.02433 0.0
H203 H 0.21106 0.2983 0.01936 0.0
O204 O 0.2217 0.3335 0.94159 0.0
O205 O 0.24859 0.37876 0.97013 0.0
O206 O 0.2925 0.3374 0.9613 0.0
O207 O 0.27908 0.34274 1.00174 0.0
C208 C 0.14575 0.38583 0.04078 0.0
C209 C 0.16769 0.42601 0.03404 0.0
H210 H 0.21832 0.50152 0.01797 0.0
H211 H 0.28458 0.52436 0.99717 0.0
H212 H 0.14416 0.26714 0.04037 0.0
H213 H 0.11243 0.30718 0.05094 0.0
H214 H 0.11635 0.37416 0.04952 0.0
H215 H 0.15481 0.44463 0.03769 0.0
Mn216 Mn 0.06236 0.44014 0.40504 0.0
Mn217 Mn 0.08315 0.45331 0.34291 0.0
C218 C 0.03776 0.47169 0.38062 0.0
C219 C 0.07166 0.46382 0.44583 0.0
C220 C 0.0196 0.37676 0.36613 0.0
O221 O 0.10812 0.4271 0.40146 0.0
O222 O 0.11841 0.43728 0.35974 0.0
C223 C 0.16372 0.52338 0.34604 0.0
N224 N 0.12579 0.50575 0.33713 0.0
C225 C 0.13924 0.56427 0.31436 0.0
C226 C 0.17855 0.58301 0.32316 0.0
C227 C 0.1908 0.56249 0.33911 0.0
C228 C 0.11365 0.52524 0.32184 0.0
H229 H 0.17317 0.50771 0.35837 0.0
C230 C 0.1255 0.42676 0.38083 0.0
O231 O 0.05135 0.42637 0.44159 0.0
O232 O 0.092 0.48611 0.42701 0.0
N233 N 0.05121 0.46855 0.3238 0.0
C234 C 0.01203 0.44649 0.31746 0.0
C235 C 0.9948 0.46293 0.30195 0.0
C236 C 0.01819 0.50159 0.29281 0.0
C237 C 0.05871 0.52337 0.2991 0.0
C238 C 0.07427 0.50538 0.31453 0.0
H239 H 0.99398 0.41673 0.32442 0.0
O240 O 0.02082 0.4558 0.40179 0.0
O241 O 0.06939 0.46946 0.37422 0.0
O242 O 0.02527 0.38777 0.38877 0.0
O243 O 0.03871 0.39908 0.34746 0.0
C244 C 0.0841 0.56246 0.29103 0.0
C245 C 0.1243 0.58293 0.29871 0.0
H246 H 0.19949 0.61321 0.31793 0.0
H247 H 0.22104 0.5768 0.34607 0.0
H248 H 0.96354 0.44588 0.29711 0.0
H249 H 0.0047 0.5143 0.28104 0.0
H250 H 0.0729 0.57719 0.27913 0.0
H251 H 0.1434 0.6131 0.2926 0.0
Mn252 Mn 0.57317 0.64056 0.40171 0.0
Mn253 Mn 0.54202 0.64265 0.34325 0.0
C254 C 0.53159 0.5832 0.38155 0.0
C255 C 0.56336 0.63092 0.44485 0.0
C256 C 0.62195 0.65052 0.35371 0.0
O257 O 0.58928 0.69898 0.39797 0.0
O258 O 0.57127 0.69575 0.35777 0.0
C259 C 0.48206 0.66508 0.35918 0.0
N260 N 0.49112 0.63995 0.34712 0.0
C261 C 0.42213 0.59825 0.33631 0.0
C262 C 0.41212 0.62383 0.34848 0.0
C263 C 0.44222 0.65736 0.35999 0.0
C264 C 0.46233 0.60744 0.33616 0.0
H265 H 0.50503 0.69075 0.36818 0.0
C266 C 0.58802 0.71517 0.37732 0.0
O267 O 0.59906 0.64591 0.43476 0.0
O268 O 0.53544 0.62884 0.43051 0.0
N269 N 0.51342 0.59394 0.32629 0.0
C270 C 0.52845 0.5735 0.31412 0.0
C271 C 0.50232 0.53928 0.30141 0.0
C272 C 0.46121 0.52699 0.3008 0.0
C273 C 0.44673 0.54948 0.31251 0.0
C274 C 0.47423 0.58337 0.32484 0.0
H275 H 0.56005 0.58292 0.31446 0.0
O276 O 0.55346 0.58359 0.39969 0.0
O277 O 0.53339 0.61639 0.37577 0.0
O278 O 0.61883 0.65166 0.37739 0.0
O279 O 0.59398 0.64438 0.33859 0.0
C280 C 0.4061 0.53964 0.31243 0.0
C281 C 0.39379 0.56395 0.32439 0.0
H282 H 0.38142 0.61799 0.34914 0.0
H283 H 0.43471 0.67718 0.3695 0.0
H284 H 0.51382 0.52235 0.29217 0.0
H285 H 0.4411 0.50044 0.29113 0.0
H286 H 0.38409 0.51347 0.30321 0.0
H287 H 0.36247 0.55606 0.32422 0.0
Mn288 Mn 0.3662 0.93492 0.40105 0.0
Mn289 Mn 0.36969 0.91644 0.33982 0.0
C290 C 0.42661 0.95835 0.37973 0.0
C291 C 0.37593 0.92828 0.44337 0.0
C292 C 0.35435 0.98011 0.35813 0.0
O293 O 0.30805 0.8897 0.39614 0.0
O294 O 0.31555 0.88471 0.35472 0.0
C295 C 0.35479 0.83538 0.34754 0.0
N296 N 0.37747 0.87205 0.33744 0.0
C297 C 0.42267 0.85395 0.31795 0.0
C298 C 0.39953 0.81585 0.3279 0.0
C299 C 0.36554 0.80659 0.34286 0.0
C300 C 0.41055 0.88142 0.32334 0.0
H301 H 0.32878 0.82821 0.35914 0.0
C302 C 0.294 0.87527 0.3747 0.0
O303 O 0.35787 0.94712 0.43603 0.0
O304 O 0.3806 0.90696 0.42674 0.0
N305 N 0.42006 0.94477 0.3224 0.0
C306 C 0.43953 0.98303 0.31465 0.0
C307 C 0.47392 0.99703 0.29931 0.0
C308 C 0.48784 0.97152 0.29196 0.0
C309 C 0.46721 0.9322 0.30006 0.0
C310 C 0.4327 0.91977 0.315 0.0
H311 H 0.42888 0.00272 0.32012 0.0
O312 O 0.42377 0.97558 0.39942 0.0
O313 O 0.39406 0.92761 0.37265 0.0
O314 O 0.35219 0.97105 0.38123 0.0
O315 O 0.36277 0.963 0.34082 0.0
C316 C 0.47959 0.90489 0.29399 0.0
C317 C 0.45749 0.86585 0.30307 0.0
H318 H 0.40772 0.79356 0.32433 0.0
H319 H 0.34769 0.77734 0.35076 0.0
H320 H 0.48934 0.02731 0.29301 0.0
H321 H 0.51427 0.98235 0.28001 0.0
H322 H 0.50627 0.91368 0.28255 0.0
H323 H 0.46756 0.84523 0.29853 0.0
Mn324 Mn 0.30216 0.2494 0.29048 0.0
Mn325 Mn 0.28017 0.22818 0.35194 0.0
C326 C 0.32159 0.21029 0.31187 0.0
C327 C 0.29513 0.23331 0.24818 0.0
C328 C 0.34598 0.30645 0.3325 0.0
O329 O 0.25761 0.26422 0.29602 0.0
O330 O 0.2473 0.24875 0.33726 0.0
C331 C 0.19761 0.16175 0.34711 0.0
N332 N 0.2355 0.17633 0.35572 0.0
C333 C 0.21845 0.11458 0.3755 0.0
C334 C 0.17915 0.09895 0.367 0.0
C335 C 0.16873 0.12262 0.35268 0.0
C336 C 0.24588 0.1538 0.36943 0.0
H337 H 0.18955 0.17985 0.33607 0.0
C338 C 0.24046 0.26236 0.31726 0.0
O339 O 0.31619 0.26946 0.25526 0.0
O340 O 0.27255 0.20802 0.26524 0.0
N341 N 0.31019 0.20796 0.36841 0.0
C342 C 0.34993 0.22682 0.37379 0.0
C343 C 0.36565 0.20677 0.38722 0.0
C344 C 0.34028 0.16778 0.39521 0.0
C345 C 0.29938 0.14917 0.38969 0.0
C346 C 0.28543 0.17063 0.37627 0.0
H347 H 0.36949 0.25681 0.3677 0.0
O348 O 0.34116 0.22981 0.2921 0.0
O349 O 0.29172 0.21479 0.31905 0.0
O350 O 0.34008 0.2984 0.30944 0.0
O351 O 0.32648 0.28188 0.3501 0.0
C352 C 0.27203 0.10998 0.39661 0.0
C353 C 0.23165 0.09263 0.38942 0.0
H354 H 0.15684 0.06874 0.37117 0.0
H355 H 0.13852 0.11071 0.34595 0.0
H356 H 0.39725 0.22132 0.39139 0.0
H357 H 0.35255 0.15233 0.40543 0.0
H358 H 0.28186 0.09275 0.40719 0.0
H359 H 0.21108 0.06227 0.39449 0.0
Mn360 Mn 0.75311 0.04094 0.29049 0.0
Mn361 Mn 0.72074 0.10464 0.27625 0.0
C362 C 0.69975 0.03968 0.31172 0.0
C363 C 0.74481 0.97757 0.29079 0.0
C364 C 0.79377 0.12629 0.30713 0.0
O365 O 0.78041 0.06218 0.25582 0.0
O366 O 0.75669 0.10419 0.24971 0.0
C367 C 0.67083 0.06152 0.23347 0.0
N368 N 0.67438 0.0783 0.25611 0.0
C369 C 0.60526 0.06236 0.25623 0.0
C370 C 0.60094 0.0452 0.2328 0.0
C371 C 0.63383 0.0446 0.22144 0.0
C372 C 0.64274 0.07841 0.2674 0.0
H373 H 0.69604 0.06102 0.2247 0.0
C374 C 0.77803 0.08893 0.24308 0.0
O375 O 0.77817 0.00755 0.29781 0.0
O376 O 0.71997 0.98563 0.27964 0.0
N377 N 0.68559 0.10829 0.30038 0.0
C378 C 0.69464 0.12567 0.32308 0.0
C379 C 0.66495 0.1285 0.33699 0.0
C380 C 0.62645 0.11391 0.32729 0.0
C381 C 0.61795 0.0965 0.30378 0.0
C382 C 0.64879 0.09466 0.29073 0.0
H383 H 0.7242 0.13706 0.33059 0.0
O384 O 0.72032 0.0257 0.32203 0.0
O385 O 0.71087 0.05425 0.28938 0.0
O386 O 0.79322 0.09359 0.3054 0.0
O387 O 0.76759 0.13324 0.29753 0.0
C388 C 0.58018 0.08118 0.2927 0.0
C389 C 0.57384 0.06412 0.26893 0.0
H390 H 0.57248 0.03225 0.22343 0.0
H391 H 0.63069 0.03123 0.20343 0.0
H392 H 0.67176 0.142 0.35511 0.0
H393 H 0.60372 0.11641 0.33799 0.0
H394 H 0.55586 0.08242 0.30233 0.0
H395 H 0.5447 0.05245 0.26056 0.0
Mn396 Mn 0.9468 0.70787 0.27487 0.0
Mn397 Mn 0.94534 0.72649 0.33616 0.0
C398 C 0.88745 0.68936 0.29614 0.0
C399 C 0.93753 0.71719 0.23294 0.0
C400 C 0.95486 0.65966 0.31722 0.0
O401 O 0.00613 0.74936 0.28002 0.0
O402 O 0.00041 0.75505 0.32169 0.0
C403 C 0.96825 0.81016 0.33014 0.0
N404 N 0.94221 0.77342 0.33909 0.0
C405 C 0.89983 0.79564 0.35784 0.0
C406 C 0.92635 0.83377 0.34898 0.0
C407 C 0.96064 0.84102 0.33501 0.0
C408 C 0.909 0.76608 0.35242 0.0
H409 H 0.99459 0.81585 0.31937 0.0
C410 C 0.02121 0.76277 0.30145 0.0
O411 O 0.95287 0.6954 0.23936 0.0
O412 O 0.93595 0.73939 0.25018 0.0
N413 N 0.89396 0.70086 0.35272 0.0
C414 C 0.87065 0.66219 0.35906 0.0
C415 C 0.83457 0.64979 0.37249 0.0
C416 C 0.82319 0.67734 0.3796 0.0
C417 C 0.84806 0.71709 0.37326 0.0
C418 C 0.88362 0.7277 0.35982 0.0
H419 H 0.87933 0.64094 0.35367 0.0
O420 O 0.88819 0.67088 0.27653 0.0
O421 O 0.92158 0.71797 0.3033 0.0
O422 O 0.95708 0.66883 0.29415 0.0
O423 O 0.94784 0.67754 0.3347 0.0
C424 C 0.83872 0.74653 0.37944 0.0
C425 C 0.86447 0.78573 0.37162 0.0
H426 H 0.92055 0.85764 0.35266 0.0
H427 H 0.98116 0.87033 0.32801 0.0
H428 H 0.81556 0.61907 0.37733 0.0
H429 H 0.79523 0.66764 0.38983 0.0
H430 H 0.8116 0.73929 0.38999 0.0
H431 H 0.85667 0.808 0.3762 0.0
Mn432 Mn 0.72055 0.76535 0.73879 0.0
Mn433 Mn 0.751 0.78865 0.67835 0.0
C434 C 0.70203 0.80309 0.7155 0.0
C435 C 0.7229 0.78024 0.78115 0.0
C436 C 0.68178 0.71038 0.6949 0.0
O437 O 0.76498 0.75027 0.73604 0.0
O438 O 0.78102 0.7665 0.69524 0.0
C439 C 0.83215 0.85415 0.68869 0.0
N440 N 0.79609 0.84057 0.67756 0.0
C441 C 0.81572 0.90459 0.66037 0.0
C442 C 0.85318 0.91921 0.67153 0.0
C443 C 0.86139 0.89388 0.68578 0.0
C444 C 0.7878 0.86473 0.66391 0.0
H445 H 0.83847 0.83481 0.69977 0.0
C446 C 0.78453 0.75207 0.71591 0.0
O447 O 0.70265 0.74429 0.77354 0.0
O448 O 0.74717 0.806 0.76485 0.0
N449 N 0.72455 0.81024 0.65926 0.0
C450 C 0.68726 0.79128 0.64936 0.0
C451 C 0.67432 0.81243 0.63454 0.0
C452 C 0.70008 0.85263 0.62973 0.0
C453 C 0.73878 0.87119 0.63946 0.0
C454 C 0.75011 0.84854 0.65394 0.0
H455 H 0.66739 0.76036 0.65298 0.0
O456 O 0.68144 0.78404 0.73509 0.0
O457 O 0.73369 0.80038 0.71006 0.0
O458 O 0.68514 0.71738 0.7182 0.0
O459 O 0.70398 0.73522 0.678 0.0
C460 C 0.76647 0.91134 0.63553 0.0
C461 C 0.80487 0.92805 0.64604 0.0
H462 H 0.87578 0.94986 0.66937 0.0
H463 H 0.89017 0.90498 0.69453 0.0
H464 H 0.64451 0.79782 0.62694 0.0
H465 H 0.68987 0.86892 0.61849 0.0
H466 H 0.75847 0.92967 0.62457 0.0
H467 H 0.82583 0.959 0.643 0.0
Mn468 Mn 0.23985 0.97432 0.73735 0.0
Mn469 Mn 0.20899 0.97448 0.67853 0.0
C470 C 0.19833 0.91623 0.71778 0.0
C471 C 0.22977 0.96564 0.78052 0.0
C472 C 0.28908 0.98326 0.68976 0.0
O473 O 0.25577 0.03265 0.73274 0.0
O474 O 0.23776 0.02805 0.69245 0.0
C475 C 0.14841 0.99672 0.6933 0.0
N476 N 0.15787 0.97146 0.68178 0.0
C477 C 0.08913 0.92914 0.67071 0.0
C478 C 0.0787 0.95484 0.68231 0.0
C479 C 0.10847 0.98874 0.69369 0.0
C480 C 0.1294 0.9386 0.67096 0.0
H481 H 0.17113 0.02267 0.7022 0.0
C482 C 0.25441 0.04815 0.7118 0.0
O483 O 0.26554 0.9806 0.77056 0.0
O484 O 0.20192 0.96318 0.76596 0.0
N485 N 0.18087 0.92521 0.66212 0.0
C486 C 0.19625 0.90454 0.65064 0.0
C487 C 0.17047 0.86992 0.63816 0.0
C488 C 0.12935 0.85744 0.6371 0.0
C489 C 0.11451 0.88011 0.64814 0.0
C490 C 0.14168 0.9144 0.66024 0.0
H491 H 0.22785 0.91409 0.65133 0.0
O492 O 0.22029 0.91726 0.73605 0.0
O493 O 0.20019 0.94924 0.71143 0.0
O494 O 0.28576 0.98497 0.71337 0.0
O495 O 0.26118 0.97653 0.67445 0.0
C496 C 0.07383 0.87002 0.64764 0.0
C497 C 0.06112 0.89445 0.65898 0.0
H498 H 0.04793 0.9488 0.68265 0.0
H499 H 0.10065 0.00865 0.70276 0.0
H500 H 0.18224 0.85282 0.62946 0.0
H501 H 0.10951 0.83058 0.62762 0.0
H502 H 0.05207 0.84353 0.63858 0.0
H503 H 0.02976 0.88635 0.65851 0.0
Mn504 Mn 0.03287 0.27179 0.73477 0.0
Mn505 Mn 0.03209 0.24952 0.67376 0.0
C506 C 0.09183 0.29325 0.7122 0.0
C507 C 0.04434 0.26699 0.77703 0.0
C508 C 0.01904 0.31503 0.69154 0.0
O509 O 0.97388 0.22715 0.73114 0.0
O510 O 0.97906 0.21827 0.68998 0.0
C511 C 0.01862 0.16926 0.68285 0.0
N512 N 0.04034 0.20539 0.67185 0.0
C513 C 0.08511 0.18697 0.65209 0.0
C514 C 0.06291 0.14939 0.66295 0.0
C515 C 0.02963 0.14056 0.67849 0.0
C516 C 0.07276 0.21437 0.65719 0.0
H517 H 0.99322 0.16247 0.69493 0.0
C518 C 0.95867 0.21073 0.71031 0.0
O519 O 0.02652 0.28599 0.76958 0.0
O520 O 0.04769 0.24445 0.76072 0.0
N521 N 0.0813 0.27734 0.65509 0.0
C522 C 0.09967 0.31505 0.64627 0.0
C523 C 0.13339 0.32859 0.63033 0.0
C524 C 0.14762 0.30314 0.62344 0.0
C525 C 0.12786 0.26428 0.63243 0.0
C526 C 0.09406 0.2523 0.64797 0.0
H527 H 0.08856 0.33461 0.65127 0.0
O528 O 0.09066 0.3114 0.73187 0.0
O529 O 0.05853 0.26253 0.70601 0.0
O530 O 0.01953 0.30809 0.71477 0.0
O531 O 0.0244 0.29567 0.67431 0.0
C532 C 0.14044 0.23702 0.62666 0.0
C533 C 0.11924 0.19846 0.63663 0.0
H534 H 0.07132 0.12719 0.65964 0.0
H535 H 0.01252 0.11173 0.6871 0.0
H536 H 0.14804 0.35843 0.62318 0.0
H537 H 0.17356 0.31357 0.61111 0.0
H538 H 0.16658 0.24549 0.61476 0.0
H539 H 0.12946 0.17789 0.6323 0.0
Mn540 Mn 0.97047 0.586 0.62238 0.0
Mn541 Mn 0.94587 0.56044 0.68313 0.0
C542 C 0.99026 0.54664 0.64301 0.0
C543 C 0.9648 0.57183 0.57982 0.0
C544 C 0.01116 0.64077 0.6659 0.0
O545 O 0.92495 0.59945 0.62819 0.0
O546 O 0.91175 0.57986 0.66877 0.0
C547 C 0.86534 0.49196 0.67576 0.0
N548 N 0.90295 0.50739 0.68497 0.0
C549 C 0.88905 0.44429 0.70099 0.0
C550 C 0.85006 0.42777 0.69182 0.0
C551 C 0.83818 0.45171 0.67912 0.0
C552 C 0.91472 0.48461 0.69717 0.0
H553 H 0.85622 0.51023 0.66583 0.0
C554 C 0.90596 0.59503 0.6491 0.0
O555 O 0.98525 0.60772 0.58752 0.0
O556 O 0.94196 0.54575 0.59642 0.0
N557 N 0.97703 0.54116 0.69923 0.0
C558 C 0.016 0.56151 0.70628 0.0
C559 C 0.03275 0.5418 0.71903 0.0
C560 C 0.00921 0.50148 0.72449 0.0
C561 C 0.96903 0.48127 0.71728 0.0
C562 C 0.95386 0.50257 0.70492 0.0
H563 H 0.0342 0.5925 0.70209 0.0
O564 O 0.01023 0.56719 0.62365 0.0
O565 O 0.95982 0.5502 0.65008 0.0
O566 O 0.00709 0.63391 0.64261 0.0
O567 O 0.99059 0.61522 0.68284 0.0
C568 C 0.9436 0.44074 0.72161 0.0
C569 C 0.90367 0.42224 0.71341 0.0
H570 H 0.82909 0.3967 0.69426 0.0
H571 H 0.80821 0.43913 0.67188 0.0
H572 H 0.06377 0.55761 0.72454 0.0
H573 H 0.02232 0.48633 0.73414 0.0
H574 H 0.95457 0.42343 0.73098 0.0
H575 H 0.88454 0.39098 0.71659 0.0
Mn576 Mn 0.41575 0.37201 0.62014 0.0
Mn577 Mn 0.38161 0.4333 0.60303 0.0
C578 C 0.36198 0.37117 0.64056 0.0
C579 C 0.40828 0.30889 0.62243 0.0
C580 C 0.45543 0.45867 0.63385 0.0
O581 O 0.44309 0.39147 0.58531 0.0
O582 O 0.41769 0.43158 0.57714 0.0
C583 C 0.33164 0.38656 0.56123 0.0
N584 N 0.33512 0.40486 0.58328 0.0
C585 C 0.2658 0.38826 0.58291 0.0
C586 C 0.26152 0.36943 0.56011 0.0
C587 C 0.29454 0.36841 0.54929 0.0
C588 C 0.30338 0.40546 0.59404 0.0
H589 H 0.35699 0.38585 0.55285 0.0
C590 C 0.43995 0.41688 0.57156 0.0
O591 O 0.4414 0.33957 0.62903 0.0
O592 O 0.38321 0.31591 0.61066 0.0
N593 N 0.34636 0.43815 0.62648 0.0
C594 C 0.35542 0.4572 0.64862 0.0
C595 C 0.32563 0.46068 0.66195 0.0
C596 C 0.28702 0.44503 0.65221 0.0
C597 C 0.27852 0.42591 0.62927 0.0
C598 C 0.30945 0.42345 0.61679 0.0
H599 H 0.38508 0.46942 0.65613 0.0
O600 O 0.38302 0.35841 0.65165 0.0
O601 O 0.37282 0.38428 0.61791 0.0
O602 O 0.45537 0.42608 0.63365 0.0
O603 O 0.42863 0.46417 0.62372 0.0
C604 C 0.24067 0.40947 0.6182 0.0
C605 C 0.23429 0.39063 0.59504 0.0
H606 H 0.23299 0.35555 0.5508 0.0
H607 H 0.29143 0.35381 0.53175 0.0
H608 H 0.33245 0.47551 0.67963 0.0
H609 H 0.26422 0.44805 0.66245 0.0
H610 H 0.21631 0.41121 0.62737 0.0
H611 H 0.20503 0.37806 0.58671 0.0
Mn612 Mn 0.61316 0.03995 0.60999 0.0
Mn613 Mn 0.61553 0.066 0.67022 0.0
C614 C 0.55501 0.02356 0.63205 0.0
C615 C 0.60218 0.04573 0.56773 0.0
C616 C 0.62549 0.99771 0.65427 0.0
O617 O 0.673 0.08162 0.61363 0.0
O618 O 0.66941 0.09486 0.65435 0.0
C619 C 0.634 0.14774 0.66071 0.0
N620 N 0.60985 0.11167 0.67125 0.0
C621 C 0.56639 0.13305 0.6894 0.0
C622 C 0.59091 0.17051 0.67886 0.0
C623 C 0.6248 0.17784 0.66439 0.0
C624 C 0.5771 0.10425 0.68511 0.0
H625 H 0.66006 0.15345 0.64958 0.0
C626 C 0.68913 0.09905 0.63405 0.0
O627 O 0.61738 0.02417 0.57495 0.0
O628 O 0.60149 0.06943 0.58417 0.0
N629 N 0.5653 0.04017 0.68807 0.0
C630 C 0.54393 0.00205 0.69604 0.0
C631 C 0.50844 0.98953 0.71015 0.0
C632 C 0.49569 0.01645 0.71625 0.0
C633 C 0.51861 0.05569 0.70823 0.0
C634 C 0.55367 0.06644 0.69419 0.0
H635 H 0.55373 0.98133 0.69144 0.0
O636 O 0.55459 0.00344 0.61303 0.0
O637 O 0.58955 0.05286 0.63796 0.0
O638 O 0.62373 0.00243 0.63084 0.0
O639 O 0.62116 0.01871 0.67079 0.0
C640 C 0.50778 0.08445 0.71329 0.0
C641 C 0.53154 0.12304 0.70378 0.0
H642 H 0.58388 0.19378 0.68161 0.0
H643 H 0.64379 0.20663 0.65611 0.0
H644 H 0.49095 0.95921 0.71631 0.0
H645 H 0.46818 0.00664 0.72702 0.0
H646 H 0.48102 0.07711 0.72428 0.0
H647 H 0.52258 0.14474 0.70752 0.0
H648 H 0.52431 0.10909 0.02738 0.0
H649 H 0.42273 0.00823 0.06108 0.0
H650 H 0.54905 0.06721 0.0107 0.0
H651 H 0.44558 0.96571 0.04327 0.0
H652 H 0.51293 0.90103 0.02297 0.0
H653 H 0.48775 0.94086 0.04122 0.0
H654 H 0.53895 0.02331 0.97926 0.0
H655 H 0.56669 0.98408 0.96182 0.0
C656 C 0.508 0.07799 0.03194 0.0
C657 C 0.4722 0.06216 0.04621 0.0
C658 C 0.52151 0.05367 0.02173 0.0
C659 C 0.49906 0.01256 0.02494 0.0
C660 C 0.46426 0.99705 0.04041 0.0
C661 C 0.45124 0.02154 0.05103 0.0
C662 C 0.51814 0.92725 0.01287 0.0
C663 C 0.54202 0.93928 0.99087 0.0
C664 C 0.50357 0.95033 0.02344 0.0
C665 C 0.51173 0.98614 0.0122 0.0
C666 C 0.53296 0.99666 0.98905 0.0
C667 C 0.54807 0.97362 0.97858 0.0
H668 H 0.89861 0.42679 0.02396 0.0
H669 H 0.00475 0.42556 0.04772 0.0
H670 H 0.93994 0.49003 1.00316 0.0
H671 H 0.04669 0.48887 0.02624 0.0
H672 H 0.10609 0.62011 0.99622 0.0
H673 H 0.07094 0.55936 0.02114 0.0
H674 H 0.9794 0.50995 0.9655 0.0
H675 H 0.01394 0.57062 0.94104 0.0
C676 C 0.93091 0.44076 0.02547 0.0
C677 C 0.94829 0.42133 0.03788 0.0
C678 C 0.95475 0.47672 0.01303 0.0
C679 C 0.99687 0.49428 0.01224 0.0
C680 C 0.01444 0.47635 0.0263 0.0
C681 C 0.99039 0.44024 0.03896 0.0
C682 C 0.07909 0.59585 0.98894 0.0
C683 C 0.06292 0.60046 0.96654 0.0
C684 C 0.05868 0.56101 1.0034 0.0
C685 C 0.02153 0.52991 0.99583 0.0
C686 C 0.00713 0.53359 0.97248 0.0
C687 C 0.02739 0.56828 0.95814 0.0
H688 H 0.41396 0.43098 0.95373 0.0
H689 H 0.37835 0.49079 1.0066 0.0
H690 H 0.47908 0.45793 0.97379 0.0
H691 H 0.44161 0.51566 0.02746 0.0
H692 H 0.57276 0.57716 0.05128 0.0
H693 H 0.50932 0.55552 0.03054 0.0
H694 H 0.5077 0.44861 1.00934 0.0
H695 H 0.57234 0.47178 0.02898 0.0
C696 C 0.42047 0.45087 0.9691 0.0
C697 C 0.39092 0.45887 0.97838 0.0
C698 C 0.45748 0.46555 0.98114 0.0
C699 C 0.46573 0.48835 1.00288 0.0
C700 C 0.43706 0.49851 0.01089 0.0
C701 C 0.40051 0.48423 0.99877 0.0
C702 C 0.55789 0.54826 0.04316 0.0
C703 C 0.57712 0.52575 0.04239 0.0
C704 C 0.52159 0.53593 0.03083 0.0
C705 C 0.50319 0.50042 0.0176 0.0
C706 C 0.52118 0.47664 0.01852 0.0
C707 C 0.55777 0.48934 0.03047 0.0
H708 H 0.20071 0.45198 0.36163 0.0
H709 H 0.09589 0.34999 0.39135 0.0
H710 H 0.2253 0.41036 0.34425 0.0
H711 H 0.11785 0.3079 0.37236 0.0
H712 H 0.17894 0.23924 0.35041 0.0
H713 H 0.15498 0.27949 0.369 0.0
H714 H 0.22055 0.36981 0.31283 0.0
H715 H 0.24766 0.32997 0.29558 0.0
C716 C 0.18362 0.4206 0.36517 0.0
C717 C 0.14711 0.40439 0.3787 0.0
C718 C 0.19701 0.39643 0.35448 0.0
C719 C 0.17352 0.35513 0.3562 0.0
C720 C 0.13768 0.33924 0.37072 0.0
C721 C 0.12503 0.36351 0.38202 0.0
C722 C 0.18764 0.26738 0.3416 0.0
C723 C 0.21545 0.28128 0.32148 0.0
C724 C 0.17372 0.29082 0.35238 0.0
C725 C 0.18608 0.32885 0.34302 0.0
C726 C 0.21118 0.34141 0.32136 0.0
C727 C 0.22595 0.31807 0.31086 0.0
H728 H 0.56266 0.763 0.3579 0.0
H729 H 0.66835 0.76313 0.384 0.0
H730 H 0.60429 0.82633 0.33724 0.0
H731 H 0.71062 0.82621 0.36251 0.0
H732 H 0.77237 0.95602 0.33178 0.0
H733 H 0.73574 0.89544 0.35661 0.0
H734 H 0.64451 0.84812 0.30064 0.0
H735 H 0.68043 0.90888 0.2764 0.0
C736 C 0.59489 0.7773 0.35994 0.0
C737 C 0.61207 0.75833 0.37306 0.0
C738 C 0.61895 0.8133 0.34754 0.0
C739 C 0.66113 0.83121 0.34741 0.0
C740 C 0.67837 0.81356 0.36207 0.0
C741 C 0.65411 0.77755 0.37474 0.0
C742 C 0.74508 0.93224 0.32443 0.0
C743 C 0.72947 0.9375 0.30198 0.0
C744 C 0.72379 0.89747 0.33883 0.0
C745 C 0.68634 0.86695 0.33115 0.0
C746 C 0.67241 0.87128 0.30777 0.0
C747 C 0.69348 0.90599 0.29353 0.0
H748 H 0.07045 0.83723 0.31699 0.0
H749 H 0.0678 0.72932 0.29888 0.0
H750 H 0.13444 0.8604 0.33755 0.0
H751 H 0.12996 0.75057 0.32084 0.0
H752 H 0.26007 0.81266 0.34471 0.0
H753 H 0.19673 0.78753 0.32422 0.0
H754 H 0.16468 0.85534 0.37309 0.0
H755 H 0.23037 0.88279 0.39248 0.0
C756 C 0.08439 0.81905 0.31667 0.0
C757 C 0.06491 0.78214 0.30541 0.0
C758 C 0.12058 0.83175 0.32918 0.0
C759 C 0.13773 0.80732 0.33151 0.0
C760 C 0.1187 0.77088 0.31932 0.0
C761 C 0.08305 0.75868 0.30632 0.0
C762 C 0.23901 0.82132 0.35167 0.0
C763 C 0.25041 0.84967 0.37037 0.0
C764 C 0.20234 0.8069 0.33974 0.0
C765 C 0.17516 0.81973 0.34637 0.0
C766 C 0.18506 0.84552 0.36672 0.0
C767 C 0.22235 0.86051 0.37847 0.0
H768 H 0.84173 0.56799 0.6806 0.0
H769 H 0.91363 0.66404 0.6297 0.0
H770 H 0.81515 0.60578 0.69991 0.0
H771 H 0.88442 0.70154 0.64778 0.0
H772 H 0.86139 0.77826 0.69977 0.0
H773 H 0.88732 0.73835 0.68145 0.0
H774 H 0.77662 0.63361 0.70264 0.0
H775 H 0.75274 0.67382 0.72245 0.0
C776 C 0.85066 0.59681 0.6728 0.0
C777 C 0.88002 0.61289 0.65356 0.0
C778 C 0.83528 0.61878 0.684 0.0
C779 C 0.84792 0.65754 0.67604 0.0
C780 C 0.87473 0.67242 0.65522 0.0
C781 C 0.89077 0.65048 0.64424 0.0
C782 C 0.84363 0.74661 0.70157 0.0
C783 C 0.80562 0.72921 0.71337 0.0
C784 C 0.85791 0.72354 0.69034 0.0
C785 C 0.83403 0.68228 0.68984 0.0
C786 C 0.79661 0.66499 0.70271 0.0
C787 C 0.78287 0.68809 0.71449 0.0
H788 H 0.43599 0.28953 0.66437 0.0
H789 H 0.34492 0.23907 0.60862 0.0
H790 H 0.40011 0.22945 0.68982 0.0
H791 H 0.30975 0.17891 0.63351 0.0
H792 H 0.22819 0.09456 0.69123 0.0
H793 H 0.26912 0.15754 0.67002 0.0
H794 H 0.37623 0.1603 0.69654 0.0
H795 H 0.33462 0.09747 0.71853 0.0
C796 C 0.40906 0.26516 0.6571 0.0
C797 C 0.39348 0.26932 0.63433 0.0
C798 C 0.3882 0.23068 0.67186 0.0
C799 C 0.35119 0.19937 0.66423 0.0
C800 C 0.33731 0.20267 0.6406 0.0
C801 C 0.35795 0.23706 0.62599 0.0
C802 C 0.26041 0.1094 0.6934 0.0
C803 C 0.27799 0.09127 0.70704 0.0
C804 C 0.2841 0.14521 0.68071 0.0
C805 C 0.32632 0.16384 0.68078 0.0
C806 C 0.34393 0.14707 0.69592 0.0
C807 C 0.32003 0.11121 0.70887 0.0
H808 H 0.74055 0.17493 0.64619 0.0
H809 H 0.73358 0.06338 0.63442 0.0
H810 H 0.8036 0.19802 0.66784 0.0
H811 H 0.79442 0.08452 0.65768 0.0
H812 H 0.92257 0.14326 0.68491 0.0
H813 H 0.86039 0.11825 0.66311 0.0
H814 H 0.83223 0.19611 0.70448 0.0
H815 H 0.89699 0.22336 0.72493 0.0
C816 C 0.75343 0.15588 0.64743 0.0
C817 C 0.73291 0.1179 0.63766 0.0
C818 C 0.78901 0.16856 0.66065 0.0
C819 C 0.80446 0.14313 0.6653 0.0
C820 C 0.78458 0.10564 0.65444 0.0
C821 C 0.74966 0.09346 0.64064 0.0
C822 C 0.90246 0.1541 0.69005 0.0
C823 C 0.91485 0.18521 0.70685 0.0
C824 C 0.86647 0.13982 0.6773 0.0
C825 C 0.84087 0.1555 0.68126 0.0
C826 C 0.85145 0.18401 0.70002 0.0
C827 C 0.88813 0.1989 0.7125 0.0
H828 H 0.41955 0.19915 0.11997 0.0
H829 H 0.34997 0.08454 0.15447 0.0
H830 H 0.39279 0.22622 0.14999 0.0
H831 H 0.32496 0.11214 0.18598 0.0
H832 H 0.25537 0.16081 0.22648 0.0
H833 H 0.28129 0.13469 0.19463 0.0
H834 H 0.38954 0.24759 0.18828 0.0
H835 H 0.36231 0.27388 0.21868 0.0
C836 C 0.3995 0.17983 0.13454 0.0
C837 C 0.38721 0.13953 0.13472 0.0
C838 C 0.38393 0.19551 0.15198 0.0
C839 C 0.35604 0.17167 0.17068 0.0
C840 C 0.34537 0.13161 0.17163 0.0
C841 C 0.3604 0.11573 0.15379 0.0
C842 C 0.28418 0.18032 0.21768 0.0
C843 C 0.30639 0.21966 0.22504 0.0
C844 C 0.29959 0.1651 0.19968 0.0
C845 C 0.33816 0.18851 0.1888 0.0
C846 C 0.35961 0.22831 0.19564 0.0
C847 C 0.34384 0.24366 0.21321 0.0
H848 H 0.82527 0.25885 0.13444 0.0
H849 H 0.94385 0.27249 0.13729 0.0
H850 H 0.80119 0.20536 0.16501 0.0
H851 H 0.91951 0.2185 0.16791 0.0
H852 H 0.75426 0.08496 0.19538 0.0
H853 H 0.78732 0.13754 0.16425 0.0
H854 H 0.8913 0.19428 0.21062 0.0
H855 H 0.85797 0.14107 0.2417 0.0
C856 C 0.84652 0.2511 0.14199 0.0
C857 C 0.88657 0.27018 0.13324 0.0
C858 C 0.8325 0.21985 0.15927 0.0
C859 C 0.85807 0.20666 0.16845 0.0
C860 C 0.89884 0.22755 0.16113 0.0
C861 C 0.91289 0.25882 0.14369 0.0
C862 C 0.78496 0.10759 0.19835 0.0
C863 C 0.80377 0.10829 0.22079 0.0
C864 C 0.80362 0.13834 0.18077 0.0
C865 C 0.8416 0.17091 0.18519 0.0
C866 C 0.86204 0.16982 0.20656 0.0
C867 C 0.84323 0.13891 0.22421 0.0
H868 H 0.92546 0.6658 0.1947 0.0
H869 H 0.88354 0.74158 0.22385 0.0
H870 H 0.8691 0.63739 0.16635 0.0
H871 H 0.82611 0.71158 0.19736 0.0
H872 H 0.73796 0.67093 0.13448 0.0
H873 H 0.79573 0.70177 0.16081 0.0
H874 H 0.80201 0.59465 0.16239 0.0
H875 H 0.74554 0.56485 0.13423 0.0
C876 C 0.90464 0.67691 0.19479 0.0
C877 C 0.90956 0.70635 0.21152 0.0
C878 C 0.87157 0.65994 0.17887 0.0
C879 C 0.84187 0.67129 0.17953 0.0
C880 C 0.84799 0.70195 0.19564 0.0
C881 C 0.88139 0.71943 0.21105 0.0
C882 C 0.751 0.65351 0.14086 0.0
C883 C 0.73662 0.61514 0.13224 0.0
C884 C 0.78461 0.6714 0.15611 0.0
C885 C 0.80465 0.65127 0.16389 0.0
C886 C 0.78865 0.61193 0.15641 0.0
C887 C 0.75548 0.59433 0.14062 0.0
H888 H 0.66216 0.92722 0.87262 0.0
H889 H 0.58931 0.8115 0.90506 0.0
H890 H 0.68839 0.90017 0.8415 0.0
H891 H 0.61716 0.78498 0.87546 0.0
H892 H 0.65278 0.73927 0.80799 0.0
H893 H 0.62317 0.76498 0.83716 0.0
H894 H 0.73247 0.87732 0.83461 0.0
H895 H 0.76095 0.85185 0.80399 0.0
C896 C 0.65116 0.89591 0.87288 0.0
C897 C 0.62329 0.87168 0.89138 0.0
C898 C 0.66691 0.88035 0.85529 0.0
C899 C 0.6558 0.84016 0.8559 0.0
C900 C 0.62652 0.81585 0.8738 0.0
C901 C 0.61031 0.83123 0.89099 0.0
C902 C 0.67092 0.76923 0.81405 0.0
C903 C 0.70951 0.79329 0.80367 0.0
C904 C 0.65377 0.78423 0.8309 0.0
C905 C 0.67489 0.82372 0.83841 0.0
C906 C 0.71444 0.84717 0.82896 0.0
C907 C 0.73128 0.8323 0.8117 0.0
H908 H 0.08542 0.74986 0.85942 0.0
H909 H 0.18666 0.80299 0.90789 0.0
H910 H 0.11952 0.80481 0.82999 0.0
H911 H 0.22097 0.85864 0.87856 0.0
H912 H 0.27572 0.9429 0.80753 0.0
H913 H 0.25104 0.8868 0.83657 0.0
H914 H 0.13209 0.87201 0.83315 0.0
H915 H 0.15651 0.92757 0.8042 0.0
C916 C 0.11587 0.77238 0.86319 0.0
C917 C 0.1336 0.77154 0.88577 0.0
C918 C 0.13509 0.80448 0.84661 0.0
C919 C 0.17258 0.83692 0.85221 0.0
C920 C 0.19211 0.83435 0.87362 0.0
C921 C 0.17274 0.80204 0.89026 0.0
C922 C 0.24454 0.92843 0.81355 0.0
C923 C 0.21816 0.93993 0.80338 0.0
C924 C 0.23029 0.89593 0.83005 0.0
C925 C 0.18927 0.87397 0.83668 0.0
C926 C 0.16361 0.88731 0.82789 0.0
C927 C 0.17781 0.91974 0.81155 0.0
H928 H 0.2162 0.40935 0.89105 0.0
H929 H 0.26193 0.3366 0.86201 0.0
H930 H 0.15949 0.37845 0.86415 0.0
H931 H 0.20628 0.30737 0.83314 0.0
H932 H 0.08376 0.23276 0.7997 0.0
H933 H 0.14001 0.2635 0.82796 0.0
H934 H 0.12883 0.36798 0.82788 0.0
H935 H 0.07125 0.33604 0.8015 0.0
C936 C 0.21504 0.38768 0.87819 0.0
C937 C 0.2441 0.37572 0.87886 0.0
C938 C 0.18204 0.36968 0.8625 0.0
C939 C 0.17714 0.3396 0.84623 0.0
C940 C 0.20775 0.32942 0.84574 0.0
C941 C 0.24045 0.34691 0.86197 0.0
C942 C 0.09259 0.26182 0.80645 0.0
C943 C 0.0723 0.2815 0.79852 0.0
C944 C 0.12565 0.28001 0.82231 0.0
C945 C 0.14021 0.31893 0.83031 0.0
C946 C 0.11887 0.33795 0.82286 0.0
C947 C 0.08533 0.31942 0.80756 0.0
H948 H 0.0938 0.54073 0.45284 0.0
H949 H 0.02561 0.42633 0.48786 0.0
H950 H 0.066 0.56742 0.48251 0.0
H951 H -0.00061 0.45354 0.51886 0.0
H952 H 0.92641 0.50012 0.55724 0.0
H953 H 0.95408 0.47503 0.52585 0.0
H954 H 0.06178 0.5885 0.52111 0.0
H955 H 0.03295 0.61379 0.55123 0.0
C956 C 0.07382 0.5214 0.46743 0.0
C957 C 0.06218 0.48124 0.46786 0.0
C958 C 0.05765 0.53684 0.48463 0.0
C959 C 0.02971 0.51286 0.50326 0.0
C960 C 0.0198 0.47303 0.50451 0.0
C961 C 0.03552 0.45742 0.48697 0.0
C962 C 0.9555 0.52 0.5489 0.0
C963 C 0.97712 0.55917 0.55668 0.0
C964 C 0.97189 0.50537 0.53118 0.0
C965 C 0.01083 0.52923 0.52096 0.0
C966 C 0.03165 0.56892 0.52806 0.0
C967 C 0.01494 0.58368 0.54543 0.0
H968 H 0.60934 0.60768 0.47137 0.0
H969 H 0.49029 0.5929 0.46871 0.0
H970 H 0.58467 0.55131 0.50021 0.0
H971 H 0.46589 0.53707 0.49743 0.0
H972 H 0.41876 0.41505 0.52346 0.0
H973 H 0.45319 0.4697 0.49385 0.0
H974 H 0.55472 0.5233 0.54237 0.0
H975 H 0.52008 0.46799 0.57187 0.0
C976 C 0.57821 0.59326 0.47749 0.0
C977 C 0.55185 0.60499 0.46757 0.0
C978 C 0.56397 0.56061 0.49387 0.0
C979 C 0.52299 0.53876 0.50059 0.0
C980 C 0.49738 0.55231 0.49206 0.0
C981 C 0.51156 0.58488 0.47587 0.0
C982 C 0.44932 0.43738 0.52715 0.0
C983 C 0.46693 0.43668 0.54981 0.0
C984 C 0.46873 0.46932 0.51047 0.0
C985 C 0.50629 0.50167 0.51605 0.0
C986 C 0.52578 0.49908 0.53747 0.0
C987 C 0.50623 0.46694 0.5542 0.0
H988 H 0.54716 0.06861 0.55825 0.0
H989 H 0.5907 0.99369 0.52993 0.0
H990 H 0.49028 0.03814 0.53141 0.0
H991 H 0.53498 0.96488 0.50112 0.0
H992 H 0.41328 0.89257 0.46669 0.0
H993 H 0.46878 0.92221 0.49553 0.0
H994 H 0.4599 0.02797 0.49509 0.0
H995 H 0.40294 0.99707 0.46812 0.0
C996 C 0.54547 0.04653 0.54555 0.0
C997 C 0.57401 0.03392 0.54634 0.0
C998 C 0.51238 0.02877 0.52991 0.0
C999 C 0.5069 0.9983 0.51382 0.0
C1000 C 0.53688 0.98727 0.51357 0.0
C1001 C 0.56961 0.00447 0.52977 0.0
C1002 C 0.42241 0.92167 0.4735 0.0
C1003 C 0.40298 0.94203 0.46529 0.0
C1004 C 0.45506 0.93923 0.48969 0.0
C1005 C 0.47011 0.97819 0.49773 0.0
C1006 C 0.44954 0.99787 0.49004 0.0
C1007 C 0.41635 0.97995 0.47442 0.0
H1008 H 0.34118 0.99618 0.99062 0.0
H1009 H 0.2771 0.99204 0.05857 0.0
H1010 H 0.2866 0.93157 0.97964 0.0
H1011 H 0.22225 0.92748 0.04729 0.0
H1012 H 0.19447 0.8001 0.97991 0.0
H1013 H 0.25046 0.85863 0.99755 0.0
H1014 H 0.17351 0.90851 1.00908 0.0
H1015 H 0.11779 0.85063 0.99114 0.0
C1016 C 0.31553 0.98137 1.00325 0.0
C1017 C 0.31319 0.99917 0.02536 0.0
C1018 C 0.28456 0.94434 0.99707 0.0
C1019 C 0.25048 0.92479 0.01269 0.0
C1020 C 0.24835 0.94217 0.035 0.0
C1021 C 0.27968 0.97895 0.04142 0.0
C1022 C 0.18938 0.82331 0.98655 0.0
C1023 C 0.15182 0.82089 0.98407 0.0
C1024 C 0.22138 0.85673 0.99653 0.0
C1025 C 0.21604 0.88779 1.00462 0.0
C1026 C 0.17814 0.88468 1.00315 0.0
C1027 C 0.14638 0.85167 0.99276 0.0
H1028 H 0.98798 0.34109 0.97351 0.0
H1029 H 0.99401 0.27651 0.03748 0.0
H1030 H 0.05135 0.34832 0.95736 0.0
H1031 H 0.05662 0.28305 0.02107 0.0
H1032 H 0.15238 0.27746 0.97126 0.0
H1033 H 0.08408 0.26329 0.98215 0.0
H1034 H 0.12286 0.38701 0.97635 0.0
H1035 H 0.19086 0.40095 0.96569 0.0
C1036 C 0.00256 0.32798 0.98386 0.0
C1037 C 0.9866 0.30865 1.0068 0.0
C1038 C 0.03868 0.33221 0.9747 0.0
C1039 C 0.05864 0.31639 0.98814 0.0
C1040 C 0.04165 0.29545 0.01045 0.0
C1041 C 0.00607 0.29194 0.01985 0.0
C1042 C 0.14601 0.3014 0.97247 0.0
C1043 C 0.17656 0.34028 0.96868 0.0
C1044 C 0.10724 0.29339 0.97855 0.0
C1045 C 0.09858 0.32414 0.98002 0.0
C1046 C 0.12892 0.36287 0.97512 0.0
C1047 C 0.16772 0.37088 0.96943 0.0
H1048 H 0.71249 0.71571 0.04829 0.0
H1049 H 0.65479 0.65624 0.98075 0.0
H1050 H 0.70632 0.77228 0.03536 0.0
H1051 H 0.64804 0.71286 0.96813 0.0
H1052 H 0.72455 0.87898 0.98458 0.0
H1053 H 0.73441 0.82336 0.99559 0.0
H1054 H 0.60697 0.74443 0.99048 0.0
H1055 H 0.59717 0.7999 0.98001 0.0
C1056 C 0.69842 0.71472 0.03072 0.0
C1057 C 0.68391 0.68158 0.01554 0.0
C1058 C 0.6952 0.74714 0.02331 0.0
C1059 C 0.67679 0.74663 1.00084 0.0
C1060 C 0.66231 0.71364 0.98559 0.0
C1061 C 0.66625 0.68146 0.99276 0.0
C1062 C 0.69883 0.8497 0.98604 0.0
C1063 C 0.66007 0.84347 0.98235 0.0
C1064 C 0.70439 0.81811 0.99224 0.0
C1065 C 0.67136 0.77994 0.99383 0.0
C1066 C 0.63279 0.77367 0.98924 0.0
C1067 C 0.62719 0.80528 0.98356 0.0
H1068 H 0.72882 0.99878 0.03217 0.0
H1069 H 0.68567 0.0361 0.96939 0.0
H1070 H 0.7738 0.06742 0.04246 0.0
H1071 H 0.73 0.10483 0.98026 0.0
H1072 H 0.77943 0.21251 0.0399 0.0
H1073 H 0.73444 0.146 0.02467 0.0
H1074 H 0.83564 0.12748 0.01514 0.0
H1075 H 0.88043 0.19397 0.0295 0.0
C1076 C 0.72907 0.02164 0.02056 0.0
C1077 C 0.70411 0.01224 0.99988 0.0
C1078 C 0.7547 0.06075 0.02644 0.0
C1079 C 0.75505 0.09101 0.0121 0.0
C1080 C 0.73003 0.08179 0.99152 0.0
C1081 C 0.70504 0.04263 0.98525 0.0
C1082 C 0.79194 0.19451 0.03375 0.0
C1083 C 0.83328 0.20847 0.03489 0.0
C1084 C 0.76638 0.15662 0.02527 0.0
C1085 C 0.78191 0.13208 0.01872 0.0
C1086 C 0.8232 0.14609 0.02002 0.0
C1087 C 0.84867 0.18396 0.02812 0.0
H1088 H 0.81468 0.69202 0.03173 0.0
H1089 H 0.78301 0.57003 0.03446 0.0
H1090 H 0.88123 0.70952 0.0153 0.0
H1091 H 0.84935 0.58755 0.01662 0.0
H1092 H 0.00764 0.71254 0.02121 0.0
H1093 H 0.94 0.69145 0.03813 0.0
H1094 H 0.88896 0.63306 0.96924 0.0
H1095 H 0.95651 0.65554 0.95196 0.0
C1096 C 0.82187 0.66899 0.02827 0.0
C1097 C 0.7936 0.6296 0.03326 0.0
C1098 C 0.85975 0.679 0.01896 0.0
C1099 C 0.86976 0.64978 0.01451 0.0
C1100 C 0.84173 0.61035 0.01971 0.0
C1101 C 0.80395 0.60037 0.02956 0.0
C1102 C 0.98183 0.69549 0.00974 0.0
C1103 C 0.98674 0.6866 0.98516 0.0
C1104 C 0.94348 0.68339 0.01936 0.0
C1105 C 0.90983 0.66092 1.0048 0.0
C1106 C 0.91471 0.65056 0.9806 0.0
C1107 C 0.95308 0.66357 0.97076 0.0
H1108 H 0.26306 0.27907 0.02523 0.0
H1109 H 0.33934 0.30767 0.95934 0.0
H1110 H 0.28169 0.23039 0.03773 0.0
H1111 H 0.35849 0.25925 0.97231 0.0
H1112 H 0.41673 0.21049 0.03261 0.0
H1113 H 0.39704 0.25603 0.01456 0.0
H1114 H 0.27308 0.16419 0.01702 0.0
H1115 H 0.29298 0.11848 0.03432 0.0
C1116 C 0.28366 0.27487 0.01339 0.0
C1117 C 0.29968 0.29705 0.99129 0.0
C1118 C 0.29414 0.24697 0.0205 0.0
C1119 C 0.32137 0.24133 1.00589 0.0
C1120 C 0.33745 0.26333 0.98379 0.0
C1121 C 0.32634 0.29076 0.97639 0.0
C1122 C 0.38551 0.19992 0.02849 0.0
C1123 C 0.35642 0.16088 0.03376 0.0
C1124 C 0.37427 0.22585 0.01838 0.0
C1125 C 0.33368 0.21323 0.01428 0.0
C1126 C 0.30457 0.1743 0.01991 0.0
C1127 C 0.31588 0.14831 0.02969 0.0
H1128 H 0.01558 0.33351 0.32573 0.0
H1129 H 0.95412 0.32834 0.39506 0.0
H1130 H 0.96174 0.26809 0.31558 0.0
H1131 H 0.90003 0.26293 0.38464 0.0
H1132 H 0.86896 0.13728 0.31444 0.0
H1133 H 0.92586 0.19471 0.3325 0.0
H1134 H 0.85015 0.24502 0.34754 0.0
H1135 H 0.79373 0.18845 0.32921 0.0
C1136 C 0.99074 0.31825 0.33887 0.0
C1137 C 0.98875 0.33611 0.36104 0.0
C1138 C 0.96022 0.28073 0.33318 0.0
C1139 C 0.92697 0.26072 0.34938 0.0
C1140 C 0.9255 0.27797 0.37191 0.0
C1141 C 0.95637 0.31527 0.37782 0.0
C1142 C 0.86438 0.16034 0.32197 0.0
C1143 C 0.82699 0.15852 0.32032 0.0
C1144 C 0.89687 0.1931 0.33221 0.0
C1145 C 0.89212 0.22398 0.3414 0.0
C1146 C 0.85435 0.2213 0.34081 0.0
C1147 C 0.82217 0.18904 0.33017 0.0
H1148 H 0.81884 0.62073 0.3041 0.0
H1149 H 0.86927 0.74642 0.30523 0.0
H1150 H 0.75297 0.612 0.31604 0.0
H1151 H 0.80385 0.73786 0.31782 0.0
H1152 H 0.69475 0.69647 0.37337 0.0
H1153 H 0.75921 0.70655 0.3581 0.0
H1154 H 0.70124 0.63053 0.29626 0.0
H1155 H 0.63619 0.62065 0.31135 0.0
C1156 C 0.81572 0.64636 0.30721 0.0
C1157 C 0.849 0.68417 0.30492 0.0
C1158 C 0.77825 0.64142 0.31378 0.0
C1159 C 0.77375 0.6743 0.31789 0.0
C1160 C 0.8069 0.71214 0.31498 0.0
C1161 C 0.84422 0.71702 0.30814 0.0
C1162 C 0.69574 0.68196 0.35647 0.0
C1163 C 0.66062 0.65757 0.34357 0.0
C1164 C 0.73259 0.68793 0.34772 0.0
C1165 C 0.73486 0.66919 0.32616 0.0
C1166 C 0.6999 0.64505 0.31305 0.0
C1167 C 0.66294 0.6396 0.32157 0.0
H1168 H 0.26272 0.13577 0.32093 0.0
H1169 H 0.39127 0.21039 0.31986 0.0
H1170 H 0.27027 0.07961 0.33331 0.0
H1171 H 0.39899 0.1537 0.33121 0.0
H1172 H 0.38341 0.02791 0.31682 0.0
H1173 H 0.37627 0.08499 0.30681 0.0
H1174 H 0.30344 0.0634 0.37337 0.0
H1175 H 0.31143 0.00697 0.38397 0.0
C1176 C 0.29251 0.14018 0.32391 0.0
C1177 C 0.3264 0.17745 0.32062 0.0
C1178 C 0.29682 0.10813 0.3307 0.0
C1179 C 0.33516 0.11269 0.33333 0.0
C1180 C 0.36915 0.14975 0.32935 0.0
C1181 C 0.36478 0.18198 0.32298 0.0
C1182 C 0.36591 0.03531 0.32935 0.0
C1183 C 0.34818 0.01314 0.35126 0.0
C1184 C 0.36206 0.06804 0.32367 0.0
C1185 C 0.33962 0.07849 0.33949 0.0
C1186 C 0.32102 0.05585 0.36103 0.0
C1187 C 0.32563 0.02367 0.36704 0.0
H1188 H 0.45046 0.54806 0.37917 0.0
H1189 H 0.55172 0.53259 0.36167 0.0
H1190 H 0.4047 0.48045 0.36628 0.0
H1191 H 0.50632 0.46548 0.34845 0.0
H1192 H 0.34844 0.34338 0.37584 0.0
H1193 H 0.39248 0.41237 0.38544 0.0
H1194 H 0.45186 0.43102 0.31361 0.0
H1195 H 0.40759 0.36204 0.30372 0.0
C1196 C 0.46275 0.53041 0.37197 0.0
C1197 C 0.50431 0.54547 0.37053 0.0
C1198 C 0.43678 0.49185 0.36488 0.0
C1199 C 0.45221 0.46812 0.35629 0.0
C1200 C 0.49383 0.48347 0.3547 0.0
C1201 C 0.51967 0.52165 0.36221 0.0
C1202 C 0.37109 0.36206 0.36216 0.0
C1203 C 0.37473 0.34725 0.33908 0.0
C1204 C 0.39589 0.40157 0.36756 0.0
C1205 C 0.42515 0.42677 0.35015 0.0
C1206 C 0.42939 0.41197 0.32727 0.0
C1207 C 0.40416 0.37259 0.32168 0.0
H1208 H 0.68193 0.054 0.35823 0.0
H1209 H 0.62945 0.99901 0.28874 0.0
H1210 H 0.61465 0.034 0.37551 0.0
H1211 H 0.56249 0.97734 0.30638 0.0
H1212 H 0.45631 0.91059 0.36781 0.0
H1213 H 0.52381 0.93048 0.35129 0.0
H1214 H 0.55481 0.05205 0.35549 0.0
H1215 H 0.48682 0.03215 0.37081 0.0
C1216 C 0.65592 0.0377 0.34678 0.0
C1217 C 0.66033 0.02899 0.32205 0.0
C1218 C 0.61779 0.0263 0.35657 0.0
C1219 C 0.58393 0.00459 0.34202 0.0
C1220 C 0.58837 0.9945 0.31767 0.0
C1221 C 0.62645 0.00694 0.30764 0.0
C1222 C 0.47739 0.94145 0.36457 0.0
C1223 C 0.46631 0.9699 0.36935 0.0
C1224 C 0.51584 0.95276 0.35549 0.0
C1225 C 0.54386 0.99265 0.35208 0.0
C1226 C 0.53333 0.02115 0.3579 0.0
C1227 C 0.49469 0.00982 0.36653 0.0
H1228 H 0.92774 0.6119 0.35851 0.0
H1229 H 0.00178 0.63722 0.29185 0.0
H1230 H 0.94646 0.56331 0.37157 0.0
H1231 H 0.02088 0.58911 0.30527 0.0
H1232 H 0.08438 0.54717 0.36517 0.0
H1233 H 0.06172 0.59033 0.34709 0.0
H1234 H 0.93904 0.49603 0.35256 0.0
H1235 H 0.96193 0.45256 0.36985 0.0
C1236 C 0.9477 0.60684 0.3466 0.0
C1237 C 0.9633 0.62821 0.3242 0.0
C1238 C 0.95822 0.57904 0.35401 0.0
C1239 C 0.98506 0.57284 0.33935 0.0
C1240 C 0.00019 0.59366 0.31679 0.0
C1241 C 0.98907 0.6209 0.30913 0.0
C1242 C 0.05277 0.53551 0.36171 0.0
C1243 C 0.02492 0.49637 0.36773 0.0
C1244 C 0.03984 0.5601 0.35162 0.0
C1245 C -0.00122 0.5461 0.3483 0.0
C1246 C 0.97086 0.50717 0.35484 0.0
C1247 C 0.98388 0.48246 0.36459 0.0
H1248 H 0.45433 0.52125 0.65435 0.0
H1249 H 0.53234 0.47336 0.63909 0.0
H1250 H 0.5107 0.5802 0.67067 0.0
H1251 H 0.58919 0.53321 0.65509 0.0
H1252 H 0.67752 0.67284 0.65132 0.0
H1253 H 0.62352 0.60867 0.63858 0.0
H1254 H 0.5604 0.59636 0.70826 0.0
H1255 H 0.61423 0.66001 0.72123 0.0
C1256 C 0.48343 0.52316 0.6547 0.0
C1257 C 0.48895 0.49267 0.64556 0.0
C1258 C 0.51561 0.55684 0.66407 0.0
C1259 C 0.55403 0.56099 0.66405 0.0
C1260 C 0.55969 0.53048 0.65519 0.0
C1261 C 0.52723 0.4963 0.64624 0.0
C1262 C 0.65219 0.65634 0.66394 0.0
C1263 C 0.64996 0.67148 0.6872 0.0
C1264 C 0.6216 0.6196 0.65675 0.0
C1265 C 0.58811 0.59787 0.67253 0.0
C1266 C 0.58603 0.61276 0.69584 0.0
C1267 C 0.61683 0.6491 0.7032 0.0
H1268 H 0.48832 0.95513 0.64373 0.0
H1269 H 0.53558 0.08031 0.63889 0.0
H1270 H 0.42241 0.94594 0.65605 0.0
H1271 H 0.47014 0.07136 0.65201 0.0
H1272 H 0.36173 0.03161 0.70882 0.0
H1273 H 0.42666 0.04221 0.69394 0.0
H1274 H 0.36927 0.96169 0.63401 0.0
H1275 H 0.30384 0.95139 0.64862 0.0
C1276 C 0.48455 0.9806 0.6457 0.0
C1277 C 0.51696 0.01849 0.64154 0.0
C1278 C 0.44706 0.97536 0.65249 0.0
C1279 C 0.44166 0.008 0.65499 0.0
C1280 C 0.47396 0.04588 0.6504 0.0
C1281 C 0.51129 0.05103 0.64328 0.0
C1282 C 0.36298 0.01623 0.69243 0.0
C1283 C 0.32794 0.99048 0.6799 0.0
C1284 C 0.40005 0.02249 0.68391 0.0
C1285 C 0.40258 0.00261 0.66301 0.0
C1286 C 0.3677 0.97709 0.65029 0.0
C1287 C 0.33052 0.97139 0.65853 0.0
H1288 H 0.03621 0.37918 0.71912 0.0
H1289 H 0.99066 0.32668 0.6477 0.0
H1290 H 0.02985 0.4359 0.70688 0.0
H1291 H 0.98367 0.3834 0.63577 0.0
H1292 H 0.93258 0.47071 0.64376 0.0
H1293 H 0.93944 0.41369 0.65501 0.0
H1294 H 0.06486 0.49042 0.66963 0.0
H1295 H 0.05804 0.54752 0.65785 0.0
C1296 C 0.02454 0.37962 0.7009 0.0
C1297 C 0.01383 0.34851 0.68434 0.0
C1298 C 0.0212 0.41215 0.6939 0.0
C1299 C 0.00641 0.41377 0.67044 0.0
C1300 C 0.9951 0.38254 0.65399 0.0
C1301 C -0.00082 0.35028 0.66079 0.0
C1302 C 0.96147 0.47523 0.64957 0.0
C1303 C 0.99457 0.51318 0.6508 0.0
C1304 C 0.96545 0.44278 0.65573 0.0
C1305 C 0.00258 0.44798 0.66325 0.0
C1306 C 0.03588 0.48596 0.66407 0.0
C1307 C 0.03204 0.5184 0.65741 0.0
H1308 H 0.11721 0.88164 0.71517 0.0
H1309 H 0.21769 0.86415 0.69943 0.0
H1310 H 0.07095 0.81408 0.70237 0.0
H1311 H 0.17183 0.79709 0.68634 0.0
H1312 H 0.07503 0.69694 0.63903 0.0
H1313 H 0.11961 0.76506 0.65043 0.0
H1314 H 0.05553 0.74448 0.72069 0.0
H1315 H 0.01099 0.67614 0.70952 0.0
C1316 C 0.12924 0.8635 0.70845 0.0
C1317 C 0.17075 0.87807 0.70734 0.0
C1318 C 0.10297 0.82496 0.70145 0.0
C1319 C 0.11805 0.80073 0.69327 0.0
C1320 C 0.15961 0.81545 0.69227 0.0
C1321 C 0.18572 0.85362 0.69969 0.0
C1322 C 0.07055 0.70686 0.65696 0.0
C1323 C 0.03966 0.68115 0.67345 0.0
C1324 C 0.09603 0.74576 0.66343 0.0
C1325 C 0.09068 0.75979 0.68632 0.0
C1326 C 0.05988 0.73426 0.70283 0.0
C1327 C 0.03476 0.69515 0.69654 0.0
H1328 H 0.1506 0.36645 0.70032 0.0
H1329 H 0.12111 0.24504 0.70064 0.0
H1330 H 0.21767 0.38578 0.6835 0.0
H1331 H 0.18765 0.26427 0.68269 0.0
H1332 H 0.34525 0.38848 0.68643 0.0
H1333 H 0.27841 0.36938 0.70401 0.0
H1334 H 0.22446 0.30862 0.63627 0.0
H1335 H 0.29107 0.32905 0.61835 0.0
C1336 C 0.15845 0.34401 0.69639 0.0
C1337 C 0.13062 0.30424 0.70064 0.0
C1338 C 0.19656 0.35502 0.6869 0.0
C1339 C 0.20709 0.32635 0.68165 0.0
C1340 C 0.17961 0.28664 0.68639 0.0
C1341 C 0.1417 0.27569 0.69632 0.0
C1342 C 0.31896 0.37145 0.67533 0.0
C1343 C 0.32276 0.36115 0.65091 0.0
C1344 C 0.28108 0.36058 0.6853 0.0
C1345 C 0.24686 0.33795 0.67124 0.0
C1346 C 0.25066 0.32641 0.64719 0.0
C1347 C 0.28851 0.33818 0.63699 0.0
H1348 H 0.75104 0.88129 0.70921 0.0
H1349 H 0.6307 0.78728 0.69716 0.0
H1350 H 0.73247 0.92891 0.69336 0.0
H1351 H 0.61216 0.83465 0.681 0.0
H1352 H 0.61497 0.93298 0.62927 0.0
H1353 H 0.63507 0.88549 0.64262 0.0
H1354 H 0.6798 0.94837 0.71108 0.0
H1355 H 0.65946 0.9956 0.69805 0.0
C1356 C 0.72092 0.87093 0.70262 0.0
C1357 C 0.69252 0.83086 0.70346 0.0
C1358 C 0.71024 0.89799 0.69385 0.0
C1359 C 0.67104 0.88515 0.68587 0.0
C1360 C 0.64269 0.84501 0.68674 0.0
C1361 C 0.6532 0.81809 0.69593 0.0
C1362 C 0.62892 0.93653 0.64722 0.0
C1363 C 0.63547 0.96782 0.6627 0.0
C1364 C 0.64035 0.90944 0.65479 0.0
C1365 C 0.65911 0.91369 0.67773 0.0
C1366 C 0.66569 0.94488 0.69319 0.0
C1367 C 0.65368 0.97157 0.68584 0.0
loop_
_geom_bond_atom_site_label_1
_geom_bond_atom_site_label_2
_geom_bond_distance
_geom_bond_site_symmetry_2
_ccdc_geom_bond_type
Mn0 O5 2.095 . S
Mn0 O15 2.162 . S
Mn0 O16 2.297 . S
Mn0 O24 2.385 . S
Mn0 O25 2.209 . S
Mn0 O26 2.094 1_545 S
Mn1 O6 2.124 . S
Mn1 N8 2.254 1_554 S
Mn1 N17 2.279 1_554 S
Mn1 O25 2.218 . S
Mn1 O27 2.119 1_545 S
C2 O24 1.234 . S
C2 O25 1.283 . S
C3 O15 1.281 . S
C3 O16 1.236 . S
C4 O26 1.240 . S
C4 O27 1.264 . S
O5 Mn0 2.095 . S
O5 C14 1.250 . S
O6 Mn1 2.124 . S
O6 C14 1.258 . S
C7 N8 1.326 . S
C7 C11 1.460 . S
C7 H13 0.929 . S
N8 Mn1 2.254 1_556 S
N8 C7 1.326 . S
N8 C12 1.362 . S
C9 C10 1.258 . S
C9 C12 1.431 . S
C9 C29 1.449 . S
C10 C9 1.258 . S
C10 C11 1.477 . S
C10 H30 0.931 . S
C11 C7 1.460 . S
C11 C10 1.477 . S
C11 H31 0.930 . S
C12 N8 1.362 . S
C12 C9 1.431 . S
C12 C22 1.476 . S
H13 C7 0.929 . S
C14 O5 1.250 . S
C14 O6 1.258 . S
O15 Mn0 2.162 . S
O15 C3 1.281 . S
O16 Mn0 2.297 . S
O16 C3 1.236 . S
N17 Mn1 2.279 1_556 S
N17 C18 1.328 . S
N17 C22 1.318 . S
C18 N17 1.328 . S
C18 C19 1.457 . S
C18 H23 0.929 . S
C19 C18 1.457 . S
C19 C20 1.291 . S
C19 H32 0.931 . S
C20 C19 1.291 . S
C20 C21 1.373 . S
C20 H33 0.929 . S
C21 C20 1.373 . S
C21 C22 1.396 . S
C21 C28 1.403 . S
C22 C12 1.476 . S
C22 N17 1.318 . S
C22 C21 1.396 . S
H23 C18 0.929 . S
O24 Mn0 2.385 . S
O24 C2 1.234 . S
O25 Mn0 2.209 . S
O25 Mn1 2.218 . S
O25 C2 1.283 . S
O26 Mn0 2.094 1_565 S
O26 C4 1.240 . S
O27 Mn1 2.119 1_565 S
O27 C4 1.264 . S
C28 C21 1.403 . S
C28 C29 1.399 . S
C28 H34 0.929 . S
C29 C9 1.449 . S
C29 C28 1.399 . S
C29 H35 0.930 . S
H30 C10 0.931 . S
H31 C11 0.930 . S
H32 C19 0.931 . S
H33 C20 0.929 . S
H34 C28 0.929 . S
H35 C29 0.930 . S
Mn36 O41 2.095 . S
Mn36 O51 2.162 . S
Mn36 O52 2.297 . S
Mn36 O60 2.385 . S
Mn36 O61 2.209 . S
Mn36 O62 2.094 1_655 S
Mn37 O42 2.120 . S
Mn37 N44 2.259 1_554 S
Mn37 N53 2.283 1_554 S
Mn37 O61 2.213 . S
Mn37 O63 2.116 1_655 S
C38 O60 1.234 . S
C38 O61 1.283 . S
C39 O51 1.281 . S
C39 O52 1.236 . S
C40 O62 1.240 . S
C40 O63 1.264 . S
O41 Mn36 2.095 . S
O41 C50 1.250 . S
O42 Mn37 2.120 . S
O42 C50 1.258 . S
C43 N44 1.326 . S
C43 C47 1.460 . S
C43 H49 0.929 . S
N44 Mn37 2.259 1_556 S
N44 C43 1.326 . S
N44 C48 1.362 . S
C45 C46 1.258 . S
C45 C48 1.431 . S
C45 C65 1.449 . S
C46 C45 1.258 . S
C46 C47 1.477 . S
C46 H66 0.931 . S
C47 C43 1.460 . S
C47 C46 1.477 . S
C47 H67 0.930 . S
C48 N44 1.362 . S
C48 C45 1.431 . S
C48 C58 1.476 . S
H49 C43 0.929 . S
C50 O41 1.250 . S
C50 O42 1.258 . S
O51 Mn36 2.162 . S
O51 C39 1.281 . S
O52 Mn36 2.297 . S
O52 C39 1.236 . S
N53 Mn37 2.283 1_556 S
N53 C54 1.328 . S
N53 C58 1.318 . S
C54 N53 1.328 . S
C54 C55 1.457 . S
C54 H59 0.929 . S
C55 C54 1.457 . S
C55 C56 1.291 . S
C55 H68 0.931 . S
C56 C55 1.291 . S
C56 C57 1.373 . S
C56 H69 0.929 . S
C57 C56 1.373 . S
C57 C58 1.396 . S
C57 C64 1.403 . S
C58 C48 1.476 . S
C58 N53 1.318 . S
C58 C57 1.396 . S
H59 C54 0.929 . S
O60 Mn36 2.385 . S
O60 C38 1.234 . S
O61 Mn36 2.209 . S
O61 Mn37 2.213 . S
O61 C38 1.283 . S
O62 Mn36 2.094 1_455 S
O62 C40 1.240 . S
O63 Mn37 2.116 1_455 S
O63 C40 1.264 . S
C64 C57 1.403 . S
C64 C65 1.399 . S
C64 H70 0.929 . S
C65 C45 1.449 . S
C65 C64 1.399 . S
C65 H71 0.930 . S
H66 C46 0.931 . S
H67 C47 0.930 . S
H68 C55 0.931 . S
H69 C56 0.929 . S
H70 C64 0.929 . S
H71 C65 0.930 . S
Mn72 O77 2.095 . S
Mn72 O87 2.162 . S
Mn72 O88 2.297 . S
Mn72 O96 2.385 . S
Mn72 O97 2.209 . S
Mn72 O98 2.094 . S
Mn73 O78 2.121 1_556 S
Mn73 N80 2.257 . S
Mn73 N89 2.282 . S
Mn73 O97 2.215 1_556 S
Mn73 O99 2.117 1_556 S
C74 O96 1.234 . S
C74 O97 1.283 . S
C75 O87 1.281 . S
C75 O88 1.236 . S
C76 O98 1.240 . S
C76 O99 1.264 . S
O77 Mn72 2.095 . S
O77 C86 1.250 . S
O78 Mn73 2.121 1_554 S
O78 C86 1.258 . S
C79 N80 1.326 . S
C79 C83 1.460 . S
C79 H85 0.929 . S
N80 Mn73 2.257 . S
N80 C79 1.326 . S
N80 C84 1.362 . S
C81 C82 1.258 . S
C81 C84 1.431 . S
C81 C101 1.449 . S
C82 C81 1.258 . S
C82 C83 1.477 . S
C82 H102 0.931 . S
C83 C79 1.460 . S
C83 C82 1.477 . S
C83 H103 0.930 . S
C84 N80 1.362 . S
C84 C81 1.431 . S
C84 C94 1.476 . S
H85 C79 0.929 . S
C86 O77 1.250 . S
C86 O78 1.258 . S
O87 Mn72 2.162 . S
O87 C75 1.281 . S
O88 Mn72 2.297 . S
O88 C75 1.236 . S
N89 Mn73 2.282 . S
N89 C90 1.328 . S
N89 C94 1.318 . S
C90 N89 1.328 . S
C90 C91 1.457 . S
C90 H95 0.929 . S
C91 C90 1.457 . S
C91 C92 1.291 . S
C91 H104 0.931 . S
C92 C91 1.291 . S
C92 C93 1.373 . S
C92 H105 0.929 . S
C93 C92 1.373 . S
C93 C94 1.396 . S
C93 C100 1.403 . S
C94 C84 1.476 . S
C94 N89 1.318 . S
C94 C93 1.396 . S
H95 C90 0.929 . S
O96 Mn72 2.385 . S
O96 C74 1.234 . S
O97 Mn72 2.209 . S
O97 Mn73 2.215 1_554 S
O97 C74 1.283 . S
O98 Mn72 2.094 . S
O98 C76 1.240 . S
O99 Mn73 2.117 1_554 S
O99 C76 1.264 . S
C100 C93 1.403 . S
C100 C101 1.399 . S
C100 H106 0.929 . S
C101 C81 1.449 . S
C101 C100 1.399 . S
C101 H107 0.930 . S
H102 C82 0.931 . S
H103 C83 0.930 . S
H104 C91 0.931 . S
H105 C92 0.929 . S
H106 C100 0.929 . S
H107 C101 0.930 . S
Mn108 O113 2.095 . S
Mn108 O123 2.162 . S
Mn108 O124 2.297 . S
Mn108 O132 2.385 . S
Mn108 O133 2.209 . S
Mn108 O134 2.094 1_565 S
Mn109 O114 2.106 1_554 S
Mn109 N116 2.276 . S
Mn109 N125 2.300 . S
Mn109 O133 2.192 1_554 S
Mn109 O135 2.106 1_564 S
C110 O132 1.234 . S
C110 O133 1.283 . S
C111 O123 1.281 . S
C111 O124 1.236 . S
C112 O134 1.240 . S
C112 O135 1.264 . S
O113 Mn108 2.095 . S
O113 C122 1.250 . S
O114 Mn109 2.106 1_556 S
O114 C122 1.258 . S
C115 N116 1.326 . S
C115 C119 1.460 . S
C115 H121 0.929 . S
N116 Mn109 2.276 . S
N116 C115 1.326 . S
N116 C120 1.362 . S
C117 C118 1.258 . S
C117 C120 1.431 . S
C117 C137 1.449 . S
C118 C117 1.258 . S
C118 C119 1.477 . S
C118 H138 0.931 . S
C119 C115 1.460 . S
C119 C118 1.477 . S
C119 H139 0.930 . S
C120 N116 1.362 . S
C120 C117 1.431 . S
C120 C130 1.476 . S
H121 C115 0.929 . S
C122 O113 1.250 . S
C122 O114 1.258 . S
O123 Mn108 2.162 . S
O123 C111 1.281 . S
O124 Mn108 2.297 . S
O124 C111 1.236 . S
N125 Mn109 2.300 . S
N125 C126 1.328 . S
N125 C130 1.318 . S
C126 N125 1.328 . S
C126 C127 1.457 . S
C126 H131 0.929 . S
C127 C126 1.457 . S
C127 C128 1.291 . S
C127 H140 0.931 . S
C128 C127 1.291 . S
C128 C129 1.373 . S
C128 H141 0.929 . S
C129 C128 1.373 . S
C129 C130 1.396 . S
C129 C136 1.403 . S
C130 C120 1.476 . S
C130 N125 1.318 . S
C130 C129 1.396 . S
H131 C126 0.929 . S
O132 Mn108 2.385 . S
O132 C110 1.234 . S
O133 Mn108 2.209 . S
O133 Mn109 2.192 1_556 S
O133 C110 1.283 . S
O134 Mn108 2.094 1_545 S
O134 C112 1.240 . S
O135 Mn109 2.106 1_546 S
O135 C112 1.264 . S
C136 C129 1.403 . S
C136 C137 1.399 . S
C136 H142 0.929 . S
C137 C117 1.449 . S
C137 C136 1.399 . S
C137 H143 0.930 . S
H138 C118 0.931 . S
H139 C119 0.930 . S
H140 C127 0.931 . S
H141 C128 0.929 . S
H142 C136 0.929 . S
H143 C137 0.930 . S
Mn144 O149 2.095 . S
Mn144 O159 2.162 . S
Mn144 O160 2.294 1_455 S
Mn144 O168 2.385 1_455 S
Mn144 O169 2.209 1_455 S
Mn144 O170 2.094 . S
Mn145 O150 2.121 . S
Mn145 N152 2.257 1_455 S
Mn145 N161 2.282 1_455 S
Mn145 O169 2.215 1_455 S
Mn145 O171 2.117 . S
C146 O168 1.234 . S
C146 O169 1.283 . S
C147 O159 1.281 . S
C147 O160 1.217 1_455 S
C148 O170 1.240 . S
C148 O171 1.264 . S
O149 Mn144 2.095 . S
O149 C158 1.250 . S
O150 Mn145 2.121 . S
O150 C158 1.258 . S
C151 N152 1.326 . S
C151 C155 1.460 . S
C151 H157 0.929 . S
N152 Mn145 2.257 1_655 S
N152 C151 1.326 . S
N152 C156 1.362 . S
C153 C154 1.258 . S
C153 C156 1.431 . S
C153 C173 1.449 . S
C154 C153 1.258 . S
C154 C155 1.477 . S
C154 H174 0.931 . S
C155 C151 1.460 . S
C155 C154 1.477 . S
C155 H175 0.930 . S
C156 N152 1.362 . S
C156 C153 1.431 . S
C156 C166 1.476 . S
H157 C151 0.929 . S
C158 O149 1.250 . S
C158 O150 1.258 . S
O159 Mn144 2.162 . S
O159 C147 1.281 . S
O160 Mn144 2.294 1_655 S
O160 C147 1.217 1_655 S
N161 Mn145 2.282 1_655 S
N161 C162 1.328 . S
N161 C166 1.318 . S
C162 N161 1.328 . S
C162 C163 1.455 . S
C162 H167 0.929 1_655 S
C163 C162 1.455 . S
C163 C164 1.290 . S
C163 H176 0.934 1_556 S
C164 C163 1.290 . S
C164 C165 1.373 . S
C164 H177 0.902 1_556 S
C165 C164 1.373 . S
C165 C166 1.396 . S
C165 C172 1.403 . S
C166 C156 1.476 . S
C166 N161 1.318 . S
C166 C165 1.396 . S
H167 C162 0.929 1_455 S
O168 Mn144 2.385 1_655 S
O168 C146 1.234 . S
O169 Mn144 2.209 1_655 S
O169 Mn145 2.215 1_655 S
O169 C146 1.283 . S
O170 Mn144 2.094 . S
O170 C148 1.240 . S
O171 Mn145 2.117 . S
O171 C148 1.264 . S
C172 C165 1.403 . S
C172 C173 1.399 . S
C172 H178 0.929 . S
C173 C153 1.449 . S
C173 C172 1.399 . S
C173 H179 0.930 . S
H174 C154 0.931 . S
H175 C155 0.930 . S
H176 C163 0.934 1_554 S
H177 C164 0.902 1_554 S
H178 C172 0.929 . S
H179 C173 0.930 . S
Mn180 O185 2.095 . S
Mn180 O195 2.162 . S
Mn180 O196 2.297 . S
Mn180 O204 2.385 . S
Mn180 O205 2.209 . S
Mn180 O206 2.094 . S
Mn181 O186 2.121 . S
Mn181 N188 2.257 1_556 S
Mn181 N197 2.282 1_556 S
Mn181 O205 2.215 . S
Mn181 O207 2.117 . S
C182 O204 1.234 . S
C182 O205 1.283 . S
C183 O195 1.281 . S
C183 O196 1.236 . S
C184 O206 1.240 . S
C184 O207 1.264 . S
O185 Mn180 2.095 . S
O185 C194 1.250 . S
O186 Mn181 2.121 . S
O186 C194 1.258 . S
C187 N188 1.326 . S
C187 C191 1.460 . S
C187 H193 0.929 . S
N188 Mn181 2.257 1_554 S
N188 C187 1.326 . S
N188 C192 1.362 . S
C189 C190 1.258 . S
C189 C192 1.431 . S
C189 C209 1.449 . S
C190 C189 1.258 . S
C190 C191 1.477 . S
C190 H210 0.931 . S
C191 C187 1.460 . S
C191 C190 1.477 . S
C191 H211 0.930 . S
C192 N188 1.362 . S
C192 C189 1.431 . S
C192 C202 1.476 . S
H193 C187 0.929 . S
C194 O185 1.250 . S
C194 O186 1.258 . S
O195 Mn180 2.162 . S
O195 C183 1.281 . S
O196 Mn180 2.297 . S
O196 C183 1.236 . S
N197 Mn181 2.282 1_554 S
N197 C198 1.328 . S
N197 C202 1.318 . S
C198 N197 1.328 . S
C198 C199 1.457 . S
C198 H203 0.929 . S
C199 C198 1.457 . S
C199 C200 1.291 . S
C199 H212 0.931 . S
C200 C199 1.291 . S
C200 C201 1.373 . S
C200 H213 0.929 . S
C201 C200 1.373 . S
C201 C202 1.396 . S
C201 C208 1.403 . S
C202 C192 1.476 . S
C202 N197 1.318 . S
C202 C201 1.396 . S
H203 C198 0.929 . S
O204 Mn180 2.385 . S
O204 C182 1.234 . S
O205 Mn180 2.209 . S
O205 Mn181 2.215 . S
O205 C182 1.283 . S
O206 Mn180 2.094 . S
O206 C184 1.240 . S
O207 Mn181 2.117 . S
O207 C184 1.264 . S
C208 C201 1.403 . S
C208 C209 1.399 . S
C208 H214 0.929 . S
C209 C189 1.449 . S
C209 C208 1.399 . S
C209 H215 0.930 . S
H210 C190 0.931 . S
H211 C191 0.930 . S
H212 C199 0.931 . S
H213 C200 0.929 . S
H214 C208 0.929 . S
H215 C209 0.930 . S
Mn216 O221 2.095 1_655 S
Mn216 O231 2.162 . S
Mn216 O232 2.297 1_655 S
Mn216 O240 2.385 . S
Mn216 O241 2.209 1_655 S
Mn216 O242 2.094 . S
Mn217 O222 2.121 . S
Mn217 N224 2.257 . S
Mn217 N233 2.282 1_455 S
Mn217 O241 2.215 . S
Mn217 O243 2.117 1_455 S
C218 O240 1.234 . S
C218 O241 1.283 1_655 S
C219 O231 1.281 1_455 S
C219 O232 1.236 . S
C220 O242 1.240 . S
C220 O243 1.264 . S
O221 Mn216 2.095 1_455 S
O221 C230 1.250 . S
O222 Mn217 2.121 . S
O222 C230 1.258 . S
C223 N224 1.326 . S
C223 C227 1.460 . S
C223 H229 0.929 . S
N224 Mn217 2.257 . S
N224 C223 1.326 . S
N224 C228 1.362 . S
C225 C226 1.258 . S
C225 C228 1.431 . S
C225 C245 1.449 . S
C226 C225 1.258 . S
C226 C227 1.477 . S
C226 H246 0.931 . S
C227 C223 1.460 . S
C227 C226 1.477 . S
C227 H247 0.930 . S
C228 N224 1.362 . S
C228 C225 1.431 . S
C228 C238 1.476 1_455 S
H229 C223 0.929 . S
C230 O221 1.250 . S
C230 O222 1.258 . S
O231 Mn216 2.162 . S
O231 C219 1.281 1_655 S
O232 Mn216 2.297 1_455 S
O232 C219 1.236 . S
N233 Mn217 2.282 1_655 S
N233 C234 1.328 . S
N233 C238 1.318 . S
C234 N233 1.328 . S
C234 C235 1.457 . S
C234 H239 0.929 . S
C235 C234 1.457 . S
C235 C236 1.291 . S
C235 H248 0.931 . S
C236 C235 1.291 . S
C236 C237 1.373 . S
C236 H249 0.929 . S
C237 C236 1.373 . S
C237 C238 1.396 . S
C237 C244 1.403 . S
C238 C228 1.476 1_655 S
C238 N233 1.318 . S
C238 C237 1.396 . S
H239 C234 0.929 . S
O240 Mn216 2.385 . S
O240 C218 1.234 . S
O241 Mn216 2.209 1_455 S
O241 Mn217 2.215 . S
O241 C218 1.283 1_455 S
O242 Mn216 2.094 . S
O242 C220 1.240 . S
O243 Mn217 2.117 1_655 S
O243 C220 1.264 . S
C244 C237 1.403 . S
C244 C245 1.399 1_655 S
C244 H250 0.929 . S
C245 C225 1.449 . S
C245 C244 1.399 1_455 S
C245 H251 0.930 . S
H246 C226 0.931 . S
H247 C227 0.930 . S
H248 C235 0.931 . S
H249 C236 0.929 . S
H250 C244 0.929 . S
H251 C245 0.930 . S
Mn252 O257 2.095 . S
Mn252 O267 2.162 . S
Mn252 O268 2.297 . S
Mn252 O276 2.385 . S
Mn252 O277 2.209 . S
Mn252 O278 2.094 . S
Mn253 O258 2.121 . S
Mn253 N260 2.257 . S
Mn253 N269 2.282 . S
Mn253 O277 2.215 . S
Mn253 O279 2.117 . S
C254 O276 1.234 . S
C254 O277 1.283 . S
C255 O267 1.281 . S
C255 O268 1.236 . S
C256 O278 1.240 . S
C256 O279 1.264 . S
O257 Mn252 2.095 . S
O257 C266 1.250 . S
O258 Mn253 2.121 . S
O258 C266 1.258 . S
C259 N260 1.326 . S
C259 C263 1.460 . S
C259 H265 0.929 . S
N260 Mn253 2.257 . S
N260 C259 1.326 . S
N260 C264 1.362 . S
C261 C262 1.258 . S
C261 C264 1.431 . S
C261 C281 1.449 . S
C262 C261 1.258 . S
C262 C263 1.477 . S
C262 H282 0.931 . S
C263 C259 1.460 . S
C263 C262 1.477 . S
C263 H283 0.930 . S
C264 N260 1.362 . S
C264 C261 1.431 . S
C264 C274 1.476 . S
H265 C259 0.929 . S
C266 O257 1.250 . S
C266 O258 1.258 . S
O267 Mn252 2.162 . S
O267 C255 1.281 . S
O268 Mn252 2.297 . S
O268 C255 1.236 . S
N269 Mn253 2.282 . S
N269 C270 1.328 . S
N269 C274 1.318 . S
C270 N269 1.328 . S
C270 C271 1.457 . S
C270 H275 0.929 . S
C271 C270 1.457 . S
C271 C272 1.291 . S
C271 H284 0.931 . S
C272 C271 1.291 . S
C272 C273 1.373 . S
C272 H285 0.929 . S
C273 C272 1.373 . S
C273 C274 1.396 . S
C273 C280 1.403 . S
C274 C264 1.476 . S
C274 N269 1.318 . S
C274 C273 1.396 . S
H275 C270 0.929 . S
O276 Mn252 2.385 . S
O276 C254 1.234 . S
O277 Mn252 2.209 . S
O277 Mn253 2.215 . S
O277 C254 1.283 . S
O278 Mn252 2.094 . S
O278 C256 1.240 . S
O279 Mn253 2.117 . S
O279 C256 1.264 . S
C280 C273 1.403 . S
C280 C281 1.399 . S
C280 H286 0.929 . S
C281 C261 1.449 . S
C281 C280 1.399 . S
C281 H287 0.930 . S
H282 C262 0.931 . S
H283 C263 0.930 . S
H284 C271 0.931 . S
H285 C272 0.929 . S
H286 C280 0.929 . S
H287 C281 0.930 . S
Mn288 O293 2.095 1_545 S
Mn288 O303 2.162 . S
Mn288 O304 2.297 1_545 S
Mn288 O312 2.385 . S
Mn288 O313 2.209 1_545 S
Mn288 O314 2.094 . S
Mn289 O294 2.121 . S
Mn289 N296 2.257 . S
Mn289 N305 2.282 1_565 S
Mn289 O313 2.215 . S
Mn289 O315 2.117 1_565 S
C290 O312 1.234 . S
C290 O313 1.283 1_545 S
C291 O303 1.281 1_565 S
C291 O304 1.236 . S
C292 O314 1.240 . S
C292 O315 1.264 . S
O293 Mn288 2.095 1_565 S
O293 C302 1.250 . S
O294 Mn289 2.121 . S
O294 C302 1.258 . S
C295 N296 1.326 . S
C295 C299 1.460 . S
C295 H301 0.929 . S
N296 Mn289 2.257 . S
N296 C295 1.326 . S
N296 C300 1.362 . S
C297 C298 1.258 . S
C297 C300 1.431 . S
C297 C317 1.449 . S
C298 C297 1.258 . S
C298 C299 1.477 . S
C298 H318 0.931 . S
C299 C295 1.460 . S
C299 C298 1.477 . S
C299 H319 0.930 . S
C300 N296 1.362 . S
C300 C297 1.431 . S
C300 C310 1.476 1_565 S
H301 C295 0.929 . S
C302 O293 1.250 . S
C302 O294 1.258 . S
O303 Mn288 2.162 . S
O303 C291 1.281 1_545 S
O304 Mn288 2.297 1_565 S
O304 C291 1.236 . S
N305 Mn289 2.282 1_545 S
N305 C306 1.328 . S
N305 C310 1.318 . S
C306 N305 1.328 . S
C306 C307 1.457 . S
C306 H311 0.929 . S
C307 C306 1.457 . S
C307 C308 1.291 . S
C307 H320 0.931 . S
C308 C307 1.291 . S
C308 C309 1.373 . S
C308 H321 0.929 . S
C309 C308 1.373 . S
C309 C310 1.396 . S
C309 C316 1.403 . S
C310 C300 1.476 1_545 S
C310 N305 1.318 . S
C310 C309 1.396 . S
H311 C306 0.929 . S
O312 Mn288 2.385 . S
O312 C290 1.234 . S
O313 Mn288 2.209 1_565 S
O313 Mn289 2.215 . S
O313 C290 1.283 1_565 S
O314 Mn288 2.094 . S
O314 C292 1.240 . S
O315 Mn289 2.117 1_545 S
O315 C292 1.264 . S
C316 C309 1.403 . S
C316 C317 1.399 1_545 S
C316 H322 0.929 . S
C317 C297 1.449 . S
C317 C316 1.399 1_565 S
C317 H323 0.930 . S
H318 C298 0.931 . S
H319 C299 0.930 . S
H320 C307 0.931 . S
H321 C308 0.929 . S
H322 C316 0.929 . S
H323 C317 0.930 . S
Mn324 O329 2.095 . S
Mn324 O339 2.162 . S
Mn324 O340 2.297 . S
Mn324 O348 2.385 . S
Mn324 O349 2.209 . S
Mn324 O350 2.094 . S
Mn325 O330 2.121 . S
Mn325 N332 2.257 . S
Mn325 N341 2.282 . S
Mn325 O349 2.215 . S
Mn325 O351 2.117 . S
C326 O348 1.234 . S
C326 O349 1.283 . S
C327 O339 1.281 . S
C327 O340 1.236 . S
C328 O350 1.240 . S
C328 O351 1.264 . S
O329 Mn324 2.095 . S
O329 C338 1.250 . S
O330 Mn325 2.121 . S
O330 C338 1.258 . S
C331 N332 1.326 . S
C331 C335 1.460 . S
C331 H337 0.929 . S
N332 Mn325 2.257 . S
N332 C331 1.326 . S
N332 C336 1.362 . S
C333 C334 1.258 . S
C333 C336 1.431 . S
C333 C353 1.449 . S
C334 C333 1.258 . S
C334 C335 1.477 . S
C334 H354 0.931 . S
C335 C331 1.460 . S
C335 C334 1.477 . S
C335 H355 0.930 . S
C336 N332 1.362 . S
C336 C333 1.431 . S
C336 C346 1.476 . S
H337 C331 0.929 . S
C338 O329 1.250 . S
C338 O330 1.258 . S
O339 Mn324 2.162 . S
O339 C327 1.281 . S
O340 Mn324 2.297 . S
O340 C327 1.236 . S
N341 Mn325 2.282 . S
N341 C342 1.328 . S
N341 C346 1.318 . S
C342 N341 1.328 . S
C342 C343 1.457 . S
C342 H347 0.929 . S
C343 C342 1.457 . S
C343 C344 1.291 . S
C343 H356 0.931 . S
C344 C343 1.291 . S
C344 C345 1.373 . S
C344 H357 0.929 . S
C345 C344 1.373 . S
C345 C346 1.396 . S
C345 C352 1.403 . S
C346 C336 1.476 . S
C346 N341 1.318 . S
C346 C345 1.396 . S
H347 C342 0.929 . S
O348 Mn324 2.385 . S
O348 C326 1.234 . S
O349 Mn324 2.209 . S
O349 Mn325 2.215 . S
O349 C326 1.283 . S
O350 Mn324 2.094 . S
O350 C328 1.240 . S
O351 Mn325 2.117 . S
O351 C328 1.264 . S
C352 C345 1.403 . S
C352 C353 1.399 . S
C352 H358 0.929 . S
C353 C333 1.449 . S
C353 C352 1.399 . S
C353 H359 0.930 . S
H354 C334 0.931 . S
H355 C335 0.930 . S
H356 C343 0.931 . S
H357 C344 0.929 . S
H358 C352 0.929 . S
H359 C353 0.930 . S
Mn360 O365 2.095 . S
Mn360 O375 2.162 1_545 S
Mn360 O376 2.297 1_545 S
Mn360 O384 2.385 . S
Mn360 O385 2.209 . S
Mn360 O386 2.094 . S
Mn361 O366 2.121 . S
Mn361 N368 2.257 . S
Mn361 N377 2.282 . S
Mn361 O385 2.215 . S
Mn361 O387 2.117 . S
C362 O384 1.234 . S
C362 O385 1.283 . S
C363 O375 1.281 . S
C363 O376 1.236 . S
C364 O386 1.240 . S
C364 O387 1.264 . S
O365 Mn360 2.095 . S
O365 C374 1.250 . S
O366 Mn361 2.121 . S
O366 C374 1.258 . S
C367 N368 1.326 . S
C367 C371 1.460 . S
C367 H373 0.929 . S
N368 Mn361 2.257 . S
N368 C367 1.326 . S
N368 C372 1.362 . S
C369 C370 1.258 . S
C369 C372 1.431 . S
C369 C389 1.449 . S
C370 C369 1.258 . S
C370 C371 1.477 . S
C370 H390 0.931 . S
C371 C367 1.460 . S
C371 C370 1.477 . S
C371 H391 0.930 . S
C372 N368 1.362 . S
C372 C369 1.431 . S
C372 C382 1.476 . S
H373 C367 0.929 . S
C374 O365 1.250 . S
C374 O366 1.258 . S
O375 Mn360 2.162 1_565 S
O375 C363 1.281 . S
O376 Mn360 2.297 1_565 S
O376 C363 1.236 . S
N377 Mn361 2.282 . S
N377 C378 1.328 . S
N377 C382 1.318 . S
C378 N377 1.328 . S
C378 C379 1.457 . S
C378 H383 0.929 . S
C379 C378 1.457 . S
C379 C380 1.291 . S
C379 H392 0.931 . S
C380 C379 1.291 . S
C380 C381 1.373 . S
C380 H393 0.929 . S
C381 C380 1.373 . S
C381 C382 1.396 . S
C381 C388 1.403 . S
C382 C372 1.476 . S
C382 N377 1.318 . S
C382 C381 1.396 . S
H383 C378 0.929 . S
O384 Mn360 2.385 . S
O384 C362 1.234 . S
O385 Mn360 2.209 . S
O385 Mn361 2.215 . S
O385 C362 1.283 . S
O386 Mn360 2.094 . S
O386 C364 1.240 . S
O387 Mn361 2.117 . S
O387 C364 1.264 . S
C388 C381 1.403 . S
C388 C389 1.399 . S
C388 H394 0.929 . S
C389 C369 1.449 . S
C389 C388 1.399 . S
C389 H395 0.930 . S
H390 C370 0.931 . S
H391 C371 0.930 . S
H392 C379 0.931 . S
H393 C380 0.929 . S
H394 C388 0.929 . S
H395 C389 0.930 . S
Mn396 O401 2.095 1_655 S
Mn396 O411 2.162 . S
Mn396 O412 2.297 . S
Mn396 O420 2.385 . S
Mn396 O421 2.209 . S
Mn396 O422 2.094 . S
Mn397 O402 2.121 1_655 S
Mn397 N404 2.257 . S
Mn397 N413 2.282 . S
Mn397 O421 2.215 . S
Mn397 O423 2.117 . S
C398 O420 1.234 . S
C398 O421 1.283 . S
C399 O411 1.281 . S
C399 O412 1.236 . S
C400 O422 1.240 . S
C400 O423 1.264 . S
O401 Mn396 2.095 1_455 S
O401 C410 1.250 . S
O402 Mn397 2.121 1_455 S
O402 C410 1.258 . S
C403 N404 1.326 . S
C403 C407 1.460 . S
C403 H409 0.928 1_655 S
N404 Mn397 2.257 . S
N404 C403 1.326 . S
N404 C408 1.362 . S
C405 C406 1.258 . S
C405 C408 1.431 . S
C405 C425 1.449 . S
C406 C405 1.258 . S
C406 C407 1.477 . S
C406 H426 0.931 . S
C407 C403 1.460 . S
C407 C406 1.477 . S
C407 H427 0.930 . S
C408 N404 1.362 . S
C408 C405 1.431 . S
C408 C418 1.476 . S
H409 C403 0.928 1_455 S
C410 O401 1.250 . S
C410 O402 1.258 . S
O411 Mn396 2.162 . S
O411 C399 1.281 . S
O412 Mn396 2.297 . S
O412 C399 1.236 . S
N413 Mn397 2.282 . S
N413 C414 1.328 . S
N413 C418 1.318 . S
C414 N413 1.328 . S
C414 C415 1.457 . S
C414 H419 0.929 . S
C415 C414 1.457 . S
C415 C416 1.291 . S
C415 H428 0.931 . S
C416 C415 1.291 . S
C416 C417 1.373 . S
C416 H429 0.929 . S
C417 C416 1.373 . S
C417 C418 1.396 . S
C417 C424 1.403 . S
C418 C408 1.476 . S
C418 N413 1.318 . S
C418 C417 1.396 . S
H419 C414 0.929 . S
O420 Mn396 2.385 . S
O420 C398 1.234 . S
O421 Mn396 2.209 . S
O421 Mn397 2.215 . S
O421 C398 1.283 . S
O422 Mn396 2.094 . S
O422 C400 1.240 . S
O423 Mn397 2.117 . S
O423 C400 1.264 . S
C424 C417 1.403 . S
C424 C425 1.399 . S
C424 H430 0.929 . S
C425 C405 1.449 . S
C425 C424 1.399 . S
C425 H431 0.930 . S
H426 C406 0.931 . S
H427 C407 0.930 . S
H428 C415 0.931 . S
H429 C416 0.929 . S
H430 C424 0.929 . S
H431 C425 0.930 . S
Mn432 O437 2.095 . S
Mn432 O447 2.162 . S
Mn432 O448 2.297 . S
Mn432 O456 2.385 . S
Mn432 O457 2.209 . S
Mn432 O458 2.094 . S
Mn433 O438 2.121 . S
Mn433 N440 2.257 . S
Mn433 N449 2.282 . S
Mn433 O457 2.215 . S
Mn433 O459 2.117 . S
C434 O456 1.234 . S
C434 O457 1.283 . S
C435 O447 1.281 . S
C435 O448 1.236 . S
C436 O458 1.240 . S
C436 O459 1.264 . S
O437 Mn432 2.095 . S
O437 C446 1.250 . S
O438 Mn433 2.121 . S
O438 C446 1.258 . S
C439 N440 1.326 . S
C439 C443 1.460 . S
C439 H445 0.929 . S
N440 Mn433 2.257 . S
N440 C439 1.326 . S
N440 C444 1.362 . S
C441 C442 1.258 . S
C441 C444 1.431 . S
C441 C461 1.449 . S
C442 C441 1.258 . S
C442 C443 1.477 . S
C442 H462 0.931 . S
C443 C439 1.460 . S
C443 C442 1.477 . S
C443 H463 0.930 . S
C444 N440 1.362 . S
C444 C441 1.431 . S
C444 C454 1.476 . S
H445 C439 0.929 . S
C446 O437 1.250 . S
C446 O438 1.258 . S
O447 Mn432 2.162 . S
O447 C435 1.281 . S
O448 Mn432 2.297 . S
O448 C435 1.236 . S
N449 Mn433 2.282 . S
N449 C450 1.328 . S
N449 C454 1.318 . S
C450 N449 1.328 . S
C450 C451 1.457 . S
C450 H455 0.929 . S
C451 C450 1.457 . S
C451 C452 1.291 . S
C451 H464 0.931 . S
C452 C451 1.291 . S
C452 C453 1.373 . S
C452 H465 0.929 . S
C453 C452 1.373 . S
C453 C454 1.396 . S
C453 C460 1.403 . S
C454 C444 1.476 . S
C454 N449 1.318 . S
C454 C453 1.396 . S
H455 C450 0.929 . S
O456 Mn432 2.385 . S
O456 C434 1.234 . S
O457 Mn432 2.209 . S
O457 Mn433 2.215 . S
O457 C434 1.283 . S
O458 Mn432 2.094 . S
O458 C436 1.240 . S
O459 Mn433 2.117 . S
O459 C436 1.264 . S
C460 C453 1.403 . S
C460 C461 1.399 . S
C460 H466 0.929 . S
C461 C441 1.449 . S
C461 C460 1.399 . S
C461 H467 0.930 . S
H462 C442 0.931 . S
H463 C443 0.930 . S
H464 C451 0.931 . S
H465 C452 0.929 . S
H466 C460 0.929 . S
H467 C461 0.930 . S
Mn468 O473 2.070 1_565 S
Mn468 O483 2.162 . S
Mn468 O484 2.297 . S
Mn468 O492 2.385 . S
Mn468 O493 2.209 . S
Mn468 O494 2.094 . S
Mn469 O474 2.121 1_565 S
Mn469 N476 2.257 . S
Mn469 N485 2.282 . S
Mn469 O493 2.215 . S
Mn469 O495 2.117 . S
C470 O492 1.234 . S
C470 O493 1.283 . S
C471 O483 1.281 . S
C471 O484 1.236 . S
C472 O494 1.240 . S
C472 O495 1.264 . S
O473 Mn468 2.070 1_545 S
O473 C482 1.269 . S
O474 Mn469 2.121 1_545 S
O474 C482 1.258 . S
C475 N476 1.326 . S
C475 C479 1.460 . S
C475 H481 0.929 . S
N476 Mn469 2.257 . S
N476 C475 1.326 . S
N476 C480 1.362 . S
C477 C478 1.258 . S
C477 C480 1.431 . S
C477 C497 1.449 . S
C478 C477 1.258 . S
C478 C479 1.477 . S
C478 H498 0.931 . S
C479 C475 1.460 . S
C479 C478 1.477 . S
C479 H499 0.930 . S
C480 N476 1.362 . S
C480 C477 1.431 . S
C480 C490 1.476 . S
H481 C475 0.929 . S
C482 O473 1.269 . S
C482 O474 1.258 . S
O483 Mn468 2.162 . S
O483 C471 1.281 . S
O484 Mn468 2.297 . S
O484 C471 1.236 . S
N485 Mn469 2.282 . S
N485 C486 1.328 . S
N485 C490 1.318 . S
C486 N485 1.328 . S
C486 C487 1.457 . S
C486 H491 0.929 . S
C487 C486 1.457 . S
C487 C488 1.291 . S
C487 H500 0.931 . S
C488 C487 1.291 . S
C488 C489 1.373 . S
C488 H501 0.929 . S
C489 C488 1.373 . S
C489 C490 1.396 . S
C489 C496 1.403 . S
C490 C480 1.476 . S
C490 N485 1.318 . S
C490 C489 1.396 . S
H491 C486 0.929 . S
O492 Mn468 2.385 . S
O492 C470 1.234 . S
O493 Mn468 2.209 . S
O493 Mn469 2.215 . S
O493 C470 1.283 . S
O494 Mn468 2.094 . S
O494 C472 1.240 . S
O495 Mn469 2.117 . S
O495 C472 1.264 . S
C496 C489 1.403 . S
C496 C497 1.399 . S
C496 H502 0.929 . S
C497 C477 1.449 . S
C497 C496 1.399 . S
C497 H503 0.930 . S
H498 C478 0.931 . S
H499 C479 0.930 . S
H500 C487 0.931 . S
H501 C488 0.929 . S
H502 C496 0.929 . S
H503 C497 0.930 . S
Mn504 O509 2.095 1_455 S
Mn504 O519 2.162 . S
Mn504 O520 2.297 . S
Mn504 O528 2.385 . S
Mn504 O529 2.209 . S
Mn504 O530 2.094 . S
Mn505 O510 2.121 1_455 S
Mn505 N512 2.257 . S
Mn505 N521 2.282 . S
Mn505 O529 2.215 . S
Mn505 O531 2.117 . S
C506 O528 1.234 . S
C506 O529 1.283 . S
C507 O519 1.281 . S
C507 O520 1.236 . S
C508 O530 1.240 . S
C508 O531 1.264 . S
O509 Mn504 2.095 1_655 S
O509 C518 1.250 . S
O510 Mn505 2.121 1_655 S
O510 C518 1.258 . S
C511 N512 1.326 . S
C511 C515 1.460 . S
C511 H517 0.929 1_455 S
N512 Mn505 2.257 . S
N512 C511 1.326 . S
N512 C516 1.362 . S
C513 C514 1.258 . S
C513 C516 1.431 . S
C513 C533 1.449 . S
C514 C513 1.258 . S
C514 C515 1.477 . S
C514 H534 0.931 . S
C515 C511 1.460 . S
C515 C514 1.477 . S
C515 H535 0.930 . S
C516 N512 1.362 . S
C516 C513 1.431 . S
C516 C526 1.476 . S
H517 C511 0.929 1_655 S
C518 O509 1.250 . S
C518 O510 1.258 . S
O519 Mn504 2.162 . S
O519 C507 1.281 . S
O520 Mn504 2.297 . S
O520 C507 1.236 . S
N521 Mn505 2.282 . S
N521 C522 1.328 . S
N521 C526 1.318 . S
C522 N521 1.328 . S
C522 C523 1.457 . S
C522 H527 0.929 . S
C523 C522 1.457 . S
C523 C524 1.291 . S
C523 H536 0.931 . S
C524 C523 1.291 . S
C524 C525 1.373 . S
C524 H537 0.929 . S
C525 C524 1.373 . S
C525 C526 1.396 . S
C525 C532 1.403 . S
C526 C516 1.476 . S
C526 N521 1.318 . S
C526 C525 1.396 . S
H527 C522 0.929 . S
O528 Mn504 2.385 . S
O528 C506 1.234 . S
O529 Mn504 2.209 . S
O529 Mn505 2.215 . S
O529 C506 1.283 . S
O530 Mn504 2.094 . S
O530 C508 1.240 . S
O531 Mn505 2.117 . S
O531 C508 1.264 . S
C532 C525 1.403 . S
C532 C533 1.399 . S
C532 H538 0.929 . S
C533 C513 1.449 . S
C533 C532 1.399 . S
C533 H539 0.930 . S
H534 C514 0.931 . S
H535 C515 0.930 . S
H536 C523 0.931 . S
H537 C524 0.929 . S
H538 C532 0.929 . S
H539 C533 0.930 . S
Mn540 O545 2.095 1_455 S
Mn540 O555 2.162 . S
Mn540 O556 2.297 1_455 S
Mn540 O564 2.385 . S
Mn540 O565 2.209 1_455 S
Mn540 O566 2.094 . S
Mn541 O546 2.121 . S
Mn541 N548 2.257 . S
Mn541 N557 2.282 1_655 S
Mn541 O565 2.215 . S
Mn541 O567 2.117 1_655 S
C542 O564 1.234 . S
C542 O565 1.283 1_455 S
C543 O555 1.281 1_655 S
C543 O556 1.236 . S
C544 O566 1.240 . S
C544 O567 1.264 . S
O545 Mn540 2.095 1_655 S
O545 C554 1.250 . S
O546 Mn541 2.121 . S
O546 C554 1.258 . S
C547 N548 1.326 . S
C547 C551 1.460 . S
C547 H553 0.929 . S
N548 Mn541 2.257 . S
N548 C547 1.326 . S
N548 C552 1.362 . S
C549 C550 1.258 . S
C549 C552 1.431 . S
C549 C569 1.449 . S
C550 C549 1.258 . S
C550 C551 1.477 . S
C550 H570 0.931 . S
C551 C547 1.460 . S
C551 C550 1.477 . S
C551 H571 0.930 . S
C552 N548 1.362 . S
C552 C549 1.431 . S
C552 C562 1.476 1_655 S
H553 C547 0.929 . S
C554 O545 1.250 . S
C554 O546 1.258 . S
O555 Mn540 2.162 . S
O555 C543 1.281 1_455 S
O556 Mn540 2.297 1_655 S
O556 C543 1.236 . S
N557 Mn541 2.282 1_455 S
N557 C558 1.328 . S
N557 C562 1.318 . S
C558 N557 1.328 . S
C558 C559 1.457 . S
C558 H563 0.929 . S
C559 C558 1.457 . S
C559 C560 1.291 . S
C559 H572 0.931 . S
C560 C559 1.291 . S
C560 C561 1.373 . S
C560 H573 0.929 . S
C561 C560 1.373 . S
C561 C562 1.396 . S
C561 C568 1.403 . S
C562 C552 1.476 1_455 S
C562 N557 1.318 . S
C562 C561 1.396 . S
H563 C558 0.929 . S
O564 Mn540 2.385 . S
O564 C542 1.234 . S
O565 Mn540 2.209 1_655 S
O565 Mn541 2.215 . S
O565 C542 1.283 1_655 S
O566 Mn540 2.094 . S
O566 C544 1.240 . S
O567 Mn541 2.117 1_455 S
O567 C544 1.264 . S
C568 C561 1.403 . S
C568 C569 1.399 1_455 S
C568 H574 0.929 . S
C569 C549 1.449 . S
C569 C568 1.399 1_655 S
C569 H575 0.930 . S
H570 C550 0.931 . S
H571 C551 0.930 . S
H572 C559 0.931 . S
H573 C560 0.929 . S
H574 C568 0.929 . S
H575 C569 0.930 . S
Mn576 O581 2.095 . S
Mn576 O591 2.162 . S
Mn576 O592 2.297 . S
Mn576 O600 2.385 . S
Mn576 O601 2.209 . S
Mn576 O602 2.094 . S
Mn577 O582 2.121 . S
Mn577 N584 2.257 . S
Mn577 N593 2.282 . S
Mn577 O601 2.215 . S
Mn577 O603 2.117 . S
C578 O600 1.234 . S
C578 O601 1.283 . S
C579 O591 1.281 . S
C579 O592 1.236 . S
C580 O602 1.240 . S
C580 O603 1.264 . S
O581 Mn576 2.095 . S
O581 C590 1.250 . S
O582 Mn577 2.121 . S
O582 C590 1.258 . S
C583 N584 1.326 . S
C583 C587 1.460 . S
C583 H589 0.929 . S
N584 Mn577 2.257 . S
N584 C583 1.326 . S
N584 C588 1.362 . S
C585 C586 1.258 . S
C585 C588 1.431 . S
C585 C605 1.449 . S
C586 C585 1.258 . S
C586 C587 1.477 . S
C586 H606 0.931 . S
C587 C583 1.460 . S
C587 C586 1.477 . S
C587 H607 0.930 . S
C588 N584 1.362 . S
C588 C585 1.431 . S
C588 C598 1.476 . S
H589 C583 0.929 . S
C590 O581 1.250 . S
C590 O582 1.258 . S
O591 Mn576 2.162 . S
O591 C579 1.281 . S
O592 Mn576 2.297 . S
O592 C579 1.236 . S
N593 Mn577 2.282 . S
N593 C594 1.328 . S
N593 C598 1.318 . S
C594 N593 1.328 . S
C594 C595 1.457 . S
C594 H599 0.929 . S
C595 C594 1.457 . S
C595 C596 1.291 . S
C595 H608 0.931 . S
C596 C595 1.291 . S
C596 C597 1.373 . S
C596 H609 0.929 . S
C597 C596 1.373 . S
C597 C598 1.396 . S
C597 C604 1.403 . S
C598 C588 1.476 . S
C598 N593 1.318 . S
C598 C597 1.396 . S
H599 C594 0.929 . S
O600 Mn576 2.385 . S
O600 C578 1.234 . S
O601 Mn576 2.209 . S
O601 Mn577 2.215 . S
O601 C578 1.283 . S
O602 Mn576 2.094 . S
O602 C580 1.240 . S
O603 Mn577 2.117 . S
O603 C580 1.264 . S
C604 C597 1.403 . S
C604 C605 1.399 . S
C604 H610 0.929 . S
C605 C585 1.449 . S
C605 C604 1.399 . S
C605 H611 0.930 . S
H606 C586 0.931 . S
H607 C587 0.930 . S
H608 C595 0.931 . S
H609 C596 0.929 . S
H610 C604 0.929 . S
H611 C605 0.930 . S
Mn612 O617 2.095 1_565 S
Mn612 O627 2.162 . S
Mn612 O628 2.297 1_565 S
Mn612 O636 2.385 . S
Mn612 O637 2.209 1_565 S
Mn612 O638 2.094 . S
Mn613 O618 2.121 . S
Mn613 N620 2.257 . S
Mn613 N629 2.282 1_545 S
Mn613 O637 2.215 . S
Mn613 O639 2.117 1_545 S
C614 O636 1.234 . S
C614 O637 1.283 1_565 S
C615 O627 1.281 1_545 S
C615 O628 1.236 . S
C616 O638 1.240 . S
C616 O639 1.264 . S
O617 Mn612 2.095 1_545 S
O617 C626 1.250 . S
O618 Mn613 2.121 . S
O618 C626 1.258 . S
C619 N620 1.326 . S
C619 C623 1.460 . S
C619 H625 0.929 . S
N620 Mn613 2.257 . S
N620 C619 1.326 . S
N620 C624 1.362 . S
C621 C622 1.258 . S
C621 C624 1.431 . S
C621 C641 1.449 . S
C622 C621 1.258 . S
C622 C623 1.477 . S
C622 H642 0.931 . S
C623 C619 1.460 . S
C623 C622 1.477 . S
C623 H643 0.930 . S
C624 N620 1.362 . S
C624 C621 1.431 . S
C624 C634 1.476 1_545 S
H625 C619 0.929 . S
C626 O617 1.250 . S
C626 O618 1.258 . S
O627 Mn612 2.162 . S
O627 C615 1.281 1_565 S
O628 Mn612 2.297 1_545 S
O628 C615 1.236 . S
N629 Mn613 2.282 1_565 S
N629 C630 1.328 . S
N629 C634 1.318 . S
C630 N629 1.328 . S
C630 C631 1.457 . S
C630 H635 0.929 . S
C631 C630 1.457 . S
C631 C632 1.291 . S
C631 H644 0.931 . S
C632 C631 1.291 . S
C632 C633 1.373 . S
C632 H645 0.929 . S
C633 C632 1.373 . S
C633 C634 1.396 . S
C633 C640 1.403 . S
C634 C624 1.476 1_565 S
C634 N629 1.318 . S
C634 C633 1.396 . S
H635 C630 0.929 . S
O636 Mn612 2.385 . S
O636 C614 1.234 . S
O637 Mn612 2.209 1_545 S
O637 Mn613 2.215 . S
O637 C614 1.283 1_545 S
O638 Mn612 2.094 . S
O638 C616 1.240 . S
O639 Mn613 2.117 1_565 S
O639 C616 1.264 . S
C640 C633 1.403 . S
C640 C641 1.399 1_565 S
C640 H646 0.929 . S
C641 C621 1.449 . S
C641 C640 1.399 1_545 S
C641 H647 0.930 . S
H642 C622 0.931 . S
H643 C623 0.930 . S
H644 C631 0.931 . S
H645 C632 0.929 . S
H646 C640 0.929 . S
H647 C641 0.930 . S
H648 C656 0.957 . S
H649 C661 0.950 . S
H650 C658 0.950 . S
H651 C660 0.950 1_565 S
H652 C662 0.938 1_554 S
H653 C664 0.950 . S
H654 C666 0.950 . S
H655 C667 0.950 1_545 S
C656 H648 0.957 . S
C656 C657 1.386 . S
C656 C658 1.391 1_554 S
C657 C656 1.386 . S
C657 C661 1.393 . S
C658 H650 0.950 . S
C658 C656 1.391 1_556 S
C658 C659 1.400 1_556 S
C659 C658 1.400 1_554 S
C659 C660 1.398 . S
C659 C665 1.491 1_544 S
C660 H651 0.950 1_545 S
C660 C659 1.398 . S
C660 C661 1.391 . S
C661 H649 0.950 . S
C661 C657 1.393 . S
C661 C660 1.391 . S
C662 H652 0.938 1_556 S
C662 C663 1.386 . S
C662 C664 1.391 1_556 S
C663 C662 1.386 . S
C663 C667 1.393 . S
C664 H653 0.950 . S
C664 C662 1.391 1_554 S
C664 C665 1.400 1_554 S
C665 C659 1.491 1_566 S
C665 C664 1.400 1_556 S
C665 C666 1.398 1_565 S
C666 H654 0.950 . S
C666 C665 1.398 1_545 S
C666 C667 1.391 1_545 S
C667 H655 0.950 1_565 S
C667 C663 1.393 . S
C667 C666 1.391 1_565 S
H668 C676 0.950 . S
H669 C681 0.950 . S
H670 C678 0.950 . S
H671 C680 0.950 . S
H672 C682 0.950 . S
H673 C684 0.950 . S
H674 C686 0.950 . S
H675 C687 0.950 . S
C676 H668 0.950 . S
C676 C677 1.386 . S
C676 C678 1.391 . S
C677 C676 1.386 . S
C677 C681 1.393 1_655 S
C678 H670 0.950 . S
C678 C676 1.391 . S
C678 C679 1.400 . S
C679 C678 1.400 . S
C679 C680 1.398 1_655 S
C679 C685 1.491 1_554 S
C680 H671 0.950 . S
C680 C679 1.398 1_455 S
C680 C681 1.391 . S
C681 H669 0.950 . S
C681 C677 1.393 1_455 S
C681 C680 1.391 . S
C682 H672 0.950 . S
C682 C683 1.386 . S
C682 C684 1.391 . S
C683 C682 1.386 . S
C683 C687 1.393 1_455 S
C684 H673 0.950 . S
C684 C682 1.391 . S
C684 C685 1.400 1_455 S
C685 C679 1.491 1_556 S
C685 C684 1.400 1_655 S
C685 C686 1.398 . S
C686 H674 0.950 . S
C686 C685 1.398 . S
C686 C687 1.391 . S
C687 H675 0.950 . S
C687 C683 1.393 1_655 S
C687 C686 1.391 . S
H688 C696 0.950 . S
H689 C701 0.950 . S
H690 C698 0.950 . S
H691 C700 0.950 1_554 S
H692 C702 0.950 . S
H693 C704 0.950 . S
H694 C706 0.964 . S
H695 C707 0.950 . S
C696 H688 0.950 . S
C696 C697 1.386 . S
C696 C698 1.391 . S
C697 C696 1.386 . S
C697 C701 1.393 . S
C698 H690 0.950 . S
C698 C696 1.391 . S
C698 C699 1.400 . S
C699 C698 1.400 . S
C699 C700 1.398 . S
C699 C705 1.491 1_556 S
C700 H691 0.950 1_556 S
C700 C699 1.398 . S
C700 C701 1.391 . S
C701 H689 0.950 . S
C701 C697 1.393 . S
C701 C700 1.391 . S
C702 H692 0.950 . S
C702 C703 1.386 . S
C702 C704 1.391 . S
C703 C702 1.386 . S
C703 C707 1.393 . S
C704 H693 0.950 . S
C704 C702 1.391 . S
C704 C705 1.400 . S
C705 C699 1.491 1_554 S
C705 C704 1.400 . S
C705 C706 1.395 1_554 S
C706 H694 0.964 . S
C706 C705 1.395 1_556 S
C706 C707 1.380 1_556 S
C707 H695 0.950 . S
C707 C703 1.393 . S
C707 C706 1.380 1_554 S
H708 C716 0.950 . S
H709 C721 0.950 . S
H710 C718 0.950 . S
H711 C720 0.950 . S
H712 C722 0.950 . S
H713 C724 0.950 . S
H714 C726 0.950 . S
H715 C727 0.950 . S
C716 H708 0.950 . S
C716 C717 1.386 . S
C716 C718 1.391 . S
C717 C716 1.386 . S
C717 C721 1.393 . S
C718 H710 0.950 . S
C718 C716 1.391 . S
C718 C719 1.400 . S
C719 C718 1.400 . S
C719 C720 1.398 . S
C719 C725 1.491 . S
C720 H711 0.950 . S
C720 C719 1.398 . S
C720 C721 1.391 . S
C721 H709 0.950 . S
C721 C717 1.393 . S
C721 C720 1.391 . S
C722 H712 0.950 . S
C722 C723 1.386 . S
C722 C724 1.391 . S
C723 C722 1.386 . S
C723 C727 1.393 . S
C724 H713 0.950 . S
C724 C722 1.391 . S
C724 C725 1.400 . S
C725 C719 1.491 . S
C725 C724 1.400 . S
C725 C726 1.398 . S
C726 H714 0.950 . S
C726 C725 1.398 . S
C726 C727 1.391 . S
C727 H715 0.950 . S
C727 C723 1.393 . S
C727 C726 1.391 . S
H728 C736 0.950 . S
H729 C741 0.950 . S
H730 C738 0.950 . S
H731 C740 0.950 . S
H732 C742 0.950 . S
H733 C744 0.950 . S
H734 C746 0.950 . S
H735 C747 0.950 . S
C736 H728 0.950 . S
C736 C737 1.386 . S
C736 C738 1.391 . S
C737 C736 1.386 . S
C737 C741 1.393 . S
C738 H730 0.950 . S
C738 C736 1.391 . S
C738 C739 1.400 . S
C739 C738 1.400 . S
C739 C740 1.398 . S
C739 C745 1.491 . S
C740 H731 0.950 . S
C740 C739 1.398 . S
C740 C741 1.391 . S
C741 H729 0.950 . S
C741 C737 1.393 . S
C741 C740 1.391 . S
C742 H732 0.950 . S
C742 C743 1.386 . S
C742 C744 1.391 . S
C743 C742 1.386 . S
C743 C747 1.393 . S
C744 H733 0.950 . S
C744 C742 1.391 . S
C744 C745 1.400 . S
C745 C739 1.491 . S
C745 C744 1.400 . S
C745 C746 1.398 . S
C746 H734 0.950 . S
C746 C745 1.398 . S
C746 C747 1.391 . S
C747 H735 0.950 . S
C747 C743 1.393 . S
C747 C746 1.391 . S
H748 C756 0.950 . S
H749 C761 0.950 . S
H750 C758 0.950 . S
H751 C760 0.950 . S
H752 C762 0.950 . S
H753 C764 0.950 . S
H754 C766 0.950 . S
H755 C767 0.950 . S
C756 H748 0.950 . S
C756 C757 1.386 . S
C756 C758 1.391 . S
C757 C756 1.386 . S
C757 C761 1.393 . S
C758 H750 0.950 . S
C758 C756 1.391 . S
C758 C759 1.400 . S
C759 C758 1.400 . S
C759 C760 1.398 . S
C759 C765 1.491 . S
C760 H751 0.950 . S
C760 C759 1.398 . S
C760 C761 1.391 . S
C761 H749 0.950 . S
C761 C757 1.393 . S
C761 C760 1.391 . S
C762 H752 0.950 . S
C762 C763 1.386 . S
C762 C764 1.391 . S
C763 C762 1.386 . S
C763 C767 1.393 . S
C764 H753 0.950 . S
C764 C762 1.391 . S
C764 C765 1.400 . S
C765 C759 1.491 . S
C765 C764 1.400 . S
C765 C766 1.398 . S
C766 H754 0.950 . S
C766 C765 1.398 . S
C766 C767 1.391 . S
C767 H755 0.950 . S
C767 C763 1.393 . S
C767 C766 1.391 . S
H768 C776 0.950 . S
H769 C781 0.950 . S
H770 C778 0.950 . S
H771 C780 0.950 . S
H772 C782 0.950 . S
H773 C784 0.950 . S
H774 C786 0.950 . S
H775 C787 0.950 . S
C776 H768 0.950 . S
C776 C777 1.386 . S
C776 C778 1.391 . S
C777 C776 1.386 . S
C777 C781 1.393 . S
C778 H770 0.950 . S
C778 C776 1.391 . S
C778 C779 1.400 . S
C779 C778 1.400 . S
C779 C780 1.398 . S
C779 C785 1.491 . S
C780 H771 0.950 . S
C780 C779 1.398 . S
C780 C781 1.391 . S
C781 H769 0.950 . S
C781 C777 1.393 . S
C781 C780 1.391 . S
C782 H772 0.950 . S
C782 C783 1.386 . S
C782 C784 1.391 . S
C783 C782 1.386 . S
C783 C787 1.393 . S
C784 H773 0.950 . S
C784 C782 1.391 . S
C784 C785 1.400 . S
C785 C779 1.491 . S
C785 C784 1.400 . S
C785 C786 1.398 . S
C786 H774 0.950 . S
C786 C785 1.398 . S
C786 C787 1.391 . S
C787 H775 0.950 . S
C787 C783 1.393 . S
C787 C786 1.391 . S
H788 C796 0.950 . S
H789 C801 0.950 . S
H790 C798 0.950 . S
H791 C800 0.950 . S
H792 C802 0.950 . S
H793 C804 0.950 . S
H794 C806 0.950 . S
H795 C807 0.950 . S
C796 H788 0.950 . S
C796 C797 1.386 . S
C796 C798 1.391 . S
C797 C796 1.386 . S
C797 C801 1.393 . S
C798 H790 0.950 . S
C798 C796 1.391 . S
C798 C799 1.400 . S
C799 C798 1.400 . S
C799 C800 1.398 . S
C799 C805 1.491 . S
C800 H791 0.950 . S
C800 C799 1.398 . S
C800 C801 1.391 . S
C801 H789 0.950 . S
C801 C797 1.393 . S
C801 C800 1.391 . S
C802 H792 0.950 . S
C802 C803 1.386 . S
C802 C804 1.391 . S
C803 C802 1.386 . S
C803 C807 1.393 . S
C804 H793 0.950 . S
C804 C802 1.391 . S
C804 C805 1.400 . S
C805 C799 1.491 . S
C805 C804 1.400 . S
C805 C806 1.398 . S
C806 H794 0.950 . S
C806 C805 1.398 . S
C806 C807 1.391 . S
C807 H795 0.950 . S
C807 C803 1.393 . S
C807 C806 1.391 . S
H808 C816 0.950 . S
H809 C821 0.950 . S
H810 C818 0.950 . S
H811 C820 0.950 . S
H812 C822 0.950 . S
H813 C824 0.950 . S
H814 C826 0.950 . S
H815 C827 0.950 . S
C816 H808 0.950 . S
C816 C817 1.386 . S
C816 C818 1.391 . S
C817 C816 1.386 . S
C817 C821 1.393 . S
C818 H810 0.950 . S
C818 C816 1.391 . S
C818 C819 1.400 . S
C819 C818 1.400 . S
C819 C820 1.398 . S
C819 C825 1.491 . S
C820 H811 0.950 . S
C820 C819 1.398 . S
C820 C821 1.391 . S
C821 H809 0.950 . S
C821 C817 1.393 . S
C821 C820 1.391 . S
C822 H812 0.950 . S
C822 C823 1.386 . S
C822 C824 1.391 . S
C823 C822 1.386 . S
C823 C827 1.393 . S
C824 H813 0.950 . S
C824 C822 1.391 . S
C824 C825 1.400 . S
C825 C819 1.491 . S
C825 C824 1.400 . S
C825 C826 1.398 . S
C826 H814 0.950 . S
C826 C825 1.398 . S
C826 C827 1.391 . S
C827 H815 0.950 . S
C827 C823 1.393 . S
C827 C826 1.391 . S
H828 C836 0.950 . S
H829 C841 0.950 . S
H830 C838 0.950 . S
H831 C840 0.950 . S
H832 C842 0.950 . S
H833 C844 0.950 . S
H834 C846 0.950 . S
H835 C847 0.950 . S
C836 H828 0.950 . S
C836 C837 1.386 . S
C836 C838 1.391 . S
C837 C836 1.386 . S
C837 C841 1.393 . S
C838 H830 0.950 . S
C838 C836 1.391 . S
C838 C839 1.400 . S
C839 C838 1.400 . S
C839 C840 1.398 . S
C839 C845 1.491 . S
C840 H831 0.950 . S
C840 C839 1.398 . S
C840 C841 1.391 . S
C841 H829 0.950 . S
C841 C837 1.393 . S
C841 C840 1.391 . S
C842 H832 0.950 . S
C842 C843 1.386 . S
C842 C844 1.391 . S
C843 C842 1.386 . S
C843 C847 1.393 . S
C844 H833 0.950 . S
C844 C842 1.391 . S
C844 C845 1.400 . S
C845 C839 1.491 . S
C845 C844 1.400 . S
C845 C846 1.398 . S
C846 H834 0.950 . S
C846 C845 1.398 . S
C846 C847 1.391 . S
C847 H835 0.950 . S
C847 C843 1.393 . S
C847 C846 1.391 . S
H848 C856 0.950 . S
H849 C861 0.950 . S
H850 C858 0.950 . S
H851 C860 0.950 . S
H852 C862 0.950 . S
H853 C864 0.950 . S
H854 C866 0.950 . S
H855 C867 0.950 . S
C856 H848 0.950 . S
C856 C857 1.386 . S
C856 C858 1.391 . S
C857 C856 1.386 . S
C857 C861 1.393 . S
C858 H850 0.950 . S
C858 C856 1.391 . S
C858 C859 1.400 . S
C859 C858 1.400 . S
C859 C860 1.398 . S
C859 C865 1.491 . S
C860 H851 0.950 . S
C860 C859 1.398 . S
C860 C861 1.391 . S
C861 H849 0.950 . S
C861 C857 1.393 . S
C861 C860 1.391 . S
C862 H852 0.950 . S
C862 C863 1.386 . S
C862 C864 1.391 . S
C863 C862 1.386 . S
C863 C867 1.393 . S
C864 H853 0.950 . S
C864 C862 1.391 . S
C864 C865 1.400 . S
C865 C859 1.491 . S
C865 C864 1.400 . S
C865 C866 1.398 . S
C866 H854 0.950 . S
C866 C865 1.398 . S
C866 C867 1.391 . S
C867 H855 0.950 . S
C867 C863 1.393 . S
C867 C866 1.391 . S
H868 C876 0.950 . S
H869 C881 0.950 . S
H870 C878 0.950 . S
H871 C880 0.950 . S
H872 C882 0.950 . S
H873 C884 0.950 . S
H874 C886 0.950 . S
H875 C887 0.950 . S
C876 H868 0.950 . S
C876 C877 1.386 . S
C876 C878 1.391 . S
C877 C876 1.386 . S
C877 C881 1.393 . S
C878 H870 0.950 . S
C878 C876 1.391 . S
C878 C879 1.400 . S
C879 C878 1.400 . S
C879 C880 1.398 . S
C879 C885 1.491 . S
C880 H871 0.950 . S
C880 C879 1.398 . S
C880 C881 1.391 . S
C881 H869 0.950 . S
C881 C877 1.393 . S
C881 C880 1.391 . S
C882 H872 0.950 . S
C882 C883 1.386 . S
C882 C884 1.391 . S
C883 C882 1.386 . S
C883 C887 1.393 . S
C884 H873 0.950 . S
C884 C882 1.391 . S
C884 C885 1.400 . S
C885 C879 1.491 . S
C885 C884 1.400 . S
C885 C886 1.398 . S
C886 H874 0.950 . S
C886 C885 1.398 . S
C886 C887 1.391 . S
C887 H875 0.950 . S
C887 C883 1.393 . S
C887 C886 1.391 . S
H888 C896 0.950 . S
H889 C901 0.950 . S
H890 C898 0.950 . S
H891 C900 0.950 . S
H892 C902 0.950 . S
H893 C904 0.950 . S
H894 C906 0.950 . S
H895 C907 0.950 . S
C896 H888 0.950 . S
C896 C897 1.386 . S
C896 C898 1.391 . S
C897 C896 1.386 . S
C897 C901 1.393 . S
C898 H890 0.950 . S
C898 C896 1.391 . S
C898 C899 1.400 . S
C899 C898 1.400 . S
C899 C900 1.398 . S
C899 C905 1.491 . S
C900 H891 0.950 . S
C900 C899 1.398 . S
C900 C901 1.391 . S
C901 H889 0.950 . S
C901 C897 1.393 . S
C901 C900 1.391 . S
C902 H892 0.950 . S
C902 C903 1.386 . S
C902 C904 1.391 . S
C903 C902 1.386 . S
C903 C907 1.393 . S
C904 H893 0.950 . S
C904 C902 1.391 . S
C904 C905 1.400 . S
C905 C899 1.491 . S
C905 C904 1.400 . S
C905 C906 1.398 . S
C906 H894 0.950 . S
C906 C905 1.398 . S
C906 C907 1.391 . S
C907 H895 0.950 . S
C907 C903 1.393 . S
C907 C906 1.391 . S
H908 C916 0.950 . S
H909 C921 0.950 . S
H910 C918 0.950 . S
H911 C920 0.950 . S
H912 C922 0.950 . S
H913 C924 0.950 . S
H914 C926 0.950 . S
H915 C927 0.950 . S
C916 H908 0.950 . S
C916 C917 1.386 . S
C916 C918 1.391 . S
C917 C916 1.386 . S
C917 C921 1.393 . S
C918 H910 0.950 . S
C918 C916 1.391 . S
C918 C919 1.400 . S
C919 C918 1.400 . S
C919 C920 1.398 . S
C919 C925 1.491 . S
C920 H911 0.950 . S
C920 C919 1.398 . S
C920 C921 1.391 . S
C921 H909 0.950 . S
C921 C917 1.393 . S
C921 C920 1.391 . S
C922 H912 0.950 . S
C922 C923 1.386 . S
C922 C924 1.391 . S
C923 C922 1.386 . S
C923 C927 1.393 . S
C924 H913 0.950 . S
C924 C922 1.391 . S
C924 C925 1.400 . S
C925 C919 1.491 . S
C925 C924 1.400 . S
C925 C926 1.398 . S
C926 H914 0.950 . S
C926 C925 1.398 . S
C926 C927 1.391 . S
C927 H915 0.950 . S
C927 C923 1.393 . S
C927 C926 1.391 . S
H928 C936 0.950 . S
H929 C941 0.950 . S
H930 C938 0.950 . S
H931 C940 0.950 . S
H932 C942 0.950 . S
H933 C944 0.950 . S
H934 C946 0.950 . S
H935 C947 0.950 . S
C936 H928 0.950 . S
C936 C937 1.386 . S
C936 C938 1.391 . S
C937 C936 1.386 . S
C937 C941 1.393 . S
C938 H930 0.950 . S
C938 C936 1.391 . S
C938 C939 1.400 . S
C939 C938 1.400 . S
C939 C940 1.398 . S
C939 C945 1.491 . S
C940 H931 0.950 . S
C940 C939 1.398 . S
C940 C941 1.391 . S
C941 H929 0.950 . S
C941 C937 1.393 . S
C941 C940 1.391 . S
C942 H932 0.950 . S
C942 C943 1.386 . S
C942 C944 1.391 . S
C943 C942 1.386 . S
C943 C947 1.393 . S
C944 H933 0.950 . S
C944 C942 1.391 . S
C944 C945 1.400 . S
C945 C939 1.491 . S
C945 C944 1.400 . S
C945 C946 1.398 . S
C946 H934 0.950 . S
C946 C945 1.398 . S
C946 C947 1.391 . S
C947 H935 0.950 . S
C947 C943 1.393 . S
C947 C946 1.391 . S
H948 C956 0.950 . S
H949 C961 0.950 . S
H950 C958 0.950 . S
H951 C960 0.950 . S
H952 C962 0.950 . S
H953 C964 0.950 . S
H954 C966 0.950 . S
H955 C967 0.950 . S
C956 H948 0.950 . S
C956 C957 1.386 . S
C956 C958 1.391 . S
C957 C956 1.386 . S
C957 C961 1.393 1_455 S
C958 H950 0.950 . S
C958 C956 1.391 . S
C958 C959 1.400 . S
C959 C958 1.400 . S
C959 C960 1.398 1_455 S
C959 C965 1.491 1_455 S
C960 H951 0.950 . S
C960 C959 1.398 1_655 S
C960 C961 1.391 . S
C961 H949 0.950 . S
C961 C957 1.393 1_655 S
C961 C960 1.391 . S
C962 H952 0.950 . S
C962 C963 1.386 . S
C962 C964 1.391 . S
C963 C962 1.386 . S
C963 C967 1.393 1_655 S
C964 H953 0.950 . S
C964 C962 1.391 . S
C964 C965 1.400 . S
C965 C959 1.491 1_655 S
C965 C964 1.400 . S
C965 C966 1.398 1_655 S
C966 H954 0.950 . S
C966 C965 1.398 1_455 S
C966 C967 1.391 . S
C967 H955 0.950 . S
C967 C963 1.393 1_455 S
C967 C966 1.391 . S
H968 C976 0.950 . S
H969 C981 0.950 . S
H970 C978 0.950 . S
H971 C980 0.950 . S
H972 C982 0.950 . S
H973 C984 0.950 . S
H974 C986 0.950 . S
H975 C987 0.950 . S
C976 H968 0.950 . S
C976 C977 1.386 . S
C976 C978 1.391 . S
C977 C976 1.386 . S
C977 C981 1.393 . S
C978 H970 0.950 . S
C978 C976 1.391 . S
C978 C979 1.400 . S
C979 C978 1.400 . S
C979 C980 1.398 . S
C979 C985 1.491 . S
C980 H971 0.950 . S
C980 C979 1.398 . S
C980 C981 1.391 . S
C981 H969 0.950 . S
C981 C977 1.393 . S
C981 C980 1.391 . S
C982 H972 0.950 . S
C982 C983 1.386 . S
C982 C984 1.391 . S
C983 C982 1.386 . S
C983 C987 1.393 . S
C984 H973 0.950 . S
C984 C982 1.391 . S
C984 C985 1.400 . S
C985 C979 1.491 . S
C985 C984 1.400 . S
C985 C986 1.398 . S
C986 H974 0.950 . S
C986 C985 1.398 . S
C986 C987 1.391 . S
C987 H975 0.950 . S
C987 C983 1.393 . S
C987 C986 1.391 . S
H988 C996 0.950 . S
H989 C1001 0.950 . S
H990 C998 0.950 . S
H991 C1000 0.950 . S
H992 C1002 0.950 . S
H993 C1004 0.950 . S
H994 C1006 0.950 . S
H995 C1007 0.950 . S
C996 H988 0.950 . S
C996 C997 1.386 1_565 S
C996 C998 1.391 . S
C997 C996 1.386 1_545 S
C997 C1001 1.393 . S
C998 H990 0.950 . S
C998 C996 1.391 . S
C998 C999 1.400 1_565 S
C999 C998 1.400 1_545 S
C999 C1000 1.398 . S
C999 C1005 1.491 1_545 S
C1000 H991 0.950 . S
C1000 C999 1.398 . S
C1000 C1001 1.391 . S
C1001 H989 0.950 . S
C1001 C997 1.393 . S
C1001 C1000 1.391 . S
C1002 H992 0.950 . S
C1002 C1003 1.386 1_545 S
C1002 C1004 1.391 . S
C1003 C1002 1.386 1_565 S
C1003 C1007 1.393 . S
C1004 H993 0.950 . S
C1004 C1002 1.391 . S
C1004 C1005 1.400 1_545 S
C1005 C999 1.491 1_565 S
C1005 C1004 1.400 1_565 S
C1005 C1006 1.398 . S
C1006 H994 0.950 . S
C1006 C1005 1.398 . S
C1006 C1007 1.391 . S
C1007 H995 0.950 . S
C1007 C1003 1.393 . S
C1007 C1006 1.391 . S
H1008 C1016 0.946 1_556 S
H1009 C1021 0.950 . S
H1010 C1018 0.950 . S
H1011 C1020 0.950 . S
H1012 C1022 0.950 . S
H1013 C1024 0.950 . S
H1014 C1026 0.950 . S
H1015 C1027 0.950 . S
C1016 H1008 0.946 1_554 S
C1016 C1017 1.386 . S
C1016 C1018 1.391 1_554 S
C1017 C1016 1.386 . S
C1017 C1021 1.393 . S
C1018 H1010 0.950 . S
C1018 C1016 1.391 1_556 S
C1018 C1019 1.400 1_556 S
C1019 C1018 1.400 1_554 S
C1019 C1020 1.398 . S
C1019 C1025 1.491 . S
C1020 H1011 0.950 . S
C1020 C1019 1.398 . S
C1020 C1021 1.391 . S
C1021 H1009 0.950 . S
C1021 C1017 1.393 . S
C1021 C1020 1.391 . S
C1022 H1012 0.950 . S
C1022 C1023 1.386 1_554 S
C1022 C1024 1.391 . S
C1023 C1022 1.386 1_556 S
C1023 C1027 1.393 . S
C1024 H1013 0.950 . S
C1024 C1022 1.391 . S
C1024 C1025 1.400 . S
C1025 C1019 1.491 . S
C1025 C1024 1.400 . S
C1025 C1026 1.398 1_554 S
C1026 H1014 0.950 . S
C1026 C1025 1.398 1_556 S
C1026 C1027 1.391 . S
C1027 H1015 0.950 . S
C1027 C1023 1.393 . S
C1027 C1026 1.391 . S
H1028 C1036 0.950 . S
H1029 C1041 0.950 . S
H1030 C1038 0.918 1_556 S
H1031 C1040 0.950 . S
H1032 C1042 0.950 . S
H1033 C1044 0.950 . S
H1034 C1046 0.950 . S
H1035 C1047 0.950 . S
C1036 H1028 0.950 . S
C1036 C1037 1.386 . S
C1036 C1038 1.411 . S
C1037 C1036 1.386 . S
C1037 C1041 1.393 . S
C1038 H1030 0.918 1_554 S
C1038 C1036 1.411 . S
C1038 C1039 1.413 . S
C1039 C1038 1.413 . S
C1039 C1040 1.398 . S
C1039 C1045 1.491 1_554 S
C1040 H1031 0.950 . S
C1040 C1039 1.398 . S
C1040 C1041 1.391 . S
C1041 H1029 0.950 . S
C1041 C1037 1.393 . S
C1041 C1040 1.391 . S
C1042 H1032 0.950 . S
C1042 C1043 1.386 . S
C1042 C1044 1.391 1_556 S
C1043 C1042 1.386 . S
C1043 C1047 1.393 . S
C1044 H1033 0.950 . S
C1044 C1042 1.391 1_554 S
C1044 C1045 1.400 1_554 S
C1045 C1039 1.491 1_556 S
C1045 C1044 1.400 1_556 S
C1045 C1046 1.398 . S
C1046 H1034 0.950 . S
C1046 C1045 1.398 . S
C1046 C1047 1.391 . S
C1047 H1035 0.950 . S
C1047 C1043 1.393 . S
C1047 C1046 1.391 . S
H1048 C1056 0.950 . S
H1049 C1061 0.950 1_556 S
H1050 C1058 0.950 . S
H1051 C1060 0.950 . S
H1052 C1062 0.950 . S
H1053 C1064 0.950 . S
H1054 C1066 0.950 . S
H1055 C1067 0.950 1_554 S
C1056 H1048 0.950 . S
C1056 C1057 1.386 . S
C1056 C1058 1.391 . S
C1057 C1056 1.386 . S
C1057 C1061 1.393 . S
C1058 H1050 0.950 . S
C1058 C1056 1.391 . S
C1058 C1059 1.400 . S
C1059 C1058 1.400 . S
C1059 C1060 1.398 1_554 S
C1059 C1065 1.491 1_554 S
C1060 H1051 0.950 . S
C1060 C1059 1.398 1_556 S
C1060 C1061 1.391 1_556 S
C1061 H1049 0.950 1_554 S
C1061 C1057 1.393 . S
C1061 C1060 1.391 1_554 S
C1062 H1052 0.950 . S
C1062 C1063 1.386 . S
C1062 C1064 1.391 . S
C1063 C1062 1.386 . S
C1063 C1067 1.393 . S
C1064 H1053 0.950 . S
C1064 C1062 1.391 . S
C1064 C1065 1.400 . S
C1065 C1059 1.491 1_556 S
C1065 C1064 1.400 . S
C1065 C1066 1.398 1_556 S
C1066 H1054 0.950 . S
C1066 C1065 1.398 1_554 S
C1066 C1067 1.391 1_554 S
C1067 H1055 0.950 1_556 S
C1067 C1063 1.393 . S
C1067 C1066 1.391 1_556 S
H1068 C1076 0.950 . S
H1069 C1081 0.950 . S
H1070 C1078 0.950 . S
H1071 C1080 0.950 . S
H1072 C1082 0.950 . S
H1073 C1084 0.950 . S
H1074 C1086 0.950 . S
H1075 C1087 0.950 . S
C1076 H1068 0.950 . S
C1076 C1077 1.386 . S
C1076 C1078 1.391 . S
C1077 C1076 1.386 . S
C1077 C1081 1.393 . S
C1078 H1070 0.950 . S
C1078 C1076 1.391 . S
C1078 C1079 1.400 . S
C1079 C1078 1.400 . S
C1079 C1080 1.398 . S
C1079 C1085 1.491 1_556 S
C1080 H1071 0.950 . S
C1080 C1079 1.398 . S
C1080 C1081 1.391 . S
C1081 H1069 0.950 . S
C1081 C1077 1.393 . S
C1081 C1080 1.391 . S
C1082 H1072 0.950 . S
C1082 C1083 1.386 . S
C1082 C1084 1.391 . S
C1083 C1082 1.386 . S
C1083 C1087 1.393 . S
C1084 H1073 0.950 . S
C1084 C1082 1.391 . S
C1084 C1085 1.400 . S
C1085 C1079 1.491 1_554 S
C1085 C1084 1.400 . S
C1085 C1086 1.398 . S
C1086 H1074 0.950 . S
C1086 C1085 1.398 . S
C1086 C1087 1.391 . S
C1087 H1075 0.950 . S
C1087 C1083 1.393 . S
C1087 C1086 1.391 . S
H1088 C1096 0.952 . S
H1089 C1101 0.950 . S
H1090 C1098 0.950 . S
H1091 C1100 0.950 . S
H1092 C1102 0.950 . S
H1093 C1104 0.950 1_554 S
H1094 C1106 0.950 . S
H1095 C1107 0.950 . S
C1096 H1088 0.952 . S
C1096 C1097 1.386 . S
C1096 C1098 1.391 1_554 S
C1097 C1096 1.386 . S
C1097 C1101 1.393 . S
C1098 H1090 0.950 . S
C1098 C1096 1.391 1_556 S
C1098 C1099 1.400 1_556 S
C1099 C1098 1.400 1_554 S
C1099 C1100 1.398 . S
C1099 C1105 1.491 1_554 S
C1100 H1091 0.950 . S
C1100 C1099 1.398 . S
C1100 C1101 1.391 . S
C1101 H1089 0.950 . S
C1101 C1097 1.393 . S
C1101 C1100 1.391 . S
C1102 H1092 0.950 . S
C1102 C1103 1.386 . S
C1102 C1104 1.391 . S
C1103 C1102 1.386 . S
C1103 C1107 1.393 . S
C1104 H1093 0.950 1_556 S
C1104 C1102 1.391 . S
C1104 C1105 1.400 . S
C1105 C1099 1.491 1_556 S
C1105 C1104 1.400 . S
C1105 C1106 1.398 . S
C1106 H1094 0.950 . S
C1106 C1105 1.398 . S
C1106 C1107 1.391 . S
C1107 H1095 0.950 . S
C1107 C1103 1.393 . S
C1107 C1106 1.391 . S
H1108 C1116 0.950 . S
H1109 C1121 0.950 . S
H1110 C1118 0.950 . S
H1111 C1120 0.950 1_554 S
H1112 C1122 0.950 . S
H1113 C1124 0.950 . S
H1114 C1126 0.972 . S
H1115 C1127 0.950 . S
C1116 H1108 0.950 . S
C1116 C1117 1.386 . S
C1116 C1118 1.391 . S
C1117 C1116 1.386 . S
C1117 C1121 1.393 . S
C1118 H1110 0.950 . S
C1118 C1116 1.391 . S
C1118 C1119 1.400 . S
C1119 C1118 1.400 . S
C1119 C1120 1.398 . S
C1119 C1125 1.491 1_556 S
C1120 H1111 0.950 1_556 S
C1120 C1119 1.398 . S
C1120 C1121 1.391 . S
C1121 H1109 0.950 . S
C1121 C1117 1.393 . S
C1121 C1120 1.391 . S
C1122 H1112 0.950 . S
C1122 C1123 1.386 . S
C1122 C1124 1.391 . S
C1123 C1122 1.386 . S
C1123 C1127 1.393 . S
C1124 H1113 0.950 . S
C1124 C1122 1.391 . S
C1124 C1125 1.400 . S
C1125 C1119 1.491 1_554 S
C1125 C1124 1.400 . S
C1125 C1126 1.393 1_554 S
C1126 H1114 0.972 . S
C1126 C1125 1.393 1_556 S
C1126 C1127 1.376 1_556 S
C1127 H1115 0.950 . S
C1127 C1123 1.393 . S
C1127 C1126 1.376 1_554 S
H1128 C1136 0.950 . S
H1129 C1141 0.950 . S
H1130 C1138 0.950 . S
H1131 C1140 0.950 . S
H1132 C1142 0.950 . S
H1133 C1144 0.950 . S
H1134 C1146 0.950 . S
H1135 C1147 0.950 . S
C1136 H1128 0.950 . S
C1136 C1137 1.386 . S
C1136 C1138 1.391 . S
C1137 C1136 1.386 . S
C1137 C1141 1.393 . S
C1138 H1130 0.950 . S
C1138 C1136 1.391 . S
C1138 C1139 1.400 . S
C1139 C1138 1.400 . S
C1139 C1140 1.398 . S
C1139 C1145 1.491 . S
C1140 H1131 0.950 . S
C1140 C1139 1.398 . S
C1140 C1141 1.391 . S
C1141 H1129 0.950 . S
C1141 C1137 1.393 . S
C1141 C1140 1.391 . S
C1142 H1132 0.950 . S
C1142 C1143 1.386 . S
C1142 C1144 1.391 . S
C1143 C1142 1.386 . S
C1143 C1147 1.393 . S
C1144 H1133 0.950 . S
C1144 C1142 1.391 . S
C1144 C1145 1.400 . S
C1145 C1139 1.491 . S
C1145 C1144 1.400 . S
C1145 C1146 1.398 . S
C1146 H1134 0.950 . S
C1146 C1145 1.398 . S
C1146 C1147 1.391 . S
C1147 H1135 0.950 . S
C1147 C1143 1.393 . S
C1147 C1146 1.391 . S
H1148 C1156 0.950 . S
H1149 C1161 0.950 . S
H1150 C1158 0.950 . S
H1151 C1160 0.950 . S
H1152 C1162 0.950 . S
H1153 C1164 0.950 . S
H1154 C1166 0.950 . S
H1155 C1167 0.950 . S
C1156 H1148 0.950 . S
C1156 C1157 1.386 . S
C1156 C1158 1.391 . S
C1157 C1156 1.386 . S
C1157 C1161 1.393 . S
C1158 H1150 0.950 . S
C1158 C1156 1.391 . S
C1158 C1159 1.400 . S
C1159 C1158 1.400 . S
C1159 C1160 1.398 . S
C1159 C1165 1.491 . S
C1160 H1151 0.950 . S
C1160 C1159 1.398 . S
C1160 C1161 1.391 . S
C1161 H1149 0.950 . S
C1161 C1157 1.393 . S
C1161 C1160 1.391 . S
C1162 H1152 0.950 . S
C1162 C1163 1.386 . S
C1162 C1164 1.391 . S
C1163 C1162 1.386 . S
C1163 C1167 1.393 . S
C1164 H1153 0.950 . S
C1164 C1162 1.391 . S
C1164 C1165 1.400 . S
C1165 C1159 1.491 . S
C1165 C1164 1.400 . S
C1165 C1166 1.398 . S
C1166 H1154 0.950 . S
C1166 C1165 1.398 . S
C1166 C1167 1.391 . S
C1167 H1155 0.950 . S
C1167 C1163 1.393 . S
C1167 C1166 1.391 . S
H1168 C1176 0.950 . S
H1169 C1181 0.950 . S
H1170 C1178 0.950 . S
H1171 C1180 0.950 . S
H1172 C1182 0.950 . S
H1173 C1184 0.950 . S
H1174 C1186 0.950 . S
H1175 C1187 0.950 . S
C1176 H1168 0.950 . S
C1176 C1177 1.386 . S
C1176 C1178 1.391 . S
C1177 C1176 1.386 . S
C1177 C1181 1.393 . S
C1178 H1170 0.950 . S
C1178 C1176 1.391 . S
C1178 C1179 1.400 . S
C1179 C1178 1.400 . S
C1179 C1180 1.398 . S
C1179 C1185 1.491 . S
C1180 H1171 0.950 . S
C1180 C1179 1.398 . S
C1180 C1181 1.391 . S
C1181 H1169 0.950 . S
C1181 C1177 1.393 . S
C1181 C1180 1.391 . S
C1182 H1172 0.950 . S
C1182 C1183 1.386 . S
C1182 C1184 1.391 . S
C1183 C1182 1.386 . S
C1183 C1187 1.393 . S
C1184 H1173 0.950 . S
C1184 C1182 1.391 . S
C1184 C1185 1.400 . S
C1185 C1179 1.491 . S
C1185 C1184 1.400 . S
C1185 C1186 1.398 . S
C1186 H1174 0.950 . S
C1186 C1185 1.398 . S
C1186 C1187 1.391 . S
C1187 H1175 0.950 . S
C1187 C1183 1.393 . S
C1187 C1186 1.391 . S
H1188 C1196 0.950 . S
H1189 C1201 0.950 . S
H1190 C1198 0.950 . S
H1191 C1200 0.950 . S
H1192 C1202 0.950 . S
H1193 C1204 0.950 . S
H1194 C1206 0.950 . S
H1195 C1207 0.950 . S
C1196 H1188 0.950 . S
C1196 C1197 1.386 . S
C1196 C1198 1.391 . S
C1197 C1196 1.386 . S
C1197 C1201 1.393 . S
C1198 H1190 0.950 . S
C1198 C1196 1.391 . S
C1198 C1199 1.400 . S
C1199 C1198 1.400 . S
C1199 C1200 1.398 . S
C1199 C1205 1.491 . S
C1200 H1191 0.950 . S
C1200 C1199 1.398 . S
C1200 C1201 1.391 . S
C1201 H1189 0.950 . S
C1201 C1197 1.393 . S
C1201 C1200 1.391 . S
C1202 H1192 0.950 . S
C1202 C1203 1.386 . S
C1202 C1204 1.391 . S
C1203 C1202 1.386 . S
C1203 C1207 1.393 . S
C1204 H1193 0.950 . S
C1204 C1202 1.391 . S
C1204 C1205 1.400 . S
C1205 C1199 1.491 . S
C1205 C1204 1.400 . S
C1205 C1206 1.398 . S
C1206 H1194 0.950 . S
C1206 C1205 1.398 . S
C1206 C1207 1.391 . S
C1207 H1195 0.950 . S
C1207 C1203 1.393 . S
C1207 C1206 1.391 . S
H1208 C1216 0.950 . S
H1209 C1221 0.950 1_565 S
H1210 C1218 0.950 . S
H1211 C1220 0.950 1_565 S
H1212 C1222 0.950 . S
H1213 C1224 0.950 . S
H1214 C1226 0.950 . S
H1215 C1227 0.950 . S
C1216 H1208 0.950 . S
C1216 C1217 1.386 . S
C1216 C1218 1.391 . S
C1217 C1216 1.386 . S
C1217 C1221 1.393 . S
C1218 H1210 0.950 . S
C1218 C1216 1.391 . S
C1218 C1219 1.400 . S
C1219 C1218 1.400 . S
C1219 C1220 1.398 . S
C1219 C1225 1.491 . S
C1220 H1211 0.950 1_545 S
C1220 C1219 1.398 . S
C1220 C1221 1.391 . S
C1221 H1209 0.950 1_545 S
C1221 C1217 1.393 . S
C1221 C1220 1.391 . S
C1222 H1212 0.950 . S
C1222 C1223 1.386 1_565 S
C1222 C1224 1.391 . S
C1223 C1222 1.386 1_545 S
C1223 C1227 1.393 . S
C1224 H1213 0.950 . S
C1224 C1222 1.391 . S
C1224 C1225 1.400 1_565 S
C1225 C1219 1.491 . S
C1225 C1224 1.400 1_545 S
C1225 C1226 1.398 . S
C1226 H1214 0.950 . S
C1226 C1225 1.398 . S
C1226 C1227 1.391 . S
C1227 H1215 0.950 . S
C1227 C1223 1.393 . S
C1227 C1226 1.391 . S
H1228 C1236 0.950 . S
H1229 C1241 0.950 . S
H1230 C1238 0.950 . S
H1231 C1240 0.950 . S
H1232 C1242 0.950 . S
H1233 C1244 0.950 . S
H1234 C1246 0.950 . S
H1235 C1247 0.950 . S
C1236 H1228 0.950 . S
C1236 C1237 1.386 . S
C1236 C1238 1.391 . S
C1237 C1236 1.386 . S
C1237 C1241 1.393 1_655 S
C1238 H1230 0.950 . S
C1238 C1236 1.391 . S
C1238 C1239 1.400 . S
C1239 C1238 1.400 . S
C1239 C1240 1.398 1_655 S
C1239 C1245 1.491 . S
C1240 H1231 0.950 . S
C1240 C1239 1.398 1_455 S
C1240 C1241 1.391 . S
C1241 H1229 0.950 . S
C1241 C1237 1.393 1_455 S
C1241 C1240 1.391 . S
C1242 H1232 0.950 . S
C1242 C1243 1.386 1_455 S
C1242 C1244 1.391 . S
C1243 C1242 1.386 1_655 S
C1243 C1247 1.393 . S
C1244 H1233 0.950 . S
C1244 C1242 1.391 . S
C1244 C1245 1.400 1_455 S
C1245 C1239 1.491 . S
C1245 C1244 1.400 1_655 S
C1245 C1246 1.398 . S
C1246 H1234 0.950 . S
C1246 C1245 1.398 . S
C1246 C1247 1.391 . S
C1247 H1235 0.950 . S
C1247 C1243 1.393 . S
C1247 C1246 1.391 . S
H1248 C1256 0.950 . S
H1249 C1261 0.950 . S
H1250 C1258 0.950 . S
H1251 C1260 0.950 . S
H1252 C1262 0.950 . S
H1253 C1264 0.950 . S
H1254 C1266 0.950 . S
H1255 C1267 0.950 . S
C1256 H1248 0.950 . S
C1256 C1257 1.386 . S
C1256 C1258 1.391 . S
C1257 C1256 1.386 . S
C1257 C1261 1.393 . S
C1258 H1250 0.950 . S
C1258 C1256 1.391 . S
C1258 C1259 1.400 . S
C1259 C1258 1.400 . S
C1259 C1260 1.398 . S
C1259 C1265 1.491 . S
C1260 H1251 0.950 . S
C1260 C1259 1.398 . S
C1260 C1261 1.391 . S
C1261 H1249 0.950 . S
C1261 C1257 1.393 . S
C1261 C1260 1.391 . S
C1262 H1252 0.950 . S
C1262 C1263 1.386 . S
C1262 C1264 1.391 . S
C1263 C1262 1.386 . S
C1263 C1267 1.393 . S
C1264 H1253 0.950 . S
C1264 C1262 1.391 . S
C1264 C1265 1.400 . S
C1265 C1259 1.491 . S
C1265 C1264 1.400 . S
C1265 C1266 1.398 . S
C1266 H1254 0.950 . S
C1266 C1265 1.398 . S
C1266 C1267 1.391 . S
C1267 H1255 0.950 . S
C1267 C1263 1.393 . S
C1267 C1266 1.391 . S
H1268 C1276 0.950 . S
H1269 C1281 0.950 . S
H1270 C1278 0.950 . S
H1271 C1280 0.950 1_545 S
H1272 C1282 0.950 . S
H1273 C1284 0.950 1_545 S
H1274 C1286 0.950 . S
H1275 C1287 0.950 . S
C1276 H1268 0.950 . S
C1276 C1277 1.386 . S
C1276 C1278 1.391 . S
C1277 C1276 1.386 . S
C1277 C1281 1.393 1_565 S
C1278 H1270 0.950 . S
C1278 C1276 1.391 . S
C1278 C1279 1.400 . S
C1279 C1278 1.400 . S
C1279 C1280 1.398 . S
C1279 C1285 1.491 . S
C1280 H1271 0.950 1_565 S
C1280 C1279 1.398 . S
C1280 C1281 1.391 1_565 S
C1281 H1269 0.950 . S
C1281 C1277 1.393 1_545 S
C1281 C1280 1.391 1_545 S
C1282 H1272 0.950 . S
C1282 C1283 1.386 . S
C1282 C1284 1.391 . S
C1283 C1282 1.386 . S
C1283 C1287 1.393 . S
C1284 H1273 0.950 1_565 S
C1284 C1282 1.391 . S
C1284 C1285 1.400 . S
C1285 C1279 1.491 . S
C1285 C1284 1.400 . S
C1285 C1286 1.398 . S
C1286 H1274 0.950 . S
C1286 C1285 1.398 . S
C1286 C1287 1.391 . S
C1287 H1275 0.950 . S
C1287 C1283 1.393 . S
C1287 C1286 1.391 . S
H1288 C1296 0.950 . S
H1289 C1301 0.950 1_655 S
H1290 C1298 0.950 . S
H1291 C1300 0.950 1_655 S
H1292 C1302 0.950 . S
H1293 C1304 0.950 . S
H1294 C1306 0.950 . S
H1295 C1307 0.950 . S
C1296 H1288 0.950 . S
C1296 C1297 1.386 . S
C1296 C1298 1.391 . S
C1297 C1296 1.386 . S
C1297 C1301 1.393 . S
C1298 H1290 0.950 . S
C1298 C1296 1.391 . S
C1298 C1299 1.400 . S
C1299 C1298 1.400 . S
C1299 C1300 1.398 . S
C1299 C1305 1.491 . S
C1300 H1291 0.950 1_455 S
C1300 C1299 1.398 . S
C1300 C1301 1.391 . S
C1301 H1289 0.950 1_455 S
C1301 C1297 1.393 . S
C1301 C1300 1.391 . S
C1302 H1292 0.950 . S
C1302 C1303 1.386 1_655 S
C1302 C1304 1.391 . S
C1303 C1302 1.386 1_455 S
C1303 C1307 1.393 . S
C1304 H1293 0.950 . S
C1304 C1302 1.391 . S
C1304 C1305 1.400 1_655 S
C1305 C1299 1.491 . S
C1305 C1304 1.400 1_455 S
C1305 C1306 1.398 . S
C1306 H1294 0.950 . S
C1306 C1305 1.398 . S
C1306 C1307 1.391 . S
C1307 H1295 0.950 . S
C1307 C1303 1.393 . S
C1307 C1306 1.391 . S
H1308 C1316 0.950 . S
H1309 C1321 0.950 . S
H1310 C1318 0.950 . S
H1311 C1320 0.950 . S
H1312 C1322 0.950 . S
H1313 C1324 0.950 . S
H1314 C1326 0.950 . S
H1315 C1327 0.950 . S
C1316 H1308 0.950 . S
C1316 C1317 1.386 . S
C1316 C1318 1.391 . S
C1317 C1316 1.386 . S
C1317 C1321 1.393 . S
C1318 H1310 0.950 . S
C1318 C1316 1.391 . S
C1318 C1319 1.400 . S
C1319 C1318 1.400 . S
C1319 C1320 1.398 . S
C1319 C1325 1.491 . S
C1320 H1311 0.950 . S
C1320 C1319 1.398 . S
C1320 C1321 1.391 . S
C1321 H1309 0.950 . S
C1321 C1317 1.393 . S
C1321 C1320 1.391 . S
C1322 H1312 0.950 . S
C1322 C1323 1.386 . S
C1322 C1324 1.391 . S
C1323 C1322 1.386 . S
C1323 C1327 1.393 . S
C1324 H1313 0.950 . S
C1324 C1322 1.391 . S
C1324 C1325 1.400 . S
C1325 C1319 1.491 . S
C1325 C1324 1.400 . S
C1325 C1326 1.398 . S
C1326 H1314 0.950 . S
C1326 C1325 1.398 . S
C1326 C1327 1.391 . S
C1327 H1315 0.950 . S
C1327 C1323 1.393 . S
C1327 C1326 1.391 . S
H1328 C1336 0.950 . S
H1329 C1341 0.950 . S
H1330 C1338 0.950 . S
H1331 C1340 0.950 . S
H1332 C1342 0.950 . S
H1333 C1344 0.950 . S
H1334 C1346 0.950 . S
H1335 C1347 0.950 . S
C1336 H1328 0.950 . S
C1336 C1337 1.386 . S
C1336 C1338 1.391 . S
C1337 C1336 1.386 . S
C1337 C1341 1.393 . S
C1338 H1330 0.950 . S
C1338 C1336 1.391 . S
C1338 C1339 1.400 . S
C1339 C1338 1.400 . S
C1339 C1340 1.398 . S
C1339 C1345 1.491 . S
C1340 H1331 0.950 . S
C1340 C1339 1.398 . S
C1340 C1341 1.391 . S
C1341 H1329 0.950 . S
C1341 C1337 1.393 . S
C1341 C1340 1.391 . S
C1342 H1332 0.950 . S
C1342 C1343 1.386 . S
C1342 C1344 1.391 . S
C1343 C1342 1.386 . S
C1343 C1347 1.393 . S
C1344 H1333 0.950 . S
C1344 C1342 1.391 . S
C1344 C1345 1.400 . S
C1345 C1339 1.491 . S
C1345 C1344 1.400 . S
C1345 C1346 1.398 . S
C1346 H1334 0.950 . S
C1346 C1345 1.398 . S
C1346 C1347 1.391 . S
C1347 H1335 0.950 . S
C1347 C1343 1.393 . S
C1347 C1346 1.391 . S
H1348 C1356 0.950 . S
H1349 C1361 0.950 . S
H1350 C1358 0.950 . S
H1351 C1360 0.950 . S
H1352 C1362 0.950 . S
H1353 C1364 0.950 . S
H1354 C1366 0.950 . S
H1355 C1367 0.950 . S
C1356 H1348 0.950 . S
C1356 C1357 1.386 . S
C1356 C1358 1.391 . S
C1357 C1356 1.386 . S
C1357 C1361 1.393 . S
C1358 H1350 0.950 . S
C1358 C1356 1.391 . S
C1358 C1359 1.400 . S
C1359 C1358 1.400 . S
C1359 C1360 1.398 . S
C1359 C1365 1.491 . S
C1360 H1351 0.950 . S
C1360 C1359 1.398 . S
C1360 C1361 1.391 . S
C1361 H1349 0.950 . S
C1361 C1357 1.393 . S
C1361 C1360 1.391 . S
C1362 H1352 0.950 . S
C1362 C1363 1.386 . S
C1362 C1364 1.391 . S
C1363 C1362 1.386 . S
C1363 C1367 1.393 . S
C1364 H1353 0.950 . S
C1364 C1362 1.391 . S
C1364 C1365 1.400 . S
C1365 C1359 1.491 . S
C1365 C1364 1.400 . S
C1365 C1366 1.398 . S
C1366 H1354 0.950 . S
C1366 C1365 1.398 . S
C1366 C1367 1.391 . S
C1367 H1355 0.950 . S
C1367 C1363 1.393 . S
C1367 C1366 1.391 . S
C657 C14 1.806 . S
C663 C122 1.806 . S
C677 C50 1.885 . S
C683 C147 2.025 . S
C697 C194 1.928 . S
C703 C86 1.930 . S
C717 C230 1.786 . S
C723 C338 1.785 . S
C737 C266 1.882 . S
C743 C363 2.019 . S
C757 C410 1.884 . S
C763 C302 1.885 . S
C777 C554 1.771 . S
C783 C446 1.770 . S
C797 C579 2.006 . S
C803 C482 1.851 . S
C817 C626 1.878 . S
C823 C518 1.879 . S
C837 C3 1.650 . S
C843 C327 1.646 . S
C857 C39 1.711 . S
C863 C374 1.540 . S
C877 C399 1.749 . S
C883 C75 1.747 . S
C897 C111 1.647 . S
C903 C435 1.649 . S
C917 C158 1.537 . S
C923 C471 1.710 . S
C937 C183 1.765 . S
C943 C507 1.764 . S
C957 C219 1.673 . S
C963 C543 1.673 . S
C977 C255 1.729 . S
C983 C590 1.573 . S
C997 C615 1.749 . S
C1003 C291 1.745 . S
C1017 C4 0.531 . S
C1023 C148 0.502 . S
C1037 C40 0.558 . S
C1043 C182 0.518 . S
C1057 C76 0.541 . S
C1063 C110 0.540 . S
C1077 C112 0.477 . S
C1083 C38 0.417 . S
C1097 C74 0.451 . S
C1103 C146 0.511 . S
C1117 C184 0.527 . S
C1123 C2 0.473 . S
C1137 C220 0.567 . S
C1143 C364 0.531 . S
C1157 C398 0.540 . S
C1163 C256 0.528 . S
C1177 C326 0.555 . S
C1183 C292 0.578 . S
C1197 C254 0.417 . S
C1203 C328 0.454 . S
C1217 C362 0.512 . S
C1223 C290 0.473 . S
C1237 C400 0.515 . S
C1243 C218 0.459 . S
C1257 C580 0.518 . S
C1263 C436 0.520 . S
C1277 C614 0.542 . S
C1283 C472 0.535 . S
C1297 C508 0.507 . S
C1303 C542 0.538 . S
C1317 C470 0.474 . S
C1323 C544 0.457 . S
C1337 C506 0.457 . S
C1343 C578 0.510 . S
C1357 C434 0.523 . S
C1363 C616 0.505 . S
