# Generated by pormake.
# Topology dia, (4)-cn, num edge types: 1
# Building blocks:
#     Node 0, Type 0, BuildingBlock: TATPOV_clean_sbu_0, # of connection points: 4
#     Node 1, Type 0, BuildingBlock: TATPOV_clean_sbu_0, # of connection points: 4
#     Node 2, Type 0, BuildingBlock: TATPOV_clean_sbu_0, # of connection points: 4
#     Node 3, Type 0, BuildingBlock: TATPOV_clean_sbu_0, # of connection points: 4
#     Node 4, Type 0, BuildingBlock: TATPOV_clean_sbu_0, # of connection points: 4
#     Node 5, Type 0, BuildingBlock: TATPOV_clean_sbu_0, # of connection points: 4
#     Node 6, Type 0, BuildingBlock: TATPOV_clean_sbu_0, # of connection points: 4
#     Node 7, Type 0, BuildingBlock: TATPOV_clean_sbu_0, # of connection points: 4
#     Edge 8, Type (0, 0), BuildingBlock: FUNLAD_clean_linker_1, # of connection points: 2
#     Edge 9, Type (0, 0), BuildingBlock: FUNLAD_clean_linker_1, # of connection points: 2
#     Edge 10, Type (0, 0), BuildingBlock: FUNLAD_clean_linker_1, # of connection points: 2
#     Edge 11, Type (0, 0), BuildingBlock: FUNLAD_clean_linker_1, # of connection points: 2
#     Edge 12, Type (0, 0), BuildingBlock: FUNLAD_clean_linker_1, # of connection points: 2
#     Edge 13, Type (0, 0), BuildingBlock: FUNLAD_clean_linker_1, # of connection points: 2
#     Edge 14, Type (0, 0), BuildingBlock: FUNLAD_clean_linker_1, # of connection points: 2
#     Edge 15, Type (0, 0), BuildingBlock: FUNLAD_clean_linker_1, # of connection points: 2
#     Edge 16, Type (0, 0), BuildingBlock: FUNLAD_clean_linker_1, # of connection points: 2
#     Edge 17, Type (0, 0), BuildingBlock: FUNLAD_clean_linker_1, # of connection points: 2
#     Edge 18, Type (0, 0), BuildingBlock: FUNLAD_clean_linker_1, # of connection points: 2
#     Edge 19, Type (0, 0), BuildingBlock: FUNLAD_clean_linker_1, # of connection points: 2
#     Edge 20, Type (0, 0), BuildingBlock: FUNLAD_clean_linker_1, # of connection points: 2
#     Edge 21, Type (0, 0), BuildingBlock: FUNLAD_clean_linker_1, # of connection points: 2
#     Edge 22, Type (0, 0), BuildingBlock: FUNLAD_clean_linker_1, # of connection points: 2
#     Edge 23, Type (0, 0), BuildingBlock: FUNLAD_clean_linker_1, # of connection points: 2
# Relax obj value: 0.006
# Max RMSD: 0.038
# Mean RMSD: 0.038
data_MOF--net-dia--node1-TATPOV_clean_sbu_0--edge1-FUNLAD_clean_linker_1
_symmetry_space_group_name_H-M    P1
_symmetry_Int_Tables_number       1
_symmetry_cell_setting            triclinic
loop_
_symmetry_equiv_pos_as_xyz
'x, y, z'
_cell_length_a     33.377852
_cell_length_b     37.935305
_cell_length_c     37.969644
_cell_angle_alpha  93.476401
_cell_angle_beta   93.263048
_cell_angle_gamma 93.401181
loop_
_atom_site_label
_atom_site_type_symbol
_atom_site_fract_x
_atom_site_fract_y
_atom_site_fract_z
_atom_type_partial_charge
Zn0 Zn 0.21656 0.11446 0.63609 0.0
Zn1 Zn 0.15348 0.14678 0.66059 0.0
O2 O 0.17573 0.11879 0.70177 0.0
O3 O 0.23086 0.09672 0.68276 0.0
O4 O 0.1106 0.17543 0.68293 0.0
O5 O 0.24404 0.15885 0.62288 0.0
O6 O 0.18988 0.18487 0.63865 0.0
C7 C 0.20661 0.10105 0.70671 0.0
C8 C 0.13898 0.09017 0.60087 0.0
O9 O 0.12465 0.11274 0.62216 0.0
O10 O 0.17648 0.08624 0.60155 0.0
C11 C 0.0763 0.16166 0.68936 0.0
O12 O 0.06752 0.12796 0.68068 0.0
C13 C 0.22429 0.18611 0.62554 0.0
Zn14 Zn 0.79336 0.40979 0.90489 0.0
Zn15 Zn 0.85749 0.3838 0.87253 0.0
O16 O 0.83035 0.34075 0.8943 0.0
O17 O 0.77764 0.36118 0.91929 0.0
O18 O 0.90412 0.36302 0.84756 0.0
O19 O 0.77288 0.42703 0.85891 0.0
O20 O 0.82492 0.40647 0.83285 0.0
C21 C 0.79939 0.33585 0.91191 0.0
C22 C 0.86942 0.44129 0.9337 0.0
O23 O 0.88376 0.42063 0.91044 0.0
O24 O 0.8319 0.44168 0.93661 0.0
C25 C 0.89892 0.33367 0.82927 0.0
O26 O 0.86308 0.31708 0.82643 0.0
C27 C 0.79259 0.42276 0.83163 0.0
Zn28 Zn 0.6856 0.0787 0.09705 0.0
Zn29 Zn 0.63493 0.12088 0.12951 0.0
O30 O 0.66485 0.09737 0.17067 0.0
O31 O 0.70927 0.06649 0.14359 0.0
O32 O 0.5984 0.15511 0.15337 0.0
O33 O 0.7087 0.1194 0.07194 0.0
O34 O 0.66982 0.15427 0.10124 0.0
C35 C 0.69394 0.07701 0.17176 0.0
C36 C 0.60338 0.05945 0.07675 0.0
O37 O 0.59699 0.08692 0.09626 0.0
O38 O 0.63851 0.04922 0.0743 0.0
C39 C 0.57557 0.14842 0.17816 0.0
O40 O 0.57392 0.11671 0.19035 0.0
C41 C 0.69657 0.14984 0.07903 0.0
Zn42 Zn 0.87442 0.91172 0.41625 0.0
Zn43 Zn 0.91205 0.87151 0.36951 0.0
O44 O 0.87976 0.83481 0.39711 0.0
O45 O 0.84881 0.86851 0.43491 0.0
O46 O 0.93872 0.842 0.33168 0.0
O47 O 0.84572 0.93602 0.37822 0.0
O48 O 0.87661 0.9033 0.33957 0.0
C49 C 0.85605 0.83812 0.42216 0.0
C50 C 0.96009 0.9222 0.42507 0.0
O51 O 0.95942 0.89903 0.3992 0.0
O52 O 0.9276 0.93192 0.43702 0.0
C53 C 0.96306 0.81814 0.33761 0.0
O54 O 0.97263 0.81104 0.37036 0.0
C55 C 0.85234 0.92718 0.34654 0.0
Zn56 Zn 0.2021 0.58721 0.06308 0.0
Zn57 Zn 0.16457 0.6114 0.12023 0.0
O58 O 0.19885 0.5717 0.13846 0.0
O59 O 0.2287 0.55177 0.09141 0.0
O60 O 0.13756 0.63163 0.16332 0.0
O61 O 0.22937 0.63448 0.0593 0.0
O62 O 0.19729 0.65512 0.10454 0.0
C63 C 0.22223 0.55054 0.12377 0.0
C64 C 0.11658 0.57844 0.05351 0.0
O65 O 0.11765 0.5917 0.08528 0.0
O66 O 0.14859 0.57476 0.03781 0.0
C67 C 0.11337 0.65615 0.16032 0.0
O68 O 0.10511 0.66768 0.12895 0.0
C69 C 0.22173 0.6599 0.08044 0.0
Zn70 Zn 0.28464 0.39694 0.38889 0.0
Zn71 Zn 0.33584 0.34964 0.36465 0.0
O72 O 0.30053 0.32383 0.3997 0.0
O73 O 0.25639 0.36162 0.41644 0.0
O74 O 0.37044 0.31117 0.34537 0.0
O75 O 0.26313 0.40331 0.34019 0.0
O76 O 0.30754 0.36759 0.31981 0.0
C77 C 0.27052 0.33157 0.41745 0.0
C78 C 0.36911 0.41641 0.40738 0.0
O79 O 0.37529 0.3875 0.39027 0.0
O80 O 0.33366 0.42602 0.41038 0.0
C81 C 0.39327 0.31547 0.32003 0.0
O82 O 0.3956 0.34614 0.3057 0.0
C83 C 0.27917 0.38812 0.31458 0.0
Zn84 Zn 0.31774 0.91173 0.90117 0.0
Zn85 Zn 0.36261 0.87948 0.86226 0.0
O86 O 0.34954 0.84445 0.90047 0.0
O87 O 0.32562 0.88043 0.94057 0.0
O88 O 0.39705 0.85177 0.82893 0.0
O89 O 0.26882 0.90316 0.86859 0.0
O90 O 0.31425 0.89349 0.83007 0.0
C91 C 0.3377 0.85048 0.93149 0.0
C92 C 0.38834 0.9526 0.8963 0.0
O93 O 0.39852 0.92276 0.88351 0.0
O94 O 0.35195 0.95707 0.90174 0.0
C95 C 0.43395 0.84759 0.83699 0.0
O96 O 0.45046 0.86206 0.86703 0.0
C97 C 0.27816 0.89947 0.83694 0.0
Zn98 Zn 0.65761 0.59777 0.57701 0.0
Zn99 Zn 0.61553 0.64225 0.61683 0.0
O100 O 0.64393 0.61175 0.65296 0.0
O101 O 0.67944 0.57662 0.62041 0.0
O102 O 0.58446 0.67571 0.64775 0.0
O103 O 0.68723 0.63881 0.55776 0.0
O104 O 0.65358 0.67549 0.59038 0.0
C105 C 0.66823 0.58715 0.65032 0.0
C106 C 0.57285 0.58877 0.56045 0.0
O107 O 0.57159 0.61379 0.58427 0.0
O108 O 0.60617 0.57714 0.55252 0.0
C109 C 0.55237 0.66434 0.66107 0.0
O110 O 0.53946 0.63112 0.65442 0.0
C111 C 0.6799 0.67003 0.56788 0.0
H112 H 0.22294 0.31074 0.44928 0.0
C113 C 0.25366 0.30738 0.44214 0.0
H114 H 0.30873 0.28619 0.4569 0.0
H115 H 0.25447 0.29149 0.61517 0.0
H116 H 0.30443 0.34103 0.61826 0.0
H117 H 0.33536 0.36 0.56444 0.0
H118 H 0.31656 0.32964 0.50728 0.0
C119 C 0.27691 0.28722 0.46129 0.0
C120 C 0.26149 0.27316 0.49384 0.0
C121 C 0.27345 0.29088 0.52708 0.0
C122 C 0.25599 0.27978 0.55813 0.0
C123 C 0.26752 0.29846 0.59089 0.0
C124 C 0.29595 0.32704 0.59299 0.0
C125 C 0.31332 0.33775 0.56268 0.0
C126 C 0.30225 0.32006 0.53003 0.0
H127 H 0.27054 0.2183 0.60172 0.0
C128 C 0.23887 0.21681 0.60729 0.0
H129 H 0.18119 0.23189 0.59154 0.0
H130 H 0.23338 0.23302 0.43432 0.0
H131 H 0.18385 0.18323 0.4312 0.0
H132 H 0.15375 0.16352 0.48509 0.0
H133 H 0.17268 0.19349 0.54224 0.0
C134 C 0.21334 0.23535 0.58848 0.0
C135 C 0.22724 0.25062 0.5559 0.0
C136 C 0.21513 0.23301 0.52258 0.0
C137 C 0.23241 0.24427 0.49151 0.0
C138 C 0.22066 0.2258 0.45867 0.0
C139 C 0.19245 0.19707 0.45652 0.0
C140 C 0.17552 0.18597 0.48686 0.0
C141 C 0.18667 0.20352 0.51956 0.0
H142 H 0.66991 0.57693 0.70715 0.0
C143 C 0.6822 0.56968 0.68201 0.0
H144 H 0.7201 0.53623 0.65467 0.0
H145 H 0.78248 0.52127 0.82237 0.0
H146 H 0.8035 0.58367 0.82378 0.0
H147 H 0.78746 0.61895 0.77294 0.0
H148 H 0.74998 0.59215 0.72058 0.0
C149 C 0.70853 0.54422 0.67992 0.0
C150 C 0.71936 0.52327 0.71045 0.0
C151 C 0.74187 0.53937 0.7406 0.0
C152 C 0.75183 0.51888 0.76959 0.0
C153 C 0.77407 0.53559 0.79956 0.0
C154 C 0.78645 0.57137 0.8007 0.0
C155 C 0.77738 0.59124 0.77209 0.0
C156 C 0.75554 0.57555 0.74227 0.0
H157 H 0.79603 0.43458 0.77545 0.0
C158 C 0.77952 0.4391 0.79901 0.0
H159 H 0.73434 0.46752 0.82272 0.0
H160 H 0.67638 0.48409 0.65634 0.0
H161 H 0.65677 0.42143 0.65457 0.0
H162 H 0.67465 0.38589 0.70477 0.0
H163 H 0.71235 0.41283 0.75702 0.0
C164 C 0.74974 0.46147 0.79883 0.0
C165 C 0.74017 0.48224 0.76796 0.0
C166 C 0.7183 0.466 0.73762 0.0
C167 C 0.70793 0.48654 0.70877 0.0
C168 C 0.68549 0.46976 0.67893 0.0
C169 C 0.67388 0.43379 0.6776 0.0
C170 C 0.68395 0.41378 0.70585 0.0
C171 C 0.70574 0.42957 0.73564 0.0
H172 H 0.57643 0.01328 0.0447 0.0
C173 C 0.57099 0.04001 0.05455 0.0
H174 H 0.53426 0.083 0.04877 0.0
H175 H 0.48649 0.02144 0.89085 0.0
H176 H 0.52402 0.0765 0.88115 0.0
H177 H 0.55691 0.1138 0.93135 0.0
H178 H 0.55233 0.09641 0.99152 0.0
C179 C 0.53866 0.05539 0.0416 0.0
C180 C 0.51299 0.0364 0.01234 0.0
C181 C 0.5153 0.04743 0.97743 0.0
C182 C 0.49631 0.026 0.94847 0.0
C183 C 0.49996 0.03701 0.91378 0.0
C184 C 0.52154 0.06846 0.90785 0.0
C185 C 0.54008 0.08944 0.93612 0.0
C186 C 0.53721 0.07914 0.97054 0.0
H187 H 0.40806 0.00587 0.91865 0.0
C188 C 0.4185 0.97993 0.91142 0.0
H189 H 0.46364 0.94448 0.92046 0.0
H190 H 0.49795 0.01062 0.0763 0.0
H191 H 0.45949 0.95611 0.08617 0.0
H192 H 0.42764 0.91822 0.03595 0.0
H193 H 0.43392 0.93456 0.97573 0.0
C194 C 0.4543 0.97129 0.92489 0.0
C195 C 0.47494 0.9938 0.9546 0.0
C196 C 0.47137 0.98346 0.98964 0.0
C197 C 0.49006 0.00501 0.01856 0.0
C198 C 0.48515 0.99467 0.05335 0.0
C199 C 0.46293 0.96361 0.05939 0.0
C200 C 0.44496 0.9423 0.03113 0.0
C201 C 0.44891 0.952 0.99664 0.0
H202 H 0.97156 0.80597 0.28091 0.0
C203 C 0.98045 0.79901 0.30747 0.0
H204 H 0.01502 0.76582 0.33804 0.0
H205 H 0.02589 0.64758 0.21438 0.0
H206 H 0.98158 0.6176 0.25286 0.0
H207 H 0.95614 0.64962 0.30462 0.0
H208 H 0.97461 0.71195 0.31803 0.0
C209 C 0.0068 0.7738 0.31172 0.0
C210 C 0.02357 0.75441 0.2809 0.0
C211 C 0.01339 0.7177 0.2738 0.0
C212 C 0.0287 0.69902 0.24423 0.0
C213 C 0.0163 0.66283 0.23699 0.0
C214 C 0.99058 0.64532 0.25875 0.0
C215 C 0.97621 0.66335 0.28787 0.0
C216 C 0.98719 0.69913 0.29533 0.0
H217 H 0.10538 0.66346 0.21782 0.0
C218 C 0.09609 0.6724 0.19213 0.0
H219 H 0.06168 0.70795 0.16456 0.0
H220 H 0.05302 0.8236 0.28896 0.0
H221 H 0.09778 0.85352 0.25082 0.0
H222 H 0.12354 0.82148 0.19922 0.0
H223 H 0.10492 0.75924 0.18562 0.0
C224 C 0.0701 0.69819 0.1901 0.0
C225 C 0.05499 0.71689 0.22212 0.0
C226 C 0.06559 0.75352 0.22951 0.0
C227 C 0.05022 0.77219 0.25902 0.0
C228 C 0.06271 0.80836 0.26637 0.0
C229 C 0.08869 0.82583 0.24482 0.0
C230 C 0.10322 0.80779 0.2158 0.0
C231 C 0.09211 0.77205 0.20821 0.0
H232 H 0.21803 0.90912 0.81505 0.0
C233 C 0.24981 0.91157 0.81003 0.0
H234 H 0.29474 0.94165 0.78656 0.0
H235 H 0.14821 0.01076 0.69868 0.0
H236 H 0.14326 0.95624 0.66158 0.0
H237 H 0.18028 0.9049 0.6787 0.0
H238 H 0.22292 0.90805 0.73307 0.0
C239 C 0.26265 0.93634 0.78891 0.0
C240 C 0.2364 0.9652 0.78038 0.0
C241 C 0.21078 0.96251 0.74926 0.0
C242 C 0.18926 0.99206 0.73962 0.0
C243 C 0.16514 0.9892 0.70751 0.0
C244 C 0.16197 0.95798 0.68595 0.0
C245 C 0.18282 0.92907 0.69558 0.0
C246 C 0.20711 0.93119 0.72681 0.0
H247 H 0.24276 0.07604 0.7463 0.0
C248 C 0.21189 0.08031 0.7376 0.0
H249 H 0.15183 0.0595 0.73495 0.0
H250 H 0.27986 0.97783 0.84411 0.0
H251 H 0.2811 0.03089 0.88313 0.0
H252 H 0.24111 0.08099 0.86748 0.0
H253 H 0.19991 0.07822 0.81224 0.0
C254 C 0.18224 0.05756 0.74618 0.0
C255 C 0.19358 0.02406 0.76133 0.0
C256 C 0.21587 0.02533 0.79424 0.0
C257 C 0.23802 0.99616 0.80352 0.0
C258 C 0.26184 0.99895 0.83582 0.0
C259 C 0.26288 0.02932 0.8585 0.0
C260 C 0.24043 0.05754 0.84967 0.0
C261 C 0.21716 0.05573 0.8179 0.0
H262 H 0.8817 0.48401 0.97538 0.0
C263 C 0.8958 0.46555 0.95764 0.0
H264 H 0.95097 0.44693 0.94195 0.0
H265 H 0.01632 0.60492 0.00882 0.0
H266 H 0.98719 0.62499 0.95396 0.0
H267 H 0.94605 0.58361 0.91189 0.0
H268 H 0.93348 0.5221 0.92452 0.0
C269 C 0.93594 0.46568 0.95858 0.0
C270 C 0.96067 0.49068 0.9837 0.0
C271 C 0.96799 0.52637 0.97558 0.0
C272 C 0.99258 0.54997 0.99929 0.0
C273 C 0.9988 0.58571 0.99109 0.0
C274 C 0.98205 0.59759 0.95986 0.0
C275 C 0.95881 0.57431 0.93622 0.0
C276 C 0.95175 0.53908 0.94384 0.0
H277 H 0.08032 0.55578 0.00698 0.0
C278 C 0.07876 0.56475 0.03462 0.0
H279 H 0.04245 0.5658 0.07843 0.0
H280 H 0.9491 0.42485 0.00849 0.0
H281 H 0.97725 0.40523 0.06382 0.0
H282 H 0.02108 0.4459 0.10447 0.0
H283 H 0.0368 0.50645 0.0902 0.0
C284 C 0.04426 0.55901 0.05038 0.0
C285 C 0.01075 0.53751 0.03044 0.0
C286 C 1.00143 0.50241 0.03956 0.0
C287 C 0.97643 0.4789 0.01605 0.0
C288 C 0.96805 0.44376 0.0254 0.0
C289 C 0.98401 0.43216 0.05705 0.0
C290 C 0.00869 0.45506 0.07994 0.0
C291 C 0.01751 0.48976 0.07139 0.0
H292 H 0.4123 0.26051 0.31853 0.0
C293 C 0.41615 0.2857 0.30655 0.0
H294 H 0.44403 0.3135 0.26712 0.0
H295 H 0.56129 0.1784 0.28131 0.0
H296 H 0.57849 0.20224 0.34129 0.0
H297 H 0.54373 0.25248 0.36676 0.0
H298 H 0.49135 0.279 0.33257 0.0
C299 C 0.44098 0.28875 0.27999 0.0
C300 C 0.46227 0.25811 0.26507 0.0
C301 C 0.49322 0.24309 0.28534 0.0
C302 C 0.51383 0.21445 0.27039 0.0
C303 C 0.5446 0.20007 0.29128 0.0
C304 C 0.55489 0.21357 0.32574 0.0
C305 C 0.53528 0.24183 0.3401 0.0
C306 C 0.50499 0.25665 0.32022 0.0
H307 H 0.55448 0.20257 0.18224 0.0
C308 C 0.55157 0.17673 0.19307 0.0
H309 H 0.5245 0.14645 0.2312 0.0
H310 H 0.40457 0.28046 0.2189 0.0
H311 H 0.38723 0.25644 0.15901 0.0
H312 H 0.42221 0.20634 0.1335 0.0
H313 H 0.47491 0.18012 0.16762 0.0
C314 C 0.52676 0.17179 0.21934 0.0
C315 C 0.5042 0.20129 0.23494 0.0
C316 C 0.473 0.21609 0.21479 0.0
C317 C 0.45234 0.24468 0.22974 0.0
C318 C 0.42139 0.25888 0.20891 0.0
C319 C 0.41099 0.24526 0.1745 0.0
C320 C 0.43071 0.21708 0.16013 0.0
C321 C 0.46119 0.20244 0.17995 0.0
H322 H 0.84345 0.78046 0.42629 0.0
C323 C 0.83655 0.80663 0.43658 0.0
H324 H 0.80411 0.83619 0.47307 0.0
H325 H 0.69374 0.68596 0.46716 0.0
H326 H 0.67704 0.69614 0.40577 0.0
H327 H 0.71143 0.74505 0.37704 0.0
H328 H 0.76293 0.78381 0.40938 0.0
C329 C 0.81032 0.8101 0.46205 0.0
C330 C 0.79088 0.77938 0.47829 0.0
C331 C 0.76064 0.75714 0.45891 0.0
C332 C 0.74038 0.7293 0.47563 0.0
C333 C 0.71021 0.70746 0.45576 0.0
C334 C 0.7002 0.71307 0.42052 0.0
C335 C 0.71959 0.74058 0.40434 0.0
C336 C 0.74932 0.76254 0.4232 0.0
H337 H 0.69542 0.72687 0.56175 0.0
C338 C 0.7018 0.70007 0.55303 0.0
H339 H 0.73458 0.66798 0.51897 0.0
H340 H 0.84768 0.81705 0.52272 0.0
H341 H 0.86432 0.80683 0.58412 0.0
H342 H 0.82945 0.75825 0.61296 0.0
H343 H 0.77758 0.71977 0.58065 0.0
C344 C 0.72893 0.69466 0.52866 0.0
C345 C 0.74984 0.72424 0.51178 0.0
C346 C 0.78026 0.7463 0.53108 0.0
C347 C 0.80064 0.77405 0.51434 0.0
C348 C 0.83101 0.7957 0.53416 0.0
C349 C 0.841 0.79005 0.56941 0.0
C350 C 0.82135 0.76271 0.58564 0.0
C351 C 0.79145 0.74092 0.56681 0.0
H352 H 0.2613 0.50638 0.12931 0.0
C353 C 0.2413 0.52316 0.14333 0.0
H354 H 0.21403 0.5333 0.19154 0.0
H355 H 0.24853 0.36655 0.20738 0.0
H356 H 0.19115 0.35513 0.16483 0.0
H357 H 0.16075 0.40424 0.13542 0.0
H358 H 0.18753 0.46485 0.1481 0.0
C359 C 0.23358 0.51693 0.17662 0.0
C360 C 0.25199 0.48724 0.19374 0.0
C361 C 0.23566 0.45207 0.18599 0.0
C362 C 0.2525 0.42388 0.20345 0.0
C363 C 0.23607 0.38892 0.19525 0.0
C364 C 0.20337 0.38204 0.17082 0.0
C365 C 0.18632 0.40968 0.15421 0.0
C366 C 0.20209 0.44435 0.16164 0.0
H367 H 0.23757 0.40886 0.27597 0.0
C368 C 0.26709 0.39829 0.2792 0.0
H369 H 0.32472 0.39692 0.25935 0.0
H370 H 0.29256 0.55118 0.21162 0.0
H371 H 0.35053 0.56218 0.25331 0.0
H372 H 0.3792 0.5133 0.28432 0.0
H373 H 0.35035 0.45317 0.27367 0.0
C374 C 0.294 0.40447 0.25509 0.0
C375 C 0.2848 0.43105 0.22917 0.0
C376 C 0.30284 0.46587 0.23511 0.0
C377 C 0.28621 0.49407 0.21746 0.0
C378 C 0.30402 0.5288 0.22443 0.0
C379 C 0.33727 0.53548 0.24829 0.0
C380 C 0.35341 0.50796 0.26575 0.0
C381 C 0.33647 0.47354 0.25942 0.0
H382 H 0.81113 0.28037 0.92157 0.0
C383 C 0.79091 0.30131 0.92655 0.0
H384 H 0.74049 0.31704 0.95356 0.0
H385 H 0.67774 0.16097 0.98087 0.0
H386 H 0.63584 0.16903 0.92793 0.0
H387 H 0.64864 0.2205 0.89249 0.0
H388 H 0.70345 0.26425 0.90981 0.0
C389 C 0.76112 0.29649 0.94842 0.0
C390 C 0.75604 0.26392 0.96772 0.0
C391 C 0.72418 0.23856 0.95703 0.0
C392 C 0.71693 0.20889 0.97736 0.0
C393 C 0.68465 0.18401 0.96632 0.0
C394 C 0.66037 0.18831 0.93599 0.0
C395 C 0.66756 0.2173 0.91605 0.0
C396 C 0.69906 0.24223 0.92631 0.0
H397 H 0.70261 0.20627 0.06774 0.0
C398 C 0.71129 0.17995 0.05966 0.0
H399 H 0.73924 0.14882 0.02108 0.0
H400 H 0.81958 0.30806 0.99579 0.0
H401 H 0.86225 0.29919 0.04792 0.0
H402 H 0.85061 0.24676 0.08227 0.0
H403 H 0.7959 0.20302 0.06477 0.0
C404 C 0.73207 0.17514 0.03065 0.0
C405 C 0.74141 0.20493 0.00842 0.0
C406 C 0.774 0.22971 0.01857 0.0
C407 C 0.78117 0.25949 0.99834 0.0
C408 C 0.81315 0.28455 0.00973 0.0
C409 C 0.83784 0.27984 0.0397 0.0
C410 C 0.83126 0.25036 0.05907 0.0
C411 C 0.79971 0.22551 0.04879 0.0
H412 H 0.83813 0.93721 0.29053 0.0
C413 C 0.83186 0.94477 0.31764 0.0
H414 H 0.80024 0.97831 0.3513 0.0
H415 H 0.77846 0.0941 0.24021 0.0
H416 H 0.82571 0.12526 0.28392 0.0
H417 H 0.85533 0.09439 0.33351 0.0
H418 H 0.83801 0.03215 0.33959 0.0
C419 C 0.80589 0.96984 0.32427 0.0
C420 C 0.78621 0.98865 0.29547 0.0
C421 C 0.79607 0.02524 0.29279 0.0
C422 C 0.77887 0.04311 0.26432 0.0
C423 C 0.79027 0.07934 0.26153 0.0
C424 C 0.81744 0.09754 0.28641 0.0
C425 C 0.83411 0.08016 0.31432 0.0
C426 C 0.82381 0.04442 0.31754 0.0
H427 H 0.69569 0.07267 0.2299 0.0
C428 C 0.7091 0.06418 0.20564 0.0
H429 H 0.75066 0.0315 0.18201 0.0
H430 H 0.75578 0.91994 0.29629 0.0
H431 H 0.70756 0.88916 0.25319 0.0
H432 H 0.67901 0.91979 0.20297 0.0
H433 H 0.69825 0.98152 0.19581 0.0
C434 C 0.73813 0.04103 0.20635 0.0
C435 C 0.75166 0.02434 0.23887 0.0
C436 C 0.74047 0.98816 0.24242 0.0
C437 C 0.75745 0.97035 0.27098 0.0
C438 C 0.74475 0.9345 0.27452 0.0
C439 C 0.71686 0.91657 0.25009 0.0
C440 C 0.70075 0.93382 0.22184 0.0
C441 C 0.7122 0.96921 0.21797 0.0
H442 H 0.02674 0.92993 0.43152 0.0
C443 C 0.99865 0.93819 0.44147 0.0
H444 H 0.97096 0.97048 0.47914 0.0
H445 H 0.10994 0.99554 0.59487 0.0
H446 H 0.07416 0.94535 0.61825 0.0
H447 H 0.02083 0.91 0.58182 0.0
H448 H 1.00313 0.92455 0.52168 0.0
C449 C 0.99896 0.96284 0.46852 0.0
C450 C 0.0363 0.97928 0.48713 0.0
C451 C 0.04643 0.97027 0.52205 0.0
C452 C 0.07691 0.99073 0.5431 0.0
C453 C 0.08657 0.98114 0.57791 0.0
C454 C 0.06639 0.95232 0.5916 0.0
C455 C 0.03637 0.93242 0.57109 0.0
C456 C 0.02639 0.94114 0.53669 0.0
H457 H 0.07935 0.06961 0.57778 0.0
C458 C 0.11156 0.06759 0.57609 0.0
H459 H 0.15727 0.04215 0.54966 0.0
H460 H 0.02602 0.00221 0.42032 0.0
H461 H 0.06338 0.05122 0.39645 0.0
H462 H 0.1169 0.08631 0.43289 0.0
H463 H 0.13323 0.07267 0.49355 0.0
C464 C 0.12524 0.04413 0.5524 0.0
C465 C 0.09688 0.02031 0.52919 0.0
C466 C 0.0887 0.02791 0.49354 0.0
C467 C 0.05811 0.00748 0.47246 0.0
C468 C 0.04925 0.0166 0.43739 0.0
C469 C 0.07044 0.0447 0.42338 0.0
C470 C 0.10058 0.06447 0.44389 0.0
C471 C 0.10965 0.05636 0.47863 0.0
H472 H 0.96178 0.33358 0.81328 0.0
C473 C 0.933 0.31841 0.81161 0.0
H474 H 0.90031 0.27148 0.79149 0.0
H475 H 0.00693 0.23037 0.66677 0.0
H476 H 0.94798 0.24968 0.6349 0.0
H477 H 0.89537 0.27901 0.66663 0.0
H478 H 0.90142 0.28934 0.73041 0.0
C479 C 0.9293 0.28634 0.79402 0.0
C480 C 0.96287 0.27085 0.77506 0.0
C481 C 0.95884 0.26476 0.73773 0.0
C482 C 0.98907 0.24758 0.7194 0.0
C483 C 0.98453 0.24259 0.68208 0.0
C484 C 0.95094 0.25374 0.66342 0.0
C485 C 0.92133 0.27027 0.68129 0.0
C486 C 0.92512 0.27589 0.71795 0.0
H487 H 0.01663 0.16999 0.70952 0.0
C488 C 0.04619 0.18279 0.70668 0.0
H489 H 0.08388 0.22929 0.71834 0.0
H490 H 0.97944 0.27623 0.84688 0.0
H491 H 0.03904 0.25797 0.87837 0.0
H492 H 0.09232 0.22999 0.84633 0.0
H493 H 0.08606 0.21978 0.78252 0.0
C494 C 0.05405 0.21648 0.71959 0.0
C495 C 0.02325 0.23617 0.7384 0.0
C496 C 0.02788 0.24312 0.77559 0.0
C497 C 0.99747 0.26 0.79401 0.0
C498 C 1.00203 0.26466 0.83135 0.0
C499 C 0.03603 0.25404 0.84984 0.0
C500 C 0.066 0.23824 0.83181 0.0
C501 C 0.06205 0.2326 0.79516 0.0
H502 H 0.50152 0.67616 0.6935 0.0
C503 C 0.52939 0.68747 0.68421 0.0
H504 H 0.56886 0.73314 0.68499 0.0
H505 H 0.44172 0.84231 0.7285 0.0
H506 H 0.45386 0.85755 0.66876 0.0
H507 H 0.4946 0.82068 0.63084 0.0
H508 H 0.5237 0.76846 0.65246 0.0
C509 C 0.54163 0.7211 0.69473 0.0
C510 C 0.51718 0.74344 0.71811 0.0
C511 C 0.50007 0.7738 0.70505 0.0
C512 C 0.476 0.7948 0.72679 0.0
C513 C 0.45978 0.82517 0.71306 0.0
C514 C 0.46657 0.83427 0.67881 0.0
C515 C 0.48954 0.81354 0.65747 0.0
C516 C 0.50614 0.78364 0.67026 0.0
H517 H 0.48996 0.82417 0.8219 0.0
C518 C 0.45842 0.82589 0.81377 0.0
H519 H 0.41198 0.80968 0.77507 0.0
H520 H 0.54997 0.6902 0.7536 0.0
H521 H 0.53552 0.67345 0.81233 0.0
H522 H 0.48885 0.70649 0.84786 0.0
H523 H 0.45715 0.75698 0.8252 0.0
C524 C 0.44319 0.80756 0.78405 0.0
C525 C 0.46876 0.78541 0.76158 0.0
C526 C 0.48556 0.75481 0.77455 0.0
C527 C 0.51068 0.73446 0.75322 0.0
C528 C 0.52913 0.70554 0.76786 0.0
C529 C 0.52134 0.69579 0.8017 0.0
C530 C 0.49522 0.71448 0.82176 0.0
C531 C 0.47744 0.74363 0.80849 0.0
H532 H 0.23184 0.71772 0.09277 0.0
C533 C 0.23954 0.69554 0.0755 0.0
H534 H 0.271 0.67886 0.03132 0.0
H535 H 0.24753 0.83975 0.98582 0.0
H536 H 0.17576 0.82596 0.98625 0.0
H537 H 0.14934 0.77053 0.00962 0.0
H538 H 0.19432 0.72899 0.03305 0.0
C539 C 0.26244 0.70104 0.04814 0.0
C540 C 0.27725 0.73664 0.03891 0.0
C541 C 0.25005 0.76046 0.0251 0.0
C542 C 0.26521 0.79189 0.01072 0.0
C543 C 0.23766 0.81534 0.9969 0.0
C544 C 0.19635 0.80774 0.99692 0.0
C545 C 0.18149 0.77659 0.01013 0.0
C546 C 0.20782 0.75302 0.02383 0.0
H547 H 0.33811 0.79493 0.94567 0.0
C548 C 0.33423 0.82188 0.95576 0.0
H549 H 0.31726 0.85487 0.99867 0.0
H550 H 0.33708 0.69837 0.06665 0.0
H551 H 0.40899 0.71261 0.0662 0.0
H552 H 0.43506 0.76667 0.03993 0.0
H553 H 0.38929 0.80682 0.01394 0.0
C554 C 0.32216 0.82812 0.98862 0.0
C555 C 0.30724 0.79857 0.00895 0.0
C556 C 0.33433 0.77577 0.02426 0.0
C557 C 0.31929 0.74473 0.03936 0.0
C558 C 0.34696 0.72217 0.05444 0.0
C559 C 0.38827 0.73011 0.0545 0.0
C560 C 0.40295 0.76055 0.0397 0.0
C561 C 0.37642 0.78326 0.02475 0.0
H562 H 0.43363 0.43037 0.4209 0.0
C563 C 0.40338 0.43857 0.42442 0.0
H564 H 0.36781 0.47578 0.44963 0.0
H565 H 0.50484 0.51471 0.57117 0.0
H566 H 0.45846 0.47807 0.60217 0.0
H567 H 0.39926 0.44621 0.57045 0.0
H568 H 0.38634 0.45062 0.50741 0.0
C569 C 0.39789 0.46792 0.44478 0.0
C570 C 0.43227 0.48881 0.46387 0.0
C571 C 0.43864 0.48684 0.5009 0.0
C572 C 0.47236 0.50571 0.51927 0.0
C573 C 0.47914 0.5018 0.55597 0.0
C574 C 0.45285 0.48065 0.57411 0.0
C575 C 0.41955 0.46268 0.55625 0.0
C576 C 0.41245 0.46551 0.52006 0.0
H577 H 0.50679 0.58247 0.54944 0.0
C578 C 0.53534 0.57241 0.54254 0.0
H579 H 0.56453 0.53507 0.51108 0.0
H580 H 0.42643 0.50066 0.39336 0.0
H581 H 0.47237 0.53781 0.36224 0.0
H582 H 0.53095 0.5706 0.39403 0.0
H583 H 0.54382 0.56655 0.45715 0.0
C584 C 0.53607 0.54473 0.51876 0.0
C585 C 0.49903 0.52713 0.50057 0.0
C586 C 0.49211 0.52966 0.46365 0.0
C587 C 0.45856 0.51059 0.44528 0.0
C588 C 0.45188 0.5141 0.40851 0.0
C589 C 0.47791 0.53547 0.39035 0.0
C590 C 0.51088 0.55394 0.40824 0.0
C591 C 0.51799 0.55126 0.44447 0.0
loop_
_geom_bond_atom_site_label_1
_geom_bond_atom_site_label_2
_geom_bond_distance
_geom_bond_site_symmetry_2
_ccdc_geom_bond_type
Zn0 O3 2.031 . S
Zn0 O5 2.049 . S
Zn0 O10 2.067 . S
Zn1 O2 1.962 . S
Zn1 O4 1.986 . S
Zn1 O6 1.996 . S
Zn1 O9 1.943 . S
O2 Zn1 1.962 . S
O2 C7 1.254 . S
O3 Zn0 2.031 . S
O3 C7 1.269 . S
O4 Zn1 1.986 . S
O4 C11 1.262 . S
O5 Zn0 2.049 . S
O5 C13 1.260 . S
O6 Zn1 1.996 . S
O6 C13 1.257 . S
C7 O2 1.254 . S
C7 O3 1.269 . S
C8 O9 1.249 . S
C8 O10 1.270 . S
O9 Zn1 1.943 . S
O9 C8 1.249 . S
O10 Zn0 2.067 . S
O10 C8 1.270 . S
C11 O4 1.262 . S
C11 O12 1.232 . S
O12 C11 1.232 . S
C13 O5 1.260 . S
C13 O6 1.257 . S
Zn14 O17 2.031 . S
Zn14 O19 2.049 . S
Zn14 O24 2.067 . S
Zn15 O16 1.962 . S
Zn15 O18 1.986 . S
Zn15 O20 1.996 . S
Zn15 O23 1.943 . S
O16 Zn15 1.962 . S
O16 C21 1.254 . S
O17 Zn14 2.031 . S
O17 C21 1.269 . S
O18 Zn15 1.986 . S
O18 C25 1.262 . S
O19 Zn14 2.049 . S
O19 C27 1.260 . S
O20 Zn15 1.996 . S
O20 C27 1.257 . S
C21 O16 1.254 . S
C21 O17 1.269 . S
C22 O23 1.249 . S
C22 O24 1.270 . S
O23 Zn15 1.943 . S
O23 C22 1.249 . S
O24 Zn14 2.067 . S
O24 C22 1.270 . S
C25 O18 1.262 . S
C25 O26 1.232 . S
O26 C25 1.232 . S
C27 O19 1.260 . S
C27 O20 1.257 . S
Zn28 O31 2.031 . S
Zn28 O33 2.049 . S
Zn28 O38 2.067 . S
Zn29 O30 1.962 . S
Zn29 O32 1.986 . S
Zn29 O34 1.996 . S
Zn29 O37 1.943 . S
O30 Zn29 1.962 . S
O30 C35 1.254 . S
O31 Zn28 2.031 . S
O31 C35 1.269 . S
O32 Zn29 1.986 . S
O32 C39 1.262 . S
O33 Zn28 2.049 . S
O33 C41 1.260 . S
O34 Zn29 1.996 . S
O34 C41 1.257 . S
C35 O30 1.254 . S
C35 O31 1.269 . S
C36 O37 1.249 . S
C36 O38 1.270 . S
O37 Zn29 1.943 . S
O37 C36 1.249 . S
O38 Zn28 2.067 . S
O38 C36 1.270 . S
C39 O32 1.262 . S
C39 O40 1.232 . S
O40 C39 1.232 . S
C41 O33 1.260 . S
C41 O34 1.257 . S
Zn42 O45 2.031 . S
Zn42 O47 2.049 . S
Zn42 O52 2.067 . S
Zn43 O44 1.962 . S
Zn43 O46 1.986 . S
Zn43 O48 1.996 . S
Zn43 O51 1.943 . S
O44 Zn43 1.962 . S
O44 C49 1.254 . S
O45 Zn42 2.031 . S
O45 C49 1.269 . S
O46 Zn43 1.986 . S
O46 C53 1.262 . S
O47 Zn42 2.049 . S
O47 C55 1.260 . S
O48 Zn43 1.996 . S
O48 C55 1.257 . S
C49 O44 1.254 . S
C49 O45 1.269 . S
C50 O51 1.249 . S
C50 O52 1.270 . S
O51 Zn43 1.943 . S
O51 C50 1.249 . S
O52 Zn42 2.067 . S
O52 C50 1.270 . S
C53 O46 1.262 . S
C53 O54 1.232 . S
O54 C53 1.232 . S
C55 O47 1.260 . S
C55 O48 1.257 . S
Zn56 O59 2.031 . S
Zn56 O61 2.049 . S
Zn56 O66 2.067 . S
Zn57 O58 1.962 . S
Zn57 O60 1.986 . S
Zn57 O62 1.996 . S
Zn57 O65 1.943 . S
O58 Zn57 1.962 . S
O58 C63 1.254 . S
O59 Zn56 2.031 . S
O59 C63 1.269 . S
O60 Zn57 1.986 . S
O60 C67 1.262 . S
O61 Zn56 2.049 . S
O61 C69 1.260 . S
O62 Zn57 1.996 . S
O62 C69 1.257 . S
C63 O58 1.254 . S
C63 O59 1.269 . S
C64 O65 1.249 . S
C64 O66 1.270 . S
O65 Zn57 1.943 . S
O65 C64 1.249 . S
O66 Zn56 2.067 . S
O66 C64 1.270 . S
C67 O60 1.262 . S
C67 O68 1.232 . S
O68 C67 1.232 . S
C69 O61 1.260 . S
C69 O62 1.257 . S
Zn70 O73 2.031 . S
Zn70 O75 2.049 . S
Zn70 O80 2.067 . S
Zn71 O72 1.962 . S
Zn71 O74 1.986 . S
Zn71 O76 1.996 . S
Zn71 O79 1.943 . S
O72 Zn71 1.962 . S
O72 C77 1.254 . S
O73 Zn70 2.031 . S
O73 C77 1.269 . S
O74 Zn71 1.986 . S
O74 C81 1.262 . S
O75 Zn70 2.049 . S
O75 C83 1.260 . S
O76 Zn71 1.996 . S
O76 C83 1.257 . S
C77 O72 1.254 . S
C77 O73 1.269 . S
C78 O79 1.249 . S
C78 O80 1.270 . S
O79 Zn71 1.943 . S
O79 C78 1.249 . S
O80 Zn70 2.067 . S
O80 C78 1.270 . S
C81 O74 1.262 . S
C81 O82 1.232 . S
O82 C81 1.232 . S
C83 O75 1.260 . S
C83 O76 1.257 . S
Zn84 O87 2.031 . S
Zn84 O89 2.049 . S
Zn84 O94 2.067 . S
Zn85 O86 1.962 . S
Zn85 O88 1.986 . S
Zn85 O90 1.996 . S
Zn85 O93 1.943 . S
O86 Zn85 1.962 . S
O86 C91 1.254 . S
O87 Zn84 2.031 . S
O87 C91 1.269 . S
O88 Zn85 1.986 . S
O88 C95 1.262 . S
O89 Zn84 2.049 . S
O89 C97 1.260 . S
O90 Zn85 1.996 . S
O90 C97 1.257 . S
C91 O86 1.254 . S
C91 O87 1.269 . S
C92 O93 1.249 . S
C92 O94 1.270 . S
O93 Zn85 1.943 . S
O93 C92 1.249 . S
O94 Zn84 2.067 . S
O94 C92 1.270 . S
C95 O88 1.262 . S
C95 O96 1.232 . S
O96 C95 1.232 . S
C97 O89 1.260 . S
C97 O90 1.257 . S
Zn98 O101 2.031 . S
Zn98 O103 2.049 . S
Zn98 O108 2.067 . S
Zn99 O100 1.962 . S
Zn99 O102 1.986 . S
Zn99 O104 1.996 . S
Zn99 O107 1.943 . S
O100 Zn99 1.962 . S
O100 C105 1.254 . S
O101 Zn98 2.031 . S
O101 C105 1.269 . S
O102 Zn99 1.986 . S
O102 C109 1.262 . S
O103 Zn98 2.049 . S
O103 C111 1.260 . S
O104 Zn99 1.996 . S
O104 C111 1.257 . S
C105 O100 1.254 . S
C105 O101 1.269 . S
C106 O107 1.249 . S
C106 O108 1.270 . S
O107 Zn99 1.943 . S
O107 C106 1.249 . S
O108 Zn98 2.067 . S
O108 C106 1.270 . S
C109 O102 1.262 . S
C109 O110 1.232 . S
O110 C109 1.232 . S
C111 O103 1.260 . S
C111 O104 1.257 . S
H112 C113 0.951 . S
C113 H112 0.951 . S
C113 C119 1.265 . S
H114 C119 0.950 . S
H115 C123 0.949 . S
H116 C124 0.950 . S
H117 C125 0.951 . S
H118 C126 0.951 . S
C119 C113 1.265 . S
C119 H114 0.950 . S
C119 C120 1.478 . S
C120 C119 1.478 . S
C120 C121 1.397 . S
C120 C137 1.394 . S
C121 C120 1.397 . S
C121 C122 1.438 . S
C121 C126 1.429 . S
C122 C121 1.438 . S
C122 C123 1.428 . S
C122 C135 1.394 . S
C123 H115 0.949 . S
C123 C122 1.428 . S
C123 C124 1.345 . S
C124 H116 0.950 . S
C124 C123 1.345 . S
C124 C125 1.424 . S
C125 H117 0.951 . S
C125 C124 1.424 . S
C125 C126 1.347 . S
C126 H118 0.951 . S
C126 C121 1.429 . S
C126 C125 1.347 . S
H127 C128 0.951 . S
C128 H127 0.951 . S
C128 C134 1.265 . S
H129 C134 0.950 . S
H130 C138 0.949 . S
H131 C139 0.950 . S
H132 C140 0.951 . S
H133 C141 0.951 . S
C134 C128 1.265 . S
C134 H129 0.950 . S
C134 C135 1.478 . S
C135 C122 1.394 . S
C135 C134 1.478 . S
C135 C136 1.397 . S
C136 C135 1.397 . S
C136 C137 1.438 . S
C136 C141 1.429 . S
C137 C120 1.394 . S
C137 C136 1.438 . S
C137 C138 1.428 . S
C138 H130 0.949 . S
C138 C137 1.428 . S
C138 C139 1.345 . S
C139 H131 0.950 . S
C139 C138 1.345 . S
C139 C140 1.424 . S
C140 H132 0.951 . S
C140 C139 1.424 . S
C140 C141 1.347 . S
C141 H133 0.951 . S
C141 C136 1.429 . S
C141 C140 1.347 . S
H142 C143 0.951 . S
C143 H142 0.951 . S
C143 C149 1.265 . S
H144 C149 0.950 . S
H145 C153 0.949 . S
H146 C154 0.950 . S
H147 C155 0.951 . S
H148 C156 0.951 . S
C149 C143 1.265 . S
C149 H144 0.950 . S
C149 C150 1.478 . S
C150 C149 1.478 . S
C150 C151 1.397 . S
C150 C167 1.394 . S
C151 C150 1.397 . S
C151 C152 1.438 . S
C151 C156 1.429 . S
C152 C151 1.438 . S
C152 C153 1.428 . S
C152 C165 1.394 . S
C153 H145 0.949 . S
C153 C152 1.428 . S
C153 C154 1.345 . S
C154 H146 0.950 . S
C154 C153 1.345 . S
C154 C155 1.424 . S
C155 H147 0.951 . S
C155 C154 1.424 . S
C155 C156 1.347 . S
C156 H148 0.951 . S
C156 C151 1.429 . S
C156 C155 1.347 . S
H157 C158 0.951 . S
C158 H157 0.951 . S
C158 C164 1.265 . S
H159 C164 0.950 . S
H160 C168 0.949 . S
H161 C169 0.950 . S
H162 C170 0.951 . S
H163 C171 0.951 . S
C164 C158 1.265 . S
C164 H159 0.950 . S
C164 C165 1.478 . S
C165 C152 1.394 . S
C165 C164 1.478 . S
C165 C166 1.397 . S
C166 C165 1.397 . S
C166 C167 1.438 . S
C166 C171 1.429 . S
C167 C150 1.394 . S
C167 C166 1.438 . S
C167 C168 1.428 . S
C168 H160 0.949 . S
C168 C167 1.428 . S
C168 C169 1.345 . S
C169 H161 0.950 . S
C169 C168 1.345 . S
C169 C170 1.424 . S
C170 H162 0.951 . S
C170 C169 1.424 . S
C170 C171 1.347 . S
C171 H163 0.951 . S
C171 C166 1.429 . S
C171 C170 1.347 . S
H172 C173 0.951 . S
C173 H172 0.951 . S
C173 C179 1.265 . S
H174 C179 0.950 . S
H175 C183 0.949 . S
H176 C184 0.950 . S
H177 C185 0.951 . S
H178 C186 0.951 . S
C179 C173 1.265 . S
C179 H174 0.950 . S
C179 C180 1.478 . S
C180 C179 1.478 . S
C180 C181 1.397 1_554 S
C180 C197 1.399 . S
C181 C180 1.397 1_556 S
C181 C182 1.438 1_545 S
C181 C186 1.429 . S
C182 C181 1.438 1_565 S
C182 C183 1.428 . S
C182 C195 1.394 . S
C183 H175 0.949 . S
C183 C182 1.428 . S
C183 C184 1.345 1_565 S
C184 H176 0.950 . S
C184 C183 1.345 1_545 S
C184 C185 1.424 . S
C185 H177 0.951 . S
C185 C184 1.424 . S
C185 C186 1.347 . S
C186 H178 0.951 . S
C186 C181 1.429 . S
C186 C185 1.347 . S
H187 C188 0.951 . S
C188 H187 0.951 . S
C188 C194 1.265 . S
H189 C194 0.950 . S
H190 C198 0.949 . S
H191 C199 0.950 . S
H192 C200 0.951 . S
H193 C201 0.951 . S
C194 C188 1.265 . S
C194 H189 0.950 . S
C194 C195 1.478 . S
C195 C182 1.394 . S
C195 C194 1.478 . S
C195 C196 1.397 1_556 S
C196 C195 1.397 1_554 S
C196 C197 1.433 1_565 S
C196 C201 1.429 . S
C197 C180 1.399 . S
C197 C196 1.433 1_545 S
C197 C198 1.428 . S
C198 H190 0.949 . S
C198 C197 1.428 . S
C198 C199 1.345 1_545 S
C199 H191 0.950 . S
C199 C198 1.345 1_565 S
C199 C200 1.424 . S
C200 H192 0.951 . S
C200 C199 1.424 . S
C200 C201 1.347 . S
C201 H193 0.951 . S
C201 C196 1.429 . S
C201 C200 1.347 . S
H202 C203 0.951 . S
C203 H202 0.951 . S
C203 C209 1.265 . S
H204 C209 0.950 . S
H205 C213 0.949 . S
H206 C214 0.950 . S
H207 C215 0.951 . S
H208 C216 0.951 . S
C209 C203 1.265 . S
C209 H204 0.950 . S
C209 C210 1.478 . S
C210 C209 1.478 . S
C210 C211 1.397 1_655 S
C210 C227 1.394 . S
C211 C210 1.397 1_455 S
C211 C212 1.438 . S
C211 C216 1.429 . S
C212 C211 1.438 . S
C212 C213 1.428 . S
C212 C225 1.394 . S
C213 H205 0.949 . S
C213 C212 1.428 . S
C213 C214 1.345 . S
C214 H206 0.950 . S
C214 C213 1.345 . S
C214 C215 1.424 . S
C215 H207 0.951 . S
C215 C214 1.424 . S
C215 C216 1.347 . S
C216 H208 0.951 . S
C216 C211 1.429 . S
C216 C215 1.347 . S
H217 C218 0.951 . S
C218 H217 0.951 . S
C218 C224 1.265 . S
H219 C224 0.950 . S
H220 C228 0.949 . S
H221 C229 0.950 . S
H222 C230 0.951 . S
H223 C231 0.951 . S
C224 C218 1.265 . S
C224 H219 0.950 . S
C224 C225 1.478 . S
C225 C212 1.394 . S
C225 C224 1.478 . S
C225 C226 1.397 1_455 S
C226 C225 1.397 1_655 S
C226 C227 1.438 . S
C226 C231 1.429 . S
C227 C210 1.394 . S
C227 C226 1.438 . S
C227 C228 1.428 . S
C228 H220 0.949 . S
C228 C227 1.428 . S
C228 C229 1.345 . S
C229 H221 0.950 . S
C229 C228 1.345 . S
C229 C230 1.424 . S
C230 H222 0.951 . S
C230 C229 1.424 . S
C230 C231 1.347 . S
C231 H223 0.951 . S
C231 C226 1.429 . S
C231 C230 1.347 . S
H232 C233 0.951 . S
C233 H232 0.951 . S
C233 C239 1.265 . S
H234 C239 0.950 . S
H235 C243 0.949 . S
H236 C244 0.950 . S
H237 C245 0.951 . S
H238 C246 0.951 . S
C239 C233 1.265 . S
C239 H234 0.950 . S
C239 C240 1.478 . S
C240 C239 1.478 . S
C240 C241 1.397 . S
C240 C257 1.394 1_565 S
C241 C240 1.397 . S
C241 C242 1.438 . S
C241 C246 1.429 . S
C242 C241 1.438 . S
C242 C243 1.428 . S
C242 C255 1.394 1_565 S
C243 H235 0.949 . S
C243 C242 1.428 . S
C243 C244 1.345 . S
C244 H236 0.950 . S
C244 C243 1.345 . S
C244 C245 1.424 . S
C245 H237 0.951 . S
C245 C244 1.424 . S
C245 C246 1.347 . S
C246 H238 0.951 . S
C246 C241 1.429 . S
C246 C245 1.347 . S
H247 C248 0.951 . S
C248 H247 0.951 . S
C248 C254 1.265 . S
H249 C254 0.950 . S
H250 C258 0.949 1_565 S
H251 C259 0.950 . S
H252 C260 0.951 . S
H253 C261 0.951 . S
C254 C248 1.265 . S
C254 H249 0.950 . S
C254 C255 1.478 . S
C255 C242 1.394 1_545 S
C255 C254 1.478 . S
C255 C256 1.397 . S
C256 C255 1.397 . S
C256 C257 1.438 . S
C256 C261 1.429 . S
C257 C240 1.394 1_545 S
C257 C256 1.438 . S
C257 C258 1.428 . S
C258 H250 0.949 1_545 S
C258 C257 1.428 . S
C258 C259 1.345 . S
C259 H251 0.950 . S
C259 C258 1.345 . S
C259 C260 1.424 . S
C260 H252 0.951 . S
C260 C259 1.424 . S
C260 C261 1.347 . S
C261 H253 0.951 . S
C261 C256 1.429 . S
C261 C260 1.347 . S
H262 C263 0.951 . S
C263 H262 0.951 . S
C263 C269 1.265 . S
H264 C269 0.950 . S
H265 C273 0.949 . S
H266 C274 0.950 . S
H267 C275 0.951 . S
H268 C276 0.951 . S
C269 C263 1.265 . S
C269 H264 0.950 . S
C269 C270 1.478 . S
C270 C269 1.478 . S
C270 C271 1.397 1_655 S
C270 C287 1.394 1_556 S
C271 C270 1.397 1_455 S
C271 C272 1.438 . S
C271 C276 1.429 . S
C272 C271 1.438 . S
C272 C273 1.428 . S
C272 C285 1.394 1_556 S
C273 H265 0.949 . S
C273 C272 1.428 . S
C273 C274 1.345 . S
C274 H266 0.950 . S
C274 C273 1.345 . S
C274 C275 1.424 . S
C275 H267 0.951 . S
C275 C274 1.424 . S
C275 C276 1.347 . S
C276 H268 0.951 . S
C276 C271 1.429 . S
C276 C275 1.347 . S
H277 C278 0.951 . S
C278 H277 0.951 . S
C278 C284 1.265 . S
H279 C284 0.950 . S
H280 C288 0.949 . S
H281 C289 0.950 . S
H282 C290 0.951 . S
H283 C291 0.951 . S
C284 C278 1.265 . S
C284 H279 0.950 . S
C284 C285 1.478 . S
C285 C272 1.394 1_554 S
C285 C284 1.478 . S
C285 C286 1.397 1_455 S
C286 C285 1.397 1_655 S
C286 C287 1.438 . S
C286 C291 1.429 . S
C287 C270 1.394 1_554 S
C287 C286 1.438 . S
C287 C288 1.428 . S
C288 H280 0.949 . S
C288 C287 1.428 . S
C288 C289 1.345 . S
C289 H281 0.950 . S
C289 C288 1.345 . S
C289 C290 1.424 . S
C290 H282 0.951 . S
C290 C289 1.424 . S
C290 C291 1.347 . S
C291 H283 0.951 . S
C291 C286 1.429 . S
C291 C290 1.347 . S
H292 C293 0.951 . S
C293 H292 0.951 . S
C293 C299 1.265 . S
H294 C299 0.950 . S
H295 C303 0.949 . S
H296 C304 0.950 . S
H297 C305 0.951 . S
H298 C306 0.951 . S
C299 C293 1.265 . S
C299 H294 0.950 . S
C299 C300 1.478 . S
C300 C299 1.478 . S
C300 C301 1.397 . S
C300 C317 1.394 . S
C301 C300 1.397 . S
C301 C302 1.438 . S
C301 C306 1.429 . S
C302 C301 1.438 . S
C302 C303 1.428 . S
C302 C315 1.394 . S
C303 H295 0.949 . S
C303 C302 1.428 . S
C303 C304 1.345 . S
C304 H296 0.950 . S
C304 C303 1.345 . S
C304 C305 1.424 . S
C305 H297 0.951 . S
C305 C304 1.424 . S
C305 C306 1.347 . S
C306 H298 0.951 . S
C306 C301 1.429 . S
C306 C305 1.347 . S
H307 C308 0.951 . S
C308 H307 0.951 . S
C308 C314 1.265 . S
H309 C314 0.950 . S
H310 C318 0.949 . S
H311 C319 0.950 . S
H312 C320 0.951 . S
H313 C321 0.951 . S
C314 C308 1.265 . S
C314 H309 0.950 . S
C314 C315 1.478 . S
C315 C302 1.394 . S
C315 C314 1.478 . S
C315 C316 1.397 . S
C316 C315 1.397 . S
C316 C317 1.438 . S
C316 C321 1.429 . S
C317 C300 1.394 . S
C317 C316 1.438 . S
C317 C318 1.428 . S
C318 H310 0.949 . S
C318 C317 1.428 . S
C318 C319 1.345 . S
C319 H311 0.950 . S
C319 C318 1.345 . S
C319 C320 1.424 . S
C320 H312 0.951 . S
C320 C319 1.424 . S
C320 C321 1.347 . S
C321 H313 0.951 . S
C321 C316 1.429 . S
C321 C320 1.347 . S
H322 C323 0.951 . S
C323 H322 0.951 . S
C323 C329 1.265 . S
H324 C329 0.950 . S
H325 C333 0.949 . S
H326 C334 0.950 . S
H327 C335 0.951 . S
H328 C336 0.951 . S
C329 C323 1.265 . S
C329 H324 0.950 . S
C329 C330 1.478 . S
C330 C329 1.478 . S
C330 C331 1.397 . S
C330 C347 1.394 . S
C331 C330 1.397 . S
C331 C332 1.438 . S
C331 C336 1.429 . S
C332 C331 1.438 . S
C332 C333 1.428 . S
C332 C345 1.394 . S
C333 H325 0.949 . S
C333 C332 1.428 . S
C333 C334 1.345 . S
C334 H326 0.950 . S
C334 C333 1.345 . S
C334 C335 1.424 . S
C335 H327 0.951 . S
C335 C334 1.424 . S
C335 C336 1.347 . S
C336 H328 0.951 . S
C336 C331 1.429 . S
C336 C335 1.347 . S
H337 C338 0.951 . S
C338 H337 0.951 . S
C338 C344 1.265 . S
H339 C344 0.950 . S
H340 C348 0.949 . S
H341 C349 0.950 . S
H342 C350 0.951 . S
H343 C351 0.951 . S
C344 C338 1.265 . S
C344 H339 0.950 . S
C344 C345 1.478 . S
C345 C332 1.394 . S
C345 C344 1.478 . S
C345 C346 1.397 . S
C346 C345 1.397 . S
C346 C347 1.438 . S
C346 C351 1.429 . S
C347 C330 1.394 . S
C347 C346 1.438 . S
C347 C348 1.428 . S
C348 H340 0.949 . S
C348 C347 1.428 . S
C348 C349 1.345 . S
C349 H341 0.950 . S
C349 C348 1.345 . S
C349 C350 1.424 . S
C350 H342 0.951 . S
C350 C349 1.424 . S
C350 C351 1.347 . S
C351 H343 0.951 . S
C351 C346 1.429 . S
C351 C350 1.347 . S
H352 C353 0.951 . S
C353 H352 0.951 . S
C353 C359 1.265 . S
H354 C359 0.950 . S
H355 C363 0.949 . S
H356 C364 0.950 . S
H357 C365 0.951 . S
H358 C366 0.951 . S
C359 C353 1.265 . S
C359 H354 0.950 . S
C359 C360 1.478 . S
C360 C359 1.478 . S
C360 C361 1.397 . S
C360 C377 1.394 . S
C361 C360 1.397 . S
C361 C362 1.438 . S
C361 C366 1.429 . S
C362 C361 1.438 . S
C362 C363 1.428 . S
C362 C375 1.394 . S
C363 H355 0.949 . S
C363 C362 1.428 . S
C363 C364 1.345 . S
C364 H356 0.950 . S
C364 C363 1.345 . S
C364 C365 1.424 . S
C365 H357 0.951 . S
C365 C364 1.424 . S
C365 C366 1.347 . S
C366 H358 0.951 . S
C366 C361 1.429 . S
C366 C365 1.347 . S
H367 C368 0.951 . S
C368 H367 0.951 . S
C368 C374 1.265 . S
H369 C374 0.950 . S
H370 C378 0.949 . S
H371 C379 0.950 . S
H372 C380 0.951 . S
H373 C381 0.951 . S
C374 C368 1.265 . S
C374 H369 0.950 . S
C374 C375 1.478 . S
C375 C362 1.394 . S
C375 C374 1.478 . S
C375 C376 1.397 . S
C376 C375 1.397 . S
C376 C377 1.438 . S
C376 C381 1.429 . S
C377 C360 1.394 . S
C377 C376 1.438 . S
C377 C378 1.428 . S
C378 H370 0.949 . S
C378 C377 1.428 . S
C378 C379 1.345 . S
C379 H371 0.950 . S
C379 C378 1.345 . S
C379 C380 1.424 . S
C380 H372 0.951 . S
C380 C379 1.424 . S
C380 C381 1.347 . S
C381 H373 0.951 . S
C381 C376 1.429 . S
C381 C380 1.347 . S
H382 C383 0.951 . S
C383 H382 0.951 . S
C383 C389 1.265 . S
H384 C389 0.950 . S
H385 C393 0.949 1_554 S
H386 C394 0.950 . S
H387 C395 0.951 . S
H388 C396 0.951 . S
C389 C383 1.265 . S
C389 H384 0.950 . S
C389 C390 1.478 . S
C390 C389 1.478 . S
C390 C391 1.397 . S
C390 C407 1.394 1_556 S
C391 C390 1.397 . S
C391 C392 1.438 . S
C391 C396 1.429 . S
C392 C391 1.438 . S
C392 C393 1.428 . S
C392 C405 1.394 1_556 S
C393 H385 0.949 1_556 S
C393 C392 1.428 . S
C393 C394 1.345 . S
C394 H386 0.950 . S
C394 C393 1.345 . S
C394 C395 1.424 . S
C395 H387 0.951 . S
C395 C394 1.424 . S
C395 C396 1.347 . S
C396 H388 0.951 . S
C396 C391 1.429 . S
C396 C395 1.347 . S
H397 C398 0.951 . S
C398 H397 0.951 . S
C398 C404 1.265 . S
H399 C404 0.950 . S
H400 C408 0.939 1_556 S
H401 C409 0.950 . S
H402 C410 0.951 . S
H403 C411 0.951 . S
C404 C398 1.265 . S
C404 H399 0.950 . S
C404 C405 1.478 . S
C405 C392 1.394 1_554 S
C405 C404 1.478 . S
C405 C406 1.397 . S
C406 C405 1.397 . S
C406 C407 1.438 . S
C406 C411 1.429 . S
C407 C390 1.394 1_554 S
C407 C406 1.438 . S
C407 C408 1.428 . S
C408 H400 0.939 1_554 S
C408 C407 1.428 . S
C408 C409 1.345 . S
C409 H401 0.950 . S
C409 C408 1.345 . S
C409 C410 1.424 . S
C410 H402 0.951 . S
C410 C409 1.424 . S
C410 C411 1.347 . S
C411 H403 0.951 . S
C411 C406 1.429 . S
C411 C410 1.347 . S
H412 C413 0.951 . S
C413 H412 0.951 . S
C413 C419 1.265 . S
H414 C419 0.950 . S
H415 C423 0.949 . S
H416 C424 0.950 . S
H417 C425 0.951 . S
H418 C426 0.951 . S
C419 C413 1.265 . S
C419 H414 0.950 . S
C419 C420 1.478 . S
C420 C419 1.478 . S
C420 C421 1.397 1_565 S
C420 C437 1.394 . S
C421 C420 1.397 1_545 S
C421 C422 1.438 . S
C421 C426 1.429 . S
C422 C421 1.438 . S
C422 C423 1.428 . S
C422 C435 1.394 . S
C423 H415 0.949 . S
C423 C422 1.428 . S
C423 C424 1.345 . S
C424 H416 0.950 . S
C424 C423 1.345 . S
C424 C425 1.424 . S
C425 H417 0.951 . S
C425 C424 1.424 . S
C425 C426 1.347 . S
C426 H418 0.951 . S
C426 C421 1.429 . S
C426 C425 1.347 . S
H427 C428 0.951 . S
C428 H427 0.951 . S
C428 C434 1.265 . S
H429 C434 0.950 . S
H430 C438 0.949 . S
H431 C439 0.950 . S
H432 C440 0.951 . S
H433 C441 0.951 . S
C434 C428 1.265 . S
C434 H429 0.950 . S
C434 C435 1.478 . S
C435 C422 1.394 . S
C435 C434 1.478 . S
C435 C436 1.397 1_545 S
C436 C435 1.397 1_565 S
C436 C437 1.438 . S
C436 C441 1.429 . S
C437 C420 1.394 . S
C437 C436 1.438 . S
C437 C438 1.428 . S
C438 H430 0.949 . S
C438 C437 1.428 . S
C438 C439 1.345 . S
C439 H431 0.950 . S
C439 C438 1.345 . S
C439 C440 1.424 . S
C440 H432 0.951 . S
C440 C439 1.424 . S
C440 C441 1.347 . S
C441 H433 0.951 . S
C441 C436 1.429 . S
C441 C440 1.347 . S
H442 C443 0.951 . S
C443 H442 0.951 . S
C443 C449 1.265 . S
H444 C449 0.950 . S
H445 C453 0.949 1_545 S
H446 C454 0.950 . S
H447 C455 0.951 . S
H448 C456 0.951 . S
C449 C443 1.265 . S
C449 H444 0.950 . S
C449 C450 1.478 . S
C450 C449 1.478 . S
C450 C451 1.397 . S
C450 C467 1.384 1_565 S
C451 C450 1.397 . S
C451 C452 1.438 1_655 S
C451 C456 1.429 . S
C452 C451 1.438 1_455 S
C452 C453 1.428 . S
C452 C465 1.394 1_565 S
C453 H445 0.949 1_565 S
C453 C452 1.428 . S
C453 C454 1.345 1_455 S
C454 H446 0.950 . S
C454 C453 1.345 1_655 S
C454 C455 1.424 . S
C455 H447 0.951 . S
C455 C454 1.424 . S
C455 C456 1.347 . S
C456 H448 0.951 . S
C456 C451 1.429 . S
C456 C455 1.347 . S
H457 C458 0.951 . S
C458 H457 0.951 . S
C458 C464 1.265 . S
H459 C464 0.950 . S
H460 C468 0.949 1_565 S
H461 C469 0.950 . S
H462 C470 0.951 . S
H463 C471 0.951 . S
C464 C458 1.265 . S
C464 H459 0.950 . S
C464 C465 1.478 . S
C465 C452 1.394 1_545 S
C465 C464 1.478 . S
C465 C466 1.397 . S
C466 C465 1.397 . S
C466 C467 1.446 1_455 S
C466 C471 1.429 . S
C467 C450 1.384 1_545 S
C467 C466 1.446 1_655 S
C467 C468 1.431 . S
C468 H460 0.949 1_545 S
C468 C467 1.431 . S
C468 C469 1.345 1_655 S
C469 H461 0.950 . S
C469 C468 1.345 1_455 S
C469 C470 1.424 . S
C470 H462 0.951 . S
C470 C469 1.424 . S
C470 C471 1.347 . S
C471 H463 0.951 . S
C471 C466 1.429 . S
C471 C470 1.347 . S
H472 C473 0.951 . S
C473 H472 0.951 . S
C473 C479 1.265 . S
H474 C479 0.950 . S
H475 C483 0.949 . S
H476 C484 0.950 . S
H477 C485 0.951 . S
H478 C486 0.951 . S
C479 C473 1.265 . S
C479 H474 0.950 . S
C479 C480 1.478 . S
C480 C479 1.478 . S
C480 C481 1.397 . S
C480 C497 1.394 1_655 S
C481 C480 1.397 . S
C481 C482 1.438 . S
C481 C486 1.429 . S
C482 C481 1.438 . S
C482 C483 1.428 . S
C482 C495 1.394 1_655 S
C483 H475 0.949 . S
C483 C482 1.428 . S
C483 C484 1.345 . S
C484 H476 0.950 . S
C484 C483 1.345 . S
C484 C485 1.424 . S
C485 H477 0.951 . S
C485 C484 1.424 . S
C485 C486 1.347 . S
C486 H478 0.951 . S
C486 C481 1.429 . S
C486 C485 1.347 . S
H487 C488 0.951 . S
C488 H487 0.951 . S
C488 C494 1.265 . S
H489 C494 0.950 . S
H490 C498 0.949 . S
H491 C499 0.950 . S
H492 C500 0.951 . S
H493 C501 0.951 . S
C494 C488 1.265 . S
C494 H489 0.950 . S
C494 C495 1.478 . S
C495 C482 1.394 1_455 S
C495 C494 1.478 . S
C495 C496 1.397 . S
C496 C495 1.397 . S
C496 C497 1.438 . S
C496 C501 1.429 . S
C497 C480 1.394 1_455 S
C497 C496 1.438 . S
C497 C498 1.428 . S
C498 H490 0.949 . S
C498 C497 1.428 . S
C498 C499 1.345 . S
C499 H491 0.950 . S
C499 C498 1.345 . S
C499 C500 1.424 . S
C500 H492 0.951 . S
C500 C499 1.424 . S
C500 C501 1.347 . S
C501 H493 0.951 . S
C501 C496 1.429 . S
C501 C500 1.347 . S
H502 C503 0.951 . S
C503 H502 0.951 . S
C503 C509 1.265 . S
H504 C509 0.950 . S
H505 C513 0.949 . S
H506 C514 0.950 . S
H507 C515 0.951 . S
H508 C516 0.951 . S
C509 C503 1.265 . S
C509 H504 0.950 . S
C509 C510 1.478 . S
C510 C509 1.478 . S
C510 C511 1.397 . S
C510 C527 1.394 . S
C511 C510 1.397 . S
C511 C512 1.438 . S
C511 C516 1.429 . S
C512 C511 1.438 . S
C512 C513 1.428 . S
C512 C525 1.394 . S
C513 H505 0.949 . S
C513 C512 1.428 . S
C513 C514 1.345 . S
C514 H506 0.950 . S
C514 C513 1.345 . S
C514 C515 1.424 . S
C515 H507 0.951 . S
C515 C514 1.424 . S
C515 C516 1.347 . S
C516 H508 0.951 . S
C516 C511 1.429 . S
C516 C515 1.347 . S
H517 C518 0.951 . S
C518 H517 0.951 . S
C518 C524 1.265 . S
H519 C524 0.950 . S
H520 C528 0.949 . S
H521 C529 0.950 . S
H522 C530 0.951 . S
H523 C531 0.951 . S
C524 C518 1.265 . S
C524 H519 0.950 . S
C524 C525 1.478 . S
C525 C512 1.394 . S
C525 C524 1.478 . S
C525 C526 1.397 . S
C526 C525 1.397 . S
C526 C527 1.438 . S
C526 C531 1.429 . S
C527 C510 1.394 . S
C527 C526 1.438 . S
C527 C528 1.428 . S
C528 H520 0.949 . S
C528 C527 1.428 . S
C528 C529 1.345 . S
C529 H521 0.950 . S
C529 C528 1.345 . S
C529 C530 1.424 . S
C530 H522 0.951 . S
C530 C529 1.424 . S
C530 C531 1.347 . S
C531 H523 0.951 . S
C531 C526 1.429 . S
C531 C530 1.347 . S
H532 C533 0.951 . S
C533 H532 0.951 . S
C533 C539 1.265 . S
H534 C539 0.950 . S
H535 C543 0.949 1_556 S
H536 C544 0.950 . S
H537 C545 0.951 . S
H538 C546 0.951 . S
C539 C533 1.265 . S
C539 H534 0.950 . S
C539 C540 1.478 . S
C540 C539 1.478 . S
C540 C541 1.397 . S
C540 C557 1.394 . S
C541 C540 1.397 . S
C541 C542 1.442 . S
C541 C546 1.429 . S
C542 C541 1.442 . S
C542 C543 1.428 . S
C542 C555 1.390 1_554 S
C543 H535 0.949 1_554 S
C543 C542 1.428 . S
C543 C544 1.345 . S
C544 H536 0.950 . S
C544 C543 1.345 . S
C544 C545 1.424 . S
C545 H537 0.951 . S
C545 C544 1.424 . S
C545 C546 1.347 . S
C546 H538 0.951 . S
C546 C541 1.429 . S
C546 C545 1.347 . S
H547 C548 0.951 . S
C548 H547 0.951 . S
C548 C554 1.265 . S
H549 C554 0.950 . S
H550 C558 0.949 . S
H551 C559 0.950 . S
H552 C560 0.951 . S
H553 C561 0.951 . S
C554 C548 1.265 . S
C554 H549 0.950 . S
C554 C555 1.478 . S
C555 C542 1.390 1_556 S
C555 C554 1.478 . S
C555 C556 1.397 . S
C556 C555 1.397 . S
C556 C557 1.438 1_556 S
C556 C561 1.429 . S
C557 C540 1.394 . S
C557 C556 1.438 1_554 S
C557 C558 1.428 . S
C558 H550 0.949 . S
C558 C557 1.428 . S
C558 C559 1.345 1_554 S
C559 H551 0.950 . S
C559 C558 1.345 1_556 S
C559 C560 1.424 . S
C560 H552 0.951 . S
C560 C559 1.424 . S
C560 C561 1.347 . S
C561 H553 0.951 . S
C561 C556 1.429 . S
C561 C560 1.347 . S
H562 C563 0.951 . S
C563 H562 0.951 . S
C563 C569 1.265 . S
H564 C569 0.950 . S
H565 C573 0.949 . S
H566 C574 0.950 . S
H567 C575 0.951 . S
H568 C576 0.951 . S
C569 C563 1.265 . S
C569 H564 0.950 . S
C569 C570 1.478 . S
C570 C569 1.478 . S
C570 C571 1.397 . S
C570 C587 1.394 . S
C571 C570 1.397 . S
C571 C572 1.438 . S
C571 C576 1.429 . S
C572 C571 1.438 . S
C572 C573 1.428 . S
C572 C585 1.394 . S
C573 H565 0.949 . S
C573 C572 1.428 . S
C573 C574 1.345 . S
C574 H566 0.950 . S
C574 C573 1.345 . S
C574 C575 1.424 . S
C575 H567 0.951 . S
C575 C574 1.424 . S
C575 C576 1.347 . S
C576 H568 0.951 . S
C576 C571 1.429 . S
C576 C575 1.347 . S
H577 C578 0.951 . S
C578 H577 0.951 . S
C578 C584 1.265 . S
H579 C584 0.950 . S
H580 C588 0.949 . S
H581 C589 0.950 . S
H582 C590 0.951 . S
H583 C591 0.951 . S
C584 C578 1.265 . S
C584 H579 0.950 . S
C584 C585 1.478 . S
C585 C572 1.394 . S
C585 C584 1.478 . S
C585 C586 1.397 . S
C586 C585 1.397 . S
C586 C587 1.438 . S
C586 C591 1.429 . S
C587 C570 1.394 . S
C587 C586 1.438 . S
C587 C588 1.428 . S
C588 H580 0.949 . S
C588 C587 1.428 . S
C588 C589 1.345 . S
C589 H581 0.950 . S
C589 C588 1.345 . S
C589 C590 1.424 . S
C590 H582 0.951 . S
C590 C589 1.424 . S
C590 C591 1.347 . S
C591 H583 0.951 . S
C591 C586 1.429 . S
C591 C590 1.347 . S
C113 C77 1.467 . S
C128 C13 1.349 . S
C143 C105 1.483 . S
C158 C27 1.367 . S
C173 C36 1.458 . S
C188 C92 1.411 . S
C203 C53 1.475 . S
C218 C67 1.482 . S
C233 C97 1.339 . S
C248 C7 1.465 . S
C263 C22 1.418 . S
C278 C64 1.425 . S
C293 C81 1.485 . S
C308 C39 1.473 . S
C323 C49 1.501 . S
C338 C111 1.452 . S
C353 C63 1.465 . S
C368 C83 1.324 . S
C383 C21 1.500 . S
C398 C41 1.453 . S
C413 C55 1.451 . S
C428 C35 1.498 . S
C443 C50 1.482 . S
C458 C8 1.482 . S
C473 C25 1.499 . S
C488 C11 1.468 . S
C503 C109 1.484 . S
C518 C95 1.493 . S
C533 C69 1.356 . S
C548 C91 1.468 . S
C563 C78 1.479 . S
C578 C106 1.484 . S
