# Generated by pormake.
# Topology sxb, (6)-cn, num edge types: 1
# Building blocks:
#     Node 0, Type 0, BuildingBlock: GEDQOX_clean_sbu_0, # of connection points: 6
#     Node 1, Type 0, BuildingBlock: GEDQOX_clean_sbu_0, # of connection points: 6
#     Node 2, Type 0, BuildingBlock: GEDQOX_clean_sbu_0, # of connection points: 6
#     Node 3, Type 0, BuildingBlock: GEDQOX_clean_sbu_0, # of connection points: 6
#     Edge 4, Type (0, 0), BuildingBlock: XUDNAN_clean_linker_2, # of connection points: 2
#     Edge 5, Type (0, 0), BuildingBlock: XUDNAN_clean_linker_2, # of connection points: 2
#     Edge 6, Type (0, 0), BuildingBlock: XUDNAN_clean_linker_2, # of connection points: 2
#     Edge 7, Type (0, 0), BuildingBlock: XUDNAN_clean_linker_2, # of connection points: 2
#     Edge 8, Type (0, 0), BuildingBlock: XUDNAN_clean_linker_2, # of connection points: 2
#     Edge 9, Type (0, 0), BuildingBlock: XUDNAN_clean_linker_2, # of connection points: 2
#     Edge 10, Type (0, 0), BuildingBlock: XUDNAN_clean_linker_2, # of connection points: 2
#     Edge 11, Type (0, 0), BuildingBlock: XUDNAN_clean_linker_2, # of connection points: 2
#     Edge 12, Type (0, 0), BuildingBlock: XUDNAN_clean_linker_2, # of connection points: 2
#     Edge 13, Type (0, 0), BuildingBlock: XUDNAN_clean_linker_2, # of connection points: 2
#     Edge 14, Type (0, 0), BuildingBlock: XUDNAN_clean_linker_2, # of connection points: 2
#     Edge 15, Type (0, 0), BuildingBlock: XUDNAN_clean_linker_2, # of connection points: 2
# Relax obj value: 0.400
# Max RMSD: 0.132
# Mean RMSD: 0.082
data_MOF--net-sxb--node1-GEDQOX_clean_sbu_0--edge1-XUDNAN_clean_linker_2
_symmetry_space_group_name_H-M    P1
_symmetry_Int_Tables_number       1
_symmetry_cell_setting            triclinic
loop_
_symmetry_equiv_pos_as_xyz
'x, y, z'
_cell_length_a     16.079064
_cell_length_b     34.841856
_cell_length_c     29.850126
_cell_angle_alpha  87.053025
_cell_angle_beta   94.493542
_cell_angle_gamma 115.5683
loop_
_atom_site_label
_atom_site_type_symbol
_atom_site_fract_x
_atom_site_fract_y
_atom_site_fract_z
_atom_type_partial_charge
Nd0 Nd 0.30563 0.13205 0.96897 0.0
Nd1 Nd 1.2125 1.04181 0.96193 0.0
C2 C 0.36109 0.21314 0.9867 0.0
C3 C 0.31457 0.24128 0.97762 0.0
C4 C 1.22759 0.23034 0.994 0.0
C5 C 1.17434 0.25115 0.9776 0.0
C6 C 1.20712 0.28375 0.94478 0.0
C7 C 0.29691 0.29673 0.93068 0.0
C8 C 0.35023 0.27562 0.947 0.0
C9 C 0.27741 0.1063 0.88116 0.0
C10 C 1.07333 1.08681 0.96359 0.0
C11 C 1.16211 0.96162 0.9424 0.0
C12 C 1.2151 0.93608 0.94888 0.0
C13 C 0.30343 0.95108 0.93236 0.0
C14 C 0.36236 0.93263 0.94714 0.0
C15 C 0.33431 0.89891 0.97876 0.0
C16 C 1.24387 0.88208 0.99304 0.0
C17 C 1.18458 0.90049 0.97808 0.0
C18 C 1.24015 1.06731 0.04974 0.0
C19 C 0.44602 0.08874 0.96919 0.0
O20 O 0.32576 0.18252 0.01656 0.0
O21 O 0.38298 0.20029 0.951 0.0
O22 O 0.35455 0.13488 0.89818 0.0
O23 O 1.21775 0.09184 0.91024 0.0
O24 O 1.1518 0.12016 0.9749 0.0
O25 O 1.07665 1.05134 0.95201 0.0
O26 O 1.19025 0.99253 0.91235 0.0
O27 O 1.14224 0.97315 0.97954 0.0
O28 O 1.1634 1.03839 0.0327 0.0
O29 O 0.30008 1.08194 0.02072 0.0
O30 O 0.37013 1.05468 0.95595 0.0
O31 O 0.43707 0.12207 0.98277 0.0
H32 H 1.19792 0.204 0.01757 0.0
H33 H 1.1052 0.23985 0.98892 0.0
H34 H 0.32494 0.32234 0.90616 0.0
H35 H 0.41742 0.28472 0.93403 0.0
H36 H 0.32934 0.97861 0.90997 0.0
H37 H 0.43176 0.94639 0.93569 0.0
H38 H 1.21998 0.85555 0.01679 0.0
H39 H 1.11678 0.88843 0.99127 0.0
Nd40 Nd 1.18266 1.08395 0.46214 0.0
Nd41 Nd 0.35029 1.07811 0.47403 0.0
C42 C 1.05473 0.10714 0.48235 0.0
C43 C 1.06273 0.13228 0.52191 0.0
C44 C 1.14368 0.14571 0.55044 0.0
C45 C 1.14831 0.16302 0.59219 0.0
C46 C 1.07277 0.16851 0.60535 0.0
C47 C 0.99363 0.15756 0.57561 0.0
C48 C 0.98835 0.13921 0.53424 0.0
C49 C 1.23284 1.0746 0.37896 0.0
C50 C 1.16921 0.99015 0.45101 0.0
C51 C 0.49808 1.06582 0.49669 0.0
C52 C 0.5539 1.08112 0.53916 0.0
C53 C 0.55997 0.11851 0.55777 0.0
C54 C 0.59598 0.12952 0.60165 0.0
C55 C 0.63359 0.10514 0.62732 0.0
C56 C 0.62905 1.06794 0.60806 0.0
C57 C 0.58798 1.05567 0.56482 0.0
C58 C 0.28772 0.09005 0.55375 0.0
C59 C 0.37776 0.17244 0.45981 0.0
O60 O 1.11292 0.12692 0.45164 0.0
O61 O 1.04993 1.06929 0.49197 0.0
O62 O 1.14806 1.05889 0.39067 0.0
O63 O 0.28911 0.09686 0.40994 0.0
O64 O 1.12136 1.00993 0.46399 0.0
O65 O 1.25785 1.01228 0.44459 0.0
O66 O 0.49893 0.09519 0.46737 0.0
O67 O 0.41479 1.03632 0.50193 0.0
O68 O 0.36792 0.11371 0.53987 0.0
O69 O 1.24073 1.06359 0.5243 0.0
O70 O 0.41517 0.14726 0.45028 0.0
O71 O 0.29224 0.15509 0.4728 0.0
H72 H 1.20192 0.14091 0.54138 0.0
H73 H 1.20918 0.17058 0.61478 0.0
H74 H 0.93357 0.16074 0.58563 0.0
H75 H 0.92516 0.12888 0.51292 0.0
H76 H 0.53543 0.13918 0.53861 0.0
H77 H 0.5954 0.15772 0.6149 0.0
H78 H 0.65916 1.0486 0.62567 0.0
H79 H 0.58281 1.02634 0.55146 0.0
Nd80 Nd 0.78838 0.62262 0.96983 0.0
Nd81 Nd 0.70704 0.53527 0.95495 0.0
C82 C 0.88515 0.70097 -0.00102 0.0
C83 C 0.86144 0.73125 0.02083 0.0
C84 C 0.7874 0.71654 0.04896 0.0
C85 C 0.75208 0.74416 0.06187 0.0
C86 C 0.78954 0.78659 0.04626 0.0
C87 C 0.86814 0.80199 0.02103 0.0
C88 C 0.90403 0.77442 0.00845 0.0
C89 C 0.74585 0.60527 0.87936 0.0
C90 C 0.56625 0.58198 0.96772 0.0
C91 C 0.614 0.45806 0.92247 0.0
C92 C 0.64321 0.43116 0.89779 0.0
C93 C 0.71723 0.4499 0.86971 0.0
C94 C 0.76065 0.42606 0.85541 0.0
C95 C 0.7313 0.38342 0.86951 0.0
C96 C 0.6516 0.36373 0.8939 0.0
C97 C 0.6078 0.38754 0.908 0.0
C98 C 0.74698 0.55304 0.04561 0.0
C99 C 0.93075 0.57688 0.96207 0.0
O100 O 0.87724 0.66707 0.02257 0.0
O101 O 0.85139 0.69237 0.95759 0.0
O102 O 0.72727 0.63198 0.90039 0.0
O103 O 0.78506 0.58785 0.90613 0.0
O104 O 0.64235 0.61411 0.98306 0.0
O105 O 0.5734 0.54879 0.95145 0.0
O106 O 0.6172 0.49239 0.90129 0.0
O107 O 0.64781 0.46514 0.96404 0.0
O108 O 0.76647 0.52609 0.02554 0.0
O109 O 0.70837 0.57003 0.01808 0.0
O110 O 0.85799 0.54373 0.94532 0.0
O111 O 0.91762 0.60861 0.97735 0.0
H112 H 0.75302 0.68317 0.05853 0.0
H113 H 0.69067 0.73142 0.08078 0.0
H114 H 0.89798 0.83464 0.00866 0.0
H115 H 0.96112 0.78618 0.98667 0.0
H116 H 0.74602 0.48367 0.86164 0.0
H117 H 0.82244 0.44209 0.83704 0.0
H118 H 0.62765 0.3308 0.90499 0.0
H119 H 0.55076 0.37264 0.92962 0.0
Nd120 Nd 0.6815 0.58045 0.45948 0.0
Nd121 Nd 0.8509 0.58222 0.47183 0.0
C122 C 0.53468 0.58729 0.48248 0.0
C123 C 0.49485 0.57226 0.52621 0.0
C124 C 0.50939 0.5394 0.54976 0.0
C125 C 0.48915 0.53031 0.59482 0.0
C126 C 0.45433 0.55408 0.61733 0.0
C127 C 0.43756 0.58624 0.59317 0.0
C128 C 0.45832 0.59544 0.54819 0.0
C129 C 0.73206 0.57373 0.37476 0.0
C130 C 0.68463 0.48997 0.4577 0.0
C131 C 0.99821 0.5697 0.49488 0.0
C132 C 1.02864 0.56395 0.54171 0.0
C133 C 1.03325 0.5918 0.57538 0.0
C134 C 1.04773 0.58273 0.62068 0.0
C135 C 1.0582 0.54562 0.6335 0.0
C136 C 1.05418 0.51799 0.59954 0.0
C137 C 1.0392 0.52698 0.55429 0.0
C138 C 0.78475 0.59024 0.55241 0.0
C139 C 0.8625 0.67318 0.44897 0.0
O140 O 0.6169 0.61888 0.48543 0.0
O141 O 0.52911 0.55796 0.45521 0.0
O142 O 0.64796 0.55718 0.38709 0.0
O143 O 0.78825 0.59673 0.40543 0.0
O144 O 0.63726 0.50831 0.4738 0.0
O145 O 0.76776 0.5146 0.44491 0.0
O146 O 1.00327 0.6073 0.48347 0.0
O147 O 0.92027 0.53909 0.48049 0.0
O148 O 0.86291 0.61646 0.5382 0.0
O149 O 0.74113 0.56271 0.52322 0.0
O150 O 0.90481 0.64937 0.44167 0.0
O151 O 0.77712 0.65428 0.46222 0.0
H152 H 0.5399 0.52176 0.53387 0.0
H153 H 0.50276 0.50539 0.61226 0.0
H154 H 0.40767 0.60429 0.60887 0.0
H155 H 0.44823 0.62138 0.53095 0.0
H156 H 1.02453 0.62047 0.56691 0.0
H157 H 1.05145 0.60503 0.64557 0.0
H158 H 1.06525 0.48984 0.60764 0.0
H159 H 1.03463 0.50472 0.52911 0.0
H160 H 0.73499 0.82414 0.97628 0.0
H161 H 0.71645 0.80138 0.12007 0.0
H162 H 0.6024 0.83177 0.11935 0.0
H163 H 0.70463 0.92237 0.96858 0.0
H164 H 0.63284 0.90752 0.91708 0.0
H165 H 0.72123 0.88912 0.9294 0.0
H166 H 0.60109 0.81121 0.9202 0.0
H167 H 0.51141 0.82856 0.90727 0.0
H168 H 0.50025 0.79075 0.95259 0.0
H169 H 0.47951 0.85783 0.10102 0.0
H170 H 0.36208 0.88055 0.06741 0.0
H171 H 0.45919 0.88302 0.93519 0.0
C172 C 0.70973 0.82714 0.0079 0.0
C173 C 0.73567 0.81147 0.04843 0.0
C174 C 0.69806 0.81395 0.08887 0.0
C175 C 0.63338 0.83103 0.0887 0.0
C176 C 0.60707 0.84502 0.04776 0.0
C177 C 0.64447 0.84339 0.00816 0.0
C178 C 0.59863 0.85644 0.96802 0.0
C179 C 0.66846 0.89626 0.94439 0.0
C180 C 0.54997 0.81954 0.93511 0.0
C181 C 0.52954 0.86586 0.99116 0.0
C182 C 0.53523 0.85905 0.0371 0.0
C183 C 0.47498 0.86363 0.06515 0.0
C184 C 0.4079 0.87603 0.04571 0.0
C185 C 0.40163 0.88346 -0.00129 0.0
C186 C 0.46321 0.87813 0.97127 0.0
H187 H 0.79069 0.34806 0.93959 0.0
H188 H 0.82095 0.377 0.79716 0.0
H189 H 0.94712 0.35367 0.79988 0.0
H190 H 1.02512 0.38913 0.97022 0.0
H191 H 1.01457 0.34987 0.01384 0.0
H192 H 0.91986 0.3635 -0.00089 0.0
H193 H 0.81099 0.28412 0.98357 0.0
H194 H 0.90521 0.27016 -0.00116 0.0
H195 H 0.84308 0.25553 0.94485 0.0
H196 H 1.07485 0.3296 0.82033 0.0
H197 H 1.19011 0.30633 0.85585 0.0
H198 H 1.08093 0.30081 0.98579 0.0
C199 C 0.82154 0.34808 0.90859 0.0
C200 C 0.79493 0.36324 0.86792 0.0
C201 C 0.83975 0.36473 0.82845 0.0
C202 C 0.91139 0.35172 0.82978 0.0
C203 C 0.93756 0.33798 0.87093 0.0
C204 C 0.8936 0.33606 0.90953 0.0
C205 C 0.93821 0.32326 0.95024 0.0
C206 C 0.9767 0.35855 0.9854 0.0
C207 C 0.87034 0.28075 0.97056 0.0
C208 C 1.01481 0.31847 0.92875 0.0
C209 C 1.01317 0.32661 0.88297 0.0
C210 C 1.07697 0.32336 0.8562 0.0
C211 C 1.14285 0.31061 0.87679 0.0
C212 C 1.14473 0.30175 0.9237 0.0
C213 C 1.08077 0.30669 0.94981 0.0
H214 H 0.33478 0.23866 0.48349 0.0
H215 H 0.54873 0.21424 0.42789 0.0
H216 H 0.64508 0.29103 0.4212 0.0
H217 H 0.36772 0.3328 0.41365 0.0
H218 H 0.34935 0.36133 0.45765 0.0
H219 H 0.29438 0.30397 0.45816 0.0
H220 H 0.3675 0.30251 0.53817 0.0
H221 H 0.42266 0.35985 0.53793 0.0
H222 H 0.49098 0.33036 0.54851 0.0
H223 H 0.7204 0.3697 0.41998 0.0
H224 H 0.77237 0.44672 0.42537 0.0
H225 H 0.51479 0.42494 0.48234 0.0
C226 C 0.4018 0.24953 0.46981 0.0
C227 C 0.43353 0.21981 0.45618 0.0
C228 C 0.52207 0.23575 0.43866 0.0
C229 C 0.57774 0.27959 0.43463 0.0
C230 C 0.5449 0.30786 0.44827 0.0
C231 C 0.45921 0.29374 0.4656 0.0
C232 C 0.44232 0.33172 0.47803 0.0
C233 C 0.35844 0.33249 0.45021 0.0
C234 C 0.43015 0.33106 0.52868 0.0
C235 C 0.5319 0.36909 0.46501 0.0
C236 C 0.5895 0.35417 0.44782 0.0
C237 C 0.67589 0.38177 0.43338 0.0
C238 C 0.70484 0.42574 0.43661 0.0
C239 C 0.6482 0.4425 0.45425 0.0
C240 C 0.56002 0.41346 0.4686 0.0
H241 H 1.00322 0.92501 0.48011 0.0
H242 H 1.23918 0.94799 0.40315 0.0
H243 H 1.1818 0.87128 0.39239 0.0
H244 H 0.99458 0.83036 0.53712 0.0
H245 H 0.87038 0.80234 0.53516 0.0
H246 H 0.92529 0.85965 0.5351 0.0
H247 H 0.83076 0.86175 0.46157 0.0
H248 H 0.77534 0.80439 0.46147 0.0
H249 H 0.83486 0.83372 0.41329 0.0
H250 H 1.10701 0.7927 0.39264 0.0
H251 H 1.01641 0.71571 0.40288 0.0
H252 H 0.82345 0.73861 0.47907 0.0
C253 C 1.04191 0.91387 0.46043 0.0
C254 C 1.12625 0.94314 0.44248 0.0
C255 C 1.17495 0.9268 0.41748 0.0
C256 C 1.14273 0.88301 0.41102 0.0
C257 C 1.06096 0.85512 0.42962 0.0
C258 C 1.01055 0.86962 0.45368 0.0
C259 C 0.9261 0.83185 0.47104 0.0
C260 C 0.92931 0.83101 0.52267 0.0
C261 C 0.83644 0.83301 0.45062 0.0
C262 C 0.93824 0.7942 0.45352 0.0
C263 C 1.01661 0.80879 0.42958 0.0
C264 C 1.04511 0.78089 0.41106 0.0
C265 C 0.99292 0.73696 0.41721 0.0
C266 C 0.91214 0.72054 0.44167 0.0
C267 C 0.88413 0.74986 0.45978 0.0
H268 H 0.51512 1.02542 0.96302 0.0
H269 H 0.6037 0.16184 0.97054 0.0
H270 H 0.76463 0.17374 0.96867 0.0
H271 H 0.70709 1.02416 0.03457 0.0
H272 H 0.72646 0.98574 0.00435 0.0
H273 H 0.61235 0.98375 0.00295 0.0
H274 H 0.60211 0.98838 0.91737 0.0
H275 H 0.71497 0.98945 0.9158 0.0
H276 H 0.69127 1.0312 0.88827 0.0
H277 H 0.91771 0.17356 0.96595 0.0
H278 H 1.05551 0.16067 0.96457 0.0
H279 H 0.88374 1.02456 0.96036 0.0
C280 C 0.56832 1.05777 0.96399 0.0
C281 C 0.54414 0.09263 0.96702 0.0
C282 C 0.61774 0.13427 0.96857 0.0
C283 C 0.71061 0.14158 0.96734 0.0
C284 C 0.73205 0.10711 0.96471 0.0
C285 C 0.66364 1.06588 0.96317 0.0
C286 C 0.70903 1.03505 0.96165 0.0
C287 C 0.68734 1.00538 0.00332 0.0
C288 C 0.67737 1.00948 0.91819 0.0
C289 C 0.81271 1.06557 0.96221 0.0
C290 C 0.82305 0.10694 0.96395 0.0
C291 C 0.91022 0.14121 0.96482 0.0
C292 C 0.98902 0.13346 0.96423 0.0
C293 C 0.98306 0.09167 0.96282 0.0
C294 C 0.89229 1.05707 0.96144 0.0
H295 H 0.72968 0.18817 0.65194 0.0
H296 H 0.66741 1.06041 0.70076 0.0
H297 H 0.81253 0.08736 0.7467 0.0
H298 H 0.88628 0.22305 0.61832 0.0
H299 H 0.96704 0.27366 0.64106 0.0
H300 H 0.84637 0.25582 0.64695 0.0
H301 H 0.87453 0.26404 0.73192 0.0
H302 H 0.99675 0.2826 0.72622 0.0
H303 H 0.93754 0.23895 0.76405 0.0
H304 H 0.97386 0.11199 0.74012 0.0
H305 H 1.07456 0.12095 0.67965 0.0
H306 H 1.05307 0.23559 0.63452 0.0
C307 C 0.7434 0.16625 0.67467 0.0
C308 C 0.69046 0.12191 0.67017 0.0
C309 C 0.70977 0.09442 0.70121 0.0
C310 C 0.7919 0.10982 0.72844 0.0
C311 C 0.8536 0.15285 0.72472 0.0
C312 C 0.82642 0.18167 0.70148 0.0
C313 C 0.91034 0.22274 0.69216 0.0
C314 C 0.90189 0.24493 0.64683 0.0
C315 C 0.93099 0.25383 0.73089 0.0
C316 C 0.98226 0.20538 0.69435 0.0
C317 C 0.9531 0.16812 0.72077 0.0
C318 C 0.99643 0.1409 0.71977 0.0
C319 C 1.05401 0.14607 0.68503 0.0
C320 C 1.06771 0.17836 0.65223 0.0
C321 C 1.04189 0.21099 0.66008 0.0
H322 H 1.00916 0.52367 0.9297 0.0
H323 H 1.0809 0.63954 0.00301 0.0
H324 H 1.24183 0.65091 0.01113 0.0
H325 H 1.17152 0.49035 0.99537 0.0
H326 H 1.20467 0.47123 0.94799 0.0
H327 H 1.0918 0.47056 0.94703 0.0
H328 H 1.1232 0.51401 0.87283 0.0
H329 H 1.23719 0.51596 0.87354 0.0
H330 H 1.22281 0.56459 0.87024 0.0
H331 H 0.39631 0.6523 0.01271 0.0
H332 H 0.53792 0.64343 0.00745 0.0
H333 H 0.38289 0.527 0.93331 0.0
C334 C 1.05868 0.55135 0.94755 0.0
C335 C 1.0295 0.58063 0.96563 0.0
C336 C 1.09851 0.61636 0.98852 0.0
C337 C 1.19147 0.62329 0.9935 0.0
C338 C 1.21777 0.59442 0.97553 0.0
C339 C 1.15411 0.55906 0.95293 0.0
C340 C 1.20435 0.53377 0.93687 0.0
C341 C 1.16579 0.4888 0.95808 0.0
C342 C 1.19642 0.53196 0.8853 0.0
C343 C 0.30512 0.56044 0.95439 0.0
C344 C 0.30985 0.59527 0.97644 0.0
C345 C 0.39333 0.62508 0.99554 0.0
C346 C 0.4743 0.61963 0.99228 0.0
C347 C 0.47402 0.58447 0.97005 0.0
C348 C 0.38693 0.55426 0.95079 0.0
H349 H 0.47509 0.60847 0.68358 0.0
H350 H 0.37003 0.47481 0.65676 0.0
H351 H 1.26492 0.45788 0.71664 0.0
H352 H 0.3356 0.57886 0.80965 0.0
H353 H 0.31681 0.62585 0.79832 0.0
H354 H 0.42919 0.6275 0.79252 0.0
H355 H 0.43129 0.65683 0.71292 0.0
H356 H 0.32039 0.65596 0.71762 0.0
H357 H 0.33837 0.62894 0.67188 0.0
H358 H 1.1213 0.45666 0.73156 0.0
H359 H 1.00897 0.47012 0.68163 0.0
H360 H 1.17596 0.60516 0.69173 0.0
C361 C 0.43246 0.57565 0.69252 0.0
C362 C 0.42686 0.54328 0.66442 0.0
C363 C 0.37437 0.50049 0.67717 0.0
C364 C 0.31414 0.49062 0.71175 0.0
C365 C 0.30447 0.52376 0.73201 0.0
C366 C 0.36758 0.56598 0.72511 0.0
C367 C 0.32697 0.59561 0.73766 0.0
C368 C 0.35358 0.60759 0.78746 0.0
C369 C 0.35581 0.63664 0.70808 0.0
C370 C 1.22532 0.56519 0.73192 0.0
C371 C 1.21458 0.52335 0.73819 0.0
C372 C 1.1306 0.48914 0.72575 0.0
C373 C 1.06707 0.49699 0.69667 0.0
C374 C 1.08837 0.53872 0.68054 0.0
C375 C 1.16037 0.573 0.70315 0.0
H376 H 1.11582 1.03517 0.30696 0.0
H377 H 0.40049 0.1212 0.34292 0.0
H378 H 0.43478 0.12909 0.26254 0.0
H379 H 1.16353 0.98243 0.2175 0.0
H380 H 1.06261 0.97774 0.18297 0.0
H381 H 1.06223 0.97838 0.24324 0.0
H382 H 1.01834 1.0419 0.23632 0.0
H383 H 1.01913 1.04161 0.17606 0.0
H384 H 1.09014 0.08953 0.2062 0.0
H385 H 0.43567 0.12899 0.17673 0.0
H386 H 0.40429 0.1187 0.09445 0.0
H387 H 1.11924 1.03265 0.11584 0.0
C388 C 1.18556 1.05551 0.298 0.0
C389 C 1.25549 1.07766 0.33123 0.0
C390 C 0.34585 0.10391 0.31805 0.0
C391 C 0.36587 0.10863 0.27245 0.0
C392 C 0.29489 1.08676 0.24043 0.0
C393 C 1.20666 1.06051 0.25276 0.0
C394 C 1.14234 1.04067 0.21205 0.0
C395 C 1.10554 0.99192 0.21407 0.0
C396 C 1.06281 1.05426 0.2074 0.0
C397 C 1.20777 1.06 0.17475 0.0
C398 C 0.29553 1.08654 0.19165 0.0
C399 C 0.36723 0.10815 0.16326 0.0
C400 C 0.34881 0.10221 0.11658 0.0
C401 C 1.25948 1.07484 0.09875 0.0
C402 C 1.18833 1.05372 0.12841 0.0
H403 H 0.39753 0.14098 0.81475 0.0
H404 H 1.1138 1.0536 0.83711 0.0
H405 H 1.08263 1.04142 0.75511 0.0
H406 H 0.34883 0.1878 0.71084 0.0
H407 H 0.45172 0.19265 0.68608 0.0
H408 H 0.45037 0.19475 0.74618 0.0
H409 H 0.49935 0.13275 0.75609 0.0
H410 H 0.50094 0.13072 0.69606 0.0
H411 H 0.43123 1.08358 0.72742 0.0
H412 H 1.08483 1.03769 0.66982 0.0
H413 H 1.12066 1.04255 0.58977 0.0
H414 H 0.402 0.13338 0.62444 0.0
C415 C 0.32876 0.11927 0.80244 0.0
C416 C 1.25799 0.09819 0.83229 0.0
C417 C 1.169 1.07003 0.81482 0.0
C418 C 1.1507 1.063 0.7683 0.0
C419 C 1.22214 1.08438 0.73975 0.0
C420 C 0.30943 0.11196 0.75626 0.0
C421 C 0.37461 0.13084 0.71876 0.0
C422 C 0.40834 0.17939 0.71527 0.0
C423 C 0.45632 0.11873 0.72497 0.0
C424 C 0.31093 0.10917 0.67858 0.0
C425 C 1.22314 1.08256 0.69118 0.0
C426 C 1.15333 1.05849 0.65968 0.0
C427 C 1.17422 1.06139 0.61435 0.0
C428 C 1.264 0.08825 0.601 0.0
C429 C 0.33259 0.11269 0.6336 0.0
H430 H 0.61955 0.56764 0.29802 0.0
H431 H 0.89488 0.58303 0.34297 0.0
H432 H 0.92968 0.58093 0.26387 0.0
H433 H 0.57846 0.49754 0.20776 0.0
H434 H 0.52047 0.52166 0.17019 0.0
H435 H 0.51734 0.52445 0.23007 0.0
H436 H 0.58455 0.60661 0.22377 0.0
H437 H 0.58768 0.60405 0.16381 0.0
H438 H 0.69137 0.63591 0.19696 0.0
H439 H 0.92862 0.57024 0.17986 0.0
H440 H 0.89921 0.56061 0.09759 0.0
H441 H 0.63128 0.56055 0.1054 0.0
C442 C 0.68737 0.57079 0.29117 0.0
C443 C 0.75451 0.57521 0.32685 0.0
C444 C 0.84257 0.57967 0.31633 0.0
C445 C 0.86275 0.57838 0.27144 0.0
C446 C 0.7949 0.57366 0.23709 0.0
C447 C 0.70955 0.57082 0.24637 0.0
C448 C 0.64976 0.56717 0.20315 0.0
C449 C 0.56128 0.52521 0.20279 0.0
C450 C 0.62701 0.60573 0.19654 0.0
C451 C 0.71382 0.56739 0.16811 0.0
C452 C 0.79685 0.57066 0.18853 0.0
C453 C 0.86456 0.56849 0.16359 0.0
C454 C 0.8472 0.56291 0.11684 0.0
C455 C 0.76377 0.56052 0.09496 0.0
C456 C 0.69658 0.56322 0.12105 0.0
H457 H 0.83854 0.55819 0.63005 0.0
H458 H 0.676 0.62487 0.57973 0.0
H459 H 0.64085 0.63138 0.65742 0.0
H460 H 0.69208 0.5003 0.72427 0.0
H461 H 0.78954 0.50579 0.76202 0.0
H462 H 0.79577 0.50292 0.70232 0.0
H463 H 0.94264 0.5732 0.70455 0.0
H464 H 0.93709 0.57792 0.76379 0.0
H465 H 0.94047 0.62034 0.72562 0.0
H466 H 0.62941 0.63403 0.74015 0.0
H467 H 0.64612 0.63508 0.82282 0.0
H468 H 0.81723 0.56701 0.82253 0.0
C469 C 0.79381 0.57325 0.63556 0.0
C470 C 0.75747 0.59001 0.59883 0.0
C471 C 0.70209 0.61082 0.60725 0.0
C472 C 0.6821 0.61474 0.65132 0.0
C473 C 0.71824 0.59775 0.68687 0.0
C474 C 0.77295 0.57735 0.67964 0.0
C475 C 0.807 0.56408 0.72428 0.0
C476 C 0.7688 0.51538 0.72846 0.0
C477 C 0.91311 0.5852 0.72988 0.0
C478 C 0.76497 0.58125 0.75763 0.0
C479 C 0.71319 0.60007 0.73508 0.0
C480 C 0.66942 0.61922 0.75809 0.0
C481 C 0.67959 0.61973 0.80521 0.0
C482 C 0.7332 0.60128 0.82941 0.0
C483 C 0.77548 0.58124 0.80512 0.0
loop_
_geom_bond_atom_site_label_1
_geom_bond_atom_site_label_2
_geom_bond_distance
_geom_bond_site_symmetry_2
_ccdc_geom_bond_type
Nd0 C2 2.838 1_455 S
Nd0 O20 2.500 1_456 S
Nd0 O21 2.492 1_455 S
Nd0 O22 2.487 . S
Nd0 O23 2.682 1_545 S
Nd0 O24 2.410 1_455 S
Nd0 O29 2.414 1_456 S
Nd0 O31 2.424 . S
Nd1 C11 2.839 1_655 S
Nd1 O23 2.414 1_654 S
Nd1 O25 2.424 . S
Nd1 O26 2.500 1_654 S
Nd1 O27 2.492 1_655 S
Nd1 O28 2.487 . S
Nd1 O29 2.682 1_565 S
Nd1 O30 2.410 1_655 S
C2 Nd0 2.838 1_655 S
C2 C3 1.496 1_556 S
C2 O20 1.246 1_556 S
C2 O21 1.252 . S
C3 C2 1.496 1_554 S
C3 C4 1.366 . S
C3 C8 1.407 1_554 S
C4 C3 1.366 . S
C4 C5 1.392 . S
C4 H32 0.930 . S
C5 C4 1.392 . S
C5 C6 1.398 . S
C5 H33 0.929 . S
C6 C5 1.398 . S
C6 C7 1.352 1_554 S
C7 C6 1.352 1_556 S
C7 C8 1.384 . S
C7 H34 0.930 . S
C8 C3 1.407 1_556 S
C8 C7 1.384 . S
C8 H35 0.929 . S
C9 O22 1.241 . S
C9 O23 1.273 1_545 S
C10 O24 1.251 1_565 S
C10 O25 1.268 1_556 S
C11 Nd1 2.839 1_455 S
C11 C12 1.495 1_554 S
C11 O26 1.242 1_554 S
C11 O27 1.258 . S
C12 C11 1.495 1_556 S
C12 C13 1.366 . S
C12 C17 1.407 1_556 S
C13 C12 1.366 . S
C13 C14 1.392 . S
C13 H36 0.930 . S
C14 C13 1.392 . S
C14 C15 1.398 . S
C14 H37 0.929 . S
C15 C14 1.398 . S
C15 C16 1.352 1_556 S
C16 C15 1.352 1_554 S
C16 C17 1.384 . S
C16 H38 0.930 . S
C17 C12 1.407 1_554 S
C17 C16 1.384 . S
C17 H39 0.929 . S
C18 O28 1.241 . S
C18 O29 1.273 1_565 S
C19 O30 1.251 1_545 S
C19 O31 1.268 1_554 S
O20 Nd0 2.500 1_654 S
O20 C2 1.246 1_554 S
O21 Nd0 2.492 1_655 S
O21 C2 1.252 . S
O22 Nd0 2.487 . S
O22 C9 1.241 . S
O23 Nd0 2.682 1_565 S
O23 Nd1 2.414 1_456 S
O23 C9 1.273 1_565 S
O24 Nd0 2.410 1_655 S
O24 C10 1.251 1_545 S
O25 Nd1 2.424 . S
O25 C10 1.268 1_554 S
O26 Nd1 2.500 1_456 S
O26 C11 1.242 1_556 S
O27 Nd1 2.492 1_455 S
O27 C11 1.258 . S
O28 Nd1 2.487 . S
O28 C18 1.241 . S
O29 Nd0 2.414 1_654 S
O29 Nd1 2.682 1_545 S
O29 C18 1.273 1_545 S
O30 Nd1 2.410 1_455 S
O30 C19 1.251 1_565 S
O31 Nd0 2.424 . S
O31 C19 1.268 1_556 S
H32 C4 0.930 . S
H33 C5 0.929 . S
H34 C7 0.930 . S
H35 C8 0.929 . S
H36 C13 0.930 . S
H37 C14 0.929 . S
H38 C16 0.930 . S
H39 C17 0.929 . S
Nd40 C42 2.836 . S
Nd40 O60 2.500 . S
Nd40 O61 2.492 . S
Nd40 O62 2.487 . S
Nd40 O63 2.699 1_655 S
Nd40 O64 2.410 1_545 S
Nd40 O69 2.401 1_545 S
Nd40 O71 2.424 1_655 S
Nd41 C51 2.838 . S
Nd41 O63 2.398 1_565 S
Nd41 O65 2.424 1_455 S
Nd41 O66 2.500 . S
Nd41 O67 2.492 . S
Nd41 O68 2.487 . S
Nd41 O69 2.695 1_455 S
Nd41 O70 2.410 1_565 S
C42 Nd40 2.836 . S
C42 C43 1.498 1_545 S
C42 O60 1.258 . S
C42 O61 1.239 . S
C43 C42 1.498 1_565 S
C43 C44 1.366 . S
C43 C48 1.407 . S
C44 C43 1.366 . S
C44 C45 1.392 . S
C44 H72 0.930 . S
C45 C44 1.392 . S
C45 C46 1.398 . S
C45 H73 0.929 . S
C46 C45 1.398 . S
C46 C47 1.352 . S
C47 C46 1.352 . S
C47 C48 1.384 . S
C47 H74 0.930 . S
C48 C43 1.407 . S
C48 C47 1.384 . S
C48 H75 0.929 1_565 S
C49 O62 1.241 . S
C49 O63 1.282 1_655 S
C50 O64 1.251 . S
C50 O65 1.268 . S
C51 Nd41 2.838 . S
C51 C52 1.495 1_565 S
C51 O66 1.255 . S
C51 O67 1.246 . S
C52 C51 1.495 1_545 S
C52 C53 1.366 . S
C52 C57 1.407 . S
C53 C52 1.366 . S
C53 C54 1.392 . S
C53 H76 0.930 . S
C54 C53 1.392 . S
C54 C55 1.398 . S
C54 H77 0.929 . S
C55 C54 1.398 . S
C55 C56 1.352 . S
C56 C55 1.352 . S
C56 C57 1.384 . S
C56 H78 0.930 . S
C57 C52 1.407 . S
C57 C56 1.384 . S
C57 H79 0.929 1_545 S
C58 O68 1.241 . S
C58 O69 1.279 1_455 S
C59 O70 1.251 . S
C59 O71 1.268 . S
O60 Nd40 2.500 . S
O60 C42 1.258 . S
O61 Nd40 2.492 . S
O61 C42 1.239 . S
O62 Nd40 2.487 . S
O62 C49 1.241 . S
O63 Nd40 2.699 1_455 S
O63 Nd41 2.398 1_545 S
O63 C49 1.282 1_455 S
O64 Nd40 2.410 1_565 S
O64 C50 1.251 . S
O65 Nd41 2.424 1_655 S
O65 C50 1.268 . S
O66 Nd41 2.500 . S
O66 C51 1.255 . S
O67 Nd41 2.492 . S
O67 C51 1.246 . S
O68 Nd41 2.487 . S
O68 C58 1.241 . S
O69 Nd40 2.401 1_565 S
O69 Nd41 2.695 1_655 S
O69 C58 1.279 1_655 S
O70 Nd41 2.410 1_545 S
O70 C59 1.251 . S
O71 Nd40 2.424 1_455 S
O71 C59 1.268 . S
H72 C44 0.930 . S
H73 C45 0.929 . S
H74 C47 0.930 . S
H75 C48 0.929 1_545 S
H76 C53 0.930 . S
H77 C54 0.929 . S
H78 C56 0.930 . S
H79 C57 0.929 1_565 S
Nd80 C82 2.838 . S
Nd80 O100 2.500 1_556 S
Nd80 O101 2.492 . S
Nd80 O102 2.487 . S
Nd80 O103 2.682 . S
Nd80 O104 2.410 . S
Nd80 O109 2.414 1_556 S
Nd80 O111 2.424 . S
Nd81 C91 2.839 . S
Nd81 O103 2.414 1_554 S
Nd81 O105 2.424 . S
Nd81 O106 2.500 1_554 S
Nd81 O107 2.492 . S
Nd81 O108 2.487 . S
Nd81 O109 2.682 . S
Nd81 O110 2.410 . S
C82 Nd80 2.838 . S
C82 C83 1.496 1_556 S
C82 O100 1.246 1_556 S
C82 O101 1.252 . S
C83 C82 1.496 1_554 S
C83 C84 1.366 . S
C83 C88 1.407 1_554 S
C84 C83 1.366 . S
C84 C85 1.392 . S
C84 H112 0.930 . S
C85 C84 1.392 . S
C85 C86 1.398 . S
C85 H113 0.929 . S
C86 C85 1.398 . S
C86 C87 1.352 1_554 S
C87 C86 1.352 1_556 S
C87 C88 1.384 . S
C87 H114 0.930 . S
C88 C83 1.407 1_556 S
C88 C87 1.384 . S
C88 H115 0.929 . S
C89 O102 1.241 . S
C89 O103 1.273 . S
C90 O104 1.251 . S
C90 O105 1.268 1_556 S
C91 Nd81 2.839 . S
C91 C92 1.495 1_554 S
C91 O106 1.242 1_554 S
C91 O107 1.258 . S
C92 C91 1.495 1_556 S
C92 C93 1.366 . S
C92 C97 1.407 1_556 S
C93 C92 1.366 . S
C93 C94 1.392 . S
C93 H116 0.930 . S
C94 C93 1.392 . S
C94 C95 1.398 . S
C94 H117 0.929 . S
C95 C94 1.398 . S
C95 C96 1.352 1_556 S
C96 C95 1.352 1_554 S
C96 C97 1.384 . S
C96 H118 0.930 . S
C97 C92 1.407 1_554 S
C97 C96 1.384 . S
C97 H119 0.929 . S
C98 O108 1.241 . S
C98 O109 1.273 . S
C99 O110 1.251 . S
C99 O111 1.268 1_554 S
O100 Nd80 2.500 1_554 S
O100 C82 1.246 1_554 S
O101 Nd80 2.492 . S
O101 C82 1.252 . S
O102 Nd80 2.487 . S
O102 C89 1.241 . S
O103 Nd80 2.682 . S
O103 Nd81 2.414 1_556 S
O103 C89 1.273 . S
O104 Nd80 2.410 . S
O104 C90 1.251 . S
O105 Nd81 2.424 . S
O105 C90 1.268 1_554 S
O106 Nd81 2.500 1_556 S
O106 C91 1.242 1_556 S
O107 Nd81 2.492 . S
O107 C91 1.258 . S
O108 Nd81 2.487 . S
O108 C98 1.241 . S
O109 Nd80 2.414 1_554 S
O109 Nd81 2.682 . S
O109 C98 1.273 . S
O110 Nd81 2.410 . S
O110 C99 1.251 . S
O111 Nd80 2.424 . S
O111 C99 1.268 1_556 S
H112 C84 0.930 . S
H113 C85 0.929 . S
H114 C87 0.930 . S
H115 C88 0.929 . S
H116 C93 0.930 . S
H117 C94 0.929 . S
H118 C96 0.930 . S
H119 C97 0.929 . S
Nd120 C122 2.836 . S
Nd120 O140 2.500 . S
Nd120 O141 2.492 . S
Nd120 O142 2.487 . S
Nd120 O143 2.682 . S
Nd120 O144 2.410 . S
Nd120 O149 2.414 . S
Nd120 O151 2.424 . S
Nd121 C131 2.836 . S
Nd121 O143 2.414 . S
Nd121 O145 2.424 . S
Nd121 O146 2.500 . S
Nd121 O147 2.492 . S
Nd121 O148 2.487 . S
Nd121 O149 2.682 . S
Nd121 O150 2.410 . S
C122 Nd120 2.836 . S
C122 C123 1.498 . S
C122 O140 1.258 . S
C122 O141 1.239 . S
C123 C122 1.498 . S
C123 C124 1.366 . S
C123 C128 1.407 . S
C124 C123 1.366 . S
C124 C125 1.392 . S
C124 H152 0.930 . S
C125 C124 1.392 . S
C125 C126 1.398 . S
C125 H153 0.929 . S
C126 C125 1.398 . S
C126 C127 1.352 . S
C127 C126 1.352 . S
C127 C128 1.384 . S
C127 H154 0.930 . S
C128 C123 1.407 . S
C128 C127 1.384 . S
C128 H155 0.929 . S
C129 O142 1.241 . S
C129 O143 1.273 . S
C130 O144 1.251 . S
C130 O145 1.268 . S
C131 Nd121 2.836 . S
C131 C132 1.498 . S
C131 O146 1.258 . S
C131 O147 1.239 . S
C132 C131 1.498 . S
C132 C133 1.366 . S
C132 C137 1.407 . S
C133 C132 1.366 . S
C133 C134 1.392 . S
C133 H156 0.930 . S
C134 C133 1.392 . S
C134 C135 1.398 . S
C134 H157 0.929 . S
C135 C134 1.398 . S
C135 C136 1.352 . S
C136 C135 1.352 . S
C136 C137 1.384 . S
C136 H158 0.930 . S
C137 C132 1.407 . S
C137 C136 1.384 . S
C137 H159 0.929 . S
C138 O148 1.241 . S
C138 O149 1.273 . S
C139 O150 1.251 . S
C139 O151 1.268 . S
O140 Nd120 2.500 . S
O140 C122 1.258 . S
O141 Nd120 2.492 . S
O141 C122 1.239 . S
O142 Nd120 2.487 . S
O142 C129 1.241 . S
O143 Nd120 2.682 . S
O143 Nd121 2.414 . S
O143 C129 1.273 . S
O144 Nd120 2.410 . S
O144 C130 1.251 . S
O145 Nd121 2.424 . S
O145 C130 1.268 . S
O146 Nd121 2.500 . S
O146 C131 1.258 . S
O147 Nd121 2.492 . S
O147 C131 1.239 . S
O148 Nd121 2.487 . S
O148 C138 1.241 . S
O149 Nd120 2.414 . S
O149 Nd121 2.682 . S
O149 C138 1.273 . S
O150 Nd121 2.410 . S
O150 C139 1.251 . S
O151 Nd120 2.424 . S
O151 C139 1.268 . S
H152 C124 0.930 . S
H153 C125 0.929 . S
H154 C127 0.930 . S
H155 C128 0.929 . S
H156 C133 0.930 . S
H157 C134 0.929 . S
H158 C136 0.930 . S
H159 C137 0.929 . S
H160 C172 0.930 . S
H161 C174 0.930 . S
H162 C175 0.930 . S
H163 C179 0.959 . S
H164 C179 0.959 . S
H165 C179 0.961 . S
H166 C180 0.960 . S
H167 C180 0.961 . S
H168 C180 0.959 . S
H169 C183 0.929 . S
H170 C184 0.931 . S
H171 C186 0.930 . S
C172 H160 0.930 . S
C172 C173 1.399 1_556 S
C172 C177 1.399 . S
C173 C172 1.399 1_554 S
C173 C174 1.376 . S
C174 H161 0.930 . S
C174 C173 1.376 . S
C174 C175 1.388 . S
C175 H162 0.930 . S
C175 C174 1.388 . S
C175 C176 1.390 . S
C176 C175 1.390 . S
C176 C177 1.394 1_554 S
C176 C182 1.465 . S
C177 C172 1.399 . S
C177 C176 1.394 1_556 S
C177 C178 1.516 . S
C178 C177 1.516 . S
C178 C179 1.502 . S
C178 C180 1.561 . S
C178 C181 1.526 . S
C179 H163 0.959 . S
C179 H164 0.959 . S
C179 H165 0.961 . S
C179 C178 1.502 . S
C180 H166 0.960 . S
C180 H167 0.961 . S
C180 H168 0.959 . S
C180 C178 1.561 . S
C181 C178 1.526 . S
C181 C182 1.396 1_556 S
C181 C186 1.390 . S
C182 C176 1.465 . S
C182 C181 1.396 1_554 S
C182 C183 1.399 . S
C183 H169 0.929 . S
C183 C182 1.399 . S
C183 C184 1.385 . S
C184 H170 0.931 . S
C184 C183 1.385 . S
C184 C185 1.389 1_554 S
C185 C184 1.389 1_556 S
C185 C186 1.387 . S
C186 H171 0.930 . S
C186 C181 1.390 . S
C186 C185 1.387 . S
H187 C199 0.930 . S
H188 C201 0.930 . S
H189 C202 0.930 . S
H190 C206 0.959 . S
H191 C206 0.959 . S
H192 C206 0.961 . S
H193 C207 0.960 . S
H194 C207 0.961 . S
H195 C207 0.959 . S
H196 C210 0.929 . S
H197 C211 0.931 . S
H198 C213 0.930 . S
C199 H187 0.930 . S
C199 C200 1.399 1_554 S
C199 C204 1.399 . S
C200 C199 1.399 1_556 S
C200 C201 1.376 . S
C201 H188 0.930 . S
C201 C200 1.376 . S
C201 C202 1.388 . S
C202 H189 0.930 . S
C202 C201 1.388 . S
C202 C203 1.390 . S
C203 C202 1.390 . S
C203 C204 1.394 1_556 S
C203 C209 1.465 . S
C204 C199 1.399 . S
C204 C203 1.394 1_554 S
C204 C205 1.516 . S
C205 C204 1.516 . S
C205 C206 1.502 . S
C205 C207 1.561 . S
C205 C208 1.526 . S
C206 H190 0.959 . S
C206 H191 0.959 . S
C206 H192 0.961 . S
C206 C205 1.502 . S
C207 H193 0.960 . S
C207 H194 0.961 . S
C207 H195 0.959 . S
C207 C205 1.561 . S
C208 C205 1.526 . S
C208 C209 1.396 1_554 S
C208 C213 1.390 . S
C209 C203 1.465 . S
C209 C208 1.396 1_556 S
C209 C210 1.399 . S
C210 H196 0.929 . S
C210 C209 1.399 . S
C210 C211 1.385 . S
C211 H197 0.931 . S
C211 C210 1.385 . S
C211 C212 1.389 1_556 S
C212 C211 1.389 1_554 S
C212 C213 1.387 . S
C213 H198 0.930 . S
C213 C208 1.390 . S
C213 C212 1.387 . S
H214 C226 0.930 . S
H215 C228 0.930 . S
H216 C229 0.930 . S
H217 C233 0.959 . S
H218 C233 0.959 . S
H219 C233 0.961 . S
H220 C234 0.960 . S
H221 C234 0.961 . S
H222 C234 0.959 . S
H223 C237 0.929 . S
H224 C238 0.931 . S
H225 C240 0.930 . S
C226 H214 0.930 . S
C226 C227 1.399 . S
C226 C231 1.399 . S
C227 C226 1.399 . S
C227 C228 1.376 . S
C228 H215 0.930 . S
C228 C227 1.376 . S
C228 C229 1.388 . S
C229 H216 0.930 . S
C229 C228 1.388 . S
C229 C230 1.390 . S
C230 C229 1.390 . S
C230 C231 1.394 . S
C230 C236 1.465 . S
C231 C226 1.399 . S
C231 C230 1.394 . S
C231 C232 1.516 . S
C232 C231 1.516 . S
C232 C233 1.502 . S
C232 C234 1.561 . S
C232 C235 1.526 . S
C233 H217 0.959 . S
C233 H218 0.959 . S
C233 H219 0.961 . S
C233 C232 1.502 . S
C234 H220 0.960 . S
C234 H221 0.961 . S
C234 H222 0.959 . S
C234 C232 1.561 . S
C235 C232 1.526 . S
C235 C236 1.396 . S
C235 C240 1.390 . S
C236 C230 1.465 . S
C236 C235 1.396 . S
C236 C237 1.399 . S
C237 H223 0.929 . S
C237 C236 1.399 . S
C237 C238 1.385 . S
C238 H224 0.931 . S
C238 C237 1.385 . S
C238 C239 1.389 . S
C239 C238 1.389 . S
C239 C240 1.387 . S
C240 H225 0.930 . S
C240 C235 1.390 . S
C240 C239 1.387 . S
H241 C253 0.930 . S
H242 C255 0.930 . S
H243 C256 0.930 . S
H244 C260 0.959 . S
H245 C260 0.959 . S
H246 C260 0.961 . S
H247 C261 0.960 . S
H248 C261 0.961 . S
H249 C261 0.959 . S
H250 C264 0.929 . S
H251 C265 0.931 . S
H252 C267 0.930 . S
C253 H241 0.930 . S
C253 C254 1.399 . S
C253 C258 1.399 . S
C254 C253 1.399 . S
C254 C255 1.376 . S
C255 H242 0.930 . S
C255 C254 1.376 . S
C255 C256 1.388 . S
C256 H243 0.930 . S
C256 C255 1.388 . S
C256 C257 1.390 . S
C257 C256 1.390 . S
C257 C258 1.394 . S
C257 C263 1.465 . S
C258 C253 1.399 . S
C258 C257 1.394 . S
C258 C259 1.516 . S
C259 C258 1.516 . S
C259 C260 1.502 . S
C259 C261 1.561 . S
C259 C262 1.526 . S
C260 H244 0.959 . S
C260 H245 0.959 . S
C260 H246 0.961 . S
C260 C259 1.502 . S
C261 H247 0.960 . S
C261 H248 0.961 . S
C261 H249 0.959 . S
C261 C259 1.561 . S
C262 C259 1.526 . S
C262 C263 1.396 . S
C262 C267 1.390 . S
C263 C257 1.465 . S
C263 C262 1.396 . S
C263 C264 1.399 . S
C264 H250 0.929 . S
C264 C263 1.399 . S
C264 C265 1.385 . S
C265 H251 0.931 . S
C265 C264 1.385 . S
C265 C266 1.389 . S
C266 C265 1.389 . S
C266 C267 1.387 . S
C267 H252 0.930 . S
C267 C262 1.390 . S
C267 C266 1.387 . S
H268 C280 0.930 . S
H269 C282 0.930 . S
H270 C283 0.930 . S
H271 C287 0.959 . S
H272 C287 0.959 . S
H273 C287 0.961 . S
H274 C288 0.960 . S
H275 C288 0.961 1_554 S
H276 C288 0.959 . S
H277 C291 0.929 . S
H278 C292 0.931 . S
H279 C294 0.930 . S
C280 H268 0.930 . S
C280 C281 1.399 1_564 S
C280 C285 1.399 . S
C281 C280 1.399 1_546 S
C281 C282 1.376 . S
C282 H269 0.930 . S
C282 C281 1.376 . S
C282 C283 1.388 . S
C283 H270 0.930 . S
C283 C282 1.388 . S
C283 C284 1.390 . S
C284 C283 1.390 . S
C284 C285 1.394 1_546 S
C284 C290 1.465 . S
C285 C280 1.399 . S
C285 C284 1.394 1_564 S
C285 C286 1.516 . S
C286 C285 1.516 . S
C286 C287 1.502 . S
C286 C288 1.561 1_554 S
C286 C289 1.526 . S
C287 H271 0.959 . S
C287 H272 0.959 . S
C287 H273 0.961 . S
C287 C286 1.502 . S
C288 H274 0.960 . S
C288 H275 0.961 1_556 S
C288 H276 0.959 . S
C288 C286 1.561 1_556 S
C289 C286 1.526 . S
C289 C290 1.396 1_564 S
C289 C294 1.390 . S
C290 C284 1.465 . S
C290 C289 1.396 1_546 S
C290 C291 1.399 . S
C291 H277 0.929 . S
C291 C290 1.399 . S
C291 C292 1.385 . S
C292 H278 0.931 . S
C292 C291 1.385 . S
C292 C293 1.389 . S
C293 C292 1.389 . S
C293 C294 1.387 1_546 S
C294 H279 0.930 . S
C294 C289 1.390 . S
C294 C293 1.387 1_564 S
H295 C307 0.930 . S
H296 C309 0.930 . S
H297 C310 0.930 . S
H298 C314 0.959 . S
H299 C314 0.959 . S
H300 C314 0.961 . S
H301 C315 0.960 . S
H302 C315 0.961 . S
H303 C315 0.959 . S
H304 C318 0.929 . S
H305 C319 0.931 . S
H306 C321 0.930 . S
C307 H295 0.930 . S
C307 C308 1.399 . S
C307 C312 1.399 . S
C308 C307 1.399 . S
C308 C309 1.376 . S
C309 H296 0.930 . S
C309 C308 1.376 . S
C309 C310 1.388 . S
C310 H297 0.930 . S
C310 C309 1.388 . S
C310 C311 1.390 . S
C311 C310 1.390 . S
C311 C312 1.394 . S
C311 C317 1.465 1_545 S
C312 C307 1.399 . S
C312 C311 1.394 . S
C312 C313 1.516 1_545 S
C313 C312 1.516 1_565 S
C313 C314 1.502 . S
C313 C315 1.561 1_565 S
C313 C316 1.526 . S
C314 H298 0.959 . S
C314 H299 0.959 . S
C314 H300 0.961 . S
C314 C313 1.502 . S
C315 H301 0.960 . S
C315 H302 0.961 . S
C315 H303 0.959 . S
C315 C313 1.561 1_545 S
C316 C313 1.526 . S
C316 C317 1.396 . S
C316 C321 1.390 . S
C317 C311 1.465 1_565 S
C317 C316 1.396 . S
C317 C318 1.399 . S
C318 H304 0.929 . S
C318 C317 1.399 . S
C318 C319 1.385 . S
C319 H305 0.931 . S
C319 C318 1.385 . S
C319 C320 1.389 . S
C320 C319 1.389 . S
C320 C321 1.387 . S
C321 H306 0.930 . S
C321 C316 1.390 . S
C321 C320 1.387 . S
H322 C334 0.930 . S
H323 C336 0.930 . S
H324 C337 0.930 . S
H325 C341 0.959 1_554 S
H326 C341 0.959 . S
H327 C341 0.961 . S
H328 C342 0.960 . S
H329 C342 0.961 . S
H330 C342 0.959 . S
H331 C345 0.929 . S
H332 C346 0.931 . S
H333 C348 0.930 . S
C334 H322 0.930 . S
C334 C335 1.387 1_556 S
C334 C339 1.399 . S
C335 C334 1.387 1_554 S
C335 C336 1.387 . S
C336 H323 0.930 . S
C336 C335 1.387 . S
C336 C337 1.388 . S
C337 H324 0.930 . S
C337 C336 1.388 . S
C337 C338 1.390 . S
C338 C337 1.390 . S
C338 C339 1.394 1_554 S
C338 C344 1.465 1_655 S
C339 C334 1.399 . S
C339 C338 1.394 1_556 S
C339 C340 1.516 . S
C340 C339 1.516 . S
C340 C341 1.502 . S
C340 C342 1.561 . S
C340 C343 1.526 1_655 S
C341 H325 0.959 1_556 S
C341 H326 0.959 . S
C341 H327 0.961 . S
C341 C340 1.502 . S
C342 H328 0.960 . S
C342 H329 0.961 . S
C342 H330 0.959 . S
C342 C340 1.561 . S
C343 C340 1.526 1_455 S
C343 C344 1.396 1_556 S
C343 C348 1.390 . S
C344 C338 1.465 1_455 S
C344 C343 1.396 1_554 S
C344 C345 1.399 . S
C345 H331 0.929 . S
C345 C344 1.399 . S
C345 C346 1.385 . S
C346 H332 0.931 . S
C346 C345 1.385 . S
C346 C347 1.389 . S
C347 C346 1.389 . S
C347 C348 1.387 1_554 S
C348 H333 0.930 . S
C348 C343 1.390 . S
C348 C347 1.387 1_556 S
H349 C361 0.930 . S
H350 C363 0.930 . S
H351 C364 0.930 . S
H352 C368 0.959 . S
H353 C368 0.959 1_655 S
H354 C368 0.961 . S
H355 C369 0.960 . S
H356 C369 0.961 . S
H357 C369 0.959 . S
H358 C372 0.929 . S
H359 C373 0.931 . S
H360 C375 0.930 . S
C361 H349 0.930 . S
C361 C362 1.399 . S
C361 C366 1.399 . S
C362 C361 1.399 . S
C362 C363 1.376 . S
C363 H350 0.930 . S
C363 C362 1.376 . S
C363 C364 1.388 . S
C364 H351 0.930 . S
C364 C363 1.388 . S
C364 C365 1.390 . S
C365 C364 1.390 . S
C365 C366 1.394 . S
C365 C371 1.465 1_455 S
C366 C361 1.399 . S
C366 C365 1.394 . S
C366 C367 1.516 1_455 S
C367 C366 1.516 1_655 S
C367 C368 1.502 1_655 S
C367 C369 1.561 . S
C367 C370 1.526 . S
C368 H352 0.959 . S
C368 H353 0.959 1_455 S
C368 H354 0.961 . S
C368 C367 1.502 1_455 S
C369 H355 0.960 . S
C369 H356 0.961 . S
C369 H357 0.959 . S
C369 C367 1.561 . S
C370 C367 1.526 . S
C370 C371 1.396 . S
C370 C375 1.390 . S
C371 C365 1.465 1_655 S
C371 C370 1.396 . S
C371 C372 1.399 . S
C372 H358 0.929 . S
C372 C371 1.399 . S
C372 C373 1.385 . S
C373 H359 0.931 . S
C373 C372 1.385 . S
C373 C374 1.389 . S
C374 C373 1.389 . S
C374 C375 1.387 . S
C375 H360 0.930 . S
C375 C370 1.390 . S
C375 C374 1.387 . S
H376 C388 0.930 . S
H377 C390 0.930 . S
H378 C391 0.930 . S
H379 C395 0.959 . S
H380 C395 0.959 . S
H381 C395 0.961 . S
H382 C396 0.960 . S
H383 C396 0.961 . S
H384 C396 0.959 . S
H385 C399 0.929 . S
H386 C400 0.931 . S
H387 C402 0.930 . S
C388 H376 0.930 . S
C388 C389 1.399 1_465 S
C388 C393 1.399 . S
C389 C388 1.399 1_645 S
C389 C390 1.376 . S
C390 H377 0.930 . S
C390 C389 1.376 . S
C390 C391 1.388 . S
C391 H378 0.930 . S
C391 C390 1.388 . S
C391 C392 1.390 . S
C392 C391 1.390 . S
C392 C393 1.394 1_645 S
C392 C398 1.465 . S
C393 C388 1.399 . S
C393 C392 1.394 1_465 S
C393 C394 1.516 . S
C394 C393 1.516 . S
C394 C395 1.502 . S
C394 C396 1.561 1_455 S
C394 C397 1.526 . S
C395 H379 0.959 . S
C395 H380 0.959 . S
C395 H381 0.961 . S
C395 C394 1.502 . S
C396 H382 0.960 . S
C396 H383 0.961 . S
C396 H384 0.959 . S
C396 C394 1.561 1_655 S
C397 C394 1.526 . S
C397 C398 1.396 1_465 S
C397 C402 1.390 . S
C398 C392 1.465 . S
C398 C397 1.396 1_645 S
C398 C399 1.399 . S
C399 H385 0.929 . S
C399 C398 1.399 . S
C399 C400 1.385 . S
C400 H386 0.931 . S
C400 C399 1.385 . S
C400 C401 1.389 . S
C401 C400 1.389 . S
C401 C402 1.387 1_645 S
C402 H387 0.930 . S
C402 C397 1.390 . S
C402 C401 1.387 1_465 S
H403 C415 0.930 . S
H404 C417 0.930 . S
H405 C418 0.930 . S
H406 C422 0.959 . S
H407 C422 0.959 . S
H408 C422 0.961 . S
H409 C423 0.960 . S
H410 C423 0.961 . S
H411 C423 0.959 . S
H412 C426 0.929 . S
H413 C427 0.931 . S
H414 C429 0.930 . S
C415 H403 0.930 . S
C415 C416 1.399 1_645 S
C415 C420 1.399 . S
C416 C415 1.399 1_465 S
C416 C417 1.376 . S
C417 H404 0.930 . S
C417 C416 1.376 . S
C417 C418 1.388 . S
C418 H405 0.930 . S
C418 C417 1.388 . S
C418 C419 1.390 . S
C419 C418 1.390 . S
C419 C420 1.394 1_465 S
C419 C425 1.465 . S
C420 C415 1.399 . S
C420 C419 1.394 1_645 S
C420 C421 1.516 . S
C421 C420 1.516 . S
C421 C422 1.502 . S
C421 C423 1.561 1_655 S
C421 C424 1.526 . S
C422 H406 0.959 . S
C422 H407 0.959 . S
C422 H408 0.961 . S
C422 C421 1.502 . S
C423 H409 0.960 . S
C423 H410 0.961 . S
C423 H411 0.959 . S
C423 C421 1.561 1_455 S
C424 C421 1.526 . S
C424 C425 1.396 1_645 S
C424 C429 1.390 . S
C425 C419 1.465 . S
C425 C424 1.396 1_465 S
C425 C426 1.399 . S
C426 H412 0.929 . S
C426 C425 1.399 . S
C426 C427 1.385 . S
C427 H413 0.931 . S
C427 C426 1.385 . S
C427 C428 1.389 . S
C428 C427 1.389 . S
C428 C429 1.387 1_465 S
C429 H414 0.930 . S
C429 C424 1.390 . S
C429 C428 1.387 1_645 S
H430 C442 0.930 . S
H431 C444 0.930 . S
H432 C445 0.930 . S
H433 C449 0.959 . S
H434 C449 0.959 . S
H435 C449 0.961 . S
H436 C450 0.960 . S
H437 C450 0.961 . S
H438 C450 0.959 . S
H439 C453 0.929 . S
H440 C454 0.931 . S
H441 C456 0.930 . S
C442 H430 0.930 . S
C442 C443 1.399 . S
C442 C447 1.399 . S
C443 C442 1.399 . S
C443 C444 1.376 . S
C444 H431 0.930 . S
C444 C443 1.376 . S
C444 C445 1.388 . S
C445 H432 0.930 . S
C445 C444 1.388 . S
C445 C446 1.390 . S
C446 C445 1.390 . S
C446 C447 1.394 . S
C446 C452 1.465 . S
C447 C442 1.399 . S
C447 C446 1.394 . S
C447 C448 1.516 . S
C448 C447 1.516 . S
C448 C449 1.502 . S
C448 C450 1.561 . S
C448 C451 1.526 . S
C449 H433 0.959 . S
C449 H434 0.959 . S
C449 H435 0.961 . S
C449 C448 1.502 . S
C450 H436 0.960 . S
C450 H437 0.961 . S
C450 H438 0.959 . S
C450 C448 1.561 . S
C451 C448 1.526 . S
C451 C452 1.396 . S
C451 C456 1.390 . S
C452 C446 1.465 . S
C452 C451 1.396 . S
C452 C453 1.399 . S
C453 H439 0.929 . S
C453 C452 1.399 . S
C453 C454 1.385 . S
C454 H440 0.931 . S
C454 C453 1.385 . S
C454 C455 1.389 . S
C455 C454 1.389 . S
C455 C456 1.387 . S
C456 H441 0.930 . S
C456 C451 1.390 . S
C456 C455 1.387 . S
H457 C469 0.930 . S
H458 C471 0.930 . S
H459 C472 0.930 . S
H460 C476 0.959 . S
H461 C476 0.959 . S
H462 C476 0.961 . S
H463 C477 0.960 . S
H464 C477 0.961 . S
H465 C477 0.959 . S
H466 C480 0.929 . S
H467 C481 0.931 . S
H468 C483 0.930 . S
C469 H457 0.930 . S
C469 C470 1.399 . S
C469 C474 1.399 . S
C470 C469 1.399 . S
C470 C471 1.376 . S
C471 H458 0.930 . S
C471 C470 1.376 . S
C471 C472 1.388 . S
C472 H459 0.930 . S
C472 C471 1.388 . S
C472 C473 1.390 . S
C473 C472 1.390 . S
C473 C474 1.394 . S
C473 C479 1.465 . S
C474 C469 1.399 . S
C474 C473 1.394 . S
C474 C475 1.516 . S
C475 C474 1.516 . S
C475 C476 1.502 . S
C475 C477 1.561 . S
C475 C478 1.526 . S
C476 H460 0.959 . S
C476 H461 0.959 . S
C476 H462 0.961 . S
C476 C475 1.502 . S
C477 H463 0.960 . S
C477 H464 0.961 . S
C477 H465 0.959 . S
C477 C475 1.561 . S
C478 C475 1.526 . S
C478 C479 1.396 . S
C478 C483 1.390 . S
C479 C473 1.465 . S
C479 C478 1.396 . S
C479 C480 1.399 . S
C480 H466 0.929 . S
C480 C479 1.399 . S
C480 C481 1.385 . S
C481 H467 0.931 . S
C481 C480 1.385 . S
C481 C482 1.389 . S
C482 C481 1.389 . S
C482 C483 1.387 . S
C483 H468 0.930 . S
C483 C478 1.390 . S
C483 C482 1.387 . S
C173 C86 0.226 . S
C185 C15 0.170 . S
C200 C95 0.262 . S
C212 C6 0.135 . S
C227 C59 3.576 . S
C239 C130 3.551 . S
C254 C50 3.554 . S
C266 C139 3.576 . S
C281 C19 4.866 1_556 S
C293 C10 4.862 1_545 S
C308 C55 0.993 . S
C320 C46 0.883 . S
C335 C99 4.866 . S
C347 C90 4.866 1_554 S
C362 C126 0.962 . S
C374 C135 0.921 . S
C389 C49 1.417 . S
C401 C18 1.474 1_545 S
C416 C9 1.472 1_565 S
C428 C58 1.425 . S
C443 C129 1.474 . S
C455 C98 1.408 . S
C470 C138 1.441 . S
C482 C89 1.415 . S
