# Generated by pormake.
# Topology dft, (4)-cn, num edge types: 1
# Building blocks:
#     Node 0, Type 0, BuildingBlock: QUQFOY_clean_sbu_3, # of connection points: 4
#     Node 1, Type 0, BuildingBlock: QUQFOY_clean_sbu_3, # of connection points: 4
#     Node 2, Type 0, BuildingBlock: QUQFOY_clean_sbu_3, # of connection points: 4
#     Node 3, Type 0, BuildingBlock: QUQFOY_clean_sbu_3, # of connection points: 4
#     Node 4, Type 0, BuildingBlock: QUQFOY_clean_sbu_3, # of connection points: 4
#     Node 5, Type 0, BuildingBlock: QUQFOY_clean_sbu_3, # of connection points: 4
#     Node 6, Type 0, BuildingBlock: QUQFOY_clean_sbu_3, # of connection points: 4
#     Node 7, Type 0, BuildingBlock: QUQFOY_clean_sbu_3, # of connection points: 4
#     Edge 8, Type (0, 0), BuildingBlock: ZUJKAS_clean_linker_0, # of connection points: 2
#     Edge 9, Type (0, 0), BuildingBlock: ZUJKAS_clean_linker_0, # of connection points: 2
#     Edge 10, Type (0, 0), BuildingBlock: ZUJKAS_clean_linker_0, # of connection points: 2
#     Edge 11, Type (0, 0), BuildingBlock: ZUJKAS_clean_linker_0, # of connection points: 2
#     Edge 12, Type (0, 0), BuildingBlock: ZUJKAS_clean_linker_0, # of connection points: 2
#     Edge 13, Type (0, 0), BuildingBlock: ZUJKAS_clean_linker_0, # of connection points: 2
#     Edge 14, Type (0, 0), BuildingBlock: ZUJKAS_clean_linker_0, # of connection points: 2
#     Edge 15, Type (0, 0), BuildingBlock: ZUJKAS_clean_linker_0, # of connection points: 2
#     Edge 16, Type (0, 0), BuildingBlock: ZUJKAS_clean_linker_0, # of connection points: 2
#     Edge 17, Type (0, 0), BuildingBlock: ZUJKAS_clean_linker_0, # of connection points: 2
#     Edge 18, Type (0, 0), BuildingBlock: ZUJKAS_clean_linker_0, # of connection points: 2
#     Edge 19, Type (0, 0), BuildingBlock: ZUJKAS_clean_linker_0, # of connection points: 2
#     Edge 20, Type (0, 0), BuildingBlock: ZUJKAS_clean_linker_0, # of connection points: 2
#     Edge 21, Type (0, 0), BuildingBlock: ZUJKAS_clean_linker_0, # of connection points: 2
#     Edge 22, Type (0, 0), BuildingBlock: ZUJKAS_clean_linker_0, # of connection points: 2
#     Edge 23, Type (0, 0), BuildingBlock: ZUJKAS_clean_linker_0, # of connection points: 2
# Relax obj value: 0.179
# Max RMSD: 0.170
# Mean RMSD: 0.170
data_MOF--net-dft--node1-QUQFOY_clean_sbu_3--edge1-ZUJKAS_clean_linker_0
_symmetry_space_group_name_H-M    P1
_symmetry_Int_Tables_number       1
_symmetry_cell_setting            triclinic
loop_
_symmetry_equiv_pos_as_xyz
'x, y, z'
_cell_length_a     45.425662
_cell_length_b     45.467958
_cell_length_c     53.776068
_cell_angle_alpha  89.877575
_cell_angle_beta   90.030826
_cell_angle_gamma 90.010884
loop_
_atom_site_label
_atom_site_type_symbol
_atom_site_fract_x
_atom_site_fract_y
_atom_site_fract_z
_atom_type_partial_charge
C0 C 0.27109 0.9824 0.16961 0.0
O1 O 0.25723 -0.00601 0.15155 0.0
Cd2 Cd 0.26909 0.039 0.13148 0.0
O3 O 0.29394 -0.00536 0.17883 0.0
Cd4 Cd 0.32458 0.03908 0.16967 0.0
C5 C 0.2677 0.08626 0.18127 0.0
O6 O 0.32035 0.03101 0.12611 0.0
O7 O 0.34404 0.07053 0.13475 0.0
O8 O 0.36965 0.01225 0.17894 0.0
C9 C 0.33513 0.0526 0.11835 0.0
O10 O 0.25598 0.07786 0.16098 0.0
C11 C 0.3789 0.03019 0.19523 0.0
O12 O 0.29182 0.07507 0.18872 0.0
O13 O 0.36242 0.0519 0.20029 0.0
C14 C 0.0981 0.28309 0.67911 0.0
O15 O 0.08877 0.27381 0.65829 0.0
Cd16 Cd 0.04536 0.28997 0.63832 0.0
O17 O 0.08431 0.30321 0.69088 0.0
Cd18 Cd 0.04007 0.33491 0.68277 0.0
C19 C -0.0052 0.27571 0.68424 0.0
O20 O 0.05237 0.34213 0.63971 0.0
O21 O 0.0092 0.35753 0.64946 0.0
O22 O 0.06594 0.37585 0.70242 0.0
C23 C 0.02967 0.35634 0.6335 0.0
O24 O 0.00521 0.26864 0.6631 0.0
C25 C 0.04403 0.38441 0.71514 0.0
O26 O 0.00422 0.29831 0.69561 0.0
O27 O 0.02073 0.36912 0.71359 0.0
C28 C 0.79002 0.09674 0.17454 0.0
O29 O 0.80074 0.08953 0.15363 0.0
Cd30 Cd 0.78393 0.04957 0.12938 0.0
O31 O 0.76806 0.08291 0.1837 0.0
Cd32 Cd 0.73456 0.04232 0.16996 0.0
C33 C 0.79062 -0.00682 0.1716 0.0
O34 O 0.73222 0.05962 0.12785 0.0
O35 O 0.7139 0.01637 0.133 0.0
O36 O 0.69143 0.06823 0.18528 0.0
C37 C 0.71729 0.03866 0.11907 0.0
O38 O 0.80044 0.00561 0.15205 0.0
C39 C 0.68205 0.04729 0.19874 0.0
O40 O 0.76737 0.00255 0.18208 0.0
O41 O 0.69782 0.02428 0.19976 0.0
C42 C -0.00074 0.79332 0.68409 0.0
O43 O 0.00655 0.80608 0.66398 0.0
Cd44 Cd 0.04343 0.78857 0.63656 0.0
O45 O 0.01206 0.76968 0.69099 0.0
Cd46 Cd 0.05115 0.73643 0.67456 0.0
C47 C 0.10256 0.79078 0.67578 0.0
O48 O 0.02933 0.73781 0.63386 0.0
O49 O 0.07036 0.71448 0.63508 0.0
O50 O 0.02444 0.69811 0.69726 0.0
C51 C 0.04763 0.72161 0.6228 0.0
O52 O 0.09021 0.80147 0.65654 0.0
C53 C 0.04738 0.68432 0.70407 0.0
O54 O 0.09201 0.76807 0.68633 0.0
O55 O 0.07196 0.69513 0.69755 0.0
C56 C 0.31411 0.08864 0.77753 0.0
O57 O 0.34088 0.0861 0.7714 0.0
Cd58 Cd 0.34504 0.04124 0.79781 0.0
O59 O 0.30394 0.06922 0.79198 0.0
Cd60 Cd 0.34858 0.03491 0.80203 0.0
C61 C 0.30726 0.98671 0.78887 0.0
O62 O 0.34584 0.06029 0.84043 0.0
O63 O 0.3611 0.01572 0.84449 0.0
O64 O 0.39805 0.05703 0.7964 0.0
C65 C 0.35491 0.04016 0.85474 0.0
O66 O 0.29844 0.01299 0.78911 0.0
C67 C 0.40284 0.0473 0.77473 0.0
O68 O 0.33401 0.98273 0.79426 0.0
O69 O 0.38235 0.03238 0.76491 0.0
C70 C 0.98242 0.27727 0.31553 0.0
O71 O 0.98871 0.26618 0.33657 0.0
Cd72 Cd 0.02614 0.28494 0.36296 0.0
O73 O -0.00387 0.29985 0.30746 0.0
Cd74 Cd 0.03541 0.33382 0.32239 0.0
C75 C 0.08496 0.27807 0.32357 0.0
O76 O 0.01396 0.33636 0.36324 0.0
O77 O 0.05661 0.35664 0.36046 0.0
O78 O 0.00885 0.37138 0.29884 0.0
C79 C 0.03345 0.35233 0.37309 0.0
O80 O 0.07235 0.26913 0.34333 0.0
C81 C 0.0318 0.38444 0.2911 0.0
O82 O 0.07516 0.30039 0.31195 0.0
O83 O 0.05638 0.37344 0.29737 0.0
C84 C 0.79625 0.97192 0.81228 0.0
O85 O 0.80484 0.98016 0.83362 0.0
Cd86 Cd 0.78712 0.02253 0.85428 0.0
O87 O 0.77612 0.98595 0.80067 0.0
Cd88 Cd 0.74295 0.02862 0.80928 0.0
C89 C 0.80081 0.07578 0.81055 0.0
O90 O 0.73493 0.01499 0.85191 0.0
O91 O 0.71843 0.0579 0.84257 0.0
O92 O 0.70128 0.00363 0.79006 0.0
C93 C 0.72001 0.03712 0.85827 0.0
O94 O 0.80814 0.0643 0.83125 0.0
C95 C 0.69497 0.02441 0.77519 0.0
O96 O 0.77847 0.06646 0.7987 0.0
O97 O 0.71166 0.04679 0.77555 0.0
C98 C 0.08637 0.79035 0.29823 0.0
O99 O 0.08019 0.80371 0.31828 0.0
Cd100 Cd 0.04021 0.79177 0.34475 0.0
O101 O 0.07105 0.76842 0.29101 0.0
Cd102 Cd 0.02851 0.73914 0.30703 0.0
C103 C 0.98306 0.79852 0.30344 0.0
O104 O 0.04711 0.73981 0.34889 0.0
O105 O 0.00442 0.71994 0.34555 0.0
O106 O 0.05218 0.69609 0.28874 0.0
C107 C 0.02639 0.72588 0.35918 0.0
O108 O -0.00343 0.80902 0.32218 0.0
C109 C 0.02883 0.68595 0.27899 0.0
O110 O -0.00924 0.77402 0.29413 0.0
O111 O 0.00555 0.70103 0.28173 0.0
H112 H 0.31297 0.01917 0.08124 0.0
H113 H 0.32127 0.02393 0.03681 0.0
H114 H 0.37669 0.09947 0.04941 0.0
H115 H 0.36856 0.09476 0.09455 0.0
H116 H 0.3084 0.07506 0.00691 0.0
H117 H 0.42631 0.04115 0.00492 0.0
H118 H 0.40259 0.03273 0.03093 0.0
H119 H 0.41543 0.06962 0.02629 0.0
C120 C 0.32697 0.03686 0.07471 0.0
C121 C 0.34016 0.05661 0.09143 0.0
C122 C 0.33166 0.03952 0.04927 0.0
C123 C 0.34972 0.06188 0.03991 0.0
C124 C 0.36291 0.08187 0.0564 0.0
H125 H 0.34817 0.09191 0.87934 0.0
H126 H 0.34985 0.10023 0.92414 0.0
C127 C 0.35814 0.07926 0.08208 0.0
C128 C 0.35392 0.06395 0.01274 0.0
H129 H 0.40274 0.04829 0.96638 0.0
C130 C 0.32912 0.06968 -0.00202 0.0
C131 C 0.38091 0.0565 0.00133 0.0
C132 C 0.40791 0.04947 0.01655 0.0
C133 C 0.3303 0.06725 0.97204 0.0
C134 C 0.35718 0.05937 0.96059 0.0
C135 C 0.38223 0.0544 0.9753 0.0
C136 C 0.35914 0.05487 0.93342 0.0
C137 C 0.30242 0.07182 0.95721 0.0
C138 C 0.36484 0.02676 0.9238 0.0
C139 C 0.36407 0.02191 0.89813 0.0
C140 C 0.35756 0.04515 0.88177 0.0
C141 C 0.3529 0.07347 0.89148 0.0
C142 C 0.35382 0.0783 0.91707 0.0
H143 H 0.2825 0.07139 0.96918 0.0
H144 H 0.30334 0.09356 0.94783 0.0
H145 H 0.30008 0.05467 0.94267 0.0
H146 H 0.36904 0.00842 0.9362 0.0
H147 H 0.36789 -9e-05 0.89116 0.0
H148 H 0.07313 0.36714 0.60034 0.0
H149 H 0.06807 0.37799 0.55613 0.0
H150 H 0.97359 0.37955 0.56383 0.0
H151 H 0.9785 0.36883 0.60846 0.0
H152 H -0.00249 0.33842 0.52843 0.0
H153 H 0.04253 0.45058 0.51435 0.0
H154 H 0.06475 0.42739 0.53388 0.0
H155 H 0.02855 0.4379 0.54398 0.0
C156 C 0.05127 0.37039 0.59275 0.0
C157 C 0.02618 0.36693 0.60775 0.0
C158 C 0.04845 0.37687 0.56754 0.0
C159 C 0.0205 0.37991 0.55683 0.0
C160 C -0.00464 0.3776 0.5719 0.0
H161 H 0.98259 0.3588 0.39876 0.0
H162 H 0.97677 0.37007 0.44286 0.0
C163 C -0.00182 0.37146 0.59731 0.0
C164 C 0.01787 0.38111 0.52948 0.0
H165 H 0.0405 0.41954 0.47837 0.0
C166 C 0.00632 0.35639 0.51741 0.0
C167 C 0.02986 0.40441 0.51532 0.0
C168 C 0.04192 0.43172 0.52751 0.0
C169 C 0.00774 0.35363 0.4915 0.0
C170 C 0.02023 0.37672 0.47727 0.0
C171 C 0.03094 0.40191 0.48932 0.0
C172 C 0.02347 0.37431 0.44997 0.0
C173 C -0.0027 0.3253 0.47981 0.0
C174 C 0.05156 0.37474 0.43905 0.0
C175 C 0.05493 0.36886 0.41368 0.0
C176 C 0.03023 0.36219 0.39903 0.0
C177 C 0.00205 0.36334 0.40976 0.0
C178 C -0.00132 0.36969 0.43494 0.0
H179 H -0.00438 0.30722 0.49367 0.0
H180 H 0.97511 0.32872 0.47168 0.0
H181 H 0.01238 0.31819 0.46474 0.0
H182 H 0.07096 0.37846 0.45034 0.0
H183 H 0.07687 0.36824 0.40582 0.0
H184 H 0.71138 -0.00732 0.89106 0.0
H185 H 0.6992 -0.00347 0.93507 0.0
H186 H 0.69155 0.09069 0.92775 0.0
H187 H 0.70368 0.08701 0.88334 0.0
H188 H 0.73314 0.06965 0.96372 0.0
H189 H 0.62427 0.01625 0.97563 0.0
H190 H 0.64969 -0.00416 0.95678 0.0
H191 H 0.63667 0.03103 0.94621 0.0
C192 C 0.70654 0.01418 0.89868 0.0
C193 C 0.70871 0.0396 0.88387 0.0
C194 C 0.69929 0.01629 0.92377 0.0
C195 C 0.69414 0.04383 0.93454 0.0
C196 C 0.69515 0.06921 0.91963 0.0
H197 H 0.70627 0.08724 0.0916 0.0
H198 H 0.6959 0.08998 0.04713 0.0
C199 C 0.70211 0.06709 0.89434 0.0
C200 C 0.69211 0.04613 0.96187 0.0
H201 H 0.65386 0.02123 0.01232 0.0
C202 C 0.71555 0.05958 0.9744 0.0
C203 C 0.66937 0.03247 0.97559 0.0
C204 C 0.64341 0.01828 0.9629 0.0
C205 C 0.71754 0.05873 0.00037 0.0
C206 C 0.69494 0.04479 0.01419 0.0
C207 C 0.6711 0.03191 0.00167 0.0
C208 C 0.69637 0.04286 0.04162 0.0
C209 C 0.74456 0.07154 0.01264 0.0
C210 C 0.69821 0.01537 0.05352 0.0
C211 C 0.7036 0.01372 0.07913 0.0
C212 C 0.70749 0.03957 0.09297 0.0
C213 C 0.7039 0.06697 0.08123 0.0
C214 C 0.69804 0.06858 0.05585 0.0
H215 H 0.76304 0.07416 -0.00072 0.0
H216 H 0.7392 0.09362 0.02012 0.0
H217 H 0.75214 0.05747 0.02828 0.0
H218 H 0.69676 -0.00475 0.04283 0.0
H219 H 0.70615 -0.00766 0.0878 0.0
H220 H 0.98392 0.69943 0.38794 0.0
H221 H 0.98518 0.69193 0.43326 0.0
H222 H 0.07191 0.73023 0.43613 0.0
H223 H 0.07097 0.73778 0.39124 0.0
H224 H 0.03689 0.66246 0.46578 0.0
H225 H 0.01083 0.78064 0.48147 0.0
H226 H 0.001 0.76172 0.45314 0.0
H227 H 0.03847 0.77247 0.45851 0.0
C228 C 0.00332 0.706 0.39824 0.0
C229 C 0.02722 0.71944 0.38609 0.0
C230 C 0.00405 0.70159 0.42402 0.0
C231 C 0.02862 0.71063 0.43784 0.0
C232 C 0.05278 0.72318 0.42567 0.0
H233 H 0.08793 0.69818 0.5903 0.0
H234 H 0.08175 0.69164 0.54528 0.0
C235 C 0.05212 0.72754 0.40004 0.0
C236 C 0.02856 0.70905 0.46522 0.0
H237 H 0.02497 0.7527 0.51652 0.0
C238 C 0.03403 0.68204 0.47699 0.0
C239 C 0.02472 0.7347 0.47958 0.0
C240 C 0.01823 0.76407 0.46766 0.0
C241 C 0.03636 0.68019 0.50302 0.0
C242 C 0.03343 0.70608 0.51735 0.0
C243 C 0.02733 0.73291 0.50547 0.0
C244 C 0.03638 0.70623 0.54474 0.0
C245 C 0.04176 0.65066 0.51497 0.0
C246 C 0.01297 0.71654 0.55925 0.0
C247 C 0.01654 0.72061 0.58473 0.0
C248 C 0.04364 0.71447 0.59625 0.0
C249 C 0.0668 0.70304 0.5819 0.0
C250 C 0.06323 0.69911 0.55625 0.0
H251 H 0.03621 0.63228 0.50221 0.0
H252 H 0.06539 0.64878 0.51994 0.0
H253 H 0.02865 0.64824 0.53228 0.0
H254 H -0.00789 0.72222 0.55071 0.0
H255 H -0.00181 0.72922 0.59532 0.0
H256 H 0.39927 0.05173 0.23954 0.0
H257 H 0.45037 0.05175 0.25433 0.0
H258 H 0.47686 0.00501 0.18819 0.0
H259 H 0.42587 0.00308 0.17445 0.0
H260 H 0.50752 0.98635 0.22474 0.0
H261 H 0.50856 0.10859 0.22914 0.0
H262 H 0.48362 0.09114 0.25036 0.0
H263 H 0.47744 0.08848 0.21736 0.0
C264 C 0.41605 0.04107 0.22845 0.0
C265 C 0.40874 0.0276 0.20578 0.0
C266 C 0.44526 0.04135 0.23677 0.0
C267 C 0.46771 0.02921 0.22203 0.0
C268 C 0.46006 0.01463 0.19993 0.0
H269 H 0.63617 0.08118 0.18418 0.0
H270 H 0.58504 0.0766 0.19687 0.0
C271 C 0.43086 0.01357 0.19203 0.0
C272 C 0.49939 0.03275 0.22838 0.0
H273 H 0.55324 0.08448 0.23537 0.0
C274 C 0.51755 0.0078 0.22726 0.0
C275 C 0.51244 0.06077 0.23184 0.0
C276 C 0.4946 0.0888 0.23206 0.0
C277 C 0.54834 0.01021 0.2272 0.0
C278 C 0.56142 0.03834 0.22985 0.0
C279 C 0.54321 0.06297 0.23326 0.0
C280 C 0.59327 0.04345 0.22508 0.0
C281 C 0.56625 0.98284 0.22225 0.0
C282 C 0.61531 0.02721 0.23729 0.0
C283 C 0.64463 0.02915 0.22943 0.0
C284 C 0.65245 0.04824 0.20993 0.0
C285 C 0.6308 0.06629 0.19927 0.0
C286 C 0.6015 0.0637 0.20657 0.0
H287 H 0.55244 0.96448 0.21521 0.0
H288 H 0.5838 0.98725 0.20839 0.0
H289 H 0.57672 0.97538 0.2398 0.0
H290 H 0.60975 0.01228 0.25227 0.0
H291 H 0.66103 0.01526 0.23817 0.0
H292 H 0.09004 0.42261 0.71994 0.0
H293 H 0.08729 0.47393 0.73285 0.0
H294 H -0.00401 0.46236 0.75254 0.0
H295 H -0.00153 0.41096 0.73947 0.0
H296 H 0.0056 0.50395 0.71614 0.0
H297 H 0.08017 0.52425 0.7956 0.0
H298 H 0.09715 0.503 0.77146 0.0
H299 H 0.06621 0.48809 0.78813 0.0
C300 C 0.06963 0.4307 0.72776 0.0
C301 C 0.04437 0.41286 0.72836 0.0
C302 C 0.06816 0.46001 0.73535 0.0
C303 C 0.04148 0.4719 0.7438 0.0
C304 C 0.01683 0.45352 0.74622 0.0
H305 H -0.00089 0.6593 0.72597 0.0
H306 H -0.00511 0.60907 0.74213 0.0
C307 C 0.01829 0.42418 0.73869 0.0
C308 C 0.03805 0.5042 0.7453 0.0
H309 H 0.06926 0.56618 0.76939 0.0
C310 C 0.01895 0.51762 0.72821 0.0
C311 C 0.0557 0.52187 0.76092 0.0
C312 C 0.07577 0.50856 0.78023 0.0
C313 C 0.01847 0.54819 0.72504 0.0
C314 C 0.03702 0.56592 0.73998 0.0
C315 C 0.05502 0.55257 0.75801 0.0
C316 C 0.04041 0.59779 0.73502 0.0
C317 C -0.00035 0.56095 0.7045 0.0
C318 C 0.0678 0.60864 0.72721 0.0
C319 C 0.0704 0.63742 0.71841 0.0
C320 C 0.04555 0.65575 0.71707 0.0
C321 C 0.01854 0.6455 0.72644 0.0
C322 C 0.01607 0.61681 0.73559 0.0
H323 H -0.00829 0.54379 0.69143 0.0
H324 H 0.98008 0.57177 0.71275 0.0
H325 H 0.01207 0.57768 0.69369 0.0
H326 H 0.0869 0.59437 0.7267 0.0
H327 H 0.09154 0.64475 0.71145 0.0
H328 H 0.64792 0.98828 0.78125 0.0
H329 H 0.59926 -0.00582 0.76334 0.0
H330 H 0.63112 0.0653 0.7173 0.0
H331 H 0.67982 0.06049 0.73642 0.0
H332 H 0.58619 0.08323 0.73923 0.0
H333 H 0.55423 0.97544 0.70343 0.0
H334 H 0.56735 0.96933 0.73435 0.0
H335 H 0.59208 0.98367 0.71093 0.0
C336 C 0.64482 0.00466 0.76683 0.0
C337 C 0.6676 0.02408 0.76039 0.0
C338 C 0.61694 0.00782 0.75631 0.0
C339 C 0.61142 0.0299 0.73857 0.0
C340 C 0.63477 0.04804 0.73087 0.0
H341 H 0.41914 0.03137 0.72751 0.0
H342 H 0.4689 0.03265 0.70983 0.0
C343 C 0.66259 0.04527 0.7418 0.0
C344 C 0.58052 0.03692 0.73166 0.0
H345 H 0.51396 0.0034 0.72459 0.0
C346 C 0.57054 0.06587 0.7352 0.0
C347 C 0.55987 0.0148 0.72544 0.0
C348 C 0.56914 0.9842 0.71803 0.0
C349 C 0.54041 0.07243 0.73571 0.0
C350 C 0.51977 0.04927 0.73366 0.0
C351 C 0.5297 0.0211 0.72702 0.0
C352 C 0.4889 0.05262 0.74223 0.0
C353 C 0.53113 0.10395 0.73954 0.0
C354 C 0.4835 0.06366 0.76617 0.0
C355 C 0.45521 0.06328 0.77611 0.0
C356 C 0.43172 0.05121 0.76259 0.0
C357 C 0.43685 0.04083 0.73835 0.0
C358 C 0.46525 0.04154 0.72824 0.0
H359 H 0.54641 0.11914 0.72974 0.0
H360 H 0.50841 0.10802 0.73273 0.0
H361 H 0.53222 0.10931 0.75964 0.0
H362 H 0.50142 0.07133 0.77775 0.0
H363 H 0.45206 0.07123 0.7949 0.0
H364 H 0.07632 0.42316 0.28191 0.0
H365 H 0.0716 0.47373 0.26708 0.0
H366 H 0.97879 0.46022 0.25453 0.0
H367 H 0.98313 0.40981 0.2702 0.0
H368 H 0.05143 0.50335 0.22522 0.0
H369 H 0.9796 0.52382 0.30726 0.0
H370 H -0.00028 0.49001 0.30338 0.0
H371 H 0.96643 0.49637 0.28607 0.0
C372 C 0.05499 0.43076 0.27558 0.0
C373 C 0.02997 0.41275 0.27769 0.0
C374 C 0.05235 0.45965 0.26703 0.0
C375 C 0.02472 0.4709 0.26027 0.0
C376 C 0.00018 0.45214 0.26024 0.0
H377 H 0.98135 0.65752 0.25917 0.0
H378 H 0.97849 0.60575 0.24722 0.0
C379 C 0.00271 0.42335 0.26912 0.0
C380 C 0.02131 0.50292 0.25615 0.0
H381 H -0.00843 0.56427 0.2825 0.0
C382 C 0.03804 0.51669 0.2375 0.0
C383 C 0.0039 0.52027 0.2723 0.0
C384 C 0.98657 0.507 0.29352 0.0
C385 C 0.03841 0.54745 0.235 0.0
C386 C 0.02181 0.56473 0.25171 0.0
C387 C 0.0041 0.5509 0.26959 0.0
C388 C 0.02479 0.59709 0.25316 0.0
C389 C 0.05691 0.5612 0.21482 0.0
C390 C 0.05193 0.60953 0.25982 0.0
C391 C 0.05363 0.63907 0.26674 0.0
C392 C 0.02815 0.65658 0.26729 0.0
C393 C 0.00135 0.64456 0.25905 0.0
C394 C -0.00032 0.61501 0.25214 0.0
H395 H 0.06028 0.54577 0.19909 0.0
H396 H 0.04665 0.5817 0.20764 0.0
H397 H 0.07887 0.5668 0.22253 0.0
H398 H 0.07146 0.59597 0.26127 0.0
H399 H 0.0746 0.6477 0.27297 0.0
H400 H 0.10992 0.22739 0.34155 0.0
H401 H 0.14656 0.1964 0.321 0.0
H402 H 0.15159 0.25839 0.26035 0.0
H403 H 0.11545 0.28969 0.28083 0.0
H404 H 0.13843 0.17063 0.27577 0.0
H405 H 0.23799 0.24086 0.27323 0.0
H406 H 0.20712 0.24847 0.29336 0.0
H407 H 0.20599 0.25908 0.26112 0.0
C408 C 0.11923 0.23474 0.32407 0.0
C409 C 0.10965 0.26101 0.31282 0.0
C410 C 0.14015 0.21697 0.31235 0.0
C411 C 0.15203 0.22523 0.28927 0.0
C412 C 0.14321 0.25187 0.27839 0.0
H413 H 0.21543 0.11408 0.17181 0.0
H414 H 0.18873 0.14783 0.19895 0.0
C415 C 0.12235 0.26966 0.29008 0.0
C416 C 0.17134 0.20475 0.27541 0.0
H417 H 0.23732 0.19975 0.24528 0.0
C418 C 0.16019 0.17688 0.26934 0.0
C419 C 0.19982 0.21283 0.26722 0.0
C420 C 0.21358 0.24183 0.27427 0.0
C421 C 0.17632 0.15725 0.25461 0.0
C422 C 0.20413 0.16593 0.24534 0.0
C423 C 0.21579 0.19335 0.25213 0.0
C424 C 0.22121 0.14684 0.22838 0.0
C425 C 0.16345 0.12735 0.24911 0.0
C426 C 0.24881 0.13595 0.23558 0.0
C427 C 0.26424 0.11674 0.22006 0.0
C428 C 0.25238 0.10821 0.19697 0.0
C429 C 0.22513 0.11999 0.18951 0.0
C430 C 0.20975 0.13918 0.20504 0.0
H431 H 0.14611 0.12124 0.26275 0.0
H432 H 0.15327 0.12768 0.23035 0.0
H433 H 0.18078 0.11013 0.24931 0.0
H434 H 0.25809 0.14178 0.25347 0.0
H435 H 0.28522 0.10819 0.22636 0.0
H436 H 0.98432 0.21738 0.67623 0.0
H437 H 0.94938 0.18571 0.69809 0.0
H438 H 0.91894 0.26014 0.74061 0.0
H439 H 0.95494 0.29157 0.71968 0.0
H440 H 0.9262 0.21597 0.77003 0.0
H441 H 0.86348 0.17597 0.68881 0.0
H442 H 0.90185 0.1677 0.68568 0.0
H443 H 0.88983 0.20549 0.68641 0.0
C444 C 0.96996 0.22703 0.69005 0.0
C445 C 0.97227 0.25697 0.69618 0.0
C446 C 0.94983 0.20894 0.70244 0.0
C447 C 0.93102 0.22061 0.72066 0.0
C448 C 0.93312 0.25061 0.72658 0.0
H449 H 0.78364 0.1176 0.77718 0.0
H450 H 0.81427 0.15491 0.75709 0.0
C451 C 0.95366 0.26857 0.71458 0.0
C452 C 0.91019 0.20131 0.73441 0.0
H453 H 0.85732 0.1488 0.72667 0.0
C454 C 0.9109 0.20152 0.76053 0.0
C455 C 0.88982 0.18279 0.7221 0.0
C456 C 0.88595 0.1832 0.69422 0.0
C457 C 0.89233 0.18333 0.77465 0.0
C458 C 0.8733 0.16346 0.76231 0.0
C459 C 0.87214 0.16372 0.7362 0.0
C460 C 0.85444 0.14214 0.77596 0.0
C461 C 0.89296 0.18612 0.80261 0.0
C462 C 0.8667 0.12258 0.79339 0.0
C463 C 0.84906 0.10168 0.80533 0.0
C464 C 0.819 0.09936 0.7995 0.0
C465 C 0.80676 0.11885 0.78202 0.0
C466 C 0.82426 0.14015 0.7705 0.0
H467 H 0.9004 0.20836 0.8084 0.0
H468 H 0.87097 0.18192 0.81087 0.0
H469 H 0.9088 0.16994 0.81036 0.0
H470 H 0.89006 0.12296 0.79737 0.0
H471 H 0.85917 0.08666 0.81846 0.0
H472 H 0.9718 0.85724 0.30816 0.0
H473 H 0.93517 0.88628 0.28577 0.0
H474 H 0.90348 0.80779 0.24958 0.0
H475 H 0.94097 0.77876 0.27117 0.0
H476 H 0.90984 0.84961 0.21691 0.0
H477 H 0.84918 0.896 0.29666 0.0
H478 H 0.88762 0.90447 0.29878 0.0
H479 H 0.87562 0.86671 0.30028 0.0
C480 C 0.95679 0.84608 0.29568 0.0
C481 C 0.95923 0.81568 0.2915 0.0
C482 C 0.93569 0.86271 0.283 0.0
C483 C 0.91612 0.84918 0.26634 0.0
C484 C 0.91823 0.81872 0.26242 0.0
H485 H 0.77077 0.95282 0.2054 0.0
H486 H 0.79934 0.91477 0.2267 0.0
C487 C 0.93964 0.80215 0.2748 0.0
C488 C 0.89472 0.86708 0.25188 0.0
H489 H 0.8428 0.92087 0.25751 0.0
C490 C 0.8949 0.86492 0.22583 0.0
C491 C 0.87478 0.88667 0.26344 0.0
C492 C 0.87154 0.88836 0.29134 0.0
C493 C 0.87649 0.88251 0.21101 0.0
C494 C 0.85812 0.90362 0.22252 0.0
C495 C 0.85716 0.90502 0.24861 0.0
C496 C 0.84029 0.92501 0.208 0.0
C497 C 0.8768 0.878 0.18322 0.0
C498 C 0.8537 0.94336 0.19026 0.0
C499 C 0.83729 0.96476 0.17773 0.0
C500 C 0.80729 0.96876 0.18315 0.0
C501 C 0.79385 0.9503 0.20082 0.0
C502 C 0.81017 0.92857 0.21304 0.0
H503 H 0.88335 0.85517 0.1784 0.0
H504 H 0.85491 0.88253 0.17485 0.0
H505 H 0.89317 0.89309 0.17473 0.0
H506 H 0.87706 0.94174 0.18657 0.0
H507 H 0.84838 0.97889 0.16447 0.0
H508 H 0.12953 0.84127 0.65977 0.0
H509 H 0.16835 0.86888 0.68078 0.0
H510 H 0.1722 0.80286 0.73837 0.0
H511 H 0.13313 0.77519 0.71767 0.0
H512 H 0.16666 0.85922 0.7567 0.0
H513 H 0.25671 0.85391 0.68741 0.0
H514 H 0.22248 0.86635 0.67443 0.0
H515 H 0.22531 0.82955 0.68655 0.0
C516 C 0.1389 0.83235 0.6767 0.0
C517 C 0.12814 0.80601 0.68704 0.0
C518 C 0.16123 0.84811 0.68862 0.0
C519 C 0.17338 0.83774 0.71098 0.0
C520 C 0.16319 0.81115 0.72106 0.0
H521 H 0.32169 0.92886 0.78162 0.0
H522 H 0.28989 0.88985 0.76519 0.0
C523 C 0.14087 0.79537 0.70917 0.0
C524 C 0.19507 0.8558 0.72476 0.0
H525 H 0.2612 0.89079 0.71898 0.0
C526 C 0.18751 0.86584 0.74859 0.0
C527 C 0.2224 0.86408 0.71429 0.0
C528 C 0.23239 0.85269 0.68936 0.0
C529 C 0.20599 0.88498 0.76179 0.0
C530 C 0.23252 0.89461 0.7507 0.0
C531 C 0.24071 0.88356 0.72735 0.0
C532 C 0.25123 0.91744 0.76234 0.0
C533 C 0.19685 0.8949 0.7874 0.0
C534 C 0.23997 0.94578 0.76621 0.0
C535 C 0.258 0.96803 0.77555 0.0
C536 C 0.28772 0.96239 0.78109 0.0
C537 C 0.29885 0.93384 0.77763 0.0
C538 C 0.28077 0.91157 0.76819 0.0
H539 H 0.1811 0.87923 0.79604 0.0
H540 H 0.21623 0.8973 0.79983 0.0
H541 H 0.18579 0.9166 0.78595 0.0
H542 H 0.21739 0.95092 0.76136 0.0
H543 H 0.24879 0.98982 0.77789 0.0
H544 H 0.79897 0.95801 0.76287 0.0
H545 H 0.8285 0.91917 0.7438 0.0
H546 H 0.85516 0.889 0.81654 0.0
H547 H 0.82656 0.92832 0.83565 0.0
H548 H 0.90115 0.89841 0.78796 0.0
H549 H 0.82082 0.8319 0.7351 0.0
H550 H 0.81809 0.87018 0.72737 0.0
H551 H 0.80967 0.85806 0.75848 0.0
C552 C 0.81068 0.94274 0.77478 0.0
C553 C 0.8107 0.94633 0.80071 0.0
C554 C 0.82736 0.92039 0.76388 0.0
C555 C 0.84375 0.90094 0.77877 0.0
C556 C 0.84264 0.90372 0.80472 0.0
H557 H 0.98167 0.77711 0.731 0.0
H558 H 0.94235 0.7994 0.75595 0.0
C559 C 0.82635 0.92625 0.81559 0.0
C560 C 0.8648 0.88015 0.76732 0.0
H561 H 0.87173 0.82777 0.72233 0.0
C562 C 0.89461 0.88252 0.77399 0.0
C563 C 0.85623 0.85942 0.74912 0.0
C564 C 0.8244 0.85451 0.74229 0.0
C565 C 0.91625 0.86578 0.76209 0.0
C566 C 0.90782 0.84617 0.74308 0.0
C567 C 0.87799 0.84294 0.73695 0.0
C568 C 0.93005 0.83113 0.72779 0.0
C569 C 0.94816 0.87012 0.769 0.0
C570 C 0.93575 0.84157 0.70378 0.0
C571 C 0.9582 0.82918 0.68963 0.0
C572 C 0.97525 0.80593 0.69921 0.0
C573 C 0.96901 0.79505 0.72314 0.0
C574 C 0.94658 0.80766 0.73739 0.0
H575 H 0.95121 0.88805 0.78277 0.0
H576 H 0.95702 0.84945 0.77707 0.0
H577 H 0.96131 0.87534 0.75216 0.0
H578 H 0.9232 0.85976 0.69618 0.0
H579 H 0.96225 0.83795 0.67121 0.0
H580 H 0.2768 0.96181 0.21719 0.0
H581 H 0.2522 0.91889 0.23524 0.0
H582 H 0.21662 0.89685 0.1632 0.0
H583 H 0.24006 0.94031 0.14537 0.0
H584 H 0.17484 0.90036 0.19595 0.0
H585 H 0.26318 0.83164 0.23622 0.0
H586 H 0.26554 0.8688 0.24709 0.0
H587 H 0.27068 0.86107 0.21452 0.0
C588 C 0.2642 0.94744 0.20517 0.0
C589 C 0.26001 0.95451 0.17999 0.0
C590 C 0.25038 0.92276 0.21543 0.0
C591 C 0.23283 0.90442 0.20051 0.0
C592 C 0.23007 0.91065 0.17506 0.0
H593 H 0.10003 0.77598 0.25005 0.0
H594 H 0.13842 0.79826 0.224 0.0
C595 C 0.24337 0.93555 0.16493 0.0
C596 C 0.21407 0.88143 0.21193 0.0
H597 H 0.21421 0.82422 0.25316 0.0
C598 C 0.18355 0.88327 0.20799 0.0
C599 C 0.22542 0.85917 0.22766 0.0
C600 C 0.25804 0.85486 0.2314 0.0
C601 C 0.16399 0.8645 0.22032 0.0
C602 C 0.17525 0.84326 0.23697 0.0
C603 C 0.20576 0.84058 0.24029 0.0
C604 C 0.15532 0.82628 0.25316 0.0
C605 C 0.13129 0.86854 0.21653 0.0
C606 C 0.15284 0.83421 0.2782 0.0
C607 C 0.13094 0.82181 0.293 0.0
C608 C 0.11122 0.8011 0.28302 0.0
C609 C 0.11479 0.79199 0.25822 0.0
C610 C 0.13668 0.80462 0.24334 0.0
H611 H 0.12613 0.88818 0.205 0.0
H612 H 0.12213 0.84887 0.20711 0.0
H613 H 0.12001 0.87078 0.23474 0.0
H614 H 0.16704 0.85098 0.28601 0.0
H615 H 0.12902 0.82905 0.3121 0.0
H616 H 0.13903 0.25063 0.65463 0.0
H617 H 0.18001 0.22317 0.67244 0.0
H618 H 0.15891 0.25676 0.7452 0.0
H619 H 0.11774 0.28486 0.72742 0.0
H620 H 0.22273 0.25228 0.73256 0.0
H621 H 0.1583 0.1502 0.71606 0.0
H622 H 0.16279 0.17338 0.68923 0.0
H623 H 0.14182 0.18631 0.71533 0.0
C624 C 0.14321 0.25249 0.6744 0.0
C625 C 0.12484 0.2695 0.68972 0.0
C626 C 0.1667 0.23684 0.68449 0.0
C627 C 0.17209 0.23766 0.71011 0.0
C628 C 0.15494 0.25588 0.72535 0.0
H629 H 0.25871 0.10141 0.7928 0.0
H630 H 0.22633 0.14014 0.77762 0.0
C631 C 0.13144 0.27181 0.71519 0.0
C632 C 0.19384 0.21732 0.72106 0.0
H633 H 0.20752 0.14427 0.7293 0.0
C634 C 0.21948 0.22866 0.73198 0.0
C635 C 0.18923 0.18659 0.7204 0.0
C636 C 0.16145 0.17331 0.70983 0.0
C637 C 0.24098 0.20983 0.74203 0.0
C638 C 0.23664 0.17907 0.74078 0.0
C639 C 0.21084 0.16788 0.73005 0.0
C640 C 0.2578 0.15777 0.75135 0.0
C641 C 0.26783 0.22292 0.75425 0.0
C642 C 0.28636 0.15497 0.74166 0.0
C643 C 0.30509 0.13277 0.75037 0.0
C644 C 0.2953 0.11294 0.76869 0.0
C645 C 0.26685 0.1162 0.77856 0.0
C646 C 0.24833 0.13838 0.76998 0.0
H647 H 0.26472 0.2466 0.75859 0.0
H648 H 0.27326 0.21098 0.77169 0.0
H649 H 0.2869 0.2209 0.74148 0.0
H650 H 0.29385 0.16939 0.72691 0.0
H651 H 0.3269 0.13073 0.74244 0.0
H652 H 0.94406 0.23423 0.32969 0.0
H653 H 0.90695 0.20981 0.30417 0.0
H654 H 0.93039 0.26464 0.24176 0.0
H655 H 0.96769 0.28942 0.26715 0.0
H656 H 0.85742 0.23744 0.27314 0.0
H657 H 0.94298 0.1746 0.22131 0.0
H658 H 0.95014 0.19071 0.25138 0.0
H659 H 0.94779 0.21374 0.22434 0.0
C660 C 0.94128 0.24126 0.31057 0.0
C661 C 0.95902 0.2636 0.30036 0.0
C662 C 0.91995 0.22739 0.29611 0.0
C663 C 0.91614 0.23544 0.27118 0.0
C664 C 0.93319 0.25817 0.26101 0.0
H665 H 0.82435 0.14033 0.1557 0.0
H666 H 0.85157 0.17768 0.17865 0.0
C667 C 0.95446 0.27224 0.27553 0.0
C668 C 0.89554 0.21865 0.25553 0.0
H669 H 0.89366 0.16527 0.21126 0.0
C670 C 0.86519 0.22179 0.25944 0.0
C671 C 0.90598 0.19834 0.2378 0.0
C672 C 0.93849 0.19386 0.23341 0.0
C673 C 0.84481 0.20499 0.24592 0.0
C674 C 0.85528 0.18409 0.22859 0.0
C675 C 0.88569 0.18135 0.22452 0.0
C676 C 0.83542 0.16418 0.21476 0.0
C677 C 0.81237 0.20998 0.25014 0.0
C678 C 0.81686 0.14451 0.22744 0.0
C679 C 0.80096 0.12326 0.21431 0.0
C680 C 0.80391 0.12103 0.18838 0.0
C681 C 0.82184 0.14133 0.17572 0.0
C682 C 0.83735 0.16273 0.18878 0.0
H683 H 0.80806 0.23228 0.25772 0.0
H684 H 0.79967 0.2073 0.23264 0.0
H685 H 0.80416 0.19368 0.26386 0.0
H686 H 0.81558 0.14477 0.24754 0.0
H687 H 0.78743 0.10779 0.22454 0.0
loop_
_geom_bond_atom_site_label_1
_geom_bond_atom_site_label_2
_geom_bond_distance
_geom_bond_site_symmetry_2
_ccdc_geom_bond_type
C0 O1 1.306 . S
C0 O3 1.160 1_565 S
O1 C0 1.306 . S
O1 Cd2 2.228 1_565 S
Cd2 O1 2.228 1_545 S
Cd2 O6 2.273 . S
Cd2 O10 2.277 . S
O3 C0 1.160 1_545 S
O3 Cd4 2.203 . S
Cd4 O3 2.203 . S
Cd4 O6 2.411 . S
Cd4 O7 2.333 . S
Cd4 O8 2.352 . S
Cd4 O12 2.277 . S
Cd4 O13 2.356 . S
C5 O10 1.209 . S
C5 O12 1.226 . S
O6 Cd2 2.273 . S
O6 Cd4 2.411 . S
O6 C9 1.320 . S
O7 Cd4 2.333 . S
O7 C9 1.214 . S
O8 Cd4 2.352 . S
O8 C11 1.258 . S
C9 O6 1.320 . S
C9 O7 1.214 . S
O10 Cd2 2.277 . S
O10 C5 1.209 . S
C11 O8 1.258 . S
C11 O13 1.282 . S
O12 Cd4 2.277 . S
O12 C5 1.226 . S
O13 Cd4 2.356 . S
O13 C11 1.282 . S
C14 O15 1.306 . S
C14 O17 1.160 . S
O15 C14 1.306 . S
O15 Cd16 2.228 . S
Cd16 O15 2.228 . S
Cd16 O20 2.273 . S
Cd16 O24 2.277 . S
O17 C14 1.160 . S
O17 Cd18 2.203 . S
Cd18 O17 2.203 . S
Cd18 O20 2.411 . S
Cd18 O21 2.333 . S
Cd18 O22 2.352 . S
Cd18 O26 2.277 . S
Cd18 O27 2.356 . S
C19 O24 1.209 . S
C19 O26 1.226 . S
O20 Cd16 2.273 . S
O20 Cd18 2.411 . S
O20 C23 1.320 . S
O21 Cd18 2.333 . S
O21 C23 1.214 . S
O22 Cd18 2.352 . S
O22 C25 1.258 . S
C23 O20 1.320 . S
C23 O21 1.214 . S
O24 Cd16 2.277 . S
O24 C19 1.209 . S
C25 O22 1.258 . S
C25 O27 1.282 . S
O26 Cd18 2.277 . S
O26 C19 1.226 . S
O27 Cd18 2.356 . S
O27 C25 1.282 . S
C28 O29 1.306 . S
C28 O31 1.160 . S
O29 C28 1.306 . S
O29 Cd30 2.228 . S
Cd30 O29 2.228 . S
Cd30 O34 2.273 . S
Cd30 O38 2.277 . S
O31 C28 1.160 . S
O31 Cd32 2.203 . S
Cd32 O31 2.203 . S
Cd32 O34 2.411 . S
Cd32 O35 2.333 . S
Cd32 O36 2.352 . S
Cd32 O40 2.277 . S
Cd32 O41 2.356 . S
C33 O38 1.209 . S
C33 O40 1.226 . S
O34 Cd30 2.273 . S
O34 Cd32 2.411 . S
O34 C37 1.320 . S
O35 Cd32 2.333 . S
O35 C37 1.214 . S
O36 Cd32 2.352 . S
O36 C39 1.258 . S
C37 O34 1.320 . S
C37 O35 1.214 . S
O38 Cd30 2.277 . S
O38 C33 1.209 . S
C39 O36 1.258 . S
C39 O41 1.282 . S
O40 Cd32 2.277 . S
O40 C33 1.226 . S
O41 Cd32 2.356 . S
O41 C39 1.282 . S
C42 O43 1.306 . S
C42 O45 1.160 1_655 S
O43 C42 1.306 . S
O43 Cd44 2.228 1_655 S
Cd44 O43 2.228 1_455 S
Cd44 O48 2.273 . S
Cd44 O52 2.277 . S
O45 C42 1.160 1_455 S
O45 Cd46 2.203 . S
Cd46 O45 2.203 . S
Cd46 O48 2.411 . S
Cd46 O49 2.333 . S
Cd46 O50 2.352 . S
Cd46 O54 2.277 . S
Cd46 O55 2.356 . S
C47 O52 1.209 . S
C47 O54 1.226 . S
O48 Cd44 2.273 . S
O48 Cd46 2.411 . S
O48 C51 1.320 . S
O49 Cd46 2.333 . S
O49 C51 1.214 . S
O50 Cd46 2.352 . S
O50 C53 1.258 . S
C51 O48 1.320 . S
C51 O49 1.214 . S
O52 Cd44 2.277 . S
O52 C47 1.209 . S
C53 O50 1.258 . S
C53 O55 1.282 . S
O54 Cd46 2.277 . S
O54 C47 1.226 . S
O55 Cd46 2.356 . S
O55 C53 1.282 . S
C56 O57 1.306 . S
C56 O59 1.160 . S
O57 C56 1.306 . S
O57 Cd58 2.228 . S
Cd58 O57 2.228 . S
Cd58 O62 2.273 . S
Cd58 O66 2.277 . S
O59 C56 1.160 . S
O59 Cd60 2.203 . S
Cd60 O59 2.203 . S
Cd60 O62 2.411 . S
Cd60 O63 2.333 . S
Cd60 O64 2.352 . S
Cd60 O68 2.277 . S
Cd60 O69 2.356 . S
C61 O66 1.209 . S
C61 O68 1.226 . S
O62 Cd58 2.273 . S
O62 Cd60 2.411 . S
O62 C65 1.320 . S
O63 Cd60 2.333 . S
O63 C65 1.214 . S
O64 Cd60 2.352 . S
O64 C67 1.258 . S
C65 O62 1.320 . S
C65 O63 1.214 . S
O66 Cd58 2.277 . S
O66 C61 1.209 . S
C67 O64 1.258 . S
C67 O69 1.282 . S
O68 Cd60 2.277 . S
O68 C61 1.226 . S
O69 Cd60 2.356 . S
O69 C67 1.282 . S
C70 O71 1.306 . S
C70 O73 1.160 1_655 S
O71 C70 1.306 . S
O71 Cd72 2.228 1_655 S
Cd72 O71 2.228 1_455 S
Cd72 O76 2.273 . S
Cd72 O80 2.277 . S
O73 C70 1.160 1_455 S
O73 Cd74 2.203 . S
Cd74 O73 2.203 . S
Cd74 O76 2.411 . S
Cd74 O77 2.333 . S
Cd74 O78 2.352 . S
Cd74 O82 2.277 . S
Cd74 O83 2.356 . S
C75 O80 1.209 . S
C75 O82 1.226 . S
O76 Cd72 2.273 . S
O76 Cd74 2.411 . S
O76 C79 1.320 . S
O77 Cd74 2.333 . S
O77 C79 1.214 . S
O78 Cd74 2.352 . S
O78 C81 1.258 . S
C79 O76 1.320 . S
C79 O77 1.214 . S
O80 Cd72 2.277 . S
O80 C75 1.209 . S
C81 O78 1.258 . S
C81 O83 1.282 . S
O82 Cd74 2.277 . S
O82 C75 1.226 . S
O83 Cd74 2.356 . S
O83 C81 1.282 . S
C84 O85 1.306 . S
C84 O87 1.160 1_565 S
O85 C84 1.306 . S
O85 Cd86 2.228 1_565 S
Cd86 O85 2.228 1_545 S
Cd86 O90 2.273 . S
Cd86 O94 2.277 . S
O87 C84 1.160 1_545 S
O87 Cd88 2.203 . S
Cd88 O87 2.203 . S
Cd88 O90 2.411 . S
Cd88 O91 2.333 . S
Cd88 O92 2.352 . S
Cd88 O96 2.277 . S
Cd88 O97 2.356 . S
C89 O94 1.209 . S
C89 O96 1.226 . S
O90 Cd86 2.273 . S
O90 Cd88 2.411 . S
O90 C93 1.320 . S
O91 Cd88 2.333 . S
O91 C93 1.214 . S
O92 Cd88 2.352 . S
O92 C95 1.258 . S
C93 O90 1.320 . S
C93 O91 1.214 . S
O94 Cd86 2.277 . S
O94 C89 1.209 . S
C95 O92 1.258 . S
C95 O97 1.282 . S
O96 Cd88 2.277 . S
O96 C89 1.226 . S
O97 Cd88 2.356 . S
O97 C95 1.282 . S
C98 O99 1.306 . S
C98 O101 1.160 . S
O99 C98 1.306 . S
O99 Cd100 2.228 . S
Cd100 O99 2.228 . S
Cd100 O104 2.273 . S
Cd100 O108 2.277 . S
O101 C98 1.160 . S
O101 Cd102 2.203 . S
Cd102 O101 2.203 . S
Cd102 O104 2.411 . S
Cd102 O105 2.333 . S
Cd102 O106 2.352 . S
Cd102 O110 2.277 . S
Cd102 O111 2.356 . S
C103 O108 1.209 . S
C103 O110 1.226 . S
O104 Cd100 2.273 . S
O104 Cd102 2.411 . S
O104 C107 1.320 . S
O105 Cd102 2.333 . S
O105 C107 1.214 . S
O106 Cd102 2.352 . S
O106 C109 1.258 . S
C107 O104 1.320 . S
C107 O105 1.214 . S
O108 Cd100 2.277 . S
O108 C103 1.209 . S
C109 O106 1.258 . S
C109 O111 1.282 . S
O110 Cd102 2.277 . S
O110 C103 1.226 . S
O111 Cd102 2.356 . S
O111 C109 1.282 . S
H112 C120 0.929 . S
H113 C122 0.930 . S
H114 C124 0.930 . S
H115 C127 0.929 . S
H116 C130 0.930 . S
H117 C132 0.960 . S
H118 C132 0.960 . S
H119 C132 0.960 . S
C120 H112 0.929 . S
C120 C121 1.377 . S
C120 C122 1.384 . S
C121 C120 1.377 . S
C121 C127 1.390 . S
C122 H113 0.930 . S
C122 C120 1.384 . S
C122 C123 1.372 . S
C123 C122 1.372 . S
C123 C124 1.400 . S
C123 C128 1.490 . S
C124 H114 0.930 . S
C124 C123 1.400 . S
C124 C127 1.386 . S
H125 C141 0.930 . S
H126 C142 0.931 . S
C127 H115 0.929 . S
C127 C121 1.390 . S
C127 C124 1.386 . S
C128 C123 1.490 . S
C128 C130 1.395 . S
C128 C131 1.403 . S
H129 C135 0.930 . S
C130 H116 0.930 . S
C130 C128 1.395 . S
C130 C133 1.403 1_554 S
C131 C128 1.403 . S
C131 C132 1.524 1_545 S
C131 C135 1.400 1_554 S
C132 H117 0.960 . S
C132 H118 0.960 . S
C132 H119 0.960 . S
C132 C131 1.524 1_565 S
C133 C130 1.403 1_556 S
C133 C134 1.392 . S
C133 C137 1.495 . S
C134 C133 1.392 . S
C134 C135 1.385 . S
C134 C136 1.478 . S
C135 H129 0.930 . S
C135 C131 1.400 1_556 S
C135 C134 1.385 . S
C136 C134 1.478 . S
C136 C138 1.381 . S
C136 C142 1.383 . S
C137 C133 1.495 . S
C137 H143 0.959 . S
C137 H144 0.961 . S
C137 H145 0.960 . S
C138 C136 1.381 . S
C138 C139 1.394 . S
C138 H146 0.930 . S
C139 C138 1.394 . S
C139 C140 1.383 . S
C139 H147 0.929 . S
C140 C139 1.383 . S
C140 C141 1.377 . S
C141 H125 0.930 . S
C141 C140 1.377 . S
C141 C142 1.379 . S
C142 H126 0.931 . S
C142 C136 1.383 . S
C142 C141 1.379 . S
H143 C137 0.959 . S
H144 C137 0.961 . S
H145 C137 0.960 . S
H146 C138 0.930 . S
H147 C139 0.929 . S
H148 C156 0.929 . S
H149 C158 0.930 . S
H150 C160 0.930 . S
H151 C163 0.929 . S
H152 C166 0.930 . S
H153 C168 0.960 . S
H154 C168 0.960 . S
H155 C168 0.960 . S
C156 H148 0.929 . S
C156 C157 1.377 . S
C156 C158 1.384 . S
C157 C156 1.377 . S
C157 C163 1.390 . S
C158 H149 0.930 . S
C158 C156 1.384 . S
C158 C159 1.372 . S
C159 C158 1.372 . S
C159 C160 1.400 . S
C159 C164 1.490 . S
C160 H150 0.930 . S
C160 C159 1.400 . S
C160 C163 1.386 . S
H161 C177 0.930 . S
H162 C178 0.931 . S
C163 H151 0.929 . S
C163 C157 1.390 . S
C163 C160 1.386 . S
C164 C159 1.490 . S
C164 C166 1.395 . S
C164 C167 1.403 . S
H165 C171 0.930 . S
C166 H152 0.930 . S
C166 C164 1.395 . S
C166 C169 1.403 . S
C167 C164 1.403 . S
C167 C168 1.524 . S
C167 C171 1.400 . S
C168 H153 0.960 . S
C168 H154 0.960 . S
C168 H155 0.960 . S
C168 C167 1.524 . S
C169 C166 1.403 . S
C169 C170 1.392 . S
C169 C173 1.495 . S
C170 C169 1.392 . S
C170 C171 1.385 . S
C170 C172 1.478 . S
C171 H165 0.930 . S
C171 C167 1.400 . S
C171 C170 1.385 . S
C172 C170 1.478 . S
C172 C174 1.381 . S
C172 C178 1.383 . S
C173 C169 1.495 . S
C173 H179 0.959 1_455 S
C173 H180 0.961 1_455 S
C173 H181 0.960 . S
C174 C172 1.381 . S
C174 C175 1.394 . S
C174 H182 0.930 . S
C175 C174 1.394 . S
C175 C176 1.383 . S
C175 H183 0.929 . S
C176 C175 1.383 . S
C176 C177 1.377 . S
C177 H161 0.930 . S
C177 C176 1.377 . S
C177 C178 1.379 . S
C178 H162 0.931 . S
C178 C172 1.383 . S
C178 C177 1.379 . S
H179 C173 0.959 1_655 S
H180 C173 0.961 1_655 S
H181 C173 0.960 . S
H182 C174 0.930 . S
H183 C175 0.929 . S
H184 C192 0.929 . S
H185 C194 0.930 . S
H186 C196 0.930 . S
H187 C199 0.929 . S
H188 C202 0.930 . S
H189 C204 0.960 . S
H190 C204 0.960 . S
H191 C204 0.960 . S
C192 H184 0.929 . S
C192 C193 1.377 . S
C192 C194 1.384 . S
C193 C192 1.377 . S
C193 C199 1.390 . S
C194 H185 0.930 . S
C194 C192 1.384 . S
C194 C195 1.372 . S
C195 C194 1.372 . S
C195 C196 1.400 . S
C195 C200 1.490 . S
C196 H186 0.930 . S
C196 C195 1.400 . S
C196 C199 1.386 . S
H197 C213 0.930 . S
H198 C214 0.931 . S
C199 H187 0.929 . S
C199 C193 1.390 . S
C199 C196 1.386 . S
C200 C195 1.490 . S
C200 C202 1.395 . S
C200 C203 1.403 . S
H201 C207 0.930 . S
C202 H188 0.930 . S
C202 C200 1.395 . S
C202 C205 1.403 1_556 S
C203 C200 1.403 . S
C203 C204 1.524 1_545 S
C203 C207 1.400 1_556 S
C204 H189 0.960 . S
C204 H190 0.960 . S
C204 H191 0.960 . S
C204 C203 1.524 1_565 S
C205 C202 1.403 1_554 S
C205 C206 1.392 . S
C205 C209 1.495 . S
C206 C205 1.392 . S
C206 C207 1.385 . S
C206 C208 1.478 . S
C207 H201 0.930 . S
C207 C203 1.400 1_554 S
C207 C206 1.385 . S
C208 C206 1.478 . S
C208 C210 1.381 . S
C208 C214 1.383 . S
C209 C205 1.495 . S
C209 H215 0.959 . S
C209 H216 0.961 . S
C209 H217 0.960 . S
C210 C208 1.381 . S
C210 C211 1.394 . S
C210 H218 0.930 . S
C211 C210 1.394 . S
C211 C212 1.383 . S
C211 H219 0.929 . S
C212 C211 1.383 . S
C212 C213 1.377 . S
C213 H197 0.930 . S
C213 C212 1.377 . S
C213 C214 1.379 . S
C214 H198 0.931 . S
C214 C208 1.383 . S
C214 C213 1.379 . S
H215 C209 0.959 . S
H216 C209 0.961 . S
H217 C209 0.960 . S
H218 C210 0.930 . S
H219 C211 0.929 . S
H220 C228 0.929 . S
H221 C230 0.930 . S
H222 C232 0.930 . S
H223 C235 0.929 . S
H224 C238 0.930 . S
H225 C240 0.960 . S
H226 C240 0.960 . S
H227 C240 0.960 . S
C228 H220 0.929 . S
C228 C229 1.377 . S
C228 C230 1.384 . S
C229 C228 1.377 . S
C229 C235 1.390 . S
C230 H221 0.930 . S
C230 C228 1.384 . S
C230 C231 1.372 . S
C231 C230 1.372 . S
C231 C232 1.400 . S
C231 C236 1.490 . S
C232 H222 0.930 . S
C232 C231 1.400 . S
C232 C235 1.386 . S
H233 C249 0.930 . S
H234 C250 0.931 . S
C235 H223 0.929 . S
C235 C229 1.390 . S
C235 C232 1.386 . S
C236 C231 1.490 . S
C236 C238 1.395 . S
C236 C239 1.403 . S
H237 C243 0.930 . S
C238 H224 0.930 . S
C238 C236 1.395 . S
C238 C241 1.403 . S
C239 C236 1.403 . S
C239 C240 1.524 . S
C239 C243 1.400 . S
C240 H225 0.960 . S
C240 H226 0.960 . S
C240 H227 0.960 . S
C240 C239 1.524 . S
C241 C238 1.403 . S
C241 C242 1.392 . S
C241 C245 1.495 . S
C242 C241 1.392 . S
C242 C243 1.385 . S
C242 C244 1.478 . S
C243 H237 0.930 . S
C243 C239 1.400 . S
C243 C242 1.385 . S
C244 C242 1.478 . S
C244 C246 1.381 . S
C244 C250 1.383 . S
C245 C241 1.495 . S
C245 H251 0.959 . S
C245 H252 0.961 . S
C245 H253 0.960 . S
C246 C244 1.381 . S
C246 C247 1.394 . S
C246 H254 0.930 . S
C247 C246 1.394 . S
C247 C248 1.383 . S
C247 H255 0.929 . S
C248 C247 1.383 . S
C248 C249 1.377 . S
C249 H233 0.930 . S
C249 C248 1.377 . S
C249 C250 1.379 . S
C250 H234 0.931 . S
C250 C244 1.383 . S
C250 C249 1.379 . S
H251 C245 0.959 . S
H252 C245 0.961 . S
H253 C245 0.960 . S
H254 C246 0.930 . S
H255 C247 0.929 . S
H256 C264 0.929 . S
H257 C266 0.930 . S
H258 C268 0.930 . S
H259 C271 0.929 . S
H260 C274 0.930 1_565 S
H261 C276 0.960 . S
H262 C276 0.960 . S
H263 C276 0.960 . S
C264 H256 0.929 . S
C264 C265 1.377 . S
C264 C266 1.384 . S
C265 C264 1.377 . S
C265 C271 1.390 . S
C266 H257 0.930 . S
C266 C264 1.384 . S
C266 C267 1.372 . S
C267 C266 1.372 . S
C267 C268 1.400 . S
C267 C272 1.490 . S
C268 H258 0.930 . S
C268 C267 1.400 . S
C268 C271 1.386 . S
H269 C285 0.930 . S
H270 C286 0.931 . S
C271 H259 0.929 . S
C271 C265 1.390 . S
C271 C268 1.386 . S
C272 C267 1.490 . S
C272 C274 1.395 . S
C272 C275 1.403 . S
H273 C279 0.930 . S
C274 H260 0.930 1_545 S
C274 C272 1.395 . S
C274 C277 1.403 . S
C275 C272 1.403 . S
C275 C276 1.524 . S
C275 C279 1.400 . S
C276 H261 0.960 . S
C276 H262 0.960 . S
C276 H263 0.960 . S
C276 C275 1.524 . S
C277 C274 1.403 . S
C277 C278 1.392 . S
C277 C281 1.495 1_545 S
C278 C277 1.392 . S
C278 C279 1.385 . S
C278 C280 1.478 . S
C279 H273 0.930 . S
C279 C275 1.400 . S
C279 C278 1.385 . S
C280 C278 1.478 . S
C280 C282 1.381 . S
C280 C286 1.383 . S
C281 C277 1.495 1_565 S
C281 H287 0.959 . S
C281 H288 0.961 . S
C281 H289 0.960 . S
C282 C280 1.381 . S
C282 C283 1.394 . S
C282 H290 0.930 . S
C283 C282 1.394 . S
C283 C284 1.383 . S
C283 H291 0.929 . S
C284 C283 1.383 . S
C284 C285 1.377 . S
C285 H269 0.930 . S
C285 C284 1.377 . S
C285 C286 1.379 . S
C286 H270 0.931 . S
C286 C280 1.383 . S
C286 C285 1.379 . S
H287 C281 0.959 . S
H288 C281 0.961 . S
H289 C281 0.960 . S
H290 C282 0.930 . S
H291 C283 0.929 . S
H292 C300 0.929 . S
H293 C302 0.930 . S
H294 C304 0.930 . S
H295 C307 0.929 . S
H296 C310 0.930 . S
H297 C312 0.960 . S
H298 C312 0.960 . S
H299 C312 0.960 . S
C300 H292 0.929 . S
C300 C301 1.377 . S
C300 C302 1.384 . S
C301 C300 1.377 . S
C301 C307 1.390 . S
C302 H293 0.930 . S
C302 C300 1.384 . S
C302 C303 1.372 . S
C303 C302 1.372 . S
C303 C304 1.400 . S
C303 C308 1.490 . S
C304 H294 0.930 . S
C304 C303 1.400 . S
C304 C307 1.386 . S
H305 C321 0.930 1_655 S
H306 C322 0.931 . S
C307 H295 0.929 . S
C307 C301 1.390 . S
C307 C304 1.386 . S
C308 C303 1.490 . S
C308 C310 1.395 . S
C308 C311 1.403 . S
H309 C315 0.930 . S
C310 H296 0.930 . S
C310 C308 1.395 . S
C310 C313 1.403 . S
C311 C308 1.403 . S
C311 C312 1.524 . S
C311 C315 1.400 . S
C312 H297 0.960 . S
C312 H298 0.960 . S
C312 H299 0.960 . S
C312 C311 1.524 . S
C313 C310 1.403 . S
C313 C314 1.392 . S
C313 C317 1.495 . S
C314 C313 1.392 . S
C314 C315 1.385 . S
C314 C316 1.478 . S
C315 H309 0.930 . S
C315 C311 1.400 . S
C315 C314 1.385 . S
C316 C314 1.478 . S
C316 C318 1.381 . S
C316 C322 1.383 . S
C317 C313 1.495 . S
C317 H323 0.959 . S
C317 H324 0.961 1_455 S
C317 H325 0.960 . S
C318 C316 1.381 . S
C318 C319 1.394 . S
C318 H326 0.930 . S
C319 C318 1.394 . S
C319 C320 1.383 . S
C319 H327 0.929 . S
C320 C319 1.383 . S
C320 C321 1.377 . S
C321 H305 0.930 1_455 S
C321 C320 1.377 . S
C321 C322 1.379 . S
C322 H306 0.931 . S
C322 C316 1.383 . S
C322 C321 1.379 . S
H323 C317 0.959 . S
H324 C317 0.961 1_655 S
H325 C317 0.960 . S
H326 C318 0.930 . S
H327 C319 0.929 . S
H328 C336 0.929 . S
H329 C338 0.930 . S
H330 C340 0.930 . S
H331 C343 0.929 . S
H332 C346 0.930 . S
H333 C348 0.960 . S
H334 C348 0.960 . S
H335 C348 0.960 . S
C336 H328 0.929 . S
C336 C337 1.377 . S
C336 C338 1.384 . S
C337 C336 1.377 . S
C337 C343 1.390 . S
C338 H329 0.930 . S
C338 C336 1.384 . S
C338 C339 1.372 . S
C339 C338 1.372 . S
C339 C340 1.400 . S
C339 C344 1.490 . S
C340 H330 0.930 . S
C340 C339 1.400 . S
C340 C343 1.386 . S
H341 C357 0.930 . S
H342 C358 0.931 . S
C343 H331 0.929 . S
C343 C337 1.390 . S
C343 C340 1.386 . S
C344 C339 1.490 . S
C344 C346 1.395 . S
C344 C347 1.403 . S
H345 C351 0.930 . S
C346 H332 0.930 . S
C346 C344 1.395 . S
C346 C349 1.403 . S
C347 C344 1.403 . S
C347 C348 1.524 1_545 S
C347 C351 1.400 . S
C348 H333 0.960 . S
C348 H334 0.960 . S
C348 H335 0.960 . S
C348 C347 1.524 1_565 S
C349 C346 1.403 . S
C349 C350 1.392 . S
C349 C353 1.495 . S
C350 C349 1.392 . S
C350 C351 1.385 . S
C350 C352 1.478 . S
C351 H345 0.930 . S
C351 C347 1.400 . S
C351 C350 1.385 . S
C352 C350 1.478 . S
C352 C354 1.381 . S
C352 C358 1.383 . S
C353 C349 1.495 . S
C353 H359 0.959 . S
C353 H360 0.961 . S
C353 H361 0.960 . S
C354 C352 1.381 . S
C354 C355 1.394 . S
C354 H362 0.930 . S
C355 C354 1.394 . S
C355 C356 1.383 . S
C355 H363 0.929 . S
C356 C355 1.383 . S
C356 C357 1.377 . S
C357 H341 0.930 . S
C357 C356 1.377 . S
C357 C358 1.379 . S
C358 H342 0.931 . S
C358 C352 1.383 . S
C358 C357 1.379 . S
H359 C353 0.959 . S
H360 C353 0.961 . S
H361 C353 0.960 . S
H362 C354 0.930 . S
H363 C355 0.929 . S
H364 C372 0.929 . S
H365 C374 0.930 . S
H366 C376 0.930 . S
H367 C379 0.929 1_655 S
H368 C382 0.930 . S
H369 C384 0.960 . S
H370 C384 0.960 . S
H371 C384 0.960 . S
C372 H364 0.929 . S
C372 C373 1.377 . S
C372 C374 1.384 . S
C373 C372 1.377 . S
C373 C379 1.390 . S
C374 H365 0.930 . S
C374 C372 1.384 . S
C374 C375 1.372 . S
C375 C374 1.372 . S
C375 C376 1.400 . S
C375 C380 1.490 . S
C376 H366 0.930 . S
C376 C375 1.400 . S
C376 C379 1.386 . S
H377 C393 0.930 . S
H378 C394 0.931 . S
C379 H367 0.929 1_455 S
C379 C373 1.390 . S
C379 C376 1.386 . S
C380 C375 1.490 . S
C380 C382 1.395 . S
C380 C383 1.403 . S
H381 C387 0.930 . S
C382 H368 0.930 . S
C382 C380 1.395 . S
C382 C385 1.403 . S
C383 C380 1.403 . S
C383 C384 1.524 1_455 S
C383 C387 1.400 . S
C384 H369 0.960 . S
C384 H370 0.960 . S
C384 H371 0.960 . S
C384 C383 1.524 1_655 S
C385 C382 1.403 . S
C385 C386 1.392 . S
C385 C389 1.495 . S
C386 C385 1.392 . S
C386 C387 1.385 . S
C386 C388 1.478 . S
C387 H381 0.930 . S
C387 C383 1.400 . S
C387 C386 1.385 . S
C388 C386 1.478 . S
C388 C390 1.381 . S
C388 C394 1.383 . S
C389 C385 1.495 . S
C389 H395 0.959 . S
C389 H396 0.961 . S
C389 H397 0.960 . S
C390 C388 1.381 . S
C390 C391 1.394 . S
C390 H398 0.930 . S
C391 C390 1.394 . S
C391 C392 1.383 . S
C391 H399 0.929 . S
C392 C391 1.383 . S
C392 C393 1.377 . S
C393 H377 0.930 . S
C393 C392 1.377 . S
C393 C394 1.379 . S
C394 H378 0.931 . S
C394 C388 1.383 . S
C394 C393 1.379 . S
H395 C389 0.959 . S
H396 C389 0.961 . S
H397 C389 0.960 . S
H398 C390 0.930 . S
H399 C391 0.929 . S
H400 C408 0.929 . S
H401 C410 0.930 . S
H402 C412 0.930 . S
H403 C415 0.929 . S
H404 C418 0.930 . S
H405 C420 0.960 . S
H406 C420 0.960 . S
H407 C420 0.960 . S
C408 H400 0.929 . S
C408 C409 1.377 . S
C408 C410 1.384 . S
C409 C408 1.377 . S
C409 C415 1.390 . S
C410 H401 0.930 . S
C410 C408 1.384 . S
C410 C411 1.372 . S
C411 C410 1.372 . S
C411 C412 1.400 . S
C411 C416 1.490 . S
C412 H402 0.930 . S
C412 C411 1.400 . S
C412 C415 1.386 . S
H413 C429 0.930 . S
H414 C430 0.931 . S
C415 H403 0.929 . S
C415 C409 1.390 . S
C415 C412 1.386 . S
C416 C411 1.490 . S
C416 C418 1.395 . S
C416 C419 1.403 . S
H417 C423 0.930 . S
C418 H404 0.930 . S
C418 C416 1.395 . S
C418 C421 1.403 . S
C419 C416 1.403 . S
C419 C420 1.524 . S
C419 C423 1.400 . S
C420 H405 0.960 . S
C420 H406 0.960 . S
C420 H407 0.960 . S
C420 C419 1.524 . S
C421 C418 1.403 . S
C421 C422 1.392 . S
C421 C425 1.495 . S
C422 C421 1.392 . S
C422 C423 1.385 . S
C422 C424 1.478 . S
C423 H417 0.930 . S
C423 C419 1.400 . S
C423 C422 1.385 . S
C424 C422 1.478 . S
C424 C426 1.381 . S
C424 C430 1.383 . S
C425 C421 1.495 . S
C425 H431 0.959 . S
C425 H432 0.961 . S
C425 H433 0.960 . S
C426 C424 1.381 . S
C426 C427 1.394 . S
C426 H434 0.930 . S
C427 C426 1.394 . S
C427 C428 1.383 . S
C427 H435 0.929 . S
C428 C427 1.383 . S
C428 C429 1.377 . S
C429 H413 0.930 . S
C429 C428 1.377 . S
C429 C430 1.379 . S
C430 H414 0.931 . S
C430 C424 1.383 . S
C430 C429 1.379 . S
H431 C425 0.959 . S
H432 C425 0.961 . S
H433 C425 0.960 . S
H434 C426 0.930 . S
H435 C427 0.929 . S
H436 C444 0.950 . S
H437 C446 0.930 . S
H438 C448 0.930 . S
H439 C451 0.929 . S
H440 C454 0.930 . S
H441 C456 0.960 . S
H442 C456 0.960 . S
H443 C456 0.960 . S
C444 H436 0.950 . S
C444 C445 1.372 1_455 S
C444 C446 1.369 1_455 S
C445 C444 1.372 1_655 S
C445 C451 1.390 . S
C446 H437 0.930 . S
C446 C444 1.369 1_655 S
C446 C447 1.372 . S
C447 C446 1.372 . S
C447 C448 1.400 . S
C447 C452 1.490 . S
C448 H438 0.930 . S
C448 C447 1.400 . S
C448 C451 1.386 . S
H449 C465 0.930 . S
H450 C466 0.931 . S
C451 H439 0.929 . S
C451 C445 1.390 . S
C451 C448 1.386 . S
C452 C447 1.490 . S
C452 C454 1.395 . S
C452 C455 1.403 . S
H453 C459 0.930 . S
C454 H440 0.930 . S
C454 C452 1.395 . S
C454 C457 1.403 . S
C455 C452 1.403 . S
C455 C456 1.524 . S
C455 C459 1.400 . S
C456 H441 0.960 . S
C456 H442 0.960 . S
C456 H443 0.960 . S
C456 C455 1.524 . S
C457 C454 1.403 . S
C457 C458 1.392 . S
C457 C461 1.495 . S
C458 C457 1.392 . S
C458 C459 1.385 . S
C458 C460 1.478 . S
C459 H453 0.930 . S
C459 C455 1.400 . S
C459 C458 1.385 . S
C460 C458 1.478 . S
C460 C462 1.381 . S
C460 C466 1.383 . S
C461 C457 1.495 . S
C461 H467 0.959 . S
C461 H468 0.961 . S
C461 H469 0.960 . S
C462 C460 1.381 . S
C462 C463 1.394 . S
C462 H470 0.930 . S
C463 C462 1.394 . S
C463 C464 1.383 . S
C463 H471 0.929 . S
C464 C463 1.383 . S
C464 C465 1.377 . S
C465 H449 0.930 . S
C465 C464 1.377 . S
C465 C466 1.379 . S
C466 H450 0.931 . S
C466 C460 1.383 . S
C466 C465 1.379 . S
H467 C461 0.959 . S
H468 C461 0.961 . S
H469 C461 0.960 . S
H470 C462 0.930 . S
H471 C463 0.929 . S
H472 C480 0.929 . S
H473 C482 0.930 . S
H474 C484 0.930 . S
H475 C487 0.929 . S
H476 C490 0.930 . S
H477 C492 0.960 . S
H478 C492 0.960 . S
H479 C492 0.960 . S
C480 H472 0.929 . S
C480 C481 1.377 1_455 S
C480 C482 1.384 1_455 S
C481 C480 1.377 1_655 S
C481 C487 1.390 . S
C482 H473 0.930 . S
C482 C480 1.384 1_655 S
C482 C483 1.372 . S
C483 C482 1.372 . S
C483 C484 1.400 . S
C483 C488 1.490 . S
C484 H474 0.930 . S
C484 C483 1.400 . S
C484 C487 1.386 . S
H485 C501 0.930 . S
H486 C502 0.931 . S
C487 H475 0.929 . S
C487 C481 1.390 . S
C487 C484 1.386 . S
C488 C483 1.490 . S
C488 C490 1.395 . S
C488 C491 1.403 . S
H489 C495 0.930 . S
C490 H476 0.930 . S
C490 C488 1.395 . S
C490 C493 1.403 . S
C491 C488 1.403 . S
C491 C492 1.524 . S
C491 C495 1.400 . S
C492 H477 0.960 . S
C492 H478 0.960 . S
C492 H479 0.960 . S
C492 C491 1.524 . S
C493 C490 1.403 . S
C493 C494 1.392 . S
C493 C497 1.495 . S
C494 C493 1.392 . S
C494 C495 1.385 . S
C494 C496 1.478 . S
C495 H489 0.930 . S
C495 C491 1.400 . S
C495 C494 1.385 . S
C496 C494 1.478 . S
C496 C498 1.381 . S
C496 C502 1.383 . S
C497 C493 1.495 . S
C497 H503 0.959 . S
C497 H504 0.961 . S
C497 H505 0.960 . S
C498 C496 1.381 . S
C498 C499 1.394 . S
C498 H506 0.930 . S
C499 C498 1.394 . S
C499 C500 1.383 . S
C499 H507 0.929 1_565 S
C500 C499 1.383 . S
C500 C501 1.377 . S
C501 H485 0.930 . S
C501 C500 1.377 . S
C501 C502 1.379 . S
C502 H486 0.931 . S
C502 C496 1.383 . S
C502 C501 1.379 . S
H503 C497 0.959 . S
H504 C497 0.961 . S
H505 C497 0.960 . S
H506 C498 0.930 . S
H507 C499 0.929 1_545 S
H508 C516 0.929 . S
H509 C518 0.930 . S
H510 C520 0.930 . S
H511 C523 0.929 . S
H512 C526 0.930 . S
H513 C528 0.960 . S
H514 C528 0.960 . S
H515 C528 0.960 . S
C516 H508 0.929 . S
C516 C517 1.377 . S
C516 C518 1.384 . S
C517 C516 1.377 . S
C517 C523 1.390 . S
C518 H509 0.930 . S
C518 C516 1.384 . S
C518 C519 1.372 . S
C519 C518 1.372 . S
C519 C520 1.400 . S
C519 C524 1.490 . S
C520 H510 0.930 . S
C520 C519 1.400 . S
C520 C523 1.386 . S
H521 C537 0.930 . S
H522 C538 0.931 . S
C523 H511 0.929 . S
C523 C517 1.390 . S
C523 C520 1.386 . S
C524 C519 1.490 . S
C524 C526 1.395 . S
C524 C527 1.403 . S
H525 C531 0.930 . S
C526 H512 0.930 . S
C526 C524 1.395 . S
C526 C529 1.403 . S
C527 C524 1.403 . S
C527 C528 1.524 . S
C527 C531 1.400 . S
C528 H513 0.960 . S
C528 H514 0.960 . S
C528 H515 0.960 . S
C528 C527 1.524 . S
C529 C526 1.403 . S
C529 C530 1.392 . S
C529 C533 1.495 . S
C530 C529 1.392 . S
C530 C531 1.385 . S
C530 C532 1.478 . S
C531 H525 0.930 . S
C531 C527 1.400 . S
C531 C530 1.385 . S
C532 C530 1.478 . S
C532 C534 1.381 . S
C532 C538 1.383 . S
C533 C529 1.495 . S
C533 H539 0.959 . S
C533 H540 0.961 . S
C533 H541 0.960 . S
C534 C532 1.381 . S
C534 C535 1.394 . S
C534 H542 0.930 . S
C535 C534 1.394 . S
C535 C536 1.383 . S
C535 H543 0.929 1_565 S
C536 C535 1.383 . S
C536 C537 1.377 . S
C537 H521 0.930 . S
C537 C536 1.377 . S
C537 C538 1.379 . S
C538 H522 0.931 . S
C538 C532 1.383 . S
C538 C537 1.379 . S
H539 C533 0.959 . S
H540 C533 0.961 . S
H541 C533 0.960 . S
H542 C534 0.930 . S
H543 C535 0.929 1_545 S
H544 C552 0.920 1_545 S
H545 C554 0.930 . S
H546 C556 0.930 . S
H547 C559 0.929 . S
H548 C562 0.930 . S
H549 C564 0.960 . S
H550 C564 0.960 . S
H551 C564 0.960 . S
C552 H544 0.920 1_565 S
C552 C553 1.377 . S
C552 C554 1.384 . S
C553 C552 1.377 . S
C553 C559 1.390 . S
C554 H545 0.930 . S
C554 C552 1.384 . S
C554 C555 1.372 . S
C555 C554 1.372 . S
C555 C556 1.400 . S
C555 C560 1.490 . S
C556 H546 0.930 . S
C556 C555 1.400 . S
C556 C559 1.386 . S
H557 C573 0.930 . S
H558 C574 0.931 . S
C559 H547 0.929 . S
C559 C553 1.390 . S
C559 C556 1.386 . S
C560 C555 1.490 . S
C560 C562 1.395 . S
C560 C563 1.403 . S
H561 C567 0.930 . S
C562 H548 0.930 . S
C562 C560 1.395 . S
C562 C565 1.403 . S
C563 C560 1.403 . S
C563 C564 1.524 . S
C563 C567 1.400 . S
C564 H549 0.960 . S
C564 H550 0.960 . S
C564 H551 0.960 . S
C564 C563 1.524 . S
C565 C562 1.403 . S
C565 C566 1.392 . S
C565 C569 1.495 . S
C566 C565 1.392 . S
C566 C567 1.385 . S
C566 C568 1.478 . S
C567 H561 0.930 . S
C567 C563 1.400 . S
C567 C566 1.385 . S
C568 C566 1.478 . S
C568 C570 1.381 . S
C568 C574 1.383 . S
C569 C565 1.495 . S
C569 H575 0.959 . S
C569 H576 0.961 . S
C569 H577 0.960 . S
C570 C568 1.381 . S
C570 C571 1.394 . S
C570 H578 0.930 . S
C571 C570 1.394 . S
C571 C572 1.383 . S
C571 H579 0.929 . S
C572 C571 1.383 . S
C572 C573 1.377 . S
C573 H557 0.930 . S
C573 C572 1.377 . S
C573 C574 1.379 . S
C574 H558 0.931 . S
C574 C568 1.383 . S
C574 C573 1.379 . S
H575 C569 0.959 . S
H576 C569 0.961 . S
H577 C569 0.960 . S
H578 C570 0.930 . S
H579 C571 0.929 . S
H580 C588 0.932 1_545 S
H581 C590 0.930 . S
H582 C592 0.930 . S
H583 C595 0.929 . S
H584 C598 0.930 . S
H585 C600 0.960 . S
H586 C600 0.960 . S
H587 C600 0.960 . S
C588 H580 0.932 1_565 S
C588 C589 1.377 . S
C588 C590 1.384 . S
C589 C588 1.377 . S
C589 C595 1.390 . S
C590 H581 0.930 . S
C590 C588 1.384 . S
C590 C591 1.372 . S
C591 C590 1.372 . S
C591 C592 1.400 . S
C591 C596 1.490 . S
C592 H582 0.930 . S
C592 C591 1.400 . S
C592 C595 1.386 . S
H593 C609 0.930 . S
H594 C610 0.931 . S
C595 H583 0.929 . S
C595 C589 1.390 . S
C595 C592 1.386 . S
C596 C591 1.490 . S
C596 C598 1.395 . S
C596 C599 1.403 . S
H597 C603 0.930 . S
C598 H584 0.930 . S
C598 C596 1.395 . S
C598 C601 1.403 . S
C599 C596 1.403 . S
C599 C600 1.524 . S
C599 C603 1.400 . S
C600 H585 0.960 . S
C600 H586 0.960 . S
C600 H587 0.960 . S
C600 C599 1.524 . S
C601 C598 1.403 . S
C601 C602 1.392 . S
C601 C605 1.495 . S
C602 C601 1.392 . S
C602 C603 1.385 . S
C602 C604 1.478 . S
C603 H597 0.930 . S
C603 C599 1.400 . S
C603 C602 1.385 . S
C604 C602 1.478 . S
C604 C606 1.381 . S
C604 C610 1.383 . S
C605 C601 1.495 . S
C605 H611 0.959 . S
C605 H612 0.961 . S
C605 H613 0.960 . S
C606 C604 1.381 . S
C606 C607 1.394 . S
C606 H614 0.930 . S
C607 C606 1.394 . S
C607 C608 1.383 . S
C607 H615 0.929 . S
C608 C607 1.383 . S
C608 C609 1.377 . S
C609 H593 0.930 . S
C609 C608 1.377 . S
C609 C610 1.379 . S
C610 H594 0.931 . S
C610 C604 1.383 . S
C610 C609 1.379 . S
H611 C605 0.959 . S
H612 C605 0.961 . S
H613 C605 0.960 . S
H614 C606 0.930 . S
H615 C607 0.929 . S
H616 C624 0.929 . S
H617 C626 0.930 . S
H618 C628 0.930 . S
H619 C631 0.929 . S
H620 C634 0.930 . S
H621 C636 0.960 . S
H622 C636 0.960 . S
H623 C636 0.960 . S
C624 H616 0.929 . S
C624 C625 1.377 . S
C624 C626 1.384 . S
C625 C624 1.377 . S
C625 C631 1.390 . S
C626 H617 0.930 . S
C626 C624 1.384 . S
C626 C627 1.372 . S
C627 C626 1.372 . S
C627 C628 1.400 . S
C627 C632 1.490 . S
C628 H618 0.930 . S
C628 C627 1.400 . S
C628 C631 1.386 . S
H629 C645 0.930 . S
H630 C646 0.931 . S
C631 H619 0.929 . S
C631 C625 1.390 . S
C631 C628 1.386 . S
C632 C627 1.490 . S
C632 C634 1.395 . S
C632 C635 1.403 . S
H633 C639 0.930 . S
C634 H620 0.930 . S
C634 C632 1.395 . S
C634 C637 1.403 . S
C635 C632 1.403 . S
C635 C636 1.524 . S
C635 C639 1.400 . S
C636 H621 0.960 . S
C636 H622 0.960 . S
C636 H623 0.960 . S
C636 C635 1.524 . S
C637 C634 1.403 . S
C637 C638 1.392 . S
C637 C641 1.495 . S
C638 C637 1.392 . S
C638 C639 1.385 . S
C638 C640 1.478 . S
C639 H633 0.930 . S
C639 C635 1.400 . S
C639 C638 1.385 . S
C640 C638 1.478 . S
C640 C642 1.381 . S
C640 C646 1.383 . S
C641 C637 1.495 . S
C641 H647 0.959 . S
C641 H648 0.961 . S
C641 H649 0.960 . S
C642 C640 1.381 . S
C642 C643 1.394 . S
C642 H650 0.930 . S
C643 C642 1.394 . S
C643 C644 1.383 . S
C643 H651 0.929 . S
C644 C643 1.383 . S
C644 C645 1.377 . S
C645 H629 0.930 . S
C645 C644 1.377 . S
C645 C646 1.379 . S
C646 H630 0.931 . S
C646 C640 1.383 . S
C646 C645 1.379 . S
H647 C641 0.959 . S
H648 C641 0.961 . S
H649 C641 0.960 . S
H650 C642 0.930 . S
H651 C643 0.929 . S
H652 C660 0.929 . S
H653 C662 0.930 . S
H654 C664 0.930 . S
H655 C667 0.929 . S
H656 C670 0.930 . S
H657 C672 0.960 . S
H658 C672 0.960 . S
H659 C672 0.960 . S
C660 H652 0.929 . S
C660 C661 1.377 . S
C660 C662 1.384 . S
C661 C660 1.377 . S
C661 C667 1.390 . S
C662 H653 0.930 . S
C662 C660 1.384 . S
C662 C663 1.372 . S
C663 C662 1.372 . S
C663 C664 1.400 . S
C663 C668 1.490 . S
C664 H654 0.930 . S
C664 C663 1.400 . S
C664 C667 1.386 . S
H665 C681 0.930 . S
H666 C682 0.931 . S
C667 H655 0.929 . S
C667 C661 1.390 . S
C667 C664 1.386 . S
C668 C663 1.490 . S
C668 C670 1.395 . S
C668 C671 1.403 . S
H669 C675 0.930 . S
C670 H656 0.930 . S
C670 C668 1.395 . S
C670 C673 1.403 . S
C671 C668 1.403 . S
C671 C672 1.524 . S
C671 C675 1.400 . S
C672 H657 0.960 . S
C672 H658 0.960 . S
C672 H659 0.960 . S
C672 C671 1.524 . S
C673 C670 1.403 . S
C673 C674 1.392 . S
C673 C677 1.495 . S
C674 C673 1.392 . S
C674 C675 1.385 . S
C674 C676 1.478 . S
C675 H669 0.930 . S
C675 C671 1.400 . S
C675 C674 1.385 . S
C676 C674 1.478 . S
C676 C678 1.381 . S
C676 C682 1.383 . S
C677 C673 1.495 . S
C677 H683 0.959 . S
C677 H684 0.961 . S
C677 H685 0.960 . S
C678 C676 1.381 . S
C678 C679 1.394 . S
C678 H686 0.930 . S
C679 C678 1.394 . S
C679 C680 1.383 . S
C679 H687 0.929 . S
C680 C679 1.383 . S
C680 C681 1.377 . S
C681 H665 0.930 . S
C681 C680 1.377 . S
C681 C682 1.379 . S
C682 H666 0.931 . S
C682 C676 1.383 . S
C682 C681 1.379 . S
H683 C677 0.959 . S
H684 C677 0.961 . S
H685 C677 0.960 . S
H686 C678 0.930 . S
H687 C679 0.929 . S
C121 C9 1.592 . S
C140 C65 1.586 . S
C157 C23 1.591 . S
C176 C79 1.590 . S
C193 C93 1.592 . S
C212 C37 1.587 . S
C229 C107 1.593 . S
C248 C51 1.582 . S
C265 C11 1.147 . S
C284 C39 1.119 . S
C301 C25 1.152 . S
C320 C53 1.151 . S
C337 C95 1.150 . S
C356 C67 1.165 . S
C373 C81 1.146 . S
C392 C109 1.173 . S
C409 C75 1.545 . S
C428 C5 1.534 . S
C445 C19 1.542 1_655 S
C464 C89 1.545 . S
C481 C103 1.543 1_655 S
C500 C33 1.545 1_565 S
C517 C47 1.542 . S
C536 C61 1.545 1_565 S
C553 C84 0.962 . S
C572 C42 0.948 . S
C589 C0 0.957 . S
C608 C98 0.971 . S
C625 C14 0.953 . S
C644 C56 0.962 . S
C661 C70 0.950 . S
C680 C28 0.981 . S
