# Generated by pormake.
# Topology lhb, (8)-cn, num edge types: 1
# Building blocks:
#     Node 0, Type 0, BuildingBlock: EBIMEJ_clean_sbu_0, # of connection points: 8
#     Node 1, Type 0, BuildingBlock: EBIMEJ_clean_sbu_0, # of connection points: 8
#     Node 2, Type 0, BuildingBlock: EBIMEJ_clean_sbu_0, # of connection points: 8
#     Node 3, Type 0, BuildingBlock: EBIMEJ_clean_sbu_0, # of connection points: 8
#     Node 4, Type 0, BuildingBlock: EBIMEJ_clean_sbu_0, # of connection points: 8
#     Node 5, Type 0, BuildingBlock: EBIMEJ_clean_sbu_0, # of connection points: 8
#     Node 6, Type 0, BuildingBlock: EBIMEJ_clean_sbu_0, # of connection points: 8
#     Node 7, Type 0, BuildingBlock: EBIMEJ_clean_sbu_0, # of connection points: 8
#     Edge 8, Type (0, 0), BuildingBlock: EYOCIG_clean_linker_4, # of connection points: 2
#     Edge 9, Type (0, 0), BuildingBlock: EYOCIG_clean_linker_4, # of connection points: 2
#     Edge 10, Type (0, 0), BuildingBlock: EYOCIG_clean_linker_4, # of connection points: 2
#     Edge 11, Type (0, 0), BuildingBlock: EYOCIG_clean_linker_4, # of connection points: 2
#     Edge 12, Type (0, 0), BuildingBlock: EYOCIG_clean_linker_4, # of connection points: 2
#     Edge 13, Type (0, 0), BuildingBlock: EYOCIG_clean_linker_4, # of connection points: 2
#     Edge 14, Type (0, 0), BuildingBlock: EYOCIG_clean_linker_4, # of connection points: 2
#     Edge 15, Type (0, 0), BuildingBlock: EYOCIG_clean_linker_4, # of connection points: 2
#     Edge 16, Type (0, 0), BuildingBlock: EYOCIG_clean_linker_4, # of connection points: 2
#     Edge 17, Type (0, 0), BuildingBlock: EYOCIG_clean_linker_4, # of connection points: 2
#     Edge 18, Type (0, 0), BuildingBlock: EYOCIG_clean_linker_4, # of connection points: 2
#     Edge 19, Type (0, 0), BuildingBlock: EYOCIG_clean_linker_4, # of connection points: 2
#     Edge 20, Type (0, 0), BuildingBlock: EYOCIG_clean_linker_4, # of connection points: 2
#     Edge 21, Type (0, 0), BuildingBlock: EYOCIG_clean_linker_4, # of connection points: 2
#     Edge 22, Type (0, 0), BuildingBlock: EYOCIG_clean_linker_4, # of connection points: 2
#     Edge 23, Type (0, 0), BuildingBlock: EYOCIG_clean_linker_4, # of connection points: 2
#     Edge 24, Type (0, 0), BuildingBlock: EYOCIG_clean_linker_4, # of connection points: 2
#     Edge 25, Type (0, 0), BuildingBlock: EYOCIG_clean_linker_4, # of connection points: 2
#     Edge 26, Type (0, 0), BuildingBlock: EYOCIG_clean_linker_4, # of connection points: 2
#     Edge 27, Type (0, 0), BuildingBlock: EYOCIG_clean_linker_4, # of connection points: 2
#     Edge 28, Type (0, 0), BuildingBlock: EYOCIG_clean_linker_4, # of connection points: 2
#     Edge 29, Type (0, 0), BuildingBlock: EYOCIG_clean_linker_4, # of connection points: 2
#     Edge 30, Type (0, 0), BuildingBlock: EYOCIG_clean_linker_4, # of connection points: 2
#     Edge 31, Type (0, 0), BuildingBlock: EYOCIG_clean_linker_4, # of connection points: 2
#     Edge 32, Type (0, 0), BuildingBlock: EYOCIG_clean_linker_4, # of connection points: 2
#     Edge 33, Type (0, 0), BuildingBlock: EYOCIG_clean_linker_4, # of connection points: 2
#     Edge 34, Type (0, 0), BuildingBlock: EYOCIG_clean_linker_4, # of connection points: 2
#     Edge 35, Type (0, 0), BuildingBlock: EYOCIG_clean_linker_4, # of connection points: 2
#     Edge 36, Type (0, 0), BuildingBlock: EYOCIG_clean_linker_4, # of connection points: 2
#     Edge 37, Type (0, 0), BuildingBlock: EYOCIG_clean_linker_4, # of connection points: 2
#     Edge 38, Type (0, 0), BuildingBlock: EYOCIG_clean_linker_4, # of connection points: 2
#     Edge 39, Type (0, 0), BuildingBlock: EYOCIG_clean_linker_4, # of connection points: 2
# Relax obj value: 0.068
# Max RMSD: 0.170
# Mean RMSD: 0.170
data_MOF--net-lhb--node1-EBIMEJ_clean_sbu_0--edge1-EYOCIG_clean_linker_4
_symmetry_space_group_name_H-M    P1
_symmetry_Int_Tables_number       1
_symmetry_cell_setting            triclinic
loop_
_symmetry_equiv_pos_as_xyz
'x, y, z'
_cell_length_a     25.783469
_cell_length_b     12.84934
_cell_length_c     55.10889
_cell_angle_alpha  83.716795
_cell_angle_beta   89.978092
_cell_angle_gamma 89.998647
loop_
_atom_site_label
_atom_site_type_symbol
_atom_site_fract_x
_atom_site_fract_y
_atom_site_fract_z
_atom_type_partial_charge
Co0 Co 0.96854 0.89894 0.98853 0.0
Co1 Co 0.06568 -0.00099 1.01708 0.0
Co2 Co 0.97029 0.92243 0.04497 0.0
H3 H 0.9774 0.93712 1.01658 0.0
O4 O 0.99059 -0.0032 1.0114 0.0
H5 H 0.05703 -0.00491 0.04581 0.0
O6 O 0.04504 0.9348 0.05149 0.0
Co7 Co 0.06201 0.04207 0.0734 0.0
O8 O 0.13072 0.09669 0.05824 0.0
O9 O 0.14056 0.01309 1.02478 0.0
O10 O 0.01436 0.96106 0.09894 0.0
O11 O 0.95477 0.87363 0.0792 0.0
O12 O 0.93678 0.87359 0.95559 0.0
O13 O 0.93518 0.02269 0.96729 0.0
O14 O 0.02493 0.16481 0.05582 0.0
O15 O 0.05693 0.15391 1.01855 0.0
C16 C 0.87692 0.84905 1.02127 0.0
C17 C 0.07169 0.96153 0.96596 0.0
C18 C 0.09732 0.09289 0.11233 0.0
C19 C 0.99639 0.71946 1.02318 0.0
C20 C 0.15772 0.07173 0.0403 0.0
C21 C 0.97538 0.89955 0.09859 0.0
C22 C 0.92319 0.96718 0.95079 0.0
C23 C 0.03511 0.20495 0.03432 0.0
O24 O 0.90233 0.83053 1.00238 0.0
O25 O 0.89529 0.90333 0.03736 0.0
O26 O 0.08214 0.02644 0.98139 0.0
O27 O 0.03455 0.89585 0.96875 0.0
O28 O 0.07672 0.15553 0.09613 0.0
O29 O 0.09788 0.00083 0.10666 0.0
O30 O 0.996 0.75875 1.00111 0.0
O31 O 0.98485 0.77126 0.04089 0.0
Co32 Co 0.21271 0.29294 0.32338 0.0
Co33 Co 0.30448 0.17248 0.29499 0.0
Co34 Co 0.209 0.24891 0.26707 0.0
H35 H 0.2177 0.24552 0.29582 0.0
O36 O 0.22967 0.18526 0.30154 0.0
H37 H 0.29725 0.18652 0.26661 0.0
O38 O 0.28411 0.24615 0.26135 0.0
Co39 Co 0.30599 0.14753 0.23863 0.0
O40 O 0.37176 0.07779 0.25262 0.0
O41 O 0.37937 0.15254 0.28732 0.0
O42 O 0.24007 0.14467 0.21879 0.0
O43 O 0.1925 0.2755 0.23136 0.0
O44 O 0.19794 0.40608 0.34622 0.0
O45 O 0.17681 0.2513 0.35666 0.0
O46 O 0.2783 0.00827 0.25148 0.0
O47 O 0.29063 0.02097 0.29117 0.0
C48 C 0.11717 0.32323 0.2902 0.0
C49 C 0.29971 0.15139 0.3486 0.0
C50 C 0.35201 0.21301 0.20089 0.0
C51 C 0.23873 0.45608 0.28412 0.0
C52 C 0.39729 0.09652 0.27145 0.0
C53 C 0.20294 0.21038 0.21596 0.0
C54 C 0.17732 0.34329 0.36238 0.0
C55 C 0.27924 0.96882 0.27352 0.0
O56 O 0.1442 0.34817 0.30812 0.0
O57 O 0.13414 0.2638 0.2748 0.0
O58 O 0.31999 0.12441 0.32923 0.0
O59 O 0.26087 0.2133 0.34892 0.0
O60 O 0.33816 0.11969 0.20593 0.0
O61 O 0.33988 0.26973 0.21713 0.0
O62 O 0.24865 0.41689 0.30571 0.0
O63 O 0.21782 0.40394 0.26831 0.0
Co64 Co 0.71263 0.79238 0.32357 0.0
Co65 Co 0.80445 0.67276 0.29509 0.0
Co66 Co 0.70884 0.74839 0.26727 0.0
H67 H 0.71763 0.74516 0.29599 0.0
O68 O 0.72973 0.68501 0.30171 0.0
H69 H 0.79724 0.68714 0.26671 0.0
O70 O 0.78394 0.74666 0.2615 0.0
Co71 Co 0.80609 0.6484 0.23872 0.0
O72 O 0.8722 0.57983 0.25259 0.0
O73 O 0.87943 0.65376 0.28739 0.0
O74 O 0.74014 0.64429 0.21899 0.0
O75 O 0.69216 0.77454 0.23157 0.0
O76 O 0.69742 0.90553 0.34632 0.0
O77 O 0.678 0.75005 0.35709 0.0
O78 O 0.77645 0.51021 0.25142 0.0
O79 O 0.78983 0.52148 0.29109 0.0
C80 C 0.6167 0.8206 0.29056 0.0
C81 C 0.79994 0.65129 0.34868 0.0
C82 C 0.85246 0.71451 0.20106 0.0
C83 C 0.73784 0.95622 0.28429 0.0
C84 C 0.89771 0.59893 0.27139 0.0
C85 C 0.70274 0.70935 0.21621 0.0
C86 C 0.6778 0.84224 0.36268 0.0
C87 C 0.77683 0.47045 0.27345 0.0
O88 O 0.64368 0.84592 0.30847 0.0
O89 O 0.63395 0.76194 0.27506 0.0
O90 O 0.82018 0.62437 0.3293 0.0
O91 O 0.76102 0.71297 0.34903 0.0
O92 O 0.83924 0.62088 0.2062 0.0
O93 O 0.83959 0.77123 0.21719 0.0
O94 O 0.74771 0.91736 0.30592 0.0
O95 O 0.71717 0.90366 0.26848 0.0
Co96 Co 0.96851 0.39787 0.48876 0.0
Co97 Co 0.06561 0.49871 0.51719 0.0
Co98 Co 0.97028 0.42205 0.54514 0.0
H99 H 0.97737 0.4365 0.51676 0.0
O100 O 0.99051 0.49618 0.51154 0.0
H101 H 0.05701 0.49503 0.54594 0.0
O102 O 0.04502 0.43476 0.55164 0.0
Co103 Co 0.06208 0.54183 0.57356 0.0
O104 O 0.13066 0.59686 0.55834 0.0
O105 O 0.1405 0.51326 0.52487 0.0
O106 O 0.01457 0.46038 0.59909 0.0
O107 O 0.95478 0.37345 0.57936 0.0
O108 O 0.93634 0.37229 0.45591 0.0
O109 O 0.93505 0.52154 0.46752 0.0
O110 O 0.02595 0.66574 0.55602 0.0
O111 O 0.0568 0.65364 0.51857 0.0
C112 C 0.87724 0.34674 0.52161 0.0
C113 C 0.07153 0.46064 0.46606 0.0
C114 C 0.09693 0.59192 0.61264 0.0
C115 C 0.99729 0.21943 0.52351 0.0
C116 C 0.15762 0.57212 0.54035 0.0
C117 C 0.97553 0.39906 0.59874 0.0
C118 C 0.92284 0.46592 0.45108 0.0
C119 C 0.03574 0.7053 0.53444 0.0
O120 O 0.90275 0.32807 0.50276 0.0
O121 O 0.89533 0.40216 0.53754 0.0
O122 O 0.08202 0.52566 0.48147 0.0
O123 O 0.03439 0.39495 0.46889 0.0
O124 O 0.07725 0.65511 0.59628 0.0
O125 O 0.09682 0.49972 0.60706 0.0
O126 O 0.99694 0.2586 0.50144 0.0
O127 O 0.98519 0.27101 0.54118 0.0
Co128 Co 0.21246 0.79225 0.82348 0.0
Co129 Co 0.30427 0.67257 0.79506 0.0
Co130 Co 0.20882 0.74874 0.76718 0.0
H131 H 0.2175 0.74512 0.79591 0.0
O132 O 0.22953 0.68491 0.80162 0.0
H133 H 0.29704 0.68662 0.76668 0.0
O134 O 0.28389 0.74626 0.76144 0.0
Co135 Co 0.30567 0.64764 0.73869 0.0
O136 O 0.37197 0.57966 0.75254 0.0
O137 O 0.37924 0.65338 0.78738 0.0
O138 O 0.23951 0.64387 0.71908 0.0
O139 O 0.19231 0.7755 0.7315 0.0
O140 O 0.19762 0.90627 0.84605 0.0
O141 O 0.17702 0.75145 0.85687 0.0
O142 O 0.27748 0.50838 0.7515 0.0
O143 O 0.28972 0.52123 0.79118 0.0
C144 C 0.11696 0.82261 0.79032 0.0
C145 C 0.2989 0.64939 0.8487 0.0
C146 C 0.351 0.71441 0.70082 0.0
C147 C 0.23917 0.95509 0.78433 0.0
C148 C 0.39751 0.59872 0.77134 0.0
C149 C 0.2025 0.70983 0.7162 0.0
C150 C 0.17736 0.84375 0.86238 0.0
C151 C 0.27752 0.46935 0.77358 0.0
O152 O 0.14398 0.84764 0.80824 0.0
O153 O 0.13397 0.76324 0.77492 0.0
O154 O 0.3199 0.62441 0.8293 0.0
O155 O 0.25965 0.71024 0.84905 0.0
O156 O 0.33712 0.62106 0.70575 0.0
O157 O 0.33934 0.77046 0.71726 0.0
O158 O 0.24925 0.9152 0.80586 0.0
O159 O 0.21765 0.90373 0.76854 0.0
Co160 Co 0.71277 0.29341 0.82333 0.0
Co161 Co 0.80442 0.17293 0.79498 0.0
Co162 Co 0.709 0.24903 0.76708 0.0
H163 H 0.71769 0.24579 0.79581 0.0
O164 O 0.72967 0.18558 0.80155 0.0
H165 H 0.79723 0.18678 0.7666 0.0
O166 O 0.78406 0.24635 0.76134 0.0
Co167 Co 0.80607 0.14767 0.73865 0.0
O168 O 0.87222 0.07947 0.75255 0.0
O169 O 0.8794 0.15364 0.78733 0.0
O170 O 0.73996 0.14395 0.719 0.0
O171 O 0.6925 0.27532 0.73139 0.0
O172 O 0.69724 0.4069 0.84597 0.0
O173 O 0.67784 0.25153 0.85682 0.0
O174 O 0.77817 0.00824 0.75143 0.0
O175 O 0.78991 0.02147 0.79114 0.0
C176 C 0.61722 0.32368 0.79018 0.0
C177 C 0.79975 0.15214 0.84857 0.0
C178 C 0.85209 0.21368 0.70094 0.0
C179 C 0.73983 0.4553 0.78403 0.0
C180 C 0.89769 0.09868 0.77136 0.0
C181 C 0.70285 0.20964 0.71612 0.0
C182 C 0.67756 0.34379 0.86236 0.0
C183 C 0.77807 0.96935 0.77352 0.0
O184 O 0.64431 0.34885 0.80807 0.0
O185 O 0.63416 0.26401 0.77482 0.0
O186 O 0.82005 0.1251 0.82921 0.0
O187 O 0.76086 0.21387 0.84888 0.0
O188 O 0.83883 0.12007 0.70607 0.0
O189 O 0.83939 0.27045 0.71708 0.0
O190 O 0.74987 0.41562 0.80557 0.0
O191 O 0.71804 0.40399 0.7683 0.0
Co192 Co 0.46862 0.89809 0.48866 0.0
Co193 Co 0.5657 -0.00167 0.51726 0.0
Co194 Co 0.4701 0.92231 0.54505 0.0
H195 H 0.47737 0.93667 0.51667 0.0
O196 O 0.49063 -0.00373 0.51148 0.0
H197 H 0.55693 -0.00541 0.54599 0.0
O198 O 0.54482 0.9344 0.55167 0.0
Co199 Co 0.56196 0.04134 0.57361 0.0
O200 O 0.63076 0.09578 0.5585 0.0
O201 O 0.64058 0.01221 0.52503 0.0
O202 O 0.51381 0.96113 0.59907 0.0
O203 O 0.45429 0.87388 0.57924 0.0
O204 O 0.43708 0.87243 0.45567 0.0
O205 O 0.43491 0.02141 0.46738 0.0
O206 O 0.52609 0.16559 0.55608 0.0
O207 O 0.55708 0.15338 0.51866 0.0
C208 C 0.37701 0.84813 0.52138 0.0
C209 C 0.57198 0.96 0.46622 0.0
C210 C 0.5971 0.09091 0.61267 0.0
C211 C 0.49689 0.71939 0.52346 0.0
C212 C 0.65775 0.07083 0.54055 0.0
C213 C 0.47473 0.89992 0.59866 0.0
C214 C 0.4232 0.96584 0.45086 0.0
C215 C 0.536 0.20515 0.53451 0.0
O216 O 0.40256 0.82919 0.50256 0.0
O217 O 0.39516 0.90324 0.53735 0.0
O218 O 0.58234 0.02524 0.48159 0.0
O219 O 0.53477 0.89448 0.46901 0.0
O220 O 0.5771 0.1542 0.59643 0.0
O221 O 0.59714 -0.00114 0.60699 0.0
O222 O 0.49678 0.75861 0.50139 0.0
O223 O 0.48473 0.77106 0.54111 0.0
Co224 Co 0.46858 0.39743 0.9886 0.0
Co225 Co 0.56564 0.49874 1.01714 0.0
Co226 Co 0.47022 0.42199 0.045 0.0
H227 H 0.47743 0.43612 1.01661 0.0
O228 O 0.49058 0.49577 1.01139 0.0
H229 H 0.55697 0.49471 0.04588 0.0
O230 O 0.54497 0.43441 0.05155 0.0
Co231 Co 0.56195 0.54144 0.07352 0.0
O232 O 0.63026 0.59796 0.05826 0.0
O233 O 0.64046 0.514 1.02488 0.0
O234 O 0.51442 0.46001 0.09905 0.0
O235 O 0.45455 0.37367 0.07923 0.0
O236 O 0.43567 0.37004 0.95602 0.0
O237 O 0.43526 0.52036 0.96704 0.0
O238 O 0.52434 0.6635 0.05595 0.0
O239 O 0.5563 0.65345 1.01863 0.0
C240 C 0.37712 0.34748 1.02142 0.0
C241 C 0.57178 0.46105 0.96602 0.0
C242 C 0.59727 0.59107 0.11258 0.0
C243 C 0.49617 0.21843 1.02346 0.0
C244 C 0.65734 0.57341 0.0403 0.0
C245 C 0.47527 0.39897 0.09864 0.0
C246 C 0.42243 0.46367 0.9509 0.0
C247 C 0.5343 0.70396 0.03446 0.0
O248 O 0.40261 0.32851 1.00259 0.0
O249 O 0.39527 0.40275 0.03736 0.0
O250 O 0.58215 0.52609 0.98144 0.0
O251 O 0.53464 0.39533 0.9688 0.0
O252 O 0.57726 0.65434 0.09633 0.0
O253 O 0.59727 0.49905 0.10688 0.0
O254 O 0.49584 0.25728 1.00136 0.0
O255 O 0.48472 0.27069 0.0411 0.0
C256 C 0.13188 0.15201 0.15393 0.0
C257 C 0.11637 0.12327 0.13507 0.0
C258 C 0.15125 0.18488 0.17591 0.0
C259 C 0.17131 0.20508 0.19464 0.0
C260 C 0.92981 0.82444 0.13964 0.0
C261 C 0.95162 0.86016 0.12126 0.0
C262 C 0.90281 0.78467 0.16091 0.0
C263 C 0.87982 0.75221 0.17922 0.0
C264 C 0.12321 0.43508 0.42598 0.0
C265 C 0.10316 0.45531 0.44473 0.0
C266 C 0.14261 0.40218 0.404 0.0
C267 C 0.15818 0.37346 0.38514 0.0
C268 C 0.84599 0.57756 0.38968 0.0
C269 C 0.82397 0.61267 0.37132 0.0
C270 C 0.87298 0.53775 0.41094 0.0
C271 C 0.89575 0.50467 0.42925 0.0
C272 C 0.13111 0.65058 0.65434 0.0
C273 C 0.11576 0.62196 0.63545 0.0
C274 C 0.15049 0.6836 0.6763 0.0
C275 C 0.17071 0.70417 0.69496 0.0
C276 C 0.90268 0.28368 0.66088 0.0
C277 C 0.87958 0.25121 0.67914 0.0
C278 C 0.92988 0.32362 0.63971 0.0
C279 C 0.9518 0.35958 0.62139 0.0
C280 C 0.14295 0.90341 0.90396 0.0
C281 C 0.15842 0.87452 0.88511 0.0
C282 C 0.12355 0.93625 0.92593 0.0
C283 C 0.10341 0.95633 0.94466 0.0
C284 C 0.84591 0.07862 0.88953 0.0
C285 C 0.82379 0.11372 0.87121 0.0
C286 C 0.87311 0.03888 0.91072 0.0
C287 C 0.89598 0.00586 0.929 0.0
C288 C 0.6509 0.18275 0.67624 0.0
C289 C 0.67108 0.20361 0.69489 0.0
C290 C 0.63153 0.14944 0.65433 0.0
C291 C 0.61609 0.12072 0.63547 0.0
C292 C 0.42843 0.82519 0.63952 0.0
C293 C 0.45065 0.86085 0.62126 0.0
C294 C 0.40114 0.78515 0.66067 0.0
C295 C 0.37823 0.75232 0.67897 0.0
C296 C 0.62381 0.43539 0.92604 0.0
C297 C 0.6036 0.45568 0.94475 0.0
C298 C 0.64323 0.40255 0.90406 0.0
C299 C 0.65866 0.37395 0.88517 0.0
C300 C 0.37167 0.53379 0.91088 0.0
C301 C 0.39485 0.50131 0.92912 0.0
C302 C 0.34445 0.57374 0.8897 0.0
C303 C 0.32257 0.60977 0.87137 0.0
C304 C 0.63159 0.64935 0.15431 0.0
C305 C 0.61619 0.62081 0.13541 0.0
C306 C 0.65089 0.68245 0.17628 0.0
C307 C 0.67099 0.70323 0.19496 0.0
C308 C 0.40233 0.28299 0.16075 0.0
C309 C 0.37934 0.2504 0.17903 0.0
C310 C 0.42947 0.32317 0.13956 0.0
C311 C 0.45145 0.35928 0.12127 0.0
C312 C 0.62411 0.93377 0.42634 0.0
C313 C 0.60385 0.95428 0.445 0.0
C314 C 0.64354 0.90079 0.40438 0.0
C315 C 0.65893 0.8722 0.38549 0.0
C316 C 0.37317 0.03736 0.41073 0.0
C317 C 0.39602 0.00431 0.42902 0.0
C318 C 0.34595 0.07733 0.38954 0.0
C319 C 0.32377 0.11271 0.37124 0.0
C320 C 0.01293 0.51664 1.02853 0.0
C321 C 1.0051 0.60922 1.02771 0.0
C322 C 0.02079 0.40844 1.02808 0.0
C323 C 0.02847 0.31568 1.02929 0.0
C324 C 0.25119 0.6599 0.27795 0.0
C325 C 0.24433 0.56697 0.27901 0.0
C326 C 0.25957 0.76761 0.27872 0.0
C327 C 0.26894 0.85942 0.27816 0.0
C328 C 0.75106 0.15996 0.27796 0.0
C329 C 0.74385 0.06705 0.27906 0.0
C330 C 0.75907 0.26803 0.27861 0.0
C331 C 0.76754 0.36036 0.27793 0.0
C332 C 0.02222 0.90887 0.52828 0.0
C333 C 0.02953 0.81605 0.52938 0.0
C334 C 0.01446 0.01695 0.52887 0.0
C335 C 1.00632 0.10937 0.52809 0.0
C336 C 0.25284 0.15868 0.7783 0.0
C337 C 0.24543 0.06589 0.77934 0.0
C338 C 0.26064 0.26674 0.77896 0.0
C339 C 0.26868 0.35922 0.77821 0.0
C340 C 0.75412 0.65863 0.77793 0.0
C341 C 0.7464 0.56597 0.77895 0.0
C342 C 0.76188 0.76659 0.77874 0.0
C343 C 0.76959 0.85911 0.77813 0.0
C344 C 0.51423 0.51685 0.52885 0.0
C345 C 0.506 0.60929 0.52806 0.0
C346 C 0.52223 0.40875 0.5283 0.0
C347 C 0.52967 0.31593 0.52942 0.0
C348 C 0.51963 0.90729 1.02842 0.0
C349 C 0.52746 0.81463 1.02954 0.0
C350 C 0.51196 0.01546 1.02894 0.0
C351 C 0.50446 0.10813 1.02811 0.0
C352 C 0.28973 0.24176 1.02926 0.0
C353 C 0.32934 0.29171 1.02646 0.0
C354 C 0.24511 0.17765 0.03252 0.0
C355 C 0.20562 0.12719 0.03523 0.0
C356 C 0.78907 0.74457 1.02897 0.0
C357 C 0.82891 0.79384 1.0262 0.0
C358 C 0.74435 0.68068 0.0323 0.0
C359 C 0.70503 0.6297 0.03515 0.0
C360 C 0.0302 0.43047 0.28225 0.0
C361 C 0.06948 0.37938 0.28504 0.0
C362 C 0.98555 0.49456 0.27901 0.0
C363 C 0.94574 0.54389 0.27631 0.0
C364 C 0.28945 0.7428 0.52917 0.0
C365 C 0.32914 0.79253 0.52638 0.0
C366 C 0.24482 0.6787 0.53247 0.0
C367 C 0.20542 0.62795 0.53524 0.0
C368 C 0.78986 0.24078 0.52946 0.0
C369 C 0.82947 0.2908 0.52664 0.0
C370 C 0.7452 0.17671 0.53275 0.0
C371 C 0.70569 0.12629 0.53548 0.0
C372 C 0.98539 -0.00607 0.77907 0.0
C373 C 0.94564 0.04346 0.77634 0.0
C374 C 0.02997 0.92972 0.78234 0.0
C375 C 0.06926 0.87868 0.78514 0.0
C376 C 0.53013 0.43057 0.7822 0.0
C377 C 0.56947 0.37966 0.78502 0.0
C378 C 0.48542 0.49448 0.77894 0.0
C379 C 0.44557 0.54371 0.77623 0.0
C380 C 0.52915 0.92603 0.28273 0.0
C381 C 0.56871 0.87581 0.28548 0.0
C382 C 0.48448 -0.00998 0.27938 0.0
C383 C 0.44495 0.04025 0.27651 0.0
loop_
_geom_bond_atom_site_label_1
_geom_bond_atom_site_label_2
_geom_bond_distance
_geom_bond_site_symmetry_2
_ccdc_geom_bond_type
Co0 H3 2.400 1_565 S
Co0 O4 2.009 1_565 S
Co0 O12 2.115 . S
Co0 O13 2.315 1_565 S
Co0 O24 2.053 . S
Co0 O27 2.094 1_655 S
Co0 O30 2.122 . S
Co1 O4 2.126 1_455 S
Co1 H5 2.388 1_546 S
Co1 O6 2.053 1_546 S
Co1 O9 2.047 . S
Co1 O15 2.113 . S
Co1 O26 2.063 . S
Co2 H3 2.388 1_564 S
Co2 O4 2.053 1_564 S
Co2 O6 2.126 1_655 S
Co2 O11 2.063 . S
Co2 O25 2.047 . S
Co2 O31 2.113 . S
H3 Co0 2.400 1_545 S
H3 Co2 2.388 1_546 S
H3 O4 0.760 . S
O4 Co0 2.009 1_545 S
O4 Co1 2.126 1_655 S
O4 Co2 2.053 1_546 S
O4 H3 0.760 . S
H5 Co1 2.388 1_564 S
H5 O6 0.760 . S
H5 Co7 2.400 1_565 S
O6 Co1 2.053 1_564 S
O6 Co2 2.126 1_455 S
O6 H5 0.760 . S
O6 Co7 2.009 1_565 S
Co7 H5 2.400 1_545 S
Co7 O6 2.009 1_545 S
Co7 O8 2.053 . S
Co7 O10 2.094 1_455 S
Co7 O14 2.122 . S
Co7 O28 2.115 . S
Co7 O29 2.315 1_545 S
O8 Co7 2.053 . S
O8 C20 1.259 . S
O9 Co1 2.047 . S
O9 C20 1.257 1_556 S
O10 Co7 2.094 1_655 S
O10 C21 1.253 1_545 S
O11 Co2 2.063 . S
O11 C21 1.268 . S
O12 Co0 2.115 . S
O12 C22 1.281 . S
O13 Co0 2.315 1_545 S
O13 C22 1.252 1_545 S
O14 Co7 2.122 . S
O14 C23 1.272 . S
O15 Co1 2.113 . S
O15 C23 1.245 1_556 S
C16 O24 1.259 . S
C16 O25 1.257 1_556 S
C17 O26 1.268 . S
C17 O27 1.253 1_545 S
C18 O28 1.281 . S
C18 O29 1.252 1_545 S
C19 O30 1.272 . S
C19 O31 1.245 1_556 S
C20 O8 1.259 . S
C20 O9 1.257 1_554 S
C21 O10 1.253 1_565 S
C21 O11 1.268 . S
C22 O12 1.281 . S
C22 O13 1.252 1_565 S
C23 O14 1.272 . S
C23 O15 1.245 1_554 S
O24 Co0 2.053 . S
O24 C16 1.259 . S
O25 Co2 2.047 . S
O25 C16 1.257 1_554 S
O26 Co1 2.063 . S
O26 C17 1.268 . S
O27 Co0 2.094 1_455 S
O27 C17 1.253 1_565 S
O28 Co7 2.115 . S
O28 C18 1.281 . S
O29 Co7 2.315 1_565 S
O29 C18 1.252 1_565 S
O30 Co0 2.122 . S
O30 C19 1.272 . S
O31 Co2 2.113 . S
O31 C19 1.245 1_554 S
Co32 H35 2.400 . S
Co32 O36 2.009 . S
Co32 O44 2.115 . S
Co32 O45 2.315 . S
Co32 O56 2.053 . S
Co32 O59 2.094 . S
Co32 O62 2.122 . S
Co33 O36 2.126 . S
Co33 H37 2.388 . S
Co33 O38 2.053 . S
Co33 O41 2.047 . S
Co33 O47 2.113 . S
Co33 O58 2.063 . S
Co34 H35 2.388 . S
Co34 O36 2.053 . S
Co34 O38 2.126 . S
Co34 O43 2.063 . S
Co34 O57 2.047 . S
Co34 O63 2.113 . S
H35 Co32 2.400 . S
H35 Co34 2.388 . S
H35 O36 0.760 . S
O36 Co32 2.009 . S
O36 Co33 2.126 . S
O36 Co34 2.053 . S
O36 H35 0.760 . S
H37 Co33 2.388 . S
H37 O38 0.760 . S
H37 Co39 2.400 . S
O38 Co33 2.053 . S
O38 Co34 2.126 . S
O38 H37 0.760 . S
O38 Co39 2.009 . S
Co39 H37 2.400 . S
Co39 O38 2.009 . S
Co39 O40 2.053 . S
Co39 O42 2.094 . S
Co39 O46 2.122 . S
Co39 O60 2.115 . S
Co39 O61 2.315 . S
O40 Co39 2.053 . S
O40 C52 1.259 . S
O41 Co33 2.047 . S
O41 C52 1.257 . S
O42 Co39 2.094 . S
O42 C53 1.253 . S
O43 Co34 2.063 . S
O43 C53 1.268 . S
O44 Co32 2.115 . S
O44 C54 1.281 . S
O45 Co32 2.315 . S
O45 C54 1.252 . S
O46 Co39 2.122 . S
O46 C55 1.272 1_545 S
O47 Co33 2.113 . S
O47 C55 1.245 1_545 S
C48 O56 1.259 . S
C48 O57 1.257 . S
C49 O58 1.268 . S
C49 O59 1.253 . S
C50 O60 1.281 . S
C50 O61 1.252 . S
C51 O62 1.272 . S
C51 O63 1.245 . S
C52 O40 1.259 . S
C52 O41 1.257 . S
C53 O42 1.253 . S
C53 O43 1.268 . S
C54 O44 1.281 . S
C54 O45 1.252 . S
C55 O46 1.272 1_565 S
C55 O47 1.245 1_565 S
O56 Co32 2.053 . S
O56 C48 1.259 . S
O57 Co34 2.047 . S
O57 C48 1.257 . S
O58 Co33 2.063 . S
O58 C49 1.268 . S
O59 Co32 2.094 . S
O59 C49 1.253 . S
O60 Co39 2.115 . S
O60 C50 1.281 . S
O61 Co39 2.315 . S
O61 C50 1.252 . S
O62 Co32 2.122 . S
O62 C51 1.272 . S
O63 Co34 2.113 . S
O63 C51 1.245 . S
Co64 H67 2.400 . S
Co64 O68 2.009 . S
Co64 O76 2.115 . S
Co64 O77 2.315 . S
Co64 O88 2.053 . S
Co64 O91 2.094 . S
Co64 O94 2.122 . S
Co65 O68 2.126 . S
Co65 H69 2.388 . S
Co65 O70 2.053 . S
Co65 O73 2.047 . S
Co65 O79 2.113 . S
Co65 O90 2.063 . S
Co66 H67 2.388 . S
Co66 O68 2.053 . S
Co66 O70 2.126 . S
Co66 O75 2.063 . S
Co66 O89 2.047 . S
Co66 O95 2.113 . S
H67 Co64 2.400 . S
H67 Co66 2.388 . S
H67 O68 0.760 . S
O68 Co64 2.009 . S
O68 Co65 2.126 . S
O68 Co66 2.053 . S
O68 H67 0.760 . S
H69 Co65 2.388 . S
H69 O70 0.760 . S
H69 Co71 2.400 . S
O70 Co65 2.053 . S
O70 Co66 2.126 . S
O70 H69 0.760 . S
O70 Co71 2.009 . S
Co71 H69 2.400 . S
Co71 O70 2.009 . S
Co71 O72 2.053 . S
Co71 O74 2.094 . S
Co71 O78 2.122 . S
Co71 O92 2.115 . S
Co71 O93 2.315 . S
O72 Co71 2.053 . S
O72 C84 1.259 . S
O73 Co65 2.047 . S
O73 C84 1.257 . S
O74 Co71 2.094 . S
O74 C85 1.253 . S
O75 Co66 2.063 . S
O75 C85 1.268 . S
O76 Co64 2.115 . S
O76 C86 1.281 . S
O77 Co64 2.315 . S
O77 C86 1.252 . S
O78 Co71 2.122 . S
O78 C87 1.272 . S
O79 Co65 2.113 . S
O79 C87 1.245 . S
C80 O88 1.259 . S
C80 O89 1.257 . S
C81 O90 1.268 . S
C81 O91 1.253 . S
C82 O92 1.281 . S
C82 O93 1.252 . S
C83 O94 1.272 1_545 S
C83 O95 1.245 1_545 S
C84 O72 1.259 . S
C84 O73 1.257 . S
C85 O74 1.253 . S
C85 O75 1.268 . S
C86 O76 1.281 . S
C86 O77 1.252 . S
C87 O78 1.272 . S
C87 O79 1.245 . S
O88 Co64 2.053 . S
O88 C80 1.259 . S
O89 Co66 2.047 . S
O89 C80 1.257 . S
O90 Co65 2.063 . S
O90 C81 1.268 . S
O91 Co64 2.094 . S
O91 C81 1.253 . S
O92 Co71 2.115 . S
O92 C82 1.281 . S
O93 Co71 2.315 . S
O93 C82 1.252 . S
O94 Co64 2.122 . S
O94 C83 1.272 1_565 S
O95 Co66 2.113 . S
O95 C83 1.245 1_565 S
Co96 H99 2.400 . S
Co96 O100 2.009 . S
Co96 O108 2.115 . S
Co96 O109 2.315 . S
Co96 O120 2.053 . S
Co96 O123 2.094 1_655 S
Co96 O126 2.122 . S
Co97 O100 2.126 1_455 S
Co97 H101 2.388 . S
Co97 O102 2.053 . S
Co97 O105 2.047 . S
Co97 O111 2.113 . S
Co97 O122 2.063 . S
Co98 H99 2.388 . S
Co98 O100 2.053 . S
Co98 O102 2.126 1_655 S
Co98 O107 2.063 . S
Co98 O121 2.047 . S
Co98 O127 2.113 . S
H99 Co96 2.400 . S
H99 Co98 2.388 . S
H99 O100 0.760 . S
O100 Co96 2.009 . S
O100 Co97 2.126 1_655 S
O100 Co98 2.053 . S
O100 H99 0.760 . S
H101 Co97 2.388 . S
H101 O102 0.760 . S
H101 Co103 2.400 . S
O102 Co97 2.053 . S
O102 Co98 2.126 1_455 S
O102 H101 0.760 . S
O102 Co103 2.009 . S
Co103 H101 2.400 . S
Co103 O102 2.009 . S
Co103 O104 2.053 . S
Co103 O106 2.094 1_455 S
Co103 O110 2.122 . S
Co103 O124 2.115 . S
Co103 O125 2.315 . S
O104 Co103 2.053 . S
O104 C116 1.259 . S
O105 Co97 2.047 . S
O105 C116 1.257 . S
O106 Co103 2.094 1_655 S
O106 C117 1.253 . S
O107 Co98 2.063 . S
O107 C117 1.268 . S
O108 Co96 2.115 . S
O108 C118 1.281 . S
O109 Co96 2.315 . S
O109 C118 1.252 . S
O110 Co103 2.122 . S
O110 C119 1.272 . S
O111 Co97 2.113 . S
O111 C119 1.245 . S
C112 O120 1.259 . S
C112 O121 1.257 . S
C113 O122 1.268 . S
C113 O123 1.253 . S
C114 O124 1.281 . S
C114 O125 1.252 . S
C115 O126 1.272 . S
C115 O127 1.245 . S
C116 O104 1.259 . S
C116 O105 1.257 . S
C117 O106 1.253 . S
C117 O107 1.268 . S
C118 O108 1.281 . S
C118 O109 1.252 . S
C119 O110 1.272 . S
C119 O111 1.245 . S
O120 Co96 2.053 . S
O120 C112 1.259 . S
O121 Co98 2.047 . S
O121 C112 1.257 . S
O122 Co97 2.063 . S
O122 C113 1.268 . S
O123 Co96 2.094 1_455 S
O123 C113 1.253 . S
O124 Co103 2.115 . S
O124 C114 1.281 . S
O125 Co103 2.315 . S
O125 C114 1.252 . S
O126 Co96 2.122 . S
O126 C115 1.272 . S
O127 Co98 2.113 . S
O127 C115 1.245 . S
Co128 H131 2.400 . S
Co128 O132 2.009 . S
Co128 O140 2.115 . S
Co128 O141 2.315 . S
Co128 O152 2.053 . S
Co128 O155 2.094 . S
Co128 O158 2.122 . S
Co129 O132 2.126 . S
Co129 H133 2.388 . S
Co129 O134 2.053 . S
Co129 O137 2.047 . S
Co129 O143 2.113 . S
Co129 O154 2.063 . S
Co130 H131 2.388 . S
Co130 O132 2.053 . S
Co130 O134 2.126 . S
Co130 O139 2.063 . S
Co130 O153 2.047 . S
Co130 O159 2.113 . S
H131 Co128 2.400 . S
H131 Co130 2.388 . S
H131 O132 0.760 . S
O132 Co128 2.009 . S
O132 Co129 2.126 . S
O132 Co130 2.053 . S
O132 H131 0.760 . S
H133 Co129 2.388 . S
H133 O134 0.760 . S
H133 Co135 2.400 . S
O134 Co129 2.053 . S
O134 Co130 2.126 . S
O134 H133 0.760 . S
O134 Co135 2.009 . S
Co135 H133 2.400 . S
Co135 O134 2.009 . S
Co135 O136 2.053 . S
Co135 O138 2.094 . S
Co135 O142 2.122 . S
Co135 O156 2.115 . S
Co135 O157 2.315 . S
O136 Co135 2.053 . S
O136 C148 1.259 . S
O137 Co129 2.047 . S
O137 C148 1.257 . S
O138 Co135 2.094 . S
O138 C149 1.253 . S
O139 Co130 2.063 . S
O139 C149 1.268 . S
O140 Co128 2.115 . S
O140 C150 1.281 . S
O141 Co128 2.315 . S
O141 C150 1.252 . S
O142 Co135 2.122 . S
O142 C151 1.272 . S
O143 Co129 2.113 . S
O143 C151 1.245 . S
C144 O152 1.259 . S
C144 O153 1.257 . S
C145 O154 1.268 . S
C145 O155 1.253 . S
C146 O156 1.281 . S
C146 O157 1.252 . S
C147 O158 1.272 1_545 S
C147 O159 1.245 1_545 S
C148 O136 1.259 . S
C148 O137 1.257 . S
C149 O138 1.253 . S
C149 O139 1.268 . S
C150 O140 1.281 . S
C150 O141 1.252 . S
C151 O142 1.272 . S
C151 O143 1.245 . S
O152 Co128 2.053 . S
O152 C144 1.259 . S
O153 Co130 2.047 . S
O153 C144 1.257 . S
O154 Co129 2.063 . S
O154 C145 1.268 . S
O155 Co128 2.094 . S
O155 C145 1.253 . S
O156 Co135 2.115 . S
O156 C146 1.281 . S
O157 Co135 2.315 . S
O157 C146 1.252 . S
O158 Co128 2.122 . S
O158 C147 1.272 1_565 S
O159 Co130 2.113 . S
O159 C147 1.245 1_565 S
Co160 H163 2.400 . S
Co160 O164 2.009 . S
Co160 O172 2.115 . S
Co160 O173 2.315 . S
Co160 O184 2.053 . S
Co160 O187 2.094 . S
Co160 O190 2.122 . S
Co161 O164 2.126 . S
Co161 H165 2.388 . S
Co161 O166 2.053 . S
Co161 O169 2.047 . S
Co161 O175 2.113 . S
Co161 O186 2.063 . S
Co162 H163 2.388 . S
Co162 O164 2.053 . S
Co162 O166 2.126 . S
Co162 O171 2.063 . S
Co162 O185 2.047 . S
Co162 O191 2.113 . S
H163 Co160 2.400 . S
H163 Co162 2.388 . S
H163 O164 0.760 . S
O164 Co160 2.009 . S
O164 Co161 2.126 . S
O164 Co162 2.053 . S
O164 H163 0.760 . S
H165 Co161 2.388 . S
H165 O166 0.760 . S
H165 Co167 2.400 . S
O166 Co161 2.053 . S
O166 Co162 2.126 . S
O166 H165 0.760 . S
O166 Co167 2.009 . S
Co167 H165 2.400 . S
Co167 O166 2.009 . S
Co167 O168 2.053 . S
Co167 O170 2.094 . S
Co167 O174 2.122 . S
Co167 O188 2.115 . S
Co167 O189 2.315 . S
O168 Co167 2.053 . S
O168 C180 1.259 . S
O169 Co161 2.047 . S
O169 C180 1.257 . S
O170 Co167 2.094 . S
O170 C181 1.253 . S
O171 Co162 2.063 . S
O171 C181 1.268 . S
O172 Co160 2.115 . S
O172 C182 1.281 . S
O173 Co160 2.315 . S
O173 C182 1.252 . S
O174 Co167 2.122 . S
O174 C183 1.272 1_545 S
O175 Co161 2.113 . S
O175 C183 1.245 1_545 S
C176 O184 1.259 . S
C176 O185 1.257 . S
C177 O186 1.268 . S
C177 O187 1.253 . S
C178 O188 1.281 . S
C178 O189 1.252 . S
C179 O190 1.272 . S
C179 O191 1.245 . S
C180 O168 1.259 . S
C180 O169 1.257 . S
C181 O170 1.253 . S
C181 O171 1.268 . S
C182 O172 1.281 . S
C182 O173 1.252 . S
C183 O174 1.272 1_565 S
C183 O175 1.245 1_565 S
O184 Co160 2.053 . S
O184 C176 1.259 . S
O185 Co162 2.047 . S
O185 C176 1.257 . S
O186 Co161 2.063 . S
O186 C177 1.268 . S
O187 Co160 2.094 . S
O187 C177 1.253 . S
O188 Co167 2.115 . S
O188 C178 1.281 . S
O189 Co167 2.315 . S
O189 C178 1.252 . S
O190 Co160 2.122 . S
O190 C179 1.272 . S
O191 Co162 2.113 . S
O191 C179 1.245 . S
Co192 H195 2.400 1_565 S
Co192 O196 2.009 1_565 S
Co192 O204 2.115 . S
Co192 O205 2.315 1_565 S
Co192 O216 2.053 . S
Co192 O219 2.094 . S
Co192 O222 2.122 . S
Co193 O196 2.126 . S
Co193 H197 2.388 1_545 S
Co193 O198 2.053 1_545 S
Co193 O201 2.047 . S
Co193 O207 2.113 . S
Co193 O218 2.063 . S
Co194 H195 2.388 1_565 S
Co194 O196 2.053 1_565 S
Co194 O198 2.126 . S
Co194 O203 2.063 . S
Co194 O217 2.047 . S
Co194 O223 2.113 . S
H195 Co192 2.400 1_545 S
H195 Co194 2.388 1_545 S
H195 O196 0.760 . S
O196 Co192 2.009 1_545 S
O196 Co193 2.126 . S
O196 Co194 2.053 1_545 S
O196 H195 0.760 . S
H197 Co193 2.388 1_565 S
H197 O198 0.760 . S
H197 Co199 2.400 1_565 S
O198 Co193 2.053 1_565 S
O198 Co194 2.126 . S
O198 H197 0.760 . S
O198 Co199 2.009 1_565 S
Co199 H197 2.400 1_545 S
Co199 O198 2.009 1_545 S
Co199 O200 2.053 . S
Co199 O202 2.094 . S
Co199 O206 2.122 . S
Co199 O220 2.115 . S
Co199 O221 2.315 1_545 S
O200 Co199 2.053 . S
O200 C212 1.259 . S
O201 Co193 2.047 . S
O201 C212 1.257 . S
O202 Co199 2.094 . S
O202 C213 1.253 1_545 S
O203 Co194 2.063 . S
O203 C213 1.268 . S
O204 Co192 2.115 . S
O204 C214 1.281 . S
O205 Co192 2.315 1_545 S
O205 C214 1.252 1_545 S
O206 Co199 2.122 . S
O206 C215 1.272 . S
O207 Co193 2.113 . S
O207 C215 1.245 . S
C208 O216 1.259 . S
C208 O217 1.257 . S
C209 O218 1.268 . S
C209 O219 1.253 1_545 S
C210 O220 1.281 . S
C210 O221 1.252 1_545 S
C211 O222 1.272 . S
C211 O223 1.245 . S
C212 O200 1.259 . S
C212 O201 1.257 . S
C213 O202 1.253 1_565 S
C213 O203 1.268 . S
C214 O204 1.281 . S
C214 O205 1.252 1_565 S
C215 O206 1.272 . S
C215 O207 1.245 . S
O216 Co192 2.053 . S
O216 C208 1.259 . S
O217 Co194 2.047 . S
O217 C208 1.257 . S
O218 Co193 2.063 . S
O218 C209 1.268 . S
O219 Co192 2.094 . S
O219 C209 1.253 1_565 S
O220 Co199 2.115 . S
O220 C210 1.281 . S
O221 Co199 2.315 1_565 S
O221 C210 1.252 1_565 S
O222 Co192 2.122 . S
O222 C211 1.272 . S
O223 Co194 2.113 . S
O223 C211 1.245 . S
Co224 H227 2.400 . S
Co224 O228 2.009 . S
Co224 O236 2.115 . S
Co224 O237 2.315 . S
Co224 O248 2.053 . S
Co224 O251 2.094 . S
Co224 O254 2.122 . S
Co225 O228 2.126 . S
Co225 H229 2.388 1_556 S
Co225 O230 2.053 1_556 S
Co225 O233 2.047 . S
Co225 O239 2.113 . S
Co225 O250 2.063 . S
Co226 H227 2.388 1_554 S
Co226 O228 2.053 1_554 S
Co226 O230 2.126 . S
Co226 O235 2.063 . S
Co226 O249 2.047 . S
Co226 O255 2.113 . S
H227 Co224 2.400 . S
H227 Co226 2.388 1_556 S
H227 O228 0.760 . S
O228 Co224 2.009 . S
O228 Co225 2.126 . S
O228 Co226 2.053 1_556 S
O228 H227 0.760 . S
H229 Co225 2.388 1_554 S
H229 O230 0.760 . S
H229 Co231 2.400 . S
O230 Co225 2.053 1_554 S
O230 Co226 2.126 . S
O230 H229 0.760 . S
O230 Co231 2.009 . S
Co231 H229 2.400 . S
Co231 O230 2.009 . S
Co231 O232 2.053 . S
Co231 O234 2.094 . S
Co231 O238 2.122 . S
Co231 O252 2.115 . S
Co231 O253 2.315 . S
O232 Co231 2.053 . S
O232 C244 1.259 . S
O233 Co225 2.047 . S
O233 C244 1.257 1_556 S
O234 Co231 2.094 . S
O234 C245 1.253 . S
O235 Co226 2.063 . S
O235 C245 1.268 . S
O236 Co224 2.115 . S
O236 C246 1.281 . S
O237 Co224 2.315 . S
O237 C246 1.252 . S
O238 Co231 2.122 . S
O238 C247 1.272 . S
O239 Co225 2.113 . S
O239 C247 1.245 1_556 S
C240 O248 1.259 . S
C240 O249 1.257 1_556 S
C241 O250 1.268 . S
C241 O251 1.253 . S
C242 O252 1.281 . S
C242 O253 1.252 . S
C243 O254 1.272 . S
C243 O255 1.245 1_556 S
C244 O232 1.259 . S
C244 O233 1.257 1_554 S
C245 O234 1.253 . S
C245 O235 1.268 . S
C246 O236 1.281 . S
C246 O237 1.252 . S
C247 O238 1.272 . S
C247 O239 1.245 1_554 S
O248 Co224 2.053 . S
O248 C240 1.259 . S
O249 Co226 2.047 . S
O249 C240 1.257 1_554 S
O250 Co225 2.063 . S
O250 C241 1.268 . S
O251 Co224 2.094 . S
O251 C241 1.253 . S
O252 Co231 2.115 . S
O252 C242 1.281 . S
O253 Co231 2.315 . S
O253 C242 1.252 . S
O254 Co224 2.122 . S
O254 C243 1.272 . S
O255 Co226 2.113 . S
O255 C243 1.245 1_554 S
C256 C257 1.170 . S
C256 C258 1.380 . S
C257 C256 1.170 . S
C258 C256 1.380 . S
C258 C259 1.170 . S
C259 C258 1.170 . S
C260 C261 1.170 . S
C260 C262 1.380 . S
C261 C260 1.170 . S
C262 C260 1.380 . S
C262 C263 1.170 . S
C263 C262 1.170 . S
C264 C265 1.170 . S
C264 C266 1.380 . S
C265 C264 1.170 . S
C266 C264 1.380 . S
C266 C267 1.170 . S
C267 C266 1.170 . S
C268 C269 1.170 . S
C268 C270 1.380 . S
C269 C268 1.170 . S
C270 C268 1.380 . S
C270 C271 1.170 . S
C271 C270 1.170 . S
C272 C273 1.170 . S
C272 C274 1.380 . S
C273 C272 1.170 . S
C274 C272 1.380 . S
C274 C275 1.170 . S
C275 C274 1.170 . S
C276 C277 1.170 . S
C276 C278 1.380 . S
C277 C276 1.170 . S
C278 C276 1.380 . S
C278 C279 1.170 . S
C279 C278 1.170 . S
C280 C281 1.170 . S
C280 C282 1.380 . S
C281 C280 1.170 . S
C282 C280 1.380 . S
C282 C283 1.170 . S
C283 C282 1.170 . S
C284 C285 1.170 . S
C284 C286 1.380 . S
C285 C284 1.170 . S
C286 C284 1.380 . S
C286 C287 1.170 . S
C287 C286 1.170 . S
C288 C289 1.170 . S
C288 C290 1.380 . S
C289 C288 1.170 . S
C290 C288 1.380 . S
C290 C291 1.170 . S
C291 C290 1.170 . S
C292 C293 1.170 . S
C292 C294 1.380 . S
C293 C292 1.170 . S
C294 C292 1.380 . S
C294 C295 1.170 . S
C295 C294 1.170 . S
C296 C297 1.170 . S
C296 C298 1.380 . S
C297 C296 1.170 . S
C298 C296 1.380 . S
C298 C299 1.170 . S
C299 C298 1.170 . S
C300 C301 1.170 . S
C300 C302 1.380 . S
C301 C300 1.170 . S
C302 C300 1.380 . S
C302 C303 1.170 . S
C303 C302 1.170 . S
C304 C305 1.170 . S
C304 C306 1.380 . S
C305 C304 1.170 . S
C306 C304 1.380 . S
C306 C307 1.170 . S
C307 C306 1.170 . S
C308 C309 1.170 . S
C308 C310 1.380 . S
C309 C308 1.170 . S
C310 C308 1.380 . S
C310 C311 1.170 . S
C311 C310 1.170 . S
C312 C313 1.170 . S
C312 C314 1.380 . S
C313 C312 1.170 . S
C314 C312 1.380 . S
C314 C315 1.170 . S
C315 C314 1.170 . S
C316 C317 1.170 1_545 S
C316 C318 1.380 . S
C317 C316 1.170 1_565 S
C318 C316 1.380 . S
C318 C319 1.170 . S
C319 C318 1.170 . S
C320 C321 1.162 1_556 S
C320 C322 1.388 1_655 S
C321 C320 1.162 1_554 S
C322 C320 1.388 1_455 S
C322 C323 1.170 . S
C323 C322 1.170 . S
C324 C325 1.170 . S
C324 C326 1.380 . S
C325 C324 1.170 . S
C326 C324 1.380 . S
C326 C327 1.170 . S
C327 C326 1.170 . S
C328 C329 1.170 . S
C328 C330 1.380 . S
C329 C328 1.170 . S
C330 C328 1.380 . S
C330 C331 1.170 . S
C331 C330 1.170 . S
C332 C333 1.170 . S
C332 C334 1.380 1_565 S
C333 C332 1.170 . S
C334 C332 1.380 1_545 S
C334 C335 1.170 1_455 S
C335 C334 1.170 1_655 S
C336 C337 1.170 . S
C336 C338 1.380 . S
C337 C336 1.170 . S
C338 C336 1.380 . S
C338 C339 1.170 . S
C339 C338 1.170 . S
C340 C341 1.170 . S
C340 C342 1.380 . S
C341 C340 1.170 . S
C342 C340 1.380 . S
C342 C343 1.170 . S
C343 C342 1.170 . S
C344 C345 1.170 . S
C344 C346 1.380 . S
C345 C344 1.170 . S
C346 C344 1.380 . S
C346 C347 1.170 . S
C347 C346 1.170 . S
C348 C349 1.156 1_554 S
C348 C350 1.386 1_565 S
C349 C348 1.156 1_556 S
C350 C348 1.386 1_545 S
C350 C351 1.170 . S
C351 C350 1.170 . S
C352 C353 1.173 . S
C352 C354 1.378 1_556 S
C353 C352 1.173 . S
C354 C352 1.378 1_554 S
C354 C355 1.170 . S
C355 C354 1.170 . S
C356 C357 1.170 . S
C356 C358 1.380 1_556 S
C357 C356 1.170 . S
C358 C356 1.380 1_554 S
C358 C359 1.171 . S
C359 C358 1.171 . S
C360 C361 1.170 . S
C360 C362 1.380 1_455 S
C361 C360 1.170 . S
C362 C360 1.380 1_655 S
C362 C363 1.170 . S
C363 C362 1.170 . S
C364 C365 1.170 . S
C364 C366 1.380 . S
C365 C364 1.170 . S
C366 C364 1.380 . S
C366 C367 1.170 . S
C367 C366 1.170 . S
C368 C369 1.170 . S
C368 C370 1.380 . S
C369 C368 1.170 . S
C370 C368 1.380 . S
C370 C371 1.170 . S
C371 C370 1.170 . S
C372 C373 1.170 . S
C372 C374 1.380 1_645 S
C373 C372 1.170 . S
C374 C372 1.380 1_465 S
C374 C375 1.170 . S
C375 C374 1.170 . S
C376 C377 1.170 . S
C376 C378 1.380 . S
C377 C376 1.170 . S
C378 C376 1.380 . S
C378 C379 1.170 . S
C379 C378 1.170 . S
C380 C381 1.170 . S
C380 C382 1.380 1_565 S
C381 C380 1.170 . S
C382 C380 1.380 1_545 S
C382 C383 1.170 . S
C383 C382 1.170 . S
C257 C18 2.067 . S
C259 C53 2.032 . S
C261 C21 1.871 . S
C263 C82 1.812 . S
C265 C113 2.053 . S
C267 C54 2.066 . S
C269 C81 1.876 . S
C271 C118 1.802 . S
C273 C114 2.089 . S
C275 C149 2.035 . S
C277 C178 1.818 . S
C279 C117 1.867 . S
C281 C150 2.059 . S
C283 C17 2.058 1_565 S
C285 C177 1.875 . S
C287 C22 1.806 1_545 S
C289 C181 2.024 . S
C291 C210 2.086 . S
C293 C213 1.857 . S
C295 C146 1.827 . S
C297 C241 2.038 . S
C299 C182 2.074 . S
C301 C246 1.809 . S
C303 C145 1.861 . S
C305 C242 2.086 . S
C307 C85 2.024 . S
C309 C50 1.832 . S
C311 C245 1.856 . S
C313 C209 2.029 1_565 S
C315 C86 2.082 . S
C317 C214 1.823 . S
C319 C49 1.869 . S
C321 C19 1.054 1_554 S
C323 C23 1.098 1_556 S
C325 C51 1.064 . S
C327 C55 1.079 . S
C329 C83 1.067 . S
C331 C87 1.076 . S
C333 C119 1.059 . S
C335 C115 1.102 . S
C337 C147 1.055 . S
C339 C151 1.099 . S
C341 C179 1.101 . S
C343 C183 1.063 . S
C345 C211 1.102 . S
C347 C215 1.060 . S
C349 C247 1.065 1_556 S
C351 C243 1.077 1_554 S
C353 C240 1.415 . S
C355 C20 1.421 . S
C357 C16 1.420 . S
C359 C244 1.416 . S
C361 C48 1.415 . S
C363 C84 1.422 . S
C365 C208 1.419 . S
C367 C116 1.421 . S
C369 C112 1.415 . S
C371 C212 1.420 . S
C373 C180 1.421 . S
C375 C144 1.418 . S
C377 C176 1.417 . S
C379 C148 1.421 . S
C381 C80 1.422 . S
C383 C52 1.416 . S
