# Generated by pormake.
# Topology ana, (4)-cn, num edge types: 1
# Building blocks:
#     Node 0, Type 0, BuildingBlock: KUFVIS_clean_sbu_0, # of connection points: 4
#     Node 1, Type 0, BuildingBlock: KUFVIS_clean_sbu_0, # of connection points: 4
#     Node 2, Type 0, BuildingBlock: KUFVIS_clean_sbu_0, # of connection points: 4
#     Node 3, Type 0, BuildingBlock: KUFVIS_clean_sbu_0, # of connection points: 4
#     Node 4, Type 0, BuildingBlock: KUFVIS_clean_sbu_0, # of connection points: 4
#     Node 5, Type 0, BuildingBlock: KUFVIS_clean_sbu_0, # of connection points: 4
#     Node 6, Type 0, BuildingBlock: KUFVIS_clean_sbu_0, # of connection points: 4
#     Node 7, Type 0, BuildingBlock: KUFVIS_clean_sbu_0, # of connection points: 4
#     Node 8, Type 0, BuildingBlock: KUFVIS_clean_sbu_0, # of connection points: 4
#     Node 9, Type 0, BuildingBlock: KUFVIS_clean_sbu_0, # of connection points: 4
#     Node 10, Type 0, BuildingBlock: KUFVIS_clean_sbu_0, # of connection points: 4
#     Node 11, Type 0, BuildingBlock: KUFVIS_clean_sbu_0, # of connection points: 4
#     Node 12, Type 0, BuildingBlock: KUFVIS_clean_sbu_0, # of connection points: 4
#     Node 13, Type 0, BuildingBlock: KUFVIS_clean_sbu_0, # of connection points: 4
#     Node 14, Type 0, BuildingBlock: KUFVIS_clean_sbu_0, # of connection points: 4
#     Node 15, Type 0, BuildingBlock: KUFVIS_clean_sbu_0, # of connection points: 4
#     Node 16, Type 0, BuildingBlock: KUFVIS_clean_sbu_0, # of connection points: 4
#     Node 17, Type 0, BuildingBlock: KUFVIS_clean_sbu_0, # of connection points: 4
#     Node 18, Type 0, BuildingBlock: KUFVIS_clean_sbu_0, # of connection points: 4
#     Node 19, Type 0, BuildingBlock: KUFVIS_clean_sbu_0, # of connection points: 4
#     Node 20, Type 0, BuildingBlock: KUFVIS_clean_sbu_0, # of connection points: 4
#     Node 21, Type 0, BuildingBlock: KUFVIS_clean_sbu_0, # of connection points: 4
#     Node 22, Type 0, BuildingBlock: KUFVIS_clean_sbu_0, # of connection points: 4
#     Node 23, Type 0, BuildingBlock: KUFVIS_clean_sbu_0, # of connection points: 4
#     Node 24, Type 0, BuildingBlock: KUFVIS_clean_sbu_0, # of connection points: 4
#     Node 25, Type 0, BuildingBlock: KUFVIS_clean_sbu_0, # of connection points: 4
#     Node 26, Type 0, BuildingBlock: KUFVIS_clean_sbu_0, # of connection points: 4
#     Node 27, Type 0, BuildingBlock: KUFVIS_clean_sbu_0, # of connection points: 4
#     Node 28, Type 0, BuildingBlock: KUFVIS_clean_sbu_0, # of connection points: 4
#     Node 29, Type 0, BuildingBlock: KUFVIS_clean_sbu_0, # of connection points: 4
#     Node 30, Type 0, BuildingBlock: KUFVIS_clean_sbu_0, # of connection points: 4
#     Node 31, Type 0, BuildingBlock: KUFVIS_clean_sbu_0, # of connection points: 4
#     Node 32, Type 0, BuildingBlock: KUFVIS_clean_sbu_0, # of connection points: 4
#     Node 33, Type 0, BuildingBlock: KUFVIS_clean_sbu_0, # of connection points: 4
#     Node 34, Type 0, BuildingBlock: KUFVIS_clean_sbu_0, # of connection points: 4
#     Node 35, Type 0, BuildingBlock: KUFVIS_clean_sbu_0, # of connection points: 4
#     Node 36, Type 0, BuildingBlock: KUFVIS_clean_sbu_0, # of connection points: 4
#     Node 37, Type 0, BuildingBlock: KUFVIS_clean_sbu_0, # of connection points: 4
#     Node 38, Type 0, BuildingBlock: KUFVIS_clean_sbu_0, # of connection points: 4
#     Node 39, Type 0, BuildingBlock: KUFVIS_clean_sbu_0, # of connection points: 4
#     Node 40, Type 0, BuildingBlock: KUFVIS_clean_sbu_0, # of connection points: 4
#     Node 41, Type 0, BuildingBlock: KUFVIS_clean_sbu_0, # of connection points: 4
#     Node 42, Type 0, BuildingBlock: KUFVIS_clean_sbu_0, # of connection points: 4
#     Node 43, Type 0, BuildingBlock: KUFVIS_clean_sbu_0, # of connection points: 4
#     Node 44, Type 0, BuildingBlock: KUFVIS_clean_sbu_0, # of connection points: 4
#     Node 45, Type 0, BuildingBlock: KUFVIS_clean_sbu_0, # of connection points: 4
#     Node 46, Type 0, BuildingBlock: KUFVIS_clean_sbu_0, # of connection points: 4
#     Node 47, Type 0, BuildingBlock: KUFVIS_clean_sbu_0, # of connection points: 4
#     Edge 48, Type (0, 0), BuildingBlock: OJICUG_clean_linker_0, # of connection points: 2
#     Edge 49, Type (0, 0), BuildingBlock: OJICUG_clean_linker_0, # of connection points: 2
#     Edge 50, Type (0, 0), BuildingBlock: OJICUG_clean_linker_0, # of connection points: 2
#     Edge 51, Type (0, 0), BuildingBlock: OJICUG_clean_linker_0, # of connection points: 2
#     Edge 52, Type (0, 0), BuildingBlock: OJICUG_clean_linker_0, # of connection points: 2
#     Edge 53, Type (0, 0), BuildingBlock: OJICUG_clean_linker_0, # of connection points: 2
#     Edge 54, Type (0, 0), BuildingBlock: OJICUG_clean_linker_0, # of connection points: 2
#     Edge 55, Type (0, 0), BuildingBlock: OJICUG_clean_linker_0, # of connection points: 2
#     Edge 56, Type (0, 0), BuildingBlock: OJICUG_clean_linker_0, # of connection points: 2
#     Edge 57, Type (0, 0), BuildingBlock: OJICUG_clean_linker_0, # of connection points: 2
#     Edge 58, Type (0, 0), BuildingBlock: OJICUG_clean_linker_0, # of connection points: 2
#     Edge 59, Type (0, 0), BuildingBlock: OJICUG_clean_linker_0, # of connection points: 2
#     Edge 60, Type (0, 0), BuildingBlock: OJICUG_clean_linker_0, # of connection points: 2
#     Edge 61, Type (0, 0), BuildingBlock: OJICUG_clean_linker_0, # of connection points: 2
#     Edge 62, Type (0, 0), BuildingBlock: OJICUG_clean_linker_0, # of connection points: 2
#     Edge 63, Type (0, 0), BuildingBlock: OJICUG_clean_linker_0, # of connection points: 2
#     Edge 64, Type (0, 0), BuildingBlock: OJICUG_clean_linker_0, # of connection points: 2
#     Edge 65, Type (0, 0), BuildingBlock: OJICUG_clean_linker_0, # of connection points: 2
#     Edge 66, Type (0, 0), BuildingBlock: OJICUG_clean_linker_0, # of connection points: 2
#     Edge 67, Type (0, 0), BuildingBlock: OJICUG_clean_linker_0, # of connection points: 2
#     Edge 68, Type (0, 0), BuildingBlock: OJICUG_clean_linker_0, # of connection points: 2
#     Edge 69, Type (0, 0), BuildingBlock: OJICUG_clean_linker_0, # of connection points: 2
#     Edge 70, Type (0, 0), BuildingBlock: OJICUG_clean_linker_0, # of connection points: 2
#     Edge 71, Type (0, 0), BuildingBlock: OJICUG_clean_linker_0, # of connection points: 2
#     Edge 72, Type (0, 0), BuildingBlock: OJICUG_clean_linker_0, # of connection points: 2
#     Edge 73, Type (0, 0), BuildingBlock: OJICUG_clean_linker_0, # of connection points: 2
#     Edge 74, Type (0, 0), BuildingBlock: OJICUG_clean_linker_0, # of connection points: 2
#     Edge 75, Type (0, 0), BuildingBlock: OJICUG_clean_linker_0, # of connection points: 2
#     Edge 76, Type (0, 0), BuildingBlock: OJICUG_clean_linker_0, # of connection points: 2
#     Edge 77, Type (0, 0), BuildingBlock: OJICUG_clean_linker_0, # of connection points: 2
#     Edge 78, Type (0, 0), BuildingBlock: OJICUG_clean_linker_0, # of connection points: 2
#     Edge 79, Type (0, 0), BuildingBlock: OJICUG_clean_linker_0, # of connection points: 2
#     Edge 80, Type (0, 0), BuildingBlock: OJICUG_clean_linker_0, # of connection points: 2
#     Edge 81, Type (0, 0), BuildingBlock: OJICUG_clean_linker_0, # of connection points: 2
#     Edge 82, Type (0, 0), BuildingBlock: OJICUG_clean_linker_0, # of connection points: 2
#     Edge 83, Type (0, 0), BuildingBlock: OJICUG_clean_linker_0, # of connection points: 2
#     Edge 84, Type (0, 0), BuildingBlock: OJICUG_clean_linker_0, # of connection points: 2
#     Edge 85, Type (0, 0), BuildingBlock: OJICUG_clean_linker_0, # of connection points: 2
#     Edge 86, Type (0, 0), BuildingBlock: OJICUG_clean_linker_0, # of connection points: 2
#     Edge 87, Type (0, 0), BuildingBlock: OJICUG_clean_linker_0, # of connection points: 2
#     Edge 88, Type (0, 0), BuildingBlock: OJICUG_clean_linker_0, # of connection points: 2
#     Edge 89, Type (0, 0), BuildingBlock: OJICUG_clean_linker_0, # of connection points: 2
#     Edge 90, Type (0, 0), BuildingBlock: OJICUG_clean_linker_0, # of connection points: 2
#     Edge 91, Type (0, 0), BuildingBlock: OJICUG_clean_linker_0, # of connection points: 2
#     Edge 92, Type (0, 0), BuildingBlock: OJICUG_clean_linker_0, # of connection points: 2
#     Edge 93, Type (0, 0), BuildingBlock: OJICUG_clean_linker_0, # of connection points: 2
#     Edge 94, Type (0, 0), BuildingBlock: OJICUG_clean_linker_0, # of connection points: 2
#     Edge 95, Type (0, 0), BuildingBlock: OJICUG_clean_linker_0, # of connection points: 2
#     Edge 96, Type (0, 0), BuildingBlock: OJICUG_clean_linker_0, # of connection points: 2
#     Edge 97, Type (0, 0), BuildingBlock: OJICUG_clean_linker_0, # of connection points: 2
#     Edge 98, Type (0, 0), BuildingBlock: OJICUG_clean_linker_0, # of connection points: 2
#     Edge 99, Type (0, 0), BuildingBlock: OJICUG_clean_linker_0, # of connection points: 2
#     Edge 100, Type (0, 0), BuildingBlock: OJICUG_clean_linker_0, # of connection points: 2
#     Edge 101, Type (0, 0), BuildingBlock: OJICUG_clean_linker_0, # of connection points: 2
#     Edge 102, Type (0, 0), BuildingBlock: OJICUG_clean_linker_0, # of connection points: 2
#     Edge 103, Type (0, 0), BuildingBlock: OJICUG_clean_linker_0, # of connection points: 2
#     Edge 104, Type (0, 0), BuildingBlock: OJICUG_clean_linker_0, # of connection points: 2
#     Edge 105, Type (0, 0), BuildingBlock: OJICUG_clean_linker_0, # of connection points: 2
#     Edge 106, Type (0, 0), BuildingBlock: OJICUG_clean_linker_0, # of connection points: 2
#     Edge 107, Type (0, 0), BuildingBlock: OJICUG_clean_linker_0, # of connection points: 2
#     Edge 108, Type (0, 0), BuildingBlock: OJICUG_clean_linker_0, # of connection points: 2
#     Edge 109, Type (0, 0), BuildingBlock: OJICUG_clean_linker_0, # of connection points: 2
#     Edge 110, Type (0, 0), BuildingBlock: OJICUG_clean_linker_0, # of connection points: 2
#     Edge 111, Type (0, 0), BuildingBlock: OJICUG_clean_linker_0, # of connection points: 2
#     Edge 112, Type (0, 0), BuildingBlock: OJICUG_clean_linker_0, # of connection points: 2
#     Edge 113, Type (0, 0), BuildingBlock: OJICUG_clean_linker_0, # of connection points: 2
#     Edge 114, Type (0, 0), BuildingBlock: OJICUG_clean_linker_0, # of connection points: 2
#     Edge 115, Type (0, 0), BuildingBlock: OJICUG_clean_linker_0, # of connection points: 2
#     Edge 116, Type (0, 0), BuildingBlock: OJICUG_clean_linker_0, # of connection points: 2
#     Edge 117, Type (0, 0), BuildingBlock: OJICUG_clean_linker_0, # of connection points: 2
#     Edge 118, Type (0, 0), BuildingBlock: OJICUG_clean_linker_0, # of connection points: 2
#     Edge 119, Type (0, 0), BuildingBlock: OJICUG_clean_linker_0, # of connection points: 2
#     Edge 120, Type (0, 0), BuildingBlock: OJICUG_clean_linker_0, # of connection points: 2
#     Edge 121, Type (0, 0), BuildingBlock: OJICUG_clean_linker_0, # of connection points: 2
#     Edge 122, Type (0, 0), BuildingBlock: OJICUG_clean_linker_0, # of connection points: 2
#     Edge 123, Type (0, 0), BuildingBlock: OJICUG_clean_linker_0, # of connection points: 2
#     Edge 124, Type (0, 0), BuildingBlock: OJICUG_clean_linker_0, # of connection points: 2
#     Edge 125, Type (0, 0), BuildingBlock: OJICUG_clean_linker_0, # of connection points: 2
#     Edge 126, Type (0, 0), BuildingBlock: OJICUG_clean_linker_0, # of connection points: 2
#     Edge 127, Type (0, 0), BuildingBlock: OJICUG_clean_linker_0, # of connection points: 2
#     Edge 128, Type (0, 0), BuildingBlock: OJICUG_clean_linker_0, # of connection points: 2
#     Edge 129, Type (0, 0), BuildingBlock: OJICUG_clean_linker_0, # of connection points: 2
#     Edge 130, Type (0, 0), BuildingBlock: OJICUG_clean_linker_0, # of connection points: 2
#     Edge 131, Type (0, 0), BuildingBlock: OJICUG_clean_linker_0, # of connection points: 2
#     Edge 132, Type (0, 0), BuildingBlock: OJICUG_clean_linker_0, # of connection points: 2
#     Edge 133, Type (0, 0), BuildingBlock: OJICUG_clean_linker_0, # of connection points: 2
#     Edge 134, Type (0, 0), BuildingBlock: OJICUG_clean_linker_0, # of connection points: 2
#     Edge 135, Type (0, 0), BuildingBlock: OJICUG_clean_linker_0, # of connection points: 2
#     Edge 136, Type (0, 0), BuildingBlock: OJICUG_clean_linker_0, # of connection points: 2
#     Edge 137, Type (0, 0), BuildingBlock: OJICUG_clean_linker_0, # of connection points: 2
#     Edge 138, Type (0, 0), BuildingBlock: OJICUG_clean_linker_0, # of connection points: 2
#     Edge 139, Type (0, 0), BuildingBlock: OJICUG_clean_linker_0, # of connection points: 2
#     Edge 140, Type (0, 0), BuildingBlock: OJICUG_clean_linker_0, # of connection points: 2
#     Edge 141, Type (0, 0), BuildingBlock: OJICUG_clean_linker_0, # of connection points: 2
#     Edge 142, Type (0, 0), BuildingBlock: OJICUG_clean_linker_0, # of connection points: 2
#     Edge 143, Type (0, 0), BuildingBlock: OJICUG_clean_linker_0, # of connection points: 2
# Relax obj value: 0.111
# Max RMSD: 0.151
# Mean RMSD: 0.127
data_MOF--net-ana--node1-KUFVIS_clean_sbu_0--edge1-OJICUG_clean_linker_0
_symmetry_space_group_name_H-M    P1
_symmetry_Int_Tables_number       1
_symmetry_cell_setting            triclinic
loop_
_symmetry_equiv_pos_as_xyz
'x, y, z'
_cell_length_a     46.094938
_cell_length_b     47.621129
_cell_length_c     47.477301
_cell_angle_alpha  90.037861
_cell_angle_beta   90.246107
_cell_angle_gamma 90.58622
loop_
_atom_site_label
_atom_site_type_symbol
_atom_site_fract_x
_atom_site_fract_y
_atom_site_fract_z
_atom_type_partial_charge
Mn0 Mn 0.11234 0.16158 0.41677 0.0
Mn1 Mn 0.1092 0.0912 0.41999 0.0
C2 C 0.06781 0.13833 0.41113 0.0
C3 C 0.11938 0.20363 0.39207 0.0
C4 C 0.12088 0.12861 0.47033 0.0
O5 O 0.15438 0.14937 0.4105 0.0
O6 O 0.14792 0.10247 0.40523 0.0
C7 C 0.11336 0.0714 0.36155 0.0
N8 N 0.09816 0.07299 0.38591 0.0
C9 C 0.068 0.03362 0.37279 0.0
C10 C 0.08455 0.03049 0.3483 0.0
C11 C 0.10646 0.05012 0.34209 0.0
C12 C 0.07553 0.05551 0.3911 0.0
H13 H 0.13116 0.08574 0.35771 0.0
C14 C 0.16376 0.12482 0.40456 0.0
O15 O 0.12394 0.20193 0.41896 0.0
O16 O 0.11139 0.18067 0.37927 0.0
N17 N 0.07275 0.07811 0.43428 0.0
C18 C 0.06072 0.08258 0.46005 0.0
C19 C 0.03608 0.06698 0.46805 0.0
C20 C 0.02477 0.04622 0.44994 0.0
C21 C 0.03797 0.04156 0.42382 0.0
C22 C 0.06156 0.05873 0.41644 0.0
H23 H 0.06992 0.0978 0.47446 0.0
O24 O 0.06909 0.16446 0.41903 0.0
O25 O 0.0927 0.12666 0.40682 0.0
O26 O 0.11495 0.15195 0.45887 0.0
O27 O 0.12095 0.10559 0.45691 0.0
C28 C 0.02951 0.01978 0.40536 0.0
C29 C 0.04503 0.01535 0.38023 0.0
H30 H 0.08063 0.01316 0.33399 0.0
H31 H 0.11847 0.04812 0.32271 0.0
H32 H 0.02625 0.07049 0.48839 0.0
H33 H 0.0063 0.03363 0.45651 0.0
H34 H 0.01166 0.00582 0.41067 0.0
H35 H 0.03901 0.99789 0.36672 0.0
Mn36 Mn 0.09866 0.88576 0.6703 0.0
Mn37 Mn 0.11228 0.89322 0.60057 0.0
C38 C 0.10414 0.92995 0.65029 0.0
C39 C 0.11625 0.88246 0.7171 0.0
C40 C 0.05247 0.88045 0.62379 0.0
O41 O 0.11068 0.84595 0.65868 0.0
O42 O 0.12001 0.85426 0.61279 0.0
C43 C 0.17591 0.88572 0.60295 0.0
N44 N 0.1526 0.90145 0.59554 0.0
C45 C 0.18344 0.93771 0.57638 0.0
C46 C 0.20779 0.92181 0.58364 0.0
C47 C 0.204 0.89571 0.59701 0.0
C48 C 0.15598 0.92653 0.58257 0.0
H49 H 0.17308 0.86574 0.6134 0.0
C50 C 0.11846 0.83784 0.63409 0.0
O51 O 0.08994 0.87462 0.71065 0.0
O52 O 0.13244 0.89017 0.69622 0.0
N53 N 0.10581 0.92998 0.58577 0.0
C54 C 0.0802 0.94349 0.58199 0.0
C55 C 0.0802 0.97033 0.56974 0.0
C56 C 0.1065 0.98289 0.56139 0.0
C57 C 0.13256 0.96841 0.56523 0.0
C58 C 0.13116 0.94159 0.57725 0.0
H59 H 0.06004 0.93391 0.58856 0.0
O60 O 0.09084 0.9269 0.67408 0.0
O61 O 0.11433 0.90718 0.63918 0.0
O62 O 0.05955 0.87982 0.6499 0.0
O63 O 0.07047 0.88541 0.60396 0.0
C64 C 0.15993 0.97983 0.55829 0.0
C65 C 0.18535 0.96451 0.5639 0.0
H66 H 0.22949 0.92956 0.57934 0.0
H67 H 0.22269 0.8834 0.60284 0.0
H68 H 0.06001 0.98139 0.5669 0.0
H69 H 0.10645 0.00373 0.55228 0.0
H70 H 0.16171 1.00057 0.54907 0.0
H71 H 0.2063 0.97371 0.55891 0.0
Mn72 Mn 0.38205 0.8501 0.90721 0.0
Mn73 Mn 0.38747 0.92068 0.90259 0.0
C74 C 0.42726 0.87074 0.89759 0.0
C75 C 0.37358 0.8054 0.88787 0.0
C76 C 0.38369 0.88974 0.95808 0.0
O77 O 0.33982 0.8615 0.90146 0.0
O78 O 0.34648 0.90816 0.89793 0.0
C79 C 0.37187 0.92671 0.84234 0.0
N80 N 0.3895 0.93303 0.86452 0.0
C81 C 0.41346 0.96984 0.83864 0.0
C82 C 0.39494 0.96443 0.8157 0.0
C83 C 0.37456 0.94231 0.81729 0.0
C84 C 0.41043 0.95292 0.86256 0.0
H85 H 0.35562 0.91031 0.8441 0.0
C86 C 0.33017 0.88628 0.8981 0.0
O87 O 0.37013 0.81031 0.91451 0.0
O88 O 0.38103 0.82668 0.87231 0.0
N89 N 0.42496 0.93759 0.90687 0.0
C90 C 0.44199 0.93899 0.93037 0.0
C91 C 0.46548 0.95802 0.93122 0.0
C92 C 0.47037 0.97633 0.90849 0.0
C93 C 0.45181 0.97531 0.88503 0.0
C94 C 0.42933 0.9553 0.88503 0.0
H95 H 0.43761 0.92574 0.94834 0.0
O96 O 0.42478 0.84611 0.90902 0.0
O97 O 0.40276 0.88326 0.89204 0.0
O98 O 0.38176 0.86505 0.94787 0.0
O99 O 0.38583 0.91155 0.94278 0.0
C100 C 0.45462 0.9934 0.86164 0.0
C101 C 0.43546 0.99065 0.83844 0.0
H102 H 0.39669 0.97663 0.79652 0.0
H103 H 0.3607 0.93763 0.79942 0.0
H104 H 0.47941 0.95898 0.94961 0.0
H105 H 0.48824 0.99126 0.90941 0.0
H106 H 0.4717 0.00918 0.86108 0.0
H107 H 0.43826 0.0042 0.82032 0.0
Mn108 Mn 0.40124 0.12915 0.16928 0.0
Mn109 Mn 0.38811 0.12162 0.09954 0.0
C110 C 0.39344 0.08499 0.14973 0.0
C111 C 0.38333 0.13442 0.21524 0.0
C112 C 0.4479 0.133 0.1241 0.0
O113 O 0.39135 0.16926 0.15679 0.0
O114 O 0.37977 0.16071 0.11126 0.0
C115 C 0.3244 0.1288 0.09922 0.0
N116 N 0.34804 0.11299 0.09326 0.0
C117 C 0.31821 0.07652 0.07279 0.0
C118 C 0.29352 0.09247 0.07858 0.0
C119 C 0.29664 0.11868 0.09194 0.0
C120 C 0.34528 0.08769 0.08051 0.0
H121 H 0.32675 0.14896 0.10946 0.0
C122 C 0.38258 0.17729 0.13242 0.0
O123 O 0.41016 0.14065 0.2094 0.0
O124 O 0.36697 0.12704 0.19421 0.0
N125 N 0.39536 0.08467 0.08555 0.0
C126 C 0.42122 0.07139 0.08261 0.0
C127 C 0.42181 0.04448 0.07051 0.0
C128 C 0.39587 0.03164 0.06135 0.0
C129 C 0.36958 0.04589 0.06427 0.0
C130 C 0.37035 0.07271 0.07638 0.0
H131 H 0.4412 0.08121 0.08955 0.0
O132 O 0.40657 0.08758 0.17378 0.0
O133 O 0.38498 0.10819 0.13816 0.0
O134 O 0.44083 0.1328 0.1501 0.0
O135 O 0.42974 0.12967 0.10397 0.0
C136 C 0.34261 0.03445 0.05588 0.0
C137 C 0.31699 0.04983 0.06001 0.0
H138 H 0.27207 0.08469 0.07307 0.0
H139 H 0.27769 0.13105 0.09658 0.0
H140 H 0.44221 0.03366 0.06829 0.0
H141 H 0.39638 0.01081 0.05218 0.0
H142 H 0.3413 0.01379 0.04637 0.0
H143 H 0.29646 0.04089 0.05335 0.0
Mn144 Mn 0.13095 0.83461 0.09416 0.0
Mn145 Mn 0.13454 0.82833 0.16507 0.0
C146 C 0.17661 0.83621 0.11588 0.0
C147 C 0.12667 0.85973 0.05148 0.0
C148 C 0.11902 0.78052 0.12575 0.0
O149 O 0.09039 0.84562 0.10721 0.0
O150 O 0.09689 0.8457 0.15448 0.0
C151 C 0.13132 0.88429 0.19174 0.0
N152 N 0.1461 0.86012 0.18708 0.0
C153 C 0.17733 0.86924 0.22706 0.0
C154 C 0.16347 0.8949 0.23123 0.0
C155 C 0.14067 0.90262 0.21329 0.0
C156 C 0.168 0.85241 0.20444 0.0
H157 H 0.11302 0.88971 0.17866 0.0
C158 C 0.08166 0.85053 0.1323 0.0
O159 O 0.11869 0.83371 0.05375 0.0
O160 O 0.13629 0.87172 0.07434 0.0
N161 N 0.16998 0.81184 0.17745 0.0
C162 C 0.18179 0.78684 0.1699 0.0
C163 C 0.20625 0.77701 0.18446 0.0
C164 C 0.21792 0.79272 0.20694 0.0
C165 C 0.2052 0.81827 0.21444 0.0
C166 C 0.18127 0.82728 0.19872 0.0
H167 H 0.17258 0.77447 0.15296 0.0
O168 O 0.17279 0.82725 0.09025 0.0
O169 O 0.15278 0.84269 0.12937 0.0
O170 O 0.12356 0.79277 0.10252 0.0
O171 O 0.12141 0.79282 0.14917 0.0
C172 C 0.21514 0.83501 0.23704 0.0
C173 C 0.20107 0.86036 0.2435 0.0
H174 H 0.17035 0.90899 0.24795 0.0
H175 H 0.13021 0.92257 0.21643 0.0
H176 H 0.21587 0.75723 0.17859 0.0
H177 H 0.23657 0.78492 0.21835 0.0
H178 H 0.23355 0.82855 0.24965 0.0
H179 H 0.20898 0.87312 0.26086 0.0
Mn180 Mn 0.40811 0.87378 0.33357 0.0
Mn181 Mn 0.33721 0.86995 0.35011 0.0
C182 C 0.38595 0.83029 0.33897 0.0
C183 C 0.45645 0.87715 0.3481 0.0
C184 C 0.35918 0.88457 0.29143 0.0
O185 O 0.3991 0.9136 0.34649 0.0
O186 O 0.35309 0.90748 0.36152 0.0
C187 C 0.34215 0.87121 0.41226 0.0
N188 N 0.33293 0.85807 0.38832 0.0
C189 C 0.31259 0.81966 0.41488 0.0
C190 C 0.32168 0.83289 0.43984 0.0
C191 C 0.33655 0.85876 0.43851 0.0
C192 C 0.31859 0.83318 0.38934 0.0
H193 H 0.35378 0.89098 0.41131 0.0
C194 C 0.37603 0.92261 0.35807 0.0
O195 O 0.44844 0.88482 0.32299 0.0
O196 O 0.43621 0.86858 0.365 0.0
N197 N 0.31934 0.83476 0.34037 0.0
C198 C 0.31331 0.82411 0.31432 0.0
C199 C 0.29915 0.79796 0.31192 0.0
C200 C 0.29122 0.78309 0.33629 0.0
C201 C 0.29735 0.79462 0.36286 0.0
C202 C 0.31125 0.8209 0.36395 0.0
H203 H 0.31944 0.83539 0.2955 0.0
O204 O 0.40997 0.83275 0.32504 0.0
O205 O 0.37586 0.85338 0.34965 0.0
O206 O 0.38611 0.881 0.29659 0.0
O207 O 0.33944 0.88172 0.31012 0.0
C208 C 0.29073 0.78082 0.38831 0.0
C209 C 0.29836 0.79332 0.4143 0.0
H210 H 0.31759 0.82326 0.46012 0.0
H211 H 0.34378 0.86901 0.45768 0.0
H212 H 0.29448 0.78921 0.29133 0.0
H213 H 0.28058 0.76279 0.33435 0.0
H214 H 0.28013 0.76041 0.38813 0.0
H215 H 0.29349 0.78234 0.43371 0.0
Mn216 Mn 0.35869 0.17005 0.59136 0.0
Mn217 Mn 0.35907 0.17298 0.66189 0.0
C218 C 0.3154 0.16652 0.61668 0.0
C219 C 0.36256 0.1461 0.54816 0.0
C220 C 0.37429 0.22192 0.62453 0.0
O221 O 0.40068 0.16053 0.60306 0.0
O222 O 0.39437 0.15324 0.64993 0.0
C223 C 0.35471 0.11482 0.68216 0.0
N224 N 0.34362 0.14106 0.68072 0.0
C225 C 0.31398 0.13317 0.72148 0.0
C226 C 0.32713 0.10705 0.7249 0.0
C227 C 0.34609 0.09707 0.70425 0.0
C228 C 0.32291 0.14965 0.69877 0.0
H229 H 0.37097 0.10821 0.66734 0.0
C230 C 0.40956 0.15211 0.62735 0.0
O231 O 0.36886 0.17253 0.55072 0.0
O232 O 0.35441 0.13312 0.57095 0.0
N233 N 0.32533 0.19209 0.67505 0.0
C234 C 0.31622 0.21868 0.66952 0.0
C235 C 0.29341 0.23 0.68526 0.0
C236 C 0.28095 0.21428 0.70719 0.0
C237 C 0.29096 0.18712 0.71267 0.0
C238 C 0.31264 0.17643 0.69526 0.0
H239 H 0.32631 0.23127 0.65339 0.0
O240 O 0.315 0.17431 0.59042 0.0
O241 O 0.34067 0.16126 0.62682 0.0
O242 O 0.36436 0.21176 0.60166 0.0
O243 O 0.37578 0.20776 0.64705 0.0
C244 C 0.2812 0.17067 0.73543 0.0
C245 C 0.29343 0.14409 0.74036 0.0
H246 H 0.32306 0.09454 0.74343 0.0
H247 H 0.35525 0.07636 0.70635 0.0
H248 H 0.28597 0.25105 0.68097 0.0
H249 H 0.264 0.22339 0.71991 0.0
H250 H 0.26504 0.17862 0.7498 0.0
H251 H 0.28701 0.13238 0.75885 0.0
Mn252 Mn 0.07012 0.13674 0.85061 0.0
Mn253 Mn 0.1421 0.14239 0.8631 0.0
C254 C 0.09182 0.18063 0.85327 0.0
C255 C 0.02247 0.13266 0.86538 0.0
C256 C 0.11667 0.12855 0.80595 0.0
O257 O 0.0801 0.09748 0.86396 0.0
O258 O 0.12788 0.10362 0.87241 0.0
C259 C 0.13935 0.13692 0.92514 0.0
N260 N 0.14759 0.15173 0.90194 0.0
C261 C 0.16842 0.18851 0.93059 0.0
C262 C 0.16039 0.17352 0.9548 0.0
C263 C 0.14573 0.14765 0.95205 0.0
C264 C 0.16154 0.17673 0.90434 0.0
H265 H 0.12789 0.11714 0.92313 0.0
C266 C 0.10475 0.08839 0.87174 0.0
O267 O 0.03045 0.12428 0.84062 0.0
O268 O 0.04251 0.14244 0.88214 0.0
N269 N 0.15929 0.17835 0.8554 0.0
C270 C 0.16531 0.19029 0.82999 0.0
C271 C 0.17966 0.21644 0.82904 0.0
C272 C 0.18803 0.22984 0.8542 0.0
C273 C 0.18224 0.21682 0.88008 0.0
C274 C 0.16804 0.19067 0.87969 0.0
H275 H 0.159 0.18007 0.81059 0.0
O276 O 0.06706 0.17718 0.84063 0.0
O277 O 0.10297 0.15834 0.86483 0.0
O278 O 0.09027 0.12863 0.81353 0.0
O279 O 0.13809 0.13361 0.82244 0.0
C280 C 0.18964 0.22894 0.90625 0.0
C281 C 0.18267 0.21483 0.93149 0.0
H282 H 0.16519 0.18176 0.97559 0.0
H283 H 0.13931 0.13603 0.97063 0.0
H284 H 0.18418 0.22629 0.80897 0.0
H285 H 0.19888 0.25011 0.85339 0.0
H286 H 0.20047 0.24922 0.90721 0.0
H287 H 0.18825 0.22446 0.95149 0.0
Mn288 Mn 0.17269 0.41101 0.11095 0.0
Mn289 Mn 0.10337 0.38817 0.10974 0.0
C290 C 0.15044 0.4016 0.06816 0.0
C291 C 0.22161 0.40034 0.11538 0.0
C292 C 0.12141 0.44899 0.12103 0.0
O293 O 0.1648 0.40008 0.1517 0.0
O294 O 0.12091 0.37912 0.1471 0.0
C295 C 0.11228 0.3268 0.11273 0.0
N296 N 0.10109 0.34948 0.09923 0.0
C297 C 0.0801 0.32021 0.06301 0.0
C298 C 0.09121 0.2965 0.07665 0.0
C299 C 0.10742 0.29982 0.10159 0.0
C300 C 0.08544 0.34654 0.07524 0.0
H301 H 0.12487 0.32929 0.13182 0.0
C302 C 0.14344 0.38603 0.16156 0.0
O303 O 0.21212 0.42529 0.12114 0.0
O304 O 0.2026 0.38162 0.10757 0.0
N305 N 0.08391 0.39537 0.07483 0.0
C306 C 0.07643 0.42048 0.0633 0.0
C307 C 0.06111 0.42092 0.03767 0.0
C308 C 0.05348 0.39558 0.02429 0.0
C309 C 0.06118 0.36999 0.0367 0.0
C310 C 0.07625 0.37084 0.06236 0.0
H311 H 0.08227 0.44003 0.07346 0.0
O312 O 0.1737 0.41712 0.06935 0.0
O313 O 0.14148 0.39129 0.09201 0.0
O314 O 0.14844 0.44638 0.11621 0.0
O315 O 0.10337 0.42839 0.12024 0.0
C316 C 0.05506 0.34369 0.02429 0.0
C317 C 0.06453 0.31882 0.03743 0.0
H318 H 0.08769 0.27568 0.06801 0.0
H319 H 0.11621 0.28164 0.11214 0.0
H320 H 0.05529 0.44076 0.02821 0.0
H321 H 0.04191 0.39602 1.00439 0.0
H322 H 0.04349 0.34237 1.00442 0.0
H323 H 0.06008 0.29875 0.02747 0.0
Mn324 Mn 0.65407 0.08 0.88517 0.0
Mn325 Mn 0.58205 0.0861 0.89139 0.0
C326 C 0.63396 0.08524 0.92943 0.0
C327 C 0.69812 0.10344 0.87926 0.0
C328 C 0.61211 0.03066 0.87795 0.0
O329 O 0.64108 0.0886 0.8452 0.0
O330 O 0.59385 0.09813 0.8526 0.0
C331 C 0.5768 0.14787 0.88777 0.0
N332 N 0.57254 0.12353 0.90228 0.0
C333 C 0.55201 0.1484 0.94147 0.0
C334 C 0.55595 0.17371 0.92684 0.0
C335 C 0.56841 0.17343 0.89988 0.0
C336 C 0.5605 0.12354 0.92821 0.0
H337 H 0.58667 0.14777 0.86718 0.0
C338 C 0.61628 0.0967 0.83666 0.0
O339 O 0.69557 0.07681 0.87342 0.0
O340 O 0.67507 0.11623 0.88745 0.0
N341 N 0.56841 0.07537 0.92792 0.0
C342 C 0.56759 0.04935 0.93984 0.0
C343 C 0.5565 0.04608 0.96716 0.0
C344 C 0.54638 0.06957 0.98193 0.0
C345 C 0.54727 0.09611 0.96918 0.0
C346 C 0.55822 0.09802 0.94175 0.0
H347 H 0.57553 0.03125 0.92868 0.0
O348 O 0.65962 0.07477 0.92663 0.0
O349 O 0.621 0.09217 0.90613 0.0
O350 O 0.63831 0.0395 0.88053 0.0
O351 O 0.59013 0.04666 0.88086 0.0
C352 C 0.53828 0.1208 0.9828 0.0
C353 C 0.54064 0.14693 0.96896 0.0
H354 H 0.54977 0.1935 0.9362 0.0
H355 H 0.57171 0.1929 0.88854 0.0
H356 H 0.55593 0.02554 0.97689 0.0
H357 H 0.53816 0.06701 1.00311 0.0
H358 H 0.52987 0.11998 1.00407 0.0
H359 H 0.53399 0.16582 0.97978 0.0
Mn360 Mn 0.82846 0.92046 0.38281 0.0
Mn361 Mn 0.90086 0.91529 0.38685 0.0
C362 C 0.85027 0.91553 0.42654 0.0
C363 C 0.7838 0.89791 0.37693 0.0
C364 C 0.86912 0.96965 0.37355 0.0
O365 O 0.84091 0.9127 0.34224 0.0
O366 O 0.88783 0.9012 0.34918 0.0
C367 C 0.90767 0.85359 0.38607 0.0
N368 N 0.91196 0.87874 0.39918 0.0
C369 C 0.93603 0.85659 0.43825 0.0
C370 C 0.93205 0.83046 0.42507 0.0
C371 C 0.91778 0.82896 0.39888 0.0
C372 C 0.92568 0.88043 0.42437 0.0
H373 H 0.89654 0.85237 0.36603 0.0
C374 C 0.86529 0.90373 0.33341 0.0
O375 O 0.78706 0.92449 0.37141 0.0
O376 O 0.80671 0.88436 0.3847 0.0
N377 N 0.91588 0.92821 0.42228 0.0
C378 C 0.91669 0.95484 0.43281 0.0
C379 C 0.92964 0.95988 0.45918 0.0
C380 C 0.94167 0.93754 0.47442 0.0
C381 C 0.94076 0.91035 0.46308 0.0
C382 C 0.92787 0.90666 0.43655 0.0
H383 H 0.90744 0.9721 0.42123 0.0
O384 O 0.8241 0.92505 0.42449 0.0
O385 O 0.86252 0.90877 0.4029 0.0
O386 O 0.84348 0.96098 0.37896 0.0
O387 O 0.89144 0.95391 0.37438 0.0
C388 C 0.9517 0.88671 0.47727 0.0
C389 C 0.94931 0.85984 0.46487 0.0
H390 H 0.93963 0.81139 0.43497 0.0
H391 H 0.91449 0.80886 0.38866 0.0
H392 H 0.93024 0.98093 0.4678 0.0
H393 H 0.95139 0.94149 0.49486 0.0
H394 H 0.96167 0.8889 0.49788 0.0
H395 H 0.95747 0.84177 0.47614 0.0
Mn396 Mn 0.83715 0.09749 0.1333 0.0
Mn397 Mn 0.83857 0.16829 0.13786 0.0
C398 C 0.84275 0.11961 0.17658 0.0
C399 C 0.86074 0.05453 0.12857 0.0
C400 C 0.78333 0.13411 0.12933 0.0
O401 O 0.84466 0.10946 0.09255 0.0
O402 O 0.84743 0.15644 0.0987 0.0
C403 C 0.90114 0.17813 0.12753 0.0
N404 N 0.87748 0.18108 0.14432 0.0
C405 C 0.90561 0.20591 0.17934 0.0
C406 C 0.93023 0.20333 0.16233 0.0
C407 C 0.92798 0.18935 0.13633 0.0
C408 C 0.87937 0.19458 0.16933 0.0
H409 H 0.89957 0.16722 0.10763 0.0
C410 C 0.84877 0.1344 0.08322 0.0
O411 O 0.83329 0.05686 0.12289 0.0
O412 O 0.8746 0.0774 0.13541 0.0
N413 N 0.83072 0.1823 0.17483 0.0
C414 C 0.80542 0.18126 0.18955 0.0
C415 C 0.80428 0.19337 0.21649 0.0
C416 C 0.82909 0.20645 0.22798 0.0
C417 C 0.85482 0.20742 0.21235 0.0
C418 C 0.85458 0.19527 0.18547 0.0
H419 H 0.78634 0.17107 0.18089 0.0
O420 O 0.83317 0.09394 0.17517 0.0
O421 O 0.84883 0.13143 0.15267 0.0
O422 O 0.7951 0.11002 0.12985 0.0
O423 O 0.79761 0.15713 0.13183 0.0
C424 C 0.88086 0.2194 0.22263 0.0
C425 C 0.90624 0.21864 0.20614 0.0
H426 H 0.95103 0.21171 0.16916 0.0
H427 H 0.94693 0.18712 0.12316 0.0
H428 H 0.78436 0.19247 0.22846 0.0
H429 H 0.82821 0.21548 0.2489 0.0
H430 H 0.88172 0.22888 0.24337 0.0
H431 H 0.92623 0.22755 0.21446 0.0
Mn432 Mn 0.33473 0.59445 0.63106 0.0
Mn433 Mn 0.33723 0.66502 0.63759 0.0
C434 C 0.34031 0.61524 0.67493 0.0
C435 C 0.35851 0.55176 0.62514 0.0
C436 C 0.28148 0.63188 0.62785 0.0
O437 O 0.34245 0.60749 0.59072 0.0
O438 O 0.3462 0.65422 0.59814 0.0
C439 C 0.40013 0.67375 0.62817 0.0
N440 N 0.37637 0.67672 0.64482 0.0
C441 C 0.40489 0.69907 0.68121 0.0
C442 C 0.42962 0.69642 0.66436 0.0
C443 C 0.42722 0.68369 0.63774 0.0
C444 C 0.37841 0.68904 0.67044 0.0
H445 H 0.39844 0.66373 0.60782 0.0
C446 C 0.34712 0.63258 0.58207 0.0
O447 O 0.33101 0.55405 0.61955 0.0
O448 O 0.37218 0.57449 0.63265 0.0
N449 N 0.32933 0.67803 0.67493 0.0
C450 C 0.30379 0.67738 0.68927 0.0
C451 C 0.30266 0.68858 0.71661 0.0
C452 C 0.32776 0.70033 0.7289 0.0
C453 C 0.35375 0.70095 0.71367 0.0
C454 C 0.35347 0.68984 0.68634 0.0
H455 H 0.28448 0.66819 0.67999 0.0
O456 O 0.33059 0.58967 0.67282 0.0
O457 O 0.34654 0.62762 0.65135 0.0
O458 O 0.29282 0.60756 0.62788 0.0
O459 O 0.29613 0.65465 0.63091 0.0
C460 C 0.38006 0.71158 0.72475 0.0
C461 C 0.40562 0.71061 0.70855 0.0
H462 H 0.45061 0.70379 0.67178 0.0
H463 H 0.44624 0.68141 0.62469 0.0
H464 H 0.28254 0.68797 0.72826 0.0
H465 H 0.32689 0.70861 0.75013 0.0
H466 H 0.38098 0.72016 0.74588 0.0
H467 H 0.42581 0.71842 0.71748 0.0
Mn468 Mn 0.15294 0.5824 0.38449 0.0
Mn469 Mn 0.08087 0.58834 0.38994 0.0
C470 C 0.13243 0.58771 0.42854 0.0
C471 C 0.197 0.60566 0.37871 0.0
C472 C 0.11125 0.53297 0.37699 0.0
O473 O 0.14032 0.59076 0.34437 0.0
O474 O 0.09302 0.60033 0.35122 0.0
C475 C 0.07551 0.65009 0.38613 0.0
N476 N 0.07116 0.62578 0.40065 0.0
C477 C 0.05025 0.6507 0.43961 0.0
C478 C 0.05428 0.67598 0.42495 0.0
C479 C 0.06698 0.67567 0.3981 0.0
C480 C 0.05889 0.62583 0.42648 0.0
H481 H 0.08556 0.64996 0.36562 0.0
C482 C 0.11563 0.59882 0.33553 0.0
O483 O 0.19441 0.57901 0.373 0.0
O484 O 0.17396 0.6186 0.38674 0.0
N485 N 0.06685 0.57766 0.42636 0.0
C486 C 0.06592 0.55166 0.43831 0.0
C487 C 0.05455 0.54843 0.46553 0.0
C488 C 0.04428 0.57194 0.48017 0.0
C489 C 0.04529 0.59845 0.46738 0.0
C490 C 0.05651 0.60033 0.44006 0.0
H491 H 0.07396 0.53354 0.42725 0.0
O492 O 0.15815 0.57733 0.42598 0.0
O493 O 0.11964 0.59458 0.40511 0.0
O494 O 0.13736 0.54191 0.37993 0.0
O495 O 0.08916 0.54888 0.37956 0.0
C496 C 0.03615 0.62317 0.48087 0.0
C497 C 0.03861 0.64927 0.46699 0.0
H498 H 0.04798 0.69578 0.43422 0.0
H499 H 0.07034 0.69512 0.38674 0.0
H500 H 0.05389 0.5279 0.47528 0.0
H501 H 0.03586 0.56941 0.50128 0.0
H502 H 0.02753 0.62239 0.50206 0.0
H503 H 0.03183 0.66817 0.47771 0.0
Mn504 Mn 0.33411 0.42427 0.88102 0.0
Mn505 Mn 0.40596 0.41393 0.88481 0.0
C506 C 0.35585 0.41823 0.92472 0.0
C507 C 0.28822 0.4035 0.87575 0.0
C508 C 0.37873 0.47088 0.87212 0.0
O509 O 0.34531 0.4154 0.84051 0.0
O510 O 0.39169 0.4019 0.84678 0.0
C511 C 0.40714 0.35187 0.88237 0.0
N512 N 0.4138 0.37624 0.89607 0.0
C513 C 0.43592 0.35111 0.93438 0.0
C514 C 0.4295 0.32574 0.92057 0.0
C515 C 0.41501 0.32613 0.89447 0.0
C516 C 0.42772 0.37611 0.9212 0.0
H517 H 0.39582 0.3521 0.8624 0.0
C518 C 0.36907 0.40541 0.83133 0.0
O519 O 0.29247 0.42996 0.87009 0.0
O520 O 0.31063 0.38931 0.88353 0.0
N521 N 0.42234 0.42463 0.92041 0.0
C522 C 0.42583 0.45085 0.93151 0.0
C523 C 0.43945 0.45411 0.95785 0.0
C524 C 0.4494 0.43042 0.97244 0.0
C525 C 0.44581 0.40367 0.96049 0.0
C526 C 0.4324 0.40175 0.93401 0.0
H527 H 0.41819 0.46914 0.92042 0.0
O528 O 0.33047 0.42953 0.92272 0.0
O529 O 0.36739 0.41046 0.90106 0.0
O530 O 0.35223 0.46388 0.87643 0.0
O531 O 0.39969 0.45349 0.87375 0.0
C532 C 0.45459 0.37881 0.97399 0.0
C533 C 0.44962 0.35254 0.96096 0.0
H534 H 0.43536 0.30584 0.92993 0.0
H535 H 0.40983 0.30664 0.88377 0.0
H536 H 0.44217 0.47482 0.96693 0.0
H537 H 0.45968 0.433 0.99284 0.0
H538 H 0.46486 0.37963 0.99455 0.0
H539 H 0.45615 0.33355 0.9717 0.0
Mn540 Mn 0.88822 0.8382 0.58485 0.0
Mn541 Mn 0.89928 0.90722 0.59739 0.0
C542 C 0.93473 0.85529 0.59061 0.0
C543 C 0.87852 0.79305 0.6022 0.0
C544 C 0.88351 0.88386 0.53963 0.0
O545 O 0.84846 0.85207 0.59604 0.0
O546 O 0.85889 0.89683 0.60827 0.0
C547 C 0.89629 0.90651 0.65964 0.0
N548 N 0.91112 0.9126 0.63564 0.0
C549 C 0.95184 0.93071 0.66213 0.0
C550 C 0.93693 0.92479 0.68715 0.0
C551 C 0.90906 0.91258 0.68589 0.0
C552 C 0.938 0.92422 0.63661 0.0
H553 H 0.8749 0.89705 0.65872 0.0
C554 C 0.84119 0.876 0.60568 0.0
O555 O 0.87237 0.79993 0.57637 0.0
O556 O 0.88963 0.81258 0.61805 0.0
N557 N 0.93739 0.92015 0.58778 0.0
C558 C 0.94921 0.9236 0.56173 0.0
C559 C 0.97707 0.9355 0.55925 0.0
C560 C 0.99238 0.94386 0.58353 0.0
C561 C 0.97978 0.9401 0.6101 0.0
C562 C 0.95179 0.92849 0.61123 0.0
H563 H 0.93748 0.91736 0.54298 0.0
O564 O 0.93023 0.83145 0.578 0.0
O565 O 0.9119 0.86817 0.59971 0.0
O566 O 0.88407 0.85786 0.54636 0.0
O567 O 0.88793 0.90368 0.55735 0.0
C568 C 0.99398 0.9472 0.6355 0.0
C569 C 0.98006 0.9424 0.66151 0.0
H570 H 0.94673 0.92935 0.70744 0.0
H571 H 0.89748 0.90783 0.70511 0.0
H572 H 0.9867 0.93828 0.53868 0.0
H573 H 0.01372 0.95322 0.5815 0.0
H574 H 0.01572 0.95606 0.63529 0.0
H575 H 0.99133 0.94762 0.68091 0.0
Mn576 Mn 0.91056 0.14306 0.3432 0.0
Mn577 Mn 0.95125 0.10354 0.30085 0.0
C578 C 0.95657 0.12961 0.35918 0.0
C579 C 0.89554 0.18892 0.35329 0.0
C580 C 0.90045 0.08079 0.3354 0.0
O581 O 0.88901 0.14348 0.30526 0.0
O582 O 0.92449 0.12633 0.27835 0.0
C583 C 0.98479 0.14785 0.27131 0.0
N584 N 0.98391 0.12343 0.28619 0.0
C585 C 0.03388 0.11406 0.27609 0.0
C586 C 0.03553 0.13923 0.2608 0.0
C587 C 0.01095 0.15637 0.2587 0.0
C588 C 0.00767 0.10744 0.28935 0.0
H589 H 0.96558 0.16045 0.26884 0.0
C590 C 0.89984 0.13775 0.2813 0.0
O591 O 0.87998 0.16725 0.36075 0.0
O592 O 0.91937 0.18386 0.34 0.0
N593 N 0.97872 0.07955 0.31837 0.0
C594 C 0.97306 0.05567 0.33321 0.0
C595 C 0.9938 0.03444 0.33414 0.0
C596 C 0.02019 0.0381 0.31997 0.0
C597 C 0.02651 0.06363 0.3066 0.0
C598 C 0.00465 0.08371 0.30571 0.0
H599 H 0.95227 0.05208 0.34291 0.0
O600 O 0.93744 0.1398 0.37619 0.0
O601 O 0.94885 0.12936 0.33275 0.0
O602 O 0.89566 0.10271 0.35022 0.0
O603 O 0.91844 0.08055 0.31495 0.0
C604 C 0.0528 0.0692 0.29248 0.0
C605 C 0.0568 0.09479 0.27794 0.0
H606 H 0.05543 0.14542 0.25034 0.0
H607 H 0.01198 0.17573 0.24679 0.0
H608 H 0.98894 0.01482 0.34469 0.0
H609 H 0.03499 0.02076 0.31878 0.0
H610 H 0.06996 0.05387 0.29239 0.0
H611 H 0.07721 0.09899 0.26745 0.0
Mn612 Mn 0.61108 0.17478 0.08482 0.0
Mn613 Mn 0.60299 0.10646 0.10213 0.0
C614 C 0.56556 0.15687 0.0925 0.0
C615 C 0.62028 0.22069 0.10041 0.0
C616 C 0.61405 0.12629 0.04224 0.0
O617 O 0.65153 0.16308 0.09546 0.0
O618 O 0.64382 0.11869 0.11012 0.0
C619 C 0.61023 0.11202 0.16385 0.0
N620 N 0.59395 0.10373 0.14127 0.0
C621 C 0.5555 0.08723 0.17134 0.0
C622 C 0.57194 0.0954 0.19493 0.0
C623 C 0.5994 0.10789 0.19116 0.0
C624 C 0.56746 0.09178 0.14465 0.0
H625 H 0.63127 0.12177 0.16102 0.0
C626 C 0.66033 0.14016 0.10608 0.0
O627 O 0.62541 0.21326 0.07453 0.0
O628 O 0.6102 0.20144 0.11703 0.0
N629 N 0.56473 0.0917 0.0957 0.0
C630 C 0.55125 0.08579 0.07074 0.0
C631 C 0.52342 0.0735 0.07083 0.0
C632 C 0.50986 0.06719 0.09652 0.0
C633 C 0.52428 0.07316 0.12191 0.0
C634 C 0.55211 0.08515 0.12052 0.0
H635 H 0.56156 0.09055 0.05091 0.0
O636 O 0.56891 0.18016 0.0787 0.0
O637 O 0.58898 0.14513 0.10204 0.0
O638 O 0.614 0.15276 0.0473 0.0
O639 O 0.61121 0.10764 0.06142 0.0
C640 C 0.51197 0.06803 0.14855 0.0
C641 C 0.52754 0.07514 0.17325 0.0
H642 H 0.56362 0.09236 0.21603 0.0
H643 H 0.61215 0.11439 0.20926 0.0
H644 H 0.5124 0.06897 0.05115 0.0
H645 H 0.48839 0.05777 0.09652 0.0
H646 H 0.49041 0.05893 0.15028 0.0
H647 H 0.51771 0.07139 0.1936 0.0
Mn648 Mn 0.58603 0.85502 0.83185 0.0
Mn649 Mn 0.54478 0.89464 0.78954 0.0
C650 C 0.53876 0.86442 0.84488 0.0
C651 C 0.60368 0.81063 0.84414 0.0
C652 C 0.58395 0.92013 0.83364 0.0
O653 O 0.60949 0.85537 0.79555 0.0
O654 O 0.58353 0.88796 0.77311 0.0
C655 C 0.5393 0.85016 0.74575 0.0
N656 N 0.5267 0.86841 0.76401 0.0
C657 C 0.47897 0.85266 0.74997 0.0
C658 C 0.49149 0.83383 0.73098 0.0
C659 C 0.52181 0.83259 0.72888 0.0
C660 C 0.49757 0.86971 0.76616 0.0
H661 H 0.56248 0.84892 0.74401 0.0
C662 C 0.60567 0.87229 0.77525 0.0
O663 O 0.61725 0.83348 0.85188 0.0
O664 O 0.58067 0.81371 0.82883 0.0
N665 N 0.50644 0.90314 0.80089 0.0
C666 C 0.49793 0.92265 0.81983 0.0
C667 C 0.46846 0.92559 0.8253 0.0
C668 C 0.44777 0.90984 0.81013 0.0
C669 C 0.45697 0.89102 0.78949 0.0
C670 C 0.48684 0.88835 0.78545 0.0
H671 H 0.51356 0.93487 0.83158 0.0
O672 O 0.55775 0.85614 0.86313 0.0
O673 O 0.54748 0.86541 0.81861 0.0
O674 O 0.59697 0.8971 0.83976 0.0
O675 O 0.56265 0.92165 0.81621 0.0
C676 C 0.43777 0.87418 0.77348 0.0
C677 C 0.44878 0.855 0.75367 0.0
H678 H 0.47806 0.82018 0.71801 0.0
H679 H 0.5317 0.81807 0.71433 0.0
H680 H 0.46225 0.93927 0.84188 0.0
H681 H 0.42505 0.91166 0.81496 0.0
H682 H 0.41453 0.87569 0.77636 0.0
H683 H 0.43386 0.84205 0.74152 0.0
Mn684 Mn 0.85074 0.17187 0.91737 0.0
Mn685 Mn 0.84533 0.15669 0.84809 0.0
C686 C 0.80619 0.16129 0.89741 0.0
C687 C 0.85753 0.15823 0.96419 0.0
C688 C 0.85628 0.21567 0.87053 0.0
O689 O 0.89217 0.16231 0.90663 0.0
O690 O 0.88522 0.14857 0.86148 0.0
C691 C 0.85262 0.09502 0.84966 0.0
N692 N 0.83645 0.11777 0.84267 0.0
C693 C 0.79871 0.08834 0.82304 0.0
C694 C 0.81505 0.06461 0.82988 0.0
C695 C 0.8421 0.06797 0.84328 0.0
C696 C 0.81044 0.11479 0.82966 0.0
H697 H 0.87335 0.09751 0.8601 0.0
C698 C 0.90123 0.15201 0.88343 0.0
O699 O 0.86272 0.18375 0.95588 0.0
O700 O 0.84926 0.14033 0.94508 0.0
N701 N 0.80736 0.16341 0.83322 0.0
C702 C 0.79341 0.1883 0.83 0.0
C703 C 0.76554 0.18853 0.81795 0.0
C704 C 0.75234 0.16321 0.80933 0.0
C705 C 0.76718 0.13787 0.81278 0.0
C706 C 0.79502 0.13896 0.82467 0.0
H707 H 0.80337 0.2078 0.83673 0.0
O708 O 0.80766 0.17575 0.92058 0.0
O709 O 0.83072 0.15399 0.88657 0.0
O710 O 0.85425 0.20946 0.89657 0.0
O711 O 0.85399 0.19739 0.85093 0.0
C712 C 0.75517 0.11151 0.80548 0.0
C713 C 0.77093 0.08677 0.81058 0.0
H714 H 0.8069 0.04369 0.82523 0.0
H715 H 0.85476 0.04974 0.84877 0.0
H716 H 0.75419 0.20816 0.81546 0.0
H717 H 0.73072 0.16344 0.80031 0.0
H718 H 0.73365 0.11 0.79632 0.0
H719 H 0.76128 0.06661 0.80527 0.0
Mn720 Mn 0.5734 0.11789 0.66057 0.0
Mn721 Mn 0.52791 0.07639 0.69739 0.0
C722 C 0.52551 0.11168 0.64597 0.0
C723 C 0.59084 0.1632 0.65136 0.0
C724 C 0.57559 0.05393 0.65982 0.0
O725 O 0.59377 0.11521 0.69909 0.0
O726 O 0.55966 0.08991 0.7224 0.0
C727 C 0.50398 0.11687 0.73827 0.0
N728 N 0.49984 0.09787 0.71716 0.0
C729 C 0.4481 0.10168 0.72075 0.0
C730 C 0.45176 0.12125 0.74259 0.0
C731 C 0.47986 0.12899 0.75129 0.0
C732 C 0.47292 0.09043 0.70849 0.0
H733 H 0.52548 0.12267 0.74513 0.0
C734 C 0.58355 0.10384 0.72145 0.0
O735 O 0.60539 0.14134 0.64338 0.0
O736 O 0.56764 0.15849 0.66585 0.0
N737 N 0.49606 0.06279 0.67519 0.0
C738 C 0.49629 0.04567 0.65219 0.0
C739 C 0.4699 0.03709 0.6399 0.0
C740 C 0.4436 0.04607 0.65149 0.0
C741 C 0.44398 0.06389 0.67501 0.0
C742 C 0.47091 0.07194 0.68619 0.0
H743 H 0.51644 0.03876 0.64317 0.0
O744 O 0.54532 0.11895 0.62803 0.0
O745 O 0.53473 0.10723 0.6714 0.0
O746 O 0.58528 0.07741 0.65058 0.0
O747 O 0.55512 0.05195 0.67769 0.0
C748 C 0.4187 0.07412 0.68771 0.0
C749 C 0.42079 0.09304 0.71057 0.0
H750 H 0.43316 0.13059 0.75269 0.0
H751 H 0.48292 0.14414 0.76807 0.0
H752 H 0.46983 0.02352 0.6216 0.0
H753 H 0.42326 0.03936 0.64201 0.0
H754 H 0.39766 0.06754 0.67986 0.0
H755 H 0.40143 0.10104 0.72029 0.0
Mn756 Mn 0.62589 0.84135 0.41298 0.0
Mn757 Mn 0.63437 0.84764 0.34271 0.0
C758 C 0.67159 0.84748 0.39393 0.0
C759 C 0.61991 0.86022 0.45788 0.0
C760 C 0.62084 0.79224 0.37171 0.0
O761 O 0.58508 0.85121 0.39939 0.0
O762 O 0.59407 0.85781 0.35306 0.0
C763 C 0.62825 0.90918 0.3368 0.0
N764 N 0.64422 0.88555 0.33325 0.0
C765 C 0.6835 0.91207 0.31272 0.0
C766 C 0.66738 0.93666 0.31599 0.0
C767 C 0.63965 0.9352 0.3281 0.0
C768 C 0.67088 0.88669 0.32151 0.0
H769 H 0.60701 0.90818 0.34628 0.0
C770 C 0.5771 0.85801 0.37443 0.0
O771 O 0.61306 0.83429 0.45233 0.0
O772 O 0.62834 0.87571 0.43691 0.0
N773 N 0.67269 0.83871 0.33048 0.0
C774 C 0.68617 0.81337 0.33063 0.0
C775 C 0.71453 0.81137 0.3202 0.0
C776 C 0.7287 0.8354 0.30968 0.0
C777 C 0.71432 0.86121 0.30961 0.0
C778 C 0.68596 0.86187 0.32001 0.0
H779 H 0.67544 0.79487 0.33883 0.0
O780 O 0.66851 0.83591 0.41847 0.0
O781 O 0.64785 0.8547 0.3812 0.0
O782 O 0.6214 0.80181 0.39675 0.0
O783 O 0.62486 0.80766 0.35004 0.0
C784 C 0.72726 0.88643 0.3002 0.0
C785 C 0.71185 0.91183 0.30174 0.0
H786 H 0.67621 0.95682 0.30955 0.0
H787 H 0.62715 0.95412 0.33084 0.0
H788 H 0.72549 0.79138 0.3204 0.0
H789 H 0.75069 0.83383 0.30193 0.0
H790 H 0.7492 0.88659 0.29211 0.0
H791 H 0.72219 0.93114 0.29482 0.0
Mn792 Mn 0.91676 0.88485 0.16 0.0
Mn793 Mn 0.9589 0.92863 0.19837 0.0
C794 C 0.96533 0.89168 0.14848 0.0
C795 C 0.90061 0.83921 0.15004 0.0
C796 C 0.91331 0.9489 0.15695 0.0
O797 O 0.89424 0.88758 0.1971 0.0
O798 O 0.92525 0.91589 0.22134 0.0
C799 C 0.97978 0.89022 0.24289 0.0
N800 N 0.98547 0.90822 0.22128 0.0
C801 C 0.03686 0.90399 0.22846 0.0
C802 C 0.03158 0.88543 0.25081 0.0
C803 C 0.00289 0.87845 0.258 0.0
C804 C 0.01298 0.9151 0.21421 0.0
H805 H 0.9578 0.88494 0.24859 0.0
C806 C 0.90212 0.9008 0.21941 0.0
O807 O 0.8862 0.86081 0.14111 0.0
O808 O 0.92291 0.84433 0.16592 0.0
N809 N 0.99233 0.94152 0.17829 0.0
C810 C 0.99375 0.95756 0.15457 0.0
C811 C 0.02095 0.96526 0.14368 0.0
C812 C 0.04636 0.95644 0.15731 0.0
C813 C 0.04429 0.93971 0.18153 0.0
C814 C 0.01662 0.93263 0.19136 0.0
H815 H 0.9743 0.96416 0.14386 0.0
O816 O 0.94667 0.88396 0.1294 0.0
O817 O 0.95461 0.89649 0.17324 0.0
O818 O 0.90427 0.92483 0.14861 0.0
O819 O 0.93316 0.9521 0.17547 0.0
C820 C 0.06861 0.92948 0.19607 0.0
C821 C 0.06489 0.91162 0.21955 0.0
H822 H 0.04939 0.87626 0.26246 0.0
H823 H -0.0014 0.8641 0.27519 0.0
H824 H 0.02233 0.97793 0.12481 0.0
H825 H 0.06732 0.96235 0.14883 0.0
H826 H 0.09019 0.93511 0.18908 0.0
H827 H 0.08361 0.90357 0.23056 0.0
Mn828 Mn 0.83303 0.59376 0.88937 0.0
Mn829 Mn 0.79111 0.55782 0.84304 0.0
C830 C 0.78444 0.6055 0.8826 0.0
C831 C 0.84969 0.60141 0.93582 0.0
C832 C 0.83735 0.60005 0.82508 0.0
O833 O 0.85541 0.55696 0.88436 0.0
O834 O 0.82386 0.53406 0.85545 0.0
C835 C 0.76778 0.51203 0.87887 0.0
N836 N 0.76332 0.53418 0.86133 0.0
C837 C 0.71181 0.5255 0.86066 0.0
C838 C 0.71583 0.50256 0.87872 0.0
C839 C 0.74393 0.4959 0.88799 0.0
C840 C 0.73637 0.54087 0.85242 0.0
H841 H 0.78936 0.50667 0.88573 0.0
C842 C 0.8471 0.53529 0.87034 0.0
O843 O 0.86362 0.61134 0.91421 0.0
O844 O 0.82721 0.58578 0.93035 0.0
N845 N 0.75857 0.57873 0.83004 0.0
C846 C 0.75805 0.60377 0.81619 0.0
C847 C 0.73147 0.6144 0.8067 0.0
C848 C 0.70574 0.59921 0.81166 0.0
C849 C 0.70683 0.57392 0.82674 0.0
C850 C 0.73389 0.56448 0.83582 0.0
H851 H 0.77766 0.6158 0.81298 0.0
O852 O 0.80291 0.624 0.89204 0.0
O853 O 0.7951 0.58113 0.87666 0.0
O854 O 0.84588 0.60765 0.84965 0.0
O855 O 0.81782 0.58137 0.82115 0.0
C856 C 0.68206 0.55797 0.83347 0.0
C857 C 0.68443 0.53388 0.85064 0.0
H858 H 0.69749 0.49004 0.88573 0.0
H859 H 0.74721 0.47826 0.90196 0.0
H860 H 0.7308 0.63426 0.79567 0.0
H861 H 0.68523 0.60744 0.80435 0.0
H862 H 0.66118 0.56443 0.82561 0.0
H863 H 0.66511 0.52207 0.85621 0.0
Mn864 Mn 0.33173 0.91764 0.11514 0.0
Mn865 Mn 0.2789 0.95386 0.14701 0.0
C866 C 0.28592 0.89722 0.11916 0.0
C867 C 0.35663 0.90893 0.07365 0.0
C868 C 0.32321 0.9197 0.1794 0.0
O869 O 0.3497 0.95704 0.11788 0.0
O870 O 0.31303 0.97775 0.14013 0.0
C871 C 0.26715 0.99057 0.09772 0.0
N872 N 0.25749 0.97227 0.11776 0.0
C873 C 0.20888 0.97384 0.09914 0.0
C874 C 0.21818 0.99307 0.07871 0.0
C875 C 0.24744 1.0014 0.07795 0.0
C876 C 0.2294 0.96415 0.11861 0.0
H877 H 0.28972 0.99667 0.09663 0.0
C878 C 0.33819 0.97836 0.12928 0.0
O879 O 0.3683 0.90292 0.09787 0.0
O880 O 0.3312 0.92006 0.07371 0.0
N881 N 0.24387 0.93463 0.1549 0.0
C882 C 0.23938 0.91394 0.17397 0.0
C883 C 0.2124 0.90066 0.17467 0.0
C884 C 0.18965 0.91015 0.15747 0.0
C885 C 0.19425 0.93278 0.13935 0.0
C886 C 0.22215 0.94435 0.13844 0.0
H887 H 0.25692 0.90602 0.18672 0.0
O888 O 0.30841 0.8822 0.11365 0.0
O889 O 0.29054 0.92441 0.12053 0.0
O890 O 0.33808 0.91223 0.1579 0.0
O891 O 0.30029 0.93476 0.17777 0.0
C892 C 0.17302 0.94247 0.12037 0.0
C893 C 0.1803 0.96319 0.10036 0.0
H894 H 0.20316 1.00117 0.06317 0.0
H895 H 0.25472 0.01586 0.06191 0.0
H896 H 0.21057 0.88179 0.18662 0.0
H897 H 0.16956 0.89866 0.1562 0.0
H898 H 0.15128 0.9336 0.12049 0.0
H899 H 0.164 0.97017 0.08551 0.0
Mn900 Mn 0.1618 0.10099 0.63357 0.0
Mn901 Mn 0.2017 0.06122 0.67696 0.0
C902 C 0.20675 0.11874 0.64879 0.0
C903 C 0.14877 0.11115 0.58726 0.0
C904 C 0.1496 0.095 0.69554 0.0
O905 O 0.14165 0.06234 0.63126 0.0
O906 O 0.17543 0.03802 0.6544 0.0
C907 C 0.23557 0.02979 0.63483 0.0
N908 N 0.23437 0.0453 0.65887 0.0
C909 C 0.28205 0.03114 0.67289 0.0
C910 C 0.28412 0.01517 0.64814 0.0
C911 C 0.26093 0.01486 0.62878 0.0
C912 C 0.2571 0.04711 0.67672 0.0
H913 H 0.21712 0.02848 0.62074 0.0
C914 C 0.15259 0.03929 0.63947 0.0
O915 O 0.13174 0.11756 0.60801 0.0
O916 O 0.17273 0.09862 0.59353 0.0
N917 N 0.2289 0.07899 0.70156 0.0
C918 C 0.2226 0.09438 0.72489 0.0
C919 C 0.2416 0.09406 0.748 0.0
C920 C 0.26675 0.07773 0.747 0.0
C921 C 0.27347 0.06294 0.72236 0.0
C922 C 0.25375 0.06413 0.69996 0.0
H923 H 0.20238 0.10546 0.72654 0.0
O924 O 0.18674 0.1347 0.63848 0.0
O925 O 0.20019 0.09197 0.64922 0.0
O926 O 0.14479 0.10794 0.67255 0.0
O927 O 0.16872 0.07607 0.69843 0.0
C928 C 0.29813 0.04581 0.71971 0.0
C929 C 0.30296 0.03076 0.69458 0.0
H930 H 0.30316 1.00268 0.64403 0.0
H931 H 0.2622 1.00238 0.60978 0.0
H932 H 0.23638 0.1056 0.76693 0.0
H933 H 0.28073 0.0767 0.76536 0.0
H934 H 0.31363 0.04416 0.73682 0.0
H935 H 0.32224 0.0181 0.69262 0.0
Mn936 Mn 0.15851 0.91721 0.89384 0.0
Mn937 Mn 0.19995 0.95836 0.85201 0.0
C938 C 0.2071 0.90649 0.88639 0.0
C939 C 0.14169 0.9061 0.93953 0.0
C940 C 0.15722 0.91511 0.82862 0.0
O941 O 0.13481 0.95337 0.89194 0.0
O942 O 0.16415 0.97822 0.86316 0.0
C943 C 0.21499 1.00192 0.89435 0.0
N944 N 0.22341 0.98264 0.87492 0.0
C945 C 0.27357 0.9955 0.88128 0.0
C946 C 0.26542 0.01567 0.90118 0.0
C947 C 0.23599 0.01879 0.90784 0.0
C948 C 0.25166 0.97928 0.86854 0.0
H949 H 0.19245 0.00443 0.8995 0.0
C950 C 0.14128 0.97553 0.87808 0.0
O951 O 0.12814 0.89715 0.91711 0.0
O952 O 0.16401 0.92217 0.93531 0.0
N953 N 0.23571 0.94254 0.83985 0.0
C954 C 0.24011 0.92045 0.82223 0.0
C955 C 0.26846 0.91381 0.81415 0.0
C956 C 0.29191 0.93005 0.82417 0.0
C957 C 0.28689 0.95255 0.84253 0.0
C958 C 0.25817 0.95819 0.84977 0.0
H959 H 0.22217 0.90778 0.81472 0.0
O960 O 0.18877 0.88724 0.89418 0.0
O961 O 0.19647 0.93148 0.883 0.0
O962 O 0.14686 0.90687 0.85235 0.0
O963 O 0.17714 0.93386 0.82665 0.0
C964 C 0.30919 0.96934 0.85433 0.0
C965 C 0.30258 0.99064 0.87382 0.0
H966 H 0.28159 0.0287 0.91163 0.0
H967 H 0.22949 0.0342 0.92328 0.0
H968 H 0.27224 0.89622 0.80024 0.0
H969 H 0.31362 0.92479 0.81777 0.0
H970 H 0.33154 0.96605 0.84888 0.0
H971 H 0.32002 1.00301 0.88309 0.0
Mn972 Mn 0.66072 0.4132 0.39375 0.0
Mn973 Mn 0.70177 0.45517 0.3524 0.0
C974 C 0.70941 0.40289 0.38612 0.0
C975 C 0.64396 0.40176 0.43933 0.0
C976 C 0.65929 0.41191 0.32856 0.0
O977 O 0.63667 0.44914 0.39219 0.0
O978 O 0.66589 0.47469 0.36392 0.0
C979 C 0.7167 0.49824 0.39527 0.0
N980 N 0.72516 0.47927 0.37555 0.0
C981 C 0.77526 0.49242 0.38182 0.0
C982 C 0.76706 0.51227 0.40202 0.0
C983 C 0.73764 0.51508 0.40887 0.0
C984 C 0.75341 0.4762 0.36899 0.0
H985 H 0.69417 0.50051 0.40056 0.0
C986 C 0.64299 0.47157 0.37873 0.0
O987 O 0.6305 0.39279 0.41687 0.0
O988 O 0.66623 0.41792 0.4352 0.0
N989 N 0.73757 0.43971 0.33993 0.0
C990 C 0.74204 0.41782 0.32206 0.0
C991 C 0.77039 0.41147 0.31377 0.0
C992 C 0.79377 0.42777 0.32384 0.0
C993 C 0.78869 0.45003 0.34247 0.0
C994 C 0.75996 0.45539 0.34992 0.0
H995 H 0.72415 0.4051 0.31453 0.0
O996 O 0.69124 0.38345 0.39379 0.0
O997 O 0.69856 0.42784 0.38301 0.0
O998 O 0.64911 0.4032 0.3522 0.0
O999 O 0.67901 0.43088 0.32679 0.0
C1000 C 0.81092 0.46686 0.35434 0.0
C1001 C 0.80426 0.48787 0.37413 0.0
H1002 H 0.78319 0.52528 0.41255 0.0
H1003 H 0.73111 0.53024 0.42455 0.0
H1004 H 0.77423 0.39405 0.29967 0.0
H1005 H 0.81547 0.42272 0.31728 0.0
H1006 H 0.83326 0.46383 0.34871 0.0
H1007 H 0.82165 0.50026 0.38345 0.0
Mn1008 Mn 0.83256 0.41601 0.61499 0.0
Mn1009 Mn 0.77986 0.45179 0.64757 0.0
C1010 C 0.78681 0.39533 0.61922 0.0
C1011 C 0.85709 0.40792 0.57309 0.0
C1012 C 0.82469 0.41768 0.67936 0.0
O1013 O 0.85039 0.45549 0.61795 0.0
O1014 O 0.81365 0.47593 0.64033 0.0
C1015 C 0.76715 0.48856 0.59857 0.0
N1016 N 0.75791 0.47016 0.61869 0.0
C1017 C 0.70905 0.47142 0.60072 0.0
C1018 C 0.7179 0.49077 0.58022 0.0
C1019 C 0.74709 0.4993 0.57909 0.0
C1020 C 0.7299 0.46185 0.61991 0.0
H1021 H 0.78967 0.49479 0.59717 0.0
C1022 C 0.83875 0.47674 0.62938 0.0
O1023 O 0.86901 0.40163 0.59712 0.0
O1024 O 0.8316 0.41891 0.57358 0.0
N1025 N 0.74514 0.43226 0.65585 0.0
C1026 C 0.74117 0.41132 0.67477 0.0
C1027 C 0.71443 0.39763 0.67556 0.0
C1028 C 0.69141 0.40699 0.65862 0.0
C1029 C 0.6954 0.42996 0.64083 0.0
C1030 C 0.72311 0.44189 0.63975 0.0
H1031 H 0.75898 0.40348 0.68721 0.0
O1032 O 0.80933 0.38048 0.61335 0.0
O1033 O 0.79136 0.42251 0.62082 0.0
O1034 O 0.83934 0.41022 0.65769 0.0
O1035 O 0.80179 0.43277 0.67796 0.0
C1036 C 0.67383 0.43952 0.62215 0.0
C1037 C 0.6806 0.46046 0.60221 0.0
H1038 H 0.70261 0.49878 0.56488 0.0
H1039 H 0.75404 0.51385 0.56298 0.0
H1040 H 0.71302 0.37849 0.68723 0.0
H1041 H 0.67169 0.39503 0.65704 0.0
H1042 H 0.65222 0.43035 0.62242 0.0
H1043 H 0.66404 0.46733 0.58758 0.0
Mn1044 Mn 0.663 0.60079 0.1357 0.0
Mn1045 Mn 0.70334 0.56115 0.17882 0.0
C1046 C 0.7077 0.61895 0.1511 0.0
C1047 C 0.6499 0.61126 0.0895 0.0
C1048 C 0.65068 0.59402 0.19757 0.0
O1049 O 0.64343 0.56194 0.13289 0.0
O1050 O 0.67731 0.53781 0.15611 0.0
C1051 C 0.73756 0.53036 0.13648 0.0
N1052 N 0.7362 0.54572 0.16061 0.0
C1053 C 0.78413 0.53216 0.17442 0.0
C1054 C 0.78637 0.51635 0.14958 0.0
C1055 C 0.76312 0.51581 0.13029 0.0
C1056 C 0.75895 0.54774 0.17841 0.0
H1057 H 0.71909 0.52887 0.12243 0.0
C1058 C 0.65455 0.53895 0.14103 0.0
O1059 O 0.63275 0.6172 0.1103 0.0
O1060 O 0.67406 0.59904 0.09567 0.0
N1061 N 0.73036 0.57909 0.2035 0.0
C1062 C 0.72394 0.59433 0.2269 0.0
C1063 C 0.74308 0.59428 0.2499 0.0
C1064 C 0.76849 0.57833 0.24874 0.0
C1065 C 0.77528 0.56365 0.22404 0.0
C1066 C 0.75543 0.5646 0.20175 0.0
H1067 H 0.70355 0.60511 0.22866 0.0
O1068 O 0.68741 0.63476 0.14107 0.0
O1069 O 0.7015 0.5921 0.15128 0.0
O1070 O 0.64572 0.60704 0.17468 0.0
O1071 O 0.6702 0.57547 0.20043 0.0
C1072 C 0.8002 0.5469 0.22123 0.0
C1073 C 0.80514 0.53199 0.19602 0.0
H1074 H 0.80558 0.50416 0.14535 0.0
H1075 H 0.76452 0.50345 0.11122 0.0
H1076 H 0.7378 0.60573 0.26886 0.0
H1077 H 0.78263 0.57753 0.26699 0.0
H1078 H 0.81583 0.54547 0.23825 0.0
H1079 H 0.82462 0.51965 0.19393 0.0
Mn1080 Mn 0.61241 0.65921 0.91831 0.0
Mn1081 Mn 0.60732 0.58877 0.92408 0.0
C1082 C 0.56664 0.63799 0.9147 0.0
C1083 C 0.61881 0.70095 0.89281 0.0
C1084 C 0.62045 0.62762 0.97299 0.0
O1085 O 0.65353 0.64614 0.91013 0.0
O1086 O 0.64668 0.59909 0.90971 0.0
C1087 C 0.61409 0.56443 0.86743 0.0
N1088 N 0.59757 0.5683 0.89076 0.0
C1089 C 0.56682 0.52887 0.87846 0.0
C1090 C 0.58291 0.52508 0.85384 0.0
C1091 C 0.60644 0.54308 0.84815 0.0
C1092 C 0.57469 0.55118 0.89628 0.0
H1093 H 0.63278 0.57768 0.86368 0.0
C1094 C 0.66262 0.62114 0.90637 0.0
O1095 O 0.6251 0.69933 0.91938 0.0
O1096 O 0.60972 0.67801 0.88069 0.0
N1097 N 0.57054 0.5763 0.93797 0.0
C1098 C 0.55769 0.58231 0.96303 0.0
C1099 C 0.53273 0.56726 0.97114 0.0
C1100 C 0.52176 0.54568 0.9538 0.0
C1101 C 0.53572 0.53954 0.92837 0.0
C1102 C 0.5599 0.55592 0.92095 0.0
H1103 H 0.56652 0.59835 0.97677 0.0
O1104 O 0.57024 0.66365 0.92344 0.0
O1105 O 0.59063 0.62447 0.90928 0.0
O1106 O 0.61716 0.65082 0.96042 0.0
O1107 O 0.61809 0.60414 0.96074 0.0
C1108 C 0.52708 0.51732 0.91049 0.0
C1109 C 0.54285 0.51175 0.88573 0.0
H1110 H 0.57737 0.50846 0.83912 0.0
H1111 H 0.61872 0.54011 0.82908 0.0
H1112 H 0.52226 0.57196 0.99092 0.0
H1113 H 0.50286 0.53373 0.96039 0.0
H1114 H 0.50858 0.50417 0.91576 0.0
H1115 H 0.53613 0.4945 0.87224 0.0
Mn1116 Mn 0.60082 0.38498 0.16991 0.0
Mn1117 Mn 0.61483 0.39307 0.10034 0.0
C1118 C 0.60649 0.42932 0.1504 0.0
C1119 C 0.61825 0.38102 0.21667 0.0
C1120 C 0.55483 0.38034 0.12314 0.0
O1121 O 0.61272 0.34529 0.15796 0.0
O1122 O 0.62228 0.35394 0.11218 0.0
C1123 C 0.6784 0.38525 0.10308 0.0
N1124 N 0.65522 0.40117 0.09568 0.0
C1125 C 0.68639 0.43756 0.07727 0.0
C1126 C 0.7106 0.42146 0.08452 0.0
C1127 C 0.70658 0.39521 0.0975 0.0
C1128 C 0.65883 0.42642 0.08309 0.0
H1129 H 0.67539 0.36515 0.11323 0.0
C1130 C 0.62054 0.33735 0.13334 0.0
O1131 O 0.59191 0.37339 0.21009 0.0
O1132 O 0.63452 0.38896 0.19595 0.0
N1133 N 0.60864 0.43001 0.08588 0.0
C1134 C 0.58312 0.44363 0.08195 0.0
C1135 C 0.58333 0.4706 0.07001 0.0
C1136 C 0.60977 0.48318 0.0621 0.0
C1137 C 0.63574 0.46859 0.06605 0.0
C1138 C 0.63413 0.44163 0.07774 0.0
H1139 H 0.56287 0.43401 0.08818 0.0
O1140 O 0.5931 0.42607 0.17412 0.0
O1141 O 0.61669 0.40666 0.13909 0.0
O1142 O 0.56179 0.3794 0.14928 0.0
O1143 O 0.57294 0.38542 0.10343 0.0
C1144 C 0.66322 0.47999 0.05949 0.0
C1145 C 0.68853 0.46451 0.06514 0.0
H1146 H 0.73238 0.42918 0.08049 0.0
H1147 H 0.72517 0.38273 0.10331 0.0
H1148 H 0.56321 0.48175 0.06706 0.0
H1149 H 0.60989 0.50413 0.05321 0.0
H1150 H 0.66517 0.50083 0.05052 0.0
H1151 H 0.70956 0.47369 0.06045 0.0
Mn1152 Mn 0.88559 0.34914 0.4069 0.0
Mn1153 Mn 0.88922 0.41976 0.40176 0.0
C1154 C 0.93027 0.37093 0.39749 0.0
C1155 C 0.87933 0.30384 0.38818 0.0
C1156 C 0.88559 0.3893 0.45746 0.0
O1157 O 0.84306 0.35929 0.40033 0.0
O1158 O 0.8486 0.40614 0.39728 0.0
C1159 C 0.87348 0.42477 0.34143 0.0
N1160 N 0.89091 0.43177 0.36356 0.0
C1161 C 0.91403 0.46876 0.33723 0.0
C1162 C 0.89566 0.46268 0.31435 0.0
C1163 C 0.8758 0.44013 0.3162 0.0
C1164 C 0.91136 0.45209 0.36137 0.0
H1165 H 0.85763 0.40802 0.34336 0.0
C1166 C 0.83281 0.3839 0.3972 0.0
O1167 O 0.87493 0.3091 0.41461 0.0
O1168 O 0.88618 0.3251 0.37235 0.0
N1169 N 0.92629 0.43757 0.40583 0.0
C1170 C 0.94338 0.43949 0.42924 0.0
C1171 C 0.9665 0.45895 0.42983 0.0
C1172 C 0.97096 0.4771 0.40688 0.0
C1173 C 0.95235 0.4755 0.38348 0.0
C1174 C 0.93024 0.45512 0.38379 0.0
H1175 H 0.93933 0.42633 0.44735 0.0
O1176 O 0.92843 0.3465 0.40943 0.0
O1177 O 0.90547 0.38267 0.39156 0.0
O1178 O 0.88407 0.36454 0.44739 0.0
O1179 O 0.88779 0.41102 0.44205 0.0
C1180 C 0.95478 0.49332 0.35986 0.0
C1181 C 0.93563 0.48995 0.33673 0.0
H1182 H 0.89716 0.47465 0.29501 0.0
H1183 H 0.86211 0.43491 0.29835 0.0
H1184 H 0.98049 0.46035 0.44815 0.0
H1185 H 0.98856 0.49234 0.40758 0.0
H1186 H 0.97158 0.50937 0.35906 0.0
H1187 H 0.93817 0.5033 0.31843 0.0
Mn1188 Mn 0.89998 0.6279 0.67029 0.0
Mn1189 Mn 0.88655 0.62084 0.60055 0.0
C1190 C 0.89269 0.58383 0.65037 0.0
C1191 C 0.88206 0.63265 0.71634 0.0
C1192 C 0.94637 0.63263 0.62488 0.0
O1193 O 0.88961 0.668 0.65822 0.0
O1194 O 0.87798 0.65974 0.61267 0.0
C1195 C 0.82278 0.62752 0.60077 0.0
N1196 N 0.84651 0.61197 0.59445 0.0
C1197 C 0.81681 0.57548 0.57383 0.0
C1198 C 0.79204 0.59117 0.57997 0.0
C1199 C 0.79504 0.61726 0.59358 0.0
C1200 C 0.84385 0.58679 0.58147 0.0
H1201 H 0.82504 0.6476 0.6112 0.0
C1202 C 0.88071 0.67616 0.63396 0.0
O1203 O 0.90882 0.63918 0.71051 0.0
O1204 O 0.86578 0.6252 0.69528 0.0
N1205 N 0.89399 0.5841 0.58613 0.0
C1206 C 0.91993 0.57107 0.58284 0.0
C1207 C 0.92067 0.5443 0.57045 0.0
C1208 C 0.89476 0.53134 0.56135 0.0
C1209 C 0.86837 0.54535 0.56461 0.0
C1210 C 0.86902 0.57205 0.577 0.0
H1211 H 0.93987 0.58101 0.58972 0.0
O1212 O 0.90585 0.58637 0.67441 0.0
O1213 O 0.88385 0.60702 0.63905 0.0
O1214 O 0.93945 0.63218 0.65093 0.0
O1215 O 0.92814 0.62919 0.60482 0.0
C1216 C 0.84143 0.53378 0.5563 0.0
C1217 C 0.81571 0.54891 0.56079 0.0
H1218 H 0.77061 0.58328 0.57454 0.0
H1219 H 0.77602 0.62944 0.5985 0.0
H1220 H 0.94113 0.53367 0.56795 0.0
H1221 H 0.89537 0.51062 0.55196 0.0
H1222 H 0.84022 0.51321 0.54659 0.0
H1223 H 0.7952 0.53987 0.5542 0.0
Mn1224 Mn 0.63212 0.3319 0.59461 0.0
Mn1225 Mn 0.63489 0.32701 0.66564 0.0
C1226 C 0.67757 0.33397 0.61673 0.0
C1227 C 0.62825 0.3563 0.55152 0.0
C1228 C 0.62002 0.27836 0.62709 0.0
O1229 O 0.59138 0.34307 0.60695 0.0
O1230 O 0.59728 0.34399 0.65426 0.0
C1231 C 0.63114 0.3836 0.69094 0.0
N1232 N 0.64595 0.35929 0.68714 0.0
C1233 C 0.67694 0.36966 0.72699 0.0
C1234 C 0.66305 0.39543 0.73028 0.0
C1235 C 0.64039 0.40261 0.71194 0.0
C1236 C 0.66778 0.35216 0.70483 0.0
H1237 H 0.61297 0.38866 0.67753 0.0
C1238 C 0.58232 0.34842 0.63183 0.0
O1239 O 0.62032 0.33029 0.55409 0.0
O1240 O 0.6376 0.36866 0.57428 0.0
N1241 N 0.67026 0.31098 0.67881 0.0
C1242 C 0.68233 0.28591 0.67191 0.0
C1243 C 0.70671 0.27657 0.68692 0.0
C1244 C 0.71806 0.29284 0.70915 0.0
C1245 C 0.70509 0.31847 0.71596 0.0
C1246 C 0.68124 0.32696 0.69984 0.0
H1247 H 0.67339 0.27313 0.65515 0.0
O1248 O 0.674 0.3245 0.59126 0.0
O1249 O 0.65358 0.34071 0.62987 0.0
O1250 O 0.62469 0.2902 0.60366 0.0
O1251 O 0.62219 0.29113 0.65029 0.0
C1252 C 0.71475 0.33581 0.73823 0.0
C1253 C 0.70053 0.36128 0.74389 0.0
H1254 H 0.66983 0.41003 0.74659 0.0
H1255 H 0.63001 0.4227 0.71432 0.0
H1256 H 0.71654 0.25673 0.68157 0.0
H1257 H 0.73666 0.28543 0.7209 0.0
H1258 H 0.73308 0.32975 0.75113 0.0
H1259 H 0.70828 0.37453 0.76094 0.0
Mn1260 Mn 0.91053 0.37261 0.83324 0.0
Mn1261 Mn 0.83971 0.36878 0.85027 0.0
C1262 C 0.88844 0.32909 0.83915 0.0
C1263 C 0.95905 0.3765 0.84722 0.0
C1264 C 0.86133 0.3831 0.79137 0.0
O1265 O 0.90143 0.41254 0.84594 0.0
O1266 O 0.85567 0.40626 0.86164 0.0
C1267 C 0.84496 0.37001 0.9124 0.0
N1268 N 0.83554 0.35693 0.88849 0.0
C1269 C 0.8149 0.31873 0.91514 0.0
C1270 C 0.82417 0.33191 0.94007 0.0
C1271 C 0.8393 0.35764 0.93868 0.0
C1272 C 0.82097 0.33216 0.88958 0.0
H1273 H 0.85677 0.38968 0.91139 0.0
C1274 C 0.8785 0.42145 0.85788 0.0
O1275 O 0.95065 0.38381 0.82215 0.0
O1276 O 0.9391 0.36785 0.86443 0.0
N1277 N 0.8217 0.33364 0.8406 0.0
C1278 C 0.81552 0.32301 0.81457 0.0
C1279 C 0.80108 0.29698 0.81224 0.0
C1280 C 0.79303 0.28224 0.83665 0.0
C1281 C 0.79933 0.29375 0.86319 0.0
C1282 C 0.81349 0.3199 0.86421 0.0
H1283 H 0.8217 0.3342 0.79573 0.0
O1284 O 0.91241 0.33145 0.82511 0.0
O1285 O 0.8784 0.35225 0.84969 0.0
O1286 O 0.88827 0.37941 0.79635 0.0
O1287 O 0.84175 0.38054 0.81025 0.0
C1288 C 0.79259 0.28006 0.88868 0.0
C1289 C 0.80039 0.29253 0.91463 0.0
H1290 H 0.82002 0.32235 0.96037 0.0
H1291 H 0.84668 0.36785 0.95782 0.0
H1292 H 0.7963 0.28824 0.79167 0.0
H1293 H 0.78219 0.26203 0.83475 0.0
H1294 H 0.78177 0.25976 0.88854 0.0
H1295 H 0.79544 0.28163 0.93407 0.0
Mn1296 Mn 0.85832 0.67139 0.09143 0.0
Mn1297 Mn 0.85938 0.67483 0.16196 0.0
C1298 C 0.81532 0.66777 0.11722 0.0
C1299 C 0.86182 0.64696 0.04841 0.0
C1300 C 0.87394 0.72363 0.12413 0.0
O1301 O 0.90049 0.66213 0.1028 0.0
O1302 O 0.89468 0.65521 0.14978 0.0
C1303 C 0.85553 0.61672 0.18252 0.0
N1304 N 0.84429 0.64291 0.18106 0.0
C1305 C 0.81465 0.63487 0.22179 0.0
C1306 C 0.82796 0.60883 0.22524 0.0
C1307 C 0.84699 0.59894 0.20461 0.0
C1308 C 0.82353 0.65139 0.1991 0.0
H1309 H 0.87182 0.61017 0.16771 0.0
C1310 C 0.90964 0.65392 0.12706 0.0
O1311 O 0.86801 0.67345 0.0506 0.0
O1312 O 0.854 0.63423 0.07143 0.0
N1313 N 0.82564 0.69381 0.1753 0.0
C1314 C 0.81635 0.72033 0.16974 0.0
C1315 C 0.79349 0.73154 0.18551 0.0
C1316 C 0.78113 0.71576 0.20746 0.0
C1317 C 0.79132 0.68868 0.21296 0.0
C1318 C 0.81308 0.67811 0.19556 0.0
H1319 H 0.82631 0.73296 0.15358 0.0
O1320 O 0.81457 0.67538 0.09091 0.0
O1321 O 0.84074 0.66281 0.12713 0.0
O1322 O 0.86392 0.71327 0.10138 0.0
O1323 O 0.87571 0.70961 0.14673 0.0
C1324 C 0.78161 0.67216 0.23569 0.0
C1325 C 0.79397 0.64564 0.24062 0.0
H1326 H 0.824 0.59634 0.2438 0.0
H1327 H 0.85625 0.57828 0.20672 0.0
H1328 H 0.7859 0.75254 0.1812 0.0
H1329 H 0.76413 0.72478 0.22016 0.0
H1330 H 0.76536 0.68001 0.25002 0.0
H1331 H 0.78755 0.63386 0.25906 0.0
Mn1332 Mn 0.5686 0.63145 0.35265 0.0
Mn1333 Mn 0.64033 0.63864 0.36569 0.0
C1334 C 0.58937 0.67569 0.35534 0.0
C1335 C 0.5208 0.6273 0.36693 0.0
C1336 C 0.6158 0.62466 0.30826 0.0
O1337 O 0.57906 0.59244 0.36634 0.0
O1338 O 0.62686 0.59939 0.37405 0.0
C1339 C 0.63681 0.63184 0.42758 0.0
N1340 N 0.64506 0.64728 0.40479 0.0
C1341 C 0.66457 0.68392 0.43448 0.0
C1342 C 0.65653 0.66827 0.45826 0.0
C1343 C 0.64253 0.64215 0.45478 0.0
C1344 C 0.65835 0.67254 0.4079 0.0
H1345 H 0.62584 0.61187 0.42502 0.0
C1346 C 0.60402 0.58375 0.37363 0.0
O1347 O 0.52908 0.61856 0.34237 0.0
O1348 O 0.54068 0.63707 0.38386 0.0
N1349 N 0.65684 0.67509 0.35898 0.0
C1350 C 0.66312 0.68762 0.3339 0.0
C1351 C 0.67693 0.71405 0.33369 0.0
C1352 C 0.68455 0.72713 0.35923 0.0
C1353 C 0.67856 0.71351 0.38475 0.0
C1354 C 0.66492 0.6871 0.38364 0.0
H1355 H 0.6574 0.67765 0.31423 0.0
O1356 O 0.56492 0.6717 0.34233 0.0
O1357 O 0.60085 0.6537 0.36718 0.0
O1358 O 0.58938 0.62343 0.31581 0.0
O1359 O 0.63692 0.63069 0.32482 0.0
C1360 C 0.68527 0.72525 0.41126 0.0
C1361 C 0.67821 0.7105 0.43611 0.0
H1362 H 0.66083 0.67619 0.47928 0.0
H1363 H 0.6361 0.63002 0.47303 0.0
H1364 H 0.68161 0.72436 0.31389 0.0
H1365 H 0.69502 0.7476 0.35899 0.0
H1366 H 0.69566 0.74571 0.41278 0.0
H1367 H 0.68327 0.71984 0.45637 0.0
Mn1368 Mn 0.67016 0.90832 0.61227 0.0
Mn1369 Mn 0.60076 0.88575 0.61138 0.0
C1370 C 0.64778 0.89866 0.56957 0.0
C1371 C 0.71907 0.8978 0.61682 0.0
C1372 C 0.61914 0.94651 0.62247 0.0
O1373 O 0.66227 0.8976 0.65309 0.0
O1374 O 0.61842 0.87653 0.64863 0.0
C1375 C 0.60917 0.82431 0.61426 0.0
N1376 N 0.59811 0.8471 0.60082 0.0
C1377 C 0.57666 0.81802 0.5647 0.0
C1378 C 0.58763 0.79421 0.57827 0.0
C1379 C 0.604 0.79738 0.60312 0.0
C1380 C 0.58229 0.8443 0.57692 0.0
H1381 H 0.62188 0.82669 0.63328 0.0
C1382 C 0.64099 0.88349 0.66302 0.0
O1383 O 0.70949 0.92275 0.62239 0.0
O1384 O 0.70014 0.87896 0.60907 0.0
N1385 N 0.58122 0.89314 0.57655 0.0
C1386 C 0.57396 0.91833 0.56503 0.0
C1387 C 0.55854 0.91892 0.53947 0.0
C1388 C 0.55059 0.89364 0.52612 0.0
C1389 C 0.55808 0.86798 0.53849 0.0
C1390 C 0.57327 0.86869 0.5641 0.0
H1391 H 0.58004 0.93782 0.57517 0.0
O1392 O 0.67108 0.91414 0.5706 0.0
O1393 O 0.63884 0.88857 0.59352 0.0
O1394 O 0.64607 0.94377 0.61731 0.0
O1395 O 0.60101 0.92598 0.62197 0.0
C1396 C 0.55165 0.84173 0.52611 0.0
C1397 C 0.56094 0.81678 0.5392 0.0
H1398 H 0.58387 0.77342 0.56964 0.0
H1399 H 0.61268 0.77911 0.61362 0.0
H1400 H 0.55288 0.93881 0.53003 0.0
H1401 H 0.53894 0.89419 0.50627 0.0
H1402 H 0.53998 0.84052 0.50629 0.0
H1403 H 0.55625 0.79675 0.52925 0.0
Mn1404 Mn 0.39043 0.33945 0.08333 0.0
Mn1405 Mn 0.40206 0.40836 0.09613 0.0
C1406 C 0.43706 0.35619 0.08936 0.0
C1407 C 0.38048 0.29426 0.10052 0.0
C1408 C 0.38674 0.38531 0.03813 0.0
O1409 O 0.3507 0.35354 0.09441 0.0
O1410 O 0.36142 0.3983 0.10637 0.0
C1411 C 0.39805 0.40734 0.15832 0.0
N1412 N 0.41332 0.41345 0.13458 0.0
C1413 C 0.45374 0.43114 0.16178 0.0
C1414 C 0.43837 0.42518 0.18654 0.0
C1415 C 0.41044 0.41317 0.18479 0.0
C1416 C 0.44027 0.42486 0.13602 0.0
H1417 H 0.37662 0.39804 0.15703 0.0
C1418 C 0.34356 0.3776 0.10383 0.0
O1419 O 0.37443 0.30123 0.0747 0.0
O1420 O 0.39155 0.31372 0.11646 0.0
N1421 N 0.44042 0.42107 0.08717 0.0
C1422 C 0.45265 0.42467 0.06132 0.0
C1423 C 0.48059 0.43649 0.05933 0.0
C1424 C 0.49555 0.44461 0.08388 0.0
C1425 C 0.48255 0.44069 0.11024 0.0
C1426 C 0.45449 0.42918 0.11089 0.0
H1427 H 0.44118 0.41862 0.04236 0.0
O1428 O 0.43242 0.33244 0.07663 0.0
O1429 O 0.4143 0.3692 0.09843 0.0
O1430 O 0.38664 0.35929 0.04486 0.0
O1431 O 0.39137 0.40504 0.05591 0.0
C1432 C 0.49638 0.44757 0.13589 0.0
C1433 C 0.48203 0.44267 0.16165 0.0
H1434 H 0.44788 0.42957 0.207 0.0
H1435 H 0.39851 0.4084 0.20381 0.0
H1436 H 0.49054 0.43943 0.03892 0.0
H1437 H 0.51694 0.45397 0.08223 0.0
H1438 H 0.51816 0.45633 0.13605 0.0
H1439 H 0.49301 0.44772 0.18125 0.0
Mn1440 Mn 0.40938 0.64818 0.84015 0.0
Mn1441 Mn 0.45743 0.61352 0.80032 0.0
C1442 C 0.45605 0.64082 0.85767 0.0
C1443 C 0.38914 0.69209 0.85005 0.0
C1444 C 0.41233 0.58369 0.83669 0.0
O1445 O 0.38878 0.64661 0.80187 0.0
O1446 O 0.42335 0.62419 0.77806 0.0
C1447 C 0.47272 0.66268 0.76482 0.0
N1448 N 0.48102 0.6411 0.78178 0.0
C1449 C 0.53129 0.65432 0.77746 0.0
C1450 C 0.52337 0.67627 0.75941 0.0
C1451 C 0.49392 0.68052 0.75315 0.0
C1452 C 0.5092 0.63699 0.7881 0.0
H1453 H 0.45011 0.66643 0.76044 0.0
C1454 C 0.39877 0.63601 0.77934 0.0
O1455 O 0.37573 0.669 0.85722 0.0
O1456 O 0.41351 0.68945 0.83711 0.0
N1457 N 0.49217 0.60179 0.81786 0.0
C1458 C 0.49558 0.58152 0.83761 0.0
C1459 C 0.52325 0.57646 0.84822 0.0
C1460 C 0.5473 0.5912 0.83743 0.0
C1461 C 0.54341 0.61121 0.81629 0.0
C1462 C 0.51512 0.61592 0.80699 0.0
H1463 H 0.47716 0.57046 0.84631 0.0
O1464 O 0.43514 0.64806 0.87413 0.0
O1465 O 0.44951 0.63987 0.83085 0.0
O1466 O 0.39989 0.60579 0.84629 0.0
O1467 O 0.43383 0.5845 0.81958 0.0
C1468 C 0.56619 0.62791 0.80546 0.0
C1469 C 0.56012 0.64944 0.78598 0.0
H1470 H 0.53964 0.69026 0.75064 0.0
H1471 H 0.48755 0.69765 0.73956 0.0
H1472 H 0.52535 0.56219 0.86549 0.0
H1473 H 0.56845 0.58817 0.8463 0.0
H1474 H 0.58831 0.6248 0.81249 0.0
H1475 H 0.5777 0.66251 0.77816 0.0
Mn1476 Mn 0.10928 0.67545 0.58495 0.0
Mn1477 Mn 0.10092 0.6069 0.60132 0.0
C1478 C 0.0637 0.65758 0.59269 0.0
C1479 C 0.11866 0.72121 0.60102 0.0
C1480 C 0.11181 0.62751 0.54166 0.0
O1481 O 0.14978 0.66342 0.59525 0.0
O1482 O 0.14181 0.61884 0.60922 0.0
C1483 C 0.10853 0.61157 0.66308 0.0
N1484 N 0.09211 0.60363 0.64047 0.0
C1485 C 0.05386 0.58663 0.67051 0.0
C1486 C 0.07045 0.59444 0.69413 0.0
C1487 C 0.09787 0.60702 0.69038 0.0
C1488 C 0.06564 0.59164 0.64383 0.0
H1489 H 0.12955 0.62136 0.66027 0.0
C1490 C 0.15847 0.64024 0.60542 0.0
O1491 O 0.12368 0.71401 0.57506 0.0
O1492 O 0.10865 0.7018 0.61749 0.0
N1493 N 0.06258 0.59235 0.59489 0.0
C1494 C 0.04899 0.58676 0.56992 0.0
C1495 C 0.02122 0.57432 0.56998 0.0
C1496 C 0.00786 0.56755 0.59565 0.0
C1497 C 0.02237 0.57325 0.62105 0.0
C1498 C 0.05014 0.58538 0.61969 0.0
H1499 H 0.05918 0.59182 0.5501 0.0
O1500 O 0.06707 0.68103 0.57915 0.0
O1501 O 0.08714 0.64564 0.6019 0.0
O1502 O 0.11193 0.65391 0.5471 0.0
O1503 O 0.10891 0.60862 0.5606 0.0
C1504 C 0.01025 0.56767 0.64768 0.0
C1505 C 0.02594 0.57444 0.67239 0.0
H1506 H 0.06227 0.59105 0.71522 0.0
H1507 H 0.11074 0.61323 0.7085 0.0
H1508 H 0.01013 0.56999 0.55029 0.0
H1509 H 0.98648 0.55795 0.59563 0.0
H1510 H 0.98874 0.55845 0.64939 0.0
H1511 H 0.01626 0.57033 0.69275 0.0
Mn1512 Mn 0.08846 0.35721 0.33039 0.0
Mn1513 Mn 0.0464 0.396 0.28809 0.0
C1514 C 0.04114 0.36584 0.34355 0.0
C1515 C 0.10667 0.31311 0.34271 0.0
C1516 C 0.08504 0.42222 0.3322 0.0
O1517 O 0.11184 0.35791 0.29407 0.0
O1518 O 0.08529 0.39006 0.27163 0.0
C1519 C 0.04183 0.35147 0.24426 0.0
N1520 N 0.02886 0.36937 0.26262 0.0
C1521 C 0.98147 0.35244 0.24885 0.0
C1522 C 0.99437 0.33394 0.22978 0.0
C1523 C 0.02471 0.33347 0.22749 0.0
C1524 C -0.00029 0.36995 0.26492 0.0
H1525 H 0.06502 0.35083 0.24236 0.0
C1526 C 0.10771 0.37475 0.27376 0.0
O1527 O 0.11997 0.3361 0.35047 0.0
O1528 O 0.0837 0.3159 0.3273 0.0
N1529 N 0.00789 0.40371 0.29948 0.0
C1530 C -0.00103 0.42307 0.31838 0.0
C1531 C 0.96947 0.42526 0.32405 0.0
C1532 C 0.94911 0.40893 0.30906 0.0
C1533 C 0.95868 0.3903 0.28842 0.0
C1534 C 0.9886 0.38836 0.28423 0.0
H1535 H 0.01433 0.43571 0.33 0.0
O1536 O 0.06031 0.35786 0.36175 0.0
O1537 O 0.04971 0.36692 0.31723 0.0
O1538 O 0.09859 0.39946 0.33827 0.0
O1539 O 0.06372 0.42334 0.31475 0.0
C1540 C 0.93983 0.37296 0.27256 0.0
C1541 C 0.95124 0.35404 0.25271 0.0
H1542 H 0.98122 0.31996 0.21689 0.0
H1543 H 0.03489 0.31922 0.21287 0.0
H1544 H 0.96301 0.43877 0.34068 0.0
H1545 H 0.92638 0.41014 0.31407 0.0
H1546 H 0.91658 0.37389 0.27556 0.0
H1547 H 0.93659 0.34071 0.24065 0.0
Mn1548 Mn 0.35012 0.67239 0.4168 0.0
Mn1549 Mn 0.34448 0.65759 0.34745 0.0
C1550 C 0.30546 0.66256 0.3968 0.0
C1551 C 0.35667 0.65828 0.46349 0.0
C1552 C 0.35591 0.71638 0.37019 0.0
O1553 O 0.39136 0.66225 0.40602 0.0
O1554 O 0.38425 0.64887 0.36079 0.0
C1555 C 0.35101 0.59582 0.34875 0.0
N1556 N 0.33511 0.61879 0.34186 0.0
C1557 C 0.297 0.58988 0.32216 0.0
C1558 C 0.31304 0.56592 0.32889 0.0
C1559 C 0.34014 0.56892 0.34227 0.0
C1560 C 0.30906 0.61616 0.32888 0.0
H1561 H 0.37177 0.59802 0.35918 0.0
C1562 C 0.40025 0.65184 0.38281 0.0
O1563 O 0.36223 0.68382 0.45544 0.0
O1564 O 0.34819 0.64067 0.44421 0.0
N1565 N 0.30659 0.66481 0.33263 0.0
C1566 C 0.29293 0.68987 0.32952 0.0
C1567 C 0.26506 0.69047 0.31751 0.0
C1568 C 0.25155 0.66533 0.3088 0.0
C1569 C 0.26607 0.63981 0.31214 0.0
C1570 C 0.29394 0.64054 0.324 0.0
H1571 H 0.30313 0.70925 0.33631 0.0
O1572 O 0.30714 0.67685 0.42007 0.0
O1573 O 0.32987 0.65495 0.38593 0.0
O1574 O 0.35403 0.71006 0.39621 0.0
O1575 O 0.35354 0.69819 0.35051 0.0
C1576 C 0.25373 0.61362 0.30475 0.0
C1577 C 0.26919 0.58868 0.30974 0.0
H1578 H 0.30462 0.54512 0.32416 0.0
H1579 H 0.35258 0.55052 0.34768 0.0
H1580 H 0.25396 0.71025 0.3151 0.0
H1581 H 0.22992 0.66585 0.29981 0.0
H1582 H 0.23218 0.61239 0.29561 0.0
H1583 H 0.25928 0.56865 0.30436 0.0
Mn1584 Mn 0.07359 0.61988 0.15929 0.0
Mn1585 Mn 0.02866 0.57774 0.19605 0.0
C1586 C 0.0257 0.61326 0.14487 0.0
C1587 C 0.0905 0.66533 0.1499 0.0
C1588 C 0.07635 0.55589 0.15817 0.0
O1589 O 0.09404 0.61745 0.19778 0.0
O1590 O 0.06061 0.59113 0.22089 0.0
C1591 C 0.00504 0.6177 0.23762 0.0
N1592 N 0.00074 0.59895 0.21631 0.0
C1593 C 0.94904 0.60263 0.22042 0.0
C1594 C 0.95286 0.62197 0.24244 0.0
C1595 C 0.98103 0.62963 0.25099 0.0
C1596 C 0.97375 0.59155 0.20781 0.0
H1597 H 0.02659 0.62341 0.2444 0.0
C1598 C 0.08421 0.60553 0.22001 0.0
O1599 O 0.10528 0.64359 0.14199 0.0
O1600 O 0.0674 0.66044 0.16449 0.0
N1601 N -0.00339 0.56424 0.17406 0.0
C1602 C -0.00334 0.54733 0.1509 0.0
C1603 C 0.97017 0.53882 0.13876 0.0
C1604 C 0.94396 0.54767 0.15066 0.0
C1605 C 0.94453 0.56529 0.17434 0.0
C1606 C 0.97156 0.57326 0.18536 0.0
H1607 H 0.01674 0.54053 0.14165 0.0
O1608 O 0.04539 0.62064 0.12685 0.0
O1609 O 0.03506 0.60884 0.17026 0.0
O1610 O 0.08596 0.57954 0.14929 0.0
O1611 O 0.05576 0.55359 0.17588 0.0
C1612 C 0.91936 0.57537 0.18736 0.0
C1613 C 0.92164 0.59405 0.2104 0.0
H1614 H 0.93435 0.63116 0.25281 0.0
H1615 H 0.98423 0.64458 0.26793 0.0
H1616 H 0.96994 0.52542 0.12034 0.0
H1617 H 0.92354 0.54103 0.1413 0.0
H1618 H 0.89824 0.56886 0.17963 0.0
H1619 H 0.90238 0.60193 0.22038 0.0
Mn1620 Mn 0.13007 0.34569 0.91098 0.0
Mn1621 Mn 0.13812 0.3525 0.84076 0.0
C1622 C 0.17561 0.35314 0.89191 0.0
C1623 C 0.12359 0.36402 0.95601 0.0
C1624 C 0.12572 0.29668 0.8695 0.0
O1625 O 0.08895 0.35454 0.89752 0.0
O1626 O 0.09759 0.36183 0.85124 0.0
C1627 C 0.13079 0.41391 0.8351 0.0
N1628 N 0.14724 0.3906 0.83146 0.0
C1629 C 0.18604 0.41794 0.81116 0.0
C1630 C 0.16944 0.44221 0.81453 0.0
C1631 C 0.14171 0.44018 0.82657 0.0
C1632 C 0.17391 0.39229 0.81979 0.0
H1633 H 0.10955 0.41246 0.84452 0.0
C1634 C 0.08067 0.36132 0.87266 0.0
O1635 O 0.11743 0.33799 0.95024 0.0
O1636 O 0.13162 0.37989 0.93518 0.0
N1637 N 0.1766 0.3443 0.82843 0.0
C1638 C 0.19054 0.3192 0.8284 0.0
C1639 C 0.21893 0.31776 0.81795 0.0
C1640 C 0.23266 0.3421 0.80761 0.0
C1641 C 0.21782 0.36766 0.80773 0.0
C1642 C 0.18944 0.36776 0.81814 0.0
H1643 H 0.18015 0.30047 0.83649 0.0
O1644 O 0.17284 0.34132 0.91637 0.0
O1645 O 0.15165 0.35979 0.87922 0.0
O1646 O 0.1265 0.30614 0.89458 0.0
O1647 O 0.1293 0.31228 0.84789 0.0
C1648 C 0.2303 0.39316 0.7985 0.0
C1649 C 0.21442 0.41827 0.80021 0.0
H1650 H 0.17789 0.46255 0.80821 0.0
H1651 H 0.12884 0.45884 0.82939 0.0
H1652 H 0.23026 0.29797 0.81802 0.0
H1653 H 0.25469 0.34097 0.79986 0.0
H1654 H 0.25224 0.39376 0.79043 0.0
H1655 H 0.22439 0.4378 0.79341 0.0
Mn1656 Mn 0.41744 0.38355 0.65771 0.0
Mn1657 Mn 0.45925 0.4288 0.69464 0.0
C1658 C 0.46595 0.39034 0.64601 0.0
C1659 C 0.40137 0.33776 0.6489 0.0
C1660 C 0.4135 0.44745 0.65271 0.0
O1661 O 0.39509 0.38697 0.6948 0.0
O1662 O 0.42551 0.41682 0.71784 0.0
C1663 C 0.47982 0.39194 0.7406 0.0
N1664 N 0.48566 0.40919 0.71842 0.0
C1665 C 0.53698 0.40522 0.72608 0.0
C1666 C 0.53156 0.38743 0.74903 0.0
C1667 C 0.50282 0.3807 0.75626 0.0
C1668 C 0.51321 0.41581 0.71128 0.0
H1669 H 0.4578 0.38685 0.74634 0.0
C1670 C 0.40269 0.40124 0.71653 0.0
O1671 O 0.38691 0.35912 0.6395 0.0
O1672 O 0.42378 0.3432 0.66454 0.0
N1673 N 0.49279 0.44102 0.67435 0.0
C1674 C 0.49436 0.45628 0.65013 0.0
C1675 C 0.52164 0.4636 0.63916 0.0
C1676 C 0.54696 0.45522 0.65323 0.0
C1677 C 0.54473 0.43931 0.67799 0.0
C1678 C 0.517 0.43257 0.68787 0.0
H1679 H 0.47497 0.46255 0.6391 0.0
O1680 O 0.44733 0.3821 0.62711 0.0
O1681 O 0.45519 0.39579 0.67062 0.0
O1682 O 0.40449 0.42307 0.64539 0.0
O1683 O 0.4336 0.45144 0.67082 0.0
C1684 C 0.56896 0.42959 0.69304 0.0
C1685 C 0.56506 0.41256 0.71711 0.0
H1686 H 0.54929 0.37869 0.76111 0.0
H1687 H 0.49842 0.36695 0.77391 0.0
H1688 H 0.52314 0.47565 0.61989 0.0
H1689 H 0.56798 0.46085 0.64469 0.0
H1690 H 0.59059 0.43497 0.68602 0.0
H1691 H 0.58366 0.40491 0.72857 0.0
Mn1692 Mn 0.33388 0.09607 0.38829 0.0
Mn1693 Mn 0.29115 0.06117 0.34193 0.0
C1694 C 0.28564 0.10902 0.38151 0.0
C1695 C 0.35054 0.10275 0.43485 0.0
C1696 C 0.33859 0.10226 0.3241 0.0
O1697 O 0.35534 0.05877 0.38311 0.0
O1698 O 0.32294 0.03639 0.35469 0.0
C1699 C 0.26595 0.01616 0.37758 0.0
N1700 N 0.26242 0.03844 0.35999 0.0
C1701 C 0.2107 0.03122 0.35861 0.0
C1702 C 0.21375 0.00818 0.37672 0.0
C1703 C 0.24149 1.00072 0.38637 0.0
C1704 C 0.23582 0.0459 0.35073 0.0
H1705 H 0.28725 0.01018 0.3847 0.0
C1706 C 0.34626 0.03714 0.36947 0.0
O1707 O 0.3648 0.11267 0.41342 0.0
O1708 O 0.32768 0.08778 0.4291 0.0
N1709 N 0.25948 0.08312 0.32867 0.0
C1710 C 0.25991 0.10824 0.31496 0.0
C1711 C 0.23381 0.11964 0.30513 0.0
C1712 C 0.20759 0.10513 0.30963 0.0
C1713 C 0.2077 0.07979 0.32466 0.0
C1714 C 0.2343 0.06959 0.33412 0.0
H1715 H 0.27991 0.11976 0.31212 0.0
O1716 O 0.30452 0.12703 0.39113 0.0
O1717 O 0.29573 0.08445 0.37547 0.0
O1718 O 0.34709 0.10992 0.34866 0.0
O1719 O 0.31881 0.08381 0.32019 0.0
C1720 C 0.18238 0.06448 0.33095 0.0
C1721 C 0.18375 0.04034 0.34815 0.0
H1722 H 0.19494 0.99617 0.38347 0.0
H1723 H 0.24403 0.98299 0.40038 0.0
H1724 H 0.2339 0.13957 0.29418 0.0
H1725 H 0.18745 0.11393 0.30203 0.0
H1726 H 0.16187 0.07145 0.32266 0.0
H1727 H 0.16401 0.02904 0.3534 0.0
C1728 C 0.12985 0.28165 0.37858 0.0
C1729 C 0.11494 0.28492 0.35297 0.0
H1730 H 0.14284 0.25322 0.41121 0.0
C1731 C 0.10453 0.26084 0.33885 0.0
H1732 H 0.13799 0.29982 0.38999 0.0
C1733 C 0.10754 0.23419 0.35079 0.0
C1734 C 0.12063 0.23107 0.37735 0.0
H1735 H 0.09303 0.26269 0.319 0.0
H1736 H 0.09825 0.21623 0.33987 0.0
C1737 C 0.13247 0.25497 0.39078 0.0
C1738 C 0.0146 0.87136 0.58684 0.0
C1739 C 0.02195 0.87472 0.61551 0.0
H1740 H 0.98103 0.86249 0.55659 0.0
C1741 C 0.0 0.87209 0.63584 0.0
H1742 H 0.03091 0.87305 0.57056 0.0
C1743 C 0.9714 0.86632 0.62761 0.0
C1744 C 0.96428 0.86333 0.599 0.0
H1745 H 0.00487 0.87446 0.65805 0.0
H1746 H 0.95485 0.86396 0.64361 0.0
C1747 C 0.9861 0.86534 0.57873 0.0
C1748 C 0.36263 0.75368 0.89296 0.0
C1749 C 0.37224 0.77643 0.87634 0.0
H1750 H 0.35971 0.70875 0.8973 0.0
C1751 C 0.38342 0.77092 0.84946 0.0
H1752 H 0.3538 0.75726 0.91374 0.0
C1753 C 0.38703 0.7433 0.8403 0.0
C1754 C 0.37908 0.72052 0.85754 0.0
H1755 H 0.39095 0.78788 0.83608 0.0
H1756 H 0.39725 0.73974 0.82011 0.0
C1757 C 0.36581 0.72592 0.88351 0.0
C1758 C 0.50018 0.14125 0.13708 0.0
C1759 C 0.47857 0.13769 0.11635 0.0
H1760 H 0.54515 0.15009 0.14549 0.0
C1761 C 0.48638 0.13931 0.08774 0.0
H1762 H 0.49493 0.14022 0.15926 0.0
C1763 C 0.51496 0.14486 0.08004 0.0
C1764 C 0.53638 0.14813 0.10072 0.0
H1765 H 0.47037 0.13674 0.07115 0.0
H1766 H 0.52036 0.14662 0.05791 0.0
C1767 C 0.52889 0.14663 0.12927 0.0
C1768 C 0.121 0.7011 0.12345 0.0
C1769 C 0.0978 0.69452 0.14157 0.0
H1770 H 0.14573 0.73411 0.10334 0.0
C1771 C 0.08021 0.71635 0.15138 0.0
H1772 H 0.13473 0.68468 0.11533 0.0
C1773 C 0.08621 0.74409 0.14429 0.0
C1774 C 0.10982 0.75089 0.12703 0.0
H1775 H 0.06195 0.71215 0.1651 0.0
H1776 H 0.07289 0.76049 0.15317 0.0
C1777 C 0.12698 0.72922 0.11618 0.0
C1778 C 0.49559 0.86539 0.38292 0.0
C1779 C 0.48742 0.8756 0.35625 0.0
H1780 H 0.53029 0.85191 0.40974 0.0
C1781 C 0.50914 0.88208 0.33662 0.0
H1782 H 0.47934 0.86026 0.39855 0.0
C1783 C 0.53826 0.8772 0.34298 0.0
C1784 C 0.54643 0.86577 0.36917 0.0
H1785 H 0.50361 0.89007 0.31595 0.0
H1786 H 0.55432 0.88183 0.32701 0.0
C1787 C 0.5248 0.86058 0.38935 0.0
C1788 C 0.40529 0.25885 0.64585 0.0
C1789 C 0.38296 0.25173 0.6269 0.0
H1790 H 0.42819 0.2912 0.66776 0.0
C1791 C 0.36689 0.27327 0.61422 0.0
H1792 H 0.41801 0.24268 0.65597 0.0
C1793 C 0.37253 0.30149 0.62133 0.0
C1794 C 0.39438 0.30837 0.64104 0.0
H1795 H 0.34925 0.26826 0.59987 0.0
H1796 H 0.35965 0.31779 0.61168 0.0
C1797 C 0.41096 0.28672 0.65279 0.0
C1798 C 0.97067 0.1233 0.85367 0.0
C1799 C 0.99147 0.13391 0.87265 0.0
H1800 H 0.92597 0.12053 0.84229 0.0
C1801 C 0.98222 0.14825 0.89682 0.0
H1802 H 0.9771 0.11196 0.83496 0.0
C1803 C 0.95271 0.1533 0.90105 0.0
C1804 C 0.93205 0.14413 0.8811 0.0
H1805 H -0.00218 0.15664 0.91183 0.0
H1806 H 0.94625 0.16532 0.91931 0.0
C1807 C 0.94132 0.12837 0.85782 0.0
C1808 C 0.39035 0.13215 0.26846 0.0
C1809 C 0.37211 0.13185 0.2445 0.0
H1810 H 0.39412 0.12338 0.313 0.0
C1811 C 0.34268 0.12513 0.2481 0.0
H1812 H 0.41321 0.13713 0.26637 0.0
C1813 C 0.33213 0.11681 0.27419 0.0
C1814 C 0.35035 0.11551 0.29801 0.0
H1815 H 0.32786 0.12479 0.23033 0.0
H1816 H 0.30964 0.11023 0.27524 0.0
C1817 C 0.37947 0.12424 0.29514 0.0
C1818 C 0.15138 0.10889 0.50809 0.0
C1819 C 0.12905 0.12714 0.50029 0.0
H1820 H 0.17499 0.08973 0.54143 0.0
C1821 C 0.11345 0.14112 0.52132 0.0
H1822 H 0.16374 0.09787 0.49225 0.0
C1823 C 0.11958 0.13603 0.54988 0.0
C1824 C 0.1417 0.1173 0.55754 0.0
H1825 H 0.09592 0.15506 0.51572 0.0
H1826 H 0.10702 0.14656 0.56587 0.0
C1827 C 0.15776 0.10419 0.53631 0.0
C1828 C 0.1185 0.8916 0.7975 0.0
C1829 C 0.14672 0.90272 0.80133 0.0
H1830 H 0.08638 0.87643 0.76777 0.0
C1831 C 0.16508 0.90404 0.77773 0.0
H1832 H 0.10372 0.89032 0.81512 0.0
C1833 C 0.15546 0.89576 0.75107 0.0
C1834 C 0.12688 0.88621 0.7467 0.0
H1835 H 0.18695 0.9123 0.77954 0.0
H1836 H 0.17031 0.89802 0.73358 0.0
C1837 C 0.1086 0.8836 0.77036 0.0
C1838 C 0.37917 0.87131 0.00782 0.0
C1839 C 0.38185 0.89404 0.98902 0.0
H1840 H 0.36982 0.85834 0.05027 0.0
C1841 C 0.38086 0.92156 0.99988 0.0
H1842 H 0.38 0.84988 1.00023 0.0
C1843 C 0.375 0.92623 0.02824 0.0
C1844 C 0.37071 0.9036 0.04657 0.0
H1845 H 0.3831 0.93966 0.98623 0.0
H1846 H 0.37235 0.94761 0.03559 0.0
C1847 C 0.3737 0.87609 0.03648 0.0
C1848 C 0.36941 0.89152 0.23967 0.0
C1849 C 0.35012 0.89297 0.26253 0.0
H1850 H 0.37609 0.89854 0.19553 0.0
C1851 C 0.32193 0.90298 0.25761 0.0
H1852 H 0.39125 0.88386 0.24263 0.0
C1853 C 0.31337 0.91165 0.23075 0.0
C1854 C 0.3326 0.91026 0.20787 0.0
H1855 H 0.30645 0.90447 0.27464 0.0
H1856 H 0.29153 0.91936 0.22795 0.0
C1857 C 0.36069 0.89988 0.21262 0.0
C1858 C 0.3777 0.14518 0.49746 0.0
C1859 C 0.36292 0.13235 0.52002 0.0
H1860 H 0.386 0.14552 0.45304 0.0
C1861 C 0.34662 0.10781 0.51469 0.0
H1862 H 0.39058 0.16404 0.50086 0.0
C1863 C 0.34372 0.09737 0.48714 0.0
C1864 C 0.35747 0.11096 0.46439 0.0
H1865 H 0.33495 0.09745 0.53156 0.0
H1866 H 0.3299 0.07918 0.48354 0.0
C1867 C 0.3752 0.13448 0.47003 0.0
C1868 C 0.13424 0.14055 0.75793 0.0
C1869 C 0.12262 0.12081 0.77675 0.0
H1870 H 0.15074 0.14781 0.71636 0.0
C1871 C 0.11662 0.09337 0.76756 0.0
H1872 H 0.13872 0.16189 0.76469 0.0
C1873 C 0.12376 0.08526 0.74023 0.0
C1874 C 0.13601 0.10479 0.72152 0.0
H1875 H 0.10751 0.07796 0.78189 0.0
H1876 H 0.12061 0.06356 0.73396 0.0
C1877 C 0.14059 0.13265 0.7303 0.0
C1878 C 0.11321 0.86148 1.00006 0.0
C1879 C 0.12711 0.87392 0.02351 0.0
H1880 H 0.10637 0.8621 0.95527 0.0
C1881 C 0.14348 0.89861 0.01931 0.0
H1882 H 0.10036 0.84248 1.00253 0.0
C1883 C 0.14714 0.90968 0.99215 0.0
C1884 C 0.13422 0.89657 0.96854 0.0
H1885 H 0.15453 0.90872 0.03684 0.0
H1886 H 0.16085 0.9281 0.98957 0.0
C1887 C 0.11656 0.87277 0.97293 0.0
C1888 C 0.29177 0.36117 0.10597 0.0
C1889 C 0.31259 0.38254 0.1103 0.0
H1890 H 0.24676 0.35003 0.10433 0.0
C1891 C 0.3032 0.40926 0.11883 0.0
H1892 H 0.29815 0.3403 0.09957 0.0
C1893 C 0.27363 0.41484 0.12154 0.0
C1894 C 0.25286 0.39381 0.11582 0.0
H1895 H 0.31861 0.4262 0.12253 0.0
H1896 H 0.26705 0.43585 0.12723 0.0
C1897 C 0.26225 0.36676 0.10868 0.0
C1898 C 0.75221 0.1034 0.88197 0.0
C1899 C 0.72627 0.11836 0.87986 0.0
H1900 H 0.79792 0.10557 0.89005 0.0
C1901 C 0.72706 0.14786 0.88203 0.0
H1902 H 0.75218 0.08068 0.88086 0.0
C1903 C 0.75323 0.16207 0.88705 0.0
C1904 C 0.77899 0.14702 0.88958 0.0
H1905 H 0.70732 0.15993 0.88066 0.0
H1906 H 0.75331 0.18472 0.88926 0.0
C1907 C 0.77831 0.11762 0.88721 0.0
C1908 C 0.08254 0.47869 0.14129 0.0
C1909 C 0.11014 0.47692 0.12911 0.0
H1910 H 0.05064 0.5045 0.15999 0.0
C1911 C 0.12663 0.50177 0.12564 0.0
H1912 H 0.06919 0.46011 0.14442 0.0
C1913 C 0.11568 0.52777 0.13442 0.0
C1914 C 0.08829 0.52922 0.14723 0.0
H1915 H 0.14798 0.50112 0.11624 0.0
H1916 H 0.12883 0.54654 0.13174 0.0
C1917 C 0.0719 0.50434 0.15035 0.0
C1918 C 0.72498 0.84294 0.38735 0.0
C1919 C 0.69996 0.85933 0.38603 0.0
H1920 H 0.7713 0.84222 0.38456 0.0
C1921 C 0.70252 0.88815 0.38033 0.0
H1922 H 0.72344 0.82076 0.39223 0.0
C1923 C 0.72971 0.90045 0.37573 0.0
C1924 C 0.7549 0.88423 0.3775 0.0
H1925 H 0.68353 0.90136 0.38022 0.0
H1926 H 0.73103 0.92285 0.37194 0.0
C1927 C 0.75225 0.85525 0.3829 0.0
C1928 C 0.91659 1.00022 0.14692 0.0
C1929 C 0.90054 0.97496 0.14532 0.0
H1930 H 0.91691 0.04475 0.14224 0.0
C1931 C 0.87202 0.97572 0.13473 0.0
H1932 H 0.93871 1.00049 0.15468 0.0
C1933 C 0.85928 1.00151 0.12774 0.0
C1934 C 0.875 0.02685 0.13092 0.0
H1935 H 0.85911 0.95664 0.13323 0.0
H1936 H 0.8368 1.00169 0.12102 0.0
C1937 C 0.90407 0.02573 0.13968 0.0
C1938 C 0.20222 0.61175 0.61785 0.0
C1939 C 0.18961 0.638 0.61268 0.0
H1940 H 0.24111 0.58915 0.62658 0.0
C1941 C 0.20728 0.66223 0.61362 0.0
H1942 H 0.18923 0.59267 0.6173 0.0
C1943 C 0.23694 0.66025 0.61905 0.0
C1944 C 0.24974 0.63396 0.62348 0.0
H1945 H 0.19827 0.68284 0.60995 0.0
H1946 H 0.24987 0.67937 0.6193 0.0
C1947 C 0.232 0.60974 0.62308 0.0
C1948 C 0.12188 0.4579 0.35013 0.0
C1949 C 0.09293 0.44883 0.34682 0.0
H1950 H 0.15063 0.4918 0.36209 0.0
C1951 C 0.07069 0.46652 0.35597 0.0
H1952 H 0.13948 0.44467 0.34329 0.0
C1953 C 0.0769 0.49312 0.36682 0.0
C1954 C 0.10566 0.50312 0.36871 0.0
H1955 H 0.04824 0.45995 0.35446 0.0
H1956 H 0.05888 0.50614 0.37304 0.0
C1957 C 0.1282 0.48491 0.36084 0.0
C1958 C 0.4208 0.53215 0.84135 0.0
C1959 C 0.40268 0.55523 0.84623 0.0
H1960 H 0.42765 0.48824 0.84566 0.0
C1961 C 0.37604 0.55041 0.85996 0.0
H1962 H 0.44147 0.53473 0.83086 0.0
C1963 C 0.36778 0.52305 0.8683 0.0
C1964 C 0.38627 0.50016 0.86352 0.0
H1965 H 0.3615 0.56765 0.86402 0.0
H1966 H 0.34714 0.51988 0.87869 0.0
C1967 C 0.41286 0.50523 0.84999 0.0
C1968 C 0.86264 0.71496 0.6031 0.0
C1969 C 0.87572 0.70651 0.62859 0.0
H1970 H 0.85322 0.74871 0.57488 0.0
C1971 C 0.88684 0.72734 0.64678 0.0
H1972 H 0.8535 0.69961 0.58865 0.0
C1973 C 0.88655 0.7557 0.63879 0.0
C1974 C 0.87517 0.76379 0.61247 0.0
H1975 H 0.89706 0.72165 0.66652 0.0
H1976 H 0.89639 0.77112 0.65273 0.0
C1977 C 0.86245 0.74319 0.59513 0.0
C1978 C 0.98988 0.11676 0.3985 0.0
C1979 C 0.98627 0.12437 0.37003 0.0
H1980 H 0.01845 0.11608 0.43429 0.0
C1981 C 0.01078 0.13298 0.35479 0.0
H1982 H 0.97125 0.11083 0.4111 0.0
C1983 C 0.03815 0.13424 0.36771 0.0
C1984 C 0.04128 0.12842 0.39657 0.0
H1985 H 0.00849 0.14133 0.33381 0.0
H1986 H 0.05638 0.14238 0.35579 0.0
C1987 C 0.01696 0.11943 0.41181 0.0
C1988 C 0.61466 0.25788 0.13747 0.0
C1989 C 0.62408 0.25 0.11041 0.0
H1990 H 0.60638 0.29162 0.16622 0.0
C1991 C 0.6356 0.27069 0.09259 0.0
H1992 H 0.60583 0.24237 0.15183 0.0
C1993 C 0.6362 0.29882 0.10096 0.0
C1994 C 0.62507 0.30705 0.12732 0.0
H1995 H 0.64335 0.2653 0.07178 0.0
H1996 H 0.64437 0.31429 0.08618 0.0
C1997 C 0.61512 0.28612 0.14584 0.0
C1998 C 0.47845 0.88835 0.89285 0.0
C1999 C 0.45386 0.87549 0.88082 0.0
H2000 H 0.52433 0.89591 0.89005 0.0
C2001 C 0.45729 0.85987 0.85586 0.0
H2002 H 0.47716 0.89844 0.91317 0.0
C2003 C 0.48467 0.85699 0.84338 0.0
C2004 C 0.50908 0.87049 0.85505 0.0
H2005 H 0.43902 0.8484 0.84694 0.0
H2006 H 0.48692 0.84341 0.82523 0.0
C2007 C 0.50563 0.88626 0.8799 0.0
C2008 C 0.86769 0.266 0.88322 0.0
C2009 C 0.86268 0.2453 0.86251 0.0
H2010 H 0.87991 0.30878 0.89191 0.0
C2011 C 0.86519 0.25297 0.83395 0.0
H2012 H 0.8662 0.26092 0.9054 0.0
C2013 C 0.87295 0.28041 0.82636 0.0
C2014 C 0.87768 0.30095 0.84708 0.0
H2015 H 0.86163 0.23767 0.81738 0.0
H2016 H 0.87529 0.28562 0.80427 0.0
C2017 C 0.87534 0.29347 0.87556 0.0
C2018 C 0.4537 0.14644 0.65655 0.0
C2019 C 0.43938 0.14155 0.63082 0.0
H2020 H 0.49231 0.14171 0.68075 0.0
C2021 C 0.45354 0.12619 0.60973 0.0
H2022 H 0.44365 0.15863 0.67306 0.0
C2023 C 0.48141 0.11546 0.61471 0.0
C2024 C 0.49528 0.12006 0.64077 0.0
H2025 H 0.44296 0.12217 0.5897 0.0
H2026 H 0.49213 0.10371 0.5983 0.0
C2027 C 0.48144 0.1363 0.6612 0.0
C2028 C 0.60993 0.75099 0.34025 0.0
C2029 C 0.61442 0.76188 0.3675 0.0
H2030 H 0.59846 0.715 0.3152 0.0
C2031 C 0.61166 0.74363 0.39071 0.0
H2032 H 0.61166 0.76438 0.32189 0.0
C2033 C 0.60438 0.7153 0.38672 0.0
C2034 C 0.60005 0.70462 0.3595 0.0
H2035 H 0.61483 0.75124 0.41201 0.0
H2036 H 0.60167 0.70184 0.40493 0.0
C2037 C 0.60241 0.72274 0.33635 0.0
C2038 C 0.03809 0.85875 0.16227 0.0
C2039 C 0.0523 0.86236 0.13638 0.0
H2040 H -0.00083 0.86421 0.18577 0.0
C2041 C 0.0381 0.87715 0.11475 0.0
H2042 H 0.04818 0.84721 0.17929 0.0
C2043 C 0.01022 0.88792 0.11899 0.0
C2044 C 0.9961 0.88407 0.14487 0.0
H2045 H 0.04849 0.88035 0.09458 0.0
H2046 H -0.00049 0.89886 0.10193 0.0
C2047 C 0.01015 0.86897 0.16622 0.0
C2048 C 0.64562 0.89957 0.7127 0.0
C2049 C 0.64034 0.87764 0.69351 0.0
H2050 H 0.63855 0.91489 0.75458 0.0
C2051 C 0.62978 0.85176 0.70355 0.0
H2052 H 0.65351 0.9198 0.7054 0.0
C2053 C 0.62249 0.84859 0.73197 0.0
C2054 C 0.62456 0.87159 0.75039 0.0
H2055 H 0.62552 0.83457 0.6891 0.0
H2056 H 0.61231 0.82915 0.73877 0.0
C2057 C 0.63727 0.89673 0.74085 0.0
C2058 C 0.87094 0.92016 0.50334 0.0
C2059 C 0.87674 0.89193 0.51004 0.0
H2060 H 0.85799 0.94962 0.47159 0.0
C2061 C 0.87519 0.87176 0.48838 0.0
H2062 H 0.87178 0.93633 0.51938 0.0
C2063 C 0.86766 0.87964 0.46087 0.0
C2064 C 0.86175 0.9078 0.45446 0.0
H2065 H 0.87949 0.84987 0.4927 0.0
H2066 H 0.86585 0.86363 0.44471 0.0
C2067 C 0.86312 0.92789 0.47596 0.0
C2068 C 0.83924 0.12834 0.22857 0.0
C2069 C 0.8549 0.13016 0.2033 0.0
H2070 H 0.8411 0.13071 0.27376 0.0
C2071 C 0.88411 0.13847 0.20409 0.0
H2072 H 0.81677 0.12148 0.22837 0.0
C2073 C 0.89774 0.14425 0.22966 0.0
C2074 C 0.88274 0.14088 0.25516 0.0
H2075 H 0.89688 0.13911 0.185 0.0
H2076 H 0.92071 0.14938 0.22957 0.0
C2077 C 0.85302 0.13398 0.25441 0.0
C2078 C 0.62537 0.077 0.98037 0.0
C2079 C 0.6251 0.09539 0.95741 0.0
H2080 H 0.62158 0.07213 0.02483 0.0
C2081 C 0.62105 0.12421 0.96222 0.0
H2082 H 0.62915 0.0548 0.9772 0.0
C2083 C 0.61713 0.13444 0.98965 0.0
C2084 C 0.61746 0.116 0.0128 0.0
H2085 H 0.62175 0.13892 0.94483 0.0
H2086 H 0.61419 0.15676 0.99272 0.0
C2087 C 0.62121 0.08708 0.00767 0.0
C2088 C 0.62763 0.0874 0.78587 0.0
C2089 C 0.61259 0.10294 0.80631 0.0
H2090 H 0.63016 0.07564 0.7422 0.0
C2091 C 0.59204 0.1226 0.7974 0.0
H2092 H 0.64358 0.07205 0.79215 0.0
C2093 C 0.58523 0.1253 0.76884 0.0
C2094 C 0.59828 0.10794 0.74872 0.0
H2095 H 0.58042 0.13513 0.81261 0.0
H2096 H 0.56843 0.13979 0.76269 0.0
C2097 C 0.62023 0.08961 0.75728 0.0
C2098 C 0.62518 0.89924 0.49304 0.0
C2099 C 0.62254 0.87038 0.48723 0.0
H2100 H 0.63481 0.93084 0.52411 0.0
C2101 C 0.62642 0.85106 0.50927 0.0
H2102 H 0.62267 0.91459 0.4764 0.0
C2103 C 0.63395 0.86037 0.53627 0.0
C2104 C 0.63657 0.88915 0.54205 0.0
H2105 H 0.62516 0.82867 0.50535 0.0
H2106 H 0.63857 0.84502 0.55247 0.0
C2107 C 0.6322 0.90854 0.52023 0.0
C2108 C 0.88821 0.87789 0.29352 0.0
C2109 C 0.86898 0.89857 0.30285 0.0
H2110 H 0.91247 0.86151 0.25889 0.0
C2111 C 0.85667 0.91688 0.28294 0.0
H2112 H 0.89798 0.86349 0.30836 0.0
C2113 C 0.86552 0.91614 0.2547 0.0
C2114 C 0.88608 0.89652 0.24586 0.0
H2115 H 0.84204 0.93324 0.28961 0.0
H2116 H 0.85776 0.932 0.24025 0.0
C2117 C 0.89642 0.8767 0.26522 0.0
C2118 C 0.86652 0.171 0.01452 0.0
C2119 C 0.85869 0.15063 0.99444 0.0
H2120 H 0.86986 0.18177 0.05805 0.0
C2121 C 0.84995 0.12381 1.00377 0.0
H2122 H 0.87352 0.19181 0.0081 0.0
C2123 C 0.84783 0.11795 0.03266 0.0
C2124 C 0.85427 0.13887 0.05272 0.0
H2125 H 0.84383 0.10762 0.98879 0.0
H2126 H 0.84009 0.09743 0.0392 0.0
C2127 C 0.86432 0.16522 0.04325 0.0
C2128 C 0.73971 0.6352 0.88099 0.0
C2129 C 0.753 0.60945 0.88683 0.0
H2130 H 0.70048 0.6591 0.88223 0.0
C2131 C 0.73653 0.58792 0.89934 0.0
H2132 H 0.75215 0.65233 0.8719 0.0
C2133 C 0.70707 0.59148 0.90477 0.0
C2134 C 0.69355 0.61714 0.89887 0.0
H2135 H 0.74658 0.56838 0.9054 0.0
H2136 H 0.6951 0.57433 0.91439 0.0
C2137 C 0.71021 0.63903 0.88693 0.0
C2138 C 0.25322 0.85876 0.13711 0.0
C2139 C 0.25715 0.88304 0.12047 0.0
H2140 H 0.22445 0.82516 0.14951 0.0
C2141 C 0.23461 0.89127 0.10256 0.0
H2142 H 0.27076 0.85128 0.15028 0.0
C2143 C 0.20819 0.87649 0.10235 0.0
C2144 C 0.20364 0.85298 0.1199 0.0
H2145 H 0.23753 0.90895 0.08848 0.0
H2146 H 0.1913 0.88332 0.08808 0.0
C2147 C 0.22664 0.84394 0.13695 0.0
C2148 C 0.8825 0.50066 0.85203 0.0
C2149 C 0.86282 0.50868 0.87295 0.0
H2150 H 0.90362 0.46646 0.83128 0.0
C2151 C 0.85197 0.48828 0.89154 0.0
H2152 H 0.89052 0.51597 0.837 0.0
C2153 C 0.8587 0.45996 0.88782 0.0
C2154 C 0.87677 0.45155 0.86565 0.0
H2155 H 0.8364 0.49394 0.90754 0.0
H2156 H 0.84846 0.44448 0.90133 0.0
C2157 C 0.88979 0.47232 0.84866 0.0
C2158 C 0.26051 0.11345 0.64224 0.0
C2159 C 0.23675 0.13036 0.64883 0.0
H2160 H 0.30442 0.11203 0.62762 0.0
C2161 C 0.24048 0.15983 0.64796 0.0
H2162 H 0.25819 0.09099 0.64109 0.0
C2163 C 0.26623 0.17192 0.63797 0.0
C2164 C 0.28932 0.15483 0.63026 0.0
H2165 H 0.22257 0.17358 0.65273 0.0
H2166 H 0.26777 0.1945 0.63553 0.0
C2167 C 0.28677 0.12561 0.63367 0.0
C2168 C 0.132 0.02041 0.90256 0.0
C2169 C 0.12405 1.0012 0.88136 0.0
H2170 H 0.13257 0.06352 0.91584 0.0
C2171 C 0.10608 0.01015 0.85927 0.0
H2172 H 0.14616 0.01406 0.91962 0.0
C2173 C 0.09754 0.03828 0.85758 0.0
C2174 C 0.10778 0.05803 0.87738 0.0
H2175 H 0.10033 0.99589 0.84231 0.0
H2176 H 0.08501 0.04503 0.83949 0.0
C2177 C 0.12437 0.04871 0.90034 0.0
C2178 C 0.78298 0.36783 0.38121 0.0
C2179 C 0.80102 0.38782 0.39454 0.0
H2180 H 0.73963 0.35731 0.36747 0.0
C2181 C 0.7885 0.41236 0.40536 0.0
H2182 H 0.79198 0.34867 0.37281 0.0
C2183 C 0.75876 0.417 0.4027 0.0
C2184 C 0.74096 0.39782 0.38817 0.0
H2185 H 0.80167 0.42794 0.41625 0.0
H2186 H 0.74964 0.43565 0.41208 0.0
C2187 C 0.75314 0.37282 0.37805 0.0
C2188 C 0.83726 0.52851 0.63337 0.0
C2189 C 0.85402 0.50412 0.63092 0.0
H2190 H 0.83659 0.57248 0.64186 0.0
C2191 C 0.88437 0.50633 0.63338 0.0
H2192 H 0.81383 0.52763 0.63163 0.0
C2193 C 0.89746 0.53245 0.63933 0.0
C2194 C 0.88034 0.55655 0.64203 0.0
H2195 H 0.89774 0.48782 0.63196 0.0
H2196 H 0.92078 0.53384 0.64201 0.0
C2197 C 0.85024 0.55429 0.63911 0.0
C2198 C 0.61033 0.50783 0.13834 0.0
C2199 C 0.64045 0.5116 0.1356 0.0
H2200 H 0.57559 0.47807 0.14539 0.0
C2201 C 0.65833 0.48788 0.13451 0.0
H2202 H 0.59619 0.52579 0.13986 0.0
C2203 C 0.64685 0.46119 0.13859 0.0
C2204 C 0.61704 0.45732 0.14237 0.0
H2205 H 0.68165 0.49011 0.13259 0.0
H2206 H 0.66153 0.44361 0.13996 0.0
C2207 C 0.59867 0.48071 0.14194 0.0
C2208 C 0.63204 0.75221 0.8906 0.0
C2209 C 0.61915 0.72837 0.87799 0.0
H2210 H 0.63782 0.79701 0.88946 0.0
C2211 C 0.60407 0.73159 0.85246 0.0
H2212 H 0.64391 0.75039 0.91024 0.0
C2213 C 0.60035 0.75828 0.84077 0.0
C2214 C 0.61196 0.78231 0.85412 0.0
H2215 H 0.59387 0.71369 0.84221 0.0
H2216 H 0.58747 0.76019 0.82174 0.0
C2217 C 0.62867 0.77891 0.87865 0.0
C2218 C 0.50225 0.37236 0.13492 0.0
C2219 C 0.52432 0.37485 0.11471 0.0
H2220 H 0.457 0.36458 0.14247 0.0
C2221 C 0.51708 0.37161 0.086 0.0
H2222 H 0.50702 0.37465 0.15716 0.0
C2223 C 0.48857 0.36584 0.07774 0.0
C2224 C 0.46664 0.36396 0.09791 0.0
H2225 H 0.53349 0.3732 0.0698 0.0
H2226 H 0.48359 0.36306 0.05558 0.0
C2227 C 0.47364 0.36684 0.12655 0.0
C2228 C 0.87126 0.22436 0.38441 0.0
C2229 C 0.88769 0.21819 0.36038 0.0
H2230 H 0.85591 0.25645 0.41229 0.0
C2231 C 0.89887 0.24051 0.34422 0.0
H2232 H 0.86248 0.20759 0.39731 0.0
C2233 C 0.89466 0.26839 0.35243 0.0
C2234 C 0.8797 0.2746 0.37734 0.0
H2235 H 0.91149 0.23641 0.32549 0.0
H2236 H 0.90435 0.28501 0.33993 0.0
C2237 C 0.86759 0.25232 0.393 0.0
C2238 C 0.98449 0.63991 0.58831 0.0
C2239 C 0.97694 0.63775 0.61697 0.0
H2240 H 0.01817 0.64787 0.55832 0.0
C2241 C -0.0013 0.64116 0.63756 0.0
H2242 H 0.96835 0.6375 0.57182 0.0
C2243 C 0.02731 0.64683 0.6296 0.0
C2244 C 0.03455 0.6488 0.60102 0.0
H2245 H 0.99364 0.63972 0.65977 0.0
H2246 H 0.04369 0.6501 0.64574 0.0
C2247 C 0.01296 0.64576 0.58047 0.0
C2248 C 0.58783 0.24208 0.64696 0.0
C2249 C 0.61082 0.24873 0.62887 0.0
H2250 H 0.5639 0.21028 0.66831 0.0
C2251 C 0.62724 0.22693 0.61721 0.0
H2252 H 0.57504 0.25855 0.65641 0.0
C2253 C 0.62112 0.19882 0.62444 0.0
C2254 C 0.5985 0.19238 0.64329 0.0
H2255 H 0.64548 0.23167 0.60366 0.0
H2256 H 0.63423 0.18227 0.61562 0.0
C2257 C 0.58169 0.21436 0.65399 0.0
C2258 C 0.04085 0.379 0.8414 0.0
C2259 C 0.04966 0.36799 0.86757 0.0
H2260 H 0.00552 0.39057 0.8146 0.0
C2261 C 0.02837 0.3621 0.88792 0.0
H2262 H 0.05661 0.38411 0.82529 0.0
C2263 C -0.00108 0.36587 0.8817 0.0
C2264 C 0.99017 0.37572 0.85508 0.0
H2265 H 0.03433 0.3537 0.9083 0.0
H2266 H 0.98299 0.36026 0.89748 0.0
C2267 C 0.0115 0.38283 0.83525 0.0
C2268 C 0.86563 0.77509 0.11491 0.0
C2269 C 0.88259 0.75348 0.12633 0.0
H2270 H 0.85758 0.81956 0.11389 0.0
C2271 C 0.90574 0.76049 0.14435 0.0
H2272 H 0.84733 0.77014 0.10134 0.0
C2273 C 0.9113 0.78826 0.15176 0.0
C2274 C 0.89382 0.80996 0.14142 0.0
H2275 H 0.91913 0.74426 0.15351 0.0
H2276 H 0.92916 0.7926 0.16606 0.0
C2277 C 0.87119 0.80323 0.12247 0.0
C2278 C 0.45135 0.65051 0.40137 0.0
C2279 C 0.43077 0.64282 0.38075 0.0
H2280 H 0.49621 0.65131 0.41332 0.0
C2281 C 0.43978 0.62704 0.35738 0.0
H2282 H 0.44507 0.66245 0.41975 0.0
C2283 C 0.46891 0.6205 0.35385 0.0
C2284 C 0.48972 0.62963 0.37355 0.0
H2285 H 0.42445 0.6203 0.34133 0.0
H2286 H 0.47522 0.60924 0.33505 0.0
C2287 C 0.48061 0.64401 0.39776 0.0
C2288 C 0.87814 0.62225 0.7962 0.0
C2289 C 0.84902 0.61349 0.79905 0.0
H2290 H 0.91189 0.63525 0.7675 0.0
C2291 C 0.8308 0.61484 0.77524 0.0
H2292 H 0.89279 0.62135 0.81406 0.0
C2293 C 0.84138 0.6232 0.74916 0.0
C2294 C 0.87081 0.62996 0.74559 0.0
H2295 H 0.80832 0.60826 0.7763 0.0
H2296 H 0.82657 0.62289 0.73137 0.0
C2297 C 0.88903 0.63024 0.76956 0.0
C2298 C 0.65892 0.60471 0.0385 0.0
C2299 C 0.64267 0.61744 0.05984 0.0
H2300 H 0.66451 0.59835 0.99436 0.0
C2301 C 0.62004 0.63564 0.05235 0.0
H2302 H 0.67652 0.59064 0.04351 0.0
C2303 C 0.61351 0.64052 0.02384 0.0
C2304 C 0.62927 0.62684 1.00274 0.0
H2305 H 0.6073 0.64585 0.06842 0.0
H2306 H 0.59553 0.65394 0.01835 0.0
C2307 C 0.65214 0.60918 0.01033 0.0
C2308 C 0.65751 0.39357 0.25082 0.0
C2309 C 0.62887 0.38424 0.24631 0.0
H2310 H 0.68907 0.40957 0.27951 0.0
C2311 C 0.61057 0.38137 0.26993 0.0
H2312 H 0.67238 0.39601 0.23337 0.0
C2313 C 0.62052 0.38892 0.29717 0.0
C2314 C 0.64878 0.39986 0.30115 0.0
H2315 H 0.58832 0.37435 0.26723 0.0
H2316 H 0.60572 0.38747 0.31478 0.0
C2317 C 0.66717 0.40142 0.27759 0.0
C2318 C 0.87328 0.4258 0.52708 0.0
C2319 C 0.871 0.40319 0.54577 0.0
H2320 H 0.88025 0.43925 0.48489 0.0
C2321 C 0.87636 0.37589 0.53606 0.0
H2322 H 0.86887 0.44698 0.53413 0.0
C2323 C 0.8822 0.37118 0.50745 0.0
C2324 C 0.88303 0.39379 0.48833 0.0
H2325 H 0.87411 0.35811 0.55013 0.0
H2326 H 0.88495 0.34982 0.50016 0.0
C2327 C 0.87958 0.42123 0.49879 0.0
C2328 C 0.82391 0.40128 0.75764 0.0
C2329 C 0.8521 0.39128 0.76245 0.0
H2330 H 0.79334 0.41753 0.72807 0.0
C2331 C 0.87123 0.38963 0.73947 0.0
H2332 H 0.80854 0.40292 0.77474 0.0
C2333 C 0.86235 0.39783 0.71241 0.0
C2334 C 0.83427 0.40824 0.70777 0.0
H2335 H 0.89308 0.38195 0.74235 0.0
H2336 H 0.87764 0.39637 0.69522 0.0
C2337 C 0.81519 0.40978 0.73077 0.0
C2338 C 0.87392 0.6342 0.97033 0.0
C2339 C 0.85652 0.61032 0.96521 0.0
H2340 H 0.88909 0.6645 1.00053 0.0
C2341 C 0.84306 0.59701 0.98828 0.0
H2342 H 0.8845 0.64505 0.95309 0.0
C2343 C 0.84598 0.60799 0.01563 0.0
C2344 C 0.862 0.63282 0.02043 0.0
H2345 H 0.82948 0.57857 0.98509 0.0
H2346 H 0.83457 0.59778 0.03276 0.0
C2347 C 0.87643 0.64543 0.99755 0.0
C2348 C 0.63583 0.63757 0.26139 0.0
C2349 C 0.6222 0.61781 0.2789 0.0
H2350 H 0.65436 0.64559 0.22079 0.0
C2351 C 0.61482 0.59118 0.26825 0.0
H2352 H 0.64138 0.65831 0.2692 0.0
C2353 C 0.62258 0.5838 0.24086 0.0
C2354 C 0.63676 0.60335 0.22351 0.0
H2355 H 0.60422 0.57573 0.28154 0.0
H2356 H 0.61836 0.5626 0.23349 0.0
C2357 C 0.64274 0.63048 0.23368 0.0
C2358 C 0.61539 0.35732 0.49994 0.0
C2359 C 0.62891 0.37013 0.52339 0.0
H2360 H 0.60901 0.35747 0.45508 0.0
C2361 C 0.64507 0.39493 0.51913 0.0
H2362 H 0.6027 0.33823 0.50247 0.0
C2363 C 0.64891 0.40577 0.49192 0.0
C2364 C 0.63636 0.39232 0.46831 0.0
H2365 H 0.65582 0.40531 0.53666 0.0
H2366 H 0.66244 0.42431 0.4893 0.0
C2367 C 0.61891 0.36839 0.47274 0.0
C2368 C 0.75997 0.86447 0.61035 0.0
C2369 C 0.75035 0.89145 0.61744 0.0
H2370 H 0.79613 0.8383 0.60137 0.0
C2371 C 0.77092 0.91261 0.62331 0.0
H2372 H 0.74463 0.84765 0.6059 0.0
C2373 C 0.80055 0.90727 0.62073 0.0
C2374 C 0.81019 0.88065 0.6122 0.0
H2375 H 0.76415 0.93357 0.62899 0.0
H2376 H 0.8158 0.92433 0.62451 0.0
C2377 C 0.78955 0.85911 0.60778 0.0
C2378 C 0.25101 0.60522 0.38134 0.0
C2379 C 0.22521 0.6204 0.37934 0.0
H2380 H 0.29673 0.607 0.38933 0.0
C2381 C 0.22623 0.64989 0.38158 0.0
H2382 H 0.2508 0.5825 0.38016 0.0
C2383 C 0.25252 0.66387 0.38657 0.0
C2384 C 0.27814 0.64859 0.389 0.0
H2385 H 0.20658 0.66212 0.38028 0.0
H2386 H 0.25281 0.68652 0.38884 0.0
C2387 C 0.27722 0.61921 0.38656 0.0
C2388 C 0.61419 0.02537 0.63549 0.0
C2389 C 0.58718 0.02706 0.64899 0.0
H2390 H 0.64581 0.99843 0.61665 0.0
C2391 C 0.57075 1.00228 0.65273 0.0
H2392 H 0.62735 0.04406 0.6323 0.0
C2393 C 0.58099 0.97651 0.64355 0.0
C2394 C 0.60821 0.97452 0.63065 0.0
H2395 H 0.54977 1.00261 0.6629 0.0
H2396 H 0.56766 0.958 0.64715 0.0
C2397 C 0.62474 0.99926 0.62661 0.0
C2398 C 0.20657 0.39417 0.87851 0.0
C2399 C 0.2039 0.36525 0.88389 0.0
H2400 H 0.23535 0.42898 0.87082 0.0
C2401 C 0.2289 0.34885 0.88507 0.0
H2402 H 0.18757 0.40738 0.87845 0.0
C2403 C 0.25619 0.36116 0.88092 0.0
C2404 C 0.25903 0.39023 0.87601 0.0
H2405 H 0.22734 0.32661 0.88967 0.0
H2406 H 0.27515 0.348 0.88245 0.0
C2407 C 0.23388 0.40653 0.87428 0.0
C2408 C 0.41599 0.49829 0.64059 0.0
C2409 C 0.40007 0.47295 0.64061 0.0
H2410 H 0.41558 0.54269 0.63497 0.0
C2411 C 0.37095 0.47322 0.63164 0.0
H2412 H 0.43854 0.49887 0.64705 0.0
C2413 C 0.35754 0.49874 0.62484 0.0
C2414 C 0.37318 0.52425 0.62667 0.0
H2415 H 0.35813 0.45403 0.63143 0.0
H2416 H 0.33466 0.49863 0.61956 0.0
C2417 C 0.40279 0.52352 0.63358 0.0
C2418 C 0.73426 0.11103 0.1246 0.0
C2419 C 0.75155 0.13557 0.12494 0.0
H2420 H 0.69184 0.09317 0.1186 0.0
C2421 C 0.73827 0.16159 0.12029 0.0
H2422 H 0.74375 0.09064 0.12826 0.0
C2423 C 0.70863 0.163 0.11464 0.0
C2424 C 0.69142 0.13845 0.11368 0.0
H2425 H 0.75083 0.18094 0.12049 0.0
H2426 H 0.69926 0.18342 0.11079 0.0
C2427 C 0.70448 0.11247 0.11915 0.0
C2428 C 0.62833 0.98246 0.86136 0.0
C2429 C 0.60615 1.00083 0.86978 0.0
H2430 H 0.63884 0.94215 0.84349 0.0
C2431 C 0.57727 0.991 0.8686 0.0
H2432 H 0.65083 0.98922 0.86205 0.0
C2433 C 0.57058 0.96443 0.8579 0.0
C2434 C 0.59244 0.9466 0.8482 0.0
H2435 H 0.55951 0.00412 0.87527 0.0
H2436 H 0.54805 0.95801 0.85691 0.0
C2437 C 0.62153 0.95549 0.85079 0.0
C2438 C 0.87155 0.04936 0.36846 0.0
C2439 C 0.88776 0.05306 0.3436 0.0
H2440 H 0.85247 0.01971 0.3975 0.0
C2441 C 0.89504 0.02906 0.32783 0.0
H2442 H 0.86558 0.06729 0.38114 0.0
C2443 C 0.88832 1.00222 0.33756 0.0
C2444 C 0.87336 0.99848 0.36288 0.0
H2445 H 0.90725 0.03079 0.30846 0.0
H2446 H 0.89529 0.98423 0.32543 0.0
C2447 C 0.86414 0.0222 0.37789 0.0
C2448 C 0.38817 0.25689 0.13718 0.0
C2449 C 0.37714 0.26494 0.1107 0.0
H2450 H 0.39839 0.2229 0.16508 0.0
C2451 C 0.36485 0.24427 0.09316 0.0
H2452 H 0.3977 0.27236 0.15127 0.0
C2453 C 0.36507 0.21604 0.10114 0.0
C2454 C 0.37774 0.20765 0.12684 0.0
H2455 H 0.35591 0.24976 0.07278 0.0
H2456 H 0.35623 0.20065 0.08655 0.0
C2457 C 0.38848 0.22853 0.14517 0.0
C2458 C 0.53624 0.65024 0.87344 0.0
C2459 C 0.53996 0.63349 0.89763 0.0
H2460 H 0.50681 0.6662 0.84225 0.0
C2461 C 0.51589 0.61859 0.90803 0.0
H2462 H 0.55405 0.66298 0.8656 0.0
C2463 C 0.48888 0.62012 0.89427 0.0
C2464 C 0.48537 0.6367 0.86993 0.0
H2465 H 0.51746 0.6069 0.92743 0.0
H2466 H 0.4705 0.60882 0.90301 0.0
C2467 C 0.50922 0.65213 0.86 0.0
C2468 C 0.11258 0.75833 0.63815 0.0
C2469 C 0.12241 0.75048 0.61122 0.0
H2470 H 0.10382 0.79207 0.6668 0.0
C2471 C 0.13427 0.77119 0.59362 0.0
H2472 H 0.10348 0.7428 0.65233 0.0
C2473 C 0.13476 0.79931 0.60204 0.0
C2474 C 0.12318 0.80753 0.62822 0.0
H2475 H 0.14234 0.76583 0.57293 0.0
H2476 H 0.1432 0.81478 0.58742 0.0
C2477 C 0.11293 0.78657 0.64656 0.0
C2478 C 0.9872 0.35752 0.34271 0.0
C2479 C 0.01149 0.37161 0.35391 0.0
H2480 H 0.94179 0.34811 0.347 0.0
C2481 C 0.00809 0.38761 0.37861 0.0
H2482 H 0.98946 0.34379 0.32468 0.0
C2483 C 0.98106 0.38935 0.39192 0.0
C2484 C 0.9566 0.37584 0.38038 0.0
H2485 H 0.02673 0.39773 0.38839 0.0
H2486 H 0.97984 0.39972 0.41209 0.0
C2487 C 0.95996 0.36001 0.35555 0.0
C2488 C 0.37326 0.79452 0.37534 0.0
C2489 C 0.37543 0.80208 0.34687 0.0
H2490 H 0.36489 0.76175 0.40515 0.0
C2491 C 0.37115 0.78149 0.32613 0.0
H2492 H 0.37753 0.8099 0.39171 0.0
C2493 C 0.36406 0.75388 0.33369 0.0
C2494 C 0.3618 0.74612 0.36224 0.0
H2495 H 0.37339 0.78676 0.30405 0.0
H2496 H 0.36084 0.73854 0.31709 0.0
C2497 C 0.36628 0.76688 0.38298 0.0
C2498 C 0.98145 0.61734 0.11382 0.0
C2499 C 0.99543 0.62167 0.13987 0.0
H2500 H 0.94292 0.62432 0.089 0.0
C2501 C 0.98164 0.63769 0.16052 0.0
H2502 H 0.99211 0.60576 0.09724 0.0
C2503 C 0.95391 0.6479 0.15606 0.0
C2504 C 0.93949 0.64331 0.13033 0.0
H2505 H 0.99257 0.64289 0.1801 0.0
H2506 H 0.94393 0.65994 0.17274 0.0
C2507 C 0.95356 0.62813 0.10904 0.0
C2508 C 0.11411 0.25554 0.83802 0.0
C2509 C 0.11909 0.26633 0.86525 0.0
H2510 H 0.10154 0.21981 0.81305 0.0
C2511 C 0.11616 0.24809 0.88845 0.0
H2512 H 0.11592 0.26892 0.81967 0.0
C2513 C 0.10817 0.21991 0.88451 0.0
C2514 C 0.10328 0.20934 0.85732 0.0
H2515 H 0.11966 0.25561 0.90974 0.0
H2516 H 0.1053 0.20651 0.90273 0.0
C2517 C 0.10589 0.22744 0.83417 0.0
C2518 C 0.53885 0.37445 0.61313 0.0
C2519 C 0.55292 0.36038 0.63532 0.0
H2520 H 0.50036 0.39578 0.59936 0.0
C2521 C 0.53857 0.3577 0.66125 0.0
H2522 H 0.54935 0.37695 0.5929 0.0
C2523 C 0.51064 0.36811 0.6647 0.0
C2524 C 0.49671 0.3825 0.64277 0.0
H2525 H 0.54855 0.34674 0.67872 0.0
H2526 H 0.49957 0.36407 0.68436 0.0
C2527 C 0.51097 0.38541 0.61684 0.0
C2528 C 0.13891 0.39959 0.23928 0.0
C2529 C 0.12659 0.3743 0.24888 0.0
H2530 H 0.15501 0.42273 0.20383 0.0
C2531 C 0.125 0.35118 0.23055 0.0
H2532 H 0.13981 0.41782 0.25294 0.0
C2533 C 0.13241 0.35434 0.20216 0.0
C2534 C 0.14263 0.38032 0.19207 0.0
H2535 H 0.11512 0.33162 0.2374 0.0
H2536 H 0.12853 0.33703 0.18777 0.0
C2537 C 0.1474 0.40242 0.21117 0.0
C2538 C 0.37071 0.38149 0.95933 0.0
C2539 C 0.36686 0.40995 0.95267 0.0
H2540 H 0.38035 0.35124 0.99141 0.0
C2541 C 0.36966 0.43009 0.97402 0.0
H2542 H 0.36771 0.3655 0.94331 0.0
C2543 C 0.37687 0.42207 1.00147 0.0
C2544 C 0.38062 0.39355 0.00843 0.0
H2545 H 0.36611 0.45209 0.96948 0.0
H2546 H 0.37886 0.43831 0.01737 0.0
C2547 C 0.37766 0.37335 0.98692 0.0
C2548 C 0.38293 0.63106 0.70207 0.0
C2549 C 0.35326 0.6247 0.70163 0.0
H2550 H 0.42015 0.64083 0.72689 0.0
C2551 C 0.33764 0.62446 0.72698 0.0
H2552 H 0.39556 0.63059 0.68288 0.0
C2553 C 0.3518 0.63052 0.75257 0.0
C2554 C 0.38181 0.63601 0.75294 0.0
H2555 H 0.31475 0.61906 0.72702 0.0
H2556 H 0.33974 0.62923 0.77206 0.0
C2557 C 0.39699 0.63688 0.72734 0.0
C2558 C 0.11894 0.5887 0.50665 0.0
C2559 C 0.1152 0.61757 0.51209 0.0
H2560 H 0.1271 0.55677 0.47588 0.0
C2561 C 0.11495 0.63625 0.48914 0.0
H2562 H 0.11925 0.57356 0.52364 0.0
C2563 C 0.11902 0.62632 0.4616 0.0
C2564 C 0.12316 0.59756 0.4565 0.0
H2565 H 0.11201 0.65854 0.49245 0.0
H2566 H 0.11983 0.64122 0.44438 0.0
C2567 C 0.12326 0.57893 0.47926 0.0
C2568 C 0.12015 0.59087 0.2563 0.0
C2569 C 0.09884 0.6097 0.24731 0.0
H2570 H 0.14263 0.57306 0.29157 0.0
C2571 C 0.08603 0.62758 0.26713 0.0
H2572 H 0.12984 0.57647 0.24146 0.0
C2573 C 0.09241 0.62493 0.2958 0.0
C2574 C 0.11233 0.60485 0.3051 0.0
H2575 H 0.06965 0.64238 0.26064 0.0
H2576 H 0.08094 0.63787 0.31078 0.0
C2577 C 0.12718 0.58875 0.28498 0.0
C2578 C 0.13697 0.36353 0.0345 0.0
C2579 C 0.13936 0.39228 0.04054 0.0
H2580 H 0.12865 0.33207 1.00324 0.0
C2581 C 0.13499 0.41183 0.01888 0.0
H2582 H 0.14159 0.34807 0.05058 0.0
C2583 C 0.12824 0.40275 0.99156 0.0
C2584 C 0.12589 0.37393 0.98546 0.0
H2585 H 0.13743 0.43412 0.02298 0.0
H2586 H 0.12574 0.41823 0.97504 0.0
C2587 C 0.12972 0.35443 0.00736 0.0
C2588 C 0.38989 0.37871 0.79086 0.0
C2589 C 0.3719 0.40018 0.80071 0.0
H2590 H 0.41234 0.36135 0.75554 0.0
C2591 C 0.35981 0.41898 0.78114 0.0
H2592 H 0.39946 0.36392 0.80544 0.0
C2593 C 0.36775 0.41789 0.75268 0.0
C2594 C 0.38708 0.39739 0.74325 0.0
H2595 H 0.34609 0.43591 0.78819 0.0
H2596 H 0.3603 0.43409 0.73845 0.0
C2597 C 0.39711 0.37714 0.76232 0.0
C2598 C 0.36515 0.67044 0.51409 0.0
C2599 C 0.3576 0.65032 0.49365 0.0
H2600 H 0.36808 0.68056 0.55781 0.0
C2601 C 0.34889 0.62334 0.5025 0.0
H2602 H 0.37211 0.69136 0.50801 0.0
C2603 C 0.34656 0.61704 0.53126 0.0
C2604 C 0.35275 0.63767 0.5517 0.0
H2605 H 0.34298 0.60734 0.48724 0.0
H2606 H 0.33887 0.59638 0.53741 0.0
C2607 C 0.36274 0.66422 0.54271 0.0
C2608 C 0.2117 0.14333 0.38631 0.0
C2609 C 0.1949 0.12134 0.39781 0.0
H2610 H 0.25381 0.15651 0.37149 0.0
C2611 C 0.2083 0.09562 0.40366 0.0
H2612 H 0.202 0.16345 0.38173 0.0
C2613 C 0.23773 0.09198 0.39837 0.0
C2614 C 0.25431 0.11345 0.38599 0.0
H2615 H 0.19622 0.07841 0.41305 0.0
H2616 H 0.24763 0.07233 0.40433 0.0
C2617 C 0.24123 0.13939 0.38042 0.0
C2618 C 0.75443 0.35655 0.63716 0.0
C2619 C 0.7581 0.38098 0.62068 0.0
H2620 H 0.72583 0.32283 0.64973 0.0
C2621 C 0.73531 0.38926 0.60308 0.0
H2622 H 0.77215 0.34901 0.65006 0.0
C2623 C 0.70891 0.37442 0.60308 0.0
C2624 C 0.70458 0.35084 0.62059 0.0
H2625 H 0.73801 0.40704 0.58908 0.0
H2626 H 0.69184 0.38129 0.58904 0.0
C2627 C 0.72785 0.34169 0.63724 0.0
C2628 C 0.35548 0.96146 0.38708 0.0
C2629 C 0.37434 0.95276 0.36567 0.0
H2630 H 0.33307 0.99582 0.40598 0.0
C2631 C 0.38844 0.97332 0.34923 0.0
H2632 H 0.34443 0.94615 0.40019 0.0
C2633 C 0.38157 1.00179 0.35234 0.0
C2634 C 0.36116 0.01012 0.37244 0.0
H2635 H 0.40294 0.96725 0.33244 0.0
H2636 H 0.39055 0.01698 0.3377 0.0
C2637 C 0.34913 0.98989 0.39054 0.0
C2638 C 0.76637 0.67272 0.13915 0.0
C2639 C 0.78953 0.65585 0.13112 0.0
H2640 H 0.72298 0.67397 0.15466 0.0
C2641 C 0.78737 0.62662 0.1347 0.0
H2642 H 0.76762 0.6953 0.13663 0.0
C2643 C 0.76141 0.61422 0.14378 0.0
C2644 C 0.73757 0.63089 0.15068 0.0
H2645 H 0.80508 0.61321 0.12844 0.0
H2646 H 0.75936 0.59173 0.1428 0.0
C2647 C 0.74095 0.66039 0.14965 0.0
C2648 C 0.62503 0.54434 0.4016 0.0
C2649 C 0.60778 0.55343 0.37902 0.0
H2650 H 0.64795 0.51007 0.42028 0.0
C2651 C 0.59761 0.53359 0.35926 0.0
H2652 H 0.63318 0.55922 0.41705 0.0
C2653 C 0.60682 0.50565 0.36062 0.0
C2654 C 0.62543 0.49697 0.38233 0.0
H2655 H 0.58458 0.54018 0.34145 0.0
H2656 H 0.60105 0.49135 0.3437 0.0
C2657 C 0.63336 0.51622 0.40349 0.0
C2658 C 0.25656 0.9204 0.90289 0.0
C2659 C 0.23859 0.90121 0.88856 0.0
H2660 H 0.29959 0.93107 0.91639 0.0
C2661 C 0.25051 0.87597 0.87877 0.0
H2662 H 0.24762 0.93925 0.91202 0.0
C2663 C 0.28026 0.87073 0.88207 0.0
C2664 C 0.2985 0.89069 0.8952 0.0
H2665 H 0.23687 0.86046 0.86835 0.0
H2666 H 0.28907 0.85135 0.87395 0.0
C2667 C 0.28625 0.91551 0.90567 0.0
C2668 C 0.38411 0.00747 0.13332 0.0
C2669 C 0.35374 0.00559 0.13084 0.0
H2670 H 0.42085 0.0346 0.14181 0.0
C2671 C 0.33728 0.03019 0.13313 0.0
H2672 H 0.39725 0.9888 0.13202 0.0
C2673 C 0.35059 0.05588 0.13868 0.0
C2674 C 0.38072 0.0578 0.14161 0.0
H2675 H 0.31385 0.02956 0.13137 0.0
H2676 H 0.33718 0.07426 0.14125 0.0
C2677 C 0.39752 0.03347 0.13913 0.0
C2678 C 0.14445 0.96159 0.63778 0.0
C2679 C 0.11469 0.95787 0.64194 0.0
H2680 H 0.17928 0.99028 0.63099 0.0
C2681 C 0.09641 0.98133 0.64149 0.0
H2682 H 0.15908 0.94398 0.63918 0.0
C2683 C 0.10814 0.00838 0.63749 0.0
C2684 C 0.13823 0.012 0.63431 0.0
H2685 H 0.07337 0.97882 0.64525 0.0
H2686 H 0.0941 0.02641 0.63905 0.0
C2687 C 0.15597 0.98819 0.63322 0.0
loop_
_geom_bond_atom_site_label_1
_geom_bond_atom_site_label_2
_geom_bond_distance
_geom_bond_site_symmetry_2
_ccdc_geom_bond_type
Mn0 O5 2.095 . S
Mn0 O15 2.162 . S
Mn0 O16 2.297 . S
Mn0 O24 2.385 . S
Mn0 O25 2.209 . S
Mn0 O26 2.094 . S
Mn1 O6 2.121 . S
Mn1 N8 2.257 . S
Mn1 N17 2.282 . S
Mn1 O25 2.215 . S
Mn1 O27 2.117 . S
C2 O24 1.234 . S
C2 O25 1.283 . S
C3 O15 1.281 . S
C3 O16 1.236 . S
C4 O26 1.240 . S
C4 O27 1.264 . S
O5 Mn0 2.095 . S
O5 C14 1.250 . S
O6 Mn1 2.121 . S
O6 C14 1.258 . S
C7 N8 1.326 . S
C7 C11 1.460 . S
C7 H13 0.929 . S
N8 Mn1 2.257 . S
N8 C7 1.326 . S
N8 C12 1.362 . S
C9 C10 1.258 . S
C9 C12 1.431 . S
C9 C29 1.449 . S
C10 C9 1.258 . S
C10 C11 1.477 . S
C10 H30 0.931 . S
C11 C7 1.460 . S
C11 C10 1.477 . S
C11 H31 0.930 . S
C12 N8 1.362 . S
C12 C9 1.431 . S
C12 C22 1.476 . S
H13 C7 0.929 . S
C14 O5 1.250 . S
C14 O6 1.258 . S
O15 Mn0 2.162 . S
O15 C3 1.281 . S
O16 Mn0 2.297 . S
O16 C3 1.236 . S
N17 Mn1 2.282 . S
N17 C18 1.328 . S
N17 C22 1.318 . S
C18 N17 1.328 . S
C18 C19 1.457 . S
C18 H23 0.929 . S
C19 C18 1.457 . S
C19 C20 1.291 . S
C19 H32 0.931 . S
C20 C19 1.291 . S
C20 C21 1.373 . S
C20 H33 0.929 . S
C21 C20 1.373 . S
C21 C22 1.396 . S
C21 C28 1.403 . S
C22 C12 1.476 . S
C22 N17 1.318 . S
C22 C21 1.396 . S
H23 C18 0.929 . S
O24 Mn0 2.385 . S
O24 C2 1.234 . S
O25 Mn0 2.209 . S
O25 Mn1 2.215 . S
O25 C2 1.283 . S
O26 Mn0 2.094 . S
O26 C4 1.240 . S
O27 Mn1 2.117 . S
O27 C4 1.264 . S
C28 C21 1.403 . S
C28 C29 1.399 . S
C28 H34 0.929 . S
C29 C9 1.449 . S
C29 C28 1.399 . S
C29 H35 0.917 1_545 S
H30 C10 0.931 . S
H31 C11 0.930 . S
H32 C19 0.931 . S
H33 C20 0.929 . S
H34 C28 0.929 . S
H35 C29 0.917 1_565 S
Mn36 O41 2.095 . S
Mn36 O51 2.162 . S
Mn36 O52 2.297 . S
Mn36 O60 2.385 . S
Mn36 O61 2.209 . S
Mn36 O62 2.094 . S
Mn37 O42 2.121 . S
Mn37 N44 2.257 . S
Mn37 N53 2.282 . S
Mn37 O61 2.215 . S
Mn37 O63 2.117 . S
C38 O60 1.234 . S
C38 O61 1.283 . S
C39 O51 1.281 . S
C39 O52 1.236 . S
C40 O62 1.240 . S
C40 O63 1.264 . S
O41 Mn36 2.095 . S
O41 C50 1.250 . S
O42 Mn37 2.121 . S
O42 C50 1.258 . S
C43 N44 1.326 . S
C43 C47 1.460 . S
C43 H49 0.929 . S
N44 Mn37 2.257 . S
N44 C43 1.326 . S
N44 C48 1.362 . S
C45 C46 1.258 . S
C45 C48 1.431 . S
C45 C65 1.449 . S
C46 C45 1.258 . S
C46 C47 1.477 . S
C46 H66 0.931 . S
C47 C43 1.460 . S
C47 C46 1.477 . S
C47 H67 0.930 . S
C48 N44 1.362 . S
C48 C45 1.431 . S
C48 C58 1.476 . S
H49 C43 0.929 . S
C50 O41 1.250 . S
C50 O42 1.258 . S
O51 Mn36 2.162 . S
O51 C39 1.281 . S
O52 Mn36 2.297 . S
O52 C39 1.236 . S
N53 Mn37 2.282 . S
N53 C54 1.328 . S
N53 C58 1.318 . S
C54 N53 1.328 . S
C54 C55 1.457 . S
C54 H59 0.929 . S
C55 C54 1.457 . S
C55 C56 1.291 . S
C55 H68 0.931 . S
C56 C55 1.291 . S
C56 C57 1.373 . S
C56 H69 0.929 . S
C57 C56 1.373 . S
C57 C58 1.396 . S
C57 C64 1.403 . S
C58 C48 1.476 . S
C58 N53 1.318 . S
C58 C57 1.396 . S
H59 C54 0.929 . S
O60 Mn36 2.385 . S
O60 C38 1.234 . S
O61 Mn36 2.209 . S
O61 Mn37 2.215 . S
O61 C38 1.283 . S
O62 Mn36 2.094 . S
O62 C40 1.240 . S
O63 Mn37 2.117 . S
O63 C40 1.264 . S
C64 C57 1.403 . S
C64 C65 1.399 . S
C64 H70 0.929 . S
C65 C45 1.449 . S
C65 C64 1.399 . S
C65 H71 0.930 . S
H66 C46 0.931 . S
H67 C47 0.930 . S
H68 C55 0.931 . S
H69 C56 0.929 . S
H70 C64 0.929 . S
H71 C65 0.930 . S
Mn72 O77 2.095 . S
Mn72 O87 2.162 . S
Mn72 O88 2.297 . S
Mn72 O96 2.385 . S
Mn72 O97 2.209 . S
Mn72 O98 2.094 . S
Mn73 O78 2.121 . S
Mn73 N80 2.257 . S
Mn73 N89 2.282 . S
Mn73 O97 2.215 . S
Mn73 O99 2.117 . S
C74 O96 1.234 . S
C74 O97 1.283 . S
C75 O87 1.281 . S
C75 O88 1.236 . S
C76 O98 1.240 . S
C76 O99 1.264 . S
O77 Mn72 2.095 . S
O77 C86 1.250 . S
O78 Mn73 2.121 . S
O78 C86 1.258 . S
C79 N80 1.326 . S
C79 C83 1.460 . S
C79 H85 0.929 . S
N80 Mn73 2.257 . S
N80 C79 1.326 . S
N80 C84 1.362 . S
C81 C82 1.258 . S
C81 C84 1.431 . S
C81 C101 1.449 . S
C82 C81 1.258 . S
C82 C83 1.477 . S
C82 H102 0.931 . S
C83 C79 1.460 . S
C83 C82 1.477 . S
C83 H103 0.930 . S
C84 N80 1.362 . S
C84 C81 1.431 . S
C84 C94 1.476 . S
H85 C79 0.929 . S
C86 O77 1.250 . S
C86 O78 1.258 . S
O87 Mn72 2.162 . S
O87 C75 1.281 . S
O88 Mn72 2.297 . S
O88 C75 1.236 . S
N89 Mn73 2.282 . S
N89 C90 1.328 . S
N89 C94 1.318 . S
C90 N89 1.328 . S
C90 C91 1.457 . S
C90 H95 0.929 . S
C91 C90 1.457 . S
C91 C92 1.291 . S
C91 H104 0.931 . S
C92 C91 1.291 . S
C92 C93 1.373 . S
C92 H105 0.929 . S
C93 C92 1.373 . S
C93 C94 1.396 . S
C93 C100 1.403 . S
C94 C84 1.476 . S
C94 N89 1.318 . S
C94 C93 1.396 . S
H95 C90 0.929 . S
O96 Mn72 2.385 . S
O96 C74 1.234 . S
O97 Mn72 2.209 . S
O97 Mn73 2.215 . S
O97 C74 1.283 . S
O98 Mn72 2.094 . S
O98 C76 1.240 . S
O99 Mn73 2.117 . S
O99 C76 1.264 . S
C100 C93 1.403 . S
C100 C101 1.399 . S
C100 H106 0.929 . S
C101 C81 1.449 . S
C101 C100 1.399 . S
C101 H107 0.909 1_565 S
H102 C82 0.931 . S
H103 C83 0.930 . S
H104 C91 0.931 . S
H105 C92 0.929 . S
H106 C100 0.929 . S
H107 C101 0.909 1_545 S
Mn108 O113 2.095 . S
Mn108 O123 2.162 . S
Mn108 O124 2.297 . S
Mn108 O132 2.385 . S
Mn108 O133 2.209 . S
Mn108 O134 2.094 . S
Mn109 O114 2.121 . S
Mn109 N116 2.257 . S
Mn109 N125 2.282 . S
Mn109 O133 2.215 . S
Mn109 O135 2.117 . S
C110 O132 1.234 . S
C110 O133 1.283 . S
C111 O123 1.281 . S
C111 O124 1.236 . S
C112 O134 1.240 . S
C112 O135 1.264 . S
O113 Mn108 2.095 . S
O113 C122 1.250 . S
O114 Mn109 2.121 . S
O114 C122 1.258 . S
C115 N116 1.326 . S
C115 C119 1.460 . S
C115 H121 0.929 . S
N116 Mn109 2.257 . S
N116 C115 1.326 . S
N116 C120 1.362 . S
C117 C118 1.258 . S
C117 C120 1.431 . S
C117 C137 1.449 . S
C118 C117 1.258 . S
C118 C119 1.477 . S
C118 H138 0.931 . S
C119 C115 1.460 . S
C119 C118 1.477 . S
C119 H139 0.930 . S
C120 N116 1.362 . S
C120 C117 1.431 . S
C120 C130 1.476 . S
H121 C115 0.929 . S
C122 O113 1.250 . S
C122 O114 1.258 . S
O123 Mn108 2.162 . S
O123 C111 1.281 . S
O124 Mn108 2.297 . S
O124 C111 1.236 . S
N125 Mn109 2.282 . S
N125 C126 1.328 . S
N125 C130 1.318 . S
C126 N125 1.328 . S
C126 C127 1.457 . S
C126 H131 0.929 . S
C127 C126 1.457 . S
C127 C128 1.291 . S
C127 H140 0.931 . S
C128 C127 1.291 . S
C128 C129 1.373 . S
C128 H141 0.929 . S
C129 C128 1.373 . S
C129 C130 1.396 . S
C129 C136 1.403 . S
C130 C120 1.476 . S
C130 N125 1.318 . S
C130 C129 1.396 . S
H131 C126 0.929 . S
O132 Mn108 2.385 . S
O132 C110 1.234 . S
O133 Mn108 2.209 . S
O133 Mn109 2.215 . S
O133 C110 1.283 . S
O134 Mn108 2.094 . S
O134 C112 1.240 . S
O135 Mn109 2.117 . S
O135 C112 1.264 . S
C136 C129 1.403 . S
C136 C137 1.399 . S
C136 H142 0.929 . S
C137 C117 1.449 . S
C137 C136 1.399 . S
C137 H143 0.950 . S
H138 C118 0.931 . S
H139 C119 0.930 . S
H140 C127 0.931 . S
H141 C128 0.929 . S
H142 C136 0.929 . S
H143 C137 0.950 . S
Mn144 O149 2.095 . S
Mn144 O159 2.162 . S
Mn144 O160 2.297 . S
Mn144 O168 2.385 . S
Mn144 O169 2.209 . S
Mn144 O170 2.094 . S
Mn145 O150 2.121 . S
Mn145 N152 2.257 . S
Mn145 N161 2.282 . S
Mn145 O169 2.215 . S
Mn145 O171 2.117 . S
C146 O168 1.234 . S
C146 O169 1.283 . S
C147 O159 1.281 . S
C147 O160 1.236 . S
C148 O170 1.240 . S
C148 O171 1.264 . S
O149 Mn144 2.095 . S
O149 C158 1.250 . S
O150 Mn145 2.121 . S
O150 C158 1.258 . S
C151 N152 1.326 . S
C151 C155 1.460 . S
C151 H157 0.929 . S
N152 Mn145 2.257 . S
N152 C151 1.326 . S
N152 C156 1.362 . S
C153 C154 1.258 . S
C153 C156 1.431 . S
C153 C173 1.449 . S
C154 C153 1.258 . S
C154 C155 1.477 . S
C154 H174 0.931 . S
C155 C151 1.460 . S
C155 C154 1.477 . S
C155 H175 0.930 . S
C156 N152 1.362 . S
C156 C153 1.431 . S
C156 C166 1.476 . S
H157 C151 0.929 . S
C158 O149 1.250 . S
C158 O150 1.258 . S
O159 Mn144 2.162 . S
O159 C147 1.281 . S
O160 Mn144 2.297 . S
O160 C147 1.236 . S
N161 Mn145 2.282 . S
N161 C162 1.328 . S
N161 C166 1.318 . S
C162 N161 1.328 . S
C162 C163 1.457 . S
C162 H167 0.929 . S
C163 C162 1.457 . S
C163 C164 1.291 . S
C163 H176 0.931 . S
C164 C163 1.291 . S
C164 C165 1.373 . S
C164 H177 0.929 . S
C165 C164 1.373 . S
C165 C166 1.396 . S
C165 C172 1.403 . S
C166 C156 1.476 . S
C166 N161 1.318 . S
C166 C165 1.396 . S
H167 C162 0.929 . S
O168 Mn144 2.385 . S
O168 C146 1.234 . S
O169 Mn144 2.209 . S
O169 Mn145 2.215 . S
O169 C146 1.283 . S
O170 Mn144 2.094 . S
O170 C148 1.240 . S
O171 Mn145 2.117 . S
O171 C148 1.264 . S
C172 C165 1.403 . S
C172 C173 1.399 . S
C172 H178 0.929 . S
C173 C153 1.449 . S
C173 C172 1.399 . S
C173 H179 0.930 . S
H174 C154 0.931 . S
H175 C155 0.930 . S
H176 C163 0.931 . S
H177 C164 0.929 . S
H178 C172 0.929 . S
H179 C173 0.930 . S
Mn180 O185 2.095 . S
Mn180 O195 2.162 . S
Mn180 O196 2.297 . S
Mn180 O204 2.385 . S
Mn180 O205 2.209 . S
Mn180 O206 2.094 . S
Mn181 O186 2.121 . S
Mn181 N188 2.257 . S
Mn181 N197 2.282 . S
Mn181 O205 2.215 . S
Mn181 O207 2.117 . S
C182 O204 1.234 . S
C182 O205 1.283 . S
C183 O195 1.281 . S
C183 O196 1.236 . S
C184 O206 1.240 . S
C184 O207 1.264 . S
O185 Mn180 2.095 . S
O185 C194 1.250 . S
O186 Mn181 2.121 . S
O186 C194 1.258 . S
C187 N188 1.326 . S
C187 C191 1.460 . S
C187 H193 0.929 . S
N188 Mn181 2.257 . S
N188 C187 1.326 . S
N188 C192 1.362 . S
C189 C190 1.258 . S
C189 C192 1.431 . S
C189 C209 1.449 . S
C190 C189 1.258 . S
C190 C191 1.477 . S
C190 H210 0.931 . S
C191 C187 1.460 . S
C191 C190 1.477 . S
C191 H211 0.930 . S
C192 N188 1.362 . S
C192 C189 1.431 . S
C192 C202 1.476 . S
H193 C187 0.929 . S
C194 O185 1.250 . S
C194 O186 1.258 . S
O195 Mn180 2.162 . S
O195 C183 1.281 . S
O196 Mn180 2.297 . S
O196 C183 1.236 . S
N197 Mn181 2.282 . S
N197 C198 1.328 . S
N197 C202 1.318 . S
C198 N197 1.328 . S
C198 C199 1.457 . S
C198 H203 0.929 . S
C199 C198 1.457 . S
C199 C200 1.291 . S
C199 H212 0.931 . S
C200 C199 1.291 . S
C200 C201 1.373 . S
C200 H213 0.929 . S
C201 C200 1.373 . S
C201 C202 1.396 . S
C201 C208 1.403 . S
C202 C192 1.476 . S
C202 N197 1.318 . S
C202 C201 1.396 . S
H203 C198 0.929 . S
O204 Mn180 2.385 . S
O204 C182 1.234 . S
O205 Mn180 2.209 . S
O205 Mn181 2.215 . S
O205 C182 1.283 . S
O206 Mn180 2.094 . S
O206 C184 1.240 . S
O207 Mn181 2.117 . S
O207 C184 1.264 . S
C208 C201 1.403 . S
C208 C209 1.399 . S
C208 H214 0.929 . S
C209 C189 1.449 . S
C209 C208 1.399 . S
C209 H215 0.930 . S
H210 C190 0.931 . S
H211 C191 0.930 . S
H212 C199 0.931 . S
H213 C200 0.929 . S
H214 C208 0.929 . S
H215 C209 0.930 . S
Mn216 O221 2.095 . S
Mn216 O231 2.162 . S
Mn216 O232 2.297 . S
Mn216 O240 2.385 . S
Mn216 O241 2.209 . S
Mn216 O242 2.094 . S
Mn217 O222 2.121 . S
Mn217 N224 2.257 . S
Mn217 N233 2.282 . S
Mn217 O241 2.215 . S
Mn217 O243 2.117 . S
C218 O240 1.234 . S
C218 O241 1.283 . S
C219 O231 1.281 . S
C219 O232 1.236 . S
C220 O242 1.240 . S
C220 O243 1.264 . S
O221 Mn216 2.095 . S
O221 C230 1.250 . S
O222 Mn217 2.121 . S
O222 C230 1.258 . S
C223 N224 1.326 . S
C223 C227 1.460 . S
C223 H229 0.929 . S
N224 Mn217 2.257 . S
N224 C223 1.326 . S
N224 C228 1.362 . S
C225 C226 1.258 . S
C225 C228 1.431 . S
C225 C245 1.449 . S
C226 C225 1.258 . S
C226 C227 1.477 . S
C226 H246 0.931 . S
C227 C223 1.460 . S
C227 C226 1.477 . S
C227 H247 0.930 . S
C228 N224 1.362 . S
C228 C225 1.431 . S
C228 C238 1.476 . S
H229 C223 0.929 . S
C230 O221 1.250 . S
C230 O222 1.258 . S
O231 Mn216 2.162 . S
O231 C219 1.281 . S
O232 Mn216 2.297 . S
O232 C219 1.236 . S
N233 Mn217 2.282 . S
N233 C234 1.328 . S
N233 C238 1.318 . S
C234 N233 1.328 . S
C234 C235 1.457 . S
C234 H239 0.929 . S
C235 C234 1.457 . S
C235 C236 1.291 . S
C235 H248 0.931 . S
C236 C235 1.291 . S
C236 C237 1.373 . S
C236 H249 0.929 . S
C237 C236 1.373 . S
C237 C238 1.396 . S
C237 C244 1.403 . S
C238 C228 1.476 . S
C238 N233 1.318 . S
C238 C237 1.396 . S
H239 C234 0.929 . S
O240 Mn216 2.385 . S
O240 C218 1.234 . S
O241 Mn216 2.209 . S
O241 Mn217 2.215 . S
O241 C218 1.283 . S
O242 Mn216 2.094 . S
O242 C220 1.240 . S
O243 Mn217 2.117 . S
O243 C220 1.264 . S
C244 C237 1.403 . S
C244 C245 1.399 . S
C244 H250 0.929 . S
C245 C225 1.449 . S
C245 C244 1.399 . S
C245 H251 0.930 . S
H246 C226 0.931 . S
H247 C227 0.930 . S
H248 C235 0.931 . S
H249 C236 0.929 . S
H250 C244 0.929 . S
H251 C245 0.930 . S
Mn252 O257 2.095 . S
Mn252 O267 2.162 . S
Mn252 O268 2.297 . S
Mn252 O276 2.385 . S
Mn252 O277 2.209 . S
Mn252 O278 2.094 . S
Mn253 O258 2.121 . S
Mn253 N260 2.257 . S
Mn253 N269 2.282 . S
Mn253 O277 2.215 . S
Mn253 O279 2.117 . S
C254 O276 1.234 . S
C254 O277 1.283 . S
C255 O267 1.281 . S
C255 O268 1.236 . S
C256 O278 1.240 . S
C256 O279 1.264 . S
O257 Mn252 2.095 . S
O257 C266 1.250 . S
O258 Mn253 2.121 . S
O258 C266 1.258 . S
C259 N260 1.326 . S
C259 C263 1.460 . S
C259 H265 0.929 . S
N260 Mn253 2.257 . S
N260 C259 1.326 . S
N260 C264 1.362 . S
C261 C262 1.258 . S
C261 C264 1.431 . S
C261 C281 1.449 . S
C262 C261 1.258 . S
C262 C263 1.477 . S
C262 H282 0.931 . S
C263 C259 1.460 . S
C263 C262 1.477 . S
C263 H283 0.930 . S
C264 N260 1.362 . S
C264 C261 1.431 . S
C264 C274 1.476 . S
H265 C259 0.929 . S
C266 O257 1.250 . S
C266 O258 1.258 . S
O267 Mn252 2.162 . S
O267 C255 1.281 . S
O268 Mn252 2.297 . S
O268 C255 1.236 . S
N269 Mn253 2.282 . S
N269 C270 1.328 . S
N269 C274 1.318 . S
C270 N269 1.328 . S
C270 C271 1.457 . S
C270 H275 0.929 . S
C271 C270 1.457 . S
C271 C272 1.291 . S
C271 H284 0.931 . S
C272 C271 1.291 . S
C272 C273 1.373 . S
C272 H285 0.929 . S
C273 C272 1.373 . S
C273 C274 1.396 . S
C273 C280 1.403 . S
C274 C264 1.476 . S
C274 N269 1.318 . S
C274 C273 1.396 . S
H275 C270 0.929 . S
O276 Mn252 2.385 . S
O276 C254 1.234 . S
O277 Mn252 2.209 . S
O277 Mn253 2.215 . S
O277 C254 1.283 . S
O278 Mn252 2.094 . S
O278 C256 1.240 . S
O279 Mn253 2.117 . S
O279 C256 1.264 . S
C280 C273 1.403 . S
C280 C281 1.399 . S
C280 H286 0.929 . S
C281 C261 1.449 . S
C281 C280 1.399 . S
C281 H287 0.930 . S
H282 C262 0.931 . S
H283 C263 0.930 . S
H284 C271 0.931 . S
H285 C272 0.929 . S
H286 C280 0.929 . S
H287 C281 0.930 . S
Mn288 O293 2.095 . S
Mn288 O303 2.162 . S
Mn288 O304 2.297 . S
Mn288 O312 2.385 . S
Mn288 O313 2.209 . S
Mn288 O314 2.094 . S
Mn289 O294 2.121 . S
Mn289 N296 2.257 . S
Mn289 N305 2.282 . S
Mn289 O313 2.215 . S
Mn289 O315 2.117 . S
C290 O312 1.234 . S
C290 O313 1.283 . S
C291 O303 1.281 . S
C291 O304 1.236 . S
C292 O314 1.240 . S
C292 O315 1.264 . S
O293 Mn288 2.095 . S
O293 C302 1.250 . S
O294 Mn289 2.121 . S
O294 C302 1.258 . S
C295 N296 1.326 . S
C295 C299 1.460 . S
C295 H301 0.929 . S
N296 Mn289 2.257 . S
N296 C295 1.326 . S
N296 C300 1.362 . S
C297 C298 1.258 . S
C297 C300 1.431 . S
C297 C317 1.449 . S
C298 C297 1.258 . S
C298 C299 1.477 . S
C298 H318 0.960 . S
C299 C295 1.460 . S
C299 C298 1.477 . S
C299 H319 0.930 . S
C300 N296 1.362 . S
C300 C297 1.431 . S
C300 C310 1.476 . S
H301 C295 0.929 . S
C302 O293 1.250 . S
C302 O294 1.258 . S
O303 Mn288 2.162 . S
O303 C291 1.281 . S
O304 Mn288 2.297 . S
O304 C291 1.236 . S
N305 Mn289 2.282 . S
N305 C306 1.328 . S
N305 C310 1.318 . S
C306 N305 1.328 . S
C306 C307 1.457 . S
C306 H311 0.929 . S
C307 C306 1.457 . S
C307 C308 1.291 . S
C307 H320 0.931 . S
C308 C307 1.291 . S
C308 C309 1.373 . S
C308 H321 0.929 . S
C309 C308 1.373 . S
C309 C310 1.396 . S
C309 C316 1.403 . S
C310 C300 1.476 . S
C310 N305 1.318 . S
C310 C309 1.396 . S
H311 C306 0.929 . S
O312 Mn288 2.385 . S
O312 C290 1.234 . S
O313 Mn288 2.209 . S
O313 Mn289 2.215 . S
O313 C290 1.283 . S
O314 Mn288 2.094 . S
O314 C292 1.240 . S
O315 Mn289 2.117 . S
O315 C292 1.264 . S
C316 C309 1.403 . S
C316 C317 1.399 . S
C316 H322 0.929 . S
C317 C297 1.449 . S
C317 C316 1.399 . S
C317 H323 0.930 1_455 S
H318 C298 0.960 . S
H319 C299 0.930 . S
H320 C307 0.931 . S
H321 C308 0.929 . S
H322 C316 0.929 . S
H323 C317 0.930 1_655 S
Mn324 O329 2.095 . S
Mn324 O339 2.162 . S
Mn324 O340 2.297 . S
Mn324 O348 2.385 . S
Mn324 O349 2.209 . S
Mn324 O350 2.094 . S
Mn325 O330 2.121 . S
Mn325 N332 2.257 . S
Mn325 N341 2.282 . S
Mn325 O349 2.215 . S
Mn325 O351 2.117 . S
C326 O348 1.234 . S
C326 O349 1.283 . S
C327 O339 1.281 . S
C327 O340 1.236 . S
C328 O350 1.240 . S
C328 O351 1.264 . S
O329 Mn324 2.095 . S
O329 C338 1.250 . S
O330 Mn325 2.121 . S
O330 C338 1.258 . S
C331 N332 1.326 . S
C331 C335 1.460 . S
C331 H337 0.929 . S
N332 Mn325 2.257 . S
N332 C331 1.326 . S
N332 C336 1.362 . S
C333 C334 1.258 . S
C333 C336 1.431 . S
C333 C353 1.449 . S
C334 C333 1.258 . S
C334 C335 1.477 . S
C334 H354 0.931 . S
C335 C331 1.460 . S
C335 C334 1.477 . S
C335 H355 0.930 . S
C336 N332 1.362 . S
C336 C333 1.431 . S
C336 C346 1.476 . S
H337 C331 0.929 . S
C338 O329 1.250 . S
C338 O330 1.258 . S
O339 Mn324 2.162 . S
O339 C327 1.281 . S
O340 Mn324 2.297 . S
O340 C327 1.236 . S
N341 Mn325 2.282 . S
N341 C342 1.328 . S
N341 C346 1.318 . S
C342 N341 1.328 . S
C342 C343 1.457 . S
C342 H347 0.929 . S
C343 C342 1.457 . S
C343 C344 1.291 . S
C343 H356 0.931 . S
C344 C343 1.291 . S
C344 C345 1.373 . S
C344 H357 0.929 . S
C345 C344 1.373 . S
C345 C346 1.396 . S
C345 C352 1.403 . S
C346 C336 1.476 . S
C346 N341 1.318 . S
C346 C345 1.396 . S
H347 C342 0.929 . S
O348 Mn324 2.385 . S
O348 C326 1.234 . S
O349 Mn324 2.209 . S
O349 Mn325 2.215 . S
O349 C326 1.283 . S
O350 Mn324 2.094 . S
O350 C328 1.240 . S
O351 Mn325 2.117 . S
O351 C328 1.264 . S
C352 C345 1.403 . S
C352 C353 1.399 . S
C352 H358 0.929 . S
C353 C333 1.449 . S
C353 C352 1.399 . S
C353 H359 0.930 . S
H354 C334 0.931 . S
H355 C335 0.930 . S
H356 C343 0.931 . S
H357 C344 0.929 . S
H358 C352 0.929 . S
H359 C353 0.930 . S
Mn360 O365 2.095 . S
Mn360 O375 2.162 . S
Mn360 O376 2.297 . S
Mn360 O384 2.385 . S
Mn360 O385 2.209 . S
Mn360 O386 2.094 . S
Mn361 O366 2.121 . S
Mn361 N368 2.257 . S
Mn361 N377 2.282 . S
Mn361 O385 2.215 . S
Mn361 O387 2.117 . S
C362 O384 1.234 . S
C362 O385 1.283 . S
C363 O375 1.281 . S
C363 O376 1.236 . S
C364 O386 1.240 . S
C364 O387 1.264 . S
O365 Mn360 2.095 . S
O365 C374 1.250 . S
O366 Mn361 2.121 . S
O366 C374 1.258 . S
C367 N368 1.326 . S
C367 C371 1.460 . S
C367 H373 0.929 . S
N368 Mn361 2.257 . S
N368 C367 1.326 . S
N368 C372 1.362 . S
C369 C370 1.258 . S
C369 C372 1.431 . S
C369 C389 1.449 . S
C370 C369 1.258 . S
C370 C371 1.477 . S
C370 H390 0.931 . S
C371 C367 1.460 . S
C371 C370 1.477 . S
C371 H391 0.930 . S
C372 N368 1.362 . S
C372 C369 1.431 . S
C372 C382 1.476 . S
H373 C367 0.929 . S
C374 O365 1.250 . S
C374 O366 1.258 . S
O375 Mn360 2.162 . S
O375 C363 1.281 . S
O376 Mn360 2.297 . S
O376 C363 1.236 . S
N377 Mn361 2.282 . S
N377 C378 1.328 . S
N377 C382 1.318 . S
C378 N377 1.328 . S
C378 C379 1.457 . S
C378 H383 0.929 . S
C379 C378 1.457 . S
C379 C380 1.291 . S
C379 H392 0.931 . S
C380 C379 1.291 . S
C380 C381 1.373 . S
C380 H393 0.929 . S
C381 C380 1.373 . S
C381 C382 1.396 . S
C381 C388 1.403 . S
C382 C372 1.476 . S
C382 N377 1.318 . S
C382 C381 1.396 . S
H383 C378 0.929 . S
O384 Mn360 2.385 . S
O384 C362 1.234 . S
O385 Mn360 2.209 . S
O385 Mn361 2.215 . S
O385 C362 1.283 . S
O386 Mn360 2.094 . S
O386 C364 1.240 . S
O387 Mn361 2.117 . S
O387 C364 1.264 . S
C388 C381 1.403 . S
C388 C389 1.399 . S
C388 H394 0.929 . S
C389 C369 1.449 . S
C389 C388 1.399 . S
C389 H395 0.930 1_655 S
H390 C370 0.931 . S
H391 C371 0.930 . S
H392 C379 0.931 . S
H393 C380 0.929 . S
H394 C388 0.929 . S
H395 C389 0.930 1_455 S
Mn396 O401 2.095 . S
Mn396 O411 2.162 . S
Mn396 O412 2.297 . S
Mn396 O420 2.385 . S
Mn396 O421 2.209 . S
Mn396 O422 2.094 . S
Mn397 O402 2.121 . S
Mn397 N404 2.257 . S
Mn397 N413 2.282 . S
Mn397 O421 2.215 . S
Mn397 O423 2.117 . S
C398 O420 1.234 . S
C398 O421 1.283 . S
C399 O411 1.281 . S
C399 O412 1.236 . S
C400 O422 1.240 . S
C400 O423 1.264 . S
O401 Mn396 2.095 . S
O401 C410 1.250 . S
O402 Mn397 2.121 . S
O402 C410 1.258 . S
C403 N404 1.326 . S
C403 C407 1.460 . S
C403 H409 0.929 . S
N404 Mn397 2.257 . S
N404 C403 1.326 . S
N404 C408 1.362 . S
C405 C406 1.258 . S
C405 C408 1.431 . S
C405 C425 1.449 . S
C406 C405 1.258 . S
C406 C407 1.477 . S
C406 H426 0.931 . S
C407 C403 1.460 . S
C407 C406 1.477 . S
C407 H427 0.930 . S
C408 N404 1.362 . S
C408 C405 1.431 . S
C408 C418 1.476 . S
H409 C403 0.929 . S
C410 O401 1.250 . S
C410 O402 1.258 . S
O411 Mn396 2.162 . S
O411 C399 1.281 . S
O412 Mn396 2.297 . S
O412 C399 1.236 . S
N413 Mn397 2.282 . S
N413 C414 1.328 . S
N413 C418 1.318 . S
C414 N413 1.328 . S
C414 C415 1.457 . S
C414 H419 0.929 . S
C415 C414 1.457 . S
C415 C416 1.291 . S
C415 H428 0.931 . S
C416 C415 1.291 . S
C416 C417 1.373 . S
C416 H429 0.929 . S
C417 C416 1.373 . S
C417 C418 1.396 . S
C417 C424 1.403 . S
C418 C408 1.476 . S
C418 N413 1.318 . S
C418 C417 1.396 . S
H419 C414 0.929 . S
O420 Mn396 2.385 . S
O420 C398 1.234 . S
O421 Mn396 2.209 . S
O421 Mn397 2.215 . S
O421 C398 1.283 . S
O422 Mn396 2.094 . S
O422 C400 1.240 . S
O423 Mn397 2.117 . S
O423 C400 1.264 . S
C424 C417 1.403 . S
C424 C425 1.399 . S
C424 H430 0.929 . S
C425 C405 1.449 . S
C425 C424 1.399 . S
C425 H431 0.930 . S
H426 C406 0.931 . S
H427 C407 0.930 . S
H428 C415 0.931 . S
H429 C416 0.929 . S
H430 C424 0.929 . S
H431 C425 0.930 . S
Mn432 O437 2.095 . S
Mn432 O447 2.162 . S
Mn432 O448 2.297 . S
Mn432 O456 2.385 . S
Mn432 O457 2.209 . S
Mn432 O458 2.094 . S
Mn433 O438 2.121 . S
Mn433 N440 2.257 . S
Mn433 N449 2.282 . S
Mn433 O457 2.215 . S
Mn433 O459 2.117 . S
C434 O456 1.234 . S
C434 O457 1.283 . S
C435 O447 1.281 . S
C435 O448 1.236 . S
C436 O458 1.240 . S
C436 O459 1.264 . S
O437 Mn432 2.095 . S
O437 C446 1.250 . S
O438 Mn433 2.121 . S
O438 C446 1.258 . S
C439 N440 1.326 . S
C439 C443 1.460 . S
C439 H445 0.929 . S
N440 Mn433 2.257 . S
N440 C439 1.326 . S
N440 C444 1.362 . S
C441 C442 1.258 . S
C441 C444 1.431 . S
C441 C461 1.449 . S
C442 C441 1.258 . S
C442 C443 1.477 . S
C442 H462 0.931 . S
C443 C439 1.460 . S
C443 C442 1.477 . S
C443 H463 0.930 . S
C444 N440 1.362 . S
C444 C441 1.431 . S
C444 C454 1.476 . S
H445 C439 0.929 . S
C446 O437 1.250 . S
C446 O438 1.258 . S
O447 Mn432 2.162 . S
O447 C435 1.281 . S
O448 Mn432 2.297 . S
O448 C435 1.236 . S
N449 Mn433 2.282 . S
N449 C450 1.328 . S
N449 C454 1.318 . S
C450 N449 1.328 . S
C450 C451 1.457 . S
C450 H455 0.929 . S
C451 C450 1.457 . S
C451 C452 1.291 . S
C451 H464 0.931 . S
C452 C451 1.291 . S
C452 C453 1.373 . S
C452 H465 0.929 . S
C453 C452 1.373 . S
C453 C454 1.396 . S
C453 C460 1.403 . S
C454 C444 1.476 . S
C454 N449 1.318 . S
C454 C453 1.396 . S
H455 C450 0.929 . S
O456 Mn432 2.385 . S
O456 C434 1.234 . S
O457 Mn432 2.209 . S
O457 Mn433 2.215 . S
O457 C434 1.283 . S
O458 Mn432 2.094 . S
O458 C436 1.240 . S
O459 Mn433 2.117 . S
O459 C436 1.264 . S
C460 C453 1.403 . S
C460 C461 1.399 . S
C460 H466 0.929 . S
C461 C441 1.449 . S
C461 C460 1.399 . S
C461 H467 0.930 . S
H462 C442 0.931 . S
H463 C443 0.930 . S
H464 C451 0.931 . S
H465 C452 0.929 . S
H466 C460 0.929 . S
H467 C461 0.930 . S
Mn468 O473 2.095 . S
Mn468 O483 2.162 . S
Mn468 O484 2.297 . S
Mn468 O492 2.385 . S
Mn468 O493 2.209 . S
Mn468 O494 2.094 . S
Mn469 O474 2.121 . S
Mn469 N476 2.257 . S
Mn469 N485 2.282 . S
Mn469 O493 2.215 . S
Mn469 O495 2.117 . S
C470 O492 1.234 . S
C470 O493 1.283 . S
C471 O483 1.281 . S
C471 O484 1.236 . S
C472 O494 1.240 . S
C472 O495 1.264 . S
O473 Mn468 2.095 . S
O473 C482 1.250 . S
O474 Mn469 2.121 . S
O474 C482 1.258 . S
C475 N476 1.326 . S
C475 C479 1.460 . S
C475 H481 0.929 . S
N476 Mn469 2.257 . S
N476 C475 1.326 . S
N476 C480 1.362 . S
C477 C478 1.258 . S
C477 C480 1.431 . S
C477 C497 1.449 . S
C478 C477 1.258 . S
C478 C479 1.477 . S
C478 H498 0.931 . S
C479 C475 1.460 . S
C479 C478 1.477 . S
C479 H499 0.930 . S
C480 N476 1.362 . S
C480 C477 1.431 . S
C480 C490 1.476 . S
H481 C475 0.929 . S
C482 O473 1.250 . S
C482 O474 1.258 . S
O483 Mn468 2.162 . S
O483 C471 1.281 . S
O484 Mn468 2.297 . S
O484 C471 1.236 . S
N485 Mn469 2.282 . S
N485 C486 1.328 . S
N485 C490 1.318 . S
C486 N485 1.328 . S
C486 C487 1.457 . S
C486 H491 0.929 . S
C487 C486 1.457 . S
C487 C488 1.291 . S
C487 H500 0.931 . S
C488 C487 1.291 . S
C488 C489 1.373 . S
C488 H501 0.929 . S
C489 C488 1.373 . S
C489 C490 1.396 . S
C489 C496 1.403 . S
C490 C480 1.476 . S
C490 N485 1.318 . S
C490 C489 1.396 . S
H491 C486 0.929 . S
O492 Mn468 2.385 . S
O492 C470 1.234 . S
O493 Mn468 2.209 . S
O493 Mn469 2.215 . S
O493 C470 1.283 . S
O494 Mn468 2.094 . S
O494 C472 1.240 . S
O495 Mn469 2.117 . S
O495 C472 1.264 . S
C496 C489 1.403 . S
C496 C497 1.399 . S
C496 H502 0.929 . S
C497 C477 1.449 . S
C497 C496 1.399 . S
C497 H503 0.930 1_455 S
H498 C478 0.931 . S
H499 C479 0.930 . S
H500 C487 0.931 . S
H501 C488 0.929 . S
H502 C496 0.929 . S
H503 C497 0.930 1_655 S
Mn504 O509 2.095 . S
Mn504 O519 2.162 . S
Mn504 O520 2.297 . S
Mn504 O528 2.385 . S
Mn504 O529 2.209 . S
Mn504 O530 2.094 . S
Mn505 O510 2.121 . S
Mn505 N512 2.257 . S
Mn505 N521 2.282 . S
Mn505 O529 2.215 . S
Mn505 O531 2.117 . S
C506 O528 1.234 . S
C506 O529 1.283 . S
C507 O519 1.281 . S
C507 O520 1.236 . S
C508 O530 1.240 . S
C508 O531 1.264 . S
O509 Mn504 2.095 . S
O509 C518 1.250 . S
O510 Mn505 2.121 . S
O510 C518 1.258 . S
C511 N512 1.326 . S
C511 C515 1.460 . S
C511 H517 0.929 . S
N512 Mn505 2.257 . S
N512 C511 1.326 . S
N512 C516 1.362 . S
C513 C514 1.258 . S
C513 C516 1.431 . S
C513 C533 1.449 . S
C514 C513 1.258 . S
C514 C515 1.477 . S
C514 H534 0.931 . S
C515 C511 1.460 . S
C515 C514 1.477 . S
C515 H535 0.930 . S
C516 N512 1.362 . S
C516 C513 1.431 . S
C516 C526 1.476 . S
H517 C511 0.929 . S
C518 O509 1.250 . S
C518 O510 1.258 . S
O519 Mn504 2.162 . S
O519 C507 1.281 . S
O520 Mn504 2.297 . S
O520 C507 1.236 . S
N521 Mn505 2.282 . S
N521 C522 1.328 . S
N521 C526 1.318 . S
C522 N521 1.328 . S
C522 C523 1.457 . S
C522 H527 0.929 . S
C523 C522 1.457 . S
C523 C524 1.291 . S
C523 H536 0.931 . S
C524 C523 1.291 . S
C524 C525 1.373 . S
C524 H537 0.929 . S
C525 C524 1.373 . S
C525 C526 1.396 . S
C525 C532 1.403 . S
C526 C516 1.476 . S
C526 N521 1.318 . S
C526 C525 1.396 . S
H527 C522 0.929 . S
O528 Mn504 2.385 . S
O528 C506 1.234 . S
O529 Mn504 2.209 . S
O529 Mn505 2.215 . S
O529 C506 1.283 . S
O530 Mn504 2.094 . S
O530 C508 1.240 . S
O531 Mn505 2.117 . S
O531 C508 1.264 . S
C532 C525 1.403 . S
C532 C533 1.399 . S
C532 H538 0.929 . S
C533 C513 1.449 . S
C533 C532 1.399 . S
C533 H539 0.930 . S
H534 C514 0.931 . S
H535 C515 0.930 . S
H536 C523 0.931 . S
H537 C524 0.929 . S
H538 C532 0.929 . S
H539 C533 0.930 . S
Mn540 O545 2.095 . S
Mn540 O555 2.162 . S
Mn540 O556 2.297 . S
Mn540 O564 2.385 . S
Mn540 O565 2.209 . S
Mn540 O566 2.094 . S
Mn541 O546 2.121 . S
Mn541 N548 2.257 . S
Mn541 N557 2.282 . S
Mn541 O565 2.215 . S
Mn541 O567 2.117 . S
C542 O564 1.234 . S
C542 O565 1.283 . S
C543 O555 1.281 . S
C543 O556 1.236 . S
C544 O566 1.240 . S
C544 O567 1.264 . S
O545 Mn540 2.095 . S
O545 C554 1.250 . S
O546 Mn541 2.121 . S
O546 C554 1.258 . S
C547 N548 1.326 . S
C547 C551 1.460 . S
C547 H553 0.929 . S
N548 Mn541 2.257 . S
N548 C547 1.326 . S
N548 C552 1.362 . S
C549 C550 1.258 . S
C549 C552 1.431 . S
C549 C569 1.449 . S
C550 C549 1.258 . S
C550 C551 1.477 . S
C550 H570 0.931 . S
C551 C547 1.460 . S
C551 C550 1.477 . S
C551 H571 0.930 . S
C552 N548 1.362 . S
C552 C549 1.431 . S
C552 C562 1.476 . S
H553 C547 0.929 . S
C554 O545 1.250 . S
C554 O546 1.258 . S
O555 Mn540 2.162 . S
O555 C543 1.281 . S
O556 Mn540 2.297 . S
O556 C543 1.236 . S
N557 Mn541 2.282 . S
N557 C558 1.328 . S
N557 C562 1.318 . S
C558 N557 1.328 . S
C558 C559 1.457 . S
C558 H563 0.929 . S
C559 C558 1.457 . S
C559 C560 1.291 . S
C559 H572 0.931 . S
C560 C559 1.291 . S
C560 C561 1.373 . S
C560 H573 0.929 . S
C561 C560 1.373 . S
C561 C562 1.396 . S
C561 C568 1.403 . S
C562 C552 1.476 . S
C562 N557 1.318 . S
C562 C561 1.396 . S
H563 C558 0.929 . S
O564 Mn540 2.385 . S
O564 C542 1.234 . S
O565 Mn540 2.209 . S
O565 Mn541 2.215 . S
O565 C542 1.283 . S
O566 Mn540 2.094 . S
O566 C544 1.240 . S
O567 Mn541 2.117 . S
O567 C544 1.264 . S
C568 C561 1.403 . S
C568 C569 1.399 . S
C568 H574 0.929 . S
C569 C549 1.449 . S
C569 C568 1.399 . S
C569 H575 0.930 . S
H570 C550 0.931 . S
H571 C551 0.930 . S
H572 C559 0.931 . S
H573 C560 0.929 . S
H574 C568 0.929 . S
H575 C569 0.930 . S
Mn576 O581 2.095 . S
Mn576 O591 2.162 . S
Mn576 O592 2.297 . S
Mn576 O600 2.385 . S
Mn576 O601 2.209 . S
Mn576 O602 2.094 . S
Mn577 O582 2.121 . S
Mn577 N584 2.257 . S
Mn577 N593 2.282 . S
Mn577 O601 2.215 . S
Mn577 O603 2.117 . S
C578 O600 1.234 . S
C578 O601 1.283 . S
C579 O591 1.281 . S
C579 O592 1.236 . S
C580 O602 1.240 . S
C580 O603 1.264 . S
O581 Mn576 2.095 . S
O581 C590 1.250 . S
O582 Mn577 2.121 . S
O582 C590 1.258 . S
C583 N584 1.326 . S
C583 C587 1.460 1_655 S
C583 H589 0.929 . S
N584 Mn577 2.257 . S
N584 C583 1.326 . S
N584 C588 1.362 1_655 S
C585 C586 1.258 . S
C585 C588 1.431 . S
C585 C605 1.449 . S
C586 C585 1.258 . S
C586 C587 1.477 . S
C586 H606 0.931 . S
C587 C583 1.460 1_455 S
C587 C586 1.477 . S
C587 H607 0.930 . S
C588 N584 1.362 1_455 S
C588 C585 1.431 . S
C588 C598 1.476 . S
H589 C583 0.929 . S
C590 O581 1.250 . S
C590 O582 1.258 . S
O591 Mn576 2.162 . S
O591 C579 1.281 . S
O592 Mn576 2.297 . S
O592 C579 1.236 . S
N593 Mn577 2.282 . S
N593 C594 1.328 . S
N593 C598 1.318 1_655 S
C594 N593 1.328 . S
C594 C595 1.437 1_655 S
C594 H599 0.929 . S
C595 C594 1.437 1_455 S
C595 C596 1.314 . S
C595 H608 0.928 1_455 S
C596 C595 1.314 . S
C596 C597 1.373 . S
C596 H609 0.929 . S
C597 C596 1.373 . S
C597 C598 1.396 . S
C597 C604 1.403 . S
C598 C588 1.476 . S
C598 N593 1.318 1_455 S
C598 C597 1.396 . S
H599 C594 0.929 . S
O600 Mn576 2.385 . S
O600 C578 1.234 . S
O601 Mn576 2.209 . S
O601 Mn577 2.215 . S
O601 C578 1.283 . S
O602 Mn576 2.094 . S
O602 C580 1.240 . S
O603 Mn577 2.117 . S
O603 C580 1.264 . S
C604 C597 1.403 . S
C604 C605 1.399 . S
C604 H610 0.929 . S
C605 C585 1.449 . S
C605 C604 1.399 . S
C605 H611 0.930 . S
H606 C586 0.931 . S
H607 C587 0.930 . S
H608 C595 0.928 1_655 S
H609 C596 0.929 . S
H610 C604 0.929 . S
H611 C605 0.930 . S
Mn612 O617 2.095 . S
Mn612 O627 2.162 . S
Mn612 O628 2.297 . S
Mn612 O636 2.385 . S
Mn612 O637 2.209 . S
Mn612 O638 2.094 . S
Mn613 O618 2.121 . S
Mn613 N620 2.257 . S
Mn613 N629 2.282 . S
Mn613 O637 2.215 . S
Mn613 O639 2.117 . S
C614 O636 1.234 . S
C614 O637 1.283 . S
C615 O627 1.281 . S
C615 O628 1.236 . S
C616 O638 1.240 . S
C616 O639 1.264 . S
O617 Mn612 2.095 . S
O617 C626 1.250 . S
O618 Mn613 2.121 . S
O618 C626 1.258 . S
C619 N620 1.326 . S
C619 C623 1.460 . S
C619 H625 0.929 . S
N620 Mn613 2.257 . S
N620 C619 1.326 . S
N620 C624 1.362 . S
C621 C622 1.258 . S
C621 C624 1.431 . S
C621 C641 1.449 . S
C622 C621 1.258 . S
C622 C623 1.477 . S
C622 H642 0.931 . S
C623 C619 1.460 . S
C623 C622 1.477 . S
C623 H643 0.930 . S
C624 N620 1.362 . S
C624 C621 1.431 . S
C624 C634 1.476 . S
H625 C619 0.929 . S
C626 O617 1.250 . S
C626 O618 1.258 . S
O627 Mn612 2.162 . S
O627 C615 1.281 . S
O628 Mn612 2.297 . S
O628 C615 1.236 . S
N629 Mn613 2.282 . S
N629 C630 1.328 . S
N629 C634 1.318 . S
C630 N629 1.328 . S
C630 C631 1.457 . S
C630 H635 0.929 . S
C631 C630 1.457 . S
C631 C632 1.291 . S
C631 H644 0.931 . S
C632 C631 1.291 . S
C632 C633 1.373 . S
C632 H645 0.929 . S
C633 C632 1.373 . S
C633 C634 1.396 . S
C633 C640 1.403 . S
C634 C624 1.476 . S
C634 N629 1.318 . S
C634 C633 1.396 . S
H635 C630 0.929 . S
O636 Mn612 2.385 . S
O636 C614 1.234 . S
O637 Mn612 2.209 . S
O637 Mn613 2.215 . S
O637 C614 1.283 . S
O638 Mn612 2.094 . S
O638 C616 1.240 . S
O639 Mn613 2.117 . S
O639 C616 1.264 . S
C640 C633 1.403 . S
C640 C641 1.399 . S
C640 H646 0.929 . S
C641 C621 1.449 . S
C641 C640 1.399 . S
C641 H647 0.930 . S
H642 C622 0.931 . S
H643 C623 0.930 . S
H644 C631 0.931 . S
H645 C632 0.929 . S
H646 C640 0.929 . S
H647 C641 0.930 . S
Mn648 O653 2.095 . S
Mn648 O663 2.162 . S
Mn648 O664 2.297 . S
Mn648 O672 2.385 . S
Mn648 O673 2.209 . S
Mn648 O674 2.094 . S
Mn649 O654 2.121 . S
Mn649 N656 2.257 . S
Mn649 N665 2.282 . S
Mn649 O673 2.215 . S
Mn649 O675 2.117 . S
C650 O672 1.234 . S
C650 O673 1.283 . S
C651 O663 1.281 . S
C651 O664 1.236 . S
C652 O674 1.240 . S
C652 O675 1.264 . S
O653 Mn648 2.095 . S
O653 C662 1.250 . S
O654 Mn649 2.121 . S
O654 C662 1.258 . S
C655 N656 1.326 . S
C655 C659 1.460 . S
C655 H661 0.929 . S
N656 Mn649 2.257 . S
N656 C655 1.326 . S
N656 C660 1.362 . S
C657 C658 1.258 . S
C657 C660 1.431 . S
C657 C677 1.449 . S
C658 C657 1.258 . S
C658 C659 1.477 . S
C658 H678 0.931 . S
C659 C655 1.460 . S
C659 C658 1.477 . S
C659 H679 0.930 . S
C660 N656 1.362 . S
C660 C657 1.431 . S
C660 C670 1.476 . S
H661 C655 0.929 . S
C662 O653 1.250 . S
C662 O654 1.258 . S
O663 Mn648 2.162 . S
O663 C651 1.281 . S
O664 Mn648 2.297 . S
O664 C651 1.236 . S
N665 Mn649 2.282 . S
N665 C666 1.328 . S
N665 C670 1.318 . S
C666 N665 1.328 . S
C666 C667 1.457 . S
C666 H671 0.929 . S
C667 C666 1.457 . S
C667 C668 1.291 . S
C667 H680 0.931 . S
C668 C667 1.291 . S
C668 C669 1.373 . S
C668 H681 0.929 . S
C669 C668 1.373 . S
C669 C670 1.396 . S
C669 C676 1.403 . S
C670 C660 1.476 . S
C670 N665 1.318 . S
C670 C669 1.396 . S
H671 C666 0.929 . S
O672 Mn648 2.385 . S
O672 C650 1.234 . S
O673 Mn648 2.209 . S
O673 Mn649 2.215 . S
O673 C650 1.283 . S
O674 Mn648 2.094 . S
O674 C652 1.240 . S
O675 Mn649 2.117 . S
O675 C652 1.264 . S
C676 C669 1.403 . S
C676 C677 1.399 . S
C676 H682 0.929 . S
C677 C657 1.449 . S
C677 C676 1.399 . S
C677 H683 0.930 . S
H678 C658 0.931 . S
H679 C659 0.930 . S
H680 C667 0.931 . S
H681 C668 0.929 . S
H682 C676 0.929 . S
H683 C677 0.930 . S
Mn684 O689 2.095 . S
Mn684 O699 2.162 . S
Mn684 O700 2.297 . S
Mn684 O708 2.385 . S
Mn684 O709 2.209 . S
Mn684 O710 2.094 . S
Mn685 O690 2.121 . S
Mn685 N692 2.257 . S
Mn685 N701 2.282 . S
Mn685 O709 2.215 . S
Mn685 O711 2.117 . S
C686 O708 1.234 . S
C686 O709 1.283 . S
C687 O699 1.281 . S
C687 O700 1.236 . S
C688 O710 1.240 . S
C688 O711 1.264 . S
O689 Mn684 2.095 . S
O689 C698 1.250 . S
O690 Mn685 2.121 . S
O690 C698 1.258 . S
C691 N692 1.326 . S
C691 C695 1.460 . S
C691 H697 0.929 . S
N692 Mn685 2.257 . S
N692 C691 1.326 . S
N692 C696 1.362 . S
C693 C694 1.258 . S
C693 C696 1.431 . S
C693 C713 1.449 . S
C694 C693 1.258 . S
C694 C695 1.477 . S
C694 H714 0.931 . S
C695 C691 1.460 . S
C695 C694 1.477 . S
C695 H715 0.930 . S
C696 N692 1.362 . S
C696 C693 1.431 . S
C696 C706 1.476 . S
H697 C691 0.929 . S
C698 O689 1.250 . S
C698 O690 1.258 . S
O699 Mn684 2.162 . S
O699 C687 1.281 . S
O700 Mn684 2.297 . S
O700 C687 1.236 . S
N701 Mn685 2.282 . S
N701 C702 1.328 . S
N701 C706 1.318 . S
C702 N701 1.328 . S
C702 C703 1.457 . S
C702 H707 0.929 . S
C703 C702 1.457 . S
C703 C704 1.291 . S
C703 H716 0.931 . S
C704 C703 1.291 . S
C704 C705 1.373 . S
C704 H717 0.929 . S
C705 C704 1.373 . S
C705 C706 1.396 . S
C705 C712 1.403 . S
C706 C696 1.476 . S
C706 N701 1.318 . S
C706 C705 1.396 . S
H707 C702 0.929 . S
O708 Mn684 2.385 . S
O708 C686 1.234 . S
O709 Mn684 2.209 . S
O709 Mn685 2.215 . S
O709 C686 1.283 . S
O710 Mn684 2.094 . S
O710 C688 1.240 . S
O711 Mn685 2.117 . S
O711 C688 1.264 . S
C712 C705 1.403 . S
C712 C713 1.399 . S
C712 H718 0.929 . S
C713 C693 1.449 . S
C713 C712 1.399 . S
C713 H719 0.930 . S
H714 C694 0.931 . S
H715 C695 0.930 . S
H716 C703 0.931 . S
H717 C704 0.929 . S
H718 C712 0.929 . S
H719 C713 0.930 . S
Mn720 O725 2.095 . S
Mn720 O735 2.162 . S
Mn720 O736 2.297 . S
Mn720 O744 2.385 . S
Mn720 O745 2.209 . S
Mn720 O746 2.094 . S
Mn721 O726 2.121 . S
Mn721 N728 2.257 . S
Mn721 N737 2.282 . S
Mn721 O745 2.215 . S
Mn721 O747 2.117 . S
C722 O744 1.234 . S
C722 O745 1.283 . S
C723 O735 1.281 . S
C723 O736 1.236 . S
C724 O746 1.240 . S
C724 O747 1.264 . S
O725 Mn720 2.095 . S
O725 C734 1.250 . S
O726 Mn721 2.121 . S
O726 C734 1.258 . S
C727 N728 1.326 . S
C727 C731 1.460 . S
C727 H733 0.929 . S
N728 Mn721 2.257 . S
N728 C727 1.326 . S
N728 C732 1.362 . S
C729 C730 1.258 . S
C729 C732 1.431 . S
C729 C749 1.449 . S
C730 C729 1.258 . S
C730 C731 1.477 . S
C730 H750 0.931 . S
C731 C727 1.460 . S
C731 C730 1.477 . S
C731 H751 0.930 . S
C732 N728 1.362 . S
C732 C729 1.431 . S
C732 C742 1.476 . S
H733 C727 0.929 . S
C734 O725 1.250 . S
C734 O726 1.258 . S
O735 Mn720 2.162 . S
O735 C723 1.281 . S
O736 Mn720 2.297 . S
O736 C723 1.236 . S
N737 Mn721 2.282 . S
N737 C738 1.328 . S
N737 C742 1.318 . S
C738 N737 1.328 . S
C738 C739 1.457 . S
C738 H743 0.929 . S
C739 C738 1.457 . S
C739 C740 1.291 . S
C739 H752 0.931 . S
C740 C739 1.291 . S
C740 C741 1.373 . S
C740 H753 0.929 . S
C741 C740 1.373 . S
C741 C742 1.396 . S
C741 C748 1.403 . S
C742 C732 1.476 . S
C742 N737 1.318 . S
C742 C741 1.396 . S
H743 C738 0.929 . S
O744 Mn720 2.385 . S
O744 C722 1.234 . S
O745 Mn720 2.209 . S
O745 Mn721 2.215 . S
O745 C722 1.283 . S
O746 Mn720 2.094 . S
O746 C724 1.240 . S
O747 Mn721 2.117 . S
O747 C724 1.264 . S
C748 C741 1.403 . S
C748 C749 1.399 . S
C748 H754 0.929 . S
C749 C729 1.449 . S
C749 C748 1.399 . S
C749 H755 0.930 . S
H750 C730 0.931 . S
H751 C731 0.930 . S
H752 C739 0.931 . S
H753 C740 0.929 . S
H754 C748 0.929 . S
H755 C749 0.930 . S
Mn756 O761 2.095 . S
Mn756 O771 2.162 . S
Mn756 O772 2.297 . S
Mn756 O780 2.385 . S
Mn756 O781 2.209 . S
Mn756 O782 2.094 . S
Mn757 O762 2.121 . S
Mn757 N764 2.257 . S
Mn757 N773 2.282 . S
Mn757 O781 2.215 . S
Mn757 O783 2.117 . S
C758 O780 1.234 . S
C758 O781 1.283 . S
C759 O771 1.281 . S
C759 O772 1.236 . S
C760 O782 1.240 . S
C760 O783 1.264 . S
O761 Mn756 2.095 . S
O761 C770 1.250 . S
O762 Mn757 2.121 . S
O762 C770 1.258 . S
C763 N764 1.326 . S
C763 C767 1.460 . S
C763 H769 0.929 . S
N764 Mn757 2.257 . S
N764 C763 1.326 . S
N764 C768 1.362 . S
C765 C766 1.258 . S
C765 C768 1.431 . S
C765 C785 1.449 . S
C766 C765 1.258 . S
C766 C767 1.477 . S
C766 H786 0.931 . S
C767 C763 1.460 . S
C767 C766 1.477 . S
C767 H787 0.930 . S
C768 N764 1.362 . S
C768 C765 1.431 . S
C768 C778 1.476 . S
H769 C763 0.929 . S
C770 O761 1.250 . S
C770 O762 1.258 . S
O771 Mn756 2.162 . S
O771 C759 1.281 . S
O772 Mn756 2.297 . S
O772 C759 1.236 . S
N773 Mn757 2.282 . S
N773 C774 1.328 . S
N773 C778 1.318 . S
C774 N773 1.328 . S
C774 C775 1.457 . S
C774 H779 0.929 . S
C775 C774 1.457 . S
C775 C776 1.291 . S
C775 H788 0.931 . S
C776 C775 1.291 . S
C776 C777 1.373 . S
C776 H789 0.929 . S
C777 C776 1.373 . S
C777 C778 1.396 . S
C777 C784 1.403 . S
C778 C768 1.476 . S
C778 N773 1.318 . S
C778 C777 1.396 . S
H779 C774 0.929 . S
O780 Mn756 2.385 . S
O780 C758 1.234 . S
O781 Mn756 2.209 . S
O781 Mn757 2.215 . S
O781 C758 1.283 . S
O782 Mn756 2.094 . S
O782 C760 1.240 . S
O783 Mn757 2.117 . S
O783 C760 1.264 . S
C784 C777 1.403 . S
C784 C785 1.399 . S
C784 H790 0.929 . S
C785 C765 1.449 . S
C785 C784 1.399 . S
C785 H791 0.930 . S
H786 C766 0.931 . S
H787 C767 0.930 . S
H788 C775 0.931 . S
H789 C776 0.929 . S
H790 C784 0.929 . S
H791 C785 0.930 . S
Mn792 O797 2.095 . S
Mn792 O807 2.162 . S
Mn792 O808 2.297 . S
Mn792 O816 2.385 . S
Mn792 O817 2.209 . S
Mn792 O818 2.094 . S
Mn793 O798 2.121 . S
Mn793 N800 2.257 . S
Mn793 N809 2.282 . S
Mn793 O817 2.215 . S
Mn793 O819 2.117 . S
C794 O816 1.234 . S
C794 O817 1.283 . S
C795 O807 1.281 . S
C795 O808 1.236 . S
C796 O818 1.240 . S
C796 O819 1.264 . S
O797 Mn792 2.095 . S
O797 C806 1.250 . S
O798 Mn793 2.121 . S
O798 C806 1.258 . S
C799 N800 1.326 . S
C799 C803 1.460 1_655 S
C799 H805 0.929 . S
N800 Mn793 2.257 . S
N800 C799 1.326 . S
N800 C804 1.362 1_655 S
C801 C802 1.258 . S
C801 C804 1.431 . S
C801 C821 1.449 . S
C802 C801 1.258 . S
C802 C803 1.477 . S
C802 H822 0.931 . S
C803 C799 1.460 1_455 S
C803 C802 1.477 . S
C803 H823 0.930 . S
C804 N800 1.362 1_455 S
C804 C801 1.431 . S
C804 C814 1.476 . S
H805 C799 0.929 . S
C806 O797 1.250 . S
C806 O798 1.258 . S
O807 Mn792 2.162 . S
O807 C795 1.281 . S
O808 Mn792 2.297 . S
O808 C795 1.236 . S
N809 Mn793 2.282 . S
N809 C810 1.328 . S
N809 C814 1.318 1_655 S
C810 N809 1.328 . S
C810 C811 1.437 1_655 S
C810 H815 0.929 . S
C811 C810 1.437 1_455 S
C811 C812 1.313 . S
C811 H824 0.928 1_455 S
C812 C811 1.313 . S
C812 C813 1.373 . S
C812 H825 0.929 . S
C813 C812 1.373 . S
C813 C814 1.396 . S
C813 C820 1.403 . S
C814 C804 1.476 . S
C814 N809 1.318 1_455 S
C814 C813 1.396 . S
H815 C810 0.929 . S
O816 Mn792 2.385 . S
O816 C794 1.234 . S
O817 Mn792 2.209 . S
O817 Mn793 2.215 . S
O817 C794 1.283 . S
O818 Mn792 2.094 . S
O818 C796 1.240 . S
O819 Mn793 2.117 . S
O819 C796 1.264 . S
C820 C813 1.403 . S
C820 C821 1.399 . S
C820 H826 0.929 . S
C821 C801 1.449 . S
C821 C820 1.399 . S
C821 H827 0.930 . S
H822 C802 0.931 . S
H823 C803 0.930 . S
H824 C811 0.928 1_655 S
H825 C812 0.929 . S
H826 C820 0.929 . S
H827 C821 0.930 . S
Mn828 O833 2.095 . S
Mn828 O843 2.162 . S
Mn828 O844 2.297 . S
Mn828 O852 2.385 . S
Mn828 O853 2.209 . S
Mn828 O854 2.094 . S
Mn829 O834 2.121 . S
Mn829 N836 2.257 . S
Mn829 N845 2.282 . S
Mn829 O853 2.215 . S
Mn829 O855 2.117 . S
C830 O852 1.234 . S
C830 O853 1.283 . S
C831 O843 1.281 . S
C831 O844 1.236 . S
C832 O854 1.240 . S
C832 O855 1.264 . S
O833 Mn828 2.095 . S
O833 C842 1.250 . S
O834 Mn829 2.121 . S
O834 C842 1.258 . S
C835 N836 1.326 . S
C835 C839 1.460 . S
C835 H841 0.929 . S
N836 Mn829 2.257 . S
N836 C835 1.326 . S
N836 C840 1.362 . S
C837 C838 1.258 . S
C837 C840 1.431 . S
C837 C857 1.449 . S
C838 C837 1.258 . S
C838 C839 1.477 . S
C838 H858 0.931 . S
C839 C835 1.460 . S
C839 C838 1.477 . S
C839 H859 0.930 . S
C840 N836 1.362 . S
C840 C837 1.431 . S
C840 C850 1.476 . S
H841 C835 0.929 . S
C842 O833 1.250 . S
C842 O834 1.258 . S
O843 Mn828 2.162 . S
O843 C831 1.281 . S
O844 Mn828 2.297 . S
O844 C831 1.236 . S
N845 Mn829 2.282 . S
N845 C846 1.328 . S
N845 C850 1.318 . S
C846 N845 1.328 . S
C846 C847 1.457 . S
C846 H851 0.929 . S
C847 C846 1.457 . S
C847 C848 1.291 . S
C847 H860 0.931 . S
C848 C847 1.291 . S
C848 C849 1.373 . S
C848 H861 0.929 . S
C849 C848 1.373 . S
C849 C850 1.396 . S
C849 C856 1.403 . S
C850 C840 1.476 . S
C850 N845 1.318 . S
C850 C849 1.396 . S
H851 C846 0.929 . S
O852 Mn828 2.385 . S
O852 C830 1.234 . S
O853 Mn828 2.209 . S
O853 Mn829 2.215 . S
O853 C830 1.283 . S
O854 Mn828 2.094 . S
O854 C832 1.240 . S
O855 Mn829 2.117 . S
O855 C832 1.264 . S
C856 C849 1.403 . S
C856 C857 1.399 . S
C856 H862 0.929 . S
C857 C837 1.449 . S
C857 C856 1.399 . S
C857 H863 0.930 . S
H858 C838 0.931 . S
H859 C839 0.930 . S
H860 C847 0.931 . S
H861 C848 0.929 . S
H862 C856 0.929 . S
H863 C857 0.930 . S
Mn864 O869 2.095 . S
Mn864 O879 2.162 . S
Mn864 O880 2.297 . S
Mn864 O888 2.385 . S
Mn864 O889 2.209 . S
Mn864 O890 2.094 . S
Mn865 O870 2.121 . S
Mn865 N872 2.257 . S
Mn865 N881 2.282 . S
Mn865 O889 2.215 . S
Mn865 O891 2.117 . S
C866 O888 1.234 . S
C866 O889 1.283 . S
C867 O879 1.281 . S
C867 O880 1.236 . S
C868 O890 1.240 . S
C868 O891 1.264 . S
O869 Mn864 2.095 . S
O869 C878 1.250 . S
O870 Mn865 2.121 . S
O870 C878 1.258 . S
C871 N872 1.326 . S
C871 C875 1.460 1_565 S
C871 H877 0.929 . S
N872 Mn865 2.257 . S
N872 C871 1.326 . S
N872 C876 1.362 . S
C873 C874 1.258 . S
C873 C876 1.431 . S
C873 C893 1.449 . S
C874 C873 1.258 . S
C874 C875 1.477 1_565 S
C874 H894 0.931 . S
C875 C871 1.460 1_545 S
C875 C874 1.477 1_545 S
C875 H895 0.930 . S
C876 N872 1.362 . S
C876 C873 1.431 . S
C876 C886 1.476 . S
H877 C871 0.929 . S
C878 O869 1.250 . S
C878 O870 1.258 . S
O879 Mn864 2.162 . S
O879 C867 1.281 . S
O880 Mn864 2.297 . S
O880 C867 1.236 . S
N881 Mn865 2.282 . S
N881 C882 1.328 . S
N881 C886 1.318 . S
C882 N881 1.328 . S
C882 C883 1.457 . S
C882 H887 0.929 . S
C883 C882 1.457 . S
C883 C884 1.291 . S
C883 H896 0.931 . S
C884 C883 1.291 . S
C884 C885 1.373 . S
C884 H897 0.929 . S
C885 C884 1.373 . S
C885 C886 1.396 . S
C885 C892 1.403 . S
C886 C876 1.476 . S
C886 N881 1.318 . S
C886 C885 1.396 . S
H887 C882 0.929 . S
O888 Mn864 2.385 . S
O888 C866 1.234 . S
O889 Mn864 2.209 . S
O889 Mn865 2.215 . S
O889 C866 1.283 . S
O890 Mn864 2.094 . S
O890 C868 1.240 . S
O891 Mn865 2.117 . S
O891 C868 1.264 . S
C892 C885 1.403 . S
C892 C893 1.399 . S
C892 H898 0.929 . S
C893 C873 1.449 . S
C893 C892 1.399 . S
C893 H899 0.930 . S
H894 C874 0.931 . S
H895 C875 0.930 . S
H896 C883 0.931 . S
H897 C884 0.929 . S
H898 C892 0.929 . S
H899 C893 0.930 . S
Mn900 O905 2.095 . S
Mn900 O915 2.162 . S
Mn900 O916 2.297 . S
Mn900 O924 2.385 . S
Mn900 O925 2.209 . S
Mn900 O926 2.094 . S
Mn901 O906 2.121 . S
Mn901 N908 2.257 . S
Mn901 N917 2.282 . S
Mn901 O925 2.215 . S
Mn901 O927 2.117 . S
C902 O924 1.234 . S
C902 O925 1.283 . S
C903 O915 1.281 . S
C903 O916 1.236 . S
C904 O926 1.240 . S
C904 O927 1.264 . S
O905 Mn900 2.095 . S
O905 C914 1.250 . S
O906 Mn901 2.121 . S
O906 C914 1.258 . S
C907 N908 1.326 . S
C907 C911 1.460 1_545 S
C907 H913 0.929 . S
N908 Mn901 2.257 . S
N908 C907 1.326 . S
N908 C912 1.362 . S
C909 C910 1.258 . S
C909 C912 1.431 . S
C909 C929 1.449 . S
C910 C909 1.258 . S
C910 C911 1.477 1_545 S
C910 H930 0.931 . S
C911 C907 1.460 1_565 S
C911 C910 1.477 1_565 S
C911 H931 0.930 . S
C912 N908 1.362 . S
C912 C909 1.431 . S
C912 C922 1.476 . S
H913 C907 0.929 . S
C914 O905 1.250 . S
C914 O906 1.258 . S
O915 Mn900 2.162 . S
O915 C903 1.281 . S
O916 Mn900 2.297 . S
O916 C903 1.236 . S
N917 Mn901 2.282 . S
N917 C918 1.328 . S
N917 C922 1.318 . S
C918 N917 1.328 . S
C918 C919 1.457 . S
C918 H923 0.929 . S
C919 C918 1.457 . S
C919 C920 1.291 . S
C919 H932 0.931 . S
C920 C919 1.291 . S
C920 C921 1.373 . S
C920 H933 0.929 . S
C921 C920 1.373 . S
C921 C922 1.396 . S
C921 C928 1.403 . S
C922 C912 1.476 . S
C922 N917 1.318 . S
C922 C921 1.396 . S
H923 C918 0.929 . S
O924 Mn900 2.385 . S
O924 C902 1.234 . S
O925 Mn900 2.209 . S
O925 Mn901 2.215 . S
O925 C902 1.283 . S
O926 Mn900 2.094 . S
O926 C904 1.240 . S
O927 Mn901 2.117 . S
O927 C904 1.264 . S
C928 C921 1.403 . S
C928 C929 1.399 . S
C928 H934 0.929 . S
C929 C909 1.449 . S
C929 C928 1.399 . S
C929 H935 0.930 . S
H930 C910 0.931 . S
H931 C911 0.930 . S
H932 C919 0.931 . S
H933 C920 0.929 . S
H934 C928 0.929 . S
H935 C929 0.930 . S
Mn936 O941 2.095 . S
Mn936 O951 2.162 . S
Mn936 O952 2.297 . S
Mn936 O960 2.385 . S
Mn936 O961 2.209 . S
Mn936 O962 2.094 . S
Mn937 O942 2.121 . S
Mn937 N944 2.257 . S
Mn937 N953 2.282 . S
Mn937 O961 2.215 . S
Mn937 O963 2.117 . S
C938 O960 1.234 . S
C938 O961 1.283 . S
C939 O951 1.281 . S
C939 O952 1.236 . S
C940 O962 1.240 . S
C940 O963 1.264 . S
O941 Mn936 2.095 . S
O941 C950 1.250 . S
O942 Mn937 2.121 . S
O942 C950 1.258 . S
C943 N944 1.326 . S
C943 C947 1.460 1_565 S
C943 H949 0.929 . S
N944 Mn937 2.257 . S
N944 C943 1.326 . S
N944 C948 1.362 . S
C945 C946 1.258 . S
C945 C948 1.431 . S
C945 C965 1.449 . S
C946 C945 1.258 . S
C946 C947 1.477 1_565 S
C946 H966 0.931 . S
C947 C943 1.460 1_545 S
C947 C946 1.477 1_545 S
C947 H967 0.930 . S
C948 N944 1.362 . S
C948 C945 1.431 . S
C948 C958 1.476 . S
H949 C943 0.929 . S
C950 O941 1.250 . S
C950 O942 1.258 . S
O951 Mn936 2.162 . S
O951 C939 1.281 . S
O952 Mn936 2.297 . S
O952 C939 1.236 . S
N953 Mn937 2.282 . S
N953 C954 1.328 . S
N953 C958 1.318 . S
C954 N953 1.328 . S
C954 C955 1.457 . S
C954 H959 0.929 . S
C955 C954 1.457 . S
C955 C956 1.291 . S
C955 H968 0.931 . S
C956 C955 1.291 . S
C956 C957 1.373 . S
C956 H969 0.929 . S
C957 C956 1.373 . S
C957 C958 1.396 . S
C957 C964 1.403 . S
C958 C948 1.476 . S
C958 N953 1.318 . S
C958 C957 1.396 . S
H959 C954 0.929 . S
O960 Mn936 2.385 . S
O960 C938 1.234 . S
O961 Mn936 2.209 . S
O961 Mn937 2.215 . S
O961 C938 1.283 . S
O962 Mn936 2.094 . S
O962 C940 1.240 . S
O963 Mn937 2.117 . S
O963 C940 1.264 . S
C964 C957 1.403 . S
C964 C965 1.399 . S
C964 H970 0.929 . S
C965 C945 1.449 . S
C965 C964 1.399 . S
C965 H971 0.930 . S
H966 C946 0.931 . S
H967 C947 0.930 . S
H968 C955 0.931 . S
H969 C956 0.929 . S
H970 C964 0.929 . S
H971 C965 0.930 . S
Mn972 O977 2.095 . S
Mn972 O987 2.162 . S
Mn972 O988 2.297 . S
Mn972 O996 2.385 . S
Mn972 O997 2.209 . S
Mn972 O998 2.094 . S
Mn973 O978 2.121 . S
Mn973 N980 2.257 . S
Mn973 N989 2.282 . S
Mn973 O997 2.215 . S
Mn973 O999 2.117 . S
C974 O996 1.234 . S
C974 O997 1.283 . S
C975 O987 1.281 . S
C975 O988 1.236 . S
C976 O998 1.240 . S
C976 O999 1.264 . S
O977 Mn972 2.095 . S
O977 C986 1.250 . S
O978 Mn973 2.121 . S
O978 C986 1.258 . S
C979 N980 1.326 . S
C979 C983 1.460 . S
C979 H985 0.929 . S
N980 Mn973 2.257 . S
N980 C979 1.326 . S
N980 C984 1.362 . S
C981 C982 1.258 . S
C981 C984 1.431 . S
C981 C1001 1.449 . S
C982 C981 1.258 . S
C982 C983 1.477 . S
C982 H1002 0.931 . S
C983 C979 1.460 . S
C983 C982 1.477 . S
C983 H1003 0.930 . S
C984 N980 1.362 . S
C984 C981 1.431 . S
C984 C994 1.476 . S
H985 C979 0.929 . S
C986 O977 1.250 . S
C986 O978 1.258 . S
O987 Mn972 2.162 . S
O987 C975 1.281 . S
O988 Mn972 2.297 . S
O988 C975 1.236 . S
N989 Mn973 2.282 . S
N989 C990 1.328 . S
N989 C994 1.318 . S
C990 N989 1.328 . S
C990 C991 1.457 . S
C990 H995 0.929 . S
C991 C990 1.457 . S
C991 C992 1.291 . S
C991 H1004 0.931 . S
C992 C991 1.291 . S
C992 C993 1.373 . S
C992 H1005 0.929 . S
C993 C992 1.373 . S
C993 C994 1.396 . S
C993 C1000 1.403 . S
C994 C984 1.476 . S
C994 N989 1.318 . S
C994 C993 1.396 . S
H995 C990 0.929 . S
O996 Mn972 2.385 . S
O996 C974 1.234 . S
O997 Mn972 2.209 . S
O997 Mn973 2.215 . S
O997 C974 1.283 . S
O998 Mn972 2.094 . S
O998 C976 1.240 . S
O999 Mn973 2.117 . S
O999 C976 1.264 . S
C1000 C993 1.403 . S
C1000 C1001 1.399 . S
C1000 H1006 0.929 . S
C1001 C981 1.449 . S
C1001 C1000 1.399 . S
C1001 H1007 0.930 . S
H1002 C982 0.931 . S
H1003 C983 0.930 . S
H1004 C991 0.931 . S
H1005 C992 0.929 . S
H1006 C1000 0.929 . S
H1007 C1001 0.930 . S
Mn1008 O1013 2.095 . S
Mn1008 O1023 2.162 . S
Mn1008 O1024 2.297 . S
Mn1008 O1032 2.385 . S
Mn1008 O1033 2.209 . S
Mn1008 O1034 2.094 . S
Mn1009 O1014 2.121 . S
Mn1009 N1016 2.257 . S
Mn1009 N1025 2.282 . S
Mn1009 O1033 2.215 . S
Mn1009 O1035 2.117 . S
C1010 O1032 1.234 . S
C1010 O1033 1.283 . S
C1011 O1023 1.281 . S
C1011 O1024 1.236 . S
C1012 O1034 1.240 . S
C1012 O1035 1.264 . S
O1013 Mn1008 2.095 . S
O1013 C1022 1.250 . S
O1014 Mn1009 2.121 . S
O1014 C1022 1.258 . S
C1015 N1016 1.326 . S
C1015 C1019 1.460 . S
C1015 H1021 0.929 . S
N1016 Mn1009 2.257 . S
N1016 C1015 1.326 . S
N1016 C1020 1.362 . S
C1017 C1018 1.258 . S
C1017 C1020 1.431 . S
C1017 C1037 1.449 . S
C1018 C1017 1.258 . S
C1018 C1019 1.477 . S
C1018 H1038 0.931 . S
C1019 C1015 1.460 . S
C1019 C1018 1.477 . S
C1019 H1039 0.930 . S
C1020 N1016 1.362 . S
C1020 C1017 1.431 . S
C1020 C1030 1.476 . S
H1021 C1015 0.929 . S
C1022 O1013 1.250 . S
C1022 O1014 1.258 . S
O1023 Mn1008 2.162 . S
O1023 C1011 1.281 . S
O1024 Mn1008 2.297 . S
O1024 C1011 1.236 . S
N1025 Mn1009 2.282 . S
N1025 C1026 1.328 . S
N1025 C1030 1.318 . S
C1026 N1025 1.328 . S
C1026 C1027 1.457 . S
C1026 H1031 0.929 . S
C1027 C1026 1.457 . S
C1027 C1028 1.291 . S
C1027 H1040 0.931 . S
C1028 C1027 1.291 . S
C1028 C1029 1.373 . S
C1028 H1041 0.929 . S
C1029 C1028 1.373 . S
C1029 C1030 1.396 . S
C1029 C1036 1.403 . S
C1030 C1020 1.476 . S
C1030 N1025 1.318 . S
C1030 C1029 1.396 . S
H1031 C1026 0.929 . S
O1032 Mn1008 2.385 . S
O1032 C1010 1.234 . S
O1033 Mn1008 2.209 . S
O1033 Mn1009 2.215 . S
O1033 C1010 1.283 . S
O1034 Mn1008 2.094 . S
O1034 C1012 1.240 . S
O1035 Mn1009 2.117 . S
O1035 C1012 1.264 . S
C1036 C1029 1.403 . S
C1036 C1037 1.399 . S
C1036 H1042 0.929 . S
C1037 C1017 1.449 . S
C1037 C1036 1.399 . S
C1037 H1043 0.930 . S
H1038 C1018 0.931 . S
H1039 C1019 0.930 . S
H1040 C1027 0.931 . S
H1041 C1028 0.929 . S
H1042 C1036 0.929 . S
H1043 C1037 0.930 . S
Mn1044 O1049 2.095 . S
Mn1044 O1059 2.162 . S
Mn1044 O1060 2.297 . S
Mn1044 O1068 2.385 . S
Mn1044 O1069 2.209 . S
Mn1044 O1070 2.094 . S
Mn1045 O1050 2.121 . S
Mn1045 N1052 2.257 . S
Mn1045 N1061 2.282 . S
Mn1045 O1069 2.215 . S
Mn1045 O1071 2.117 . S
C1046 O1068 1.234 . S
C1046 O1069 1.283 . S
C1047 O1059 1.281 . S
C1047 O1060 1.236 . S
C1048 O1070 1.240 . S
C1048 O1071 1.264 . S
O1049 Mn1044 2.095 . S
O1049 C1058 1.250 . S
O1050 Mn1045 2.121 . S
O1050 C1058 1.258 . S
C1051 N1052 1.326 . S
C1051 C1055 1.460 . S
C1051 H1057 0.929 . S
N1052 Mn1045 2.257 . S
N1052 C1051 1.326 . S
N1052 C1056 1.362 . S
C1053 C1054 1.258 . S
C1053 C1056 1.431 . S
C1053 C1073 1.449 . S
C1054 C1053 1.258 . S
C1054 C1055 1.477 . S
C1054 H1074 0.931 . S
C1055 C1051 1.460 . S
C1055 C1054 1.477 . S
C1055 H1075 0.930 . S
C1056 N1052 1.362 . S
C1056 C1053 1.431 . S
C1056 C1066 1.476 . S
H1057 C1051 0.929 . S
C1058 O1049 1.250 . S
C1058 O1050 1.258 . S
O1059 Mn1044 2.162 . S
O1059 C1047 1.281 . S
O1060 Mn1044 2.297 . S
O1060 C1047 1.236 . S
N1061 Mn1045 2.282 . S
N1061 C1062 1.328 . S
N1061 C1066 1.318 . S
C1062 N1061 1.328 . S
C1062 C1063 1.457 . S
C1062 H1067 0.929 . S
C1063 C1062 1.457 . S
C1063 C1064 1.291 . S
C1063 H1076 0.931 . S
C1064 C1063 1.291 . S
C1064 C1065 1.373 . S
C1064 H1077 0.929 . S
C1065 C1064 1.373 . S
C1065 C1066 1.396 . S
C1065 C1072 1.403 . S
C1066 C1056 1.476 . S
C1066 N1061 1.318 . S
C1066 C1065 1.396 . S
H1067 C1062 0.929 . S
O1068 Mn1044 2.385 . S
O1068 C1046 1.234 . S
O1069 Mn1044 2.209 . S
O1069 Mn1045 2.215 . S
O1069 C1046 1.283 . S
O1070 Mn1044 2.094 . S
O1070 C1048 1.240 . S
O1071 Mn1045 2.117 . S
O1071 C1048 1.264 . S
C1072 C1065 1.403 . S
C1072 C1073 1.399 . S
C1072 H1078 0.929 . S
C1073 C1053 1.449 . S
C1073 C1072 1.399 . S
C1073 H1079 0.930 . S
H1074 C1054 0.931 . S
H1075 C1055 0.930 . S
H1076 C1063 0.931 . S
H1077 C1064 0.929 . S
H1078 C1072 0.929 . S
H1079 C1073 0.930 . S
Mn1080 O1085 2.095 . S
Mn1080 O1095 2.162 . S
Mn1080 O1096 2.297 . S
Mn1080 O1104 2.385 . S
Mn1080 O1105 2.209 . S
Mn1080 O1106 2.094 . S
Mn1081 O1086 2.121 . S
Mn1081 N1088 2.257 . S
Mn1081 N1097 2.282 . S
Mn1081 O1105 2.215 . S
Mn1081 O1107 2.117 . S
C1082 O1104 1.234 . S
C1082 O1105 1.283 . S
C1083 O1095 1.281 . S
C1083 O1096 1.236 . S
C1084 O1106 1.240 . S
C1084 O1107 1.264 . S
O1085 Mn1080 2.095 . S
O1085 C1094 1.250 . S
O1086 Mn1081 2.121 . S
O1086 C1094 1.258 . S
C1087 N1088 1.326 . S
C1087 C1091 1.460 . S
C1087 H1093 0.929 . S
N1088 Mn1081 2.257 . S
N1088 C1087 1.326 . S
N1088 C1092 1.362 . S
C1089 C1090 1.258 . S
C1089 C1092 1.431 . S
C1089 C1109 1.449 . S
C1090 C1089 1.258 . S
C1090 C1091 1.477 . S
C1090 H1110 0.931 . S
C1091 C1087 1.460 . S
C1091 C1090 1.477 . S
C1091 H1111 0.930 . S
C1092 N1088 1.362 . S
C1092 C1089 1.431 . S
C1092 C1102 1.476 . S
H1093 C1087 0.929 . S
C1094 O1085 1.250 . S
C1094 O1086 1.258 . S
O1095 Mn1080 2.162 . S
O1095 C1083 1.281 . S
O1096 Mn1080 2.297 . S
O1096 C1083 1.236 . S
N1097 Mn1081 2.282 . S
N1097 C1098 1.328 . S
N1097 C1102 1.318 . S
C1098 N1097 1.328 . S
C1098 C1099 1.457 . S
C1098 H1103 0.929 . S
C1099 C1098 1.457 . S
C1099 C1100 1.291 . S
C1099 H1112 0.931 . S
C1100 C1099 1.291 . S
C1100 C1101 1.373 . S
C1100 H1113 0.929 . S
C1101 C1100 1.373 . S
C1101 C1102 1.396 . S
C1101 C1108 1.403 . S
C1102 C1092 1.476 . S
C1102 N1097 1.318 . S
C1102 C1101 1.396 . S
H1103 C1098 0.929 . S
O1104 Mn1080 2.385 . S
O1104 C1082 1.234 . S
O1105 Mn1080 2.209 . S
O1105 Mn1081 2.215 . S
O1105 C1082 1.283 . S
O1106 Mn1080 2.094 . S
O1106 C1084 1.240 . S
O1107 Mn1081 2.117 . S
O1107 C1084 1.264 . S
C1108 C1101 1.403 . S
C1108 C1109 1.399 . S
C1108 H1114 0.929 . S
C1109 C1089 1.449 . S
C1109 C1108 1.399 . S
C1109 H1115 0.930 . S
H1110 C1090 0.931 . S
H1111 C1091 0.930 . S
H1112 C1099 0.931 . S
H1113 C1100 0.929 . S
H1114 C1108 0.929 . S
H1115 C1109 0.930 . S
Mn1116 O1121 2.095 . S
Mn1116 O1131 2.162 . S
Mn1116 O1132 2.297 . S
Mn1116 O1140 2.385 . S
Mn1116 O1141 2.209 . S
Mn1116 O1142 2.094 . S
Mn1117 O1122 2.121 . S
Mn1117 N1124 2.257 . S
Mn1117 N1133 2.282 . S
Mn1117 O1141 2.215 . S
Mn1117 O1143 2.117 . S
C1118 O1140 1.234 . S
C1118 O1141 1.283 . S
C1119 O1131 1.281 . S
C1119 O1132 1.236 . S
C1120 O1142 1.240 . S
C1120 O1143 1.264 . S
O1121 Mn1116 2.095 . S
O1121 C1130 1.250 . S
O1122 Mn1117 2.121 . S
O1122 C1130 1.258 . S
C1123 N1124 1.326 . S
C1123 C1127 1.460 . S
C1123 H1129 0.929 . S
N1124 Mn1117 2.257 . S
N1124 C1123 1.326 . S
N1124 C1128 1.362 . S
C1125 C1126 1.258 . S
C1125 C1128 1.431 . S
C1125 C1145 1.449 . S
C1126 C1125 1.258 . S
C1126 C1127 1.477 . S
C1126 H1146 0.931 . S
C1127 C1123 1.460 . S
C1127 C1126 1.477 . S
C1127 H1147 0.930 . S
C1128 N1124 1.362 . S
C1128 C1125 1.431 . S
C1128 C1138 1.476 . S
H1129 C1123 0.929 . S
C1130 O1121 1.250 . S
C1130 O1122 1.258 . S
O1131 Mn1116 2.162 . S
O1131 C1119 1.281 . S
O1132 Mn1116 2.297 . S
O1132 C1119 1.236 . S
N1133 Mn1117 2.282 . S
N1133 C1134 1.328 . S
N1133 C1138 1.318 . S
C1134 N1133 1.328 . S
C1134 C1135 1.457 . S
C1134 H1139 0.929 . S
C1135 C1134 1.457 . S
C1135 C1136 1.291 . S
C1135 H1148 0.931 . S
C1136 C1135 1.291 . S
C1136 C1137 1.373 . S
C1136 H1149 0.929 . S
C1137 C1136 1.373 . S
C1137 C1138 1.396 . S
C1137 C1144 1.403 . S
C1138 C1128 1.476 . S
C1138 N1133 1.318 . S
C1138 C1137 1.396 . S
H1139 C1134 0.929 . S
O1140 Mn1116 2.385 . S
O1140 C1118 1.234 . S
O1141 Mn1116 2.209 . S
O1141 Mn1117 2.215 . S
O1141 C1118 1.283 . S
O1142 Mn1116 2.094 . S
O1142 C1120 1.240 . S
O1143 Mn1117 2.117 . S
O1143 C1120 1.264 . S
C1144 C1137 1.403 . S
C1144 C1145 1.399 . S
C1144 H1150 0.929 . S
C1145 C1125 1.449 . S
C1145 C1144 1.399 . S
C1145 H1151 0.930 . S
H1146 C1126 0.931 . S
H1147 C1127 0.930 . S
H1148 C1135 0.931 . S
H1149 C1136 0.929 . S
H1150 C1144 0.929 . S
H1151 C1145 0.930 . S
Mn1152 O1157 2.095 . S
Mn1152 O1167 2.162 . S
Mn1152 O1168 2.297 . S
Mn1152 O1176 2.385 . S
Mn1152 O1177 2.209 . S
Mn1152 O1178 2.094 . S
Mn1153 O1158 2.121 . S
Mn1153 N1160 2.257 . S
Mn1153 N1169 2.282 . S
Mn1153 O1177 2.215 . S
Mn1153 O1179 2.117 . S
C1154 O1176 1.234 . S
C1154 O1177 1.283 . S
C1155 O1167 1.281 . S
C1155 O1168 1.236 . S
C1156 O1178 1.240 . S
C1156 O1179 1.264 . S
O1157 Mn1152 2.095 . S
O1157 C1166 1.250 . S
O1158 Mn1153 2.121 . S
O1158 C1166 1.258 . S
C1159 N1160 1.326 . S
C1159 C1163 1.460 . S
C1159 H1165 0.929 . S
N1160 Mn1153 2.257 . S
N1160 C1159 1.326 . S
N1160 C1164 1.362 . S
C1161 C1162 1.258 . S
C1161 C1164 1.431 . S
C1161 C1181 1.449 . S
C1162 C1161 1.258 . S
C1162 C1163 1.477 . S
C1162 H1182 0.931 . S
C1163 C1159 1.460 . S
C1163 C1162 1.477 . S
C1163 H1183 0.930 . S
C1164 N1160 1.362 . S
C1164 C1161 1.431 . S
C1164 C1174 1.476 . S
H1165 C1159 0.929 . S
C1166 O1157 1.250 . S
C1166 O1158 1.258 . S
O1167 Mn1152 2.162 . S
O1167 C1155 1.281 . S
O1168 Mn1152 2.297 . S
O1168 C1155 1.236 . S
N1169 Mn1153 2.282 . S
N1169 C1170 1.328 . S
N1169 C1174 1.318 . S
C1170 N1169 1.328 . S
C1170 C1171 1.457 . S
C1170 H1175 0.929 . S
C1171 C1170 1.457 . S
C1171 C1172 1.291 . S
C1171 H1184 0.931 . S
C1172 C1171 1.291 . S
C1172 C1173 1.373 . S
C1172 H1185 0.929 . S
C1173 C1172 1.373 . S
C1173 C1174 1.396 . S
C1173 C1180 1.403 . S
C1174 C1164 1.476 . S
C1174 N1169 1.318 . S
C1174 C1173 1.396 . S
H1175 C1170 0.929 . S
O1176 Mn1152 2.385 . S
O1176 C1154 1.234 . S
O1177 Mn1152 2.209 . S
O1177 Mn1153 2.215 . S
O1177 C1154 1.283 . S
O1178 Mn1152 2.094 . S
O1178 C1156 1.240 . S
O1179 Mn1153 2.117 . S
O1179 C1156 1.264 . S
C1180 C1173 1.403 . S
C1180 C1181 1.399 . S
C1180 H1186 0.929 . S
C1181 C1161 1.449 . S
C1181 C1180 1.399 . S
C1181 H1187 0.930 . S
H1182 C1162 0.931 . S
H1183 C1163 0.930 . S
H1184 C1171 0.931 . S
H1185 C1172 0.929 . S
H1186 C1180 0.929 . S
H1187 C1181 0.930 . S
Mn1188 O1193 2.095 . S
Mn1188 O1203 2.162 . S
Mn1188 O1204 2.297 . S
Mn1188 O1212 2.385 . S
Mn1188 O1213 2.209 . S
Mn1188 O1214 2.094 . S
Mn1189 O1194 2.121 . S
Mn1189 N1196 2.257 . S
Mn1189 N1205 2.282 . S
Mn1189 O1213 2.215 . S
Mn1189 O1215 2.117 . S
C1190 O1212 1.234 . S
C1190 O1213 1.283 . S
C1191 O1203 1.281 . S
C1191 O1204 1.236 . S
C1192 O1214 1.240 . S
C1192 O1215 1.264 . S
O1193 Mn1188 2.095 . S
O1193 C1202 1.250 . S
O1194 Mn1189 2.121 . S
O1194 C1202 1.258 . S
C1195 N1196 1.326 . S
C1195 C1199 1.460 . S
C1195 H1201 0.929 . S
N1196 Mn1189 2.257 . S
N1196 C1195 1.326 . S
N1196 C1200 1.362 . S
C1197 C1198 1.258 . S
C1197 C1200 1.431 . S
C1197 C1217 1.449 . S
C1198 C1197 1.258 . S
C1198 C1199 1.477 . S
C1198 H1218 0.931 . S
C1199 C1195 1.460 . S
C1199 C1198 1.477 . S
C1199 H1219 0.930 . S
C1200 N1196 1.362 . S
C1200 C1197 1.431 . S
C1200 C1210 1.476 . S
H1201 C1195 0.929 . S
C1202 O1193 1.250 . S
C1202 O1194 1.258 . S
O1203 Mn1188 2.162 . S
O1203 C1191 1.281 . S
O1204 Mn1188 2.297 . S
O1204 C1191 1.236 . S
N1205 Mn1189 2.282 . S
N1205 C1206 1.328 . S
N1205 C1210 1.318 . S
C1206 N1205 1.328 . S
C1206 C1207 1.457 . S
C1206 H1211 0.929 . S
C1207 C1206 1.457 . S
C1207 C1208 1.291 . S
C1207 H1220 0.931 . S
C1208 C1207 1.291 . S
C1208 C1209 1.373 . S
C1208 H1221 0.929 . S
C1209 C1208 1.373 . S
C1209 C1210 1.396 . S
C1209 C1216 1.403 . S
C1210 C1200 1.476 . S
C1210 N1205 1.318 . S
C1210 C1209 1.396 . S
H1211 C1206 0.929 . S
O1212 Mn1188 2.385 . S
O1212 C1190 1.234 . S
O1213 Mn1188 2.209 . S
O1213 Mn1189 2.215 . S
O1213 C1190 1.283 . S
O1214 Mn1188 2.094 . S
O1214 C1192 1.240 . S
O1215 Mn1189 2.117 . S
O1215 C1192 1.264 . S
C1216 C1209 1.403 . S
C1216 C1217 1.399 . S
C1216 H1222 0.929 . S
C1217 C1197 1.449 . S
C1217 C1216 1.399 . S
C1217 H1223 0.930 . S
H1218 C1198 0.931 . S
H1219 C1199 0.930 . S
H1220 C1207 0.931 . S
H1221 C1208 0.929 . S
H1222 C1216 0.929 . S
H1223 C1217 0.930 . S
Mn1224 O1229 2.095 . S
Mn1224 O1239 2.162 . S
Mn1224 O1240 2.297 . S
Mn1224 O1248 2.385 . S
Mn1224 O1249 2.209 . S
Mn1224 O1250 2.094 . S
Mn1225 O1230 2.121 . S
Mn1225 N1232 2.257 . S
Mn1225 N1241 2.282 . S
Mn1225 O1249 2.215 . S
Mn1225 O1251 2.117 . S
C1226 O1248 1.234 . S
C1226 O1249 1.283 . S
C1227 O1239 1.281 . S
C1227 O1240 1.236 . S
C1228 O1250 1.240 . S
C1228 O1251 1.264 . S
O1229 Mn1224 2.095 . S
O1229 C1238 1.250 . S
O1230 Mn1225 2.121 . S
O1230 C1238 1.258 . S
C1231 N1232 1.326 . S
C1231 C1235 1.460 . S
C1231 H1237 0.929 . S
N1232 Mn1225 2.257 . S
N1232 C1231 1.326 . S
N1232 C1236 1.362 . S
C1233 C1234 1.258 . S
C1233 C1236 1.431 . S
C1233 C1253 1.449 . S
C1234 C1233 1.258 . S
C1234 C1235 1.477 . S
C1234 H1254 0.931 . S
C1235 C1231 1.460 . S
C1235 C1234 1.477 . S
C1235 H1255 0.930 . S
C1236 N1232 1.362 . S
C1236 C1233 1.431 . S
C1236 C1246 1.476 . S
H1237 C1231 0.929 . S
C1238 O1229 1.250 . S
C1238 O1230 1.258 . S
O1239 Mn1224 2.162 . S
O1239 C1227 1.281 . S
O1240 Mn1224 2.297 . S
O1240 C1227 1.236 . S
N1241 Mn1225 2.282 . S
N1241 C1242 1.328 . S
N1241 C1246 1.318 . S
C1242 N1241 1.328 . S
C1242 C1243 1.457 . S
C1242 H1247 0.929 . S
C1243 C1242 1.457 . S
C1243 C1244 1.291 . S
C1243 H1256 0.931 . S
C1244 C1243 1.291 . S
C1244 C1245 1.373 . S
C1244 H1257 0.929 . S
C1245 C1244 1.373 . S
C1245 C1246 1.396 . S
C1245 C1252 1.403 . S
C1246 C1236 1.476 . S
C1246 N1241 1.318 . S
C1246 C1245 1.396 . S
H1247 C1242 0.929 . S
O1248 Mn1224 2.385 . S
O1248 C1226 1.234 . S
O1249 Mn1224 2.209 . S
O1249 Mn1225 2.215 . S
O1249 C1226 1.283 . S
O1250 Mn1224 2.094 . S
O1250 C1228 1.240 . S
O1251 Mn1225 2.117 . S
O1251 C1228 1.264 . S
C1252 C1245 1.403 . S
C1252 C1253 1.399 . S
C1252 H1258 0.929 . S
C1253 C1233 1.449 . S
C1253 C1252 1.399 . S
C1253 H1259 0.930 . S
H1254 C1234 0.931 . S
H1255 C1235 0.930 . S
H1256 C1243 0.931 . S
H1257 C1244 0.929 . S
H1258 C1252 0.929 . S
H1259 C1253 0.930 . S
Mn1260 O1265 2.095 . S
Mn1260 O1275 2.162 . S
Mn1260 O1276 2.297 . S
Mn1260 O1284 2.385 . S
Mn1260 O1285 2.209 . S
Mn1260 O1286 2.094 . S
Mn1261 O1266 2.121 . S
Mn1261 N1268 2.257 . S
Mn1261 N1277 2.282 . S
Mn1261 O1285 2.215 . S
Mn1261 O1287 2.117 . S
C1262 O1284 1.234 . S
C1262 O1285 1.283 . S
C1263 O1275 1.281 . S
C1263 O1276 1.236 . S
C1264 O1286 1.240 . S
C1264 O1287 1.264 . S
O1265 Mn1260 2.095 . S
O1265 C1274 1.250 . S
O1266 Mn1261 2.121 . S
O1266 C1274 1.258 . S
C1267 N1268 1.326 . S
C1267 C1271 1.460 . S
C1267 H1273 0.929 . S
N1268 Mn1261 2.257 . S
N1268 C1267 1.326 . S
N1268 C1272 1.362 . S
C1269 C1270 1.258 . S
C1269 C1272 1.431 . S
C1269 C1289 1.449 . S
C1270 C1269 1.258 . S
C1270 C1271 1.477 . S
C1270 H1290 0.931 . S
C1271 C1267 1.460 . S
C1271 C1270 1.477 . S
C1271 H1291 0.930 . S
C1272 N1268 1.362 . S
C1272 C1269 1.431 . S
C1272 C1282 1.476 . S
H1273 C1267 0.929 . S
C1274 O1265 1.250 . S
C1274 O1266 1.258 . S
O1275 Mn1260 2.162 . S
O1275 C1263 1.281 . S
O1276 Mn1260 2.297 . S
O1276 C1263 1.236 . S
N1277 Mn1261 2.282 . S
N1277 C1278 1.328 . S
N1277 C1282 1.318 . S
C1278 N1277 1.328 . S
C1278 C1279 1.457 . S
C1278 H1283 0.929 . S
C1279 C1278 1.457 . S
C1279 C1280 1.291 . S
C1279 H1292 0.931 . S
C1280 C1279 1.291 . S
C1280 C1281 1.373 . S
C1280 H1293 0.929 . S
C1281 C1280 1.373 . S
C1281 C1282 1.396 . S
C1281 C1288 1.403 . S
C1282 C1272 1.476 . S
C1282 N1277 1.318 . S
C1282 C1281 1.396 . S
H1283 C1278 0.929 . S
O1284 Mn1260 2.385 . S
O1284 C1262 1.234 . S
O1285 Mn1260 2.209 . S
O1285 Mn1261 2.215 . S
O1285 C1262 1.283 . S
O1286 Mn1260 2.094 . S
O1286 C1264 1.240 . S
O1287 Mn1261 2.117 . S
O1287 C1264 1.264 . S
C1288 C1281 1.403 . S
C1288 C1289 1.399 . S
C1288 H1294 0.929 . S
C1289 C1269 1.449 . S
C1289 C1288 1.399 . S
C1289 H1295 0.930 . S
H1290 C1270 0.931 . S
H1291 C1271 0.930 . S
H1292 C1279 0.931 . S
H1293 C1280 0.929 . S
H1294 C1288 0.929 . S
H1295 C1289 0.930 . S
Mn1296 O1301 2.095 . S
Mn1296 O1311 2.162 . S
Mn1296 O1312 2.297 . S
Mn1296 O1320 2.385 . S
Mn1296 O1321 2.209 . S
Mn1296 O1322 2.094 . S
Mn1297 O1302 2.121 . S
Mn1297 N1304 2.257 . S
Mn1297 N1313 2.282 . S
Mn1297 O1321 2.215 . S
Mn1297 O1323 2.117 . S
C1298 O1320 1.234 . S
C1298 O1321 1.283 . S
C1299 O1311 1.281 . S
C1299 O1312 1.236 . S
C1300 O1322 1.240 . S
C1300 O1323 1.264 . S
O1301 Mn1296 2.095 . S
O1301 C1310 1.250 . S
O1302 Mn1297 2.121 . S
O1302 C1310 1.258 . S
C1303 N1304 1.326 . S
C1303 C1307 1.460 . S
C1303 H1309 0.929 . S
N1304 Mn1297 2.257 . S
N1304 C1303 1.326 . S
N1304 C1308 1.362 . S
C1305 C1306 1.258 . S
C1305 C1308 1.431 . S
C1305 C1325 1.449 . S
C1306 C1305 1.258 . S
C1306 C1307 1.477 . S
C1306 H1326 0.931 . S
C1307 C1303 1.460 . S
C1307 C1306 1.477 . S
C1307 H1327 0.930 . S
C1308 N1304 1.362 . S
C1308 C1305 1.431 . S
C1308 C1318 1.476 . S
H1309 C1303 0.929 . S
C1310 O1301 1.250 . S
C1310 O1302 1.258 . S
O1311 Mn1296 2.162 . S
O1311 C1299 1.281 . S
O1312 Mn1296 2.297 . S
O1312 C1299 1.236 . S
N1313 Mn1297 2.282 . S
N1313 C1314 1.328 . S
N1313 C1318 1.318 . S
C1314 N1313 1.328 . S
C1314 C1315 1.457 . S
C1314 H1319 0.929 . S
C1315 C1314 1.457 . S
C1315 C1316 1.291 . S
C1315 H1328 0.931 . S
C1316 C1315 1.291 . S
C1316 C1317 1.373 . S
C1316 H1329 0.929 . S
C1317 C1316 1.373 . S
C1317 C1318 1.396 . S
C1317 C1324 1.403 . S
C1318 C1308 1.476 . S
C1318 N1313 1.318 . S
C1318 C1317 1.396 . S
H1319 C1314 0.929 . S
O1320 Mn1296 2.385 . S
O1320 C1298 1.234 . S
O1321 Mn1296 2.209 . S
O1321 Mn1297 2.215 . S
O1321 C1298 1.283 . S
O1322 Mn1296 2.094 . S
O1322 C1300 1.240 . S
O1323 Mn1297 2.117 . S
O1323 C1300 1.264 . S
C1324 C1317 1.403 . S
C1324 C1325 1.399 . S
C1324 H1330 0.929 . S
C1325 C1305 1.449 . S
C1325 C1324 1.399 . S
C1325 H1331 0.930 . S
H1326 C1306 0.931 . S
H1327 C1307 0.930 . S
H1328 C1315 0.931 . S
H1329 C1316 0.929 . S
H1330 C1324 0.929 . S
H1331 C1325 0.930 . S
Mn1332 O1337 2.095 . S
Mn1332 O1347 2.162 . S
Mn1332 O1348 2.297 . S
Mn1332 O1356 2.385 . S
Mn1332 O1357 2.209 . S
Mn1332 O1358 2.094 . S
Mn1333 O1338 2.121 . S
Mn1333 N1340 2.257 . S
Mn1333 N1349 2.282 . S
Mn1333 O1357 2.215 . S
Mn1333 O1359 2.117 . S
C1334 O1356 1.234 . S
C1334 O1357 1.283 . S
C1335 O1347 1.281 . S
C1335 O1348 1.236 . S
C1336 O1358 1.240 . S
C1336 O1359 1.264 . S
O1337 Mn1332 2.095 . S
O1337 C1346 1.250 . S
O1338 Mn1333 2.121 . S
O1338 C1346 1.258 . S
C1339 N1340 1.326 . S
C1339 C1343 1.460 . S
C1339 H1345 0.929 . S
N1340 Mn1333 2.257 . S
N1340 C1339 1.326 . S
N1340 C1344 1.362 . S
C1341 C1342 1.258 . S
C1341 C1344 1.431 . S
C1341 C1361 1.449 . S
C1342 C1341 1.258 . S
C1342 C1343 1.477 . S
C1342 H1362 0.931 . S
C1343 C1339 1.460 . S
C1343 C1342 1.477 . S
C1343 H1363 0.930 . S
C1344 N1340 1.362 . S
C1344 C1341 1.431 . S
C1344 C1354 1.476 . S
H1345 C1339 0.929 . S
C1346 O1337 1.250 . S
C1346 O1338 1.258 . S
O1347 Mn1332 2.162 . S
O1347 C1335 1.281 . S
O1348 Mn1332 2.297 . S
O1348 C1335 1.236 . S
N1349 Mn1333 2.282 . S
N1349 C1350 1.328 . S
N1349 C1354 1.318 . S
C1350 N1349 1.328 . S
C1350 C1351 1.457 . S
C1350 H1355 0.929 . S
C1351 C1350 1.457 . S
C1351 C1352 1.291 . S
C1351 H1364 0.931 . S
C1352 C1351 1.291 . S
C1352 C1353 1.373 . S
C1352 H1365 0.929 . S
C1353 C1352 1.373 . S
C1353 C1354 1.396 . S
C1353 C1360 1.403 . S
C1354 C1344 1.476 . S
C1354 N1349 1.318 . S
C1354 C1353 1.396 . S
H1355 C1350 0.929 . S
O1356 Mn1332 2.385 . S
O1356 C1334 1.234 . S
O1357 Mn1332 2.209 . S
O1357 Mn1333 2.215 . S
O1357 C1334 1.283 . S
O1358 Mn1332 2.094 . S
O1358 C1336 1.240 . S
O1359 Mn1333 2.117 . S
O1359 C1336 1.264 . S
C1360 C1353 1.403 . S
C1360 C1361 1.399 . S
C1360 H1366 0.929 . S
C1361 C1341 1.449 . S
C1361 C1360 1.399 . S
C1361 H1367 0.930 . S
H1362 C1342 0.931 . S
H1363 C1343 0.930 . S
H1364 C1351 0.931 . S
H1365 C1352 0.929 . S
H1366 C1360 0.929 . S
H1367 C1361 0.930 . S
Mn1368 O1373 2.095 . S
Mn1368 O1383 2.162 . S
Mn1368 O1384 2.297 . S
Mn1368 O1392 2.385 . S
Mn1368 O1393 2.209 . S
Mn1368 O1394 2.094 . S
Mn1369 O1374 2.121 . S
Mn1369 N1376 2.257 . S
Mn1369 N1385 2.282 . S
Mn1369 O1393 2.215 . S
Mn1369 O1395 2.117 . S
C1370 O1392 1.234 . S
C1370 O1393 1.283 . S
C1371 O1383 1.281 . S
C1371 O1384 1.236 . S
C1372 O1394 1.240 . S
C1372 O1395 1.264 . S
O1373 Mn1368 2.095 . S
O1373 C1382 1.250 . S
O1374 Mn1369 2.121 . S
O1374 C1382 1.258 . S
C1375 N1376 1.326 . S
C1375 C1379 1.460 . S
C1375 H1381 0.929 . S
N1376 Mn1369 2.257 . S
N1376 C1375 1.326 . S
N1376 C1380 1.362 . S
C1377 C1378 1.258 . S
C1377 C1380 1.431 . S
C1377 C1397 1.449 . S
C1378 C1377 1.258 . S
C1378 C1379 1.477 . S
C1378 H1398 0.931 . S
C1379 C1375 1.460 . S
C1379 C1378 1.477 . S
C1379 H1399 0.930 . S
C1380 N1376 1.362 . S
C1380 C1377 1.431 . S
C1380 C1390 1.476 . S
H1381 C1375 0.929 . S
C1382 O1373 1.250 . S
C1382 O1374 1.258 . S
O1383 Mn1368 2.162 . S
O1383 C1371 1.281 . S
O1384 Mn1368 2.297 . S
O1384 C1371 1.236 . S
N1385 Mn1369 2.282 . S
N1385 C1386 1.328 . S
N1385 C1390 1.318 . S
C1386 N1385 1.328 . S
C1386 C1387 1.457 . S
C1386 H1391 0.929 . S
C1387 C1386 1.457 . S
C1387 C1388 1.291 . S
C1387 H1400 0.931 . S
C1388 C1387 1.291 . S
C1388 C1389 1.373 . S
C1388 H1401 0.929 . S
C1389 C1388 1.373 . S
C1389 C1390 1.396 . S
C1389 C1396 1.403 . S
C1390 C1380 1.476 . S
C1390 N1385 1.318 . S
C1390 C1389 1.396 . S
H1391 C1386 0.929 . S
O1392 Mn1368 2.385 . S
O1392 C1370 1.234 . S
O1393 Mn1368 2.209 . S
O1393 Mn1369 2.215 . S
O1393 C1370 1.283 . S
O1394 Mn1368 2.094 . S
O1394 C1372 1.240 . S
O1395 Mn1369 2.117 . S
O1395 C1372 1.264 . S
C1396 C1389 1.403 . S
C1396 C1397 1.399 . S
C1396 H1402 0.929 . S
C1397 C1377 1.449 . S
C1397 C1396 1.399 . S
C1397 H1403 0.930 . S
H1398 C1378 0.931 . S
H1399 C1379 0.930 . S
H1400 C1387 0.931 . S
H1401 C1388 0.929 . S
H1402 C1396 0.929 . S
H1403 C1397 0.930 . S
Mn1404 O1409 2.095 . S
Mn1404 O1419 2.162 . S
Mn1404 O1420 2.297 . S
Mn1404 O1428 2.385 . S
Mn1404 O1429 2.209 . S
Mn1404 O1430 2.094 . S
Mn1405 O1410 2.121 . S
Mn1405 N1412 2.257 . S
Mn1405 N1421 2.282 . S
Mn1405 O1429 2.215 . S
Mn1405 O1431 2.117 . S
C1406 O1428 1.234 . S
C1406 O1429 1.283 . S
C1407 O1419 1.281 . S
C1407 O1420 1.236 . S
C1408 O1430 1.240 . S
C1408 O1431 1.264 . S
O1409 Mn1404 2.095 . S
O1409 C1418 1.250 . S
O1410 Mn1405 2.121 . S
O1410 C1418 1.258 . S
C1411 N1412 1.326 . S
C1411 C1415 1.460 . S
C1411 H1417 0.929 . S
N1412 Mn1405 2.257 . S
N1412 C1411 1.326 . S
N1412 C1416 1.362 . S
C1413 C1414 1.258 . S
C1413 C1416 1.431 . S
C1413 C1433 1.449 . S
C1414 C1413 1.258 . S
C1414 C1415 1.477 . S
C1414 H1434 0.931 . S
C1415 C1411 1.460 . S
C1415 C1414 1.477 . S
C1415 H1435 0.930 . S
C1416 N1412 1.362 . S
C1416 C1413 1.431 . S
C1416 C1426 1.476 . S
H1417 C1411 0.929 . S
C1418 O1409 1.250 . S
C1418 O1410 1.258 . S
O1419 Mn1404 2.162 . S
O1419 C1407 1.281 . S
O1420 Mn1404 2.297 . S
O1420 C1407 1.236 . S
N1421 Mn1405 2.282 . S
N1421 C1422 1.328 . S
N1421 C1426 1.318 . S
C1422 N1421 1.328 . S
C1422 C1423 1.457 . S
C1422 H1427 0.929 . S
C1423 C1422 1.457 . S
C1423 C1424 1.291 . S
C1423 H1436 0.931 . S
C1424 C1423 1.291 . S
C1424 C1425 1.373 . S
C1424 H1437 0.929 . S
C1425 C1424 1.373 . S
C1425 C1426 1.396 . S
C1425 C1432 1.403 . S
C1426 C1416 1.476 . S
C1426 N1421 1.318 . S
C1426 C1425 1.396 . S
H1427 C1422 0.929 . S
O1428 Mn1404 2.385 . S
O1428 C1406 1.234 . S
O1429 Mn1404 2.209 . S
O1429 Mn1405 2.215 . S
O1429 C1406 1.283 . S
O1430 Mn1404 2.094 . S
O1430 C1408 1.240 . S
O1431 Mn1405 2.117 . S
O1431 C1408 1.264 . S
C1432 C1425 1.403 . S
C1432 C1433 1.399 . S
C1432 H1438 0.929 . S
C1433 C1413 1.449 . S
C1433 C1432 1.399 . S
C1433 H1439 0.930 . S
H1434 C1414 0.931 . S
H1435 C1415 0.930 . S
H1436 C1423 0.931 . S
H1437 C1424 0.929 . S
H1438 C1432 0.929 . S
H1439 C1433 0.930 . S
Mn1440 O1445 2.095 . S
Mn1440 O1455 2.162 . S
Mn1440 O1456 2.297 . S
Mn1440 O1464 2.385 . S
Mn1440 O1465 2.209 . S
Mn1440 O1466 2.094 . S
Mn1441 O1446 2.121 . S
Mn1441 N1448 2.257 . S
Mn1441 N1457 2.282 . S
Mn1441 O1465 2.215 . S
Mn1441 O1467 2.117 . S
C1442 O1464 1.234 . S
C1442 O1465 1.283 . S
C1443 O1455 1.281 . S
C1443 O1456 1.236 . S
C1444 O1466 1.240 . S
C1444 O1467 1.264 . S
O1445 Mn1440 2.095 . S
O1445 C1454 1.250 . S
O1446 Mn1441 2.121 . S
O1446 C1454 1.258 . S
C1447 N1448 1.326 . S
C1447 C1451 1.460 . S
C1447 H1453 0.929 . S
N1448 Mn1441 2.257 . S
N1448 C1447 1.326 . S
N1448 C1452 1.362 . S
C1449 C1450 1.258 . S
C1449 C1452 1.431 . S
C1449 C1469 1.449 . S
C1450 C1449 1.258 . S
C1450 C1451 1.477 . S
C1450 H1470 0.931 . S
C1451 C1447 1.460 . S
C1451 C1450 1.477 . S
C1451 H1471 0.930 . S
C1452 N1448 1.362 . S
C1452 C1449 1.431 . S
C1452 C1462 1.476 . S
H1453 C1447 0.929 . S
C1454 O1445 1.250 . S
C1454 O1446 1.258 . S
O1455 Mn1440 2.162 . S
O1455 C1443 1.281 . S
O1456 Mn1440 2.297 . S
O1456 C1443 1.236 . S
N1457 Mn1441 2.282 . S
N1457 C1458 1.328 . S
N1457 C1462 1.318 . S
C1458 N1457 1.328 . S
C1458 C1459 1.457 . S
C1458 H1463 0.929 . S
C1459 C1458 1.457 . S
C1459 C1460 1.291 . S
C1459 H1472 0.931 . S
C1460 C1459 1.291 . S
C1460 C1461 1.373 . S
C1460 H1473 0.929 . S
C1461 C1460 1.373 . S
C1461 C1462 1.396 . S
C1461 C1468 1.403 . S
C1462 C1452 1.476 . S
C1462 N1457 1.318 . S
C1462 C1461 1.396 . S
H1463 C1458 0.929 . S
O1464 Mn1440 2.385 . S
O1464 C1442 1.234 . S
O1465 Mn1440 2.209 . S
O1465 Mn1441 2.215 . S
O1465 C1442 1.283 . S
O1466 Mn1440 2.094 . S
O1466 C1444 1.240 . S
O1467 Mn1441 2.117 . S
O1467 C1444 1.264 . S
C1468 C1461 1.403 . S
C1468 C1469 1.399 . S
C1468 H1474 0.929 . S
C1469 C1449 1.449 . S
C1469 C1468 1.399 . S
C1469 H1475 0.930 . S
H1470 C1450 0.931 . S
H1471 C1451 0.930 . S
H1472 C1459 0.931 . S
H1473 C1460 0.929 . S
H1474 C1468 0.929 . S
H1475 C1469 0.930 . S
Mn1476 O1481 2.095 . S
Mn1476 O1491 2.162 . S
Mn1476 O1492 2.297 . S
Mn1476 O1500 2.385 . S
Mn1476 O1501 2.209 . S
Mn1476 O1502 2.094 . S
Mn1477 O1482 2.121 . S
Mn1477 N1484 2.257 . S
Mn1477 N1493 2.282 . S
Mn1477 O1501 2.215 . S
Mn1477 O1503 2.117 . S
C1478 O1500 1.234 . S
C1478 O1501 1.283 . S
C1479 O1491 1.281 . S
C1479 O1492 1.236 . S
C1480 O1502 1.240 . S
C1480 O1503 1.264 . S
O1481 Mn1476 2.095 . S
O1481 C1490 1.250 . S
O1482 Mn1477 2.121 . S
O1482 C1490 1.258 . S
C1483 N1484 1.326 . S
C1483 C1487 1.460 . S
C1483 H1489 0.929 . S
N1484 Mn1477 2.257 . S
N1484 C1483 1.326 . S
N1484 C1488 1.362 . S
C1485 C1486 1.258 . S
C1485 C1488 1.431 . S
C1485 C1505 1.449 . S
C1486 C1485 1.258 . S
C1486 C1487 1.477 . S
C1486 H1506 0.931 . S
C1487 C1483 1.460 . S
C1487 C1486 1.477 . S
C1487 H1507 0.930 . S
C1488 N1484 1.362 . S
C1488 C1485 1.431 . S
C1488 C1498 1.476 . S
H1489 C1483 0.929 . S
C1490 O1481 1.250 . S
C1490 O1482 1.258 . S
O1491 Mn1476 2.162 . S
O1491 C1479 1.281 . S
O1492 Mn1476 2.297 . S
O1492 C1479 1.236 . S
N1493 Mn1477 2.282 . S
N1493 C1494 1.328 . S
N1493 C1498 1.318 . S
C1494 N1493 1.328 . S
C1494 C1495 1.457 . S
C1494 H1499 0.929 . S
C1495 C1494 1.457 . S
C1495 C1496 1.291 . S
C1495 H1508 0.931 . S
C1496 C1495 1.291 . S
C1496 C1497 1.373 . S
C1496 H1509 0.929 . S
C1497 C1496 1.373 . S
C1497 C1498 1.396 . S
C1497 C1504 1.403 . S
C1498 C1488 1.476 . S
C1498 N1493 1.318 . S
C1498 C1497 1.396 . S
H1499 C1494 0.929 . S
O1500 Mn1476 2.385 . S
O1500 C1478 1.234 . S
O1501 Mn1476 2.209 . S
O1501 Mn1477 2.215 . S
O1501 C1478 1.283 . S
O1502 Mn1476 2.094 . S
O1502 C1480 1.240 . S
O1503 Mn1477 2.117 . S
O1503 C1480 1.264 . S
C1504 C1497 1.403 . S
C1504 C1505 1.399 . S
C1504 H1510 0.929 . S
C1505 C1485 1.449 . S
C1505 C1504 1.399 . S
C1505 H1511 0.930 . S
H1506 C1486 0.931 . S
H1507 C1487 0.930 . S
H1508 C1495 0.931 . S
H1509 C1496 0.929 . S
H1510 C1504 0.929 . S
H1511 C1505 0.930 . S
Mn1512 O1517 2.095 . S
Mn1512 O1527 2.162 . S
Mn1512 O1528 2.297 . S
Mn1512 O1536 2.385 . S
Mn1512 O1537 2.209 . S
Mn1512 O1538 2.094 . S
Mn1513 O1518 2.121 . S
Mn1513 N1520 2.257 . S
Mn1513 N1529 2.282 . S
Mn1513 O1537 2.215 . S
Mn1513 O1539 2.117 . S
C1514 O1536 1.234 . S
C1514 O1537 1.283 . S
C1515 O1527 1.281 . S
C1515 O1528 1.236 . S
C1516 O1538 1.240 . S
C1516 O1539 1.264 . S
O1517 Mn1512 2.095 . S
O1517 C1526 1.250 . S
O1518 Mn1513 2.121 . S
O1518 C1526 1.258 . S
C1519 N1520 1.326 . S
C1519 C1523 1.460 1_455 S
C1519 H1525 0.929 . S
N1520 Mn1513 2.257 . S
N1520 C1519 1.326 . S
N1520 C1524 1.362 1_455 S
C1521 C1522 1.258 . S
C1521 C1524 1.431 . S
C1521 C1541 1.449 . S
C1522 C1521 1.258 . S
C1522 C1523 1.477 . S
C1522 H1542 0.931 . S
C1523 C1519 1.460 1_655 S
C1523 C1522 1.477 . S
C1523 H1543 0.930 . S
C1524 N1520 1.362 1_655 S
C1524 C1521 1.431 . S
C1524 C1534 1.476 . S
H1525 C1519 0.929 . S
C1526 O1517 1.250 . S
C1526 O1518 1.258 . S
O1527 Mn1512 2.162 . S
O1527 C1515 1.281 . S
O1528 Mn1512 2.297 . S
O1528 C1515 1.236 . S
N1529 Mn1513 2.282 . S
N1529 C1530 1.328 . S
N1529 C1534 1.318 1_455 S
C1530 N1529 1.328 . S
C1530 C1531 1.457 1_455 S
C1530 H1535 0.929 . S
C1531 C1530 1.457 1_655 S
C1531 C1532 1.291 . S
C1531 H1544 0.928 1_655 S
C1532 C1531 1.291 . S
C1532 C1533 1.373 . S
C1532 H1545 0.929 . S
C1533 C1532 1.373 . S
C1533 C1534 1.396 . S
C1533 C1540 1.403 . S
C1534 C1524 1.476 . S
C1534 N1529 1.318 1_655 S
C1534 C1533 1.396 . S
H1535 C1530 0.929 . S
O1536 Mn1512 2.385 . S
O1536 C1514 1.234 . S
O1537 Mn1512 2.209 . S
O1537 Mn1513 2.215 . S
O1537 C1514 1.283 . S
O1538 Mn1512 2.094 . S
O1538 C1516 1.240 . S
O1539 Mn1513 2.117 . S
O1539 C1516 1.264 . S
C1540 C1533 1.403 . S
C1540 C1541 1.399 . S
C1540 H1546 0.929 . S
C1541 C1521 1.449 . S
C1541 C1540 1.399 . S
C1541 H1547 0.930 . S
H1542 C1522 0.931 . S
H1543 C1523 0.930 . S
H1544 C1531 0.928 1_455 S
H1545 C1532 0.929 . S
H1546 C1540 0.929 . S
H1547 C1541 0.930 . S
Mn1548 O1553 2.095 . S
Mn1548 O1563 2.162 . S
Mn1548 O1564 2.297 . S
Mn1548 O1572 2.385 . S
Mn1548 O1573 2.209 . S
Mn1548 O1574 2.094 . S
Mn1549 O1554 2.121 . S
Mn1549 N1556 2.257 . S
Mn1549 N1565 2.282 . S
Mn1549 O1573 2.215 . S
Mn1549 O1575 2.117 . S
C1550 O1572 1.234 . S
C1550 O1573 1.283 . S
C1551 O1563 1.281 . S
C1551 O1564 1.236 . S
C1552 O1574 1.240 . S
C1552 O1575 1.264 . S
O1553 Mn1548 2.095 . S
O1553 C1562 1.250 . S
O1554 Mn1549 2.121 . S
O1554 C1562 1.258 . S
C1555 N1556 1.326 . S
C1555 C1559 1.460 . S
C1555 H1561 0.929 . S
N1556 Mn1549 2.257 . S
N1556 C1555 1.326 . S
N1556 C1560 1.362 . S
C1557 C1558 1.258 . S
C1557 C1560 1.431 . S
C1557 C1577 1.449 . S
C1558 C1557 1.258 . S
C1558 C1559 1.477 . S
C1558 H1578 0.931 . S
C1559 C1555 1.460 . S
C1559 C1558 1.477 . S
C1559 H1579 0.930 . S
C1560 N1556 1.362 . S
C1560 C1557 1.431 . S
C1560 C1570 1.476 . S
H1561 C1555 0.929 . S
C1562 O1553 1.250 . S
C1562 O1554 1.258 . S
O1563 Mn1548 2.162 . S
O1563 C1551 1.281 . S
O1564 Mn1548 2.297 . S
O1564 C1551 1.236 . S
N1565 Mn1549 2.282 . S
N1565 C1566 1.328 . S
N1565 C1570 1.318 . S
C1566 N1565 1.328 . S
C1566 C1567 1.457 . S
C1566 H1571 0.929 . S
C1567 C1566 1.457 . S
C1567 C1568 1.291 . S
C1567 H1580 0.931 . S
C1568 C1567 1.291 . S
C1568 C1569 1.373 . S
C1568 H1581 0.929 . S
C1569 C1568 1.373 . S
C1569 C1570 1.396 . S
C1569 C1576 1.403 . S
C1570 C1560 1.476 . S
C1570 N1565 1.318 . S
C1570 C1569 1.396 . S
H1571 C1566 0.929 . S
O1572 Mn1548 2.385 . S
O1572 C1550 1.234 . S
O1573 Mn1548 2.209 . S
O1573 Mn1549 2.215 . S
O1573 C1550 1.283 . S
O1574 Mn1548 2.094 . S
O1574 C1552 1.240 . S
O1575 Mn1549 2.117 . S
O1575 C1552 1.264 . S
C1576 C1569 1.403 . S
C1576 C1577 1.399 . S
C1576 H1582 0.929 . S
C1577 C1557 1.449 . S
C1577 C1576 1.399 . S
C1577 H1583 0.930 . S
H1578 C1558 0.931 . S
H1579 C1559 0.930 . S
H1580 C1567 0.931 . S
H1581 C1568 0.929 . S
H1582 C1576 0.929 . S
H1583 C1577 0.930 . S
Mn1584 O1589 2.095 . S
Mn1584 O1599 2.162 . S
Mn1584 O1600 2.297 . S
Mn1584 O1608 2.385 . S
Mn1584 O1609 2.209 . S
Mn1584 O1610 2.094 . S
Mn1585 O1590 2.121 . S
Mn1585 N1592 2.257 . S
Mn1585 N1601 2.282 . S
Mn1585 O1609 2.215 . S
Mn1585 O1611 2.117 . S
C1586 O1608 1.234 . S
C1586 O1609 1.283 . S
C1587 O1599 1.281 . S
C1587 O1600 1.236 . S
C1588 O1610 1.240 . S
C1588 O1611 1.264 . S
O1589 Mn1584 2.095 . S
O1589 C1598 1.250 . S
O1590 Mn1585 2.121 . S
O1590 C1598 1.258 . S
C1591 N1592 1.326 . S
C1591 C1595 1.460 1_455 S
C1591 H1597 0.929 . S
N1592 Mn1585 2.257 . S
N1592 C1591 1.326 . S
N1592 C1596 1.362 1_455 S
C1593 C1594 1.258 . S
C1593 C1596 1.431 . S
C1593 C1613 1.449 . S
C1594 C1593 1.258 . S
C1594 C1595 1.477 . S
C1594 H1614 0.931 . S
C1595 C1591 1.460 1_655 S
C1595 C1594 1.477 . S
C1595 H1615 0.930 . S
C1596 N1592 1.362 1_655 S
C1596 C1593 1.431 . S
C1596 C1606 1.476 . S
H1597 C1591 0.929 . S
C1598 O1589 1.250 . S
C1598 O1590 1.258 . S
O1599 Mn1584 2.162 . S
O1599 C1587 1.281 . S
O1600 Mn1584 2.297 . S
O1600 C1587 1.236 . S
N1601 Mn1585 2.282 . S
N1601 C1602 1.328 . S
N1601 C1606 1.318 1_455 S
C1602 N1601 1.328 . S
C1602 C1603 1.457 1_455 S
C1602 H1607 0.929 . S
C1603 C1602 1.457 1_655 S
C1603 C1604 1.291 . S
C1603 H1616 0.931 1_655 S
C1604 C1603 1.291 . S
C1604 C1605 1.373 . S
C1604 H1617 0.929 . S
C1605 C1604 1.373 . S
C1605 C1606 1.396 . S
C1605 C1612 1.403 . S
C1606 C1596 1.476 . S
C1606 N1601 1.318 1_655 S
C1606 C1605 1.396 . S
H1607 C1602 0.929 . S
O1608 Mn1584 2.385 . S
O1608 C1586 1.234 . S
O1609 Mn1584 2.209 . S
O1609 Mn1585 2.215 . S
O1609 C1586 1.283 . S
O1610 Mn1584 2.094 . S
O1610 C1588 1.240 . S
O1611 Mn1585 2.117 . S
O1611 C1588 1.264 . S
C1612 C1605 1.403 . S
C1612 C1613 1.399 . S
C1612 H1618 0.929 . S
C1613 C1593 1.449 . S
C1613 C1612 1.399 . S
C1613 H1619 0.930 . S
H1614 C1594 0.931 . S
H1615 C1595 0.930 . S
H1616 C1603 0.931 1_455 S
H1617 C1604 0.929 . S
H1618 C1612 0.929 . S
H1619 C1613 0.930 . S
Mn1620 O1625 2.095 . S
Mn1620 O1635 2.162 . S
Mn1620 O1636 2.297 . S
Mn1620 O1644 2.385 . S
Mn1620 O1645 2.209 . S
Mn1620 O1646 2.094 . S
Mn1621 O1626 2.121 . S
Mn1621 N1628 2.257 . S
Mn1621 N1637 2.282 . S
Mn1621 O1645 2.215 . S
Mn1621 O1647 2.117 . S
C1622 O1644 1.234 . S
C1622 O1645 1.283 . S
C1623 O1635 1.281 . S
C1623 O1636 1.236 . S
C1624 O1646 1.240 . S
C1624 O1647 1.264 . S
O1625 Mn1620 2.095 . S
O1625 C1634 1.250 . S
O1626 Mn1621 2.121 . S
O1626 C1634 1.258 . S
C1627 N1628 1.326 . S
C1627 C1631 1.460 . S
C1627 H1633 0.929 . S
N1628 Mn1621 2.257 . S
N1628 C1627 1.326 . S
N1628 C1632 1.362 . S
C1629 C1630 1.258 . S
C1629 C1632 1.431 . S
C1629 C1649 1.449 . S
C1630 C1629 1.258 . S
C1630 C1631 1.477 . S
C1630 H1650 0.931 . S
C1631 C1627 1.460 . S
C1631 C1630 1.477 . S
C1631 H1651 0.930 . S
C1632 N1628 1.362 . S
C1632 C1629 1.431 . S
C1632 C1642 1.476 . S
H1633 C1627 0.929 . S
C1634 O1625 1.250 . S
C1634 O1626 1.258 . S
O1635 Mn1620 2.162 . S
O1635 C1623 1.281 . S
O1636 Mn1620 2.297 . S
O1636 C1623 1.236 . S
N1637 Mn1621 2.282 . S
N1637 C1638 1.328 . S
N1637 C1642 1.318 . S
C1638 N1637 1.328 . S
C1638 C1639 1.457 . S
C1638 H1643 0.929 . S
C1639 C1638 1.457 . S
C1639 C1640 1.291 . S
C1639 H1652 0.931 . S
C1640 C1639 1.291 . S
C1640 C1641 1.373 . S
C1640 H1653 0.929 . S
C1641 C1640 1.373 . S
C1641 C1642 1.396 . S
C1641 C1648 1.403 . S
C1642 C1632 1.476 . S
C1642 N1637 1.318 . S
C1642 C1641 1.396 . S
H1643 C1638 0.929 . S
O1644 Mn1620 2.385 . S
O1644 C1622 1.234 . S
O1645 Mn1620 2.209 . S
O1645 Mn1621 2.215 . S
O1645 C1622 1.283 . S
O1646 Mn1620 2.094 . S
O1646 C1624 1.240 . S
O1647 Mn1621 2.117 . S
O1647 C1624 1.264 . S
C1648 C1641 1.403 . S
C1648 C1649 1.399 . S
C1648 H1654 0.929 . S
C1649 C1629 1.449 . S
C1649 C1648 1.399 . S
C1649 H1655 0.930 . S
H1650 C1630 0.931 . S
H1651 C1631 0.930 . S
H1652 C1639 0.931 . S
H1653 C1640 0.929 . S
H1654 C1648 0.929 . S
H1655 C1649 0.930 . S
Mn1656 O1661 2.095 . S
Mn1656 O1671 2.162 . S
Mn1656 O1672 2.297 . S
Mn1656 O1680 2.385 . S
Mn1656 O1681 2.209 . S
Mn1656 O1682 2.094 . S
Mn1657 O1662 2.121 . S
Mn1657 N1664 2.257 . S
Mn1657 N1673 2.282 . S
Mn1657 O1681 2.215 . S
Mn1657 O1683 2.117 . S
C1658 O1680 1.234 . S
C1658 O1681 1.283 . S
C1659 O1671 1.281 . S
C1659 O1672 1.236 . S
C1660 O1682 1.240 . S
C1660 O1683 1.264 . S
O1661 Mn1656 2.095 . S
O1661 C1670 1.250 . S
O1662 Mn1657 2.121 . S
O1662 C1670 1.258 . S
C1663 N1664 1.326 . S
C1663 C1667 1.460 . S
C1663 H1669 0.929 . S
N1664 Mn1657 2.257 . S
N1664 C1663 1.326 . S
N1664 C1668 1.362 . S
C1665 C1666 1.258 . S
C1665 C1668 1.431 . S
C1665 C1685 1.449 . S
C1666 C1665 1.258 . S
C1666 C1667 1.477 . S
C1666 H1686 0.931 . S
C1667 C1663 1.460 . S
C1667 C1666 1.477 . S
C1667 H1687 0.930 . S
C1668 N1664 1.362 . S
C1668 C1665 1.431 . S
C1668 C1678 1.476 . S
H1669 C1663 0.929 . S
C1670 O1661 1.250 . S
C1670 O1662 1.258 . S
O1671 Mn1656 2.162 . S
O1671 C1659 1.281 . S
O1672 Mn1656 2.297 . S
O1672 C1659 1.236 . S
N1673 Mn1657 2.282 . S
N1673 C1674 1.328 . S
N1673 C1678 1.318 . S
C1674 N1673 1.328 . S
C1674 C1675 1.457 . S
C1674 H1679 0.929 . S
C1675 C1674 1.457 . S
C1675 C1676 1.291 . S
C1675 H1688 0.931 . S
C1676 C1675 1.291 . S
C1676 C1677 1.373 . S
C1676 H1689 0.929 . S
C1677 C1676 1.373 . S
C1677 C1678 1.396 . S
C1677 C1684 1.403 . S
C1678 C1668 1.476 . S
C1678 N1673 1.318 . S
C1678 C1677 1.396 . S
H1679 C1674 0.929 . S
O1680 Mn1656 2.385 . S
O1680 C1658 1.234 . S
O1681 Mn1656 2.209 . S
O1681 Mn1657 2.215 . S
O1681 C1658 1.283 . S
O1682 Mn1656 2.094 . S
O1682 C1660 1.240 . S
O1683 Mn1657 2.117 . S
O1683 C1660 1.264 . S
C1684 C1677 1.403 . S
C1684 C1685 1.399 . S
C1684 H1690 0.929 . S
C1685 C1665 1.449 . S
C1685 C1684 1.399 . S
C1685 H1691 0.930 . S
H1686 C1666 0.931 . S
H1687 C1667 0.930 . S
H1688 C1675 0.931 . S
H1689 C1676 0.929 . S
H1690 C1684 0.929 . S
H1691 C1685 0.930 . S
Mn1692 O1697 2.095 . S
Mn1692 O1707 2.162 . S
Mn1692 O1708 2.297 . S
Mn1692 O1716 2.385 . S
Mn1692 O1717 2.209 . S
Mn1692 O1718 2.094 . S
Mn1693 O1698 2.121 . S
Mn1693 N1700 2.257 . S
Mn1693 N1709 2.282 . S
Mn1693 O1717 2.215 . S
Mn1693 O1719 2.117 . S
C1694 O1716 1.234 . S
C1694 O1717 1.283 . S
C1695 O1707 1.281 . S
C1695 O1708 1.236 . S
C1696 O1718 1.240 . S
C1696 O1719 1.264 . S
O1697 Mn1692 2.095 . S
O1697 C1706 1.250 . S
O1698 Mn1693 2.121 . S
O1698 C1706 1.258 . S
C1699 N1700 1.326 . S
C1699 C1703 1.460 1_545 S
C1699 H1705 0.929 . S
N1700 Mn1693 2.257 . S
N1700 C1699 1.326 . S
N1700 C1704 1.362 . S
C1701 C1702 1.258 . S
C1701 C1704 1.431 . S
C1701 C1721 1.449 . S
C1702 C1701 1.258 . S
C1702 C1703 1.477 1_545 S
C1702 H1722 0.931 . S
C1703 C1699 1.460 1_565 S
C1703 C1702 1.477 1_565 S
C1703 H1723 0.930 . S
C1704 N1700 1.362 . S
C1704 C1701 1.431 . S
C1704 C1714 1.476 . S
H1705 C1699 0.929 . S
C1706 O1697 1.250 . S
C1706 O1698 1.258 . S
O1707 Mn1692 2.162 . S
O1707 C1695 1.281 . S
O1708 Mn1692 2.297 . S
O1708 C1695 1.236 . S
N1709 Mn1693 2.282 . S
N1709 C1710 1.328 . S
N1709 C1714 1.318 . S
C1710 N1709 1.328 . S
C1710 C1711 1.457 . S
C1710 H1715 0.929 . S
C1711 C1710 1.457 . S
C1711 C1712 1.291 . S
C1711 H1724 0.931 . S
C1712 C1711 1.291 . S
C1712 C1713 1.373 . S
C1712 H1725 0.929 . S
C1713 C1712 1.373 . S
C1713 C1714 1.396 . S
C1713 C1720 1.403 . S
C1714 C1704 1.476 . S
C1714 N1709 1.318 . S
C1714 C1713 1.396 . S
H1715 C1710 0.929 . S
O1716 Mn1692 2.385 . S
O1716 C1694 1.234 . S
O1717 Mn1692 2.209 . S
O1717 Mn1693 2.215 . S
O1717 C1694 1.283 . S
O1718 Mn1692 2.094 . S
O1718 C1696 1.240 . S
O1719 Mn1693 2.117 . S
O1719 C1696 1.264 . S
C1720 C1713 1.403 . S
C1720 C1721 1.399 . S
C1720 H1726 0.929 . S
C1721 C1701 1.449 . S
C1721 C1720 1.399 . S
C1721 H1727 0.930 . S
H1722 C1702 0.931 . S
H1723 C1703 0.930 . S
H1724 C1711 0.931 . S
H1725 C1712 0.929 . S
H1726 C1720 0.929 . S
H1727 C1721 0.930 . S
C1728 C1729 1.387 . S
C1728 H1732 0.950 . S
C1728 C1737 1.390 . S
C1729 C1728 1.387 . S
C1729 C1731 1.387 . S
H1730 C1737 0.950 . S
C1731 C1729 1.387 . S
C1731 C1733 1.390 . S
C1731 H1735 0.950 . S
H1732 C1728 0.950 . S
C1733 C1731 1.390 . S
C1733 C1734 1.387 . S
C1733 H1736 0.950 . S
C1734 C1733 1.387 . S
C1734 C1737 1.387 . S
H1735 C1731 0.950 . S
H1736 C1733 0.950 . S
C1737 C1728 1.390 . S
C1737 H1730 0.950 . S
C1737 C1734 1.387 . S
C1738 C1739 1.387 1_655 S
C1738 H1742 0.950 1_655 S
C1738 C1747 1.390 . S
C1739 C1738 1.387 1_455 S
C1739 C1741 1.387 1_455 S
H1740 C1747 0.950 . S
C1741 C1739 1.387 1_655 S
C1741 C1743 1.390 . S
C1741 H1745 0.947 1_655 S
H1742 C1738 0.950 1_455 S
C1743 C1741 1.390 . S
C1743 C1744 1.387 . S
C1743 H1746 0.950 . S
C1744 C1743 1.387 . S
C1744 C1747 1.387 . S
H1745 C1741 0.947 1_455 S
H1746 C1743 0.950 . S
C1747 C1738 1.390 . S
C1747 H1740 0.950 . S
C1747 C1744 1.387 . S
C1748 C1749 1.387 . S
C1748 H1752 0.950 . S
C1748 C1757 1.390 . S
C1749 C1748 1.387 . S
C1749 C1751 1.387 . S
H1750 C1757 0.950 . S
C1751 C1749 1.387 . S
C1751 C1753 1.390 . S
C1751 H1755 0.950 . S
H1752 C1748 0.950 . S
C1753 C1751 1.390 . S
C1753 C1754 1.387 . S
C1753 H1756 0.950 . S
C1754 C1753 1.387 . S
C1754 C1757 1.387 . S
H1755 C1751 0.950 . S
H1756 C1753 0.950 . S
C1757 C1748 1.390 . S
C1757 H1750 0.950 . S
C1757 C1754 1.387 . S
C1758 C1759 1.387 . S
C1758 H1762 0.950 . S
C1758 C1767 1.390 . S
C1759 C1758 1.387 . S
C1759 C1761 1.387 . S
H1760 C1767 0.950 . S
C1761 C1759 1.387 . S
C1761 C1763 1.390 . S
C1761 H1765 0.950 . S
H1762 C1758 0.950 . S
C1763 C1761 1.390 . S
C1763 C1764 1.387 . S
C1763 H1766 0.950 . S
C1764 C1763 1.387 . S
C1764 C1767 1.387 . S
H1765 C1761 0.950 . S
H1766 C1763 0.950 . S
C1767 C1758 1.390 . S
C1767 H1760 0.950 . S
C1767 C1764 1.387 . S
C1768 C1769 1.387 . S
C1768 H1772 0.950 . S
C1768 C1777 1.390 . S
C1769 C1768 1.387 . S
C1769 C1771 1.387 . S
H1770 C1777 0.950 . S
C1771 C1769 1.387 . S
C1771 C1773 1.390 . S
C1771 H1775 0.950 . S
H1772 C1768 0.950 . S
C1773 C1771 1.390 . S
C1773 C1774 1.387 . S
C1773 H1776 0.950 . S
C1774 C1773 1.387 . S
C1774 C1777 1.387 . S
H1775 C1771 0.950 . S
H1776 C1773 0.950 . S
C1777 C1768 1.390 . S
C1777 H1770 0.950 . S
C1777 C1774 1.387 . S
C1778 C1779 1.387 . S
C1778 H1782 0.950 . S
C1778 C1787 1.390 . S
C1779 C1778 1.387 . S
C1779 C1781 1.387 . S
H1780 C1787 0.950 . S
C1781 C1779 1.387 . S
C1781 C1783 1.390 . S
C1781 H1785 0.950 . S
H1782 C1778 0.950 . S
C1783 C1781 1.390 . S
C1783 C1784 1.387 . S
C1783 H1786 0.950 . S
C1784 C1783 1.387 . S
C1784 C1787 1.387 . S
H1785 C1781 0.950 . S
H1786 C1783 0.950 . S
C1787 C1778 1.390 . S
C1787 H1780 0.950 . S
C1787 C1784 1.387 . S
C1788 C1789 1.387 . S
C1788 H1792 0.950 . S
C1788 C1797 1.390 . S
C1789 C1788 1.387 . S
C1789 C1791 1.387 . S
H1790 C1797 0.950 . S
C1791 C1789 1.387 . S
C1791 C1793 1.390 . S
C1791 H1795 0.950 . S
H1792 C1788 0.950 . S
C1793 C1791 1.390 . S
C1793 C1794 1.387 . S
C1793 H1796 0.950 . S
C1794 C1793 1.387 . S
C1794 C1797 1.387 . S
H1795 C1791 0.950 . S
H1796 C1793 0.950 . S
C1797 C1788 1.390 . S
C1797 H1790 0.950 . S
C1797 C1794 1.387 . S
C1798 C1799 1.387 1_655 S
C1798 H1802 0.950 1_655 S
C1798 C1807 1.390 . S
C1799 C1798 1.387 1_455 S
C1799 C1801 1.387 1_455 S
H1800 C1807 0.950 . S
C1801 C1799 1.387 1_655 S
C1801 C1803 1.390 . S
C1801 H1805 0.950 1_655 S
H1802 C1798 0.950 1_455 S
C1803 C1801 1.390 . S
C1803 C1804 1.387 . S
C1803 H1806 0.950 . S
C1804 C1803 1.387 . S
C1804 C1807 1.387 . S
H1805 C1801 0.950 1_455 S
H1806 C1803 0.950 . S
C1807 C1798 1.390 . S
C1807 H1800 0.950 . S
C1807 C1804 1.387 . S
C1808 C1809 1.387 . S
C1808 H1812 0.950 . S
C1808 C1817 1.390 . S
C1809 C1808 1.387 . S
C1809 C1811 1.387 . S
H1810 C1817 0.950 . S
C1811 C1809 1.387 . S
C1811 C1813 1.390 . S
C1811 H1815 0.950 . S
H1812 C1808 0.950 . S
C1813 C1811 1.390 . S
C1813 C1814 1.387 . S
C1813 H1816 0.950 . S
C1814 C1813 1.387 . S
C1814 C1817 1.387 . S
H1815 C1811 0.950 . S
H1816 C1813 0.950 . S
C1817 C1808 1.390 . S
C1817 H1810 0.950 . S
C1817 C1814 1.387 . S
C1818 C1819 1.387 . S
C1818 H1822 0.950 . S
C1818 C1827 1.390 . S
C1819 C1818 1.387 . S
C1819 C1821 1.387 . S
H1820 C1827 0.950 . S
C1821 C1819 1.387 . S
C1821 C1823 1.390 . S
C1821 H1825 0.950 . S
H1822 C1818 0.950 . S
C1823 C1821 1.390 . S
C1823 C1824 1.387 . S
C1823 H1826 0.950 . S
C1824 C1823 1.387 . S
C1824 C1827 1.387 . S
H1825 C1821 0.950 . S
H1826 C1823 0.950 . S
C1827 C1818 1.390 . S
C1827 H1820 0.950 . S
C1827 C1824 1.387 . S
C1828 C1829 1.387 . S
C1828 H1832 0.950 . S
C1828 C1837 1.390 . S
C1829 C1828 1.387 . S
C1829 C1831 1.387 . S
H1830 C1837 0.950 . S
C1831 C1829 1.387 . S
C1831 C1833 1.390 . S
C1831 H1835 0.950 . S
H1832 C1828 0.950 . S
C1833 C1831 1.390 . S
C1833 C1834 1.387 . S
C1833 H1836 0.950 . S
C1834 C1833 1.387 . S
C1834 C1837 1.387 . S
H1835 C1831 0.950 . S
H1836 C1833 0.950 . S
C1837 C1828 1.390 . S
C1837 H1830 0.950 . S
C1837 C1834 1.387 . S
C1838 C1839 1.379 1_554 S
C1838 H1842 0.944 1_554 S
C1838 C1847 1.405 . S
C1839 C1838 1.379 1_556 S
C1839 C1841 1.387 . S
H1840 C1847 0.950 . S
C1841 C1839 1.387 . S
C1841 C1843 1.390 1_556 S
C1841 H1845 0.950 . S
H1842 C1838 0.944 1_556 S
C1843 C1841 1.390 1_554 S
C1843 C1844 1.387 . S
C1843 H1846 0.950 . S
C1844 C1843 1.387 . S
C1844 C1847 1.387 . S
H1845 C1841 0.950 . S
H1846 C1843 0.950 . S
C1847 C1838 1.405 . S
C1847 H1840 0.950 . S
C1847 C1844 1.387 . S
C1848 C1849 1.387 . S
C1848 H1852 0.950 . S
C1848 C1857 1.390 . S
C1849 C1848 1.387 . S
C1849 C1851 1.387 . S
H1850 C1857 0.950 . S
C1851 C1849 1.387 . S
C1851 C1853 1.390 . S
C1851 H1855 0.950 . S
H1852 C1848 0.950 . S
C1853 C1851 1.390 . S
C1853 C1854 1.387 . S
C1853 H1856 0.950 . S
C1854 C1853 1.387 . S
C1854 C1857 1.387 . S
H1855 C1851 0.950 . S
H1856 C1853 0.950 . S
C1857 C1848 1.390 . S
C1857 H1850 0.950 . S
C1857 C1854 1.387 . S
C1858 C1859 1.387 . S
C1858 H1862 0.950 . S
C1858 C1867 1.390 . S
C1859 C1858 1.387 . S
C1859 C1861 1.387 . S
H1860 C1867 0.950 . S
C1861 C1859 1.387 . S
C1861 C1863 1.390 . S
C1861 H1865 0.950 . S
H1862 C1858 0.950 . S
C1863 C1861 1.390 . S
C1863 C1864 1.387 . S
C1863 H1866 0.950 . S
C1864 C1863 1.387 . S
C1864 C1867 1.387 . S
H1865 C1861 0.950 . S
H1866 C1863 0.950 . S
C1867 C1858 1.390 . S
C1867 H1860 0.950 . S
C1867 C1864 1.387 . S
C1868 C1869 1.387 . S
C1868 H1872 0.950 . S
C1868 C1877 1.390 . S
C1869 C1868 1.387 . S
C1869 C1871 1.387 . S
H1870 C1877 0.950 . S
C1871 C1869 1.387 . S
C1871 C1873 1.390 . S
C1871 H1875 0.950 . S
H1872 C1868 0.950 . S
C1873 C1871 1.390 . S
C1873 C1874 1.387 . S
C1873 H1876 0.950 . S
C1874 C1873 1.387 . S
C1874 C1877 1.387 . S
H1875 C1871 0.950 . S
H1876 C1873 0.950 . S
C1877 C1868 1.390 . S
C1877 H1870 0.950 . S
C1877 C1874 1.387 . S
C1878 C1879 1.387 1_556 S
C1878 H1882 0.950 1_556 S
C1878 C1887 1.390 . S
C1879 C1878 1.387 1_554 S
C1879 C1881 1.387 . S
H1880 C1887 0.950 . S
C1881 C1879 1.387 . S
C1881 C1883 1.390 1_554 S
C1881 H1885 0.950 . S
H1882 C1878 0.950 1_554 S
C1883 C1881 1.390 1_556 S
C1883 C1884 1.387 . S
C1883 H1886 0.950 . S
C1884 C1883 1.387 . S
C1884 C1887 1.387 . S
H1885 C1881 0.950 . S
H1886 C1883 0.950 . S
C1887 C1878 1.390 . S
C1887 H1880 0.950 . S
C1887 C1884 1.387 . S
C1888 C1889 1.387 . S
C1888 H1892 0.950 . S
C1888 C1897 1.390 . S
C1889 C1888 1.387 . S
C1889 C1891 1.387 . S
H1890 C1897 0.950 . S
C1891 C1889 1.387 . S
C1891 C1893 1.390 . S
C1891 H1895 0.950 . S
H1892 C1888 0.950 . S
C1893 C1891 1.390 . S
C1893 C1894 1.387 . S
C1893 H1896 0.950 . S
C1894 C1893 1.387 . S
C1894 C1897 1.387 . S
H1895 C1891 0.950 . S
H1896 C1893 0.950 . S
C1897 C1888 1.390 . S
C1897 H1890 0.950 . S
C1897 C1894 1.387 . S
C1898 C1899 1.387 . S
C1898 H1902 0.950 . S
C1898 C1907 1.390 . S
C1899 C1898 1.387 . S
C1899 C1901 1.387 . S
H1900 C1907 0.950 . S
C1901 C1899 1.387 . S
C1901 C1903 1.390 . S
C1901 H1905 0.950 . S
H1902 C1898 0.950 . S
C1903 C1901 1.390 . S
C1903 C1904 1.387 . S
C1903 H1906 0.950 . S
C1904 C1903 1.387 . S
C1904 C1907 1.387 . S
H1905 C1901 0.950 . S
H1906 C1903 0.950 . S
C1907 C1898 1.390 . S
C1907 H1900 0.950 . S
C1907 C1904 1.387 . S
C1908 C1909 1.387 . S
C1908 H1912 0.950 . S
C1908 C1917 1.390 . S
C1909 C1908 1.387 . S
C1909 C1911 1.387 . S
H1910 C1917 0.950 . S
C1911 C1909 1.387 . S
C1911 C1913 1.390 . S
C1911 H1915 0.950 . S
H1912 C1908 0.950 . S
C1913 C1911 1.390 . S
C1913 C1914 1.387 . S
C1913 H1916 0.950 . S
C1914 C1913 1.387 . S
C1914 C1917 1.387 . S
H1915 C1911 0.950 . S
H1916 C1913 0.950 . S
C1917 C1908 1.390 . S
C1917 H1910 0.950 . S
C1917 C1914 1.387 . S
C1918 C1919 1.387 . S
C1918 H1922 0.950 . S
C1918 C1927 1.390 . S
C1919 C1918 1.387 . S
C1919 C1921 1.387 . S
H1920 C1927 0.950 . S
C1921 C1919 1.387 . S
C1921 C1923 1.390 . S
C1921 H1925 0.950 . S
H1922 C1918 0.950 . S
C1923 C1921 1.390 . S
C1923 C1924 1.387 . S
C1923 H1926 0.950 . S
C1924 C1923 1.387 . S
C1924 C1927 1.387 . S
H1925 C1921 0.950 . S
H1926 C1923 0.950 . S
C1927 C1918 1.390 . S
C1927 H1920 0.950 . S
C1927 C1924 1.387 . S
C1928 C1929 1.387 . S
C1928 H1932 0.950 . S
C1928 C1937 1.387 . S
C1929 C1928 1.387 . S
C1929 C1931 1.387 . S
H1930 C1937 0.951 1_545 S
C1931 C1929 1.387 . S
C1931 C1933 1.390 . S
C1931 H1935 0.950 . S
H1932 C1928 0.950 . S
C1933 C1931 1.390 . S
C1933 C1934 1.387 1_565 S
C1933 H1936 0.950 1_565 S
C1934 C1933 1.387 1_545 S
C1934 C1937 1.389 1_545 S
H1935 C1931 0.950 . S
H1936 C1933 0.950 1_545 S
C1937 C1928 1.387 . S
C1937 H1930 0.951 1_565 S
C1937 C1934 1.389 1_565 S
C1938 C1939 1.387 . S
C1938 H1942 0.950 . S
C1938 C1947 1.390 . S
C1939 C1938 1.387 . S
C1939 C1941 1.387 . S
H1940 C1947 0.950 . S
C1941 C1939 1.387 . S
C1941 C1943 1.390 . S
C1941 H1945 0.950 . S
H1942 C1938 0.950 . S
C1943 C1941 1.390 . S
C1943 C1944 1.387 . S
C1943 H1946 0.950 . S
C1944 C1943 1.387 . S
C1944 C1947 1.387 . S
H1945 C1941 0.950 . S
H1946 C1943 0.950 . S
C1947 C1938 1.390 . S
C1947 H1940 0.950 . S
C1947 C1944 1.387 . S
C1948 C1949 1.387 . S
C1948 H1952 0.950 . S
C1948 C1957 1.390 . S
C1949 C1948 1.387 . S
C1949 C1951 1.387 . S
H1950 C1957 0.950 . S
C1951 C1949 1.387 . S
C1951 C1953 1.390 . S
C1951 H1955 0.950 . S
H1952 C1948 0.950 . S
C1953 C1951 1.390 . S
C1953 C1954 1.387 . S
C1953 H1956 0.950 . S
C1954 C1953 1.387 . S
C1954 C1957 1.387 . S
H1955 C1951 0.950 . S
H1956 C1953 0.950 . S
C1957 C1948 1.390 . S
C1957 H1950 0.950 . S
C1957 C1954 1.387 . S
C1958 C1959 1.387 . S
C1958 H1962 0.950 . S
C1958 C1967 1.390 . S
C1959 C1958 1.387 . S
C1959 C1961 1.387 . S
H1960 C1967 0.950 . S
C1961 C1959 1.387 . S
C1961 C1963 1.390 . S
C1961 H1965 0.950 . S
H1962 C1958 0.950 . S
C1963 C1961 1.390 . S
C1963 C1964 1.387 . S
C1963 H1966 0.950 . S
C1964 C1963 1.387 . S
C1964 C1967 1.387 . S
H1965 C1961 0.950 . S
H1966 C1963 0.950 . S
C1967 C1958 1.390 . S
C1967 H1960 0.950 . S
C1967 C1964 1.387 . S
C1968 C1969 1.387 . S
C1968 H1972 0.950 . S
C1968 C1977 1.390 . S
C1969 C1968 1.387 . S
C1969 C1971 1.387 . S
H1970 C1977 0.950 . S
C1971 C1969 1.387 . S
C1971 C1973 1.390 . S
C1971 H1975 0.950 . S
H1972 C1968 0.950 . S
C1973 C1971 1.390 . S
C1973 C1974 1.387 . S
C1973 H1976 0.950 . S
C1974 C1973 1.387 . S
C1974 C1977 1.387 . S
H1975 C1971 0.950 . S
H1976 C1973 0.950 . S
C1977 C1968 1.390 . S
C1977 H1970 0.950 . S
C1977 C1974 1.387 . S
C1978 C1979 1.387 1_455 S
C1978 H1982 0.950 1_455 S
C1978 C1987 1.390 . S
C1979 C1978 1.387 1_655 S
C1979 C1981 1.387 1_655 S
H1980 C1987 0.950 . S
C1981 C1979 1.387 1_455 S
C1981 C1983 1.390 . S
C1981 H1985 0.950 1_455 S
H1982 C1978 0.950 1_655 S
C1983 C1981 1.390 . S
C1983 C1984 1.387 . S
C1983 H1986 0.950 . S
C1984 C1983 1.387 . S
C1984 C1987 1.387 . S
H1985 C1981 0.950 1_655 S
H1986 C1983 0.950 . S
C1987 C1978 1.390 . S
C1987 H1980 0.950 . S
C1987 C1984 1.387 . S
C1988 C1989 1.387 . S
C1988 H1992 0.950 . S
C1988 C1997 1.390 . S
C1989 C1988 1.387 . S
C1989 C1991 1.387 . S
H1990 C1997 0.950 . S
C1991 C1989 1.387 . S
C1991 C1993 1.390 . S
C1991 H1995 0.950 . S
H1992 C1988 0.950 . S
C1993 C1991 1.390 . S
C1993 C1994 1.387 . S
C1993 H1996 0.950 . S
C1994 C1993 1.387 . S
C1994 C1997 1.387 . S
H1995 C1991 0.950 . S
H1996 C1993 0.950 . S
C1997 C1988 1.390 . S
C1997 H1990 0.950 . S
C1997 C1994 1.387 . S
C1998 C1999 1.387 . S
C1998 H2002 0.950 . S
C1998 C2007 1.390 . S
C1999 C1998 1.387 . S
C1999 C2001 1.387 . S
H2000 C2007 0.950 . S
C2001 C1999 1.387 . S
C2001 C2003 1.390 . S
C2001 H2005 0.950 . S
H2002 C1998 0.950 . S
C2003 C2001 1.390 . S
C2003 C2004 1.387 . S
C2003 H2006 0.950 . S
C2004 C2003 1.387 . S
C2004 C2007 1.387 . S
H2005 C2001 0.950 . S
H2006 C2003 0.950 . S
C2007 C1998 1.390 . S
C2007 H2000 0.950 . S
C2007 C2004 1.387 . S
C2008 C2009 1.387 . S
C2008 H2012 0.950 . S
C2008 C2017 1.390 . S
C2009 C2008 1.387 . S
C2009 C2011 1.387 . S
H2010 C2017 0.950 . S
C2011 C2009 1.387 . S
C2011 C2013 1.390 . S
C2011 H2015 0.950 . S
H2012 C2008 0.950 . S
C2013 C2011 1.390 . S
C2013 C2014 1.387 . S
C2013 H2016 0.950 . S
C2014 C2013 1.387 . S
C2014 C2017 1.387 . S
H2015 C2011 0.950 . S
H2016 C2013 0.950 . S
C2017 C2008 1.390 . S
C2017 H2010 0.950 . S
C2017 C2014 1.387 . S
C2018 C2019 1.387 . S
C2018 H2022 0.950 . S
C2018 C2027 1.390 . S
C2019 C2018 1.387 . S
C2019 C2021 1.387 . S
H2020 C2027 0.950 . S
C2021 C2019 1.387 . S
C2021 C2023 1.390 . S
C2021 H2025 0.950 . S
H2022 C2018 0.950 . S
C2023 C2021 1.390 . S
C2023 C2024 1.387 . S
C2023 H2026 0.950 . S
C2024 C2023 1.387 . S
C2024 C2027 1.387 . S
H2025 C2021 0.950 . S
H2026 C2023 0.950 . S
C2027 C2018 1.390 . S
C2027 H2020 0.950 . S
C2027 C2024 1.387 . S
C2028 C2029 1.387 . S
C2028 H2032 0.950 . S
C2028 C2037 1.390 . S
C2029 C2028 1.387 . S
C2029 C2031 1.387 . S
H2030 C2037 0.950 . S
C2031 C2029 1.387 . S
C2031 C2033 1.390 . S
C2031 H2035 0.950 . S
H2032 C2028 0.950 . S
C2033 C2031 1.390 . S
C2033 C2034 1.387 . S
C2033 H2036 0.950 . S
C2034 C2033 1.387 . S
C2034 C2037 1.387 . S
H2035 C2031 0.950 . S
H2036 C2033 0.950 . S
C2037 C2028 1.390 . S
C2037 H2030 0.950 . S
C2037 C2034 1.387 . S
C2038 C2039 1.387 . S
C2038 H2042 0.950 . S
C2038 C2047 1.390 . S
C2039 C2038 1.387 . S
C2039 C2041 1.387 . S
H2040 C2047 0.950 1_655 S
C2041 C2039 1.387 . S
C2041 C2043 1.390 . S
C2041 H2045 0.950 . S
H2042 C2038 0.950 . S
C2043 C2041 1.390 . S
C2043 C2044 1.387 1_455 S
C2043 H2046 0.950 1_455 S
C2044 C2043 1.387 1_655 S
C2044 C2047 1.387 1_655 S
H2045 C2041 0.950 . S
H2046 C2043 0.950 1_655 S
C2047 C2038 1.390 . S
C2047 H2040 0.950 1_455 S
C2047 C2044 1.387 1_455 S
C2048 C2049 1.387 . S
C2048 H2052 0.950 . S
C2048 C2057 1.390 . S
C2049 C2048 1.387 . S
C2049 C2051 1.387 . S
H2050 C2057 0.950 . S
C2051 C2049 1.387 . S
C2051 C2053 1.390 . S
C2051 H2055 0.950 . S
H2052 C2048 0.950 . S
C2053 C2051 1.390 . S
C2053 C2054 1.387 . S
C2053 H2056 0.950 . S
C2054 C2053 1.387 . S
C2054 C2057 1.387 . S
H2055 C2051 0.950 . S
H2056 C2053 0.950 . S
C2057 C2048 1.390 . S
C2057 H2050 0.950 . S
C2057 C2054 1.387 . S
C2058 C2059 1.387 . S
C2058 H2062 0.950 . S
C2058 C2067 1.390 . S
C2059 C2058 1.387 . S
C2059 C2061 1.387 . S
H2060 C2067 0.950 . S
C2061 C2059 1.387 . S
C2061 C2063 1.390 . S
C2061 H2065 0.950 . S
H2062 C2058 0.950 . S
C2063 C2061 1.390 . S
C2063 C2064 1.387 . S
C2063 H2066 0.950 . S
C2064 C2063 1.387 . S
C2064 C2067 1.387 . S
H2065 C2061 0.950 . S
H2066 C2063 0.950 . S
C2067 C2058 1.390 . S
C2067 H2060 0.950 . S
C2067 C2064 1.387 . S
C2068 C2069 1.387 . S
C2068 H2072 0.950 . S
C2068 C2077 1.390 . S
C2069 C2068 1.387 . S
C2069 C2071 1.387 . S
H2070 C2077 0.950 . S
C2071 C2069 1.387 . S
C2071 C2073 1.390 . S
C2071 H2075 0.950 . S
H2072 C2068 0.950 . S
C2073 C2071 1.390 . S
C2073 C2074 1.387 . S
C2073 H2076 0.950 . S
C2074 C2073 1.387 . S
C2074 C2077 1.387 . S
H2075 C2071 0.950 . S
H2076 C2073 0.950 . S
C2077 C2068 1.390 . S
C2077 H2070 0.950 . S
C2077 C2074 1.387 . S
C2078 C2079 1.387 . S
C2078 H2082 0.950 . S
C2078 C2087 1.390 . S
C2079 C2078 1.387 . S
C2079 C2081 1.387 . S
H2080 C2087 0.950 1_554 S
C2081 C2079 1.387 . S
C2081 C2083 1.390 . S
C2081 H2085 0.950 . S
H2082 C2078 0.950 . S
C2083 C2081 1.390 . S
C2083 C2084 1.387 1_556 S
C2083 H2086 0.950 . S
C2084 C2083 1.387 1_554 S
C2084 C2087 1.387 1_554 S
H2085 C2081 0.950 . S
H2086 C2083 0.950 . S
C2087 C2078 1.390 . S
C2087 H2080 0.950 1_556 S
C2087 C2084 1.387 1_556 S
C2088 C2089 1.387 . S
C2088 H2092 0.950 . S
C2088 C2097 1.390 . S
C2089 C2088 1.387 . S
C2089 C2091 1.387 . S
H2090 C2097 0.950 . S
C2091 C2089 1.387 . S
C2091 C2093 1.390 . S
C2091 H2095 0.950 . S
H2092 C2088 0.950 . S
C2093 C2091 1.390 . S
C2093 C2094 1.387 . S
C2093 H2096 0.950 . S
C2094 C2093 1.387 . S
C2094 C2097 1.387 . S
H2095 C2091 0.950 . S
H2096 C2093 0.950 . S
C2097 C2088 1.390 . S
C2097 H2090 0.950 . S
C2097 C2094 1.387 . S
C2098 C2099 1.387 . S
C2098 H2102 0.950 . S
C2098 C2107 1.390 . S
C2099 C2098 1.387 . S
C2099 C2101 1.387 . S
H2100 C2107 0.950 . S
C2101 C2099 1.387 . S
C2101 C2103 1.390 . S
C2101 H2105 0.950 . S
H2102 C2098 0.950 . S
C2103 C2101 1.390 . S
C2103 C2104 1.387 . S
C2103 H2106 0.950 . S
C2104 C2103 1.387 . S
C2104 C2107 1.387 . S
H2105 C2101 0.950 . S
H2106 C2103 0.950 . S
C2107 C2098 1.390 . S
C2107 H2100 0.950 . S
C2107 C2104 1.387 . S
C2108 C2109 1.387 . S
C2108 H2112 0.950 . S
C2108 C2117 1.390 . S
C2109 C2108 1.387 . S
C2109 C2111 1.387 . S
H2110 C2117 0.950 . S
C2111 C2109 1.387 . S
C2111 C2113 1.390 . S
C2111 H2115 0.950 . S
H2112 C2108 0.950 . S
C2113 C2111 1.390 . S
C2113 C2114 1.387 . S
C2113 H2116 0.950 . S
C2114 C2113 1.387 . S
C2114 C2117 1.387 . S
H2115 C2111 0.950 . S
H2116 C2113 0.950 . S
C2117 C2108 1.390 . S
C2117 H2110 0.950 . S
C2117 C2114 1.387 . S
C2118 C2119 1.387 1_554 S
C2118 H2122 0.950 . S
C2118 C2127 1.390 . S
C2119 C2118 1.387 1_556 S
C2119 C2121 1.387 1_556 S
H2120 C2127 0.950 . S
C2121 C2119 1.387 1_554 S
C2121 C2123 1.390 . S
C2121 H2125 0.946 1_554 S
H2122 C2118 0.950 . S
C2123 C2121 1.390 . S
C2123 C2124 1.387 . S
C2123 H2126 0.950 . S
C2124 C2123 1.387 . S
C2124 C2127 1.387 . S
H2125 C2121 0.946 1_556 S
H2126 C2123 0.950 . S
C2127 C2118 1.390 . S
C2127 H2120 0.950 . S
C2127 C2124 1.387 . S
C2128 C2129 1.387 . S
C2128 H2132 0.950 . S
C2128 C2137 1.390 . S
C2129 C2128 1.387 . S
C2129 C2131 1.387 . S
H2130 C2137 0.950 . S
C2131 C2129 1.387 . S
C2131 C2133 1.390 . S
C2131 H2135 0.950 . S
H2132 C2128 0.950 . S
C2133 C2131 1.390 . S
C2133 C2134 1.387 . S
C2133 H2136 0.950 . S
C2134 C2133 1.387 . S
C2134 C2137 1.387 . S
H2135 C2131 0.950 . S
H2136 C2133 0.950 . S
C2137 C2128 1.390 . S
C2137 H2130 0.950 . S
C2137 C2134 1.387 . S
C2138 C2139 1.387 . S
C2138 H2142 0.950 . S
C2138 C2147 1.390 . S
C2139 C2138 1.387 . S
C2139 C2141 1.387 . S
H2140 C2147 0.950 . S
C2141 C2139 1.387 . S
C2141 C2143 1.390 . S
C2141 H2145 0.950 . S
H2142 C2138 0.950 . S
C2143 C2141 1.390 . S
C2143 C2144 1.387 . S
C2143 H2146 0.950 . S
C2144 C2143 1.387 . S
C2144 C2147 1.387 . S
H2145 C2141 0.950 . S
H2146 C2143 0.950 . S
C2147 C2138 1.390 . S
C2147 H2140 0.950 . S
C2147 C2144 1.387 . S
C2148 C2149 1.387 . S
C2148 H2152 0.950 . S
C2148 C2157 1.390 . S
C2149 C2148 1.387 . S
C2149 C2151 1.387 . S
H2150 C2157 0.950 . S
C2151 C2149 1.387 . S
C2151 C2153 1.390 . S
C2151 H2155 0.950 . S
H2152 C2148 0.950 . S
C2153 C2151 1.390 . S
C2153 C2154 1.387 . S
C2153 H2156 0.950 . S
C2154 C2153 1.387 . S
C2154 C2157 1.387 . S
H2155 C2151 0.950 . S
H2156 C2153 0.950 . S
C2157 C2148 1.390 . S
C2157 H2150 0.950 . S
C2157 C2154 1.387 . S
C2158 C2159 1.387 . S
C2158 H2162 0.950 . S
C2158 C2167 1.390 . S
C2159 C2158 1.387 . S
C2159 C2161 1.387 . S
H2160 C2167 0.950 . S
C2161 C2159 1.387 . S
C2161 C2163 1.390 . S
C2161 H2165 0.950 . S
H2162 C2158 0.950 . S
C2163 C2161 1.390 . S
C2163 C2164 1.387 . S
C2163 H2166 0.950 . S
C2164 C2163 1.387 . S
C2164 C2167 1.387 . S
H2165 C2161 0.950 . S
H2166 C2163 0.950 . S
C2167 C2158 1.390 . S
C2167 H2160 0.950 . S
C2167 C2164 1.387 . S
C2168 C2169 1.387 1_545 S
C2168 H2172 0.950 1_545 S
C2168 C2177 1.390 . S
C2169 C2168 1.387 1_565 S
C2169 C2171 1.387 1_565 S
H2170 C2177 0.950 . S
C2171 C2169 1.387 1_545 S
C2171 C2173 1.390 . S
C2171 H2175 0.950 1_545 S
H2172 C2168 0.950 1_565 S
C2173 C2171 1.390 . S
C2173 C2174 1.387 . S
C2173 H2176 0.950 . S
C2174 C2173 1.387 . S
C2174 C2177 1.387 . S
H2175 C2171 0.950 1_565 S
H2176 C2173 0.950 . S
C2177 C2168 1.390 . S
C2177 H2170 0.950 . S
C2177 C2174 1.387 . S
C2178 C2179 1.387 . S
C2178 H2182 0.950 . S
C2178 C2187 1.390 . S
C2179 C2178 1.387 . S
C2179 C2181 1.387 . S
H2180 C2187 0.950 . S
C2181 C2179 1.387 . S
C2181 C2183 1.390 . S
C2181 H2185 0.950 . S
H2182 C2178 0.950 . S
C2183 C2181 1.390 . S
C2183 C2184 1.387 . S
C2183 H2186 0.950 . S
C2184 C2183 1.387 . S
C2184 C2187 1.387 . S
H2185 C2181 0.950 . S
H2186 C2183 0.950 . S
C2187 C2178 1.390 . S
C2187 H2180 0.950 . S
C2187 C2184 1.387 . S
C2188 C2189 1.387 . S
C2188 H2192 0.950 . S
C2188 C2197 1.390 . S
C2189 C2188 1.387 . S
C2189 C2191 1.387 . S
H2190 C2197 0.950 . S
C2191 C2189 1.387 . S
C2191 C2193 1.390 . S
C2191 H2195 0.950 . S
H2192 C2188 0.950 . S
C2193 C2191 1.390 . S
C2193 C2194 1.387 . S
C2193 H2196 0.950 . S
C2194 C2193 1.387 . S
C2194 C2197 1.387 . S
H2195 C2191 0.950 . S
H2196 C2193 0.950 . S
C2197 C2188 1.390 . S
C2197 H2190 0.950 . S
C2197 C2194 1.387 . S
C2198 C2199 1.387 . S
C2198 H2202 0.950 . S
C2198 C2207 1.390 . S
C2199 C2198 1.387 . S
C2199 C2201 1.387 . S
H2200 C2207 0.950 . S
C2201 C2199 1.387 . S
C2201 C2203 1.390 . S
C2201 H2205 0.950 . S
H2202 C2198 0.950 . S
C2203 C2201 1.390 . S
C2203 C2204 1.387 . S
C2203 H2206 0.950 . S
C2204 C2203 1.387 . S
C2204 C2207 1.387 . S
H2205 C2201 0.950 . S
H2206 C2203 0.950 . S
C2207 C2198 1.390 . S
C2207 H2200 0.950 . S
C2207 C2204 1.387 . S
C2208 C2209 1.387 . S
C2208 H2212 0.950 . S
C2208 C2217 1.390 . S
C2209 C2208 1.387 . S
C2209 C2211 1.387 . S
H2210 C2217 0.950 . S
C2211 C2209 1.387 . S
C2211 C2213 1.390 . S
C2211 H2215 0.950 . S
H2212 C2208 0.950 . S
C2213 C2211 1.390 . S
C2213 C2214 1.387 . S
C2213 H2216 0.950 . S
C2214 C2213 1.387 . S
C2214 C2217 1.387 . S
H2215 C2211 0.950 . S
H2216 C2213 0.950 . S
C2217 C2208 1.390 . S
C2217 H2210 0.950 . S
C2217 C2214 1.387 . S
C2218 C2219 1.387 . S
C2218 H2222 0.950 . S
C2218 C2227 1.390 . S
C2219 C2218 1.387 . S
C2219 C2221 1.387 . S
H2220 C2227 0.950 . S
C2221 C2219 1.387 . S
C2221 C2223 1.390 . S
C2221 H2225 0.950 . S
H2222 C2218 0.950 . S
C2223 C2221 1.390 . S
C2223 C2224 1.387 . S
C2223 H2226 0.950 . S
C2224 C2223 1.387 . S
C2224 C2227 1.387 . S
H2225 C2221 0.950 . S
H2226 C2223 0.950 . S
C2227 C2218 1.390 . S
C2227 H2220 0.950 . S
C2227 C2224 1.387 . S
C2228 C2229 1.387 . S
C2228 H2232 0.950 . S
C2228 C2237 1.390 . S
C2229 C2228 1.387 . S
C2229 C2231 1.387 . S
H2230 C2237 0.950 . S
C2231 C2229 1.387 . S
C2231 C2233 1.390 . S
C2231 H2235 0.950 . S
H2232 C2228 0.950 . S
C2233 C2231 1.390 . S
C2233 C2234 1.387 . S
C2233 H2236 0.950 . S
C2234 C2233 1.387 . S
C2234 C2237 1.387 . S
H2235 C2231 0.950 . S
H2236 C2233 0.950 . S
C2237 C2228 1.390 . S
C2237 H2230 0.950 . S
C2237 C2234 1.387 . S
C2238 C2239 1.387 1_455 S
C2238 H2242 0.950 1_455 S
C2238 C2247 1.390 . S
C2239 C2238 1.387 1_655 S
C2239 C2241 1.387 1_655 S
H2240 C2247 0.950 . S
C2241 C2239 1.387 1_455 S
C2241 C2243 1.390 . S
C2241 H2245 0.950 . S
H2242 C2238 0.950 1_655 S
C2243 C2241 1.390 . S
C2243 C2244 1.387 . S
C2243 H2246 0.950 . S
C2244 C2243 1.387 . S
C2244 C2247 1.387 . S
H2245 C2241 0.950 . S
H2246 C2243 0.950 . S
C2247 C2238 1.390 . S
C2247 H2240 0.950 . S
C2247 C2244 1.387 . S
C2248 C2249 1.387 . S
C2248 H2252 0.950 . S
C2248 C2257 1.390 . S
C2249 C2248 1.387 . S
C2249 C2251 1.387 . S
H2250 C2257 0.950 . S
C2251 C2249 1.387 . S
C2251 C2253 1.390 . S
C2251 H2255 0.950 . S
H2252 C2248 0.950 . S
C2253 C2251 1.390 . S
C2253 C2254 1.387 . S
C2253 H2256 0.950 . S
C2254 C2253 1.387 . S
C2254 C2257 1.387 . S
H2255 C2251 0.950 . S
H2256 C2253 0.950 . S
C2257 C2248 1.390 . S
C2257 H2250 0.950 . S
C2257 C2254 1.387 . S
C2258 C2259 1.387 . S
C2258 H2262 0.950 . S
C2258 C2267 1.390 . S
C2259 C2258 1.387 . S
C2259 C2261 1.387 . S
H2260 C2267 0.950 1_655 S
C2261 C2259 1.387 . S
C2261 C2263 1.390 . S
C2261 H2265 0.950 . S
H2262 C2258 0.950 . S
C2263 C2261 1.390 . S
C2263 C2264 1.387 1_455 S
C2263 H2266 0.950 1_455 S
C2264 C2263 1.387 1_655 S
C2264 C2267 1.387 1_655 S
H2265 C2261 0.950 . S
H2266 C2263 0.950 1_655 S
C2267 C2258 1.390 . S
C2267 H2260 0.950 1_455 S
C2267 C2264 1.387 1_455 S
C2268 C2269 1.387 . S
C2268 H2272 0.950 . S
C2268 C2277 1.390 . S
C2269 C2268 1.387 . S
C2269 C2271 1.387 . S
H2270 C2277 0.950 . S
C2271 C2269 1.387 . S
C2271 C2273 1.390 . S
C2271 H2275 0.950 . S
H2272 C2268 0.950 . S
C2273 C2271 1.390 . S
C2273 C2274 1.387 . S
C2273 H2276 0.950 . S
C2274 C2273 1.387 . S
C2274 C2277 1.387 . S
H2275 C2271 0.950 . S
H2276 C2273 0.950 . S
C2277 C2268 1.390 . S
C2277 H2270 0.950 . S
C2277 C2274 1.387 . S
C2278 C2279 1.387 . S
C2278 H2282 0.950 . S
C2278 C2287 1.390 . S
C2279 C2278 1.387 . S
C2279 C2281 1.387 . S
H2280 C2287 0.950 . S
C2281 C2279 1.387 . S
C2281 C2283 1.390 . S
C2281 H2285 0.950 . S
H2282 C2278 0.950 . S
C2283 C2281 1.390 . S
C2283 C2284 1.387 . S
C2283 H2286 0.950 . S
C2284 C2283 1.387 . S
C2284 C2287 1.387 . S
H2285 C2281 0.950 . S
H2286 C2283 0.950 . S
C2287 C2278 1.390 . S
C2287 H2280 0.950 . S
C2287 C2284 1.387 . S
C2288 C2289 1.387 . S
C2288 H2292 0.950 . S
C2288 C2297 1.390 . S
C2289 C2288 1.387 . S
C2289 C2291 1.387 . S
H2290 C2297 0.950 . S
C2291 C2289 1.387 . S
C2291 C2293 1.390 . S
C2291 H2295 0.950 . S
H2292 C2288 0.950 . S
C2293 C2291 1.390 . S
C2293 C2294 1.387 . S
C2293 H2296 0.950 . S
C2294 C2293 1.387 . S
C2294 C2297 1.387 . S
H2295 C2291 0.950 . S
H2296 C2293 0.950 . S
C2297 C2288 1.390 . S
C2297 H2290 0.950 . S
C2297 C2294 1.387 . S
C2298 C2299 1.387 . S
C2298 H2302 0.950 . S
C2298 C2307 1.390 1_554 S
C2299 C2298 1.387 . S
C2299 C2301 1.387 . S
H2300 C2307 0.950 . S
C2301 C2299 1.387 . S
C2301 C2303 1.390 . S
C2301 H2305 0.950 . S
H2302 C2298 0.950 . S
C2303 C2301 1.390 . S
C2303 C2304 1.387 1_554 S
C2303 H2306 0.950 1_554 S
C2304 C2303 1.387 1_556 S
C2304 C2307 1.387 . S
H2305 C2301 0.950 . S
H2306 C2303 0.950 1_556 S
C2307 C2298 1.390 1_556 S
C2307 H2300 0.950 . S
C2307 C2304 1.387 . S
C2308 C2309 1.387 . S
C2308 H2312 0.950 . S
C2308 C2317 1.390 . S
C2309 C2308 1.387 . S
C2309 C2311 1.387 . S
H2310 C2317 0.950 . S
C2311 C2309 1.387 . S
C2311 C2313 1.390 . S
C2311 H2315 0.950 . S
H2312 C2308 0.950 . S
C2313 C2311 1.390 . S
C2313 C2314 1.387 . S
C2313 H2316 0.950 . S
C2314 C2313 1.387 . S
C2314 C2317 1.387 . S
H2315 C2311 0.950 . S
H2316 C2313 0.950 . S
C2317 C2308 1.390 . S
C2317 H2310 0.950 . S
C2317 C2314 1.387 . S
C2318 C2319 1.387 . S
C2318 H2322 0.950 . S
C2318 C2327 1.390 . S
C2319 C2318 1.387 . S
C2319 C2321 1.387 . S
H2320 C2327 0.950 . S
C2321 C2319 1.387 . S
C2321 C2323 1.390 . S
C2321 H2325 0.950 . S
H2322 C2318 0.950 . S
C2323 C2321 1.390 . S
C2323 C2324 1.387 . S
C2323 H2326 0.950 . S
C2324 C2323 1.387 . S
C2324 C2327 1.387 . S
H2325 C2321 0.950 . S
H2326 C2323 0.950 . S
C2327 C2318 1.390 . S
C2327 H2320 0.950 . S
C2327 C2324 1.387 . S
C2328 C2329 1.387 . S
C2328 H2332 0.950 . S
C2328 C2337 1.390 . S
C2329 C2328 1.387 . S
C2329 C2331 1.387 . S
H2330 C2337 0.950 . S
C2331 C2329 1.387 . S
C2331 C2333 1.390 . S
C2331 H2335 0.950 . S
H2332 C2328 0.950 . S
C2333 C2331 1.390 . S
C2333 C2334 1.387 . S
C2333 H2336 0.950 . S
C2334 C2333 1.387 . S
C2334 C2337 1.387 . S
H2335 C2331 0.950 . S
H2336 C2333 0.950 . S
C2337 C2328 1.390 . S
C2337 H2330 0.950 . S
C2337 C2334 1.387 . S
C2338 C2339 1.387 . S
C2338 H2342 0.950 . S
C2338 C2347 1.390 . S
C2339 C2338 1.387 . S
C2339 C2341 1.387 . S
H2340 C2347 0.950 1_554 S
C2341 C2339 1.387 . S
C2341 C2343 1.390 1_556 S
C2341 H2345 0.950 . S
H2342 C2338 0.950 . S
C2343 C2341 1.390 1_554 S
C2343 C2344 1.387 . S
C2343 H2346 0.950 . S
C2344 C2343 1.387 . S
C2344 C2347 1.387 1_554 S
H2345 C2341 0.950 . S
H2346 C2343 0.950 . S
C2347 C2338 1.390 . S
C2347 H2340 0.950 1_556 S
C2347 C2344 1.387 1_556 S
C2348 C2349 1.387 . S
C2348 H2352 0.950 . S
C2348 C2357 1.390 . S
C2349 C2348 1.387 . S
C2349 C2351 1.387 . S
H2350 C2357 0.950 . S
C2351 C2349 1.387 . S
C2351 C2353 1.390 . S
C2351 H2355 0.950 . S
H2352 C2348 0.950 . S
C2353 C2351 1.390 . S
C2353 C2354 1.387 . S
C2353 H2356 0.950 . S
C2354 C2353 1.387 . S
C2354 C2357 1.387 . S
H2355 C2351 0.950 . S
H2356 C2353 0.950 . S
C2357 C2348 1.390 . S
C2357 H2350 0.950 . S
C2357 C2354 1.387 . S
C2358 C2359 1.387 . S
C2358 H2362 0.950 . S
C2358 C2367 1.390 . S
C2359 C2358 1.387 . S
C2359 C2361 1.387 . S
H2360 C2367 0.950 . S
C2361 C2359 1.387 . S
C2361 C2363 1.390 . S
C2361 H2365 0.950 . S
H2362 C2358 0.950 . S
C2363 C2361 1.390 . S
C2363 C2364 1.387 . S
C2363 H2366 0.950 . S
C2364 C2363 1.387 . S
C2364 C2367 1.387 . S
H2365 C2361 0.950 . S
H2366 C2363 0.950 . S
C2367 C2358 1.390 . S
C2367 H2360 0.950 . S
C2367 C2364 1.387 . S
C2368 C2369 1.387 . S
C2368 H2372 0.950 . S
C2368 C2377 1.390 . S
C2369 C2368 1.387 . S
C2369 C2371 1.387 . S
H2370 C2377 0.950 . S
C2371 C2369 1.387 . S
C2371 C2373 1.390 . S
C2371 H2375 0.950 . S
H2372 C2368 0.950 . S
C2373 C2371 1.390 . S
C2373 C2374 1.387 . S
C2373 H2376 0.950 . S
C2374 C2373 1.387 . S
C2374 C2377 1.387 . S
H2375 C2371 0.950 . S
H2376 C2373 0.950 . S
C2377 C2368 1.390 . S
C2377 H2370 0.950 . S
C2377 C2374 1.387 . S
C2378 C2379 1.387 . S
C2378 H2382 0.950 . S
C2378 C2387 1.390 . S
C2379 C2378 1.387 . S
C2379 C2381 1.387 . S
H2380 C2387 0.950 . S
C2381 C2379 1.387 . S
C2381 C2383 1.390 . S
C2381 H2385 0.950 . S
H2382 C2378 0.950 . S
C2383 C2381 1.390 . S
C2383 C2384 1.387 . S
C2383 H2386 0.950 . S
C2384 C2383 1.387 . S
C2384 C2387 1.387 . S
H2385 C2381 0.950 . S
H2386 C2383 0.950 . S
C2387 C2378 1.390 . S
C2387 H2380 0.950 . S
C2387 C2384 1.387 . S
C2388 C2389 1.387 . S
C2388 H2392 0.950 . S
C2388 C2397 1.390 . S
C2389 C2388 1.387 . S
C2389 C2391 1.387 . S
H2390 C2397 0.950 1_565 S
C2391 C2389 1.387 . S
C2391 C2393 1.390 1_545 S
C2391 H2395 0.950 . S
H2392 C2388 0.950 . S
C2393 C2391 1.390 1_565 S
C2393 C2394 1.387 . S
C2393 H2396 0.950 . S
C2394 C2393 1.387 . S
C2394 C2397 1.387 1_565 S
H2395 C2391 0.950 . S
H2396 C2393 0.950 . S
C2397 C2388 1.390 . S
C2397 H2390 0.950 1_545 S
C2397 C2394 1.387 1_545 S
C2398 C2399 1.387 . S
C2398 H2402 0.950 . S
C2398 C2407 1.390 . S
C2399 C2398 1.387 . S
C2399 C2401 1.387 . S
H2400 C2407 0.950 . S
C2401 C2399 1.387 . S
C2401 C2403 1.390 . S
C2401 H2405 0.950 . S
H2402 C2398 0.950 . S
C2403 C2401 1.390 . S
C2403 C2404 1.387 . S
C2403 H2406 0.950 . S
C2404 C2403 1.387 . S
C2404 C2407 1.387 . S
H2405 C2401 0.950 . S
H2406 C2403 0.950 . S
C2407 C2398 1.390 . S
C2407 H2400 0.950 . S
C2407 C2404 1.387 . S
C2408 C2409 1.387 . S
C2408 H2412 0.950 . S
C2408 C2417 1.390 . S
C2409 C2408 1.387 . S
C2409 C2411 1.387 . S
H2410 C2417 0.950 . S
C2411 C2409 1.387 . S
C2411 C2413 1.390 . S
C2411 H2415 0.950 . S
H2412 C2408 0.950 . S
C2413 C2411 1.390 . S
C2413 C2414 1.387 . S
C2413 H2416 0.950 . S
C2414 C2413 1.387 . S
C2414 C2417 1.387 . S
H2415 C2411 0.950 . S
H2416 C2413 0.950 . S
C2417 C2408 1.390 . S
C2417 H2410 0.950 . S
C2417 C2414 1.387 . S
C2418 C2419 1.387 . S
C2418 H2422 0.950 . S
C2418 C2427 1.390 . S
C2419 C2418 1.387 . S
C2419 C2421 1.387 . S
H2420 C2427 0.950 . S
C2421 C2419 1.387 . S
C2421 C2423 1.390 . S
C2421 H2425 0.950 . S
H2422 C2418 0.950 . S
C2423 C2421 1.390 . S
C2423 C2424 1.387 . S
C2423 H2426 0.950 . S
C2424 C2423 1.387 . S
C2424 C2427 1.387 . S
H2425 C2421 0.950 . S
H2426 C2423 0.950 . S
C2427 C2418 1.390 . S
C2427 H2420 0.950 . S
C2427 C2424 1.387 . S
C2428 C2429 1.387 . S
C2428 H2432 0.950 . S
C2428 C2437 1.390 1_545 S
C2429 C2428 1.387 . S
C2429 C2431 1.387 1_545 S
H2430 C2437 0.950 . S
C2431 C2429 1.387 1_565 S
C2431 C2433 1.390 . S
C2431 H2435 0.950 1_565 S
H2432 C2428 0.950 . S
C2433 C2431 1.390 . S
C2433 C2434 1.387 . S
C2433 H2436 0.950 . S
C2434 C2433 1.387 . S
C2434 C2437 1.387 . S
H2435 C2431 0.950 1_545 S
H2436 C2433 0.950 . S
C2437 C2428 1.390 1_565 S
C2437 H2430 0.950 . S
C2437 C2434 1.387 . S
C2438 C2439 1.387 . S
C2438 H2442 0.950 . S
C2438 C2447 1.390 . S
C2439 C2438 1.387 . S
C2439 C2441 1.387 . S
H2440 C2447 0.950 1_565 S
C2441 C2439 1.387 . S
C2441 C2443 1.390 1_545 S
C2441 H2445 0.950 . S
H2442 C2438 0.950 . S
C2443 C2441 1.390 1_565 S
C2443 C2444 1.387 . S
C2443 H2446 0.950 . S
C2444 C2443 1.387 . S
C2444 C2447 1.387 1_565 S
H2445 C2441 0.950 . S
H2446 C2443 0.950 . S
C2447 C2438 1.390 . S
C2447 H2440 0.950 1_545 S
C2447 C2444 1.387 1_545 S
C2448 C2449 1.387 . S
C2448 H2452 0.950 . S
C2448 C2457 1.390 . S
C2449 C2448 1.387 . S
C2449 C2451 1.387 . S
H2450 C2457 0.950 . S
C2451 C2449 1.387 . S
C2451 C2453 1.390 . S
C2451 H2455 0.950 . S
H2452 C2448 0.950 . S
C2453 C2451 1.390 . S
C2453 C2454 1.387 . S
C2453 H2456 0.950 . S
C2454 C2453 1.387 . S
C2454 C2457 1.387 . S
H2455 C2451 0.950 . S
H2456 C2453 0.950 . S
C2457 C2448 1.390 . S
C2457 H2450 0.950 . S
C2457 C2454 1.387 . S
C2458 C2459 1.387 . S
C2458 H2462 0.950 . S
C2458 C2467 1.390 . S
C2459 C2458 1.387 . S
C2459 C2461 1.387 . S
H2460 C2467 0.950 . S
C2461 C2459 1.387 . S
C2461 C2463 1.390 . S
C2461 H2465 0.950 . S
H2462 C2458 0.950 . S
C2463 C2461 1.390 . S
C2463 C2464 1.387 . S
C2463 H2466 0.950 . S
C2464 C2463 1.387 . S
C2464 C2467 1.387 . S
H2465 C2461 0.950 . S
H2466 C2463 0.950 . S
C2467 C2458 1.390 . S
C2467 H2460 0.950 . S
C2467 C2464 1.387 . S
C2468 C2469 1.387 . S
C2468 H2472 0.950 . S
C2468 C2477 1.390 . S
C2469 C2468 1.387 . S
C2469 C2471 1.387 . S
H2470 C2477 0.950 . S
C2471 C2469 1.387 . S
C2471 C2473 1.390 . S
C2471 H2475 0.950 . S
H2472 C2468 0.950 . S
C2473 C2471 1.390 . S
C2473 C2474 1.387 . S
C2473 H2476 0.950 . S
C2474 C2473 1.387 . S
C2474 C2477 1.387 . S
H2475 C2471 0.950 . S
H2476 C2473 0.950 . S
C2477 C2468 1.390 . S
C2477 H2470 0.950 . S
C2477 C2474 1.387 . S
C2478 C2479 1.387 1_655 S
C2478 H2482 0.950 1_655 S
C2478 C2487 1.390 . S
C2479 C2478 1.387 1_455 S
C2479 C2481 1.387 1_455 S
H2480 C2487 0.950 . S
C2481 C2479 1.387 1_655 S
C2481 C2483 1.390 . S
C2481 H2485 0.950 1_655 S
H2482 C2478 0.950 1_455 S
C2483 C2481 1.390 . S
C2483 C2484 1.387 . S
C2483 H2486 0.950 . S
C2484 C2483 1.387 . S
C2484 C2487 1.387 . S
H2485 C2481 0.950 1_455 S
H2486 C2483 0.950 . S
C2487 C2478 1.390 . S
C2487 H2480 0.950 . S
C2487 C2484 1.387 . S
C2488 C2489 1.387 . S
C2488 H2492 0.950 . S
C2488 C2497 1.390 . S
C2489 C2488 1.387 . S
C2489 C2491 1.387 . S
H2490 C2497 0.950 . S
C2491 C2489 1.387 . S
C2491 C2493 1.390 . S
C2491 H2495 0.950 . S
H2492 C2488 0.950 . S
C2493 C2491 1.390 . S
C2493 C2494 1.387 . S
C2493 H2496 0.950 . S
C2494 C2493 1.387 . S
C2494 C2497 1.387 . S
H2495 C2491 0.950 . S
H2496 C2493 0.950 . S
C2497 C2488 1.390 . S
C2497 H2490 0.950 . S
C2497 C2494 1.387 . S
C2498 C2499 1.387 1_655 S
C2498 H2502 0.950 1_655 S
C2498 C2507 1.390 . S
C2499 C2498 1.387 1_455 S
C2499 C2501 1.387 1_455 S
H2500 C2507 0.950 . S
C2501 C2499 1.387 1_655 S
C2501 C2503 1.390 . S
C2501 H2505 0.950 1_655 S
H2502 C2498 0.950 1_455 S
C2503 C2501 1.390 . S
C2503 C2504 1.387 . S
C2503 H2506 0.950 . S
C2504 C2503 1.387 . S
C2504 C2507 1.387 . S
H2505 C2501 0.950 1_455 S
H2506 C2503 0.950 . S
C2507 C2498 1.390 . S
C2507 H2500 0.950 . S
C2507 C2504 1.387 . S
C2508 C2509 1.387 . S
C2508 H2512 0.950 . S
C2508 C2517 1.390 . S
C2509 C2508 1.387 . S
C2509 C2511 1.387 . S
H2510 C2517 0.950 . S
C2511 C2509 1.387 . S
C2511 C2513 1.390 . S
C2511 H2515 0.950 . S
H2512 C2508 0.950 . S
C2513 C2511 1.390 . S
C2513 C2514 1.387 . S
C2513 H2516 0.950 . S
C2514 C2513 1.387 . S
C2514 C2517 1.387 . S
H2515 C2511 0.950 . S
H2516 C2513 0.950 . S
C2517 C2508 1.390 . S
C2517 H2510 0.950 . S
C2517 C2514 1.387 . S
C2518 C2519 1.387 . S
C2518 H2522 0.950 . S
C2518 C2527 1.390 . S
C2519 C2518 1.387 . S
C2519 C2521 1.387 . S
H2520 C2527 0.950 . S
C2521 C2519 1.387 . S
C2521 C2523 1.390 . S
C2521 H2525 0.950 . S
H2522 C2518 0.950 . S
C2523 C2521 1.390 . S
C2523 C2524 1.387 . S
C2523 H2526 0.950 . S
C2524 C2523 1.387 . S
C2524 C2527 1.387 . S
H2525 C2521 0.950 . S
H2526 C2523 0.950 . S
C2527 C2518 1.390 . S
C2527 H2520 0.950 . S
C2527 C2524 1.387 . S
C2528 C2529 1.387 . S
C2528 H2532 0.950 . S
C2528 C2537 1.390 . S
C2529 C2528 1.387 . S
C2529 C2531 1.387 . S
H2530 C2537 0.950 . S
C2531 C2529 1.387 . S
C2531 C2533 1.390 . S
C2531 H2535 0.950 . S
H2532 C2528 0.950 . S
C2533 C2531 1.390 . S
C2533 C2534 1.387 . S
C2533 H2536 0.950 . S
C2534 C2533 1.387 . S
C2534 C2537 1.387 . S
H2535 C2531 0.950 . S
H2536 C2533 0.950 . S
C2537 C2528 1.390 . S
C2537 H2530 0.950 . S
C2537 C2534 1.387 . S
C2538 C2539 1.387 . S
C2538 H2542 0.950 . S
C2538 C2547 1.390 . S
C2539 C2538 1.387 . S
C2539 C2541 1.387 . S
H2540 C2547 0.950 . S
C2541 C2539 1.387 . S
C2541 C2543 1.390 . S
C2541 H2545 0.950 . S
H2542 C2538 0.950 . S
C2543 C2541 1.390 . S
C2543 C2544 1.387 1_556 S
C2543 H2546 0.950 1_556 S
C2544 C2543 1.387 1_554 S
C2544 C2547 1.387 1_554 S
H2545 C2541 0.950 . S
H2546 C2543 0.950 1_554 S
C2547 C2538 1.390 . S
C2547 H2540 0.950 . S
C2547 C2544 1.387 1_556 S
C2548 C2549 1.387 . S
C2548 H2552 0.950 . S
C2548 C2557 1.390 . S
C2549 C2548 1.387 . S
C2549 C2551 1.387 . S
H2550 C2557 0.950 . S
C2551 C2549 1.387 . S
C2551 C2553 1.390 . S
C2551 H2555 0.950 . S
H2552 C2548 0.950 . S
C2553 C2551 1.390 . S
C2553 C2554 1.387 . S
C2553 H2556 0.950 . S
C2554 C2553 1.387 . S
C2554 C2557 1.387 . S
H2555 C2551 0.950 . S
H2556 C2553 0.950 . S
C2557 C2548 1.390 . S
C2557 H2550 0.950 . S
C2557 C2554 1.387 . S
C2558 C2559 1.387 . S
C2558 H2562 0.950 . S
C2558 C2567 1.390 . S
C2559 C2558 1.387 . S
C2559 C2561 1.387 . S
H2560 C2567 0.950 . S
C2561 C2559 1.387 . S
C2561 C2563 1.390 . S
C2561 H2565 0.950 . S
H2562 C2558 0.950 . S
C2563 C2561 1.390 . S
C2563 C2564 1.387 . S
C2563 H2566 0.950 . S
C2564 C2563 1.387 . S
C2564 C2567 1.387 . S
H2565 C2561 0.950 . S
H2566 C2563 0.950 . S
C2567 C2558 1.390 . S
C2567 H2560 0.950 . S
C2567 C2564 1.387 . S
C2568 C2569 1.387 . S
C2568 H2572 0.950 . S
C2568 C2577 1.390 . S
C2569 C2568 1.387 . S
C2569 C2571 1.387 . S
H2570 C2577 0.950 . S
C2571 C2569 1.387 . S
C2571 C2573 1.390 . S
C2571 H2575 0.950 . S
H2572 C2568 0.950 . S
C2573 C2571 1.390 . S
C2573 C2574 1.387 . S
C2573 H2576 0.950 . S
C2574 C2573 1.387 . S
C2574 C2577 1.387 . S
H2575 C2571 0.950 . S
H2576 C2573 0.950 . S
C2577 C2568 1.390 . S
C2577 H2570 0.950 . S
C2577 C2574 1.387 . S
C2578 C2579 1.387 . S
C2578 H2582 0.950 . S
C2578 C2587 1.390 . S
C2579 C2578 1.387 . S
C2579 C2581 1.387 . S
H2580 C2587 0.950 . S
C2581 C2579 1.387 . S
C2581 C2583 1.390 . S
C2581 H2585 0.950 . S
H2582 C2578 0.950 . S
C2583 C2581 1.390 . S
C2583 C2584 1.387 1_554 S
C2583 H2586 0.950 . S
C2584 C2583 1.387 1_556 S
C2584 C2587 1.387 1_556 S
H2585 C2581 0.950 . S
H2586 C2583 0.950 . S
C2587 C2578 1.390 . S
C2587 H2580 0.950 . S
C2587 C2584 1.387 1_554 S
C2588 C2589 1.387 . S
C2588 H2592 0.950 . S
C2588 C2597 1.390 . S
C2589 C2588 1.387 . S
C2589 C2591 1.387 . S
H2590 C2597 0.950 . S
C2591 C2589 1.387 . S
C2591 C2593 1.390 . S
C2591 H2595 0.950 . S
H2592 C2588 0.950 . S
C2593 C2591 1.390 . S
C2593 C2594 1.387 . S
C2593 H2596 0.950 . S
C2594 C2593 1.387 . S
C2594 C2597 1.387 . S
H2595 C2591 0.950 . S
H2596 C2593 0.950 . S
C2597 C2588 1.390 . S
C2597 H2590 0.950 . S
C2597 C2594 1.387 . S
C2598 C2599 1.387 . S
C2598 H2602 0.950 . S
C2598 C2607 1.390 . S
C2599 C2598 1.387 . S
C2599 C2601 1.387 . S
H2600 C2607 0.950 . S
C2601 C2599 1.387 . S
C2601 C2603 1.390 . S
C2601 H2605 0.950 . S
H2602 C2598 0.950 . S
C2603 C2601 1.390 . S
C2603 C2604 1.387 . S
C2603 H2606 0.950 . S
C2604 C2603 1.387 . S
C2604 C2607 1.387 . S
H2605 C2601 0.950 . S
H2606 C2603 0.950 . S
C2607 C2598 1.390 . S
C2607 H2600 0.950 . S
C2607 C2604 1.387 . S
C2608 C2609 1.387 . S
C2608 H2612 0.950 . S
C2608 C2617 1.390 . S
C2609 C2608 1.387 . S
C2609 C2611 1.387 . S
H2610 C2617 0.950 . S
C2611 C2609 1.387 . S
C2611 C2613 1.390 . S
C2611 H2615 0.950 . S
H2612 C2608 0.950 . S
C2613 C2611 1.390 . S
C2613 C2614 1.387 . S
C2613 H2616 0.950 . S
C2614 C2613 1.387 . S
C2614 C2617 1.387 . S
H2615 C2611 0.950 . S
H2616 C2613 0.950 . S
C2617 C2608 1.390 . S
C2617 H2610 0.950 . S
C2617 C2614 1.387 . S
C2618 C2619 1.387 . S
C2618 H2622 0.950 . S
C2618 C2627 1.390 . S
C2619 C2618 1.387 . S
C2619 C2621 1.387 . S
H2620 C2627 0.950 . S
C2621 C2619 1.387 . S
C2621 C2623 1.390 . S
C2621 H2625 0.950 . S
H2622 C2618 0.950 . S
C2623 C2621 1.390 . S
C2623 C2624 1.387 . S
C2623 H2626 0.950 . S
C2624 C2623 1.387 . S
C2624 C2627 1.387 . S
H2625 C2621 0.950 . S
H2626 C2623 0.950 . S
C2627 C2618 1.390 . S
C2627 H2620 0.950 . S
C2627 C2624 1.387 . S
C2628 C2629 1.387 . S
C2628 H2632 0.950 . S
C2628 C2637 1.390 . S
C2629 C2628 1.387 . S
C2629 C2631 1.387 . S
H2630 C2637 0.950 1_545 S
C2631 C2629 1.387 . S
C2631 C2633 1.390 . S
C2631 H2635 0.950 . S
H2632 C2628 0.950 . S
C2633 C2631 1.390 . S
C2633 C2634 1.387 1_565 S
C2633 H2636 0.950 1_565 S
C2634 C2633 1.387 1_545 S
C2634 C2637 1.387 1_545 S
H2635 C2631 0.950 . S
H2636 C2633 0.950 1_545 S
C2637 C2628 1.390 . S
C2637 H2630 0.950 1_565 S
C2637 C2634 1.387 1_565 S
C2638 C2639 1.387 . S
C2638 H2642 0.950 . S
C2638 C2647 1.390 . S
C2639 C2638 1.387 . S
C2639 C2641 1.387 . S
H2640 C2647 0.950 . S
C2641 C2639 1.387 . S
C2641 C2643 1.390 . S
C2641 H2645 0.950 . S
H2642 C2638 0.950 . S
C2643 C2641 1.390 . S
C2643 C2644 1.387 . S
C2643 H2646 0.950 . S
C2644 C2643 1.387 . S
C2644 C2647 1.387 . S
H2645 C2641 0.950 . S
H2646 C2643 0.950 . S
C2647 C2638 1.390 . S
C2647 H2640 0.950 . S
C2647 C2644 1.387 . S
C2648 C2649 1.387 . S
C2648 H2652 0.950 . S
C2648 C2657 1.390 . S
C2649 C2648 1.387 . S
C2649 C2651 1.387 . S
H2650 C2657 0.950 . S
C2651 C2649 1.387 . S
C2651 C2653 1.390 . S
C2651 H2655 0.950 . S
H2652 C2648 0.950 . S
C2653 C2651 1.390 . S
C2653 C2654 1.387 . S
C2653 H2656 0.950 . S
C2654 C2653 1.387 . S
C2654 C2657 1.387 . S
H2655 C2651 0.950 . S
H2656 C2653 0.950 . S
C2657 C2648 1.390 . S
C2657 H2650 0.950 . S
C2657 C2654 1.387 . S
C2658 C2659 1.387 . S
C2658 H2662 0.950 . S
C2658 C2667 1.390 . S
C2659 C2658 1.387 . S
C2659 C2661 1.387 . S
H2660 C2667 0.950 . S
C2661 C2659 1.387 . S
C2661 C2663 1.390 . S
C2661 H2665 0.950 . S
H2662 C2658 0.950 . S
C2663 C2661 1.390 . S
C2663 C2664 1.387 . S
C2663 H2666 0.950 . S
C2664 C2663 1.387 . S
C2664 C2667 1.387 . S
H2665 C2661 0.950 . S
H2666 C2663 0.950 . S
C2667 C2658 1.390 . S
C2667 H2660 0.950 . S
C2667 C2664 1.387 . S
C2668 C2669 1.387 1_545 S
C2668 H2672 0.950 1_545 S
C2668 C2677 1.390 . S
C2669 C2668 1.387 1_565 S
C2669 C2671 1.387 1_565 S
H2670 C2677 0.950 . S
C2671 C2669 1.387 1_545 S
C2671 C2673 1.390 . S
C2671 H2675 0.950 . S
H2672 C2668 0.950 1_565 S
C2673 C2671 1.390 . S
C2673 C2674 1.387 . S
C2673 H2676 0.950 . S
C2674 C2673 1.387 . S
C2674 C2677 1.387 . S
H2675 C2671 0.950 . S
H2676 C2673 0.950 . S
C2677 C2668 1.390 . S
C2677 H2670 0.950 . S
C2677 C2674 1.387 . S
C2678 C2679 1.387 . S
C2678 H2682 0.950 . S
C2678 C2687 1.390 . S
C2679 C2678 1.387 . S
C2679 C2681 1.387 . S
H2680 C2687 0.950 1_545 S
C2681 C2679 1.387 . S
C2681 C2683 1.390 . S
C2681 H2685 0.950 . S
H2682 C2678 0.950 . S
C2683 C2681 1.390 . S
C2683 C2684 1.387 1_565 S
C2683 H2686 0.950 1_565 S
C2684 C2683 1.387 1_545 S
C2684 C2687 1.387 1_545 S
H2685 C2681 0.950 . S
H2686 C2683 0.950 1_545 S
C2687 C2678 1.390 . S
C2687 H2680 0.950 1_565 S
C2687 C2684 1.387 1_565 S
C1729 C1515 1.404 . S
C1734 C3 1.402 . S
C1739 C40 1.366 . S
C1744 C542 1.327 . S
C1749 C75 1.406 . S
C1754 C1443 1.408 . S
C1759 C112 1.367 . S
C1764 C614 1.328 . S
C1769 C1587 1.407 . S
C1774 C148 1.417 . S
C1779 C183 1.349 . S
C1784 C770 1.318 . S
C1789 C220 1.415 . S
C1794 C1659 1.404 . S
C1799 C255 1.345 . S
C1804 C698 1.316 . S
C1809 C111 1.392 . S
C1814 C1696 1.362 . S
C1819 C4 1.415 . S
C1824 C903 1.405 . S
C1829 C940 1.358 . S
C1834 C39 1.388 . S
C1839 C76 1.409 . S
C1844 C867 1.400 . S
C1849 C184 1.385 . S
C1854 C868 1.346 . S
C1859 C219 1.404 . S
C1864 C1695 1.406 . S
C1869 C256 1.391 . S
C1874 C904 1.351 . S
C1879 C147 1.408 . S
C1884 C939 1.409 . S
C1889 C1418 1.301 . S
C1894 C291 1.333 . S
C1899 C327 1.374 . S
C1904 C686 1.340 . S
C1909 C292 1.390 . S
C1914 C1588 1.348 . S
C1919 C758 1.330 . S
C1924 C363 1.364 . S
C1929 C796 1.353 . S
C1934 C399 1.384 . S
C1939 C1490 1.299 . S
C1944 C436 1.339 . S
C1949 C1516 1.353 . S
C1954 C472 1.393 . S
C1959 C1444 1.345 . S
C1964 C508 1.384 . S
C1969 C1202 1.374 . S
C1974 C543 1.435 . S
C1979 C578 1.451 . S
C1984 C2 1.393 . S
C1989 C615 1.433 . S
C1994 C1130 1.378 . S
C1999 C74 1.387 . S
C2004 C650 1.445 . S
C2009 C688 1.428 . S
C2014 C1262 1.365 . S
C2019 C230 1.381 . S
C2024 C722 1.447 . S
C2029 C760 1.436 . S
C2034 C1334 1.371 . S
C2039 C158 1.380 . S
C2044 C794 1.447 . S
C2049 C1382 1.364 . S
C2054 C662 1.374 . S
C2059 C544 1.422 . S
C2064 C362 1.359 . S
C2069 C398 1.389 . S
C2074 C590 1.390 . S
C2079 C326 1.383 . S
C2084 C616 1.446 . S
C2089 C338 1.366 . S
C2094 C734 1.373 . S
C2099 C759 1.438 . S
C2104 C1370 1.379 . S
C2109 C374 1.338 . S
C2114 C806 1.354 . S
C2119 C687 1.423 . S
C2124 C410 1.355 . S
C2129 C830 1.431 . S
C2134 C1094 1.362 . S
C2139 C866 1.466 . S
C2144 C146 1.405 . S
C2149 C842 1.351 . S
C2154 C1274 1.337 . S
C2159 C902 1.468 . S
C2164 C218 1.405 . S
C2169 C950 1.354 . S
C2174 C266 1.337 . S
C2179 C1166 1.361 . S
C2184 C974 1.431 . S
C2189 C1022 1.396 . S
C2194 C1190 1.393 . S
C2199 C1058 1.396 . S
C2204 C1118 1.394 . S
C2209 C1083 1.402 . S
C2214 C651 1.404 . S
C2219 C1120 1.366 . S
C2224 C1406 1.328 . S
C2229 C579 1.408 . S
C2234 C1155 1.406 . S
C2239 C1192 1.368 . S
C2244 C1478 1.325 . S
C2249 C1228 1.417 . S
C2254 C723 1.406 . S
C2259 C1634 1.319 . S
C2264 C1263 1.350 . S
C2269 C1300 1.415 . S
C2274 C795 1.406 . S
C2279 C1562 1.315 . S
C2284 C1335 1.346 . S
C2289 C832 1.359 . S
C2294 C1191 1.390 . S
C2299 C1047 1.406 . S
C2304 C1084 1.416 . S
C2309 C1119 1.388 . S
C2314 C976 1.358 . S
C2319 C1011 1.399 . S
C2324 C1156 1.409 . S
C2329 C1264 1.385 . S
C2334 C1012 1.344 . S
C2339 C831 1.406 . S
C2344 C1299 1.404 . S
C2349 C1336 1.391 . S
C2354 C1048 1.351 . S
C2359 C1227 1.409 . S
C2364 C975 1.409 . S
C2369 C1371 1.334 . S
C2374 C554 1.300 . S
C2379 C471 1.374 . S
C2384 C1550 1.340 . S
C2389 C724 1.350 . S
C2394 C1372 1.390 . S
C2399 C1622 1.333 . S
C2404 C507 1.364 . S
C2409 C1660 1.353 . S
C2414 C435 1.384 . S
C2419 C400 1.339 . S
C2424 C626 1.301 . S
C2429 C328 1.393 . S
C2434 C652 1.353 . S
C2439 C580 1.344 . S
C2444 C364 1.384 . S
C2449 C1407 1.433 . S
C2454 C122 1.376 . S
C2459 C1082 1.391 . S
C2464 C1442 1.452 . S
C2469 C1479 1.433 . S
C2474 C50 1.378 . S
C2479 C1514 1.446 . S
C2484 C1154 1.385 . S
C2489 C182 1.365 . S
C2494 C1552 1.428 . S
C2499 C1586 1.446 . S
C2504 C1310 1.378 . S
C2509 C1624 1.436 . S
C2514 C254 1.371 . S
C2519 C1238 1.377 . S
C2524 C1658 1.446 . S
C2529 C1526 1.374 . S
C2534 C302 1.364 . S
C2539 C506 1.360 . S
C2544 C1408 1.422 . S
C2549 C434 1.391 . S
C2554 C1454 1.392 . S
C2559 C1480 1.446 . S
C2564 C470 1.380 . S
C2569 C1598 1.373 . S
C2574 C482 1.366 . S
C2579 C290 1.380 . S
C2584 C1623 1.439 . S
C2589 C518 1.338 . S
C2594 C1670 1.354 . S
C2599 C1551 1.423 . S
C2604 C446 1.355 . S
C2609 C14 1.362 . S
C2614 C1694 1.431 . S
C2619 C1010 1.466 . S
C2624 C1226 1.405 . S
C2629 C194 1.334 . S
C2634 C1706 1.354 . S
C2639 C1298 1.407 . S
C2644 C1046 1.468 . S
C2649 C1346 1.338 . S
C2654 C986 1.354 . S
C2659 C938 1.432 . S
C2664 C86 1.363 . S
C2669 C878 1.394 . S
C2674 C110 1.394 . S
C2679 C38 1.396 . S
C2684 C914 1.398 . S
