# Generated by pormake.
# Topology kag, (6)-cn, num edge types: 1
# Building blocks:
#     Node 0, Type 0, BuildingBlock: KUMBOL_clean_sbu_1, # of connection points: 6
#     Node 1, Type 0, BuildingBlock: KUMBOL_clean_sbu_1, # of connection points: 6
#     Node 2, Type 0, BuildingBlock: KUMBOL_clean_sbu_1, # of connection points: 6
#     Edge 3, Type (0, 0), BuildingBlock: KIFKEQ_clean_linker_1, # of connection points: 2
#     Edge 4, Type (0, 0), BuildingBlock: KIFKEQ_clean_linker_1, # of connection points: 2
#     Edge 5, Type (0, 0), BuildingBlock: KIFKEQ_clean_linker_1, # of connection points: 2
#     Edge 6, Type (0, 0), BuildingBlock: KIFKEQ_clean_linker_1, # of connection points: 2
#     Edge 7, Type (0, 0), BuildingBlock: KIFKEQ_clean_linker_1, # of connection points: 2
#     Edge 8, Type (0, 0), BuildingBlock: KIFKEQ_clean_linker_1, # of connection points: 2
#     Edge 9, Type (0, 0), BuildingBlock: KIFKEQ_clean_linker_1, # of connection points: 2
#     Edge 10, Type (0, 0), BuildingBlock: KIFKEQ_clean_linker_1, # of connection points: 2
#     Edge 11, Type (0, 0), BuildingBlock: KIFKEQ_clean_linker_1, # of connection points: 2
# Relax obj value: 0.092
# Max RMSD: 0.180
# Mean RMSD: 0.124
data_MOF--net-kag--node1-KUMBOL_clean_sbu_1--edge1-KIFKEQ_clean_linker_1
_symmetry_space_group_name_H-M    P1
_symmetry_Int_Tables_number       1
_symmetry_cell_setting            triclinic
loop_
_symmetry_equiv_pos_as_xyz
'x, y, z'
_cell_length_a     30.694577
_cell_length_b     40.677261
_cell_length_c     15.184443
_cell_angle_alpha  108.58189
_cell_angle_beta   97.602401
_cell_angle_gamma 96.987051
loop_
_atom_site_label
_atom_site_type_symbol
_atom_site_fract_x
_atom_site_fract_y
_atom_site_fract_z
_atom_type_partial_charge
C0 C 0.12531 0.41218 0.90248 0.0
C1 C 0.15396 0.39798 0.03984 0.0
C2 C 0.12195 0.41144 0.99197 0.0
C3 C 0.1904 0.38701 0.99829 0.0
C4 C 0.16081 0.39999 0.85884 0.0
C5 C 0.19381 0.38801 0.90798 0.0
N6 N 0.09356 0.42485 0.85789 0.0
C7 C 0.09288 0.42318 0.7665 0.0
C8 C 0.16174 0.39993 0.76678 0.0
C9 C 0.12727 0.41112 0.71995 0.0
Gd10 Gd 0.06225 0.55176 0.0519 0.0
Gd11 Gd 1.03841 0.44643 0.9422 0.0
N12 N 0.08623 0.42223 0.03003 0.0
C13 C 0.1477 0.39501 0.12678 0.0
C14 C 0.07817 0.4166 0.11085 0.0
C15 C 0.10919 0.40373 0.1615 0.0
H16 H 1.04748 0.42132 0.13588 0.0
H17 H 0.10304 0.40007 0.22662 0.0
H18 H 1.0145 0.5701 0.86744 0.0
H19 H 0.0662 0.43182 0.73051 0.0
H20 H 0.95148 0.59837 0.82607 0.0
H21 H 0.1715 0.38479 0.16581 0.0
H22 H 0.21558 0.37697 0.03452 0.0
H23 H 0.07815 0.57372 0.28878 0.0
H24 H 0.18846 0.39077 0.73077 0.0
H25 H 0.12727 0.41056 0.64821 0.0
H26 H 0.88931 0.63352 0.10937 0.0
H27 H 0.22168 0.37891 0.87615 0.0
H28 H 0.96677 0.61827 0.38528 0.0
H29 H 1.03737 0.59713 0.41805 0.0
N30 N 1.02813 0.57645 0.18189 0.0
C31 C 0.99117 0.59022 0.16354 0.0
C32 C 1.04593 0.58045 0.27264 0.0
C33 C 0.98376 0.60674 0.32774 0.0
C34 C 1.02349 0.59471 0.34648 0.0
C35 C 0.96778 0.60552 0.23585 0.0
H36 H 0.91172 0.63187 0.26943 0.0
N37 N 1.00214 0.57672 0.00589 0.0
C38 C 0.9784 0.59114 0.07344 0.0
C39 C 0.93216 0.6096 0.96266 0.0
C40 C 0.94218 0.60741 0.05315 0.0
C41 C 0.99392 0.58014 0.91892 0.0
C42 C 0.95847 0.59624 0.89561 0.0
O43 O 0.10477 0.47783 0.93777 0.0
O44 O 0.11903 0.523 0.0783 0.0
O45 O 0.10407 0.58339 0.99373 0.0
O46 O 0.09696 0.60412 0.13991 0.0
O47 O 1.02946 0.47085 0.09367 0.0
O48 O 0.08056 0.52264 0.1527 0.0
O49 O 0.9905 0.52304 0.98237 0.0
O50 O 0.98532 0.47195 0.01622 0.0
O51 O 1.00821 0.3928 0.92322 0.0
O52 O 0.98966 0.41579 0.81681 0.0
O53 O 0.06976 0.52756 0.90021 0.0
O54 O 1.01803 0.47611 0.84481 0.0
C55 C 0.13345 0.50044 0.01004 0.0
C56 C 1.05569 0.4962 0.1647 0.0
C57 C 0.16534 0.62231 0.10047 0.0
C58 C 0.22842 0.66654 0.10846 0.0
C59 C 0.24022 0.61786 0.16418 0.0
C60 C 0.19439 0.60488 0.14106 0.0
C61 C 0.25725 0.64854 0.14826 0.0
C62 C 0.18242 0.65282 0.08373 0.0
C63 C 0.11717 0.60901 0.07392 0.0
C64 C 0.91763 0.62132 0.12389 0.0
C65 C 0.93032 0.62029 0.21497 0.0
H66 H 0.90465 0.62197 0.94433 0.0
C67 C 0.96662 0.49735 0.99985 0.0
C68 C 1.0432 0.5019 0.83105 0.0
C69 C 0.93225 0.37975 0.85086 0.0
C70 C 0.87418 0.34136 0.88537 0.0
C71 C 0.85611 0.39118 0.84104 0.0
C72 C 0.90043 0.40012 0.83317 0.0
C73 C 0.84301 0.36211 0.86731 0.0
C74 C 0.91874 0.35024 0.87614 0.0
C75 C 0.97987 0.39011 0.84849 0.0
H76 H 0.26257 0.60429 0.19536 0.0
H77 H 0.18161 0.58143 0.15505 0.0
H78 H 0.29277 0.65851 0.16882 0.0
H79 H 0.15971 0.66573 0.05081 0.0
H80 H 0.83192 0.40709 0.82771 0.0
H81 H 0.90977 0.42325 0.81454 0.0
H82 H 0.80844 0.35576 0.87315 0.0
H83 H 0.9433 0.33487 0.89161 0.0
C84 C 0.68616 0.95363 0.03101 0.0
C85 C 0.6993 0.92587 0.87238 0.0
C86 C 0.68191 0.95197 0.93731 0.0
C87 C 0.71852 0.90057 0.90159 0.0
C88 C 0.70644 0.92883 0.06122 0.0
C89 C 0.72205 0.90203 0.99572 0.0
N90 N 0.66995 0.9794 0.09264 0.0
C91 C 0.67476 0.98299 0.18612 0.0
C92 C 0.71059 0.93181 0.15658 0.0
C93 C 0.69499 0.95918 0.21941 0.0
Gd94 Gd 0.50225 0.98577 0.94541 0.0
Gd95 Gd 0.63557 0.01767 0.03073 0.0
N96 N 0.66304 0.97684 0.91091 0.0
C97 C 0.69836 0.92672 0.78082 0.0
C98 C 0.66669 0.97987 0.82492 0.0
C99 C 0.68293 0.95432 0.75775 0.0
H100 H 0.6586 1.00243 0.80797 0.0
H101 H 0.68453 0.95643 0.68892 0.0
H102 H 0.48456 0.04018 0.15259 0.0
H103 H 0.66237 0.00398 0.23448 0.0
H104 H 0.43975 0.08641 0.20699 0.0
H105 H 0.71144 0.90721 0.72896 0.0
H106 H 0.73165 0.88019 0.85236 0.0
H107 H 0.47547 0.95503 0.70978 0.0
H108 H 0.72602 0.91328 0.18248 0.0
H109 H 0.69831 0.96182 0.29331 0.0
H110 H 0.35989 0.09309 0.92107 0.0
H111 H 0.73749 0.88259 0.01745 0.0
H112 H 0.38302 0.01506 0.62596 0.0
H113 H 0.42897 0.96834 0.58367 0.0
N114 N 0.45788 0.99507 0.82105 0.0
C115 C 0.43252 0.02051 0.84605 0.0
C116 C 0.45656 0.97615 0.72842 0.0
C117 C 0.40387 0.00966 0.68134 0.0
C118 C 0.42982 0.98332 0.65714 0.0
C119 C 0.40475 0.02848 0.77671 0.0
H120 H 0.35719 0.06131 0.7523 0.0
N121 N 0.46207 0.03078 0.00661 0.0
C122 C 0.43423 0.0386 0.94145 0.0
C123 C 0.41029 0.08236 0.06626 0.0
C124 C 0.40794 0.06489 0.96961 0.0
C125 C 0.46368 0.04712 0.10093 0.0
C126 C 0.4381 0.07329 0.13212 0.0
O127 O 0.60167 0.96584 0.03826 0.0
O128 O 0.55119 0.94948 0.90386 0.0
O129 O 0.47227 0.95167 0.01357 0.0
O130 O 0.44477 0.94523 0.86884 0.0
O131 O 0.60254 0.0234 0.89426 0.0
O132 O 0.54677 0.97504 0.83647 0.0
O133 O 0.52682 0.04317 0.96368 0.0
O134 O 0.5929 0.05986 0.07168 0.0
O135 O 0.68828 0.05306 0.00536 0.0
O136 O 0.68998 0.04869 0.14546 0.0
O137 O 0.52968 0.99432 0.09936 0.0
O138 O 0.59837 0.03212 0.15205 0.0
C139 C 0.57389 0.94097 0.96986 0.0
C140 C 0.57256 1.00083 0.82409 0.0
C141 C 0.39554 0.92974 0.96162 0.0
C142 C 0.3375 0.89239 0.99826 0.0
C143 C 0.32625 0.94999 0.99305 0.0
C144 C 0.36855 0.95564 0.97048 0.0
C145 C 0.31076 0.91861 0.00718 0.0
C146 C 0.37993 0.89824 0.97525 0.0
C147 C 0.44058 0.93517 0.94093 0.0
C148 C 0.38026 0.07292 0.90072 0.0
C149 C 0.37873 0.05482 0.80457 0.0
H150 H 0.39058 0.1027 0.09076 0.0
C151 C 0.5603 0.06738 0.01987 0.0
C152 C 0.56283 0.01446 0.16718 0.0
C153 C 0.7508 0.08898 0.12889 0.0
C154 C 0.7987 0.14144 0.1285 0.0
C155 C 0.81893 0.11401 0.2453 0.0
C156 C 0.78039 0.08853 0.20715 0.0
C157 C 0.828 0.14042 0.20668 0.0
C158 C 0.76032 0.11526 0.08909 0.0
C159 C 0.70891 0.0633 0.09258 0.0
H160 H 0.30545 0.97 0.99983 0.0
H161 H 0.38015 0.98013 0.96033 0.0
H162 H 0.27779 0.91471 0.02424 0.0
H163 H 0.40129 0.87856 0.96979 0.0
H164 H 0.84165 0.11346 0.30554 0.0
H165 H 0.77365 0.06855 0.23901 0.0
H166 H 0.85803 0.15999 0.23775 0.0
H167 H 0.73701 0.11616 0.03001 0.0
C168 C 0.66638 0.58499 0.1417 0.0
C169 C 0.71361 0.59131 0.02965 0.0
C170 C 0.67136 0.58191 0.0501 0.0
C171 C 0.75128 0.60234 0.10212 0.0
C172 C 0.70385 0.59781 0.2155 0.0
C173 C 0.74642 0.60553 0.19482 0.0
N174 N 0.62462 0.57774 0.15952 0.0
C175 C 0.61772 0.58685 0.25062 0.0
C176 C 0.6972 0.6038 0.30833 0.0
C177 C 0.65383 0.599 0.32607 0.0
Gd178 Gd 0.53413 0.44854 0.94985 0.0
Gd179 Gd 0.56671 0.55515 0.02591 0.0
N180 N 0.63451 0.57012 0.98086 0.0
C181 C 0.71654 0.5899 0.93725 0.0
C182 C 0.6366 0.57075 0.89209 0.0
C183 C 0.67774 0.58013 0.86856 0.0
H184 H 0.60652 0.56335 0.83935 0.0
H185 H 0.67953 0.57974 0.79754 0.0
H186 H 0.49634 0.45254 0.15256 0.0
H187 H 0.58439 0.5856 0.26581 0.0
H188 H 0.42514 0.43781 0.20017 0.0
H189 H 0.7484 0.59696 0.91873 0.0
H190 H 0.78416 0.60921 0.08762 0.0
H191 H 0.51343 0.42001 0.71167 0.0
H192 H 0.72508 0.61364 0.36701 0.0
H193 H 0.64812 0.60532 0.39797 0.0
H194 H 0.32197 0.38373 0.90755 0.0
H195 H 0.77562 0.615 0.25049 0.0
H196 H 0.37557 0.37322 0.6195 0.0
H197 H 0.44927 0.39044 0.58289 0.0
N198 N 0.47584 0.42183 0.82092 0.0
C199 C 0.43615 0.41108 0.84284 0.0
C200 C 0.48119 0.41379 0.72907 0.0
C201 C 0.40352 0.38661 0.67665 0.0
C202 C 0.44502 0.39647 0.65567 0.0
C203 C 0.39871 0.39364 0.77097 0.0
H204 H 0.32857 0.37065 0.74085 0.0
N205 N 0.46898 0.43545 0.00631 0.0
C206 C 0.43253 0.41824 0.93775 0.0
C207 C 0.38856 0.41613 0.05737 0.0
C208 C 0.39125 0.40839 0.96182 0.0
C209 C 0.46694 0.44159 0.09919 0.0
C210 C 0.42665 0.43253 0.12622 0.0
O211 O 0.6151 0.51918 0.96587 0.0
O212 O 0.60604 0.47348 0.02217 0.0
O213 O 0.52868 0.39986 0.98117 0.0
O214 O 0.56289 0.40451 0.86911 0.0
O215 O 0.53178 0.52257 0.87689 0.0
O216 O 0.55783 0.46962 0.83969 0.0
O217 O 0.47977 0.4814 0.93298 0.0
O218 O 0.49868 0.53529 0.05277 0.0
O219 O 0.53806 0.58667 0.9487 0.0
O220 O 0.56855 0.61134 0.09526 0.0
O221 O 0.5639 0.47834 0.10286 0.0
O222 O 0.54519 0.53422 0.13895 0.0
C223 C 0.632 0.4964 0.99901 0.0
C224 C 0.54537 0.49629 0.81692 0.0
C225 C 0.58592 0.36655 0.95167 0.0
C226 C 0.60492 0.31579 0.99368 0.0
C227 C 0.66208 0.36682 0.01996 0.0
C228 C 0.63054 0.38344 0.98395 0.0
C229 C 0.64945 0.3334 0.02521 0.0
C230 C 0.57327 0.33255 0.95598 0.0
C231 C 0.55179 0.38486 0.91876 0.0
C232 C 0.35394 0.39132 0.89019 0.0
C233 C 0.35769 0.3839 0.79518 0.0
H234 H 0.35741 0.4091 0.07864 0.0
C235 C 0.46838 0.50842 0.99558 0.0
C236 C 0.55642 0.50753 0.16345 0.0
C237 C 0.51759 0.64111 0.03164 0.0
C238 C 0.49983 0.69813 0.02794 0.0
C239 C 0.44682 0.6573 0.06669 0.0
C240 C 0.47617 0.63319 0.05607 0.0
C241 C 0.45844 0.68943 0.05296 0.0
C242 C 0.52931 0.67353 0.01767 0.0
C243 C 0.54912 0.61603 0.01987 0.0
H244 H 0.69647 0.38001 0.0446 0.0
H245 H 0.64095 0.40959 0.98208 0.0
H246 H 0.67471 0.32118 0.05343 0.0
H247 H 0.53869 0.31963 0.93244 0.0
H248 H 0.41491 0.65112 0.08602 0.0
H249 H 0.46662 0.60843 0.06697 0.0
H250 H 0.43514 0.70769 0.06339 0.0
H251 H 0.56119 0.67929 0.99755 0.0
H252 H 0.11714 0.51192 0.75749 0.0
H253 H 0.97354 0.48798 0.68624 0.0
H254 H 0.1214 0.50793 0.59575 0.0
H255 H 0.97693 0.48698 0.52591 0.0
H256 H 0.99319 0.45834 0.22321 0.0
H257 H 0.99141 0.45754 0.38157 0.0
H258 H 0.11354 0.53436 0.48552 0.0
H259 H 0.11768 0.53184 0.32514 0.0
C260 C 0.08643 0.50642 0.70699 0.0
C261 C 1.04503 0.50035 0.73365 0.0
C262 C 0.08873 0.50437 0.61421 0.0
C263 C 1.04953 0.49736 0.54656 0.0
C264 C 1.008 0.49164 0.57451 0.0
C265 C 1.00585 0.49254 0.66667 0.0
C266 C 1.02004 0.47465 0.27978 0.0
C267 C 1.05531 0.49554 0.26161 0.0
C268 C 1.01867 0.47466 0.37136 0.0
C269 C 1.05196 0.49625 0.4479 0.0
C270 C 0.08747 0.51692 0.42912 0.0
C271 C 0.08952 0.51603 0.337 0.0
H272 H 0.49957 0.97785 0.22904 0.0
H273 H 0.62252 0.05342 0.32942 0.0
H274 H 0.50031 0.97585 0.38782 0.0
H275 H 0.62381 0.05064 0.48745 0.0
H276 H 0.5933 0.06014 0.78024 0.0
H277 H 0.58836 0.06546 0.62361 0.0
H278 H 0.54146 0.95331 0.49587 0.0
H279 H 0.54616 0.9482 0.65258 0.0
C280 C 0.52668 0.99421 0.28487 0.0
C281 C 0.56111 0.01569 0.26578 0.0
C282 C 0.52729 0.9928 0.376 0.0
C283 C 0.56233 0.01282 0.45066 0.0
C284 C 0.59606 0.03506 0.43213 0.0
C285 C 0.59543 0.03652 0.34106 0.0
C286 C 0.582 0.03664 0.71856 0.0
C287 C 0.56968 0.0038 0.7287 0.0
C288 C 0.57924 0.03966 0.62872 0.0
C289 C 0.56433 0.00985 0.54669 0.0
C290 C 0.55223 0.97696 0.5572 0.0
C291 C 0.55497 0.97398 0.64706 0.0
H292 H 0.60771 0.47523 0.7091 0.0
H293 H 0.48827 0.52113 0.7115 0.0
H294 H 0.61408 0.48131 0.55662 0.0
H295 H 0.49224 0.52494 0.55599 0.0
H296 H 0.52537 0.55381 0.30784 0.0
H297 H 0.52601 0.55301 0.46757 0.0
H298 H 0.58694 0.45965 0.39869 0.0
H299 H 0.59022 0.46265 0.24349 0.0
C300 C 0.58228 0.48593 0.67569 0.0
C301 C 0.54738 0.4975 0.72146 0.0
C302 C 0.58574 0.48937 0.58795 0.0
C303 C 0.55361 0.50359 0.54261 0.0
C304 C 0.5183 0.51465 0.58871 0.0
C305 C 0.51561 0.51208 0.67755 0.0
C306 C 0.54011 0.53378 0.32784 0.0
C307 C 0.5583 0.50866 0.26282 0.0
C308 C 0.53968 0.53282 0.4192 0.0
C309 C 0.55633 0.50612 0.44712 0.0
C310 C 0.57465 0.48114 0.3817 0.0
C311 C 0.57609 0.48264 0.29158 0.0
H312 H 0.1751 0.48419 0.85697 0.0
H313 H 0.20335 0.52192 0.16117 0.0
H314 H 0.25432 0.48805 0.85332 0.0
H315 H 0.28307 0.52433 0.15882 0.0
H316 H 0.42918 0.55024 0.13428 0.0
H317 H 0.34982 0.54984 0.1381 0.0
H318 H 0.31749 0.46604 0.86698 0.0
H319 H 0.39605 0.46937 0.8598 0.0
C320 C 0.19834 0.49292 0.92341 0.0
C321 C 0.18257 0.5027 0.0093 0.0
C322 C 0.24427 0.49497 0.92159 0.0
C323 C 0.2764 0.50632 0.00581 0.0
C324 C 0.26029 0.51602 0.09198 0.0
C325 C 0.21423 0.51445 0.09361 0.0
C326 C 0.40503 0.53201 0.07504 0.0
C327 C 0.41956 0.50923 0.99761 0.0
C328 C 0.35911 0.53138 0.07764 0.0
C329 C 0.32597 0.50767 0.00325 0.0
C330 C 0.34093 0.48521 0.92558 0.0
C331 C 0.38662 0.48648 0.9222 0.0
H332 H 0.82408 0.21166 0.22733 0.0
H333 H 0.79326 0.1366 0.94324 0.0
H334 H 0.84053 0.25936 0.16545 0.0
H335 H 0.80909 0.18452 0.88102 0.0
H336 H 0.89606 0.27554 0.82602 0.0
H337 H 0.87595 0.22681 0.88259 0.0
H338 H 0.8009 0.29029 0.07114 0.0
H339 H 0.82174 0.33921 0.01613 0.0
C340 C 0.8209 0.20538 0.15162 0.0
C341 C 0.80764 0.17039 0.09013 0.0
C342 C 0.82988 0.23272 0.11615 0.0
C343 C 0.82609 0.22567 0.01838 0.0
C344 C 0.81263 0.1907 0.95674 0.0
C345 C 0.80325 0.16334 0.99225 0.0
C346 C 0.87537 0.27908 0.87971 0.0
C347 C 0.86058 0.31123 0.91679 0.0
C348 C 0.8635 0.25108 0.91139 0.0
C349 C 0.83691 0.25476 0.98138 0.0
C350 C 0.82176 0.28679 0.01775 0.0
C351 C 0.83336 0.31467 0.98561 0.0
H352 H 0.51817 0.88263 0.84068 0.0
H353 H 0.60669 0.91715 0.11068 0.0
H354 H 0.50178 0.82366 0.84995 0.0
H355 H 0.59007 0.85858 0.12073 0.0
H356 H 0.58185 0.74178 0.0769 0.0
H357 H 0.6006 0.79885 0.05792 0.0
H358 H 0.46351 0.79125 0.9316 0.0
H359 H 0.44526 0.73358 0.9465 0.0
C360 C 0.53421 0.87769 0.90204 0.0
C361 C 0.56405 0.90476 0.97461 0.0
C362 C 0.52461 0.84383 0.9077 0.0
C363 C 0.54457 0.83602 0.98611 0.0
C364 C 0.57455 0.86317 0.05841 0.0
C365 C 0.58404 0.89698 0.05278 0.0
C366 C 0.55578 0.75196 0.04374 0.0
C367 C 0.51192 0.7328 0.01365 0.0
C368 C 0.56644 0.78505 0.03392 0.0
C369 C 0.53361 0.80006 0.99359 0.0
C370 C 0.48992 0.78063 0.96216 0.0
C371 C 0.47928 0.74758 0.97192 0.0
H372 H 0.91081 0.53544 0.93235 0.0
H373 H 0.90952 0.45542 0.06195 0.0
H374 H 0.83208 0.53573 0.93729 0.0
H375 H 0.8296 0.4532 0.05967 0.0
H376 H 0.69183 0.47861 0.12137 0.0
H377 H 0.77183 0.47887 0.12326 0.0
H378 H 0.76045 0.50713 0.87082 0.0
H379 H 0.68144 0.50772 0.87146 0.0
C380 C 0.89388 0.51811 0.96285 0.0
C381 C 0.91736 0.49627 0.99921 0.0
C382 C 0.84802 0.51759 0.96379 0.0
C383 C 0.82339 0.49441 0.99886 0.0
C384 C 0.84687 0.47204 0.0338 0.0
C385 C 0.89299 0.47305 0.03427 0.0
C386 C 0.70656 0.48472 0.06622 0.0
C387 C 0.6802 0.49368 0.99715 0.0
C388 C 0.75263 0.48481 0.06691 0.0
C389 C 0.7737 0.49343 0.99776 0.0
C390 C 0.74658 0.50133 0.9272 0.0
C391 C 0.70084 0.50152 0.92713 0.0
H392 H 0.19022 0.72546 0.13711 0.0
H393 H 0.30595 0.68323 0.04773 0.0
H394 H 0.21638 0.77913 0.10808 0.0
H395 H 0.33359 0.73805 0.02397 0.0
H396 H 0.34316 0.82524 0.89216 0.0
H397 H 0.31802 0.77075 0.91992 0.0
H398 H 0.2724 0.83049 0.17053 0.0
H399 H 0.29678 0.88477 0.14149 0.0
C400 C 0.22129 0.7276 0.11122 0.0
C401 C 0.24576 0.69985 0.09404 0.0
C402 C 0.23665 0.75867 0.0959 0.0
C403 C 0.27716 0.76301 0.06393 0.0
C404 C 0.30197 0.73543 0.04758 0.0
C405 C 0.28641 0.70417 0.06237 0.0
C406 C 0.32787 0.82666 0.95331 0.0
C407 C 0.32172 0.85923 0.01444 0.0
C408 C 0.31363 0.79547 0.96947 0.0
C409 C 0.29313 0.79619 0.04743 0.0
C410 C 0.2873 0.82886 0.10883 0.0
C411 C 0.30126 0.86 0.09229 0.0
H412 H 0.55434 0.25575 0.85973 0.0
H413 H 0.62702 0.29538 0.14626 0.0
H414 H 0.54057 0.19654 0.86918 0.0
H415 H 0.61217 0.23685 0.15745 0.0
H416 H 0.62815 0.12323 0.11119 0.0
H417 H 0.63523 0.18255 0.10602 0.0
H418 H 0.50434 0.15629 0.93079 0.0
H419 H 0.49813 0.09617 0.93272 0.0
C420 C 0.5667 0.25193 0.92531 0.0
C421 C 0.59225 0.28027 0.00179 0.0
C422 C 0.55874 0.21792 0.93101 0.0
C423 C 0.5757 0.21142 0.01379 0.0
C424 C 0.59957 0.24028 0.09148 0.0
C425 C 0.60793 0.27404 0.08535 0.0
C426 C 0.60055 0.13005 0.07227 0.0
C427 C 0.56236 0.10467 0.02306 0.0
C428 C 0.60453 0.16439 0.06962 0.0
C429 C 0.57031 0.17474 0.01834 0.0
C430 C 0.53174 0.14946 0.97019 0.0
C431 C 0.52791 0.11492 0.97218 0.0
loop_
_geom_bond_atom_site_label_1
_geom_bond_atom_site_label_2
_geom_bond_distance
_geom_bond_site_symmetry_2
_ccdc_geom_bond_type
C0 C2 1.422 . S
C0 C4 1.415 . S
C0 N6 1.369 . S
C1 C2 1.421 . S
C1 C3 1.417 . S
C1 C13 1.422 1_556 S
C2 C0 1.422 . S
C2 C1 1.421 . S
C2 N12 1.359 . S
C3 C1 1.417 . S
C3 C5 1.329 . S
C3 H22 0.930 . S
C4 C0 1.415 . S
C4 C5 1.437 . S
C4 C8 1.413 . S
C5 C3 1.329 . S
C5 C4 1.437 . S
C5 H27 0.929 . S
N6 C0 1.369 . S
N6 C7 1.338 1_455 S
N6 Gd11 2.622 1_455 S
C7 N6 1.338 1_655 S
C7 C9 1.378 1_655 S
C7 H19 0.929 . S
C8 C4 1.413 . S
C8 C9 1.348 . S
C8 H24 0.931 . S
C9 C7 1.378 1_455 S
C9 C8 1.348 . S
C9 H25 0.930 . S
Gd10 N30 2.622 1_455 S
Gd10 N37 2.570 1_455 S
Gd10 O44 2.353 . S
Gd10 O45 2.468 1_554 S
Gd10 O46 2.427 . S
Gd10 O48 2.388 . S
Gd10 O49 2.386 1_455 S
Gd10 O53 2.307 1_454 S
Gd10 C63 2.805 . S
Gd11 N6 2.622 1_655 S
Gd11 N12 2.570 1_655 S
Gd11 O43 2.386 1_655 S
Gd11 O47 2.307 1_656 S
Gd11 O50 2.353 . S
Gd11 O51 2.468 1_556 S
Gd11 O52 2.427 . S
Gd11 O54 2.388 . S
Gd11 C75 2.805 . S
N12 C2 1.359 . S
N12 Gd11 2.570 1_455 S
N12 C14 1.343 1_556 S
C13 C1 1.422 1_554 S
C13 C15 1.321 . S
C13 H21 0.931 . S
C14 N12 1.343 1_554 S
C14 C15 1.390 . S
C14 H16 0.931 . S
C15 C13 1.321 . S
C15 C14 1.390 . S
C15 H17 0.930 . S
H16 C14 0.931 . S
H17 C15 0.930 . S
H18 C41 0.931 . S
H19 C7 0.929 . S
H20 C42 0.930 . S
H21 C13 0.931 . S
H22 C3 0.930 . S
H23 C32 0.929 . S
H24 C8 0.931 . S
H25 C9 0.930 . S
H26 C64 0.930 . S
H27 C5 0.929 . S
H28 C33 0.931 . S
H29 C34 0.930 . S
N30 Gd10 2.622 1_655 S
N30 C31 1.369 . S
N30 C32 1.338 1_655 S
C31 N30 1.369 . S
C31 C35 1.415 . S
C31 C38 1.422 . S
C32 H23 0.929 . S
C32 N30 1.338 1_455 S
C32 C34 1.378 1_455 S
C33 H28 0.931 . S
C33 C34 1.348 . S
C33 C35 1.413 . S
C34 H29 0.930 . S
C34 C32 1.378 1_655 S
C34 C33 1.348 . S
C35 C31 1.415 . S
C35 C33 1.413 . S
C35 C65 1.437 . S
H36 C65 0.929 . S
N37 Gd10 2.570 1_655 S
N37 C38 1.359 . S
N37 C41 1.343 1_554 S
C38 C31 1.422 . S
C38 N37 1.359 . S
C38 C40 1.421 . S
C39 C40 1.422 1_556 S
C39 C42 1.321 . S
C39 H66 0.931 . S
C40 C38 1.421 . S
C40 C39 1.422 1_554 S
C40 C64 1.417 . S
C41 H18 0.931 . S
C41 N37 1.343 1_556 S
C41 C42 1.390 . S
C42 H20 0.930 . S
C42 C39 1.321 . S
C42 C41 1.390 . S
O43 Gd11 2.386 1_455 S
O43 C55 1.265 1_556 S
O44 Gd10 2.353 . S
O44 C55 1.242 . S
O45 Gd10 2.468 1_556 S
O45 C63 1.263 1_556 S
O46 Gd10 2.427 . S
O46 C63 1.252 . S
O47 Gd11 2.307 1_454 S
O47 C56 1.261 . S
O48 Gd10 2.388 . S
O48 C56 1.252 . S
O49 Gd10 2.386 1_655 S
O49 C67 1.265 1_554 S
O50 Gd11 2.353 . S
O50 C67 1.242 . S
O51 Gd11 2.468 1_554 S
O51 C75 1.263 1_554 S
O52 Gd11 2.427 . S
O52 C75 1.252 . S
O53 Gd10 2.307 1_656 S
O53 C68 1.261 . S
O54 Gd11 2.388 . S
O54 C68 1.252 . S
C55 O43 1.265 1_554 S
C55 O44 1.242 . S
C56 O47 1.261 . S
C56 O48 1.252 . S
C57 C60 1.394 . S
C57 C62 1.370 . S
C57 C63 1.500 . S
C58 C61 1.383 . S
C58 C62 1.395 . S
C59 C60 1.396 . S
C59 C61 1.365 . S
C59 H76 0.929 . S
C60 C57 1.394 . S
C60 C59 1.396 . S
C60 H77 0.930 . S
C61 C58 1.383 . S
C61 C59 1.365 . S
C61 H78 0.931 . S
C62 C57 1.370 . S
C62 C58 1.395 . S
C62 H79 0.930 1_554 S
C63 Gd10 2.805 . S
C63 O45 1.263 1_554 S
C63 O46 1.252 . S
C63 C57 1.500 . S
C64 H26 0.930 . S
C64 C40 1.417 . S
C64 C65 1.329 . S
C65 C35 1.437 . S
C65 H36 0.929 . S
C65 C64 1.329 . S
H66 C39 0.931 . S
C67 O49 1.265 1_556 S
C67 O50 1.242 . S
C68 O53 1.261 . S
C68 O54 1.252 . S
C69 C72 1.394 . S
C69 C74 1.370 . S
C69 C75 1.500 . S
C70 C73 1.383 . S
C70 C74 1.395 . S
C71 C72 1.396 . S
C71 C73 1.365 . S
C71 H80 0.929 . S
C72 C69 1.394 . S
C72 C71 1.396 . S
C72 H81 0.930 . S
C73 C70 1.383 . S
C73 C71 1.365 . S
C73 H82 0.931 . S
C74 C69 1.370 . S
C74 C70 1.395 . S
C74 H83 0.930 1_556 S
C75 Gd11 2.805 . S
C75 O51 1.263 1_556 S
C75 O52 1.252 . S
C75 C69 1.500 . S
H76 C59 0.929 . S
H77 C60 0.930 . S
H78 C61 0.931 . S
H79 C62 0.930 1_556 S
H80 C71 0.929 . S
H81 C72 0.930 . S
H82 C73 0.931 . S
H83 C74 0.930 1_554 S
C84 C86 1.422 . S
C84 C88 1.415 . S
C84 N90 1.369 1_565 S
C85 C86 1.421 1_556 S
C85 C87 1.417 1_556 S
C85 C97 1.422 . S
C86 C84 1.422 . S
C86 C85 1.421 1_554 S
C86 N96 1.359 1_554 S
C87 C85 1.417 1_554 S
C87 C89 1.329 . S
C87 H106 0.930 . S
C88 C84 1.415 . S
C88 C89 1.437 . S
C88 C92 1.413 . S
C89 C87 1.329 . S
C89 C88 1.437 . S
C89 H111 0.929 . S
N90 C84 1.369 1_545 S
N90 C91 1.338 . S
N90 Gd95 2.622 . S
C91 N90 1.338 . S
C91 C93 1.378 . S
C91 H103 0.929 . S
C92 C88 1.413 . S
C92 C93 1.348 1_565 S
C92 H108 0.931 . S
C93 C91 1.378 . S
C93 C92 1.348 1_545 S
C93 H109 0.930 . S
Gd94 N114 2.622 . S
Gd94 N121 2.570 1_566 S
Gd94 O128 2.353 . S
Gd94 O129 2.468 1_556 S
Gd94 O130 2.427 . S
Gd94 O132 2.388 . S
Gd94 O133 2.386 1_565 S
Gd94 O137 2.307 1_566 S
Gd94 C147 2.805 . S
Gd95 N90 2.622 . S
Gd95 N96 2.570 1_544 S
Gd95 O127 2.386 1_545 S
Gd95 O131 2.307 1_544 S
Gd95 O134 2.353 . S
Gd95 O135 2.468 1_554 S
Gd95 O136 2.427 . S
Gd95 O138 2.388 . S
Gd95 C159 2.805 . S
N96 C86 1.359 1_556 S
N96 Gd95 2.570 1_566 S
N96 C98 1.343 . S
C97 C85 1.422 . S
C97 C99 1.321 . S
C97 H105 0.931 . S
C98 N96 1.343 . S
C98 C99 1.390 . S
C98 H100 0.931 . S
C99 C97 1.321 . S
C99 C98 1.390 . S
C99 H101 0.930 . S
H100 C98 0.931 . S
H101 C99 0.930 . S
H102 C125 0.931 . S
H103 C91 0.929 . S
H104 C126 0.930 . S
H105 C97 0.931 . S
H106 C87 0.930 . S
H107 C116 0.929 . S
H108 C92 0.931 . S
H109 C93 0.930 . S
H110 C148 0.930 . S
H111 C89 0.929 . S
H112 C117 0.931 . S
H113 C118 0.930 . S
N114 Gd94 2.622 . S
N114 C115 1.369 1_565 S
N114 C116 1.338 . S
C115 N114 1.369 1_545 S
C115 C119 1.415 . S
C115 C122 1.422 . S
C116 H107 0.929 . S
C116 N114 1.338 . S
C116 C118 1.378 . S
C117 H112 0.931 . S
C117 C118 1.348 1_545 S
C117 C119 1.413 . S
C118 H113 0.930 . S
C118 C116 1.378 . S
C118 C117 1.348 1_565 S
C119 C115 1.415 . S
C119 C117 1.413 . S
C119 C149 1.437 . S
H120 C149 0.929 . S
N121 Gd94 2.570 1_544 S
N121 C122 1.359 1_554 S
N121 C125 1.343 . S
C122 C115 1.422 . S
C122 N121 1.359 1_556 S
C122 C124 1.421 1_556 S
C123 C124 1.422 . S
C123 C126 1.321 . S
C123 H150 0.931 . S
C124 C122 1.421 1_554 S
C124 C123 1.422 . S
C124 C148 1.417 1_554 S
C125 H102 0.931 . S
C125 N121 1.343 . S
C125 C126 1.390 . S
C126 H104 0.930 . S
C126 C123 1.321 . S
C126 C125 1.390 . S
O127 Gd95 2.386 1_565 S
O127 C139 1.265 1_554 S
O128 Gd94 2.353 . S
O128 C139 1.242 . S
O129 Gd94 2.468 1_554 S
O129 C147 1.263 1_554 S
O130 Gd94 2.427 . S
O130 C147 1.252 . S
O131 Gd95 2.307 1_566 S
O131 C140 1.261 . S
O132 Gd94 2.388 . S
O132 C140 1.252 . S
O133 Gd94 2.386 1_545 S
O133 C151 1.265 1_556 S
O134 Gd95 2.353 . S
O134 C151 1.242 . S
O135 Gd95 2.468 1_556 S
O135 C159 1.263 1_556 S
O136 Gd95 2.427 . S
O136 C159 1.252 . S
O137 Gd94 2.307 1_544 S
O137 C152 1.261 . S
O138 Gd95 2.388 . S
O138 C152 1.252 . S
C139 O127 1.265 1_556 S
C139 O128 1.242 . S
C140 O131 1.261 . S
C140 O132 1.252 . S
C141 C144 1.394 . S
C141 C146 1.370 1_556 S
C141 C147 1.500 . S
C142 C145 1.383 1_554 S
C142 C146 1.395 . S
C143 C144 1.396 . S
C143 C145 1.365 . S
C143 H160 0.929 . S
C144 C141 1.394 . S
C144 C143 1.396 . S
C144 H161 0.930 . S
C145 C142 1.383 1_556 S
C145 C143 1.365 . S
C145 H162 0.931 . S
C146 C141 1.370 1_554 S
C146 C142 1.395 . S
C146 H163 0.930 . S
C147 Gd94 2.805 . S
C147 O129 1.263 1_556 S
C147 O130 1.252 . S
C147 C141 1.500 . S
C148 H110 0.930 . S
C148 C124 1.417 1_556 S
C148 C149 1.329 . S
C149 C119 1.437 . S
C149 H120 0.929 . S
C149 C148 1.329 . S
H150 C123 0.931 . S
C151 O133 1.265 1_554 S
C151 O134 1.242 . S
C152 O137 1.261 . S
C152 O138 1.252 . S
C153 C156 1.394 . S
C153 C158 1.370 1_554 S
C153 C159 1.500 . S
C154 C157 1.383 1_556 S
C154 C158 1.395 . S
C155 C156 1.396 . S
C155 C157 1.365 . S
C155 H164 0.929 . S
C156 C153 1.394 . S
C156 C155 1.396 . S
C156 H165 0.930 . S
C157 C154 1.383 1_554 S
C157 C155 1.365 . S
C157 H166 0.931 . S
C158 C153 1.370 1_556 S
C158 C154 1.395 . S
C158 H167 0.930 . S
C159 Gd95 2.805 . S
C159 O135 1.263 1_554 S
C159 O136 1.252 . S
C159 C153 1.500 . S
H160 C143 0.929 . S
H161 C144 0.930 . S
H162 C145 0.931 . S
H163 C146 0.930 . S
H164 C155 0.929 . S
H165 C156 0.930 . S
H166 C157 0.931 . S
H167 C158 0.930 . S
C168 C170 1.422 . S
C168 C172 1.415 . S
C168 N174 1.369 . S
C169 C170 1.421 . S
C169 C171 1.417 . S
C169 C181 1.422 1_554 S
C170 C168 1.422 . S
C170 C169 1.421 . S
C170 N180 1.359 . S
C171 C169 1.417 . S
C171 C173 1.329 . S
C171 H190 0.930 . S
C172 C168 1.415 . S
C172 C173 1.437 . S
C172 C176 1.413 . S
C173 C171 1.329 . S
C173 C172 1.437 . S
C173 H195 0.929 . S
N174 C168 1.369 . S
N174 C175 1.338 . S
N174 Gd179 2.622 . S
C175 N174 1.338 . S
C175 C177 1.378 . S
C175 H187 0.929 . S
C176 C172 1.413 . S
C176 C177 1.348 . S
C176 H192 0.931 . S
C177 C175 1.378 . S
C177 C176 1.348 . S
C177 H193 0.930 . S
Gd178 N198 2.622 . S
Gd178 N205 2.570 . S
Gd178 O212 2.353 . S
Gd178 O213 2.468 1_556 S
Gd178 O214 2.427 . S
Gd178 O216 2.388 . S
Gd178 O217 2.386 . S
Gd178 O221 2.307 1_556 S
Gd178 C231 2.805 . S
Gd179 N174 2.622 . S
Gd179 N180 2.570 . S
Gd179 O211 2.386 . S
Gd179 O215 2.307 1_554 S
Gd179 O218 2.353 . S
Gd179 O219 2.468 1_554 S
Gd179 O220 2.427 . S
Gd179 O222 2.388 . S
Gd179 C243 2.805 . S
N180 C170 1.359 . S
N180 Gd179 2.570 . S
N180 C182 1.343 1_554 S
C181 C169 1.422 1_556 S
C181 C183 1.321 . S
C181 H189 0.931 . S
C182 N180 1.343 1_556 S
C182 C183 1.390 . S
C182 H184 0.931 . S
C183 C181 1.321 . S
C183 C182 1.390 . S
C183 H185 0.930 . S
H184 C182 0.931 . S
H185 C183 0.930 . S
H186 C209 0.931 . S
H187 C175 0.929 . S
H188 C210 0.930 . S
H189 C181 0.931 . S
H190 C171 0.930 . S
H191 C200 0.929 . S
H192 C176 0.931 . S
H193 C177 0.930 . S
H194 C232 0.930 . S
H195 C173 0.929 . S
H196 C201 0.931 . S
H197 C202 0.930 . S
N198 Gd178 2.622 . S
N198 C199 1.369 . S
N198 C200 1.338 . S
C199 N198 1.369 . S
C199 C203 1.415 . S
C199 C206 1.422 . S
C200 H191 0.929 . S
C200 N198 1.338 . S
C200 C202 1.378 . S
C201 H196 0.931 . S
C201 C202 1.348 . S
C201 C203 1.413 . S
C202 H197 0.930 . S
C202 C200 1.378 . S
C202 C201 1.348 . S
C203 C199 1.415 . S
C203 C201 1.413 . S
C203 C233 1.437 . S
H204 C233 0.929 . S
N205 Gd178 2.570 . S
N205 C206 1.359 . S
N205 C209 1.343 1_556 S
C206 C199 1.422 . S
C206 N205 1.359 . S
C206 C208 1.421 . S
C207 C208 1.422 1_554 S
C207 C210 1.321 . S
C207 H234 0.931 . S
C208 C206 1.421 . S
C208 C207 1.422 1_556 S
C208 C232 1.417 . S
C209 H186 0.931 . S
C209 N205 1.343 1_554 S
C209 C210 1.390 . S
C210 H188 0.930 . S
C210 C207 1.321 . S
C210 C209 1.390 . S
O211 Gd179 2.386 . S
O211 C223 1.265 . S
O212 Gd178 2.353 . S
O212 C223 1.242 1_556 S
O213 Gd178 2.468 1_554 S
O213 C231 1.263 1_554 S
O214 Gd178 2.427 . S
O214 C231 1.252 . S
O215 Gd179 2.307 1_556 S
O215 C224 1.261 . S
O216 Gd178 2.388 . S
O216 C224 1.252 . S
O217 Gd178 2.386 . S
O217 C235 1.265 . S
O218 Gd179 2.353 . S
O218 C235 1.242 1_554 S
O219 Gd179 2.468 1_556 S
O219 C243 1.263 1_556 S
O220 Gd179 2.427 . S
O220 C243 1.252 . S
O221 Gd178 2.307 1_554 S
O221 C236 1.261 . S
O222 Gd179 2.388 . S
O222 C236 1.252 . S
C223 O211 1.265 . S
C223 O212 1.242 1_554 S
C224 O215 1.261 . S
C224 O216 1.252 . S
C225 C228 1.394 . S
C225 C230 1.376 . S
C225 C231 1.500 . S
C226 C229 1.383 . S
C226 C230 1.394 . S
C227 C228 1.396 . S
C227 C229 1.365 . S
C227 H244 0.929 . S
C228 C225 1.394 . S
C228 C227 1.396 . S
C228 H245 0.930 . S
C229 C226 1.383 . S
C229 C227 1.365 . S
C229 H246 0.931 . S
C230 C225 1.376 . S
C230 C226 1.394 . S
C230 H247 0.926 1_556 S
C231 Gd178 2.805 . S
C231 O213 1.263 1_556 S
C231 O214 1.252 . S
C231 C225 1.500 . S
C232 H194 0.930 . S
C232 C208 1.417 . S
C232 C233 1.329 . S
C233 C203 1.437 . S
C233 H204 0.929 . S
C233 C232 1.329 . S
H234 C207 0.931 . S
C235 O217 1.265 . S
C235 O218 1.242 1_556 S
C236 O221 1.261 . S
C236 O222 1.252 . S
C237 C240 1.394 . S
C237 C242 1.379 . S
C237 C243 1.500 . S
C238 C241 1.383 . S
C238 C242 1.393 . S
C239 C240 1.396 . S
C239 C241 1.365 . S
C239 H248 0.929 . S
C240 C237 1.394 . S
C240 C239 1.396 . S
C240 H249 0.930 . S
C241 C238 1.383 . S
C241 C239 1.365 . S
C241 H250 0.931 . S
C242 C237 1.379 . S
C242 C238 1.393 . S
C242 H251 0.923 1_554 S
C243 Gd179 2.805 . S
C243 O219 1.263 1_554 S
C243 O220 1.252 . S
C243 C237 1.500 . S
H244 C227 0.929 . S
H245 C228 0.930 . S
H246 C229 0.931 . S
H247 C230 0.926 1_554 S
H248 C239 0.929 . S
H249 C240 0.930 . S
H250 C241 0.931 . S
H251 C242 0.923 1_556 S
H252 C260 0.950 . S
H253 C265 0.950 . S
H254 C262 0.950 . S
H255 C264 0.950 . S
H256 C266 0.950 . S
H257 C268 0.950 . S
H258 C270 0.950 . S
H259 C271 0.950 . S
C260 H252 0.950 . S
C260 C261 1.386 1_455 S
C260 C262 1.391 . S
C261 C260 1.386 1_655 S
C261 C265 1.393 . S
C262 H254 0.950 . S
C262 C260 1.391 . S
C262 C263 1.400 1_455 S
C263 C262 1.400 1_655 S
C263 C264 1.399 . S
C263 C269 1.490 1_655 S
C264 H255 0.950 . S
C264 C263 1.399 . S
C264 C265 1.391 . S
C265 H253 0.950 . S
C265 C261 1.393 . S
C265 C264 1.391 . S
C266 H256 0.950 . S
C266 C267 1.386 1_655 S
C266 C268 1.391 . S
C267 C266 1.386 1_455 S
C267 C271 1.393 . S
C268 H257 0.950 . S
C268 C266 1.391 . S
C268 C269 1.395 1_655 S
C269 C263 1.490 1_455 S
C269 C268 1.395 1_455 S
C269 C270 1.404 . S
C270 H258 0.950 . S
C270 C269 1.404 . S
C270 C271 1.391 . S
C271 H259 0.950 . S
C271 C267 1.393 . S
C271 C270 1.391 . S
H272 C280 0.950 . S
H273 C285 0.950 . S
H274 C282 0.950 . S
H275 C284 0.950 . S
H276 C286 0.950 . S
H277 C288 0.950 . S
H278 C290 0.950 . S
H279 C291 0.950 . S
C280 H272 0.950 . S
C280 C281 1.386 1_565 S
C280 C282 1.391 . S
C281 C280 1.386 1_545 S
C281 C285 1.393 . S
C282 H274 0.950 . S
C282 C280 1.391 . S
C282 C283 1.402 1_565 S
C283 C282 1.402 1_545 S
C283 C284 1.407 . S
C283 C289 1.475 1_545 S
C284 H275 0.950 . S
C284 C283 1.407 . S
C284 C285 1.391 . S
C285 H273 0.950 . S
C285 C281 1.393 . S
C285 C284 1.391 . S
C286 H276 0.950 . S
C286 C287 1.386 1_545 S
C286 C288 1.391 . S
C287 C286 1.386 1_565 S
C287 C291 1.393 . S
C288 H277 0.950 . S
C288 C286 1.391 . S
C288 C289 1.401 1_545 S
C289 C283 1.475 1_565 S
C289 C288 1.401 1_565 S
C289 C290 1.404 . S
C290 H278 0.950 . S
C290 C289 1.404 . S
C290 C291 1.391 . S
C291 H279 0.950 . S
C291 C287 1.393 . S
C291 C290 1.391 . S
H292 C300 0.950 . S
H293 C305 0.950 . S
H294 C302 0.950 . S
H295 C304 0.950 . S
H296 C306 0.950 . S
H297 C308 0.950 . S
H298 C310 0.950 . S
H299 C311 0.950 . S
C300 H292 0.950 . S
C300 C301 1.386 . S
C300 C302 1.391 . S
C301 C300 1.386 . S
C301 C305 1.393 . S
C302 H294 0.950 . S
C302 C300 1.391 . S
C302 C303 1.400 . S
C303 C302 1.400 . S
C303 C304 1.398 . S
C303 C309 1.491 . S
C304 H295 0.950 . S
C304 C303 1.398 . S
C304 C305 1.391 . S
C305 H293 0.950 . S
C305 C301 1.393 . S
C305 C304 1.391 . S
C306 H296 0.950 . S
C306 C307 1.386 . S
C306 C308 1.391 . S
C307 C306 1.386 . S
C307 C311 1.393 . S
C308 H297 0.950 . S
C308 C306 1.391 . S
C308 C309 1.400 . S
C309 C303 1.491 . S
C309 C308 1.400 . S
C309 C310 1.398 . S
C310 H298 0.950 . S
C310 C309 1.398 . S
C310 C311 1.391 . S
C311 H299 0.950 . S
C311 C307 1.393 . S
C311 C310 1.391 . S
H312 C320 0.950 . S
H313 C325 0.950 . S
H314 C322 0.950 . S
H315 C324 0.950 . S
H316 C326 0.950 . S
H317 C328 0.950 . S
H318 C330 0.950 . S
H319 C331 0.950 . S
C320 H312 0.950 . S
C320 C321 1.386 1_556 S
C320 C322 1.391 . S
C321 C320 1.386 1_554 S
C321 C325 1.393 . S
C322 H314 0.950 . S
C322 C320 1.391 . S
C322 C323 1.400 1_556 S
C323 C322 1.400 1_554 S
C323 C324 1.398 . S
C323 C329 1.491 . S
C324 H315 0.950 . S
C324 C323 1.398 . S
C324 C325 1.391 . S
C325 H313 0.950 . S
C325 C321 1.393 . S
C325 C324 1.391 . S
C326 H316 0.950 . S
C326 C327 1.386 1_554 S
C326 C328 1.391 . S
C327 C326 1.386 1_556 S
C327 C331 1.393 . S
C328 H317 0.950 . S
C328 C326 1.391 . S
C328 C329 1.400 . S
C329 C323 1.491 . S
C329 C328 1.400 . S
C329 C330 1.399 1_554 S
C330 H318 0.950 . S
C330 C329 1.399 1_556 S
C330 C331 1.391 . S
C331 H319 0.950 . S
C331 C327 1.393 . S
C331 C330 1.391 . S
H332 C340 0.950 . S
H333 C345 0.950 . S
H334 C342 0.950 . S
H335 C344 0.950 . S
H336 C346 0.950 . S
H337 C348 0.950 . S
H338 C350 0.950 . S
H339 C351 0.950 . S
C340 H332 0.950 . S
C340 C341 1.386 1_554 S
C340 C342 1.391 . S
C341 C340 1.386 1_556 S
C341 C345 1.393 . S
C342 H334 0.950 . S
C342 C340 1.391 . S
C342 C343 1.400 1_554 S
C343 C342 1.400 1_556 S
C343 C344 1.398 . S
C343 C349 1.491 . S
C344 H335 0.950 . S
C344 C343 1.398 . S
C344 C345 1.391 . S
C345 H333 0.950 . S
C345 C341 1.393 . S
C345 C344 1.391 . S
C346 H336 0.950 . S
C346 C347 1.386 1_556 S
C346 C348 1.391 . S
C347 C346 1.386 1_554 S
C347 C351 1.393 . S
C348 H337 0.950 . S
C348 C346 1.391 . S
C348 C349 1.400 . S
C349 C343 1.491 . S
C349 C348 1.400 . S
C349 C350 1.398 1_556 S
C350 H338 0.950 . S
C350 C349 1.398 1_554 S
C350 C351 1.391 . S
C351 H339 0.950 . S
C351 C347 1.393 . S
C351 C350 1.391 . S
H352 C360 0.950 . S
H353 C365 0.950 1_554 S
H354 C362 0.950 . S
H355 C364 0.950 1_554 S
H356 C366 0.950 . S
H357 C368 0.950 . S
H358 C370 0.950 . S
H359 C371 0.950 . S
C360 H352 0.950 . S
C360 C361 1.386 . S
C360 C362 1.391 . S
C361 C360 1.386 . S
C361 C365 1.393 . S
C362 H354 0.950 . S
C362 C360 1.391 . S
C362 C363 1.400 . S
C363 C362 1.400 . S
C363 C364 1.398 . S
C363 C369 1.491 . S
C364 H355 0.950 1_556 S
C364 C363 1.398 . S
C364 C365 1.391 . S
C365 H353 0.950 1_556 S
C365 C361 1.393 . S
C365 C364 1.391 . S
C366 H356 0.950 . S
C366 C367 1.386 1_554 S
C366 C368 1.391 . S
C367 C366 1.386 1_556 S
C367 C371 1.393 . S
C368 H357 0.950 . S
C368 C366 1.391 . S
C368 C369 1.400 1_554 S
C369 C363 1.491 . S
C369 C368 1.400 1_556 S
C369 C370 1.398 . S
C370 H358 0.950 . S
C370 C369 1.398 . S
C370 C371 1.391 . S
C371 H359 0.950 . S
C371 C367 1.393 . S
C371 C370 1.391 . S
H372 C380 0.950 1_554 S
H373 C385 0.950 . S
H374 C382 0.950 . S
H375 C384 0.950 . S
H376 C386 0.950 . S
H377 C388 0.950 . S
H378 C390 0.950 . S
H379 C391 0.950 . S
C380 H372 0.950 1_556 S
C380 C381 1.386 . S
C380 C382 1.391 1_556 S
C381 C380 1.386 . S
C381 C385 1.393 . S
C382 H374 0.950 . S
C382 C380 1.391 1_554 S
C382 C383 1.400 1_554 S
C383 C382 1.400 1_556 S
C383 C384 1.398 . S
C383 C389 1.491 1_556 S
C384 H375 0.950 . S
C384 C383 1.398 . S
C384 C385 1.391 . S
C385 H373 0.950 . S
C385 C381 1.393 . S
C385 C384 1.391 . S
C386 H376 0.950 . S
C386 C387 1.386 1_556 S
C386 C388 1.391 . S
C387 C386 1.386 1_554 S
C387 C391 1.393 . S
C388 H377 0.950 . S
C388 C386 1.391 . S
C388 C389 1.400 1_556 S
C389 C383 1.491 1_554 S
C389 C388 1.400 1_554 S
C389 C390 1.398 . S
C390 H378 0.950 . S
C390 C389 1.398 . S
C390 C391 1.391 . S
C391 H379 0.950 . S
C391 C387 1.393 . S
C391 C390 1.391 . S
H392 C400 0.950 . S
H393 C405 0.950 . S
H394 C402 0.950 . S
H395 C404 0.950 . S
H396 C406 0.950 . S
H397 C408 0.950 . S
H398 C410 0.950 . S
H399 C411 0.950 . S
C400 H392 0.950 . S
C400 C401 1.386 1_554 S
C400 C402 1.391 . S
C401 C400 1.386 1_556 S
C401 C405 1.393 . S
C402 H394 0.950 . S
C402 C400 1.391 . S
C402 C403 1.400 . S
C403 C402 1.400 . S
C403 C404 1.398 1_554 S
C403 C409 1.491 . S
C404 H395 0.950 . S
C404 C403 1.398 1_556 S
C404 C405 1.391 . S
C405 H393 0.950 . S
C405 C401 1.393 . S
C405 C404 1.391 . S
C406 H396 0.950 . S
C406 C407 1.386 1_556 S
C406 C408 1.391 . S
C407 C406 1.386 1_554 S
C407 C411 1.393 . S
C408 H397 0.950 . S
C408 C406 1.391 . S
C408 C409 1.400 1_556 S
C409 C403 1.491 . S
C409 C408 1.400 1_554 S
C409 C410 1.398 . S
C410 H398 0.950 . S
C410 C409 1.398 . S
C410 C411 1.391 . S
C411 H399 0.950 . S
C411 C407 1.393 . S
C411 C410 1.391 . S
H412 C420 0.950 . S
H413 C425 0.950 . S
H414 C422 0.950 . S
H415 C424 0.950 . S
H416 C426 0.950 . S
H417 C428 0.950 . S
H418 C430 0.950 . S
H419 C431 0.950 . S
C420 H412 0.950 . S
C420 C421 1.386 1_556 S
C420 C422 1.391 . S
C421 C420 1.386 1_554 S
C421 C425 1.393 . S
C422 H414 0.950 . S
C422 C420 1.391 . S
C422 C423 1.400 1_556 S
C423 C422 1.400 1_554 S
C423 C424 1.398 . S
C423 C429 1.491 . S
C424 H415 0.950 . S
C424 C423 1.398 . S
C424 C425 1.391 . S
C425 H413 0.950 . S
C425 C421 1.393 . S
C425 C424 1.391 . S
C426 H416 0.950 . S
C426 C427 1.386 . S
C426 C428 1.391 . S
C427 C426 1.386 . S
C427 C431 1.393 1_554 S
C428 H417 0.950 . S
C428 C426 1.391 . S
C428 C429 1.400 . S
C429 C423 1.491 . S
C429 C428 1.400 . S
C429 C430 1.398 1_554 S
C430 H418 0.950 . S
C430 C429 1.398 1_556 S
C430 C431 1.391 . S
C431 H419 0.950 . S
C431 C427 1.393 1_556 S
C431 C430 1.391 . S
C261 C68 1.480 . S
C267 C56 1.480 . S
C281 C152 1.523 . S
C287 C140 1.523 . S
C301 C224 1.480 . S
C307 C236 1.480 . S
C321 C55 2.301 . S
C327 C235 2.313 . S
C341 C154 0.748 . S
C347 C70 0.751 1_554 S
C361 C139 1.627 . S
C367 C238 1.474 1_556 S
C381 C67 2.308 . S
C387 C223 2.321 . S
C401 C58 0.771 1_556 S
C407 C142 0.767 . S
C421 C226 1.496 1_554 S
C427 C151 1.617 . S
