# Generated by pormake.
# Topology wht, (6)-cn, num edge types: 1
# Building blocks:
#     Node 0, Type 0, BuildingBlock: VOLQOD_clean_sbu_1, # of connection points: 6
#     Node 1, Type 0, BuildingBlock: VOLQOD_clean_sbu_1, # of connection points: 6
#     Node 2, Type 0, BuildingBlock: VOLQOD_clean_sbu_1, # of connection points: 6
#     Node 3, Type 0, BuildingBlock: VOLQOD_clean_sbu_1, # of connection points: 6
#     Node 4, Type 0, BuildingBlock: VOLQOD_clean_sbu_1, # of connection points: 6
#     Node 5, Type 0, BuildingBlock: VOLQOD_clean_sbu_1, # of connection points: 6
#     Node 6, Type 0, BuildingBlock: VOLQOD_clean_sbu_1, # of connection points: 6
#     Node 7, Type 0, BuildingBlock: VOLQOD_clean_sbu_1, # of connection points: 6
#     Edge 8, Type (0, 0), BuildingBlock: UVAHIK_clean_linker_0, # of connection points: 2
#     Edge 9, Type (0, 0), BuildingBlock: UVAHIK_clean_linker_0, # of connection points: 2
#     Edge 10, Type (0, 0), BuildingBlock: UVAHIK_clean_linker_0, # of connection points: 2
#     Edge 11, Type (0, 0), BuildingBlock: UVAHIK_clean_linker_0, # of connection points: 2
#     Edge 12, Type (0, 0), BuildingBlock: UVAHIK_clean_linker_0, # of connection points: 2
#     Edge 13, Type (0, 0), BuildingBlock: UVAHIK_clean_linker_0, # of connection points: 2
#     Edge 14, Type (0, 0), BuildingBlock: UVAHIK_clean_linker_0, # of connection points: 2
#     Edge 15, Type (0, 0), BuildingBlock: UVAHIK_clean_linker_0, # of connection points: 2
#     Edge 16, Type (0, 0), BuildingBlock: UVAHIK_clean_linker_0, # of connection points: 2
#     Edge 17, Type (0, 0), BuildingBlock: UVAHIK_clean_linker_0, # of connection points: 2
#     Edge 18, Type (0, 0), BuildingBlock: UVAHIK_clean_linker_0, # of connection points: 2
#     Edge 19, Type (0, 0), BuildingBlock: UVAHIK_clean_linker_0, # of connection points: 2
#     Edge 20, Type (0, 0), BuildingBlock: UVAHIK_clean_linker_0, # of connection points: 2
#     Edge 21, Type (0, 0), BuildingBlock: UVAHIK_clean_linker_0, # of connection points: 2
#     Edge 22, Type (0, 0), BuildingBlock: UVAHIK_clean_linker_0, # of connection points: 2
#     Edge 23, Type (0, 0), BuildingBlock: UVAHIK_clean_linker_0, # of connection points: 2
#     Edge 24, Type (0, 0), BuildingBlock: UVAHIK_clean_linker_0, # of connection points: 2
#     Edge 25, Type (0, 0), BuildingBlock: UVAHIK_clean_linker_0, # of connection points: 2
#     Edge 26, Type (0, 0), BuildingBlock: UVAHIK_clean_linker_0, # of connection points: 2
#     Edge 27, Type (0, 0), BuildingBlock: UVAHIK_clean_linker_0, # of connection points: 2
#     Edge 28, Type (0, 0), BuildingBlock: UVAHIK_clean_linker_0, # of connection points: 2
#     Edge 29, Type (0, 0), BuildingBlock: UVAHIK_clean_linker_0, # of connection points: 2
#     Edge 30, Type (0, 0), BuildingBlock: UVAHIK_clean_linker_0, # of connection points: 2
#     Edge 31, Type (0, 0), BuildingBlock: UVAHIK_clean_linker_0, # of connection points: 2
# Relax obj value: 0.361
# Max RMSD: 0.253
# Mean RMSD: 0.253
data_MOF--net-wht--node1-VOLQOD_clean_sbu_1--edge1-UVAHIK_clean_linker_0
_symmetry_space_group_name_H-M    P1
_symmetry_Int_Tables_number       1
_symmetry_cell_setting            triclinic
loop_
_symmetry_equiv_pos_as_xyz
'x, y, z'
_cell_length_a     34.83142
_cell_length_b     34.779811
_cell_length_c     61.761235
_cell_angle_alpha  89.977554
_cell_angle_beta   89.917184
_cell_angle_gamma 89.946315
loop_
_atom_site_label
_atom_site_type_symbol
_atom_site_fract_x
_atom_site_fract_y
_atom_site_fract_z
_atom_type_partial_charge
O0 O 0.1205 0.2927 0.17777 0.0
Zn1 Zn 0.12442 0.27906 0.14602 0.0
O2 O 0.07266 0.27456 0.13413 0.0
Zn3 Zn 0.06136 0.22225 0.12617 0.0
Zn4 Zn 0.03459 0.2905 0.15525 0.0
Zn5 Zn 0.06847 0.30515 0.1082 0.0
O6 O 0.04177 0.21756 0.09598 0.0
O7 O 0.06362 0.27178 0.08166 0.0
O8 O 0.15483 0.22894 0.14148 0.0
O9 O 0.1098 0.19267 0.12619 0.0
O10 O 0.02562 0.19626 0.14696 0.0
O11 O 0.00754 0.24483 0.1678 0.0
O12 O 0.99433 0.32497 0.14178 0.0
O13 O 0.15227 0.32405 0.13172 0.0
O14 O 0.02075 0.33664 0.10964 0.0
O15 O 0.11304 0.3409 0.105 0.0
C16 C 0.09398 0.30926 0.18863 0.0
C17 C 0.04918 0.23833 0.07955 0.0
C18 C 0.0067 0.20931 0.16297 0.0
C19 C 0.14409 0.19756 0.13261 0.0
C20 C 0.99386 0.34141 0.12334 0.0
C21 C 0.14395 0.34555 0.11564 0.0
O22 O 0.06053 0.31452 0.18078 0.0
O23 O 0.26607 0.63316 0.35283 0.0
Zn24 Zn 0.23916 0.64222 0.38113 0.0
O25 O 0.24334 0.59631 0.39896 0.0
Zn26 Zn 0.19311 0.57512 0.40448 0.0
Zn27 Zn 0.27473 0.55773 0.38454 0.0
Zn28 Zn 0.26686 0.60963 0.4263 0.0
O29 O 0.18595 0.5664 0.43631 0.0
O30 O 0.22962 0.60487 0.45113 0.0
O31 O 0.18317 0.65742 0.37601 0.0
O32 O 0.1524 0.61149 0.39409 0.0
O33 O 0.18482 0.52566 0.38813 0.0
O34 O 0.24182 0.51536 0.37317 0.0
O35 O 0.31293 0.53354 0.40485 0.0
O36 O 0.27083 0.68553 0.39385 0.0
O37 O 0.3075 0.57138 0.43357 0.0
O38 O 0.29336 0.66082 0.42444 0.0
C39 C 0.29249 0.60977 0.34723 0.0
C40 C 0.20096 0.58226 0.45286 0.0
C41 C 0.20695 0.50583 0.37608 0.0
C42 C 0.15201 0.64199 0.38266 0.0
C43 C 0.32262 0.54275 0.42402 0.0
C44 C 0.29246 0.68774 0.41045 0.0
O45 O 0.30135 0.58083 0.35885 0.0
O46 O 0.88898 0.71232 0.68181 0.0
Zn47 Zn 0.88219 0.72275 0.64982 0.0
O48 O 0.93284 0.72168 0.63565 0.0
Zn49 Zn 0.94599 0.77281 0.62549 0.0
Zn50 Zn 0.97275 0.70415 0.65554 0.0
Zn51 Zn 0.93178 0.68708 0.61116 0.0
O52 O 0.95698 0.7735 0.59378 0.0
O53 O 0.94186 0.71453 0.58311 0.0
O54 O 0.8561 0.77529 0.64629 0.0
O55 O 0.90211 0.80856 0.62994 0.0
O56 O 0.99076 0.79491 0.64143 0.0
O57 O 0.01156 0.74509 0.6605 0.0
O58 O 0.00159 0.6575 0.64503 0.0
O59 O 0.84797 0.68022 0.63771 0.0
O60 O 0.97145 0.6461 0.61407 0.0
O61 O 0.88207 0.65945 0.60965 0.0
C62 C 0.91724 0.70047 0.69312 0.0
C63 C 0.95286 0.74862 0.57889 0.0
C64 C 0.01463 0.77987 0.65448 0.0
C65 C 0.8686 0.80655 0.63803 0.0
C66 C 0.9968 0.63751 0.62803 0.0
C67 C 0.85208 0.6581 0.62137 0.0
O68 O 0.95009 0.69436 0.68473 0.0
O69 O 0.77597 0.36664 0.92897 0.0
Zn70 Zn 0.75708 0.36269 0.89801 0.0
O71 O 0.74827 0.41424 0.88764 0.0
Zn72 Zn 0.69445 0.42616 0.88919 0.0
Zn73 Zn 0.77829 0.44994 0.90438 0.0
Zn74 Zn 0.76443 0.41843 0.85834 0.0
O75 O 0.67149 0.43178 0.85941 0.0
O76 O 0.71976 0.41309 0.83828 0.0
O77 O 0.70677 0.33224 0.89721 0.0
O78 O 0.6662 0.3812 0.90111 0.0
O79 O 0.68403 0.47189 0.90822 0.0
O80 O 0.74267 0.48499 0.9202 0.0
O81 O 0.81156 0.48469 0.88591 0.0
O82 O 0.79981 0.33837 0.88004 0.0
O83 O 0.78719 0.47021 0.85368 0.0
O84 O 0.80516 0.37905 0.8524 0.0
C85 C 0.7981 0.39151 0.93763 0.0
C86 C 0.68458 0.42203 0.84093 0.0
C87 C 0.7067 0.49129 0.92013 0.0
C88 C 0.67299 0.34524 0.90077 0.0
C89 C 0.80732 0.49176 0.86582 0.0
C90 C 0.81621 0.34908 0.86252 0.0
O91 O 0.80669 0.42273 0.92794 0.0
O92 O 0.63019 0.20845 0.55914 0.0
Zn93 Zn 0.62927 0.22207 0.5909 0.0
O94 O 0.57603 0.22309 0.60088 0.0
Zn95 Zn 0.5604 0.2746 0.60835 0.0
Zn96 Zn 0.54174 0.20421 0.57842 0.0
Zn97 Zn 0.57124 0.19229 0.6267 0.0
O98 O 0.53943 0.27839 0.63838 0.0
O99 O 0.56267 0.22521 0.65326 0.0
O100 O 0.65532 0.27408 0.59573 0.0
O101 O 0.60622 0.30834 0.60834 0.0
O102 O 0.52344 0.29697 0.58697 0.0
O103 O 0.51148 0.24752 0.56542 0.0
O104 O 0.50377 0.16553 0.59026 0.0
O105 O 0.65865 0.17907 0.60607 0.0
O106 O 0.52577 0.15816 0.62379 0.0
O107 O 0.61696 0.15819 0.63062 0.0
C108 C 0.6063 0.19067 0.54713 0.0
C109 C 0.54659 0.25802 0.655 0.0
C110 C 0.50694 0.28267 0.57048 0.0
C111 C 0.64142 0.30542 0.60315 0.0
C112 C 0.50181 0.15009 0.60894 0.0
C113 C 0.64946 0.1559 0.62126 0.0
O114 O 0.5723 0.18323 0.55357 0.0
O115 O 0.27109 0.12813 0.79027 0.0
Zn116 Zn 0.25506 0.13908 0.82134 0.0
O117 O 0.24437 0.09003 0.83564 0.0
Zn118 Zn 0.18958 0.0828 0.83745 0.0
Zn119 Zn 0.2665 0.04748 0.81977 0.0
Zn120 Zn 0.26595 0.08964 0.86427 0.0
O121 O 0.17193 0.08327 0.86825 0.0
O122 O 0.22498 0.09473 0.88706 0.0
O123 O 0.2065 0.17279 0.82063 0.0
O124 O 0.16258 0.12671 0.8238 0.0
O125 O 0.17172 0.03466 0.823 0.0
O126 O 0.22683 0.00835 0.81285 0.0
O127 O 0.30708 0.0188 0.83625 0.0
O128 O 0.29968 0.16575 0.83658 0.0
O129 O 0.29499 0.04082 0.8694 0.0
O130 O 0.30469 0.13163 0.8669 0.0
C131 C 0.28243 0.09739 0.78092 0.0
C132 C 0.18876 0.08998 0.88612 0.0
C133 C 0.1905 0.00731 0.81436 0.0
C134 C 0.17165 0.16139 0.81981 0.0
C135 C 0.31185 0.01757 0.85664 0.0
C136 C 0.31594 0.15896 0.85472 0.0
O137 O 0.28428 0.06543 0.79091 0.0
O138 O 0.38307 0.79173 0.045 0.0
Zn139 Zn 0.37266 0.77742 0.07635 0.0
O140 O 0.42159 0.77485 0.09206 0.0
Zn141 Zn 0.43439 0.72179 0.09909 0.0
Zn142 Zn 0.46307 0.79649 0.07485 0.0
Zn143 Zn 0.41712 0.80424 0.11845 0.0
O144 O 0.43984 0.71425 0.13125 0.0
O145 O 0.4214 0.7706 0.14456 0.0
O146 O 0.34504 0.72548 0.07763 0.0
O147 O 0.39156 0.68741 0.08994 0.0
O148 O 0.4824 0.70362 0.08408 0.0
O149 O 0.50241 0.75689 0.06798 0.0
O150 O 0.49067 0.84008 0.08947 0.0
O151 O 0.33865 0.82002 0.08875 0.0
O152 O 0.45812 0.844 0.1203 0.0
O153 O 0.3685 0.83396 0.11945 0.0
C154 C 0.4121 0.80739 0.03595 0.0
C155 C 0.43209 0.73593 0.14728 0.0
C156 C 0.50655 0.72142 0.07229 0.0
C157 C 0.35776 0.69216 0.08262 0.0
C158 C 0.48467 0.85559 0.10779 0.0
C159 C 0.34088 0.83912 0.10635 0.0
O160 O 0.44317 0.81319 0.04624 0.0
O161 O 0.76645 0.86126 0.38271 0.0
Zn162 Zn 0.73914 0.85183 0.35465 0.0
O163 O 0.74409 0.89646 0.33616 0.0
Zn164 Zn 0.69462 0.92027 0.33245 0.0
Zn165 Zn 0.77951 0.93226 0.34931 0.0
Zn166 Zn 0.76458 0.88145 0.30834 0.0
O167 O 0.68504 0.92845 0.30077 0.0
O168 O 0.72443 0.88628 0.28509 0.0
O169 O 0.68329 0.83811 0.36051 0.0
O170 O 0.65277 0.88607 0.34409 0.0
O171 O 0.69145 0.97028 0.34901 0.0
O172 O 0.75054 0.97624 0.36209 0.0
O173 O 0.81602 0.95483 0.32764 0.0
O174 O 0.76965 0.80766 0.34212 0.0
O175 O 0.80521 0.91842 0.29887 0.0
O176 O 0.79063 0.82985 0.31052 0.0
C177 C 0.79705 0.88032 0.38622 0.0
C178 C 0.69706 0.91066 0.28402 0.0
C179 C 0.71618 0.98829 0.36031 0.0
C180 C 0.65222 0.85504 0.35506 0.0
C181 C 0.82272 0.94603 0.30801 0.0
C182 C 0.79033 0.80402 0.32518 0.0
O183 O 0.80854 0.90628 0.37319 0.0
C184 C 0.98155 0.14354 0.17143 0.0
C185 C 0.98582 0.18236 0.17723 0.0
C186 C 0.9647 0.11749 0.18577 0.0
C187 C 0.90474 0.11208 0.2353 0.0
H188 H 0.94954 0.01028 0.24025 0.0
C189 C 0.85934 0.00703 0.3023 0.0
C190 C 0.84847 0.97043 0.29489 0.0
C191 C 0.87906 0.03222 0.28866 0.0
C192 C 0.93673 0.03858 0.23896 0.0
H193 H 0.97516 0.22441 0.20252 0.0
H194 H 0.94655 0.17894 0.22763 0.0
H195 H 0.97621 0.05608 0.21433 0.0
H196 H 0.85177 0.93067 0.26786 0.0
H197 H 0.88652 0.97461 0.24415 0.0
H198 H 0.86554 0.09461 0.26011 0.0
C199 C 0.95555 0.16867 0.21186 0.0
C200 C 0.95179 0.06473 0.22405 0.0
C201 C 0.9721 0.19475 0.19747 0.0
C202 C 0.85957 0.95876 0.27401 0.0
C203 C 0.8796 0.98382 0.26046 0.0
C204 C 0.88995 0.08606 0.25032 0.0
C205 C 0.95201 0.12967 0.20628 0.0
C206 C 0.93586 0.10174 0.22199 0.0
C207 C 0.88863 0.0211 0.26747 0.0
C208 C 0.90572 0.04907 0.25225 0.0
H209 H 0.99165 0.13313 0.1559 0.0
H210 H 0.96172 0.08779 0.18081 0.0
H211 H 0.89139 0.14009 0.23389 0.0
H212 H 0.85126 0.01687 0.31831 0.0
H213 H 0.88615 0.06069 0.29452 0.0
C214 C 0.36326 0.53034 0.45648 0.0
C215 C 0.34868 0.51769 0.43651 0.0
C216 C 0.38252 0.50496 0.47013 0.0
C217 C 0.42943 0.40981 0.47329 0.0
H218 H 0.3973 0.4155 0.5334 0.0
C219 C 0.47096 0.29428 0.53602 0.0
C220 C 0.48478 0.30809 0.55593 0.0
C221 C 0.45358 0.31923 0.52128 0.0
C222 C 0.40678 0.41375 0.51671 0.0
H223 H 0.34488 0.46906 0.41463 0.0
H224 H 0.37831 0.42451 0.43865 0.0
H225 H 0.37148 0.46108 0.50727 0.0
H226 H 0.48996 0.35872 0.57627 0.0
H227 H 0.45961 0.40216 0.55055 0.0
H228 H 0.46463 0.36224 0.48282 0.0
C229 C 0.37498 0.45416 0.44366 0.0
C230 C 0.39213 0.43993 0.50176 0.0
C231 C 0.35581 0.47968 0.42991 0.0
C232 C 0.47964 0.34712 0.56109 0.0
C233 C 0.46214 0.37201 0.54638 0.0
C234 C 0.44406 0.38352 0.48827 0.0
C235 C 0.38748 0.4663 0.46418 0.0
C236 C 0.40347 0.43842 0.47991 0.0
C237 C 0.44948 0.35843 0.5262 0.0
C238 C 0.43299 0.38538 0.51015 0.0
H239 H 0.35868 0.5596 0.46192 0.0
H240 H 0.39271 0.51539 0.48561 0.0
H241 H 0.4389 0.40811 0.4566 0.0
H242 H 0.4744 0.26436 0.53154 0.0
H243 H 0.44356 0.30789 0.50597 0.0
C244 C 0.03437 0.84379 0.66854 0.0
C245 C 0.04232 0.80448 0.66585 0.0
C246 C 0.05404 0.86499 0.68411 0.0
C247 C 0.13643 0.87151 0.71943 0.0
H248 H 0.06346 0.90694 0.76263 0.0
C249 C 0.18921 0.94264 0.79714 0.0
C250 C 0.16994 0.97663 0.80288 0.0
C251 C 0.17305 0.91742 0.78219 0.0
C252 C 0.0842 0.89761 0.75065 0.0
H253 H 0.07985 0.75761 0.67537 0.0
H254 H 0.11496 0.79523 0.70225 0.0
H255 H 0.04034 0.87562 0.72987 0.0
H256 H 0.11758 0.0096 0.7988 0.0
H257 H 0.0899 0.96642 0.77228 0.0
H258 H 0.1803 0.89471 0.73964 0.0
C259 C 0.09308 0.80923 0.6926 0.0
C260 C 0.07095 0.87977 0.73194 0.0
C261 C 0.07298 0.78781 0.67728 0.0
C262 C 0.13302 0.98353 0.79472 0.0
C263 C 0.11713 0.95866 0.77951 0.0
C264 C 0.14972 0.89002 0.73799 0.0
C265 C 0.08236 0.84734 0.69681 0.0
C266 C 0.09695 0.86692 0.71616 0.0
C267 C 0.13762 0.92608 0.77248 0.0
C268 C 0.12371 0.9035 0.75376 0.0
H269 H 0.01092 0.8574 0.65995 0.0
H270 H 0.04572 0.89456 0.68706 0.0
H271 H 0.15685 0.86154 0.70743 0.0
H272 H 0.21756 0.93642 0.80345 0.0
H273 H 0.18903 0.89197 0.7776 0.0
C274 C 0.53971 0.6597 0.06278 0.0
C275 C 0.53748 0.69997 0.06124 0.0
C276 C 0.56447 0.63912 0.04926 0.0
C277 C 0.63067 0.60484 0.0225 0.0
H278 H 0.61638 0.63329 0.96223 0.0
C279 C 0.71398 0.53373 0.95243 0.0
C280 C 0.69094 0.51971 0.93549 0.0
C281 C 0.69848 0.5579 0.96816 0.0
C282 C 0.62066 0.62514 0.97899 0.0
H283 H 0.5619 0.7504 0.04565 0.0
H284 H 0.60479 0.71437 0.02208 0.0
H285 H 0.58575 0.67128 -0.00934 0.0
H286 H 0.63396 0.5211 0.92136 0.0
H287 H 0.60702 0.564 0.9488 0.0
H288 H 0.66517 0.5583 0.0107 0.0
C289 C 0.58701 0.6988 0.03351 0.0
C290 C 0.60349 0.64701 -0.00476 0.0
C291 C 0.5625 0.71936 0.04707 0.0
C292 C 0.65239 0.53139 0.93422 0.0
C293 C 0.63703 0.55599 0.94985 0.0
C294 C 0.64826 0.58322 0.00622 0.0
C295 C 0.58723 0.65851 0.03397 0.0
C296 C 0.60804 0.63682 0.01711 0.0
C297 C 0.65982 0.56892 0.96711 0.0
C298 C 0.64298 0.59296 0.98434 0.0
H299 H 0.52097 0.64393 0.07361 0.0
H300 H 0.56413 0.60799 0.04987 0.0
H301 H 0.63456 0.59649 0.03925 0.0
H302 H 0.74379 0.52523 0.95391 0.0
H303 H 0.71667 0.56784 0.98123 0.0
C304 C 0.07167 0.33545 0.22422 0.0
C305 C 0.10178 0.32205 0.21102 0.0
C306 C 0.07887 0.34785 0.2453 0.0
C307 C 0.15162 0.34586 0.28911 0.0
H308 H 0.10452 0.44259 0.3056 0.0
C309 C 0.21581 0.45035 0.3509 0.0
C310 C 0.19118 0.47346 0.36341 0.0
C311 C 0.20089 0.42419 0.33604 0.0
C312 C 0.11726 0.4151 0.30152 0.0
H313 H 0.16299 0.31057 0.20979 0.0
H314 H 0.17568 0.33307 0.24643 0.0
H315 H 0.08621 0.41215 0.27179 0.0
H316 H 0.13156 0.48499 0.37138 0.0
H317 H 0.10552 0.4391 0.34537 0.0
H318 H 0.18383 0.34983 0.31854 0.0
C319 C 0.14638 0.33332 0.24059 0.0
C320 C 0.10681 0.39767 0.28208 0.0
C321 C 0.13916 0.32075 0.21952 0.0
C322 C 0.15132 0.46784 0.36186 0.0
C323 C 0.13638 0.44171 0.34691 0.0
C324 C 0.16214 0.36338 0.30856 0.0
C325 C 0.11636 0.34729 0.25365 0.0
C326 C 0.12451 0.36332 0.27541 0.0
C327 C 0.16103 0.4206 0.33334 0.0
C328 C 0.1457 0.39865 0.31471 0.0
H329 H 0.04244 0.33643 0.21828 0.0
H330 H 0.05505 0.35797 0.25505 0.0
H331 H 0.16524 0.31902 0.28459 0.0
H332 H 0.24668 0.4537 0.35183 0.0
H333 H 0.22066 0.40856 0.32573 0.0
C334 C 0.0638 0.61636 0.62201 0.0
C335 C 0.02456 0.60752 0.62223 0.0
C336 C 0.08885 0.59521 0.60894 0.0
C337 C 0.07654 0.54778 0.557 0.0
H338 H 0.18771 0.55192 0.55658 0.0
C339 C 0.15854 0.54321 0.47701 0.0
C340 C 0.18577 0.57272 0.47457 0.0
C341 C 0.14396 0.53409 0.49741 0.0
C342 C 0.15665 0.55041 0.55652 0.0
H343 H 0.9815 0.56646 0.61222 0.0
H344 H 0.02562 0.52785 0.59057 0.0
H345 H 0.1532 0.55488 0.59107 0.0
H346 H 0.22004 0.61487 0.49176 0.0
H347 H 0.19357 0.59979 0.52731 0.0
H348 H 0.07962 0.54523 0.5226 0.0
C349 C 0.03691 0.55216 0.59946 0.0
C350 C 0.1369 0.552 0.57624 0.0
C351 C 0.01169 0.57398 0.61199 0.0
C352 C 0.1989 0.59217 0.49307 0.0
C353 C 0.1841 0.58318 0.51348 0.0
C354 C 0.0962 0.54598 0.53742 0.0
C355 C 0.07494 0.56459 0.59626 0.0
C356 C 0.09651 0.55237 0.57663 0.0
C357 C 0.15604 0.55444 0.51582 0.0
C358 C 0.13636 0.54884 0.53687 0.0
H359 H 0.07427 0.64223 0.62979 0.0
H360 H 0.11791 0.60567 0.60701 0.0
H361 H 0.04549 0.54873 0.55642 0.0
H362 H 0.14827 0.52718 0.46316 0.0
H363 H 0.1227 0.5115 0.49872 0.0
C364 C 0.80262 0.5467 0.84061 0.0
C365 C 0.82379 0.52677 0.85631 0.0
C366 C 0.81847 0.5781 0.82995 0.0
C367 C 0.90762 0.60757 0.80847 0.0
H368 H 0.84896 0.6972 0.79099 0.0
C369 C 0.94409 0.68714 0.72993 0.0
C370 C 0.91205 0.69343 0.71654 0.0
C371 C 0.93924 0.67818 0.75179 0.0
C372 C 0.86585 0.67245 0.79577 0.0
H373 H 0.87744 0.52464 0.87396 0.0
H374 H 0.90625 0.5792 0.85435 0.0
H375 H 0.82925 0.66055 0.82285 0.0
H376 H 0.8499 0.69687 0.7158 0.0
H377 H 0.84134 0.68003 0.75368 0.0
H378 H 0.94221 0.61717 0.78046 0.0
C379 C 0.87704 0.57074 0.85072 0.0
C380 C 0.85477 0.65175 0.81409 0.0
C381 C 0.86068 0.53966 0.86185 0.0
C382 C 0.87516 0.69209 0.72566 0.0
C383 C 0.8703 0.68283 0.74748 0.0
C384 C 0.91852 0.62806 0.79003 0.0
C385 C 0.85613 0.58983 0.83449 0.0
C386 C 0.87444 0.61806 0.81993 0.0
C387 C 0.90226 0.67505 0.76071 0.0
C388 C 0.89654 0.65955 0.78287 0.0
H389 H 0.77393 0.53749 0.83624 0.0
H390 H 0.80195 0.59188 0.81727 0.0
H391 H 0.92306 0.5815 0.81254 0.0
H392 H 0.97298 0.68858 0.72347 0.0
H393 H 0.96445 0.67289 0.7616 0.0
C394 C 0.96249 0.3912 0.10083 0.0
C395 C 0.95899 0.36091 0.11569 0.0
C396 C 0.93172 0.4011 0.08756 0.0
C397 C 0.86017 0.34754 0.05961 0.0
H398 H 0.83995 0.44561 0.03207 0.0
C399 C 0.79315 0.35943 0.97395 0.0
C400 C 0.81069 0.38667 0.96032 0.0
C401 C 0.80184 0.35839 -0.00395 0.0
C402 C 0.84529 0.41798 0.03959 0.0
H403 H 0.91971 0.31999 0.13013 0.0
H404 H 0.8658 0.33694 0.10658 0.0
H405 H 0.86875 0.44402 0.06808 0.0
H406 H 0.85213 0.43321 0.95909 0.0
H407 H 0.86803 0.43061 -0.00271 0.0
H408 H 0.8393 0.32138 0.03062 0.0
C409 C 0.8923 0.35307 0.10526 0.0
C410 C 0.8614 0.41714 0.06027 0.0
C411 C 0.923 0.3436 0.11884 0.0
C412 C 0.83789 0.41201 0.96913 0.0
C413 C 0.84665 0.41086 -0.00887 0.0
C414 C 0.84428 0.34837 0.03888 0.0
C415 C 0.89715 0.38041 0.08871 0.0
C416 C 0.87047 0.38189 0.07009 0.0
C417 C 0.8283 0.3845 0.00492 0.0
C418 C 0.83825 0.38359 0.02828 0.0
H419 H 0.99001 0.40494 0.09816 0.0
H420 H 0.93644 0.42218 0.07492 0.0
H421 H 0.86728 0.3199 0.06665 0.0
H422 H 0.77182 0.33971 0.96769 0.0
H423 H 0.78725 0.3377 0.00626 0.0
C424 C 0.6554 0.18603 0.51753 0.0
C425 C 0.61803 0.17872 0.52512 0.0
C426 C 0.66656 0.17406 0.49688 0.0
C427 C 0.62925 0.14041 0.44403 0.0
H428 H 0.72577 0.08509 0.44131 0.0
C429 C 0.6657 0.02738 0.37899 0.0
C430 C 0.70437 0.0219 0.37329 0.0
C431 C 0.65562 0.05493 0.39445 0.0
C432 C 0.69915 0.10119 0.44157 0.0
H433 H 0.56279 0.15397 0.51669 0.0
H434 H 0.58254 0.13263 0.48087 0.0
H435 H 0.70754 0.11741 0.47456 0.0
H436 H 0.7623 0.04343 0.37762 0.0
H437 H 0.74458 0.09206 0.40415 0.0
H438 H 0.62047 0.12311 0.41111 0.0
C439 C 0.60303 0.14804 0.49078 0.0
C440 C 0.68867 0.11967 0.46069 0.0
C441 C 0.59187 0.15995 0.51141 0.0
C442 C 0.73232 0.04654 0.38199 0.0
C443 C 0.7222 0.07429 0.39724 0.0
C444 C 0.6398 0.12194 0.42482 0.0
C445 C 0.6406 0.1546 0.48338 0.0
C446 C 0.65329 0.13882 0.46228 0.0
C447 C 0.684 0.07771 0.40431 0.0
C448 C 0.67456 0.10151 0.42353 0.0
H449 H 0.67618 0.20069 0.52759 0.0
H450 H 0.69562 0.17984 0.49152 0.0
H451 H 0.60202 0.15542 0.44471 0.0
H452 H 0.64353 0.00884 0.37254 0.0
H453 H 0.62594 0.05666 0.39962 0.0
C454 C 0.30508 0.13099 0.74736 0.0
C455 C 0.29155 0.09769 0.75761 0.0
C456 C 0.31551 0.12999 0.72549 0.0
C457 C 0.3473 0.06014 0.68421 0.0
H458 H 0.35005 0.1522 0.64893 0.0
C459 C 0.43167 0.13565 0.60741 0.0
C460 C 0.46853 0.12639 0.615 0.0
C461 C 0.39921 0.12194 0.61834 0.0
C462 C 0.34864 0.12577 0.65817 0.0
H463 H 0.27551 0.03803 0.75277 0.0
H464 H 0.29234 0.03664 0.7146 0.0
H465 H 0.31105 0.15114 0.68154 0.0
H466 H 0.50063 0.09172 0.6378 0.0
H467 H 0.44468 0.06796 0.65675 0.0
H468 H 0.3853 0.03499 0.66098 0.0
C469 C 0.29641 0.06315 0.72349 0.0
C470 C 0.32682 0.12545 0.67715 0.0
C471 C 0.28675 0.06396 0.74539 0.0
C472 C 0.47246 0.09958 0.6318 0.0
C473 C 0.44022 0.08573 0.64257 0.0
C474 C 0.36866 0.06029 0.66509 0.0
C475 C 0.31187 0.09584 0.71336 0.0
C476 C 0.32761 0.09339 0.691 0.0
C477 C 0.40333 0.09861 0.63682 0.0
C478 C 0.37141 0.09386 0.65254 0.0
H479 H 0.30892 0.15738 0.75641 0.0
H480 H 0.3279 0.15561 0.71839 0.0
H481 H 0.34868 0.03481 0.69436 0.0
H482 H 0.42792 0.15624 0.59442 0.0
H483 H 0.37111 0.13182 0.6133 0.0
C484 C 0.37663 0.81422 0.00077 0.0
C485 C 0.41013 0.81962 0.01305 0.0
C486 C 0.37458 0.82796 0.97953 0.0
C487 C 0.41295 0.90547 0.94701 0.0
H488 H 0.36213 0.85388 0.89939 0.0
C489 C 0.37198 0.9915 0.87233 0.0
C490 C 0.33374 0.98607 0.86615 0.0
C491 C 0.39014 0.96433 0.88548 0.0
C492 C 0.37644 0.86865 0.91252 0.0
H493 H 0.46841 0.84196 0.01224 0.0
H494 H 0.46449 0.86608 0.97539 0.0
H495 H 0.37611 0.81837 0.93265 0.0
H496 H 0.28471 0.94814 0.86758 0.0
H497 H 0.31564 0.90121 0.89103 0.0
H498 H 0.41122 0.95628 0.92782 0.0
C499 C 0.43982 0.85148 0.98223 0.0
C500 C 0.38443 0.84831 0.93151 0.0
C501 C 0.44196 0.83767 0.00337 0.0
C502 C 0.31446 0.95241 0.8721 0.0
C503 C 0.33235 0.92549 0.88541 0.0
C504 C 0.40461 0.92588 0.9282 0.0
C505 C 0.4059 0.84743 0.97026 0.0
C506 C 0.4019 0.86685 0.9491 0.0
C507 C 0.36992 0.93185 0.89296 0.0
C508 C 0.38527 0.90805 0.91094 0.0
H509 H 0.35172 0.80022 0.0077 0.0
H510 H 0.34793 0.8248 0.97069 0.0
H511 H 0.42606 0.92062 0.96042 0.0
H512 H 0.38711 0.01755 0.86789 0.0
H513 H 0.41932 0.96974 0.89067 0.0
C514 C 0.49713 0.91558 0.12817 0.0
C515 C 0.51136 0.8845 0.11616 0.0
C516 C 0.52159 0.9366 0.14151 0.0
C517 C 0.62271 0.94045 0.16263 0.0
H518 H 0.56886 0.94137 0.21763 0.0
C519 C 0.69203 0.90076 0.24393 0.0
C520 C 0.67974 0.91974 0.2628 0.0
C521 C 0.67532 0.90931 0.22396 0.0
C522 C 0.58437 0.94221 0.20242 0.0
H523 H 0.56239 0.8532 0.1067 0.0
H524 H 0.60485 0.88819 0.1309 0.0
H525 H 0.53268 0.93704 0.18452 0.0
H526 H 0.64143 0.96381 0.27531 0.0
H527 H 0.61229 0.97849 0.2405 0.0
H528 H 0.67471 0.94283 0.18114 0.0
C529 C 0.57525 0.89745 0.12971 0.0
C530 C 0.56354 0.93994 0.18327 0.0
C531 C 0.55091 0.87717 0.11587 0.0
C532 C 0.65123 0.94824 0.26116 0.0
C533 C 0.6346 0.95679 0.24121 0.0
C534 C 0.64365 0.9424 0.18191 0.0
C535 C 0.56032 0.92576 0.1437 0.0
C536 C 0.58243 0.9376 0.16315 0.0
C537 C 0.64603 0.937 0.22247 0.0
C538 C 0.62462 0.94197 0.20199 0.0
H539 H 0.46667 0.92197 0.12834 0.0
H540 H 0.50943 0.95917 0.15146 0.0
H541 H 0.63815 0.93939 0.14742 0.0
H542 H 0.71413 0.87886 0.24459 0.0
H543 H 0.68431 0.89316 0.20984 0.0
C544 C 0.18281 0.09881 0.92618 0.0
C545 C 0.16528 0.09524 0.90582 0.0
C546 C 0.16089 0.1078 0.94442 0.0
C547 C 0.07498 0.16022 0.95914 0.0
H548 H 0.09387 0.11659 0.01591 0.0
C549 C 0.05735 0.24164 0.03932 0.0
C550 C 0.0457 0.22109 0.05778 0.0
C551 C 0.0612 0.22296 0.01944 0.0
C552 C 0.08767 0.12864 0.00012 0.0
H553 H 0.11075 0.0967 0.88877 0.0
H554 H 0.07267 0.1128 0.92067 0.0
H555 H 0.1226 0.08675 0.98404 0.0
H556 H 0.02548 0.16567 0.06939 0.0
H557 H 0.0324 0.13324 0.03469 0.0
H558 H 0.04131 0.20306 0.97535 0.0
C559 C 0.10334 0.1087 0.92243 0.0
C560 C 0.10442 0.11177 0.98194 0.0
C561 C 0.12518 0.09934 0.90423 0.0
C562 C 0.03499 0.18229 0.05556 0.0
C563 C 0.03902 0.16361 0.03571 0.0
C564 C 0.05848 0.17731 0.97736 0.0
C565 C 0.12111 0.11367 0.9426 0.0
C566 C 0.099 0.12797 0.96137 0.0
C567 C 0.05353 0.18343 0.01769 0.0
C568 C 0.06544 0.16219 -0.00194 0.0
H569 H 0.21358 0.09568 0.92796 0.0
H570 H 0.17534 0.11182 0.95977 0.0
H571 H 0.07056 0.17343 0.94345 0.0
H572 H 0.06555 0.27161 0.04045 0.0
H573 H 0.07263 0.23891 0.00581 0.0
C574 C 0.44126 0.68089 0.17304 0.0
C575 C 0.43286 0.71994 0.16944 0.0
C576 C 0.43737 0.665 0.19371 0.0
C577 C 0.42175 0.69061 0.25165 0.0
H578 H 0.36089 0.59726 0.25262 0.0
C579 C 0.31503 0.65527 0.31878 0.0
C580 C 0.31499 0.61799 0.32753 0.0
C581 C 0.33764 0.6639 0.30082 0.0
C582 C 0.37851 0.62292 0.25263 0.0
H583 H 0.41599 0.77336 0.18497 0.0
H584 H 0.40847 0.74565 0.22068 0.0
H585 H 0.38829 0.61964 0.21852 0.0
H586 H 0.33826 0.56038 0.32421 0.0
H587 H 0.37716 0.57545 0.29221 0.0
H588 H 0.40973 0.69504 0.28557 0.0
C589 C 0.41855 0.72728 0.20771 0.0
C590 C 0.39435 0.6357 0.23314 0.0
C591 C 0.42252 0.74314 0.18712 0.0
C592 C 0.33774 0.58937 0.3178 0.0
C593 C 0.35997 0.59792 0.29955 0.0
C594 C 0.40558 0.67804 0.27106 0.0
C595 C 0.42503 0.68786 0.21115 0.0
C596 C 0.41499 0.67043 0.23232 0.0
C597 C 0.3603 0.63536 0.29107 0.0
C598 C 0.38279 0.6448 0.27153 0.0
H599 H 0.44961 0.66229 0.15978 0.0
H600 H 0.44305 0.63464 0.19593 0.0
H601 H 0.43823 0.71701 0.25163 0.0
H602 H 0.29803 0.67802 0.32599 0.0
H603 H 0.33698 0.69285 0.29434 0.0
C604 C 0.80626 0.84635 0.42134 0.0
C605 C 0.82139 0.86927 0.40471 0.0
C606 C 0.83 0.83231 0.43764 0.0
C607 C 0.88819 0.78643 0.46204 0.0
H608 H 0.96429 0.85058 0.49002 0.0
C609 C 0.95782 0.73361 0.53937 0.0
C610 C 0.9566 0.76086 0.55612 0.0
C611 C 0.95413 0.74523 0.51784 0.0
C612 C 0.94323 0.83224 0.48233 0.0
H613 H 0.87314 0.89622 0.39231 0.0
H614 H 0.91485 0.87111 0.42072 0.0
H615 H 0.92914 0.87529 0.45889 0.0
H616 H 0.95396 0.82186 0.5634 0.0
H617 H 0.94581 0.84192 0.5262 0.0
H618 H 0.89972 0.74458 0.4863 0.0
C619 C 0.88452 0.86438 0.42127 0.0
C620 C 0.92335 0.84628 0.46436 0.0
C621 C 0.86061 0.8788 0.40503 0.0
C622 C 0.95478 0.8001 0.55086 0.0
C623 C 0.95044 0.81166 0.5294 0.0
C624 C 0.90762 0.77262 0.48012 0.0
C625 C 0.86954 0.84046 0.43754 0.0
C626 C 0.8946 0.82401 0.45455 0.0
C627 C 0.9484 0.78425 0.51271 0.0
C628 C 0.93441 0.79585 0.49097 0.0
H629 H 0.77608 0.83883 0.42165 0.0
H630 H 0.81732 0.81493 0.45032 0.0
H631 H 0.86699 0.76812 0.45444 0.0
H632 H 0.95995 0.70318 0.54294 0.0
H633 H 0.95379 0.72345 0.50532 0.0
C634 C 0.55528 0.25727 0.69527 0.0
C635 C 0.54076 0.27533 0.67664 0.0
C636 C 0.55689 0.27713 0.71491 0.0
C637 C 0.55088 0.32394 0.75645 0.0
H638 H 0.60108 0.42211 0.74704 0.0
C639 C 0.61867 0.40974 0.82646 0.0
C640 C 0.65782 0.41705 0.82265 0.0
C641 C 0.59465 0.39877 0.80944 0.0
C642 C 0.58663 0.39502 0.74994 0.0
H643 H 0.51287 0.32696 0.66457 0.0
H644 H 0.51572 0.36141 0.69883 0.0
H645 H 0.57367 0.38767 0.71642 0.0
H646 H 0.7019 0.42115 0.79794 0.0
H647 H 0.65991 0.4026 0.76824 0.0
H648 H 0.56589 0.33047 0.78985 0.0
C649 C 0.52647 0.3322 0.69813 0.0
C650 C 0.57063 0.37541 0.73245 0.0
C651 C 0.52481 0.31237 0.67853 0.0
C652 C 0.67191 0.41555 0.80136 0.0
C653 C 0.6478 0.40516 0.78435 0.0
C654 C 0.56666 0.34374 0.77399 0.0
C655 C 0.54398 0.31537 0.71627 0.0
C656 C 0.55377 0.33905 0.73541 0.0
C657 C 0.60924 0.39562 0.78831 0.0
C658 C 0.58589 0.37879 0.77073 0.0
H659 H 0.56758 0.22869 0.69442 0.0
H660 H 0.57073 0.26344 0.72858 0.0
H661 H 0.53779 0.29612 0.7592 0.0
H662 H 0.60704 0.41051 0.84273 0.0
H663 H 0.56497 0.3917 0.81287 0.0
C664 C 0.16629 0.14206 0.11079 0.0
C665 C 0.17101 0.16536 0.12918 0.0
C666 C 0.1871 0.10813 0.10847 0.0
C667 C 0.2309 0.03262 0.14064 0.0
H668 H 0.27324 -0.00056 0.08562 0.0
C669 C 0.31688 0.89172 0.13037 0.0
C670 C 0.31454 0.8718 0.11058 0.0
C671 C 0.29808 0.92679 0.1332 0.0
C672 C 0.261 0.00799 0.10101 0.0
H673 H 0.20219 0.17225 0.15922 0.0
H674 H 0.23873 0.11202 0.15527 0.0
H675 H 0.24767 0.06437 0.08927 0.0
H676 H 0.28833 0.87199 0.07876 0.0
H677 H 0.25455 0.93291 0.08391 0.0
H678 H 0.24343 0.97605 0.1523 0.0
C679 C 0.21879 0.12034 0.14267 0.0
C680 C 0.24671 0.04533 0.10315 0.0
C681 C 0.19823 0.15487 0.14484 0.0
C682 C 0.29084 0.8866 0.09418 0.0
C683 C 0.27187 0.92177 0.09705 0.0
C684 C 0.24497 0.99514 0.13847 0.0
C685 C 0.21288 0.09636 0.1246 0.0
C686 C 0.23132 0.05799 0.12295 0.0
C687 C 0.27623 0.94283 0.11637 0.0
C688 C 0.26005 0.98228 0.11859 0.0
H689 H 0.14554 0.14956 0.09842 0.0
H690 H 0.18166 0.09019 0.09447 0.0
H691 H 0.21858 0.04136 0.15599 0.0
H692 H 0.33475 0.88115 0.14342 0.0
H693 H 0.30232 0.94219 0.14824 0.0
C694 C 0.32689 0.74395 0.39382 0.0
C695 C 0.32318 0.71739 0.4109 0.0
C696 C 0.36112 0.76441 0.39088 0.0
C697 C 0.46314 0.74954 0.39991 0.0
H698 H 0.47453 0.8548 0.38039 0.0
C699 C 0.61228 0.81333 0.37955 0.0
C700 C 0.61462 0.83964 0.36233 0.0
C701 C 0.57653 0.80083 0.3872 0.0
C702 C 0.47185 0.82517 0.38556 0.0
H703 H 0.35135 0.6946 0.43953 0.0
H704 H 0.41079 0.73024 0.43432 0.0
H705 H 0.41147 0.83145 0.39165 0.0
H706 H 0.58115 0.87268 0.33929 0.0
H707 H 0.51915 0.84985 0.35199 0.0
H708 H 0.52285 0.74244 0.39304 0.0
C709 C 0.38744 0.7347 0.42302 0.0
C710 C 0.43572 0.81195 0.39216 0.0
C711 C 0.35317 0.71452 0.42608 0.0
C712 C 0.58042 0.85259 0.35269 0.0
C713 C 0.54475 0.83974 0.36014 0.0
C714 C 0.49912 0.76257 0.39307 0.0
C715 C 0.39235 0.75859 0.40489 0.0
C716 C 0.43096 0.77393 0.39933 0.0
C717 C 0.54222 0.81394 0.37764 0.0
C718 C 0.504 0.80051 0.38566 0.0
H719 H 0.30442 0.74704 0.38184 0.0
H720 H 0.36402 0.78268 0.37676 0.0
H721 H 0.46027 0.71985 0.40496 0.0
H722 H 0.63804 0.80307 0.38749 0.0
H723 H 0.57587 0.78141 0.4009 0.0
C724 C 0.70987 0.11735 0.61565 0.0
C725 C 0.67513 0.12323 0.6268 0.0
C726 C 0.73155 0.08401 0.61918 0.0
C727 C 0.72026 0.98372 0.63692 0.0
H728 H 0.83139 0.9845 0.63949 0.0
C729 C 0.81058 0.84474 0.64999 0.0
C730 C 0.84463 0.84187 0.63784 0.0
C731 C 0.78958 0.8792 0.65027 0.0
C732 C 0.80036 0.9837 0.63859 0.0
H733 H 0.63689 0.09922 0.65112 0.0
H734 H 0.67474 0.04142 0.65724 0.0
H735 H 0.79648 0.04514 0.63723 0.0
H736 H 0.88254 0.87272 0.61592 0.0
H737 H 0.84584 0.93181 0.61609 0.0
H738 H 0.72411 0.92227 0.63779 0.0
C739 C 0.68493 0.06232 0.64557 0.0
C740 C 0.78038 0.0185 0.63734 0.0
C741 C 0.66339 0.09566 0.64214 0.0
C742 C 0.8567 0.87389 0.62568 0.0
C743 C 0.83576 0.90805 0.62589 0.0
C744 C 0.74025 0.94886 0.63805 0.0
C745 C 0.71889 0.05577 0.63386 0.0
C746 C 0.74013 0.01891 0.63628 0.0
C747 C 0.80218 0.91139 0.63836 0.0
C748 C 0.78059 0.9484 0.63863 0.0
H749 H 0.71976 0.13789 0.6037 0.0
H750 H 0.7575 0.07969 0.60981 0.0
H751 H 0.68923 0.98304 0.63587 0.0
H752 H 0.80053 0.82067 0.65956 0.0
H753 H 0.76391 0.88085 0.66014 0.0
C754 C 0.37045 0.17037 0.88027 0.0
C755 C 0.35105 0.18029 0.86107 0.0
C756 C 0.40576 0.18694 0.88533 0.0
C757 C 0.46727 0.27023 0.87461 0.0
H758 H 0.54884 0.20374 0.89549 0.0
C759 C 0.60454 0.33329 0.91007 0.0
C760 C 0.63931 0.31937 0.90151 0.0
C761 C 0.57026 0.31372 0.90651 0.0
C762 C 0.52638 0.22259 0.88961 0.0
H763 H 0.35329 0.21649 0.83249 0.0
H764 H 0.41499 0.2459 0.84154 0.0
H765 H 0.48666 0.17612 0.88561 0.0
H766 H 0.66575 0.27242 0.88387 0.0
H767 H 0.60542 0.23775 0.8778 0.0
H768 H 0.50686 0.31666 0.87854 0.0
C769 C 0.40269 0.22508 0.8526 0.0
C770 C 0.49073 0.20688 0.88411 0.0
C771 C 0.36733 0.20827 0.84742 0.0
C772 C 0.63946 0.28376 0.89075 0.0
C773 C 0.60492 0.26403 0.88719 0.0
C774 C 0.50273 0.28594 0.88028 0.0
C775 C 0.42255 0.21407 0.87144 0.0
C776 C 0.46073 0.23059 0.87666 0.0
C777 C 0.56983 0.27969 0.89433 0.0
C778 C 0.53257 0.26236 0.888 0.0
H779 H 0.35883 0.14904 0.89125 0.0
H780 H 0.42001 0.17842 0.90016 0.0
H781 H 0.4447 0.28924 0.86902 0.0
H782 H 0.6035 0.36042 0.91867 0.0
H783 H 0.5438 0.32596 0.91269 0.0
C784 C 0.7952 0.61773 0.63214 0.0
C785 C 0.82427 0.62676 0.61717 0.0
C786 C 0.77352 0.58409 0.62973 0.0
C787 C 0.78273 0.4876 0.60697 0.0
H788 H 0.67255 0.48115 0.61472 0.0
C789 C 0.6975 0.34672 0.59234 0.0
C790 C 0.66565 0.33994 0.60574 0.0
C791 C 0.7172 0.38179 0.59352 0.0
C792 C 0.70344 0.48231 0.61282 0.0
H793 H 0.85143 0.60882 0.58709 0.0
H794 H 0.8138 0.55053 0.58305 0.0
H795 H 0.70423 0.54352 0.61692 0.0
H796 H 0.63086 0.36337 0.63176 0.0
H797 H 0.66584 0.42343 0.63437 0.0
H798 H 0.7823 0.42644 0.60337 0.0
C799 C 0.80821 0.56906 0.59681 0.0
C800 C 0.72147 0.51811 0.614 0.0
C801 C 0.8296 0.60263 0.59911 0.0
C802 C 0.65497 0.36801 0.62097 0.0
C803 C 0.67485 0.40264 0.62235 0.0
C804 C 0.76478 0.45175 0.60602 0.0
C805 C 0.78072 0.55889 0.61238 0.0
C806 C 0.76127 0.5211 0.61104 0.0
C807 C 0.70564 0.41043 0.60831 0.0
C808 C 0.7249 0.4486 0.60898 0.0
H809 H 0.79035 0.63564 0.64623 0.0
H810 H 0.75241 0.57689 0.64197 0.0
H811 H 0.81359 0.48905 0.60492 0.0
H812 H 0.70621 0.32565 0.58038 0.0
H813 H 0.74066 0.38688 0.58236 0.0
C814 C 0.10619 0.1752 0.80625 0.0
C815 C 0.13959 0.18851 0.8165 0.0
C816 C 0.0719 0.19567 0.80787 0.0
C817 C 0.02653 0.2871 0.82495 0.0
H818 H 0.9423 0.21963 0.84075 0.0
C819 C 0.8712 0.3424 0.83652 0.0
C820 C 0.85109 0.32871 0.85475 0.0
C821 C 0.90621 0.32601 0.8304 0.0
C822 C 0.96551 0.23889 0.83646 0.0
H823 H 0.16414 0.23505 0.83515 0.0
H824 H 0.10377 0.27108 0.83816 0.0
H825 H 0.0046 0.1923 0.83174 0.0
H826 H 0.85182 0.28627 0.8805 0.0
H827 H 0.91286 0.25756 0.86974 0.0
H828 H 0.98737 0.33377 0.83019 0.0
C829 C 0.10425 0.24485 0.82872 0.0
C830 C 0.00114 0.22323 0.83101 0.0
C831 C 0.13885 0.22437 0.82694 0.0
C832 C 0.86638 0.29745 0.86633 0.0
C833 C 0.90138 0.28096 0.86015 0.0
C834 C 0.99072 0.30281 0.83031 0.0
C835 C 0.07007 0.22976 0.82 0.0
C836 C 0.03209 0.24709 0.82517 0.0
C837 C 0.92195 0.2954 0.84228 0.0
C838 C 0.95984 0.27885 0.8362 0.0
H839 H 0.10607 0.14775 0.79795 0.0
H840 H 0.04635 0.18381 0.80046 0.0
H841 H 0.04978 0.30622 0.82051 0.0
H842 H 0.86034 0.36639 0.82716 0.0
H843 H 0.92102 0.33738 0.81636 0.0
C844 C 0.34965 0.62156 0.07771 0.0
C845 C 0.33288 0.65786 0.08104 0.0
C846 C 0.32754 0.5882 0.0789 0.0
C847 C 0.24432 0.54966 0.10635 0.0
H848 H 0.25277 0.46573 0.06523 0.0
C849 C 0.1932 0.39513 0.12557 0.0
C850 C 0.16887 0.37859 0.11002 0.0
C851 C 0.21307 0.42914 0.12096 0.0
C852 C 0.25009 0.48897 0.07681 0.0
H853 H 0.27958 0.68781 0.08765 0.0
H854 H 0.24079 0.62901 0.09019 0.0
H855 H 0.28539 0.52673 0.05789 0.0
H856 H 0.14759 0.38384 0.07714 0.0
H857 H 0.18304 0.44261 0.06898 0.0
H858 H 0.20971 0.51164 0.12549 0.0
C859 C 0.27111 0.62664 0.0865 0.0
C860 C 0.26876 0.52378 0.07263 0.0
C861 C 0.29319 0.66022 0.08489 0.0
C862 C 0.16606 0.39591 0.08949 0.0
C863 C 0.18639 0.4295 0.08478 0.0
C864 C 0.22615 0.51464 0.11069 0.0
C865 C 0.28826 0.5903 0.0838 0.0
C866 C 0.26614 0.55443 0.08739 0.0
C867 C 0.20951 0.44687 0.10059 0.0
C868 C 0.22898 0.48391 0.096 0.0
H869 H 0.38018 0.61886 0.07466 0.0
H870 H 0.34156 0.5606 0.07688 0.0
H871 H 0.24218 0.57267 0.1181 0.0
H872 H 0.19582 0.38261 0.14156 0.0
H873 H 0.23103 0.44177 0.13337 0.0
C874 C 0.82297 0.74705 0.34194 0.0
C875 C 0.82119 0.7745 0.32525 0.0
C876 C 0.85706 0.72707 0.34607 0.0
C877 C 0.95677 0.70862 0.32563 0.0
H878 H 0.98034 0.70627 0.38697 0.0
C879 C 0.11095 0.68436 0.35897 0.0
C880 C 0.11422 0.65808 0.37619 0.0
C881 C 0.07473 0.69676 0.35193 0.0
C882 C 0.97412 0.70639 0.36979 0.0
H883 H 0.85293 0.79947 0.29843 0.0
H884 H 0.9122 0.76521 0.30579 0.0
H885 H 0.91711 0.72692 0.37511 0.0
H886 H 0.08188 0.62502 0.39981 0.0
H887 H 0.01918 0.64689 0.38771 0.0
H888 H 0.01447 0.68896 0.32047 0.0
C889 C 0.88735 0.7589 0.31571 0.0
C890 C 0.93769 0.71797 0.36295 0.0
C891 C 0.85315 0.77863 0.31147 0.0
C892 C 0.08053 0.64526 0.3865 0.0
C893 C 0.04449 0.65789 0.37961 0.0
C894 C 0.99339 0.69727 0.3325 0.0
C895 C 0.89028 0.73423 0.33369 0.0
C896 C 0.92844 0.71928 0.34078 0.0
C897 C 0.0411 0.6835 0.36213 0.0
C898 C 0.00247 0.69607 0.35467 0.0
H899 H 0.79882 0.74278 0.35275 0.0
H900 H 0.85788 0.70734 0.35963 0.0
H901 H 0.95064 0.70892 0.30845 0.0
H902 H 0.13628 0.69468 0.35061 0.0
H903 H 0.07303 0.71683 0.33855 0.0
loop_
_geom_bond_atom_site_label_1
_geom_bond_atom_site_label_2
_geom_bond_distance
_geom_bond_site_symmetry_2
_ccdc_geom_bond_type
O0 Zn1 1.953 . S
O0 C16 1.225 . S
Zn1 O0 1.953 . S
Zn1 O2 1.949 . S
Zn1 O8 1.919 . S
Zn1 O13 1.924 . S
O2 Zn1 1.949 . S
O2 Zn3 1.923 . S
O2 Zn4 1.950 . S
O2 Zn5 1.945 . S
Zn3 O2 1.923 . S
Zn3 O6 1.933 . S
Zn3 O9 1.941 . S
Zn3 O10 1.965 . S
Zn4 O2 1.950 . S
Zn4 O11 1.938 1_455 S
Zn4 O12 1.906 1_455 S
Zn4 O22 1.953 . S
Zn5 O2 1.945 . S
Zn5 O7 1.932 . S
Zn5 O14 1.977 . S
Zn5 O15 1.910 . S
O6 Zn3 1.933 . S
O6 C17 1.226 . S
O7 Zn5 1.932 . S
O7 C17 1.307 . S
O8 Zn1 1.919 . S
O8 C19 1.253 . S
O9 Zn3 1.941 . S
O9 C19 1.283 . S
O10 Zn3 1.965 . S
O10 C18 1.303 1_455 S
O11 Zn4 1.938 1_655 S
O11 C18 1.247 . S
O12 Zn4 1.906 1_655 S
O12 C20 1.304 . S
O13 Zn1 1.924 . S
O13 C21 1.311 . S
O14 Zn5 1.977 . S
O14 C20 1.272 1_455 S
O15 Zn5 1.910 . S
O15 C21 1.231 . S
C16 O0 1.225 . S
C16 O22 1.298 . S
C17 O6 1.226 . S
C17 O7 1.307 . S
C18 O10 1.303 1_655 S
C18 O11 1.247 . S
C19 O8 1.253 . S
C19 O9 1.283 . S
C20 O12 1.304 . S
C20 O14 1.272 1_655 S
C21 O13 1.311 . S
C21 O15 1.231 . S
O22 Zn4 1.953 . S
O22 C16 1.298 . S
O23 Zn24 1.953 . S
O23 C39 1.225 . S
Zn24 O23 1.953 . S
Zn24 O25 1.949 . S
Zn24 O31 1.919 . S
Zn24 O36 1.924 . S
O25 Zn24 1.949 . S
O25 Zn26 1.923 . S
O25 Zn27 1.950 . S
O25 Zn28 1.945 . S
Zn26 O25 1.923 . S
Zn26 O29 1.933 . S
Zn26 O32 1.941 . S
Zn26 O33 1.965 . S
Zn27 O25 1.950 . S
Zn27 O34 1.938 . S
Zn27 O35 1.906 . S
Zn27 O45 1.953 . S
Zn28 O25 1.945 . S
Zn28 O30 1.932 . S
Zn28 O37 1.977 . S
Zn28 O38 1.910 . S
O29 Zn26 1.933 . S
O29 C40 1.226 . S
O30 Zn28 1.932 . S
O30 C40 1.307 . S
O31 Zn24 1.919 . S
O31 C42 1.253 . S
O32 Zn26 1.941 . S
O32 C42 1.283 . S
O33 Zn26 1.965 . S
O33 C41 1.303 . S
O34 Zn27 1.938 . S
O34 C41 1.247 . S
O35 Zn27 1.906 . S
O35 C43 1.304 . S
O36 Zn24 1.924 . S
O36 C44 1.311 . S
O37 Zn28 1.977 . S
O37 C43 1.272 . S
O38 Zn28 1.910 . S
O38 C44 1.231 . S
C39 O23 1.225 . S
C39 O45 1.298 . S
C40 O29 1.226 . S
C40 O30 1.307 . S
C41 O33 1.303 . S
C41 O34 1.247 . S
C42 O31 1.253 . S
C42 O32 1.283 . S
C43 O35 1.304 . S
C43 O37 1.272 . S
C44 O36 1.311 . S
C44 O38 1.231 . S
O45 Zn27 1.953 . S
O45 C39 1.298 . S
O46 Zn47 1.953 . S
O46 C62 1.225 . S
Zn47 O46 1.953 . S
Zn47 O48 1.949 . S
Zn47 O54 1.919 . S
Zn47 O59 1.924 . S
O48 Zn47 1.949 . S
O48 Zn49 1.923 . S
O48 Zn50 1.950 . S
O48 Zn51 1.945 . S
Zn49 O48 1.923 . S
Zn49 O52 1.933 . S
Zn49 O55 1.941 . S
Zn49 O56 1.965 . S
Zn50 O48 1.950 . S
Zn50 O57 1.938 1_655 S
Zn50 O58 1.906 1_655 S
Zn50 O68 1.953 . S
Zn51 O48 1.945 . S
Zn51 O53 1.932 . S
Zn51 O60 1.977 . S
Zn51 O61 1.910 . S
O52 Zn49 1.933 . S
O52 C63 1.226 . S
O53 Zn51 1.932 . S
O53 C63 1.307 . S
O54 Zn47 1.919 . S
O54 C65 1.253 . S
O55 Zn49 1.941 . S
O55 C65 1.283 . S
O56 Zn49 1.965 . S
O56 C64 1.303 1_655 S
O57 Zn50 1.938 1_455 S
O57 C64 1.247 . S
O58 Zn50 1.906 1_455 S
O58 C66 1.304 . S
O59 Zn47 1.924 . S
O59 C67 1.311 . S
O60 Zn51 1.977 . S
O60 C66 1.272 1_655 S
O61 Zn51 1.910 . S
O61 C67 1.231 . S
C62 O46 1.225 . S
C62 O68 1.298 . S
C63 O52 1.226 . S
C63 O53 1.307 . S
C64 O56 1.303 1_455 S
C64 O57 1.247 . S
C65 O54 1.253 . S
C65 O55 1.283 . S
C66 O58 1.304 . S
C66 O60 1.272 1_455 S
C67 O59 1.311 . S
C67 O61 1.231 . S
O68 Zn50 1.953 . S
O68 C62 1.298 . S
O69 Zn70 1.953 . S
O69 C85 1.225 . S
Zn70 O69 1.953 . S
Zn70 O71 1.949 . S
Zn70 O77 1.919 . S
Zn70 O82 1.924 . S
O71 Zn70 1.949 . S
O71 Zn72 1.923 . S
O71 Zn73 1.950 . S
O71 Zn74 1.945 . S
Zn72 O71 1.923 . S
Zn72 O75 1.933 . S
Zn72 O78 1.941 . S
Zn72 O79 1.965 . S
Zn73 O71 1.950 . S
Zn73 O80 1.938 . S
Zn73 O81 1.906 . S
Zn73 O91 1.953 . S
Zn74 O71 1.945 . S
Zn74 O76 1.932 . S
Zn74 O83 1.977 . S
Zn74 O84 1.910 . S
O75 Zn72 1.933 . S
O75 C86 1.226 . S
O76 Zn74 1.932 . S
O76 C86 1.307 . S
O77 Zn70 1.919 . S
O77 C88 1.253 . S
O78 Zn72 1.941 . S
O78 C88 1.283 . S
O79 Zn72 1.965 . S
O79 C87 1.303 . S
O80 Zn73 1.938 . S
O80 C87 1.247 . S
O81 Zn73 1.906 . S
O81 C89 1.304 . S
O82 Zn70 1.924 . S
O82 C90 1.311 . S
O83 Zn74 1.977 . S
O83 C89 1.272 . S
O84 Zn74 1.910 . S
O84 C90 1.231 . S
C85 O69 1.225 . S
C85 O91 1.298 . S
C86 O75 1.226 . S
C86 O76 1.307 . S
C87 O79 1.303 . S
C87 O80 1.247 . S
C88 O77 1.253 . S
C88 O78 1.283 . S
C89 O81 1.304 . S
C89 O83 1.272 . S
C90 O82 1.311 . S
C90 O84 1.231 . S
O91 Zn73 1.953 . S
O91 C85 1.298 . S
O92 Zn93 1.953 . S
O92 C108 1.225 . S
Zn93 O92 1.953 . S
Zn93 O94 1.949 . S
Zn93 O100 1.919 . S
Zn93 O105 1.924 . S
O94 Zn93 1.949 . S
O94 Zn95 1.923 . S
O94 Zn96 1.950 . S
O94 Zn97 1.945 . S
Zn95 O94 1.923 . S
Zn95 O98 1.933 . S
Zn95 O101 1.941 . S
Zn95 O102 1.965 . S
Zn96 O94 1.950 . S
Zn96 O103 1.938 . S
Zn96 O104 1.906 . S
Zn96 O114 1.953 . S
Zn97 O94 1.945 . S
Zn97 O99 1.932 . S
Zn97 O106 1.977 . S
Zn97 O107 1.910 . S
O98 Zn95 1.933 . S
O98 C109 1.226 . S
O99 Zn97 1.932 . S
O99 C109 1.307 . S
O100 Zn93 1.919 . S
O100 C111 1.253 . S
O101 Zn95 1.941 . S
O101 C111 1.283 . S
O102 Zn95 1.965 . S
O102 C110 1.303 . S
O103 Zn96 1.938 . S
O103 C110 1.247 . S
O104 Zn96 1.906 . S
O104 C112 1.304 . S
O105 Zn93 1.924 . S
O105 C113 1.311 . S
O106 Zn97 1.977 . S
O106 C112 1.272 . S
O107 Zn97 1.910 . S
O107 C113 1.231 . S
C108 O92 1.225 . S
C108 O114 1.298 . S
C109 O98 1.226 . S
C109 O99 1.307 . S
C110 O102 1.303 . S
C110 O103 1.247 . S
C111 O100 1.253 . S
C111 O101 1.283 . S
C112 O104 1.304 . S
C112 O106 1.272 . S
C113 O105 1.311 . S
C113 O107 1.231 . S
O114 Zn96 1.953 . S
O114 C108 1.298 . S
O115 Zn116 1.953 . S
O115 C131 1.225 . S
Zn116 O115 1.953 . S
Zn116 O117 1.949 . S
Zn116 O123 1.919 . S
Zn116 O128 1.924 . S
O117 Zn116 1.949 . S
O117 Zn118 1.923 . S
O117 Zn119 1.950 . S
O117 Zn120 1.945 . S
Zn118 O117 1.923 . S
Zn118 O121 1.933 . S
Zn118 O124 1.941 . S
Zn118 O125 1.965 . S
Zn119 O117 1.950 . S
Zn119 O126 1.938 1_545 S
Zn119 O127 1.906 1_545 S
Zn119 O137 1.953 . S
Zn120 O117 1.945 . S
Zn120 O122 1.932 . S
Zn120 O129 1.977 . S
Zn120 O130 1.910 . S
O121 Zn118 1.933 . S
O121 C132 1.226 . S
O122 Zn120 1.932 . S
O122 C132 1.307 . S
O123 Zn116 1.919 . S
O123 C134 1.253 . S
O124 Zn118 1.941 . S
O124 C134 1.283 . S
O125 Zn118 1.965 . S
O125 C133 1.303 1_545 S
O126 Zn119 1.938 1_565 S
O126 C133 1.247 . S
O127 Zn119 1.906 1_565 S
O127 C135 1.304 . S
O128 Zn116 1.924 . S
O128 C136 1.311 . S
O129 Zn120 1.977 . S
O129 C135 1.272 1_545 S
O130 Zn120 1.910 . S
O130 C136 1.231 . S
C131 O115 1.225 . S
C131 O137 1.298 . S
C132 O121 1.226 . S
C132 O122 1.307 . S
C133 O125 1.303 1_565 S
C133 O126 1.247 . S
C134 O123 1.253 . S
C134 O124 1.283 . S
C135 O127 1.304 . S
C135 O129 1.272 1_565 S
C136 O128 1.311 . S
C136 O130 1.231 . S
O137 Zn119 1.953 . S
O137 C131 1.298 . S
O138 Zn139 1.953 . S
O138 C154 1.225 . S
Zn139 O138 1.953 . S
Zn139 O140 1.949 . S
Zn139 O146 1.919 . S
Zn139 O151 1.924 . S
O140 Zn139 1.949 . S
O140 Zn141 1.923 . S
O140 Zn142 1.950 . S
O140 Zn143 1.945 . S
Zn141 O140 1.923 . S
Zn141 O144 1.933 . S
Zn141 O147 1.941 . S
Zn141 O148 1.965 . S
Zn142 O140 1.950 . S
Zn142 O149 1.938 . S
Zn142 O150 1.906 . S
Zn142 O160 1.953 . S
Zn143 O140 1.945 . S
Zn143 O145 1.932 . S
Zn143 O152 1.977 . S
Zn143 O153 1.910 . S
O144 Zn141 1.933 . S
O144 C155 1.226 . S
O145 Zn143 1.932 . S
O145 C155 1.307 . S
O146 Zn139 1.919 . S
O146 C157 1.253 . S
O147 Zn141 1.941 . S
O147 C157 1.283 . S
O148 Zn141 1.965 . S
O148 C156 1.303 . S
O149 Zn142 1.938 . S
O149 C156 1.247 . S
O150 Zn142 1.906 . S
O150 C158 1.304 . S
O151 Zn139 1.924 . S
O151 C159 1.311 . S
O152 Zn143 1.977 . S
O152 C158 1.272 . S
O153 Zn143 1.910 . S
O153 C159 1.231 . S
C154 O138 1.225 . S
C154 O160 1.298 . S
C155 O144 1.226 . S
C155 O145 1.307 . S
C156 O148 1.303 . S
C156 O149 1.247 . S
C157 O146 1.253 . S
C157 O147 1.283 . S
C158 O150 1.304 . S
C158 O152 1.272 . S
C159 O151 1.311 . S
C159 O153 1.231 . S
O160 Zn142 1.953 . S
O160 C154 1.298 . S
O161 Zn162 1.953 . S
O161 C177 1.225 . S
Zn162 O161 1.953 . S
Zn162 O163 1.949 . S
Zn162 O169 1.919 . S
Zn162 O174 1.924 . S
O163 Zn162 1.949 . S
O163 Zn164 1.923 . S
O163 Zn165 1.950 . S
O163 Zn166 1.945 . S
Zn164 O163 1.923 . S
Zn164 O167 1.933 . S
Zn164 O170 1.941 . S
Zn164 O171 1.965 . S
Zn165 O163 1.950 . S
Zn165 O172 1.938 1_565 S
Zn165 O173 1.906 1_565 S
Zn165 O183 1.953 . S
Zn166 O163 1.945 . S
Zn166 O168 1.932 . S
Zn166 O175 1.977 . S
Zn166 O176 1.910 . S
O167 Zn164 1.933 . S
O167 C178 1.226 . S
O168 Zn166 1.932 . S
O168 C178 1.307 . S
O169 Zn162 1.919 . S
O169 C180 1.253 . S
O170 Zn164 1.941 . S
O170 C180 1.283 . S
O171 Zn164 1.965 . S
O171 C179 1.303 1_565 S
O172 Zn165 1.938 1_545 S
O172 C179 1.247 . S
O173 Zn165 1.906 1_545 S
O173 C181 1.308 . S
O174 Zn162 1.924 . S
O174 C182 1.311 . S
O175 Zn166 1.977 . S
O175 C181 1.257 1_565 S
O176 Zn166 1.910 . S
O176 C182 1.231 . S
C177 O161 1.225 . S
C177 O183 1.298 . S
C178 O167 1.226 . S
C178 O168 1.307 . S
C179 O171 1.303 1_545 S
C179 O172 1.247 . S
C180 O169 1.253 . S
C180 O170 1.283 . S
C181 O173 1.308 . S
C181 O175 1.257 1_545 S
C182 O174 1.311 . S
C182 O176 1.231 . S
O183 Zn165 1.953 . S
O183 C177 1.298 . S
C184 C185 1.349 1_455 S
C184 C186 1.327 1_455 S
C184 H209 0.950 . S
C185 C184 1.349 1_655 S
C185 C201 1.349 . S
C186 C184 1.327 1_655 S
C186 C205 1.429 . S
C186 H210 0.950 1_655 S
C187 C204 1.574 . S
C187 C206 1.368 . S
C187 H211 0.949 . S
H188 C192 0.949 . S
C189 C190 1.349 . S
C189 C191 1.327 . S
C189 H212 0.950 . S
C190 C189 1.349 . S
C190 C202 1.349 . S
C191 C189 1.327 . S
C191 C207 1.429 . S
C191 H213 0.950 . S
C192 H188 0.949 . S
C192 C200 1.574 . S
C192 C208 1.368 . S
H193 C201 0.950 . S
H194 C199 0.950 . S
H195 C200 0.949 . S
H196 C202 0.950 . S
H197 C203 0.950 . S
H198 C204 0.949 . S
C199 H194 0.950 . S
C199 C201 1.327 . S
C199 C205 1.429 . S
C200 C192 1.574 . S
C200 H195 0.949 . S
C200 C206 1.368 . S
C201 C185 1.349 . S
C201 H193 0.950 . S
C201 C199 1.327 . S
C202 C190 1.349 . S
C202 H196 0.950 . S
C202 C203 1.327 . S
C203 H197 0.950 . S
C203 C202 1.327 . S
C203 C207 1.429 . S
C204 C187 1.574 . S
C204 H198 0.949 . S
C204 C208 1.368 . S
C205 C186 1.429 . S
C205 C199 1.429 . S
C205 C206 1.523 . S
C206 C187 1.368 . S
C206 C200 1.368 . S
C206 C205 1.523 . S
C207 C191 1.429 . S
C207 C203 1.429 . S
C207 C208 1.523 . S
C208 C192 1.368 . S
C208 C204 1.368 . S
C208 C207 1.523 . S
H209 C184 0.950 . S
H210 C186 0.950 1_455 S
H211 C187 0.949 . S
H212 C189 0.950 . S
H213 C191 0.950 . S
C214 C215 1.349 . S
C214 C216 1.327 . S
C214 H239 0.950 . S
C215 C214 1.349 . S
C215 C231 1.349 . S
C216 C214 1.327 . S
C216 C235 1.429 . S
C216 H240 0.950 . S
C217 C234 1.574 . S
C217 C236 1.368 . S
C217 H241 0.949 . S
H218 C222 0.949 . S
C219 C220 1.349 . S
C219 C221 1.327 . S
C219 H242 0.950 . S
C220 C219 1.349 . S
C220 C232 1.349 . S
C221 C219 1.327 . S
C221 C237 1.429 . S
C221 H243 0.950 . S
C222 H218 0.949 . S
C222 C230 1.574 . S
C222 C238 1.368 . S
H223 C231 0.950 . S
H224 C229 0.950 . S
H225 C230 0.949 . S
H226 C232 0.950 . S
H227 C233 0.950 . S
H228 C234 0.949 . S
C229 H224 0.950 . S
C229 C231 1.327 . S
C229 C235 1.429 . S
C230 C222 1.574 . S
C230 H225 0.949 . S
C230 C236 1.368 . S
C231 C215 1.349 . S
C231 H223 0.950 . S
C231 C229 1.327 . S
C232 C220 1.349 . S
C232 H226 0.950 . S
C232 C233 1.327 . S
C233 H227 0.950 . S
C233 C232 1.327 . S
C233 C237 1.429 . S
C234 C217 1.574 . S
C234 H228 0.949 . S
C234 C238 1.368 . S
C235 C216 1.429 . S
C235 C229 1.429 . S
C235 C236 1.523 . S
C236 C217 1.368 . S
C236 C230 1.368 . S
C236 C235 1.523 . S
C237 C221 1.429 . S
C237 C233 1.429 . S
C237 C238 1.523 . S
C238 C222 1.368 . S
C238 C234 1.368 . S
C238 C237 1.523 . S
H239 C214 0.950 . S
H240 C216 0.950 . S
H241 C217 0.949 . S
H242 C219 0.950 . S
H243 C221 0.950 . S
C244 C245 1.349 . S
C244 C246 1.327 . S
C244 H269 0.950 . S
C245 C244 1.349 . S
C245 C261 1.349 . S
C246 C244 1.327 . S
C246 C265 1.429 . S
C246 H270 0.950 . S
C247 C264 1.574 . S
C247 C266 1.368 . S
C247 H271 0.949 . S
H248 C252 0.949 . S
C249 C250 1.349 . S
C249 C251 1.327 . S
C249 H272 0.950 . S
C250 C249 1.349 . S
C250 C262 1.349 1_565 S
C251 C249 1.327 . S
C251 C267 1.429 . S
C251 H273 0.950 . S
C252 H248 0.949 . S
C252 C260 1.574 . S
C252 C268 1.368 . S
H253 C261 0.950 . S
H254 C259 0.950 . S
H255 C260 0.949 . S
H256 C262 0.950 . S
H257 C263 0.950 1_545 S
H258 C264 0.949 . S
C259 H254 0.950 . S
C259 C261 1.327 . S
C259 C265 1.429 . S
C260 C252 1.574 . S
C260 H255 0.949 . S
C260 C266 1.368 . S
C261 C245 1.349 . S
C261 H253 0.950 . S
C261 C259 1.327 . S
C262 C250 1.349 1_545 S
C262 H256 0.950 . S
C262 C263 1.327 1_545 S
C263 H257 0.950 1_565 S
C263 C262 1.327 1_565 S
C263 C267 1.429 . S
C264 C247 1.574 . S
C264 H258 0.949 . S
C264 C268 1.368 . S
C265 C246 1.429 . S
C265 C259 1.429 . S
C265 C266 1.523 . S
C266 C247 1.368 . S
C266 C260 1.368 . S
C266 C265 1.523 . S
C267 C251 1.429 . S
C267 C263 1.429 . S
C267 C268 1.523 . S
C268 C252 1.368 . S
C268 C264 1.368 . S
C268 C267 1.523 . S
H269 C244 0.950 . S
H270 C246 0.950 . S
H271 C247 0.949 . S
H272 C249 0.950 . S
H273 C251 0.950 . S
C274 C275 1.349 . S
C274 C276 1.327 . S
C274 H299 0.950 . S
C275 C274 1.349 . S
C275 C291 1.349 . S
C276 C274 1.327 . S
C276 C295 1.429 . S
C276 H300 0.950 . S
C277 C294 1.574 1_554 S
C277 C296 1.368 . S
C277 H301 0.949 . S
H278 C282 0.949 . S
C279 C280 1.349 . S
C279 C281 1.327 . S
C279 H302 0.950 . S
C280 C279 1.349 . S
C280 C292 1.349 . S
C281 C279 1.327 . S
C281 C297 1.429 . S
C281 H303 0.950 . S
C282 H278 0.949 . S
C282 C290 1.574 1_556 S
C282 C298 1.368 . S
H283 C291 0.950 . S
H284 C289 0.950 . S
H285 C290 0.949 . S
H286 C292 0.950 . S
H287 C293 0.950 . S
H288 C294 0.949 . S
C289 H284 0.950 . S
C289 C291 1.327 . S
C289 C295 1.429 . S
C290 C282 1.574 1_554 S
C290 H285 0.949 . S
C290 C296 1.368 . S
C291 C275 1.349 . S
C291 H283 0.950 . S
C291 C289 1.327 . S
C292 C280 1.349 . S
C292 H286 0.950 . S
C292 C293 1.327 . S
C293 H287 0.950 . S
C293 C292 1.327 . S
C293 C297 1.429 . S
C294 C277 1.574 1_556 S
C294 H288 0.949 . S
C294 C298 1.368 . S
C295 C276 1.429 . S
C295 C289 1.429 . S
C295 C296 1.523 . S
C296 C277 1.368 . S
C296 C290 1.368 . S
C296 C295 1.523 . S
C297 C281 1.429 . S
C297 C293 1.429 . S
C297 C298 1.523 . S
C298 C282 1.368 . S
C298 C294 1.368 . S
C298 C297 1.523 . S
H299 C274 0.950 . S
H300 C276 0.950 . S
H301 C277 0.949 . S
H302 C279 0.950 . S
H303 C281 0.950 . S
C304 C305 1.349 . S
C304 C306 1.327 . S
C304 H329 0.950 . S
C305 C304 1.349 . S
C305 C321 1.349 . S
C306 C304 1.327 . S
C306 C325 1.429 . S
C306 H330 0.950 . S
C307 C324 1.574 . S
C307 C326 1.368 . S
C307 H331 0.949 . S
H308 C312 0.949 . S
C309 C310 1.349 . S
C309 C311 1.327 . S
C309 H332 0.950 . S
C310 C309 1.349 . S
C310 C322 1.349 . S
C311 C309 1.327 . S
C311 C327 1.429 . S
C311 H333 0.950 . S
C312 H308 0.949 . S
C312 C320 1.574 . S
C312 C328 1.368 . S
H313 C321 0.950 . S
H314 C319 0.950 . S
H315 C320 0.949 . S
H316 C322 0.950 . S
H317 C323 0.950 . S
H318 C324 0.949 . S
C319 H314 0.950 . S
C319 C321 1.327 . S
C319 C325 1.429 . S
C320 C312 1.574 . S
C320 H315 0.949 . S
C320 C326 1.368 . S
C321 C305 1.349 . S
C321 H313 0.950 . S
C321 C319 1.327 . S
C322 C310 1.349 . S
C322 H316 0.950 . S
C322 C323 1.327 . S
C323 H317 0.950 . S
C323 C322 1.327 . S
C323 C327 1.429 . S
C324 C307 1.574 . S
C324 H318 0.949 . S
C324 C328 1.368 . S
C325 C306 1.429 . S
C325 C319 1.429 . S
C325 C326 1.523 . S
C326 C307 1.368 . S
C326 C320 1.368 . S
C326 C325 1.523 . S
C327 C311 1.429 . S
C327 C323 1.429 . S
C327 C328 1.523 . S
C328 C312 1.368 . S
C328 C324 1.368 . S
C328 C327 1.523 . S
H329 C304 0.950 . S
H330 C306 0.950 . S
H331 C307 0.949 . S
H332 C309 0.950 . S
H333 C311 0.950 . S
C334 C335 1.349 . S
C334 C336 1.327 . S
C334 H359 0.950 . S
C335 C334 1.349 . S
C335 C351 1.349 . S
C336 C334 1.327 . S
C336 C355 1.429 . S
C336 H360 0.950 . S
C337 C354 1.574 . S
C337 C356 1.368 . S
C337 H361 0.949 . S
H338 C342 0.949 . S
C339 C340 1.349 . S
C339 C341 1.327 . S
C339 H362 0.950 . S
C340 C339 1.349 . S
C340 C352 1.349 . S
C341 C339 1.327 . S
C341 C357 1.429 . S
C341 H363 0.950 . S
C342 H338 0.949 . S
C342 C350 1.574 . S
C342 C358 1.368 . S
H343 C351 0.950 1_655 S
H344 C349 0.950 . S
H345 C350 0.949 . S
H346 C352 0.950 . S
H347 C353 0.950 . S
H348 C354 0.949 . S
C349 H344 0.950 . S
C349 C351 1.327 . S
C349 C355 1.429 . S
C350 C342 1.574 . S
C350 H345 0.949 . S
C350 C356 1.368 . S
C351 C335 1.349 . S
C351 H343 0.950 1_455 S
C351 C349 1.327 . S
C352 C340 1.349 . S
C352 H346 0.950 . S
C352 C353 1.327 . S
C353 H347 0.950 . S
C353 C352 1.327 . S
C353 C357 1.429 . S
C354 C337 1.574 . S
C354 H348 0.949 . S
C354 C358 1.368 . S
C355 C336 1.429 . S
C355 C349 1.429 . S
C355 C356 1.523 . S
C356 C337 1.368 . S
C356 C350 1.368 . S
C356 C355 1.523 . S
C357 C341 1.429 . S
C357 C353 1.429 . S
C357 C358 1.523 . S
C358 C342 1.368 . S
C358 C354 1.368 . S
C358 C357 1.523 . S
H359 C334 0.950 . S
H360 C336 0.950 . S
H361 C337 0.949 . S
H362 C339 0.950 . S
H363 C341 0.950 . S
C364 C365 1.349 . S
C364 C366 1.327 . S
C364 H389 0.950 . S
C365 C364 1.349 . S
C365 C381 1.349 . S
C366 C364 1.327 . S
C366 C385 1.429 . S
C366 H390 0.950 . S
C367 C384 1.574 . S
C367 C386 1.368 . S
C367 H391 0.949 . S
H368 C372 0.949 . S
C369 C370 1.349 . S
C369 C371 1.327 . S
C369 H392 0.950 . S
C370 C369 1.349 . S
C370 C382 1.349 . S
C371 C369 1.327 . S
C371 C387 1.429 . S
C371 H393 0.950 . S
C372 H368 0.949 . S
C372 C380 1.574 . S
C372 C388 1.368 . S
H373 C381 0.950 . S
H374 C379 0.950 . S
H375 C380 0.949 . S
H376 C382 0.950 . S
H377 C383 0.950 . S
H378 C384 0.949 . S
C379 H374 0.950 . S
C379 C381 1.327 . S
C379 C385 1.429 . S
C380 C372 1.574 . S
C380 H375 0.949 . S
C380 C386 1.368 . S
C381 C365 1.349 . S
C381 H373 0.950 . S
C381 C379 1.327 . S
C382 C370 1.349 . S
C382 H376 0.950 . S
C382 C383 1.327 . S
C383 H377 0.950 . S
C383 C382 1.327 . S
C383 C387 1.429 . S
C384 C367 1.574 . S
C384 H378 0.949 . S
C384 C388 1.368 . S
C385 C366 1.429 . S
C385 C379 1.429 . S
C385 C386 1.523 . S
C386 C367 1.368 . S
C386 C380 1.368 . S
C386 C385 1.523 . S
C387 C371 1.429 . S
C387 C383 1.429 . S
C387 C388 1.523 . S
C388 C372 1.368 . S
C388 C384 1.368 . S
C388 C387 1.523 . S
H389 C364 0.950 . S
H390 C366 0.950 . S
H391 C367 0.949 . S
H392 C369 0.950 . S
H393 C371 0.950 . S
C394 C395 1.349 . S
C394 C396 1.327 . S
C394 H419 0.954 . S
C395 C394 1.349 . S
C395 C411 1.349 . S
C396 C394 1.327 . S
C396 C415 1.429 . S
C396 H420 0.950 . S
C397 C414 1.574 . S
C397 C416 1.368 . S
C397 H421 0.949 . S
H398 C402 0.949 . S
C399 C400 1.349 . S
C399 C401 1.327 . S
C399 H422 0.950 . S
C400 C399 1.349 . S
C400 C412 1.349 . S
C401 C399 1.327 . S
C401 C417 1.429 . S
C401 H423 0.950 . S
C402 H398 0.949 . S
C402 C410 1.574 . S
C402 C418 1.368 . S
H403 C411 0.950 . S
H404 C409 0.950 . S
H405 C410 0.949 . S
H406 C412 0.950 . S
H407 C413 0.950 . S
H408 C414 0.949 . S
C409 H404 0.950 . S
C409 C411 1.327 . S
C409 C415 1.429 . S
C410 C402 1.574 . S
C410 H405 0.949 . S
C410 C416 1.368 . S
C411 C395 1.349 . S
C411 H403 0.950 . S
C411 C409 1.327 . S
C412 C400 1.349 . S
C412 H406 0.950 . S
C412 C413 1.327 . S
C413 H407 0.950 . S
C413 C412 1.327 . S
C413 C417 1.429 . S
C414 C397 1.574 . S
C414 H408 0.949 . S
C414 C418 1.368 . S
C415 C396 1.429 . S
C415 C409 1.429 . S
C415 C416 1.523 . S
C416 C397 1.368 . S
C416 C410 1.368 . S
C416 C415 1.523 . S
C417 C401 1.429 . S
C417 C413 1.429 . S
C417 C418 1.523 1_556 S
C418 C402 1.368 . S
C418 C414 1.368 . S
C418 C417 1.523 1_554 S
H419 C394 0.954 . S
H420 C396 0.950 . S
H421 C397 0.949 . S
H422 C399 0.950 . S
H423 C401 0.950 . S
C424 C425 1.349 . S
C424 C426 1.327 . S
C424 H449 0.950 . S
C425 C424 1.349 . S
C425 C441 1.349 . S
C426 C424 1.327 . S
C426 C445 1.429 . S
C426 H450 0.950 . S
C427 C444 1.574 . S
C427 C446 1.368 . S
C427 H451 0.949 . S
H428 C432 0.949 . S
C429 C430 1.349 . S
C429 C431 1.327 . S
C429 H452 0.950 1_545 S
C430 C429 1.349 . S
C430 C442 1.349 . S
C431 C429 1.327 . S
C431 C447 1.429 . S
C431 H453 0.950 . S
C432 H428 0.949 . S
C432 C440 1.574 . S
C432 C448 1.368 . S
H433 C441 0.950 . S
H434 C439 0.950 . S
H435 C440 0.949 . S
H436 C442 0.950 . S
H437 C443 0.950 . S
H438 C444 0.949 . S
C439 H434 0.950 . S
C439 C441 1.327 . S
C439 C445 1.429 . S
C440 C432 1.574 . S
C440 H435 0.949 . S
C440 C446 1.368 . S
C441 C425 1.349 . S
C441 H433 0.950 . S
C441 C439 1.327 . S
C442 C430 1.349 . S
C442 H436 0.950 . S
C442 C443 1.327 . S
C443 H437 0.950 . S
C443 C442 1.327 . S
C443 C447 1.429 . S
C444 C427 1.574 . S
C444 H438 0.949 . S
C444 C448 1.368 . S
C445 C426 1.429 . S
C445 C439 1.429 . S
C445 C446 1.523 . S
C446 C427 1.368 . S
C446 C440 1.368 . S
C446 C445 1.523 . S
C447 C431 1.429 . S
C447 C443 1.429 . S
C447 C448 1.523 . S
C448 C432 1.368 . S
C448 C444 1.368 . S
C448 C447 1.523 . S
H449 C424 0.950 . S
H450 C426 0.950 . S
H451 C427 0.949 . S
H452 C429 0.950 1_565 S
H453 C431 0.950 . S
C454 C455 1.349 . S
C454 C456 1.327 . S
C454 H479 0.950 . S
C455 C454 1.349 . S
C455 C471 1.349 . S
C456 C454 1.327 . S
C456 C475 1.429 . S
C456 H480 0.950 . S
C457 C474 1.574 . S
C457 C476 1.368 . S
C457 H481 0.949 . S
H458 C462 0.949 . S
C459 C460 1.349 . S
C459 C461 1.327 . S
C459 H482 0.950 . S
C460 C459 1.349 . S
C460 C472 1.349 . S
C461 C459 1.327 . S
C461 C477 1.429 . S
C461 H483 0.950 . S
C462 H458 0.949 . S
C462 C470 1.574 . S
C462 C478 1.368 . S
H463 C471 0.950 . S
H464 C469 0.950 . S
H465 C470 0.949 . S
H466 C472 0.950 . S
H467 C473 0.950 . S
H468 C474 0.949 . S
C469 H464 0.950 . S
C469 C471 1.327 . S
C469 C475 1.429 . S
C470 C462 1.574 . S
C470 H465 0.949 . S
C470 C476 1.368 . S
C471 C455 1.349 . S
C471 H463 0.950 . S
C471 C469 1.327 . S
C472 C460 1.349 . S
C472 H466 0.950 . S
C472 C473 1.327 . S
C473 H467 0.950 . S
C473 C472 1.327 . S
C473 C477 1.429 . S
C474 C457 1.574 . S
C474 H468 0.949 . S
C474 C478 1.368 . S
C475 C456 1.429 . S
C475 C469 1.429 . S
C475 C476 1.523 . S
C476 C457 1.368 . S
C476 C470 1.368 . S
C476 C475 1.523 . S
C477 C461 1.429 . S
C477 C473 1.429 . S
C477 C478 1.523 . S
C478 C462 1.368 . S
C478 C474 1.368 . S
C478 C477 1.523 . S
H479 C454 0.950 . S
H480 C456 0.950 . S
H481 C457 0.949 . S
H482 C459 0.950 . S
H483 C461 0.950 . S
C484 C485 1.349 . S
C484 C486 1.327 . S
C484 H509 0.950 . S
C485 C484 1.349 . S
C485 C501 1.349 . S
C486 C484 1.327 . S
C486 C505 1.429 . S
C486 H510 0.950 . S
C487 C504 1.574 . S
C487 C506 1.368 . S
C487 H511 0.949 . S
H488 C492 0.949 . S
C489 C490 1.349 . S
C489 C491 1.327 . S
C489 H512 0.950 1_565 S
C490 C489 1.349 . S
C490 C502 1.349 . S
C491 C489 1.327 . S
C491 C507 1.429 . S
C491 H513 0.950 . S
C492 H488 0.949 . S
C492 C500 1.574 . S
C492 C508 1.368 . S
H493 C501 0.950 . S
H494 C499 0.950 . S
H495 C500 0.949 . S
H496 C502 0.950 . S
H497 C503 0.950 . S
H498 C504 0.949 . S
C499 H494 0.950 . S
C499 C501 1.327 . S
C499 C505 1.429 . S
C500 C492 1.574 . S
C500 H495 0.949 . S
C500 C506 1.368 . S
C501 C485 1.349 . S
C501 H493 0.950 . S
C501 C499 1.327 . S
C502 C490 1.349 . S
C502 H496 0.950 . S
C502 C503 1.327 . S
C503 H497 0.950 . S
C503 C502 1.327 . S
C503 C507 1.429 . S
C504 C487 1.574 . S
C504 H498 0.949 . S
C504 C508 1.368 . S
C505 C486 1.429 . S
C505 C499 1.429 . S
C505 C506 1.523 1_554 S
C506 C487 1.368 . S
C506 C500 1.368 . S
C506 C505 1.523 1_556 S
C507 C491 1.429 . S
C507 C503 1.429 . S
C507 C508 1.523 . S
C508 C492 1.368 . S
C508 C504 1.368 . S
C508 C507 1.523 . S
H509 C484 0.950 . S
H510 C486 0.950 . S
H511 C487 0.949 . S
H512 C489 0.950 1_545 S
H513 C491 0.950 . S
C514 C515 1.349 . S
C514 C516 1.327 . S
C514 H539 0.950 . S
C515 C514 1.349 . S
C515 C531 1.349 . S
C516 C514 1.327 . S
C516 C535 1.429 . S
C516 H540 0.950 . S
C517 C534 1.574 . S
C517 C536 1.368 . S
C517 H541 0.949 . S
H518 C522 0.949 . S
C519 C520 1.349 . S
C519 C521 1.327 . S
C519 H542 0.950 . S
C520 C519 1.349 . S
C520 C532 1.349 . S
C521 C519 1.327 . S
C521 C537 1.429 . S
C521 H543 0.950 . S
C522 H518 0.949 . S
C522 C530 1.574 . S
C522 C538 1.368 . S
H523 C531 0.950 . S
H524 C529 0.950 . S
H525 C530 0.949 . S
H526 C532 0.950 . S
H527 C533 0.950 . S
H528 C534 0.949 . S
C529 H524 0.950 . S
C529 C531 1.327 . S
C529 C535 1.429 . S
C530 C522 1.574 . S
C530 H525 0.949 . S
C530 C536 1.368 . S
C531 C515 1.349 . S
C531 H523 0.950 . S
C531 C529 1.327 . S
C532 C520 1.349 . S
C532 H526 0.950 . S
C532 C533 1.327 . S
C533 H527 0.950 . S
C533 C532 1.327 . S
C533 C537 1.429 . S
C534 C517 1.574 . S
C534 H528 0.949 . S
C534 C538 1.368 . S
C535 C516 1.429 . S
C535 C529 1.429 . S
C535 C536 1.523 . S
C536 C517 1.368 . S
C536 C530 1.368 . S
C536 C535 1.523 . S
C537 C521 1.429 . S
C537 C533 1.429 . S
C537 C538 1.523 . S
C538 C522 1.368 . S
C538 C534 1.368 . S
C538 C537 1.523 . S
H539 C514 0.950 . S
H540 C516 0.950 . S
H541 C517 0.949 . S
H542 C519 0.950 . S
H543 C521 0.950 . S
C544 C545 1.349 . S
C544 C546 1.327 . S
C544 H569 0.950 . S
C545 C544 1.349 . S
C545 C561 1.349 . S
C546 C544 1.327 . S
C546 C565 1.429 . S
C546 H570 0.950 . S
C547 C564 1.553 1_556 S
C547 C566 1.368 . S
C547 H571 0.949 . S
H548 C552 0.949 . S
C549 C550 1.349 . S
C549 C551 1.327 . S
C549 H572 0.950 . S
C550 C549 1.349 . S
C550 C562 1.349 . S
C551 C549 1.327 . S
C551 C567 1.429 . S
C551 H573 0.950 . S
C552 H548 0.949 . S
C552 C560 1.566 1_554 S
C552 C568 1.368 . S
H553 C561 0.950 . S
H554 C559 0.950 . S
H555 C560 0.948 . S
H556 C562 0.950 . S
H557 C563 0.950 . S
H558 C564 0.950 . S
C559 H554 0.950 . S
C559 C561 1.327 . S
C559 C565 1.429 . S
C560 C552 1.566 1_556 S
C560 H555 0.948 . S
C560 C566 1.376 . S
C561 C545 1.349 . S
C561 H553 0.950 . S
C561 C559 1.327 . S
C562 C550 1.349 . S
C562 H556 0.950 . S
C562 C563 1.327 . S
C563 H557 0.950 . S
C563 C562 1.327 . S
C563 C567 1.429 . S
C564 C547 1.553 1_554 S
C564 H558 0.950 . S
C564 C568 1.388 . S
C565 C546 1.429 . S
C565 C559 1.429 . S
C565 C566 1.523 . S
C566 C547 1.368 . S
C566 C560 1.376 . S
C566 C565 1.523 . S
C567 C551 1.429 . S
C567 C563 1.429 . S
C567 C568 1.523 . S
C568 C552 1.368 . S
C568 C564 1.388 . S
C568 C567 1.523 . S
H569 C544 0.950 . S
H570 C546 0.950 . S
H571 C547 0.949 . S
H572 C549 0.950 . S
H573 C551 0.950 . S
C574 C575 1.349 . S
C574 C576 1.327 . S
C574 H599 0.950 . S
C575 C574 1.349 . S
C575 C591 1.349 . S
C576 C574 1.327 . S
C576 C595 1.429 . S
C576 H600 0.950 . S
C577 C594 1.574 . S
C577 C596 1.368 . S
C577 H601 0.949 . S
H578 C582 0.949 . S
C579 C580 1.349 . S
C579 C581 1.327 . S
C579 H602 0.950 . S
C580 C579 1.349 . S
C580 C592 1.349 . S
C581 C579 1.327 . S
C581 C597 1.429 . S
C581 H603 0.950 . S
C582 H578 0.949 . S
C582 C590 1.574 . S
C582 C598 1.368 . S
H583 C591 0.950 . S
H584 C589 0.950 . S
H585 C590 0.949 . S
H586 C592 0.950 . S
H587 C593 0.950 . S
H588 C594 0.949 . S
C589 H584 0.950 . S
C589 C591 1.327 . S
C589 C595 1.429 . S
C590 C582 1.574 . S
C590 H585 0.949 . S
C590 C596 1.368 . S
C591 C575 1.349 . S
C591 H583 0.950 . S
C591 C589 1.327 . S
C592 C580 1.349 . S
C592 H586 0.950 . S
C592 C593 1.327 . S
C593 H587 0.950 . S
C593 C592 1.327 . S
C593 C597 1.429 . S
C594 C577 1.574 . S
C594 H588 0.949 . S
C594 C598 1.368 . S
C595 C576 1.429 . S
C595 C589 1.429 . S
C595 C596 1.523 . S
C596 C577 1.368 . S
C596 C590 1.368 . S
C596 C595 1.523 . S
C597 C581 1.429 . S
C597 C593 1.429 . S
C597 C598 1.523 . S
C598 C582 1.368 . S
C598 C594 1.368 . S
C598 C597 1.523 . S
H599 C574 0.950 . S
H600 C576 0.950 . S
H601 C577 0.949 . S
H602 C579 0.950 . S
H603 C581 0.950 . S
C604 C605 1.349 . S
C604 C606 1.327 . S
C604 H629 0.950 . S
C605 C604 1.349 . S
C605 C621 1.349 . S
C606 C604 1.327 . S
C606 C625 1.429 . S
C606 H630 0.950 . S
C607 C624 1.574 . S
C607 C626 1.368 . S
C607 H631 0.949 . S
H608 C612 0.949 . S
C609 C610 1.349 . S
C609 C611 1.327 . S
C609 H632 0.950 . S
C610 C609 1.349 . S
C610 C622 1.349 . S
C611 C609 1.327 . S
C611 C627 1.429 . S
C611 H633 0.950 . S
C612 H608 0.949 . S
C612 C620 1.574 . S
C612 C628 1.368 . S
H613 C621 0.950 . S
H614 C619 0.950 . S
H615 C620 0.949 . S
H616 C622 0.950 . S
H617 C623 0.950 . S
H618 C624 0.949 . S
C619 H614 0.950 . S
C619 C621 1.327 . S
C619 C625 1.429 . S
C620 C612 1.574 . S
C620 H615 0.949 . S
C620 C626 1.368 . S
C621 C605 1.349 . S
C621 H613 0.950 . S
C621 C619 1.327 . S
C622 C610 1.349 . S
C622 H616 0.950 . S
C622 C623 1.327 . S
C623 H617 0.950 . S
C623 C622 1.327 . S
C623 C627 1.429 . S
C624 C607 1.574 . S
C624 H618 0.949 . S
C624 C628 1.368 . S
C625 C606 1.429 . S
C625 C619 1.429 . S
C625 C626 1.523 . S
C626 C607 1.368 . S
C626 C620 1.368 . S
C626 C625 1.523 . S
C627 C611 1.429 . S
C627 C623 1.429 . S
C627 C628 1.523 . S
C628 C612 1.368 . S
C628 C624 1.368 . S
C628 C627 1.523 . S
H629 C604 0.950 . S
H630 C606 0.950 . S
H631 C607 0.949 . S
H632 C609 0.950 . S
H633 C611 0.950 . S
C634 C635 1.349 . S
C634 C636 1.327 . S
C634 H659 0.950 . S
C635 C634 1.349 . S
C635 C651 1.349 . S
C636 C634 1.327 . S
C636 C655 1.429 . S
C636 H660 0.950 . S
C637 C654 1.574 . S
C637 C656 1.368 . S
C637 H661 0.949 . S
H638 C642 0.949 . S
C639 C640 1.349 . S
C639 C641 1.327 . S
C639 H662 0.950 . S
C640 C639 1.349 . S
C640 C652 1.349 . S
C641 C639 1.327 . S
C641 C657 1.429 . S
C641 H663 0.950 . S
C642 H638 0.949 . S
C642 C650 1.574 . S
C642 C658 1.368 . S
H643 C651 0.950 . S
H644 C649 0.950 . S
H645 C650 0.949 . S
H646 C652 0.950 . S
H647 C653 0.950 . S
H648 C654 0.949 . S
C649 H644 0.950 . S
C649 C651 1.327 . S
C649 C655 1.429 . S
C650 C642 1.574 . S
C650 H645 0.949 . S
C650 C656 1.368 . S
C651 C635 1.349 . S
C651 H643 0.950 . S
C651 C649 1.327 . S
C652 C640 1.349 . S
C652 H646 0.950 . S
C652 C653 1.327 . S
C653 H647 0.950 . S
C653 C652 1.327 . S
C653 C657 1.429 . S
C654 C637 1.574 . S
C654 H648 0.949 . S
C654 C658 1.368 . S
C655 C636 1.429 . S
C655 C649 1.429 . S
C655 C656 1.523 . S
C656 C637 1.368 . S
C656 C650 1.368 . S
C656 C655 1.523 . S
C657 C641 1.429 . S
C657 C653 1.429 . S
C657 C658 1.523 . S
C658 C642 1.368 . S
C658 C654 1.368 . S
C658 C657 1.523 . S
H659 C634 0.950 . S
H660 C636 0.950 . S
H661 C637 0.949 . S
H662 C639 0.950 . S
H663 C641 0.950 . S
C664 C665 1.349 . S
C664 C666 1.327 . S
C664 H689 0.950 . S
C665 C664 1.349 . S
C665 C681 1.349 . S
C666 C664 1.327 . S
C666 C685 1.429 . S
C666 H690 0.950 . S
C667 C684 1.574 1_545 S
C667 C686 1.368 . S
C667 H691 0.949 . S
H668 C672 0.949 . S
C669 C670 1.349 . S
C669 C671 1.327 . S
C669 H692 0.950 . S
C670 C669 1.349 . S
C670 C682 1.349 . S
C671 C669 1.327 . S
C671 C687 1.429 . S
C671 H693 0.950 . S
C672 H668 0.949 . S
C672 C680 1.574 1_565 S
C672 C688 1.368 . S
H673 C681 0.950 . S
H674 C679 0.950 . S
H675 C680 0.949 . S
H676 C682 0.950 . S
H677 C683 0.950 . S
H678 C684 0.949 . S
C679 H674 0.950 . S
C679 C681 1.327 . S
C679 C685 1.429 . S
C680 C672 1.574 1_545 S
C680 H675 0.949 . S
C680 C686 1.368 . S
C681 C665 1.349 . S
C681 H673 0.950 . S
C681 C679 1.327 . S
C682 C670 1.349 . S
C682 H676 0.950 . S
C682 C683 1.327 . S
C683 H677 0.950 . S
C683 C682 1.327 . S
C683 C687 1.429 . S
C684 C667 1.574 1_565 S
C684 H678 0.949 . S
C684 C688 1.368 . S
C685 C666 1.429 . S
C685 C679 1.429 . S
C685 C686 1.523 . S
C686 C667 1.368 . S
C686 C680 1.368 . S
C686 C685 1.523 . S
C687 C671 1.429 . S
C687 C683 1.429 . S
C687 C688 1.523 . S
C688 C672 1.368 . S
C688 C684 1.368 . S
C688 C687 1.523 . S
H689 C664 0.950 . S
H690 C666 0.950 . S
H691 C667 0.949 . S
H692 C669 0.950 . S
H693 C671 0.950 . S
C694 C695 1.349 . S
C694 C696 1.327 . S
C694 H719 0.950 . S
C695 C694 1.349 . S
C695 C711 1.349 . S
C696 C694 1.327 . S
C696 C715 1.429 . S
C696 H720 0.950 . S
C697 C714 1.574 . S
C697 C716 1.368 . S
C697 H721 0.949 . S
H698 C702 0.949 . S
C699 C700 1.349 . S
C699 C701 1.327 . S
C699 H722 0.950 . S
C700 C699 1.349 . S
C700 C712 1.349 . S
C701 C699 1.327 . S
C701 C717 1.429 . S
C701 H723 0.950 . S
C702 H698 0.949 . S
C702 C710 1.574 . S
C702 C718 1.368 . S
H703 C711 0.950 . S
H704 C709 0.950 . S
H705 C710 0.949 . S
H706 C712 0.950 . S
H707 C713 0.950 . S
H708 C714 0.949 . S
C709 H704 0.950 . S
C709 C711 1.327 . S
C709 C715 1.429 . S
C710 C702 1.574 . S
C710 H705 0.949 . S
C710 C716 1.368 . S
C711 C695 1.349 . S
C711 H703 0.950 . S
C711 C709 1.327 . S
C712 C700 1.349 . S
C712 H706 0.950 . S
C712 C713 1.327 . S
C713 H707 0.950 . S
C713 C712 1.327 . S
C713 C717 1.429 . S
C714 C697 1.574 . S
C714 H708 0.949 . S
C714 C718 1.368 . S
C715 C696 1.429 . S
C715 C709 1.429 . S
C715 C716 1.523 . S
C716 C697 1.368 . S
C716 C710 1.368 . S
C716 C715 1.523 . S
C717 C701 1.429 . S
C717 C713 1.429 . S
C717 C718 1.523 . S
C718 C702 1.368 . S
C718 C714 1.368 . S
C718 C717 1.523 . S
H719 C694 0.950 . S
H720 C696 0.950 . S
H721 C697 0.949 . S
H722 C699 0.950 . S
H723 C701 0.950 . S
C724 C725 1.349 . S
C724 C726 1.327 . S
C724 H749 0.950 . S
C725 C724 1.349 . S
C725 C741 1.349 . S
C726 C724 1.327 . S
C726 C745 1.429 . S
C726 H750 0.950 . S
C727 C744 1.574 1_545 S
C727 C746 1.368 . S
C727 H751 0.949 . S
H728 C732 0.949 . S
C729 C730 1.349 . S
C729 C731 1.327 . S
C729 H752 0.950 . S
C730 C729 1.349 . S
C730 C742 1.349 . S
C731 C729 1.327 . S
C731 C747 1.429 . S
C731 H753 0.950 . S
C732 H728 0.949 . S
C732 C740 1.574 1_565 S
C732 C748 1.368 . S
H733 C741 0.950 . S
H734 C739 0.950 . S
H735 C740 0.949 . S
H736 C742 0.950 . S
H737 C743 0.950 . S
H738 C744 0.949 . S
C739 H734 0.950 . S
C739 C741 1.327 . S
C739 C745 1.429 . S
C740 C732 1.574 1_545 S
C740 H735 0.949 . S
C740 C746 1.368 . S
C741 C725 1.349 . S
C741 H733 0.950 . S
C741 C739 1.327 . S
C742 C730 1.349 . S
C742 H736 0.950 . S
C742 C743 1.327 . S
C743 H737 0.950 . S
C743 C742 1.327 . S
C743 C747 1.429 . S
C744 C727 1.574 1_565 S
C744 H738 0.949 . S
C744 C748 1.368 . S
C745 C726 1.429 . S
C745 C739 1.429 . S
C745 C746 1.523 . S
C746 C727 1.368 . S
C746 C740 1.368 . S
C746 C745 1.523 . S
C747 C731 1.429 . S
C747 C743 1.429 . S
C747 C748 1.523 . S
C748 C732 1.368 . S
C748 C744 1.368 . S
C748 C747 1.523 . S
H749 C724 0.950 . S
H750 C726 0.950 . S
H751 C727 0.949 . S
H752 C729 0.950 . S
H753 C731 0.950 . S
C754 C755 1.349 . S
C754 C756 1.327 . S
C754 H779 0.950 . S
C755 C754 1.349 . S
C755 C771 1.349 . S
C756 C754 1.327 . S
C756 C775 1.429 . S
C756 H780 0.950 . S
C757 C774 1.574 . S
C757 C776 1.368 . S
C757 H781 0.949 . S
H758 C762 0.949 . S
C759 C760 1.349 . S
C759 C761 1.327 . S
C759 H782 0.950 . S
C760 C759 1.349 . S
C760 C772 1.349 . S
C761 C759 1.327 . S
C761 C777 1.429 . S
C761 H783 0.950 . S
C762 H758 0.949 . S
C762 C770 1.574 . S
C762 C778 1.368 . S
H763 C771 0.950 . S
H764 C769 0.950 . S
H765 C770 0.949 . S
H766 C772 0.950 . S
H767 C773 0.950 . S
H768 C774 0.949 . S
C769 H764 0.950 . S
C769 C771 1.327 . S
C769 C775 1.429 . S
C770 C762 1.574 . S
C770 H765 0.949 . S
C770 C776 1.368 . S
C771 C755 1.349 . S
C771 H763 0.950 . S
C771 C769 1.327 . S
C772 C760 1.349 . S
C772 H766 0.950 . S
C772 C773 1.327 . S
C773 H767 0.950 . S
C773 C772 1.327 . S
C773 C777 1.429 . S
C774 C757 1.574 . S
C774 H768 0.949 . S
C774 C778 1.368 . S
C775 C756 1.429 . S
C775 C769 1.429 . S
C775 C776 1.523 . S
C776 C757 1.368 . S
C776 C770 1.368 . S
C776 C775 1.523 . S
C777 C761 1.429 . S
C777 C773 1.429 . S
C777 C778 1.523 . S
C778 C762 1.368 . S
C778 C774 1.368 . S
C778 C777 1.523 . S
H779 C754 0.950 . S
H780 C756 0.950 . S
H781 C757 0.949 . S
H782 C759 0.950 . S
H783 C761 0.950 . S
C784 C785 1.349 . S
C784 C786 1.327 . S
C784 H809 0.950 . S
C785 C784 1.349 . S
C785 C801 1.349 . S
C786 C784 1.327 . S
C786 C805 1.429 . S
C786 H810 0.950 . S
C787 C804 1.574 . S
C787 C806 1.368 . S
C787 H811 0.949 . S
H788 C792 0.949 . S
C789 C790 1.349 . S
C789 C791 1.327 . S
C789 H812 0.950 . S
C790 C789 1.349 . S
C790 C802 1.349 . S
C791 C789 1.327 . S
C791 C807 1.429 . S
C791 H813 0.950 . S
C792 H788 0.949 . S
C792 C800 1.574 . S
C792 C808 1.368 . S
H793 C801 0.950 . S
H794 C799 0.950 . S
H795 C800 0.949 . S
H796 C802 0.950 . S
H797 C803 0.950 . S
H798 C804 0.949 . S
C799 H794 0.950 . S
C799 C801 1.327 . S
C799 C805 1.429 . S
C800 C792 1.574 . S
C800 H795 0.949 . S
C800 C806 1.368 . S
C801 C785 1.349 . S
C801 H793 0.950 . S
C801 C799 1.327 . S
C802 C790 1.349 . S
C802 H796 0.950 . S
C802 C803 1.327 . S
C803 H797 0.950 . S
C803 C802 1.327 . S
C803 C807 1.429 . S
C804 C787 1.574 . S
C804 H798 0.949 . S
C804 C808 1.368 . S
C805 C786 1.429 . S
C805 C799 1.429 . S
C805 C806 1.523 . S
C806 C787 1.368 . S
C806 C800 1.368 . S
C806 C805 1.523 . S
C807 C791 1.429 . S
C807 C803 1.429 . S
C807 C808 1.523 . S
C808 C792 1.368 . S
C808 C804 1.368 . S
C808 C807 1.523 . S
H809 C784 0.950 . S
H810 C786 0.950 . S
H811 C787 0.949 . S
H812 C789 0.950 . S
H813 C791 0.950 . S
C814 C815 1.349 . S
C814 C816 1.327 . S
C814 H839 0.950 . S
C815 C814 1.349 . S
C815 C831 1.349 . S
C816 C814 1.327 . S
C816 C835 1.429 . S
C816 H840 0.950 . S
C817 C834 1.574 1_455 S
C817 C836 1.368 . S
C817 H841 0.949 . S
H818 C822 0.949 . S
C819 C820 1.349 . S
C819 C821 1.327 . S
C819 H842 0.950 . S
C820 C819 1.349 . S
C820 C832 1.349 . S
C821 C819 1.327 . S
C821 C837 1.429 . S
C821 H843 0.950 . S
C822 H818 0.949 . S
C822 C830 1.574 . S
C822 C838 1.368 . S
H823 C831 0.950 . S
H824 C829 0.950 . S
H825 C830 0.949 1_455 S
H826 C832 0.950 . S
H827 C833 0.950 . S
H828 C834 0.949 . S
C829 H824 0.950 . S
C829 C831 1.327 . S
C829 C835 1.429 . S
C830 C822 1.574 . S
C830 H825 0.949 1_655 S
C830 C836 1.368 1_655 S
C831 C815 1.349 . S
C831 H823 0.950 . S
C831 C829 1.327 . S
C832 C820 1.349 . S
C832 H826 0.950 . S
C832 C833 1.327 . S
C833 H827 0.950 . S
C833 C832 1.327 . S
C833 C837 1.429 . S
C834 C817 1.574 1_655 S
C834 H828 0.949 . S
C834 C838 1.368 . S
C835 C816 1.429 . S
C835 C829 1.429 . S
C835 C836 1.523 . S
C836 C817 1.368 . S
C836 C830 1.368 1_455 S
C836 C835 1.523 . S
C837 C821 1.429 . S
C837 C833 1.429 . S
C837 C838 1.523 . S
C838 C822 1.368 . S
C838 C834 1.368 . S
C838 C837 1.523 . S
H839 C814 0.950 . S
H840 C816 0.950 . S
H841 C817 0.949 . S
H842 C819 0.950 . S
H843 C821 0.950 . S
C844 C845 1.349 . S
C844 C846 1.327 . S
C844 H869 0.950 . S
C845 C844 1.349 . S
C845 C861 1.349 . S
C846 C844 1.327 . S
C846 C865 1.429 . S
C846 H870 0.950 . S
C847 C864 1.574 . S
C847 C866 1.368 . S
C847 H871 0.949 . S
H848 C852 0.949 . S
C849 C850 1.349 . S
C849 C851 1.327 . S
C849 H872 0.950 . S
C850 C849 1.349 . S
C850 C862 1.349 . S
C851 C849 1.327 . S
C851 C867 1.429 . S
C851 H873 0.950 . S
C852 H848 0.949 . S
C852 C860 1.574 . S
C852 C868 1.368 . S
H853 C861 0.950 . S
H854 C859 0.950 . S
H855 C860 0.949 . S
H856 C862 0.950 . S
H857 C863 0.950 . S
H858 C864 0.949 . S
C859 H854 0.950 . S
C859 C861 1.327 . S
C859 C865 1.429 . S
C860 C852 1.574 . S
C860 H855 0.949 . S
C860 C866 1.368 . S
C861 C845 1.349 . S
C861 H853 0.950 . S
C861 C859 1.327 . S
C862 C850 1.349 . S
C862 H856 0.950 . S
C862 C863 1.327 . S
C863 H857 0.950 . S
C863 C862 1.327 . S
C863 C867 1.429 . S
C864 C847 1.574 . S
C864 H858 0.949 . S
C864 C868 1.368 . S
C865 C846 1.429 . S
C865 C859 1.429 . S
C865 C866 1.523 . S
C866 C847 1.368 . S
C866 C860 1.368 . S
C866 C865 1.523 . S
C867 C851 1.429 . S
C867 C863 1.429 . S
C867 C868 1.523 . S
C868 C852 1.368 . S
C868 C864 1.368 . S
C868 C867 1.523 . S
H869 C844 0.950 . S
H870 C846 0.950 . S
H871 C847 0.949 . S
H872 C849 0.950 . S
H873 C851 0.950 . S
C874 C875 1.349 . S
C874 C876 1.327 . S
C874 H899 0.950 . S
C875 C874 1.349 . S
C875 C891 1.349 . S
C876 C874 1.327 . S
C876 C895 1.429 . S
C876 H900 0.950 . S
C877 C894 1.579 . S
C877 C896 1.364 1_455 S
C877 H901 0.948 1_455 S
H878 C882 0.949 . S
C879 C880 1.349 . S
C879 C881 1.327 . S
C879 H902 0.950 . S
C880 C879 1.349 . S
C880 C892 1.349 . S
C881 C879 1.327 . S
C881 C897 1.429 . S
C881 H903 0.950 . S
C882 H878 0.949 . S
C882 C890 1.574 1_455 S
C882 C898 1.368 . S
H883 C891 0.950 . S
H884 C889 0.950 . S
H885 C890 0.949 . S
H886 C892 0.950 . S
H887 C893 0.950 . S
H888 C894 0.949 . S
C889 H884 0.950 . S
C889 C891 1.327 . S
C889 C895 1.429 . S
C890 C882 1.574 1_655 S
C890 H885 0.949 . S
C890 C896 1.368 . S
C891 C875 1.349 . S
C891 H883 0.950 . S
C891 C889 1.327 . S
C892 C880 1.349 . S
C892 H886 0.950 . S
C892 C893 1.327 . S
C893 H887 0.950 . S
C893 C892 1.327 . S
C893 C897 1.429 . S
C894 C877 1.579 . S
C894 H888 0.949 . S
C894 C898 1.368 . S
C895 C876 1.429 . S
C895 C889 1.429 . S
C895 C896 1.523 . S
C896 C877 1.364 1_655 S
C896 C890 1.368 . S
C896 C895 1.523 . S
C897 C881 1.429 . S
C897 C893 1.429 . S
C897 C898 1.523 . S
C898 C882 1.368 . S
C898 C894 1.368 . S
C898 C897 1.523 . S
H899 C874 0.950 . S
H900 C876 0.950 . S
H901 C877 0.948 1_655 S
H902 C879 0.950 . S
H903 C881 0.950 . S
C185 C18 1.040 . S
C190 C181 1.039 . S
C215 C43 1.028 . S
C220 C110 1.040 . S
C245 C64 1.070 . S
C250 C133 1.070 . S
C275 C156 1.070 . S
C280 C87 1.070 . S
C305 C16 1.151 . S
C310 C41 1.172 . S
C335 C66 1.083 . S
C340 C40 1.089 . S
C365 C89 1.131 . S
C370 C62 1.126 . S
C395 C20 1.121 . S
C400 C85 1.116 . S
C425 C108 1.151 . S
C430 C179 1.172 . S
C455 C131 1.116 . S
C460 C112 1.121 . S
C485 C154 1.126 . S
C490 C135 1.131 . S
C515 C158 1.083 . S
C520 C178 1.089 . S
C545 C132 0.667 . S
C550 C17 0.666 . S
C575 C155 0.705 . S
C580 C39 0.708 . S
C605 C177 0.708 . S
C610 C63 0.705 . S
C635 C109 0.666 . S
C640 C86 0.667 . S
C665 C19 1.930 . S
C670 C159 1.946 . S
C695 C44 1.919 . S
C700 C180 1.895 . S
C725 C113 1.870 . S
C730 C65 1.855 . S
C755 C136 1.915 . S
C760 C88 1.899 . S
C785 C67 1.946 . S
C790 C111 1.931 . S
C815 C134 1.899 . S
C820 C90 1.915 . S
C845 C157 1.855 . S
C850 C21 1.870 . S
C875 C182 1.919 . S
C880 C42 1.895 . S
