# Generated by pormake.
# Topology wkb, (5)-cn, num edge types: 1
# Building blocks:
#     Node 0, Type 0, BuildingBlock: XOMCOT_clean_sbu_1, # of connection points: 5
#     Node 1, Type 0, BuildingBlock: XOMCOT_clean_sbu_1, # of connection points: 5
#     Node 2, Type 0, BuildingBlock: XOMCOT_clean_sbu_1, # of connection points: 5
#     Node 3, Type 0, BuildingBlock: XOMCOT_clean_sbu_1, # of connection points: 5
#     Node 4, Type 0, BuildingBlock: XOMCOT_clean_sbu_1, # of connection points: 5
#     Node 5, Type 0, BuildingBlock: XOMCOT_clean_sbu_1, # of connection points: 5
#     Node 6, Type 0, BuildingBlock: XOMCOT_clean_sbu_1, # of connection points: 5
#     Node 7, Type 0, BuildingBlock: XOMCOT_clean_sbu_1, # of connection points: 5
#     Node 8, Type 0, BuildingBlock: XOMCOT_clean_sbu_1, # of connection points: 5
#     Node 9, Type 0, BuildingBlock: XOMCOT_clean_sbu_1, # of connection points: 5
#     Node 10, Type 0, BuildingBlock: XOMCOT_clean_sbu_1, # of connection points: 5
#     Node 11, Type 0, BuildingBlock: XOMCOT_clean_sbu_1, # of connection points: 5
#     Edge 12, Type (0, 0), BuildingBlock: EZIPEK_clean_linker_0, # of connection points: 2
#     Edge 13, Type (0, 0), BuildingBlock: EZIPEK_clean_linker_0, # of connection points: 2
#     Edge 14, Type (0, 0), BuildingBlock: EZIPEK_clean_linker_0, # of connection points: 2
#     Edge 15, Type (0, 0), BuildingBlock: EZIPEK_clean_linker_0, # of connection points: 2
#     Edge 16, Type (0, 0), BuildingBlock: EZIPEK_clean_linker_0, # of connection points: 2
#     Edge 17, Type (0, 0), BuildingBlock: EZIPEK_clean_linker_0, # of connection points: 2
#     Edge 18, Type (0, 0), BuildingBlock: EZIPEK_clean_linker_0, # of connection points: 2
#     Edge 19, Type (0, 0), BuildingBlock: EZIPEK_clean_linker_0, # of connection points: 2
#     Edge 20, Type (0, 0), BuildingBlock: EZIPEK_clean_linker_0, # of connection points: 2
#     Edge 21, Type (0, 0), BuildingBlock: EZIPEK_clean_linker_0, # of connection points: 2
#     Edge 22, Type (0, 0), BuildingBlock: EZIPEK_clean_linker_0, # of connection points: 2
#     Edge 23, Type (0, 0), BuildingBlock: EZIPEK_clean_linker_0, # of connection points: 2
#     Edge 24, Type (0, 0), BuildingBlock: EZIPEK_clean_linker_0, # of connection points: 2
#     Edge 25, Type (0, 0), BuildingBlock: EZIPEK_clean_linker_0, # of connection points: 2
#     Edge 26, Type (0, 0), BuildingBlock: EZIPEK_clean_linker_0, # of connection points: 2
#     Edge 27, Type (0, 0), BuildingBlock: EZIPEK_clean_linker_0, # of connection points: 2
#     Edge 28, Type (0, 0), BuildingBlock: EZIPEK_clean_linker_0, # of connection points: 2
#     Edge 29, Type (0, 0), BuildingBlock: EZIPEK_clean_linker_0, # of connection points: 2
#     Edge 30, Type (0, 0), BuildingBlock: EZIPEK_clean_linker_0, # of connection points: 2
#     Edge 31, Type (0, 0), BuildingBlock: EZIPEK_clean_linker_0, # of connection points: 2
#     Edge 32, Type (0, 0), BuildingBlock: EZIPEK_clean_linker_0, # of connection points: 2
#     Edge 33, Type (0, 0), BuildingBlock: EZIPEK_clean_linker_0, # of connection points: 2
#     Edge 34, Type (0, 0), BuildingBlock: EZIPEK_clean_linker_0, # of connection points: 2
#     Edge 35, Type (0, 0), BuildingBlock: EZIPEK_clean_linker_0, # of connection points: 2
#     Edge 36, Type (0, 0), BuildingBlock: EZIPEK_clean_linker_0, # of connection points: 2
#     Edge 37, Type (0, 0), BuildingBlock: EZIPEK_clean_linker_0, # of connection points: 2
#     Edge 38, Type (0, 0), BuildingBlock: EZIPEK_clean_linker_0, # of connection points: 2
#     Edge 39, Type (0, 0), BuildingBlock: EZIPEK_clean_linker_0, # of connection points: 2
#     Edge 40, Type (0, 0), BuildingBlock: EZIPEK_clean_linker_0, # of connection points: 2
#     Edge 41, Type (0, 0), BuildingBlock: EZIPEK_clean_linker_0, # of connection points: 2
# Relax obj value: 0.085
# Max RMSD: 0.113
# Mean RMSD: 0.113
data_MOF--net-wkb--node1-XOMCOT_clean_sbu_1--edge1-EZIPEK_clean_linker_0
_symmetry_space_group_name_H-M    P1
_symmetry_Int_Tables_number       1
_symmetry_cell_setting            triclinic
loop_
_symmetry_equiv_pos_as_xyz
'x, y, z'
_cell_length_a     35.54819
_cell_length_b     35.560277
_cell_length_c     29.293223
_cell_angle_alpha  90.002392
_cell_angle_beta   89.994753
_cell_angle_gamma 119.92145
loop_
_atom_site_label
_atom_site_type_symbol
_atom_site_fract_x
_atom_site_fract_y
_atom_site_fract_z
_atom_type_partial_charge
C0 C 0.11259 0.38605 0.97164 0.0
C1 C 0.10409 0.3857 0.9262 0.0
N2 N 0.06731 0.34849 0.91693 0.0
N3 N 0.08192 0.34889 0.99087 0.0
C4 C 0.0541 0.32659 0.95684 0.0
H5 H 0.13963 0.41181 0.98985 0.0
Co6 Co 0.08848 0.34084 0.05129 0.0
C7 C 0.99377 0.2771 0.08177 0.0
O8 O 0.98961 0.3088 0.09903 0.0
N9 N 0.09736 0.33461 0.11311 0.0
C10 C 0.09325 0.33329 0.18906 0.0
C11 C 0.07532 0.33749 0.14945 0.0
C12 C 0.12913 0.32936 0.13179 0.0
N13 N 0.12686 0.32814 0.17767 0.0
O14 O 0.11499 0.30417 0.03166 0.0
H15 H 0.04975 0.34528 0.14809 0.0
H16 H 0.15466 0.32861 0.11257 0.0
O17 O 0.02821 0.28576 0.05846 0.0
C18 C 0.15397 0.32438 0.01512 0.0
O19 O 0.17567 0.36688 0.0177 0.0
N20 N 0.06902 0.38168 0.06563 0.0
C21 C 0.05961 0.45612 0.0698 0.0
C22 C 0.02916 0.41849 0.04666 0.0
C23 C 0.03477 0.38196 0.04439 0.0
C24 C 0.09891 0.41825 0.0881 0.0
C25 C 0.09446 0.45529 0.09121 0.0
H26 H 1.01259 0.35458 0.02376 0.0
H27 H 0.12779 0.41967 0.10197 0.0
H28 H 1.02508 0.29532 0.96107 0.0
H29 H 0.12292 0.4111 0.90177 0.0
H30 H 0.08391 0.33603 0.22354 0.0
H31 H 1.00218 0.41799 0.02893 0.0
H32 H 0.11915 0.48382 0.10868 0.0
C33 C 0.72893 0.09179 0.14233 0.0
C34 C 0.71992 0.08197 0.09713 0.0
N35 N 0.72965 0.051 0.08661 0.0
N36 N 0.74444 0.06729 0.16025 0.0
C37 C 0.74461 0.0426 0.12544 0.0
H38 H 0.72651 0.1169 0.16063 0.0
Co39 Co 0.76881 0.08119 0.21714 0.0
C40 C 0.74745 0.98045 0.22467 0.0
O41 O 0.72801 0.96198 0.18625 0.0
N42 N 0.79436 0.09803 0.27403 0.0
C43 C 0.82288 0.10113 0.34226 0.0
C44 C 0.8016 0.07489 0.306 0.0
C45 C 0.81218 0.13847 0.29143 0.0
N46 N 0.82946 0.14085 0.33285 0.0
O47 O 0.82756 0.10369 0.18827 0.0
H48 H 0.79296 0.04132 0.30363 0.0
H49 H 0.81265 0.16558 0.27413 0.0
O50 O 0.76006 0.02097 0.23102 0.0
C51 C 0.84343 0.14249 0.17201 0.0
O52 O 0.8213 0.16254 0.17874 0.0
N53 N 0.7123 0.06482 0.24181 0.0
C54 C 0.62833 0.05383 0.25299 0.0
C55 C 0.6341 0.01939 0.2383 0.0
C56 C 0.67623 0.02565 0.23247 0.0
C57 C 0.70709 0.09805 0.25792 0.0
C58 C 0.66564 0.09318 0.26395 0.0
H59 H 0.67966 0.99989 0.21724 0.0
H60 H 0.7351 0.12979 0.2627 0.0
H61 H 0.75791 0.02118 0.12748 0.0
H62 H 0.70791 0.0969 0.07342 0.0
H63 H 0.83299 0.09199 0.3732 0.0
H64 H 0.60626 0.98855 0.22903 0.0
H65 H 0.66282 0.12076 0.27492 0.0
C66 C 0.67486 0.74998 0.29572 0.0
C67 C 0.67905 0.7414 0.25121 0.0
N68 N 0.71167 0.7327 0.24857 0.0
N69 N 0.70518 0.74756 0.3211 0.0
C70 C 0.72701 0.73624 0.29155 0.0
H71 H 0.65075 0.75708 0.30904 0.0
Co72 Co 0.70747 0.76038 0.38195 0.0
C73 C 0.77011 0.73487 0.42599 0.0
O74 O 0.73856 0.7075 0.45233 0.0
N75 N 0.70782 0.77387 0.44459 0.0
C76 C 0.69541 0.7679 0.51968 0.0
C77 C 0.69082 0.74576 0.48011 0.0
C78 C 0.72216 0.81321 0.46405 0.0
N79 N 0.71495 0.81014 0.50941 0.0
O80 O 0.74409 0.82357 0.36444 0.0
H81 H 0.6746 0.71084 0.47808 0.0
H82 H 0.73608 0.84347 0.44555 0.0
O83 O 0.76213 0.7553 0.39413 0.0
C84 C 0.72306 0.84285 0.35192 0.0
O85 O 0.68132 0.82339 0.36093 0.0
N86 N 0.66649 0.70016 0.39309 0.0
C87 C 0.5941 0.61569 0.4002 0.0
C88 C 0.63531 0.62229 0.38799 0.0
C89 C 0.67101 0.66487 0.38385 0.0
C90 C 0.62624 0.69405 0.40309 0.0
C91 C 0.59006 0.65241 0.40767 0.0
H92 H 0.70183 0.6694 0.37216 0.0
H93 H 0.62216 0.72202 0.40748 0.0
H94 H 0.75314 0.73053 0.30115 0.0
H95 H 0.65889 0.74028 0.22293 0.0
H96 H 0.68322 0.75406 0.55305 0.0
H97 H 0.63963 0.5948 0.38084 0.0
H98 H 0.55883 0.64891 0.41626 0.0
C99 C 0.94222 0.64291 0.47566 0.0
C100 C 0.9469 0.63934 0.42983 0.0
N101 N 0.98033 0.67715 0.41525 0.0
N102 N 0.97201 0.68297 0.48982 0.0
C103 C 0.99531 0.70312 0.45233 0.0
H104 H 0.91767 0.61828 0.49735 0.0
Co105 Co 0.9684 0.69754 0.549 0.0
C106 C 0.06689 0.78324 0.54377 0.0
O107 O 0.07747 0.79499 0.50109 0.0
N108 N 0.96298 0.71015 0.60889 0.0
C109 C 0.97708 0.72471 0.68272 0.0
C110 C 0.99319 0.72035 0.64183 0.0
C111 C 0.92858 0.70815 0.63044 0.0
N112 N 0.93662 0.71698 0.67526 0.0
O113 O 0.94246 0.73318 0.52537 0.0
H114 H 1.02431 0.72269 0.63686 0.0
H115 H 0.89794 0.69921 0.61409 0.0
O116 O 0.0293 0.75012 0.55259 0.0
C117 C 0.90269 0.71136 0.51132 0.0
O118 O 0.88144 0.66934 0.51876 0.0
N119 N 0.98799 0.65853 0.56829 0.0
C120 C 0.99714 0.58433 0.57477 0.0
C121 C 0.0279 0.62156 0.55133 0.0
C122 C 1.02258 0.65817 0.5482 0.0
C123 C 0.9588 0.62323 0.59281 0.0
C124 C 0.96294 0.58605 0.59674 0.0
H125 H 0.04433 0.68484 0.52653 0.0
H126 H 0.93028 0.62253 0.60677 0.0
H127 H 1.02148 0.73631 0.4516 0.0
H128 H 0.92708 0.6114 0.40858 0.0
H129 H 0.99309 0.73165 0.7156 0.0
H130 H 0.05453 0.62145 0.53348 0.0
H131 H 0.9383 0.55796 0.61482 0.0
C132 C 0.3242 0.94473 0.63844 0.0
C133 C 0.33658 0.95876 0.59478 0.0
N134 N 0.33073 0.99281 0.58775 0.0
N135 N 0.3104 0.96962 0.65902 0.0
C136 C 0.31443 0.99868 0.62705 0.0
H137 H 0.32335 0.91663 0.6536 0.0
Co138 Co 0.28451 0.95262 0.71516 0.0
C139 C 0.30929 0.05322 0.72933 0.0
O140 O 0.33636 0.07316 0.69562 0.0
N141 N 0.25744 0.93348 0.77068 0.0
C142 C 0.21296 0.92344 0.82837 0.0
C143 C 0.23 0.94554 0.78858 0.0
C144 C 0.25584 0.90323 0.79965 0.0
N145 N 0.22935 0.89712 0.83501 0.0
O146 O 0.22609 0.93146 0.68586 0.0
H147 H 0.2217 0.96799 0.77297 0.0
H148 H 0.27224 0.88493 0.79467 0.0
O149 O 0.29226 1.01175 0.7334 0.0
C150 C 0.2109 0.89371 0.66716 0.0
O151 O 0.23494 0.87527 0.66997 0.0
N152 N 0.34051 0.96713 0.7405 0.0
C153 C 0.42427 0.97837 0.7546 0.0
C154 C 0.41779 1.0142 0.75198 0.0
C155 C 0.37582 1.00794 0.74457 0.0
C156 C 0.34647 0.93208 0.744 0.0
C157 C 0.38769 0.93691 0.75143 0.0
H158 H 0.37272 0.03617 0.73955 0.0
H159 H 0.31956 0.89997 0.73735 0.0
H160 H 0.30336 0.02178 0.6312 0.0
H161 H 0.3484 0.94477 0.56969 0.0
H162 H 0.18952 0.92554 0.85026 0.0
H163 H 0.44526 0.04684 0.75367 0.0
H164 H 0.39124 0.90838 0.75242 0.0
C165 C 0.38439 0.2895 0.802 0.0
C166 C 0.38096 0.29848 0.7574 0.0
N167 N 0.34623 0.30377 0.75355 0.0
N168 N 0.35175 0.28863 0.82622 0.0
C169 C 0.32911 0.29823 0.79594 0.0
H170 H 0.40902 0.28355 0.81614 0.0
Co171 Co 0.34861 0.27398 0.88649 0.0
C172 C 0.287 0.29985 0.93225 0.0
O173 O 0.3193 0.32638 0.95838 0.0
N174 N 0.34765 0.25861 0.9486 0.0
C175 C 0.35966 0.26158 0.02368 0.0
C176 C 0.36541 0.28537 0.98503 0.0
C177 C 0.33147 0.21842 0.96661 0.0
N178 N 0.33844 0.21964 0.0119 0.0
O179 O 0.31201 0.21097 0.86698 0.0
H180 H 0.3826 0.32036 0.98429 0.0
H181 H 0.31593 0.18875 0.94717 0.0
O182 O 0.29397 0.2792 0.89973 0.0
C183 C 0.33242 0.19093 0.85467 0.0
O184 O 0.37412 0.20964 0.86353 0.0
N185 N 0.38944 0.33395 0.89908 0.0
C186 C 0.46178 0.41872 0.90305 0.0
C187 C 0.42027 0.41162 0.89149 0.0
C188 C 0.38465 0.36892 0.88885 0.0
C189 C 0.42989 0.34049 0.9089 0.0
C190 C 0.46608 0.38233 0.91191 0.0
H191 H 0.3537 0.36397 0.87703 0.0
H192 H 0.43425 0.31274 0.91377 0.0
H193 H 0.3006 0.30035 0.8044 0.0
H194 H 0.40233 0.30111 0.72971 0.0
H195 H 0.37191 0.27402 0.05746 0.0
H196 H 0.41572 0.43879 0.88333 0.0
H197 H 0.49754 0.38619 0.92005 0.0
C198 C 0.66805 0.92847 0.85761 0.0
C199 C 0.6697 0.9376 0.90305 0.0
N200 N 0.70457 0.97692 0.9102 0.0
N201 N 0.7023 0.96128 0.83632 0.0
C202 C 0.72401 0.99086 0.86918 0.0
H203 H 0.64274 0.90005 0.84076 0.0
Co204 Co 0.70903 0.95687 0.77497 0.0
C205 C 0.77259 0.05294 0.74891 0.0
O206 O 0.74082 0.05894 0.73556 0.0
N207 N 0.71468 0.95087 0.71229 0.0
C208 C 0.71674 0.96049 0.63698 0.0
C209 C 0.71239 0.9756 0.67839 0.0
C210 C 0.71992 0.92046 0.69033 0.0
N211 N 0.72141 0.92596 0.64474 0.0
O212 O 0.74563 0.92982 0.7909 0.0
H213 H 0.70513 1.00134 0.68267 0.0
H214 H 0.72094 0.89385 0.707 0.0
O215 O 0.76398 1.01707 0.76908 0.0
C216 C 0.72422 0.88987 0.80424 0.0
O217 O 0.68209 0.86906 0.79734 0.0
N218 N 0.66764 0.97627 0.76388 0.0
C219 C 0.59251 0.98453 0.76095 0.0
C220 C 0.62959 1.0143 0.78536 0.0
C221 C 0.66649 1.00922 0.78701 0.0
C222 C 0.63143 0.94685 0.74055 0.0
C223 C 0.59411 0.9508 0.73799 0.0
H224 H 0.69352 0.0309 0.80832 0.0
H225 H 0.63061 0.91877 0.72525 0.0
H226 H 0.75262 0.02208 0.86317 0.0
H227 H 0.64608 0.91793 0.92869 0.0
H228 H 0.71417 0.97223 0.60367 0.0
H229 H 0.62946 0.04038 0.80431 0.0
H230 H 0.566 0.92662 0.71953 0.0
C231 C 0.73845 0.64716 0.01415 0.0
C232 C 0.73143 0.6469 0.06006 0.0
N233 N 0.7393 0.68667 0.07198 0.0
N234 N 0.751 0.68692 0.99709 0.0
C235 C 0.75124 0.71056 0.03326 0.0
H236 H 0.73581 0.62028 0.99434 0.0
Co237 Co 0.76886 0.69686 0.93708 0.0
C238 C 0.75524 0.78205 0.93434 0.0
O239 O 0.75249 0.79289 0.97651 0.0
N240 N 0.78668 0.70499 0.87684 0.0
C241 C 0.78714 0.71507 0.80192 0.0
C242 C 0.76547 0.71105 0.84185 0.0
C243 C 0.82107 0.70507 0.85741 0.0
N244 N 0.82187 0.71127 0.81199 0.0
O245 O 0.83049 0.73337 0.95953 0.0
H246 H 0.73543 0.71129 0.84494 0.0
H247 H 0.84466 0.70017 0.87584 0.0
O248 O 0.76066 0.74921 0.92723 0.0
C249 C 0.84785 0.71176 0.97596 0.0
O250 O 0.82593 0.66931 0.97207 0.0
N251 N 0.71014 0.65692 0.91885 0.0
C252 C 0.62591 0.58466 0.90949 0.0
C253 C 0.63264 0.62306 0.93064 0.0
C254 C 0.67503 0.65866 0.93536 0.0
C255 C 0.70397 0.62023 0.89714 0.0
C256 C 0.66228 0.58403 0.89181 0.0
H257 H 0.67988 0.68663 0.95472 0.0
H258 H 0.73181 0.61801 0.88601 0.0
H259 H 0.76139 0.74464 0.03192 0.0
H260 H 0.72132 0.61972 0.0831 0.0
H261 H 0.77793 0.71969 0.76804 0.0
H262 H 0.60555 0.62478 0.94521 0.0
H263 H 0.65866 0.555 0.87568 0.0
C264 C 0.10056 0.72597 0.18789 0.0
C265 C 0.08536 0.71206 0.23086 0.0
N266 N 0.04877 0.71388 0.2362 0.0
N267 N 0.07397 0.73691 0.1662 0.0
C268 C 0.0421 0.72878 0.1963 0.0
H269 H 0.13027 0.72957 0.17379 0.0
Co270 Co 0.09198 0.76392 0.11114 0.0
C271 C 1.01387 0.74961 0.0551 0.0
O272 O 0.03257 0.74075 0.02138 0.0
N273 N 0.11338 0.7929 0.0566 0.0
C274 C 0.1338 0.84581 0.00566 0.0
C275 C 0.11197 0.82911 0.0457 0.0
C276 C 0.13691 0.78857 0.02296 0.0
N277 N 0.1492 0.82015 0.99173 0.0
O278 O 0.11412 0.82149 0.14248 0.0
H279 H 0.09629 0.8428 0.06592 0.0
H280 H 0.14596 0.76385 0.02124 0.0
O281 O 0.0323 0.75823 0.09509 0.0
C282 C 0.15249 0.83681 0.15949 0.0
O283 O 0.17149 0.81351 0.15399 0.0
N284 N 0.07626 0.70804 0.08509 0.0
C285 C 0.06398 0.6236 0.0737 0.0
C286 C 0.02838 0.63041 0.07764 0.0
C287 C 0.03519 0.67275 0.08394 0.0
C288 C 0.11098 0.70157 0.08136 0.0
C289 C 0.10563 0.66007 0.07488 0.0
H290 H 1.00747 0.67643 0.09115 0.0
H291 H 0.14338 0.72852 0.08683 0.0
H292 H 1.01598 0.73544 0.19006 0.0
H293 H 0.10039 0.70216 0.25677 0.0
H294 H 0.13868 0.87481 0.98835 0.0
H295 H 0.99565 0.60301 0.07805 0.0
H296 H 0.134 0.65628 0.07319 0.0
C297 C 0.39904 0.10969 0.35253 0.0
C298 C 0.40222 0.10534 0.39851 0.0
N299 N 0.36563 0.06993 0.41221 0.0
N300 N 0.36014 0.07798 0.33753 0.0
C301 C 0.34044 0.05391 0.37474 0.0
H302 H 0.42353 0.13465 0.33108 0.0
Co303 Co 0.34579 0.07813 0.27731 0.0
C304 C 0.26257 0.9784 0.28499 0.0
O305 O 0.25204 0.96625 0.32759 0.0
N306 N 0.33317 0.07981 0.21652 0.0
C307 C 0.32025 0.06207 0.14314 0.0
C308 C 0.32543 0.04874 0.18536 0.0
C309 C 0.3328 0.11193 0.19259 0.0
N310 N 0.32485 0.10164 0.14802 0.0
O311 O 0.30818 0.1031 0.29672 0.0
H312 H 0.32594 0.01932 0.1924 0.0
H313 H 0.34002 0.14285 0.207 0.0
O314 O 0.29458 1.01677 0.27666 0.0
C315 C 0.32909 0.14271 0.31114 0.0
O316 O 0.37148 0.16347 0.30645 0.0
N317 N 0.38636 0.05945 0.26144 0.0
C318 C 0.46082 0.05044 0.25541 0.0
C319 C 0.42346 0.01972 0.27885 0.0
C320 C 0.38681 0.02509 0.28194 0.0
C321 C 0.42187 0.0888 0.2373 0.0
C322 C 0.45917 0.08479 0.23369 0.0
H323 H 0.3599 1.00319 0.30327 0.0
H324 H 0.42236 0.11705 0.22292 0.0
H325 H 0.30845 0.02569 0.37479 0.0
H326 H 0.4296 0.12582 0.42015 0.0
H327 H 0.31555 0.04515 0.11107 0.0
H328 H 0.42339 0.99292 0.29646 0.0
H329 H 0.48724 0.10941 0.21555 0.0
C330 C 0.29727 0.37673 0.5251 0.0
C331 C 0.30462 0.37384 0.57043 0.0
N332 N 0.31183 0.34043 0.57591 0.0
N333 N 0.29916 0.34492 0.50211 0.0
C334 C 0.3091 0.32365 0.53378 0.0
H335 H 0.29025 0.40019 0.50973 0.0
Co336 Co 0.28534 0.338 0.44125 0.0
C337 C 0.27335 0.25178 0.41027 0.0
O338 O 0.23441 0.2429 0.39723 0.0
N339 N 0.2718 0.33283 0.37927 0.0
C340 C 0.27895 0.33104 0.30389 0.0
C341 C 0.29824 0.33423 0.34521 0.0
C342 C 0.23661 0.32908 0.35769 0.0
N343 N 0.24035 0.32775 0.31206 0.0
O344 O 0.22235 0.29945 0.45991 0.0
H345 H 0.3304 0.33905 0.34984 0.0
H346 H 0.20938 0.32856 0.37463 0.0
O347 O 0.29681 0.28726 0.43293 0.0
C348 C 0.20114 0.31908 0.47074 0.0
O349 O 0.21883 0.36044 0.46058 0.0
N350 N 0.34468 0.38002 0.42759 0.0
C351 C 0.42905 0.45182 0.41686 0.0
C352 C 0.42248 0.41247 0.43542 0.0
C353 C 0.38001 0.37707 0.4409 0.0
C354 C 0.35059 0.41804 0.4095 0.0
C355 C 0.3923 0.45399 0.40345 0.0
H356 H 0.3755 0.34787 0.45729 0.0
H357 H 0.32257 0.42089 0.40068 0.0
H358 H 0.31314 0.29604 0.52648 0.0
H359 H 0.30478 0.39466 0.59749 0.0
H360 H 0.29257 0.33245 0.27045 0.0
H361 H 0.44992 0.40955 0.44673 0.0
H362 H 0.39578 0.48375 0.38944 0.0
C363 C 0.95317 0.31406 0.68389 0.0
C364 C 0.96407 0.32447 0.72857 0.0
N365 N 0.99776 0.31857 0.73792 0.0
N366 N 0.9798 0.30165 0.66483 0.0
C367 C 1.00687 0.30465 0.69872 0.0
H368 H 0.92549 0.31277 0.66715 0.0
Co369 Co 0.96473 0.276 0.60846 0.0
C370 C 0.06507 0.29928 0.59672 0.0
O371 O 0.08492 0.32505 0.63139 0.0
N372 N 0.94765 0.24912 0.55232 0.0
C373 C 0.93789 0.20271 0.49668 0.0
C374 C 0.95541 0.21722 0.53904 0.0
C375 C 0.92546 0.2536 0.51735 0.0
N376 N 0.91903 0.22553 0.48347 0.0
O377 O 0.94355 0.21808 0.63879 0.0
H378 H 0.97235 0.20488 0.55925 0.0
H379 H 0.91302 0.27573 0.51665 0.0
O380 O 1.02387 0.28359 0.59203 0.0
C381 C 0.90454 0.20116 0.65464 0.0
O382 O 0.88307 0.22171 0.64688 0.0
N383 N 0.97976 0.33194 0.5831 0.0
C384 C 0.99104 0.41604 0.57311 0.0
C385 C 1.02692 0.4097 0.57656 0.0
C386 C 1.02062 0.36749 0.58187 0.0
C387 C 0.94472 0.33779 0.57848 0.0
C388 C 0.94959 0.37922 0.57302 0.0
H389 H 0.04866 0.3642 0.58804 0.0
H390 H 0.91237 0.31035 0.58266 0.0
H391 H 0.03053 0.29413 0.6959 0.0
H392 H 0.94773 0.33432 0.75294 0.0
H393 H 0.93813 0.17689 0.47732 0.0
H394 H 0.05952 0.43733 0.57731 0.0
H395 H 0.921 0.38261 0.57113 0.0
C396 C 0.21771 0.3678 0.26175 0.0
C397 C 0.2115 0.32771 0.27818 0.0
C398 C 0.15052 0.2878 0.22628 0.0
C399 C 0.15744 0.32787 0.20905 0.0
N400 N 0.19883 0.40561 0.20519 0.0
N401 N 0.17642 0.25006 0.2749 0.0
C402 C 0.19155 0.36787 0.22529 0.0
C403 C 0.17908 0.28773 0.26004 0.0
N404 N 0.2482 0.40548 0.28185 0.0
N405 N 0.1159 0.25016 0.21089 0.0
H406 H 0.19647 0.24947 0.30058 0.0
H407 H 0.15606 0.21975 0.26064 0.0
H408 H 0.09549 0.24974 0.18505 0.0
H409 H 0.10621 0.2197 0.22464 0.0
H410 H 0.25233 0.43592 0.27446 0.0
H411 H 0.26828 0.40609 0.30815 0.0
H412 H 0.22516 0.43599 0.21259 0.0
H413 H 0.17956 0.40627 0.17871 0.0
C414 C 0.82615 0.17598 0.40242 0.0
C415 C 0.84963 0.17691 0.3633 0.0
C416 C 0.91755 0.22777 0.40035 0.0
C417 C 0.89491 0.21842 0.44221 0.0
N418 N 0.82777 0.18578 0.48434 0.0
N419 N 0.91625 0.20626 0.32138 0.0
C420 C 0.84899 0.19431 0.44349 0.0
C421 C 0.89496 0.20477 0.3607 0.0
N422 N 0.78195 0.15539 0.40021 0.0
N423 N 0.96085 0.25742 0.3996 0.0
H424 H 0.89968 0.19005 0.29186 0.0
H425 H 0.94989 0.22236 0.31824 0.0
H426 H 0.97743 0.27411 0.42898 0.0
H427 H 0.97934 0.26782 0.3699 0.0
H428 H 0.76238 0.15559 0.42654 0.0
H429 H 0.76529 0.14124 0.36998 0.0
H430 H 0.79465 0.16444 0.48817 0.0
H431 H 0.84372 0.19853 0.51513 0.0
C432 C 0.67969 0.84326 0.55172 0.0
C433 C 0.71811 0.84309 0.53971 0.0
C434 C 0.75946 0.89978 0.59573 0.0
C435 C 0.72026 0.89685 0.61052 0.0
N436 N 0.64255 0.86327 0.60766 0.0
N437 N 0.79387 0.86821 0.55041 0.0
C438 C 0.68015 0.86792 0.58979 0.0
C439 C 0.75799 0.87082 0.56157 0.0
N440 N 0.64312 0.8202 0.526 0.0
N441 N 0.79786 0.93085 0.61396 0.0
H442 H 0.79343 0.84811 0.52432 0.0
H443 H 0.82317 0.8842 0.568 0.0
H444 H 0.79929 0.95165 0.63987 0.0
H445 H 0.82816 0.93767 0.60191 0.0
H446 H 0.61488 0.82178 0.53033 0.0
H447 H 0.64233 0.8022 0.49752 0.0
H448 H 0.61176 0.83975 0.59693 0.0
H449 H 0.64209 0.88084 0.63597 0.0
C450 C 0.87626 0.67469 0.72787 0.0
C451 C 0.90723 0.71529 0.70952 0.0
C452 C 0.88561 0.75315 0.76369 0.0
C453 C 0.85253 0.7125 0.77967 0.0
N454 N 0.81226 0.63472 0.77518 0.0
N455 N 0.93976 0.79271 0.70539 0.0
C456 C 0.84677 0.67319 0.76136 0.0
C457 C 0.91154 0.75451 0.72627 0.0
N458 N 0.8761 0.63793 0.714 0.0
N459 N 0.89227 0.79014 0.78501 0.0
H460 H 0.95904 0.7942 0.6778 0.0
H461 H 0.9421 0.82236 0.71313 0.0
H462 H 0.87331 0.78958 0.8125 0.0
H463 H 0.9181 0.82091 0.7778 0.0
H464 H 0.85719 0.60768 0.72907 0.0
H465 H 0.89728 0.63828 0.68912 0.0
H466 H 0.80344 0.605 0.75996 0.0
H467 H 0.79066 0.6329 0.80036 0.0
C468 C 0.24049 0.88202 0.91343 0.0
C469 C 0.21779 0.86715 0.87183 0.0
C470 C 0.15528 0.80893 0.91047 0.0
C471 C 0.1756 0.8276 0.95239 0.0
N472 N 0.23971 0.87256 0.99574 0.0
N473 N 0.16072 0.81125 0.82764 0.0
C474 C 0.21947 0.86072 0.95435 0.0
C475 C 0.17769 0.82813 0.86942 0.0
N476 N 0.28057 0.91836 0.91347 0.0
N477 N 0.11358 0.77517 0.91047 0.0
H478 H 0.17727 0.82588 0.79754 0.0
H479 H 0.13234 0.78179 0.82268 0.0
H480 H 0.09713 0.76057 0.94063 0.0
H481 H 0.09498 0.76213 0.8812 0.0
H482 H 0.29788 0.93372 0.94283 0.0
H483 H 0.29634 0.93363 0.88323 0.0
H484 H 0.27234 0.8954 0.00013 0.0
H485 H 0.22391 0.85697 0.02585 0.0
C486 C 0.37032 0.18245 0.05298 0.0
C487 C 0.3331 0.18487 0.04082 0.0
C488 C 0.28929 0.12837 0.09616 0.0
C489 C 0.32752 0.12954 0.1116 0.0
N490 N 0.40443 0.15734 0.10739 0.0
N491 N 0.25722 0.16069 0.0482 0.0
C492 C 0.36809 0.15634 0.09052 0.0
C493 C 0.29237 0.15754 0.06135 0.0
N494 N 0.40739 0.2048 0.02781 0.0
N495 N 0.2503 0.099 0.11482 0.0
H496 H 0.25855 0.17996 0.0208 0.0
H497 H 0.22729 0.14522 0.0646 0.0
H498 H 0.24777 0.07817 0.14124 0.0
H499 H 0.22043 0.09365 0.10303 0.0
H500 H 0.43501 0.20216 0.03227 0.0
H501 H 0.40927 0.22361 -0.00037 0.0
H502 H 0.43582 0.17919 0.09669 0.0
H503 H 0.40338 0.13763 0.13429 0.0
C504 C 0.04518 0.51108 0.11013 0.0
C505 C 0.05686 0.49725 0.06966 0.0
C506 C 0.0655 0.56256 0.03003 0.0
C507 C 0.0585 0.57863 0.07173 0.0
N508 N 0.04659 0.57034 0.15301 0.0
N509 N 0.08328 0.51253 0.99222 0.0
C510 C 0.04942 0.5533 0.11216 0.0
C511 C 0.06814 0.52364 0.02981 0.0
N512 N 0.02902 0.48334 0.14642 0.0
N513 N 0.0688 0.58419 0.99033 0.0
H514 H 0.08555 0.48444 0.99051 0.0
H515 H 0.09675 0.5327 0.96402 0.0
H516 H 0.06727 0.61273 0.98932 0.0
H517 H 0.06927 0.57205 0.95812 0.0
H518 H 1.01553 0.4893 0.17514 0.0
H519 H 1.02559 0.45244 0.14616 0.0
H520 H 0.04515 0.55596 0.18441 0.0
H521 H 0.04895 0.60067 0.15597 0.0
C522 C 0.5188 0.04136 0.21388 0.0
C523 C 0.50237 0.04834 0.25537 0.0
C524 C 0.5651 0.05196 0.2961 0.0
C525 C 0.58395 0.05006 0.25394 0.0
N526 N 0.58151 0.05029 0.17162 0.0
N527 N 0.51413 0.06748 0.33522 0.0
C528 C 0.56143 0.04658 0.21253 0.0
C529 C 0.52662 0.05541 0.29634 0.0
N530 N 0.49315 0.02856 0.17583 0.0
N531 N 0.5834 0.04937 0.33614 0.0
H532 H 0.48681 0.0711 0.33686 0.0
H533 H 0.53295 0.07773 0.36473 0.0
H534 H 0.61124 0.04659 0.33731 0.0
H535 H 0.56881 0.04589 0.36788 0.0
H536 H 0.50129 0.0185 0.14587 0.0
H537 H 0.4618 0.02399 0.17558 0.0
H538 H 0.56885 0.05291 0.14048 0.0
H539 H 0.61273 0.05477 0.16891 0.0
C540 C 0.53193 0.5474 0.36474 0.0
C541 C 0.5546 0.57097 0.40437 0.0
C542 C 0.49555 0.516 0.45244 0.0
C543 C 0.47378 0.49142 0.41294 0.0
N544 N 0.47548 0.47954 0.33226 0.0
N545 N 0.5622 0.57329 0.4861 0.0
C546 C 0.49335 0.50594 0.36931 0.0
C547 C 0.53762 0.55379 0.44826 0.0
N548 N 0.54627 0.56546 0.32261 0.0
N549 N 0.47515 0.50441 0.49386 0.0
H550 H 0.5929 0.60089 0.48429 0.0
H551 H 0.55402 0.56006 0.51874 0.0
H552 H 0.44464 0.47708 0.4985 0.0
H553 H 0.48683 0.52359 0.523 0.0
H554 H 0.52864 0.55261 0.2927 0.0
H555 H 0.57455 0.59519 0.31778 0.0
H556 H 0.49035 0.48589 0.30037 0.0
H557 H 0.44744 0.4492 0.33437 0.0
C558 C 1.00985 0.5275 0.6134 0.0
C559 C 0.99859 0.54257 0.57357 0.0
C560 C 0.98932 0.47801 0.53179 0.0
C561 C 0.99612 0.46084 0.57278 0.0
N562 N 1.00743 0.4668 0.65422 0.0
N563 N 0.97178 0.5291 0.4962 0.0
C564 C 1.00511 0.48506 0.614 0.0
C565 C 0.98696 0.51705 0.53304 0.0
N566 N 1.02613 0.55429 0.65041 0.0
N567 N 0.986 0.45739 0.49136 0.0
H568 H 0.96945 0.5572 0.4956 0.0
H569 H 0.95815 0.50958 0.46759 0.0
H570 H 0.98732 0.42878 0.48926 0.0
H571 H 0.98575 0.47046 0.45964 0.0
H572 H 0.03935 0.54738 0.67872 0.0
H573 H 0.02989 0.58531 0.6512 0.0
H574 H 1.00884 0.48043 0.68607 0.0
H575 H 1.00457 0.4362 0.65616 0.0
C576 C 0.48419 0.97539 0.79906 0.0
C577 C 0.46916 0.98377 0.75741 0.0
C578 C 0.53826 0.99989 0.72065 0.0
C579 C 0.55119 0.9869 0.76084 0.0
N580 N 0.53398 0.95733 0.83697 0.0
N581 N 0.47978 0.99901 0.67677 0.0
C582 C 0.52356 0.97356 0.79981 0.0
C583 C 0.49578 0.99491 0.71776 0.0
N584 N 0.46115 0.97001 0.83825 0.0
N585 N 0.5671 1.01799 0.68547 0.0
H586 H 0.44923 0.99607 0.6732 0.0
H587 H 0.49527 1.00203 0.64571 0.0
H588 H 0.59826 0.02206 0.68639 0.0
H589 H 0.56169 0.03241 0.65721 0.0
H590 H 0.47242 0.96844 0.87059 0.0
H591 H 0.43223 0.97085 0.83885 0.0
H592 H 0.51303 0.94242 0.86432 0.0
H593 H 0.56243 0.95572 0.83907 0.0
C594 C 0.52098 0.48183 0.94748 0.0
C595 C 0.5013 0.46362 0.90477 0.0
C596 C 0.55932 0.52858 0.86611 0.0
C597 C 0.58166 0.54415 0.90828 0.0
N598 N 0.58629 0.53211 0.98862 0.0
N599 N 0.50469 0.46743 0.82259 0.0
C600 C 0.563 0.51994 0.9489 0.0
C601 C 0.52116 0.48656 0.86384 0.0
N602 N 0.49901 0.46309 0.9869 0.0
N603 N 0.57407 0.55445 0.8283 0.0
H604 H 0.47686 0.43707 0.8194 0.0
H605 H 0.52036 0.48004 0.79165 0.0
H606 H 0.60167 0.58522 0.82875 0.0
H607 H 0.55698 0.5472 0.79767 0.0
H608 H 0.50927 0.47716 0.01898 0.0
H609 H 0.46832 0.43538 0.98716 0.0
H610 H 0.57676 0.51319 0.01807 0.0
H611 H 0.61708 0.55944 0.99125 0.0
C612 C 1.0193 0.29143 0.80563 0.0
C613 C 1.01793 0.32557 0.78195 0.0
C614 C 0.03865 0.36879 0.85144 0.0
C615 C 0.04619 0.33773 0.87327 0.0
N616 N 0.05113 0.27259 0.86828 0.0
N617 N 0.03719 0.40076 0.77937 0.0
C618 C 0.03855 0.29975 0.84967 0.0
C619 C 0.03101 0.36556 0.80405 0.0
N620 N 1.00062 0.25077 0.7873 0.0
N621 N 0.03771 0.40074 0.87639 0.0
H622 H 0.03421 0.39995 0.74389 0.0
H623 H 0.04997 0.43167 0.79348 0.0
H624 H 0.04065 0.40228 0.91189 0.0
H625 H 0.02904 0.42234 0.86249 0.0
H626 H 0.99692 0.22392 0.80544 0.0
H627 H 0.98526 0.24298 0.75569 0.0
H628 H 0.05041 0.24696 0.85026 0.0
H629 H 0.06573 0.27781 0.90022 0.0
C630 C 0.75326 1.01249 0.976 0.0
C631 C 0.71407 1.00029 0.95243 0.0
C632 C 0.6839 1.01502 0.02009 0.0
C633 C 0.72446 0.03169 0.04232 0.0
N634 N 0.80085 0.0547 0.03766 0.0
N635 N 0.64731 1.00182 0.94751 0.0
C636 C 0.76019 0.03287 0.01929 0.0
C637 C 0.68104 1.00543 0.97312 0.0
N638 N 0.78297 1.00305 0.95799 0.0
N639 N 0.64773 1.00657 0.04437 0.0
H640 H 0.64566 0.99691 0.91226 0.0
H641 H 0.62397 1.0086 0.96032 0.0
H642 H 0.64817 1.01035 0.07972 0.0
H643 H 0.61667 0.99111 0.03027 0.0
H644 H 0.80999 1.00698 0.97598 0.0
H645 H 0.77868 0.98802 0.92642 0.0
H646 H 0.82857 0.06021 0.01995 0.0
H647 H 0.8075 0.07069 0.06888 0.0
C648 C 0.76949 0.73259 0.14106 0.0
C649 C 0.73378 0.69911 0.11709 0.0
C650 C 0.68953 0.68072 0.18599 0.0
C651 C 0.7227 0.71792 0.20781 0.0
N652 N 0.79329 0.78199 0.20547 0.0
N653 N 0.6573 0.64722 0.11394 0.0
C654 C 0.76267 0.74452 0.18534 0.0
C655 C 0.69307 0.67463 0.13889 0.0
N656 N 0.80998 0.75197 0.12221 0.0
N657 N 0.65463 0.65129 0.21072 0.0
H658 H 0.65827 0.64421 0.07859 0.0
H659 H 0.626 0.63129 0.12741 0.0
H660 H 0.65212 0.65477 0.2458 0.0
H661 H 0.63089 0.62162 0.19755 0.0
H662 H 0.83796 0.77331 0.14002 0.0
H663 H 0.81607 0.74412 0.08985 0.0
H664 H 0.82088 0.80538 0.18857 0.0
H665 H 0.78976 0.79085 0.23838 0.0
C666 C 1.00081 0.7243 0.34662 0.0
C667 C 0.99592 0.68675 0.36908 0.0
C668 C 1.01199 0.66237 0.29781 0.0
C669 C 1.02443 0.70306 0.27788 0.0
N670 N 0.03807 0.77634 0.28659 0.0
N671 N 1.0075 0.62538 0.36822 0.0
C672 C 1.02058 0.73506 0.30295 0.0
C673 C 1.00421 0.65701 0.3452 0.0
N674 N 0.98562 0.749 0.36613 0.0
N675 N 1.0083 0.62915 0.27127 0.0
H676 H 1.00606 0.62298 0.40373 0.0
H677 H 1.01693 0.60506 0.35256 0.0
H678 H 1.01293 0.63229 0.23597 0.0
H679 H 0.99625 0.59769 0.28357 0.0
H680 H 0.98488 0.77428 0.34895 0.0
H681 H 0.9698 0.7416 0.39749 0.0
H682 H 0.04006 0.80188 0.30592 0.0
H683 H 0.05419 0.78593 0.25548 0.0
C684 C 0.3817 0.0323 0.52596 0.0
C685 C 0.3403 1.01675 0.54585 0.0
C686 C 0.31844 0.04365 0.48033 0.0
C687 C 0.35688 0.05196 0.45739 0.0
N688 N 0.4204 0.04391 0.45509 0.0
N689 N 0.26581 0.9995 0.53731 0.0
C690 C 0.38741 0.04357 0.4793 0.0
C691 C 0.30758 0.02035 0.52196 0.0
N692 N 0.41556 0.03668 0.55186 0.0
N693 N 0.29316 0.05914 0.46317 0.0
H694 H 0.25615 0.9796 0.56598 0.0
H695 H 0.24019 0.99825 0.51874 0.0
H696 H 0.30194 0.07861 0.43412 0.0
H697 H 0.2665 0.0568 0.4806 0.0
H698 H 0.44727 0.05095 0.53957 0.0
H699 H 0.41265 0.03056 0.58691 0.0
H700 H 0.4414 0.03452 0.46913 0.0
H701 H 0.42349 0.04845 0.41983 0.0
C702 C 0.35882 0.35943 0.64288 0.0
C703 C 0.32185 0.32805 0.61898 0.0
C704 C 0.29672 0.28224 0.68747 0.0
C705 C 0.33308 0.31459 0.71153 0.0
N706 N 0.39392 0.38666 0.71608 0.0
N707 N 0.25604 0.25886 0.6166 0.0
C708 C 0.36264 0.35409 0.69023 0.0
C709 C 0.29097 0.28903 0.6407 0.0
N710 N 0.39091 0.39356 0.6194 0.0
N711 N 0.2684 0.24477 0.70938 0.0
H712 H 0.25343 0.26067 0.58147 0.0
H713 H 0.22946 0.23198 0.63085 0.0
H714 H 0.26957 0.24089 0.74443 0.0
H715 H 0.24379 0.2174 0.69348 0.0
H716 H 0.42055 0.41604 0.63365 0.0
H717 H 0.38937 0.39697 0.58416 0.0
H718 H 0.41467 0.4178 0.70388 0.0
H719 H 0.39635 0.38344 0.75123 0.0
C720 C 0.22612 0.27407 0.99032 0.0
C721 C 0.24243 0.29198 0.94624 0.0
C722 C 0.1866 0.31405 0.94227 0.0
C723 C 0.17559 0.30306 0.98914 0.0
N724 N 0.18294 0.26972 0.0571 0.0
N725 N 0.23764 0.32888 0.87988 0.0
C726 C 0.19425 0.28141 0.01264 0.0
C727 C 0.22185 0.31115 0.92176 0.0
N728 N 0.24156 0.25 0.01082 0.0
N729 N 0.16272 0.32699 0.91724 0.0
H730 H 0.26211 0.32585 0.86359 0.0
H731 H 0.22809 0.34812 0.86222 0.0
H732 H 0.13637 0.32802 0.93131 0.0
H733 H 0.16594 0.33225 0.88216 0.0
H734 H 0.22944 0.23296 0.04115 0.0
H735 H 0.26457 0.2443 0.99512 0.0
H736 H 0.19875 0.25882 0.07867 0.0
H737 H 0.15788 0.27203 0.07287 0.0
C738 C 0.96352 0.21113 0.13386 0.0
C739 C 0.95845 0.23161 0.09439 0.0
C740 C 0.87932 0.18046 0.09797 0.0
C741 C 0.88357 0.1654 0.14181 0.0
N742 N 0.93048 0.16671 0.20164 0.0
N743 N 0.91148 0.23467 0.03766 0.0
C744 C 0.92603 0.18013 0.15932 0.0
C745 C 0.91629 0.21528 0.07575 0.0
N746 N 1.00445 0.22185 0.14725 0.0
N747 N 0.83949 0.16122 0.07754 0.0
H748 H 0.93802 0.25816 0.01931 0.0
H749 H 0.88163 0.22887 0.0252 0.0
H750 H 0.81203 0.13617 0.093 0.0
H751 H 0.8342 0.16715 0.04403 0.0
H752 H 1.01106 0.20628 0.17349 0.0
H753 H 0.03186 0.24373 0.1289 0.0
H754 H 0.95978 0.17993 0.21922 0.0
H755 H 0.90409 0.14356 0.22034 0.0
C756 C 0.73172 0.91718 0.33839 0.0
C757 C 0.74204 0.88499 0.32458 0.0
C758 C 0.76838 0.92474 0.25111 0.0
C759 C 0.75057 0.95183 0.26183 0.0
N760 N 0.71067 0.96973 0.31605 0.0
N761 N 0.76872 0.85754 0.26511 0.0
C762 C 0.73159 0.94737 0.30588 0.0
C763 C 0.76062 0.88904 0.28044 0.0
N764 N 0.72222 0.91909 0.38322 0.0
N765 N 0.79367 0.93368 0.21307 0.0
H766 H 0.7656 0.83231 0.28568 0.0
H767 H 0.77617 0.85513 0.23123 0.0
H768 H 0.8007 0.95977 0.19157 0.0
H769 H 0.81122 0.91818 0.20547 0.0
H770 H 0.71859 0.94418 0.39679 0.0
H771 H 0.72273 0.89808 0.40776 0.0
H772 H 0.69153 0.96374 0.34504 0.0
H773 H 0.70962 0.99203 0.29397 0.0
C774 C 0.82866 0.71438 0.41769 0.0
C775 C 0.81481 0.74191 0.43711 0.0
C776 C 0.86749 0.75887 0.50055 0.0
C777 C 0.87996 0.72967 0.48223 0.0
N778 N 0.88054 0.68886 0.417 0.0
N779 N 0.82864 0.79872 0.49004 0.0
C780 C 0.86311 0.71056 0.43863 0.0
C781 C 0.83704 0.76702 0.4762 0.0
N782 N 0.80728 0.69013 0.38031 0.0
N783 N 0.88259 0.77671 0.54255 0.0
H784 H 0.80703 0.80522 0.47234 0.0
H785 H 0.84582 0.82093 0.51576 0.0
H786 H 0.9054 0.77221 0.56046 0.0
H787 H 0.87107 0.79409 0.56065 0.0
H788 H 0.81132 0.66504 0.36759 0.0
H789 H 0.78387 0.69416 0.36299 0.0
H790 H 0.87324 0.67751 0.38359 0.0
H791 H 0.90579 0.68611 0.43126 0.0
C792 C 0.15168 0.88579 0.60924 0.0
C793 C 0.167 0.8679 0.64316 0.0
C794 C 0.11463 0.79443 0.61435 0.0
C795 C 0.0982 0.8117 0.58121 0.0
N796 N 0.094 0.87406 0.55616 0.0
N797 N 0.14963 0.80432 0.68777 0.0
C798 C 0.11461 0.85752 0.58153 0.0
C799 C 0.14399 0.82195 0.64877 0.0
N800 N 0.17322 0.92949 0.60195 0.0
N801 N 0.10489 0.75227 0.61143 0.0
H802 H 0.16903 0.82344 0.71462 0.0
H803 H 0.13104 0.7714 0.69556 0.0
H804 H 0.08519 0.73162 0.58586 0.0
H805 H 0.11965 0.73923 0.63174 0.0
H806 H 0.16727 0.9439 0.57402 0.0
H807 H 0.19874 0.95131 0.62239 0.0
H808 H 0.10141 0.90629 0.55808 0.0
H809 H 0.06639 0.85451 0.53677 0.0
C810 C 0.31591 0.11311 0.84319 0.0
C811 C 0.31275 0.14911 0.82663 0.0
C812 C 0.29289 0.11293 0.75081 0.0
C813 C 0.30352 0.08113 0.76526 0.0
N814 N 0.32665 0.05208 0.8268 0.0
N815 N 0.30029 0.18377 0.76262 0.0
C816 C 0.31462 0.08102 0.81214 0.0
C817 C 0.30103 0.14866 0.78006 0.0
N818 N 0.31992 0.10948 0.88911 0.0
N819 N 0.27402 0.10849 0.70904 0.0
H820 H 0.30337 0.209 0.78312 0.0
H821 H 0.29922 0.18889 0.72776 0.0
H822 H 0.26683 0.08247 0.68734 0.0
H823 H 0.26146 0.12786 0.69799 0.0
H824 H 0.31793 0.08218 0.90456 0.0
H825 H 0.32091 0.1322 0.91228 0.0
H826 H 0.34074 0.05398 0.85848 0.0
H827 H 0.32503 0.02739 0.80644 0.0
C828 C 0.78136 0.85625 0.89665 0.0
C829 C 0.75379 0.81021 0.89559 0.0
C830 C 0.72257 0.81972 0.82402 0.0
C831 C 0.74284 0.86549 0.83045 0.0
N832 N 0.79132 0.92703 0.87703 0.0
N833 N 0.69125 0.74984 0.8611 0.0
C834 C 0.77267 0.88382 0.86759 0.0
C835 C 0.72286 0.79237 0.8597 0.0
N836 N 0.81661 0.87382 0.92492 0.0
N837 N 0.70309 0.80209 0.78329 0.0
H838 H 0.68872 0.72938 0.8877 0.0
H839 H 0.66529 0.73629 0.83828 0.0
H840 H 0.70417 0.82118 0.75569 0.0
H841 H 0.69078 0.76942 0.77539 0.0
H842 H 0.84041 0.90649 0.92419 0.0
H843 H 0.82451 0.85486 0.94558 0.0
H844 H 0.80894 0.94093 0.90673 0.0
H845 H 0.7872 0.94875 0.85688 0.0
C846 C 0.93072 0.76104 0.98128 0.0
C847 C 0.89063 0.73144 0.00215 0.0
C848 C 0.93179 0.72055 0.06489 0.0
C849 C 0.9719 0.74957 0.04353 0.0
N850 N 1.0089 0.80683 0.98856 0.0
N851 N 0.85386 0.69193 0.07 0.0
C852 C 0.97096 0.77275 0.00402 0.0
C853 C 0.89164 0.71419 0.04598 0.0
N854 N 0.93072 0.77614 0.9384 0.0
N855 N 0.93158 0.69702 0.10183 0.0
H856 H 0.82428 0.68684 0.05745 0.0
H857 H 0.85239 0.68237 0.10385 0.0
H858 H 0.95985 0.70205 0.11789 0.0
H859 H 0.90352 0.671 0.11519 0.0
H860 H 0.95862 0.79308 0.91868 0.0
H861 H 0.90235 0.76929 0.92118 0.0
H862 H 1.01053 0.82783 0.96286 0.0
H863 H 0.03837 0.81693 0.00499 0.0
C864 C 0.2241 0.90322 0.17901 0.0
C865 C 0.17816 0.88 0.18464 0.0
C866 C 0.18837 0.93117 0.24746 0.0
C867 C 0.23417 0.94769 0.24743 0.0
N868 N 0.29331 0.94031 0.21747 0.0
N869 N 0.11654 0.87235 0.2273 0.0
C870 C 0.25145 0.93151 0.21409 0.0
C871 C 0.16017 0.89444 0.21939 0.0
N872 N 0.24192 0.89888 0.13946 0.0
N873 N 0.17175 0.95116 0.27373 0.0
H874 H 0.09463 0.84699 0.2068 0.0
H875 H 0.10234 0.8777 0.25582 0.0
H876 H 0.19126 0.97831 0.29374 0.0
H877 H 0.13946 0.94363 0.27211 0.0
H878 H 0.27495 0.9176 0.13218 0.0
H879 H 0.22294 0.8807 0.1119 0.0
H880 H 0.30615 0.92568 0.19666 0.0
H881 H 0.31377 0.95906 0.24371 0.0
C882 C 0.26475 0.17669 0.39426 0.0
C883 C 0.29038 0.22297 0.39114 0.0
C884 C 0.33026 0.21307 0.32762 0.0
C885 C 0.30924 0.16735 0.33442 0.0
N886 N 0.25838 0.10625 0.37985 0.0
N887 N 0.35753 0.28295 0.36335 0.0
C888 C 0.27674 0.1492 0.36917 0.0
C889 C 0.32618 0.24042 0.36055 0.0
N890 N 0.22901 0.15879 0.42183 0.0
N891 N 0.35318 0.2307 0.28841 0.0
H892 H 0.35832 0.30305 0.38943 0.0
H893 H 0.38582 0.2963 0.34382 0.0
H894 H 0.35423 0.21169 0.26184 0.0
H895 H 0.36611 0.26335 0.28 0.0
H896 H 0.20565 0.12597 0.42126 0.0
H897 H 0.22185 0.17727 0.44409 0.0
H898 H 0.23844 0.09224 0.40812 0.0
H899 H 0.26532 0.08491 0.36252 0.0
C900 C 0.09209 0.30261 0.51366 0.0
C901 C 0.09276 0.29288 0.56093 0.0
C902 C 0.15973 0.28932 0.54619 0.0
C903 C 0.15955 0.29953 0.49922 0.0
N904 N 0.11854 0.30379 0.43648 0.0
N905 N 0.12027 0.26398 0.61775 0.0
C906 C 0.12327 0.30209 0.48255 0.0
C907 C 0.12443 0.28214 0.57562 0.0
N908 N 0.06365 0.31515 0.49856 0.0
N909 N 0.19499 0.289 0.56372 0.0
H910 H 0.09441 0.25717 0.63955 0.0
H911 H 0.13965 0.25148 0.62899 0.0
H912 H 0.21971 0.29109 0.54308 0.0
H913 H 0.20063 0.28921 0.59864 0.0
H914 H 0.06517 0.32787 0.46616 0.0
H915 H 0.0402 0.3158 0.51916 0.0
H916 H 0.09098 0.30142 0.4212 0.0
H917 H 0.1404 0.30287 0.41337 0.0
C918 C 0.86978 0.16649 0.7301 0.0
C919 C 0.883 0.16159 0.6856 0.0
C920 C 0.8371 0.08188 0.69467 0.0
C921 C 0.81786 0.08764 0.73481 0.0
N922 N 0.81752 0.1355 0.79227 0.0
N923 N 0.87954 0.11397 0.62553 0.0
C924 C 0.83533 0.13001 0.75328 0.0
C925 C 0.86743 0.11896 0.66833 0.0
N926 N 0.89051 0.20642 0.75023 0.0
N927 N 0.82595 0.0408 0.68155 0.0
H928 H 0.90239 0.14012 0.60632 0.0
H929 H 0.86563 0.0845 0.60822 0.0
H930 H 0.80479 1.01365 0.70064 0.0
H931 H 0.84074 0.03386 0.65475 0.0
H932 H 0.88576 0.2122 0.78399 0.0
H933 H 0.91569 0.23327 0.7341 0.0
H934 H 0.82429 0.16561 0.80487 0.0
H935 H 0.79441 0.1093 0.81131 0.0
loop_
_geom_bond_atom_site_label_1
_geom_bond_atom_site_label_2
_geom_bond_distance
_geom_bond_site_symmetry_2
_ccdc_geom_bond_type
C0 C1 1.351 . S
C0 N3 1.368 . S
C0 H5 0.931 . S
C1 C0 1.351 . S
C1 N2 1.373 . S
C1 H29 0.930 . S
N2 C1 1.373 . S
N2 C4 1.340 . S
N3 C0 1.368 . S
N3 C4 1.321 . S
N3 Co6 2.135 1_556 S
C4 N2 1.340 . S
C4 N3 1.321 . S
C4 H28 0.930 1_455 S
H5 C0 0.931 . S
Co6 N3 2.135 1_554 S
Co6 N9 2.121 . S
Co6 O14 2.055 . S
Co6 O17 2.039 . S
Co6 N20 2.140 . S
C7 O8 1.227 . S
C7 O17 1.265 1_655 S
O8 C7 1.227 . S
N9 Co6 2.121 . S
N9 C11 1.375 . S
N9 C12 1.313 . S
C10 C11 1.338 . S
C10 N13 1.377 . S
C10 H30 0.930 . S
C11 N9 1.375 . S
C11 C10 1.338 . S
C11 H15 0.931 . S
C12 N9 1.313 . S
C12 N13 1.344 . S
C12 H16 0.930 . S
N13 C10 1.377 . S
N13 C12 1.344 . S
O14 Co6 2.055 . S
O14 C18 1.253 . S
H15 C11 0.931 . S
H16 C12 0.930 . S
O17 Co6 2.039 . S
O17 C7 1.265 1_455 S
C18 O14 1.253 . S
C18 O19 1.227 . S
O19 C18 1.227 . S
N20 Co6 2.140 . S
N20 C23 1.346 . S
N20 C24 1.345 . S
C21 C22 1.387 . S
C21 C25 1.391 . S
C22 C21 1.387 . S
C22 C23 1.369 . S
C22 H31 0.929 . S
C23 N20 1.346 . S
C23 C22 1.369 . S
C23 H26 0.928 . S
C24 N20 1.345 . S
C24 C25 1.371 . S
C24 H27 0.931 . S
C25 C21 1.391 . S
C25 C24 1.371 . S
C25 H32 0.930 . S
H26 C23 0.928 . S
H27 C24 0.931 . S
H28 C4 0.930 1_655 S
H29 C1 0.930 . S
H30 C10 0.930 . S
H31 C22 0.929 . S
H32 C25 0.930 . S
C33 C34 1.351 . S
C33 N36 1.368 . S
C33 H38 0.931 . S
C34 C33 1.351 . S
C34 N35 1.373 . S
C34 H62 0.930 . S
N35 C34 1.373 . S
N35 C37 1.340 . S
N36 C33 1.368 . S
N36 C37 1.321 . S
N36 Co39 2.135 . S
C37 N35 1.340 . S
C37 N36 1.321 . S
C37 H61 0.930 1_545 S
H38 C33 0.931 . S
Co39 N36 2.135 . S
Co39 N42 2.121 . S
Co39 O47 2.055 . S
Co39 O50 2.039 . S
Co39 N53 2.140 . S
C40 O41 1.227 . S
C40 O50 1.265 1_565 S
O41 C40 1.227 . S
N42 Co39 2.121 . S
N42 C44 1.375 . S
N42 C45 1.313 . S
C43 C44 1.338 . S
C43 N46 1.377 . S
C43 H63 0.930 . S
C44 N42 1.375 . S
C44 C43 1.338 . S
C44 H48 0.931 . S
C45 N42 1.313 . S
C45 N46 1.344 . S
C45 H49 0.930 . S
N46 C43 1.377 . S
N46 C45 1.344 . S
O47 Co39 2.055 . S
O47 C51 1.253 . S
H48 C44 0.931 . S
H49 C45 0.930 . S
O50 Co39 2.039 . S
O50 C40 1.265 1_545 S
C51 O47 1.253 . S
C51 O52 1.227 . S
O52 C51 1.227 . S
N53 Co39 2.140 . S
N53 C56 1.346 . S
N53 C57 1.345 . S
C54 C55 1.387 . S
C54 C58 1.391 . S
C55 C54 1.387 . S
C55 C56 1.369 . S
C55 H64 0.929 . S
C56 N53 1.346 . S
C56 C55 1.369 . S
C56 H59 0.928 . S
C57 N53 1.345 . S
C57 C58 1.371 . S
C57 H60 0.931 . S
C58 C54 1.391 . S
C58 C57 1.371 . S
C58 H65 0.930 . S
H59 C56 0.928 . S
H60 C57 0.931 . S
H61 C37 0.930 1_565 S
H62 C34 0.930 . S
H63 C43 0.930 . S
H64 C55 0.929 . S
H65 C58 0.930 . S
C66 C67 1.351 . S
C66 N69 1.368 . S
C66 H71 0.931 . S
C67 C66 1.351 . S
C67 N68 1.373 . S
C67 H95 0.930 . S
N68 C67 1.373 . S
N68 C70 1.340 . S
N69 C66 1.368 . S
N69 C70 1.321 . S
N69 Co72 2.135 . S
C70 N68 1.340 . S
C70 N69 1.321 . S
C70 H94 0.930 . S
H71 C66 0.931 . S
Co72 N69 2.135 . S
Co72 N75 2.121 . S
Co72 O80 2.055 . S
Co72 O83 2.039 . S
Co72 N86 2.140 . S
C73 O74 1.227 . S
C73 O83 1.265 . S
O74 C73 1.227 . S
N75 Co72 2.121 . S
N75 C77 1.375 . S
N75 C78 1.313 . S
C76 C77 1.338 . S
C76 N79 1.377 . S
C76 H96 0.930 . S
C77 N75 1.375 . S
C77 C76 1.338 . S
C77 H81 0.931 . S
C78 N75 1.313 . S
C78 N79 1.344 . S
C78 H82 0.930 . S
N79 C76 1.377 . S
N79 C78 1.344 . S
O80 Co72 2.055 . S
O80 C84 1.253 . S
H81 C77 0.931 . S
H82 C78 0.930 . S
O83 Co72 2.039 . S
O83 C73 1.265 . S
C84 O80 1.253 . S
C84 O85 1.227 . S
O85 C84 1.227 . S
N86 Co72 2.140 . S
N86 C89 1.346 . S
N86 C90 1.345 . S
C87 C88 1.387 . S
C87 C91 1.391 . S
C88 C87 1.387 . S
C88 C89 1.369 . S
C88 H97 0.929 . S
C89 N86 1.346 . S
C89 C88 1.369 . S
C89 H92 0.928 . S
C90 N86 1.345 . S
C90 C91 1.371 . S
C90 H93 0.931 . S
C91 C87 1.391 . S
C91 C90 1.371 . S
C91 H98 0.930 . S
H92 C89 0.928 . S
H93 C90 0.931 . S
H94 C70 0.930 . S
H95 C67 0.930 . S
H96 C76 0.930 . S
H97 C88 0.929 . S
H98 C91 0.930 . S
C99 C100 1.351 . S
C99 N102 1.368 . S
C99 H104 0.931 . S
C100 C99 1.351 . S
C100 N101 1.373 . S
C100 H128 0.930 . S
N101 C100 1.373 . S
N101 C103 1.340 . S
N102 C99 1.368 . S
N102 C103 1.321 . S
N102 Co105 2.135 . S
C103 N101 1.340 . S
C103 N102 1.321 . S
C103 H127 0.930 1_655 S
H104 C99 0.931 . S
Co105 N102 2.135 . S
Co105 N108 2.121 . S
Co105 O113 2.055 . S
Co105 O116 2.039 . S
Co105 N119 2.140 . S
C106 O107 1.227 . S
C106 O116 1.265 1_455 S
O107 C106 1.227 . S
N108 Co105 2.121 . S
N108 C110 1.375 . S
N108 C111 1.313 . S
C109 C110 1.338 . S
C109 N112 1.377 . S
C109 H129 0.930 . S
C110 N108 1.375 . S
C110 C109 1.338 . S
C110 H114 0.931 . S
C111 N108 1.313 . S
C111 N112 1.344 . S
C111 H115 0.930 . S
N112 C109 1.377 . S
N112 C111 1.344 . S
O113 Co105 2.055 . S
O113 C117 1.253 . S
H114 C110 0.931 . S
H115 C111 0.930 . S
O116 Co105 2.039 . S
O116 C106 1.265 1_655 S
C117 O113 1.253 . S
C117 O118 1.227 . S
O118 C117 1.227 . S
N119 Co105 2.140 . S
N119 C122 1.346 . S
N119 C123 1.345 . S
C120 C121 1.387 . S
C120 C124 1.391 . S
C121 C120 1.387 . S
C121 C122 1.369 . S
C121 H130 0.929 . S
C122 N119 1.346 . S
C122 C121 1.369 . S
C122 H125 0.928 . S
C123 N119 1.345 . S
C123 C124 1.371 . S
C123 H126 0.931 . S
C124 C120 1.391 . S
C124 C123 1.371 . S
C124 H131 0.930 . S
H125 C122 0.928 . S
H126 C123 0.931 . S
H127 C103 0.930 1_455 S
H128 C100 0.930 . S
H129 C109 0.930 . S
H130 C121 0.929 . S
H131 C124 0.930 . S
C132 C133 1.351 . S
C132 N135 1.368 . S
C132 H137 0.931 . S
C133 C132 1.351 . S
C133 N134 1.373 . S
C133 H161 0.930 . S
N134 C133 1.373 . S
N134 C136 1.340 . S
N135 C132 1.368 . S
N135 C136 1.321 . S
N135 Co138 2.135 . S
C136 N134 1.340 . S
C136 N135 1.321 . S
C136 H160 0.930 1_565 S
H137 C132 0.931 . S
Co138 N135 2.135 . S
Co138 N141 2.121 . S
Co138 O146 2.055 . S
Co138 O149 2.039 . S
Co138 N152 2.140 . S
C139 O140 1.227 . S
C139 O149 1.265 1_545 S
O140 C139 1.227 . S
N141 Co138 2.121 . S
N141 C143 1.375 . S
N141 C144 1.313 . S
C142 C143 1.338 . S
C142 N145 1.377 . S
C142 H162 0.930 . S
C143 N141 1.375 . S
C143 C142 1.338 . S
C143 H147 0.931 . S
C144 N141 1.313 . S
C144 N145 1.344 . S
C144 H148 0.930 . S
N145 C142 1.377 . S
N145 C144 1.344 . S
O146 Co138 2.055 . S
O146 C150 1.253 . S
H147 C143 0.931 . S
H148 C144 0.930 . S
O149 Co138 2.039 . S
O149 C139 1.265 1_565 S
C150 O146 1.253 . S
C150 O151 1.227 . S
O151 C150 1.227 . S
N152 Co138 2.140 . S
N152 C155 1.346 . S
N152 C156 1.345 . S
C153 C154 1.387 . S
C153 C157 1.391 . S
C154 C153 1.387 . S
C154 C155 1.369 . S
C154 H163 0.929 . S
C155 N152 1.346 . S
C155 C154 1.369 . S
C155 H158 0.928 . S
C156 N152 1.345 . S
C156 C157 1.371 . S
C156 H159 0.931 . S
C157 C153 1.391 . S
C157 C156 1.371 . S
C157 H164 0.930 . S
H158 C155 0.928 . S
H159 C156 0.931 . S
H160 C136 0.930 1_545 S
H161 C133 0.930 . S
H162 C142 0.930 . S
H163 C154 0.929 . S
H164 C157 0.930 . S
C165 C166 1.351 . S
C165 N168 1.368 . S
C165 H170 0.931 . S
C166 C165 1.351 . S
C166 N167 1.373 . S
C166 H194 0.930 . S
N167 C166 1.373 . S
N167 C169 1.340 . S
N168 C165 1.368 . S
N168 C169 1.321 . S
N168 Co171 2.135 . S
C169 N167 1.340 . S
C169 N168 1.321 . S
C169 H193 0.930 . S
H170 C165 0.931 . S
Co171 N168 2.135 . S
Co171 N174 2.121 . S
Co171 O179 2.055 . S
Co171 O182 2.039 . S
Co171 N185 2.140 . S
C172 O173 1.227 . S
C172 O182 1.265 . S
O173 C172 1.227 . S
N174 Co171 2.121 . S
N174 C176 1.375 . S
N174 C177 1.313 . S
C175 C176 1.338 1_554 S
C175 N178 1.377 . S
C175 H195 0.930 . S
C176 N174 1.375 . S
C176 C175 1.338 1_556 S
C176 H180 0.931 . S
C177 N174 1.313 . S
C177 N178 1.344 1_556 S
C177 H181 0.930 . S
N178 C175 1.377 . S
N178 C177 1.344 1_554 S
O179 Co171 2.055 . S
O179 C183 1.253 . S
H180 C176 0.931 . S
H181 C177 0.930 . S
O182 Co171 2.039 . S
O182 C172 1.265 . S
C183 O179 1.253 . S
C183 O184 1.227 . S
O184 C183 1.227 . S
N185 Co171 2.140 . S
N185 C188 1.346 . S
N185 C189 1.345 . S
C186 C187 1.387 . S
C186 C190 1.391 . S
C187 C186 1.387 . S
C187 C188 1.369 . S
C187 H196 0.929 . S
C188 N185 1.346 . S
C188 C187 1.369 . S
C188 H191 0.928 . S
C189 N185 1.345 . S
C189 C190 1.371 . S
C189 H192 0.931 . S
C190 C186 1.391 . S
C190 C189 1.371 . S
C190 H197 0.930 . S
H191 C188 0.928 . S
H192 C189 0.931 . S
H193 C169 0.930 . S
H194 C166 0.930 . S
H195 C175 0.930 . S
H196 C187 0.929 . S
H197 C190 0.930 . S
C198 C199 1.351 . S
C198 N201 1.368 . S
C198 H203 0.931 . S
C199 C198 1.351 . S
C199 N200 1.373 . S
C199 H227 0.930 . S
N200 C199 1.373 . S
N200 C202 1.340 . S
N201 C198 1.368 . S
N201 C202 1.321 . S
N201 Co204 2.135 . S
C202 N200 1.340 . S
C202 N201 1.321 . S
C202 H226 0.930 1_565 S
H203 C198 0.931 . S
Co204 N201 2.135 . S
Co204 N207 2.121 . S
Co204 O212 2.055 . S
Co204 O215 2.039 . S
Co204 N218 2.140 . S
C205 O206 1.227 . S
C205 O215 1.265 1_545 S
O206 C205 1.227 . S
N207 Co204 2.121 . S
N207 C209 1.375 . S
N207 C210 1.313 . S
C208 C209 1.338 . S
C208 N211 1.377 . S
C208 H228 0.930 . S
C209 N207 1.375 . S
C209 C208 1.338 . S
C209 H213 0.931 . S
C210 N207 1.313 . S
C210 N211 1.344 . S
C210 H214 0.930 . S
N211 C208 1.377 . S
N211 C210 1.344 . S
O212 Co204 2.055 . S
O212 C216 1.253 . S
H213 C209 0.931 . S
H214 C210 0.930 . S
O215 Co204 2.039 . S
O215 C205 1.265 1_565 S
C216 O212 1.253 . S
C216 O217 1.227 . S
O217 C216 1.227 . S
N218 Co204 2.140 . S
N218 C221 1.346 . S
N218 C222 1.345 . S
C219 C220 1.387 . S
C219 C223 1.391 . S
C220 C219 1.387 . S
C220 C221 1.369 . S
C220 H229 0.929 . S
C221 N218 1.346 . S
C221 C220 1.369 . S
C221 H224 0.928 . S
C222 N218 1.345 . S
C222 C223 1.371 . S
C222 H225 0.931 . S
C223 C219 1.391 . S
C223 C222 1.371 . S
C223 H230 0.930 . S
H224 C221 0.928 . S
H225 C222 0.931 . S
H226 C202 0.930 1_545 S
H227 C199 0.930 . S
H228 C208 0.930 . S
H229 C220 0.929 . S
H230 C223 0.930 . S
C231 C232 1.351 . S
C231 N234 1.368 . S
C231 H236 0.931 . S
C232 C231 1.351 . S
C232 N233 1.373 . S
C232 H260 0.930 . S
N233 C232 1.373 . S
N233 C235 1.340 . S
N234 C231 1.368 . S
N234 C235 1.321 . S
N234 Co237 2.135 1_554 S
C235 N233 1.340 . S
C235 N234 1.321 . S
C235 H259 0.930 . S
H236 C231 0.931 . S
Co237 N234 2.135 1_556 S
Co237 N240 2.121 . S
Co237 O245 2.055 . S
Co237 O248 2.039 . S
Co237 N251 2.140 . S
C238 O239 1.227 . S
C238 O248 1.265 . S
O239 C238 1.227 . S
N240 Co237 2.121 . S
N240 C242 1.375 . S
N240 C243 1.313 . S
C241 C242 1.338 . S
C241 N244 1.377 . S
C241 H261 0.930 . S
C242 N240 1.375 . S
C242 C241 1.338 . S
C242 H246 0.931 . S
C243 N240 1.313 . S
C243 N244 1.344 . S
C243 H247 0.930 . S
N244 C241 1.377 . S
N244 C243 1.344 . S
O245 Co237 2.055 . S
O245 C249 1.253 . S
H246 C242 0.931 . S
H247 C243 0.930 . S
O248 Co237 2.039 . S
O248 C238 1.265 . S
C249 O245 1.253 . S
C249 O250 1.227 . S
O250 C249 1.227 . S
N251 Co237 2.140 . S
N251 C254 1.346 . S
N251 C255 1.345 . S
C252 C253 1.387 . S
C252 C256 1.391 . S
C253 C252 1.387 . S
C253 C254 1.369 . S
C253 H262 0.929 . S
C254 N251 1.346 . S
C254 C253 1.369 . S
C254 H257 0.928 . S
C255 N251 1.345 . S
C255 C256 1.371 . S
C255 H258 0.931 . S
C256 C252 1.391 . S
C256 C255 1.371 . S
C256 H263 0.930 . S
H257 C254 0.928 . S
H258 C255 0.931 . S
H259 C235 0.930 . S
H260 C232 0.930 . S
H261 C241 0.930 . S
H262 C253 0.929 . S
H263 C256 0.930 . S
C264 C265 1.351 . S
C264 N267 1.368 . S
C264 H269 0.931 . S
C265 C264 1.351 . S
C265 N266 1.373 . S
C265 H293 0.930 . S
N266 C265 1.373 . S
N266 C268 1.340 . S
N267 C264 1.368 . S
N267 C268 1.321 . S
N267 Co270 2.135 . S
C268 N266 1.340 . S
C268 N267 1.321 . S
C268 H292 0.930 1_455 S
H269 C264 0.931 . S
Co270 N267 2.135 . S
Co270 N273 2.121 . S
Co270 O278 2.055 . S
Co270 O281 2.039 . S
Co270 N284 2.140 . S
C271 O272 1.227 . S
C271 O281 1.265 1_655 S
O272 C271 1.227 . S
N273 Co270 2.121 . S
N273 C275 1.375 . S
N273 C276 1.313 . S
C274 C275 1.338 1_556 S
C274 N277 1.377 . S
C274 H294 0.930 . S
C275 N273 1.375 . S
C275 C274 1.338 1_554 S
C275 H279 0.931 . S
C276 N273 1.313 . S
C276 N277 1.344 1_554 S
C276 H280 0.930 . S
N277 C274 1.377 . S
N277 C276 1.344 1_556 S
O278 Co270 2.055 . S
O278 C282 1.253 . S
H279 C275 0.931 . S
H280 C276 0.930 . S
O281 Co270 2.039 . S
O281 C271 1.265 1_455 S
C282 O278 1.253 . S
C282 O283 1.227 . S
O283 C282 1.227 . S
N284 Co270 2.140 . S
N284 C287 1.346 . S
N284 C288 1.345 . S
C285 C286 1.387 . S
C285 C289 1.391 . S
C286 C285 1.387 . S
C286 C287 1.369 . S
C286 H295 0.929 . S
C287 N284 1.346 . S
C287 C286 1.369 . S
C287 H290 0.928 . S
C288 N284 1.345 . S
C288 C289 1.371 . S
C288 H291 0.931 . S
C289 C285 1.391 . S
C289 C288 1.371 . S
C289 H296 0.930 . S
H290 C287 0.928 . S
H291 C288 0.931 . S
H292 C268 0.930 1_655 S
H293 C265 0.930 . S
H294 C274 0.930 . S
H295 C286 0.929 . S
H296 C289 0.930 . S
C297 C298 1.351 . S
C297 N300 1.368 . S
C297 H302 0.931 . S
C298 C297 1.351 . S
C298 N299 1.373 . S
C298 H326 0.930 . S
N299 C298 1.373 . S
N299 C301 1.340 . S
N300 C297 1.368 . S
N300 C301 1.321 . S
N300 Co303 2.135 . S
C301 N299 1.340 . S
C301 N300 1.321 . S
C301 H325 0.930 1_545 S
H302 C297 0.931 . S
Co303 N300 2.135 . S
Co303 N306 2.121 . S
Co303 O311 2.055 . S
Co303 O314 2.039 . S
Co303 N317 2.140 . S
C304 O305 1.227 . S
C304 O314 1.265 1_565 S
O305 C304 1.227 . S
N306 Co303 2.121 . S
N306 C308 1.375 . S
N306 C309 1.313 . S
C307 C308 1.338 . S
C307 N310 1.377 . S
C307 H327 0.930 . S
C308 N306 1.375 . S
C308 C307 1.338 . S
C308 H312 0.931 . S
C309 N306 1.313 . S
C309 N310 1.344 . S
C309 H313 0.930 . S
N310 C307 1.377 . S
N310 C309 1.344 . S
O311 Co303 2.055 . S
O311 C315 1.253 . S
H312 C308 0.931 . S
H313 C309 0.930 . S
O314 Co303 2.039 . S
O314 C304 1.265 1_545 S
C315 O311 1.253 . S
C315 O316 1.227 . S
O316 C315 1.227 . S
N317 Co303 2.140 . S
N317 C320 1.346 . S
N317 C321 1.345 . S
C318 C319 1.387 . S
C318 C322 1.391 . S
C319 C318 1.387 . S
C319 C320 1.369 . S
C319 H328 0.929 . S
C320 N317 1.346 . S
C320 C319 1.369 . S
C320 H323 0.928 . S
C321 N317 1.345 . S
C321 C322 1.371 . S
C321 H324 0.931 . S
C322 C318 1.391 . S
C322 C321 1.371 . S
C322 H329 0.930 . S
H323 C320 0.928 . S
H324 C321 0.931 . S
H325 C301 0.930 1_565 S
H326 C298 0.930 . S
H327 C307 0.930 . S
H328 C319 0.929 . S
H329 C322 0.930 . S
C330 C331 1.351 . S
C330 N333 1.368 . S
C330 H335 0.931 . S
C331 C330 1.351 . S
C331 N332 1.373 . S
C331 H359 0.930 . S
N332 C331 1.373 . S
N332 C334 1.340 . S
N333 C330 1.368 . S
N333 C334 1.321 . S
N333 Co336 2.135 . S
C334 N332 1.340 . S
C334 N333 1.321 . S
C334 H358 0.930 . S
H335 C330 0.931 . S
Co336 N333 2.135 . S
Co336 N339 2.121 . S
Co336 O344 2.055 . S
Co336 O347 2.039 . S
Co336 N350 2.140 . S
C337 O338 1.227 . S
C337 O347 1.265 . S
O338 C337 1.227 . S
N339 Co336 2.121 . S
N339 C341 1.375 . S
N339 C342 1.313 . S
C340 C341 1.338 . S
C340 N343 1.377 . S
C340 H360 0.930 . S
C341 N339 1.375 . S
C341 C340 1.338 . S
C341 H345 0.931 . S
C342 N339 1.313 . S
C342 N343 1.344 . S
C342 H346 0.930 . S
N343 C340 1.377 . S
N343 C342 1.344 . S
O344 Co336 2.055 . S
O344 C348 1.253 . S
H345 C341 0.931 . S
H346 C342 0.930 . S
O347 Co336 2.039 . S
O347 C337 1.265 . S
C348 O344 1.253 . S
C348 O349 1.227 . S
O349 C348 1.227 . S
N350 Co336 2.140 . S
N350 C353 1.346 . S
N350 C354 1.345 . S
C351 C352 1.387 . S
C351 C355 1.391 . S
C352 C351 1.387 . S
C352 C353 1.369 . S
C352 H361 0.929 . S
C353 N350 1.346 . S
C353 C352 1.369 . S
C353 H356 0.928 . S
C354 N350 1.345 . S
C354 C355 1.371 . S
C354 H357 0.931 . S
C355 C351 1.391 . S
C355 C354 1.371 . S
C355 H362 0.930 . S
H356 C353 0.928 . S
H357 C354 0.931 . S
H358 C334 0.930 . S
H359 C331 0.930 . S
H360 C340 0.930 . S
H361 C352 0.929 . S
H362 C355 0.930 . S
C363 C364 1.351 . S
C363 N366 1.368 . S
C363 H368 0.931 . S
C364 C363 1.351 . S
C364 N365 1.373 . S
C364 H392 0.930 . S
N365 C364 1.373 . S
N365 C367 1.340 . S
N366 C363 1.368 . S
N366 C367 1.321 . S
N366 Co369 2.135 . S
C367 N365 1.340 . S
C367 N366 1.321 . S
C367 H391 0.930 1_655 S
H368 C363 0.931 . S
Co369 N366 2.135 . S
Co369 N372 2.121 . S
Co369 O377 2.055 . S
Co369 O380 2.039 . S
Co369 N383 2.140 . S
C370 O371 1.227 . S
C370 O380 1.265 1_455 S
O371 C370 1.227 . S
N372 Co369 2.121 . S
N372 C374 1.375 . S
N372 C375 1.313 . S
C373 C374 1.338 . S
C373 N376 1.377 . S
C373 H393 0.930 . S
C374 N372 1.375 . S
C374 C373 1.338 . S
C374 H378 0.931 . S
C375 N372 1.313 . S
C375 N376 1.344 . S
C375 H379 0.930 . S
N376 C373 1.377 . S
N376 C375 1.344 . S
O377 Co369 2.055 . S
O377 C381 1.253 . S
H378 C374 0.931 . S
H379 C375 0.930 . S
O380 Co369 2.039 . S
O380 C370 1.265 1_655 S
C381 O377 1.253 . S
C381 O382 1.227 . S
O382 C381 1.227 . S
N383 Co369 2.140 . S
N383 C386 1.346 . S
N383 C387 1.345 . S
C384 C385 1.387 . S
C384 C388 1.391 . S
C385 C384 1.387 . S
C385 C386 1.369 . S
C385 H394 0.929 . S
C386 N383 1.346 . S
C386 C385 1.369 . S
C386 H389 0.928 . S
C387 N383 1.345 . S
C387 C388 1.371 . S
C387 H390 0.931 . S
C388 C384 1.391 . S
C388 C387 1.371 . S
C388 H395 0.930 . S
H389 C386 0.928 . S
H390 C387 0.931 . S
H391 C367 0.930 1_455 S
H392 C364 0.930 . S
H393 C373 0.930 . S
H394 C385 0.929 . S
H395 C388 0.930 . S
C396 C397 1.363 . S
C396 C402 1.379 . S
C396 N404 1.356 . S
C397 C396 1.363 . S
C397 C403 1.363 . S
C398 C399 1.363 . S
C398 C403 1.379 . S
C398 N405 1.356 . S
C399 C398 1.363 . S
C399 C402 1.363 . S
N400 C402 1.356 . S
N400 H412 0.984 . S
N400 H413 0.985 . S
N401 C403 1.356 . S
N401 H406 0.984 . S
N401 H407 0.985 . S
C402 C396 1.379 . S
C402 C399 1.363 . S
C402 N400 1.356 . S
C403 C397 1.363 . S
C403 C398 1.379 . S
C403 N401 1.356 . S
N404 C396 1.356 . S
N404 H410 0.984 . S
N404 H411 0.984 . S
N405 C398 1.356 . S
N405 H408 0.984 . S
N405 H409 0.985 . S
H406 N401 0.984 . S
H407 N401 0.985 . S
H408 N405 0.984 . S
H409 N405 0.985 . S
H410 N404 0.984 . S
H411 N404 0.984 . S
H412 N400 0.984 . S
H413 N400 0.985 . S
C414 C415 1.363 . S
C414 C420 1.379 . S
C414 N422 1.356 . S
C415 C414 1.363 . S
C415 C421 1.363 . S
C416 C417 1.363 . S
C416 C421 1.379 . S
C416 N423 1.356 . S
C417 C416 1.363 . S
C417 C420 1.363 . S
N418 C420 1.356 . S
N418 H430 0.984 . S
N418 H431 0.985 . S
N419 C421 1.356 . S
N419 H424 0.984 . S
N419 H425 0.985 . S
C420 C414 1.379 . S
C420 C417 1.363 . S
C420 N418 1.356 . S
C421 C415 1.363 . S
C421 C416 1.379 . S
C421 N419 1.356 . S
N422 C414 1.356 . S
N422 H428 0.984 . S
N422 H429 0.984 . S
N423 C416 1.356 . S
N423 H426 0.984 . S
N423 H427 0.985 . S
H424 N419 0.984 . S
H425 N419 0.985 . S
H426 N423 0.984 . S
H427 N423 0.985 . S
H428 N422 0.984 . S
H429 N422 0.984 . S
H430 N418 0.984 . S
H431 N418 0.985 . S
C432 C433 1.363 . S
C432 C438 1.379 . S
C432 N440 1.356 . S
C433 C432 1.363 . S
C433 C439 1.363 . S
C434 C435 1.363 . S
C434 C439 1.379 . S
C434 N441 1.356 . S
C435 C434 1.363 . S
C435 C438 1.363 . S
N436 C438 1.356 . S
N436 H448 0.984 . S
N436 H449 0.985 . S
N437 C439 1.356 . S
N437 H442 0.984 . S
N437 H443 0.985 . S
C438 C432 1.379 . S
C438 C435 1.363 . S
C438 N436 1.356 . S
C439 C433 1.363 . S
C439 C434 1.379 . S
C439 N437 1.356 . S
N440 C432 1.356 . S
N440 H446 0.984 . S
N440 H447 0.984 . S
N441 C434 1.356 . S
N441 H444 0.984 . S
N441 H445 0.985 . S
H442 N437 0.984 . S
H443 N437 0.985 . S
H444 N441 0.984 . S
H445 N441 0.985 . S
H446 N440 0.984 . S
H447 N440 0.984 . S
H448 N436 0.984 . S
H449 N436 0.985 . S
C450 C451 1.363 . S
C450 C456 1.379 . S
C450 N458 1.356 . S
C451 C450 1.363 . S
C451 C457 1.363 . S
C452 C453 1.363 . S
C452 C457 1.379 . S
C452 N459 1.356 . S
C453 C452 1.363 . S
C453 C456 1.363 . S
N454 C456 1.356 . S
N454 H466 0.984 . S
N454 H467 0.985 . S
N455 C457 1.356 . S
N455 H460 0.984 . S
N455 H461 0.985 . S
C456 C450 1.379 . S
C456 C453 1.363 . S
C456 N454 1.356 . S
C457 C451 1.363 . S
C457 C452 1.379 . S
C457 N455 1.356 . S
N458 C450 1.356 . S
N458 H464 0.984 . S
N458 H465 0.984 . S
N459 C452 1.356 . S
N459 H462 0.984 . S
N459 H463 0.985 . S
H460 N455 0.984 . S
H461 N455 0.985 . S
H462 N459 0.984 . S
H463 N459 0.985 . S
H464 N458 0.984 . S
H465 N458 0.984 . S
H466 N454 0.984 . S
H467 N454 0.985 . S
C468 C469 1.363 . S
C468 C474 1.379 . S
C468 N476 1.356 . S
C469 C468 1.363 . S
C469 C475 1.363 . S
C470 C471 1.363 . S
C470 C475 1.379 . S
C470 N477 1.356 . S
C471 C470 1.363 . S
C471 C474 1.363 . S
N472 C474 1.374 . S
N472 H484 0.979 1_556 S
N472 H485 0.972 1_556 S
N473 C475 1.356 . S
N473 H478 0.984 . S
N473 H479 0.985 . S
C474 C468 1.379 . S
C474 C471 1.363 . S
C474 N472 1.374 . S
C475 C469 1.363 . S
C475 C470 1.379 . S
C475 N473 1.356 . S
N476 C468 1.356 . S
N476 H482 0.984 . S
N476 H483 0.984 . S
N477 C470 1.356 . S
N477 H480 0.984 . S
N477 H481 0.985 . S
H478 N473 0.984 . S
H479 N473 0.985 . S
H480 N477 0.984 . S
H481 N477 0.985 . S
H482 N476 0.984 . S
H483 N476 0.984 . S
H484 N472 0.979 1_554 S
H485 N472 0.972 1_554 S
C486 C487 1.363 . S
C486 C492 1.379 . S
C486 N494 1.356 . S
C487 C486 1.363 . S
C487 C493 1.363 . S
C488 C489 1.363 . S
C488 C493 1.379 . S
C488 N495 1.356 . S
C489 C488 1.363 . S
C489 C492 1.363 . S
N490 C492 1.356 . S
N490 H502 0.984 . S
N490 H503 0.985 . S
N491 C493 1.356 . S
N491 H496 0.984 1_554 S
N491 H497 0.988 . S
C492 C486 1.379 . S
C492 C489 1.363 . S
C492 N490 1.356 . S
C493 C487 1.363 . S
C493 C488 1.379 . S
C493 N491 1.356 . S
N494 C486 1.356 . S
N494 H500 0.984 . S
N494 H501 0.984 . S
N495 C488 1.356 . S
N495 H498 0.984 . S
N495 H499 0.985 . S
H496 N491 0.984 1_556 S
H497 N491 0.988 . S
H498 N495 0.984 . S
H499 N495 0.985 . S
H500 N494 0.984 . S
H501 N494 0.984 . S
H502 N490 0.984 . S
H503 N490 0.985 . S
C504 C505 1.363 . S
C504 C510 1.379 . S
C504 N512 1.356 . S
C505 C504 1.363 . S
C505 C511 1.363 . S
C506 C507 1.363 . S
C506 C511 1.379 . S
C506 N513 1.356 . S
C507 C506 1.363 . S
C507 C510 1.363 . S
N508 C510 1.356 . S
N508 H520 0.984 . S
N508 H521 0.985 . S
N509 C511 1.356 . S
N509 H514 0.984 . S
N509 H515 0.985 1_554 S
C510 C504 1.379 . S
C510 C507 1.363 . S
C510 N508 1.356 . S
C511 C505 1.363 . S
C511 C506 1.379 . S
C511 N509 1.356 . S
N512 C504 1.356 . S
N512 H518 0.984 . S
N512 H519 0.984 . S
N513 C506 1.356 . S
N513 H516 0.984 . S
N513 H517 0.985 . S
H514 N509 0.984 . S
H515 N509 0.985 1_556 S
H516 N513 0.984 . S
H517 N513 0.985 . S
H518 N512 0.984 . S
H519 N512 0.984 . S
H520 N508 0.984 . S
H521 N508 0.985 . S
C522 C523 1.363 . S
C522 C528 1.379 . S
C522 N530 1.356 . S
C523 C522 1.363 . S
C523 C529 1.363 . S
C524 C525 1.363 . S
C524 C529 1.379 . S
C524 N531 1.356 . S
C525 C524 1.363 . S
C525 C528 1.363 . S
N526 C528 1.356 . S
N526 H538 0.984 . S
N526 H539 0.985 . S
N527 C529 1.356 . S
N527 H532 0.984 . S
N527 H533 0.985 . S
C528 C522 1.379 . S
C528 C525 1.363 . S
C528 N526 1.356 . S
C529 C523 1.363 . S
C529 C524 1.379 . S
C529 N527 1.356 . S
N530 C522 1.356 . S
N530 H536 0.984 . S
N530 H537 0.984 . S
N531 C524 1.356 . S
N531 H534 0.984 . S
N531 H535 0.985 . S
H532 N527 0.984 . S
H533 N527 0.985 . S
H534 N531 0.984 . S
H535 N531 0.985 . S
H536 N530 0.984 . S
H537 N530 0.984 . S
H538 N526 0.984 . S
H539 N526 0.985 . S
C540 C541 1.363 . S
C540 C546 1.379 . S
C540 N548 1.356 . S
C541 C540 1.363 . S
C541 C547 1.363 . S
C542 C543 1.363 . S
C542 C547 1.379 . S
C542 N549 1.356 . S
C543 C542 1.363 . S
C543 C546 1.363 . S
N544 C546 1.356 . S
N544 H556 0.984 . S
N544 H557 0.985 . S
N545 C547 1.356 . S
N545 H550 0.984 . S
N545 H551 0.985 . S
C546 C540 1.379 . S
C546 C543 1.363 . S
C546 N544 1.356 . S
C547 C541 1.363 . S
C547 C542 1.379 . S
C547 N545 1.356 . S
N548 C540 1.356 . S
N548 H554 0.984 . S
N548 H555 0.984 . S
N549 C542 1.356 . S
N549 H552 0.984 . S
N549 H553 0.985 . S
H550 N545 0.984 . S
H551 N545 0.985 . S
H552 N549 0.984 . S
H553 N549 0.985 . S
H554 N548 0.984 . S
H555 N548 0.984 . S
H556 N544 0.984 . S
H557 N544 0.985 . S
C558 C559 1.363 . S
C558 C564 1.379 . S
C558 N566 1.356 . S
C559 C558 1.363 . S
C559 C565 1.363 . S
C560 C561 1.363 . S
C560 C565 1.379 . S
C560 N567 1.356 . S
C561 C560 1.363 . S
C561 C564 1.363 . S
N562 C564 1.356 . S
N562 H574 0.984 . S
N562 H575 0.985 . S
N563 C565 1.356 . S
N563 H568 0.984 . S
N563 H569 0.985 . S
C564 C558 1.379 . S
C564 C561 1.363 . S
C564 N562 1.356 . S
C565 C559 1.363 . S
C565 C560 1.379 . S
C565 N563 1.356 . S
N566 C558 1.356 . S
N566 H572 0.984 . S
N566 H573 0.984 . S
N567 C560 1.356 . S
N567 H570 0.984 . S
N567 H571 0.985 . S
H568 N563 0.984 . S
H569 N563 0.985 . S
H570 N567 0.984 . S
H571 N567 0.985 . S
H572 N566 0.984 . S
H573 N566 0.984 . S
H574 N562 0.984 . S
H575 N562 0.985 . S
C576 C577 1.363 . S
C576 C582 1.379 . S
C576 N584 1.356 . S
C577 C576 1.363 . S
C577 C583 1.363 . S
C578 C579 1.363 . S
C578 C583 1.379 . S
C578 N585 1.356 . S
C579 C578 1.363 . S
C579 C582 1.363 . S
N580 C582 1.356 . S
N580 H592 0.984 . S
N580 H593 0.985 . S
N581 C583 1.356 . S
N581 H586 0.984 . S
N581 H587 0.985 . S
C582 C576 1.379 . S
C582 C579 1.363 . S
C582 N580 1.356 . S
C583 C577 1.363 . S
C583 C578 1.379 . S
C583 N581 1.356 . S
N584 C576 1.356 . S
N584 H590 0.984 . S
N584 H591 0.984 . S
N585 C578 1.356 . S
N585 H588 0.984 . S
N585 H589 0.985 . S
H586 N581 0.984 . S
H587 N581 0.985 . S
H588 N585 0.984 . S
H589 N585 0.985 . S
H590 N584 0.984 . S
H591 N584 0.984 . S
H592 N580 0.984 . S
H593 N580 0.985 . S
C594 C595 1.363 . S
C594 C600 1.379 . S
C594 N602 1.356 . S
C595 C594 1.363 . S
C595 C601 1.363 . S
C596 C597 1.363 . S
C596 C601 1.379 . S
C596 N603 1.356 . S
C597 C596 1.363 . S
C597 C600 1.363 . S
N598 C600 1.356 . S
N598 H610 0.984 1_556 S
N598 H611 0.985 . S
N599 C601 1.356 . S
N599 H604 0.984 . S
N599 H605 0.985 . S
C600 C594 1.379 . S
C600 C597 1.363 . S
C600 N598 1.356 . S
C601 C595 1.363 . S
C601 C596 1.379 . S
C601 N599 1.356 . S
N602 C594 1.356 . S
N602 H608 0.984 . S
N602 H609 0.984 . S
N603 C596 1.356 . S
N603 H606 0.984 . S
N603 H607 0.985 . S
H604 N599 0.984 . S
H605 N599 0.985 . S
H606 N603 0.984 . S
H607 N603 0.985 . S
H608 N602 0.984 . S
H609 N602 0.984 . S
H610 N598 0.984 1_554 S
H611 N598 0.985 . S
C612 C613 1.362 . S
C612 C618 1.379 . S
C612 N620 1.356 . S
C613 C612 1.362 . S
C613 C619 1.364 1_655 S
C614 C615 1.362 . S
C614 C619 1.379 . S
C614 N621 1.356 . S
C615 C614 1.362 . S
C615 C618 1.364 1_455 S
N616 C618 1.356 . S
N616 H628 0.984 . S
N616 H629 0.985 . S
N617 C619 1.356 . S
N617 H622 0.984 . S
N617 H623 0.985 . S
C618 C612 1.379 . S
C618 C615 1.364 1_655 S
C618 N616 1.356 . S
C619 C613 1.364 1_455 S
C619 C614 1.379 . S
C619 N617 1.356 . S
N620 C612 1.356 . S
N620 H626 0.984 . S
N620 H627 0.984 . S
N621 C614 1.356 . S
N621 H624 0.984 . S
N621 H625 0.985 . S
H622 N617 0.984 . S
H623 N617 0.985 . S
H624 N621 0.984 . S
H625 N621 0.985 . S
H626 N620 0.984 . S
H627 N620 0.984 . S
H628 N616 0.984 . S
H629 N616 0.985 . S
C630 C631 1.363 1_545 S
C630 C636 1.379 1_556 S
C630 N638 1.356 . S
C631 C630 1.363 1_565 S
C631 C637 1.363 . S
C632 C633 1.364 1_565 S
C632 C637 1.379 1_554 S
C632 N639 1.356 . S
C633 C632 1.364 1_545 S
C633 C636 1.362 . S
N634 C636 1.356 . S
N634 H646 0.984 . S
N634 H647 0.985 . S
N635 C637 1.356 . S
N635 H640 0.984 . S
N635 H641 0.985 . S
C636 C630 1.379 1_554 S
C636 C633 1.362 . S
C636 N634 1.356 . S
C637 C631 1.363 . S
C637 C632 1.379 1_556 S
C637 N635 1.356 . S
N638 C630 1.356 . S
N638 H644 0.984 . S
N638 H645 0.984 . S
N639 C632 1.356 . S
N639 H642 0.984 . S
N639 H643 0.985 . S
H640 N635 0.984 . S
H641 N635 0.985 . S
H642 N639 0.984 . S
H643 N639 0.985 . S
H644 N638 0.984 . S
H645 N638 0.984 . S
H646 N634 0.984 . S
H647 N634 0.985 . S
C648 C649 1.363 . S
C648 C654 1.379 . S
C648 N656 1.356 . S
C649 C648 1.363 . S
C649 C655 1.363 . S
C650 C651 1.363 . S
C650 C655 1.379 . S
C650 N657 1.356 . S
C651 C650 1.363 . S
C651 C654 1.363 . S
N652 C654 1.356 . S
N652 H664 0.984 . S
N652 H665 0.985 . S
N653 C655 1.356 . S
N653 H658 0.984 . S
N653 H659 0.985 . S
C654 C648 1.379 . S
C654 C651 1.363 . S
C654 N652 1.356 . S
C655 C649 1.363 . S
C655 C650 1.379 . S
C655 N653 1.356 . S
N656 C648 1.356 . S
N656 H662 0.984 . S
N656 H663 0.984 . S
N657 C650 1.356 . S
N657 H660 0.984 . S
N657 H661 0.985 . S
H658 N653 0.984 . S
H659 N653 0.985 . S
H660 N657 0.984 . S
H661 N657 0.985 . S
H662 N656 0.984 . S
H663 N656 0.984 . S
H664 N652 0.984 . S
H665 N652 0.985 . S
C666 C667 1.362 . S
C666 C672 1.379 . S
C666 N674 1.356 . S
C667 C666 1.362 . S
C667 C673 1.364 1_655 S
C668 C669 1.362 . S
C668 C673 1.379 . S
C668 N675 1.356 . S
C669 C668 1.362 . S
C669 C672 1.364 1_455 S
N670 C672 1.356 . S
N670 H682 0.984 . S
N670 H683 0.985 . S
N671 C673 1.356 . S
N671 H676 0.984 . S
N671 H677 0.985 . S
C672 C666 1.379 . S
C672 C669 1.364 1_655 S
C672 N670 1.356 . S
C673 C667 1.364 1_455 S
C673 C668 1.379 . S
C673 N671 1.356 . S
N674 C666 1.356 . S
N674 H680 0.984 . S
N674 H681 0.984 . S
N675 C668 1.356 . S
N675 H678 0.984 . S
N675 H679 0.985 . S
H676 N671 0.984 . S
H677 N671 0.985 . S
H678 N675 0.984 . S
H679 N675 0.985 . S
H680 N674 0.984 . S
H681 N674 0.984 . S
H682 N670 0.984 . S
H683 N670 0.985 . S
C684 C685 1.362 . S
C684 C690 1.379 . S
C684 N692 1.356 . S
C685 C684 1.362 . S
C685 C691 1.364 1_565 S
C686 C687 1.362 . S
C686 C691 1.379 . S
C686 N693 1.356 . S
C687 C686 1.362 . S
C687 C690 1.364 1_545 S
N688 C690 1.356 . S
N688 H700 0.984 . S
N688 H701 0.985 . S
N689 C691 1.356 . S
N689 H694 0.984 . S
N689 H695 0.985 . S
C690 C684 1.379 . S
C690 C687 1.364 1_565 S
C690 N688 1.356 . S
C691 C685 1.364 1_545 S
C691 C686 1.379 . S
C691 N689 1.356 . S
N692 C684 1.356 . S
N692 H698 0.984 . S
N692 H699 0.984 . S
N693 C686 1.356 . S
N693 H696 0.984 . S
N693 H697 0.985 . S
H694 N689 0.984 . S
H695 N689 0.985 . S
H696 N693 0.984 . S
H697 N693 0.985 . S
H698 N692 0.984 . S
H699 N692 0.984 . S
H700 N688 0.984 . S
H701 N688 0.985 . S
C702 C703 1.363 . S
C702 C708 1.379 . S
C702 N710 1.356 . S
C703 C702 1.363 . S
C703 C709 1.363 . S
C704 C705 1.363 . S
C704 C709 1.379 . S
C704 N711 1.356 . S
C705 C704 1.363 . S
C705 C708 1.363 . S
N706 C708 1.356 . S
N706 H718 0.984 . S
N706 H719 0.985 . S
N707 C709 1.356 . S
N707 H712 0.984 . S
N707 H713 0.985 . S
C708 C702 1.379 . S
C708 C705 1.363 . S
C708 N706 1.356 . S
C709 C703 1.363 . S
C709 C704 1.379 . S
C709 N707 1.356 . S
N710 C702 1.356 . S
N710 H716 0.984 . S
N710 H717 0.984 . S
N711 C704 1.356 . S
N711 H714 0.984 . S
N711 H715 0.985 . S
H712 N707 0.984 . S
H713 N707 0.985 . S
H714 N711 0.984 . S
H715 N711 0.985 . S
H716 N710 0.984 . S
H717 N710 0.984 . S
H718 N706 0.984 . S
H719 N706 0.985 . S
C720 C721 1.363 . S
C720 C726 1.379 1_556 S
C720 N728 1.356 . S
C721 C720 1.363 . S
C721 C727 1.363 . S
C722 C723 1.363 . S
C722 C727 1.379 . S
C722 N729 1.356 . S
C723 C722 1.363 . S
C723 C726 1.363 1_556 S
N724 C726 1.356 . S
N724 H736 0.984 . S
N724 H737 0.985 . S
N725 C727 1.356 . S
N725 H730 0.984 . S
N725 H731 0.985 . S
C726 C720 1.379 1_554 S
C726 C723 1.363 1_554 S
C726 N724 1.356 . S
C727 C721 1.363 . S
C727 C722 1.379 . S
C727 N725 1.356 . S
N728 C720 1.356 . S
N728 H734 0.984 1_556 S
N728 H735 0.984 . S
N729 C722 1.356 . S
N729 H732 0.984 . S
N729 H733 0.985 . S
H730 N725 0.984 . S
H731 N725 0.985 . S
H732 N729 0.984 . S
H733 N729 0.985 . S
H734 N728 0.984 1_554 S
H735 N728 0.984 . S
H736 N724 0.984 . S
H737 N724 0.985 . S
C738 C739 1.363 . S
C738 C744 1.379 . S
C738 N746 1.356 . S
C739 C738 1.363 . S
C739 C745 1.363 . S
C740 C741 1.363 . S
C740 C745 1.379 . S
C740 N747 1.356 . S
C741 C740 1.363 . S
C741 C744 1.363 . S
N742 C744 1.356 . S
N742 H754 0.984 . S
N742 H755 0.985 . S
N743 C745 1.356 . S
N743 H748 0.984 . S
N743 H749 0.985 . S
C744 C738 1.379 . S
C744 C741 1.363 . S
C744 N742 1.356 . S
C745 C739 1.363 . S
C745 C740 1.379 . S
C745 N743 1.356 . S
N746 C738 1.356 . S
N746 H752 0.984 . S
N746 H753 0.984 . S
N747 C740 1.356 . S
N747 H750 0.984 . S
N747 H751 0.985 . S
H748 N743 0.984 . S
H749 N743 0.985 . S
H750 N747 0.984 . S
H751 N747 0.985 . S
H752 N746 0.984 . S
H753 N746 0.984 . S
H754 N742 0.984 . S
H755 N742 0.985 . S
C756 C757 1.363 . S
C756 C762 1.379 . S
C756 N764 1.356 . S
C757 C756 1.363 . S
C757 C763 1.363 . S
C758 C759 1.363 . S
C758 C763 1.379 . S
C758 N765 1.356 . S
C759 C758 1.363 . S
C759 C762 1.363 . S
N760 C762 1.356 . S
N760 H772 0.984 . S
N760 H773 0.985 . S
N761 C763 1.356 . S
N761 H766 0.984 . S
N761 H767 0.985 . S
C762 C756 1.379 . S
C762 C759 1.363 . S
C762 N760 1.356 . S
C763 C757 1.363 . S
C763 C758 1.379 . S
C763 N761 1.356 . S
N764 C756 1.356 . S
N764 H770 0.984 . S
N764 H771 0.984 . S
N765 C758 1.356 . S
N765 H768 0.984 . S
N765 H769 0.985 . S
H766 N761 0.984 . S
H767 N761 0.985 . S
H768 N765 0.984 . S
H769 N765 0.985 . S
H770 N764 0.984 . S
H771 N764 0.984 . S
H772 N760 0.984 . S
H773 N760 0.985 . S
C774 C775 1.363 . S
C774 C780 1.379 . S
C774 N782 1.356 . S
C775 C774 1.363 . S
C775 C781 1.363 . S
C776 C777 1.363 . S
C776 C781 1.379 . S
C776 N783 1.356 . S
C777 C776 1.363 . S
C777 C780 1.363 . S
N778 C780 1.356 . S
N778 H790 0.984 . S
N778 H791 0.985 . S
N779 C781 1.356 . S
N779 H784 0.984 . S
N779 H785 0.985 . S
C780 C774 1.379 . S
C780 C777 1.363 . S
C780 N778 1.356 . S
C781 C775 1.363 . S
C781 C776 1.379 . S
C781 N779 1.356 . S
N782 C774 1.356 . S
N782 H788 0.984 . S
N782 H789 0.984 . S
N783 C776 1.356 . S
N783 H786 0.984 . S
N783 H787 0.985 . S
H784 N779 0.984 . S
H785 N779 0.985 . S
H786 N783 0.984 . S
H787 N783 0.985 . S
H788 N782 0.984 . S
H789 N782 0.984 . S
H790 N778 0.984 . S
H791 N778 0.985 . S
C792 C793 1.363 . S
C792 C798 1.379 . S
C792 N800 1.356 . S
C793 C792 1.363 . S
C793 C799 1.363 . S
C794 C795 1.363 . S
C794 C799 1.379 . S
C794 N801 1.356 . S
C795 C794 1.363 . S
C795 C798 1.363 . S
N796 C798 1.356 . S
N796 H808 0.984 . S
N796 H809 0.985 . S
N797 C799 1.356 . S
N797 H802 0.984 . S
N797 H803 0.985 . S
C798 C792 1.379 . S
C798 C795 1.363 . S
C798 N796 1.356 . S
C799 C793 1.363 . S
C799 C794 1.379 . S
C799 N797 1.356 . S
N800 C792 1.356 . S
N800 H806 0.984 . S
N800 H807 0.984 . S
N801 C794 1.356 . S
N801 H804 0.984 . S
N801 H805 0.985 . S
H802 N797 0.984 . S
H803 N797 0.985 . S
H804 N801 0.984 . S
H805 N801 0.985 . S
H806 N800 0.984 . S
H807 N800 0.984 . S
H808 N796 0.984 . S
H809 N796 0.985 . S
C810 C811 1.363 . S
C810 C816 1.379 . S
C810 N818 1.356 . S
C811 C810 1.363 . S
C811 C817 1.363 . S
C812 C813 1.363 . S
C812 C817 1.379 . S
C812 N819 1.356 . S
C813 C812 1.363 . S
C813 C816 1.363 . S
N814 C816 1.356 . S
N814 H826 0.984 . S
N814 H827 0.985 . S
N815 C817 1.356 . S
N815 H820 0.984 . S
N815 H821 0.985 . S
C816 C810 1.379 . S
C816 C813 1.363 . S
C816 N814 1.356 . S
C817 C811 1.363 . S
C817 C812 1.379 . S
C817 N815 1.356 . S
N818 C810 1.356 . S
N818 H824 0.984 . S
N818 H825 0.984 . S
N819 C812 1.356 . S
N819 H822 0.984 . S
N819 H823 0.985 . S
H820 N815 0.984 . S
H821 N815 0.985 . S
H822 N819 0.984 . S
H823 N819 0.985 . S
H824 N818 0.984 . S
H825 N818 0.984 . S
H826 N814 0.984 . S
H827 N814 0.985 . S
C828 C829 1.363 . S
C828 C834 1.379 . S
C828 N836 1.356 . S
C829 C828 1.363 . S
C829 C835 1.363 . S
C830 C831 1.363 . S
C830 C835 1.379 . S
C830 N837 1.356 . S
C831 C830 1.363 . S
C831 C834 1.363 . S
N832 C834 1.356 . S
N832 H844 0.984 . S
N832 H845 0.985 . S
N833 C835 1.356 . S
N833 H838 0.984 . S
N833 H839 0.985 . S
C834 C828 1.379 . S
C834 C831 1.363 . S
C834 N832 1.356 . S
C835 C829 1.363 . S
C835 C830 1.379 . S
C835 N833 1.356 . S
N836 C828 1.356 . S
N836 H842 0.984 . S
N836 H843 0.984 . S
N837 C830 1.356 . S
N837 H840 0.984 . S
N837 H841 0.985 . S
H838 N833 0.984 . S
H839 N833 0.985 . S
H840 N837 0.984 . S
H841 N837 0.985 . S
H842 N836 0.984 . S
H843 N836 0.984 . S
H844 N832 0.984 . S
H845 N832 0.985 . S
C846 C847 1.363 1_556 S
C846 C852 1.379 1_556 S
C846 N854 1.356 . S
C847 C846 1.363 1_554 S
C847 C853 1.363 . S
C848 C849 1.363 . S
C848 C853 1.379 . S
C848 N855 1.356 . S
C849 C848 1.363 . S
C849 C852 1.363 . S
N850 C852 1.356 . S
N850 H862 0.984 1_554 S
N850 H863 0.984 1_655 S
N851 C853 1.356 . S
N851 H856 0.984 . S
N851 H857 0.985 . S
C852 C846 1.379 1_554 S
C852 C849 1.363 . S
C852 N850 1.356 . S
C853 C847 1.363 . S
C853 C848 1.379 . S
C853 N851 1.356 . S
N854 C846 1.356 . S
N854 H860 0.984 . S
N854 H861 0.984 . S
N855 C848 1.356 . S
N855 H858 0.984 . S
N855 H859 0.985 . S
H856 N851 0.984 . S
H857 N851 0.985 . S
H858 N855 0.984 . S
H859 N855 0.985 . S
H860 N854 0.984 . S
H861 N854 0.984 . S
H862 N850 0.984 1_556 S
H863 N850 0.984 1_455 S
C864 C865 1.363 . S
C864 C870 1.379 . S
C864 N872 1.356 . S
C865 C864 1.363 . S
C865 C871 1.363 . S
C866 C867 1.363 . S
C866 C871 1.379 . S
C866 N873 1.356 . S
C867 C866 1.363 . S
C867 C870 1.363 . S
N868 C870 1.356 . S
N868 H880 0.984 . S
N868 H881 0.985 . S
N869 C871 1.356 . S
N869 H874 0.984 . S
N869 H875 0.985 . S
C870 C864 1.379 . S
C870 C867 1.363 . S
C870 N868 1.356 . S
C871 C865 1.363 . S
C871 C866 1.379 . S
C871 N869 1.356 . S
N872 C864 1.356 . S
N872 H878 0.984 . S
N872 H879 0.984 . S
N873 C866 1.356 . S
N873 H876 0.984 . S
N873 H877 0.985 . S
H874 N869 0.984 . S
H875 N869 0.985 . S
H876 N873 0.984 . S
H877 N873 0.985 . S
H878 N872 0.984 . S
H879 N872 0.984 . S
H880 N868 0.984 . S
H881 N868 0.985 . S
C882 C883 1.363 . S
C882 C888 1.379 . S
C882 N890 1.356 . S
C883 C882 1.363 . S
C883 C889 1.363 . S
C884 C885 1.363 . S
C884 C889 1.379 . S
C884 N891 1.356 . S
C885 C884 1.363 . S
C885 C888 1.363 . S
N886 C888 1.356 . S
N886 H898 0.984 . S
N886 H899 0.985 . S
N887 C889 1.356 . S
N887 H892 0.984 . S
N887 H893 0.985 . S
C888 C882 1.379 . S
C888 C885 1.363 . S
C888 N886 1.356 . S
C889 C883 1.363 . S
C889 C884 1.379 . S
C889 N887 1.356 . S
N890 C882 1.356 . S
N890 H896 0.984 . S
N890 H897 0.984 . S
N891 C884 1.356 . S
N891 H894 0.984 . S
N891 H895 0.985 . S
H892 N887 0.984 . S
H893 N887 0.985 . S
H894 N891 0.984 . S
H895 N891 0.985 . S
H896 N890 0.984 . S
H897 N890 0.984 . S
H898 N886 0.984 . S
H899 N886 0.985 . S
C900 C901 1.363 . S
C900 C906 1.379 . S
C900 N908 1.356 . S
C901 C900 1.363 . S
C901 C907 1.363 . S
C902 C903 1.363 . S
C902 C907 1.379 . S
C902 N909 1.356 . S
C903 C902 1.363 . S
C903 C906 1.363 . S
N904 C906 1.356 . S
N904 H916 0.984 . S
N904 H917 0.985 . S
N905 C907 1.356 . S
N905 H910 0.984 . S
N905 H911 0.985 . S
C906 C900 1.379 . S
C906 C903 1.363 . S
C906 N904 1.356 . S
C907 C901 1.363 . S
C907 C902 1.379 . S
C907 N905 1.356 . S
N908 C900 1.356 . S
N908 H914 0.984 . S
N908 H915 0.984 . S
N909 C902 1.356 . S
N909 H912 0.984 . S
N909 H913 0.985 . S
H910 N905 0.984 . S
H911 N905 0.985 . S
H912 N909 0.984 . S
H913 N909 0.985 . S
H914 N908 0.984 . S
H915 N908 0.984 . S
H916 N904 0.984 . S
H917 N904 0.985 . S
C918 C919 1.363 . S
C918 C924 1.379 . S
C918 N926 1.356 . S
C919 C918 1.363 . S
C919 C925 1.363 . S
C920 C921 1.363 . S
C920 C925 1.379 . S
C920 N927 1.356 . S
C921 C920 1.363 . S
C921 C924 1.363 . S
N922 C924 1.356 . S
N922 H934 0.984 . S
N922 H935 0.985 . S
N923 C925 1.356 . S
N923 H928 0.984 . S
N923 H929 0.985 . S
C924 C918 1.379 . S
C924 C921 1.363 . S
C924 N922 1.356 . S
C925 C919 1.363 . S
C925 C920 1.379 . S
C925 N923 1.356 . S
N926 C918 1.356 . S
N926 H932 0.984 . S
N926 H933 0.984 . S
N927 C920 1.356 . S
N927 H930 0.984 . S
N927 H931 0.985 . S
H928 N923 0.984 . S
H929 N923 0.985 . S
H930 N927 0.984 . S
H931 N927 0.985 . S
H932 N926 0.984 . S
H933 N926 0.984 . S
H934 N922 0.984 . S
H935 N922 0.985 . S
C397 N343 1.097 . S
C399 N13 1.097 . S
C415 N46 1.097 . S
C417 N376 1.097 . S
C433 N79 1.097 . S
C435 N211 1.097 . S
C451 N112 1.097 . S
C453 N244 1.097 . S
C469 N145 1.097 . S
C471 N277 1.097 . S
C487 N178 1.097 . S
C489 N310 1.097 . S
C505 C21 1.476 . S
C507 C285 1.476 . S
C523 C318 1.476 . S
C525 C54 1.476 . S
C541 C87 1.476 . S
C543 C351 1.476 . S
C559 C120 1.476 . S
C561 C384 1.476 . S
C577 C153 1.476 . S
C579 C219 1.476 . S
C595 C186 1.476 . S
C597 C252 1.476 . S
C613 N365 1.247 . S
C615 N2 1.247 . S
C631 N200 1.247 . S
C633 N35 1.247 . S
C649 N233 1.247 . S
C651 N68 1.247 . S
C667 N101 1.247 . S
C669 N266 1.247 . S
C685 N134 1.247 . S
C687 N299 1.247 . S
C703 N332 1.247 . S
C705 N167 1.247 . S
C721 C172 1.967 . S
C723 C18 1.977 1_556 S
C739 C7 1.967 . S
C741 C51 1.977 . S
C757 C84 1.977 . S
C759 C40 1.967 . S
C775 C73 1.967 . S
C777 C117 1.977 . S
C793 C150 1.977 . S
C795 C106 1.967 . S
C811 C183 1.977 . S
C813 C139 1.967 . S
C829 C238 1.967 . S
C831 C216 1.977 . S
C847 C249 1.977 1_554 S
C849 C271 1.967 . S
C865 C282 1.977 . S
C867 C304 1.967 . S
C883 C337 1.967 . S
C885 C315 1.977 . S
C901 C370 1.967 . S
C903 C348 1.977 . S
C919 C381 1.977 . S
C921 C205 1.967 . S
