# Generated by pormake.
# Topology wjf, (4)-cn, num edge types: 1
# Building blocks:
#     Node 0, Type 0, BuildingBlock: NAHDIM_clean_sbu_0, # of connection points: 4
#     Node 1, Type 0, BuildingBlock: NAHDIM_clean_sbu_0, # of connection points: 4
#     Node 2, Type 0, BuildingBlock: NAHDIM_clean_sbu_0, # of connection points: 4
#     Node 3, Type 0, BuildingBlock: NAHDIM_clean_sbu_0, # of connection points: 4
#     Node 4, Type 0, BuildingBlock: NAHDIM_clean_sbu_0, # of connection points: 4
#     Node 5, Type 0, BuildingBlock: NAHDIM_clean_sbu_0, # of connection points: 4
#     Node 6, Type 0, BuildingBlock: NAHDIM_clean_sbu_0, # of connection points: 4
#     Node 7, Type 0, BuildingBlock: NAHDIM_clean_sbu_0, # of connection points: 4
#     Node 8, Type 0, BuildingBlock: NAHDIM_clean_sbu_0, # of connection points: 4
#     Node 9, Type 0, BuildingBlock: NAHDIM_clean_sbu_0, # of connection points: 4
#     Node 10, Type 0, BuildingBlock: NAHDIM_clean_sbu_0, # of connection points: 4
#     Node 11, Type 0, BuildingBlock: NAHDIM_clean_sbu_0, # of connection points: 4
#     Edge 12, Type (0, 0), BuildingBlock: XUDNAN_clean_linker_2, # of connection points: 2
#     Edge 13, Type (0, 0), BuildingBlock: XUDNAN_clean_linker_2, # of connection points: 2
#     Edge 14, Type (0, 0), BuildingBlock: XUDNAN_clean_linker_2, # of connection points: 2
#     Edge 15, Type (0, 0), BuildingBlock: XUDNAN_clean_linker_2, # of connection points: 2
#     Edge 16, Type (0, 0), BuildingBlock: XUDNAN_clean_linker_2, # of connection points: 2
#     Edge 17, Type (0, 0), BuildingBlock: XUDNAN_clean_linker_2, # of connection points: 2
#     Edge 18, Type (0, 0), BuildingBlock: XUDNAN_clean_linker_2, # of connection points: 2
#     Edge 19, Type (0, 0), BuildingBlock: XUDNAN_clean_linker_2, # of connection points: 2
#     Edge 20, Type (0, 0), BuildingBlock: XUDNAN_clean_linker_2, # of connection points: 2
#     Edge 21, Type (0, 0), BuildingBlock: XUDNAN_clean_linker_2, # of connection points: 2
#     Edge 22, Type (0, 0), BuildingBlock: XUDNAN_clean_linker_2, # of connection points: 2
#     Edge 23, Type (0, 0), BuildingBlock: XUDNAN_clean_linker_2, # of connection points: 2
#     Edge 24, Type (0, 0), BuildingBlock: XUDNAN_clean_linker_2, # of connection points: 2
#     Edge 25, Type (0, 0), BuildingBlock: XUDNAN_clean_linker_2, # of connection points: 2
#     Edge 26, Type (0, 0), BuildingBlock: XUDNAN_clean_linker_2, # of connection points: 2
#     Edge 27, Type (0, 0), BuildingBlock: XUDNAN_clean_linker_2, # of connection points: 2
#     Edge 28, Type (0, 0), BuildingBlock: XUDNAN_clean_linker_2, # of connection points: 2
#     Edge 29, Type (0, 0), BuildingBlock: XUDNAN_clean_linker_2, # of connection points: 2
#     Edge 30, Type (0, 0), BuildingBlock: XUDNAN_clean_linker_2, # of connection points: 2
#     Edge 31, Type (0, 0), BuildingBlock: XUDNAN_clean_linker_2, # of connection points: 2
#     Edge 32, Type (0, 0), BuildingBlock: XUDNAN_clean_linker_2, # of connection points: 2
#     Edge 33, Type (0, 0), BuildingBlock: XUDNAN_clean_linker_2, # of connection points: 2
#     Edge 34, Type (0, 0), BuildingBlock: XUDNAN_clean_linker_2, # of connection points: 2
#     Edge 35, Type (0, 0), BuildingBlock: XUDNAN_clean_linker_2, # of connection points: 2
# Relax obj value: 0.236
# Max RMSD: 0.248
# Mean RMSD: 0.248
data_MOF--net-wjf--node1-NAHDIM_clean_sbu_0--edge1-XUDNAN_clean_linker_2
_symmetry_space_group_name_H-M    P1
_symmetry_Int_Tables_number       1
_symmetry_cell_setting            triclinic
loop_
_symmetry_equiv_pos_as_xyz
'x, y, z'
_cell_length_a     51.933597
_cell_length_b     51.832398
_cell_length_c     25.753919
_cell_angle_alpha  89.884241
_cell_angle_beta   89.910575
_cell_angle_gamma 119.91468
loop_
_atom_site_label
_atom_site_type_symbol
_atom_site_fract_x
_atom_site_fract_y
_atom_site_fract_z
_atom_type_partial_charge
C0 C 0.27939 0.40973 0.1361 0.0
O1 O 0.27094 0.38147 0.14312 0.0
O2 O 0.3176 0.3801 0.20799 0.0
Zn3 Zn 0.33137 0.40925 0.14921 0.0
O4 O 0.3258 0.38664 0.08363 0.0
C5 C 0.38854 0.4427 0.19955 0.0
O6 O 0.373 0.43136 0.24221 0.0
O7 O 0.3067 0.42884 0.14144 0.0
C8 C 0.32848 0.39988 0.04077 0.0
O9 O 0.33497 0.42784 0.04106 0.0
C10 C 0.32805 0.36257 0.20883 0.0
O11 O 0.34614 0.36431 0.17149 0.0
O12 O 0.37514 0.43775 0.1563 0.0
C13 C 0.88307 0.28965 0.38933 0.0
O14 O 0.90508 0.28403 0.38691 0.0
O15 O 0.94402 0.32849 0.48368 0.0
Zn16 Zn 0.93048 0.34309 0.42336 0.0
O17 O 0.95366 0.34643 0.35915 0.0
C18 C 0.96054 0.40335 0.4583 0.0
O19 O 0.98093 0.39646 0.47057 0.0
O20 O 0.88809 0.31461 0.40678 0.0
C21 C 0.94984 0.35958 0.32082 0.0
O22 O 0.9322 0.37079 0.32618 0.0
C23 C 0.96419 0.32149 0.48045 0.0
O24 O 0.97653 0.32283 0.43522 0.0
O25 O 0.93621 0.3835 0.43881 0.0
C26 C 0.61219 0.87719 0.74529 0.0
O27 O 0.63583 0.90253 0.7576 0.0
O28 O 0.6113 0.92778 0.8346 0.0
Zn29 Zn 0.58981 0.91434 0.76596 0.0
O30 O 0.61165 0.94244 0.70698 0.0
C31 C 0.54534 0.92785 0.80171 0.0
O32 O 0.56559 0.94277 0.83701 0.0
O33 O 0.58692 0.87549 0.74688 0.0
C34 C 0.61174 0.96682 0.70092 0.0
O35 O 0.59936 0.97539 0.73628 0.0
C36 C 0.63205 0.95407 0.84396 0.0
O37 O 0.6411 0.9744 0.80731 0.0
O38 O 0.54985 0.912 0.76936 0.0
C39 C 0.70362 0.57473 0.05466 0.0
O40 O 0.7071 0.60161 0.0518 0.0
O41 O 0.65886 0.60045 0.10385 0.0
Zn42 Zn 0.64683 0.56536 0.0572 0.0
O43 O 0.64539 0.57532 0.98226 0.0
C44 C 0.60189 0.53112 0.13071 0.0
O45 O 0.62454 0.54531 0.16226 0.0
O46 O 0.67759 0.55275 0.06083 0.0
C47 C 0.64396 0.55612 0.94997 0.0
O48 O 0.64176 0.53129 0.96767 0.0
C49 C 0.64962 0.61885 0.09906 0.0
O50 O 0.63334 0.61694 0.05867 0.0
O51 O 0.60638 0.53436 0.08197 0.0
C52 C 0.13188 0.7044 0.43123 0.0
O53 O 0.1286 0.70201 0.48191 0.0
O54 O 0.06085 0.69651 0.48726 0.0
Zn55 Zn 0.0666 0.68015 0.42064 0.0
O56 O 0.05013 0.69143 0.36 0.0
C57 C 0.05191 0.6201 0.45395 0.0
O58 O 0.07658 0.63327 0.48101 0.0
O59 O 0.10926 0.69597 0.4025 0.0
C60 C 0.02439 0.67394 0.34231 0.0
O61 O 0.00698 0.6491 0.36737 0.0
C62 C 0.04636 0.71025 0.49046 0.0
O63 O 0.03681 0.71663 0.44781 0.0
O64 O 0.04458 0.63563 0.4261 0.0
C65 C 0.40578 0.10873 0.73517 0.0
O66 O 0.37807 0.09455 0.75133 0.0
O67 O 0.36309 0.03593 0.78286 0.0
Zn68 Zn 0.39071 0.04929 0.72141 0.0
O69 O 0.36755 0.04032 0.65542 0.0
C70 C 0.42762 0.02622 0.76014 0.0
O71 O 0.42938 0.04179 0.80154 0.0
O72 O 0.41788 0.09365 0.72196 0.0
C73 C 0.33958 0.02888 0.65129 0.0
O74 O 0.32287 0.02096 0.69317 0.0
C75 C 0.3501 0.0088 0.79686 0.0
O76 O 0.3548 0.98982 0.77064 0.0
O77 O 0.4132 0.027 0.72093 0.0
C78 C 0.60135 0.69944 0.58869 0.0
O79 O 0.57375 0.6785 0.58063 0.0
O80 O 0.63501 0.66317 0.4766 0.0
Zn81 Zn 0.61925 0.6572 0.54949 0.0
O82 O 0.6424 0.64672 0.59881 0.0
C83 C 0.56865 0.60087 0.52165 0.0
O84 O 0.58505 0.60388 0.48071 0.0
O85 O 0.62246 0.69478 0.57707 0.0
C86 C 0.64241 0.62227 0.59587 0.0
O87 O 0.63066 0.60528 0.555 0.0
C88 C 0.62982 0.67884 0.44489 0.0
O89 O 0.61503 0.69177 0.46105 0.0
O90 O 0.57767 0.62218 0.55389 0.0
C91 C 0.89312 0.60017 0.93383 0.0
O92 O 0.91391 0.62706 0.94703 0.0
O93 O 0.96076 0.6323 0.84174 0.0
Zn94 Zn 0.94459 0.60163 0.89851 0.0
O95 O 0.96347 0.62028 0.96636 0.0
C96 C 0.95631 0.56347 0.83409 0.0
O97 O 0.94722 0.57466 0.79737 0.0
O98 O 0.90047 0.58371 0.9088 0.0
C99 C 0.98018 0.64803 0.97369 0.0
O100 O 0.98779 0.66651 0.9342 0.0
C101 C 0.94966 0.64681 0.82107 0.0
O102 O 0.92381 0.64257 0.8371 0.0
O103 O 0.95582 0.57077 0.88103 0.0
C104 C 0.2801 0.86378 0.23457 0.0
O105 O 0.26959 0.8642 0.18839 0.0
O106 O 0.2956 0.9294 0.15823 0.0
Zn107 Zn 0.31103 0.92919 0.22955 0.0
O108 O 0.2975 0.94828 0.28274 0.0
C109 C 0.37034 0.97293 0.19569 0.0
O110 O 0.35613 0.98168 0.1646 0.0
O111 O 0.29782 0.88818 0.25651 0.0
C112 C 0.31218 0.97582 0.29352 0.0
O113 O 0.33602 0.99332 0.26624 0.0
C114 C 0.28366 0.94492 0.14678 0.0
O115 O 0.27837 0.95904 0.18383 0.0
O116 O 0.35564 0.95118 0.22644 0.0
C117 C 0.43817 0.30289 0.63245 0.0
O118 O 0.45755 0.3245 0.60267 0.0
O119 O 0.3721 0.31728 0.57012 0.0
Zn120 Zn 0.39888 0.33011 0.63169 0.0
O121 O 0.37415 0.32712 0.69305 0.0
C122 C 0.43996 0.38713 0.58215 0.0
O123 O 0.43179 0.37227 0.53836 0.0
O124 O 0.41443 0.30243 0.64605 0.0
C125 C 0.36671 0.3467 0.70077 0.0
O126 O 0.37488 0.36856 0.6672 0.0
C127 C 0.376 0.30601 0.52926 0.0
O128 O 0.39892 0.30185 0.52603 0.0
O129 O 0.43025 0.37333 0.62495 0.0
C130 C 0.12268 0.41132 0.93009 0.0
O131 O 0.10061 0.38372 0.92824 0.0
O132 O 0.06773 0.38566 0.82849 0.0
Zn133 Zn 0.07715 0.41517 0.88574 0.0
O134 O 0.05211 0.39433 0.94836 0.0
C135 C 0.05973 0.44881 0.81724 0.0
O136 O 0.06033 0.43157 0.78051 0.0
O137 O 0.11914 0.43167 0.90969 0.0
C138 C 0.03702 0.40375 0.97224 0.0
O139 O 0.03611 0.42696 0.95403 0.0
C140 C 0.04074 0.36591 0.82188 0.0
O141 O 0.02056 0.36485 0.85404 0.0
O142 O 0.06777 0.44676 0.86295 0.0
C143 C 0.70305 0.11858 0.2553 0.0
O144 O 0.70691 0.09544 0.25878 0.0
O145 O 0.65351 0.04991 0.19081 0.0
Zn146 Zn 0.64525 0.07155 0.24739 0.0
O147 O 0.64539 0.05737 0.32029 0.0
C148 C 0.58256 0.04335 0.24125 0.0
O149 O 0.58541 0.02125 0.25956 0.0
O150 O 0.67709 0.11425 0.24719 0.0
C151 C 0.63784 0.03191 0.33924 0.0
O152 O 0.62765 0.00862 0.30868 0.0
C153 C 0.6653 0.03355 0.19278 0.0
O154 O 0.67425 0.02851 0.23735 0.0
O155 O 0.60574 0.06827 0.23276 0.0
H156 H 0.36096 0.33729 0.2374 0.0
H157 H 0.28601 0.34687 0.28493 0.0
H158 H 0.28388 0.32242 0.36839 0.0
H159 H 0.33921 0.26536 0.31107 0.0
H160 H 0.3775 0.2783 0.3272 0.0
H161 H 0.3683 0.2892 0.26657 0.0
H162 H 0.40306 0.34469 0.28974 0.0
H163 H 0.41221 0.33405 0.35024 0.0
H164 H 0.39735 0.35892 0.34988 0.0
H165 H 0.29588 0.30678 0.4511 0.0
H166 H 0.32182 0.30241 0.52768 0.0
H167 H 0.38954 0.30338 0.42755 0.0
C168 C 0.34336 0.33317 0.26455 0.0
C169 C 0.32351 0.34373 0.2547 0.0
C170 C 0.30135 0.33879 0.29173 0.0
C171 C 0.29984 0.32474 0.33905 0.0
C172 C 0.32056 0.31565 0.34852 0.0
C173 C 0.34181 0.31949 0.31214 0.0
C174 C 0.36433 0.31218 0.33468 0.0
C175 C 0.36219 0.28461 0.30831 0.0
C176 C 0.39609 0.33906 0.33093 0.0
C177 C 0.35356 0.3055 0.39031 0.0
C178 C 0.3278 0.30681 0.39711 0.0
C179 C 0.3156 0.30493 0.4461 0.0
C180 C 0.33058 0.30261 0.48939 0.0
C181 C 0.35759 0.30243 0.48339 0.0
C182 C 0.36858 0.3028 0.43312 0.0
H183 H 0.94003 0.31127 0.57738 0.0
H184 H 0.01685 0.32189 0.49218 0.0
H185 H 0.04172 0.32396 0.57489 0.0
H186 H 0.97663 0.36256 0.66647 0.0
H187 H 0.95282 0.34366 0.72111 0.0
H188 H 0.93813 0.33511 0.65654 0.0
H189 H 0.92089 0.27934 0.67157 0.0
H190 H 0.93541 0.28772 0.73672 0.0
H191 H 0.94731 0.26864 0.69282 0.0
H192 H 0.06234 0.33691 0.6643 0.0
H193 H 0.07605 0.35749 0.7528 0.0
H194 H 0.9853 0.33679 0.78029 0.0
C195 C 0.96166 0.31293 0.5761 0.0
C196 C 0.97655 0.31649 0.52849 0.0
C197 C 0.00494 0.31895 0.52827 0.0
C198 C 0.01922 0.32006 0.57509 0.0
C199 C 0.0045 0.31803 0.62158 0.0
C200 C 0.97606 0.31392 0.62238 0.0
C201 C 0.96657 0.31636 0.67685 0.0
C202 C 0.95808 0.34088 0.6804 0.0
C203 C 0.94103 0.28621 0.6956 0.0
C204 C 0.9949 0.32475 0.70602 0.0
C205 C 0.01633 0.32495 0.67377 0.0
C206 C 0.0455 0.33594 0.69034 0.0
C207 C 0.05313 0.34773 0.74056 0.0
C208 C 0.03165 0.3485 0.77344 0.0
C209 C 0.00201 0.33586 0.75646 0.0
H210 H 0.6521 0.00803 0.88937 0.0
H211 H 0.63517 0.91857 0.91946 0.0
H212 H 0.64883 0.93161 0.01166 0.0
H213 H 0.71336 0.04804 0.9841 0.0
H214 H 0.69986 0.07279 0.00205 0.0
H215 H 0.69412 0.05805 0.9371 0.0
H216 H 0.63745 0.03729 0.94704 0.0
H217 H 0.64298 0.05183 0.01188 0.0
H218 H 0.6179 0.01279 0.00064 0.0
H219 H 0.66036 0.95338 0.10198 0.0
H220 H 0.66413 0.98031 0.18355 0.0
H221 H 0.66977 0.05392 0.09405 0.0
C222 C 0.65217 0.99149 0.91504 0.0
C223 C 0.6431 0.96248 0.89739 0.0
C224 C 0.64235 0.94103 0.93239 0.0
C225 C 0.6502 0.94828 0.98464 0.0
C226 C 0.65846 0.97697 0.00118 0.0
C227 C 0.6593 -0.00183 0.96739 0.0
C228 C 0.66513 0.02606 0.99581 0.0
C229 C 0.69489 0.05282 0.97875 0.0
C230 C 0.63932 0.03233 0.98841 0.0
C231 C 0.66659 0.01697 0.05103 0.0
C232 C 0.66349 0.98891 0.05335 0.0
C233 C 0.66307 0.97547 0.10059 0.0
C234 C 0.66527 0.9909 0.14665 0.0
C235 C 0.66713 0.01907 0.14487 0.0
C236 C 0.66833 0.03237 0.09643 0.0
H237 H 0.67053 0.61812 0.19575 0.0
H238 H 0.63391 0.66219 0.10325 0.0
H239 H 0.63149 0.68839 0.18164 0.0
H240 H 0.62376 0.60222 0.29839 0.0
H241 H 0.65031 0.60754 0.34818 0.0
H242 H 0.65489 0.59711 0.28381 0.0
H243 H 0.70774 0.64324 0.27834 0.0
H244 H 0.70346 0.65373 0.34311 0.0
H245 H 0.71286 0.67977 0.29022 0.0
H246 H 0.62646 0.70402 0.2718 0.0
H247 H 0.61876 0.70737 0.36563 0.0
H248 H 0.6576 0.65186 0.39844 0.0
C249 C 0.6629 0.63401 0.19148 0.0
C250 C 0.6526 0.63829 0.14328 0.0
C251 C 0.64211 0.65873 0.13973 0.0
C252 C 0.64072 0.67376 0.18402 0.0
C253 C 0.65004 0.66815 0.23137 0.0
C254 C 0.66112 0.64888 0.23522 0.0
C255 C 0.66637 0.64386 0.29116 0.0
C256 C 0.64771 0.61073 0.30624 0.0
C257 C 0.69959 0.65588 0.30129 0.0
C258 C 0.65548 0.66243 0.31842 0.0
C259 C 0.64665 0.67671 0.28335 0.0
C260 C 0.63378 0.69336 0.29959 0.0
C261 C 0.62942 0.69506 0.35299 0.0
C262 C 0.63762 0.67992 0.38939 0.0
C263 C 0.65136 0.66394 0.37169 0.0
H264 H 0.0021 0.65796 0.77792 0.0
H265 H 0.93132 0.67886 0.76166 0.0
H266 H 0.95445 0.70623 0.68036 0.0
H267 H 0.06304 0.72794 0.71828 0.0
H268 H 0.07865 0.7077 0.68718 0.0
H269 H 0.05987 0.69514 0.74879 0.0
H270 H 0.02482 0.64318 0.70931 0.0
H271 H 0.04341 0.65553 0.64787 0.0
H272 H 0.0038 0.64051 0.6519 0.0
H273 H 0.98089 0.72425 0.59462 0.0
H274 H 0.00679 0.72945 0.51144 0.0
H275 H 0.05993 0.69646 0.58495 0.0
C276 C 0.99183 0.66896 0.75814 0.0
C277 C 0.96494 0.66634 0.77618 0.0
C278 C 0.95201 0.6807 0.74865 0.0
C279 C 0.96508 0.69641 0.7026 0.0
C280 C 0.99117 0.69778 0.68507 0.0
C281 C 0.00447 0.68455 0.7123 0.0
C282 C 0.0302 0.68589 0.68252 0.0
C283 C 0.05969 0.70533 0.71089 0.0
C284 C 0.02523 0.65442 0.67229 0.0
C285 C 0.02848 0.70066 0.63307 0.0
C286 C 0.00628 0.70797 0.63558 0.0
C287 C -0.00128 0.71918 0.59259 0.0
C288 C 0.01355 0.72205 0.54547 0.0
C289 C 0.03539 0.71336 0.54171 0.0
C290 C 0.04358 0.7036 0.58666 0.0
H291 H 0.29528 0.92123 0.06129 0.0
H292 H 0.26971 0.98574 0.10818 0.0
H293 H 0.27733 0.00483 0.01838 0.0
H294 H 0.35324 0.96755 0.98611 0.0
H295 H 0.34829 0.94122 0.93605 0.0
H296 H 0.33481 0.92828 0.00058 0.0
H297 H 0.28182 0.89378 0.96503 0.0
H298 H 0.29521 0.90629 0.9 0.0
H299 H 0.26433 0.90921 0.92503 0.0
H300 H 0.29721 0.02325 0.92925 0.0
H301 H 0.32416 0.03699 0.8455 0.0
H302 H 0.33551 0.95971 0.85604 0.0
C303 C 0.29026 0.93867 0.05235 0.0
C304 C 0.28191 0.95199 0.09174 0.0
C305 C 0.27598 0.97506 0.0786 0.0
C306 C 0.28024 0.98607 0.02764 0.0
C307 C 0.28994 0.97341 0.99024 0.0
C308 C 0.29433 0.94983 0.00176 0.0
C309 C 0.30771 0.94221 0.95618 0.0
C310 C 0.33779 0.945 0.97062 0.0
C311 C 0.28596 0.91102 0.93532 0.0
C312 C 0.31156 0.96614 0.91813 0.0
C313 C 0.30089 0.98373 0.93823 0.0
C314 C 0.30491 0.00917 0.91249 0.0
C315 C 0.32041 0.0169 0.86517 0.0
C316 C 0.33161 -0.00079 0.84418 0.0
C317 C 0.32659 0.97325 0.87062 0.0
H318 H 0.1324 0.37275 0.98679 0.0
H319 H 0.17355 0.46576 0.94185 0.0
H320 H 0.21742 0.47682 0.99563 0.0
H321 H 0.15777 0.38502 0.1191 0.0
H322 H 0.16326 0.35333 0.12016 0.0
H323 H 0.13522 0.35318 0.0789 0.0
H324 H 0.15883 0.34272 -0.00139 0.0
H325 H 0.18668 0.34247 0.03969 0.0
H326 H 0.19764 0.36719 0.9845 0.0
H327 H 0.25755 0.47675 0.05269 0.0
H328 H 0.2908 0.46524 0.10426 0.0
H329 H 0.22133 0.37256 0.11246 0.0
C330 C 0.1506 0.39549 0.98804 0.0
C331 C 0.14962 0.4184 0.96002 0.0
C332 C 0.1739 0.44785 0.96297 0.0
C333 C 0.1988 0.45435 0.99356 0.0
C334 C 0.19885 0.43116 0.02112 0.0
C335 C 0.17532 0.40234 0.01846 0.0
C336 C 0.18079 0.38116 0.05059 0.0
C337 C 0.1579 0.36737 0.09481 0.0
C338 C 0.18101 0.35698 0.01629 0.0
C339 C 0.21133 0.40243 0.07128 0.0
C340 C 0.22143 0.43122 0.05423 0.0
C341 C 0.24974 0.45433 0.06661 0.0
C342 C 0.26842 0.44761 0.09606 0.0
C343 C 0.25861 0.41802 0.11256 0.0
C344 C 0.22945 0.39545 0.1009 0.0
H345 H 0.86466 0.23315 0.356 0.0
H346 H 0.83504 0.29747 0.37556 0.0
H347 H 0.78644 0.26172 0.33757 0.0
H348 H 0.82812 0.20296 0.23401 0.0
H349 H 0.81868 0.16542 0.25039 0.0
H350 H 0.85139 0.19641 0.27765 0.0
H351 H 0.83241 0.17656 0.37056 0.0
H352 H 0.79983 0.14539 0.34358 0.0
H353 H 0.796 0.16919 0.39013 0.0
H354 H 0.74089 0.21853 0.29833 0.0
H355 H 0.70077 0.17005 0.26676 0.0
H356 H 0.7608 0.13456 0.27382 0.0
C357 C 0.84801 0.2398 0.35225 0.0
C358 C 0.85362 0.26809 0.36862 0.0
C359 C 0.83116 0.27585 0.36333 0.0
C360 C 0.80358 0.25578 0.34157 0.0
C361 C 0.79889 0.22813 0.32541 0.0
C362 C 0.82043 0.22008 0.33084 0.0
C363 C 0.80954 0.18869 0.31224 0.0
C364 C 0.82803 0.18837 0.26581 0.0
C365 C 0.80943 0.16879 0.35679 0.0
C366 C 0.77836 0.18018 0.29597 0.0
C367 C 0.77269 0.20328 0.30334 0.0
C368 C 0.74509 0.20031 0.29222 0.0
C369 C 0.72249 0.17273 0.27417 0.0
C370 C 0.72768 0.14854 0.26787 0.0
C371 C 0.75616 0.15262 0.27807 0.0
H372 H 0.56901 0.82338 0.70624 0.0
H373 H 0.66314 0.87437 0.7422 0.0
H374 H 0.67007 0.83413 0.70703 0.0
H375 H 0.55953 0.75044 0.73727 0.0
H376 H 0.53394 0.73208 0.68478 0.0
H377 H 0.53597 0.76445 0.71464 0.0
H378 H 0.54617 0.79025 0.62467 0.0
H379 H 0.54436 0.75805 0.59458 0.0
H380 H 0.5769 0.79415 0.58602 0.0
H381 H 0.66762 0.79007 0.66501 0.0
H382 H 0.65558 0.74324 0.6214 0.0
H383 H 0.56285 0.71984 0.61284 0.0
C384 C 0.59101 0.82593 0.70718 0.0
C385 C 0.61554 0.85204 0.72697 0.0
C386 C 0.64401 0.85461 0.72721 0.0
C387 C 0.6482 0.83188 0.70732 0.0
C388 C 0.6237 0.80667 0.68744 0.0
C389 C 0.59562 0.8034 0.68743 0.0
C390 C 0.57323 0.77416 0.66279 0.0
C391 C 0.54925 0.75409 0.70224 0.0
C392 C 0.55936 0.77949 0.61413 0.0
C393 C 0.59323 0.76168 0.64873 0.0
C394 C 0.62223 0.78089 0.66329 0.0
C395 C 0.64497 0.77473 0.65363 0.0
C396 C 0.63787 0.74807 0.62866 0.0
C397 C 0.60824 0.7278 0.61373 0.0
C398 C 0.58567 0.7348 0.62393 0.0
H399 H 0.76192 0.61717 0.05408 0.0
H400 H 0.70265 0.52296 0.02723 0.0
H401 H 0.74519 0.51829 0.9954 0.0
H402 H 0.80446 0.63127 0.94246 0.0
H403 H 0.83917 0.65758 0.97213 0.0
H404 H 0.80478 0.65273 -0.00228 0.0
H405 H 0.81744 0.64065 0.08871 0.0
H406 H 0.85214 0.64592 0.06361 0.0
H407 H 0.82655 0.61148 0.09543 0.0
H408 H 0.79405 0.52557 0.95848 0.0
H409 H 0.84528 0.54329 0.92666 0.0
H410 H 0.87107 0.6325 0.97894 0.0
C411 C 0.7579 0.5954 0.04244 0.0
C412 C 0.72905 0.57042 0.04313 0.0
C413 C 0.72469 0.54235 0.0274 0.0
C414 C 0.74867 0.53953 0.00905 0.0
C415 C 0.77675 0.56492 0.00729 0.0
C416 C 0.78145 0.59221 0.02433 0.0
C417 C 0.81333 0.61641 0.01677 0.0
C418 C 0.81554 0.64093 0.98009 0.0
C419 C 0.82824 0.62937 0.06926 0.0
C420 C 0.82583 0.59866 0.99185 0.0
C421 C 0.80454 0.56901 0.98665 0.0
C422 C 0.81097 0.54869 0.96291 0.0
C423 C 0.84003 0.55897 0.9447 0.0
C424 C 0.86215 0.58924 0.95046 0.0
C425 C 0.85475 0.60918 0.9742 0.0
H426 H 0.14453 0.71481 0.32817 0.0
H427 H 0.18618 0.73405 0.47984 0.0
H428 H 0.23377 0.77092 0.43972 0.0
H429 H 0.21299 0.73073 0.24835 0.0
H430 H 0.20212 0.74743 0.19778 0.0
H431 H 0.17417 0.71694 0.23558 0.0
H432 H 0.15056 0.74914 0.25966 0.0
H433 H 0.17841 0.77965 0.22257 0.0
H434 H 0.17317 0.78475 0.2902 0.0
H435 H 0.27278 0.81248 0.38734 0.0
H436 H 0.29942 0.85533 0.32842 0.0
H437 H 0.2319 0.80982 0.21097 0.0
C438 C 0.1639 0.72593 0.35281 0.0
C439 C 0.16164 0.72155 0.40717 0.0
C440 C 0.18741 0.7369 0.43808 0.0
C441 C 0.21458 0.75782 0.41554 0.0
C442 C 0.2156 0.7628 0.36207 0.0
C443 C 0.19095 0.74698 0.331 0.0
C444 C 0.19625 0.75957 0.27643 0.0
C445 C 0.1964 0.73734 0.23722 0.0
C446 C 0.17326 0.76883 0.26141 0.0
C447 C 0.22697 0.78627 0.28254 0.0
C448 C 0.23813 0.78724 0.33172 0.0
C449 C 0.2646 0.81158 0.34837 0.0
C450 C 0.27951 0.8359 0.31465 0.0
C451 C 0.2677 0.83589 0.26505 0.0
C452 C 0.24172 0.81027 0.24825 0.0
H453 H 0.38607 0.14654 0.76276 0.0
H454 H 0.45832 0.1438 0.68305 0.0
H455 H 0.47825 0.19605 0.65491 0.0
H456 H 0.37208 0.18426 0.6683 0.0
H457 H 0.36334 0.20607 0.71169 0.0
H458 H 0.35776 0.17052 0.73244 0.0
H459 H 0.39148 0.19507 0.8124 0.0
H460 H 0.39695 0.23077 0.79215 0.0
H461 H 0.42857 0.22594 0.80307 0.0
H462 H 0.4862 0.24665 0.62604 0.0
H463 H 0.48195 0.29069 0.60164 0.0
H464 H 0.40427 0.2588 0.70089 0.0
C465 C 0.40652 0.1571 0.74051 0.0
C466 C 0.42066 0.14112 0.72517 0.0
C467 C 0.44722 0.1557 0.69557 0.0
C468 C 0.45869 0.18537 0.67938 0.0
C469 C 0.44352 0.20015 0.69368 0.0
C470 C 0.41819 0.18652 0.72417 0.0
C471 C 0.40448 0.20605 0.73086 0.0
C472 C 0.37255 0.19081 0.70953 0.0
C473 C 0.40544 0.21499 0.78802 0.0
C474 C 0.42537 0.23238 0.69786 0.0
C475 C 0.44801 0.22891 0.67714 0.0
C476 C 0.46883 0.24979 0.64276 0.0
C477 C 0.46622 0.27468 0.62902 0.0
C478 C 0.4428 0.2782 0.64932 0.0
C479 C 0.42252 0.2569 0.68474 0.0
H480 H 0.36231 0.39264 0.74314 0.0
H481 H 0.33931 0.3009 0.77015 0.0
H482 H 0.32087 0.30283 0.85754 0.0
H483 H 0.39148 0.41826 0.86358 0.0
H484 H 0.37821 0.44426 0.87034 0.0
H485 H 0.38458 0.43427 0.80678 0.0
H486 H 0.33028 0.41759 0.7809 0.0
H487 H 0.32377 0.42777 0.84444 0.0
H488 H 0.3001 0.39062 0.82041 0.0
H489 H 0.31145 0.31658 0.94508 0.0
H490 H 0.31134 0.34117 0.02691 0.0
H491 H 0.34082 0.42411 0.94322 0.0
C492 C 0.35255 0.37268 0.76683 0.0
C493 C 0.35207 0.34658 0.74988 0.0
C494 C 0.33981 0.32112 0.78243 0.0
C495 C 0.32916 0.32195 0.83201 0.0
C496 C 0.33083 0.34835 0.84824 0.0
C497 C 0.34202 0.37321 0.81654 0.0
C498 C 0.34424 0.3997 0.84518 0.0
C499 C 0.37654 0.42563 0.84655 0.0
C500 C 0.32335 0.40949 0.82131 0.0
C501 C 0.33365 0.38615 0.89846 0.0
C502 C 0.32558 0.3564 0.89919 0.0
C503 C 0.31719 0.33972 0.94486 0.0
C504 C 0.31733 0.35392 0.99115 0.0
C505 C 0.326 0.38452 0.99135 0.0
C506 C 0.33375 0.40061 0.9442 0.0
H507 H 0.95368 0.39378 0.23716 0.0
H508 H 0.97815 0.32942 0.29062 0.0
H509 H 0.00092 0.33172 0.20515 0.0
H510 H 0.93602 0.36778 0.10528 0.0
H511 H 0.95161 0.40469 0.07819 0.0
H512 H 0.93643 0.39726 0.14299 0.0
H513 H 0.98642 0.43942 0.17879 0.0
H514 H 0.00167 0.4471 0.1141 0.0
H515 H 0.02021 0.43887 0.16518 0.0
H516 H 0.0212 0.34132 0.11412 0.0
H517 H 0.04039 0.35988 0.02605 0.0
H518 H 0.00321 0.41856 0.03333 0.0
C519 C 0.96371 0.38006 0.23087 0.0
C520 C 0.96407 0.36134 0.27037 0.0
C521 C 0.97768 0.34397 0.26083 0.0
C522 C 0.99054 0.34501 0.2124 0.0
C523 C 0.98966 0.36363 0.17419 0.0
C524 C 0.9768 0.381 0.18302 0.0
C525 C 0.97978 0.39998 0.13622 0.0
C526 C 0.94913 0.39193 0.11439 0.0
C527 C -0.00188 0.43331 0.14937 0.0
C528 C -0.00356 0.39064 0.09968 0.0
C529 C 0.00172 0.36949 0.12213 0.0
C530 C 0.01715 0.35784 0.09609 0.0
C531 C 0.02789 0.36848 0.04605 0.0
C532 C 0.02329 0.39067 0.02284 0.0
C533 C 0.00703 0.40154 0.04993 0.0
H534 H 0.61551 0.94522 0.60633 0.0
H535 H 0.63052 0.02562 0.68445 0.0
H536 H 0.64326 0.05226 0.60031 0.0
H537 H 0.67304 0.98106 0.50426 0.0
H538 H 0.64977 0.95497 0.45548 0.0
H539 H 0.64601 0.94349 0.52248 0.0
H540 H 0.58997 0.92678 0.51955 0.0
H541 H 0.59356 0.93839 0.45279 0.0
H542 H 0.57869 0.9531 0.50006 0.0
H543 H 0.65072 0.06896 0.50785 0.0
H544 H 0.65065 0.07445 0.4129 0.0
H545 H 0.62825 0.98228 0.39422 0.0
C546 C 0.62227 0.96865 0.60587 0.0
C547 C 0.62244 0.98355 0.65184 0.0
C548 C 0.63047 0.01393 0.64961 0.0
C549 C 0.63781 0.02922 0.60209 0.0
C550 C 0.63677 0.0137 0.55727 0.0
C551 C 0.62915 0.98408 0.55869 0.0
C552 C 0.62697 0.97182 0.50451 0.0
C553 C 0.65035 0.96228 0.4962 0.0
C554 C 0.59542 0.94601 0.49361 0.0
C555 C 0.63396 -0.00097 0.47234 0.0
C556 C 0.64 0.02304 0.5036 0.0
C557 C 0.64624 0.05039 0.48296 0.0
C558 C 0.64609 0.05324 0.42891 0.0
C559 C 0.63938 0.02876 0.39605 0.0
C560 C 0.63348 0.0014 0.41824 0.0
H561 H 0.65501 0.64654 0.69313 0.0
H562 H 0.64381 0.57027 0.60509 0.0
H563 H 0.64655 0.54642 0.68641 0.0
H564 H 0.705 0.64486 0.79466 0.0
H565 H 0.68769 0.65535 0.84466 0.0
H566 H 0.68942 0.66816 0.77895 0.0
H567 H 0.63227 0.6456 0.77953 0.0
H568 H 0.63026 0.63229 0.84479 0.0
H569 H 0.60872 0.60661 0.79416 0.0
H570 H 0.64482 0.52861 0.77773 0.0
H571 H 0.6409 0.51894 0.87204 0.0
H572 H 0.65201 0.60651 0.90015 0.0
C573 C 0.65401 0.62521 0.69063 0.0
C574 C 0.64936 0.61033 0.64265 0.0
C575 C 0.64757 0.58217 0.64134 0.0
C576 C 0.64907 0.56843 0.68734 0.0
C577 C 0.65247 0.58322 0.73417 0.0
C578 C 0.65523 0.61113 0.73609 0.0
C579 C 0.65631 0.62127 0.79154 0.0
C580 C 0.6864 0.64906 0.80313 0.0
C581 C 0.63034 0.62675 0.80315 0.0
C582 C 0.6529 0.59436 0.82059 0.0
C583 C 0.65103 0.57279 0.78683 0.0
C584 C 0.64663 0.54548 0.80455 0.0
C585 C 0.64429 0.54016 0.8582 0.0
C586 C 0.64614 0.56197 0.89349 0.0
C587 C 0.65056 0.58942 0.87422 0.0
H588 H 0.98108 0.63293 0.27973 0.0
H589 H 0.05204 0.725 0.28412 0.0
H590 H 0.04545 0.7299 0.19034 0.0
H591 H 0.00233 0.61546 0.1658 0.0
H592 H 0.96549 0.59092 0.14153 0.0
H593 H 0.9717 0.59601 0.21031 0.0
H594 H 0.93202 0.61223 0.21818 0.0
H595 H 0.92526 0.60668 0.14938 0.0
H596 H 0.93498 0.6421 0.17795 0.0
H597 H 0.03515 0.72286 0.09431 0.0
H598 H 0.02108 0.70466 0.00428 0.0
H599 H 0.95839 0.61681 0.06377 0.0
C600 C 0.99455 0.65443 0.26142 0.0
C601 C 0.01691 0.67864 0.28921 0.0
C602 C 0.03464 0.7062 0.26352 0.0
C603 C 0.03105 0.7092 0.21031 0.0
C604 C 0.00961 0.68447 0.18353 0.0
C605 C 0.99147 0.65769 0.20836 0.0
C606 C 0.97222 0.63366 0.17015 0.0
C607 C 0.97832 0.60749 0.17208 0.0
C608 C 0.93916 0.62305 0.17947 0.0
C609 C 0.98305 0.65084 0.11984 0.0
C610 C 0.00427 0.68021 0.12826 0.0
C611 C 0.01829 0.69999 0.08726 0.0
C612 C 0.01027 0.68944 0.03632 0.0
C613 C 0.98876 0.65932 0.02707 0.0
C614 C 0.97499 0.63995 0.06952 0.0
H615 H 0.35046 0.02489 0.34828 0.0
H616 H 0.26092 0.94936 0.35101 0.0
H617 H 0.25491 0.96121 0.44148 0.0
H618 H 0.37006 0.01169 0.46366 0.0
H619 H 0.39303 0.04978 0.48391 0.0
H620 H 0.38764 0.04102 0.41605 0.0
H621 H 0.36806 0.0778 0.40281 0.0
H622 H 0.37378 0.08706 0.47085 0.0
H623 H 0.33776 0.07428 0.44228 0.0
H624 H 0.26195 0.97533 0.5354 0.0
H625 H 0.28185 0.98972 0.62437 0.0
H626 H 0.36748 0.05442 0.56046 0.0
C627 C 0.32912 0.01165 0.3671 0.0
C628 C 0.30607 0.98641 0.3426 0.0
C629 C 0.2788 0.96897 0.36907 0.0
C630 C 0.27515 0.97561 0.42038 0.0
C631 C 0.29894 -0.00021 0.44448 0.0
C632 C 0.32535 0.01771 0.41848 0.0
C633 C 0.3491 0.03925 0.45499 0.0
C634 C 0.37654 0.03515 0.45462 0.0
C635 C 0.35767 0.07151 0.44196 0.0
C636 C 0.33253 0.02944 0.50601 0.0
C637 C 0.30337 0.0073 0.49912 0.0
C638 C 0.28455 0.99309 0.5412 0.0
C639 C 0.29605 0.00133 0.59156 0.0
C640 C 0.3262 0.02308 0.59913 0.0
C641 C 0.34431 0.03774 0.55577 0.0
H642 H 0.42659 0.4612 0.11648 0.0
H643 H 0.42462 0.45694 0.28496 0.0
H644 H 0.47905 0.47777 0.28589 0.0
H645 H 0.48085 0.43926 0.0985 0.0
H646 H 0.49857 0.46383 0.04413 0.0
H647 H 0.45968 0.4497 0.05678 0.0
H648 H 0.46857 0.50352 0.06047 0.0
H649 H 0.50741 0.51781 0.04715 0.0
H650 H 0.49624 0.53003 0.10399 0.0
H651 H 0.53377 0.49854 0.26788 0.0
H652 H 0.58463 0.51952 0.23268 0.0
H653 H 0.54992 0.50867 0.07606 0.0
C654 C 0.43757 0.46492 0.15367 0.0
C655 C 0.42134 0.45754 0.20068 0.0
C656 C 0.43661 0.46253 0.24845 0.0
C657 C 0.46749 0.47425 0.24936 0.0
C658 C 0.4827 0.48074 0.20219 0.0
C659 C 0.46825 0.47639 0.15528 0.0
C660 C 0.48958 0.48486 0.11 0.0
C661 C 0.48169 0.45779 0.07533 0.0
C662 C 0.49051 0.51059 0.07857 0.0
C663 C 0.51837 0.49473 0.13872 0.0
C664 C 0.51398 0.49219 0.19185 0.0
C665 C 0.53746 0.50056 0.22634 0.0
C666 C 0.56625 0.51236 0.20595 0.0
C667 C 0.57126 0.51559 0.1516 0.0
C668 C 0.54684 0.50622 0.11774 0.0
H669 H 0.06424 0.57832 0.49455 0.0
H670 H 0.99528 0.58807 0.41731 0.0
H671 H 0.96272 0.53363 0.41783 0.0
H672 H 0.05339 0.51565 0.42446 0.0
H673 H 0.06026 0.49768 0.47837 0.0
H674 H 0.07713 0.53757 0.47694 0.0
H675 H 0.05386 0.5363 0.56671 0.0
H676 H 0.03683 0.49632 0.56834 0.0
H677 H 0.01427 0.51355 0.57562 0.0
H678 H 0.93868 0.47849 0.42187 0.0
H679 H 0.92568 0.42584 0.42499 0.0
H680 H 0.01041 0.4514 0.49796 0.0
C681 C 0.04214 0.56901 0.47842 0.0
C682 C 0.03228 0.58746 0.45605 0.0
C683 C 0.00335 0.5744 0.43464 0.0
C684 C 0.9846 0.54349 0.435 0.0
C685 C 0.99506 0.52592 0.45692 0.0
C686 C 0.02315 0.53812 0.47815 0.0
C687 C 0.02962 0.51406 0.49599 0.0
C688 C 0.0567 0.51638 0.4672 0.0
C689 C 0.03389 0.51513 0.55518 0.0
C690 C 0.00111 0.48651 0.48004 0.0
C691 C 0.9813 0.49388 0.45843 0.0
C692 C 0.95389 0.47238 0.4391 0.0
C693 C 0.94671 0.44252 0.44105 0.0
C694 C 0.96702 0.43448 0.46169 0.0
C695 C 0.99436 0.45681 0.48216 0.0
H696 H 0.53306 0.96536 0.85763 0.0
H697 H 0.50318 0.90586 0.72507 0.0
H698 H 0.46774 0.92274 0.70277 0.0
H699 H 0.45995 0.95766 0.89029 0.0
H700 H 0.47651 0.99631 0.90806 0.0
H701 H 0.49694 0.97694 0.91689 0.0
H702 H 0.54012 0.01718 0.86168 0.0
H703 H 0.51971 0.03644 0.85202 0.0
H704 H 0.53278 0.0249 0.79677 0.0
H705 H 0.43984 0.95013 0.6892 0.0
H706 H 0.41858 0.98338 0.68903 0.0
H707 H 0.46625 0.02465 0.83102 0.0
C708 C 0.51857 0.9553 0.82464 0.0
C709 C 0.52087 0.93421 0.79317 0.0
C710 C 0.50174 0.92192 0.74993 0.0
C711 C 0.48157 0.93142 0.73688 0.0
C712 C 0.48062 0.953 0.7677 0.0
C713 C 0.49831 0.96449 0.81111 0.0
C714 C 0.49413 0.98859 0.83612 0.0
C715 C 0.4811 0.97931 0.8911 0.0
C716 C 0.52343 0.01854 0.83665 0.0
C717 C 0.47187 0.98938 0.79923 0.0
C718 C 0.46431 0.96861 0.76013 0.0
C719 C 0.44527 0.96618 0.72002 0.0
C720 C 0.43346 0.9853 0.72011 0.0
C721 C 0.44069 0.00657 0.76009 0.0
C722 C 0.4601 0.00847 0.80017 0.0
H723 H 0.54544 0.54939 0.46462 0.0
H724 H 0.53651 0.58477 0.61206 0.0
H725 H 0.50136 0.5339 0.64214 0.0
H726 H 0.46711 0.48794 0.45704 0.0
H727 H 0.47763 0.46286 0.42829 0.0
H728 H 0.49971 0.5023 0.41641 0.0
H729 H 0.54626 0.50143 0.44988 0.0
H730 H 0.52431 0.46212 0.46271 0.0
H731 H 0.54582 0.48722 0.51404 0.0
H732 H 0.47222 0.47936 0.6602 0.0
H733 H 0.44607 0.42453 0.66165 0.0
H734 H 0.47244 0.42416 0.50166 0.0
C735 C 0.53555 0.54653 0.50276 0.0
C736 C 0.54377 0.57112 0.53597 0.0
C737 C 0.5305 0.56635 0.58579 0.0
C738 C 0.51057 0.5375 0.60333 0.0
C739 C 0.50383 0.5137 0.57038 0.0
C740 C 0.51544 0.51788 0.52077 0.0
C741 C 0.50537 0.48837 0.49391 0.0
C742 C 0.48632 0.48518 0.44609 0.0
C743 C 0.53204 0.48458 0.4793 0.0
C744 C 0.48691 0.46696 0.53671 0.0
C745 C 0.48638 0.48208 0.58047 0.0
C746 C 0.47209 0.46725 0.62594 0.0
C747 C 0.4575 0.43609 0.62648 0.0
C748 C 0.45716 0.42004 0.58173 0.0
C749 C 0.47214 0.43579 0.53634 0.0
H750 H 0.98328 0.54263 0.89975 0.0
H751 H 0.96018 0.54299 0.73788 0.0
H752 H 0.98541 0.51478 0.715 0.0
H753 H 0.05563 0.55317 0.87697 0.0
H754 H 0.0536 0.52914 0.92942 0.0
H755 H 0.03299 0.54855 0.93321 0.0
H756 H 0.98417 0.49852 0.94752 0.0
H757 H 0.00468 0.47899 0.9443 0.0
H758 H 0.97368 0.4688 0.90144 0.0
H759 H 0.01354 0.48658 0.71012 0.0
H760 H 0.0409 0.45946 0.72418 0.0
H761 H 0.04633 0.47922 0.8889 0.0
C762 C 0.98327 0.5366 0.85951 0.0
C763 C 0.96968 0.54495 0.82062 0.0
C764 C 0.9704 0.53677 0.76838 0.0
C765 C 0.98473 0.52082 0.75498 0.0
C766 C -0.00172 0.51333 0.79425 0.0
C767 C -0.00244 0.52087 0.84546 0.0
C768 C 0.01397 0.51042 0.88033 0.0
C769 C 0.04063 0.5369 0.90651 0.0
C770 C 0.99286 0.48784 0.92077 0.0
C771 C 0.02401 0.49576 0.84077 0.0
C772 C 0.01477 0.49762 0.79132 0.0
C773 C 0.02096 0.48506 0.74867 0.0
C774 C 0.03658 0.46978 0.75702 0.0
C775 C 0.0459 0.46733 0.80758 0.0
C776 C 0.03978 0.48088 0.84969 0.0
H777 H 0.52912 0.99645 0.27072 0.0
H778 H 0.56868 0.08006 0.18586 0.0
H779 H 0.5185 0.07129 0.16462 0.0
H780 H 0.46833 0.95502 0.18545 0.0
H781 H 0.4424 0.93477 0.23688 0.0
H782 H 0.48139 0.94788 0.24563 0.0
H783 H 0.48144 0.976 0.32883 0.0
H784 H 0.44243 0.96289 0.32044 0.0
H785 H 0.46828 0.00223 0.32556 0.0
H786 H 0.46373 0.05225 0.15036 0.0
H787 H 0.40882 0.02577 0.148 0.0
H788 H 0.40595 0.95557 0.24446 0.0
C789 C 0.52729 0.01297 0.2477 0.0
C790 C 0.55277 0.03888 0.22976 0.0
C791 C 0.54941 0.06005 0.20006 0.0
C792 C 0.52104 0.05524 0.18772 0.0
C793 C 0.49636 0.02931 0.20577 0.0
C794 C 0.49925 0.00866 0.23547 0.0
C795 C 0.46932 0.98274 0.25056 0.0
C796 C 0.46512 0.95337 0.22828 0.0
C797 C 0.46513 0.98087 0.30986 0.0
C798 C 0.44907 0.99188 0.22435 0.0
C799 C 0.46502 0.01872 0.19854 0.0
C800 C 0.451 0.0313 0.17068 0.0
C801 C 0.41984 0.01606 0.16945 0.0
C802 C 0.40313 0.98868 0.19619 0.0
C803 C 0.41807 0.97655 0.22389 0.0
loop_
_geom_bond_atom_site_label_1
_geom_bond_atom_site_label_2
_geom_bond_distance
_geom_bond_site_symmetry_2
_ccdc_geom_bond_type
C0 O1 1.160 . S
C0 O7 1.185 . S
O1 C0 1.160 . S
O2 Zn3 1.899 . S
O2 C10 1.284 . S
Zn3 O2 1.899 . S
Zn3 O4 2.032 . S
Zn3 O7 2.086 . S
Zn3 O12 1.977 . S
O4 Zn3 2.032 . S
O4 C8 1.278 1_554 S
C5 O6 1.203 . S
C5 O12 1.267 . S
O6 C5 1.203 . S
O7 C0 1.185 . S
O7 Zn3 2.086 . S
C8 O4 1.278 1_556 S
C8 O9 1.211 . S
O9 C8 1.211 . S
C10 O2 1.284 . S
C10 O11 1.273 . S
O11 C10 1.273 . S
O12 Zn3 1.977 . S
O12 C5 1.267 . S
C13 O14 1.160 . S
C13 O20 1.185 . S
O14 C13 1.160 . S
O15 Zn16 1.899 . S
O15 C23 1.284 . S
Zn16 O15 1.899 . S
Zn16 O17 2.032 . S
Zn16 O20 2.086 . S
Zn16 O25 1.977 . S
O17 Zn16 2.032 . S
O17 C21 1.278 . S
C18 O19 1.203 . S
C18 O25 1.267 . S
O19 C18 1.203 . S
O20 C13 1.185 . S
O20 Zn16 2.086 . S
C21 O17 1.278 . S
C21 O22 1.211 1_655 S
O22 C21 1.211 1_455 S
C23 O15 1.284 . S
C23 O24 1.273 1_655 S
O24 C23 1.273 1_455 S
O25 Zn16 1.977 . S
O25 C18 1.267 . S
C26 O27 1.160 . S
C26 O33 1.185 . S
O27 C26 1.160 . S
O28 Zn29 1.899 . S
O28 C36 1.284 . S
Zn29 O28 1.899 . S
Zn29 O30 2.032 . S
Zn29 O33 2.086 . S
Zn29 O38 1.977 . S
O30 Zn29 2.032 . S
O30 C34 1.278 . S
C31 O32 1.203 . S
C31 O38 1.267 . S
O32 C31 1.203 . S
O33 C26 1.185 . S
O33 Zn29 2.086 . S
C34 O30 1.278 . S
C34 O35 1.211 1_565 S
O35 C34 1.211 1_545 S
C36 O28 1.284 . S
C36 O37 1.273 1_565 S
O37 C36 1.273 1_545 S
O38 Zn29 1.977 . S
O38 C31 1.267 . S
C39 O40 1.160 . S
C39 O46 1.185 . S
O40 C39 1.160 . S
O41 Zn42 1.899 . S
O41 C49 1.284 . S
Zn42 O41 1.899 . S
Zn42 O43 2.032 . S
Zn42 O46 2.086 . S
Zn42 O51 1.977 . S
O43 Zn42 2.032 . S
O43 C47 1.278 1_554 S
C44 O45 1.203 . S
C44 O51 1.267 . S
O45 C44 1.203 . S
O46 C39 1.185 . S
O46 Zn42 2.086 . S
C47 O43 1.278 1_556 S
C47 O48 1.211 . S
O48 C47 1.211 . S
C49 O41 1.284 . S
C49 O50 1.273 . S
O50 C49 1.273 . S
O51 Zn42 1.977 . S
O51 C44 1.267 . S
C52 O53 1.160 . S
C52 O59 1.185 . S
O53 C52 1.160 . S
O54 Zn55 1.899 . S
O54 C62 1.284 . S
Zn55 O54 1.899 . S
Zn55 O56 2.032 . S
Zn55 O59 2.086 . S
Zn55 O64 1.977 . S
O56 Zn55 2.032 . S
O56 C60 1.278 . S
C57 O58 1.203 . S
C57 O64 1.267 . S
O58 C57 1.203 . S
O59 C52 1.185 . S
O59 Zn55 2.086 . S
C60 O56 1.278 . S
C60 O61 1.211 1_455 S
O61 C60 1.211 1_655 S
C62 O54 1.284 . S
C62 O63 1.273 1_455 S
O63 C62 1.273 1_655 S
O64 Zn55 1.977 . S
O64 C57 1.267 . S
C65 O66 1.160 . S
C65 O72 1.185 . S
O66 C65 1.160 . S
O67 Zn68 1.899 . S
O67 C75 1.284 . S
Zn68 O67 1.899 . S
Zn68 O69 2.032 . S
Zn68 O72 2.086 . S
Zn68 O77 1.977 . S
O69 Zn68 2.032 . S
O69 C73 1.278 . S
C70 O71 1.203 . S
C70 O77 1.267 . S
O71 C70 1.203 . S
O72 C65 1.185 . S
O72 Zn68 2.086 . S
C73 O69 1.278 . S
C73 O74 1.211 1_545 S
O74 C73 1.211 1_565 S
C75 O67 1.284 . S
C75 O76 1.273 1_545 S
O76 C75 1.273 1_565 S
O77 Zn68 1.977 . S
O77 C70 1.267 . S
C78 O79 1.160 . S
C78 O85 1.185 . S
O79 C78 1.160 . S
O80 Zn81 1.899 . S
O80 C88 1.284 . S
Zn81 O80 1.899 . S
Zn81 O82 2.032 . S
Zn81 O85 2.086 . S
Zn81 O90 1.977 . S
O82 Zn81 2.032 . S
O82 C86 1.278 . S
C83 O84 1.203 . S
C83 O90 1.267 . S
O84 C83 1.203 . S
O85 C78 1.185 . S
O85 Zn81 2.086 . S
C86 O82 1.278 . S
C86 O87 1.211 . S
O87 C86 1.211 . S
C88 O80 1.284 . S
C88 O89 1.273 . S
O89 C88 1.273 . S
O90 Zn81 1.977 . S
O90 C83 1.267 . S
C91 O92 1.160 . S
C91 O98 1.185 . S
O92 C91 1.160 . S
O93 Zn94 1.899 . S
O93 C101 1.284 . S
Zn94 O93 1.899 . S
Zn94 O95 2.032 . S
Zn94 O98 2.086 . S
Zn94 O103 1.977 . S
O95 Zn94 2.032 . S
O95 C99 1.278 1_556 S
C96 O97 1.203 . S
C96 O103 1.267 . S
O97 C96 1.203 . S
O98 C91 1.185 . S
O98 Zn94 2.086 . S
C99 O95 1.278 1_554 S
C99 O100 1.211 1_655 S
O100 C99 1.211 1_455 S
C101 O93 1.284 . S
C101 O102 1.273 1_655 S
O102 C101 1.273 1_455 S
O103 Zn94 1.977 . S
O103 C96 1.267 . S
C104 O105 1.160 . S
C104 O111 1.185 . S
O105 C104 1.160 . S
O106 Zn107 1.899 . S
O106 C114 1.284 . S
Zn107 O106 1.899 . S
Zn107 O108 2.032 . S
Zn107 O111 2.086 . S
Zn107 O116 1.977 . S
O108 Zn107 2.032 . S
O108 C112 1.278 . S
C109 O110 1.203 . S
C109 O116 1.267 . S
O110 C109 1.203 . S
O111 C104 1.185 . S
O111 Zn107 2.086 . S
C112 O108 1.278 . S
C112 O113 1.211 1_565 S
O113 C112 1.211 1_545 S
C114 O106 1.284 . S
C114 O115 1.273 1_565 S
O115 C114 1.273 1_545 S
O116 Zn107 1.977 . S
O116 C109 1.267 . S
C117 O118 1.160 . S
C117 O124 1.185 . S
O118 C117 1.160 . S
O119 Zn120 1.899 . S
O119 C127 1.284 . S
Zn120 O119 1.899 . S
Zn120 O121 2.032 . S
Zn120 O124 2.086 . S
Zn120 O129 1.977 . S
O121 Zn120 2.032 . S
O121 C125 1.278 . S
C122 O123 1.203 . S
C122 O129 1.267 . S
O123 C122 1.203 . S
O124 C117 1.185 . S
O124 Zn120 2.086 . S
C125 O121 1.278 . S
C125 O126 1.211 . S
O126 C125 1.211 . S
C127 O119 1.284 . S
C127 O128 1.273 . S
O128 C127 1.273 . S
O129 Zn120 1.977 . S
O129 C122 1.267 . S
C130 O131 1.160 . S
C130 O137 1.185 . S
O131 C130 1.160 . S
O132 Zn133 1.899 . S
O132 C140 1.284 . S
Zn133 O132 1.899 . S
Zn133 O134 2.032 . S
Zn133 O137 2.086 . S
Zn133 O142 1.977 . S
O134 Zn133 2.032 . S
O134 C138 1.278 1_556 S
C135 O136 1.203 . S
C135 O142 1.267 . S
O136 C135 1.203 . S
O137 C130 1.185 . S
O137 Zn133 2.086 . S
C138 O134 1.278 1_554 S
C138 O139 1.211 1_455 S
O139 C138 1.211 1_655 S
C140 O132 1.284 . S
C140 O141 1.273 1_455 S
O141 C140 1.273 1_655 S
O142 Zn133 1.977 . S
O142 C135 1.267 . S
C143 O144 1.160 . S
C143 O150 1.185 . S
O144 C143 1.160 . S
O145 Zn146 1.899 . S
O145 C153 1.284 . S
Zn146 O145 1.899 . S
Zn146 O147 2.032 . S
Zn146 O150 2.086 . S
Zn146 O155 1.977 . S
O147 Zn146 2.032 . S
O147 C151 1.278 . S
C148 O149 1.203 . S
C148 O155 1.267 . S
O149 C148 1.203 . S
O150 C143 1.185 . S
O150 Zn146 2.086 . S
C151 O147 1.278 . S
C151 O152 1.211 1_545 S
O152 C151 1.211 1_565 S
C153 O145 1.284 . S
C153 O154 1.273 1_545 S
O154 C153 1.273 1_565 S
O155 Zn146 1.977 . S
O155 C148 1.267 . S
H156 C168 0.930 . S
H157 C170 0.930 . S
H158 C171 0.930 . S
H159 C175 0.959 . S
H160 C175 0.959 . S
H161 C175 0.961 . S
H162 C176 0.960 . S
H163 C176 0.961 . S
H164 C176 0.959 . S
H165 C179 0.929 . S
H166 C180 0.931 . S
H167 C182 0.930 . S
C168 H156 0.930 . S
C168 C169 1.399 . S
C168 C173 1.399 . S
C169 C168 1.399 . S
C169 C170 1.376 . S
C170 H157 0.930 . S
C170 C169 1.376 . S
C170 C171 1.388 . S
C171 H158 0.930 . S
C171 C170 1.388 . S
C171 C172 1.390 . S
C172 C171 1.390 . S
C172 C173 1.394 . S
C172 C178 1.465 . S
C173 C168 1.399 . S
C173 C172 1.394 . S
C173 C174 1.516 . S
C174 C173 1.516 . S
C174 C175 1.502 . S
C174 C176 1.561 . S
C174 C177 1.526 . S
C175 H159 0.959 . S
C175 H160 0.959 . S
C175 H161 0.961 . S
C175 C174 1.502 . S
C176 H162 0.960 . S
C176 H163 0.961 . S
C176 H164 0.959 . S
C176 C174 1.561 . S
C177 C174 1.526 . S
C177 C178 1.396 . S
C177 C182 1.390 . S
C178 C172 1.465 . S
C178 C177 1.396 . S
C178 C179 1.399 . S
C179 H165 0.929 . S
C179 C178 1.399 . S
C179 C180 1.385 . S
C180 H166 0.931 . S
C180 C179 1.385 . S
C180 C181 1.389 . S
C181 C180 1.389 . S
C181 C182 1.387 . S
C182 H167 0.930 . S
C182 C177 1.390 . S
C182 C181 1.387 . S
H183 C195 0.930 . S
H184 C197 0.930 . S
H185 C198 0.930 . S
H186 C202 0.959 . S
H187 C202 0.959 . S
H188 C202 0.961 . S
H189 C203 0.960 . S
H190 C203 0.961 . S
H191 C203 0.959 . S
H192 C206 0.929 . S
H193 C207 0.931 . S
H194 C209 0.930 . S
C195 H183 0.930 . S
C195 C196 1.399 . S
C195 C200 1.399 . S
C196 C195 1.399 . S
C196 C197 1.376 1_655 S
C197 H184 0.930 . S
C197 C196 1.376 1_455 S
C197 C198 1.388 . S
C198 H185 0.930 . S
C198 C197 1.388 . S
C198 C199 1.390 . S
C199 C198 1.390 . S
C199 C200 1.394 1_455 S
C199 C205 1.465 . S
C200 C195 1.399 . S
C200 C199 1.394 1_655 S
C200 C201 1.516 . S
C201 C200 1.516 . S
C201 C202 1.502 . S
C201 C203 1.561 . S
C201 C204 1.526 . S
C202 H186 0.959 . S
C202 H187 0.959 . S
C202 H188 0.961 . S
C202 C201 1.502 . S
C203 H189 0.960 . S
C203 H190 0.961 . S
C203 H191 0.959 . S
C203 C201 1.561 . S
C204 C201 1.526 . S
C204 C205 1.396 1_655 S
C204 C209 1.390 . S
C205 C199 1.465 . S
C205 C204 1.396 1_455 S
C205 C206 1.399 . S
C206 H192 0.929 . S
C206 C205 1.399 . S
C206 C207 1.385 . S
C207 H193 0.931 . S
C207 C206 1.385 . S
C207 C208 1.389 . S
C208 C207 1.389 . S
C208 C209 1.387 1_455 S
C209 H194 0.930 . S
C209 C204 1.390 . S
C209 C208 1.387 1_655 S
H210 C222 0.930 . S
H211 C224 0.930 . S
H212 C225 0.930 . S
H213 C229 0.959 . S
H214 C229 0.959 1_554 S
H215 C229 0.961 . S
H216 C230 0.960 . S
H217 C230 0.961 1_554 S
H218 C230 0.959 . S
H219 C233 0.929 . S
H220 C234 0.931 . S
H221 C236 0.930 . S
C222 H210 0.930 . S
C222 C223 1.399 1_545 S
C222 C227 1.399 . S
C223 C222 1.399 1_565 S
C223 C224 1.376 . S
C224 H211 0.930 . S
C224 C223 1.376 . S
C224 C225 1.388 . S
C225 H212 0.930 . S
C225 C224 1.388 . S
C225 C226 1.390 . S
C226 C225 1.390 . S
C226 C227 1.394 1_565 S
C226 C232 1.465 1_556 S
C227 C222 1.399 . S
C227 C226 1.394 1_545 S
C227 C228 1.516 . S
C228 C227 1.516 . S
C228 C229 1.502 . S
C228 C230 1.561 . S
C228 C231 1.526 1_556 S
C229 H213 0.959 . S
C229 H214 0.959 1_556 S
C229 H215 0.961 . S
C229 C228 1.502 . S
C230 H216 0.960 . S
C230 H217 0.961 1_556 S
C230 H218 0.959 . S
C230 C228 1.561 . S
C231 C228 1.526 1_554 S
C231 C232 1.396 1_545 S
C231 C236 1.390 . S
C232 C226 1.465 1_554 S
C232 C231 1.396 1_565 S
C232 C233 1.399 . S
C233 H219 0.929 . S
C233 C232 1.399 . S
C233 C234 1.385 . S
C234 H220 0.931 . S
C234 C233 1.385 . S
C234 C235 1.389 1_565 S
C235 C234 1.389 1_545 S
C235 C236 1.387 . S
C236 H221 0.930 . S
C236 C231 1.390 . S
C236 C235 1.387 . S
H237 C249 0.930 . S
H238 C251 0.930 . S
H239 C252 0.930 . S
H240 C256 0.959 . S
H241 C256 0.959 . S
H242 C256 0.961 . S
H243 C257 0.960 . S
H244 C257 0.961 . S
H245 C257 0.959 . S
H246 C260 0.929 . S
H247 C261 0.931 . S
H248 C263 0.930 . S
C249 H237 0.930 . S
C249 C250 1.399 . S
C249 C254 1.399 . S
C250 C249 1.399 . S
C250 C251 1.376 . S
C251 H238 0.930 . S
C251 C250 1.376 . S
C251 C252 1.388 . S
C252 H239 0.930 . S
C252 C251 1.388 . S
C252 C253 1.390 . S
C253 C252 1.390 . S
C253 C254 1.394 . S
C253 C259 1.465 . S
C254 C249 1.399 . S
C254 C253 1.394 . S
C254 C255 1.516 . S
C255 C254 1.516 . S
C255 C256 1.502 . S
C255 C257 1.561 . S
C255 C258 1.526 . S
C256 H240 0.959 . S
C256 H241 0.959 . S
C256 H242 0.961 . S
C256 C255 1.502 . S
C257 H243 0.960 . S
C257 H244 0.961 . S
C257 H245 0.959 . S
C257 C255 1.561 . S
C258 C255 1.526 . S
C258 C259 1.396 . S
C258 C263 1.390 . S
C259 C253 1.465 . S
C259 C258 1.396 . S
C259 C260 1.399 . S
C260 H246 0.929 . S
C260 C259 1.399 . S
C260 C261 1.385 . S
C261 H247 0.931 . S
C261 C260 1.385 . S
C261 C262 1.389 . S
C262 C261 1.389 . S
C262 C263 1.387 . S
C263 H248 0.930 . S
C263 C258 1.390 . S
C263 C262 1.387 . S
H264 C276 0.930 . S
H265 C278 0.930 . S
H266 C279 0.930 1_455 S
H267 C283 0.959 . S
H268 C283 0.959 . S
H269 C283 0.961 . S
H270 C284 0.960 . S
H271 C284 0.961 . S
H272 C284 0.959 . S
H273 C287 0.929 . S
H274 C288 0.931 . S
H275 C290 0.930 . S
C276 H264 0.930 . S
C276 C277 1.399 . S
C276 C281 1.399 . S
C277 C276 1.399 . S
C277 C278 1.376 . S
C278 H265 0.930 . S
C278 C277 1.376 . S
C278 C279 1.388 . S
C279 H266 0.930 1_655 S
C279 C278 1.388 . S
C279 C280 1.390 . S
C280 C279 1.390 . S
C280 C281 1.394 . S
C280 C286 1.465 1_655 S
C281 C276 1.399 . S
C281 C280 1.394 . S
C281 C282 1.516 . S
C282 C281 1.516 . S
C282 C283 1.502 1_655 S
C282 C284 1.561 . S
C282 C285 1.526 . S
C283 H267 0.959 . S
C283 H268 0.959 . S
C283 H269 0.961 . S
C283 C282 1.502 1_455 S
C284 H270 0.960 . S
C284 H271 0.961 . S
C284 H272 0.959 . S
C284 C282 1.561 . S
C285 C282 1.526 . S
C285 C286 1.396 1_655 S
C285 C290 1.390 1_655 S
C286 C280 1.465 1_455 S
C286 C285 1.396 1_455 S
C286 C287 1.399 . S
C287 H273 0.929 . S
C287 C286 1.399 . S
C287 C288 1.385 . S
C288 H274 0.931 . S
C288 C287 1.385 . S
C288 C289 1.389 . S
C289 C288 1.389 . S
C289 C290 1.387 . S
C290 H275 0.930 . S
C290 C285 1.390 1_455 S
C290 C289 1.387 . S
H291 C303 0.930 . S
H292 C305 0.930 . S
H293 C306 0.930 . S
H294 C310 0.959 . S
H295 C310 0.959 . S
H296 C310 0.961 1_554 S
H297 C311 0.960 1_554 S
H298 C311 0.961 . S
H299 C311 0.959 . S
H300 C314 0.929 . S
H301 C315 0.931 . S
H302 C317 0.930 . S
C303 H291 0.930 . S
C303 C304 1.399 . S
C303 C308 1.399 . S
C304 C303 1.399 . S
C304 C305 1.376 1_565 S
C305 H292 0.930 . S
C305 C304 1.376 1_545 S
C305 C306 1.388 . S
C306 H293 0.930 . S
C306 C305 1.388 . S
C306 C307 1.390 . S
C307 C306 1.390 . S
C307 C308 1.394 1_545 S
C307 C313 1.465 1_554 S
C308 C303 1.399 . S
C308 C307 1.394 1_565 S
C308 C309 1.516 1_554 S
C309 C308 1.516 1_556 S
C309 C310 1.502 . S
C309 C311 1.561 . S
C309 C312 1.526 . S
C310 H294 0.959 . S
C310 H295 0.959 . S
C310 H296 0.961 1_556 S
C310 C309 1.502 . S
C311 H297 0.960 1_556 S
C311 H298 0.961 . S
C311 H299 0.959 . S
C311 C309 1.561 . S
C312 C309 1.526 . S
C312 C313 1.396 1_565 S
C312 C317 1.390 . S
C313 C307 1.465 1_556 S
C313 C312 1.396 1_545 S
C313 C314 1.399 . S
C314 H300 0.929 . S
C314 C313 1.399 . S
C314 C315 1.385 . S
C315 H301 0.931 . S
C315 C314 1.385 . S
C315 C316 1.389 . S
C316 C315 1.389 . S
C316 C317 1.387 1_545 S
C317 H302 0.930 . S
C317 C312 1.390 . S
C317 C316 1.387 1_565 S
H318 C330 0.930 1_554 S
H319 C332 0.930 . S
H320 C333 0.930 . S
H321 C337 0.959 . S
H322 C337 0.959 . S
H323 C337 0.961 . S
H324 C338 0.961 . S
H325 C338 0.955 1_554 S
H326 C338 0.968 . S
H327 C341 0.929 . S
H328 C342 0.931 1_556 S
H329 C344 0.930 . S
C330 H318 0.930 1_556 S
C330 C331 1.399 . S
C330 C335 1.399 . S
C331 C330 1.399 . S
C331 C332 1.376 . S
C332 H319 0.930 . S
C332 C331 1.376 . S
C332 C333 1.388 . S
C333 H320 0.930 . S
C333 C332 1.388 . S
C333 C334 1.390 . S
C334 C333 1.390 . S
C334 C335 1.394 . S
C334 C340 1.465 . S
C335 C330 1.399 . S
C335 C334 1.394 . S
C335 C336 1.516 1_556 S
C336 C335 1.516 1_554 S
C336 C337 1.502 . S
C336 C338 1.556 1_554 S
C336 C339 1.526 . S
C337 H321 0.959 . S
C337 H322 0.959 . S
C337 H323 0.961 . S
C337 C336 1.502 . S
C338 H324 0.961 . S
C338 H325 0.955 1_556 S
C338 H326 0.968 . S
C338 C336 1.556 1_556 S
C339 C336 1.526 . S
C339 C340 1.396 1_554 S
C339 C344 1.390 . S
C340 C334 1.465 . S
C340 C339 1.396 1_556 S
C340 C341 1.399 . S
C341 H327 0.929 . S
C341 C340 1.399 . S
C341 C342 1.385 1_556 S
C342 H328 0.931 1_554 S
C342 C341 1.385 1_554 S
C342 C343 1.389 . S
C343 C342 1.389 . S
C343 C344 1.387 . S
C344 H329 0.930 . S
C344 C339 1.390 . S
C344 C343 1.387 . S
H345 C357 0.930 . S
H346 C359 0.930 . S
H347 C360 0.930 . S
H348 C364 0.959 . S
H349 C364 0.959 . S
H350 C364 0.961 . S
H351 C365 0.960 . S
H352 C365 0.961 . S
H353 C365 0.959 . S
H354 C368 0.929 . S
H355 C369 0.931 . S
H356 C371 0.930 . S
C357 H345 0.930 . S
C357 C358 1.399 . S
C357 C362 1.399 . S
C358 C357 1.399 . S
C358 C359 1.376 . S
C359 H346 0.930 . S
C359 C358 1.376 . S
C359 C360 1.388 . S
C360 H347 0.930 . S
C360 C359 1.388 . S
C360 C361 1.390 . S
C361 C360 1.390 . S
C361 C362 1.394 . S
C361 C367 1.465 . S
C362 C357 1.399 . S
C362 C361 1.394 . S
C362 C363 1.516 . S
C363 C362 1.516 . S
C363 C364 1.502 . S
C363 C365 1.561 . S
C363 C366 1.526 . S
C364 H348 0.959 . S
C364 H349 0.959 . S
C364 H350 0.961 . S
C364 C363 1.502 . S
C365 H351 0.960 . S
C365 H352 0.961 . S
C365 H353 0.959 . S
C365 C363 1.561 . S
C366 C363 1.526 . S
C366 C367 1.396 . S
C366 C371 1.390 . S
C367 C361 1.465 . S
C367 C366 1.396 . S
C367 C368 1.399 . S
C368 H354 0.929 . S
C368 C367 1.399 . S
C368 C369 1.385 . S
C369 H355 0.931 . S
C369 C368 1.385 . S
C369 C370 1.389 . S
C370 C369 1.389 . S
C370 C371 1.387 . S
C371 H356 0.930 . S
C371 C366 1.390 . S
C371 C370 1.387 . S
H372 C384 0.930 . S
H373 C386 0.930 . S
H374 C387 0.930 . S
H375 C391 0.959 . S
H376 C391 0.959 . S
H377 C391 0.961 . S
H378 C392 0.960 . S
H379 C392 0.961 . S
H380 C392 0.959 . S
H381 C395 0.929 . S
H382 C396 0.931 . S
H383 C398 0.930 . S
C384 H372 0.930 . S
C384 C385 1.399 . S
C384 C389 1.399 . S
C385 C384 1.399 . S
C385 C386 1.376 . S
C386 H373 0.930 . S
C386 C385 1.376 . S
C386 C387 1.388 . S
C387 H374 0.930 . S
C387 C386 1.388 . S
C387 C388 1.390 . S
C388 C387 1.390 . S
C388 C389 1.394 . S
C388 C394 1.465 . S
C389 C384 1.399 . S
C389 C388 1.394 . S
C389 C390 1.516 . S
C390 C389 1.516 . S
C390 C391 1.502 . S
C390 C392 1.561 . S
C390 C393 1.526 . S
C391 H375 0.959 . S
C391 H376 0.959 . S
C391 H377 0.961 . S
C391 C390 1.502 . S
C392 H378 0.960 . S
C392 H379 0.961 . S
C392 H380 0.959 . S
C392 C390 1.561 . S
C393 C390 1.526 . S
C393 C394 1.396 . S
C393 C398 1.390 . S
C394 C388 1.465 . S
C394 C393 1.396 . S
C394 C395 1.399 . S
C395 H381 0.929 . S
C395 C394 1.399 . S
C395 C396 1.385 . S
C396 H382 0.931 . S
C396 C395 1.385 . S
C396 C397 1.389 . S
C397 C396 1.389 . S
C397 C398 1.387 . S
C398 H383 0.930 . S
C398 C393 1.390 . S
C398 C397 1.387 . S
H399 C411 0.930 . S
H400 C413 0.930 . S
H401 C414 0.930 . S
H402 C418 0.959 . S
H403 C418 0.959 . S
H404 C418 0.961 . S
H405 C419 0.960 . S
H406 C419 0.960 . S
H407 C419 0.959 . S
H408 C422 0.929 . S
H409 C423 0.931 . S
H410 C425 0.930 . S
C411 H399 0.930 . S
C411 C412 1.399 . S
C411 C416 1.399 . S
C412 C411 1.399 . S
C412 C413 1.376 . S
C413 H400 0.930 . S
C413 C412 1.376 . S
C413 C414 1.388 . S
C414 H401 0.930 . S
C414 C413 1.388 . S
C414 C415 1.390 . S
C415 C414 1.390 . S
C415 C416 1.394 . S
C415 C421 1.465 . S
C416 C411 1.399 . S
C416 C415 1.394 . S
C416 C417 1.516 1_554 S
C417 C416 1.516 1_556 S
C417 C418 1.502 . S
C417 C419 1.561 1_556 S
C417 C420 1.526 . S
C418 H402 0.959 . S
C418 H403 0.959 . S
C418 H404 0.961 . S
C418 C417 1.502 . S
C419 H405 0.960 . S
C419 H406 0.960 . S
C419 H407 0.959 . S
C419 C417 1.561 1_554 S
C420 C417 1.526 . S
C420 C421 1.396 1_556 S
C420 C425 1.390 . S
C421 C415 1.465 . S
C421 C420 1.396 1_554 S
C421 C422 1.399 . S
C422 H408 0.929 . S
C422 C421 1.399 . S
C422 C423 1.385 1_554 S
C423 H409 0.931 . S
C423 C422 1.385 1_556 S
C423 C424 1.389 . S
C424 C423 1.389 . S
C424 C425 1.387 . S
C425 H410 0.930 . S
C425 C420 1.390 . S
C425 C424 1.387 . S
H426 C438 0.930 . S
H427 C440 0.930 . S
H428 C441 0.930 . S
H429 C445 0.959 . S
H430 C445 0.959 . S
H431 C445 0.961 . S
H432 C446 0.960 . S
H433 C446 0.961 . S
H434 C446 0.959 . S
H435 C449 0.929 . S
H436 C450 0.931 . S
H437 C452 0.930 . S
C438 H426 0.930 . S
C438 C439 1.399 . S
C438 C443 1.399 . S
C439 C438 1.399 . S
C439 C440 1.376 . S
C440 H427 0.930 . S
C440 C439 1.376 . S
C440 C441 1.388 . S
C441 H428 0.930 . S
C441 C440 1.388 . S
C441 C442 1.390 . S
C442 C441 1.390 . S
C442 C443 1.394 . S
C442 C448 1.465 . S
C443 C438 1.399 . S
C443 C442 1.394 . S
C443 C444 1.516 . S
C444 C443 1.516 . S
C444 C445 1.502 . S
C444 C446 1.561 . S
C444 C447 1.526 . S
C445 H429 0.959 . S
C445 H430 0.959 . S
C445 H431 0.961 . S
C445 C444 1.502 . S
C446 H432 0.960 . S
C446 H433 0.961 . S
C446 H434 0.959 . S
C446 C444 1.561 . S
C447 C444 1.526 . S
C447 C448 1.396 . S
C447 C452 1.390 . S
C448 C442 1.465 . S
C448 C447 1.396 . S
C448 C449 1.399 . S
C449 H435 0.929 . S
C449 C448 1.399 . S
C449 C450 1.385 . S
C450 H436 0.931 . S
C450 C449 1.385 . S
C450 C451 1.389 . S
C451 C450 1.389 . S
C451 C452 1.387 . S
C452 H437 0.930 . S
C452 C447 1.390 . S
C452 C451 1.387 . S
H453 C465 0.930 . S
H454 C467 0.930 . S
H455 C468 0.930 . S
H456 C472 0.959 . S
H457 C472 0.959 . S
H458 C472 0.961 . S
H459 C473 0.960 . S
H460 C473 0.961 . S
H461 C473 0.959 . S
H462 C476 0.929 . S
H463 C477 0.931 . S
H464 C479 0.930 . S
C465 H453 0.930 . S
C465 C466 1.399 . S
C465 C470 1.399 . S
C466 C465 1.399 . S
C466 C467 1.376 . S
C467 H454 0.930 . S
C467 C466 1.376 . S
C467 C468 1.388 . S
C468 H455 0.930 . S
C468 C467 1.388 . S
C468 C469 1.390 . S
C469 C468 1.390 . S
C469 C470 1.394 . S
C469 C475 1.465 . S
C470 C465 1.399 . S
C470 C469 1.394 . S
C470 C471 1.516 . S
C471 C470 1.516 . S
C471 C472 1.502 . S
C471 C473 1.561 . S
C471 C474 1.526 . S
C472 H456 0.959 . S
C472 H457 0.959 . S
C472 H458 0.961 . S
C472 C471 1.502 . S
C473 H459 0.960 . S
C473 H460 0.961 . S
C473 H461 0.959 . S
C473 C471 1.561 . S
C474 C471 1.526 . S
C474 C475 1.396 . S
C474 C479 1.390 . S
C475 C469 1.465 . S
C475 C474 1.396 . S
C475 C476 1.399 . S
C476 H462 0.929 . S
C476 C475 1.399 . S
C476 C477 1.385 . S
C477 H463 0.931 . S
C477 C476 1.385 . S
C477 C478 1.389 . S
C478 C477 1.389 . S
C478 C479 1.387 . S
C479 H464 0.930 . S
C479 C474 1.390 . S
C479 C478 1.387 . S
H480 C492 0.930 . S
H481 C494 0.930 . S
H482 C495 0.930 . S
H483 C499 0.959 . S
H484 C499 0.959 . S
H485 C499 0.961 . S
H486 C500 0.960 . S
H487 C500 0.961 . S
H488 C500 0.959 . S
H489 C503 0.929 . S
H490 C504 0.931 . S
H491 C506 0.930 . S
C492 H480 0.930 . S
C492 C493 1.399 . S
C492 C497 1.399 . S
C493 C492 1.399 . S
C493 C494 1.376 . S
C494 H481 0.930 . S
C494 C493 1.376 . S
C494 C495 1.388 . S
C495 H482 0.930 . S
C495 C494 1.388 . S
C495 C496 1.390 . S
C496 C495 1.390 . S
C496 C497 1.394 . S
C496 C502 1.465 . S
C497 C492 1.399 . S
C497 C496 1.394 . S
C497 C498 1.516 . S
C498 C497 1.516 . S
C498 C499 1.502 . S
C498 C500 1.561 . S
C498 C501 1.526 . S
C499 H483 0.959 . S
C499 H484 0.959 . S
C499 H485 0.961 . S
C499 C498 1.502 . S
C500 H486 0.960 . S
C500 H487 0.961 . S
C500 H488 0.959 . S
C500 C498 1.561 . S
C501 C498 1.526 . S
C501 C502 1.396 . S
C501 C506 1.390 . S
C502 C496 1.465 . S
C502 C501 1.396 . S
C502 C503 1.399 . S
C503 H489 0.929 . S
C503 C502 1.399 . S
C503 C504 1.385 . S
C504 H490 0.931 . S
C504 C503 1.385 . S
C504 C505 1.389 . S
C505 C504 1.389 . S
C505 C506 1.387 . S
C506 H491 0.930 . S
C506 C501 1.390 . S
C506 C505 1.387 . S
H507 C519 0.930 . S
H508 C521 0.930 . S
H509 C522 0.930 . S
H510 C526 0.959 . S
H511 C526 0.959 . S
H512 C526 0.961 . S
H513 C527 0.960 . S
H514 C527 0.961 . S
H515 C527 0.959 . S
H516 C530 0.929 . S
H517 C531 0.931 . S
H518 C533 0.956 . S
C519 H507 0.930 . S
C519 C520 1.399 . S
C519 C524 1.399 . S
C520 C519 1.399 . S
C520 C521 1.376 1_655 S
C521 H508 0.930 . S
C521 C520 1.376 1_455 S
C521 C522 1.388 . S
C522 H509 0.930 . S
C522 C521 1.388 . S
C522 C523 1.390 . S
C523 C522 1.390 . S
C523 C524 1.394 1_455 S
C523 C529 1.465 . S
C524 C519 1.399 . S
C524 C523 1.394 1_655 S
C524 C525 1.512 . S
C525 C524 1.512 . S
C525 C526 1.514 . S
C525 C527 1.556 1_655 S
C525 C528 1.521 1_655 S
C526 H510 0.959 . S
C526 H511 0.959 . S
C526 H512 0.961 . S
C526 C525 1.514 . S
C527 H513 0.960 . S
C527 H514 0.961 . S
C527 H515 0.959 . S
C527 C525 1.556 1_455 S
C528 C525 1.521 1_455 S
C528 C529 1.396 . S
C528 C533 1.390 . S
C529 C523 1.465 . S
C529 C528 1.396 . S
C529 C530 1.399 . S
C530 H516 0.929 . S
C530 C529 1.399 . S
C530 C531 1.385 . S
C531 H517 0.931 . S
C531 C530 1.385 . S
C531 C532 1.389 . S
C532 C531 1.389 . S
C532 C533 1.387 . S
C533 H518 0.956 . S
C533 C528 1.390 . S
C533 C532 1.387 . S
H534 C546 0.930 . S
H535 C548 0.930 . S
H536 C549 0.930 . S
H537 C553 0.959 . S
H538 C553 0.959 . S
H539 C553 0.961 . S
H540 C554 0.960 . S
H541 C554 0.961 . S
H542 C554 0.959 . S
H543 C557 0.929 . S
H544 C558 0.931 . S
H545 C560 0.930 . S
C546 H534 0.930 . S
C546 C547 1.399 . S
C546 C551 1.399 . S
C547 C546 1.399 . S
C547 C548 1.376 1_565 S
C548 H535 0.930 . S
C548 C547 1.376 1_545 S
C548 C549 1.388 . S
C549 H536 0.930 . S
C549 C548 1.388 . S
C549 C550 1.390 . S
C550 C549 1.390 . S
C550 C551 1.394 1_545 S
C550 C556 1.465 . S
C551 C546 1.399 . S
C551 C550 1.394 1_565 S
C551 C552 1.516 . S
C552 C551 1.516 . S
C552 C553 1.502 . S
C552 C554 1.561 . S
C552 C555 1.526 . S
C553 H537 0.959 . S
C553 H538 0.959 . S
C553 H539 0.961 . S
C553 C552 1.502 . S
C554 H540 0.960 . S
C554 H541 0.961 . S
C554 H542 0.959 . S
C554 C552 1.561 . S
C555 C552 1.526 . S
C555 C556 1.396 1_565 S
C555 C560 1.390 . S
C556 C550 1.465 . S
C556 C555 1.396 1_545 S
C556 C557 1.399 . S
C557 H543 0.929 . S
C557 C556 1.399 . S
C557 C558 1.385 . S
C558 H544 0.931 . S
C558 C557 1.385 . S
C558 C559 1.389 . S
C559 C558 1.389 . S
C559 C560 1.387 1_545 S
C560 H545 0.930 . S
C560 C555 1.390 . S
C560 C559 1.387 1_565 S
H561 C573 0.930 . S
H562 C575 0.930 . S
H563 C576 0.930 . S
H564 C580 0.959 . S
H565 C580 0.959 . S
H566 C580 0.961 . S
H567 C581 0.960 . S
H568 C581 0.961 . S
H569 C581 0.959 . S
H570 C584 0.929 . S
H571 C585 0.931 . S
H572 C587 0.930 . S
C573 H561 0.930 . S
C573 C574 1.399 . S
C573 C578 1.399 . S
C574 C573 1.399 . S
C574 C575 1.376 . S
C575 H562 0.930 . S
C575 C574 1.376 . S
C575 C576 1.388 . S
C576 H563 0.930 . S
C576 C575 1.388 . S
C576 C577 1.390 . S
C577 C576 1.390 . S
C577 C578 1.394 . S
C577 C583 1.465 . S
C578 C573 1.399 . S
C578 C577 1.394 . S
C578 C579 1.516 . S
C579 C578 1.516 . S
C579 C580 1.502 . S
C579 C581 1.561 . S
C579 C582 1.526 . S
C580 H564 0.959 . S
C580 H565 0.959 . S
C580 H566 0.961 . S
C580 C579 1.502 . S
C581 H567 0.960 . S
C581 H568 0.961 . S
C581 H569 0.959 . S
C581 C579 1.561 . S
C582 C579 1.526 . S
C582 C583 1.396 . S
C582 C587 1.390 . S
C583 C577 1.465 . S
C583 C582 1.396 . S
C583 C584 1.399 . S
C584 H570 0.929 . S
C584 C583 1.399 . S
C584 C585 1.385 . S
C585 H571 0.931 . S
C585 C584 1.385 . S
C585 C586 1.389 . S
C586 C585 1.389 . S
C586 C587 1.387 . S
C587 H572 0.930 . S
C587 C582 1.390 . S
C587 C586 1.387 . S
H588 C600 0.930 . S
H589 C602 0.930 . S
H590 C603 0.930 . S
H591 C607 0.959 . S
H592 C607 0.959 . S
H593 C607 0.961 . S
H594 C608 0.960 . S
H595 C608 0.961 . S
H596 C608 0.959 . S
H597 C611 0.929 . S
H598 C612 0.924 . S
H599 C614 0.930 . S
C600 H588 0.930 . S
C600 C601 1.399 1_655 S
C600 C605 1.399 . S
C601 C600 1.399 1_455 S
C601 C602 1.376 . S
C602 H589 0.930 . S
C602 C601 1.376 . S
C602 C603 1.388 . S
C603 H590 0.930 . S
C603 C602 1.388 . S
C603 C604 1.390 . S
C604 C603 1.390 . S
C604 C605 1.394 1_455 S
C604 C610 1.464 1_455 S
C605 C600 1.399 . S
C605 C604 1.394 1_655 S
C605 C606 1.516 . S
C606 C605 1.516 . S
C606 C607 1.502 1_655 S
C606 C608 1.561 . S
C606 C609 1.526 . S
C607 H591 0.959 . S
C607 H592 0.959 . S
C607 H593 0.961 . S
C607 C606 1.502 1_455 S
C608 H594 0.960 . S
C608 H595 0.961 . S
C608 H596 0.959 . S
C608 C606 1.561 . S
C609 C606 1.526 . S
C609 C610 1.386 . S
C609 C614 1.390 . S
C610 C604 1.464 1_655 S
C610 C609 1.386 . S
C610 C611 1.409 1_655 S
C611 H597 0.929 . S
C611 C610 1.409 1_455 S
C611 C612 1.384 . S
C612 H598 0.924 . S
C612 C611 1.384 . S
C612 C613 1.398 1_455 S
C613 C612 1.398 1_655 S
C613 C614 1.387 . S
C614 H599 0.930 . S
C614 C609 1.390 . S
C614 C613 1.387 . S
H615 C627 0.930 . S
H616 C629 0.930 . S
H617 C630 0.930 . S
H618 C634 0.959 . S
H619 C634 0.959 . S
H620 C634 0.961 . S
H621 C635 0.960 . S
H622 C635 0.961 . S
H623 C635 0.959 . S
H624 C638 0.929 . S
H625 C639 0.931 . S
H626 C641 0.930 . S
C627 H615 0.930 . S
C627 C628 1.399 1_545 S
C627 C632 1.399 . S
C628 C627 1.399 1_565 S
C628 C629 1.376 . S
C629 H616 0.930 . S
C629 C628 1.376 . S
C629 C630 1.388 . S
C630 H617 0.930 . S
C630 C629 1.388 . S
C630 C631 1.390 . S
C631 C630 1.390 . S
C631 C632 1.394 1_565 S
C631 C637 1.465 . S
C632 C627 1.399 . S
C632 C631 1.394 1_545 S
C632 C633 1.516 . S
C633 C632 1.516 . S
C633 C634 1.502 . S
C633 C635 1.561 . S
C633 C636 1.526 . S
C634 H618 0.959 . S
C634 H619 0.959 . S
C634 H620 0.961 . S
C634 C633 1.502 . S
C635 H621 0.960 . S
C635 H622 0.961 . S
C635 H623 0.959 . S
C635 C633 1.561 . S
C636 C633 1.526 . S
C636 C637 1.396 1_545 S
C636 C641 1.390 . S
C637 C631 1.465 . S
C637 C636 1.396 1_565 S
C637 C638 1.399 . S
C638 H624 0.929 . S
C638 C637 1.399 . S
C638 C639 1.385 . S
C639 H625 0.931 . S
C639 C638 1.385 . S
C639 C640 1.389 1_565 S
C640 C639 1.389 1_545 S
C640 C641 1.387 . S
C641 H626 0.930 . S
C641 C636 1.390 . S
C641 C640 1.387 . S
H642 C654 0.930 . S
H643 C656 0.930 . S
H644 C657 0.930 . S
H645 C661 0.959 1_554 S
H646 C661 0.959 . S
H647 C661 0.961 . S
H648 C662 0.960 . S
H649 C662 0.961 . S
H650 C662 0.959 . S
H651 C665 0.929 . S
H652 C666 0.931 . S
H653 C668 0.930 . S
C654 H642 0.930 . S
C654 C655 1.399 . S
C654 C659 1.399 . S
C655 C654 1.399 . S
C655 C656 1.376 . S
C656 H643 0.930 . S
C656 C655 1.376 . S
C656 C657 1.388 . S
C657 H644 0.930 . S
C657 C656 1.388 . S
C657 C658 1.390 . S
C658 C657 1.390 . S
C658 C659 1.394 . S
C658 C664 1.465 . S
C659 C654 1.399 . S
C659 C658 1.394 . S
C659 C660 1.516 . S
C660 C659 1.516 . S
C660 C661 1.502 1_554 S
C660 C662 1.561 1_554 S
C660 C663 1.526 . S
C661 H645 0.959 1_556 S
C661 H646 0.959 . S
C661 H647 0.961 . S
C661 C660 1.502 1_556 S
C662 H648 0.960 . S
C662 H649 0.961 . S
C662 H650 0.959 . S
C662 C660 1.561 1_556 S
C663 C660 1.526 . S
C663 C664 1.396 . S
C663 C668 1.390 . S
C664 C658 1.465 . S
C664 C663 1.396 . S
C664 C665 1.399 . S
C665 H651 0.929 . S
C665 C664 1.399 . S
C665 C666 1.385 . S
C666 H652 0.931 . S
C666 C665 1.385 . S
C666 C667 1.389 . S
C667 C666 1.389 . S
C667 C668 1.387 . S
C668 H653 0.930 . S
C668 C663 1.390 . S
C668 C667 1.387 . S
H669 C681 0.930 . S
H670 C683 0.930 . S
H671 C684 0.930 1_655 S
H672 C688 0.959 . S
H673 C688 0.959 . S
H674 C688 0.961 . S
H675 C689 0.960 . S
H676 C689 0.961 . S
H677 C689 0.959 . S
H678 C692 0.929 . S
H679 C693 0.931 . S
H680 C695 0.930 . S
C681 H669 0.930 . S
C681 C682 1.399 . S
C681 C686 1.399 . S
C682 C681 1.399 . S
C682 C683 1.376 . S
C683 H670 0.930 . S
C683 C682 1.376 . S
C683 C684 1.388 . S
C684 H671 0.930 1_455 S
C684 C683 1.388 . S
C684 C685 1.396 1_455 S
C685 C684 1.396 1_655 S
C685 C686 1.388 1_655 S
C685 C691 1.463 . S
C686 C681 1.399 . S
C686 C685 1.388 1_455 S
C686 C687 1.516 . S
C687 C686 1.516 . S
C687 C688 1.502 . S
C687 C689 1.561 1_455 S
C687 C690 1.526 1_455 S
C688 H672 0.959 . S
C688 H673 0.959 . S
C688 H674 0.961 . S
C688 C687 1.502 . S
C689 H675 0.960 . S
C689 H676 0.961 . S
C689 H677 0.959 . S
C689 C687 1.561 1_655 S
C690 C687 1.526 1_655 S
C690 C691 1.396 . S
C690 C695 1.390 . S
C691 C685 1.463 . S
C691 C690 1.396 . S
C691 C692 1.399 . S
C692 H678 0.929 . S
C692 C691 1.399 . S
C692 C693 1.385 . S
C693 H679 0.931 . S
C693 C692 1.385 . S
C693 C694 1.389 . S
C694 C693 1.389 . S
C694 C695 1.387 . S
C695 H680 0.930 . S
C695 C690 1.390 . S
C695 C694 1.387 . S
H696 C708 0.930 . S
H697 C710 0.930 . S
H698 C711 0.930 1_545 S
H699 C715 0.959 . S
H700 C715 0.959 . S
H701 C715 0.961 . S
H702 C716 0.960 . S
H703 C716 0.961 . S
H704 C716 0.959 . S
H705 C719 0.929 . S
H706 C720 0.931 . S
H707 C722 0.930 . S
C708 H696 0.930 . S
C708 C709 1.399 . S
C708 C713 1.399 . S
C709 C708 1.399 . S
C709 C710 1.376 . S
C710 H697 0.930 . S
C710 C709 1.376 . S
C710 C711 1.388 . S
C711 H698 0.930 1_565 S
C711 C710 1.388 . S
C711 C712 1.386 1_565 S
C712 C711 1.386 1_545 S
C712 C713 1.389 1_545 S
C712 C718 1.474 . S
C713 C708 1.399 . S
C713 C712 1.389 1_565 S
C713 C714 1.516 . S
C714 C713 1.516 . S
C714 C715 1.502 . S
C714 C716 1.561 1_565 S
C714 C717 1.526 1_565 S
C715 H699 0.959 . S
C715 H700 0.959 . S
C715 H701 0.961 . S
C715 C714 1.502 . S
C716 H702 0.960 . S
C716 H703 0.961 . S
C716 H704 0.959 . S
C716 C714 1.561 1_545 S
C717 C714 1.526 1_545 S
C717 C718 1.396 . S
C717 C722 1.390 . S
C718 C712 1.474 . S
C718 C717 1.396 . S
C718 C719 1.399 . S
C719 H705 0.929 . S
C719 C718 1.399 . S
C719 C720 1.385 . S
C720 H706 0.931 . S
C720 C719 1.385 . S
C720 C721 1.389 . S
C721 C720 1.389 . S
C721 C722 1.387 . S
C722 H707 0.930 . S
C722 C717 1.390 . S
C722 C721 1.387 . S
H723 C735 0.930 . S
H724 C737 0.930 . S
H725 C738 0.930 . S
H726 C742 0.959 . S
H727 C742 0.959 . S
H728 C742 0.961 . S
H729 C743 0.960 . S
H730 C743 0.961 . S
H731 C743 0.959 . S
H732 C746 0.929 . S
H733 C747 0.931 . S
H734 C749 0.930 . S
C735 H723 0.930 . S
C735 C736 1.399 . S
C735 C740 1.399 . S
C736 C735 1.399 . S
C736 C737 1.376 . S
C737 H724 0.930 . S
C737 C736 1.376 . S
C737 C738 1.388 . S
C738 H725 0.930 . S
C738 C737 1.388 . S
C738 C739 1.390 . S
C739 C738 1.390 . S
C739 C740 1.394 . S
C739 C745 1.465 . S
C740 C735 1.399 . S
C740 C739 1.394 . S
C740 C741 1.516 . S
C741 C740 1.516 . S
C741 C742 1.502 . S
C741 C743 1.561 . S
C741 C744 1.526 . S
C742 H726 0.959 . S
C742 H727 0.959 . S
C742 H728 0.961 . S
C742 C741 1.502 . S
C743 H729 0.960 . S
C743 H730 0.961 . S
C743 H731 0.959 . S
C743 C741 1.561 . S
C744 C741 1.526 . S
C744 C745 1.396 . S
C744 C749 1.390 . S
C745 C739 1.465 . S
C745 C744 1.396 . S
C745 C746 1.399 . S
C746 H732 0.929 . S
C746 C745 1.399 . S
C746 C747 1.385 . S
C747 H733 0.931 . S
C747 C746 1.385 . S
C747 C748 1.389 . S
C748 C747 1.389 . S
C748 C749 1.387 . S
C749 H734 0.930 . S
C749 C744 1.390 . S
C749 C748 1.387 . S
H750 C762 0.930 . S
H751 C764 0.930 . S
H752 C765 0.930 . S
H753 C769 0.959 1_556 S
H754 C769 0.959 . S
H755 C769 0.961 . S
H756 C770 0.960 . S
H757 C770 0.961 . S
H758 C770 0.959 . S
H759 C773 0.929 1_655 S
H760 C774 0.931 . S
H761 C776 0.930 . S
C762 H750 0.930 . S
C762 C763 1.399 . S
C762 C767 1.399 . S
C763 C762 1.399 . S
C763 C764 1.376 . S
C764 H751 0.930 . S
C764 C763 1.376 . S
C764 C765 1.388 . S
C765 H752 0.930 . S
C765 C764 1.388 . S
C765 C766 1.390 . S
C766 C765 1.390 . S
C766 C767 1.394 . S
C766 C772 1.456 1_655 S
C767 C762 1.399 . S
C767 C766 1.394 . S
C767 C768 1.516 1_655 S
C768 C767 1.516 1_455 S
C768 C769 1.502 1_556 S
C768 C770 1.561 1_456 S
C768 C771 1.526 . S
C769 H753 0.959 1_554 S
C769 H754 0.959 . S
C769 H755 0.961 . S
C769 C768 1.502 1_554 S
C770 H756 0.960 . S
C770 H757 0.961 . S
C770 H758 0.959 . S
C770 C768 1.561 1_654 S
C771 C768 1.526 . S
C771 C772 1.401 . S
C771 C776 1.390 . S
C772 C766 1.456 1_455 S
C772 C771 1.401 . S
C772 C773 1.404 . S
C773 H759 0.929 1_455 S
C773 C772 1.404 . S
C773 C774 1.385 . S
C774 H760 0.931 . S
C774 C773 1.385 . S
C774 C775 1.389 . S
C775 C774 1.389 . S
C775 C776 1.387 . S
C776 H761 0.930 . S
C776 C771 1.390 . S
C776 C775 1.387 . S
H777 C789 0.930 . S
H778 C791 0.930 . S
H779 C792 0.930 . S
H780 C796 0.959 . S
H781 C796 0.959 . S
H782 C796 0.961 . S
H783 C797 0.960 . S
H784 C797 0.961 1_565 S
H785 C797 0.959 . S
H786 C800 0.929 . S
H787 C801 0.931 . S
H788 C803 0.930 . S
C789 H777 0.930 . S
C789 C790 1.399 . S
C789 C794 1.399 . S
C790 C789 1.399 . S
C790 C791 1.376 . S
C791 H778 0.930 . S
C791 C790 1.376 . S
C791 C792 1.388 . S
C792 H779 0.930 . S
C792 C791 1.388 . S
C792 C793 1.390 . S
C793 C792 1.390 . S
C793 C794 1.394 . S
C793 C799 1.465 . S
C794 C789 1.399 . S
C794 C793 1.394 . S
C794 C795 1.516 1_545 S
C795 C794 1.516 1_565 S
C795 C796 1.502 . S
C795 C797 1.561 1_565 S
C795 C798 1.526 . S
C796 H780 0.959 . S
C796 H781 0.959 . S
C796 H782 0.961 . S
C796 C795 1.502 . S
C797 H783 0.960 . S
C797 H784 0.961 1_545 S
C797 H785 0.959 . S
C797 C795 1.561 1_545 S
C798 C795 1.526 . S
C798 C799 1.396 1_565 S
C798 C803 1.390 . S
C799 C793 1.465 . S
C799 C798 1.396 1_545 S
C799 C800 1.399 . S
C800 H786 0.929 . S
C800 C799 1.399 . S
C800 C801 1.385 1_545 S
C801 H787 0.931 . S
C801 C800 1.385 1_565 S
C801 C802 1.389 . S
C802 C801 1.389 . S
C802 C803 1.387 . S
C803 H788 0.930 . S
C803 C798 1.390 . S
C803 C802 1.387 . S
C169 C10 1.329 . S
C181 C127 1.327 . S
C196 C23 1.348 . S
C208 C140 1.331 . S
C223 C36 1.326 . S
C235 C153 1.339 . S
C250 C49 1.357 . S
C262 C88 1.351 . S
C277 C101 1.354 . S
C289 C62 1.356 . S
C304 C114 1.357 . S
C316 C75 1.351 . S
C331 C130 1.352 . S
C343 C0 1.375 . S
C358 C13 1.374 . S
C370 C143 1.364 . S
C385 C26 1.330 . S
C397 C78 1.338 . S
C412 C39 1.356 . S
C424 C91 1.375 . S
C439 C52 1.328 . S
C451 C104 1.350 . S
C466 C65 1.370 . S
C478 C117 1.341 . S
C493 C125 0.820 . S
C505 C8 0.809 . S
C520 C21 0.820 . S
C532 C138 0.797 . S
C547 C34 0.682 . S
C559 C151 0.629 . S
C574 C86 0.606 . S
C586 C47 0.617 . S
C601 C60 0.819 . S
C613 C99 0.813 . S
C628 C112 0.761 . S
C640 C73 0.803 . S
C655 C5 1.379 . S
C667 C44 1.321 . S
C682 C57 1.328 . S
C694 C18 1.387 . S
C709 C31 1.329 . S
C721 C70 1.387 . S
C736 C83 1.315 . S
C748 C122 1.397 . S
C763 C96 1.378 . S
C775 C135 1.322 . S
C790 C148 1.389 . S
C802 C109 1.312 . S
