# Generated by pormake.
# Topology neb, (4)-cn, num edge types: 1
# Building blocks:
#     Node 0, Type 0, BuildingBlock: GALJAG_clean_sbu_0, # of connection points: 4
#     Node 1, Type 0, BuildingBlock: GALJAG_clean_sbu_0, # of connection points: 4
#     Node 2, Type 0, BuildingBlock: GALJAG_clean_sbu_0, # of connection points: 4
#     Node 3, Type 0, BuildingBlock: GALJAG_clean_sbu_0, # of connection points: 4
#     Node 4, Type 0, BuildingBlock: GALJAG_clean_sbu_0, # of connection points: 4
#     Node 5, Type 0, BuildingBlock: GALJAG_clean_sbu_0, # of connection points: 4
#     Node 6, Type 0, BuildingBlock: GALJAG_clean_sbu_0, # of connection points: 4
#     Node 7, Type 0, BuildingBlock: GALJAG_clean_sbu_0, # of connection points: 4
#     Node 8, Type 0, BuildingBlock: GALJAG_clean_sbu_0, # of connection points: 4
#     Node 9, Type 0, BuildingBlock: GALJAG_clean_sbu_0, # of connection points: 4
#     Node 10, Type 0, BuildingBlock: GALJAG_clean_sbu_0, # of connection points: 4
#     Node 11, Type 0, BuildingBlock: GALJAG_clean_sbu_0, # of connection points: 4
#     Node 12, Type 0, BuildingBlock: GALJAG_clean_sbu_0, # of connection points: 4
#     Node 13, Type 0, BuildingBlock: GALJAG_clean_sbu_0, # of connection points: 4
#     Node 14, Type 0, BuildingBlock: GALJAG_clean_sbu_0, # of connection points: 4
#     Node 15, Type 0, BuildingBlock: GALJAG_clean_sbu_0, # of connection points: 4
#     Edge 16, Type (0, 0), BuildingBlock: ZUJKAS_clean_linker_0, # of connection points: 2
#     Edge 17, Type (0, 0), BuildingBlock: ZUJKAS_clean_linker_0, # of connection points: 2
#     Edge 18, Type (0, 0), BuildingBlock: ZUJKAS_clean_linker_0, # of connection points: 2
#     Edge 19, Type (0, 0), BuildingBlock: ZUJKAS_clean_linker_0, # of connection points: 2
#     Edge 20, Type (0, 0), BuildingBlock: ZUJKAS_clean_linker_0, # of connection points: 2
#     Edge 21, Type (0, 0), BuildingBlock: ZUJKAS_clean_linker_0, # of connection points: 2
#     Edge 22, Type (0, 0), BuildingBlock: ZUJKAS_clean_linker_0, # of connection points: 2
#     Edge 23, Type (0, 0), BuildingBlock: ZUJKAS_clean_linker_0, # of connection points: 2
#     Edge 24, Type (0, 0), BuildingBlock: ZUJKAS_clean_linker_0, # of connection points: 2
#     Edge 25, Type (0, 0), BuildingBlock: ZUJKAS_clean_linker_0, # of connection points: 2
#     Edge 26, Type (0, 0), BuildingBlock: ZUJKAS_clean_linker_0, # of connection points: 2
#     Edge 27, Type (0, 0), BuildingBlock: ZUJKAS_clean_linker_0, # of connection points: 2
#     Edge 28, Type (0, 0), BuildingBlock: ZUJKAS_clean_linker_0, # of connection points: 2
#     Edge 29, Type (0, 0), BuildingBlock: ZUJKAS_clean_linker_0, # of connection points: 2
#     Edge 30, Type (0, 0), BuildingBlock: ZUJKAS_clean_linker_0, # of connection points: 2
#     Edge 31, Type (0, 0), BuildingBlock: ZUJKAS_clean_linker_0, # of connection points: 2
#     Edge 32, Type (0, 0), BuildingBlock: ZUJKAS_clean_linker_0, # of connection points: 2
#     Edge 33, Type (0, 0), BuildingBlock: ZUJKAS_clean_linker_0, # of connection points: 2
#     Edge 34, Type (0, 0), BuildingBlock: ZUJKAS_clean_linker_0, # of connection points: 2
#     Edge 35, Type (0, 0), BuildingBlock: ZUJKAS_clean_linker_0, # of connection points: 2
#     Edge 36, Type (0, 0), BuildingBlock: ZUJKAS_clean_linker_0, # of connection points: 2
#     Edge 37, Type (0, 0), BuildingBlock: ZUJKAS_clean_linker_0, # of connection points: 2
#     Edge 38, Type (0, 0), BuildingBlock: ZUJKAS_clean_linker_0, # of connection points: 2
#     Edge 39, Type (0, 0), BuildingBlock: ZUJKAS_clean_linker_0, # of connection points: 2
#     Edge 40, Type (0, 0), BuildingBlock: ZUJKAS_clean_linker_0, # of connection points: 2
#     Edge 41, Type (0, 0), BuildingBlock: ZUJKAS_clean_linker_0, # of connection points: 2
#     Edge 42, Type (0, 0), BuildingBlock: ZUJKAS_clean_linker_0, # of connection points: 2
#     Edge 43, Type (0, 0), BuildingBlock: ZUJKAS_clean_linker_0, # of connection points: 2
#     Edge 44, Type (0, 0), BuildingBlock: ZUJKAS_clean_linker_0, # of connection points: 2
#     Edge 45, Type (0, 0), BuildingBlock: ZUJKAS_clean_linker_0, # of connection points: 2
#     Edge 46, Type (0, 0), BuildingBlock: ZUJKAS_clean_linker_0, # of connection points: 2
#     Edge 47, Type (0, 0), BuildingBlock: ZUJKAS_clean_linker_0, # of connection points: 2
# Relax obj value: 0.003
# Max RMSD: 0.033
# Mean RMSD: 0.033
data_MOF--net-neb--node1-GALJAG_clean_sbu_0--edge1-ZUJKAS_clean_linker_0
_symmetry_space_group_name_H-M    P1
_symmetry_Int_Tables_number       1
_symmetry_cell_setting            triclinic
loop_
_symmetry_equiv_pos_as_xyz
'x, y, z'
_cell_length_a     54.812186
_cell_length_b     32.433726
_cell_length_c     91.616041
_cell_angle_alpha  90.005753
_cell_angle_beta   90.405274
_cell_angle_gamma 90.006282
loop_
_atom_site_label
_atom_site_type_symbol
_atom_site_fract_x
_atom_site_fract_y
_atom_site_fract_z
_atom_type_partial_charge
In0 In 0.12457 0.12538 0.4354 0.0
O1 O 0.1471 0.07205 0.42632 0.0
O2 O 0.1105 0.0787 0.41882 0.0
C3 C 0.15987 0.15741 0.45277 0.0
C4 C 0.09084 0.09402 0.45367 0.0
C5 C 0.11755 0.18967 0.41702 0.0
O6 O 0.16412 0.12948 0.44354 0.0
O7 O 0.13791 0.16882 0.45327 0.0
O8 O 0.1053 0.18491 0.42849 0.0
O9 O 0.13307 0.16179 0.41473 0.0
C10 C 0.13009 0.05834 0.4183 0.0
O11 O 0.08541 0.11848 0.44344 0.0
O12 O 0.11326 0.08574 0.45475 0.0
In13 In 0.125 0.12392 0.81472 0.0
O14 O 0.10368 0.06761 0.82255 0.0
O15 O 0.13688 0.0821 0.83347 0.0
C16 C 0.0907 0.15635 0.79678 0.0
C17 C 0.15915 0.09189 0.79686 0.0
C18 C 0.13101 0.18956 0.83256 0.0
O19 O 0.08572 0.13002 0.80645 0.0
O20 O 0.11296 0.16596 0.79608 0.0
O21 O 0.14648 0.17976 0.82303 0.0
O22 O 0.11276 0.16596 0.8332 0.0
C23 C 0.11883 0.05814 0.83242 0.0
O24 O 0.16426 0.1178 0.8067 0.0
O25 O 0.13687 0.08251 0.79598 0.0
In26 In 0.87677 0.87724 0.56429 0.0
O27 O 0.85474 0.93106 0.57347 0.0
O28 O 0.89041 0.92116 0.58196 0.0
C29 C 0.84259 0.84584 0.54606 0.0
C30 C 0.9106 0.90877 0.54611 0.0
C31 C 0.88231 0.81199 0.58237 0.0
O32 O 0.83802 0.87438 0.55499 0.0
O33 O 0.86439 0.83343 0.54625 0.0
O34 O 0.8979 0.82133 0.57285 0.0
O35 O 0.86417 0.83583 0.58287 0.0
C36 C 0.87129 0.94278 0.58216 0.0
O37 O 0.91581 0.88273 0.55589 0.0
O38 O 0.88835 0.91853 0.54544 0.0
In39 In 0.87559 0.87943 0.1862 0.0
O40 O 0.83707 0.88418 0.19536 0.0
O41 O 0.86469 0.92141 0.20502 0.0
C42 C 0.86887 0.8144 0.16812 0.0
C43 C 0.88029 0.94533 0.16839 0.0
C44 C 0.9103 0.84788 0.20405 0.0
O45 O 0.85377 0.824 0.17787 0.0
O46 O 0.88715 0.83789 0.16736 0.0
O47 O 0.91479 0.87565 0.1948 0.0
O48 O 0.88834 0.83634 0.20435 0.0
C49 C 0.84253 0.91088 0.20486 0.0
O50 O 0.89744 0.93281 0.17651 0.0
O51 O 0.86098 0.92428 0.16911 0.0
In52 In 0.12604 0.62449 0.93679 0.0
O53 O 0.14736 0.56872 0.92846 0.0
O54 O 0.11332 0.58227 0.91835 0.0
C55 C 0.1602 0.65694 0.95485 0.0
C56 C 0.092 0.59294 0.95482 0.0
C57 C 0.11988 0.68946 0.91866 0.0
O58 O 0.16522 0.63026 0.9453 0.0
O59 O 0.13798 0.66687 0.95536 0.0
O60 O 0.10409 0.67903 0.92791 0.0
O61 O 0.1386 0.66686 0.91844 0.0
C62 C 0.13163 0.5588 0.91896 0.0
O63 O 0.08719 0.62065 0.94557 0.0
O64 O 0.11398 0.58145 0.95505 0.0
In65 In 0.12669 0.62566 0.31339 0.0
O66 O 0.10724 0.56564 0.31936 0.0
O67 O 0.13554 0.58646 0.33345 0.0
C68 C 0.09304 0.65852 0.29513 0.0
C69 C 0.16222 0.59586 0.296 0.0
C70 C 0.13149 0.69068 0.33157 0.0
O71 O 0.08768 0.63245 0.30482 0.0
O72 O 0.11538 0.66774 0.29459 0.0
O73 O 0.14863 0.67856 0.32349 0.0
O74 O 0.11213 0.66976 0.33057 0.0
C75 C 0.11978 0.55918 0.33072 0.0
O76 O 0.16639 0.62238 0.30579 0.0
O77 O 0.14024 0.58481 0.29495 0.0
In78 In 0.87464 0.38009 0.06418 0.0
O79 O 0.8531 0.43577 0.07235 0.0
O80 O 0.88639 0.42136 0.08315 0.0
C81 C 0.84122 0.34867 0.04544 0.0
C82 C 0.9092 0.41102 0.04636 0.0
C83 C 0.87953 0.31458 0.08219 0.0
O84 O 0.83593 0.37521 0.05497 0.0
O85 O 0.86341 0.33833 0.04524 0.0
O86 O 0.89695 0.32814 0.07465 0.0
O87 O 0.85985 0.33438 0.08079 0.0
C88 C 0.86823 0.44509 0.08225 0.0
O89 O 0.9134 0.38181 0.05512 0.0
O90 O 0.88759 0.42431 0.04651 0.0
In91 In 0.87483 0.37718 0.68658 0.0
O92 O 0.83553 0.38235 0.69454 0.0
O93 O 0.86252 0.41884 0.70515 0.0
C94 C 0.86912 0.31166 0.66865 0.0
C95 C 0.88059 0.44315 0.66894 0.0
C96 C 0.90916 0.34542 0.70466 0.0
O97 O 0.85407 0.32031 0.67854 0.0
O98 O 0.88682 0.33634 0.66768 0.0
O99 O 0.9141 0.37175 0.69498 0.0
O100 O 0.88695 0.3355 0.70529 0.0
C101 C 0.84034 0.40871 0.70428 0.0
O102 O 0.89621 0.43312 0.67849 0.0
O103 O 0.86229 0.41965 0.66819 0.0
In104 In 0.62588 0.12446 0.93585 0.0
O105 O 0.64704 0.06809 0.92791 0.0
O106 O 0.614 0.08307 0.91693 0.0
C107 C 0.65966 0.1564 0.95423 0.0
C108 C 0.59158 0.09395 0.95394 0.0
C109 C 0.62068 0.18973 0.91776 0.0
O110 O 0.66482 0.12984 0.94467 0.0
O111 O 0.63745 0.1665 0.95461 0.0
O112 O 0.60351 0.1767 0.92562 0.0
O113 O 0.64025 0.16951 0.91888 0.0
C114 C 0.63195 0.05892 0.91797 0.0
O115 O 0.58713 0.12244 0.94492 0.0
O116 O 0.6133 0.08116 0.95388 0.0
In117 In 0.62727 0.12585 0.31504 0.0
O118 O 0.66644 0.12156 0.30677 0.0
O119 O 0.63966 0.08348 0.2967 0.0
C120 C 0.63243 0.19094 0.33322 0.0
C121 C 0.62058 0.06023 0.33277 0.0
C122 C 0.59406 0.15851 0.29644 0.0
O123 O 0.64904 0.17974 0.32461 0.0
O124 O 0.61345 0.16897 0.33279 0.0
O125 O 0.58861 0.13146 0.30577 0.0
O126 O 0.61626 0.16876 0.29642 0.0
C127 C 0.66172 0.09448 0.29726 0.0
O128 O 0.60531 0.07045 0.32306 0.0
O129 O 0.63904 0.08333 0.33364 0.0
In130 In 0.37606 0.88054 0.06441 0.0
O131 O 0.41492 0.8847 0.05563 0.0
O132 O 0.38796 0.92343 0.04607 0.0
C133 C 0.38201 0.81533 0.08245 0.0
C134 C 0.37017 0.94596 0.08233 0.0
C135 C 0.34208 0.84799 0.04625 0.0
O136 O 0.39807 0.82619 0.07342 0.0
O137 O 0.36318 0.83767 0.0825 0.0
O138 O 0.33699 0.87486 0.05572 0.0
O139 O 0.36429 0.83792 0.04586 0.0
C140 C 0.40998 0.91217 0.04631 0.0
O141 O 0.35455 0.93602 0.07277 0.0
O142 O 0.38858 0.92268 0.08293 0.0
In143 In 0.37262 0.87413 0.68599 0.0
O144 O 0.33364 0.88018 0.69448 0.0
O145 O 0.36133 0.91567 0.70484 0.0
C146 C 0.36665 0.8088 0.66799 0.0
C147 C 0.37846 0.93952 0.66807 0.0
C148 C 0.40695 0.84216 0.70401 0.0
O149 O 0.35119 0.81835 0.67756 0.0
O150 O 0.38486 0.83249 0.66739 0.0
O151 O 0.41158 0.87031 0.69493 0.0
O152 O 0.38501 0.83043 0.70407 0.0
C153 C 0.33904 0.90617 0.70424 0.0
O154 O 0.39463 0.92834 0.67711 0.0
O155 O 0.3595 0.91747 0.66797 0.0
In156 In 0.62481 0.62647 0.43694 0.0
O157 O 0.64619 0.57043 0.42895 0.0
O158 O 0.61249 0.58407 0.41845 0.0
C159 C 0.65936 0.65922 0.45461 0.0
C160 C 0.59111 0.59474 0.45518 0.0
C161 C 0.61843 0.69151 0.41888 0.0
O162 O 0.66405 0.63169 0.44531 0.0
O163 O 0.63727 0.66999 0.45504 0.0
O164 O 0.60318 0.68202 0.42858 0.0
O165 O 0.63669 0.66794 0.4182 0.0
C166 C 0.63073 0.56048 0.41931 0.0
O167 O 0.58572 0.62019 0.44525 0.0
O168 O 0.61344 0.58567 0.45596 0.0
In169 In 0.62459 0.6248 0.81377 0.0
O170 O 0.66318 0.6208 0.80466 0.0
O171 O 0.63591 0.58279 0.79504 0.0
C172 C 0.63081 0.68954 0.83203 0.0
C173 C 0.61974 0.55899 0.83162 0.0
C174 C 0.59021 0.65625 0.79566 0.0
O175 O 0.64636 0.67967 0.82256 0.0
O176 O 0.6123 0.66648 0.83241 0.0
O177 O 0.58577 0.62745 0.80452 0.0
O178 O 0.61196 0.6689 0.79589 0.0
C179 C 0.65798 0.59383 0.79521 0.0
O180 O 0.60259 0.57166 0.82352 0.0
O181 O 0.63911 0.57984 0.83086 0.0
In182 In 0.37579 0.374 0.56398 0.0
O183 O 0.35365 0.4289 0.57225 0.0
O184 O 0.3879 0.41682 0.58237 0.0
C185 C 0.34216 0.34175 0.54554 0.0
C186 C 0.41023 0.40672 0.54648 0.0
C187 C 0.38154 0.30842 0.58188 0.0
O188 O 0.33691 0.36868 0.55496 0.0
O189 O 0.36433 0.33143 0.54537 0.0
O190 O 0.39678 0.31751 0.57213 0.0
O191 O 0.36363 0.33269 0.58271 0.0
C192 C 0.36924 0.43953 0.58174 0.0
O193 O 0.41521 0.3808 0.55633 0.0
O194 O 0.38791 0.41577 0.54539 0.0
In195 In 0.37827 0.38014 0.18645 0.0
O196 O 0.33926 0.38619 0.19485 0.0
O197 O 0.36685 0.42182 0.20524 0.0
C198 C 0.37159 0.31465 0.16862 0.0
C199 C 0.38388 0.44594 0.16869 0.0
C200 C 0.41295 0.34759 0.20409 0.0
O201 O 0.35651 0.32438 0.17838 0.0
O202 O 0.38983 0.33822 0.16775 0.0
O203 O 0.41774 0.37401 0.19441 0.0
O204 O 0.39071 0.33796 0.20493 0.0
C205 C 0.34457 0.4123 0.20458 0.0
O206 O 0.39939 0.4364 0.17835 0.0
O207 O 0.36579 0.42201 0.16786 0.0
H208 H 0.29346 0.35928 0.54375 0.0
H209 H 0.263 0.32706 0.5277 0.0
H210 H 0.31891 0.25048 0.50892 0.0
H211 H 0.34941 0.28222 0.525 0.0
H212 H 0.26221 0.32363 0.49673 0.0
H213 H 0.26624 0.16734 0.52147 0.0
H214 H 0.27852 0.21239 0.53047 0.0
H215 H 0.29519 0.18804 0.51602 0.0
C216 C 0.29925 0.33554 0.53621 0.0
C217 C 0.32379 0.32311 0.53567 0.0
C218 C 0.28185 0.3172 0.52706 0.0
C219 C 0.28866 0.28599 0.5173 0.0
C220 C 0.31321 0.27396 0.51658 0.0
H221 H 0.20843 0.13805 0.4538 0.0
H222 H 0.24009 0.16987 0.46913 0.0
C223 C 0.33062 0.29229 0.52571 0.0
C224 C 0.27014 0.26645 0.50769 0.0
H225 H 0.24259 0.17454 0.49987 0.0
C226 C 0.25784 0.29107 0.49743 0.0
C227 C 0.2646 0.22393 0.50862 0.0
C228 C 0.27665 0.19635 0.51981 0.0
C229 C 0.24029 0.2742 0.48793 0.0
C230 C 0.23462 0.23175 0.48893 0.0
C231 C 0.24703 0.20707 0.49913 0.0
C232 C 0.2155 0.21253 0.47967 0.0
C233 C 0.22828 0.30182 0.47674 0.0
C234 C 0.19117 0.22557 0.4807 0.0
C235 C 0.1731 0.20749 0.47198 0.0
C236 C 0.17902 0.17587 0.46213 0.0
C237 C 0.20335 0.16243 0.46126 0.0
C238 C 0.22143 0.18054 0.47 0.0
H239 H 0.2391 0.33023 0.4748 0.0
H240 H 0.22573 0.28545 0.4662 0.0
H241 H 0.21005 0.31124 0.48075 0.0
H242 H 0.18613 0.24961 0.48831 0.0
H243 H 0.1545 0.21836 0.47296 0.0
H244 H 0.95972 0.89447 0.5461 0.0
H245 H 0.99041 0.92673 0.53049 0.0
H246 H 0.93394 0.99622 0.50858 0.0
H247 H 0.90323 0.96457 0.52426 0.0
H248 H 0.99403 0.92586 0.5 0.0
H249 H 0.9828 0.0854 0.52087 0.0
H250 H 0.97078 0.04098 0.53027 0.0
H251 H 0.95498 0.06177 0.51466 0.0
C252 C 0.95386 0.91667 0.53797 0.0
C253 C 0.9291 0.92719 0.53645 0.0
C254 C 0.9714 0.93504 0.52907 0.0
C255 C 0.96448 0.96436 0.51856 0.0
C256 C 0.93972 0.97433 0.51684 0.0
H257 H 0.04159 0.10699 0.45337 0.0
H258 H 0.01101 0.07486 0.4691 0.0
C259 C 0.92219 0.95603 0.52574 0.0
C260 C 0.98313 0.98401 0.50922 0.0
H261 H 0.00768 0.07711 0.49997 0.0
C262 C 0.99712 0.9589 0.50004 0.0
C263 C 0.98706 0.02713 0.5093 0.0
C264 C 0.97328 0.05543 0.51939 0.0
C265 C 0.01468 0.97584 0.49071 0.0
C266 C 0.01857 0.01896 0.49076 0.0
C267 C 0.00459 0.04407 0.49995 0.0
C268 C 0.03714 0.03859 0.48139 0.0
C269 C 0.02855 0.94758 0.48065 0.0
C270 C 0.06197 0.02932 0.48327 0.0
C271 C 0.07944 0.04761 0.47433 0.0
C272 C 0.07239 0.07566 0.46339 0.0
C273 C 0.04755 0.08542 0.46168 0.0
C274 C 0.03008 0.06712 0.47065 0.0
H275 H 0.0193 0.91731 0.47933 0.0
H276 H 0.03075 0.96179 0.46971 0.0
H277 H 0.047 0.9419 0.48529 0.0
H278 H 0.06782 0.00798 0.49169 0.0
H279 H 0.09846 0.03964 0.47595 0.0
H280 H 0.28993 0.89167 0.70468 0.0
H281 H 0.25956 0.92396 0.72051 0.0
H282 H 0.31639 0.99423 0.74176 0.0
H283 H 0.34679 0.9625 0.72589 0.0
H284 H 0.25699 0.9236 0.75119 0.0
H285 H 0.26677 0.08271 0.7296 0.0
H286 H 0.27856 0.03814 0.72019 0.0
H287 H 0.29484 0.05937 0.73554 0.0
C288 C 0.29594 0.91404 0.71271 0.0
C289 C 0.32071 0.92473 0.714 0.0
C290 C 0.27858 0.93243 0.72174 0.0
C291 C 0.28569 0.96195 0.73213 0.0
C292 C 0.31046 0.97215 0.7336 0.0
H293 H 0.20827 0.10654 0.79689 0.0
H294 H 0.23909 0.07427 0.78136 0.0
C295 C 0.32781 0.95381 0.72458 0.0
C296 C 0.26723 0.98161 0.7416 0.0
H297 H 0.24224 0.07454 0.75063 0.0
C298 C 0.25367 0.95657 0.75104 0.0
C299 C 0.26302 0.02464 0.74138 0.0
C300 C 0.27639 0.05282 0.73105 0.0
C301 C 0.23623 0.97351 0.76045 0.0
C302 C 0.23198 0.01653 0.7602 0.0
C303 C 0.24558 0.04158 0.75079 0.0
C304 C 0.2133 0.0361 0.76953 0.0
C305 C 0.22284 0.94534 0.77077 0.0
C306 C 0.18858 0.02578 0.76785 0.0
C307 C 0.17098 0.04412 0.77669 0.0
C308 C 0.17777 0.0733 0.78731 0.0
C309 C 0.2025 0.08408 0.78882 0.0
C310 C 0.22011 0.06571 0.77997 0.0
H311 H 0.23254 0.91554 0.77228 0.0
H312 H 0.22053 0.96011 0.78161 0.0
H313 H 0.20445 0.9386 0.76623 0.0
H314 H 0.18289 0.00364 0.75966 0.0
H315 H 0.15205 0.03536 0.77522 0.0
H316 H 0.0974 0.21421 0.77558 0.0
H317 H 0.06624 0.24668 0.76016 0.0
H318 H 0.01066 0.1732 0.78075 0.0
H319 H 0.04169 0.14092 0.79635 0.0
H320 H 0.0336 0.20968 0.74042 0.0
H321 H 0.98451 0.29116 0.78473 0.0
H322 H 0.01457 0.26945 0.78726 0.0
H323 H 0.98813 0.2367 0.78755 0.0
C324 C 0.07853 0.20501 0.77684 0.0
C325 C 0.07195 0.17517 0.78722 0.0
C326 C 0.06077 0.22357 0.76802 0.0
C327 C 0.03612 0.2128 0.76947 0.0
C328 C 0.02953 0.18255 0.77967 0.0
H329 H 0.90248 0.28774 0.72591 0.0
H330 H 0.93363 0.25556 0.74142 0.0
C331 C 0.04729 0.16396 0.7885 0.0
C332 C 0.01739 0.2328 0.76013 0.0
H333 H 0.96623 0.29274 0.7612 0.0
C334 C 0.01892 0.22799 0.74494 0.0
C335 C 0.99827 0.25662 0.76609 0.0
C336 C 0.9963 0.26419 0.78229 0.0
C337 C 0.00156 0.24581 0.73554 0.0
C338 C 0.98245 0.26964 0.74149 0.0
C339 C 0.98092 0.27444 0.75668 0.0
C340 C 0.96371 0.2896 0.73214 0.0
C341 C 0.00352 0.2382 0.71934 0.0
C342 C 0.97029 0.31986 0.72195 0.0
C343 C 0.95254 0.33827 0.71306 0.0
C344 C 0.9279 0.32689 0.7143 0.0
C345 C 0.92133 0.29708 0.72469 0.0
C346 C 0.93908 0.27869 0.73356 0.0
H347 H 0.01534 0.21127 0.7169 0.0
H348 H 0.98524 0.23286 0.71438 0.0
H349 H 0.01164 0.26572 0.71406 0.0
H350 H 0.98915 0.3293 0.72089 0.0
H351 H 0.95813 0.36131 0.7052 0.0
H352 H 0.84828 0.78323 0.52651 0.0
H353 H 0.81708 0.75243 0.51067 0.0
H354 H 0.76337 0.83609 0.52795 0.0
H355 H 0.79453 0.86737 0.54371 0.0
H356 H 0.77355 0.71397 0.51917 0.0
H357 H 0.75544 0.84935 0.48359 0.0
H358 H 0.78212 0.84567 0.49518 0.0
H359 H 0.75314 0.85958 0.5028 0.0
C360 C 0.82986 0.79525 0.52686 0.0
C361 C 0.82385 0.82782 0.5363 0.0
C362 C 0.81207 0.77759 0.51783 0.0
C363 C 0.78802 0.79234 0.51801 0.0
C364 C 0.78194 0.82478 0.52745 0.0
H365 H 0.65364 0.7213 0.47438 0.0
H366 H 0.68501 0.75264 0.48997 0.0
C367 C 0.79972 0.84246 0.5365 0.0
C368 C 0.76915 0.77287 0.50863 0.0
H369 H 0.72871 0.79222 0.48096 0.0
C370 C 0.76381 0.73098 0.51076 0.0
C371 C 0.75648 0.79523 0.49771 0.0
C372 C 0.76218 0.83985 0.49455 0.0
C373 C 0.74582 0.71097 0.5024 0.0
C374 C 0.73314 0.73334 0.49149 0.0
C375 C 0.73847 0.77522 0.48936 0.0
C376 C 0.71424 0.71384 0.48216 0.0
C377 C 0.74016 0.6663 0.50551 0.0
C378 C 0.72038 0.6819 0.47252 0.0
C379 C 0.70252 0.66397 0.4636 0.0
C380 C 0.67824 0.67779 0.46414 0.0
C381 C 0.67218 0.7099 0.47376 0.0
C382 C 0.69006 0.72788 0.48265 0.0
H383 H 0.74721 0.65654 0.51637 0.0
H384 H 0.72019 0.66062 0.50507 0.0
H385 H 0.74888 0.6467 0.4971 0.0
H386 H 0.73904 0.67112 0.47181 0.0
H387 H 0.70774 0.6394 0.45624 0.0
H388 H 0.71038 0.11274 0.29659 0.0
H389 H 0.74143 0.08242 0.28073 0.0
H390 H 0.68662 0.00517 0.26067 0.0
H391 H 0.65548 0.0356 0.27633 0.0
H392 H 0.75495 0.999 0.27842 0.0
H393 H 0.71987 0.05935 0.22561 0.0
H394 H 0.71023 0.07967 0.24299 0.0
H395 H 0.69756 0.03223 0.23618 0.0
C396 C 0.70494 0.08946 0.28873 0.0
C397 C 0.68049 0.07667 0.28764 0.0
C398 C 0.72268 0.07216 0.27971 0.0
C399 C 0.71624 0.04201 0.26939 0.0
C400 C 0.69188 0.029 0.26835 0.0
H401 H 0.79383 0.89373 0.20625 0.0
H402 H 0.76361 0.92509 0.22239 0.0
C403 C 0.67414 0.04626 0.27736 0.0
C404 C 0.7351 0.02328 0.25998 0.0
H405 H 0.75119 0.00889 0.22441 0.0
C406 C 0.75425 1.00134 0.26661 0.0
C407 C 0.73405 0.02636 0.24458 0.0
C408 C 0.71446 0.05098 0.23689 0.0
C409 C 0.77215 0.98161 0.25824 0.0
C410 C 0.77103 0.98452 0.24285 0.0
C411 C 0.75194 0.00662 0.23622 0.0
C412 C 0.78952 0.96493 0.23339 0.0
C413 C 0.79175 0.95699 0.26593 0.0
C414 C 0.81405 0.97718 0.23417 0.0
C415 C 0.83134 0.9593 0.22499 0.0
C416 C 0.82435 0.92903 0.21481 0.0
C417 C 0.79976 0.91689 0.21402 0.0
C418 C 0.78249 0.93479 0.22321 0.0
H419 H 0.78654 0.94917 0.27729 0.0
H420 H 0.79568 0.92799 0.25994 0.0
H421 H 0.80878 0.97546 0.2664 0.0
H422 H 0.81976 1.00097 0.24176 0.0
H423 H 0.85012 0.96946 0.22579 0.0
H424 H 0.90439 0.78852 0.22479 0.0
H425 H 0.93584 0.75733 0.24031 0.0
H426 H 0.99037 0.83475 0.22054 0.0
H427 H 0.959 0.86593 0.20485 0.0
H428 H 0.0033 0.75033 0.22237 0.0
H429 H 0.97065 0.81031 0.27553 0.0
H430 H 0.94777 0.78425 0.26486 0.0
H431 H 0.96075 0.83153 0.25826 0.0
C432 C 0.92306 0.79908 0.2238 0.0
C433 C 0.92924 0.82977 0.21365 0.0
C434 C 0.94097 0.78137 0.23273 0.0
C435 C 0.96534 0.79417 0.23171 0.0
C436 C 0.97161 0.82465 0.22153 0.0
H437 H 0.10035 0.71681 0.27414 0.0
H438 H 0.06962 0.74949 0.25847 0.0
C439 C 0.95369 0.84244 0.21261 0.0
C440 C 0.9844 0.7748 0.24097 0.0
H441 H 0.00174 0.75939 0.27641 0.0
C442 C 0.00308 0.75249 0.23418 0.0
C443 C 0.98396 0.77761 0.25637 0.0
C444 C 0.96485 0.80251 0.26422 0.0
C445 C 0.02111 0.73211 0.24241 0.0
C446 C 0.02063 0.73481 0.25782 0.0
C447 C 0.002 0.75729 0.2646 0.0
C448 C 0.03932 0.71461 0.26713 0.0
C449 C 0.04013 0.70704 0.23455 0.0
C450 C 0.03241 0.68479 0.2774 0.0
C451 C 0.0499 0.66626 0.28643 0.0
C452 C 0.0746 0.67742 0.28539 0.0
C453 C 0.08147 0.70738 0.27512 0.0
C454 C 0.06396 0.72593 0.26611 0.0
H455 H 0.03429 0.69931 0.22324 0.0
H456 H 0.05727 0.72514 0.2339 0.0
H457 H 0.04413 0.67795 0.2405 0.0
H458 H 0.01345 0.67579 0.2784 0.0
H459 H 0.04405 0.64335 0.29427 0.0
H460 H 0.29313 0.86382 0.04536 0.0
H461 H 0.26226 0.83061 0.02985 0.0
H462 H 0.31817 0.75658 0.00984 0.0
H463 H 0.34906 0.78925 0.02539 0.0
H464 H 0.25934 0.82754 0.99914 0.0
H465 H 0.26784 0.67087 0.02309 0.0
H466 H 0.28012 0.7162 0.03191 0.0
H467 H 0.29608 0.69278 0.01698 0.0
C468 C 0.29883 0.84044 0.03766 0.0
C469 C 0.32348 0.82897 0.03663 0.0
C470 C 0.28119 0.82153 0.02882 0.0
C471 C 0.2879 0.79069 0.01887 0.0
C472 C 0.31255 0.7797 0.01765 0.0
H473 H 0.20917 0.64112 0.95557 0.0
H474 H 0.24016 0.67423 0.97102 0.0
C475 C 0.33019 0.79858 0.02648 0.0
C476 C 0.26914 0.77045 0.00962 0.0
H477 H 0.24324 0.67718 0.0018 0.0
C478 C 0.25571 0.79471 0.99975 0.0
C479 C 0.26453 0.72759 0.01045 0.0
C480 C 0.27772 0.70031 0.02126 0.0
C481 C 0.23805 0.77712 0.99049 0.0
C482 C 0.23344 0.73427 0.99132 0.0
C483 C 0.24687 0.71001 0.00118 0.0
C484 C 0.21461 0.71407 0.98211 0.0
C485 C 0.22484 0.8044 0.97968 0.0
C486 C 0.18997 0.72504 0.98341 0.0
C487 C 0.17226 0.70622 0.97462 0.0
C488 C 0.17889 0.6759 0.96442 0.0
C489 C 0.20353 0.66445 0.96331 0.0
C490 C 0.22124 0.6833 0.97212 0.0
H491 H 0.23472 0.83384 0.97785 0.0
H492 H 0.22243 0.78851 0.96903 0.0
H493 H 0.20649 0.81193 0.98397 0.0
H494 H 0.18442 0.74812 0.99126 0.0
H495 H 0.1534 0.71553 0.97578 0.0
H496 H 0.098 0.53112 0.97472 0.0
H497 H 0.06678 0.49962 0.99011 0.0
H498 H 0.01277 0.58236 0.97217 0.0
H499 H 0.04381 0.61361 0.95658 0.0
H500 H 0.03737 0.53585 0.0112 0.0
H501 H 0.98138 0.46916 0.96632 0.0
H502 H 0.01199 0.48805 0.96356 0.0
H503 H 0.98685 0.52352 0.96462 0.0
C504 C 0.07946 0.54256 0.97404 0.0
C505 C 0.0733 0.57468 0.96439 0.0
C506 C 0.06167 0.52455 0.98284 0.0
C507 C 0.0374 0.53819 0.9821 0.0
C508 C 0.03129 0.57076 0.97267 0.0
H509 H 0.90407 0.47393 0.02683 0.0
H510 H 0.93562 0.50456 0.01148 0.0
C511 C 0.04906 0.58875 0.96384 0.0
C512 C 0.01859 0.51876 0.99139 0.0
H513 H 0.96464 0.46618 0.99012 0.0
C514 C 0.02152 0.52043 0.00661 0.0
C515 C 0.99795 0.49867 0.98534 0.0
C516 C 0.99439 0.49432 0.96907 0.0
C517 C 0.0041 0.50323 0.01597 0.0
C518 C 0.98342 0.4833 0.00992 0.0
C519 C 0.98051 0.48154 0.99471 0.0
C520 C 0.96444 0.46438 0.01921 0.0
C521 C 0.00768 0.50737 0.03225 0.0
C522 C 0.97015 0.43125 0.02848 0.0
C523 C 0.95216 0.41369 0.03726 0.0
C524 C 0.92815 0.42885 0.03686 0.0
C525 C 0.92242 0.46164 0.0274 0.0
C526 C 0.9404 0.47916 0.01863 0.0
H527 H 0.02111 0.53185 0.03504 0.0
H528 H 0.99016 0.51451 0.03771 0.0
H529 H 0.01462 0.47777 0.03671 0.0
H530 H 0.9885 0.41888 0.02887 0.0
H531 H 0.95708 0.38832 0.04439 0.0
H532 H 0.29556 0.39707 0.20506 0.0
H533 H 0.265 0.42938 0.22072 0.0
H534 H 0.32124 0.50229 0.2414 0.0
H535 H 0.35195 0.46978 0.22591 0.0
H536 H 0.28886 0.4657 0.2611 0.0
H537 H 0.23916 0.54754 0.21675 0.0
H538 H 0.24254 0.4931 0.21382 0.0
H539 H 0.26911 0.52558 0.21427 0.0
C540 C 0.30141 0.41999 0.21294 0.0
C541 C 0.32612 0.43104 0.21422 0.0
C542 C 0.28392 0.43859 0.22181 0.0
C543 C 0.29082 0.46872 0.23204 0.0
C544 C 0.31553 0.47928 0.23351 0.0
H545 H 0.21098 0.61402 0.29628 0.0
H546 H 0.24278 0.58397 0.28089 0.0
C547 C 0.33303 0.4607 0.22465 0.0
C548 C 0.27231 0.48881 0.24136 0.0
H549 H 0.2208 0.54793 0.24015 0.0
C550 C 0.27405 0.4839 0.25655 0.0
C551 C 0.25305 0.51255 0.23536 0.0
C552 C 0.2509 0.52041 0.21917 0.0
C553 C 0.25666 0.50126 0.26591 0.0
C554 C 0.23729 0.52472 0.2599 0.0
C555 C 0.23567 0.52989 0.24471 0.0
C556 C 0.21818 0.54342 0.26914 0.0
C557 C 0.25879 0.49344 0.2821 0.0
C558 C 0.19377 0.53133 0.26737 0.0
C559 C 0.1756 0.54858 0.27606 0.0
C560 C 0.1815 0.57842 0.28664 0.0
C561 C 0.20592 0.59094 0.28827 0.0
C562 C 0.22411 0.57364 0.27955 0.0
H563 H 0.2711 0.4671 0.28457 0.0
H564 H 0.26638 0.52127 0.28752 0.0
H565 H 0.24062 0.48703 0.28689 0.0
H566 H 0.18881 0.5082 0.25935 0.0
H567 H 0.15694 0.53836 0.27453 0.0
H568 H 0.70859 0.14057 0.95503 0.0
H569 H 0.73944 0.17286 0.97078 0.0
H570 H 0.68369 0.24719 0.99082 0.0
H571 H 0.65273 0.21475 0.97526 0.0
H572 H 0.75122 0.25697 0.97266 0.0
H573 H 0.71943 0.19647 0.02593 0.0
H574 H 0.70953 0.17499 0.0087 0.0
H575 H 0.69624 0.22199 0.01534 0.0
C576 C 0.70289 0.16357 0.96287 0.0
C577 C 0.67824 0.17501 0.96397 0.0
C578 C 0.72053 0.18202 0.97183 0.0
C579 C 0.7138 0.212 0.98209 0.0
C580 C 0.6892 0.22353 0.98318 0.0
H581 H 0.79235 0.36471 0.04435 0.0
H582 H 0.76168 0.33243 0.02849 0.0
C583 C 0.67156 0.20511 0.97423 0.0
C584 C 0.73261 0.23217 0.99132 0.0
H585 H 0.7501 0.24812 0.02671 0.0
C586 C 0.75108 0.25489 0.98447 0.0
C587 C 0.73229 0.22946 0.00673 0.0
C588 C 0.71346 0.20412 0.01464 0.0
C589 C 0.76904 0.27561 0.99265 0.0
C590 C 0.7687 0.27294 0.00805 0.0
C591 C 0.75025 0.25019 0.0149 0.0
C592 C 0.78744 0.29325 0.0173 0.0
C593 C 0.7879 0.30092 0.98474 0.0
C594 C 0.81205 0.28172 0.0163 0.0
C595 C 0.8296 0.30013 0.02532 0.0
C596 C 0.8228 0.33022 0.03556 0.0
C597 C 0.79814 0.34172 0.03654 0.0
C598 C 0.78061 0.32327 0.02751 0.0
H599 H 0.782 0.3084 0.97342 0.0
H600 H 0.79173 0.33013 0.99065 0.0
H601 H 0.80515 0.28312 0.98412 0.0
H602 H 0.81764 0.25804 0.00869 0.0
H603 H 0.84843 0.29046 0.02439 0.0
H604 H 0.70655 0.61198 0.79389 0.0
H605 H 0.73715 0.5807 0.77798 0.0
H606 H 0.68169 0.50318 0.75871 0.0
H607 H 0.65096 0.5346 0.77444 0.0
H608 H 0.75 0.49689 0.77641 0.0
H609 H 0.71514 0.55431 0.72309 0.0
H610 H 0.70569 0.57602 0.7403 0.0
H611 H 0.69287 0.52817 0.734 0.0
C612 C 0.70085 0.58849 0.78618 0.0
C613 C 0.67636 0.57584 0.78536 0.0
C614 C 0.71834 0.57064 0.77713 0.0
C615 C 0.71161 0.54004 0.76704 0.0
C616 C 0.68717 0.52732 0.76621 0.0
H617 H 0.7916 0.39107 0.70469 0.0
H618 H 0.76042 0.42195 0.7203 0.0
C619 C 0.66967 0.54515 0.77526 0.0
C620 C 0.73034 0.5204 0.75777 0.0
H621 H 0.74692 0.50475 0.72235 0.0
C622 C 0.74941 0.49873 0.76459 0.0
C623 C 0.72941 0.52274 0.74236 0.0
C624 C 0.70982 0.54685 0.73447 0.0
C625 C 0.76745 0.47879 0.7564 0.0
C626 C 0.76661 0.48129 0.74099 0.0
C627 C 0.74748 0.50285 0.73417 0.0
C628 C 0.78557 0.46218 0.73175 0.0
C629 C 0.78698 0.45456 0.76432 0.0
C630 C 0.80998 0.47487 0.73292 0.0
C631 C 0.82781 0.45723 0.72407 0.0
C632 C 0.8215 0.42681 0.71379 0.0
C633 C 0.79701 0.41435 0.71255 0.0
C634 C 0.77919 0.43198 0.72143 0.0
H635 H 0.78135 0.4464 0.77558 0.0
H636 H 0.79144 0.42576 0.75835 0.0
H637 H 0.80379 0.4735 0.7651 0.0
H638 H 0.81521 0.49876 0.74059 0.0
H639 H 0.8465 0.46767 0.7252 0.0
H640 H 0.54346 0.11535 0.95566 0.0
H641 H 0.51232 0.08491 0.97139 0.0
H642 H 0.56615 0.00267 0.98981 0.0
H643 H 0.59731 0.03256 0.974 0.0
H644 H 0.52287 0.96332 0.98144 0.0
H645 H 0.50415 0.10136 0.01544 0.0
H646 H 0.50167 0.10991 0.99612 0.0
H647 H 0.53079 0.09718 0.00406 0.0
C648 C 0.54868 0.09093 0.96312 0.0
C649 C 0.57283 0.07642 0.96365 0.0
C650 C 0.5309 0.07373 0.97215 0.0
C651 C 0.53702 0.04194 0.98191 0.0
C652 C 0.5611 0.02731 0.9824 0.0
H653 H 0.45834 0.89246 0.0447 0.0
H654 H 0.48911 0.92337 0.02883 0.0
C655 C 0.57887 0.04447 0.97338 0.0
C656 C 0.5182 0.02302 0.99131 0.0
H657 H 0.47784 0.04401 0.01854 0.0
C658 C 0.51308 0.98088 0.9896 0.0
C659 C 0.50545 0.04608 0.00191 0.0
C660 C 0.51089 0.09106 0.00463 0.0
C661 C 0.49527 0.96127 0.99807 0.0
C662 C 0.48255 0.98432 0.00868 0.0
C663 C 0.48762 0.02647 0.01037 0.0
C664 C 0.46393 0.96525 0.01818 0.0
C665 C 0.48988 0.91627 0.99539 0.0
C666 C 0.4397 0.97911 0.01763 0.0
C667 C 0.42212 0.96163 0.02671 0.0
C668 C 0.42853 0.93017 0.03657 0.0
C669 C 0.45285 0.9165 0.03716 0.0
C670 C 0.47041 0.93397 0.02805 0.0
H671 H 0.49667 0.90587 0.9846 0.0
H672 H 0.49905 0.8975 0.00394 0.0
H673 H 0.46997 0.91014 0.99594 0.0
H674 H 0.43438 0.00337 0.01013 0.0
H675 H 0.40355 0.97289 0.02604 0.0
H676 H 0.46191 0.36363 0.20444 0.0
H677 H 0.49324 0.33094 0.21977 0.0
H678 H 0.43802 0.25678 0.24039 0.0
H679 H 0.40667 0.28898 0.22506 0.0
H680 H 0.49639 0.3285 0.2507 0.0
H681 H 0.48876 0.17159 0.22684 0.0
H682 H 0.47634 0.21673 0.21796 0.0
H683 H 0.46038 0.19318 0.23286 0.0
C684 C 0.45647 0.34031 0.21223 0.0
C685 C 0.43187 0.32871 0.21351 0.0
C686 C 0.47436 0.32171 0.22097 0.0
C687 C 0.46797 0.29102 0.23104 0.0
C688 C 0.44338 0.27982 0.23248 0.0
H689 H 0.54518 0.14254 0.29488 0.0
H690 H 0.5149 0.17553 0.27893 0.0
C691 C 0.42549 0.29842 0.22378 0.0
C692 C 0.48693 0.2712 0.24024 0.0
H693 H 0.51302 0.17827 0.24828 0.0
C694 C 0.50016 0.29571 0.25012 0.0
C695 C 0.49173 0.22841 0.23946 0.0
C696 C 0.47873 0.20092 0.22863 0.0
C697 C 0.51773 0.27838 0.25951 0.0
C698 C 0.52246 0.23555 0.25877 0.0
C699 C 0.50931 0.21108 0.24883 0.0
C700 C 0.54091 0.21546 0.26828 0.0
C701 C 0.53064 0.30588 0.27038 0.0
C702 C 0.5656 0.22654 0.26739 0.0
C703 C 0.58291 0.20781 0.27648 0.0
C704 C 0.57584 0.17746 0.28656 0.0
C705 C 0.55116 0.16589 0.28725 0.0
C706 C 0.53386 0.18467 0.27815 0.0
H707 H 0.52069 0.33532 0.27207 0.0
H708 H 0.53278 0.29017 0.28108 0.0
H709 H 0.54909 0.31339 0.26625 0.0
H710 H 0.57149 0.24963 0.25963 0.0
H711 H 0.60182 0.21719 0.27565 0.0
H712 H 0.4012 0.77999 0.72374 0.0
H713 H 0.43249 0.74891 0.73945 0.0
H714 H 0.48644 0.83114 0.7216 0.0
H715 H 0.45521 0.86266 0.70594 0.0
H716 H 0.47601 0.70962 0.73073 0.0
H717 H 0.4947 0.84552 0.76599 0.0
H718 H 0.46782 0.84167 0.75456 0.0
H719 H 0.49669 0.85528 0.74673 0.0
C720 C 0.4197 0.79162 0.72322 0.0
C721 C 0.42575 0.82388 0.71366 0.0
C722 C 0.43754 0.77379 0.73218 0.0
C723 C 0.46168 0.78809 0.73181 0.0
C724 C 0.46781 0.82018 0.72224 0.0
H725 H 0.59579 0.71884 0.77609 0.0
H726 H 0.56452 0.74958 0.7603 0.0
C727 C 0.44998 0.83801 0.71325 0.0
C728 C 0.48057 0.76862 0.74117 0.0
H729 H 0.52112 0.78814 0.76877 0.0
C730 C 0.48582 0.72668 0.7391 0.0
C731 C 0.49333 0.79106 0.75203 0.0
C732 C 0.48777 0.83579 0.75509 0.0
C733 C 0.50382 0.70669 0.74746 0.0
C734 C 0.51657 0.72912 0.75834 0.0
C735 C 0.51132 0.77106 0.7604 0.0
C736 C 0.53548 0.7097 0.7677 0.0
C737 C 0.50942 0.662 0.74436 0.0
C738 C 0.52945 0.67729 0.77716 0.0
C739 C 0.54728 0.65963 0.78619 0.0
C740 C 0.57141 0.67427 0.78595 0.0
C741 C 0.57737 0.70682 0.77649 0.0
C742 C 0.55953 0.72445 0.76748 0.0
H743 H 0.50264 0.65242 0.73342 0.0
H744 H 0.52936 0.65608 0.74499 0.0
H745 H 0.50036 0.64241 0.75264 0.0
H746 H 0.51088 0.66598 0.7777 0.0
H747 H 0.54213 0.63474 0.79342 0.0
H748 H 0.4594 0.39276 0.54696 0.0
H749 H 0.49049 0.42563 0.53178 0.0
H750 H 0.43455 0.4958 0.50967 0.0
H751 H 0.40344 0.46348 0.52488 0.0
H752 H 0.49442 0.42559 0.50112 0.0
H753 H 0.48355 0.58437 0.52277 0.0
H754 H 0.47148 0.53962 0.53196 0.0
H755 H 0.45569 0.56106 0.51646 0.0
C756 C 0.45375 0.41525 0.53888 0.0
C757 C 0.42901 0.42571 0.53715 0.0
C758 C 0.47151 0.43397 0.53023 0.0
C759 C 0.46484 0.46361 0.51978 0.0
C760 C 0.44013 0.47363 0.51788 0.0
H761 H 0.54193 0.60853 0.45532 0.0
H762 H 0.51148 0.57606 0.47106 0.0
C763 C 0.42237 0.45495 0.52652 0.0
C764 C 0.48368 0.48344 0.51063 0.0
H765 H 0.50843 0.57673 0.50183 0.0
C766 C 0.49761 0.45859 0.50132 0.0
C767 C 0.48772 0.52652 0.51092 0.0
C768 C 0.474 0.55448 0.52115 0.0
C769 C 0.51517 0.47579 0.49205 0.0
C770 C 0.51915 0.51889 0.4923 0.0
C771 C 0.50528 0.54372 0.50165 0.0
C772 C 0.53765 0.5388 0.48294 0.0
C773 C 0.5289 0.44782 0.48183 0.0
C774 C 0.56246 0.52909 0.4846 0.0
C775 C 0.57985 0.54753 0.47563 0.0
C776 C 0.57274 0.57622 0.46491 0.0
C777 C 0.54793 0.58646 0.46346 0.0
C778 C 0.53054 0.56798 0.47243 0.0
H779 H 0.51952 0.41771 0.48035 0.0
H780 H 0.53114 0.46247 0.47097 0.0
H781 H 0.54733 0.4417 0.48643 0.0
H782 H 0.56838 0.50727 0.49284 0.0
H783 H 0.59885 0.5392 0.47707 0.0
H784 H 0.17191 0.738 0.33688 0.0
H785 H 0.17489 0.7991 0.35256 0.0
H786 H 0.09868 0.78728 0.36321 0.0
H787 H 0.09571 0.72586 0.34788 0.0
H788 H 0.15053 0.87225 0.35025 0.0
H789 H 0.12942 0.79883 0.40326 0.0
H790 H 0.13698 0.76927 0.38722 0.0
H791 H 0.10653 0.7888 0.38964 0.0
C792 C 0.15586 0.74825 0.34268 0.0
C793 C 0.13361 0.72702 0.34123 0.0
C794 C 0.15758 0.78315 0.35161 0.0
C795 C 0.13712 0.79732 0.35926 0.0
C796 C 0.11486 0.7763 0.35773 0.0
H797 H 0.09487 0.02047 0.40199 0.0
H798 H 0.09862 0.95715 0.38762 0.0
C799 C 0.11316 0.74134 0.34888 0.0
C800 C 0.13867 0.83508 0.36836 0.0
H801 H 0.12699 0.87263 0.40245 0.0
C802 C 0.14568 0.87223 0.3617 0.0
C803 C 0.13247 0.83497 0.38334 0.0
C804 C 0.12617 0.79575 0.39133 0.0
C805 C 0.14576 0.90948 0.36951 0.0
C806 C 0.13865 0.90948 0.38428 0.0
C807 C 0.13228 0.87234 0.39107 0.0
C808 C 0.13682 0.94812 0.3927 0.0
C809 C 0.15289 0.9489 0.36194 0.0
C810 C 0.15712 0.96375 0.40026 0.0
C811 C 0.15505 0.99988 0.40851 0.0
C812 C 0.13262 0.02081 0.40929 0.0
C813 C 0.11239 0.0051 0.40158 0.0
C814 C 0.11447 0.96896 0.39339 0.0
H815 H 0.1582 0.9437 0.3504 0.0
H816 H 0.1374 0.97094 0.36219 0.0
H817 H 0.16841 0.96345 0.36785 0.0
H818 H 0.17449 0.94789 0.39983 0.0
H819 H 0.17094 0.01128 0.41433 0.0
H820 H 0.09288 0.26098 0.42258 0.0
H821 H 0.09099 0.32285 0.40735 0.0
H822 H 0.13374 0.26176 0.37442 0.0
H823 H 0.13645 0.20038 0.38985 0.0
H824 H 0.15115 0.33582 0.37967 0.0
H825 H 0.05127 0.34887 0.3717 0.0
H826 H 0.05968 0.34756 0.39064 0.0
H827 H 0.06541 0.30334 0.37927 0.0
C828 C 0.10164 0.26062 0.41202 0.0
C829 C 0.11479 0.22588 0.40738 0.0
C830 C 0.1004 0.29591 0.40327 0.0
C831 C 0.11186 0.29678 0.38961 0.0
C832 C 0.12467 0.26178 0.38489 0.0
H833 H 0.09358 0.48982 0.32431 0.0
H834 H 0.09155 0.42599 0.33852 0.0
C835 C 0.12619 0.22672 0.3937 0.0
C836 C 0.11189 0.33494 0.38066 0.0
H837 H 0.07495 0.40803 0.36527 0.0
C838 C 0.13446 0.35142 0.37644 0.0
C839 C 0.09012 0.35506 0.37626 0.0
C840 C 0.06526 0.33757 0.37957 0.0
C841 C 0.13591 0.38769 0.36816 0.0
C842 C 0.1142 0.40891 0.36438 0.0
C843 C 0.09159 0.39208 0.36836 0.0
C844 C 0.1146 0.44826 0.35612 0.0
C845 C 0.1607 0.40237 0.3633 0.0
C846 C 0.12773 0.48233 0.36144 0.0
C847 C 0.12916 0.5186 0.35327 0.0
C848 C 0.11707 0.52174 0.33974 0.0
C849 C 0.10312 0.48824 0.33469 0.0
C850 C 0.10194 0.45178 0.3428 0.0
H851 H 0.1742 0.37681 0.36321 0.0
H852 H 0.15983 0.41615 0.35222 0.0
H853 H 0.16748 0.42616 0.37104 0.0
H854 H 0.13707 0.48077 0.37189 0.0
H855 H 0.13983 0.54409 0.3575 0.0
H856 H 0.09945 0.21691 0.85328 0.0
H857 H 0.10246 0.27996 0.86782 0.0
H858 H 0.17119 0.30872 0.84759 0.0
H859 H 0.16816 0.24586 0.83283 0.0
H860 H 0.13844 0.30553 0.88764 0.0
H861 H 0.13032 0.41317 0.84065 0.0
H862 H 0.12309 0.35903 0.83921 0.0
H863 H 0.15435 0.37573 0.83924 0.0
C864 C 0.11524 0.2366 0.85194 0.0
C865 C 0.13351 0.22659 0.84185 0.0
C866 C 0.11694 0.27258 0.86027 0.0
C867 C 0.13687 0.29928 0.85863 0.0
C868 C 0.15544 0.2889 0.84882 0.0
H869 H 0.16906 0.50307 0.9185 0.0
H870 H 0.17188 0.44028 0.90372 0.0
C871 C 0.15375 0.25289 0.84046 0.0
C872 C 0.138 0.33806 0.86716 0.0
H873 H 0.13751 0.44293 0.86384 0.0
C874 C 0.13834 0.3356 0.88246 0.0
C875 C 0.13756 0.37719 0.86034 0.0
C876 C 0.1361 0.38167 0.84396 0.0
C877 C 0.13821 0.37127 0.89114 0.0
C878 C 0.13811 0.41041 0.88432 0.0
C879 C 0.13781 0.41286 0.86902 0.0
C880 C 0.13708 0.44916 0.89286 0.0
C881 C 0.13743 0.36676 0.90753 0.0
C882 C 0.11695 0.47555 0.89133 0.0
C883 C 0.11537 0.5115 0.89967 0.0
C884 C 0.13396 0.52179 0.90966 0.0
C885 C 0.15439 0.49581 0.91095 0.0
C886 C 0.15597 0.45984 0.90258 0.0
H887 H 0.13196 0.33517 0.91086 0.0
H888 H 0.15584 0.37298 0.91214 0.0
H889 H 0.1245 0.38919 0.91237 0.0
H890 H 0.10223 0.46794 0.88385 0.0
H891 H 0.09942 0.53094 0.89841 0.0
H892 H 0.08157 0.7433 0.91747 0.0
H893 H 0.07779 0.80524 0.9023 0.0
H894 H 0.14828 0.7806 0.88359 0.0
H895 H 0.15206 0.71846 0.89854 0.0
H896 H 0.10823 0.87347 0.90223 0.0
H897 H 0.10544 0.80018 0.84758 0.0
H898 H 0.10069 0.77151 0.86421 0.0
H899 H 0.13109 0.78429 0.85849 0.0
C900 C 0.09615 0.7509 0.91001 0.0
C901 C 0.11707 0.72597 0.90914 0.0
C902 C 0.09398 0.78628 0.90138 0.0
C903 C 0.11259 0.79718 0.89167 0.0
C904 C 0.13347 0.77228 0.89077 0.0
H905 H 0.14911 0.03234 0.85432 0.0
H906 H 0.14563 0.96968 0.86901 0.0
C907 C 0.13565 0.73691 0.89939 0.0
C908 C 0.11077 0.83561 0.88298 0.0
H909 H 0.11253 0.87285 0.84815 0.0
C910 C 0.10895 0.87335 0.8904 0.0
C911 C 0.11139 0.83533 0.86755 0.0
C912 C 0.11202 0.79564 0.85896 0.0
C913 C 0.10856 0.91093 0.8828 0.0
C914 C 0.11039 0.91072 0.86741 0.0
C915 C 0.11137 0.87294 0.85997 0.0
C916 C 0.11195 0.94936 0.85884 0.0
C917 C 0.10614 0.95052 0.89132 0.0
C918 C 0.09439 0.95836 0.84809 0.0
C919 C 0.09638 0.99409 0.83964 0.0
C920 C 0.1161 0.02123 0.84173 0.0
C921 C 0.13364 0.01214 0.85252 0.0
C922 C 0.13161 0.97647 0.86097 0.0
H923 H 0.09815 0.94509 0.90226 0.0
H924 H 0.12449 0.96432 0.89292 0.0
H925 H 0.09458 0.97314 0.88536 0.0
H926 H 0.07916 0.93768 0.84623 0.0
H927 H 0.08264 1.00021 0.83136 0.0
H928 H 0.83439 0.25131 0.66994 0.0
H929 H 0.83197 0.18834 0.6552 0.0
H930 H 0.89625 0.22538 0.63171 0.0
H931 H 0.89872 0.28846 0.64631 0.0
H932 H 0.85735 0.19522 0.61376 0.0
H933 H 0.87967 0.08986 0.65985 0.0
H934 H 0.85469 0.12468 0.66288 0.0
H935 H 0.88498 0.14475 0.66071 0.0
C936 C 0.84794 0.24611 0.66159 0.0
C937 C 0.86682 0.27469 0.65932 0.0
C938 C 0.84659 0.21007 0.65324 0.0
C939 C 0.86412 0.20202 0.64252 0.0
C940 C 0.88261 0.231 0.63998 0.0
H941 H 0.90559 0.97579 0.6004 0.0
H942 H 0.90239 0.03869 0.61499 0.0
C943 C 0.88401 0.26696 0.64833 0.0
C944 C 0.86347 0.16319 0.63403 0.0
H945 H 0.87019 0.05892 0.63717 0.0
C946 C 0.86005 0.16536 0.61886 0.0
C947 C 0.86729 0.12443 0.64073 0.0
C948 C 0.87207 0.12055 0.65692 0.0
C949 C 0.86038 0.1297 0.61017 0.0
C950 C 0.8639 0.09086 0.6169 0.0
C951 C 0.86729 0.08872 0.63208 0.0
C952 C 0.86531 0.05224 0.6083 0.0
C953 C 0.85768 0.13404 0.59384 0.0
C954 C 0.84536 0.03866 0.59989 0.0
C955 C 0.84717 0.00277 0.59149 0.0
C956 C 0.8689 0.97974 0.59148 0.0
C957 C 0.88862 0.99292 0.60018 0.0
C958 C 0.88682 0.02881 0.60852 0.0
H959 H 0.86084 0.16624 0.59018 0.0
H960 H 0.87062 0.11345 0.58808 0.0
H961 H 0.83887 0.12516 0.59056 0.0
H962 H 0.82843 0.05585 0.5998 0.0
H963 H 0.83162 0.99322 0.58496 0.0
H964 H 0.91804 0.49885 0.66875 0.0
H965 H 0.92116 0.56168 0.65402 0.0
H966 H 0.8518 0.53426 0.63373 0.0
H967 H 0.8487 0.47121 0.64825 0.0
H968 H 0.88751 0.55901 0.61394 0.0
H969 H 0.88127 0.667 0.66087 0.0
H970 H 0.90505 0.62908 0.66233 0.0
H971 H 0.87368 0.61302 0.66235 0.0
C972 C 0.9035 0.50618 0.66112 0.0
C973 C 0.88306 0.48024 0.6597 0.0
C974 C 0.90524 0.54217 0.65278 0.0
C975 C 0.88653 0.55291 0.64296 0.0
C976 C 0.86639 0.52659 0.6413 0.0
H977 H 0.85031 0.78527 0.60295 0.0
H978 H 0.85285 0.72236 0.6176 0.0
C979 C 0.86463 0.49062 0.64961 0.0
C980 C 0.88777 0.59162 0.63441 0.0
H981 H 0.8883 0.69651 0.63768 0.0
C982 C 0.88777 0.5891 0.61912 0.0
C983 C 0.88783 0.63079 0.64121 0.0
C984 C 0.88674 0.63537 0.65759 0.0
C985 C 0.88779 0.62473 0.61042 0.0
C986 C 0.88819 0.66389 0.61722 0.0
C987 C 0.88822 0.66642 0.63252 0.0
C988 C 0.88736 0.70262 0.60866 0.0
C989 C 0.88663 0.62017 0.59403 0.0
C990 C 0.90616 0.71273 0.59896 0.0
C991 C 0.90473 0.74865 0.59055 0.0
C992 C 0.88454 0.77513 0.59176 0.0
C993 C 0.86606 0.76542 0.60175 0.0
C994 C 0.86749 0.72953 0.61014 0.0
H995 H 0.8808 0.58872 0.5907 0.0
H996 H 0.87382 0.64294 0.58917 0.0
H997 H 0.905 0.62588 0.58944 0.0
H998 H 0.92187 0.69276 0.59786 0.0
H999 H 0.9193 0.75544 0.583 0.0
H1000 H 0.89924 0.47207 0.10362 0.0
H1001 H 0.89562 0.53455 0.11838 0.0
H1002 H 0.82739 0.56348 0.09699 0.0
H1003 H 0.83106 0.50122 0.08201 0.0
H1004 H 0.85909 0.62964 0.09813 0.0
H1005 H 0.85058 0.55758 0.15271 0.0
H1006 H 0.87673 0.53996 0.14281 0.0
H1007 H 0.84659 0.52887 0.13597 0.0
C1008 C 0.88335 0.49154 0.10215 0.0
C1009 C 0.86539 0.48171 0.09169 0.0
C1010 C 0.88124 0.5271 0.11065 0.0
C1011 C 0.86105 0.55332 0.10894 0.0
C1012 C 0.84304 0.54351 0.09854 0.0
H1013 H 0.83161 0.75842 0.1682 0.0
H1014 H 0.82773 0.69608 0.15325 0.0
C1015 C 0.84514 0.50793 0.09001 0.0
C1016 C 0.8594 0.59199 0.1175 0.0
H1017 H 0.85944 0.62973 0.15228 0.0
C1018 C 0.85894 0.62968 0.10997 0.0
C1019 C 0.85888 0.59195 0.13293 0.0
C1020 C 0.85797 0.55242 0.14159 0.0
C1021 C 0.85879 0.6674 0.11748 0.0
C1022 C 0.85952 0.66737 0.13292 0.0
C1023 C 0.85914 0.62968 0.14044 0.0
C1024 C 0.86131 0.70604 0.14148 0.0
C1025 C 0.85779 0.70694 0.10882 0.0
C1026 C 0.88152 0.73217 0.13985 0.0
C1027 C 0.88376 0.76777 0.14835 0.0
C1028 C 0.86589 0.77773 0.1587 0.0
C1029 C 0.84562 0.7516 0.16028 0.0
C1030 C 0.84339 0.71598 0.15177 0.0
H1031 H 0.85028 0.70179 0.09767 0.0
H1032 H 0.84647 0.73048 0.11439 0.0
H1033 H 0.87654 0.71941 0.10769 0.0
H1034 H 0.89581 0.72463 0.1322 0.0
H1035 H 0.89966 0.78716 0.14695 0.0
H1036 H 0.92068 0.9929 0.16364 0.0
H1037 H 0.92317 0.05632 0.14908 0.0
H1038 H 0.84687 0.04549 0.13804 0.0
H1039 H 0.84421 0.98204 0.15243 0.0
H1040 H 0.9016 0.06451 0.11545 0.0
H1041 H 0.8647 0.16595 0.15915 0.0
H1042 H 0.88159 0.11947 0.16328 0.0
H1043 H 0.85103 0.11598 0.15631 0.0
C1044 C 0.90448 0.00393 0.15805 0.0
C1045 C 0.88224 0.98257 0.15918 0.0
C1046 C 0.90595 0.04005 0.14975 0.0
C1047 C 0.88518 0.05543 0.14259 0.0
C1048 C 0.86305 0.03398 0.14355 0.0
H1049 H 0.84307 0.27504 0.0966 0.0
H1050 H 0.84608 0.21218 0.11121 0.0
C1051 C 0.86159 0.99778 0.15175 0.0
C1052 C 0.88635 0.09432 0.13426 0.0
H1053 H 0.87127 0.19617 0.13612 0.0
C1054 C 0.89518 0.09345 0.11995 0.0
C1055 C 0.87779 0.13168 0.14021 0.0
C1056 C 0.86829 0.13377 0.15561 0.0
C1057 C 0.89508 0.12909 0.11123 0.0
C1058 C 0.88644 0.16665 0.11717 0.0
C1059 C 0.87794 0.16744 0.1316 0.0
C1060 C 0.88504 0.20511 0.10843 0.0
C1061 C 0.90335 0.12579 0.0956 0.0
C1062 C 0.90601 0.22241 0.10219 0.0
C1063 C 0.9043 0.2582 0.09372 0.0
C1064 C 0.88164 0.27759 0.09153 0.0
C1065 C 0.86079 0.26078 0.09809 0.0
C1066 C 0.86248 0.22488 0.10645 0.0
H1067 H 0.9033 0.09334 0.09171 0.0
H1068 H 0.8915 0.14436 0.08824 0.0
H1069 H 0.92228 0.13766 0.09475 0.0
H1070 H 0.9237 0.20826 0.10388 0.0
H1071 H 0.92071 0.27065 0.08888 0.0
H1072 H 0.66877 0.7441 0.83292 0.0
H1073 H 0.67245 0.8062 0.84801 0.0
H1074 H 0.60258 0.78019 0.86731 0.0
H1075 H 0.59893 0.71787 0.85243 0.0
H1076 H 0.64167 0.87371 0.84823 0.0
H1077 H 0.64589 0.80117 0.90297 0.0
H1078 H 0.65044 0.77235 0.88635 0.0
H1079 H 0.6201 0.78476 0.89227 0.0
C1080 C 0.65431 0.75142 0.84049 0.0
C1081 C 0.6336 0.72606 0.84154 0.0
C1082 C 0.65643 0.7869 0.84908 0.0
C1083 C 0.63795 0.79748 0.85893 0.0
C1084 C 0.61729 0.77213 0.86002 0.0
H1085 H 0.60143 0.03307 0.89618 0.0
H1086 H 0.60474 0.97033 0.88152 0.0
C1087 C 0.61517 0.73665 0.85145 0.0
C1088 C 0.63968 0.83605 0.86755 0.0
H1089 H 0.63842 0.87371 0.90234 0.0
C1090 C 0.64117 0.87373 0.86007 0.0
C1091 C 0.63935 0.83596 0.88299 0.0
C1092 C 0.6391 0.79638 0.89164 0.0
C1093 C 0.64155 0.91141 0.8676 0.0
C1094 C 0.64003 0.91137 0.88301 0.0
C1095 C 0.63934 0.87367 0.89051 0.0
C1096 C 0.63856 0.9501 0.89154 0.0
C1097 C 0.64366 0.95091 0.859 0.0
C1098 C 0.65626 0.95919 0.9022 0.0
C1099 C 0.65435 0.99495 0.91065 0.0
C1100 C 0.63459 0.02205 0.90864 0.0
C1101 C 0.61694 0.01291 0.89792 0.0
C1102 C 0.61887 0.97719 0.88948 0.0
H1103 H 0.6515 0.94542 0.84802 0.0
H1104 H 0.62523 0.96445 0.85748 0.0
H1105 H 0.65522 0.97376 0.86486 0.0
H1106 H 0.67151 0.93854 0.90401 0.0
H1107 H 0.66819 1.00111 0.91886 0.0
H1108 H 0.65669 0.22788 0.9025 0.0
H1109 H 0.65355 0.29073 0.8879 0.0
H1110 H 0.5765 0.29734 0.8969 0.0
H1111 H 0.57965 0.23493 0.91186 0.0
H1112 H 0.62685 0.30766 0.86349 0.0
H1113 H 0.5993 0.41148 0.90872 0.0
H1114 H 0.61072 0.36005 0.91188 0.0
H1115 H 0.57963 0.36781 0.90611 0.0
C1116 C 0.63907 0.24271 0.90138 0.0
C1117 C 0.61843 0.22665 0.9084 0.0
C1118 C 0.6373 0.27861 0.89302 0.0
C1119 C 0.61489 0.29914 0.89151 0.0
C1120 C 0.5941 0.28259 0.8982 0.0
H1121 H 0.57937 0.51116 0.83614 0.0
H1122 H 0.57679 0.44776 0.85071 0.0
C1123 C 0.59589 0.24678 0.90666 0.0
C1124 C 0.61343 0.33768 0.88282 0.0
H1125 H 0.6 0.44044 0.88498 0.0
C1126 C 0.62092 0.33663 0.86819 0.0
C1127 C 0.60578 0.37555 0.88899 0.0
C1128 C 0.59861 0.37906 0.90482 0.0
C1129 C 0.62103 0.37244 0.8596 0.0
C1130 C 0.61344 0.41011 0.86579 0.0
C1131 C 0.60565 0.41126 0.88031 0.0
C1132 C 0.61465 0.44898 0.85745 0.0
C1133 C 0.62951 0.37014 0.844 0.0
C1134 C 0.63674 0.47058 0.85663 0.0
C1135 C 0.63826 0.50675 0.84841 0.0
C1136 C 0.61771 0.52179 0.84084 0.0
C1137 C 0.5955 0.50028 0.84185 0.0
C1138 C 0.59398 0.46416 0.85014 0.0
H1139 H 0.63298 0.33793 0.84044 0.0
H1140 H 0.61562 0.38413 0.83663 0.0
H1141 H 0.6466 0.38816 0.84282 0.0
H1142 H 0.65285 0.45919 0.86224 0.0
H1143 H 0.65562 0.52259 0.84783 0.0
H1144 H 0.59798 0.22261 0.35135 0.0
H1145 H 0.60059 0.28555 0.36598 0.0
H1146 H 0.6742 0.30523 0.35118 0.0
H1147 H 0.6716 0.24252 0.33631 0.0
H1148 H 0.63301 0.30713 0.38835 0.0
H1149 H 0.63999 0.41428 0.34121 0.0
H1150 H 0.63081 0.36113 0.33917 0.0
H1151 H 0.66244 0.37394 0.34172 0.0
C1152 C 0.61475 0.24028 0.35123 0.0
C1153 C 0.63454 0.22779 0.34262 0.0
C1154 C 0.61621 0.2762 0.3596 0.0
C1155 C 0.63745 0.30035 0.35949 0.0
C1156 C 0.65747 0.28744 0.35119 0.0
H1157 H 0.66681 0.50237 0.42043 0.0
H1158 H 0.66986 0.43921 0.40586 0.0
C1159 C 0.65601 0.25152 0.34278 0.0
C1160 C 0.63842 0.3391 0.36804 0.0
H1161 H 0.64315 0.4437 0.36476 0.0
C1162 C 0.63534 0.33699 0.38322 0.0
C1163 C 0.64119 0.37801 0.36126 0.0
C1164 C 0.64359 0.38224 0.34493 0.0
C1165 C 0.63491 0.3728 0.39182 0.0
C1166 C 0.63793 0.41164 0.38506 0.0
C1167 C 0.64105 0.41379 0.36989 0.0
C1168 C 0.63677 0.45051 0.39348 0.0
C1169 C 0.63055 0.36897 0.408 0.0
C1170 C 0.61748 0.47814 0.39108 0.0
C1171 C 0.61569 0.51418 0.39936 0.0
C1172 C 0.63329 0.52333 0.41011 0.0
C1173 C 0.65293 0.49606 0.41226 0.0
C1174 C 0.65465 0.45992 0.404 0.0
H1175 H 0.62392 0.33777 0.41103 0.0
H1176 H 0.6479 0.37478 0.41398 0.0
H1177 H 0.61702 0.39218 0.41167 0.0
H1178 H 0.60355 0.47143 0.38297 0.0
H1179 H 0.60039 0.53464 0.39744 0.0
H1180 H 0.58151 0.74816 0.41894 0.0
H1181 H 0.57794 0.81035 0.40387 0.0
H1182 H 0.6457 0.78023 0.38273 0.0
H1183 H 0.64925 0.71789 0.3976 0.0
H1184 H 0.61027 0.87605 0.40275 0.0
H1185 H 0.60003 0.80361 0.34826 0.0
H1186 H 0.59604 0.77524 0.36503 0.0
H1187 H 0.62617 0.78537 0.35825 0.0
C1188 C 0.59552 0.7546 0.41097 0.0
C1189 C 0.61562 0.72811 0.40941 0.0
C1190 C 0.59347 0.79013 0.4024 0.0
C1191 C 0.61138 0.79958 0.39205 0.0
C1192 C 0.63141 0.77307 0.39043 0.0
H1193 H 0.6516 0.03182 0.35389 0.0
H1194 H 0.64739 0.9694 0.36861 0.0
C1195 C 0.63348 0.73758 0.399 0.0
C1196 C 0.60983 0.83819 0.38344 0.0
H1197 H 0.60956 0.87552 0.3486 0.0
C1198 C 0.60988 0.87597 0.39091 0.0
C1199 C 0.609 0.83799 0.368 0.0
C1200 C 0.60755 0.79838 0.3594 0.0
C1201 C 0.60998 0.9136 0.38335 0.0
C1202 C 0.61041 0.91337 0.36791 0.0
C1203 C 0.60949 0.87562 0.36044 0.0
C1204 C 0.61249 0.9519 0.35931 0.0
C1205 C 0.60957 0.95326 0.39196 0.0
C1206 C 0.59448 0.96237 0.34899 0.0
C1207 C 0.59692 0.99793 0.34049 0.0
C1208 C 0.61749 0.02345 0.3421 0.0
C1209 C 0.63547 0.01291 0.35246 0.0
C1210 C 0.63303 0.97737 0.36094 0.0
H1211 H 0.60222 0.94846 0.4031 0.0
H1212 H 0.62847 0.96516 0.3931 0.0
H1213 H 0.5984 0.97708 0.38633 0.0
H1214 H 0.57857 0.94297 0.3475 0.0
H1215 H 0.5828 0.00521 0.33256 0.0
H1216 H 0.40201 0.28777 0.1472 0.0
H1217 H 0.39805 0.2253 0.13244 0.0
H1218 H 0.33066 0.19573 0.15409 0.0
H1219 H 0.33464 0.25806 0.16905 0.0
H1220 H 0.36285 0.12967 0.15267 0.0
H1221 H 0.35141 0.20255 0.09833 0.0
H1222 H 0.37783 0.22051 0.10813 0.0
H1223 H 0.34789 0.23082 0.11517 0.0
C1224 C 0.38624 0.26816 0.14874 0.0
C1225 C 0.36859 0.27786 0.15925 0.0
C1226 C 0.38394 0.23259 0.14024 0.0
C1227 C 0.36388 0.20621 0.14202 0.0
C1228 C 0.3462 0.21584 0.15249 0.0
H1229 H 0.33264 1.00146 0.08264 0.0
H1230 H 0.32917 0.06357 0.09772 0.0
C1231 C 0.34848 0.25145 0.161 0.0
C1232 C 0.362 0.16765 0.13339 0.0
H1233 H 0.36055 0.13053 0.09853 0.0
C1234 C 0.36212 0.12983 0.14084 0.0
C1235 C 0.36073 0.16795 0.11797 0.0
C1236 C 0.35921 0.20763 0.10942 0.0
C1237 C 0.36184 0.09223 0.13324 0.0
C1238 C 0.3618 0.09255 0.1178 0.0
C1239 C 0.36083 0.13037 0.11037 0.0
C1240 C 0.36341 0.05406 0.10914 0.0
C1241 C 0.36152 0.05253 0.14182 0.0
C1242 C 0.38386 0.02828 0.11051 0.0
C1243 C 0.38587 0.99282 0.10194 0.0
C1244 C 0.36753 0.98264 0.09176 0.0
C1245 C 0.34703 0.00845 0.09042 0.0
C1246 C 0.34503 0.04394 0.099 0.0
H1247 H 0.35456 0.05735 0.15305 0.0
H1248 H 0.35006 0.02889 0.13631 0.0
H1249 H 0.38039 0.04037 0.14273 0.0
H1250 H 0.3985 0.03598 0.11803 0.0
H1251 H 0.40195 0.97369 0.10316 0.0
H1252 H 0.42012 0.50389 0.16925 0.0
H1253 H 0.4227 0.56695 0.1546 0.0
H1254 H 0.35534 0.53503 0.13276 0.0
H1255 H 0.35275 0.47183 0.14724 0.0
H1256 H 0.39234 0.56246 0.11383 0.0
H1257 H 0.37909 0.66914 0.16061 0.0
H1258 H 0.40356 0.63269 0.16272 0.0
H1259 H 0.3726 0.61467 0.16173 0.0
C1260 C 0.40591 0.51026 0.16129 0.0
C1261 C 0.38616 0.48305 0.15944 0.0
C1262 C 0.40735 0.54637 0.15299 0.0
C1263 C 0.38903 0.5559 0.14276 0.0
C1264 C 0.36961 0.52829 0.14065 0.0
H1265 H 0.34911 0.78528 0.10193 0.0
H1266 H 0.35236 0.72238 0.11654 0.0
C1267 C 0.36815 0.49224 0.14894 0.0
C1268 C 0.38986 0.59476 0.13428 0.0
H1269 H 0.38685 0.69949 0.13766 0.0
C1270 C 0.39125 0.59246 0.11902 0.0
C1271 C 0.38814 0.63376 0.14111 0.0
C1272 C 0.38555 0.63795 0.15743 0.0
C1273 C 0.39092 0.62818 0.11036 0.0
C1274 C 0.3895 0.66722 0.1172 0.0
C1275 C 0.38816 0.66951 0.13247 0.0
C1276 C 0.38819 0.70596 0.10866 0.0
C1277 C 0.39135 0.62378 0.09397 0.0
C1278 C 0.40746 0.71793 0.09958 0.0
C1279 C 0.40563 0.75385 0.09119 0.0
C1280 C 0.38456 0.77847 0.09182 0.0
C1281 C 0.36556 0.7669 0.10119 0.0
C1282 C 0.36739 0.73101 0.10955 0.0
H1283 H 0.38684 0.59189 0.09043 0.0
H1284 H 0.37826 0.64541 0.08873 0.0
H1285 H 0.40989 0.63124 0.08997 0.0
H1286 H 0.42386 0.69943 0.09895 0.0
H1287 H 0.42062 0.76211 0.08412 0.0
H1288 H 0.32972 0.75208 0.66771 0.0
H1289 H 0.32691 0.68924 0.65292 0.0
H1290 H 0.39537 0.7191 0.63256 0.0
H1291 H 0.39816 0.78212 0.64714 0.0
H1292 H 0.35937 0.69276 0.61281 0.0
H1293 H 0.36859 0.58563 0.65988 0.0
H1294 H 0.34433 0.62265 0.66129 0.0
H1295 H 0.37548 0.63992 0.66126 0.0
C1296 C 0.34411 0.74531 0.66004 0.0
C1297 C 0.36422 0.77188 0.65863 0.0
C1298 C 0.34255 0.70932 0.65166 0.0
C1299 C 0.36112 0.69924 0.64181 0.0
C1300 C 0.3809 0.72625 0.64014 0.0
H1301 H 0.40105 0.46878 0.60226 0.0
H1302 H 0.3974 0.53178 0.61675 0.0
C1303 C 0.38247 0.7622 0.64849 0.0
C1304 C 0.36021 0.66039 0.63331 0.0
H1305 H 0.36176 0.55557 0.63673 0.0
C1306 C 0.35977 0.66273 0.61801 0.0
C1307 C 0.36103 0.62132 0.64017 0.0
C1308 C 0.3626 0.61699 0.65655 0.0
C1309 C 0.36023 0.627 0.60936 0.0
C1310 C 0.36078 0.58792 0.61622 0.0
C1311 C 0.36112 0.58559 0.63152 0.0
C1312 C 0.3623 0.54915 0.60771 0.0
C1313 C 0.36091 0.63142 0.59297 0.0
C1314 C 0.34357 0.53768 0.59801 0.0
C1315 C 0.34563 0.5017 0.58968 0.0
C1316 C 0.3664 0.47651 0.591 0.0
C1317 C 0.38485 0.4876 0.60098 0.0
C1318 C 0.38278 0.52355 0.60928 0.0
H1319 H 0.36595 0.66318 0.58959 0.0
H1320 H 0.37412 0.60944 0.58814 0.0
H1321 H 0.34258 0.62445 0.58838 0.0
H1322 H 0.3274 0.55662 0.59684 0.0
H1323 H 0.33107 0.49382 0.58213 0.0
H1324 H 0.35146 0.28413 0.60384 0.0
H1325 H 0.35436 0.22141 0.61858 0.0
H1326 H 0.41972 0.18639 0.59577 0.0
H1327 H 0.41685 0.24902 0.58088 0.0
H1328 H 0.38484 0.12316 0.59772 0.0
H1329 H 0.40276 0.19465 0.65175 0.0
H1330 H 0.37659 0.21539 0.6424 0.0
H1331 H 0.40647 0.22232 0.6348 0.0
C1332 C 0.36657 0.26326 0.60205 0.0
C1333 C 0.38398 0.27152 0.59124 0.0
C1334 C 0.36827 0.22755 0.61052 0.0
C1335 C 0.38743 0.19956 0.60839 0.0
C1336 C 0.40487 0.20776 0.59763 0.0
H1337 H 0.4174 0.9919 0.66653 0.0
H1338 H 0.42119 0.0539 0.65143 0.0
C1339 C 0.40323 0.24355 0.58916 0.0
C1340 C 0.38859 0.16087 0.61695 0.0
H1341 H 0.39172 0.12352 0.65175 0.0
C1342 C 0.38655 0.12317 0.60953 0.0
C1343 C 0.39111 0.16099 0.63233 0.0
C1344 C 0.3946 0.20047 0.6408 0.0
C1345 C 0.3862 0.08557 0.61711 0.0
C1346 C 0.3876 0.08581 0.63254 0.0
C1347 C 0.39042 0.12344 0.63993 0.0
C1348 C 0.38565 0.04746 0.64124 0.0
C1349 C 0.38442 0.04594 0.60854 0.0
C1350 C 0.36437 0.02346 0.64058 0.0
C1351 C 0.36218 0.98805 0.64915 0.0
C1352 C 0.38118 0.97617 0.65864 0.0
C1353 C 0.40249 1.00023 0.65929 0.0
C1354 C 0.40467 0.03565 0.65069 0.0
H1355 H 0.3904 0.05017 0.59708 0.0
H1356 H 0.39565 0.0213 0.61365 0.0
H1357 H 0.36515 0.03547 0.60831 0.0
H1358 H 0.34927 0.03249 0.63359 0.0
H1359 H 0.34547 0.97028 0.64849 0.0
loop_
_geom_bond_atom_site_label_1
_geom_bond_atom_site_label_2
_geom_bond_distance
_geom_bond_site_symmetry_2
_ccdc_geom_bond_type
In0 O1 2.294 . S
In0 O2 2.326 . S
In0 O6 2.266 . S
In0 O7 2.326 . S
In0 O8 2.266 . S
In0 O9 2.326 . S
In0 O11 2.294 . S
In0 O12 2.326 . S
O1 In0 2.294 . S
O1 C10 1.240 . S
O2 In0 2.326 . S
O2 C10 1.252 . S
C3 O6 1.252 . S
C3 O7 1.260 . S
C4 O11 1.240 . S
C4 O12 1.252 . S
C5 O8 1.252 . S
C5 O9 1.260 . S
O6 In0 2.266 . S
O6 C3 1.252 . S
O7 In0 2.326 . S
O7 C3 1.260 . S
O8 In0 2.266 . S
O8 C5 1.252 . S
O9 In0 2.326 . S
O9 C5 1.260 . S
C10 O1 1.240 . S
C10 O2 1.252 . S
O11 In0 2.294 . S
O11 C4 1.240 . S
O12 In0 2.326 . S
O12 C4 1.252 . S
In13 O14 2.294 . S
In13 O15 2.326 . S
In13 O19 2.266 . S
In13 O20 2.326 . S
In13 O21 2.266 . S
In13 O22 2.326 . S
In13 O24 2.294 . S
In13 O25 2.326 . S
O14 In13 2.294 . S
O14 C23 1.240 . S
O15 In13 2.326 . S
O15 C23 1.252 . S
C16 O19 1.252 . S
C16 O20 1.260 . S
C17 O24 1.240 . S
C17 O25 1.252 . S
C18 O21 1.252 . S
C18 O22 1.260 . S
O19 In13 2.266 . S
O19 C16 1.252 . S
O20 In13 2.326 . S
O20 C16 1.260 . S
O21 In13 2.266 . S
O21 C18 1.252 . S
O22 In13 2.326 . S
O22 C18 1.260 . S
C23 O14 1.240 . S
C23 O15 1.252 . S
O24 In13 2.294 . S
O24 C17 1.240 . S
O25 In13 2.326 . S
O25 C17 1.252 . S
In26 O27 2.294 . S
In26 O28 2.326 . S
In26 O32 2.266 . S
In26 O33 2.326 . S
In26 O34 2.266 . S
In26 O35 2.326 . S
In26 O37 2.294 . S
In26 O38 2.326 . S
O27 In26 2.294 . S
O27 C36 1.240 . S
O28 In26 2.326 . S
O28 C36 1.252 . S
C29 O32 1.252 . S
C29 O33 1.260 . S
C30 O37 1.240 . S
C30 O38 1.252 . S
C31 O34 1.252 . S
C31 O35 1.260 . S
O32 In26 2.266 . S
O32 C29 1.252 . S
O33 In26 2.326 . S
O33 C29 1.260 . S
O34 In26 2.266 . S
O34 C31 1.252 . S
O35 In26 2.326 . S
O35 C31 1.260 . S
C36 O27 1.240 . S
C36 O28 1.252 . S
O37 In26 2.294 . S
O37 C30 1.240 . S
O38 In26 2.326 . S
O38 C30 1.252 . S
In39 O40 2.294 . S
In39 O41 2.326 . S
In39 O45 2.266 . S
In39 O46 2.326 . S
In39 O47 2.266 . S
In39 O48 2.326 . S
In39 O50 2.294 . S
In39 O51 2.326 . S
O40 In39 2.294 . S
O40 C49 1.240 . S
O41 In39 2.326 . S
O41 C49 1.252 . S
C42 O45 1.252 . S
C42 O46 1.260 . S
C43 O50 1.240 . S
C43 O51 1.252 . S
C44 O47 1.252 . S
C44 O48 1.260 . S
O45 In39 2.266 . S
O45 C42 1.252 . S
O46 In39 2.326 . S
O46 C42 1.260 . S
O47 In39 2.266 . S
O47 C44 1.252 . S
O48 In39 2.326 . S
O48 C44 1.260 . S
C49 O40 1.240 . S
C49 O41 1.252 . S
O50 In39 2.294 . S
O50 C43 1.240 . S
O51 In39 2.326 . S
O51 C43 1.252 . S
In52 O53 2.294 . S
In52 O54 2.326 . S
In52 O58 2.266 . S
In52 O59 2.326 . S
In52 O60 2.266 . S
In52 O61 2.326 . S
In52 O63 2.294 . S
In52 O64 2.326 . S
O53 In52 2.294 . S
O53 C62 1.240 . S
O54 In52 2.326 . S
O54 C62 1.252 . S
C55 O58 1.252 . S
C55 O59 1.260 . S
C56 O63 1.240 . S
C56 O64 1.252 . S
C57 O60 1.252 . S
C57 O61 1.260 . S
O58 In52 2.266 . S
O58 C55 1.252 . S
O59 In52 2.326 . S
O59 C55 1.260 . S
O60 In52 2.266 . S
O60 C57 1.252 . S
O61 In52 2.326 . S
O61 C57 1.260 . S
C62 O53 1.240 . S
C62 O54 1.252 . S
O63 In52 2.294 . S
O63 C56 1.240 . S
O64 In52 2.326 . S
O64 C56 1.252 . S
In65 O66 2.294 . S
In65 O67 2.326 . S
In65 O71 2.266 . S
In65 O72 2.326 . S
In65 O73 2.266 . S
In65 O74 2.326 . S
In65 O76 2.294 . S
In65 O77 2.326 . S
O66 In65 2.294 . S
O66 C75 1.240 . S
O67 In65 2.326 . S
O67 C75 1.252 . S
C68 O71 1.252 . S
C68 O72 1.260 . S
C69 O76 1.240 . S
C69 O77 1.252 . S
C70 O73 1.252 . S
C70 O74 1.260 . S
O71 In65 2.266 . S
O71 C68 1.252 . S
O72 In65 2.326 . S
O72 C68 1.260 . S
O73 In65 2.266 . S
O73 C70 1.252 . S
O74 In65 2.326 . S
O74 C70 1.260 . S
C75 O66 1.240 . S
C75 O67 1.252 . S
O76 In65 2.294 . S
O76 C69 1.240 . S
O77 In65 2.326 . S
O77 C69 1.252 . S
In78 O79 2.294 . S
In78 O80 2.326 . S
In78 O84 2.266 . S
In78 O85 2.326 . S
In78 O86 2.266 . S
In78 O87 2.326 . S
In78 O89 2.294 . S
In78 O90 2.326 . S
O79 In78 2.294 . S
O79 C88 1.240 . S
O80 In78 2.326 . S
O80 C88 1.252 . S
C81 O84 1.252 . S
C81 O85 1.260 . S
C82 O89 1.240 . S
C82 O90 1.252 . S
C83 O86 1.252 . S
C83 O87 1.260 . S
O84 In78 2.266 . S
O84 C81 1.252 . S
O85 In78 2.326 . S
O85 C81 1.260 . S
O86 In78 2.266 . S
O86 C83 1.252 . S
O87 In78 2.326 . S
O87 C83 1.260 . S
C88 O79 1.240 . S
C88 O80 1.252 . S
O89 In78 2.294 . S
O89 C82 1.240 . S
O90 In78 2.326 . S
O90 C82 1.252 . S
In91 O92 2.294 . S
In91 O93 2.326 . S
In91 O97 2.266 . S
In91 O98 2.326 . S
In91 O99 2.266 . S
In91 O100 2.326 . S
In91 O102 2.294 . S
In91 O103 2.326 . S
O92 In91 2.294 . S
O92 C101 1.240 . S
O93 In91 2.326 . S
O93 C101 1.252 . S
C94 O97 1.252 . S
C94 O98 1.260 . S
C95 O102 1.240 . S
C95 O103 1.252 . S
C96 O99 1.252 . S
C96 O100 1.260 . S
O97 In91 2.266 . S
O97 C94 1.252 . S
O98 In91 2.326 . S
O98 C94 1.260 . S
O99 In91 2.266 . S
O99 C96 1.252 . S
O100 In91 2.326 . S
O100 C96 1.260 . S
C101 O92 1.240 . S
C101 O93 1.252 . S
O102 In91 2.294 . S
O102 C95 1.240 . S
O103 In91 2.326 . S
O103 C95 1.252 . S
In104 O105 2.294 . S
In104 O106 2.326 . S
In104 O110 2.266 . S
In104 O111 2.326 . S
In104 O112 2.266 . S
In104 O113 2.326 . S
In104 O115 2.294 . S
In104 O116 2.326 . S
O105 In104 2.294 . S
O105 C114 1.240 . S
O106 In104 2.326 . S
O106 C114 1.252 . S
C107 O110 1.252 . S
C107 O111 1.260 . S
C108 O115 1.240 . S
C108 O116 1.252 . S
C109 O112 1.252 . S
C109 O113 1.260 . S
O110 In104 2.266 . S
O110 C107 1.252 . S
O111 In104 2.326 . S
O111 C107 1.260 . S
O112 In104 2.266 . S
O112 C109 1.252 . S
O113 In104 2.326 . S
O113 C109 1.260 . S
C114 O105 1.240 . S
C114 O106 1.252 . S
O115 In104 2.294 . S
O115 C108 1.240 . S
O116 In104 2.326 . S
O116 C108 1.252 . S
In117 O118 2.294 . S
In117 O119 2.326 . S
In117 O123 2.266 . S
In117 O124 2.326 . S
In117 O125 2.266 . S
In117 O126 2.326 . S
In117 O128 2.294 . S
In117 O129 2.326 . S
O118 In117 2.294 . S
O118 C127 1.240 . S
O119 In117 2.326 . S
O119 C127 1.252 . S
C120 O123 1.252 . S
C120 O124 1.260 . S
C121 O128 1.240 . S
C121 O129 1.252 . S
C122 O125 1.252 . S
C122 O126 1.260 . S
O123 In117 2.266 . S
O123 C120 1.252 . S
O124 In117 2.326 . S
O124 C120 1.260 . S
O125 In117 2.266 . S
O125 C122 1.252 . S
O126 In117 2.326 . S
O126 C122 1.260 . S
C127 O118 1.240 . S
C127 O119 1.252 . S
O128 In117 2.294 . S
O128 C121 1.240 . S
O129 In117 2.326 . S
O129 C121 1.252 . S
In130 O131 2.294 . S
In130 O132 2.326 . S
In130 O136 2.266 . S
In130 O137 2.326 . S
In130 O138 2.266 . S
In130 O139 2.326 . S
In130 O141 2.294 . S
In130 O142 2.326 . S
O131 In130 2.294 . S
O131 C140 1.240 . S
O132 In130 2.326 . S
O132 C140 1.252 . S
C133 O136 1.252 . S
C133 O137 1.260 . S
C134 O141 1.240 . S
C134 O142 1.252 . S
C135 O138 1.252 . S
C135 O139 1.260 . S
O136 In130 2.266 . S
O136 C133 1.252 . S
O137 In130 2.326 . S
O137 C133 1.260 . S
O138 In130 2.266 . S
O138 C135 1.252 . S
O139 In130 2.326 . S
O139 C135 1.260 . S
C140 O131 1.240 . S
C140 O132 1.252 . S
O141 In130 2.294 . S
O141 C134 1.240 . S
O142 In130 2.326 . S
O142 C134 1.252 . S
In143 O144 2.294 . S
In143 O145 2.326 . S
In143 O149 2.266 . S
In143 O150 2.326 . S
In143 O151 2.266 . S
In143 O152 2.326 . S
In143 O154 2.294 . S
In143 O155 2.326 . S
O144 In143 2.294 . S
O144 C153 1.240 . S
O145 In143 2.326 . S
O145 C153 1.252 . S
C146 O149 1.252 . S
C146 O150 1.260 . S
C147 O154 1.240 . S
C147 O155 1.252 . S
C148 O151 1.252 . S
C148 O152 1.260 . S
O149 In143 2.266 . S
O149 C146 1.252 . S
O150 In143 2.326 . S
O150 C146 1.260 . S
O151 In143 2.266 . S
O151 C148 1.252 . S
O152 In143 2.326 . S
O152 C148 1.260 . S
C153 O144 1.240 . S
C153 O145 1.252 . S
O154 In143 2.294 . S
O154 C147 1.240 . S
O155 In143 2.326 . S
O155 C147 1.252 . S
In156 O157 2.294 . S
In156 O158 2.326 . S
In156 O162 2.266 . S
In156 O163 2.326 . S
In156 O164 2.266 . S
In156 O165 2.326 . S
In156 O167 2.294 . S
In156 O168 2.326 . S
O157 In156 2.294 . S
O157 C166 1.240 . S
O158 In156 2.326 . S
O158 C166 1.252 . S
C159 O162 1.252 . S
C159 O163 1.260 . S
C160 O167 1.240 . S
C160 O168 1.252 . S
C161 O164 1.252 . S
C161 O165 1.260 . S
O162 In156 2.266 . S
O162 C159 1.252 . S
O163 In156 2.326 . S
O163 C159 1.260 . S
O164 In156 2.266 . S
O164 C161 1.252 . S
O165 In156 2.326 . S
O165 C161 1.260 . S
C166 O157 1.240 . S
C166 O158 1.252 . S
O167 In156 2.294 . S
O167 C160 1.240 . S
O168 In156 2.326 . S
O168 C160 1.252 . S
In169 O170 2.294 . S
In169 O171 2.326 . S
In169 O175 2.266 . S
In169 O176 2.326 . S
In169 O177 2.266 . S
In169 O178 2.326 . S
In169 O180 2.294 . S
In169 O181 2.326 . S
O170 In169 2.294 . S
O170 C179 1.240 . S
O171 In169 2.326 . S
O171 C179 1.252 . S
C172 O175 1.252 . S
C172 O176 1.260 . S
C173 O180 1.240 . S
C173 O181 1.252 . S
C174 O177 1.252 . S
C174 O178 1.260 . S
O175 In169 2.266 . S
O175 C172 1.252 . S
O176 In169 2.326 . S
O176 C172 1.260 . S
O177 In169 2.266 . S
O177 C174 1.252 . S
O178 In169 2.326 . S
O178 C174 1.260 . S
C179 O170 1.240 . S
C179 O171 1.252 . S
O180 In169 2.294 . S
O180 C173 1.240 . S
O181 In169 2.326 . S
O181 C173 1.252 . S
In182 O183 2.294 . S
In182 O184 2.326 . S
In182 O188 2.266 . S
In182 O189 2.326 . S
In182 O190 2.266 . S
In182 O191 2.326 . S
In182 O193 2.294 . S
In182 O194 2.326 . S
O183 In182 2.294 . S
O183 C192 1.240 . S
O184 In182 2.326 . S
O184 C192 1.252 . S
C185 O188 1.252 . S
C185 O189 1.260 . S
C186 O193 1.240 . S
C186 O194 1.252 . S
C187 O190 1.252 . S
C187 O191 1.260 . S
O188 In182 2.266 . S
O188 C185 1.252 . S
O189 In182 2.326 . S
O189 C185 1.260 . S
O190 In182 2.266 . S
O190 C187 1.252 . S
O191 In182 2.326 . S
O191 C187 1.260 . S
C192 O183 1.240 . S
C192 O184 1.252 . S
O193 In182 2.294 . S
O193 C186 1.240 . S
O194 In182 2.326 . S
O194 C186 1.252 . S
In195 O196 2.294 . S
In195 O197 2.326 . S
In195 O201 2.266 . S
In195 O202 2.326 . S
In195 O203 2.266 . S
In195 O204 2.326 . S
In195 O206 2.294 . S
In195 O207 2.326 . S
O196 In195 2.294 . S
O196 C205 1.240 . S
O197 In195 2.326 . S
O197 C205 1.252 . S
C198 O201 1.252 . S
C198 O202 1.260 . S
C199 O206 1.240 . S
C199 O207 1.252 . S
C200 O203 1.252 . S
C200 O204 1.260 . S
O201 In195 2.266 . S
O201 C198 1.252 . S
O202 In195 2.326 . S
O202 C198 1.260 . S
O203 In195 2.266 . S
O203 C200 1.252 . S
O204 In195 2.326 . S
O204 C200 1.260 . S
C205 O196 1.240 . S
C205 O197 1.252 . S
O206 In195 2.294 . S
O206 C199 1.240 . S
O207 In195 2.326 . S
O207 C199 1.252 . S
H208 C216 0.929 . S
H209 C218 0.930 . S
H210 C220 0.930 . S
H211 C223 0.929 . S
H212 C226 0.930 . S
H213 C228 0.960 . S
H214 C228 0.960 . S
H215 C228 0.960 . S
C216 H208 0.929 . S
C216 C217 1.377 . S
C216 C218 1.384 . S
C217 C216 1.377 . S
C217 C223 1.390 . S
C218 H209 0.930 . S
C218 C216 1.384 . S
C218 C219 1.372 . S
C219 C218 1.372 . S
C219 C220 1.400 . S
C219 C224 1.490 . S
C220 H210 0.930 . S
C220 C219 1.400 . S
C220 C223 1.386 . S
H221 C237 0.930 . S
H222 C238 0.931 . S
C223 H211 0.929 . S
C223 C217 1.390 . S
C223 C220 1.386 . S
C224 C219 1.490 . S
C224 C226 1.395 . S
C224 C227 1.403 . S
H225 C231 0.930 . S
C226 H212 0.930 . S
C226 C224 1.395 . S
C226 C229 1.403 . S
C227 C224 1.403 . S
C227 C228 1.524 . S
C227 C231 1.400 . S
C228 H213 0.960 . S
C228 H214 0.960 . S
C228 H215 0.960 . S
C228 C227 1.524 . S
C229 C226 1.403 . S
C229 C230 1.392 . S
C229 C233 1.495 . S
C230 C229 1.392 . S
C230 C231 1.385 . S
C230 C232 1.478 . S
C231 H225 0.930 . S
C231 C227 1.400 . S
C231 C230 1.385 . S
C232 C230 1.478 . S
C232 C234 1.381 . S
C232 C238 1.383 . S
C233 C229 1.495 . S
C233 H239 0.959 . S
C233 H240 0.961 . S
C233 H241 0.960 . S
C234 C232 1.381 . S
C234 C235 1.394 . S
C234 H242 0.930 . S
C235 C234 1.394 . S
C235 C236 1.383 . S
C235 H243 0.929 . S
C236 C235 1.383 . S
C236 C237 1.377 . S
C237 H221 0.930 . S
C237 C236 1.377 . S
C237 C238 1.379 . S
C238 H222 0.931 . S
C238 C232 1.383 . S
C238 C237 1.379 . S
H239 C233 0.959 . S
H240 C233 0.961 . S
H241 C233 0.960 . S
H242 C234 0.930 . S
H243 C235 0.929 . S
H244 C252 0.929 . S
H245 C254 0.930 1_545 S
H246 C256 0.930 . S
H247 C259 0.929 . S
H248 C262 0.930 . S
H249 C264 0.960 . S
H250 C264 0.960 . S
H251 C264 0.960 1_565 S
C252 H244 0.929 . S
C252 C253 1.377 . S
C252 C254 1.384 . S
C253 C252 1.377 . S
C253 C259 1.390 . S
C254 H245 0.930 1_565 S
C254 C252 1.384 . S
C254 C255 1.372 . S
C255 C254 1.372 . S
C255 C256 1.400 . S
C255 C260 1.490 . S
C256 H246 0.930 . S
C256 C255 1.400 . S
C256 C259 1.386 . S
H257 C273 0.930 . S
H258 C274 0.931 1_565 S
C259 H247 0.929 . S
C259 C253 1.390 . S
C259 C256 1.386 . S
C260 C255 1.490 . S
C260 C262 1.395 1_655 S
C260 C263 1.403 1_565 S
H261 C267 0.930 . S
C262 H248 0.930 . S
C262 C260 1.395 1_455 S
C262 C265 1.403 . S
C263 C260 1.403 1_545 S
C263 C264 1.524 . S
C263 C267 1.400 . S
C264 H249 0.960 . S
C264 H250 0.960 . S
C264 H251 0.960 1_545 S
C264 C263 1.524 . S
C265 C262 1.403 . S
C265 C266 1.392 1_565 S
C265 C269 1.495 . S
C266 C265 1.392 1_545 S
C266 C267 1.385 1_455 S
C266 C268 1.478 . S
C267 H261 0.930 . S
C267 C263 1.400 . S
C267 C266 1.385 1_655 S
C268 C266 1.478 . S
C268 C270 1.381 . S
C268 C274 1.383 . S
C269 C265 1.495 . S
C269 H275 0.959 . S
C269 H276 0.961 . S
C269 H277 0.960 1_565 S
C270 C268 1.381 . S
C270 C271 1.394 . S
C270 H278 0.930 . S
C271 C270 1.394 . S
C271 C272 1.383 . S
C271 H279 0.929 . S
C272 C271 1.383 . S
C272 C273 1.377 . S
C273 H257 0.930 . S
C273 C272 1.377 . S
C273 C274 1.379 . S
C274 H258 0.931 1_545 S
C274 C268 1.383 . S
C274 C273 1.379 . S
H275 C269 0.959 . S
H276 C269 0.961 . S
H277 C269 0.960 1_545 S
H278 C270 0.930 . S
H279 C271 0.929 . S
H280 C288 0.929 . S
H281 C290 0.930 . S
H282 C292 0.930 . S
H283 C295 0.929 . S
H284 C298 0.930 . S
H285 C300 0.960 . S
H286 C300 0.960 . S
H287 C300 0.960 . S
C288 H280 0.929 . S
C288 C289 1.377 . S
C288 C290 1.384 . S
C289 C288 1.377 . S
C289 C295 1.390 . S
C290 H281 0.930 . S
C290 C288 1.384 . S
C290 C291 1.372 . S
C291 C290 1.372 . S
C291 C292 1.400 . S
C291 C296 1.490 . S
C292 H282 0.930 . S
C292 C291 1.400 . S
C292 C295 1.386 . S
H293 C309 0.930 . S
H294 C310 0.931 . S
C295 H283 0.929 . S
C295 C289 1.390 . S
C295 C292 1.386 . S
C296 C291 1.490 . S
C296 C298 1.395 . S
C296 C299 1.403 1_565 S
H297 C303 0.930 . S
C298 H284 0.930 . S
C298 C296 1.395 . S
C298 C301 1.403 . S
C299 C296 1.403 1_545 S
C299 C300 1.524 . S
C299 C303 1.400 . S
C300 H285 0.960 . S
C300 H286 0.960 . S
C300 H287 0.960 . S
C300 C299 1.524 . S
C301 C298 1.403 . S
C301 C302 1.392 1_565 S
C301 C305 1.495 . S
C302 C301 1.392 1_545 S
C302 C303 1.385 . S
C302 C304 1.478 . S
C303 H297 0.930 . S
C303 C299 1.400 . S
C303 C302 1.385 . S
C304 C302 1.478 . S
C304 C306 1.381 . S
C304 C310 1.383 . S
C305 C301 1.495 . S
C305 H311 0.959 . S
C305 H312 0.961 . S
C305 H313 0.960 . S
C306 C304 1.381 . S
C306 C307 1.394 . S
C306 H314 0.930 . S
C307 C306 1.394 . S
C307 C308 1.383 . S
C307 H315 0.929 . S
C308 C307 1.383 . S
C308 C309 1.377 . S
C309 H293 0.930 . S
C309 C308 1.377 . S
C309 C310 1.379 . S
C310 H294 0.931 . S
C310 C304 1.383 . S
C310 C309 1.379 . S
H311 C305 0.959 . S
H312 C305 0.961 . S
H313 C305 0.960 . S
H314 C306 0.930 . S
H315 C307 0.929 . S
H316 C324 0.929 . S
H317 C326 0.930 . S
H318 C328 0.930 . S
H319 C331 0.929 . S
H320 C334 0.930 . S
H321 C336 0.960 . S
H322 C336 0.960 . S
H323 C336 0.960 . S
C324 H316 0.929 . S
C324 C325 1.377 . S
C324 C326 1.384 . S
C325 C324 1.377 . S
C325 C331 1.390 . S
C326 H317 0.930 . S
C326 C324 1.384 . S
C326 C327 1.372 . S
C327 C326 1.372 . S
C327 C328 1.400 . S
C327 C332 1.490 . S
C328 H318 0.930 . S
C328 C327 1.400 . S
C328 C331 1.386 . S
H329 C345 0.930 . S
H330 C346 0.931 . S
C331 H319 0.929 . S
C331 C325 1.390 . S
C331 C328 1.386 . S
C332 C327 1.490 . S
C332 C334 1.395 . S
C332 C335 1.403 1_455 S
H333 C339 0.930 . S
C334 H320 0.930 . S
C334 C332 1.395 . S
C334 C337 1.403 . S
C335 C332 1.403 1_655 S
C335 C336 1.524 . S
C335 C339 1.400 . S
C336 H321 0.960 . S
C336 H322 0.960 . S
C336 H323 0.960 . S
C336 C335 1.524 . S
C337 C334 1.403 . S
C337 C338 1.392 1_455 S
C337 C341 1.495 . S
C338 C337 1.392 1_655 S
C338 C339 1.385 . S
C338 C340 1.478 . S
C339 H333 0.930 . S
C339 C335 1.400 . S
C339 C338 1.385 . S
C340 C338 1.478 . S
C340 C342 1.381 . S
C340 C346 1.383 . S
C341 C337 1.495 . S
C341 H347 0.959 . S
C341 H348 0.961 . S
C341 H349 0.960 . S
C342 C340 1.381 . S
C342 C343 1.394 . S
C342 H350 0.930 . S
C343 C342 1.394 . S
C343 C344 1.383 . S
C343 H351 0.929 . S
C344 C343 1.383 . S
C344 C345 1.377 . S
C345 H329 0.930 . S
C345 C344 1.377 . S
C345 C346 1.379 . S
C346 H330 0.931 . S
C346 C340 1.383 . S
C346 C345 1.379 . S
H347 C341 0.959 . S
H348 C341 0.961 . S
H349 C341 0.960 . S
H350 C342 0.930 . S
H351 C343 0.929 . S
H352 C360 0.929 . S
H353 C362 0.930 . S
H354 C364 0.930 . S
H355 C367 0.929 . S
H356 C370 0.930 . S
H357 C372 0.960 . S
H358 C372 0.960 . S
H359 C372 0.960 . S
C360 H352 0.929 . S
C360 C361 1.377 . S
C360 C362 1.384 . S
C361 C360 1.377 . S
C361 C367 1.390 . S
C362 H353 0.930 . S
C362 C360 1.384 . S
C362 C363 1.372 . S
C363 C362 1.372 . S
C363 C364 1.400 . S
C363 C368 1.490 . S
C364 H354 0.930 . S
C364 C363 1.400 . S
C364 C367 1.386 . S
H365 C381 0.930 . S
H366 C382 0.931 . S
C367 H355 0.929 . S
C367 C361 1.390 . S
C367 C364 1.386 . S
C368 C363 1.490 . S
C368 C370 1.395 . S
C368 C371 1.403 . S
H369 C375 0.930 . S
C370 H356 0.930 . S
C370 C368 1.395 . S
C370 C373 1.403 . S
C371 C368 1.403 . S
C371 C372 1.524 . S
C371 C375 1.400 . S
C372 H357 0.960 . S
C372 H358 0.960 . S
C372 H359 0.960 . S
C372 C371 1.524 . S
C373 C370 1.403 . S
C373 C374 1.392 . S
C373 C377 1.495 . S
C374 C373 1.392 . S
C374 C375 1.385 . S
C374 C376 1.478 . S
C375 H369 0.930 . S
C375 C371 1.400 . S
C375 C374 1.385 . S
C376 C374 1.478 . S
C376 C378 1.381 . S
C376 C382 1.383 . S
C377 C373 1.495 . S
C377 H383 0.959 . S
C377 H384 0.961 . S
C377 H385 0.960 . S
C378 C376 1.381 . S
C378 C379 1.394 . S
C378 H386 0.930 . S
C379 C378 1.394 . S
C379 C380 1.383 . S
C379 H387 0.929 . S
C380 C379 1.383 . S
C380 C381 1.377 . S
C381 H365 0.930 . S
C381 C380 1.377 . S
C381 C382 1.379 . S
C382 H366 0.931 . S
C382 C376 1.383 . S
C382 C381 1.379 . S
H383 C377 0.959 . S
H384 C377 0.961 . S
H385 C377 0.960 . S
H386 C378 0.930 . S
H387 C379 0.929 . S
H388 C396 0.929 . S
H389 C398 0.930 . S
H390 C400 0.930 . S
H391 C403 0.929 . S
H392 C406 0.930 . S
H393 C408 0.960 . S
H394 C408 0.960 . S
H395 C408 0.960 . S
C396 H388 0.929 . S
C396 C397 1.377 . S
C396 C398 1.384 . S
C397 C396 1.377 . S
C397 C403 1.390 . S
C398 H389 0.930 . S
C398 C396 1.384 . S
C398 C399 1.372 . S
C399 C398 1.372 . S
C399 C400 1.400 . S
C399 C404 1.490 . S
C400 H390 0.930 . S
C400 C399 1.400 . S
C400 C403 1.386 . S
H401 C417 0.930 . S
H402 C418 0.931 . S
C403 H391 0.929 . S
C403 C397 1.390 . S
C403 C400 1.386 . S
C404 C399 1.490 . S
C404 C406 1.395 1_545 S
C404 C407 1.403 . S
H405 C411 0.930 . S
C406 H392 0.930 . S
C406 C404 1.395 1_565 S
C406 C409 1.403 . S
C407 C404 1.403 . S
C407 C408 1.524 . S
C407 C411 1.400 . S
C408 H393 0.960 . S
C408 H394 0.960 . S
C408 H395 0.960 . S
C408 C407 1.524 . S
C409 C406 1.403 . S
C409 C410 1.392 . S
C409 C413 1.495 . S
C410 C409 1.392 . S
C410 C411 1.385 1_565 S
C410 C412 1.478 . S
C411 H405 0.930 . S
C411 C407 1.400 . S
C411 C410 1.385 1_545 S
C412 C410 1.478 . S
C412 C414 1.381 . S
C412 C418 1.383 . S
C413 C409 1.495 . S
C413 H419 0.959 . S
C413 H420 0.961 . S
C413 H421 0.960 . S
C414 C412 1.381 . S
C414 C415 1.394 . S
C414 H422 0.930 . S
C415 C414 1.394 . S
C415 C416 1.383 . S
C415 H423 0.929 . S
C416 C415 1.383 . S
C416 C417 1.377 . S
C417 H401 0.930 . S
C417 C416 1.377 . S
C417 C418 1.379 . S
C418 H402 0.931 . S
C418 C412 1.383 . S
C418 C417 1.379 . S
H419 C413 0.959 . S
H420 C413 0.961 . S
H421 C413 0.960 . S
H422 C414 0.930 . S
H423 C415 0.929 . S
H424 C432 0.929 . S
H425 C434 0.930 . S
H426 C436 0.930 . S
H427 C439 0.929 . S
H428 C442 0.930 . S
H429 C444 0.960 . S
H430 C444 0.960 . S
H431 C444 0.960 . S
C432 H424 0.929 . S
C432 C433 1.377 . S
C432 C434 1.384 . S
C433 C432 1.377 . S
C433 C439 1.390 . S
C434 H425 0.930 . S
C434 C432 1.384 . S
C434 C435 1.372 . S
C435 C434 1.372 . S
C435 C436 1.400 . S
C435 C440 1.490 . S
C436 H426 0.930 . S
C436 C435 1.400 . S
C436 C439 1.386 . S
H437 C453 0.930 . S
H438 C454 0.931 . S
C439 H427 0.929 . S
C439 C433 1.390 . S
C439 C436 1.386 . S
C440 C435 1.490 . S
C440 C442 1.395 1_655 S
C440 C443 1.403 . S
H441 C447 0.930 . S
C442 H428 0.930 . S
C442 C440 1.395 1_455 S
C442 C445 1.403 . S
C443 C440 1.403 . S
C443 C444 1.524 . S
C443 C447 1.400 . S
C444 H429 0.960 . S
C444 H430 0.960 . S
C444 H431 0.960 . S
C444 C443 1.524 . S
C445 C442 1.403 . S
C445 C446 1.392 . S
C445 C449 1.495 . S
C446 C445 1.392 . S
C446 C447 1.385 1_455 S
C446 C448 1.478 . S
C447 H441 0.930 . S
C447 C443 1.400 . S
C447 C446 1.385 1_655 S
C448 C446 1.478 . S
C448 C450 1.381 . S
C448 C454 1.383 . S
C449 C445 1.495 . S
C449 H455 0.959 . S
C449 H456 0.961 . S
C449 H457 0.960 . S
C450 C448 1.381 . S
C450 C451 1.394 . S
C450 H458 0.930 . S
C451 C450 1.394 . S
C451 C452 1.383 . S
C451 H459 0.929 . S
C452 C451 1.383 . S
C452 C453 1.377 . S
C453 H437 0.930 . S
C453 C452 1.377 . S
C453 C454 1.379 . S
C454 H438 0.931 . S
C454 C448 1.383 . S
C454 C453 1.379 . S
H455 C449 0.959 . S
H456 C449 0.961 . S
H457 C449 0.960 . S
H458 C450 0.930 . S
H459 C451 0.929 . S
H460 C468 0.929 . S
H461 C470 0.930 . S
H462 C472 0.930 . S
H463 C475 0.929 . S
H464 C478 0.930 . S
H465 C480 0.960 . S
H466 C480 0.960 . S
H467 C480 0.960 . S
C468 H460 0.929 . S
C468 C469 1.377 . S
C468 C470 1.384 . S
C469 C468 1.377 . S
C469 C475 1.390 . S
C470 H461 0.930 . S
C470 C468 1.384 . S
C470 C471 1.372 . S
C471 C470 1.372 . S
C471 C472 1.400 . S
C471 C476 1.490 . S
C472 H462 0.930 . S
C472 C471 1.400 . S
C472 C475 1.386 . S
H473 C489 0.930 . S
H474 C490 0.931 . S
C475 H463 0.929 . S
C475 C469 1.390 . S
C475 C472 1.386 . S
C476 C471 1.490 . S
C476 C478 1.395 . S
C476 C479 1.403 . S
H477 C483 0.930 . S
C478 H464 0.930 . S
C478 C476 1.395 . S
C478 C481 1.403 1_554 S
C479 C476 1.403 . S
C479 C480 1.524 . S
C479 C483 1.400 1_554 S
C480 H465 0.960 . S
C480 H466 0.960 . S
C480 H467 0.960 . S
C480 C479 1.524 . S
C481 C478 1.403 1_556 S
C481 C482 1.392 . S
C481 C485 1.495 . S
C482 C481 1.392 . S
C482 C483 1.385 . S
C482 C484 1.478 . S
C483 H477 0.930 . S
C483 C479 1.400 1_556 S
C483 C482 1.385 . S
C484 C482 1.478 . S
C484 C486 1.381 . S
C484 C490 1.383 . S
C485 C481 1.495 . S
C485 H491 0.959 . S
C485 H492 0.961 . S
C485 H493 0.960 . S
C486 C484 1.381 . S
C486 C487 1.394 . S
C486 H494 0.930 . S
C487 C486 1.394 . S
C487 C488 1.383 . S
C487 H495 0.929 . S
C488 C487 1.383 . S
C488 C489 1.377 . S
C489 H473 0.930 . S
C489 C488 1.377 . S
C489 C490 1.379 . S
C490 H474 0.931 . S
C490 C484 1.383 . S
C490 C489 1.379 . S
H491 C485 0.959 . S
H492 C485 0.961 . S
H493 C485 0.960 . S
H494 C486 0.930 . S
H495 C487 0.929 . S
H496 C504 0.929 . S
H497 C506 0.930 . S
H498 C508 0.930 . S
H499 C511 0.929 . S
H500 C514 0.930 . S
H501 C516 0.960 . S
H502 C516 0.960 . S
H503 C516 0.960 . S
C504 H496 0.929 . S
C504 C505 1.377 . S
C504 C506 1.384 . S
C505 C504 1.377 . S
C505 C511 1.390 . S
C506 H497 0.930 . S
C506 C504 1.384 . S
C506 C507 1.372 . S
C507 C506 1.372 . S
C507 C508 1.400 . S
C507 C512 1.490 . S
C508 H498 0.930 . S
C508 C507 1.400 . S
C508 C511 1.386 . S
H509 C525 0.930 . S
H510 C526 0.931 . S
C511 H499 0.929 . S
C511 C505 1.390 . S
C511 C508 1.386 . S
C512 C507 1.490 . S
C512 C514 1.395 1_556 S
C512 C515 1.403 1_455 S
H513 C519 0.930 . S
C514 H500 0.930 . S
C514 C512 1.395 1_554 S
C514 C517 1.403 . S
C515 C512 1.403 1_655 S
C515 C516 1.524 . S
C515 C519 1.398 . S
C516 H501 0.960 . S
C516 H502 0.960 . S
C516 H503 0.960 . S
C516 C515 1.524 . S
C517 C514 1.403 . S
C517 C518 1.392 1_455 S
C517 C521 1.495 . S
C518 C517 1.392 1_655 S
C518 C519 1.387 1_554 S
C518 C520 1.478 . S
C519 H513 0.930 . S
C519 C515 1.398 . S
C519 C518 1.387 1_556 S
C520 C518 1.478 . S
C520 C522 1.381 . S
C520 C526 1.383 . S
C521 C517 1.495 . S
C521 H527 0.959 . S
C521 H528 0.961 . S
C521 H529 0.960 . S
C522 C520 1.381 . S
C522 C523 1.394 . S
C522 H530 0.930 . S
C523 C522 1.394 . S
C523 C524 1.383 . S
C523 H531 0.929 . S
C524 C523 1.383 . S
C524 C525 1.377 . S
C525 H509 0.930 . S
C525 C524 1.377 . S
C525 C526 1.379 . S
C526 H510 0.931 . S
C526 C520 1.383 . S
C526 C525 1.379 . S
H527 C521 0.959 . S
H528 C521 0.961 . S
H529 C521 0.960 . S
H530 C522 0.930 . S
H531 C523 0.929 . S
H532 C540 0.929 . S
H533 C542 0.930 . S
H534 C544 0.930 . S
H535 C547 0.929 . S
H536 C550 0.930 . S
H537 C552 0.960 . S
H538 C552 0.960 . S
H539 C552 0.960 . S
C540 H532 0.929 . S
C540 C541 1.377 . S
C540 C542 1.384 . S
C541 C540 1.377 . S
C541 C547 1.390 . S
C542 H533 0.930 . S
C542 C540 1.384 . S
C542 C543 1.372 . S
C543 C542 1.372 . S
C543 C544 1.400 . S
C543 C548 1.490 . S
C544 H534 0.930 . S
C544 C543 1.400 . S
C544 C547 1.386 . S
H545 C561 0.930 . S
H546 C562 0.931 . S
C547 H535 0.929 . S
C547 C541 1.390 . S
C547 C544 1.386 . S
C548 C543 1.490 . S
C548 C550 1.395 . S
C548 C551 1.403 . S
H549 C555 0.930 . S
C550 H536 0.930 . S
C550 C548 1.395 . S
C550 C553 1.403 . S
C551 C548 1.403 . S
C551 C552 1.524 . S
C551 C555 1.400 . S
C552 H537 0.960 . S
C552 H538 0.960 . S
C552 H539 0.960 . S
C552 C551 1.524 . S
C553 C550 1.403 . S
C553 C554 1.392 . S
C553 C557 1.495 . S
C554 C553 1.392 . S
C554 C555 1.385 . S
C554 C556 1.478 . S
C555 H549 0.930 . S
C555 C551 1.400 . S
C555 C554 1.385 . S
C556 C554 1.478 . S
C556 C558 1.381 . S
C556 C562 1.383 . S
C557 C553 1.495 . S
C557 H563 0.959 . S
C557 H564 0.961 . S
C557 H565 0.960 . S
C558 C556 1.381 . S
C558 C559 1.394 . S
C558 H566 0.930 . S
C559 C558 1.394 . S
C559 C560 1.383 . S
C559 H567 0.929 . S
C560 C559 1.383 . S
C560 C561 1.377 . S
C561 H545 0.930 . S
C561 C560 1.377 . S
C561 C562 1.379 . S
C562 H546 0.931 . S
C562 C556 1.383 . S
C562 C561 1.379 . S
H563 C557 0.959 . S
H564 C557 0.961 . S
H565 C557 0.960 . S
H566 C558 0.930 . S
H567 C559 0.929 . S
H568 C576 0.929 . S
H569 C578 0.930 . S
H570 C580 0.930 . S
H571 C583 0.929 . S
H572 C586 0.930 . S
H573 C588 0.960 . S
H574 C588 0.960 . S
H575 C588 0.960 . S
C576 H568 0.929 . S
C576 C577 1.377 . S
C576 C578 1.384 . S
C577 C576 1.377 . S
C577 C583 1.390 . S
C578 H569 0.930 . S
C578 C576 1.384 . S
C578 C579 1.372 . S
C579 C578 1.372 . S
C579 C580 1.400 . S
C579 C584 1.490 . S
C580 H570 0.930 . S
C580 C579 1.400 . S
C580 C583 1.386 . S
H581 C597 0.930 . S
H582 C598 0.931 . S
C583 H571 0.929 . S
C583 C577 1.390 . S
C583 C580 1.386 . S
C584 C579 1.490 . S
C584 C586 1.395 . S
C584 C587 1.403 1_556 S
H585 C591 0.930 . S
C586 H572 0.930 . S
C586 C584 1.395 . S
C586 C589 1.403 . S
C587 C584 1.403 1_554 S
C587 C588 1.524 . S
C587 C591 1.400 . S
C588 H573 0.960 . S
C588 H574 0.960 . S
C588 H575 0.960 . S
C588 C587 1.524 . S
C589 C586 1.403 . S
C589 C590 1.392 1_556 S
C589 C593 1.495 . S
C590 C589 1.392 1_554 S
C590 C591 1.385 . S
C590 C592 1.478 . S
C591 H585 0.930 . S
C591 C587 1.400 . S
C591 C590 1.385 . S
C592 C590 1.478 . S
C592 C594 1.381 . S
C592 C598 1.383 . S
C593 C589 1.495 . S
C593 H599 0.959 . S
C593 H600 0.961 . S
C593 H601 0.960 . S
C594 C592 1.381 . S
C594 C595 1.394 . S
C594 H602 0.930 . S
C595 C594 1.394 . S
C595 C596 1.383 . S
C595 H603 0.929 . S
C596 C595 1.383 . S
C596 C597 1.377 . S
C597 H581 0.930 . S
C597 C596 1.377 . S
C597 C598 1.379 . S
C598 H582 0.931 . S
C598 C592 1.383 . S
C598 C597 1.379 . S
H599 C593 0.959 . S
H600 C593 0.961 . S
H601 C593 0.960 . S
H602 C594 0.930 . S
H603 C595 0.929 . S
H604 C612 0.929 . S
H605 C614 0.930 . S
H606 C616 0.930 . S
H607 C619 0.929 . S
H608 C622 0.930 . S
H609 C624 0.960 . S
H610 C624 0.960 . S
H611 C624 0.960 . S
C612 H604 0.929 . S
C612 C613 1.377 . S
C612 C614 1.384 . S
C613 C612 1.377 . S
C613 C619 1.390 . S
C614 H605 0.930 . S
C614 C612 1.384 . S
C614 C615 1.372 . S
C615 C614 1.372 . S
C615 C616 1.400 . S
C615 C620 1.490 . S
C616 H606 0.930 . S
C616 C615 1.400 . S
C616 C619 1.386 . S
H617 C633 0.930 . S
H618 C634 0.931 . S
C619 H607 0.929 . S
C619 C613 1.390 . S
C619 C616 1.386 . S
C620 C615 1.490 . S
C620 C622 1.395 . S
C620 C623 1.403 . S
H621 C627 0.930 . S
C622 H608 0.930 . S
C622 C620 1.395 . S
C622 C625 1.403 . S
C623 C620 1.403 . S
C623 C624 1.524 . S
C623 C627 1.400 . S
C624 H609 0.960 . S
C624 H610 0.960 . S
C624 H611 0.960 . S
C624 C623 1.524 . S
C625 C622 1.403 . S
C625 C626 1.392 . S
C625 C629 1.495 . S
C626 C625 1.392 . S
C626 C627 1.385 . S
C626 C628 1.478 . S
C627 H621 0.930 . S
C627 C623 1.400 . S
C627 C626 1.385 . S
C628 C626 1.478 . S
C628 C630 1.381 . S
C628 C634 1.383 . S
C629 C625 1.495 . S
C629 H635 0.959 . S
C629 H636 0.961 . S
C629 H637 0.960 . S
C630 C628 1.381 . S
C630 C631 1.394 . S
C630 H638 0.930 . S
C631 C630 1.394 . S
C631 C632 1.383 . S
C631 H639 0.929 . S
C632 C631 1.383 . S
C632 C633 1.377 . S
C633 H617 0.930 . S
C633 C632 1.377 . S
C633 C634 1.379 . S
C634 H618 0.931 . S
C634 C628 1.383 . S
C634 C633 1.379 . S
H635 C629 0.959 . S
H636 C629 0.961 . S
H637 C629 0.960 . S
H638 C630 0.930 . S
H639 C631 0.929 . S
H640 C648 0.929 . S
H641 C650 0.930 . S
H642 C652 0.930 . S
H643 C655 0.929 . S
H644 C658 0.930 . S
H645 C660 1.000 . S
H646 C660 0.910 1_556 S
H647 C660 0.976 . S
C648 H640 0.929 . S
C648 C649 1.377 . S
C648 C650 1.384 . S
C649 C648 1.377 . S
C649 C655 1.390 . S
C650 H641 0.930 . S
C650 C648 1.384 . S
C650 C651 1.372 . S
C651 C650 1.372 . S
C651 C652 1.400 . S
C651 C656 1.490 . S
C652 H642 0.930 . S
C652 C651 1.400 . S
C652 C655 1.386 . S
H653 C669 0.930 . S
H654 C670 0.931 . S
C655 H643 0.929 . S
C655 C649 1.390 . S
C655 C652 1.386 . S
C656 C651 1.490 . S
C656 C658 1.395 1_545 S
C656 C659 1.411 . S
H657 C663 0.930 . S
C658 H644 0.930 . S
C658 C656 1.395 1_565 S
C658 C661 1.403 . S
C659 C656 1.411 . S
C659 C660 1.521 1_556 S
C659 C663 1.392 1_556 S
C660 H645 1.000 . S
C660 H646 0.910 1_554 S
C660 H647 0.976 . S
C660 C659 1.521 1_554 S
C661 C658 1.403 . S
C661 C662 1.392 1_556 S
C661 C665 1.495 . S
C662 C661 1.392 1_554 S
C662 C663 1.385 1_565 S
C662 C664 1.478 . S
C663 H657 0.930 . S
C663 C659 1.392 1_554 S
C663 C662 1.385 1_545 S
C664 C662 1.478 . S
C664 C666 1.381 . S
C664 C670 1.383 . S
C665 C661 1.495 . S
C665 H671 0.959 . S
C665 H672 0.961 1_556 S
C665 H673 0.960 . S
C666 C664 1.381 . S
C666 C667 1.394 . S
C666 H674 0.930 . S
C667 C666 1.394 . S
C667 C668 1.383 . S
C667 H675 0.929 . S
C668 C667 1.383 . S
C668 C669 1.377 . S
C669 H653 0.930 . S
C669 C668 1.377 . S
C669 C670 1.379 . S
C670 H654 0.931 . S
C670 C664 1.383 . S
C670 C669 1.379 . S
H671 C665 0.959 . S
H672 C665 0.961 1_554 S
H673 C665 0.960 . S
H674 C666 0.930 . S
H675 C667 0.929 . S
H676 C684 0.929 . S
H677 C686 0.930 . S
H678 C688 0.930 . S
H679 C691 0.929 . S
H680 C694 0.930 . S
H681 C696 0.960 . S
H682 C696 0.960 . S
H683 C696 0.960 . S
C684 H676 0.929 . S
C684 C685 1.377 . S
C684 C686 1.384 . S
C685 C684 1.377 . S
C685 C691 1.390 . S
C686 H677 0.930 . S
C686 C684 1.384 . S
C686 C687 1.372 . S
C687 C686 1.372 . S
C687 C688 1.400 . S
C687 C692 1.490 . S
C688 H678 0.930 . S
C688 C687 1.400 . S
C688 C691 1.386 . S
H689 C705 0.930 . S
H690 C706 0.931 . S
C691 H679 0.929 . S
C691 C685 1.390 . S
C691 C688 1.386 . S
C692 C687 1.490 . S
C692 C694 1.395 . S
C692 C695 1.403 . S
H693 C699 0.930 . S
C694 H680 0.930 . S
C694 C692 1.395 . S
C694 C697 1.403 . S
C695 C692 1.403 . S
C695 C696 1.524 . S
C695 C699 1.400 . S
C696 H681 0.960 . S
C696 H682 0.960 . S
C696 H683 0.960 . S
C696 C695 1.524 . S
C697 C694 1.403 . S
C697 C698 1.392 . S
C697 C701 1.495 . S
C698 C697 1.392 . S
C698 C699 1.385 . S
C698 C700 1.478 . S
C699 H693 0.930 . S
C699 C695 1.400 . S
C699 C698 1.385 . S
C700 C698 1.478 . S
C700 C702 1.381 . S
C700 C706 1.383 . S
C701 C697 1.495 . S
C701 H707 0.959 . S
C701 H708 0.961 . S
C701 H709 0.960 . S
C702 C700 1.381 . S
C702 C703 1.394 . S
C702 H710 0.930 . S
C703 C702 1.394 . S
C703 C704 1.383 . S
C703 H711 0.929 . S
C704 C703 1.383 . S
C704 C705 1.377 . S
C705 H689 0.930 . S
C705 C704 1.377 . S
C705 C706 1.379 . S
C706 H690 0.931 . S
C706 C700 1.383 . S
C706 C705 1.379 . S
H707 C701 0.959 . S
H708 C701 0.961 . S
H709 C701 0.960 . S
H710 C702 0.930 . S
H711 C703 0.929 . S
H712 C720 0.929 . S
H713 C722 0.930 . S
H714 C724 0.930 . S
H715 C727 0.929 . S
H716 C730 0.930 . S
H717 C732 0.960 . S
H718 C732 0.960 . S
H719 C732 0.960 . S
C720 H712 0.929 . S
C720 C721 1.377 . S
C720 C722 1.384 . S
C721 C720 1.377 . S
C721 C727 1.390 . S
C722 H713 0.930 . S
C722 C720 1.384 . S
C722 C723 1.372 . S
C723 C722 1.372 . S
C723 C724 1.400 . S
C723 C728 1.490 . S
C724 H714 0.930 . S
C724 C723 1.400 . S
C724 C727 1.386 . S
H725 C741 0.930 . S
H726 C742 0.931 . S
C727 H715 0.929 . S
C727 C721 1.390 . S
C727 C724 1.386 . S
C728 C723 1.490 . S
C728 C730 1.395 . S
C728 C731 1.403 . S
H729 C735 0.930 . S
C730 H716 0.930 . S
C730 C728 1.395 . S
C730 C733 1.403 . S
C731 C728 1.403 . S
C731 C732 1.524 . S
C731 C735 1.400 . S
C732 H717 0.960 . S
C732 H718 0.960 . S
C732 H719 0.960 . S
C732 C731 1.524 . S
C733 C730 1.403 . S
C733 C734 1.392 . S
C733 C737 1.495 . S
C734 C733 1.392 . S
C734 C735 1.385 . S
C734 C736 1.478 . S
C735 H729 0.930 . S
C735 C731 1.400 . S
C735 C734 1.385 . S
C736 C734 1.478 . S
C736 C738 1.381 . S
C736 C742 1.383 . S
C737 C733 1.495 . S
C737 H743 0.959 . S
C737 H744 0.961 . S
C737 H745 0.960 . S
C738 C736 1.381 . S
C738 C739 1.394 . S
C738 H746 0.930 . S
C739 C738 1.394 . S
C739 C740 1.383 . S
C739 H747 0.929 . S
C740 C739 1.383 . S
C740 C741 1.377 . S
C741 H725 0.930 . S
C741 C740 1.377 . S
C741 C742 1.379 . S
C742 H726 0.931 . S
C742 C736 1.383 . S
C742 C741 1.379 . S
H743 C737 0.959 . S
H744 C737 0.961 . S
H745 C737 0.960 . S
H746 C738 0.930 . S
H747 C739 0.929 . S
H748 C756 0.929 . S
H749 C758 0.930 . S
H750 C760 0.930 . S
H751 C763 0.929 . S
H752 C766 0.930 . S
H753 C768 0.960 . S
H754 C768 0.960 . S
H755 C768 0.960 . S
C756 H748 0.929 . S
C756 C757 1.377 . S
C756 C758 1.384 . S
C757 C756 1.377 . S
C757 C763 1.390 . S
C758 H749 0.930 . S
C758 C756 1.384 . S
C758 C759 1.372 . S
C759 C758 1.372 . S
C759 C760 1.400 . S
C759 C764 1.490 . S
C760 H750 0.930 . S
C760 C759 1.400 . S
C760 C763 1.386 . S
H761 C777 0.930 . S
H762 C778 0.931 . S
C763 H751 0.929 . S
C763 C757 1.390 . S
C763 C760 1.386 . S
C764 C759 1.490 . S
C764 C766 1.395 . S
C764 C767 1.403 . S
H765 C771 0.930 . S
C766 H752 0.930 . S
C766 C764 1.395 . S
C766 C769 1.403 . S
C767 C764 1.403 . S
C767 C768 1.524 . S
C767 C771 1.400 . S
C768 H753 0.960 . S
C768 H754 0.960 . S
C768 H755 0.960 . S
C768 C767 1.524 . S
C769 C766 1.403 . S
C769 C770 1.392 . S
C769 C773 1.495 . S
C770 C769 1.392 . S
C770 C771 1.385 . S
C770 C772 1.478 . S
C771 H765 0.930 . S
C771 C767 1.400 . S
C771 C770 1.385 . S
C772 C770 1.478 . S
C772 C774 1.381 . S
C772 C778 1.383 . S
C773 C769 1.495 . S
C773 H779 0.959 . S
C773 H780 0.961 . S
C773 H781 0.960 . S
C774 C772 1.381 . S
C774 C775 1.394 . S
C774 H782 0.930 . S
C775 C774 1.394 . S
C775 C776 1.383 . S
C775 H783 0.929 . S
C776 C775 1.383 . S
C776 C777 1.377 . S
C777 H761 0.930 . S
C777 C776 1.377 . S
C777 C778 1.379 . S
C778 H762 0.931 . S
C778 C772 1.383 . S
C778 C777 1.379 . S
H779 C773 0.959 . S
H780 C773 0.961 . S
H781 C773 0.960 . S
H782 C774 0.930 . S
H783 C775 0.929 . S
H784 C792 0.929 . S
H785 C794 0.930 . S
H786 C796 0.930 . S
H787 C799 0.929 . S
H788 C802 0.930 . S
H789 C804 0.960 . S
H790 C804 0.960 . S
H791 C804 0.960 . S
C792 H784 0.929 . S
C792 C793 1.377 . S
C792 C794 1.384 . S
C793 C792 1.377 . S
C793 C799 1.390 . S
C794 H785 0.930 . S
C794 C792 1.384 . S
C794 C795 1.372 . S
C795 C794 1.372 . S
C795 C796 1.400 . S
C795 C800 1.490 . S
C796 H786 0.930 . S
C796 C795 1.400 . S
C796 C799 1.386 . S
H797 C813 0.930 1_545 S
H798 C814 0.931 . S
C799 H787 0.929 . S
C799 C793 1.390 . S
C799 C796 1.386 . S
C800 C795 1.490 . S
C800 C802 1.395 . S
C800 C803 1.403 . S
H801 C807 0.930 . S
C802 H788 0.930 . S
C802 C800 1.395 . S
C802 C805 1.403 . S
C803 C800 1.403 . S
C803 C804 1.524 . S
C803 C807 1.400 . S
C804 H789 0.960 . S
C804 H790 0.960 . S
C804 H791 0.960 . S
C804 C803 1.524 . S
C805 C802 1.403 . S
C805 C806 1.392 . S
C805 C809 1.495 . S
C806 C805 1.392 . S
C806 C807 1.385 . S
C806 C808 1.478 . S
C807 H801 0.930 . S
C807 C803 1.400 . S
C807 C806 1.385 . S
C808 C806 1.478 . S
C808 C810 1.381 . S
C808 C814 1.383 . S
C809 C805 1.495 . S
C809 H815 0.959 . S
C809 H816 0.961 . S
C809 H817 0.960 . S
C810 C808 1.381 . S
C810 C811 1.394 1_565 S
C810 H818 0.930 . S
C811 C810 1.394 1_545 S
C811 C812 1.383 . S
C811 H819 0.929 . S
C812 C811 1.383 . S
C812 C813 1.377 1_545 S
C813 H797 0.930 1_565 S
C813 C812 1.377 1_565 S
C813 C814 1.379 . S
C814 H798 0.931 . S
C814 C808 1.383 . S
C814 C813 1.379 . S
H815 C809 0.959 . S
H816 C809 0.961 . S
H817 C809 0.960 . S
H818 C810 0.930 . S
H819 C811 0.929 . S
H820 C828 0.929 . S
H821 C830 0.930 . S
H822 C832 0.930 . S
H823 C835 0.929 . S
H824 C838 0.930 . S
H825 C840 0.960 . S
H826 C840 0.960 . S
H827 C840 0.960 . S
C828 H820 0.929 . S
C828 C829 1.377 . S
C828 C830 1.384 . S
C829 C828 1.377 . S
C829 C835 1.390 . S
C830 H821 0.930 . S
C830 C828 1.384 . S
C830 C831 1.372 . S
C831 C830 1.372 . S
C831 C832 1.400 . S
C831 C836 1.490 . S
C832 H822 0.930 . S
C832 C831 1.400 . S
C832 C835 1.386 . S
H833 C849 0.930 . S
H834 C850 0.931 . S
C835 H823 0.929 . S
C835 C829 1.390 . S
C835 C832 1.386 . S
C836 C831 1.490 . S
C836 C838 1.395 . S
C836 C839 1.403 . S
H837 C843 0.930 . S
C838 H824 0.930 . S
C838 C836 1.395 . S
C838 C841 1.403 . S
C839 C836 1.403 . S
C839 C840 1.524 . S
C839 C843 1.400 . S
C840 H825 0.960 . S
C840 H826 0.960 . S
C840 H827 0.960 . S
C840 C839 1.524 . S
C841 C838 1.403 . S
C841 C842 1.392 . S
C841 C845 1.495 . S
C842 C841 1.392 . S
C842 C843 1.385 . S
C842 C844 1.478 . S
C843 H837 0.930 . S
C843 C839 1.400 . S
C843 C842 1.385 . S
C844 C842 1.478 . S
C844 C846 1.381 . S
C844 C850 1.383 . S
C845 C841 1.495 . S
C845 H851 0.959 . S
C845 H852 0.961 . S
C845 H853 0.960 . S
C846 C844 1.381 . S
C846 C847 1.394 . S
C846 H854 0.930 . S
C847 C846 1.394 . S
C847 C848 1.383 . S
C847 H855 0.929 . S
C848 C847 1.383 . S
C848 C849 1.377 . S
C849 H833 0.930 . S
C849 C848 1.377 . S
C849 C850 1.379 . S
C850 H834 0.931 . S
C850 C844 1.383 . S
C850 C849 1.379 . S
H851 C845 0.959 . S
H852 C845 0.961 . S
H853 C845 0.960 . S
H854 C846 0.930 . S
H855 C847 0.929 . S
H856 C864 0.929 . S
H857 C866 0.930 . S
H858 C868 0.930 . S
H859 C871 0.929 . S
H860 C874 0.930 . S
H861 C876 0.960 . S
H862 C876 0.960 . S
H863 C876 0.960 . S
C864 H856 0.929 . S
C864 C865 1.377 . S
C864 C866 1.384 . S
C865 C864 1.377 . S
C865 C871 1.390 . S
C866 H857 0.930 . S
C866 C864 1.384 . S
C866 C867 1.372 . S
C867 C866 1.372 . S
C867 C868 1.400 . S
C867 C872 1.490 . S
C868 H858 0.930 . S
C868 C867 1.400 . S
C868 C871 1.386 . S
H869 C885 0.930 . S
H870 C886 0.931 . S
C871 H859 0.929 . S
C871 C865 1.390 . S
C871 C868 1.386 . S
C872 C867 1.490 . S
C872 C874 1.395 . S
C872 C875 1.403 . S
H873 C879 0.930 . S
C874 H860 0.930 . S
C874 C872 1.395 . S
C874 C877 1.403 . S
C875 C872 1.403 . S
C875 C876 1.524 . S
C875 C879 1.400 . S
C876 H861 0.960 . S
C876 H862 0.960 . S
C876 H863 0.960 . S
C876 C875 1.524 . S
C877 C874 1.403 . S
C877 C878 1.392 . S
C877 C881 1.495 . S
C878 C877 1.392 . S
C878 C879 1.385 . S
C878 C880 1.478 . S
C879 H873 0.930 . S
C879 C875 1.400 . S
C879 C878 1.385 . S
C880 C878 1.478 . S
C880 C882 1.381 . S
C880 C886 1.383 . S
C881 C877 1.495 . S
C881 H887 0.959 . S
C881 H888 0.961 . S
C881 H889 0.960 . S
C882 C880 1.381 . S
C882 C883 1.394 . S
C882 H890 0.930 . S
C883 C882 1.394 . S
C883 C884 1.383 . S
C883 H891 0.929 . S
C884 C883 1.383 . S
C884 C885 1.377 . S
C885 H869 0.930 . S
C885 C884 1.377 . S
C885 C886 1.379 . S
C886 H870 0.931 . S
C886 C880 1.383 . S
C886 C885 1.379 . S
H887 C881 0.959 . S
H888 C881 0.961 . S
H889 C881 0.960 . S
H890 C882 0.930 . S
H891 C883 0.929 . S
H892 C900 0.929 . S
H893 C902 0.930 . S
H894 C904 0.930 . S
H895 C907 0.929 . S
H896 C910 0.930 . S
H897 C912 0.960 . S
H898 C912 0.960 . S
H899 C912 0.960 . S
C900 H892 0.929 . S
C900 C901 1.377 . S
C900 C902 1.384 . S
C901 C900 1.377 . S
C901 C907 1.390 . S
C902 H893 0.930 . S
C902 C900 1.384 . S
C902 C903 1.372 . S
C903 C902 1.372 . S
C903 C904 1.400 . S
C903 C908 1.490 . S
C904 H894 0.930 . S
C904 C903 1.400 . S
C904 C907 1.386 . S
H905 C921 0.930 . S
H906 C922 0.931 . S
C907 H895 0.929 . S
C907 C901 1.390 . S
C907 C904 1.386 . S
C908 C903 1.490 . S
C908 C910 1.395 . S
C908 C911 1.403 . S
H909 C915 0.930 . S
C910 H896 0.930 . S
C910 C908 1.395 . S
C910 C913 1.403 . S
C911 C908 1.403 . S
C911 C912 1.524 . S
C911 C915 1.400 . S
C912 H897 0.960 . S
C912 H898 0.960 . S
C912 H899 0.960 . S
C912 C911 1.524 . S
C913 C910 1.403 . S
C913 C914 1.392 . S
C913 C917 1.495 . S
C914 C913 1.392 . S
C914 C915 1.385 . S
C914 C916 1.478 . S
C915 H909 0.930 . S
C915 C911 1.400 . S
C915 C914 1.385 . S
C916 C914 1.478 . S
C916 C918 1.381 . S
C916 C922 1.383 . S
C917 C913 1.495 . S
C917 H923 0.959 . S
C917 H924 0.961 . S
C917 H925 0.960 . S
C918 C916 1.381 . S
C918 C919 1.394 . S
C918 H926 0.930 . S
C919 C918 1.394 . S
C919 C920 1.383 1_565 S
C919 H927 0.929 1_565 S
C920 C919 1.383 1_545 S
C920 C921 1.377 . S
C921 H905 0.930 . S
C921 C920 1.377 . S
C921 C922 1.379 1_545 S
C922 H906 0.931 . S
C922 C916 1.383 . S
C922 C921 1.379 1_565 S
H923 C917 0.959 . S
H924 C917 0.961 . S
H925 C917 0.960 . S
H926 C918 0.930 . S
H927 C919 0.929 1_545 S
H928 C936 0.929 . S
H929 C938 0.930 . S
H930 C940 0.930 . S
H931 C943 0.929 . S
H932 C946 0.930 . S
H933 C948 0.960 . S
H934 C948 0.960 . S
H935 C948 0.960 . S
C936 H928 0.929 . S
C936 C937 1.377 . S
C936 C938 1.384 . S
C937 C936 1.377 . S
C937 C943 1.390 . S
C938 H929 0.930 . S
C938 C936 1.384 . S
C938 C939 1.372 . S
C939 C938 1.372 . S
C939 C940 1.400 . S
C939 C944 1.490 . S
C940 H930 0.930 . S
C940 C939 1.400 . S
C940 C943 1.386 . S
H941 C957 0.930 . S
H942 C958 0.931 . S
C943 H931 0.929 . S
C943 C937 1.390 . S
C943 C940 1.386 . S
C944 C939 1.490 . S
C944 C946 1.395 . S
C944 C947 1.403 . S
H945 C951 0.930 . S
C946 H932 0.930 . S
C946 C944 1.395 . S
C946 C949 1.403 . S
C947 C944 1.403 . S
C947 C948 1.524 . S
C947 C951 1.400 . S
C948 H933 0.960 . S
C948 H934 0.960 . S
C948 H935 0.960 . S
C948 C947 1.524 . S
C949 C946 1.403 . S
C949 C950 1.392 . S
C949 C953 1.495 . S
C950 C949 1.392 . S
C950 C951 1.385 . S
C950 C952 1.478 . S
C951 H945 0.930 . S
C951 C947 1.400 . S
C951 C950 1.385 . S
C952 C950 1.478 . S
C952 C954 1.381 . S
C952 C958 1.383 . S
C953 C949 1.495 . S
C953 H959 0.959 . S
C953 H960 0.961 . S
C953 H961 0.960 . S
C954 C952 1.381 . S
C954 C955 1.394 1_545 S
C954 H962 0.930 . S
C955 C954 1.394 1_565 S
C955 C956 1.383 . S
C955 H963 0.929 . S
C956 C955 1.383 . S
C956 C957 1.377 1_565 S
C957 H941 0.930 . S
C957 C956 1.377 1_545 S
C957 C958 1.379 . S
C958 H942 0.931 . S
C958 C952 1.383 . S
C958 C957 1.379 . S
H959 C953 0.959 . S
H960 C953 0.961 . S
H961 C953 0.960 . S
H962 C954 0.930 . S
H963 C955 0.929 . S
H964 C972 0.929 . S
H965 C974 0.930 . S
H966 C976 0.930 . S
H967 C979 0.929 . S
H968 C982 0.930 . S
H969 C984 0.960 . S
H970 C984 0.960 . S
H971 C984 0.960 . S
C972 H964 0.929 . S
C972 C973 1.377 . S
C972 C974 1.384 . S
C973 C972 1.377 . S
C973 C979 1.390 . S
C974 H965 0.930 . S
C974 C972 1.384 . S
C974 C975 1.372 . S
C975 C974 1.372 . S
C975 C976 1.400 . S
C975 C980 1.490 . S
C976 H966 0.930 . S
C976 C975 1.400 . S
C976 C979 1.386 . S
H977 C993 0.930 . S
H978 C994 0.931 . S
C979 H967 0.929 . S
C979 C973 1.390 . S
C979 C976 1.386 . S
C980 C975 1.490 . S
C980 C982 1.395 . S
C980 C983 1.403 . S
H981 C987 0.930 . S
C982 H968 0.930 . S
C982 C980 1.395 . S
C982 C985 1.403 . S
C983 C980 1.403 . S
C983 C984 1.524 . S
C983 C987 1.400 . S
C984 H969 0.960 . S
C984 H970 0.960 . S
C984 H971 0.960 . S
C984 C983 1.524 . S
C985 C982 1.403 . S
C985 C986 1.392 . S
C985 C989 1.495 . S
C986 C985 1.392 . S
C986 C987 1.385 . S
C986 C988 1.478 . S
C987 H981 0.930 . S
C987 C983 1.400 . S
C987 C986 1.385 . S
C988 C986 1.478 . S
C988 C990 1.381 . S
C988 C994 1.383 . S
C989 C985 1.495 . S
C989 H995 0.959 . S
C989 H996 0.961 . S
C989 H997 0.960 . S
C990 C988 1.381 . S
C990 C991 1.394 . S
C990 H998 0.930 . S
C991 C990 1.394 . S
C991 C992 1.383 . S
C991 H999 0.929 . S
C992 C991 1.383 . S
C992 C993 1.377 . S
C993 H977 0.930 . S
C993 C992 1.377 . S
C993 C994 1.379 . S
C994 H978 0.931 . S
C994 C988 1.383 . S
C994 C993 1.379 . S
H995 C989 0.959 . S
H996 C989 0.961 . S
H997 C989 0.960 . S
H998 C990 0.930 . S
H999 C991 0.929 . S
H1000 C1008 0.929 . S
H1001 C1010 0.930 . S
H1002 C1012 0.930 . S
H1003 C1015 0.929 . S
H1004 C1018 0.930 . S
H1005 C1020 0.960 . S
H1006 C1020 0.960 . S
H1007 C1020 0.960 . S
C1008 H1000 0.929 . S
C1008 C1009 1.377 . S
C1008 C1010 1.384 . S
C1009 C1008 1.377 . S
C1009 C1015 1.390 . S
C1010 H1001 0.930 . S
C1010 C1008 1.384 . S
C1010 C1011 1.372 . S
C1011 C1010 1.372 . S
C1011 C1012 1.400 . S
C1011 C1016 1.490 . S
C1012 H1002 0.930 . S
C1012 C1011 1.400 . S
C1012 C1015 1.386 . S
H1013 C1029 0.930 . S
H1014 C1030 0.931 . S
C1015 H1003 0.929 . S
C1015 C1009 1.390 . S
C1015 C1012 1.386 . S
C1016 C1011 1.490 . S
C1016 C1018 1.395 . S
C1016 C1019 1.403 . S
H1017 C1023 0.930 . S
C1018 H1004 0.930 . S
C1018 C1016 1.395 . S
C1018 C1021 1.403 . S
C1019 C1016 1.403 . S
C1019 C1020 1.524 . S
C1019 C1023 1.400 . S
C1020 H1005 0.960 . S
C1020 H1006 0.960 . S
C1020 H1007 0.960 . S
C1020 C1019 1.524 . S
C1021 C1018 1.403 . S
C1021 C1022 1.392 . S
C1021 C1025 1.495 . S
C1022 C1021 1.392 . S
C1022 C1023 1.385 . S
C1022 C1024 1.478 . S
C1023 H1017 0.930 . S
C1023 C1019 1.400 . S
C1023 C1022 1.385 . S
C1024 C1022 1.478 . S
C1024 C1026 1.381 . S
C1024 C1030 1.383 . S
C1025 C1021 1.495 . S
C1025 H1031 0.959 . S
C1025 H1032 0.961 . S
C1025 H1033 0.960 . S
C1026 C1024 1.381 . S
C1026 C1027 1.394 . S
C1026 H1034 0.930 . S
C1027 C1026 1.394 . S
C1027 C1028 1.383 . S
C1027 H1035 0.929 . S
C1028 C1027 1.383 . S
C1028 C1029 1.377 . S
C1029 H1013 0.930 . S
C1029 C1028 1.377 . S
C1029 C1030 1.379 . S
C1030 H1014 0.931 . S
C1030 C1024 1.383 . S
C1030 C1029 1.379 . S
H1031 C1025 0.959 . S
H1032 C1025 0.961 . S
H1033 C1025 0.960 . S
H1034 C1026 0.930 . S
H1035 C1027 0.929 . S
H1036 C1044 0.929 . S
H1037 C1046 0.930 . S
H1038 C1048 0.930 . S
H1039 C1051 0.929 . S
H1040 C1054 0.930 . S
H1041 C1056 0.960 . S
H1042 C1056 0.960 . S
H1043 C1056 0.960 . S
C1044 H1036 0.929 . S
C1044 C1045 1.377 1_545 S
C1044 C1046 1.384 . S
C1045 C1044 1.377 1_565 S
C1045 C1051 1.390 . S
C1046 H1037 0.930 . S
C1046 C1044 1.384 . S
C1046 C1047 1.372 . S
C1047 C1046 1.372 . S
C1047 C1048 1.400 . S
C1047 C1052 1.490 . S
C1048 H1038 0.930 . S
C1048 C1047 1.400 . S
C1048 C1051 1.386 1_545 S
H1049 C1065 0.930 . S
H1050 C1066 0.931 . S
C1051 H1039 0.929 . S
C1051 C1045 1.390 . S
C1051 C1048 1.386 1_565 S
C1052 C1047 1.490 . S
C1052 C1054 1.395 . S
C1052 C1055 1.403 . S
H1053 C1059 0.930 . S
C1054 H1040 0.930 . S
C1054 C1052 1.395 . S
C1054 C1057 1.403 . S
C1055 C1052 1.403 . S
C1055 C1056 1.524 . S
C1055 C1059 1.400 . S
C1056 H1041 0.960 . S
C1056 H1042 0.960 . S
C1056 H1043 0.960 . S
C1056 C1055 1.524 . S
C1057 C1054 1.403 . S
C1057 C1058 1.392 . S
C1057 C1061 1.495 . S
C1058 C1057 1.392 . S
C1058 C1059 1.385 . S
C1058 C1060 1.478 . S
C1059 H1053 0.930 . S
C1059 C1055 1.400 . S
C1059 C1058 1.385 . S
C1060 C1058 1.478 . S
C1060 C1062 1.381 . S
C1060 C1066 1.383 . S
C1061 C1057 1.495 . S
C1061 H1067 0.959 . S
C1061 H1068 0.961 . S
C1061 H1069 0.960 . S
C1062 C1060 1.381 . S
C1062 C1063 1.394 . S
C1062 H1070 0.930 . S
C1063 C1062 1.394 . S
C1063 C1064 1.383 . S
C1063 H1071 0.929 . S
C1064 C1063 1.383 . S
C1064 C1065 1.377 . S
C1065 H1049 0.930 . S
C1065 C1064 1.377 . S
C1065 C1066 1.379 . S
C1066 H1050 0.931 . S
C1066 C1060 1.383 . S
C1066 C1065 1.379 . S
H1067 C1061 0.959 . S
H1068 C1061 0.961 . S
H1069 C1061 0.960 . S
H1070 C1062 0.930 . S
H1071 C1063 0.929 . S
H1072 C1080 0.929 . S
H1073 C1082 0.930 . S
H1074 C1084 0.930 . S
H1075 C1087 0.929 . S
H1076 C1090 0.930 . S
H1077 C1092 0.960 . S
H1078 C1092 0.960 . S
H1079 C1092 0.960 . S
C1080 H1072 0.929 . S
C1080 C1081 1.377 . S
C1080 C1082 1.384 . S
C1081 C1080 1.377 . S
C1081 C1087 1.390 . S
C1082 H1073 0.930 . S
C1082 C1080 1.384 . S
C1082 C1083 1.372 . S
C1083 C1082 1.372 . S
C1083 C1084 1.400 . S
C1083 C1088 1.490 . S
C1084 H1074 0.930 . S
C1084 C1083 1.400 . S
C1084 C1087 1.386 . S
H1085 C1101 0.930 . S
H1086 C1102 0.931 . S
C1087 H1075 0.929 . S
C1087 C1081 1.390 . S
C1087 C1084 1.386 . S
C1088 C1083 1.490 . S
C1088 C1090 1.395 . S
C1088 C1091 1.403 . S
H1089 C1095 0.930 . S
C1090 H1076 0.930 . S
C1090 C1088 1.395 . S
C1090 C1093 1.403 . S
C1091 C1088 1.403 . S
C1091 C1092 1.524 . S
C1091 C1095 1.400 . S
C1092 H1077 0.960 . S
C1092 H1078 0.960 . S
C1092 H1079 0.960 . S
C1092 C1091 1.524 . S
C1093 C1090 1.403 . S
C1093 C1094 1.392 . S
C1093 C1097 1.495 . S
C1094 C1093 1.392 . S
C1094 C1095 1.385 . S
C1094 C1096 1.478 . S
C1095 H1089 0.930 . S
C1095 C1091 1.400 . S
C1095 C1094 1.385 . S
C1096 C1094 1.478 . S
C1096 C1098 1.381 . S
C1096 C1102 1.383 . S
C1097 C1093 1.495 . S
C1097 H1103 0.959 . S
C1097 H1104 0.961 . S
C1097 H1105 0.960 . S
C1098 C1096 1.381 . S
C1098 C1099 1.394 . S
C1098 H1106 0.930 . S
C1099 C1098 1.394 . S
C1099 C1100 1.383 1_565 S
C1099 H1107 0.929 . S
C1100 C1099 1.383 1_545 S
C1100 C1101 1.377 . S
C1101 H1085 0.930 . S
C1101 C1100 1.377 . S
C1101 C1102 1.379 1_545 S
C1102 H1086 0.931 . S
C1102 C1096 1.383 . S
C1102 C1101 1.379 1_565 S
H1103 C1097 0.959 . S
H1104 C1097 0.961 . S
H1105 C1097 0.960 . S
H1106 C1098 0.930 . S
H1107 C1099 0.929 . S
H1108 C1116 0.929 . S
H1109 C1118 0.930 . S
H1110 C1120 0.930 . S
H1111 C1123 0.929 . S
H1112 C1126 0.930 . S
H1113 C1128 0.960 . S
H1114 C1128 0.960 . S
H1115 C1128 0.960 . S
C1116 H1108 0.929 . S
C1116 C1117 1.377 . S
C1116 C1118 1.384 . S
C1117 C1116 1.377 . S
C1117 C1123 1.390 . S
C1118 H1109 0.930 . S
C1118 C1116 1.384 . S
C1118 C1119 1.372 . S
C1119 C1118 1.372 . S
C1119 C1120 1.400 . S
C1119 C1124 1.490 . S
C1120 H1110 0.930 . S
C1120 C1119 1.400 . S
C1120 C1123 1.386 . S
H1121 C1137 0.930 . S
H1122 C1138 0.931 . S
C1123 H1111 0.929 . S
C1123 C1117 1.390 . S
C1123 C1120 1.386 . S
C1124 C1119 1.490 . S
C1124 C1126 1.395 . S
C1124 C1127 1.403 . S
H1125 C1131 0.930 . S
C1126 H1112 0.930 . S
C1126 C1124 1.395 . S
C1126 C1129 1.403 . S
C1127 C1124 1.403 . S
C1127 C1128 1.524 . S
C1127 C1131 1.400 . S
C1128 H1113 0.960 . S
C1128 H1114 0.960 . S
C1128 H1115 0.960 . S
C1128 C1127 1.524 . S
C1129 C1126 1.403 . S
C1129 C1130 1.392 . S
C1129 C1133 1.495 . S
C1130 C1129 1.392 . S
C1130 C1131 1.385 . S
C1130 C1132 1.478 . S
C1131 H1125 0.930 . S
C1131 C1127 1.400 . S
C1131 C1130 1.385 . S
C1132 C1130 1.478 . S
C1132 C1134 1.381 . S
C1132 C1138 1.383 . S
C1133 C1129 1.495 . S
C1133 H1139 0.959 . S
C1133 H1140 0.961 . S
C1133 H1141 0.960 . S
C1134 C1132 1.381 . S
C1134 C1135 1.394 . S
C1134 H1142 0.930 . S
C1135 C1134 1.394 . S
C1135 C1136 1.383 . S
C1135 H1143 0.929 . S
C1136 C1135 1.383 . S
C1136 C1137 1.377 . S
C1137 H1121 0.930 . S
C1137 C1136 1.377 . S
C1137 C1138 1.379 . S
C1138 H1122 0.931 . S
C1138 C1132 1.383 . S
C1138 C1137 1.379 . S
H1139 C1133 0.959 . S
H1140 C1133 0.961 . S
H1141 C1133 0.960 . S
H1142 C1134 0.930 . S
H1143 C1135 0.929 . S
H1144 C1152 0.929 . S
H1145 C1154 0.930 . S
H1146 C1156 0.930 . S
H1147 C1159 0.929 . S
H1148 C1162 0.930 . S
H1149 C1164 0.960 . S
H1150 C1164 0.960 . S
H1151 C1164 0.960 . S
C1152 H1144 0.929 . S
C1152 C1153 1.377 . S
C1152 C1154 1.384 . S
C1153 C1152 1.377 . S
C1153 C1159 1.390 . S
C1154 H1145 0.930 . S
C1154 C1152 1.384 . S
C1154 C1155 1.372 . S
C1155 C1154 1.372 . S
C1155 C1156 1.400 . S
C1155 C1160 1.490 . S
C1156 H1146 0.930 . S
C1156 C1155 1.400 . S
C1156 C1159 1.386 . S
H1157 C1173 0.930 . S
H1158 C1174 0.931 . S
C1159 H1147 0.929 . S
C1159 C1153 1.390 . S
C1159 C1156 1.386 . S
C1160 C1155 1.490 . S
C1160 C1162 1.395 . S
C1160 C1163 1.403 . S
H1161 C1167 0.930 . S
C1162 H1148 0.930 . S
C1162 C1160 1.395 . S
C1162 C1165 1.403 . S
C1163 C1160 1.403 . S
C1163 C1164 1.524 . S
C1163 C1167 1.400 . S
C1164 H1149 0.960 . S
C1164 H1150 0.960 . S
C1164 H1151 0.960 . S
C1164 C1163 1.524 . S
C1165 C1162 1.403 . S
C1165 C1166 1.392 . S
C1165 C1169 1.495 . S
C1166 C1165 1.392 . S
C1166 C1167 1.385 . S
C1166 C1168 1.478 . S
C1167 H1161 0.930 . S
C1167 C1163 1.400 . S
C1167 C1166 1.385 . S
C1168 C1166 1.478 . S
C1168 C1170 1.381 . S
C1168 C1174 1.383 . S
C1169 C1165 1.495 . S
C1169 H1175 0.959 . S
C1169 H1176 0.961 . S
C1169 H1177 0.960 . S
C1170 C1168 1.381 . S
C1170 C1171 1.394 . S
C1170 H1178 0.930 . S
C1171 C1170 1.394 . S
C1171 C1172 1.383 . S
C1171 H1179 0.929 . S
C1172 C1171 1.383 . S
C1172 C1173 1.377 . S
C1173 H1157 0.930 . S
C1173 C1172 1.377 . S
C1173 C1174 1.379 . S
C1174 H1158 0.931 . S
C1174 C1168 1.383 . S
C1174 C1173 1.379 . S
H1175 C1169 0.959 . S
H1176 C1169 0.961 . S
H1177 C1169 0.960 . S
H1178 C1170 0.930 . S
H1179 C1171 0.929 . S
H1180 C1188 0.929 . S
H1181 C1190 0.930 . S
H1182 C1192 0.930 . S
H1183 C1195 0.929 . S
H1184 C1198 0.930 . S
H1185 C1200 0.960 . S
H1186 C1200 0.960 . S
H1187 C1200 0.960 . S
C1188 H1180 0.929 . S
C1188 C1189 1.377 . S
C1188 C1190 1.384 . S
C1189 C1188 1.377 . S
C1189 C1195 1.390 . S
C1190 H1181 0.930 . S
C1190 C1188 1.384 . S
C1190 C1191 1.372 . S
C1191 C1190 1.372 . S
C1191 C1192 1.400 . S
C1191 C1196 1.490 . S
C1192 H1182 0.930 . S
C1192 C1191 1.400 . S
C1192 C1195 1.386 . S
H1193 C1209 0.930 . S
H1194 C1210 0.931 . S
C1195 H1183 0.929 . S
C1195 C1189 1.390 . S
C1195 C1192 1.386 . S
C1196 C1191 1.490 . S
C1196 C1198 1.395 . S
C1196 C1199 1.403 . S
H1197 C1203 0.930 . S
C1198 H1184 0.930 . S
C1198 C1196 1.395 . S
C1198 C1201 1.403 . S
C1199 C1196 1.403 . S
C1199 C1200 1.524 . S
C1199 C1203 1.400 . S
C1200 H1185 0.960 . S
C1200 H1186 0.960 . S
C1200 H1187 0.960 . S
C1200 C1199 1.524 . S
C1201 C1198 1.403 . S
C1201 C1202 1.392 . S
C1201 C1205 1.495 . S
C1202 C1201 1.392 . S
C1202 C1203 1.385 . S
C1202 C1204 1.478 . S
C1203 H1197 0.930 . S
C1203 C1199 1.400 . S
C1203 C1202 1.385 . S
C1204 C1202 1.478 . S
C1204 C1206 1.381 . S
C1204 C1210 1.383 . S
C1205 C1201 1.495 . S
C1205 H1211 0.959 . S
C1205 H1212 0.961 . S
C1205 H1213 0.960 . S
C1206 C1204 1.381 . S
C1206 C1207 1.394 1_565 S
C1206 H1214 0.930 . S
C1207 C1206 1.394 1_545 S
C1207 C1208 1.383 . S
C1207 H1215 0.929 . S
C1208 C1207 1.383 . S
C1208 C1209 1.377 1_545 S
C1209 H1193 0.930 . S
C1209 C1208 1.377 1_565 S
C1209 C1210 1.379 . S
C1210 H1194 0.931 . S
C1210 C1204 1.383 . S
C1210 C1209 1.379 . S
H1211 C1205 0.959 . S
H1212 C1205 0.961 . S
H1213 C1205 0.960 . S
H1214 C1206 0.930 . S
H1215 C1207 0.929 . S
H1216 C1224 0.929 . S
H1217 C1226 0.930 . S
H1218 C1228 0.930 . S
H1219 C1231 0.929 . S
H1220 C1234 0.930 . S
H1221 C1236 0.960 . S
H1222 C1236 0.960 . S
H1223 C1236 0.960 . S
C1224 H1216 0.929 . S
C1224 C1225 1.377 . S
C1224 C1226 1.384 . S
C1225 C1224 1.377 . S
C1225 C1231 1.390 . S
C1226 H1217 0.930 . S
C1226 C1224 1.384 . S
C1226 C1227 1.372 . S
C1227 C1226 1.372 . S
C1227 C1228 1.400 . S
C1227 C1232 1.490 . S
C1228 H1218 0.930 . S
C1228 C1227 1.400 . S
C1228 C1231 1.386 . S
H1229 C1245 0.930 . S
H1230 C1246 0.931 . S
C1231 H1219 0.929 . S
C1231 C1225 1.390 . S
C1231 C1228 1.386 . S
C1232 C1227 1.490 . S
C1232 C1234 1.395 . S
C1232 C1235 1.403 . S
H1233 C1239 0.930 . S
C1234 H1220 0.930 . S
C1234 C1232 1.395 . S
C1234 C1237 1.403 . S
C1235 C1232 1.403 . S
C1235 C1236 1.524 . S
C1235 C1239 1.400 . S
C1236 H1221 0.960 . S
C1236 H1222 0.960 . S
C1236 H1223 0.960 . S
C1236 C1235 1.524 . S
C1237 C1234 1.403 . S
C1237 C1238 1.392 . S
C1237 C1241 1.495 . S
C1238 C1237 1.392 . S
C1238 C1239 1.385 . S
C1238 C1240 1.478 . S
C1239 H1233 0.930 . S
C1239 C1235 1.400 . S
C1239 C1238 1.385 . S
C1240 C1238 1.478 . S
C1240 C1242 1.381 . S
C1240 C1246 1.383 . S
C1241 C1237 1.495 . S
C1241 H1247 0.959 . S
C1241 H1248 0.961 . S
C1241 H1249 0.960 . S
C1242 C1240 1.381 . S
C1242 C1243 1.394 . S
C1242 H1250 0.930 . S
C1243 C1242 1.394 . S
C1243 C1244 1.383 1_545 S
C1243 H1251 0.929 . S
C1244 C1243 1.383 1_565 S
C1244 C1245 1.377 . S
C1245 H1229 0.930 . S
C1245 C1244 1.377 . S
C1245 C1246 1.379 1_565 S
C1246 H1230 0.931 . S
C1246 C1240 1.383 . S
C1246 C1245 1.379 1_545 S
H1247 C1241 0.959 . S
H1248 C1241 0.961 . S
H1249 C1241 0.960 . S
H1250 C1242 0.930 . S
H1251 C1243 0.929 . S
H1252 C1260 0.929 . S
H1253 C1262 0.930 . S
H1254 C1264 0.930 . S
H1255 C1267 0.929 . S
H1256 C1270 0.930 . S
H1257 C1272 0.960 . S
H1258 C1272 0.960 . S
H1259 C1272 0.960 . S
C1260 H1252 0.929 . S
C1260 C1261 1.377 . S
C1260 C1262 1.384 . S
C1261 C1260 1.377 . S
C1261 C1267 1.390 . S
C1262 H1253 0.930 . S
C1262 C1260 1.384 . S
C1262 C1263 1.372 . S
C1263 C1262 1.372 . S
C1263 C1264 1.400 . S
C1263 C1268 1.490 . S
C1264 H1254 0.930 . S
C1264 C1263 1.400 . S
C1264 C1267 1.386 . S
H1265 C1281 0.930 . S
H1266 C1282 0.931 . S
C1267 H1255 0.929 . S
C1267 C1261 1.390 . S
C1267 C1264 1.386 . S
C1268 C1263 1.490 . S
C1268 C1270 1.395 . S
C1268 C1271 1.403 . S
H1269 C1275 0.930 . S
C1270 H1256 0.930 . S
C1270 C1268 1.395 . S
C1270 C1273 1.403 . S
C1271 C1268 1.403 . S
C1271 C1272 1.524 . S
C1271 C1275 1.400 . S
C1272 H1257 0.960 . S
C1272 H1258 0.960 . S
C1272 H1259 0.960 . S
C1272 C1271 1.524 . S
C1273 C1270 1.403 . S
C1273 C1274 1.392 . S
C1273 C1277 1.495 . S
C1274 C1273 1.392 . S
C1274 C1275 1.385 . S
C1274 C1276 1.478 . S
C1275 H1269 0.930 . S
C1275 C1271 1.400 . S
C1275 C1274 1.385 . S
C1276 C1274 1.478 . S
C1276 C1278 1.381 . S
C1276 C1282 1.383 . S
C1277 C1273 1.495 . S
C1277 H1283 0.959 . S
C1277 H1284 0.961 . S
C1277 H1285 0.960 . S
C1278 C1276 1.381 . S
C1278 C1279 1.394 . S
C1278 H1286 0.930 . S
C1279 C1278 1.394 . S
C1279 C1280 1.383 . S
C1279 H1287 0.929 . S
C1280 C1279 1.383 . S
C1280 C1281 1.377 . S
C1281 H1265 0.930 . S
C1281 C1280 1.377 . S
C1281 C1282 1.379 . S
C1282 H1266 0.931 . S
C1282 C1276 1.383 . S
C1282 C1281 1.379 . S
H1283 C1277 0.959 . S
H1284 C1277 0.961 . S
H1285 C1277 0.960 . S
H1286 C1278 0.930 . S
H1287 C1279 0.929 . S
H1288 C1296 0.929 . S
H1289 C1298 0.930 . S
H1290 C1300 0.930 . S
H1291 C1303 0.929 . S
H1292 C1306 0.930 . S
H1293 C1308 0.960 . S
H1294 C1308 0.960 . S
H1295 C1308 0.960 . S
C1296 H1288 0.929 . S
C1296 C1297 1.377 . S
C1296 C1298 1.384 . S
C1297 C1296 1.377 . S
C1297 C1303 1.390 . S
C1298 H1289 0.930 . S
C1298 C1296 1.384 . S
C1298 C1299 1.372 . S
C1299 C1298 1.372 . S
C1299 C1300 1.400 . S
C1299 C1304 1.490 . S
C1300 H1290 0.930 . S
C1300 C1299 1.400 . S
C1300 C1303 1.386 . S
H1301 C1317 0.930 . S
H1302 C1318 0.931 . S
C1303 H1291 0.929 . S
C1303 C1297 1.390 . S
C1303 C1300 1.386 . S
C1304 C1299 1.490 . S
C1304 C1306 1.395 . S
C1304 C1307 1.403 . S
H1305 C1311 0.930 . S
C1306 H1292 0.930 . S
C1306 C1304 1.395 . S
C1306 C1309 1.403 . S
C1307 C1304 1.403 . S
C1307 C1308 1.524 . S
C1307 C1311 1.400 . S
C1308 H1293 0.960 . S
C1308 H1294 0.960 . S
C1308 H1295 0.960 . S
C1308 C1307 1.524 . S
C1309 C1306 1.403 . S
C1309 C1310 1.392 . S
C1309 C1313 1.495 . S
C1310 C1309 1.392 . S
C1310 C1311 1.385 . S
C1310 C1312 1.478 . S
C1311 H1305 0.930 . S
C1311 C1307 1.400 . S
C1311 C1310 1.385 . S
C1312 C1310 1.478 . S
C1312 C1314 1.381 . S
C1312 C1318 1.383 . S
C1313 C1309 1.495 . S
C1313 H1319 0.959 . S
C1313 H1320 0.961 . S
C1313 H1321 0.960 . S
C1314 C1312 1.381 . S
C1314 C1315 1.394 . S
C1314 H1322 0.930 . S
C1315 C1314 1.394 . S
C1315 C1316 1.383 . S
C1315 H1323 0.929 . S
C1316 C1315 1.383 . S
C1316 C1317 1.377 . S
C1317 H1301 0.930 . S
C1317 C1316 1.377 . S
C1317 C1318 1.379 . S
C1318 H1302 0.931 . S
C1318 C1312 1.383 . S
C1318 C1317 1.379 . S
H1319 C1313 0.959 . S
H1320 C1313 0.961 . S
H1321 C1313 0.960 . S
H1322 C1314 0.930 . S
H1323 C1315 0.929 . S
H1324 C1332 0.929 . S
H1325 C1334 0.930 . S
H1326 C1336 0.930 . S
H1327 C1339 0.929 . S
H1328 C1342 0.930 . S
H1329 C1344 0.960 . S
H1330 C1344 0.960 . S
H1331 C1344 0.960 . S
C1332 H1324 0.929 . S
C1332 C1333 1.377 . S
C1332 C1334 1.384 . S
C1333 C1332 1.377 . S
C1333 C1339 1.390 . S
C1334 H1325 0.930 . S
C1334 C1332 1.384 . S
C1334 C1335 1.372 . S
C1335 C1334 1.372 . S
C1335 C1336 1.400 . S
C1335 C1340 1.490 . S
C1336 H1326 0.930 . S
C1336 C1335 1.400 . S
C1336 C1339 1.386 . S
H1337 C1353 0.930 . S
H1338 C1354 0.931 . S
C1339 H1327 0.929 . S
C1339 C1333 1.390 . S
C1339 C1336 1.386 . S
C1340 C1335 1.490 . S
C1340 C1342 1.395 . S
C1340 C1343 1.403 . S
H1341 C1347 0.930 . S
C1342 H1328 0.930 . S
C1342 C1340 1.395 . S
C1342 C1345 1.403 . S
C1343 C1340 1.403 . S
C1343 C1344 1.524 . S
C1343 C1347 1.400 . S
C1344 H1329 0.960 . S
C1344 H1330 0.960 . S
C1344 H1331 0.960 . S
C1344 C1343 1.524 . S
C1345 C1342 1.403 . S
C1345 C1346 1.392 . S
C1345 C1349 1.495 . S
C1346 C1345 1.392 . S
C1346 C1347 1.385 . S
C1346 C1348 1.478 . S
C1347 H1341 0.930 . S
C1347 C1343 1.400 . S
C1347 C1346 1.385 . S
C1348 C1346 1.478 . S
C1348 C1350 1.381 . S
C1348 C1354 1.383 . S
C1349 C1345 1.495 . S
C1349 H1355 0.959 . S
C1349 H1356 0.961 . S
C1349 H1357 0.960 . S
C1350 C1348 1.381 . S
C1350 C1351 1.394 . S
C1350 H1358 0.930 . S
C1351 C1350 1.394 . S
C1351 C1352 1.383 1_545 S
C1351 H1359 0.931 . S
C1352 C1351 1.383 1_565 S
C1352 C1353 1.377 . S
C1353 H1337 0.930 . S
C1353 C1352 1.377 . S
C1353 C1354 1.379 1_565 S
C1354 H1338 0.931 . S
C1354 C1348 1.383 . S
C1354 C1353 1.379 1_545 S
H1355 C1349 0.959 . S
H1356 C1349 0.961 . S
H1357 C1349 0.960 . S
H1358 C1350 0.930 . S
H1359 C1351 0.931 . S
C217 C185 1.509 . S
C236 C3 1.506 . S
C253 C30 1.509 . S
C272 C4 1.508 . S
C289 C153 1.508 . S
C308 C17 1.506 . S
C325 C16 1.509 . S
C344 C96 1.505 . S
C361 C29 1.509 . S
C380 C159 1.506 . S
C397 C127 1.508 . S
C416 C49 1.506 . S
C433 C44 1.509 . S
C452 C68 1.506 . S
C469 C135 1.509 . S
C488 C55 1.506 . S
C505 C56 1.508 . S
C524 C82 1.504 . S
C541 C205 1.508 . S
C560 C69 1.503 . S
C577 C107 1.509 . S
C596 C81 1.506 . S
C613 C179 1.508 . S
C632 C101 1.507 . S
C649 C108 1.508 . S
C668 C140 1.506 . S
C685 C200 1.509 . S
C704 C122 1.506 . S
C721 C148 1.509 . S
C740 C174 1.506 . S
C757 C186 1.509 . S
C776 C160 1.508 . S
C793 C70 1.597 . S
C812 C10 1.596 . S
C829 C5 1.597 . S
C848 C75 1.595 . S
C865 C18 1.597 . S
C884 C62 1.590 . S
C901 C57 1.598 . S
C920 C23 1.596 . S
C937 C94 1.597 . S
C956 C36 1.591 . S
C973 C95 1.596 . S
C992 C31 1.593 . S
C1009 C88 1.596 . S
C1028 C42 1.595 . S
C1045 C43 1.596 . S
C1064 C83 1.593 . S
C1081 C172 1.597 . S
C1100 C114 1.595 . S
C1117 C109 1.597 . S
C1136 C173 1.592 . S
C1153 C120 1.597 . S
C1172 C166 1.590 . S
C1189 C161 1.597 . S
C1208 C121 1.595 . S
C1225 C198 1.597 . S
C1244 C134 1.595 . S
C1261 C199 1.596 . S
C1280 C133 1.593 . S
C1297 C146 1.597 . S
C1316 C192 1.590 . S
C1333 C187 1.597 . S
C1352 C147 1.595 . S
