# Generated by pormake.
# Topology snl, (6)-cn, num edge types: 1
# Building blocks:
#     Node 0, Type 0, BuildingBlock: KUMBUR_clean_sbu_0, # of connection points: 6
#     Node 1, Type 0, BuildingBlock: KUMBUR_clean_sbu_0, # of connection points: 6
#     Node 2, Type 0, BuildingBlock: KUMBUR_clean_sbu_0, # of connection points: 6
#     Node 3, Type 0, BuildingBlock: KUMBUR_clean_sbu_0, # of connection points: 6
#     Node 4, Type 0, BuildingBlock: KUMBUR_clean_sbu_0, # of connection points: 6
#     Node 5, Type 0, BuildingBlock: KUMBUR_clean_sbu_0, # of connection points: 6
#     Node 6, Type 0, BuildingBlock: KUMBUR_clean_sbu_0, # of connection points: 6
#     Node 7, Type 0, BuildingBlock: KUMBUR_clean_sbu_0, # of connection points: 6
#     Node 8, Type 0, BuildingBlock: KUMBUR_clean_sbu_0, # of connection points: 6
#     Node 9, Type 0, BuildingBlock: KUMBUR_clean_sbu_0, # of connection points: 6
#     Node 10, Type 0, BuildingBlock: KUMBUR_clean_sbu_0, # of connection points: 6
#     Node 11, Type 0, BuildingBlock: KUMBUR_clean_sbu_0, # of connection points: 6
#     Node 12, Type 0, BuildingBlock: KUMBUR_clean_sbu_0, # of connection points: 6
#     Node 13, Type 0, BuildingBlock: KUMBUR_clean_sbu_0, # of connection points: 6
#     Node 14, Type 0, BuildingBlock: KUMBUR_clean_sbu_0, # of connection points: 6
#     Node 15, Type 0, BuildingBlock: KUMBUR_clean_sbu_0, # of connection points: 6
#     Edge 16, Type (0, 0), BuildingBlock: KIFKEQ_clean_linker_1, # of connection points: 2
#     Edge 17, Type (0, 0), BuildingBlock: KIFKEQ_clean_linker_1, # of connection points: 2
#     Edge 18, Type (0, 0), BuildingBlock: KIFKEQ_clean_linker_1, # of connection points: 2
#     Edge 19, Type (0, 0), BuildingBlock: KIFKEQ_clean_linker_1, # of connection points: 2
#     Edge 20, Type (0, 0), BuildingBlock: KIFKEQ_clean_linker_1, # of connection points: 2
#     Edge 21, Type (0, 0), BuildingBlock: KIFKEQ_clean_linker_1, # of connection points: 2
#     Edge 22, Type (0, 0), BuildingBlock: KIFKEQ_clean_linker_1, # of connection points: 2
#     Edge 23, Type (0, 0), BuildingBlock: KIFKEQ_clean_linker_1, # of connection points: 2
#     Edge 24, Type (0, 0), BuildingBlock: KIFKEQ_clean_linker_1, # of connection points: 2
#     Edge 25, Type (0, 0), BuildingBlock: KIFKEQ_clean_linker_1, # of connection points: 2
#     Edge 26, Type (0, 0), BuildingBlock: KIFKEQ_clean_linker_1, # of connection points: 2
#     Edge 27, Type (0, 0), BuildingBlock: KIFKEQ_clean_linker_1, # of connection points: 2
#     Edge 28, Type (0, 0), BuildingBlock: KIFKEQ_clean_linker_1, # of connection points: 2
#     Edge 29, Type (0, 0), BuildingBlock: KIFKEQ_clean_linker_1, # of connection points: 2
#     Edge 30, Type (0, 0), BuildingBlock: KIFKEQ_clean_linker_1, # of connection points: 2
#     Edge 31, Type (0, 0), BuildingBlock: KIFKEQ_clean_linker_1, # of connection points: 2
#     Edge 32, Type (0, 0), BuildingBlock: KIFKEQ_clean_linker_1, # of connection points: 2
#     Edge 33, Type (0, 0), BuildingBlock: KIFKEQ_clean_linker_1, # of connection points: 2
#     Edge 34, Type (0, 0), BuildingBlock: KIFKEQ_clean_linker_1, # of connection points: 2
#     Edge 35, Type (0, 0), BuildingBlock: KIFKEQ_clean_linker_1, # of connection points: 2
#     Edge 36, Type (0, 0), BuildingBlock: KIFKEQ_clean_linker_1, # of connection points: 2
#     Edge 37, Type (0, 0), BuildingBlock: KIFKEQ_clean_linker_1, # of connection points: 2
#     Edge 38, Type (0, 0), BuildingBlock: KIFKEQ_clean_linker_1, # of connection points: 2
#     Edge 39, Type (0, 0), BuildingBlock: KIFKEQ_clean_linker_1, # of connection points: 2
#     Edge 40, Type (0, 0), BuildingBlock: KIFKEQ_clean_linker_1, # of connection points: 2
#     Edge 41, Type (0, 0), BuildingBlock: KIFKEQ_clean_linker_1, # of connection points: 2
#     Edge 42, Type (0, 0), BuildingBlock: KIFKEQ_clean_linker_1, # of connection points: 2
#     Edge 43, Type (0, 0), BuildingBlock: KIFKEQ_clean_linker_1, # of connection points: 2
#     Edge 44, Type (0, 0), BuildingBlock: KIFKEQ_clean_linker_1, # of connection points: 2
#     Edge 45, Type (0, 0), BuildingBlock: KIFKEQ_clean_linker_1, # of connection points: 2
#     Edge 46, Type (0, 0), BuildingBlock: KIFKEQ_clean_linker_1, # of connection points: 2
#     Edge 47, Type (0, 0), BuildingBlock: KIFKEQ_clean_linker_1, # of connection points: 2
#     Edge 48, Type (0, 0), BuildingBlock: KIFKEQ_clean_linker_1, # of connection points: 2
#     Edge 49, Type (0, 0), BuildingBlock: KIFKEQ_clean_linker_1, # of connection points: 2
#     Edge 50, Type (0, 0), BuildingBlock: KIFKEQ_clean_linker_1, # of connection points: 2
#     Edge 51, Type (0, 0), BuildingBlock: KIFKEQ_clean_linker_1, # of connection points: 2
#     Edge 52, Type (0, 0), BuildingBlock: KIFKEQ_clean_linker_1, # of connection points: 2
#     Edge 53, Type (0, 0), BuildingBlock: KIFKEQ_clean_linker_1, # of connection points: 2
#     Edge 54, Type (0, 0), BuildingBlock: KIFKEQ_clean_linker_1, # of connection points: 2
#     Edge 55, Type (0, 0), BuildingBlock: KIFKEQ_clean_linker_1, # of connection points: 2
#     Edge 56, Type (0, 0), BuildingBlock: KIFKEQ_clean_linker_1, # of connection points: 2
#     Edge 57, Type (0, 0), BuildingBlock: KIFKEQ_clean_linker_1, # of connection points: 2
#     Edge 58, Type (0, 0), BuildingBlock: KIFKEQ_clean_linker_1, # of connection points: 2
#     Edge 59, Type (0, 0), BuildingBlock: KIFKEQ_clean_linker_1, # of connection points: 2
#     Edge 60, Type (0, 0), BuildingBlock: KIFKEQ_clean_linker_1, # of connection points: 2
#     Edge 61, Type (0, 0), BuildingBlock: KIFKEQ_clean_linker_1, # of connection points: 2
#     Edge 62, Type (0, 0), BuildingBlock: KIFKEQ_clean_linker_1, # of connection points: 2
#     Edge 63, Type (0, 0), BuildingBlock: KIFKEQ_clean_linker_1, # of connection points: 2
# Relax obj value: 0.170
# Max RMSD: 0.252
# Mean RMSD: 0.243
data_MOF--net-snl--node1-KUMBUR_clean_sbu_0--edge1-KIFKEQ_clean_linker_1
_symmetry_space_group_name_H-M    P1
_symmetry_Int_Tables_number       1
_symmetry_cell_setting            triclinic
loop_
_symmetry_equiv_pos_as_xyz
'x, y, z'
_cell_length_a     57.58504
_cell_length_b     57.894954
_cell_length_c     24.965072
_cell_angle_alpha  90.917674
_cell_angle_beta   90.681675
_cell_angle_gamma 89.978564
loop_
_atom_site_label
_atom_site_type_symbol
_atom_site_fract_x
_atom_site_fract_y
_atom_site_fract_z
_atom_type_partial_charge
Tb0 Tb 0.14557 0.64638 0.06527 0.0
C1 C 0.08566 0.59842 0.23416 0.0
C2 C 0.0519 0.62283 0.24472 0.0
C3 C 0.05078 0.58308 0.27443 0.0
C4 C 0.07472 0.61929 0.22625 0.0
C5 C 0.07382 0.58 0.25812 0.0
C6 C 0.04007 0.60462 0.26898 0.0
C7 C 0.10961 0.55835 0.25745 0.0
N8 N 0.10854 0.5969 0.22279 0.0
C9 C 0.12083 0.57749 0.23623 0.0
C10 C 0.08593 0.55956 0.26824 0.0
Tb11 Tb 0.1262 0.63003 0.19477 0.0
N12 N 0.08738 0.63691 0.20635 0.0
C13 C 0.07791 0.65853 0.20317 0.0
C14 C 0.0423 0.64498 0.24149 0.0
C15 C 0.05523 0.66278 0.21983 0.0
H16 H 0.13932 0.57663 0.22969 0.0
H17 H 0.04796 0.67997 0.21728 0.0
H18 H 0.02292 0.60714 0.28532 0.0
H19 H 0.11934 0.54289 0.26663 0.0
H20 H 0.08765 0.67276 0.18809 0.0
H21 H 0.2109 0.57979 0.02892 0.0
H22 H 0.02523 0.64877 0.25699 0.0
H23 H 0.15422 0.70493 0.06711 0.0
H24 H 0.17208 0.59583 0.02699 0.0
H25 H 0.18543 0.73147 0.0911 0.0
H26 H 0.0415 0.56928 0.29371 0.0
H27 H 0.24431 0.60386 0.05729 0.0
H28 H 0.25957 0.64237 0.08677 0.0
H29 H 0.0774 0.54498 0.28627 0.0
H30 H 0.25252 0.68347 0.10593 0.0
N31 N 0.18185 0.62907 0.05972 0.0
C32 C 0.18577 0.6068 0.04225 0.0
C33 C 0.22697 0.61115 0.05763 0.0
C34 C 0.2233 0.63425 0.07187 0.0
C35 C 0.20816 0.5975 0.04194 0.0
C36 C 0.20033 0.64293 0.07185 0.0
H37 H 0.22502 0.71677 0.10817 0.0
N38 N 0.17419 0.67409 0.08005 0.0
C39 C 0.18869 0.71305 0.09054 0.0
C40 C 0.19632 0.66602 0.08354 0.0
C41 C 0.17069 0.69758 0.07869 0.0
C42 C 0.211 0.70471 0.09982 0.0
C43 C 0.21524 0.68106 0.09426 0.0
O44 O 0.14517 0.66911 1.00036 0.0
O45 O 0.11625 0.63786 0.11481 0.0
O46 O 0.12248 0.59811 0.14204 0.0
O47 O 0.13815 0.60917 0.06027 0.0
O48 O 0.10816 0.64835 0.04092 0.0
O49 O 0.14691 0.63232 0.98699 0.0
O50 O 0.14284 0.62171 0.26823 0.0
O51 O 0.15654 0.64137 0.14977 0.0
O52 O 0.12943 0.6774 0.09847 0.0
O53 O 0.12936 0.66879 0.18924 0.0
O54 O 0.15932 0.6122 0.19532 0.0
O55 O 0.12332 0.65297 0.26046 0.0
C56 C 0.0988 0.64079 0.08377 0.0
C57 C 0.16534 0.65578 0.92361 0.0
C58 C 0.17659 0.65395 0.82931 0.0
C59 C 0.15994 0.65073 0.86959 0.0
C60 C 0.19885 0.66195 0.84424 0.0
C61 C 0.18755 0.66408 0.9372 0.0
C62 C 0.20422 0.66695 0.89781 0.0
C63 C 0.12937 0.5933 0.09192 0.0
C64 C 0.14754 0.65254 0.96491 0.0
C65 C 0.2379 0.67223 0.09688 0.0
C66 C 0.24192 0.64887 0.08571 0.0
C67 C 0.17108 0.6265 0.16783 0.0
C68 C 0.12404 0.63616 0.34619 0.0
C69 C 0.13761 0.63716 0.39362 0.0
C70 C 0.12691 0.63519 0.44389 0.0
C71 C 0.1029 0.63136 0.44635 0.0
C72 C 0.09993 0.63331 0.35025 0.0
C73 C 0.08951 0.63039 0.39969 0.0
C74 C 0.12802 0.68383 0.14924 0.0
C75 C 0.13474 0.63979 0.29326 0.0
H76 H 0.14278 0.64433 0.85901 0.0
H77 H 0.21194 0.66495 0.81435 0.0
H78 H 0.192 0.6686 0.97799 0.0
H79 H 0.2213 0.6734 0.90878 0.0
H80 H 0.15613 0.64031 0.39158 0.0
H81 H 0.09442 0.62982 0.48466 0.0
H82 H 0.08893 0.63415 0.3156 0.0
H83 H 0.07089 0.62809 0.4019 0.0
Tb84 Tb 0.6596 0.87628 0.46373 0.0
C85 C 0.58916 0.91838 0.30968 0.0
C86 C 0.55708 0.89153 0.31117 0.0
C87 C 0.5499 0.93179 0.29081 0.0
C88 C 0.58094 0.89647 0.31831 0.0
C89 C 0.57385 0.93621 0.29442 0.0
C90 C 0.54155 0.90942 0.29894 0.0
C91 C 0.60725 0.96037 0.27978 0.0
N92 N 0.61242 0.92169 0.3117 0.0
C93 C 0.62168 0.94201 0.29421 0.0
C94 C 0.58318 0.95759 0.28072 0.0
Tb95 Tb 0.63499 0.89068 0.33555 0.0
N96 N 0.59659 0.87963 0.32949 0.0
C97 C 0.58943 0.85707 0.33058 0.0
C98 C 0.54966 0.86865 0.31477 0.0
C99 C 0.56598 0.85131 0.3237 0.0
H100 H 0.64031 0.94429 0.29331 0.0
H101 H 0.56051 0.83347 0.32557 0.0
H102 H 0.52316 0.90598 0.29419 0.0
H103 H 0.6147 0.97661 0.26769 0.0
H104 H 0.60146 0.84324 0.33717 0.0
H105 H 0.72412 0.94484 0.47881 0.0
H106 H 0.5315 0.86414 0.3096 0.0
H107 H 0.66933 0.81856 0.47934 0.0
H108 H 0.68554 0.9284 0.48527 0.0
H109 H 0.70071 0.79125 0.4619 0.0
H110 H 0.53782 0.9453 0.27972 0.0
H111 H 0.75756 0.92014 0.45542 0.0
H112 H 0.773 0.88073 0.43407 0.0
H113 H 0.57203 0.97174 0.26887 0.0
H114 H 0.76636 0.83887 0.42658 0.0
N115 N 0.69569 0.89393 0.46281 0.0
C116 C 0.69935 0.91697 0.47368 0.0
C117 C 0.74039 0.9126 0.4578 0.0
C118 C 0.73693 0.88896 0.44924 0.0
C119 C 0.72156 0.92658 0.47083 0.0
C120 C 0.71417 0.87998 0.45282 0.0
H121 H 0.73952 0.80534 0.43694 0.0
N122 N 0.68861 0.8485 0.45622 0.0
C123 C 0.70362 0.80955 0.45666 0.0
C124 C 0.71041 0.85653 0.44817 0.0
C125 C 0.68561 0.8253 0.46522 0.0
C126 C 0.72547 0.81755 0.44273 0.0
C127 C 0.72934 0.84132 0.44041 0.0
O128 O 0.66026 0.85742 0.53496 0.0
O129 O 0.62864 0.88384 0.4178 0.0
O130 O 0.63108 0.92266 0.38717 0.0
O131 O 0.64974 0.91311 0.4676 0.0
O132 O 0.62358 0.86688 0.48657 0.0
O133 O 0.66078 0.89455 0.53746 0.0
O134 O 0.64823 0.90114 0.26093 0.0
O135 O 0.66737 0.8818 0.37805 0.0
O136 O 0.64655 0.84374 0.43051 0.0
O137 O 0.64154 0.85238 0.34031 0.0
O138 O 0.66684 0.91049 0.33031 0.0
O139 O 0.63226 0.86799 0.26924 0.0
C140 C 0.61263 0.87598 0.44698 0.0
C141 C 0.67877 0.87519 0.60974 0.0
C142 C 0.687 0.87647 0.7064 0.0
C143 C 0.67126 0.87825 0.66279 0.0
C144 C 0.71053 0.87196 0.6954 0.0
C145 C 0.70228 0.87078 0.60001 0.0
C146 C 0.71805 0.8693 0.64265 0.0
C147 C 0.63903 0.92821 0.43635 0.0
C148 C 0.66164 0.8758 0.5655 0.0
C149 C 0.75173 0.85027 0.43343 0.0
C150 C 0.75553 0.87407 0.43796 0.0
C151 C 0.68027 0.89744 0.35799 0.0
C152 C 0.62833 0.88548 0.18482 0.0
C153 C 0.64019 0.88475 0.13569 0.0
C154 C 0.62767 0.88555 0.08683 0.0
C155 C 0.6034 0.88773 0.0876 0.0
C156 C 0.60404 0.88755 0.1843 0.0
C157 C 0.59171 0.88889 0.1361 0.0
C158 C 0.64341 0.83733 0.38012 0.0
C159 C 0.64115 0.88253 0.23597 0.0
H160 H 0.65309 0.88196 0.66984 0.0
H161 H 0.72313 0.86995 0.7275 0.0
H162 H 0.70839 0.86819 0.55965 0.0
H163 H 0.73616 0.86571 0.63484 0.0
H164 H 0.6589 0.88275 0.13541 0.0
H165 H 0.59347 0.88842 0.05051 0.0
H166 H 0.59448 0.88758 0.22095 0.0
H167 H 0.57297 0.89041 0.13634 0.0
Tb168 Tb 0.36402 0.38457 0.58957 0.0
C169 C 0.4268 0.44591 0.72728 0.0
C170 C 0.4642 0.42723 0.73396 0.0
C171 C 0.46179 0.4691 0.73823 0.0
C172 C 0.43991 0.42606 0.72607 0.0
C173 C 0.43747 0.46767 0.73475 0.0
C174 C 0.47515 0.44887 0.73802 0.0
C175 C 0.39927 0.48453 0.74195 0.0
N176 N 0.40338 0.44367 0.72557 0.0
C177 C 0.38953 0.46254 0.73522 0.0
C178 C 0.42335 0.48718 0.7409 0.0
Tb179 Tb 0.38879 0.40701 0.71169 0.0
N180 N 0.42855 0.40553 0.72306 0.0
C181 C 0.44052 0.3855 0.73237 0.0
C182 C 0.47658 0.40668 0.74028 0.0
C183 C 0.4646 0.38576 0.74052 0.0
H184 H 0.37088 0.4608 0.73581 0.0
H185 H 0.47392 0.36977 0.74672 0.0
H186 H 0.49383 0.45012 0.7431 0.0
H187 H 0.38819 0.49943 0.74798 0.0
H188 H 0.43184 0.36905 0.73303 0.0
H189 H 0.27706 0.41997 0.59299 0.0
H190 H 0.49523 0.40681 0.74658 0.0
H191 H 0.38222 0.3321 0.55365 0.0
H192 H 0.31972 0.42166 0.58978 0.0
H193 H 0.36547 0.29305 0.54207 0.0
H194 H 0.47035 0.48567 0.74334 0.0
H195 H 0.25703 0.38218 0.59362 0.0
H196 H 0.25977 0.33882 0.58657 0.0
H197 H 0.43087 0.5042 0.74662 0.0
H198 H 0.28388 0.30415 0.57213 0.0
N199 N 0.32415 0.38511 0.59021 0.0
C200 C 0.31134 0.405 0.58984 0.0
C201 C 0.27582 0.38279 0.59231 0.0
C202 C 0.28895 0.36249 0.589 0.0
C203 C 0.28707 0.40415 0.59173 0.0
C204 C 0.31334 0.3643 0.58756 0.0
H205 H 0.32337 0.28692 0.55468 0.0
N206 N 0.35001 0.34786 0.5742 0.0
C207 C 0.35439 0.3075 0.55254 0.0
C208 C 0.32676 0.34492 0.57888 0.0
C209 C 0.3638 0.32967 0.55889 0.0
C210 C 0.33062 0.30409 0.5599 0.0
C211 C 0.3164 0.32301 0.57224 0.0
O212 O 0.37767 0.37625 0.51358 0.0
O213 O 0.39525 0.39703 0.63023 0.0
O214 O 0.39181 0.43447 0.64949 0.0
O215 O 0.36201 0.42291 0.59179 0.0
O216 O 0.39973 0.37099 0.57643 0.0
O217 O 0.35226 0.40313 0.52248 0.0
O218 O 0.37497 0.41772 0.78612 0.0
O219 O 0.35699 0.39374 0.6732 0.0
O220 O 0.36281 0.35668 0.64725 0.0
O221 O 0.39284 0.36808 0.70465 0.0
O222 O 0.3541 0.42239 0.71988 0.0
O223 O 0.39452 0.38639 0.77951 0.0
C224 C 0.41081 0.38448 0.60905 0.0
C225 C 0.35235 0.38227 0.4398 0.0
C226 C 0.35021 0.37729 0.34207 0.0
C227 C 0.36128 0.3866 0.38843 0.0
C228 C 0.3301 0.36387 0.34782 0.0
C229 C 0.332 0.36918 0.44404 0.0
C230 C 0.321 0.36001 0.39841 0.0
C231 C 0.37711 0.43881 0.60906 0.0
C232 C 0.36452 0.391 0.48867 0.0
C233 C 0.2922 0.32087 0.57662 0.0
C234 C 0.27848 0.3406 0.58494 0.0
C235 C 0.342 0.40771 0.69258 0.0
C236 C 0.39649 0.40647 0.86292 0.0
C237 C 0.38712 0.40052 0.91296 0.0
C238 C 0.39967 0.40522 0.96093 0.0
C239 C 0.42141 0.41609 0.95826 0.0
C240 C 0.41807 0.41765 0.86182 0.0
C241 C 0.43042 0.4224 0.90905 0.0
C242 C 0.37904 0.35173 0.68297 0.0
C243 C 0.38406 0.40061 0.81215 0.0
H244 H 0.37695 0.39677 0.3846 0.0
H245 H 0.32122 0.35661 0.31294 0.0
H246 H 0.32455 0.366 0.48253 0.0
H247 H 0.30536 0.34984 0.4023 0.0
H248 H 0.37042 0.39194 0.91452 0.0
H249 H 0.43132 0.41992 0.99448 0.0
H250 H 0.42548 0.42268 0.82455 0.0
H251 H 0.44711 0.43095 0.90747 0.0
Tb252 Tb 0.8874 0.1137 0.81679 0.0
C253 C 0.83207 0.18201 0.95242 0.0
C254 C 0.85301 0.21818 0.95466 0.0
C255 C 0.81097 0.21821 0.96149 0.0
C256 C 0.85271 0.19388 0.94929 0.0
C257 C 0.811 0.19395 0.96012 0.0
C258 C 0.83197 0.23031 0.95881 0.0
C259 C 0.79217 0.15713 0.97157 0.0
N260 N 0.83298 0.15861 0.95248 0.0
C261 C 0.81355 0.1461 0.9645 0.0
C262 C 0.7908 0.18115 0.96854 0.0
Tb263 Tb 0.86872 0.14192 0.9388 0.0
N264 N 0.87265 0.18145 0.94564 0.0
C265 C 0.89365 0.19242 0.951 0.0
C266 C 0.87445 0.22946 0.95778 0.0
C267 C 0.89484 0.21648 0.95668 0.0
H268 H 0.81433 0.12752 0.96678 0.0
H269 H 0.91153 0.225 0.95995 0.0
H270 H 0.83179 0.24899 0.96162 0.0
H271 H 0.77676 0.1471 0.97945 0.0
H272 H 0.9097 0.18289 0.9503 0.0
H273 H 0.84313 0.03157 0.83368 0.0
H274 H 0.87544 0.24808 0.96223 0.0
H275 H 0.939 0.12373 0.76462 0.0
H276 H 0.84569 0.07355 0.82344 0.0
H277 H 0.97596 0.10279 0.75164 0.0
H278 H 0.79492 0.22773 0.9666 0.0
H279 H 0.87886 1.00791 0.83742 0.0
H280 H 0.92232 1.0058 0.82804 0.0
H281 H 0.77426 0.18967 0.97453 0.0
H282 H 0.95884 0.02533 0.8053 0.0
N283 N 0.88277 0.07431 0.82298 0.0
C284 C 0.86155 0.06368 0.82469 0.0
C285 C 0.88015 0.02644 0.83297 0.0
C286 C 0.90169 0.03714 0.8268 0.0
C287 C 0.85995 0.03973 0.8306 0.0
C288 C 0.90234 0.06133 0.82131 0.0
H289 H 0.97898 0.06155 0.77549 0.0
N290 N 0.92173 0.09505 0.79861 0.0
C291 C 0.96116 0.09398 0.7681 0.0
C292 C 0.92267 0.07216 0.80845 0.0
C293 C 0.94021 0.10579 0.77554 0.0
C294 C 0.96282 0.07073 0.78179 0.0
C295 C 0.94322 0.05935 0.80088 0.0
O296 O 0.8951 0.12523 0.739 0.0
O297 O 0.87788 0.14576 0.85639 0.0
O298 O 0.84022 0.14567 0.87777 0.0
O299 O 0.849 0.1145 0.82207 0.0
O300 O 0.90256 0.14791 0.7993 0.0
O301 O 0.86535 0.10401 0.75243 0.0
O302 O 0.8593 0.12785 1.01304 0.0
O303 O 0.88034 0.10942 0.90201 0.0
O304 O 0.91855 0.11546 0.86738 0.0
O305 O 0.90775 0.14274 0.9329 0.0
O306 O 0.8518 0.10855 0.9492 0.0
O307 O 0.88902 0.14982 1.00773 0.0
C308 C 0.89078 0.16001 0.83289 0.0
C309 C 0.88364 0.09974 0.66834 0.0
C310 C 0.88563 0.09531 0.57047 0.0
C311 C 0.8816 0.10918 0.61661 0.0
C312 C 0.89214 0.07212 0.57705 0.0
C313 C 0.8903 0.07656 0.67348 0.0
C314 C 0.89459 0.06291 0.62813 0.0
C315 C 0.8343 0.13065 0.83889 0.0
C316 C 0.87807 0.11384 0.71654 0.0
C317 C 0.94317 0.03548 0.81018 0.0
C318 C 0.92239 0.02436 0.82315 0.0
C319 C 0.86597 0.09566 0.92309 0.0
C320 C 0.86867 0.15049 0.09003 0.0
C321 C 0.87441 0.14148 0.14091 0.0
C322 C 0.86714 0.15291 0.1886 0.0
C323 C 0.85374 0.17317 0.18385 0.0
C324 C 0.85574 0.17092 0.08737 0.0
C325 C 0.84827 0.1821 0.13379 0.0
C326 C 0.92369 0.13016 0.9069 0.0
C327 C 0.87572 0.13844 0.03987 0.0
H328 H 0.87635 0.12704 0.61225 0.0
H329 H 0.89555 0.06111 0.54252 0.0
H330 H 0.89195 0.0689 0.7125 0.0
H331 H 0.89967 0.04504 0.6326 0.0
H332 H 0.88465 0.12581 0.14321 0.0
H333 H 0.84712 0.18209 0.21891 0.0
H334 H 0.85126 0.17825 0.04942 0.0
H335 H 0.83804 0.19774 0.13095 0.0
Tb336 Tb 0.14931 0.37692 0.95047 0.0
C337 C 0.09145 0.42093 0.79029 0.0
C338 C 0.05761 0.39617 0.7866 0.0
C339 C 0.05326 0.43747 0.774 0.0
C340 C 0.08163 0.39927 0.79549 0.0
C341 C 0.07749 0.44005 0.77685 0.0
C342 C 0.04336 0.41553 0.77899 0.0
C343 C 0.11255 0.46149 0.75995 0.0
N344 N 0.11494 0.42264 0.79205 0.0
C345 C 0.12562 0.44193 0.77265 0.0
C346 C 0.08837 0.46075 0.7635 0.0
Tb347 Tb 0.13421 0.38995 0.81813 0.0
N348 N 0.09591 0.38093 0.80397 0.0
C349 C 0.08763 0.35892 0.79689 0.0
C350 C 0.04882 0.37368 0.78317 0.0
C351 C 0.06402 0.355 0.78661 0.0
H352 H 0.14431 0.44259 0.76979 0.0
H353 H 0.05751 0.33753 0.7822 0.0
H354 H 0.0248 0.41356 0.77485 0.0
H355 H 0.12111 0.47708 0.74721 0.0
H356 H 0.09885 0.34414 0.79891 0.0
H357 H 0.19101 0.44895 0.05866 0.0
H358 H 0.03051 0.3705 0.77624 0.0
H359 H 0.17409 0.32638 0.91343 0.0
H360 H 0.15871 0.42349 0.03394 0.0
H361 H 0.21243 0.31187 0.8915 0.0
H362 H 0.04214 0.45206 0.76521 0.0
H363 H 0.23074 0.43984 0.0287 0.0
H364 H 0.2577 0.41175 0.98444 0.0
H365 H 0.07825 0.47584 0.75301 0.0
H366 H 0.26365 0.37402 0.94017 0.0
N367 N 0.17883 0.40122 0.98281 0.0
C368 C 0.17559 0.41964 0.01754 0.0
C369 C 0.21641 0.4288 1.0162 0.0
C370 C 0.22021 0.40855 0.98652 0.0
C371 C 0.19404 0.43403 0.03298 0.0
C372 C 0.2009 0.39477 0.97116 0.0
H373 H 0.24697 0.33658 0.90609 0.0
N374 N 0.18529 0.36059 0.93415 0.0
C375 C 0.21041 0.32948 0.90597 0.0
C376 C 0.20427 0.37356 0.94681 0.0
C377 C 0.18831 0.33819 0.91705 0.0
C378 C 0.22985 0.34337 0.91466 0.0
C379 C 0.227 0.36554 0.93644 0.0
O380 O 0.14651 0.34618 0.9943 0.0
O381 O 0.12021 0.37734 0.89242 0.0
O382 O 0.13236 0.42362 0.86541 0.0
O383 O 0.13997 0.41357 0.95368 0.0
O384 O 0.11366 0.38908 0.96812 0.0
O385 O 0.14826 0.37922 0.03578 0.0
O386 O 0.15822 0.37687 0.76173 0.0
O387 O 0.1639 0.38229 0.87001 0.0
O388 O 0.13688 0.34403 0.91546 0.0
O389 O 0.13738 0.3513 0.82413 0.0
O390 O 0.16478 0.41191 0.82586 0.0
O391 O 0.12574 0.38963 0.73519 0.0
C392 C 0.10405 0.38564 0.92177 0.0
C393 C 0.14512 0.34488 0.09217 0.0
C394 C 0.14731 0.34401 0.19071 0.0
C395 C 0.14794 0.35651 0.14238 0.0
C396 C 0.14336 0.32007 0.1881 0.0
C397 C 0.14111 0.32094 0.0914 0.0
C398 C 0.14016 0.30872 0.13895 0.0
C399 C 0.13476 0.42909 0.9174 0.0
C400 C 0.14673 0.35703 0.0402 0.0
C401 C 0.24614 0.37974 0.9487 0.0
C402 C 0.24274 0.40123 0.9737 0.0
C403 C 0.17736 0.39883 0.85585 0.0
C404 C 0.15709 0.39363 0.67565 0.0
C405 C 0.15333 0.38635 0.62179 0.0
C406 C 0.16495 0.39731 0.57938 0.0
C407 C 0.17988 0.41591 0.59197 0.0
C408 C 0.17222 0.41214 0.68657 0.0
C409 C 0.18342 0.42322 0.64497 0.0
C410 C 0.13644 0.3367 0.86492 0.0
C411 C 0.14559 0.38161 0.72019 0.0
H412 H 0.15117 0.37495 0.14385 0.0
H413 H 0.1427 0.3101 0.22442 0.0
H414 H 0.13877 0.31154 0.05385 0.0
H415 H 0.13708 0.29027 0.13767 0.0
H416 H 0.14187 0.3719 0.61312 0.0
H417 H 0.1888 0.42496 0.56063 0.0
H418 H 0.17552 0.41801 0.72727 0.0
H419 H 0.19502 0.43752 0.65389 0.0
Tb420 Tb 0.86651 0.88368 0.08174 0.0
C421 C 0.92783 0.93964 0.22571 0.0
C422 C 0.96345 0.91759 0.22863 0.0
C423 C 0.9648 0.9594 0.23782 0.0
C424 C 0.9391 0.91873 0.22224 0.0
C425 C 0.94042 0.96018 0.2355 0.0
C426 C 0.9763 0.9381 0.23446 0.0
C427 C 0.90392 0.9799 0.24877 0.0
N428 N 0.90429 0.93946 0.22518 0.0
C429 C 0.89225 0.95899 0.23969 0.0
C430 C 0.92811 0.9806 0.24563 0.0
Tb431 Tb 0.8866 0.90442 0.20877 0.0
N432 N 0.926 0.89935 0.21716 0.0
C433 C 0.93615 0.87811 0.22192 0.0
C434 C 0.974 0.89587 0.23114 0.0
C435 C 0.96022 0.87606 0.22882 0.0
H436 H 0.87353 0.95857 0.24208 0.0
H437 H 0.96814 0.85916 0.23181 0.0
H438 H 0.99504 0.93758 0.23836 0.0
H439 H 0.89426 0.99544 0.25833 0.0
H440 H 0.92588 0.8626 0.22041 0.0
H441 H 0.78454 0.92956 0.05939 0.0
H442 H 0.99264 0.89424 0.23617 0.0
H443 H 0.87359 0.82536 0.06323 0.0
H444 H 0.82633 0.92454 0.05191 0.0
H445 H 0.85148 0.79041 0.08159 0.0
H446 H 0.97485 0.97503 0.24453 0.0
H447 H 0.75997 0.89741 0.08948 0.0
H448 H 0.75689 0.85596 0.11565 0.0
H449 H 0.93714 0.99676 0.2533 0.0
H450 H 0.77546 0.81791 0.12383 0.0
N451 N 0.82678 0.88991 0.08075 0.0
C452 C 0.81644 0.91029 0.06641 0.0
C453 C 0.77859 0.89506 0.08671 0.0
C454 C 0.78889 0.87379 0.09768 0.0
C455 C 0.7924 0.91322 0.06981 0.0
C456 C 0.81325 0.87164 0.0934 0.0
H457 H 0.81068 0.7932 0.11045 0.0
N458 N 0.84669 0.84877 0.0879 0.0
C459 C 0.84348 0.80718 0.08734 0.0
C460 C 0.82367 0.85037 0.09822 0.0
C461 C 0.85606 0.82729 0.07765 0.0
C462 C 0.82052 0.80882 0.10373 0.0
C463 C 0.81003 0.83054 0.10717 0.0
O464 O 0.87487 0.86325 1.01417 0.0
O465 O 0.897 0.89042 0.13237 0.0
O466 O 0.88883 0.93391 0.15141 0.0
O467 O 0.864 0.92155 0.08271 0.0
O468 O 0.90026 0.89707 0.05383 0.0
O469 O 0.85995 0.89702 1.00498 0.0
O470 O 0.87105 0.91523 0.28145 0.0
O471 O 0.85611 0.89091 0.16518 0.0
O472 O 0.88673 0.85608 0.11941 0.0
O473 O 0.8831 0.86577 0.20916 0.0
O474 O 0.85255 0.92085 0.2091 0.0
O475 O 0.89328 0.88575 0.27903 0.0
C476 C 0.91134 0.89804 0.09864 0.0
C477 C 0.85283 0.86983 0.93498 0.0
C478 C 0.8458 0.86734 0.83774 0.0
C479 C 0.85864 0.87595 0.88241 0.0
C480 C 0.82687 0.85259 0.84731 0.0
C481 C 0.83373 0.8554 0.9432 0.0
C482 C 0.82085 0.84686 0.89953 0.0
C483 C 0.87661 0.93788 0.10672 0.0
C484 C 0.86718 0.87843 0.98038 0.0
C485 C 0.7861 0.83288 0.11592 0.0
C486 C 0.77552 0.85451 0.11105 0.0
C487 C 0.84108 0.90552 0.18209 0.0
C488 C 0.89228 0.90665 0.3608 0.0
C489 C 0.8828 0.89997 0.41011 0.0
C490 C 0.89447 0.90534 0.4588 0.0
C491 C 0.91536 0.91783 0.45756 0.0
C492 C 0.91312 0.91916 0.36091 0.0
C493 C 0.9245 0.92481 0.40895 0.0
C494 C 0.88647 0.85015 0.17031 0.0
C495 C 0.88114 0.89935 0.30958 0.0
H496 H 0.87314 0.88753 0.87661 0.0
H497 H 0.81685 0.84509 0.81447 0.0
H498 H 0.82887 0.85059 0.9832 0.0
H499 H 0.80626 0.83552 0.90613 0.0
H500 H 0.86682 0.89008 0.41052 0.0
H501 H 0.9246 0.92224 0.49438 0.0
H502 H 0.92083 0.9243 0.32397 0.0
H503 H 0.94062 0.93442 0.40845 0.0
Tb504 Tb 0.38705 0.62475 0.33062 0.0
C505 C 0.32553 0.67939 0.48026 0.0
C506 C 0.34432 0.71529 0.50634 0.0
C507 C 0.30229 0.71219 0.50985 0.0
C508 C 0.34555 0.69237 0.48659 0.0
C509 C 0.30368 0.68909 0.49236 0.0
C510 C 0.32259 0.72519 0.51737 0.0
C511 C 0.28643 0.65159 0.47631 0.0
N512 N 0.32763 0.65679 0.46584 0.0
C513 C 0.30848 0.64258 0.46604 0.0
C514 C 0.28398 0.67499 0.48902 0.0
Tb515 Tb 0.365 0.64358 0.45497 0.0
N516 N 0.36631 0.68211 0.47658 0.0
C517 C 0.38658 0.69385 0.4866 0.0
C518 C 0.36501 0.72727 0.51652 0.0
C519 C 0.38622 0.71659 0.50618 0.0
H520 H 0.31008 0.62437 0.45702 0.0
H521 H 0.40232 0.72572 0.51416 0.0
H522 H 0.32127 0.74269 0.53295 0.0
H523 H 0.27137 0.6404 0.47497 0.0
H524 H 0.40318 0.68573 0.48003 0.0
H525 H 0.34785 0.53918 0.32035 0.0
H526 H 0.36479 0.74448 0.53384 0.0
H527 H 0.43892 0.64052 0.28381 0.0
H528 H 0.34723 0.5813 0.31905 0.0
H529 H 0.47704 0.62225 0.26937 0.0
H530 H 0.28569 0.71993 0.51946 0.0
H531 H 0.38517 0.51819 0.32465 0.0
H532 H 0.42864 0.51954 0.32066 0.0
H533 H 0.26691 0.68183 0.49787 0.0
H534 H 0.46405 0.54224 0.30617 0.0
N535 N 0.38418 0.58508 0.32565 0.0
C536 C 0.36385 0.57285 0.32121 0.0
C537 C 0.38512 0.5369 0.32443 0.0
C538 C 0.40589 0.54936 0.32348 0.0
C539 C 0.36403 0.54869 0.32178 0.0
C540 C 0.40484 0.57372 0.32335 0.0
H541 H 0.48219 0.5805 0.28552 0.0
N542 N 0.42279 0.60969 0.31022 0.0
C543 C 0.46255 0.61201 0.28264 0.0
C544 C 0.42482 0.58645 0.31513 0.0
C545 C 0.44086 0.62229 0.29056 0.0
C546 C 0.46541 0.58846 0.29205 0.0
C547 C 0.44627 0.57524 0.30698 0.0
O548 O 0.37287 0.64563 0.26966 0.0
O549 O 0.37597 0.65481 0.37737 0.0
O550 O 0.33853 0.65029 0.39035 0.0
O551 O 0.34895 0.62077 0.33259 0.0
O552 O 0.40458 0.65869 0.33125 0.0
O553 O 0.38897 0.61356 0.24978 0.0
O554 O 0.35447 0.62423 0.52108 0.0
O555 O 0.37938 0.61357 0.41224 0.0
O556 O 0.41807 0.62726 0.38054 0.0
O557 O 0.40442 0.64512 0.45872 0.0
O558 O 0.34924 0.6093 0.45234 0.0
O559 O 0.38035 0.65057 0.53119 0.0
C560 C 0.39095 0.66973 0.36338 0.0
C561 C 0.39271 0.64335 0.18709 0.0
C562 C 0.40021 0.64732 0.0913 0.0
C563 C 0.38753 0.63746 0.13326 0.0
C564 C 0.41818 0.66296 0.10393 0.0
C565 C 0.41026 0.65962 0.19829 0.0
C566 C 0.42304 0.66913 0.15705 0.0
C567 C 0.33346 0.6361 0.34924 0.0
C568 C 0.37995 0.63229 0.23097 0.0
C569 C 0.44765 0.55113 0.31142 0.0
C570 C 0.42749 0.53821 0.31971 0.0
C571 C 0.365 0.59816 0.42692 0.0
C572 C 0.35516 0.64411 0.60462 0.0
C573 C 0.36649 0.64386 0.65513 0.0
C574 C 0.35452 0.65082 0.70193 0.0
C575 C 0.33127 0.65808 0.69719 0.0
C576 C 0.33182 0.65105 0.60198 0.0
C577 C 0.3201 0.65822 0.64761 0.0
C578 C 0.42167 0.63698 0.42799 0.0
C579 C 0.36713 0.63591 0.55545 0.0
H580 H 0.37373 0.62524 0.12406 0.0
H581 H 0.42801 0.67102 0.07255 0.0
H582 H 0.41416 0.66518 0.23873 0.0
H583 H 0.43661 0.68156 0.16627 0.0
H584 H 0.38438 0.63817 0.65799 0.0
H585 H 0.32138 0.66305 0.73217 0.0
H586 H 0.32225 0.6504 0.56504 0.0
H587 H 0.30208 0.66344 0.64465 0.0
Tb588 Tb 0.64263 0.14577 0.57082 0.0
C589 C 0.58833 0.09749 0.74196 0.0
C590 C 0.5535 0.12029 0.75598 0.0
C591 C 0.55373 0.07961 0.77815 0.0
C592 C 0.57652 0.11837 0.73741 0.0
C593 C 0.57709 0.07804 0.76323 0.0
C594 C 0.54211 0.10076 0.77541 0.0
C595 C 0.61388 0.05811 0.76359 0.0
N596 N 0.61142 0.09692 0.73093 0.0
C597 C 0.62447 0.07798 0.74438 0.0
C598 C 0.59002 0.058 0.77225 0.0
Tb599 Tb 0.62676 0.13088 0.70144 0.0
N600 N 0.58825 0.13724 0.71996 0.0
C601 C 0.57793 0.15859 0.72227 0.0
C602 C 0.54297 0.14205 0.75722 0.0
C603 C 0.55517 0.1612 0.73997 0.0
H604 H 0.64301 0.07779 0.73923 0.0
H605 H 0.54717 0.17812 0.74109 0.0
H606 H 0.52452 0.10196 0.79008 0.0
H607 H 0.6242 0.04299 0.77244 0.0
H608 H 0.58662 0.17395 0.70983 0.0
H609 H 0.72918 0.10861 0.56121 0.0
H610 H 0.52567 0.14443 0.77288 0.0
H611 H 0.62296 0.19449 0.51535 0.0
H612 H 0.68681 0.10708 0.56606 0.0
H613 H 0.63954 0.23158 0.48742 0.0
H614 H 0.54485 0.06485 0.79448 0.0
H615 H 0.74917 0.14601 0.55081 0.0
H616 H 0.74621 0.18846 0.53326 0.0
H617 H 0.58196 0.04272 0.7883 0.0
H618 H 0.72173 0.22198 0.51191 0.0
N619 N 0.68225 0.1437 0.56251 0.0
C620 C 0.69495 0.1237 0.56213 0.0
C621 C 0.73041 0.14556 0.55351 0.0
C622 C 0.7172 0.16567 0.54801 0.0
C623 C 0.71918 0.12441 0.55917 0.0
C624 C 0.69283 0.16414 0.55203 0.0
H625 H 0.68196 0.23802 0.49319 0.0
N626 N 0.6556 0.18042 0.53982 0.0
C627 C 0.65081 0.21815 0.50251 0.0
C628 C 0.67907 0.18305 0.53969 0.0
C629 C 0.64147 0.1971 0.51858 0.0
C630 C 0.67477 0.22174 0.50594 0.0
C631 C 0.68927 0.20391 0.52351 0.0
O632 O 0.6208 0.12829 0.51512 0.0
O633 O 0.6135 0.13728 0.62188 0.0
O634 O 0.62285 0.09885 0.64946 0.0
O635 O 0.64659 0.10818 0.57826 0.0
O636 O 0.60854 0.16333 0.56955 0.0
O637 O 0.65195 0.14423 0.489 0.0
O638 O 0.65152 0.14531 0.75597 0.0
O639 O 0.65632 0.13944 0.65183 0.0
O640 O 0.64465 0.17827 0.61614 0.0
O641 O 0.6251 0.16957 0.69433 0.0
O642 O 0.65865 0.11074 0.69817 0.0
O643 O 0.61968 0.13204 0.78441 0.0
C644 C 0.59816 0.15127 0.60502 0.0
C645 C 0.62032 0.14363 0.42751 0.0
C646 C 0.61538 0.14751 0.33029 0.0
C647 C 0.62814 0.13935 0.37484 0.0
C648 C 0.59507 0.1604 0.33924 0.0
C649 C 0.59996 0.15661 0.43507 0.0
C650 C 0.58754 0.165 0.39122 0.0
C651 C 0.63399 0.09298 0.6044 0.0
C652 C 0.63301 0.13385 0.47393 0.0
C653 C 0.71356 0.20598 0.52342 0.0
C654 C 0.7275 0.1869 0.53569 0.0
C655 C 0.67053 0.12391 0.66773 0.0
C656 C 0.65203 0.12835 0.84223 0.0
C657 C 0.64665 0.13373 0.89605 0.0
C658 C 0.65753 0.12188 0.93876 0.0
C659 C 0.67377 0.10447 0.92612 0.0
C660 C 0.66857 0.11117 0.83132 0.0
C661 C 0.6793 0.09934 0.873 0.0
C662 C 0.63518 0.18464 0.66192 0.0
C663 C 0.63975 0.14029 0.79811 0.0
H664 H 0.64373 0.12922 0.36852 0.0
H665 H 0.58505 0.16706 0.30587 0.0
H666 H 0.59341 0.1601 0.47474 0.0
H667 H 0.57187 0.17496 0.39754 0.0
H668 H 0.63412 0.14723 0.9044 0.0
H669 H 0.68203 0.09444 0.95721 0.0
H670 H 0.6732 0.1067 0.79073 0.0
H671 H 0.69186 0.08594 0.86405 0.0
Tb672 Tb 0.89375 0.39066 0.80887 0.0
C673 C 0.84396 0.33645 0.97297 0.0
C674 C 0.80525 0.35285 0.96845 0.0
C675 C 0.81044 0.3127 0.99298 0.0
C676 C 0.82947 0.35503 0.96208 0.0
C677 C 0.83462 0.31533 0.99006 0.0
C678 C 0.79578 0.33141 0.98216 0.0
C679 C 0.87376 0.30179 1.00577 0.0
N680 N 0.86733 0.33959 0.97008 0.0
C681 C 0.88226 0.32305 0.98885 0.0
C682 C 0.84987 0.29778 1.00562 0.0
Tb683 Tb 0.87876 0.37475 0.93888 0.0
N684 N 0.83924 0.37569 0.94982 0.0
C685 C 0.82588 0.39527 0.94961 0.0
C686 C 0.79135 0.37251 0.9633 0.0
C687 C 0.80177 0.39388 0.95504 0.0
H688 H 0.90075 0.32592 0.98999 0.0
H689 H 0.79125 0.40933 0.95289 0.0
H690 H 0.7772 0.32937 0.98646 0.0
H691 H 0.88565 0.28856 0.01926 0.0
H692 H 0.83335 0.41207 0.94376 0.0
H693 H 0.97674 0.35089 0.76602 0.0
H694 H 0.77269 0.37155 0.96778 0.0
H695 H 0.87335 0.44396 0.77734 0.0
H696 H 0.93612 0.35116 0.79303 0.0
H697 H 0.88971 0.4806 0.74932 0.0
H698 H 0.80293 0.2965 1.00531 0.0
H699 H 0.99618 0.38725 0.74278 0.0
H700 H 0.99395 0.43004 0.73027 0.0
H701 H 0.84337 0.2814 0.01946 0.0
H702 H 0.97064 0.46535 0.72833 0.0
N703 N 0.93242 0.38787 0.78963 0.0
C704 C 0.94421 0.36741 0.78461 0.0
C705 C 0.97845 0.3877 0.75651 0.0
C706 C 0.96613 0.40848 0.75921 0.0
C707 C 0.96743 0.3671 0.76903 0.0
C708 C 0.94275 0.40805 0.77554 0.0
H709 H 0.93184 0.48431 0.73477 0.0
N710 N 0.90613 0.42647 0.78257 0.0
C711 C 0.90104 0.46598 0.75599 0.0
C712 C 0.92926 0.42795 0.77241 0.0
C713 C 0.89184 0.44491 0.77206 0.0
C714 C 0.92484 0.46803 0.74804 0.0
C715 C 0.93917 0.44878 0.75482 0.0
O716 O 0.86924 0.37777 0.7519 0.0
O717 O 0.86416 0.38073 0.85805 0.0
O718 O 0.87598 0.343 0.89199 0.0
O719 O 0.8972 0.352 0.81643 0.0
O720 O 0.86097 0.4093 0.81205 0.0
O721 O 0.90294 0.38754 0.72719 0.0
O722 O 0.90055 0.39281 0.99371 0.0
O723 O 0.90761 0.38371 0.88753 0.0
O724 O 0.89872 0.42158 0.86311 0.0
O725 O 0.87332 0.41195 0.93033 0.0
O726 O 0.91343 0.35791 0.93936 0.0
O727 O 0.86996 0.37619 0.021 0.0
C728 C 0.8493 0.39576 0.84196 0.0
C729 C 0.87233 0.39438 0.66602 0.0
C730 C 0.86974 0.40192 0.56972 0.0
C731 C 0.87842 0.38877 0.61277 0.0
C732 C 0.8548 0.42056 0.58074 0.0
C733 C 0.85714 0.41293 0.67561 0.0
C734 C 0.84848 0.4259 0.63325 0.0
C735 C 0.88636 0.33682 0.84731 0.0
C736 C 0.88242 0.38132 0.71121 0.0
C737 C 0.96278 0.44951 0.74189 0.0
C738 C 0.97614 0.42937 0.74341 0.0
C739 C 0.92349 0.37012 0.90371 0.0
C740 C 0.90209 0.3771 0.08096 0.0
C741 C 0.89408 0.38007 0.13387 0.0
C742 C 0.90683 0.37119 0.17782 0.0
C743 C 0.92769 0.3593 0.16749 0.0
C744 C 0.92293 0.36508 0.07229 0.0
C745 C 0.93554 0.35622 0.11526 0.0
C746 C 0.88692 0.42713 0.90719 0.0
C747 C 0.88883 0.38687 0.03537 0.0
H748 H 0.89018 0.37452 0.60496 0.0
H749 H 0.84772 0.43083 0.54854 0.0
H750 H 0.85192 0.41751 0.71576 0.0
H751 H 0.83683 0.44019 0.64117 0.0
H752 H 0.87791 0.38919 0.14062 0.0
H753 H 0.93831 0.35272 0.19992 0.0
H754 H 0.92972 0.36268 0.03244 0.0
H755 H 0.95167 0.34713 0.10809 0.0
Tb756 Tb 0.39772 0.11993 0.69663 0.0
C757 C 0.33274 0.17743 0.5628 0.0
C758 C 0.29569 0.15889 0.57569 0.0
C759 C 0.29731 0.20019 0.55994 0.0
C760 C 0.32012 0.15789 0.57352 0.0
C761 C 0.32153 0.19874 0.55464 0.0
C762 C 0.2844 0.18027 0.57046 0.0
C763 C 0.35876 0.21494 0.5321 0.0
N764 N 0.35604 0.17516 0.55746 0.0
C765 C 0.36906 0.19336 0.54035 0.0
C766 C 0.33494 0.21773 0.53994 0.0
Tb767 Tb 0.37156 0.1394 0.57453 0.0
N768 N 0.33171 0.13755 0.57675 0.0
C769 C 0.3196 0.11723 0.57744 0.0
C770 C 0.28334 0.13825 0.5805 0.0
C771 C 0.29534 0.11729 0.58027 0.0
H772 H 0.38752 0.19146 0.5347 0.0
H773 H 0.28593 0.10117 0.5825 0.0
H774 H 0.26565 0.18145 0.57266 0.0
H775 H 0.36923 0.22942 0.51991 0.0
H776 H 0.32852 0.10085 0.57761 0.0
H777 H 0.48304 0.15748 0.72374 0.0
H778 H 0.26455 0.13824 0.58245 0.0
H779 H 0.38005 0.06636 0.72376 0.0
H780 H 0.44045 0.15799 0.71534 0.0
H781 H 0.3976 0.02799 0.73484 0.0
H782 H 0.28836 0.21646 0.55441 0.0
H783 H 0.50419 0.12036 0.71651 0.0
H784 H 0.50294 0.07705 0.71574 0.0
H785 H 0.32701 0.23445 0.53343 0.0
H786 H 0.47956 0.04156 0.72034 0.0
N787 N 0.43738 0.12146 0.70483 0.0
C788 C 0.44935 0.1416 0.71372 0.0
C789 C 0.4855 0.1205 0.71544 0.0
C790 C 0.47311 0.09985 0.71126 0.0
C791 C 0.47357 0.14143 0.71878 0.0
C792 C 0.44874 0.10094 0.70687 0.0
H793 H 0.44019 0.02315 0.7292 0.0
N794 N 0.41232 0.08341 0.71056 0.0
C795 C 0.40854 0.04279 0.72765 0.0
C796 C 0.43572 0.08116 0.71014 0.0
C797 C 0.39866 0.06469 0.72153 0.0
C798 C 0.43257 0.04011 0.72426 0.0
C799 C 0.44653 0.05949 0.71639 0.0
O800 O 0.38482 0.11044 0.77216 0.0
O801 O 0.36554 0.13156 0.65852 0.0
O802 O 0.36949 0.16826 0.63134 0.0
O803 O 0.39947 0.15914 0.69072 0.0
O804 O 0.36364 0.10397 0.70696 0.0
O805 O 0.40456 0.14149 0.76377 0.0
O806 O 0.38416 0.14668 0.49751 0.0
O807 O 0.40349 0.12915 0.61495 0.0
O808 O 0.40102 0.0915 0.63491 0.0
O809 O 0.37048 0.1012 0.57834 0.0
O810 O 0.40647 0.15428 0.56012 0.0
O811 O 0.36068 0.11848 0.50909 0.0
C812 C 0.35116 0.11762 0.67892 0.0
C813 C 0.40775 0.12257 0.84708 0.0
C814 C 0.41058 0.122 0.94518 0.0
C815 C 0.39748 0.12568 0.89781 0.0
C816 C 0.43379 0.11481 0.9411 0.0
C817 C 0.43092 0.11517 0.84452 0.0
C818 C 0.4438 0.11128 0.89111 0.0
C819 C 0.38488 0.17448 0.66851 0.0
C820 C 0.39457 0.12779 0.79732 0.0
C821 C 0.47088 0.05806 0.71639 0.0
C822 C 0.48418 0.07826 0.71373 0.0
C823 C 0.41831 0.14208 0.59309 0.0
C824 C 0.35829 0.13756 0.42588 0.0
C825 C 0.36683 0.13308 0.37391 0.0
C826 C 0.35404 0.13994 0.32794 0.0
C827 C 0.33287 0.15171 0.33545 0.0
C828 C 0.33686 0.14874 0.43148 0.0
C829 C 0.32435 0.15589 0.38669 0.0
C830 C 0.38604 0.08602 0.59551 0.0
C831 C 0.37171 0.13063 0.47402 0.0
H832 H 0.37961 0.13144 0.90046 0.0
H833 H 0.44417 0.11173 0.97677 0.0
H834 H 0.43925 0.11258 0.80668 0.0
H835 H 0.46168 0.10565 0.88842 0.0
H836 H 0.38317 0.12401 0.36947 0.0
H837 H 0.32286 0.15797 0.30169 0.0
H838 H 0.3297 0.15194 0.47042 0.0
H839 H 0.30796 0.16477 0.39173 0.0
Tb840 Tb 0.65341 0.63513 0.46416 0.0
C841 C 0.60387 0.57 0.35294 0.0
C842 C 0.63019 0.53752 0.34679 0.0
C843 C 0.58989 0.53103 0.36921 0.0
C844 C 0.62591 0.56155 0.34463 0.0
C845 C 0.58538 0.55466 0.36303 0.0
C846 C 0.61228 0.52245 0.36101 0.0
C847 C 0.55879 0.58615 0.3499 0.0
N848 N 0.60012 0.59287 0.34553 0.0
C849 C 0.57762 0.6005 0.33915 0.0
C850 C 0.56273 0.56326 0.36351 0.0
Tb851 Tb 0.63315 0.61558 0.33651 0.0
N852 N 0.64288 0.57669 0.33166 0.0
C853 C 0.6639 0.56829 0.31476 0.0
C854 C 0.65216 0.52925 0.33336 0.0
C855 C 0.66892 0.54468 0.31619 0.0
H856 H 0.5738 0.61783 0.32631 0.0
H857 H 0.68575 0.5384 0.30373 0.0
H858 H 0.6154 0.50405 0.36395 0.0
H859 H 0.54123 0.59273 0.34697 0.0
H860 H 0.67708 0.57934 0.29922 0.0
H861 H 0.60685 0.71539 0.49168 0.0
H862 H 0.65613 0.51097 0.3345 0.0
H863 H 0.70768 0.62264 0.49912 0.0
H864 H 0.61089 0.67353 0.47727 0.0
H865 H 0.74436 0.64358 0.51768 0.0
H866 H 0.57599 0.5191 0.37794 0.0
H867 H 0.64179 0.74019 0.49774 0.0
H868 H 0.68533 0.74324 0.49958 0.0
H869 H 0.54809 0.55208 0.37113 0.0
H870 H 0.72317 0.72355 0.50533 0.0
N871 N 0.64784 0.67421 0.47406 0.0
C872 C 0.62634 0.68396 0.47947 0.0
C873 C 0.64368 0.72175 0.49118 0.0
C874 C 0.66565 0.71161 0.48776 0.0
C875 C 0.62394 0.70779 0.48803 0.0
C876 C 0.66714 0.68748 0.47988 0.0
H877 H 0.74533 0.68625 0.51368 0.0
N878 N 0.68834 0.65309 0.48199 0.0
C879 C 0.72875 0.65306 0.50757 0.0
C880 C 0.68828 0.67649 0.48322 0.0
C881 C 0.70794 0.64127 0.49715 0.0
C882 C 0.72926 0.67713 0.50497 0.0
C883 C 0.70871 0.6892 0.49429 0.0
O884 O 0.66405 0.61933 0.53641 0.0
O885 O 0.64032 0.60482 0.4195 0.0
O886 O 0.6046 0.63474 0.37478 0.0
O887 O 0.61452 0.631 0.46432 0.0
O888 O 0.67055 0.60162 0.46283 0.0
O889 O 0.6343 0.6412 0.53444 0.0
O890 O 0.61046 0.62339 0.27247 0.0
O891 O 0.63921 0.64574 0.38833 0.0
O892 O 0.68361 0.63787 0.40771 0.0
O893 O 0.67135 0.61539 0.33467 0.0
O894 O 0.64642 0.64942 0.30999 0.0
O895 O 0.64481 0.61052 0.25753 0.0
C896 C 0.65529 0.59007 0.43575 0.0
C897 C 0.655 0.64006 0.61637 0.0
C898 C 0.65305 0.64219 0.71437 0.0
C899 C 0.64791 0.63062 0.66539 0.0
C900 C 0.66572 0.66291 0.7137 0.0
C901 C 0.66766 0.66074 0.61713 0.0
C902 C 0.67309 0.672 0.66542 0.0
C903 C 0.59867 0.63418 0.42581 0.0
C904 C 0.64793 0.6291 0.56474 0.0
C905 C 0.70763 0.71343 0.49768 0.0
C906 C 0.68609 0.72463 0.49453 0.0
C907 C 0.64688 0.66025 0.3552 0.0
C908 C 0.61634 0.60258 0.19082 0.0
C909 C 0.62251 0.60818 0.13811 0.0
C910 C 0.61388 0.59526 0.09361 0.0
C911 C 0.59902 0.57649 0.10344 0.0
C912 C 0.60181 0.58362 0.19926 0.0
C913 C 0.59321 0.57069 0.15575 0.0
C914 C 0.68776 0.62704 0.36109 0.0
C915 C 0.6252 0.61689 0.23607 0.0
H916 H 0.63788 0.61478 0.66536 0.0
H917 H 0.66996 0.67207 0.75074 0.0
H918 H 0.67309 0.66843 0.58047 0.0
H919 H 0.68282 0.688 0.66536 0.0
H920 H 0.63419 0.62255 0.13208 0.0
H921 H 0.59149 0.56642 0.07073 0.0
H922 H 0.59699 0.57886 0.23931 0.0
H923 H 0.58181 0.5562 0.16255 0.0
Tb924 Tb 0.14382 0.88623 0.07586 0.0
C925 C 0.09033 0.94459 0.22495 0.0
C926 C 0.1096 0.98138 0.21422 0.0
C927 C 0.06826 0.98026 0.23252 0.0
C928 C 0.11023 0.95701 0.21374 0.0
C929 C 0.06936 0.95612 0.23639 0.0
C930 C 0.08835 0.99288 0.22142 0.0
C931 C 0.05313 0.91948 0.26223 0.0
N932 N 0.09212 0.9213 0.22933 0.0
C933 C 0.07439 0.90885 0.25108 0.0
C934 C 0.05047 0.94315 0.25388 0.0
Tb935 Tb 0.12703 0.90582 0.20414 0.0
N936 N 0.13059 0.94532 0.20831 0.0
C937 C 0.15119 0.95713 0.21077 0.0
C938 C 0.13052 0.99347 0.21075 0.0
C939 C 0.15143 0.9813 0.21062 0.0
H940 H 0.07634 0.89056 0.25771 0.0
H941 H 0.16778 0.99051 0.2103 0.0
H942 H 0.08749 0.01157 0.22102 0.0
H943 H 0.03886 0.90946 0.27743 0.0
H944 H 0.16763 0.94827 0.21088 0.0
H945 H 0.09826 0.80509 0.03841 0.0
H946 H 0.1308 0.01219 0.21095 0.0
H947 H 0.19704 0.9007 0.03435 0.0
H948 H 0.10083 0.84666 0.05311 0.0
H949 H 0.23344 0.88055 1.01321 0.0
H950 H 0.0522 0.98942 0.24034 0.0
H951 H 0.13381 0.78133 0.03409 0.0
H952 H 0.17721 0.77959 0.03116 0.0
H953 H 0.03411 0.95142 0.26326 0.0
H954 H 0.21432 0.80025 0.0245 0.0
N955 N 0.13797 0.84734 0.06085 0.0
C956 C 0.11678 0.83703 0.05228 0.0
C957 C 0.13521 0.79981 0.04097 0.0
C958 C 0.15687 0.81061 0.04474 0.0
C959 C 0.11511 0.81317 0.04331 0.0
C960 C 0.15773 0.83475 0.05373 0.0
H961 H 0.23532 0.83793 1.01589 0.0
N962 N 0.1785 0.86984 0.05221 0.0
C963 C 0.21825 0.87074 0.02405 0.0
C964 C 0.17869 0.84638 0.0496 0.0
C965 C 0.19752 0.88211 0.03637 0.0
C966 C 0.21926 0.84668 0.0258 0.0
C967 C 0.19918 0.83416 0.03709 0.0
O968 O 0.12834 0.90838 0.01898 0.0
O969 O 0.13495 0.91721 0.12242 0.0
O970 O 0.09476 0.90528 0.15749 0.0
O971 O 0.1049 0.88419 0.08094 0.0
O972 O 0.16455 0.91771 0.07811 0.0
O973 O 0.14595 0.87789 0.9933 0.0
O974 O 0.14421 0.88593 0.26259 0.0
O975 O 0.13556 0.8756 0.15564 0.0
O976 O 0.17491 0.88299 0.13065 0.0
O977 O 0.1651 0.90825 0.20011 0.0
O978 O 0.10871 0.87225 0.20698 0.0
O979 O 0.1256 0.91619 0.28583 0.0
C980 C 0.15108 0.9306 0.10647 0.0
C981 C 0.14694 0.90939 0.93448 0.0
C982 C 0.15349 0.91479 0.83872 0.0
C983 C 0.14215 0.90336 0.88046 0.0
C984 C 0.16949 0.93237 0.8514 0.0
C985 C 0.16279 0.92728 0.94603 0.0
C986 C 0.17394 0.93866 0.90473 0.0
C987 C 0.08923 0.89458 0.1122 0.0
C988 C 0.13566 0.89656 0.97796 0.0
C989 C 0.19867 0.80995 0.03314 0.0
C990 C 0.17753 0.79819 0.03691 0.0
C991 C 0.12101 0.86104 0.17253 0.0
C992 C 0.12706 0.88583 0.34844 0.0
C993 C 0.13276 0.89258 0.40163 0.0
C994 C 0.12455 0.87979 0.44526 0.0
C995 C 0.11019 0.86057 0.43503 0.0
C996 C 0.11264 0.86654 0.33965 0.0
C997 C 0.1042 0.85412 0.38265 0.0
C998 C 0.18033 0.89459 0.17584 0.0
C999 C 0.13696 0.89837 0.3027 0.0
H1000 H 0.12993 0.88961 0.87093 0.0
H1001 H 0.17838 0.94136 0.81992 0.0
H1002 H 0.16668 0.93251 0.98677 0.0
H1003 H 0.18617 0.95238 0.91413 0.0
H1004 H 0.14403 0.90732 0.40896 0.0
H1005 H 0.10347 0.85057 0.46773 0.0
H1006 H 0.10804 0.86074 0.29969 0.0
H1007 H 0.09312 0.83927 0.37531 0.0
Tb1008 Tb 0.89404 0.62056 0.20417 0.0
C1009 C 0.81965 0.65434 0.09433 0.0
C1010 C 0.79489 0.62089 0.08053 0.0
C1011 C 0.77785 0.65749 0.10756 0.0
C1012 C 0.81721 0.63112 0.08158 0.0
C1013 C 0.79982 0.66788 0.10605 0.0
C1014 C 0.77539 0.63404 0.09477 0.0
C1015 C 0.82421 0.70157 0.10778 0.0
N1016 N 0.84117 0.66392 0.09259 0.0
C1017 C 0.84321 0.68757 0.09529 0.0
C1018 C 0.80249 0.69162 0.11445 0.0
Tb1019 Tb 0.87155 0.63856 0.07627 0.0
N1020 N 0.83655 0.61867 0.06934 0.0
C1021 C 0.83398 0.59646 0.04985 0.0
C1022 C 0.79272 0.59776 0.06484 0.0
C1023 C 0.8123 0.58564 0.04852 0.0
H1024 H 0.85918 0.69626 0.08622 0.0
H1025 H 0.81068 0.56799 0.03402 0.0
H1026 H 0.75824 0.62633 0.09505 0.0
H1027 H 0.82627 0.72012 0.11108 0.0
H1028 H 0.84815 0.58669 0.0334 0.0
H1029 H 0.97888 0.65971 0.22276 0.0
H1030 H 0.77592 0.58931 0.06364 0.0
H1031 H 0.87733 0.56885 0.24618 0.0
H1032 H 0.9362 0.65949 0.21634 0.0
H1033 H 0.89537 0.53113 0.2647 0.0
H1034 H 0.76256 0.66756 0.11729 0.0
H1035 H 1.00038 0.62277 0.21903 0.0
H1036 H 0.99974 0.5794 0.22524 0.0
H1037 H 0.78773 0.70255 0.12358 0.0
H1038 H 0.97685 0.54403 0.23775 0.0
N1039 N 0.93362 0.62277 0.21178 0.0
C1040 C 0.94533 0.64324 0.21703 0.0
C1041 C 0.98174 0.62264 0.21975 0.0
C1042 C 0.96963 0.60178 0.21948 0.0
C1043 C 0.96958 0.64347 0.2209 0.0
C1044 C 0.94525 0.60249 0.21613 0.0
H1045 H 0.93777 0.52596 0.25461 0.0
N1046 N 0.90911 0.58487 0.22427 0.0
C1047 C 0.90602 0.54545 0.25236 0.0
C1048 C 0.93251 0.58271 0.22254 0.0
C1049 C 0.89586 0.56691 0.2419 0.0
C1050 C 0.92994 0.54257 0.24638 0.0
C1051 C 0.94359 0.56149 0.2326 0.0
O1052 O 0.87716 0.61384 0.2772 0.0
O1053 O 0.86293 0.63323 0.16142 0.0
O1054 O 0.88622 0.66974 0.11168 0.0
O1055 O 0.89435 0.65944 0.20022 0.0
O1056 O 0.86016 0.60421 0.2069 0.0
O1057 O 0.90247 0.6406 0.273 0.0
O1058 O 0.86871 0.66191 1.01256 0.0
O1059 O 0.902 0.63042 0.12417 0.0
O1060 O 0.89681 0.58964 0.14932 0.0
O1061 O 0.88103 0.60209 0.06808 0.0
O1062 O 0.90822 0.64429 0.05241 0.0
O1063 O 0.8722 0.62538 0.99729 0.0
C1064 C 0.84829 0.61881 0.17991 0.0
C1065 C 0.89978 0.62128 0.35542 0.0
C1066 C 0.90077 0.62035 0.45386 0.0
C1067 C 0.89014 0.62755 0.40541 0.0
C1068 C 0.92072 0.60633 0.45098 0.0
C1069 C 0.92001 0.60784 0.35444 0.0
C1070 C 0.93025 0.60025 0.40174 0.0
C1071 C 0.89212 0.67507 0.1616 0.0
C1072 C 0.88911 0.62907 0.30448 0.0
C1073 C 0.96794 0.56025 0.23126 0.0
C1074 C 0.98097 0.58041 0.22436 0.0
C1075 C 0.91867 0.63569 0.0933 0.0
C1076 C 0.85241 0.64679 0.93129 0.0
C1077 C 0.86015 0.64464 0.87807 0.0
C1078 C 0.8442 0.64481 0.83465 0.0
C1079 C 0.82041 0.64725 0.84553 0.0
C1080 C 0.82862 0.64941 0.94093 0.0
C1081 C 0.81275 0.64961 0.89825 0.0
C1082 C 0.89022 0.58589 0.09848 0.0
C1083 C 0.86937 0.64559 0.976 0.0
H1084 H 0.87476 0.63834 0.40651 0.0
H1085 H 0.929 0.59988 0.48694 0.0
H1086 H 0.92804 0.60327 0.31718 0.0
H1087 H 0.94574 0.58966 0.40022 0.0
H1088 H 0.87853 0.64244 0.87055 0.0
H1089 H 0.80772 0.64766 0.81318 0.0
H1090 H 0.82231 0.65129 0.9813 0.0
H1091 H 0.7944 0.65162 0.90605 0.0
Tb1092 Tb 0.15488 0.13485 0.95428 0.0
C1093 C 0.10417 0.07018 0.84263 0.0
C1094 C 0.12944 0.0368 0.84174 0.0
C1095 C 0.08847 0.03196 0.85992 0.0
C1096 C 0.12605 0.0609 0.8376 0.0
C1097 C 0.08493 0.05561 0.85145 0.0
C1098 C 0.11073 0.02254 0.85497 0.0
C1099 C 0.05981 0.08768 0.83207 0.0
N1100 N 0.10141 0.09299 0.83271 0.0
C1101 C 0.07938 0.1012 0.82257 0.0
C1102 C 0.0626 0.06494 0.84818 0.0
Tb1103 Tb 0.13546 0.11447 0.82663 0.0
N1104 N 0.14376 0.07527 0.82518 0.0
C1105 C 0.1648 0.06601 0.81104 0.0
C1106 C 0.15135 0.02764 0.83095 0.0
C1107 C 0.16895 0.04227 0.81439 0.0
H1108 H 0.07655 0.1185 0.80821 0.0
H1109 H 0.18578 0.03529 0.80412 0.0
H1110 H 0.11312 1.0041 0.85945 0.0
H1111 H 0.04257 0.09477 0.82637 0.0
H1112 H 0.17867 0.0765 0.79667 0.0
H1113 H 0.10705 0.21441 0.98106 0.0
H1114 H 0.15464 1.00926 0.83366 0.0
H1115 H 0.20943 0.12332 0.98904 0.0
H1116 H 0.11175 0.17257 0.96742 0.0
H1117 H 0.2458 0.14491 1.00663 0.0
H1118 H 0.07397 0.02063 0.86774 0.0
H1119 H 0.14158 0.23979 0.98609 0.0
H1120 H 0.18507 0.24353 0.9877 0.0
H1121 H 0.0474 0.05436 0.85478 0.0
H1122 H 0.22324 0.22447 0.99347 0.0
N1123 N 0.14867 0.17385 0.96363 0.0
C1124 C 0.12703 0.18326 0.9692 0.0
C1125 C 0.14376 0.22136 0.9799 0.0
C1126 C 0.16589 0.21157 0.97645 0.0
C1127 C 0.12426 0.20708 0.97732 0.0
C1128 C 0.16776 0.18744 0.96899 0.0
H1129 H 0.24604 0.18757 1.00202 0.0
N1130 N 0.18953 0.1534 0.97171 0.0
C1131 C 0.23001 0.1541 0.99664 0.0
C1132 C 0.18908 0.1768 0.9725 0.0
C1133 C 0.20937 0.14195 0.9868 0.0
C1134 C 0.2301 0.17817 0.9937 0.0
C1135 C 0.20932 0.18987 0.98312 0.0
O1136 O 0.16584 0.11965 0.02697 0.0
O1137 O 0.14235 0.10418 0.91015 0.0
O1138 O 0.10669 0.13354 0.86355 0.0
O1139 O 0.11604 0.13027 0.95349 0.0
O1140 O 0.17238 0.1015 0.95443 0.0
O1141 O 0.13545 0.14066 0.02416 0.0
O1142 O 0.1145 0.12215 0.75956 0.0
O1143 O 0.14087 0.14491 0.87792 0.0
O1144 O 0.18497 0.13792 0.89782 0.0
O1145 O 0.1736 0.1137 0.82717 0.0
O1146 O 0.14804 0.14859 0.79984 0.0
O1147 O 0.14885 0.10836 0.74953 0.0
C1148 C 0.15734 0.08965 0.92738 0.0
C1149 C 0.1561 0.14051 0.1062 0.0
C1150 C 0.15447 0.14263 0.20416 0.0
C1151 C 0.14975 0.13076 0.15539 0.0
C1152 C 0.166 0.16399 0.20315 0.0
C1153 C 0.16767 0.16182 0.10654 0.0
C1154 C 0.17268 0.1734 0.15466 0.0
C1155 C 0.10043 0.1331 0.9143 0.0
C1156 C 0.1494 0.12911 0.05487 0.0
C1157 C 0.20785 0.21408 0.9861 0.0
C1158 C 0.18612 0.22493 0.9829 0.0
C1159 C 0.14825 0.15958 0.84485 0.0
C1160 C 0.12155 0.10027 0.68027 0.0
C1161 C 0.1272 0.10624 0.62753 0.0
C1162 C 0.11892 0.09303 0.58315 0.0
C1163 C 0.10498 0.07359 0.59313 0.0
C1164 C 0.10793 0.08068 0.68893 0.0
C1165 C 0.09971 0.06745 0.64552 0.0
C1166 C 0.18959 0.12627 0.85256 0.0
C1167 C 0.12988 0.11492 0.7254 0.0
H1168 H 0.14058 0.11441 0.15565 0.0
H1169 H 0.1699 0.17338 0.24006 0.0
H1170 H 0.17253 0.16972 0.0697 0.0
H1171 H 0.18155 0.18988 0.15431 0.0
H1172 H 0.13819 0.12112 0.62136 0.0
H1173 H 0.09775 0.06326 0.56049 0.0
H1174 H 0.10352 0.07567 0.72904 0.0
H1175 H 0.089 0.05245 0.65247 0.0
Tb1176 Tb 0.64342 0.38487 0.58731 0.0
C1177 C 0.61247 0.46007 0.70179 0.0
C1178 C 0.64628 0.48493 0.70527 0.0
C1179 C 0.60827 0.50151 0.68853 0.0
C1180 C 0.63618 0.4627 0.70772 0.0
C1181 C 0.59818 0.47963 0.69395 0.0
C1182 C 0.63229 0.50416 0.69428 0.0
C1183 C 0.56483 0.4554 0.70617 0.0
N1184 N 0.60327 0.4387 0.708 0.0
C1185 C 0.57968 0.4367 0.71481 0.0
C1186 C 0.5741 0.47686 0.69425 0.0
Tb1187 Tb 0.62972 0.4086 0.71654 0.0
N1188 N 0.6493 0.44362 0.71706 0.0
C1189 C 0.67255 0.44621 0.72856 0.0
C1190 C 0.67013 0.48725 0.71425 0.0
C1191 C 0.68324 0.46784 0.72666 0.0
H1192 H 0.57185 0.42085 0.72788 0.0
H1193 H 0.70164 0.46952 0.73514 0.0
H1194 H 0.63982 0.52124 0.69133 0.0
H1195 H 0.54624 0.45332 0.70991 0.0
H1196 H 0.68335 0.43202 0.74039 0.0
H1197 H 0.588 0.30929 0.57547 0.0
H1198 H 0.6785 0.50398 0.71268 0.0
H1199 H 0.6971 0.39197 0.54392 0.0
H1200 H 0.59682 0.35014 0.58964 0.0
H1201 H 0.73014 0.36764 0.51598 0.0
H1202 H 0.59758 0.51661 0.68167 0.0
H1203 H 0.61943 0.28147 0.55575 0.0
H1204 H 0.66156 0.27448 0.53722 0.0
H1205 H 0.56257 0.49142 0.68834 0.0
H1206 H 0.70058 0.2903 0.52258 0.0
N1207 N 0.63345 0.34637 0.5798 0.0
C1208 C 0.61099 0.33863 0.58138 0.0
C1209 C 0.62353 0.29959 0.56206 0.0
C1210 C 0.64629 0.30762 0.55789 0.0
C1211 C 0.60577 0.31523 0.57309 0.0
C1212 C 0.65069 0.33139 0.56663 0.0
H1213 H 0.72628 0.32508 0.51394 0.0
N1214 N 0.67512 0.36346 0.56105 0.0
C1215 C 0.71405 0.35967 0.52791 0.0
C1216 C 0.6724 0.34026 0.55753 0.0
C1217 C 0.69527 0.37338 0.54372 0.0
C1218 C 0.71184 0.33567 0.52701 0.0
C1219 C 0.69063 0.32569 0.54055 0.0
O1220 O 0.65308 0.39814 0.51217 0.0
O1221 O 0.63421 0.41688 0.63081 0.0
O1222 O 0.59652 0.39583 0.68493 0.0
O1223 O 0.60465 0.39007 0.59449 0.0
O1224 O 0.66268 0.41688 0.58159 0.0
O1225 O 0.61978 0.38251 0.52267 0.0
O1226 O 0.60996 0.41018 0.78678 0.0
O1227 O 0.63743 0.37798 0.66972 0.0
O1228 O 0.67628 0.38211 0.6369 0.0
O1229 O 0.66649 0.39745 0.72089 0.0
O1230 O 0.61963 0.37279 0.73762 0.0
O1231 O 0.64726 0.4092 0.79115 0.0
C1232 C 0.64957 0.42998 0.61011 0.0
C1233 C 0.63641 0.37841 0.43701 0.0
C1234 C 0.63654 0.37789 0.33903 0.0
C1235 C 0.6363 0.3903 0.38812 0.0
C1236 C 0.6376 0.35367 0.33932 0.0
C1237 C 0.63726 0.35417 0.43598 0.0
C1238 C 0.63812 0.34193 0.38756 0.0
C1239 C 0.58971 0.39207 0.63493 0.0
C1240 C 0.63407 0.39122 0.48845 0.0
C1241 C 0.68677 0.30181 0.53517 0.0
C1242 C 0.66457 0.2928 0.5435 0.0
C1243 C 0.629 0.36201 0.69793 0.0
C1244 C 0.62779 0.42807 0.86243 0.0
C1245 C 0.63081 0.42067 0.91544 0.0
C1246 C 0.62941 0.43647 0.95901 0.0
C1247 C 0.62536 0.45994 0.94804 0.0
C1248 C 0.62379 0.4515 0.85271 0.0
C1249 C 0.62272 0.46734 0.89532 0.0
C1250 C 0.68188 0.38846 0.68723 0.0
C1251 C 0.62814 0.4109 0.81822 0.0
H1252 H 0.63519 0.40899 0.3882 0.0
H1253 H 0.63785 0.34383 0.30203 0.0
H1254 H 0.63668 0.34459 0.4724 0.0
H1255 H 0.63872 0.32324 0.38743 0.0
H1256 H 0.63419 0.40255 0.92252 0.0
H1257 H 0.62367 0.47258 0.98016 0.0
H1258 H 0.62123 0.45753 0.81241 0.0
H1259 H 0.61946 0.4854 0.88751 0.0
Tb1260 Tb 0.37964 0.87843 0.45596 0.0
C1261 C 0.43552 0.92882 0.2959 0.0
C1262 C 0.41918 0.96735 0.30254 0.0
C1263 C 0.45965 0.9623 0.27851 0.0
C1264 C 0.41686 0.9432 0.30731 0.0
C1265 C 0.4569 0.93822 0.27994 0.0
C1266 C 0.44084 0.97683 0.28987 0.0
C1267 C 0.47067 0.89938 0.26324 0.0
N1268 N 0.43232 0.90555 0.29767 0.0
C1269 C 0.4492 0.89081 0.27933 0.0
C1270 C 0.47466 0.92316 0.26425 0.0
Tb1271 Tb 0.3965 0.89402 0.32639 0.0
N1272 N 0.39597 0.93345 0.31823 0.0
C1273 C 0.37631 0.94677 0.31822 0.0
C1274 C 0.39942 0.98119 0.30796 0.0
C1275 C 0.37783 0.9708 0.31457 0.0
H1276 H 0.44655 0.87239 0.27867 0.0
H1277 H 0.3623 0.98129 0.31676 0.0
H1278 H 0.44299 0.99535 0.28673 0.0
H1279 H 0.48415 0.88762 0.25015 0.0
H1280 H 0.35935 0.93928 0.32284 0.0
H1281 H 0.42205 0.79674 0.49768 0.0
H1282 H 0.40049 0.9998 0.30472 0.0
H1283 H 0.32761 0.89566 0.50062 0.0
H1284 H 0.42088 0.83829 0.48361 0.0
H1285 H 0.29033 0.87725 0.52185 0.0
H1286 H 0.47604 0.96983 0.26702 0.0
H1287 H 0.38583 0.77414 0.49763 0.0
H1288 H 0.34203 0.77393 0.49693 0.0
H1289 H 0.49128 0.92975 0.25151 0.0
H1290 H 0.30576 0.79601 0.50471 0.0
N1291 N 0.38398 0.8398 0.47227 0.0
C1292 C 0.40472 0.82905 0.48265 0.0
C1293 C 0.385 0.79256 0.49163 0.0
C1294 C 0.36371 0.80401 0.48682 0.0
C1295 C 0.40553 0.80528 0.4915 0.0
C1296 C 0.36377 0.82804 0.47844 0.0
H1297 H 0.28644 0.83472 0.51645 0.0
N1298 N 0.3445 0.86387 0.48078 0.0
C1299 C 0.305 0.86672 0.51013 0.0
C1300 C 0.34329 0.84049 0.48248 0.0
C1301 C 0.32619 0.87709 0.49791 0.0
C1302 C 0.30285 0.84271 0.50681 0.0
C1303 C 0.32232 0.82925 0.4945 0.0
O1304 O 0.39812 0.89968 0.51134 0.0
O1305 O 0.38943 0.90768 0.40752 0.0
O1306 O 0.42821 0.89639 0.37443 0.0
O1307 O 0.41856 0.87445 0.44813 0.0
O1308 O 0.36093 0.91117 0.45499 0.0
O1309 O 0.37648 0.87255 0.53895 0.0
O1310 O 0.38207 0.87147 0.26755 0.0
O1311 O 0.3863 0.86529 0.3765 0.0
O1312 O 0.3476 0.87693 0.40308 0.0
O1313 O 0.35886 0.89905 0.33103 0.0
O1314 O 0.41286 0.85929 0.32533 0.0
O1315 O 0.39321 0.90515 0.24627 0.0
C1316 C 0.37449 0.92245 0.42416 0.0
C1317 C 0.38056 0.90517 0.59644 0.0
C1318 C 0.37521 0.91297 0.69262 0.0
C1319 C 0.38302 0.89849 0.65032 0.0
C1320 C 0.36481 0.93421 0.67965 0.0
C1321 C 0.37003 0.9264 0.58501 0.0
C1322 C 0.3622 0.94077 0.62635 0.0
C1323 C 0.43418 0.8854 0.41834 0.0
C1324 C 0.38941 0.88994 0.55305 0.0
C1325 C 0.32182 0.80505 0.49695 0.0
C1326 C 0.3425 0.79245 0.49286 0.0
C1327 C 0.40006 0.84951 0.36042 0.0
C1328 C 0.39771 0.87562 0.18077 0.0
C1329 C 0.39234 0.88366 0.12895 0.0
C1330 C 0.40431 0.87493 0.08385 0.0
C1331 C 0.42155 0.85806 0.09137 0.0
C1332 C 0.4147 0.85841 0.18672 0.0
C1333 C 0.42658 0.84982 0.14237 0.0
C1334 C 0.3428 0.88758 0.35706 0.0
C1335 C 0.38576 0.88536 0.22829 0.0
H1336 H 0.39094 0.88197 0.65909 0.0
H1337 H 0.35906 0.94608 0.71072 0.0
H1338 H 0.36799 0.93206 0.54429 0.0
H1339 H 0.35427 0.9572 0.61705 0.0
H1340 H 0.37915 0.89683 0.12383 0.0
H1341 H 0.43089 0.85091 0.05753 0.0
H1342 H 0.41883 0.85148 0.22559 0.0
H1343 H 0.43971 0.83662 0.14751 0.0
H1344 H 0.20335 0.63381 0.75099 0.0
H1345 H 0.13638 0.66546 0.77686 0.0
H1346 H 0.19447 0.63011 0.65523 0.0
H1347 H 0.12723 0.66103 0.68184 0.0
H1348 H 0.12579 0.67362 0.50582 0.0
H1349 H 0.13948 0.67802 0.59834 0.0
H1350 H 0.16864 0.60926 0.59091 0.0
H1351 H 0.15513 0.60519 0.4975 0.0
C1352 C 0.18671 0.63991 0.73631 0.0
C1353 C 0.17061 0.65003 0.77165 0.0
C1354 C 0.18157 0.63762 0.6815 0.0
C1355 C 0.16026 0.64551 0.66074 0.0
C1356 C 0.144 0.65517 0.6963 0.0
C1357 C 0.1491 0.6574 0.75099 0.0
C1358 C 0.13569 0.65974 0.52368 0.0
C1359 C 0.13967 0.63919 0.49477 0.0
C1360 C 0.14326 0.66209 0.57679 0.0
C1361 C 0.1548 0.64383 0.60235 0.0
C1362 C 0.15987 0.62367 0.57235 0.0
C1363 C 0.15227 0.62134 0.51894 0.0
H1364 H 0.62195 0.85111 1.01334 0.0
H1365 H 0.65886 0.91491 0.04209 0.0
H1366 H 0.63739 0.84868 0.92302 0.0
H1367 H 0.6735 0.9134 0.95041 0.0
H1368 H 0.71014 0.89514 0.79428 0.0
H1369 H 0.69791 0.89606 0.88711 0.0
H1370 H 0.6324 0.86507 0.83964 0.0
H1371 H 0.64538 0.86233 0.74786 0.0
C1372 C 0.6335 0.86459 1.00009 0.0
C1373 C 0.63931 0.88315 0.03447 0.0
C1374 C 0.64214 0.86341 0.94806 0.0
C1375 C 0.65645 0.88105 0.92858 0.0
C1376 C 0.66275 0.89935 0.96383 0.0
C1377 C 0.65438 0.9003 1.01637 0.0
C1378 C 0.69325 0.88817 0.80364 0.0
C1379 C 0.67888 0.8785 0.76307 0.0
C1380 C 0.68607 0.88903 0.85706 0.0
C1381 C 0.66417 0.88051 0.87149 0.0
C1382 C 0.6496 0.87135 0.83069 0.0
C1383 C 0.65691 0.87019 0.77748 0.0
H1384 H 0.35785 0.41853 0.29287 0.0
H1385 H 0.36199 0.34481 0.26721 0.0
H1386 H 0.36862 0.42454 0.19908 0.0
H1387 H 0.37313 0.35076 0.17409 0.0
H1388 H 0.41905 0.37551 0.0317 0.0
H1389 H 0.40758 0.36868 0.12428 0.0
H1390 H 0.34969 0.41528 0.10478 0.0
H1391 H 0.36101 0.42173 1.01146 0.0
C1392 C 0.36141 0.40366 0.26737 0.0
C1393 C 0.35921 0.38122 0.28731 0.0
C1394 C 0.36732 0.40707 0.21364 0.0
C1395 C 0.37158 0.3881 0.17911 0.0
C1396 C 0.37 0.3657 0.19965 0.0
C1397 C 0.36366 0.3623 0.25292 0.0
C1398 C 0.40363 0.38394 0.04699 0.0
C1399 C 0.39075 0.39893 1.01437 0.0
C1400 C 0.39711 0.3801 0.09996 0.0
C1401 C 0.37783 0.39156 0.12197 0.0
C1402 C 0.36475 0.40636 0.08907 0.0
C1403 C 0.37103 0.40985 0.0356 0.0
H1404 H 0.86078 0.07667 0.4867 0.0
H1405 H 0.90488 0.13441 0.52908 0.0
H1406 H 0.85784 0.09017 0.39501 0.0
H1407 H 0.9031 0.14749 0.43662 0.0
H1408 H 0.87733 0.17805 0.28017 0.0
H1409 H 0.88125 0.16462 0.37101 0.0
H1410 H 0.87594 0.09398 0.3134 0.0
H1411 H 0.87 0.10768 0.22243 0.0
C1412 C 0.86997 0.09225 0.47618 0.0
C1413 C 0.88298 0.10453 0.51522 0.0
C1414 C 0.86852 0.09991 0.42327 0.0
C1415 C 0.88037 0.11992 0.40742 0.0
C1416 C 0.89336 0.13224 0.44686 0.0
C1417 C 0.89446 0.12476 0.50009 0.0
C1418 C 0.8767 0.15962 0.28668 0.0
C1419 C 0.87281 0.14404 0.24349 0.0
C1420 C 0.87937 0.15183 0.33918 0.0
C1421 C 0.87874 0.1281 0.35052 0.0
C1422 C 0.87597 0.11242 0.30697 0.0
C1423 C 0.87295 0.12027 0.25432 0.0
H1424 H 0.12181 0.37799 0.24129 0.0
H1425 H 0.18125 0.33371 0.26273 0.0
H1426 H 0.12556 0.39126 0.33521 0.0
H1427 H 0.18511 0.3468 0.35578 0.0
H1428 H 0.19903 0.39116 0.50521 0.0
H1429 H 0.1951 0.38077 0.41064 0.0
H1430 H 0.12084 0.37513 0.428 0.0
H1431 H 0.12479 0.38596 0.52323 0.0
C1432 C 0.13594 0.37148 0.26577 0.0
C1433 C 0.15138 0.35499 0.24453 0.0
C1434 C 0.13792 0.37881 0.31974 0.0
C1435 C 0.1556 0.37006 0.35336 0.0
C1436 C 0.17142 0.35411 0.33124 0.0
C1437 C 0.16924 0.3466 0.27782 0.0
C1438 C 0.18181 0.38779 0.48898 0.0
C1439 C 0.16222 0.38947 0.52207 0.0
C1440 C 0.17957 0.38169 0.43464 0.0
C1441 C 0.15764 0.37715 0.41134 0.0
C1442 C 0.13798 0.37876 0.44435 0.0
C1443 C 0.14026 0.38468 0.49911 0.0
H1444 H 0.81701 0.87305 0.74964 0.0
H1445 H 0.88942 0.87508 0.79713 0.0
H1446 H 0.82771 0.88013 0.65765 0.0
H1447 H 0.89991 0.88425 0.70626 0.0
H1448 H 0.91678 0.87875 0.5317 0.0
H1449 H 0.9044 0.86894 0.62141 0.0
H1450 H 0.84043 0.90663 0.59581 0.0
H1451 H 0.85256 0.91519 0.50467 0.0
C1452 C 0.83524 0.87504 0.74074 0.0
C1453 C 0.85229 0.87322 0.78146 0.0
C1454 C 0.84138 0.87952 0.68772 0.0
C1455 C 0.86476 0.88269 0.67371 0.0
C1456 C 0.88175 0.88142 0.7147 0.0
C1457 C 0.87565 0.87657 0.7675 0.0
C1458 C 0.89994 0.88464 0.5452 0.0
C1459 C 0.88561 0.89768 0.51131 0.0
C1460 C 0.8929 0.87929 0.59698 0.0
C1461 C 0.8715 0.88726 0.61689 0.0
C1462 C 0.85691 0.8999 0.58218 0.0
C1463 C 0.86383 0.90489 0.52986 0.0
H1464 H 0.38183 0.61653 0.7451 0.0
H1465 H 0.35119 0.68287 0.78268 0.0
H1466 H 0.39369 0.61269 0.83946 0.0
H1467 H 0.36226 0.6786 0.87637 0.0
H1468 H 0.35741 0.65003 0.04418 0.0
H1469 H 0.34825 0.64947 0.94819 0.0
H1470 H 0.41997 0.63465 0.9131 0.0
H1471 H 0.4292 0.63539 1.0093 0.0
C1472 C 0.37797 0.63043 0.77315 0.0
C1473 C 0.36526 0.64985 0.75647 0.0
C1474 C 0.38458 0.62813 0.82716 0.0
C1475 C 0.37835 0.64509 0.86532 0.0
C1476 C 0.36674 0.66499 0.84806 0.0
C1477 C 0.36047 0.66743 0.79434 0.0
C1478 C 0.37109 0.64613 1.01605 0.0
C1479 C 0.39401 0.64286 0.03414 0.0
C1480 C 0.36592 0.64602 0.96116 0.0
C1481 C 0.38348 0.64229 0.92329 0.0
C1482 C 0.40613 0.63757 0.94142 0.0
C1483 C 0.41139 0.63805 0.99636 0.0
H1484 H 0.61552 0.13496 0.98209 0.0
H1485 H 0.68675 0.12072 0.0269 0.0
H1486 H 0.60629 0.14179 0.07571 0.0
H1487 H 0.67709 0.12553 0.12058 0.0
H1488 H 0.6578 0.15508 0.28495 0.0
H1489 H 0.66821 0.15043 0.19076 0.0
H1490 H 0.59963 0.12329 0.15547 0.0
H1491 H 0.58915 0.12912 0.24884 0.0
C1492 C 0.62928 0.1333 1.0117 0.0
C1493 C 0.65189 0.12708 0.99629 0.0
C1494 C 0.62386 0.13681 0.06587 0.0
C1495 C 0.6408 0.13393 0.10652 0.0
C1496 C 0.66351 0.12813 0.09095 0.0
C1497 C 0.66899 0.12497 0.03682 0.0
C1498 C 0.64509 0.14797 0.25693 0.0
C1499 C 0.62266 0.14255 0.2742 0.0
C1500 C 0.65102 0.14523 0.20279 0.0
C1501 C 0.63474 0.13663 0.16468 0.0
C1502 C 0.61252 0.13056 0.18277 0.0
C1503 C 0.60652 0.13367 0.23657 0.0
H1504 H 0.91048 0.34099 0.26136 0.0
H1505 H 0.88573 0.40933 0.22349 0.0
H1506 H 0.90233 0.3481 0.35528 0.0
H1507 H 0.87595 0.41586 0.31712 0.0
H1508 H 0.88538 0.43167 0.49465 0.0
H1509 H 0.89323 0.42376 0.40051 0.0
H1510 H 0.87461 0.35217 0.42191 0.0
H1511 H 0.86773 0.36012 0.51683 0.0
C1512 C 0.90314 0.35753 0.27292 0.0
C1513 C 0.89913 0.3747 0.23451 0.0
C1514 C 0.89813 0.3615 0.32702 0.0
C1515 C 0.88862 0.38267 0.34449 0.0
C1516 C 0.88374 0.39951 0.30573 0.0
C1517 C 0.889 0.39562 0.2516 0.0
C1518 C 0.88309 0.41422 0.47918 0.0
C1519 C 0.87596 0.39651 0.51315 0.0
C1520 C 0.88737 0.40968 0.42495 0.0
C1521 C 0.88435 0.38734 0.40285 0.0
C1522 C 0.87746 0.36954 0.43723 0.0
C1523 C 0.87348 0.37405 0.49176 0.0
H1524 H 0.32813 0.12904 0.23786 0.0
H1525 H 0.39902 0.14019 0.29068 0.0
H1526 H 0.34079 0.12589 0.14595 0.0
H1527 H 0.412 0.13504 0.19885 0.0
H1528 H 0.42727 0.14982 0.02549 0.0
H1529 H 0.4136 0.1534 0.11719 0.0
H1530 H 0.35887 0.10431 0.0801 0.0
H1531 H 0.37205 0.10188 0.98748 0.0
C1532 C 0.3465 0.13073 0.23004 0.0
C1533 C 0.36244 0.13534 0.27214 0.0
C1534 C 0.35385 0.12852 0.17698 0.0
C1535 C 0.37749 0.13039 0.16416 0.0
C1536 C 0.39358 0.13404 0.20654 0.0
C1537 C 0.38616 0.1366 0.25967 0.0
C1538 C 0.41213 0.14004 0.03698 0.0
C1539 C 0.40063 0.12567 0.99936 0.0
C1540 C 0.40443 0.14183 0.08984 0.0
C1541 C 0.38523 0.12893 0.10695 0.0
C1542 C 0.37351 0.11479 0.06874 0.0
C1543 C 0.38102 0.11334 1.0155 0.0
H1544 H 0.61984 0.56621 1.00599 0.0
H1545 H 0.62164 0.63845 0.05229 0.0
H1546 H 0.62711 0.57642 0.9138 0.0
H1547 H 0.63095 0.64847 0.96118 0.0
H1548 H 0.62569 0.6644 0.78641 0.0
H1549 H 0.61557 0.65241 0.87618 0.0
H1550 H 0.65395 0.58892 0.85184 0.0
H1551 H 0.66285 0.60066 0.76063 0.0
C1552 C 0.62181 0.5843 0.99677 0.0
C1553 C 0.61988 0.60146 0.03722 0.0
C1554 C 0.6264 0.59016 0.94365 0.0
C1555 C 0.62954 0.61335 0.92924 0.0
C1556 C 0.62814 0.63044 0.96994 0.0
C1557 C 0.62322 0.62462 0.02287 0.0
C1558 C 0.63164 0.64773 0.80017 0.0
C1559 C 0.645 0.63343 0.76662 0.0
C1560 C 0.62612 0.64092 0.85199 0.0
C1561 C 0.63421 0.61978 0.8723 0.0
C1562 C 0.64713 0.6052 0.8379 0.0
C1563 C 0.6523 0.61189 0.78553 0.0
H1564 H 0.14322 0.85147 0.52032 0.0
H1565 H 0.11975 0.92145 0.49789 0.0
H1566 H 0.15035 0.85982 0.61541 0.0
H1567 H 0.12667 0.92982 0.59362 0.0
H1568 H 0.11453 0.92315 0.77895 0.0
H1569 H 0.10866 0.91574 0.68248 0.0
H1570 H 0.17703 0.88539 0.67392 0.0
H1571 H 0.18294 0.89324 0.76997 0.0
C1572 C 0.13976 0.86871 0.53576 0.0
C1573 C 0.13095 0.88582 0.50171 0.0
C1574 C 0.14388 0.8735 0.59015 0.0
C1575 C 0.13894 0.89543 0.6121 0.0
C1576 C 0.13044 0.91269 0.57792 0.0
C1577 C 0.12669 0.908 0.52313 0.0
C1578 C 0.12815 0.91473 0.75632 0.0
C1579 C 0.14908 0.90854 0.78169 0.0
C1580 C 0.12492 0.9107 0.70116 0.0
C1581 C 0.14242 0.90005 0.67057 0.0
C1582 C 0.1632 0.89352 0.69641 0.0
C1583 C 0.16658 0.89795 0.75127 0.0
H1584 H 0.82574 0.61762 0.75405 0.0
H1585 H 0.88053 0.6668 0.78714 0.0
H1586 H 0.8385 0.61379 0.66161 0.0
H1587 H 0.89294 0.66364 0.69426 0.0
H1588 H 0.92561 0.63276 0.54389 0.0
H1589 H 0.91169 0.63905 0.63409 0.0
H1590 H 0.84096 0.63114 0.57685 0.0
H1591 H 0.85518 0.62335 0.48645 0.0
C1592 C 0.84039 0.62782 0.74137 0.0
C1593 C 0.85218 0.64244 0.77812 0.0
C1594 C 0.84765 0.62574 0.68812 0.0
C1595 C 0.8668 0.63841 0.66987 0.0
C1596 C 0.87841 0.65324 0.7067 0.0
C1597 C 0.87129 0.6551 0.76011 0.0
C1598 C 0.90706 0.6322 0.5504 0.0
C1599 C 0.89158 0.62713 0.50773 0.0
C1600 C 0.89901 0.63617 0.60234 0.0
C1601 C 0.87512 0.63552 0.61342 0.0
C1602 C 0.85951 0.63137 0.57033 0.0
C1603 C 0.86763 0.62722 0.51818 0.0
H1604 H 0.12434 0.13664 0.54231 0.0
H1605 H 0.12585 0.0645 0.4951 0.0
H1606 H 0.13286 0.14732 0.45123 0.0
H1607 H 0.13231 0.07528 0.40292 0.0
H1608 H 0.16658 0.10163 0.24996 0.0
H1609 H 0.1585 0.08925 0.34111 0.0
H1610 H 0.11698 0.15068 0.36649 0.0
H1611 H 0.12628 0.16337 0.27676 0.0
C1612 C 0.12648 0.12297 0.51269 0.0
C1613 C 0.12433 0.09963 0.52675 0.0
C1614 C 0.13094 0.12916 0.45979 0.0
C1615 C 0.13304 0.11225 0.41888 0.0
C1616 C 0.13104 0.08889 0.43298 0.0
C1617 C 0.12693 0.08269 0.48608 0.0
C1618 C 0.15555 0.11226 0.2751 0.0
C1619 C 0.14711 0.13346 0.25652 0.0
C1620 C 0.15083 0.1052 0.32741 0.0
C1621 C 0.13725 0.11904 0.36204 0.0
C1622 C 0.12805 0.1398 0.34208 0.0
C1623 C 0.13312 0.147 0.29031 0.0
H1624 H 0.66733 0.40768 0.29417 0.0
H1625 H 0.60162 0.37375 0.26619 0.0
H1626 H 0.66636 0.42223 0.20254 0.0
H1627 H 0.5998 0.38907 0.17596 0.0
H1628 H 0.61405 0.39564 1.00075 0.0
H1629 H 0.6164 0.38292 0.0926 0.0
H1630 H 0.64963 0.44719 0.1394 0.0
H1631 H 0.64899 0.45915 0.04646 0.0
C1632 C 0.65244 0.40384 0.26866 0.0
C1633 C 0.63458 0.38962 0.28691 0.0
C1634 C 0.6518 0.41216 0.21616 0.0
C1635 C 0.63313 0.4066 0.18116 0.0
C1636 C 0.6148 0.3932 0.20085 0.0
C1637 C 0.61564 0.38464 0.25281 0.0
C1638 C 0.62231 0.40694 0.03023 0.0
C1639 C 0.63131 0.42849 1.01565 0.0
C1640 C 0.62326 0.39979 0.08345 0.0
C1641 C 0.63291 0.41411 0.12406 0.0
C1642 C 0.64217 0.43557 0.10946 0.0
C1643 C 0.6415 0.4426 0.05601 0.0
H1644 H 0.4349 0.88977 1.00946 0.0
H1645 H 0.36193 0.87745 0.03303 0.0
H1646 H 0.42727 0.89896 0.91607 0.0
H1647 H 0.35416 0.88578 0.93874 0.0
H1648 H 0.34569 0.92109 0.77683 0.0
H1649 H 0.35231 0.91367 0.87134 0.0
H1650 H 0.41789 0.88134 0.83358 0.0
H1651 H 0.41198 0.89019 0.73954 0.0
C1652 C 0.41717 0.88905 0.99451 0.0
C1653 C 0.39902 0.88285 0.02855 0.0
C1654 C 0.41278 0.89409 0.94072 0.0
C1655 C 0.39011 0.8928 0.9191 0.0
C1656 C 0.37183 0.8872 0.95373 0.0
C1657 C 0.37623 0.88242 1.00788 0.0
C1658 C 0.36167 0.91262 0.78863 0.0
C1659 C 0.37839 0.9065 0.75015 0.0
C1660 C 0.36533 0.90806 0.84305 0.0
C1661 C 0.38575 0.89704 0.86071 0.0
C1662 C 0.40216 0.89031 0.822 0.0
C1663 C 0.39858 0.89504 0.76764 0.0
H1664 H 0.1502 0.7115 0.22596 0.0
H1665 H 0.10104 0.71462 0.09492 0.0
H1666 H 0.14945 0.75403 0.23413 0.0
H1667 H 0.09981 0.75676 0.10382 0.0
H1668 H 0.16002 0.83269 0.17616 0.0
H1669 H 0.16135 0.79009 0.17671 0.0
H1670 H 0.08653 0.78795 0.17094 0.0
H1671 H 0.0853 0.83027 0.17181 0.0
C1672 C 0.13882 0.72117 0.19973 0.0
C1673 C 0.12541 0.70943 0.16029 0.0
C1674 C 0.1386 0.74563 0.20393 0.0
C1675 C 0.12451 0.75909 0.16973 0.0
C1676 C 0.11072 0.74719 0.13128 0.0
C1677 C 0.11139 0.72291 0.12623 0.0
C1678 C 0.14388 0.82309 0.17495 0.0
C1679 C 0.12254 0.83501 0.17223 0.0
C1680 C 0.14461 0.79862 0.17582 0.0
C1681 C 0.12403 0.78531 0.17333 0.0
C1682 C 0.10276 0.79739 0.17216 0.0
C1683 C 0.10204 0.82174 0.17264 0.0
H1684 H 0.58065 0.84186 0.45861 0.0
H1685 H 0.5855 0.91516 0.43605 0.0
H1686 H 0.53832 0.84429 0.45738 0.0
H1687 H 0.54316 0.91818 0.43758 0.0
H1688 H 0.46744 0.91521 0.38436 0.0
H1689 H 0.50912 0.91309 0.39267 0.0
H1690 H 0.50259 0.85315 0.49229 0.0
H1691 H 0.46027 0.85464 0.48081 0.0
C1692 C 0.57258 0.85859 0.45329 0.0
C1693 C 0.58656 0.8781 0.44444 0.0
C1694 C 0.54811 0.8601 0.45331 0.0
C1695 C 0.53655 0.88141 0.44647 0.0
C1696 C 0.55082 0.90121 0.4411 0.0
C1697 C 0.57533 0.89957 0.44016 0.0
C1698 C 0.47472 0.90135 0.40775 0.0
C1699 C 0.46002 0.88485 0.43094 0.0
C1700 C 0.49903 0.90032 0.41326 0.0
C1701 C 0.51004 0.88287 0.44306 0.0
C1702 C 0.49528 0.8667 0.46799 0.0
C1703 C 0.47074 0.86767 0.46204 0.0
H1704 H 0.4191 0.32477 0.68706 0.0
H1705 H 0.34494 0.32085 0.70353 0.0
H1706 H 0.42154 0.2824 0.68917 0.0
H1707 H 0.34717 0.27924 0.70974 0.0
H1708 H 0.34956 0.20519 0.65693 0.0
H1709 H 0.34977 0.24654 0.66358 0.0
H1710 H 0.4206 0.245 0.72278 0.0
H1711 H 0.4208 0.20265 0.71109 0.0
C1712 C 0.40338 0.31492 0.69291 0.0
C1713 C 0.38182 0.32644 0.6955 0.0
C1714 C 0.4047 0.29041 0.694 0.0
C1715 C 0.38453 0.27654 0.69843 0.0
C1716 C 0.36322 0.28851 0.70409 0.0
C1717 C 0.36189 0.31275 0.70166 0.0
C1718 C 0.36536 0.21346 0.67122 0.0
C1719 C 0.38523 0.2001 0.68273 0.0
C1720 C 0.36538 0.23765 0.67609 0.0
C1721 C 0.3851 0.25004 0.69456 0.0
C1722 C 0.40497 0.23663 0.7079 0.0
C1723 C 0.40505 0.2121 0.70199 0.0
H1724 H 0.95032 0.12388 0.99933 0.0
H1725 H 0.95479 0.1457 0.83591 0.0
H1726 H 0.99291 0.12662 1.00849 0.0
H1727 H 0.99674 0.14699 0.84302 0.0
H1728 H 0.07096 0.16388 0.86866 0.0
H1729 H 0.02894 0.16593 0.87396 0.0
H1730 H 0.02952 0.11 0.98653 0.0
H1731 H 0.07216 0.109 0.98297 0.0
C1732 C 0.96037 0.12942 0.96548 0.0
C1733 C 0.9491 0.1344 0.91666 0.0
C1734 C 0.9849 0.1307 0.97037 0.0
C1735 C 0.99882 0.13706 0.92657 0.0
C1736 C 0.98715 0.14245 0.87832 0.0
C1737 C 0.96286 0.14133 0.87374 0.0
C1738 C 0.06219 0.15235 0.8955 0.0
C1739 C 0.07508 0.13641 0.92563 0.0
C1740 C 0.03785 0.15323 0.898 0.0
C1741 C 0.02523 0.13776 0.92975 0.0
C1742 C 0.03827 0.12236 0.96175 0.0
C1743 C 0.06285 0.12179 0.95992 0.0
H1744 H 0.15831 0.3104 0.78656 0.0
H1745 H 0.11423 0.30398 0.92374 0.0
H1746 H 0.16129 0.268 0.77988 0.0
H1747 H 0.11652 0.26185 0.91605 0.0
H1748 H 0.10868 0.18581 0.85362 0.0
H1749 H 0.10481 0.22808 0.85376 0.0
H1750 H 0.17887 0.23454 0.83546 0.0
H1751 H 0.18262 0.19217 0.83617 0.0
C1752 C 0.14881 0.3 0.81454 0.0
C1753 C 0.1358 0.31083 0.85534 0.0
C1754 C 0.15073 0.27561 0.81112 0.0
C1755 C 0.13919 0.2612 0.84747 0.0
C1756 C 0.1256 0.27212 0.8871 0.0
C1757 C 0.12424 0.29642 0.89144 0.0
C1758 C 0.12417 0.19627 0.85038 0.0
C1759 C 0.14608 0.18553 0.84741 0.0
C1760 C 0.12196 0.22058 0.85013 0.0
C1761 C 0.14153 0.23505 0.84514 0.0
C1762 C 0.16336 0.22418 0.83946 0.0
C1763 C 0.16556 0.19984 0.84035 0.0
H1764 H 0.06166 0.91914 0.04237 0.0
H1765 H 0.05858 0.8665 0.16176 0.0
H1766 H 0.01896 0.91997 0.03735 0.0
H1767 H 0.01609 0.86712 0.15702 0.0
H1768 H 0.93935 0.85985 0.10378 0.0
H1769 H 0.98188 0.85782 0.10146 0.0
H1770 H 0.98504 0.93204 0.09017 0.0
H1771 H 0.9424 0.93383 0.09231 0.0
C1772 C 0.05187 0.90727 0.06644 0.0
C1773 C 0.06365 0.89219 0.10112 0.0
C1774 C 0.0273 0.90797 0.06426 0.0
C1775 C 0.01369 0.89355 0.09664 0.0
C1776 C 0.02566 0.87823 0.13066 0.0
C1777 C 0.05015 0.87775 0.13323 0.0
C1778 C 0.94916 0.87574 0.10155 0.0
C1779 C 0.93744 0.89707 0.10072 0.0
C1780 C 0.97364 0.87461 0.1 0.0
C1781 C 0.98731 0.89477 0.09618 0.0
C1782 C 0.9754 0.91607 0.09301 0.0
C1783 C 0.95088 0.91716 0.09483 0.0
H1784 H 0.4275 0.69851 0.35264 0.0
H1785 H 0.35369 0.70111 0.37547 0.0
H1786 H 0.42912 0.73989 0.34893 0.0
H1787 H 0.35516 0.74336 0.37729 0.0
H1788 H 0.3599 0.8223 0.35565 0.0
H1789 H 0.35676 0.78018 0.3553 0.0
H1790 H 0.43164 0.77565 0.36994 0.0
H1791 H 0.43422 0.81715 0.3662 0.0
C1792 C 0.41151 0.70807 0.35838 0.0
C1793 C 0.39063 0.69603 0.3663 0.0
C1794 C 0.41239 0.73241 0.35682 0.0
C1795 C 0.39239 0.7464 0.36385 0.0
C1796 C 0.37126 0.73415 0.37136 0.0
C1797 C 0.37034 0.70954 0.37144 0.0
C1798 C 0.37563 0.81213 0.35869 0.0
C1799 C 0.39732 0.82341 0.36228 0.0
C1800 C 0.37393 0.78759 0.35865 0.0
C1801 C 0.39386 0.77315 0.36273 0.0
C1802 C 0.41551 0.78492 0.36558 0.0
C1803 C 0.41716 0.80926 0.36411 0.0
H1804 H 0.5661 0.18367 0.57856 0.0
H1805 H 0.57032 0.11257 0.62501 0.0
H1806 H 0.52423 0.18079 0.57121 0.0
H1807 H 0.52782 0.1099 0.62258 0.0
H1808 H 0.4494 0.10534 0.58351 0.0
H1809 H 0.492 0.10675 0.58249 0.0
H1810 H 0.48907 0.18088 0.60585 0.0
H1811 H 0.44696 0.17922 0.60281 0.0
C1812 C 0.558 0.16743 0.58844 0.0
C1813 C 0.57189 0.14864 0.60413 0.0
C1814 C 0.53358 0.16575 0.58477 0.0
C1815 C 0.52163 0.14518 0.59715 0.0
C1816 C 0.53571 0.12615 0.61216 0.0
C1817 C 0.56033 0.12775 0.6147 0.0
C1818 C 0.45799 0.12189 0.58848 0.0
C1819 C 0.44458 0.1421 0.59512 0.0
C1820 C 0.48265 0.1228 0.58793 0.0
C1821 C 0.49493 0.14394 0.59467 0.0
C1822 C 0.48112 0.16413 0.59971 0.0
C1823 C 0.45661 0.16323 0.59879 0.0
H1824 H 0.9267 0.19045 0.82874 0.0
H1825 H 0.85201 0.18796 0.8278 0.0
H1826 H 0.9255 0.23264 0.82492 0.0
H1827 H 0.85049 0.23008 0.82178 0.0
H1828 H 0.85455 0.30528 0.87893 0.0
H1829 H 0.8555 0.26366 0.87185 0.0
H1830 H 0.91835 0.26742 0.77963 0.0
H1831 H 0.91775 0.30977 0.78883 0.0
C1832 C 0.90996 0.199 0.82762 0.0
C1833 C 0.88946 0.18586 0.83102 0.0
C1834 C 0.90922 0.22329 0.82476 0.0
C1835 C 0.88789 0.23532 0.82374 0.0
C1836 C 0.86735 0.22187 0.82402 0.0
C1837 C 0.86813 0.19758 0.8276 0.0
C1838 C 0.86866 0.29739 0.85699 0.0
C1839 C 0.88622 0.31122 0.83498 0.0
C1840 C 0.86907 0.27321 0.85238 0.0
C1841 C 0.88703 0.26159 0.82524 0.0
C1842 C 0.90433 0.27543 0.80162 0.0
C1843 C 0.90388 0.29987 0.80626 0.0
H1844 H 0.61912 0.80548 0.43599 0.0
H1845 H 0.66522 0.81071 0.30216 0.0
H1846 H 0.61949 0.76335 0.42692 0.0
H1847 H 0.66626 0.76821 0.29401 0.0
H1848 H 0.68293 0.69103 0.34799 0.0
H1849 H 0.68135 0.73354 0.34806 0.0
H1850 H 0.60693 0.7307 0.36418 0.0
H1851 H 0.60866 0.6883 0.3635 0.0
C1852 C 0.62918 0.79762 0.40414 0.0
C1853 C 0.64188 0.81167 0.36938 0.0
C1854 C 0.62944 0.77334 0.39898 0.0
C1855 C 0.64298 0.76206 0.35985 0.0
C1856 C 0.65569 0.77612 0.32483 0.0
C1857 C 0.6549 0.80055 0.32908 0.0
C1858 C 0.66626 0.69954 0.35191 0.0
C1859 C 0.64604 0.68622 0.35832 0.0
C1860 C 0.6653 0.72395 0.35141 0.0
C1861 C 0.64402 0.73585 0.35675 0.0
C1862 C 0.6237 0.72237 0.36091 0.0
C1863 C 0.62468 0.69799 0.36086 0.0
H1864 H 0.90638 0.70725 0.09144 0.0
H1865 H 0.88533 0.70084 0.2557 0.0
H1866 H 0.90631 0.74876 0.10067 0.0
H1867 H 0.88622 0.74325 0.26615 0.0
H1868 H 0.86317 0.82103 0.2382 0.0
H1869 H 0.86682 0.77876 0.24281 0.0
H1870 H 0.92448 0.78121 0.13387 0.0
H1871 H 0.91983 0.82276 0.1274 0.0
C1872 C 0.90218 0.71472 0.1302 0.0
C1873 C 0.89585 0.70043 0.17276 0.0
C1874 C 0.90232 0.73882 0.13572 0.0
C1875 C 0.89641 0.74989 0.18437 0.0
C1876 C 0.89071 0.7356 0.22781 0.0
C1877 C 0.89052 0.71119 0.22213 0.0
C1878 C 0.87689 0.81247 0.2162 0.0
C1879 C 0.89122 0.82533 0.18243 0.0
C1880 C 0.879 0.78815 0.2187 0.0
C1881 C 0.89569 0.77608 0.18791 0.0
C1882 C 0.91088 0.7894 0.15695 0.0
C1883 C 0.90847 0.81345 0.15371 0.0
H1884 H 0.60704 0.21074 0.7308 0.0
H1885 H 0.66417 0.2175 0.62233 0.0
H1886 H 0.60646 0.25281 0.74382 0.0
H1887 H 0.66309 0.25905 0.63313 0.0
H1888 H 0.66799 0.33463 0.68318 0.0
H1889 H 0.67044 0.29236 0.6821 0.0
H1890 H 0.5965 0.28841 0.70809 0.0
H1891 H 0.59457 0.33055 0.71117 0.0
C1892 C 0.61948 0.22108 0.70961 0.0
C1893 C 0.63536 0.21035 0.67462 0.0
C1894 C 0.61905 0.24544 0.71663 0.0
C1895 C 0.63458 0.26 0.68917 0.0
C1896 C 0.65083 0.24901 0.65552 0.0
C1897 C 0.65125 0.22484 0.64864 0.0
C1898 C 0.65226 0.32467 0.68811 0.0
C1899 C 0.63089 0.33607 0.69459 0.0
C1900 C 0.65359 0.30025 0.68762 0.0
C1901 C 0.63358 0.28632 0.69399 0.0
C1902 C 0.61242 0.29801 0.70315 0.0
C1903 C 0.61121 0.32236 0.70428 0.0
H1904 H 0.95058 0.4098 0.88787 0.0
H1905 H 0.95672 0.33774 0.92412 0.0
H1906 H 0.99289 0.41341 0.8888 0.0
H1907 H 0.9986 0.34133 0.92986 0.0
H1908 H 0.07695 0.34636 0.91029 0.0
H1909 H 0.03486 0.34298 0.90428 0.0
H1910 H 0.02885 0.41718 0.92193 0.0
H1911 H 0.07113 0.42012 0.92511 0.0
C1912 C 0.96096 0.3946 0.89561 0.0
C1913 C 0.94985 0.37323 0.90376 0.0
C1914 C 0.9856 0.3967 0.89731 0.0
C1915 C 1.00038 0.37769 0.90918 0.0
C1916 C 0.98887 0.35653 0.91894 0.0
C1917 C 0.96438 0.3544 0.91616 0.0
C1918 C 0.06661 0.36199 0.91184 0.0
C1919 C 0.07779 0.38359 0.91543 0.0
C1920 C 0.04202 0.36011 0.90937 0.0
C1921 C 0.02723 0.37978 0.91201 0.0
C1922 C 0.03873 0.40139 0.918 0.0
C1923 C 0.06334 0.40319 0.9201 0.0
H1924 H 0.44898 0.62312 0.51539 0.0
H1925 H 0.45208 0.6597 0.36706 0.0
H1926 H 0.49165 0.62447 0.52269 0.0
H1927 H 0.49387 0.65956 0.37119 0.0
H1928 H 0.56994 0.66797 0.38933 0.0
H1929 H 0.52828 0.67195 0.39951 0.0
H1930 H 0.52752 0.61072 0.49646 0.0
H1931 H 0.56988 0.60811 0.48917 0.0
C1932 C 0.4587 0.63186 0.48487 0.0
C1933 C 0.4469 0.64151 0.44086 0.0
C1934 C 0.48337 0.63226 0.48832 0.0
C1935 C 0.49703 0.64212 0.44754 0.0
C1936 C 0.48478 0.65224 0.40453 0.0
C1937 C 0.46042 0.65214 0.40169 0.0
C1938 C 0.56093 0.65562 0.41376 0.0
C1939 C 0.57344 0.63787 0.43876 0.0
C1940 C 0.53669 0.6576 0.41901 0.0
C1941 C 0.52363 0.64135 0.44787 0.0
C1942 C 0.53641 0.62385 0.47423 0.0
C1943 C 0.56091 0.62229 0.47014 0.0
H1944 H 0.44217 0.34931 0.6163 0.0
H1945 H 0.43923 0.42326 0.60242 0.0
H1946 H 0.48475 0.35087 0.61862 0.0
H1947 H 0.4821 0.42482 0.60266 0.0
H1948 H 0.56199 0.41008 0.55326 0.0
H1949 H 0.5192 0.40931 0.54499 0.0
H1950 H 0.5156 0.36842 0.6873 0.0
H1951 H 0.55796 0.36993 0.69658 0.0
C1952 C 0.45061 0.36596 0.61378 0.0
C1953 C 0.43705 0.38622 0.6113 0.0
C1954 C 0.47515 0.36686 0.61493 0.0
C1955 C 0.48721 0.38798 0.61119 0.0
C1956 C 0.47363 0.4082 0.60566 0.0
C1957 C 0.44898 0.40735 0.60613 0.0
C1958 C 0.55209 0.40073 0.58247 0.0
C1959 C 0.56372 0.38988 0.62534 0.0
C1960 C 0.52745 0.40047 0.57804 0.0
C1961 C 0.51363 0.38875 0.61541 0.0
C1962 C 0.5254 0.37751 0.65746 0.0
C1963 C 0.54984 0.37836 0.66275 0.0
H1964 H 0.07112 0.60368 0.11615 0.0
H1965 H 0.06667 0.67347 0.06095 0.0
H1966 H 0.02857 0.60199 0.12159 0.0
H1967 H 0.02465 0.67156 0.06185 0.0
H1968 H 0.94814 0.67239 0.10004 0.0
H1969 H 0.99031 0.67322 0.10037 0.0
H1970 H 0.99154 0.59865 0.08776 0.0
H1971 H 0.94895 0.59822 0.09104 0.0
C1972 C 0.06108 0.61883 0.10594 0.0
C1973 C 0.07266 0.63916 0.09083 0.0
C1974 C 0.03639 0.61778 0.1079 0.0
C1975 C 0.02218 0.63674 0.09285 0.0
C1976 C 0.03411 0.65667 0.07584 0.0
C1977 C 0.0586 0.65779 0.07481 0.0
C1978 C 0.95744 0.65612 0.09846 0.0
C1979 C 0.94491 0.63523 0.09868 0.0
C1980 C 0.98199 0.65651 0.09756 0.0
C1981 C 0.99538 0.63598 0.09422 0.0
C1982 C 0.9826 0.615 0.09178 0.0
C1983 C 0.9579 0.61465 0.09387 0.0
H1984 H 0.12865 0.55003 0.14088 0.0
H1985 H 0.126 0.58102 0.98533 0.0
H1986 H 0.12936 0.51175 0.09848 0.0
H1987 H 0.12555 0.54311 0.94272 0.0
H1988 H 0.14397 0.47176 0.87052 0.0
H1989 H 0.14214 0.51029 0.9121 0.0
H1990 H 0.11466 0.48051 0.05577 0.0
H1991 H 0.11764 0.44238 1.01493 0.0
C1992 C 0.12771 0.54879 0.09765 0.0
C1993 C 0.12721 0.56908 0.0672 0.0
C1994 C 0.12808 0.52653 0.0727 0.0
C1995 C 0.12761 0.52346 1.01601 0.0
C1996 C 0.12652 0.54394 0.98597 0.0
C1997 C 0.12651 0.56607 1.01085 0.0
C1998 C 0.13731 0.47349 0.91076 0.0
C1999 C 0.13104 0.45358 0.93892 0.0
C2000 C 0.13619 0.49585 0.93516 0.0
C2001 C 0.12838 0.49937 0.98859 0.0
C2002 C 0.12142 0.47929 1.01562 0.0
C2003 C 0.12289 0.45707 0.99161 0.0
H2004 H 0.7111 0.93212 0.34753 0.0
H2005 H 0.70546 0.8587 0.32162 0.0
H2006 H 0.74889 0.93213 0.30583 0.0
H2007 H 0.74333 0.8586 0.27652 0.0
H2008 H 0.822 0.86543 0.22545 0.0
H2009 H 0.78439 0.86167 0.27054 0.0
H2010 H 0.76743 0.93163 0.22695 0.0
H2011 H 0.80503 0.93544 0.18523 0.0
C2012 C 0.71809 0.91581 0.33319 0.0
C2013 C 0.70518 0.8954 0.33934 0.0
C2014 C 0.73984 0.91581 0.30798 0.0
C2015 C 0.7496 0.89546 0.28561 0.0
C2016 C 0.73688 0.87476 0.29283 0.0
C2017 C 0.71503 0.87474 0.31907 0.0
C2018 C 0.81 0.87984 0.22485 0.0
C2019 C 0.81659 0.90068 0.20058 0.0
C2020 C 0.78828 0.87775 0.25107 0.0
C2021 C 0.77241 0.89648 0.25428 0.0
C2022 C 0.77895 0.91689 0.22792 0.0
C2023 C 0.8006 0.91903 0.2027 0.0
H2024 H 0.40679 0.47708 0.62278 0.0
H2025 H 0.34798 0.45364 0.52839 0.0
H2026 H 0.40585 0.51412 0.5758 0.0
H2027 H 0.34756 0.48973 0.48067 0.0
H2028 H 0.33314 0.56516 0.4444 0.0
H2029 H 0.33716 0.52803 0.48689 0.0
H2030 H 0.41146 0.53739 0.49618 0.0
H2031 H 0.40708 0.57551 0.45392 0.0
C2032 C 0.39359 0.4797 0.59227 0.0
C2033 C 0.37722 0.46203 0.58068 0.0
C2034 C 0.39321 0.50104 0.56456 0.0
C2035 C 0.37644 0.50563 0.52402 0.0
C2036 C 0.36047 0.48767 0.51206 0.0
C2037 C 0.36081 0.46655 0.53964 0.0
C2038 C 0.35048 0.55924 0.4545 0.0
C2039 C 0.36973 0.57353 0.44456 0.0
C2040 C 0.35285 0.53761 0.47911 0.0
C2041 C 0.3747 0.52898 0.49559 0.0
C2042 C 0.39422 0.54313 0.4849 0.0
C2043 C 0.39179 0.565 0.45978 0.0
H2044 H 0.79809 0.16269 0.85088 0.0
H2045 H 0.8161 0.10048 0.76355 0.0
H2046 H 0.75982 0.16268 0.80597 0.0
H2047 H 0.77881 0.10092 0.71792 0.0
H2048 H 0.70132 0.09031 0.69043 0.0
H2049 H 0.73976 0.09311 0.73074 0.0
H2050 H 0.73612 0.16749 0.72433 0.0
H2051 H 0.69677 0.16444 0.68443 0.0
C2052 C 0.79401 0.14897 0.82237 0.0
C2053 C 0.81047 0.13139 0.812 0.0
C2054 C 0.77201 0.1491 0.7959 0.0
C2055 C 0.76564 0.13167 0.75807 0.0
C2056 C 0.78239 0.11444 0.74731 0.0
C2057 C 0.80416 0.11428 0.77362 0.0
C2058 C 0.70882 0.10733 0.69653 0.0
C2059 C 0.69585 0.12708 0.68314 0.0
C2060 C 0.73112 0.10899 0.71987 0.0
C2061 C 0.74165 0.13055 0.73123 0.0
C2062 C 0.72882 0.1505 0.71695 0.0
C2063 C 0.70629 0.14879 0.69319 0.0
H2064 H 0.89355 0.57591 0.9911 0.0
H2065 H 0.8929 0.54228 0.14378 0.0
H2066 H 0.89413 0.53849 0.94527 0.0
H2067 H 0.89387 0.50461 0.09792 0.0
H2068 H 0.86591 0.44249 0.99907 0.0
H2069 H 0.86896 0.47966 0.04481 0.0
H2070 H 0.91542 0.50343 0.92311 0.0
H2071 H 0.91236 0.46578 0.87676 0.0
C2072 C 0.89382 0.56054 1.01524 0.0
C2073 C 0.89319 0.56245 0.07174 0.0
C2074 C 0.89429 0.53889 0.98864 0.0
C2075 C 0.89393 0.51815 0.01733 0.0
C2076 C 0.89388 0.52002 0.07395 0.0
C2077 C 0.89362 0.54177 0.10062 0.0
C2078 C 0.8768 0.45553 0.98153 0.0
C2079 C 0.88872 0.45083 0.9334 0.0
C2080 C 0.87873 0.47699 1.00844 0.0
C2081 C 0.89255 0.49487 0.98839 0.0
C2082 C 0.90442 0.49032 0.93998 0.0
C2083 C 0.90266 0.46862 0.91314 0.0
H2084 H 0.22905 0.15312 0.87921 0.0
H2085 H 0.2045 0.10264 0.76295 0.0
H2086 H 0.26705 0.15342 0.83451 0.0
H2087 H 0.24175 0.10288 0.71951 0.0
H2088 H 0.31885 0.08527 0.69771 0.0
H2089 H 0.28091 0.08909 0.73878 0.0
H2090 H 0.28929 0.16308 0.74671 0.0
H2091 H 0.32779 0.15909 0.70442 0.0
C2092 C 0.23163 0.1419 0.84477 0.0
C2093 C 0.2134 0.12731 0.82642 0.0
C2094 C 0.25347 0.14227 0.81855 0.0
C2095 C 0.25792 0.12794 0.77329 0.0
C2096 C 0.2395 0.11386 0.75461 0.0
C2097 C 0.21785 0.11367 0.78016 0.0
C2098 C 0.31251 0.10247 0.70715 0.0
C2099 C 0.32641 0.12183 0.69643 0.0
C2100 C 0.29059 0.10469 0.73103 0.0
C2101 C 0.28162 0.12641 0.7466 0.0
C2102 C 0.29546 0.146 0.73583 0.0
C2103 C 0.31748 0.14377 0.71082 0.0
H2104 H 0.61532 0.57058 0.47963 0.0
H2105 H 0.68579 0.55451 0.43765 0.0
H2106 H 0.61207 0.5331 0.52435 0.0
H2107 H 0.68249 0.51705 0.47911 0.0
H2108 H 0.68392 0.46118 0.59967 0.0
H2109 H 0.68336 0.49875 0.55819 0.0
H2110 H 0.60951 0.49215 0.52984 0.0
H2111 H 0.6102 0.45449 0.57464 0.0
C2112 C 0.62993 0.5588 0.47857 0.0
C2113 C 0.65076 0.56563 0.45401 0.0
C2114 C 0.62814 0.53717 0.50459 0.0
C2115 C 0.64716 0.5216 0.50726 0.0
C2116 C 0.66754 0.52835 0.48049 0.0
C2117 C 0.66939 0.54991 0.45544 0.0
C2118 C 0.66742 0.46789 0.58559 0.0
C2119 C 0.6471 0.45475 0.59189 0.0
C2120 C 0.66709 0.48952 0.56052 0.0
C2121 C 0.64649 0.49892 0.53847 0.0
C2122 C 0.62586 0.48597 0.54589 0.0
C2123 C 0.62617 0.46425 0.57198 0.0
H2124 H 0.33057 0.8962 0.25273 0.0
H2125 H 0.29958 0.87797 0.40249 0.0
H2126 H 0.29234 0.89662 0.20986 0.0
H2127 H 0.26099 0.87887 0.35957 0.0
H2128 H 0.19482 0.91054 0.2753 0.0
H2129 H 0.23277 0.90741 0.31903 0.0
H2130 H 0.25901 0.87098 0.18057 0.0
H2131 H 0.22064 0.87348 0.13723 0.0
C2132 C 0.31564 0.89231 0.27695 0.0
C2133 C 0.3186 0.88719 0.33186 0.0
C2134 C 0.29353 0.89241 0.25191 0.0
C2135 C 0.2732 0.88783 0.28075 0.0
C2136 C 0.27605 0.88268 0.33571 0.0
C2137 C 0.29834 0.88209 0.36058 0.0
C2138 C 0.20857 0.90182 0.25374 0.0
C2139 C 0.20431 0.89259 0.20171 0.0
C2140 C 0.23048 0.89989 0.27934 0.0
C2141 C 0.24933 0.88898 0.25379 0.0
C2142 C 0.24516 0.87974 0.20173 0.0
C2143 C 0.22302 0.88123 0.17653 0.0
H2144 H 0.64009 0.94169 0.54261 0.0
H2145 H 0.63067 0.97017 0.38542 0.0
H2146 H 0.63752 0.98026 0.58265 0.0
H2147 H 0.62798 1.00898 0.42562 0.0
H2148 H 0.6522 0.07703 0.50945 0.0
H2149 H 0.65156 0.03848 0.46962 0.0
H2150 H 0.61325 0.01371 0.60446 0.0
H2151 H 0.61369 0.05276 0.64455 0.0
C2152 C 0.63728 0.95612 0.51624 0.0
C2153 C 0.63558 0.95235 0.46018 0.0
C2154 C 0.63566 0.97847 0.53958 0.0
C2155 C 0.63258 0.99823 0.50796 0.0
C2156 C 0.63059 0.99447 0.45184 0.0
C2157 C 0.6319 0.972 0.42849 0.0
C2158 C 0.64357 0.06352 0.53112 0.0
C2159 C 0.6332 0.06847 0.58114 0.0
C2160 C 0.64305 0.04117 0.50766 0.0
C2161 C 0.63232 0.0225 0.53316 0.0
C2162 C 0.62193 0.02735 0.58331 0.0
C2163 C 0.62217 0.04992 0.60659 0.0
H2164 H 0.21158 0.43124 0.86479 0.0
H2165 H 0.20038 0.3622 0.80402 0.0
H2166 H 0.25009 0.43157 0.82584 0.0
H2167 H 0.23882 0.36265 0.76218 0.0
H2168 H 0.31834 0.36617 0.71599 0.0
H2169 H 0.27993 0.36221 0.75772 0.0
H2170 H 0.27078 0.43612 0.75063 0.0
H2171 H 0.30891 0.43981 0.71163 0.0
C2172 C 0.21745 0.41592 0.84344 0.0
C2173 C 0.20267 0.39659 0.83894 0.0
C2174 C 0.23967 0.41619 0.81982 0.0
C2175 C 0.24819 0.39734 0.78881 0.0
C2176 C 0.23353 0.37765 0.78539 0.0
C2177 C 0.21125 0.37731 0.80975 0.0
C2178 C 0.30794 0.3815 0.72277 0.0
C2179 C 0.31702 0.40337 0.70976 0.0
C2180 C 0.28572 0.3793 0.74713 0.0
C2181 C 0.2717 0.39886 0.75966 0.0
C2182 C 0.28071 0.42048 0.74433 0.0
C2183 C 0.30277 0.42265 0.72076 0.0
H2184 H 0.85131 0.95173 0.01901 0.0
H2185 H 0.90381 0.97727 0.12951 0.0
H2186 H 0.85105 0.98822 0.97351 0.0
H2187 H 0.90355 0.01451 0.08275 0.0
H2188 H 0.90775 0.07268 0.94748 0.0
H2189 H 0.91215 0.03508 0.99236 0.0
H2190 H 0.83765 0.02747 0.99252 0.0
H2191 H 0.83344 0.06449 0.9487 0.0
C2192 C 0.86269 0.96515 0.03448 0.0
C2193 C 0.8771 0.96125 0.07966 0.0
C2194 C 0.86257 0.98634 1.00777 0.0
C2195 C 0.87706 1.00477 0.02427 0.0
C2196 C 0.89209 1.00087 0.06851 0.0
C2197 C 0.89204 0.9795 0.09589 0.0
C2198 C 0.89239 0.06273 0.95634 0.0
C2199 C 0.87021 0.07154 0.94332 0.0
C2200 C 0.89487 0.04126 0.98277 0.0
C2201 C 0.87526 0.02792 0.99641 0.0
C2202 C 0.85325 0.03681 0.98249 0.0
C2203 C 0.85081 0.05818 0.95711 0.0
H2204 H 0.193 0.66712 0.20523 0.0
H2205 H 0.20483 0.59447 0.1791 0.0
H2206 H 0.2319 0.67089 0.24645 0.0
H2207 H 0.24283 0.5977 0.22161 0.0
H2208 H 0.31785 0.60847 0.26576 0.0
H2209 H 0.28079 0.60834 0.21894 0.0
H2210 H 0.25726 0.6646 0.32009 0.0
H2211 H 0.29532 0.6655 0.36529 0.0
C2212 C 0.20404 0.65201 0.20729 0.0
C2213 C 0.19587 0.63059 0.18688 0.0
C2214 C 0.22638 0.65404 0.23192 0.0
C2215 C 0.24125 0.63466 0.23779 0.0
C2216 C 0.23274 0.61334 0.2173 0.0
C2217 C 0.21064 0.61138 0.19277 0.0
C2218 C 0.30489 0.6209 0.27845 0.0
C2219 C 0.3099 0.63667 0.32073 0.0
C2220 C 0.28321 0.6207 0.25147 0.0
C2221 C 0.26517 0.63614 0.26557 0.0
C2222 C 0.27032 0.65234 0.30723 0.0
C2223 C 0.29226 0.65268 0.33401 0.0
H2224 H 0.34175 0.95477 0.4436 0.0
H2225 H 0.41606 0.94703 0.44342 0.0
H2226 H 0.34556 0.993 0.48398 0.0
H2227 H 0.4202 0.98613 0.48344 0.0
H2228 H 0.41679 0.04873 0.60813 0.0
H2229 H 0.41563 1.01055 0.5634 0.0
H2230 H 0.35487 0.03149 0.47382 0.0
H2231 H 0.35555 0.06872 0.51934 0.0
C2232 C 0.35907 0.96153 0.45089 0.0
C2233 C 0.37853 0.94768 0.43904 0.0
C2234 C 0.36132 0.98372 0.47437 0.0
C2235 C 0.38325 0.99333 0.48752 0.0
C2236 C 0.40292 0.97962 0.47472 0.0
C2237 C 0.40061 0.95721 0.45081 0.0
C2238 C 0.40302 0.04511 0.57934 0.0
C2239 C 0.38608 0.06216 0.56857 0.0
C2240 C 0.4025 0.02312 0.55294 0.0
C2241 C 0.385 0.01728 0.51463 0.0
C2242 C 0.3684 0.03459 0.50352 0.0
C2243 C 0.3689 0.05635 0.52979 0.0
H2244 H 0.82825 0.65917 0.22325 0.0
H2245 H 0.81346 0.5878 0.18628 0.0
H2246 H 0.79016 0.66287 0.26728 0.0
H2247 H 0.77589 0.59129 0.2294 0.0
H2248 H 0.70088 0.60747 0.26483 0.0
H2249 H 0.73792 0.60772 0.22045 0.0
H2250 H 0.76669 0.65054 0.34744 0.0
H2251 H 0.72889 0.6503 0.39277 0.0
C2252 C 0.81671 0.64441 0.22335 0.0
C2253 C 0.82382 0.62333 0.19939 0.0
C2254 C 0.7949 0.6464 0.24938 0.0
C2255 C 0.77944 0.62742 0.25224 0.0
C2256 C 0.78674 0.60652 0.2278 0.0
C2257 C 0.80846 0.60448 0.20271 0.0
C2258 C 0.71496 0.61672 0.28449 0.0
C2259 C 0.71149 0.62819 0.33424 0.0
C2260 C 0.73654 0.6169 0.2584 0.0
C2261 C 0.75591 0.6288 0.28011 0.0
C2262 C 0.75242 0.64105 0.32898 0.0
C2263 C 0.73065 0.64071 0.35557 0.0
H2264 H 0.11713 0.07018 0.97017 0.0
H2265 H 0.18812 0.05436 0.93245 0.0
H2266 H 0.11375 0.03308 1.01636 0.0
H2267 H 0.18471 0.01721 0.97526 0.0
H2268 H 0.18542 0.962 0.09747 0.0
H2269 H 0.18506 0.99926 0.05453 0.0
H2270 H 0.11134 0.99242 0.02452 0.0
H2271 H 0.11181 0.95515 0.07085 0.0
C2272 C 0.13185 0.05853 0.97037 0.0
C2273 C 0.15285 0.06533 0.94654 0.0
C2274 C 0.12998 0.03709 0.99724 0.0
C2275 C 0.14909 0.0217 1.00154 0.0
C2276 C 0.16967 0.02839 0.97547 0.0
C2277 C 0.17158 0.04977 0.94962 0.0
C2278 C 0.16898 0.96863 0.0828 0.0
C2279 C 0.14865 0.95545 0.08869 0.0
C2280 C 0.16877 0.99006 0.05681 0.0
C2281 C 0.14828 0.99926 0.03372 0.0
C2282 C 0.12761 0.98639 0.04127 0.0
C2283 C 0.12779 0.96489 0.0683 0.0
H2284 H 0.69621 0.37664 0.78911 0.0
H2285 H 0.72408 0.39457 0.63597 0.0
H2286 H 0.73568 0.37566 0.82771 0.0
H2287 H 0.76352 0.39457 0.6753 0.0
H2288 H 0.82042 0.42724 0.79743 0.0
H2289 H 0.78163 0.42274 0.75869 0.0
H2290 H 0.78 0.35211 0.80974 0.0
H2291 H 0.82009 0.35614 0.84589 0.0
C2292 C 0.71074 0.38013 0.7633 0.0
C2293 C 0.70659 0.38546 0.70885 0.0
C2294 C 0.73351 0.37951 0.78564 0.0
C2295 C 0.75313 0.38495 0.75498 0.0
C2296 C 0.74903 0.39014 0.70043 0.0
C2297 C 0.72629 0.39003 0.67762 0.0
C2298 C 0.81197 0.41062 0.80083 0.0
C2299 C 0.82381 0.39218 0.82584 0.0
C2300 C 0.78955 0.40806 0.7781 0.0
C2301 C 0.77737 0.38705 0.78037 0.0
C2302 C 0.78868 0.36862 0.80695 0.0
C2303 C 0.81169 0.37099 0.82834 0.0
loop_
_geom_bond_atom_site_label_1
_geom_bond_atom_site_label_2
_geom_bond_distance
_geom_bond_site_symmetry_2
_ccdc_geom_bond_type
Tb0 N31 2.660 . S
Tb0 N38 2.600 . S
Tb0 O44 2.546 1_554 S
Tb0 O45 2.610 . S
Tb0 O47 2.320 . S
Tb0 O48 2.552 . S
Tb0 O49 2.413 1_554 S
Tb0 O51 2.362 . S
Tb0 O52 2.421 . S
Tb0 C64 2.833 1_554 S
C1 C4 1.432 . S
C1 C5 1.414 . S
C1 N8 1.359 . S
C2 C4 1.417 . S
C2 C6 1.432 . S
C2 C14 1.410 . S
C3 C5 1.444 . S
C3 C6 1.317 . S
C3 H26 0.929 . S
C4 C1 1.432 . S
C4 C2 1.417 . S
C4 N12 1.360 . S
C5 C1 1.414 . S
C5 C3 1.444 . S
C5 C10 1.385 . S
C6 C2 1.432 . S
C6 C3 1.317 . S
C6 H18 0.930 . S
C7 C9 1.392 . S
C7 C10 1.370 . S
C7 H19 0.931 . S
N8 C1 1.359 . S
N8 C9 1.327 . S
N8 Tb11 2.600 . S
C9 C7 1.392 . S
C9 N8 1.327 . S
C9 H16 0.930 . S
C10 C5 1.385 . S
C10 C7 1.370 . S
C10 H29 0.930 . S
Tb11 N8 2.600 . S
Tb11 N12 2.660 . S
Tb11 O45 2.362 . S
Tb11 O46 2.421 . S
Tb11 O50 2.546 . S
Tb11 O51 2.610 . S
Tb11 O53 2.320 . S
Tb11 O54 2.552 . S
Tb11 O55 2.413 . S
Tb11 C75 2.833 . S
N12 C4 1.360 . S
N12 Tb11 2.660 . S
N12 C13 1.305 . S
C13 N12 1.305 . S
C13 C15 1.407 . S
C13 H20 0.930 . S
C14 C2 1.410 . S
C14 C15 1.345 . S
C14 H22 0.930 . S
C15 C13 1.407 . S
C15 C14 1.345 . S
C15 H17 0.930 . S
H16 C9 0.930 . S
H17 C15 0.930 . S
H18 C6 0.930 . S
H19 C7 0.931 . S
H20 C13 0.930 . S
H21 C35 0.930 . S
H22 C14 0.930 . S
H23 C41 0.930 . S
H24 C32 0.930 . S
H25 C39 0.931 . S
H26 C3 0.929 . S
H27 C33 0.930 . S
H28 C66 0.930 . S
H29 C10 0.930 . S
H30 C65 0.929 . S
N31 Tb0 2.660 . S
N31 C32 1.305 . S
N31 C36 1.360 . S
C32 H24 0.930 . S
C32 N31 1.305 . S
C32 C35 1.407 . S
C33 H27 0.930 . S
C33 C34 1.410 . S
C33 C35 1.345 . S
C34 C33 1.410 . S
C34 C36 1.417 . S
C34 C66 1.432 . S
C35 H21 0.930 . S
C35 C32 1.407 . S
C35 C33 1.345 . S
C36 N31 1.360 . S
C36 C34 1.417 . S
C36 C40 1.432 . S
H37 C42 0.930 . S
N38 Tb0 2.600 . S
N38 C40 1.359 . S
N38 C41 1.327 . S
C39 H25 0.931 . S
C39 C41 1.392 . S
C39 C42 1.370 1_554 S
C40 C36 1.432 . S
C40 N38 1.359 . S
C40 C43 1.414 . S
C41 H23 0.930 . S
C41 N38 1.327 . S
C41 C39 1.392 . S
C42 H37 0.930 . S
C42 C39 1.370 1_556 S
C42 C43 1.385 1_556 S
C43 C40 1.414 . S
C43 C42 1.385 1_554 S
C43 C65 1.444 1_554 S
O44 Tb0 2.546 1_556 S
O44 C64 1.251 . S
O45 Tb0 2.610 . S
O45 Tb11 2.362 . S
O45 C56 1.283 . S
O46 Tb11 2.421 . S
O46 C63 1.262 . S
O47 Tb0 2.320 . S
O47 C63 1.260 . S
O48 Tb0 2.552 . S
O48 C56 1.243 . S
O49 Tb0 2.413 1_556 S
O49 C64 1.256 . S
O50 Tb11 2.546 . S
O50 C75 1.251 . S
O51 Tb0 2.362 . S
O51 Tb11 2.610 . S
O51 C67 1.283 . S
O52 Tb0 2.421 . S
O52 C74 1.262 . S
O53 Tb11 2.320 . S
O53 C74 1.260 . S
O54 Tb11 2.552 . S
O54 C67 1.243 . S
O55 Tb11 2.413 . S
O55 C75 1.256 . S
C56 O45 1.283 . S
C56 O48 1.243 . S
C57 C59 1.382 . S
C57 C61 1.393 . S
C57 C64 1.500 . S
C58 C59 1.400 . S
C58 C60 1.384 . S
C59 C57 1.382 . S
C59 C58 1.400 . S
C59 H76 0.930 . S
C60 C58 1.384 . S
C60 C62 1.392 . S
C60 H77 0.931 . S
C61 C57 1.393 . S
C61 C62 1.401 . S
C61 H78 0.930 . S
C62 C60 1.392 . S
C62 C61 1.401 . S
C62 H79 0.930 . S
C63 O46 1.262 . S
C63 O47 1.260 . S
C64 Tb0 2.833 1_556 S
C64 O44 1.251 . S
C64 O49 1.256 . S
C64 C57 1.500 . S
C65 H30 0.929 . S
C65 C43 1.444 1_556 S
C65 C66 1.317 1_556 S
C66 H28 0.930 . S
C66 C34 1.432 . S
C66 C65 1.317 1_554 S
C67 O51 1.283 . S
C67 O54 1.243 . S
C68 C69 1.382 . S
C68 C72 1.393 . S
C68 C75 1.500 . S
C69 C68 1.382 . S
C69 C70 1.400 . S
C69 H80 0.930 . S
C70 C69 1.400 . S
C70 C71 1.384 . S
C71 C70 1.384 . S
C71 C73 1.392 . S
C71 H81 0.931 . S
C72 C68 1.393 . S
C72 C73 1.401 . S
C72 H82 0.930 . S
C73 C71 1.392 . S
C73 C72 1.401 . S
C73 H83 0.930 . S
C74 O52 1.262 . S
C74 O53 1.260 . S
C75 Tb11 2.833 . S
C75 O50 1.251 . S
C75 O55 1.256 . S
C75 C68 1.500 . S
H76 C59 0.930 . S
H77 C60 0.931 . S
H78 C61 0.930 . S
H79 C62 0.930 . S
H80 C69 0.930 . S
H81 C71 0.931 . S
H82 C72 0.930 . S
H83 C73 0.930 . S
Tb84 N115 2.660 . S
Tb84 N122 2.600 . S
Tb84 O128 2.546 . S
Tb84 O129 2.610 . S
Tb84 O131 2.320 . S
Tb84 O132 2.552 . S
Tb84 O133 2.413 . S
Tb84 O135 2.362 . S
Tb84 O136 2.421 . S
Tb84 C148 2.833 . S
C85 C88 1.432 . S
C85 C89 1.414 . S
C85 N92 1.359 . S
C86 C88 1.417 . S
C86 C90 1.432 . S
C86 C98 1.410 . S
C87 C89 1.444 . S
C87 C90 1.317 . S
C87 H110 0.929 . S
C88 C85 1.432 . S
C88 C86 1.417 . S
C88 N96 1.360 . S
C89 C85 1.414 . S
C89 C87 1.444 . S
C89 C94 1.385 . S
C90 C86 1.432 . S
C90 C87 1.317 . S
C90 H102 0.930 . S
C91 C93 1.392 . S
C91 C94 1.370 . S
C91 H103 0.931 . S
N92 C85 1.359 . S
N92 C93 1.327 . S
N92 Tb95 2.600 . S
C93 C91 1.392 . S
C93 N92 1.327 . S
C93 H100 0.930 . S
C94 C89 1.385 . S
C94 C91 1.370 . S
C94 H113 0.930 . S
Tb95 N92 2.600 . S
Tb95 N96 2.660 . S
Tb95 O129 2.362 . S
Tb95 O130 2.421 . S
Tb95 O134 2.546 . S
Tb95 O135 2.610 . S
Tb95 O137 2.320 . S
Tb95 O138 2.552 . S
Tb95 O139 2.413 . S
Tb95 C159 2.833 . S
N96 C88 1.360 . S
N96 Tb95 2.660 . S
N96 C97 1.305 . S
C97 N96 1.305 . S
C97 C99 1.407 . S
C97 H104 0.930 . S
C98 C86 1.410 . S
C98 C99 1.345 . S
C98 H106 0.930 . S
C99 C97 1.407 . S
C99 C98 1.345 . S
C99 H101 0.930 . S
H100 C93 0.930 . S
H101 C99 0.930 . S
H102 C90 0.930 . S
H103 C91 0.931 . S
H104 C97 0.930 . S
H105 C119 0.930 . S
H106 C98 0.930 . S
H107 C125 0.930 . S
H108 C116 0.930 . S
H109 C123 0.931 . S
H110 C87 0.929 . S
H111 C117 0.930 . S
H112 C150 0.930 . S
H113 C94 0.930 . S
H114 C149 0.929 . S
N115 Tb84 2.660 . S
N115 C116 1.305 . S
N115 C120 1.360 . S
C116 H108 0.930 . S
C116 N115 1.305 . S
C116 C119 1.407 . S
C117 H111 0.930 . S
C117 C118 1.410 . S
C117 C119 1.345 . S
C118 C117 1.410 . S
C118 C120 1.417 . S
C118 C150 1.432 . S
C119 H105 0.930 . S
C119 C116 1.407 . S
C119 C117 1.345 . S
C120 N115 1.360 . S
C120 C118 1.417 . S
C120 C124 1.432 . S
H121 C126 0.930 . S
N122 Tb84 2.600 . S
N122 C124 1.359 . S
N122 C125 1.327 . S
C123 H109 0.931 . S
C123 C125 1.392 . S
C123 C126 1.370 . S
C124 C120 1.432 . S
C124 N122 1.359 . S
C124 C127 1.414 . S
C125 H107 0.930 . S
C125 N122 1.327 . S
C125 C123 1.392 . S
C126 H121 0.930 . S
C126 C123 1.370 . S
C126 C127 1.385 . S
C127 C124 1.414 . S
C127 C126 1.385 . S
C127 C149 1.444 . S
O128 Tb84 2.546 . S
O128 C148 1.251 . S
O129 Tb84 2.610 . S
O129 Tb95 2.362 . S
O129 C140 1.283 . S
O130 Tb95 2.421 . S
O130 C147 1.262 . S
O131 Tb84 2.320 . S
O131 C147 1.260 . S
O132 Tb84 2.552 . S
O132 C140 1.243 . S
O133 Tb84 2.413 . S
O133 C148 1.256 . S
O134 Tb95 2.546 . S
O134 C159 1.251 . S
O135 Tb84 2.362 . S
O135 Tb95 2.610 . S
O135 C151 1.283 . S
O136 Tb84 2.421 . S
O136 C158 1.262 . S
O137 Tb95 2.320 . S
O137 C158 1.260 . S
O138 Tb95 2.552 . S
O138 C151 1.243 . S
O139 Tb95 2.413 . S
O139 C159 1.256 . S
C140 O129 1.283 . S
C140 O132 1.243 . S
C141 C143 1.382 . S
C141 C145 1.393 . S
C141 C148 1.500 . S
C142 C143 1.400 . S
C142 C144 1.384 . S
C143 C141 1.382 . S
C143 C142 1.400 . S
C143 H160 0.930 . S
C144 C142 1.384 . S
C144 C146 1.392 . S
C144 H161 0.931 . S
C145 C141 1.393 . S
C145 C146 1.401 . S
C145 H162 0.930 . S
C146 C144 1.392 . S
C146 C145 1.401 . S
C146 H163 0.930 . S
C147 O130 1.262 . S
C147 O131 1.260 . S
C148 Tb84 2.833 . S
C148 O128 1.251 . S
C148 O133 1.256 . S
C148 C141 1.500 . S
C149 H114 0.929 . S
C149 C127 1.444 . S
C149 C150 1.317 . S
C150 H112 0.930 . S
C150 C118 1.432 . S
C150 C149 1.317 . S
C151 O135 1.283 . S
C151 O138 1.243 . S
C152 C153 1.382 . S
C152 C156 1.393 . S
C152 C159 1.500 . S
C153 C152 1.382 . S
C153 C154 1.400 . S
C153 H164 0.930 . S
C154 C153 1.400 . S
C154 C155 1.384 . S
C155 C154 1.384 . S
C155 C157 1.392 . S
C155 H165 0.931 1_554 S
C156 C152 1.393 . S
C156 C157 1.401 . S
C156 H166 0.930 . S
C157 C155 1.392 . S
C157 C156 1.401 . S
C157 H167 0.930 . S
C158 O136 1.262 . S
C158 O137 1.260 . S
C159 Tb95 2.833 . S
C159 O134 1.251 . S
C159 O139 1.256 . S
C159 C152 1.500 . S
H160 C143 0.930 . S
H161 C144 0.931 . S
H162 C145 0.930 . S
H163 C146 0.930 . S
H164 C153 0.930 . S
H165 C155 0.931 1_556 S
H166 C156 0.930 . S
H167 C157 0.930 . S
Tb168 N199 2.660 . S
Tb168 N206 2.600 . S
Tb168 O212 2.546 . S
Tb168 O213 2.610 . S
Tb168 O215 2.320 . S
Tb168 O216 2.552 . S
Tb168 O217 2.413 . S
Tb168 O219 2.362 . S
Tb168 O220 2.421 . S
Tb168 C232 2.833 . S
C169 C172 1.432 . S
C169 C173 1.414 . S
C169 N176 1.359 . S
C170 C172 1.417 . S
C170 C174 1.432 . S
C170 C182 1.410 . S
C171 C173 1.444 . S
C171 C174 1.317 . S
C171 H194 0.929 . S
C172 C169 1.432 . S
C172 C170 1.417 . S
C172 N180 1.360 . S
C173 C169 1.414 . S
C173 C171 1.444 . S
C173 C178 1.385 . S
C174 C170 1.432 . S
C174 C171 1.317 . S
C174 H186 0.930 . S
C175 C177 1.392 . S
C175 C178 1.370 . S
C175 H187 0.931 . S
N176 C169 1.359 . S
N176 C177 1.327 . S
N176 Tb179 2.600 . S
C177 C175 1.392 . S
C177 N176 1.327 . S
C177 H184 0.930 . S
C178 C173 1.385 . S
C178 C175 1.370 . S
C178 H197 0.930 . S
Tb179 N176 2.600 . S
Tb179 N180 2.660 . S
Tb179 O213 2.362 . S
Tb179 O214 2.421 . S
Tb179 O218 2.546 . S
Tb179 O219 2.610 . S
Tb179 O221 2.320 . S
Tb179 O222 2.552 . S
Tb179 O223 2.413 . S
Tb179 C243 2.833 . S
N180 C172 1.360 . S
N180 Tb179 2.660 . S
N180 C181 1.305 . S
C181 N180 1.305 . S
C181 C183 1.407 . S
C181 H188 0.930 . S
C182 C170 1.410 . S
C182 C183 1.345 . S
C182 H190 0.930 . S
C183 C181 1.407 . S
C183 C182 1.345 . S
C183 H185 0.930 . S
H184 C177 0.930 . S
H185 C183 0.930 . S
H186 C174 0.930 . S
H187 C175 0.931 . S
H188 C181 0.930 . S
H189 C203 0.930 . S
H190 C182 0.930 . S
H191 C209 0.930 . S
H192 C200 0.930 . S
H193 C207 0.931 . S
H194 C171 0.929 . S
H195 C201 0.930 . S
H196 C234 0.930 . S
H197 C178 0.930 . S
H198 C233 0.929 . S
N199 Tb168 2.660 . S
N199 C200 1.305 . S
N199 C204 1.360 . S
C200 H192 0.930 . S
C200 N199 1.305 . S
C200 C203 1.407 . S
C201 H195 0.930 . S
C201 C202 1.410 . S
C201 C203 1.345 . S
C202 C201 1.410 . S
C202 C204 1.417 . S
C202 C234 1.432 . S
C203 H189 0.930 . S
C203 C200 1.407 . S
C203 C201 1.345 . S
C204 N199 1.360 . S
C204 C202 1.417 . S
C204 C208 1.432 . S
H205 C210 0.930 . S
N206 Tb168 2.600 . S
N206 C208 1.359 . S
N206 C209 1.327 . S
C207 H193 0.931 . S
C207 C209 1.392 . S
C207 C210 1.370 . S
C208 C204 1.432 . S
C208 N206 1.359 . S
C208 C211 1.414 . S
C209 H191 0.930 . S
C209 N206 1.327 . S
C209 C207 1.392 . S
C210 H205 0.930 . S
C210 C207 1.370 . S
C210 C211 1.385 . S
C211 C208 1.414 . S
C211 C210 1.385 . S
C211 C233 1.444 . S
O212 Tb168 2.546 . S
O212 C232 1.251 . S
O213 Tb168 2.610 . S
O213 Tb179 2.362 . S
O213 C224 1.283 . S
O214 Tb179 2.421 . S
O214 C231 1.262 . S
O215 Tb168 2.320 . S
O215 C231 1.260 . S
O216 Tb168 2.552 . S
O216 C224 1.243 . S
O217 Tb168 2.413 . S
O217 C232 1.256 . S
O218 Tb179 2.546 . S
O218 C243 1.251 . S
O219 Tb168 2.362 . S
O219 Tb179 2.610 . S
O219 C235 1.283 . S
O220 Tb168 2.421 . S
O220 C242 1.262 . S
O221 Tb179 2.320 . S
O221 C242 1.260 . S
O222 Tb179 2.552 . S
O222 C235 1.243 . S
O223 Tb179 2.413 . S
O223 C243 1.256 . S
C224 O213 1.283 . S
C224 O216 1.243 . S
C225 C227 1.382 . S
C225 C229 1.393 . S
C225 C232 1.500 . S
C226 C227 1.400 . S
C226 C228 1.384 . S
C227 C225 1.382 . S
C227 C226 1.400 . S
C227 H244 0.930 . S
C228 C226 1.384 . S
C228 C230 1.392 . S
C228 H245 0.931 . S
C229 C225 1.393 . S
C229 C230 1.401 . S
C229 H246 0.930 . S
C230 C228 1.392 . S
C230 C229 1.401 . S
C230 H247 0.930 . S
C231 O214 1.262 . S
C231 O215 1.260 . S
C232 Tb168 2.833 . S
C232 O212 1.251 . S
C232 O217 1.256 . S
C232 C225 1.500 . S
C233 H198 0.929 . S
C233 C211 1.444 . S
C233 C234 1.317 . S
C234 H196 0.930 . S
C234 C202 1.432 . S
C234 C233 1.317 . S
C235 O219 1.283 . S
C235 O222 1.243 . S
C236 C237 1.382 . S
C236 C240 1.393 . S
C236 C243 1.500 . S
C237 C236 1.382 . S
C237 C238 1.400 . S
C237 H248 0.930 . S
C238 C237 1.400 . S
C238 C239 1.384 . S
C239 C238 1.384 . S
C239 C241 1.392 . S
C239 H249 0.931 1_556 S
C240 C236 1.393 . S
C240 C241 1.401 . S
C240 H250 0.930 . S
C241 C239 1.392 . S
C241 C240 1.401 . S
C241 H251 0.930 . S
C242 O220 1.262 . S
C242 O221 1.260 . S
C243 Tb179 2.833 . S
C243 O218 1.251 . S
C243 O223 1.256 . S
C243 C236 1.500 . S
H244 C227 0.930 . S
H245 C228 0.931 . S
H246 C229 0.930 . S
H247 C230 0.930 . S
H248 C237 0.930 . S
H249 C239 0.931 1_554 S
H250 C240 0.930 . S
H251 C241 0.930 . S
Tb252 N283 2.660 . S
Tb252 N290 2.600 . S
Tb252 O296 2.546 . S
Tb252 O297 2.610 . S
Tb252 O299 2.320 . S
Tb252 O300 2.552 . S
Tb252 O301 2.413 . S
Tb252 O303 2.362 . S
Tb252 O304 2.421 . S
Tb252 C316 2.833 . S
C253 C256 1.432 . S
C253 C257 1.414 1_556 S
C253 N260 1.359 . S
C254 C256 1.417 . S
C254 C258 1.432 1_556 S
C254 C266 1.410 . S
C255 C257 1.444 . S
C255 C258 1.317 . S
C255 H278 0.929 . S
C256 C253 1.432 . S
C256 C254 1.417 . S
C256 N264 1.360 . S
C257 C253 1.414 1_554 S
C257 C255 1.444 . S
C257 C262 1.385 . S
C258 C254 1.432 1_554 S
C258 C255 1.317 . S
C258 H270 0.930 . S
C259 C261 1.392 . S
C259 C262 1.370 1_556 S
C259 H271 0.931 1_556 S
N260 C253 1.359 . S
N260 C261 1.327 . S
N260 Tb263 2.600 . S
C261 C259 1.392 . S
C261 N260 1.327 . S
C261 H268 0.930 . S
C262 C257 1.385 . S
C262 C259 1.370 1_554 S
C262 H281 0.930 . S
Tb263 N260 2.600 . S
Tb263 N264 2.660 . S
Tb263 O297 2.362 . S
Tb263 O298 2.421 . S
Tb263 O302 2.546 1_556 S
Tb263 O303 2.610 . S
Tb263 O305 2.320 . S
Tb263 O306 2.552 . S
Tb263 O307 2.413 1_556 S
Tb263 C327 2.833 1_556 S
N264 C256 1.360 . S
N264 Tb263 2.660 . S
N264 C265 1.305 . S
C265 N264 1.305 . S
C265 C267 1.407 . S
C265 H272 0.930 . S
C266 C254 1.410 . S
C266 C267 1.345 . S
C266 H274 0.930 . S
C267 C265 1.407 . S
C267 C266 1.345 . S
C267 H269 0.930 . S
H268 C261 0.930 . S
H269 C267 0.930 . S
H270 C258 0.930 . S
H271 C259 0.931 1_554 S
H272 C265 0.930 . S
H273 C287 0.930 . S
H274 C266 0.930 . S
H275 C293 0.930 . S
H276 C284 0.930 . S
H277 C291 0.931 . S
H278 C255 0.929 . S
H279 C285 0.930 . S
H280 C318 0.930 1_565 S
H281 C262 0.930 . S
H282 C317 0.929 . S
N283 Tb252 2.660 . S
N283 C284 1.305 . S
N283 C288 1.360 . S
C284 H276 0.930 . S
C284 N283 1.305 . S
C284 C287 1.407 . S
C285 H279 0.930 . S
C285 C286 1.410 . S
C285 C287 1.345 . S
C286 C285 1.410 . S
C286 C288 1.417 . S
C286 C318 1.432 . S
C287 H273 0.930 . S
C287 C284 1.407 . S
C287 C285 1.345 . S
C288 N283 1.360 . S
C288 C286 1.417 . S
C288 C292 1.432 . S
H289 C294 0.930 . S
N290 Tb252 2.600 . S
N290 C292 1.359 . S
N290 C293 1.327 . S
C291 H277 0.931 . S
C291 C293 1.392 . S
C291 C294 1.370 . S
C292 C288 1.432 . S
C292 N290 1.359 . S
C292 C295 1.414 . S
C293 H275 0.930 . S
C293 N290 1.327 . S
C293 C291 1.392 . S
C294 H289 0.930 . S
C294 C291 1.370 . S
C294 C295 1.385 . S
C295 C292 1.414 . S
C295 C294 1.385 . S
C295 C317 1.444 . S
O296 Tb252 2.546 . S
O296 C316 1.251 . S
O297 Tb252 2.610 . S
O297 Tb263 2.362 . S
O297 C308 1.283 . S
O298 Tb263 2.421 . S
O298 C315 1.262 . S
O299 Tb252 2.320 . S
O299 C315 1.260 . S
O300 Tb252 2.552 . S
O300 C308 1.243 . S
O301 Tb252 2.413 . S
O301 C316 1.256 . S
O302 Tb263 2.546 1_554 S
O302 C327 1.251 . S
O303 Tb252 2.362 . S
O303 Tb263 2.610 . S
O303 C319 1.283 . S
O304 Tb252 2.421 . S
O304 C326 1.262 . S
O305 Tb263 2.320 . S
O305 C326 1.260 . S
O306 Tb263 2.552 . S
O306 C319 1.243 . S
O307 Tb263 2.413 1_554 S
O307 C327 1.256 . S
C308 O297 1.283 . S
C308 O300 1.243 . S
C309 C311 1.382 . S
C309 C313 1.393 . S
C309 C316 1.500 . S
C310 C311 1.400 . S
C310 C312 1.384 . S
C311 C309 1.382 . S
C311 C310 1.400 . S
C311 H328 0.930 . S
C312 C310 1.384 . S
C312 C314 1.392 . S
C312 H329 0.931 . S
C313 C309 1.393 . S
C313 C314 1.401 . S
C313 H330 0.930 . S
C314 C312 1.392 . S
C314 C313 1.401 . S
C314 H331 0.930 . S
C315 O298 1.262 . S
C315 O299 1.260 . S
C316 Tb252 2.833 . S
C316 O296 1.251 . S
C316 O301 1.256 . S
C316 C309 1.500 . S
C317 H282 0.929 . S
C317 C295 1.444 . S
C317 C318 1.317 . S
C318 H280 0.930 1_545 S
C318 C286 1.432 . S
C318 C317 1.317 . S
C319 O303 1.283 . S
C319 O306 1.243 . S
C320 C321 1.382 . S
C320 C324 1.393 . S
C320 C327 1.500 . S
C321 C320 1.382 . S
C321 C322 1.400 . S
C321 H332 0.930 . S
C322 C321 1.400 . S
C322 C323 1.384 . S
C323 C322 1.384 . S
C323 C325 1.392 . S
C323 H333 0.931 . S
C324 C320 1.393 . S
C324 C325 1.401 . S
C324 H334 0.930 . S
C325 C323 1.392 . S
C325 C324 1.401 . S
C325 H335 0.930 . S
C326 O304 1.262 . S
C326 O305 1.260 . S
C327 Tb263 2.833 1_554 S
C327 O302 1.251 . S
C327 O307 1.256 . S
C327 C320 1.500 . S
H328 C311 0.930 . S
H329 C312 0.931 . S
H330 C313 0.930 . S
H331 C314 0.930 . S
H332 C321 0.930 . S
H333 C323 0.931 . S
H334 C324 0.930 . S
H335 C325 0.930 . S
Tb336 N367 2.660 . S
Tb336 N374 2.600 . S
Tb336 O380 2.546 1_556 S
Tb336 O381 2.610 . S
Tb336 O383 2.320 . S
Tb336 O384 2.552 . S
Tb336 O385 2.413 1_556 S
Tb336 O387 2.362 . S
Tb336 O388 2.421 . S
Tb336 C400 2.833 1_556 S
C337 C340 1.432 . S
C337 C341 1.414 . S
C337 N344 1.359 . S
C338 C340 1.417 . S
C338 C342 1.432 . S
C338 C350 1.410 . S
C339 C341 1.444 . S
C339 C342 1.317 . S
C339 H362 0.929 . S
C340 C337 1.432 . S
C340 C338 1.417 . S
C340 N348 1.360 . S
C341 C337 1.414 . S
C341 C339 1.444 . S
C341 C346 1.385 . S
C342 C338 1.432 . S
C342 C339 1.317 . S
C342 H354 0.930 . S
C343 C345 1.392 . S
C343 C346 1.370 . S
C343 H355 0.931 . S
N344 C337 1.359 . S
N344 C345 1.327 . S
N344 Tb347 2.600 . S
C345 C343 1.392 . S
C345 N344 1.327 . S
C345 H352 0.930 . S
C346 C341 1.385 . S
C346 C343 1.370 . S
C346 H365 0.930 . S
Tb347 N344 2.600 . S
Tb347 N348 2.660 . S
Tb347 O381 2.362 . S
Tb347 O382 2.421 . S
Tb347 O386 2.546 . S
Tb347 O387 2.610 . S
Tb347 O389 2.320 . S
Tb347 O390 2.552 . S
Tb347 O391 2.413 . S
Tb347 C411 2.833 . S
N348 C340 1.360 . S
N348 Tb347 2.660 . S
N348 C349 1.305 . S
C349 N348 1.305 . S
C349 C351 1.407 . S
C349 H356 0.930 . S
C350 C338 1.410 . S
C350 C351 1.345 . S
C350 H358 0.930 . S
C351 C349 1.407 . S
C351 C350 1.345 . S
C351 H353 0.930 . S
H352 C345 0.930 . S
H353 C351 0.930 . S
H354 C342 0.930 . S
H355 C343 0.931 . S
H356 C349 0.930 . S
H357 C371 0.930 . S
H358 C350 0.930 . S
H359 C377 0.930 . S
H360 C368 0.930 . S
H361 C375 0.931 1_554 S
H362 C339 0.929 . S
H363 C369 0.930 . S
H364 C402 0.930 . S
H365 C346 0.930 . S
H366 C401 0.929 . S
N367 Tb336 2.660 . S
N367 C368 1.305 . S
N367 C372 1.360 . S
C368 H360 0.930 . S
C368 N367 1.305 . S
C368 C371 1.407 . S
C369 H363 0.930 . S
C369 C370 1.410 . S
C369 C371 1.345 . S
C370 C369 1.410 . S
C370 C372 1.417 . S
C370 C402 1.432 1_556 S
C371 H357 0.930 . S
C371 C368 1.407 . S
C371 C369 1.345 . S
C372 N367 1.360 . S
C372 C370 1.417 . S
C372 C376 1.432 . S
H373 C378 0.930 . S
N374 Tb336 2.600 . S
N374 C376 1.359 . S
N374 C377 1.327 . S
C375 H361 0.931 1_556 S
C375 C377 1.392 . S
C375 C378 1.370 1_556 S
C376 C372 1.432 . S
C376 N374 1.359 . S
C376 C379 1.414 1_556 S
C377 H359 0.930 . S
C377 N374 1.327 . S
C377 C375 1.392 . S
C378 H373 0.930 . S
C378 C375 1.370 1_554 S
C378 C379 1.385 . S
C379 C376 1.414 1_554 S
C379 C378 1.385 . S
C379 C401 1.444 . S
O380 Tb336 2.546 1_554 S
O380 C400 1.251 . S
O381 Tb336 2.610 . S
O381 Tb347 2.362 . S
O381 C392 1.283 . S
O382 Tb347 2.421 . S
O382 C399 1.262 . S
O383 Tb336 2.320 . S
O383 C399 1.260 . S
O384 Tb336 2.552 . S
O384 C392 1.243 . S
O385 Tb336 2.413 1_554 S
O385 C400 1.256 . S
O386 Tb347 2.546 . S
O386 C411 1.251 . S
O387 Tb336 2.362 . S
O387 Tb347 2.610 . S
O387 C403 1.283 . S
O388 Tb336 2.421 . S
O388 C410 1.262 . S
O389 Tb347 2.320 . S
O389 C410 1.260 . S
O390 Tb347 2.552 . S
O390 C403 1.243 . S
O391 Tb347 2.413 . S
O391 C411 1.256 . S
C392 O381 1.283 . S
C392 O384 1.243 . S
C393 C395 1.382 . S
C393 C397 1.393 . S
C393 C400 1.500 . S
C394 C395 1.400 . S
C394 C396 1.384 . S
C395 C393 1.382 . S
C395 C394 1.400 . S
C395 H412 0.930 . S
C396 C394 1.384 . S
C396 C398 1.392 . S
C396 H413 0.931 . S
C397 C393 1.393 . S
C397 C398 1.401 . S
C397 H414 0.930 . S
C398 C396 1.392 . S
C398 C397 1.401 . S
C398 H415 0.930 . S
C399 O382 1.262 . S
C399 O383 1.260 . S
C400 Tb336 2.833 1_554 S
C400 O380 1.251 . S
C400 O385 1.256 . S
C400 C393 1.500 . S
C401 H366 0.929 . S
C401 C379 1.444 . S
C401 C402 1.317 . S
C402 H364 0.930 . S
C402 C370 1.432 1_554 S
C402 C401 1.317 . S
C403 O387 1.283 . S
C403 O390 1.243 . S
C404 C405 1.382 . S
C404 C408 1.393 . S
C404 C411 1.500 . S
C405 C404 1.382 . S
C405 C406 1.400 . S
C405 H416 0.930 . S
C406 C405 1.400 . S
C406 C407 1.384 . S
C407 C406 1.384 . S
C407 C409 1.392 . S
C407 H417 0.931 . S
C408 C404 1.393 . S
C408 C409 1.401 . S
C408 H418 0.930 . S
C409 C407 1.392 . S
C409 C408 1.401 . S
C409 H419 0.930 . S
C410 O388 1.262 . S
C410 O389 1.260 . S
C411 Tb347 2.833 . S
C411 O386 1.251 . S
C411 O391 1.256 . S
C411 C404 1.500 . S
H412 C395 0.930 . S
H413 C396 0.931 . S
H414 C397 0.930 . S
H415 C398 0.930 . S
H416 C405 0.930 . S
H417 C407 0.931 . S
H418 C408 0.930 . S
H419 C409 0.930 . S
Tb420 N451 2.660 . S
Tb420 N458 2.600 . S
Tb420 O464 2.546 1_554 S
Tb420 O465 2.610 . S
Tb420 O467 2.320 . S
Tb420 O468 2.552 . S
Tb420 O469 2.413 1_554 S
Tb420 O471 2.362 . S
Tb420 O472 2.421 . S
Tb420 C484 2.833 1_554 S
C421 C424 1.432 . S
C421 C425 1.414 . S
C421 N428 1.359 . S
C422 C424 1.417 . S
C422 C426 1.432 . S
C422 C434 1.410 . S
C423 C425 1.444 . S
C423 C426 1.317 . S
C423 H446 0.929 . S
C424 C421 1.432 . S
C424 C422 1.417 . S
C424 N432 1.360 . S
C425 C421 1.414 . S
C425 C423 1.444 . S
C425 C430 1.385 . S
C426 C422 1.432 . S
C426 C423 1.317 . S
C426 H438 0.930 . S
C427 C429 1.392 . S
C427 C430 1.370 . S
C427 H439 0.931 . S
N428 C421 1.359 . S
N428 C429 1.327 . S
N428 Tb431 2.600 . S
C429 C427 1.392 . S
C429 N428 1.327 . S
C429 H436 0.930 . S
C430 C425 1.385 . S
C430 C427 1.370 . S
C430 H449 0.930 . S
Tb431 N428 2.600 . S
Tb431 N432 2.660 . S
Tb431 O465 2.362 . S
Tb431 O466 2.421 . S
Tb431 O470 2.546 . S
Tb431 O471 2.610 . S
Tb431 O473 2.320 . S
Tb431 O474 2.552 . S
Tb431 O475 2.413 . S
Tb431 C495 2.833 . S
N432 C424 1.360 . S
N432 Tb431 2.660 . S
N432 C433 1.305 . S
C433 N432 1.305 . S
C433 C435 1.407 . S
C433 H440 0.930 . S
C434 C422 1.410 . S
C434 C435 1.345 . S
C434 H442 0.930 . S
C435 C433 1.407 . S
C435 C434 1.345 . S
C435 H437 0.930 . S
H436 C429 0.930 . S
H437 C435 0.930 . S
H438 C426 0.930 . S
H439 C427 0.931 . S
H440 C433 0.930 . S
H441 C455 0.930 . S
H442 C434 0.930 . S
H443 C461 0.930 . S
H444 C452 0.930 . S
H445 C459 0.931 1_556 S
H446 C423 0.929 . S
H447 C453 0.930 . S
H448 C486 0.930 1_556 S
H449 C430 0.930 . S
H450 C485 0.929 . S
N451 Tb420 2.660 . S
N451 C452 1.305 . S
N451 C456 1.360 . S
C452 H444 0.930 . S
C452 N451 1.305 . S
C452 C455 1.407 . S
C453 H447 0.930 . S
C453 C454 1.410 . S
C453 C455 1.345 . S
C454 C453 1.410 . S
C454 C456 1.417 . S
C454 C486 1.432 . S
C455 H441 0.930 . S
C455 C452 1.407 . S
C455 C453 1.345 . S
C456 N451 1.360 . S
C456 C454 1.417 . S
C456 C460 1.432 . S
H457 C462 0.930 . S
N458 Tb420 2.600 . S
N458 C460 1.359 . S
N458 C461 1.327 . S
C459 H445 0.931 1_554 S
C459 C461 1.392 . S
C459 C462 1.370 1_554 S
C460 C456 1.432 . S
C460 N458 1.359 . S
C460 C463 1.414 . S
C461 H443 0.930 . S
C461 N458 1.327 . S
C461 C459 1.392 . S
C462 H457 0.930 . S
C462 C459 1.370 1_556 S
C462 C463 1.385 1_556 S
C463 C460 1.414 . S
C463 C462 1.385 1_554 S
C463 C485 1.444 1_554 S
O464 Tb420 2.546 1_556 S
O464 C484 1.251 . S
O465 Tb420 2.610 . S
O465 Tb431 2.362 . S
O465 C476 1.283 . S
O466 Tb431 2.421 . S
O466 C483 1.262 . S
O467 Tb420 2.320 . S
O467 C483 1.260 . S
O468 Tb420 2.552 . S
O468 C476 1.243 . S
O469 Tb420 2.413 1_556 S
O469 C484 1.256 . S
O470 Tb431 2.546 . S
O470 C495 1.251 . S
O471 Tb420 2.362 . S
O471 Tb431 2.610 . S
O471 C487 1.283 . S
O472 Tb420 2.421 . S
O472 C494 1.262 . S
O473 Tb431 2.320 . S
O473 C494 1.260 . S
O474 Tb431 2.552 . S
O474 C487 1.243 . S
O475 Tb431 2.413 . S
O475 C495 1.256 . S
C476 O465 1.283 . S
C476 O468 1.243 . S
C477 C479 1.382 . S
C477 C481 1.393 . S
C477 C484 1.500 . S
C478 C479 1.400 . S
C478 C480 1.384 . S
C479 C477 1.382 . S
C479 C478 1.400 . S
C479 H496 0.930 . S
C480 C478 1.384 . S
C480 C482 1.392 . S
C480 H497 0.931 . S
C481 C477 1.393 . S
C481 C482 1.401 . S
C481 H498 0.930 . S
C482 C480 1.392 . S
C482 C481 1.401 . S
C482 H499 0.930 . S
C483 O466 1.262 . S
C483 O467 1.260 . S
C484 Tb420 2.833 1_556 S
C484 O464 1.251 . S
C484 O469 1.256 . S
C484 C477 1.500 . S
C485 H450 0.929 . S
C485 C463 1.444 1_556 S
C485 C486 1.317 1_556 S
C486 H448 0.930 1_554 S
C486 C454 1.432 . S
C486 C485 1.317 1_554 S
C487 O471 1.283 . S
C487 O474 1.243 . S
C488 C489 1.382 . S
C488 C492 1.393 . S
C488 C495 1.500 . S
C489 C488 1.382 . S
C489 C490 1.400 . S
C489 H500 0.930 . S
C490 C489 1.400 . S
C490 C491 1.384 . S
C491 C490 1.384 . S
C491 C493 1.392 . S
C491 H501 0.931 . S
C492 C488 1.393 . S
C492 C493 1.401 . S
C492 H502 0.930 . S
C493 C491 1.392 . S
C493 C492 1.401 . S
C493 H503 0.930 . S
C494 O472 1.262 . S
C494 O473 1.260 . S
C495 Tb431 2.833 . S
C495 O470 1.251 . S
C495 O475 1.256 . S
C495 C488 1.500 . S
H496 C479 0.930 . S
H497 C480 0.931 . S
H498 C481 0.930 . S
H499 C482 0.930 . S
H500 C489 0.930 . S
H501 C491 0.931 . S
H502 C492 0.930 . S
H503 C493 0.930 . S
Tb504 N535 2.660 . S
Tb504 N542 2.600 . S
Tb504 O548 2.546 . S
Tb504 O549 2.610 . S
Tb504 O551 2.320 . S
Tb504 O552 2.552 . S
Tb504 O553 2.413 . S
Tb504 O555 2.362 . S
Tb504 O556 2.421 . S
Tb504 C568 2.833 . S
C505 C508 1.432 . S
C505 C509 1.414 . S
C505 N512 1.359 . S
C506 C508 1.417 . S
C506 C510 1.432 . S
C506 C518 1.410 . S
C507 C509 1.444 . S
C507 C510 1.317 . S
C507 H530 0.929 . S
C508 C505 1.432 . S
C508 C506 1.417 . S
C508 N516 1.360 . S
C509 C505 1.414 . S
C509 C507 1.444 . S
C509 C514 1.385 . S
C510 C506 1.432 . S
C510 C507 1.317 . S
C510 H522 0.930 . S
C511 C513 1.392 . S
C511 C514 1.370 . S
C511 H523 0.931 . S
N512 C505 1.359 . S
N512 C513 1.327 . S
N512 Tb515 2.600 . S
C513 C511 1.392 . S
C513 N512 1.327 . S
C513 H520 0.930 . S
C514 C509 1.385 . S
C514 C511 1.370 . S
C514 H533 0.930 . S
Tb515 N512 2.600 . S
Tb515 N516 2.660 . S
Tb515 O549 2.362 . S
Tb515 O550 2.421 . S
Tb515 O554 2.546 . S
Tb515 O555 2.610 . S
Tb515 O557 2.320 . S
Tb515 O558 2.552 . S
Tb515 O559 2.413 . S
Tb515 C579 2.833 . S
N516 C508 1.360 . S
N516 Tb515 2.660 . S
N516 C517 1.305 . S
C517 N516 1.305 . S
C517 C519 1.407 . S
C517 H524 0.930 . S
C518 C506 1.410 . S
C518 C519 1.345 . S
C518 H526 0.930 . S
C519 C517 1.407 . S
C519 C518 1.345 . S
C519 H521 0.930 . S
H520 C513 0.930 . S
H521 C519 0.930 . S
H522 C510 0.930 . S
H523 C511 0.931 . S
H524 C517 0.930 . S
H525 C539 0.930 . S
H526 C518 0.930 . S
H527 C545 0.930 . S
H528 C536 0.930 . S
H529 C543 0.931 . S
H530 C507 0.929 . S
H531 C537 0.930 . S
H532 C570 0.930 . S
H533 C514 0.930 . S
H534 C569 0.929 . S
N535 Tb504 2.660 . S
N535 C536 1.305 . S
N535 C540 1.360 . S
C536 H528 0.930 . S
C536 N535 1.305 . S
C536 C539 1.407 . S
C537 H531 0.930 . S
C537 C538 1.410 . S
C537 C539 1.345 . S
C538 C537 1.410 . S
C538 C540 1.417 . S
C538 C570 1.432 . S
C539 H525 0.930 . S
C539 C536 1.407 . S
C539 C537 1.345 . S
C540 N535 1.360 . S
C540 C538 1.417 . S
C540 C544 1.432 . S
H541 C546 0.930 . S
N542 Tb504 2.600 . S
N542 C544 1.359 . S
N542 C545 1.327 . S
C543 H529 0.931 . S
C543 C545 1.392 . S
C543 C546 1.370 . S
C544 C540 1.432 . S
C544 N542 1.359 . S
C544 C547 1.414 . S
C545 H527 0.930 . S
C545 N542 1.327 . S
C545 C543 1.392 . S
C546 H541 0.930 . S
C546 C543 1.370 . S
C546 C547 1.385 . S
C547 C544 1.414 . S
C547 C546 1.385 . S
C547 C569 1.444 . S
O548 Tb504 2.546 . S
O548 C568 1.251 . S
O549 Tb504 2.610 . S
O549 Tb515 2.362 . S
O549 C560 1.283 . S
O550 Tb515 2.421 . S
O550 C567 1.262 . S
O551 Tb504 2.320 . S
O551 C567 1.260 . S
O552 Tb504 2.552 . S
O552 C560 1.243 . S
O553 Tb504 2.413 . S
O553 C568 1.256 . S
O554 Tb515 2.546 . S
O554 C579 1.251 . S
O555 Tb504 2.362 . S
O555 Tb515 2.610 . S
O555 C571 1.283 . S
O556 Tb504 2.421 . S
O556 C578 1.262 . S
O557 Tb515 2.320 . S
O557 C578 1.260 . S
O558 Tb515 2.552 . S
O558 C571 1.243 . S
O559 Tb515 2.413 . S
O559 C579 1.256 . S
C560 O549 1.283 . S
C560 O552 1.243 . S
C561 C563 1.382 . S
C561 C565 1.393 . S
C561 C568 1.500 . S
C562 C563 1.400 . S
C562 C564 1.384 . S
C563 C561 1.382 . S
C563 C562 1.400 . S
C563 H580 0.930 . S
C564 C562 1.384 . S
C564 C566 1.392 . S
C564 H581 0.931 1_554 S
C565 C561 1.393 . S
C565 C566 1.401 . S
C565 H582 0.930 . S
C566 C564 1.392 . S
C566 C565 1.401 . S
C566 H583 0.930 . S
C567 O550 1.262 . S
C567 O551 1.260 . S
C568 Tb504 2.833 . S
C568 O548 1.251 . S
C568 O553 1.256 . S
C568 C561 1.500 . S
C569 H534 0.929 . S
C569 C547 1.444 . S
C569 C570 1.317 . S
C570 H532 0.930 . S
C570 C538 1.432 . S
C570 C569 1.317 . S
C571 O555 1.283 . S
C571 O558 1.243 . S
C572 C573 1.382 . S
C572 C576 1.393 . S
C572 C579 1.500 . S
C573 C572 1.382 . S
C573 C574 1.400 . S
C573 H584 0.930 . S
C574 C573 1.400 . S
C574 C575 1.384 . S
C575 C574 1.384 . S
C575 C577 1.392 . S
C575 H585 0.931 . S
C576 C572 1.393 . S
C576 C577 1.401 . S
C576 H586 0.930 . S
C577 C575 1.392 . S
C577 C576 1.401 . S
C577 H587 0.930 . S
C578 O556 1.262 . S
C578 O557 1.260 . S
C579 Tb515 2.833 . S
C579 O554 1.251 . S
C579 O559 1.256 . S
C579 C572 1.500 . S
H580 C563 0.930 . S
H581 C564 0.931 1_556 S
H582 C565 0.930 . S
H583 C566 0.930 . S
H584 C573 0.930 . S
H585 C575 0.931 . S
H586 C576 0.930 . S
H587 C577 0.930 . S
Tb588 N619 2.660 . S
Tb588 N626 2.600 . S
Tb588 O632 2.546 . S
Tb588 O633 2.610 . S
Tb588 O635 2.320 . S
Tb588 O636 2.552 . S
Tb588 O637 2.413 . S
Tb588 O639 2.362 . S
Tb588 O640 2.421 . S
Tb588 C652 2.833 . S
C589 C592 1.432 . S
C589 C593 1.414 . S
C589 N596 1.359 . S
C590 C592 1.417 . S
C590 C594 1.432 . S
C590 C602 1.410 . S
C591 C593 1.444 . S
C591 C594 1.317 . S
C591 H614 0.929 . S
C592 C589 1.432 . S
C592 C590 1.417 . S
C592 N600 1.360 . S
C593 C589 1.414 . S
C593 C591 1.444 . S
C593 C598 1.385 . S
C594 C590 1.432 . S
C594 C591 1.317 . S
C594 H606 0.930 . S
C595 C597 1.392 . S
C595 C598 1.370 . S
C595 H607 0.931 . S
N596 C589 1.359 . S
N596 C597 1.327 . S
N596 Tb599 2.600 . S
C597 C595 1.392 . S
C597 N596 1.327 . S
C597 H604 0.930 . S
C598 C593 1.385 . S
C598 C595 1.370 . S
C598 H617 0.930 . S
Tb599 N596 2.600 . S
Tb599 N600 2.660 . S
Tb599 O633 2.362 . S
Tb599 O634 2.421 . S
Tb599 O638 2.546 . S
Tb599 O639 2.610 . S
Tb599 O641 2.320 . S
Tb599 O642 2.552 . S
Tb599 O643 2.413 . S
Tb599 C663 2.833 . S
N600 C592 1.360 . S
N600 Tb599 2.660 . S
N600 C601 1.305 . S
C601 N600 1.305 . S
C601 C603 1.407 . S
C601 H608 0.930 . S
C602 C590 1.410 . S
C602 C603 1.345 . S
C602 H610 0.930 . S
C603 C601 1.407 . S
C603 C602 1.345 . S
C603 H605 0.930 . S
H604 C597 0.930 . S
H605 C603 0.930 . S
H606 C594 0.930 . S
H607 C595 0.931 . S
H608 C601 0.930 . S
H609 C623 0.930 . S
H610 C602 0.930 . S
H611 C629 0.930 . S
H612 C620 0.930 . S
H613 C627 0.931 . S
H614 C591 0.929 . S
H615 C621 0.930 . S
H616 C654 0.930 . S
H617 C598 0.930 . S
H618 C653 0.929 . S
N619 Tb588 2.660 . S
N619 C620 1.305 . S
N619 C624 1.360 . S
C620 H612 0.930 . S
C620 N619 1.305 . S
C620 C623 1.407 . S
C621 H615 0.930 . S
C621 C622 1.410 . S
C621 C623 1.345 . S
C622 C621 1.410 . S
C622 C624 1.417 . S
C622 C654 1.432 . S
C623 H609 0.930 . S
C623 C620 1.407 . S
C623 C621 1.345 . S
C624 N619 1.360 . S
C624 C622 1.417 . S
C624 C628 1.432 . S
H625 C630 0.930 . S
N626 Tb588 2.600 . S
N626 C628 1.359 . S
N626 C629 1.327 . S
C627 H613 0.931 . S
C627 C629 1.392 . S
C627 C630 1.370 . S
C628 C624 1.432 . S
C628 N626 1.359 . S
C628 C631 1.414 . S
C629 H611 0.930 . S
C629 N626 1.327 . S
C629 C627 1.392 . S
C630 H625 0.930 . S
C630 C627 1.370 . S
C630 C631 1.385 . S
C631 C628 1.414 . S
C631 C630 1.385 . S
C631 C653 1.444 . S
O632 Tb588 2.546 . S
O632 C652 1.251 . S
O633 Tb588 2.610 . S
O633 Tb599 2.362 . S
O633 C644 1.283 . S
O634 Tb599 2.421 . S
O634 C651 1.262 . S
O635 Tb588 2.320 . S
O635 C651 1.260 . S
O636 Tb588 2.552 . S
O636 C644 1.243 . S
O637 Tb588 2.413 . S
O637 C652 1.256 . S
O638 Tb599 2.546 . S
O638 C663 1.251 . S
O639 Tb588 2.362 . S
O639 Tb599 2.610 . S
O639 C655 1.283 . S
O640 Tb588 2.421 . S
O640 C662 1.262 . S
O641 Tb599 2.320 . S
O641 C662 1.260 . S
O642 Tb599 2.552 . S
O642 C655 1.243 . S
O643 Tb599 2.413 . S
O643 C663 1.256 . S
C644 O633 1.283 . S
C644 O636 1.243 . S
C645 C647 1.382 . S
C645 C649 1.393 . S
C645 C652 1.500 . S
C646 C647 1.400 . S
C646 C648 1.384 . S
C647 C645 1.382 . S
C647 C646 1.400 . S
C647 H664 0.930 . S
C648 C646 1.384 . S
C648 C650 1.392 . S
C648 H665 0.931 . S
C649 C645 1.393 . S
C649 C650 1.401 . S
C649 H666 0.930 . S
C650 C648 1.392 . S
C650 C649 1.401 . S
C650 H667 0.930 . S
C651 O634 1.262 . S
C651 O635 1.260 . S
C652 Tb588 2.833 . S
C652 O632 1.251 . S
C652 O637 1.256 . S
C652 C645 1.500 . S
C653 H618 0.929 . S
C653 C631 1.444 . S
C653 C654 1.317 . S
C654 H616 0.930 . S
C654 C622 1.432 . S
C654 C653 1.317 . S
C655 O639 1.283 . S
C655 O642 1.243 . S
C656 C657 1.382 . S
C656 C660 1.393 . S
C656 C663 1.500 . S
C657 C656 1.382 . S
C657 C658 1.400 . S
C657 H668 0.930 . S
C658 C657 1.400 . S
C658 C659 1.384 . S
C659 C658 1.384 . S
C659 C661 1.392 . S
C659 H669 0.931 1_556 S
C660 C656 1.393 . S
C660 C661 1.401 . S
C660 H670 0.930 . S
C661 C659 1.392 . S
C661 C660 1.401 . S
C661 H671 0.930 . S
C662 O640 1.262 . S
C662 O641 1.260 . S
C663 Tb599 2.833 . S
C663 O638 1.251 . S
C663 O643 1.256 . S
C663 C656 1.500 . S
H664 C647 0.930 . S
H665 C648 0.931 . S
H666 C649 0.930 . S
H667 C650 0.930 . S
H668 C657 0.930 . S
H669 C659 0.931 1_554 S
H670 C660 0.930 . S
H671 C661 0.930 . S
Tb672 N703 2.660 . S
Tb672 N710 2.600 . S
Tb672 O716 2.546 . S
Tb672 O717 2.610 . S
Tb672 O719 2.320 . S
Tb672 O720 2.552 . S
Tb672 O721 2.413 . S
Tb672 O723 2.362 . S
Tb672 O724 2.421 . S
Tb672 C736 2.833 . S
C673 C676 1.432 . S
C673 C677 1.414 . S
C673 N680 1.359 . S
C674 C676 1.417 . S
C674 C678 1.432 . S
C674 C686 1.410 . S
C675 C677 1.441 1_554 S
C675 C678 1.314 1_554 S
C675 H698 0.936 . S
C676 C673 1.432 . S
C676 C674 1.417 . S
C676 N684 1.360 . S
C677 C673 1.414 . S
C677 C675 1.441 1_556 S
C677 C682 1.384 1_556 S
C678 C674 1.432 . S
C678 C675 1.314 1_556 S
C678 H690 0.930 . S
C679 C681 1.392 . S
C679 C682 1.369 1_556 S
C679 H691 0.931 . S
N680 C673 1.359 . S
N680 C681 1.327 . S
N680 Tb683 2.600 . S
C681 C679 1.392 . S
C681 N680 1.327 . S
C681 H688 0.930 . S
C682 C677 1.384 1_554 S
C682 C679 1.369 1_554 S
C682 H701 0.930 . S
Tb683 N680 2.600 . S
Tb683 N684 2.660 . S
Tb683 O717 2.362 . S
Tb683 O718 2.421 . S
Tb683 O722 2.546 1_556 S
Tb683 O723 2.610 . S
Tb683 O725 2.320 . S
Tb683 O726 2.552 . S
Tb683 O727 2.413 1_556 S
Tb683 C747 2.833 1_556 S
N684 C676 1.360 . S
N684 Tb683 2.660 . S
N684 C685 1.305 . S
C685 N684 1.305 . S
C685 C687 1.407 . S
C685 H692 0.930 . S
C686 C674 1.410 . S
C686 C687 1.345 . S
C686 H694 0.930 . S
C687 C685 1.407 . S
C687 C686 1.345 . S
C687 H689 0.930 . S
H688 C681 0.930 . S
H689 C687 0.930 . S
H690 C678 0.930 . S
H691 C679 0.931 . S
H692 C685 0.930 . S
H693 C707 0.930 . S
H694 C686 0.930 . S
H695 C713 0.930 . S
H696 C704 0.930 . S
H697 C711 0.931 . S
H698 C675 0.936 . S
H699 C705 0.930 . S
H700 C738 0.930 . S
H701 C682 0.930 . S
H702 C737 0.929 . S
N703 Tb672 2.660 . S
N703 C704 1.305 . S
N703 C708 1.360 . S
C704 H696 0.930 . S
C704 N703 1.305 . S
C704 C707 1.407 . S
C705 H699 0.930 . S
C705 C706 1.410 . S
C705 C707 1.345 . S
C706 C705 1.410 . S
C706 C708 1.417 . S
C706 C738 1.432 . S
C707 H693 0.930 . S
C707 C704 1.407 . S
C707 C705 1.345 . S
C708 N703 1.360 . S
C708 C706 1.417 . S
C708 C712 1.432 . S
H709 C714 0.930 . S
N710 Tb672 2.600 . S
N710 C712 1.359 . S
N710 C713 1.327 . S
C711 H697 0.931 . S
C711 C713 1.392 . S
C711 C714 1.370 . S
C712 C708 1.432 . S
C712 N710 1.359 . S
C712 C715 1.414 . S
C713 H695 0.930 . S
C713 N710 1.327 . S
C713 C711 1.392 . S
C714 H709 0.930 . S
C714 C711 1.370 . S
C714 C715 1.385 . S
C715 C712 1.414 . S
C715 C714 1.385 . S
C715 C737 1.444 . S
O716 Tb672 2.546 . S
O716 C736 1.251 . S
O717 Tb672 2.610 . S
O717 Tb683 2.362 . S
O717 C728 1.283 . S
O718 Tb683 2.421 . S
O718 C735 1.262 . S
O719 Tb672 2.320 . S
O719 C735 1.260 . S
O720 Tb672 2.552 . S
O720 C728 1.243 . S
O721 Tb672 2.413 . S
O721 C736 1.256 . S
O722 Tb683 2.546 1_554 S
O722 C747 1.251 . S
O723 Tb672 2.362 . S
O723 Tb683 2.610 . S
O723 C739 1.283 . S
O724 Tb672 2.421 . S
O724 C746 1.262 . S
O725 Tb683 2.320 . S
O725 C746 1.260 . S
O726 Tb683 2.552 . S
O726 C739 1.243 . S
O727 Tb683 2.413 1_554 S
O727 C747 1.256 . S
C728 O717 1.283 . S
C728 O720 1.243 . S
C729 C731 1.382 . S
C729 C733 1.393 . S
C729 C736 1.500 . S
C730 C731 1.400 . S
C730 C732 1.384 . S
C731 C729 1.382 . S
C731 C730 1.400 . S
C731 H748 0.930 . S
C732 C730 1.384 . S
C732 C734 1.392 . S
C732 H749 0.931 . S
C733 C729 1.393 . S
C733 C734 1.401 . S
C733 H750 0.930 . S
C734 C732 1.392 . S
C734 C733 1.401 . S
C734 H751 0.930 . S
C735 O718 1.262 . S
C735 O719 1.260 . S
C736 Tb672 2.833 . S
C736 O716 1.251 . S
C736 O721 1.256 . S
C736 C729 1.500 . S
C737 H702 0.929 . S
C737 C715 1.444 . S
C737 C738 1.317 . S
C738 H700 0.930 . S
C738 C706 1.432 . S
C738 C737 1.317 . S
C739 O723 1.283 . S
C739 O726 1.243 . S
C740 C741 1.382 . S
C740 C744 1.393 . S
C740 C747 1.500 . S
C741 C740 1.382 . S
C741 C742 1.400 . S
C741 H752 0.930 . S
C742 C741 1.400 . S
C742 C743 1.384 . S
C743 C742 1.384 . S
C743 C745 1.392 . S
C743 H753 0.931 . S
C744 C740 1.393 . S
C744 C745 1.401 . S
C744 H754 0.930 . S
C745 C743 1.392 . S
C745 C744 1.401 . S
C745 H755 0.930 . S
C746 O724 1.262 . S
C746 O725 1.260 . S
C747 Tb683 2.833 1_554 S
C747 O722 1.251 . S
C747 O727 1.256 . S
C747 C740 1.500 . S
H748 C731 0.930 . S
H749 C732 0.931 . S
H750 C733 0.930 . S
H751 C734 0.930 . S
H752 C741 0.930 . S
H753 C743 0.931 . S
H754 C744 0.930 . S
H755 C745 0.930 . S
Tb756 N787 2.660 . S
Tb756 N794 2.600 . S
Tb756 O800 2.546 . S
Tb756 O801 2.610 . S
Tb756 O803 2.320 . S
Tb756 O804 2.552 . S
Tb756 O805 2.413 . S
Tb756 O807 2.362 . S
Tb756 O808 2.421 . S
Tb756 C820 2.833 . S
C757 C760 1.432 . S
C757 C761 1.414 . S
C757 N764 1.359 . S
C758 C760 1.417 . S
C758 C762 1.432 . S
C758 C770 1.410 . S
C759 C761 1.444 . S
C759 C762 1.317 . S
C759 H782 0.929 . S
C760 C757 1.432 . S
C760 C758 1.417 . S
C760 N768 1.360 . S
C761 C757 1.414 . S
C761 C759 1.444 . S
C761 C766 1.385 . S
C762 C758 1.432 . S
C762 C759 1.317 . S
C762 H774 0.930 . S
C763 C765 1.392 . S
C763 C766 1.370 . S
C763 H775 0.931 . S
N764 C757 1.359 . S
N764 C765 1.327 . S
N764 Tb767 2.600 . S
C765 C763 1.392 . S
C765 N764 1.327 . S
C765 H772 0.930 . S
C766 C761 1.385 . S
C766 C763 1.370 . S
C766 H785 0.930 . S
Tb767 N764 2.600 . S
Tb767 N768 2.660 . S
Tb767 O801 2.362 . S
Tb767 O802 2.421 . S
Tb767 O806 2.546 . S
Tb767 O807 2.610 . S
Tb767 O809 2.320 . S
Tb767 O810 2.552 . S
Tb767 O811 2.413 . S
Tb767 C831 2.833 . S
N768 C760 1.360 . S
N768 Tb767 2.660 . S
N768 C769 1.305 . S
C769 N768 1.305 . S
C769 C771 1.407 . S
C769 H776 0.930 . S
C770 C758 1.410 . S
C770 C771 1.345 . S
C770 H778 0.930 . S
C771 C769 1.407 . S
C771 C770 1.345 . S
C771 H773 0.930 . S
H772 C765 0.930 . S
H773 C771 0.930 . S
H774 C762 0.930 . S
H775 C763 0.931 . S
H776 C769 0.930 . S
H777 C791 0.930 . S
H778 C770 0.930 . S
H779 C797 0.930 . S
H780 C788 0.930 . S
H781 C795 0.931 . S
H782 C759 0.929 . S
H783 C789 0.930 . S
H784 C822 0.930 . S
H785 C766 0.930 . S
H786 C821 0.929 . S
N787 Tb756 2.660 . S
N787 C788 1.305 . S
N787 C792 1.360 . S
C788 H780 0.930 . S
C788 N787 1.305 . S
C788 C791 1.407 . S
C789 H783 0.930 . S
C789 C790 1.410 . S
C789 C791 1.345 . S
C790 C789 1.410 . S
C790 C792 1.417 . S
C790 C822 1.432 . S
C791 H777 0.930 . S
C791 C788 1.407 . S
C791 C789 1.345 . S
C792 N787 1.360 . S
C792 C790 1.417 . S
C792 C796 1.432 . S
H793 C798 0.930 . S
N794 Tb756 2.600 . S
N794 C796 1.359 . S
N794 C797 1.327 . S
C795 H781 0.931 . S
C795 C797 1.392 . S
C795 C798 1.370 . S
C796 C792 1.432 . S
C796 N794 1.359 . S
C796 C799 1.414 . S
C797 H779 0.930 . S
C797 N794 1.327 . S
C797 C795 1.392 . S
C798 H793 0.930 . S
C798 C795 1.370 . S
C798 C799 1.385 . S
C799 C796 1.414 . S
C799 C798 1.385 . S
C799 C821 1.444 . S
O800 Tb756 2.546 . S
O800 C820 1.251 . S
O801 Tb756 2.610 . S
O801 Tb767 2.362 . S
O801 C812 1.283 . S
O802 Tb767 2.421 . S
O802 C819 1.262 . S
O803 Tb756 2.320 . S
O803 C819 1.260 . S
O804 Tb756 2.552 . S
O804 C812 1.243 . S
O805 Tb756 2.413 . S
O805 C820 1.256 . S
O806 Tb767 2.546 . S
O806 C831 1.251 . S
O807 Tb756 2.362 . S
O807 Tb767 2.610 . S
O807 C823 1.283 . S
O808 Tb756 2.421 . S
O808 C830 1.262 . S
O809 Tb767 2.320 . S
O809 C830 1.260 . S
O810 Tb767 2.552 . S
O810 C823 1.243 . S
O811 Tb767 2.413 . S
O811 C831 1.256 . S
C812 O801 1.283 . S
C812 O804 1.243 . S
C813 C815 1.382 . S
C813 C817 1.393 . S
C813 C820 1.500 . S
C814 C815 1.400 . S
C814 C816 1.384 . S
C815 C813 1.382 . S
C815 C814 1.400 . S
C815 H832 0.930 . S
C816 C814 1.384 . S
C816 C818 1.392 . S
C816 H833 0.931 1_556 S
C817 C813 1.393 . S
C817 C818 1.401 . S
C817 H834 0.930 . S
C818 C816 1.392 . S
C818 C817 1.401 . S
C818 H835 0.930 . S
C819 O802 1.262 . S
C819 O803 1.260 . S
C820 Tb756 2.833 . S
C820 O800 1.251 . S
C820 O805 1.256 . S
C820 C813 1.500 . S
C821 H786 0.929 . S
C821 C799 1.444 . S
C821 C822 1.317 . S
C822 H784 0.930 . S
C822 C790 1.432 . S
C822 C821 1.317 . S
C823 O807 1.283 . S
C823 O810 1.243 . S
C824 C825 1.382 . S
C824 C828 1.393 . S
C824 C831 1.500 . S
C825 C824 1.382 . S
C825 C826 1.400 . S
C825 H836 0.930 . S
C826 C825 1.400 . S
C826 C827 1.384 . S
C827 C826 1.384 . S
C827 C829 1.392 . S
C827 H837 0.931 . S
C828 C824 1.393 . S
C828 C829 1.401 . S
C828 H838 0.930 . S
C829 C827 1.392 . S
C829 C828 1.401 . S
C829 H839 0.930 . S
C830 O808 1.262 . S
C830 O809 1.260 . S
C831 Tb767 2.833 . S
C831 O806 1.251 . S
C831 O811 1.256 . S
C831 C824 1.500 . S
H832 C815 0.930 . S
H833 C816 0.931 1_554 S
H834 C817 0.930 . S
H835 C818 0.930 . S
H836 C825 0.930 . S
H837 C827 0.931 . S
H838 C828 0.930 . S
H839 C829 0.930 . S
Tb840 N871 2.660 . S
Tb840 N878 2.600 . S
Tb840 O884 2.546 . S
Tb840 O885 2.610 . S
Tb840 O887 2.320 . S
Tb840 O888 2.552 . S
Tb840 O889 2.413 . S
Tb840 O891 2.362 . S
Tb840 O892 2.421 . S
Tb840 C904 2.833 . S
C841 C844 1.432 . S
C841 C845 1.414 . S
C841 N848 1.359 . S
C842 C844 1.417 . S
C842 C846 1.432 . S
C842 C854 1.410 . S
C843 C845 1.444 . S
C843 C846 1.317 . S
C843 H866 0.929 . S
C844 C841 1.432 . S
C844 C842 1.417 . S
C844 N852 1.360 . S
C845 C841 1.414 . S
C845 C843 1.444 . S
C845 C850 1.385 . S
C846 C842 1.432 . S
C846 C843 1.317 . S
C846 H858 0.930 . S
C847 C849 1.392 . S
C847 C850 1.370 . S
C847 H859 0.931 . S
N848 C841 1.359 . S
N848 C849 1.327 . S
N848 Tb851 2.600 . S
C849 C847 1.392 . S
C849 N848 1.327 . S
C849 H856 0.930 . S
C850 C845 1.385 . S
C850 C847 1.370 . S
C850 H869 0.930 . S
Tb851 N848 2.600 . S
Tb851 N852 2.660 . S
Tb851 O885 2.362 . S
Tb851 O886 2.421 . S
Tb851 O890 2.546 . S
Tb851 O891 2.610 . S
Tb851 O893 2.320 . S
Tb851 O894 2.552 . S
Tb851 O895 2.413 . S
Tb851 C915 2.833 . S
N852 C844 1.360 . S
N852 Tb851 2.660 . S
N852 C853 1.305 . S
C853 N852 1.305 . S
C853 C855 1.407 . S
C853 H860 0.930 . S
C854 C842 1.410 . S
C854 C855 1.345 . S
C854 H862 0.930 . S
C855 C853 1.407 . S
C855 C854 1.345 . S
C855 H857 0.930 . S
H856 C849 0.930 . S
H857 C855 0.930 . S
H858 C846 0.930 . S
H859 C847 0.931 . S
H860 C853 0.930 . S
H861 C875 0.930 . S
H862 C854 0.930 . S
H863 C881 0.930 . S
H864 C872 0.930 . S
H865 C879 0.931 . S
H866 C843 0.929 . S
H867 C873 0.930 . S
H868 C906 0.930 . S
H869 C850 0.930 . S
H870 C905 0.929 . S
N871 Tb840 2.660 . S
N871 C872 1.305 . S
N871 C876 1.360 . S
C872 H864 0.930 . S
C872 N871 1.305 . S
C872 C875 1.407 . S
C873 H867 0.930 . S
C873 C874 1.410 . S
C873 C875 1.345 . S
C874 C873 1.410 . S
C874 C876 1.417 . S
C874 C906 1.432 . S
C875 H861 0.930 . S
C875 C872 1.407 . S
C875 C873 1.345 . S
C876 N871 1.360 . S
C876 C874 1.417 . S
C876 C880 1.432 . S
H877 C882 0.930 . S
N878 Tb840 2.600 . S
N878 C880 1.359 . S
N878 C881 1.327 . S
C879 H865 0.931 . S
C879 C881 1.392 . S
C879 C882 1.370 . S
C880 C876 1.432 . S
C880 N878 1.359 . S
C880 C883 1.414 . S
C881 H863 0.930 . S
C881 N878 1.327 . S
C881 C879 1.392 . S
C882 H877 0.930 . S
C882 C879 1.370 . S
C882 C883 1.385 . S
C883 C880 1.414 . S
C883 C882 1.385 . S
C883 C905 1.444 . S
O884 Tb840 2.546 . S
O884 C904 1.251 . S
O885 Tb840 2.610 . S
O885 Tb851 2.362 . S
O885 C896 1.283 . S
O886 Tb851 2.421 . S
O886 C903 1.262 . S
O887 Tb840 2.320 . S
O887 C903 1.260 . S
O888 Tb840 2.552 . S
O888 C896 1.243 . S
O889 Tb840 2.413 . S
O889 C904 1.256 . S
O890 Tb851 2.546 . S
O890 C915 1.251 . S
O891 Tb840 2.362 . S
O891 Tb851 2.610 . S
O891 C907 1.283 . S
O892 Tb840 2.421 . S
O892 C914 1.262 . S
O893 Tb851 2.320 . S
O893 C914 1.260 . S
O894 Tb851 2.552 . S
O894 C907 1.243 . S
O895 Tb851 2.413 . S
O895 C915 1.256 . S
C896 O885 1.283 . S
C896 O888 1.243 . S
C897 C899 1.382 . S
C897 C901 1.393 . S
C897 C904 1.500 . S
C898 C899 1.400 . S
C898 C900 1.384 . S
C899 C897 1.382 . S
C899 C898 1.400 . S
C899 H916 0.930 . S
C900 C898 1.384 . S
C900 C902 1.392 . S
C900 H917 0.931 . S
C901 C897 1.393 . S
C901 C902 1.401 . S
C901 H918 0.930 . S
C902 C900 1.392 . S
C902 C901 1.401 . S
C902 H919 0.930 . S
C903 O886 1.262 . S
C903 O887 1.260 . S
C904 Tb840 2.833 . S
C904 O884 1.251 . S
C904 O889 1.256 . S
C904 C897 1.500 . S
C905 H870 0.929 . S
C905 C883 1.444 . S
C905 C906 1.317 . S
C906 H868 0.930 . S
C906 C874 1.432 . S
C906 C905 1.317 . S
C907 O891 1.283 . S
C907 O894 1.243 . S
C908 C909 1.382 . S
C908 C912 1.393 . S
C908 C915 1.500 . S
C909 C908 1.382 . S
C909 C910 1.400 . S
C909 H920 0.930 . S
C910 C909 1.400 . S
C910 C911 1.384 . S
C911 C910 1.384 . S
C911 C913 1.392 . S
C911 H921 0.931 1_554 S
C912 C908 1.393 . S
C912 C913 1.401 . S
C912 H922 0.930 . S
C913 C911 1.392 . S
C913 C912 1.401 . S
C913 H923 0.930 . S
C914 O892 1.262 . S
C914 O893 1.260 . S
C915 Tb851 2.833 . S
C915 O890 1.251 . S
C915 O895 1.256 . S
C915 C908 1.500 . S
H916 C899 0.930 . S
H917 C900 0.931 . S
H918 C901 0.930 . S
H919 C902 0.930 . S
H920 C909 0.930 . S
H921 C911 0.931 1_556 S
H922 C912 0.930 . S
H923 C913 0.930 . S
Tb924 N955 2.660 . S
Tb924 N962 2.600 . S
Tb924 O968 2.546 1_554 S
Tb924 O969 2.610 . S
Tb924 O971 2.320 . S
Tb924 O972 2.552 . S
Tb924 O973 2.413 1_554 S
Tb924 O975 2.362 . S
Tb924 O976 2.421 . S
Tb924 C988 2.833 1_554 S
C925 C928 1.432 . S
C925 C929 1.414 . S
C925 N932 1.359 . S
C926 C928 1.417 . S
C926 C930 1.432 . S
C926 C938 1.410 . S
C927 C929 1.444 . S
C927 C930 1.317 . S
C927 H950 0.929 . S
C928 C925 1.432 . S
C928 C926 1.417 . S
C928 N936 1.360 . S
C929 C925 1.414 . S
C929 C927 1.444 . S
C929 C934 1.385 . S
C930 C926 1.432 . S
C930 C927 1.317 . S
C930 H942 0.930 1_565 S
C931 C933 1.392 . S
C931 C934 1.370 . S
C931 H943 0.931 . S
N932 C925 1.359 . S
N932 C933 1.327 . S
N932 Tb935 2.600 . S
C933 C931 1.392 . S
C933 N932 1.327 . S
C933 H940 0.930 . S
C934 C929 1.385 . S
C934 C931 1.370 . S
C934 H953 0.930 . S
Tb935 N932 2.600 . S
Tb935 N936 2.660 . S
Tb935 O969 2.362 . S
Tb935 O970 2.421 . S
Tb935 O974 2.546 . S
Tb935 O975 2.610 . S
Tb935 O977 2.320 . S
Tb935 O978 2.552 . S
Tb935 O979 2.413 . S
Tb935 C999 2.833 . S
N936 C928 1.360 . S
N936 Tb935 2.660 . S
N936 C937 1.305 . S
C937 N936 1.305 . S
C937 C939 1.407 . S
C937 H944 0.930 . S
C938 C926 1.410 . S
C938 C939 1.345 . S
C938 H946 0.930 . S
C939 C937 1.407 . S
C939 C938 1.345 . S
C939 H941 0.930 . S
H940 C933 0.930 . S
H941 C939 0.930 . S
H942 C930 0.930 1_545 S
H943 C931 0.931 . S
H944 C937 0.930 . S
H945 C959 0.930 . S
H946 C938 0.930 . S
H947 C965 0.930 . S
H948 C956 0.930 . S
H949 C963 0.930 1_556 S
H950 C927 0.929 . S
H951 C957 0.930 . S
H952 C990 0.929 1_556 S
H953 C934 0.930 . S
H954 C989 0.929 . S
N955 Tb924 2.660 . S
N955 C956 1.305 . S
N955 C960 1.360 . S
C956 H948 0.930 . S
C956 N955 1.305 . S
C956 C959 1.407 . S
C957 H951 0.930 . S
C957 C958 1.410 . S
C957 C959 1.345 . S
C958 C957 1.410 . S
C958 C960 1.417 . S
C958 C990 1.435 . S
C959 H945 0.930 . S
C959 C956 1.407 . S
C959 C957 1.345 . S
C960 N955 1.360 . S
C960 C958 1.417 . S
C960 C964 1.432 . S
H961 C966 0.930 . S
N962 Tb924 2.600 . S
N962 C964 1.359 . S
N962 C965 1.327 . S
C963 H949 0.930 1_554 S
C963 C965 1.392 . S
C963 C966 1.370 1_554 S
C964 C960 1.432 . S
C964 N962 1.359 . S
C964 C967 1.414 . S
C965 H947 0.930 . S
C965 N962 1.327 . S
C965 C963 1.392 . S
C966 H961 0.930 . S
C966 C963 1.370 1_556 S
C966 C967 1.385 1_556 S
C967 C964 1.414 . S
C967 C966 1.385 1_554 S
C967 C989 1.444 1_554 S
O968 Tb924 2.546 1_556 S
O968 C988 1.251 . S
O969 Tb924 2.610 . S
O969 Tb935 2.362 . S
O969 C980 1.283 . S
O970 Tb935 2.421 . S
O970 C987 1.262 . S
O971 Tb924 2.320 . S
O971 C987 1.260 . S
O972 Tb924 2.552 . S
O972 C980 1.243 . S
O973 Tb924 2.413 1_556 S
O973 C988 1.256 . S
O974 Tb935 2.546 . S
O974 C999 1.251 . S
O975 Tb924 2.362 . S
O975 Tb935 2.610 . S
O975 C991 1.283 . S
O976 Tb924 2.421 . S
O976 C998 1.262 . S
O977 Tb935 2.320 . S
O977 C998 1.260 . S
O978 Tb935 2.552 . S
O978 C991 1.243 . S
O979 Tb935 2.413 . S
O979 C999 1.256 . S
C980 O969 1.283 . S
C980 O972 1.243 . S
C981 C983 1.382 . S
C981 C985 1.393 . S
C981 C988 1.500 . S
C982 C983 1.400 . S
C982 C984 1.384 . S
C983 C981 1.382 . S
C983 C982 1.400 . S
C983 H1000 0.930 . S
C984 C982 1.384 . S
C984 C986 1.392 . S
C984 H1001 0.931 . S
C985 C981 1.393 . S
C985 C986 1.401 . S
C985 H1002 0.930 . S
C986 C984 1.392 . S
C986 C985 1.401 . S
C986 H1003 0.930 . S
C987 O970 1.262 . S
C987 O971 1.260 . S
C988 Tb924 2.833 1_556 S
C988 O968 1.251 . S
C988 O973 1.256 . S
C988 C981 1.500 . S
C989 H954 0.929 . S
C989 C967 1.444 1_556 S
C989 C990 1.315 1_556 S
C990 H952 0.929 1_554 S
C990 C958 1.435 . S
C990 C989 1.315 1_554 S
C991 O975 1.283 . S
C991 O978 1.243 . S
C992 C993 1.382 . S
C992 C996 1.393 . S
C992 C999 1.500 . S
C993 C992 1.382 . S
C993 C994 1.400 . S
C993 H1004 0.930 . S
C994 C993 1.400 . S
C994 C995 1.384 . S
C995 C994 1.384 . S
C995 C997 1.392 . S
C995 H1005 0.931 . S
C996 C992 1.393 . S
C996 C997 1.401 . S
C996 H1006 0.930 . S
C997 C995 1.392 . S
C997 C996 1.401 . S
C997 H1007 0.930 . S
C998 O976 1.262 . S
C998 O977 1.260 . S
C999 Tb935 2.833 . S
C999 O974 1.251 . S
C999 O979 1.256 . S
C999 C992 1.500 . S
H1000 C983 0.930 . S
H1001 C984 0.931 . S
H1002 C985 0.930 . S
H1003 C986 0.930 . S
H1004 C993 0.930 . S
H1005 C995 0.931 . S
H1006 C996 0.930 . S
H1007 C997 0.930 . S
Tb1008 N1039 2.660 . S
Tb1008 N1046 2.600 . S
Tb1008 O1052 2.546 . S
Tb1008 O1053 2.610 . S
Tb1008 O1055 2.320 . S
Tb1008 O1056 2.552 . S
Tb1008 O1057 2.413 . S
Tb1008 O1059 2.362 . S
Tb1008 O1060 2.421 . S
Tb1008 C1072 2.833 . S
C1009 C1012 1.432 . S
C1009 C1013 1.409 1_554 S
C1009 N1016 1.359 . S
C1010 C1012 1.417 . S
C1010 C1014 1.432 1_554 S
C1010 C1022 1.410 . S
C1011 C1013 1.447 . S
C1011 C1014 1.317 . S
C1011 H1034 0.929 . S
C1012 C1009 1.432 . S
C1012 C1010 1.417 . S
C1012 N1020 1.360 . S
C1013 C1009 1.409 1_556 S
C1013 C1011 1.447 . S
C1013 C1018 1.387 . S
C1014 C1010 1.432 1_556 S
C1014 C1011 1.317 . S
C1014 H1026 0.930 . S
C1015 C1017 1.392 . S
C1015 C1018 1.370 1_554 S
C1015 H1027 0.931 1_554 S
N1016 C1009 1.359 . S
N1016 C1017 1.327 . S
N1016 Tb1019 2.600 . S
C1017 C1015 1.392 . S
C1017 N1016 1.327 . S
C1017 H1024 0.930 . S
C1018 C1013 1.387 . S
C1018 C1015 1.370 1_556 S
C1018 H1037 0.930 . S
Tb1019 N1016 2.600 . S
Tb1019 N1020 2.660 . S
Tb1019 O1053 2.362 . S
Tb1019 O1054 2.421 . S
Tb1019 O1058 2.546 1_554 S
Tb1019 O1059 2.610 . S
Tb1019 O1061 2.320 . S
Tb1019 O1062 2.552 . S
Tb1019 O1063 2.413 1_554 S
Tb1019 C1083 2.833 1_554 S
N1020 C1012 1.360 . S
N1020 Tb1019 2.660 . S
N1020 C1021 1.305 . S
C1021 N1020 1.305 . S
C1021 C1023 1.407 . S
C1021 H1028 0.930 . S
C1022 C1010 1.410 . S
C1022 C1023 1.345 . S
C1022 H1030 0.930 . S
C1023 C1021 1.407 . S
C1023 C1022 1.345 . S
C1023 H1025 0.930 . S
H1024 C1017 0.930 . S
H1025 C1023 0.930 . S
H1026 C1014 0.930 . S
H1027 C1015 0.931 1_556 S
H1028 C1021 0.930 . S
H1029 C1043 0.930 . S
H1030 C1022 0.930 . S
H1031 C1049 0.930 . S
H1032 C1040 0.930 . S
H1033 C1047 0.931 . S
H1034 C1011 0.929 . S
H1035 C1041 0.930 . S
H1036 C1074 0.930 . S
H1037 C1018 0.930 . S
H1038 C1073 0.929 . S
N1039 Tb1008 2.660 . S
N1039 C1040 1.305 . S
N1039 C1044 1.360 . S
C1040 H1032 0.930 . S
C1040 N1039 1.305 . S
C1040 C1043 1.407 . S
C1041 H1035 0.930 . S
C1041 C1042 1.410 . S
C1041 C1043 1.345 . S
C1042 C1041 1.410 . S
C1042 C1044 1.417 . S
C1042 C1074 1.432 . S
C1043 H1029 0.930 . S
C1043 C1040 1.407 . S
C1043 C1041 1.345 . S
C1044 N1039 1.360 . S
C1044 C1042 1.417 . S
C1044 C1048 1.432 . S
H1045 C1050 0.930 . S
N1046 Tb1008 2.600 . S
N1046 C1048 1.359 . S
N1046 C1049 1.327 . S
C1047 H1033 0.931 . S
C1047 C1049 1.392 . S
C1047 C1050 1.370 . S
C1048 C1044 1.432 . S
C1048 N1046 1.359 . S
C1048 C1051 1.414 . S
C1049 H1031 0.930 . S
C1049 N1046 1.327 . S
C1049 C1047 1.392 . S
C1050 H1045 0.930 . S
C1050 C1047 1.370 . S
C1050 C1051 1.385 . S
C1051 C1048 1.414 . S
C1051 C1050 1.385 . S
C1051 C1073 1.444 . S
O1052 Tb1008 2.546 . S
O1052 C1072 1.251 . S
O1053 Tb1008 2.610 . S
O1053 Tb1019 2.362 . S
O1053 C1064 1.283 . S
O1054 Tb1019 2.421 . S
O1054 C1071 1.262 . S
O1055 Tb1008 2.320 . S
O1055 C1071 1.260 . S
O1056 Tb1008 2.552 . S
O1056 C1064 1.243 . S
O1057 Tb1008 2.413 . S
O1057 C1072 1.256 . S
O1058 Tb1019 2.546 1_556 S
O1058 C1083 1.251 . S
O1059 Tb1008 2.362 . S
O1059 Tb1019 2.610 . S
O1059 C1075 1.283 . S
O1060 Tb1008 2.421 . S
O1060 C1082 1.262 . S
O1061 Tb1019 2.320 . S
O1061 C1082 1.260 . S
O1062 Tb1019 2.552 . S
O1062 C1075 1.243 . S
O1063 Tb1019 2.413 1_556 S
O1063 C1083 1.256 . S
C1064 O1053 1.283 . S
C1064 O1056 1.243 . S
C1065 C1067 1.382 . S
C1065 C1069 1.393 . S
C1065 C1072 1.500 . S
C1066 C1067 1.400 . S
C1066 C1068 1.384 . S
C1067 C1065 1.382 . S
C1067 C1066 1.400 . S
C1067 H1084 0.930 . S
C1068 C1066 1.384 . S
C1068 C1070 1.392 . S
C1068 H1085 0.931 . S
C1069 C1065 1.393 . S
C1069 C1070 1.401 . S
C1069 H1086 0.930 . S
C1070 C1068 1.392 . S
C1070 C1069 1.401 . S
C1070 H1087 0.930 . S
C1071 O1054 1.262 . S
C1071 O1055 1.260 . S
C1072 Tb1008 2.833 . S
C1072 O1052 1.251 . S
C1072 O1057 1.256 . S
C1072 C1065 1.500 . S
C1073 H1038 0.929 . S
C1073 C1051 1.444 . S
C1073 C1074 1.317 . S
C1074 H1036 0.930 . S
C1074 C1042 1.432 . S
C1074 C1073 1.317 . S
C1075 O1059 1.283 . S
C1075 O1062 1.243 . S
C1076 C1077 1.382 . S
C1076 C1080 1.393 . S
C1076 C1083 1.500 . S
C1077 C1076 1.382 . S
C1077 C1078 1.400 . S
C1077 H1088 0.930 . S
C1078 C1077 1.400 . S
C1078 C1079 1.384 . S
C1079 C1078 1.384 . S
C1079 C1081 1.392 . S
C1079 H1089 0.931 . S
C1080 C1076 1.393 . S
C1080 C1081 1.401 . S
C1080 H1090 0.930 . S
C1081 C1079 1.392 . S
C1081 C1080 1.401 . S
C1081 H1091 0.930 . S
C1082 O1060 1.262 . S
C1082 O1061 1.260 . S
C1083 Tb1019 2.833 1_556 S
C1083 O1058 1.251 . S
C1083 O1063 1.256 . S
C1083 C1076 1.500 . S
H1084 C1067 0.930 . S
H1085 C1068 0.931 . S
H1086 C1069 0.930 . S
H1087 C1070 0.930 . S
H1088 C1077 0.930 . S
H1089 C1079 0.931 . S
H1090 C1080 0.930 . S
H1091 C1081 0.930 . S
Tb1092 N1123 2.660 . S
Tb1092 N1130 2.600 . S
Tb1092 O1136 2.546 1_556 S
Tb1092 O1137 2.610 . S
Tb1092 O1139 2.320 . S
Tb1092 O1140 2.552 . S
Tb1092 O1141 2.413 1_556 S
Tb1092 O1143 2.362 . S
Tb1092 O1144 2.421 . S
Tb1092 C1156 2.833 1_556 S
C1093 C1096 1.432 . S
C1093 C1097 1.414 . S
C1093 N1100 1.359 . S
C1094 C1096 1.417 . S
C1094 C1098 1.432 . S
C1094 C1106 1.410 . S
C1095 C1097 1.444 . S
C1095 C1098 1.317 . S
C1095 H1118 0.929 . S
C1096 C1093 1.432 . S
C1096 C1094 1.417 . S
C1096 N1104 1.360 . S
C1097 C1093 1.414 . S
C1097 C1095 1.444 . S
C1097 C1102 1.385 . S
C1098 C1094 1.432 . S
C1098 C1095 1.317 . S
C1098 H1110 0.930 1_545 S
C1099 C1101 1.392 . S
C1099 C1102 1.370 . S
C1099 H1111 0.931 . S
N1100 C1093 1.359 . S
N1100 C1101 1.327 . S
N1100 Tb1103 2.600 . S
C1101 C1099 1.392 . S
C1101 N1100 1.327 . S
C1101 H1108 0.930 . S
C1102 C1097 1.385 . S
C1102 C1099 1.370 . S
C1102 H1121 0.930 . S
Tb1103 N1100 2.600 . S
Tb1103 N1104 2.660 . S
Tb1103 O1137 2.362 . S
Tb1103 O1138 2.421 . S
Tb1103 O1142 2.546 . S
Tb1103 O1143 2.610 . S
Tb1103 O1145 2.320 . S
Tb1103 O1146 2.552 . S
Tb1103 O1147 2.413 . S
Tb1103 C1167 2.833 . S
N1104 C1096 1.360 . S
N1104 Tb1103 2.660 . S
N1104 C1105 1.305 . S
C1105 N1104 1.305 . S
C1105 C1107 1.407 . S
C1105 H1112 0.930 . S
C1106 C1094 1.410 . S
C1106 C1107 1.345 . S
C1106 H1114 0.930 . S
C1107 C1105 1.407 . S
C1107 C1106 1.345 . S
C1107 H1109 0.930 . S
H1108 C1101 0.930 . S
H1109 C1107 0.930 . S
H1110 C1098 0.930 1_565 S
H1111 C1099 0.931 . S
H1112 C1105 0.930 . S
H1113 C1127 0.930 . S
H1114 C1106 0.930 . S
H1115 C1133 0.930 . S
H1116 C1124 0.930 . S
H1117 C1131 0.929 1_554 S
H1118 C1095 0.929 . S
H1119 C1125 0.930 . S
H1120 C1158 0.930 . S
H1121 C1102 0.930 . S
H1122 C1157 0.929 . S
N1123 Tb1092 2.660 . S
N1123 C1124 1.305 . S
N1123 C1128 1.360 . S
C1124 H1116 0.930 . S
C1124 N1123 1.305 . S
C1124 C1127 1.407 . S
C1125 H1119 0.930 . S
C1125 C1126 1.410 . S
C1125 C1127 1.345 . S
C1126 C1125 1.410 . S
C1126 C1128 1.417 . S
C1126 C1158 1.432 1_556 S
C1127 H1113 0.930 . S
C1127 C1124 1.407 . S
C1127 C1125 1.345 . S
C1128 N1123 1.360 . S
C1128 C1126 1.417 . S
C1128 C1132 1.432 . S
H1129 C1134 0.930 . S
N1130 Tb1092 2.600 . S
N1130 C1132 1.359 . S
N1130 C1133 1.327 . S
C1131 H1117 0.929 1_556 S
C1131 C1133 1.397 . S
C1131 C1134 1.367 1_556 S
C1132 C1128 1.432 . S
C1132 N1130 1.359 . S
C1132 C1135 1.414 1_556 S
C1133 H1115 0.930 . S
C1133 N1130 1.327 . S
C1133 C1131 1.397 . S
C1134 H1129 0.930 . S
C1134 C1131 1.367 1_554 S
C1134 C1135 1.385 . S
C1135 C1132 1.414 1_554 S
C1135 C1134 1.385 . S
C1135 C1157 1.444 . S
O1136 Tb1092 2.546 1_554 S
O1136 C1156 1.251 . S
O1137 Tb1092 2.610 . S
O1137 Tb1103 2.362 . S
O1137 C1148 1.283 . S
O1138 Tb1103 2.421 . S
O1138 C1155 1.262 . S
O1139 Tb1092 2.320 . S
O1139 C1155 1.260 . S
O1140 Tb1092 2.552 . S
O1140 C1148 1.243 . S
O1141 Tb1092 2.413 1_554 S
O1141 C1156 1.256 . S
O1142 Tb1103 2.546 . S
O1142 C1167 1.251 . S
O1143 Tb1092 2.362 . S
O1143 Tb1103 2.610 . S
O1143 C1159 1.283 . S
O1144 Tb1092 2.421 . S
O1144 C1166 1.262 . S
O1145 Tb1103 2.320 . S
O1145 C1166 1.260 . S
O1146 Tb1103 2.552 . S
O1146 C1159 1.243 . S
O1147 Tb1103 2.413 . S
O1147 C1167 1.256 . S
C1148 O1137 1.283 . S
C1148 O1140 1.243 . S
C1149 C1151 1.382 . S
C1149 C1153 1.393 . S
C1149 C1156 1.500 . S
C1150 C1151 1.400 . S
C1150 C1152 1.384 . S
C1151 C1149 1.382 . S
C1151 C1150 1.400 . S
C1151 H1168 0.930 . S
C1152 C1150 1.384 . S
C1152 C1154 1.392 . S
C1152 H1169 0.931 . S
C1153 C1149 1.393 . S
C1153 C1154 1.401 . S
C1153 H1170 0.930 . S
C1154 C1152 1.392 . S
C1154 C1153 1.401 . S
C1154 H1171 0.930 . S
C1155 O1138 1.262 . S
C1155 O1139 1.260 . S
C1156 Tb1092 2.833 1_554 S
C1156 O1136 1.251 . S
C1156 O1141 1.256 . S
C1156 C1149 1.500 . S
C1157 H1122 0.929 . S
C1157 C1135 1.444 . S
C1157 C1158 1.317 . S
C1158 H1120 0.930 . S
C1158 C1126 1.432 1_554 S
C1158 C1157 1.317 . S
C1159 O1143 1.283 . S
C1159 O1146 1.243 . S
C1160 C1161 1.382 . S
C1160 C1164 1.393 . S
C1160 C1167 1.500 . S
C1161 C1160 1.382 . S
C1161 C1162 1.400 . S
C1161 H1172 0.930 . S
C1162 C1161 1.400 . S
C1162 C1163 1.384 . S
C1163 C1162 1.384 . S
C1163 C1165 1.392 . S
C1163 H1173 0.931 . S
C1164 C1160 1.393 . S
C1164 C1165 1.401 . S
C1164 H1174 0.930 . S
C1165 C1163 1.392 . S
C1165 C1164 1.401 . S
C1165 H1175 0.930 . S
C1166 O1144 1.262 . S
C1166 O1145 1.260 . S
C1167 Tb1103 2.833 . S
C1167 O1142 1.251 . S
C1167 O1147 1.256 . S
C1167 C1160 1.500 . S
H1168 C1151 0.930 . S
H1169 C1152 0.931 . S
H1170 C1153 0.930 . S
H1171 C1154 0.930 . S
H1172 C1161 0.930 . S
H1173 C1163 0.931 . S
H1174 C1164 0.930 . S
H1175 C1165 0.930 . S
Tb1176 N1207 2.660 . S
Tb1176 N1214 2.600 . S
Tb1176 O1220 2.546 . S
Tb1176 O1221 2.610 . S
Tb1176 O1223 2.320 . S
Tb1176 O1224 2.552 . S
Tb1176 O1225 2.413 . S
Tb1176 O1227 2.362 . S
Tb1176 O1228 2.421 . S
Tb1176 C1240 2.833 . S
C1177 C1180 1.432 . S
C1177 C1181 1.414 . S
C1177 N1184 1.359 . S
C1178 C1180 1.417 . S
C1178 C1182 1.432 . S
C1178 C1190 1.410 . S
C1179 C1181 1.444 . S
C1179 C1182 1.317 . S
C1179 H1202 0.929 . S
C1180 C1177 1.432 . S
C1180 C1178 1.417 . S
C1180 N1188 1.360 . S
C1181 C1177 1.414 . S
C1181 C1179 1.444 . S
C1181 C1186 1.385 . S
C1182 C1178 1.432 . S
C1182 C1179 1.317 . S
C1182 H1194 0.930 . S
C1183 C1185 1.392 . S
C1183 C1186 1.370 . S
C1183 H1195 0.931 . S
N1184 C1177 1.359 . S
N1184 C1185 1.327 . S
N1184 Tb1187 2.600 . S
C1185 C1183 1.392 . S
C1185 N1184 1.327 . S
C1185 H1192 0.930 . S
C1186 C1181 1.385 . S
C1186 C1183 1.370 . S
C1186 H1205 0.930 . S
Tb1187 N1184 2.600 . S
Tb1187 N1188 2.660 . S
Tb1187 O1221 2.362 . S
Tb1187 O1222 2.421 . S
Tb1187 O1226 2.546 . S
Tb1187 O1227 2.610 . S
Tb1187 O1229 2.320 . S
Tb1187 O1230 2.552 . S
Tb1187 O1231 2.413 . S
Tb1187 C1251 2.833 . S
N1188 C1180 1.360 . S
N1188 Tb1187 2.660 . S
N1188 C1189 1.305 . S
C1189 N1188 1.305 . S
C1189 C1191 1.407 . S
C1189 H1196 0.930 . S
C1190 C1178 1.410 . S
C1190 C1191 1.345 . S
C1190 H1198 0.930 . S
C1191 C1189 1.407 . S
C1191 C1190 1.345 . S
C1191 H1193 0.930 . S
H1192 C1185 0.930 . S
H1193 C1191 0.930 . S
H1194 C1182 0.930 . S
H1195 C1183 0.931 . S
H1196 C1189 0.930 . S
H1197 C1211 0.930 . S
H1198 C1190 0.930 . S
H1199 C1217 0.930 . S
H1200 C1208 0.930 . S
H1201 C1215 0.931 . S
H1202 C1179 0.929 . S
H1203 C1209 0.930 . S
H1204 C1242 0.930 . S
H1205 C1186 0.930 . S
H1206 C1241 0.929 . S
N1207 Tb1176 2.660 . S
N1207 C1208 1.305 . S
N1207 C1212 1.360 . S
C1208 H1200 0.930 . S
C1208 N1207 1.305 . S
C1208 C1211 1.407 . S
C1209 H1203 0.930 . S
C1209 C1210 1.410 . S
C1209 C1211 1.345 . S
C1210 C1209 1.410 . S
C1210 C1212 1.417 . S
C1210 C1242 1.432 . S
C1211 H1197 0.930 . S
C1211 C1208 1.407 . S
C1211 C1209 1.345 . S
C1212 N1207 1.360 . S
C1212 C1210 1.417 . S
C1212 C1216 1.432 . S
H1213 C1218 0.930 . S
N1214 Tb1176 2.600 . S
N1214 C1216 1.359 . S
N1214 C1217 1.327 . S
C1215 H1201 0.931 . S
C1215 C1217 1.392 . S
C1215 C1218 1.370 . S
C1216 C1212 1.432 . S
C1216 N1214 1.359 . S
C1216 C1219 1.414 . S
C1217 H1199 0.930 . S
C1217 N1214 1.327 . S
C1217 C1215 1.392 . S
C1218 H1213 0.930 . S
C1218 C1215 1.370 . S
C1218 C1219 1.385 . S
C1219 C1216 1.414 . S
C1219 C1218 1.385 . S
C1219 C1241 1.444 . S
O1220 Tb1176 2.546 . S
O1220 C1240 1.251 . S
O1221 Tb1176 2.610 . S
O1221 Tb1187 2.362 . S
O1221 C1232 1.283 . S
O1222 Tb1187 2.421 . S
O1222 C1239 1.262 . S
O1223 Tb1176 2.320 . S
O1223 C1239 1.260 . S
O1224 Tb1176 2.552 . S
O1224 C1232 1.243 . S
O1225 Tb1176 2.413 . S
O1225 C1240 1.256 . S
O1226 Tb1187 2.546 . S
O1226 C1251 1.251 . S
O1227 Tb1176 2.362 . S
O1227 Tb1187 2.610 . S
O1227 C1243 1.283 . S
O1228 Tb1176 2.421 . S
O1228 C1250 1.262 . S
O1229 Tb1187 2.320 . S
O1229 C1250 1.260 . S
O1230 Tb1187 2.552 . S
O1230 C1243 1.243 . S
O1231 Tb1187 2.413 . S
O1231 C1251 1.256 . S
C1232 O1221 1.283 . S
C1232 O1224 1.243 . S
C1233 C1235 1.382 . S
C1233 C1237 1.393 . S
C1233 C1240 1.500 . S
C1234 C1235 1.400 . S
C1234 C1236 1.384 . S
C1235 C1233 1.382 . S
C1235 C1234 1.400 . S
C1235 H1252 0.930 . S
C1236 C1234 1.384 . S
C1236 C1238 1.392 . S
C1236 H1253 0.931 . S
C1237 C1233 1.393 . S
C1237 C1238 1.401 . S
C1237 H1254 0.930 . S
C1238 C1236 1.392 . S
C1238 C1237 1.401 . S
C1238 H1255 0.930 . S
C1239 O1222 1.262 . S
C1239 O1223 1.260 . S
C1240 Tb1176 2.833 . S
C1240 O1220 1.251 . S
C1240 O1225 1.256 . S
C1240 C1233 1.500 . S
C1241 H1206 0.929 . S
C1241 C1219 1.444 . S
C1241 C1242 1.317 . S
C1242 H1204 0.930 . S
C1242 C1210 1.432 . S
C1242 C1241 1.317 . S
C1243 O1227 1.283 . S
C1243 O1230 1.243 . S
C1244 C1245 1.382 . S
C1244 C1248 1.393 . S
C1244 C1251 1.500 . S
C1245 C1244 1.382 . S
C1245 C1246 1.400 . S
C1245 H1256 0.930 . S
C1246 C1245 1.400 . S
C1246 C1247 1.384 . S
C1247 C1246 1.384 . S
C1247 C1249 1.392 . S
C1247 H1257 0.931 . S
C1248 C1244 1.393 . S
C1248 C1249 1.401 . S
C1248 H1258 0.930 . S
C1249 C1247 1.392 . S
C1249 C1248 1.401 . S
C1249 H1259 0.930 . S
C1250 O1228 1.262 . S
C1250 O1229 1.260 . S
C1251 Tb1187 2.833 . S
C1251 O1226 1.251 . S
C1251 O1231 1.256 . S
C1251 C1244 1.500 . S
H1252 C1235 0.930 . S
H1253 C1236 0.931 . S
H1254 C1237 0.930 . S
H1255 C1238 0.930 . S
H1256 C1245 0.930 . S
H1257 C1247 0.931 . S
H1258 C1248 0.930 . S
H1259 C1249 0.930 . S
Tb1260 N1291 2.660 . S
Tb1260 N1298 2.600 . S
Tb1260 O1304 2.546 . S
Tb1260 O1305 2.610 . S
Tb1260 O1307 2.320 . S
Tb1260 O1308 2.552 . S
Tb1260 O1309 2.413 . S
Tb1260 O1311 2.362 . S
Tb1260 O1312 2.421 . S
Tb1260 C1324 2.833 . S
C1261 C1264 1.432 . S
C1261 C1265 1.414 . S
C1261 N1268 1.359 . S
C1262 C1264 1.417 . S
C1262 C1266 1.432 . S
C1262 C1274 1.410 . S
C1263 C1265 1.444 . S
C1263 C1266 1.317 . S
C1263 H1286 0.929 . S
C1264 C1261 1.432 . S
C1264 C1262 1.417 . S
C1264 N1272 1.360 . S
C1265 C1261 1.414 . S
C1265 C1263 1.444 . S
C1265 C1270 1.385 . S
C1266 C1262 1.432 . S
C1266 C1263 1.317 . S
C1266 H1278 0.902 1_565 S
C1267 C1269 1.392 . S
C1267 C1270 1.370 . S
C1267 H1279 0.931 . S
N1268 C1261 1.359 . S
N1268 C1269 1.327 . S
N1268 Tb1271 2.600 . S
C1269 C1267 1.392 . S
C1269 N1268 1.327 . S
C1269 H1276 0.930 . S
C1270 C1265 1.385 . S
C1270 C1267 1.370 . S
C1270 H1289 0.930 . S
Tb1271 N1268 2.600 . S
Tb1271 N1272 2.660 . S
Tb1271 O1305 2.362 . S
Tb1271 O1306 2.421 . S
Tb1271 O1310 2.546 . S
Tb1271 O1311 2.610 . S
Tb1271 O1313 2.320 . S
Tb1271 O1314 2.552 . S
Tb1271 O1315 2.413 . S
Tb1271 C1335 2.833 . S
N1272 C1264 1.360 . S
N1272 Tb1271 2.660 . S
N1272 C1273 1.305 . S
C1273 N1272 1.305 . S
C1273 C1275 1.407 . S
C1273 H1280 0.930 . S
C1274 C1262 1.410 . S
C1274 C1275 1.345 . S
C1274 H1282 0.930 . S
C1275 C1273 1.407 . S
C1275 C1274 1.345 . S
C1275 H1277 0.930 . S
H1276 C1269 0.930 . S
H1277 C1275 0.930 . S
H1278 C1266 0.902 1_545 S
H1279 C1267 0.931 . S
H1280 C1273 0.930 . S
H1281 C1295 0.930 . S
H1282 C1274 0.930 . S
H1283 C1301 0.930 . S
H1284 C1292 0.930 . S
H1285 C1299 0.931 . S
H1286 C1263 0.929 . S
H1287 C1293 0.930 . S
H1288 C1326 0.930 . S
H1289 C1270 0.930 . S
H1290 C1325 0.929 . S
N1291 Tb1260 2.660 . S
N1291 C1292 1.305 . S
N1291 C1296 1.360 . S
C1292 H1284 0.930 . S
C1292 N1291 1.305 . S
C1292 C1295 1.407 . S
C1293 H1287 0.930 . S
C1293 C1294 1.410 . S
C1293 C1295 1.345 . S
C1294 C1293 1.410 . S
C1294 C1296 1.417 . S
C1294 C1326 1.432 . S
C1295 H1281 0.930 . S
C1295 C1292 1.407 . S
C1295 C1293 1.345 . S
C1296 N1291 1.360 . S
C1296 C1294 1.417 . S
C1296 C1300 1.432 . S
H1297 C1302 0.930 . S
N1298 Tb1260 2.600 . S
N1298 C1300 1.359 . S
N1298 C1301 1.327 . S
C1299 H1285 0.931 . S
C1299 C1301 1.392 . S
C1299 C1302 1.370 . S
C1300 C1296 1.432 . S
C1300 N1298 1.359 . S
C1300 C1303 1.414 . S
C1301 H1283 0.930 . S
C1301 N1298 1.327 . S
C1301 C1299 1.392 . S
C1302 H1297 0.930 . S
C1302 C1299 1.370 . S
C1302 C1303 1.385 . S
C1303 C1300 1.414 . S
C1303 C1302 1.385 . S
C1303 C1325 1.444 . S
O1304 Tb1260 2.546 . S
O1304 C1324 1.251 . S
O1305 Tb1260 2.610 . S
O1305 Tb1271 2.362 . S
O1305 C1316 1.283 . S
O1306 Tb1271 2.421 . S
O1306 C1323 1.262 . S
O1307 Tb1260 2.320 . S
O1307 C1323 1.260 . S
O1308 Tb1260 2.552 . S
O1308 C1316 1.243 . S
O1309 Tb1260 2.413 . S
O1309 C1324 1.256 . S
O1310 Tb1271 2.546 . S
O1310 C1335 1.251 . S
O1311 Tb1260 2.362 . S
O1311 Tb1271 2.610 . S
O1311 C1327 1.283 . S
O1312 Tb1260 2.421 . S
O1312 C1334 1.262 . S
O1313 Tb1271 2.320 . S
O1313 C1334 1.260 . S
O1314 Tb1271 2.552 . S
O1314 C1327 1.243 . S
O1315 Tb1271 2.413 . S
O1315 C1335 1.256 . S
C1316 O1305 1.283 . S
C1316 O1308 1.243 . S
C1317 C1319 1.382 . S
C1317 C1321 1.393 . S
C1317 C1324 1.500 . S
C1318 C1319 1.400 . S
C1318 C1320 1.384 . S
C1319 C1317 1.382 . S
C1319 C1318 1.400 . S
C1319 H1336 0.930 . S
C1320 C1318 1.384 . S
C1320 C1322 1.392 . S
C1320 H1337 0.931 . S
C1321 C1317 1.393 . S
C1321 C1322 1.401 . S
C1321 H1338 0.930 . S
C1322 C1320 1.392 . S
C1322 C1321 1.401 . S
C1322 H1339 0.930 . S
C1323 O1306 1.262 . S
C1323 O1307 1.260 . S
C1324 Tb1260 2.833 . S
C1324 O1304 1.251 . S
C1324 O1309 1.256 . S
C1324 C1317 1.500 . S
C1325 H1290 0.929 . S
C1325 C1303 1.444 . S
C1325 C1326 1.317 . S
C1326 H1288 0.930 . S
C1326 C1294 1.432 . S
C1326 C1325 1.317 . S
C1327 O1311 1.283 . S
C1327 O1314 1.243 . S
C1328 C1329 1.382 . S
C1328 C1332 1.393 . S
C1328 C1335 1.500 . S
C1329 C1328 1.382 . S
C1329 C1330 1.400 . S
C1329 H1340 0.930 . S
C1330 C1329 1.400 . S
C1330 C1331 1.384 . S
C1331 C1330 1.384 . S
C1331 C1333 1.392 . S
C1331 H1341 0.931 1_554 S
C1332 C1328 1.393 . S
C1332 C1333 1.401 . S
C1332 H1342 0.930 . S
C1333 C1331 1.392 . S
C1333 C1332 1.401 . S
C1333 H1343 0.930 . S
C1334 O1312 1.262 . S
C1334 O1313 1.260 . S
C1335 Tb1271 2.833 . S
C1335 O1310 1.251 . S
C1335 O1315 1.256 . S
C1335 C1328 1.500 . S
H1336 C1319 0.930 . S
H1337 C1320 0.931 . S
H1338 C1321 0.930 . S
H1339 C1322 0.930 . S
H1340 C1329 0.930 . S
H1341 C1331 0.931 1_556 S
H1342 C1332 0.930 . S
H1343 C1333 0.930 . S
H1344 C1352 0.950 . S
H1345 C1357 0.950 . S
H1346 C1354 0.950 . S
H1347 C1356 0.950 . S
H1348 C1358 0.950 . S
H1349 C1360 0.950 . S
H1350 C1362 0.950 . S
H1351 C1363 0.950 . S
C1352 H1344 0.950 . S
C1352 C1353 1.386 . S
C1352 C1354 1.391 . S
C1353 C1352 1.386 . S
C1353 C1357 1.393 . S
C1354 H1346 0.950 . S
C1354 C1352 1.391 . S
C1354 C1355 1.400 . S
C1355 C1354 1.400 . S
C1355 C1356 1.398 . S
C1355 C1361 1.491 . S
C1356 H1347 0.950 . S
C1356 C1355 1.398 . S
C1356 C1357 1.391 . S
C1357 H1345 0.950 . S
C1357 C1353 1.393 . S
C1357 C1356 1.391 . S
C1358 H1348 0.950 . S
C1358 C1359 1.386 . S
C1358 C1360 1.391 . S
C1359 C1358 1.386 . S
C1359 C1363 1.393 . S
C1360 H1349 0.950 . S
C1360 C1358 1.391 . S
C1360 C1361 1.400 . S
C1361 C1355 1.491 . S
C1361 C1360 1.400 . S
C1361 C1362 1.398 . S
C1362 H1350 0.950 . S
C1362 C1361 1.398 . S
C1362 C1363 1.391 . S
C1363 H1351 0.950 . S
C1363 C1359 1.393 . S
C1363 C1362 1.391 . S
H1364 C1372 0.958 . S
H1365 C1377 0.950 . S
H1366 C1374 0.950 . S
H1367 C1376 0.950 . S
H1368 C1378 0.950 . S
H1369 C1380 0.950 . S
H1370 C1382 0.950 . S
H1371 C1383 0.950 . S
C1372 H1364 0.958 . S
C1372 C1373 1.386 1_556 S
C1372 C1374 1.391 . S
C1373 C1372 1.386 1_554 S
C1373 C1377 1.393 1_554 S
C1374 H1366 0.950 . S
C1374 C1372 1.391 . S
C1374 C1375 1.400 . S
C1375 C1374 1.400 . S
C1375 C1376 1.398 . S
C1375 C1381 1.491 . S
C1376 H1367 0.950 . S
C1376 C1375 1.398 . S
C1376 C1377 1.391 . S
C1377 H1365 0.950 . S
C1377 C1373 1.393 1_556 S
C1377 C1376 1.391 . S
C1378 H1368 0.950 . S
C1378 C1379 1.386 . S
C1378 C1380 1.391 . S
C1379 C1378 1.386 . S
C1379 C1383 1.393 . S
C1380 H1369 0.950 . S
C1380 C1378 1.391 . S
C1380 C1381 1.400 . S
C1381 C1375 1.491 . S
C1381 C1380 1.400 . S
C1381 C1382 1.398 . S
C1382 H1370 0.950 . S
C1382 C1381 1.398 . S
C1382 C1383 1.391 . S
C1383 H1371 0.950 . S
C1383 C1379 1.393 . S
C1383 C1382 1.391 . S
H1384 C1392 0.950 . S
H1385 C1397 0.950 . S
H1386 C1394 0.950 . S
H1387 C1396 0.950 . S
H1388 C1398 0.950 . S
H1389 C1400 0.950 . S
H1390 C1402 0.950 . S
H1391 C1403 0.950 1_556 S
C1392 H1384 0.950 . S
C1392 C1393 1.386 . S
C1392 C1394 1.391 . S
C1393 C1392 1.386 . S
C1393 C1397 1.393 . S
C1394 H1386 0.950 . S
C1394 C1392 1.391 . S
C1394 C1395 1.400 . S
C1395 C1394 1.400 . S
C1395 C1396 1.398 . S
C1395 C1401 1.491 . S
C1396 H1387 0.950 . S
C1396 C1395 1.398 . S
C1396 C1397 1.391 . S
C1397 H1385 0.950 . S
C1397 C1393 1.393 . S
C1397 C1396 1.391 . S
C1398 H1388 0.950 . S
C1398 C1399 1.386 1_554 S
C1398 C1400 1.391 . S
C1399 C1398 1.386 1_556 S
C1399 C1403 1.393 1_556 S
C1400 H1389 0.950 . S
C1400 C1398 1.391 . S
C1400 C1401 1.400 . S
C1401 C1395 1.491 . S
C1401 C1400 1.400 . S
C1401 C1402 1.398 . S
C1402 H1390 0.950 . S
C1402 C1401 1.398 . S
C1402 C1403 1.391 . S
C1403 H1391 0.950 1_554 S
C1403 C1399 1.393 1_554 S
C1403 C1402 1.391 . S
H1404 C1412 0.950 . S
H1405 C1417 0.950 . S
H1406 C1414 0.950 . S
H1407 C1416 0.950 . S
H1408 C1418 0.950 . S
H1409 C1420 0.950 . S
H1410 C1422 0.950 . S
H1411 C1423 0.950 . S
C1412 H1404 0.950 . S
C1412 C1413 1.386 . S
C1412 C1414 1.391 . S
C1413 C1412 1.386 . S
C1413 C1417 1.393 . S
C1414 H1406 0.950 . S
C1414 C1412 1.391 . S
C1414 C1415 1.400 . S
C1415 C1414 1.400 . S
C1415 C1416 1.398 . S
C1415 C1421 1.491 . S
C1416 H1407 0.950 . S
C1416 C1415 1.398 . S
C1416 C1417 1.391 . S
C1417 H1405 0.950 . S
C1417 C1413 1.393 . S
C1417 C1416 1.391 . S
C1418 H1408 0.950 . S
C1418 C1419 1.386 . S
C1418 C1420 1.391 . S
C1419 C1418 1.386 . S
C1419 C1423 1.393 . S
C1420 H1409 0.950 . S
C1420 C1418 1.391 . S
C1420 C1421 1.400 . S
C1421 C1415 1.491 . S
C1421 C1420 1.400 . S
C1421 C1422 1.398 . S
C1422 H1410 0.950 . S
C1422 C1421 1.398 . S
C1422 C1423 1.391 . S
C1423 H1411 0.950 . S
C1423 C1419 1.393 . S
C1423 C1422 1.391 . S
H1424 C1432 0.950 . S
H1425 C1437 0.950 . S
H1426 C1434 0.950 . S
H1427 C1436 0.950 . S
H1428 C1438 0.950 . S
H1429 C1440 0.950 . S
H1430 C1442 0.950 . S
H1431 C1443 0.950 . S
C1432 H1424 0.950 . S
C1432 C1433 1.386 . S
C1432 C1434 1.391 . S
C1433 C1432 1.386 . S
C1433 C1437 1.393 . S
C1434 H1426 0.950 . S
C1434 C1432 1.391 . S
C1434 C1435 1.400 . S
C1435 C1434 1.400 . S
C1435 C1436 1.398 . S
C1435 C1441 1.491 . S
C1436 H1427 0.950 . S
C1436 C1435 1.398 . S
C1436 C1437 1.391 . S
C1437 H1425 0.950 . S
C1437 C1433 1.393 . S
C1437 C1436 1.391 . S
C1438 H1428 0.950 . S
C1438 C1439 1.386 . S
C1438 C1440 1.391 . S
C1439 C1438 1.386 . S
C1439 C1443 1.393 . S
C1440 H1429 0.950 . S
C1440 C1438 1.391 . S
C1440 C1441 1.400 . S
C1441 C1435 1.491 . S
C1441 C1440 1.400 . S
C1441 C1442 1.398 . S
C1442 H1430 0.950 . S
C1442 C1441 1.398 . S
C1442 C1443 1.391 . S
C1443 H1431 0.950 . S
C1443 C1439 1.393 . S
C1443 C1442 1.391 . S
H1444 C1452 0.950 . S
H1445 C1457 0.950 . S
H1446 C1454 0.950 . S
H1447 C1456 0.950 . S
H1448 C1458 0.950 . S
H1449 C1460 0.950 . S
H1450 C1462 0.950 . S
H1451 C1463 0.950 . S
C1452 H1444 0.950 . S
C1452 C1453 1.386 . S
C1452 C1454 1.391 . S
C1453 C1452 1.386 . S
C1453 C1457 1.393 . S
C1454 H1446 0.950 . S
C1454 C1452 1.391 . S
C1454 C1455 1.400 . S
C1455 C1454 1.400 . S
C1455 C1456 1.398 . S
C1455 C1461 1.491 . S
C1456 H1447 0.950 . S
C1456 C1455 1.398 . S
C1456 C1457 1.391 . S
C1457 H1445 0.950 . S
C1457 C1453 1.393 . S
C1457 C1456 1.391 . S
C1458 H1448 0.950 . S
C1458 C1459 1.386 . S
C1458 C1460 1.391 . S
C1459 C1458 1.386 . S
C1459 C1463 1.393 . S
C1460 H1449 0.950 . S
C1460 C1458 1.391 . S
C1460 C1461 1.400 . S
C1461 C1455 1.491 . S
C1461 C1460 1.400 . S
C1461 C1462 1.398 . S
C1462 H1450 0.950 . S
C1462 C1461 1.398 . S
C1462 C1463 1.391 . S
C1463 H1451 0.950 . S
C1463 C1459 1.393 . S
C1463 C1462 1.391 . S
H1464 C1472 0.950 . S
H1465 C1477 0.950 . S
H1466 C1474 0.950 . S
H1467 C1476 0.950 . S
H1468 C1478 0.950 . S
H1469 C1480 0.950 . S
H1470 C1482 0.950 . S
H1471 C1483 0.950 1_554 S
C1472 H1464 0.950 . S
C1472 C1473 1.386 . S
C1472 C1474 1.391 . S
C1473 C1472 1.386 . S
C1473 C1477 1.393 . S
C1474 H1466 0.950 . S
C1474 C1472 1.391 . S
C1474 C1475 1.400 . S
C1475 C1474 1.400 . S
C1475 C1476 1.398 . S
C1475 C1481 1.491 . S
C1476 H1467 0.950 . S
C1476 C1475 1.398 . S
C1476 C1477 1.391 . S
C1477 H1465 0.950 . S
C1477 C1473 1.393 . S
C1477 C1476 1.391 . S
C1478 H1468 0.950 . S
C1478 C1479 1.386 1_556 S
C1478 C1480 1.391 . S
C1479 C1478 1.386 1_554 S
C1479 C1483 1.393 1_554 S
C1480 H1469 0.950 . S
C1480 C1478 1.391 . S
C1480 C1481 1.400 . S
C1481 C1475 1.491 . S
C1481 C1480 1.400 . S
C1481 C1482 1.398 . S
C1482 H1470 0.950 . S
C1482 C1481 1.398 . S
C1482 C1483 1.391 . S
C1483 H1471 0.950 1_556 S
C1483 C1479 1.393 1_556 S
C1483 C1482 1.391 . S
H1484 C1492 0.950 1_556 S
H1485 C1497 0.950 . S
H1486 C1494 0.950 . S
H1487 C1496 0.950 . S
H1488 C1498 0.950 . S
H1489 C1500 0.950 . S
H1490 C1502 0.950 . S
H1491 C1503 0.950 . S
C1492 H1484 0.950 1_554 S
C1492 C1493 1.386 1_554 S
C1492 C1494 1.391 . S
C1493 C1492 1.386 1_556 S
C1493 C1497 1.393 1_556 S
C1494 H1486 0.950 . S
C1494 C1492 1.391 . S
C1494 C1495 1.400 . S
C1495 C1494 1.400 . S
C1495 C1496 1.398 . S
C1495 C1501 1.491 . S
C1496 H1487 0.950 . S
C1496 C1495 1.398 . S
C1496 C1497 1.391 . S
C1497 H1485 0.950 . S
C1497 C1493 1.393 1_554 S
C1497 C1496 1.391 . S
C1498 H1488 0.950 . S
C1498 C1499 1.386 . S
C1498 C1500 1.391 . S
C1499 C1498 1.386 . S
C1499 C1503 1.393 . S
C1500 H1489 0.950 . S
C1500 C1498 1.391 . S
C1500 C1501 1.400 . S
C1501 C1495 1.491 . S
C1501 C1500 1.400 . S
C1501 C1502 1.398 . S
C1502 H1490 0.950 . S
C1502 C1501 1.398 . S
C1502 C1503 1.391 . S
C1503 H1491 0.950 . S
C1503 C1499 1.393 . S
C1503 C1502 1.391 . S
H1504 C1512 0.950 . S
H1505 C1517 0.950 . S
H1506 C1514 0.950 . S
H1507 C1516 0.950 . S
H1508 C1518 0.950 . S
H1509 C1520 0.950 . S
H1510 C1522 0.950 . S
H1511 C1523 0.950 . S
C1512 H1504 0.950 . S
C1512 C1513 1.386 . S
C1512 C1514 1.391 . S
C1513 C1512 1.386 . S
C1513 C1517 1.393 . S
C1514 H1506 0.950 . S
C1514 C1512 1.391 . S
C1514 C1515 1.400 . S
C1515 C1514 1.400 . S
C1515 C1516 1.398 . S
C1515 C1521 1.491 . S
C1516 H1507 0.950 . S
C1516 C1515 1.398 . S
C1516 C1517 1.391 . S
C1517 H1505 0.950 . S
C1517 C1513 1.393 . S
C1517 C1516 1.391 . S
C1518 H1508 0.950 . S
C1518 C1519 1.386 . S
C1518 C1520 1.391 . S
C1519 C1518 1.386 . S
C1519 C1523 1.393 . S
C1520 H1509 0.950 . S
C1520 C1518 1.391 . S
C1520 C1521 1.400 . S
C1521 C1515 1.491 . S
C1521 C1520 1.400 . S
C1521 C1522 1.398 . S
C1522 H1510 0.950 . S
C1522 C1521 1.398 . S
C1522 C1523 1.391 . S
C1523 H1511 0.950 . S
C1523 C1519 1.393 . S
C1523 C1522 1.391 . S
H1524 C1532 0.950 . S
H1525 C1537 0.950 . S
H1526 C1534 0.950 . S
H1527 C1536 0.950 . S
H1528 C1538 0.939 1_556 S
H1529 C1540 0.950 . S
H1530 C1542 0.950 . S
H1531 C1543 0.950 . S
C1532 H1524 0.950 . S
C1532 C1533 1.386 . S
C1532 C1534 1.391 . S
C1533 C1532 1.386 . S
C1533 C1537 1.393 . S
C1534 H1526 0.950 . S
C1534 C1532 1.391 . S
C1534 C1535 1.400 . S
C1535 C1534 1.400 . S
C1535 C1536 1.398 . S
C1535 C1541 1.491 . S
C1536 H1527 0.950 . S
C1536 C1535 1.398 . S
C1536 C1537 1.391 . S
C1537 H1525 0.950 . S
C1537 C1533 1.393 . S
C1537 C1536 1.391 . S
C1538 H1528 0.939 1_554 S
C1538 C1539 1.386 1_554 S
C1538 C1540 1.391 . S
C1539 C1538 1.386 1_556 S
C1539 C1543 1.393 1_556 S
C1540 H1529 0.950 . S
C1540 C1538 1.391 . S
C1540 C1541 1.400 . S
C1541 C1535 1.491 . S
C1541 C1540 1.400 . S
C1541 C1542 1.398 . S
C1542 H1530 0.950 . S
C1542 C1541 1.398 . S
C1542 C1543 1.391 . S
C1543 H1531 0.950 . S
C1543 C1539 1.393 1_554 S
C1543 C1542 1.391 . S
H1544 C1552 0.950 1_554 S
H1545 C1557 0.950 . S
H1546 C1554 0.950 . S
H1547 C1556 0.950 . S
H1548 C1558 0.950 . S
H1549 C1560 0.950 . S
H1550 C1562 0.950 . S
H1551 C1563 0.950 . S
C1552 H1544 0.950 1_556 S
C1552 C1553 1.386 1_556 S
C1552 C1554 1.391 . S
C1553 C1552 1.386 1_554 S
C1553 C1557 1.393 1_554 S
C1554 H1546 0.950 . S
C1554 C1552 1.391 . S
C1554 C1555 1.400 . S
C1555 C1554 1.400 . S
C1555 C1556 1.398 . S
C1555 C1561 1.491 . S
C1556 H1547 0.950 . S
C1556 C1555 1.398 . S
C1556 C1557 1.391 . S
C1557 H1545 0.950 . S
C1557 C1553 1.393 1_556 S
C1557 C1556 1.391 . S
C1558 H1548 0.950 . S
C1558 C1559 1.386 . S
C1558 C1560 1.391 . S
C1559 C1558 1.386 . S
C1559 C1563 1.393 . S
C1560 H1549 0.950 . S
C1560 C1558 1.391 . S
C1560 C1561 1.400 . S
C1561 C1555 1.491 . S
C1561 C1560 1.400 . S
C1561 C1562 1.398 . S
C1562 H1550 0.950 . S
C1562 C1561 1.398 . S
C1562 C1563 1.391 . S
C1563 H1551 0.950 . S
C1563 C1559 1.393 . S
C1563 C1562 1.391 . S
H1564 C1572 0.950 . S
H1565 C1577 0.950 . S
H1566 C1574 0.950 . S
H1567 C1576 0.950 . S
H1568 C1578 0.950 . S
H1569 C1580 0.950 . S
H1570 C1582 0.950 . S
H1571 C1583 0.950 . S
C1572 H1564 0.950 . S
C1572 C1573 1.386 . S
C1572 C1574 1.391 . S
C1573 C1572 1.386 . S
C1573 C1577 1.393 . S
C1574 H1566 0.950 . S
C1574 C1572 1.391 . S
C1574 C1575 1.400 . S
C1575 C1574 1.400 . S
C1575 C1576 1.398 . S
C1575 C1581 1.491 . S
C1576 H1567 0.950 . S
C1576 C1575 1.398 . S
C1576 C1577 1.391 . S
C1577 H1565 0.950 . S
C1577 C1573 1.393 . S
C1577 C1576 1.391 . S
C1578 H1568 0.950 . S
C1578 C1579 1.386 . S
C1578 C1580 1.391 . S
C1579 C1578 1.386 . S
C1579 C1583 1.393 . S
C1580 H1569 0.950 . S
C1580 C1578 1.391 . S
C1580 C1581 1.400 . S
C1581 C1575 1.491 . S
C1581 C1580 1.400 . S
C1581 C1582 1.398 . S
C1582 H1570 0.950 . S
C1582 C1581 1.398 . S
C1582 C1583 1.391 . S
C1583 H1571 0.950 . S
C1583 C1579 1.393 . S
C1583 C1582 1.391 . S
H1584 C1592 0.950 . S
H1585 C1597 0.950 . S
H1586 C1594 0.950 . S
H1587 C1596 0.950 . S
H1588 C1598 0.950 . S
H1589 C1600 0.950 . S
H1590 C1602 0.950 . S
H1591 C1603 0.950 . S
C1592 H1584 0.950 . S
C1592 C1593 1.386 . S
C1592 C1594 1.391 . S
C1593 C1592 1.386 . S
C1593 C1597 1.393 . S
C1594 H1586 0.950 . S
C1594 C1592 1.391 . S
C1594 C1595 1.400 . S
C1595 C1594 1.400 . S
C1595 C1596 1.398 . S
C1595 C1601 1.491 . S
C1596 H1587 0.950 . S
C1596 C1595 1.398 . S
C1596 C1597 1.391 . S
C1597 H1585 0.950 . S
C1597 C1593 1.393 . S
C1597 C1596 1.391 . S
C1598 H1588 0.950 . S
C1598 C1599 1.386 . S
C1598 C1600 1.391 . S
C1599 C1598 1.386 . S
C1599 C1603 1.393 . S
C1600 H1589 0.950 . S
C1600 C1598 1.391 . S
C1600 C1601 1.400 . S
C1601 C1595 1.491 . S
C1601 C1600 1.400 . S
C1601 C1602 1.398 . S
C1602 H1590 0.950 . S
C1602 C1601 1.398 . S
C1602 C1603 1.391 . S
C1603 H1591 0.950 . S
C1603 C1599 1.393 . S
C1603 C1602 1.391 . S
H1604 C1612 0.950 . S
H1605 C1617 0.950 . S
H1606 C1614 0.950 . S
H1607 C1616 0.950 . S
H1608 C1618 0.950 . S
H1609 C1620 0.950 . S
H1610 C1622 0.950 . S
H1611 C1623 0.950 . S
C1612 H1604 0.950 . S
C1612 C1613 1.386 . S
C1612 C1614 1.391 . S
C1613 C1612 1.386 . S
C1613 C1617 1.393 . S
C1614 H1606 0.950 . S
C1614 C1612 1.391 . S
C1614 C1615 1.400 . S
C1615 C1614 1.400 . S
C1615 C1616 1.398 . S
C1615 C1621 1.491 . S
C1616 H1607 0.950 . S
C1616 C1615 1.398 . S
C1616 C1617 1.391 . S
C1617 H1605 0.950 . S
C1617 C1613 1.393 . S
C1617 C1616 1.391 . S
C1618 H1608 0.950 . S
C1618 C1619 1.386 . S
C1618 C1620 1.391 . S
C1619 C1618 1.386 . S
C1619 C1623 1.393 . S
C1620 H1609 0.950 . S
C1620 C1618 1.391 . S
C1620 C1621 1.400 . S
C1621 C1615 1.491 . S
C1621 C1620 1.400 . S
C1621 C1622 1.398 . S
C1622 H1610 0.950 . S
C1622 C1621 1.398 . S
C1622 C1623 1.391 . S
C1623 H1611 0.950 . S
C1623 C1619 1.393 . S
C1623 C1622 1.391 . S
H1624 C1632 0.950 . S
H1625 C1637 0.950 . S
H1626 C1634 0.950 . S
H1627 C1636 0.950 . S
H1628 C1638 0.950 1_556 S
H1629 C1640 0.950 . S
H1630 C1642 0.950 . S
H1631 C1643 0.955 . S
C1632 H1624 0.950 . S
C1632 C1633 1.386 . S
C1632 C1634 1.391 . S
C1633 C1632 1.386 . S
C1633 C1637 1.393 . S
C1634 H1626 0.950 . S
C1634 C1632 1.391 . S
C1634 C1635 1.400 . S
C1635 C1634 1.400 . S
C1635 C1636 1.398 . S
C1635 C1641 1.491 . S
C1636 H1627 0.950 . S
C1636 C1635 1.398 . S
C1636 C1637 1.391 . S
C1637 H1625 0.950 . S
C1637 C1633 1.393 . S
C1637 C1636 1.391 . S
C1638 H1628 0.950 1_554 S
C1638 C1639 1.386 1_554 S
C1638 C1640 1.391 . S
C1639 C1638 1.386 1_556 S
C1639 C1643 1.393 1_556 S
C1640 H1629 0.950 . S
C1640 C1638 1.391 . S
C1640 C1641 1.400 . S
C1641 C1635 1.491 . S
C1641 C1640 1.400 . S
C1641 C1642 1.398 . S
C1642 H1630 0.950 . S
C1642 C1641 1.398 . S
C1642 C1643 1.391 . S
C1643 H1631 0.955 . S
C1643 C1639 1.393 1_554 S
C1643 C1642 1.391 . S
H1644 C1652 0.950 1_554 S
H1645 C1657 0.950 . S
H1646 C1654 0.950 . S
H1647 C1656 0.950 . S
H1648 C1658 0.950 . S
H1649 C1660 0.950 . S
H1650 C1662 0.950 . S
H1651 C1663 0.950 . S
C1652 H1644 0.950 1_556 S
C1652 C1653 1.386 1_556 S
C1652 C1654 1.391 . S
C1653 C1652 1.386 1_554 S
C1653 C1657 1.393 1_554 S
C1654 H1646 0.950 . S
C1654 C1652 1.391 . S
C1654 C1655 1.400 . S
C1655 C1654 1.400 . S
C1655 C1656 1.398 . S
C1655 C1661 1.491 . S
C1656 H1647 0.950 . S
C1656 C1655 1.398 . S
C1656 C1657 1.391 . S
C1657 H1645 0.950 . S
C1657 C1653 1.393 1_556 S
C1657 C1656 1.391 . S
C1658 H1648 0.950 . S
C1658 C1659 1.386 . S
C1658 C1660 1.391 . S
C1659 C1658 1.386 . S
C1659 C1663 1.393 . S
C1660 H1649 0.950 . S
C1660 C1658 1.391 . S
C1660 C1661 1.400 . S
C1661 C1655 1.491 . S
C1661 C1660 1.400 . S
C1661 C1662 1.398 . S
C1662 H1650 0.950 . S
C1662 C1661 1.398 . S
C1662 C1663 1.391 . S
C1663 H1651 0.950 . S
C1663 C1659 1.393 . S
C1663 C1662 1.391 . S
H1664 C1672 0.950 . S
H1665 C1677 0.950 . S
H1666 C1674 0.950 . S
H1667 C1676 0.950 . S
H1668 C1678 0.950 . S
H1669 C1680 0.950 . S
H1670 C1682 0.950 . S
H1671 C1683 0.950 . S
C1672 H1664 0.950 . S
C1672 C1673 1.386 . S
C1672 C1674 1.391 . S
C1673 C1672 1.386 . S
C1673 C1677 1.393 . S
C1674 H1666 0.950 . S
C1674 C1672 1.391 . S
C1674 C1675 1.400 . S
C1675 C1674 1.400 . S
C1675 C1676 1.398 . S
C1675 C1681 1.491 . S
C1676 H1667 0.950 . S
C1676 C1675 1.398 . S
C1676 C1677 1.391 . S
C1677 H1665 0.950 . S
C1677 C1673 1.393 . S
C1677 C1676 1.391 . S
C1678 H1668 0.950 . S
C1678 C1679 1.386 . S
C1678 C1680 1.391 . S
C1679 C1678 1.386 . S
C1679 C1683 1.393 . S
C1680 H1669 0.950 . S
C1680 C1678 1.391 . S
C1680 C1681 1.400 . S
C1681 C1675 1.491 . S
C1681 C1680 1.400 . S
C1681 C1682 1.398 . S
C1682 H1670 0.950 . S
C1682 C1681 1.398 . S
C1682 C1683 1.391 . S
C1683 H1671 0.950 . S
C1683 C1679 1.393 . S
C1683 C1682 1.391 . S
H1684 C1692 0.950 . S
H1685 C1697 0.950 . S
H1686 C1694 0.950 . S
H1687 C1696 0.950 . S
H1688 C1698 0.950 . S
H1689 C1700 0.950 . S
H1690 C1702 0.950 . S
H1691 C1703 0.950 . S
C1692 H1684 0.950 . S
C1692 C1693 1.386 . S
C1692 C1694 1.391 . S
C1693 C1692 1.386 . S
C1693 C1697 1.393 . S
C1694 H1686 0.950 . S
C1694 C1692 1.391 . S
C1694 C1695 1.400 . S
C1695 C1694 1.400 . S
C1695 C1696 1.398 . S
C1695 C1701 1.491 . S
C1696 H1687 0.950 . S
C1696 C1695 1.398 . S
C1696 C1697 1.391 . S
C1697 H1685 0.950 . S
C1697 C1693 1.393 . S
C1697 C1696 1.391 . S
C1698 H1688 0.950 . S
C1698 C1699 1.386 . S
C1698 C1700 1.391 . S
C1699 C1698 1.386 . S
C1699 C1703 1.393 . S
C1700 H1689 0.950 . S
C1700 C1698 1.391 . S
C1700 C1701 1.400 . S
C1701 C1695 1.491 . S
C1701 C1700 1.400 . S
C1701 C1702 1.398 . S
C1702 H1690 0.950 . S
C1702 C1701 1.398 . S
C1702 C1703 1.391 . S
C1703 H1691 0.950 . S
C1703 C1699 1.393 . S
C1703 C1702 1.391 . S
H1704 C1712 0.950 . S
H1705 C1717 0.950 . S
H1706 C1714 0.950 . S
H1707 C1716 0.950 . S
H1708 C1718 0.950 . S
H1709 C1720 0.950 . S
H1710 C1722 0.950 . S
H1711 C1723 0.950 . S
C1712 H1704 0.950 . S
C1712 C1713 1.386 . S
C1712 C1714 1.391 . S
C1713 C1712 1.386 . S
C1713 C1717 1.393 . S
C1714 H1706 0.950 . S
C1714 C1712 1.391 . S
C1714 C1715 1.400 . S
C1715 C1714 1.400 . S
C1715 C1716 1.398 . S
C1715 C1721 1.491 . S
C1716 H1707 0.950 . S
C1716 C1715 1.398 . S
C1716 C1717 1.391 . S
C1717 H1705 0.950 . S
C1717 C1713 1.393 . S
C1717 C1716 1.391 . S
C1718 H1708 0.950 . S
C1718 C1719 1.386 . S
C1718 C1720 1.391 . S
C1719 C1718 1.386 . S
C1719 C1723 1.393 . S
C1720 H1709 0.950 . S
C1720 C1718 1.391 . S
C1720 C1721 1.400 . S
C1721 C1715 1.491 . S
C1721 C1720 1.400 . S
C1721 C1722 1.398 . S
C1722 H1710 0.950 . S
C1722 C1721 1.398 . S
C1722 C1723 1.391 . S
C1723 H1711 0.950 . S
C1723 C1719 1.393 . S
C1723 C1722 1.391 . S
H1724 C1732 0.950 . S
H1725 C1737 0.950 . S
H1726 C1734 0.950 . S
H1727 C1736 0.950 . S
H1728 C1738 0.950 . S
H1729 C1740 0.950 . S
H1730 C1742 0.950 . S
H1731 C1743 0.950 . S
C1732 H1724 0.950 . S
C1732 C1733 1.386 . S
C1732 C1734 1.391 . S
C1733 C1732 1.386 . S
C1733 C1737 1.393 . S
C1734 H1726 0.950 . S
C1734 C1732 1.391 . S
C1734 C1735 1.400 . S
C1735 C1734 1.400 . S
C1735 C1736 1.398 . S
C1735 C1741 1.491 1_655 S
C1736 H1727 0.950 . S
C1736 C1735 1.398 . S
C1736 C1737 1.391 . S
C1737 H1725 0.950 . S
C1737 C1733 1.393 . S
C1737 C1736 1.391 . S
C1738 H1728 0.950 . S
C1738 C1739 1.386 . S
C1738 C1740 1.391 . S
C1739 C1738 1.386 . S
C1739 C1743 1.393 . S
C1740 H1729 0.950 . S
C1740 C1738 1.391 . S
C1740 C1741 1.400 . S
C1741 C1735 1.491 1_455 S
C1741 C1740 1.400 . S
C1741 C1742 1.398 . S
C1742 H1730 0.950 . S
C1742 C1741 1.398 . S
C1742 C1743 1.391 . S
C1743 H1731 0.950 . S
C1743 C1739 1.393 . S
C1743 C1742 1.391 . S
H1744 C1752 0.950 . S
H1745 C1757 0.950 . S
H1746 C1754 0.950 . S
H1747 C1756 0.950 . S
H1748 C1758 0.950 . S
H1749 C1760 0.950 . S
H1750 C1762 0.950 . S
H1751 C1763 0.950 . S
C1752 H1744 0.950 . S
C1752 C1753 1.386 . S
C1752 C1754 1.391 . S
C1753 C1752 1.386 . S
C1753 C1757 1.393 . S
C1754 H1746 0.950 . S
C1754 C1752 1.391 . S
C1754 C1755 1.400 . S
C1755 C1754 1.400 . S
C1755 C1756 1.398 . S
C1755 C1761 1.491 . S
C1756 H1747 0.950 . S
C1756 C1755 1.398 . S
C1756 C1757 1.391 . S
C1757 H1745 0.950 . S
C1757 C1753 1.393 . S
C1757 C1756 1.391 . S
C1758 H1748 0.950 . S
C1758 C1759 1.386 . S
C1758 C1760 1.391 . S
C1759 C1758 1.386 . S
C1759 C1763 1.393 . S
C1760 H1749 0.950 . S
C1760 C1758 1.391 . S
C1760 C1761 1.400 . S
C1761 C1755 1.491 . S
C1761 C1760 1.400 . S
C1761 C1762 1.398 . S
C1762 H1750 0.950 . S
C1762 C1761 1.398 . S
C1762 C1763 1.391 . S
C1763 H1751 0.950 . S
C1763 C1759 1.393 . S
C1763 C1762 1.391 . S
H1764 C1772 0.950 . S
H1765 C1777 0.950 . S
H1766 C1774 0.950 . S
H1767 C1776 0.950 . S
H1768 C1778 0.950 . S
H1769 C1780 0.950 . S
H1770 C1782 0.950 . S
H1771 C1783 0.950 . S
C1772 H1764 0.950 . S
C1772 C1773 1.386 . S
C1772 C1774 1.391 . S
C1773 C1772 1.386 . S
C1773 C1777 1.393 . S
C1774 H1766 0.950 . S
C1774 C1772 1.391 . S
C1774 C1775 1.400 . S
C1775 C1774 1.400 . S
C1775 C1776 1.398 . S
C1775 C1781 1.491 1_455 S
C1776 H1767 0.950 . S
C1776 C1775 1.398 . S
C1776 C1777 1.391 . S
C1777 H1765 0.950 . S
C1777 C1773 1.393 . S
C1777 C1776 1.391 . S
C1778 H1768 0.950 . S
C1778 C1779 1.386 . S
C1778 C1780 1.391 . S
C1779 C1778 1.386 . S
C1779 C1783 1.393 . S
C1780 H1769 0.950 . S
C1780 C1778 1.391 . S
C1780 C1781 1.400 . S
C1781 C1775 1.491 1_655 S
C1781 C1780 1.400 . S
C1781 C1782 1.398 . S
C1782 H1770 0.950 . S
C1782 C1781 1.398 . S
C1782 C1783 1.391 . S
C1783 H1771 0.950 . S
C1783 C1779 1.393 . S
C1783 C1782 1.391 . S
H1784 C1792 0.950 . S
H1785 C1797 0.950 . S
H1786 C1794 0.950 . S
H1787 C1796 0.950 . S
H1788 C1798 0.950 . S
H1789 C1800 0.950 . S
H1790 C1802 0.950 . S
H1791 C1803 0.950 . S
C1792 H1784 0.950 . S
C1792 C1793 1.386 . S
C1792 C1794 1.391 . S
C1793 C1792 1.386 . S
C1793 C1797 1.393 . S
C1794 H1786 0.950 . S
C1794 C1792 1.391 . S
C1794 C1795 1.400 . S
C1795 C1794 1.400 . S
C1795 C1796 1.398 . S
C1795 C1801 1.491 . S
C1796 H1787 0.950 . S
C1796 C1795 1.398 . S
C1796 C1797 1.391 . S
C1797 H1785 0.950 . S
C1797 C1793 1.393 . S
C1797 C1796 1.391 . S
C1798 H1788 0.950 . S
C1798 C1799 1.386 . S
C1798 C1800 1.391 . S
C1799 C1798 1.386 . S
C1799 C1803 1.393 . S
C1800 H1789 0.950 . S
C1800 C1798 1.391 . S
C1800 C1801 1.400 . S
C1801 C1795 1.491 . S
C1801 C1800 1.400 . S
C1801 C1802 1.398 . S
C1802 H1790 0.950 . S
C1802 C1801 1.398 . S
C1802 C1803 1.391 . S
C1803 H1791 0.950 . S
C1803 C1799 1.393 . S
C1803 C1802 1.391 . S
H1804 C1812 0.950 . S
H1805 C1817 0.950 . S
H1806 C1814 0.950 . S
H1807 C1816 0.950 . S
H1808 C1818 0.950 . S
H1809 C1820 0.950 . S
H1810 C1822 0.950 . S
H1811 C1823 0.950 . S
C1812 H1804 0.950 . S
C1812 C1813 1.386 . S
C1812 C1814 1.391 . S
C1813 C1812 1.386 . S
C1813 C1817 1.393 . S
C1814 H1806 0.950 . S
C1814 C1812 1.391 . S
C1814 C1815 1.400 . S
C1815 C1814 1.400 . S
C1815 C1816 1.398 . S
C1815 C1821 1.491 . S
C1816 H1807 0.950 . S
C1816 C1815 1.398 . S
C1816 C1817 1.391 . S
C1817 H1805 0.950 . S
C1817 C1813 1.393 . S
C1817 C1816 1.391 . S
C1818 H1808 0.950 . S
C1818 C1819 1.386 . S
C1818 C1820 1.391 . S
C1819 C1818 1.386 . S
C1819 C1823 1.393 . S
C1820 H1809 0.950 . S
C1820 C1818 1.391 . S
C1820 C1821 1.400 . S
C1821 C1815 1.491 . S
C1821 C1820 1.400 . S
C1821 C1822 1.398 . S
C1822 H1810 0.950 . S
C1822 C1821 1.398 . S
C1822 C1823 1.391 . S
C1823 H1811 0.950 . S
C1823 C1819 1.393 . S
C1823 C1822 1.391 . S
H1824 C1832 0.950 . S
H1825 C1837 0.950 . S
H1826 C1834 0.950 . S
H1827 C1836 0.950 . S
H1828 C1838 0.950 . S
H1829 C1840 0.950 . S
H1830 C1842 0.950 . S
H1831 C1843 0.950 . S
C1832 H1824 0.950 . S
C1832 C1833 1.386 . S
C1832 C1834 1.391 . S
C1833 C1832 1.386 . S
C1833 C1837 1.393 . S
C1834 H1826 0.950 . S
C1834 C1832 1.391 . S
C1834 C1835 1.400 . S
C1835 C1834 1.400 . S
C1835 C1836 1.398 . S
C1835 C1841 1.491 . S
C1836 H1827 0.950 . S
C1836 C1835 1.398 . S
C1836 C1837 1.391 . S
C1837 H1825 0.950 . S
C1837 C1833 1.393 . S
C1837 C1836 1.391 . S
C1838 H1828 0.950 . S
C1838 C1839 1.386 . S
C1838 C1840 1.391 . S
C1839 C1838 1.386 . S
C1839 C1843 1.393 . S
C1840 H1829 0.950 . S
C1840 C1838 1.391 . S
C1840 C1841 1.400 . S
C1841 C1835 1.491 . S
C1841 C1840 1.400 . S
C1841 C1842 1.398 . S
C1842 H1830 0.950 . S
C1842 C1841 1.398 . S
C1842 C1843 1.391 . S
C1843 H1831 0.950 . S
C1843 C1839 1.393 . S
C1843 C1842 1.391 . S
H1844 C1852 0.950 . S
H1845 C1857 0.950 . S
H1846 C1854 0.950 . S
H1847 C1856 0.950 . S
H1848 C1858 0.950 . S
H1849 C1860 0.950 . S
H1850 C1862 0.950 . S
H1851 C1863 0.950 . S
C1852 H1844 0.950 . S
C1852 C1853 1.386 . S
C1852 C1854 1.391 . S
C1853 C1852 1.386 . S
C1853 C1857 1.393 . S
C1854 H1846 0.950 . S
C1854 C1852 1.391 . S
C1854 C1855 1.400 . S
C1855 C1854 1.400 . S
C1855 C1856 1.398 . S
C1855 C1861 1.491 . S
C1856 H1847 0.950 . S
C1856 C1855 1.398 . S
C1856 C1857 1.391 . S
C1857 H1845 0.950 . S
C1857 C1853 1.393 . S
C1857 C1856 1.391 . S
C1858 H1848 0.950 . S
C1858 C1859 1.386 . S
C1858 C1860 1.391 . S
C1859 C1858 1.386 . S
C1859 C1863 1.393 . S
C1860 H1849 0.950 . S
C1860 C1858 1.391 . S
C1860 C1861 1.400 . S
C1861 C1855 1.491 . S
C1861 C1860 1.400 . S
C1861 C1862 1.398 . S
C1862 H1850 0.950 . S
C1862 C1861 1.398 . S
C1862 C1863 1.391 . S
C1863 H1851 0.950 . S
C1863 C1859 1.393 . S
C1863 C1862 1.391 . S
H1864 C1872 0.950 . S
H1865 C1877 0.950 . S
H1866 C1874 0.950 . S
H1867 C1876 0.950 . S
H1868 C1878 0.950 . S
H1869 C1880 0.950 . S
H1870 C1882 0.950 . S
H1871 C1883 0.950 . S
C1872 H1864 0.950 . S
C1872 C1873 1.386 . S
C1872 C1874 1.391 . S
C1873 C1872 1.386 . S
C1873 C1877 1.393 . S
C1874 H1866 0.950 . S
C1874 C1872 1.391 . S
C1874 C1875 1.400 . S
C1875 C1874 1.400 . S
C1875 C1876 1.398 . S
C1875 C1881 1.491 . S
C1876 H1867 0.950 . S
C1876 C1875 1.398 . S
C1876 C1877 1.391 . S
C1877 H1865 0.950 . S
C1877 C1873 1.393 . S
C1877 C1876 1.391 . S
C1878 H1868 0.950 . S
C1878 C1879 1.386 . S
C1878 C1880 1.391 . S
C1879 C1878 1.386 . S
C1879 C1883 1.393 . S
C1880 H1869 0.950 . S
C1880 C1878 1.391 . S
C1880 C1881 1.400 . S
C1881 C1875 1.491 . S
C1881 C1880 1.400 . S
C1881 C1882 1.398 . S
C1882 H1870 0.950 . S
C1882 C1881 1.398 . S
C1882 C1883 1.391 . S
C1883 H1871 0.950 . S
C1883 C1879 1.393 . S
C1883 C1882 1.391 . S
H1884 C1892 0.950 . S
H1885 C1897 0.950 . S
H1886 C1894 0.950 . S
H1887 C1896 0.950 . S
H1888 C1898 0.950 . S
H1889 C1900 0.950 . S
H1890 C1902 0.950 . S
H1891 C1903 0.950 . S
C1892 H1884 0.950 . S
C1892 C1893 1.386 . S
C1892 C1894 1.391 . S
C1893 C1892 1.386 . S
C1893 C1897 1.393 . S
C1894 H1886 0.950 . S
C1894 C1892 1.391 . S
C1894 C1895 1.400 . S
C1895 C1894 1.400 . S
C1895 C1896 1.398 . S
C1895 C1901 1.491 . S
C1896 H1887 0.950 . S
C1896 C1895 1.398 . S
C1896 C1897 1.391 . S
C1897 H1885 0.950 . S
C1897 C1893 1.393 . S
C1897 C1896 1.391 . S
C1898 H1888 0.950 . S
C1898 C1899 1.386 . S
C1898 C1900 1.391 . S
C1899 C1898 1.386 . S
C1899 C1903 1.393 . S
C1900 H1889 0.950 . S
C1900 C1898 1.391 . S
C1900 C1901 1.400 . S
C1901 C1895 1.491 . S
C1901 C1900 1.400 . S
C1901 C1902 1.398 . S
C1902 H1890 0.950 . S
C1902 C1901 1.398 . S
C1902 C1903 1.391 . S
C1903 H1891 0.950 . S
C1903 C1899 1.393 . S
C1903 C1902 1.391 . S
H1904 C1912 0.950 . S
H1905 C1917 0.950 . S
H1906 C1914 0.950 . S
H1907 C1916 0.950 . S
H1908 C1918 0.950 . S
H1909 C1920 0.950 . S
H1910 C1922 0.950 . S
H1911 C1923 0.950 . S
C1912 H1904 0.950 . S
C1912 C1913 1.386 . S
C1912 C1914 1.391 . S
C1913 C1912 1.386 . S
C1913 C1917 1.393 . S
C1914 H1906 0.950 . S
C1914 C1912 1.391 . S
C1914 C1915 1.400 . S
C1915 C1914 1.400 . S
C1915 C1916 1.398 . S
C1915 C1921 1.491 1_655 S
C1916 H1907 0.950 . S
C1916 C1915 1.398 . S
C1916 C1917 1.391 . S
C1917 H1905 0.950 . S
C1917 C1913 1.393 . S
C1917 C1916 1.391 . S
C1918 H1908 0.950 . S
C1918 C1919 1.386 . S
C1918 C1920 1.391 . S
C1919 C1918 1.386 . S
C1919 C1923 1.393 . S
C1920 H1909 0.950 . S
C1920 C1918 1.391 . S
C1920 C1921 1.400 . S
C1921 C1915 1.491 1_455 S
C1921 C1920 1.400 . S
C1921 C1922 1.398 . S
C1922 H1910 0.950 . S
C1922 C1921 1.398 . S
C1922 C1923 1.391 . S
C1923 H1911 0.950 . S
C1923 C1919 1.393 . S
C1923 C1922 1.391 . S
H1924 C1932 0.950 . S
H1925 C1937 0.950 . S
H1926 C1934 0.950 . S
H1927 C1936 0.950 . S
H1928 C1938 0.950 . S
H1929 C1940 0.950 . S
H1930 C1942 0.950 . S
H1931 C1943 0.950 . S
C1932 H1924 0.950 . S
C1932 C1933 1.386 . S
C1932 C1934 1.391 . S
C1933 C1932 1.386 . S
C1933 C1937 1.393 . S
C1934 H1926 0.950 . S
C1934 C1932 1.391 . S
C1934 C1935 1.400 . S
C1935 C1934 1.400 . S
C1935 C1936 1.398 . S
C1935 C1941 1.491 . S
C1936 H1927 0.950 . S
C1936 C1935 1.398 . S
C1936 C1937 1.391 . S
C1937 H1925 0.950 . S
C1937 C1933 1.393 . S
C1937 C1936 1.391 . S
C1938 H1928 0.950 . S
C1938 C1939 1.386 . S
C1938 C1940 1.391 . S
C1939 C1938 1.386 . S
C1939 C1943 1.393 . S
C1940 H1929 0.950 . S
C1940 C1938 1.391 . S
C1940 C1941 1.400 . S
C1941 C1935 1.491 . S
C1941 C1940 1.400 . S
C1941 C1942 1.398 . S
C1942 H1930 0.950 . S
C1942 C1941 1.398 . S
C1942 C1943 1.391 . S
C1943 H1931 0.950 . S
C1943 C1939 1.393 . S
C1943 C1942 1.391 . S
H1944 C1952 0.950 . S
H1945 C1957 0.950 . S
H1946 C1954 0.950 . S
H1947 C1956 0.950 . S
H1948 C1958 0.950 . S
H1949 C1960 0.950 . S
H1950 C1962 0.950 . S
H1951 C1963 0.950 . S
C1952 H1944 0.950 . S
C1952 C1953 1.386 . S
C1952 C1954 1.391 . S
C1953 C1952 1.386 . S
C1953 C1957 1.393 . S
C1954 H1946 0.950 . S
C1954 C1952 1.391 . S
C1954 C1955 1.400 . S
C1955 C1954 1.400 . S
C1955 C1956 1.398 . S
C1955 C1961 1.491 . S
C1956 H1947 0.950 . S
C1956 C1955 1.398 . S
C1956 C1957 1.391 . S
C1957 H1945 0.950 . S
C1957 C1953 1.393 . S
C1957 C1956 1.391 . S
C1958 H1948 0.950 . S
C1958 C1959 1.386 . S
C1958 C1960 1.391 . S
C1959 C1958 1.386 . S
C1959 C1963 1.393 . S
C1960 H1949 0.950 . S
C1960 C1958 1.391 . S
C1960 C1961 1.400 . S
C1961 C1955 1.491 . S
C1961 C1960 1.400 . S
C1961 C1962 1.398 . S
C1962 H1950 0.950 . S
C1962 C1961 1.398 . S
C1962 C1963 1.391 . S
C1963 H1951 0.950 . S
C1963 C1959 1.393 . S
C1963 C1962 1.391 . S
H1964 C1972 0.950 . S
H1965 C1977 0.950 . S
H1966 C1974 0.950 . S
H1967 C1976 0.950 . S
H1968 C1978 0.950 . S
H1969 C1980 0.950 . S
H1970 C1982 0.950 . S
H1971 C1983 0.950 . S
C1972 H1964 0.950 . S
C1972 C1973 1.386 . S
C1972 C1974 1.391 . S
C1973 C1972 1.386 . S
C1973 C1977 1.393 . S
C1974 H1966 0.950 . S
C1974 C1972 1.391 . S
C1974 C1975 1.400 . S
C1975 C1974 1.400 . S
C1975 C1976 1.398 . S
C1975 C1981 1.491 1_455 S
C1976 H1967 0.950 . S
C1976 C1975 1.398 . S
C1976 C1977 1.391 . S
C1977 H1965 0.950 . S
C1977 C1973 1.393 . S
C1977 C1976 1.391 . S
C1978 H1968 0.950 . S
C1978 C1979 1.386 . S
C1978 C1980 1.391 . S
C1979 C1978 1.386 . S
C1979 C1983 1.393 . S
C1980 H1969 0.950 . S
C1980 C1978 1.391 . S
C1980 C1981 1.400 . S
C1981 C1975 1.491 1_655 S
C1981 C1980 1.400 . S
C1981 C1982 1.398 . S
C1982 H1970 0.950 . S
C1982 C1981 1.398 . S
C1982 C1983 1.391 . S
C1983 H1971 0.950 . S
C1983 C1979 1.393 . S
C1983 C1982 1.391 . S
H1984 C1992 0.950 . S
H1985 C1997 0.950 . S
H1986 C1994 0.950 . S
H1987 C1996 0.950 1_556 S
H1988 C1998 0.950 . S
H1989 C2000 0.950 . S
H1990 C2002 0.950 1_554 S
H1991 C2003 0.950 . S
C1992 H1984 0.950 . S
C1992 C1993 1.386 . S
C1992 C1994 1.391 . S
C1993 C1992 1.386 . S
C1993 C1997 1.393 . S
C1994 H1986 0.950 . S
C1994 C1992 1.391 . S
C1994 C1995 1.400 . S
C1995 C1994 1.400 . S
C1995 C1996 1.398 . S
C1995 C2001 1.491 1_554 S
C1996 H1987 0.950 1_554 S
C1996 C1995 1.398 . S
C1996 C1997 1.391 . S
C1997 H1985 0.950 . S
C1997 C1993 1.393 . S
C1997 C1996 1.391 . S
C1998 H1988 0.950 . S
C1998 C1999 1.386 . S
C1998 C2000 1.391 . S
C1999 C1998 1.386 . S
C1999 C2003 1.393 . S
C2000 H1989 0.950 . S
C2000 C1998 1.391 . S
C2000 C2001 1.400 . S
C2001 C1995 1.491 1_556 S
C2001 C2000 1.400 . S
C2001 C2002 1.398 . S
C2002 H1990 0.950 1_556 S
C2002 C2001 1.398 . S
C2002 C2003 1.391 . S
C2003 H1991 0.950 . S
C2003 C1999 1.393 . S
C2003 C2002 1.391 . S
H2004 C2012 0.950 . S
H2005 C2017 0.950 . S
H2006 C2014 0.950 . S
H2007 C2016 0.950 . S
H2008 C2018 0.950 . S
H2009 C2020 0.950 . S
H2010 C2022 0.950 . S
H2011 C2023 0.950 . S
C2012 H2004 0.950 . S
C2012 C2013 1.386 . S
C2012 C2014 1.391 . S
C2013 C2012 1.386 . S
C2013 C2017 1.393 . S
C2014 H2006 0.950 . S
C2014 C2012 1.391 . S
C2014 C2015 1.400 . S
C2015 C2014 1.400 . S
C2015 C2016 1.398 . S
C2015 C2021 1.491 . S
C2016 H2007 0.950 . S
C2016 C2015 1.398 . S
C2016 C2017 1.391 . S
C2017 H2005 0.950 . S
C2017 C2013 1.393 . S
C2017 C2016 1.391 . S
C2018 H2008 0.950 . S
C2018 C2019 1.386 . S
C2018 C2020 1.391 . S
C2019 C2018 1.386 . S
C2019 C2023 1.393 . S
C2020 H2009 0.950 . S
C2020 C2018 1.391 . S
C2020 C2021 1.400 . S
C2021 C2015 1.491 . S
C2021 C2020 1.400 . S
C2021 C2022 1.398 . S
C2022 H2010 0.950 . S
C2022 C2021 1.398 . S
C2022 C2023 1.391 . S
C2023 H2011 0.950 . S
C2023 C2019 1.393 . S
C2023 C2022 1.391 . S
H2024 C2032 0.950 . S
H2025 C2037 0.950 . S
H2026 C2034 0.950 . S
H2027 C2036 0.950 . S
H2028 C2038 0.950 . S
H2029 C2040 0.950 . S
H2030 C2042 0.950 . S
H2031 C2043 0.950 . S
C2032 H2024 0.950 . S
C2032 C2033 1.386 . S
C2032 C2034 1.391 . S
C2033 C2032 1.386 . S
C2033 C2037 1.393 . S
C2034 H2026 0.950 . S
C2034 C2032 1.391 . S
C2034 C2035 1.400 . S
C2035 C2034 1.400 . S
C2035 C2036 1.398 . S
C2035 C2041 1.491 . S
C2036 H2027 0.950 . S
C2036 C2035 1.398 . S
C2036 C2037 1.391 . S
C2037 H2025 0.950 . S
C2037 C2033 1.393 . S
C2037 C2036 1.391 . S
C2038 H2028 0.950 . S
C2038 C2039 1.386 . S
C2038 C2040 1.391 . S
C2039 C2038 1.386 . S
C2039 C2043 1.393 . S
C2040 H2029 0.950 . S
C2040 C2038 1.391 . S
C2040 C2041 1.400 . S
C2041 C2035 1.491 . S
C2041 C2040 1.400 . S
C2041 C2042 1.398 . S
C2042 H2030 0.950 . S
C2042 C2041 1.398 . S
C2042 C2043 1.391 . S
C2043 H2031 0.950 . S
C2043 C2039 1.393 . S
C2043 C2042 1.391 . S
H2044 C2052 0.950 . S
H2045 C2057 0.950 . S
H2046 C2054 0.950 . S
H2047 C2056 0.950 . S
H2048 C2058 0.950 . S
H2049 C2060 0.950 . S
H2050 C2062 0.950 . S
H2051 C2063 0.950 . S
C2052 H2044 0.950 . S
C2052 C2053 1.386 . S
C2052 C2054 1.391 . S
C2053 C2052 1.386 . S
C2053 C2057 1.393 . S
C2054 H2046 0.950 . S
C2054 C2052 1.391 . S
C2054 C2055 1.400 . S
C2055 C2054 1.400 . S
C2055 C2056 1.398 . S
C2055 C2061 1.491 . S
C2056 H2047 0.950 . S
C2056 C2055 1.398 . S
C2056 C2057 1.391 . S
C2057 H2045 0.950 . S
C2057 C2053 1.393 . S
C2057 C2056 1.391 . S
C2058 H2048 0.950 . S
C2058 C2059 1.386 . S
C2058 C2060 1.391 . S
C2059 C2058 1.386 . S
C2059 C2063 1.393 . S
C2060 H2049 0.950 . S
C2060 C2058 1.391 . S
C2060 C2061 1.400 . S
C2061 C2055 1.491 . S
C2061 C2060 1.400 . S
C2061 C2062 1.398 . S
C2062 H2050 0.950 . S
C2062 C2061 1.398 . S
C2062 C2063 1.391 . S
C2063 H2051 0.950 . S
C2063 C2059 1.393 . S
C2063 C2062 1.391 . S
H2064 C2072 0.950 . S
H2065 C2077 0.950 . S
H2066 C2074 0.950 . S
H2067 C2076 0.950 . S
H2068 C2078 0.950 . S
H2069 C2080 0.950 . S
H2070 C2082 0.950 . S
H2071 C2083 0.950 . S
C2072 H2064 0.950 . S
C2072 C2073 1.386 . S
C2072 C2074 1.391 . S
C2073 C2072 1.386 . S
C2073 C2077 1.393 . S
C2074 H2066 0.950 . S
C2074 C2072 1.391 . S
C2074 C2075 1.400 . S
C2075 C2074 1.400 . S
C2075 C2076 1.398 . S
C2075 C2081 1.491 1_554 S
C2076 H2067 0.950 . S
C2076 C2075 1.398 . S
C2076 C2077 1.391 . S
C2077 H2065 0.950 . S
C2077 C2073 1.393 . S
C2077 C2076 1.391 . S
C2078 H2068 0.950 . S
C2078 C2079 1.386 . S
C2078 C2080 1.391 . S
C2079 C2078 1.386 . S
C2079 C2083 1.393 . S
C2080 H2069 0.950 . S
C2080 C2078 1.391 . S
C2080 C2081 1.400 . S
C2081 C2075 1.491 1_556 S
C2081 C2080 1.400 . S
C2081 C2082 1.398 . S
C2082 H2070 0.950 . S
C2082 C2081 1.398 . S
C2082 C2083 1.391 . S
C2083 H2071 0.950 . S
C2083 C2079 1.393 . S
C2083 C2082 1.391 . S
H2084 C2092 0.950 . S
H2085 C2097 0.950 . S
H2086 C2094 0.950 . S
H2087 C2096 0.950 . S
H2088 C2098 0.950 . S
H2089 C2100 0.950 . S
H2090 C2102 0.950 . S
H2091 C2103 0.950 . S
C2092 H2084 0.950 . S
C2092 C2093 1.386 . S
C2092 C2094 1.391 . S
C2093 C2092 1.386 . S
C2093 C2097 1.393 . S
C2094 H2086 0.950 . S
C2094 C2092 1.391 . S
C2094 C2095 1.400 . S
C2095 C2094 1.400 . S
C2095 C2096 1.398 . S
C2095 C2101 1.491 . S
C2096 H2087 0.950 . S
C2096 C2095 1.398 . S
C2096 C2097 1.391 . S
C2097 H2085 0.950 . S
C2097 C2093 1.393 . S
C2097 C2096 1.391 . S
C2098 H2088 0.950 . S
C2098 C2099 1.386 . S
C2098 C2100 1.391 . S
C2099 C2098 1.386 . S
C2099 C2103 1.393 . S
C2100 H2089 0.950 . S
C2100 C2098 1.391 . S
C2100 C2101 1.400 . S
C2101 C2095 1.491 . S
C2101 C2100 1.400 . S
C2101 C2102 1.398 . S
C2102 H2090 0.950 . S
C2102 C2101 1.398 . S
C2102 C2103 1.391 . S
C2103 H2091 0.950 . S
C2103 C2099 1.393 . S
C2103 C2102 1.391 . S
H2104 C2112 0.950 . S
H2105 C2117 0.950 . S
H2106 C2114 0.950 . S
H2107 C2116 0.950 . S
H2108 C2118 0.950 . S
H2109 C2120 0.950 . S
H2110 C2122 0.950 . S
H2111 C2123 0.950 . S
C2112 H2104 0.950 . S
C2112 C2113 1.386 . S
C2112 C2114 1.391 . S
C2113 C2112 1.386 . S
C2113 C2117 1.393 . S
C2114 H2106 0.950 . S
C2114 C2112 1.391 . S
C2114 C2115 1.400 . S
C2115 C2114 1.400 . S
C2115 C2116 1.398 . S
C2115 C2121 1.491 . S
C2116 H2107 0.950 . S
C2116 C2115 1.398 . S
C2116 C2117 1.391 . S
C2117 H2105 0.950 . S
C2117 C2113 1.393 . S
C2117 C2116 1.391 . S
C2118 H2108 0.950 . S
C2118 C2119 1.386 . S
C2118 C2120 1.391 . S
C2119 C2118 1.386 . S
C2119 C2123 1.393 . S
C2120 H2109 0.950 . S
C2120 C2118 1.391 . S
C2120 C2121 1.400 . S
C2121 C2115 1.491 . S
C2121 C2120 1.400 . S
C2121 C2122 1.398 . S
C2122 H2110 0.950 . S
C2122 C2121 1.398 . S
C2122 C2123 1.391 . S
C2123 H2111 0.950 . S
C2123 C2119 1.393 . S
C2123 C2122 1.391 . S
H2124 C2132 0.950 . S
H2125 C2137 0.950 . S
H2126 C2134 0.950 . S
H2127 C2136 0.950 . S
H2128 C2138 0.950 . S
H2129 C2140 0.950 . S
H2130 C2142 0.950 . S
H2131 C2143 0.950 . S
C2132 H2124 0.950 . S
C2132 C2133 1.386 . S
C2132 C2134 1.391 . S
C2133 C2132 1.386 . S
C2133 C2137 1.393 . S
C2134 H2126 0.950 . S
C2134 C2132 1.391 . S
C2134 C2135 1.400 . S
C2135 C2134 1.400 . S
C2135 C2136 1.398 . S
C2135 C2141 1.491 . S
C2136 H2127 0.950 . S
C2136 C2135 1.398 . S
C2136 C2137 1.391 . S
C2137 H2125 0.950 . S
C2137 C2133 1.393 . S
C2137 C2136 1.391 . S
C2138 H2128 0.950 . S
C2138 C2139 1.386 . S
C2138 C2140 1.391 . S
C2139 C2138 1.386 . S
C2139 C2143 1.393 . S
C2140 H2129 0.950 . S
C2140 C2138 1.391 . S
C2140 C2141 1.400 . S
C2141 C2135 1.491 . S
C2141 C2140 1.400 . S
C2141 C2142 1.398 . S
C2142 H2130 0.950 . S
C2142 C2141 1.398 . S
C2142 C2143 1.391 . S
C2143 H2131 0.950 . S
C2143 C2139 1.393 . S
C2143 C2142 1.391 . S
H2144 C2152 0.950 . S
H2145 C2157 0.950 . S
H2146 C2154 0.950 . S
H2147 C2156 0.943 1_545 S
H2148 C2158 0.950 . S
H2149 C2160 0.950 . S
H2150 C2162 0.909 1_565 S
H2151 C2163 0.950 . S
C2152 H2144 0.950 . S
C2152 C2153 1.386 . S
C2152 C2154 1.391 . S
C2153 C2152 1.386 . S
C2153 C2157 1.393 . S
C2154 H2146 0.950 . S
C2154 C2152 1.391 . S
C2154 C2155 1.400 . S
C2155 C2154 1.400 . S
C2155 C2156 1.398 . S
C2155 C2161 1.491 1_565 S
C2156 H2147 0.943 1_565 S
C2156 C2155 1.398 . S
C2156 C2157 1.391 . S
C2157 H2145 0.950 . S
C2157 C2153 1.393 . S
C2157 C2156 1.391 . S
C2158 H2148 0.950 . S
C2158 C2159 1.386 . S
C2158 C2160 1.391 . S
C2159 C2158 1.386 . S
C2159 C2163 1.393 . S
C2160 H2149 0.950 . S
C2160 C2158 1.391 . S
C2160 C2161 1.400 . S
C2161 C2155 1.491 1_545 S
C2161 C2160 1.400 . S
C2161 C2162 1.398 . S
C2162 H2150 0.909 1_545 S
C2162 C2161 1.398 . S
C2162 C2163 1.391 . S
C2163 H2151 0.950 . S
C2163 C2159 1.393 . S
C2163 C2162 1.391 . S
H2164 C2172 0.950 . S
H2165 C2177 0.950 . S
H2166 C2174 0.950 . S
H2167 C2176 0.950 . S
H2168 C2178 0.950 . S
H2169 C2180 0.950 . S
H2170 C2182 0.950 . S
H2171 C2183 0.950 . S
C2172 H2164 0.950 . S
C2172 C2173 1.386 . S
C2172 C2174 1.391 . S
C2173 C2172 1.386 . S
C2173 C2177 1.393 . S
C2174 H2166 0.950 . S
C2174 C2172 1.391 . S
C2174 C2175 1.400 . S
C2175 C2174 1.400 . S
C2175 C2176 1.398 . S
C2175 C2181 1.491 . S
C2176 H2167 0.950 . S
C2176 C2175 1.398 . S
C2176 C2177 1.391 . S
C2177 H2165 0.950 . S
C2177 C2173 1.393 . S
C2177 C2176 1.391 . S
C2178 H2168 0.950 . S
C2178 C2179 1.386 . S
C2178 C2180 1.391 . S
C2179 C2178 1.386 . S
C2179 C2183 1.393 . S
C2180 H2169 0.950 . S
C2180 C2178 1.391 . S
C2180 C2181 1.400 . S
C2181 C2175 1.491 . S
C2181 C2180 1.400 . S
C2181 C2182 1.398 . S
C2182 H2170 0.950 . S
C2182 C2181 1.398 . S
C2182 C2183 1.391 . S
C2183 H2171 0.950 . S
C2183 C2179 1.393 . S
C2183 C2182 1.391 . S
H2184 C2192 0.950 . S
H2185 C2197 0.950 . S
H2186 C2194 0.950 1_556 S
H2187 C2196 0.950 . S
H2188 C2198 0.950 . S
H2189 C2200 0.950 1_554 S
H2190 C2202 0.950 . S
H2191 C2203 0.950 . S
C2192 H2184 0.950 . S
C2192 C2193 1.386 . S
C2192 C2194 1.391 . S
C2193 C2192 1.386 . S
C2193 C2197 1.393 . S
C2194 H2186 0.950 1_554 S
C2194 C2192 1.391 . S
C2194 C2195 1.400 . S
C2195 C2194 1.400 . S
C2195 C2196 1.398 . S
C2195 C2201 1.491 1_564 S
C2196 H2187 0.950 . S
C2196 C2195 1.398 . S
C2196 C2197 1.391 . S
C2197 H2185 0.950 . S
C2197 C2193 1.393 . S
C2197 C2196 1.391 . S
C2198 H2188 0.950 . S
C2198 C2199 1.386 . S
C2198 C2200 1.391 . S
C2199 C2198 1.386 . S
C2199 C2203 1.393 . S
C2200 H2189 0.950 1_556 S
C2200 C2198 1.391 . S
C2200 C2201 1.400 . S
C2201 C2195 1.491 1_546 S
C2201 C2200 1.400 . S
C2201 C2202 1.398 . S
C2202 H2190 0.950 . S
C2202 C2201 1.398 . S
C2202 C2203 1.391 . S
C2203 H2191 0.950 . S
C2203 C2199 1.393 . S
C2203 C2202 1.391 . S
H2204 C2212 0.950 . S
H2205 C2217 0.950 . S
H2206 C2214 0.950 . S
H2207 C2216 0.950 . S
H2208 C2218 0.950 . S
H2209 C2220 0.950 . S
H2210 C2222 0.950 . S
H2211 C2223 0.950 . S
C2212 H2204 0.950 . S
C2212 C2213 1.386 . S
C2212 C2214 1.391 . S
C2213 C2212 1.386 . S
C2213 C2217 1.393 . S
C2214 H2206 0.950 . S
C2214 C2212 1.391 . S
C2214 C2215 1.400 . S
C2215 C2214 1.400 . S
C2215 C2216 1.398 . S
C2215 C2221 1.491 . S
C2216 H2207 0.950 . S
C2216 C2215 1.398 . S
C2216 C2217 1.391 . S
C2217 H2205 0.950 . S
C2217 C2213 1.393 . S
C2217 C2216 1.391 . S
C2218 H2208 0.950 . S
C2218 C2219 1.386 . S
C2218 C2220 1.391 . S
C2219 C2218 1.386 . S
C2219 C2223 1.393 . S
C2220 H2209 0.950 . S
C2220 C2218 1.391 . S
C2220 C2221 1.400 . S
C2221 C2215 1.491 . S
C2221 C2220 1.400 . S
C2221 C2222 1.398 . S
C2222 H2210 0.950 . S
C2222 C2221 1.398 . S
C2222 C2223 1.391 . S
C2223 H2211 0.950 . S
C2223 C2219 1.393 . S
C2223 C2222 1.391 . S
H2224 C2232 0.950 . S
H2225 C2237 0.950 . S
H2226 C2234 0.950 . S
H2227 C2236 0.950 . S
H2228 C2238 0.950 . S
H2229 C2240 0.950 . S
H2230 C2242 0.950 . S
H2231 C2243 0.950 . S
C2232 H2224 0.950 . S
C2232 C2233 1.386 . S
C2232 C2234 1.391 . S
C2233 C2232 1.386 . S
C2233 C2237 1.393 . S
C2234 H2226 0.950 . S
C2234 C2232 1.391 . S
C2234 C2235 1.400 . S
C2235 C2234 1.400 . S
C2235 C2236 1.398 . S
C2235 C2241 1.491 1_565 S
C2236 H2227 0.950 . S
C2236 C2235 1.398 . S
C2236 C2237 1.391 . S
C2237 H2225 0.950 . S
C2237 C2233 1.393 . S
C2237 C2236 1.391 . S
C2238 H2228 0.950 . S
C2238 C2239 1.386 . S
C2238 C2240 1.391 . S
C2239 C2238 1.386 . S
C2239 C2243 1.393 . S
C2240 H2229 0.950 . S
C2240 C2238 1.391 . S
C2240 C2241 1.400 . S
C2241 C2235 1.491 1_545 S
C2241 C2240 1.400 . S
C2241 C2242 1.398 . S
C2242 H2230 0.950 . S
C2242 C2241 1.398 . S
C2242 C2243 1.391 . S
C2243 H2231 0.950 . S
C2243 C2239 1.393 . S
C2243 C2242 1.391 . S
H2244 C2252 0.950 . S
H2245 C2257 0.950 . S
H2246 C2254 0.950 . S
H2247 C2256 0.950 . S
H2248 C2258 0.950 . S
H2249 C2260 0.950 . S
H2250 C2262 0.950 . S
H2251 C2263 0.950 . S
C2252 H2244 0.950 . S
C2252 C2253 1.386 . S
C2252 C2254 1.391 . S
C2253 C2252 1.386 . S
C2253 C2257 1.393 . S
C2254 H2246 0.950 . S
C2254 C2252 1.391 . S
C2254 C2255 1.400 . S
C2255 C2254 1.400 . S
C2255 C2256 1.398 . S
C2255 C2261 1.491 . S
C2256 H2247 0.950 . S
C2256 C2255 1.398 . S
C2256 C2257 1.391 . S
C2257 H2245 0.950 . S
C2257 C2253 1.393 . S
C2257 C2256 1.391 . S
C2258 H2248 0.950 . S
C2258 C2259 1.386 . S
C2258 C2260 1.391 . S
C2259 C2258 1.386 . S
C2259 C2263 1.393 . S
C2260 H2249 0.950 . S
C2260 C2258 1.391 . S
C2260 C2261 1.400 . S
C2261 C2255 1.491 . S
C2261 C2260 1.400 . S
C2261 C2262 1.398 . S
C2262 H2250 0.950 . S
C2262 C2261 1.398 . S
C2262 C2263 1.391 . S
C2263 H2251 0.950 . S
C2263 C2259 1.393 . S
C2263 C2262 1.391 . S
H2264 C2272 0.950 . S
H2265 C2277 0.950 . S
H2266 C2274 0.950 . S
H2267 C2276 0.950 . S
H2268 C2278 0.950 . S
H2269 C2280 0.950 . S
H2270 C2282 0.950 . S
H2271 C2283 0.950 . S
C2272 H2264 0.950 . S
C2272 C2273 1.386 . S
C2272 C2274 1.391 . S
C2273 C2272 1.386 . S
C2273 C2277 1.393 . S
C2274 H2266 0.950 . S
C2274 C2272 1.391 . S
C2274 C2275 1.400 . S
C2275 C2274 1.400 . S
C2275 C2276 1.398 . S
C2275 C2281 1.491 1_546 S
C2276 H2267 0.950 . S
C2276 C2275 1.398 . S
C2276 C2277 1.391 . S
C2277 H2265 0.950 . S
C2277 C2273 1.393 . S
C2277 C2276 1.391 . S
C2278 H2268 0.950 . S
C2278 C2279 1.386 . S
C2278 C2280 1.391 . S
C2279 C2278 1.386 . S
C2279 C2283 1.393 . S
C2280 H2269 0.950 . S
C2280 C2278 1.391 . S
C2280 C2281 1.400 . S
C2281 C2275 1.491 1_564 S
C2281 C2280 1.400 . S
C2281 C2282 1.398 . S
C2282 H2270 0.950 . S
C2282 C2281 1.398 . S
C2282 C2283 1.391 . S
C2283 H2271 0.950 . S
C2283 C2279 1.393 . S
C2283 C2282 1.391 . S
H2284 C2292 0.950 . S
H2285 C2297 0.950 . S
H2286 C2294 0.950 . S
H2287 C2296 0.950 . S
H2288 C2298 0.950 . S
H2289 C2300 0.950 . S
H2290 C2302 0.950 . S
H2291 C2303 0.950 . S
C2292 H2284 0.950 . S
C2292 C2293 1.386 . S
C2292 C2294 1.391 . S
C2293 C2292 1.386 . S
C2293 C2297 1.393 . S
C2294 H2286 0.950 . S
C2294 C2292 1.391 . S
C2294 C2295 1.400 . S
C2295 C2294 1.400 . S
C2295 C2296 1.398 . S
C2295 C2301 1.491 . S
C2296 H2287 0.950 . S
C2296 C2295 1.398 . S
C2296 C2297 1.391 . S
C2297 H2285 0.950 . S
C2297 C2293 1.393 . S
C2297 C2296 1.391 . S
C2298 H2288 0.950 . S
C2298 C2299 1.386 . S
C2298 C2300 1.391 . S
C2299 C2298 1.386 . S
C2299 C2303 1.393 . S
C2300 H2289 0.950 . S
C2300 C2298 1.391 . S
C2300 C2301 1.400 . S
C2301 C2295 1.491 . S
C2301 C2300 1.400 . S
C2301 C2302 1.398 . S
C2302 H2290 0.950 . S
C2302 C2301 1.398 . S
C2302 C2303 1.391 . S
C2303 H2291 0.950 . S
C2303 C2299 1.393 . S
C2303 C2302 1.391 . S
C1353 C58 1.507 . S
C1359 C70 1.507 . S
C1373 C154 1.440 . S
C1379 C142 1.440 . S
C1393 C226 1.465 . S
C1399 C238 1.465 . S
C1413 C310 1.479 . S
C1419 C322 1.479 . S
C1433 C394 1.471 . S
C1439 C406 1.471 . S
C1453 C478 1.460 . S
C1459 C490 1.460 . S
C1473 C574 1.446 . S
C1479 C562 1.446 . S
C1493 C658 1.465 . S
C1499 C646 1.465 . S
C1513 C742 1.492 . S
C1519 C730 1.492 . S
C1533 C826 1.439 . S
C1539 C814 1.439 . S
C1553 C910 1.450 . S
C1559 C898 1.450 . S
C1573 C994 1.457 . S
C1579 C982 1.457 . S
C1593 C1078 1.443 . S
C1599 C1066 1.443 . S
C1613 C1162 1.458 . S
C1619 C1150 1.458 . S
C1633 C1234 1.437 . S
C1639 C1246 1.437 . S
C1653 C1330 1.500 . S
C1659 C1318 1.500 . S
C1673 C74 1.739 . S
C1679 C991 1.794 . S
C1693 C140 1.784 . S
C1699 C1323 1.698 . S
C1713 C242 1.728 . S
C1719 C819 1.701 . S
C1733 C326 1.692 . S
C1739 C1155 1.690 . S
C1753 C410 1.739 . S
C1759 C1159 1.796 . S
C1773 C987 1.703 . S
C1779 C476 1.788 . S
C1793 C560 1.836 . S
C1799 C1327 1.833 . S
C1813 C644 1.819 . S
C1819 C823 1.812 . S
C1833 C308 1.758 . S
C1839 C735 1.674 . S
C1853 C158 1.727 . S
C1859 C907 1.804 . S
C1873 C1071 1.668 . S
C1879 C494 1.671 . S
C1893 C662 1.747 . S
C1899 C1243 1.801 . S
C1913 C739 1.864 . S
C1919 C392 1.857 . S
C1933 C578 1.704 . S
C1939 C903 1.693 . S
C1953 C224 1.820 . S
C1959 C1239 1.751 . S
C1973 C56 1.809 . S
C1979 C1075 1.803 . S
C1993 C63 1.585 . S
C1999 C399 1.578 . S
C2013 C151 1.570 . S
C2019 C487 1.561 . S
C2033 C231 1.685 . S
C2039 C571 1.588 . S
C2053 C315 1.603 . S
C2059 C655 1.507 . S
C2073 C1082 1.535 . S
C2079 C746 1.532 . S
C2093 C1166 1.639 . S
C2099 C812 1.585 . S
C2113 C896 1.617 . S
C2119 C1232 1.602 . S
C2133 C1334 1.586 . S
C2139 C998 1.573 . S
C2153 C147 1.588 . S
C2159 C651 1.602 . S
C2173 C403 1.622 . S
C2179 C235 1.628 . S
C2193 C483 1.620 . S
C2199 C319 1.568 . S
C2213 C67 1.502 . S
C2219 C567 1.593 . S
C2233 C1316 1.518 . S
C2239 C830 1.604 . S
C2253 C1064 1.571 . S
C2259 C914 1.628 . S
C2273 C1148 1.604 . S
C2279 C980 1.603 . S
C2293 C1250 1.652 . S
C2299 C728 1.572 . S
