# Generated by pormake.
# Topology ukh, (4)-cn, num edge types: 1
# Building blocks:
#     Node 0, Type 0, BuildingBlock: NAHDIM_clean_sbu_0, # of connection points: 4
#     Node 1, Type 0, BuildingBlock: NAHDIM_clean_sbu_0, # of connection points: 4
#     Node 2, Type 0, BuildingBlock: NAHDIM_clean_sbu_0, # of connection points: 4
#     Node 3, Type 0, BuildingBlock: NAHDIM_clean_sbu_0, # of connection points: 4
#     Node 4, Type 0, BuildingBlock: NAHDIM_clean_sbu_0, # of connection points: 4
#     Node 5, Type 0, BuildingBlock: NAHDIM_clean_sbu_0, # of connection points: 4
#     Node 6, Type 0, BuildingBlock: NAHDIM_clean_sbu_0, # of connection points: 4
#     Node 7, Type 0, BuildingBlock: NAHDIM_clean_sbu_0, # of connection points: 4
#     Node 8, Type 0, BuildingBlock: NAHDIM_clean_sbu_0, # of connection points: 4
#     Node 9, Type 0, BuildingBlock: NAHDIM_clean_sbu_0, # of connection points: 4
#     Node 10, Type 0, BuildingBlock: NAHDIM_clean_sbu_0, # of connection points: 4
#     Node 11, Type 0, BuildingBlock: NAHDIM_clean_sbu_0, # of connection points: 4
#     Edge 12, Type (0, 0), BuildingBlock: MIFKUJ_clean_linker_0, # of connection points: 2
#     Edge 13, Type (0, 0), BuildingBlock: MIFKUJ_clean_linker_0, # of connection points: 2
#     Edge 14, Type (0, 0), BuildingBlock: MIFKUJ_clean_linker_0, # of connection points: 2
#     Edge 15, Type (0, 0), BuildingBlock: MIFKUJ_clean_linker_0, # of connection points: 2
#     Edge 16, Type (0, 0), BuildingBlock: MIFKUJ_clean_linker_0, # of connection points: 2
#     Edge 17, Type (0, 0), BuildingBlock: MIFKUJ_clean_linker_0, # of connection points: 2
#     Edge 18, Type (0, 0), BuildingBlock: MIFKUJ_clean_linker_0, # of connection points: 2
#     Edge 19, Type (0, 0), BuildingBlock: MIFKUJ_clean_linker_0, # of connection points: 2
#     Edge 20, Type (0, 0), BuildingBlock: MIFKUJ_clean_linker_0, # of connection points: 2
#     Edge 21, Type (0, 0), BuildingBlock: MIFKUJ_clean_linker_0, # of connection points: 2
#     Edge 22, Type (0, 0), BuildingBlock: MIFKUJ_clean_linker_0, # of connection points: 2
#     Edge 23, Type (0, 0), BuildingBlock: MIFKUJ_clean_linker_0, # of connection points: 2
#     Edge 24, Type (0, 0), BuildingBlock: MIFKUJ_clean_linker_0, # of connection points: 2
#     Edge 25, Type (0, 0), BuildingBlock: MIFKUJ_clean_linker_0, # of connection points: 2
#     Edge 26, Type (0, 0), BuildingBlock: MIFKUJ_clean_linker_0, # of connection points: 2
#     Edge 27, Type (0, 0), BuildingBlock: MIFKUJ_clean_linker_0, # of connection points: 2
#     Edge 28, Type (0, 0), BuildingBlock: MIFKUJ_clean_linker_0, # of connection points: 2
#     Edge 29, Type (0, 0), BuildingBlock: MIFKUJ_clean_linker_0, # of connection points: 2
#     Edge 30, Type (0, 0), BuildingBlock: MIFKUJ_clean_linker_0, # of connection points: 2
#     Edge 31, Type (0, 0), BuildingBlock: MIFKUJ_clean_linker_0, # of connection points: 2
#     Edge 32, Type (0, 0), BuildingBlock: MIFKUJ_clean_linker_0, # of connection points: 2
#     Edge 33, Type (0, 0), BuildingBlock: MIFKUJ_clean_linker_0, # of connection points: 2
#     Edge 34, Type (0, 0), BuildingBlock: MIFKUJ_clean_linker_0, # of connection points: 2
#     Edge 35, Type (0, 0), BuildingBlock: MIFKUJ_clean_linker_0, # of connection points: 2
# Relax obj value: 0.181
# Max RMSD: 0.212
# Mean RMSD: 0.212
data_MOF--net-ukh--node1-NAHDIM_clean_sbu_0--edge1-MIFKUJ_clean_linker_0
_symmetry_space_group_name_H-M    P1
_symmetry_Int_Tables_number       1
_symmetry_cell_setting            triclinic
loop_
_symmetry_equiv_pos_as_xyz
'x, y, z'
_cell_length_a     41.426462
_cell_length_b     41.453877
_cell_length_c     77.170391
_cell_angle_alpha  90.006892
_cell_angle_beta   89.96741
_cell_angle_gamma 120.00294
loop_
_atom_site_label
_atom_site_type_symbol
_atom_site_fract_x
_atom_site_fract_y
_atom_site_fract_z
_atom_type_partial_charge
C0 C 0.37091 0.32018 0.04187 0.0
O1 O 0.33926 0.3104 0.04982 0.0
O2 O 0.28825 0.23866 0.03329 0.0
Zn3 Zn 0.33639 0.24262 0.04107 0.0
O4 O 0.33299 0.23054 0.06648 0.0
C5 C 0.32709 0.19187 0.01365 0.0
O6 O 0.30826 0.20618 0.00654 0.0
O7 O 0.37744 0.29489 0.03671 0.0
C8 C 0.34785 0.21246 0.07247 0.0
O9 O 0.36654 0.20279 0.06197 0.0
C10 C 0.25647 0.21269 0.03813 0.0
O11 O 0.25442 0.1875 0.0491 0.0
O12 O 0.34369 0.20496 0.02794 0.0
C13 C 0.0768 0.38324 0.38563 0.0
O14 O 0.07015 0.36193 0.39929 0.0
O15 O 0.07416 0.29607 0.36573 0.0
Zn16 Zn 0.11398 0.34452 0.3758 0.0
O17 O 0.12054 0.33678 0.40094 0.0
C18 C 0.16214 0.35142 0.34772 0.0
O19 O 0.13041 0.33526 0.33923 0.0
O20 O 0.09676 0.38186 0.37345 0.0
C21 C 0.14088 0.32385 0.40616 0.0
O22 O 0.15912 0.31542 0.39479 0.0
C23 C 0.04609 0.27339 0.37464 0.0
O24 O 0.04348 0.28145 0.39086 0.0
O25 O 0.16228 0.36032 0.36348 0.0
C26 C 0.70304 0.07267 0.68793 0.0
O27 O 0.71599 0.05357 0.67987 0.0
O28 O 0.78067 0.06311 0.69672 0.0
Zn29 Zn 0.77329 0.10421 0.70621 0.0
O30 O 0.77581 0.10489 0.73216 0.0
C31 C 0.81818 0.1708 0.68441 0.0
O32 O 0.79036 0.15709 0.67334 0.0
O33 O 0.72328 0.09678 0.69916 0.0
C34 C 0.80646 0.11335 0.73953 0.0
O35 O 0.83533 0.11985 0.72995 0.0
C36 C 0.77221 0.03373 0.70526 0.0
O37 O 0.75836 0.02984 0.72094 0.0
O38 O 0.81553 0.15316 0.69827 0.0
C39 C 0.63626 0.70888 0.02648 0.0
O40 O 0.66661 0.72239 0.017 0.0
O41 O 0.72528 0.78547 0.03567 0.0
Zn42 Zn 0.67706 0.77855 0.04533 0.0
O43 O 0.67939 0.7823 0.07128 0.0
C44 C 0.64473 0.81834 0.02687 0.0
O45 O 0.62083 0.78638 0.01975 0.0
O46 O 0.63434 0.7284 0.03871 0.0
C47 C 0.7097 0.80096 0.07957 0.0
O48 O 0.74143 0.81729 0.07108 0.0
C49 C 0.73758 0.76417 0.04025 0.0
O50 O 0.71849 0.73751 0.05151 0.0
O51 O 0.66947 0.82003 0.03715 0.0
C52 C 0.87858 0.58339 0.37963 0.0
O53 O 0.86056 0.58302 0.39371 0.0
O54 O 0.91175 0.69481 0.36035 0.0
Zn55 Zn 0.87297 0.64808 0.37211 0.0
O56 O 0.87179 0.65662 0.39771 0.0
C57 C 0.81701 0.63706 0.34694 0.0
O58 O 0.84454 0.64695 0.33589 0.0
O59 O 0.88574 0.60803 0.36816 0.0
C60 C 0.8851 0.68824 0.40499 0.0
O61 O 0.90194 0.71871 0.39562 0.0
C62 C 0.94558 0.7096 0.36506 0.0
O63 O 0.95443 0.69415 0.37767 0.0
O64 O 0.8226 0.634 0.36287 0.0
C65 C 0.31647 0.94789 0.70912 0.0
O66 O 0.30816 0.96978 0.71803 0.0
O67 O 0.22994 0.94414 0.70508 0.0
Zn68 Zn 0.23876 0.90251 0.71211 0.0
O69 O 0.23328 0.8959 0.73795 0.0
C70 C 0.19304 0.85331 0.68472 0.0
O71 O 0.21345 0.88224 0.67479 0.0
O72 O 0.29043 0.91568 0.70486 0.0
C73 C 0.22128 0.86372 0.74446 0.0
O74 O 0.21373 0.83559 0.73416 0.0
C75 C 0.19747 0.94013 0.70475 0.0
O76 O 0.16878 0.908 0.7093 0.0
O77 O 0.19998 0.85546 0.70083 0.0
C78 C 0.69539 0.62512 0.62135 0.0
O79 O 0.70499 0.65973 0.61772 0.0
O80 O 0.78184 0.70434 0.62916 0.0
Zn81 Zn 0.77347 0.65649 0.6182 0.0
O82 O 0.78371 0.66272 0.59265 0.0
C83 C 0.81792 0.6488 0.64454 0.0
O84 O 0.79903 0.65891 0.65468 0.0
O85 O 0.72059 0.61624 0.62236 0.0
C86 C 0.81626 0.68582 0.58728 0.0
O87 O 0.84228 0.70623 0.59858 0.0
C88 C 0.78492 0.73209 0.62074 0.0
O89 O 0.78275 0.7305 0.60375 0.0
O90 O 0.80995 0.64378 0.62853 0.0
C91 C 0.08796 0.68806 0.97583 0.0
O92 O 0.0764 0.70391 0.98706 0.0
O93 O 0.0691 0.75891 0.96591 0.0
Zn94 Zn 0.11474 0.75758 0.95806 0.0
O95 O 0.12247 0.76757 0.93243 0.0
C96 C 0.15685 0.80868 0.98546 0.0
O97 O 0.12488 0.79131 0.99374 0.0
O98 O 0.10663 0.70653 0.96272 0.0
C99 C 0.14314 0.80043 0.92671 0.0
O100 O 0.15896 0.82824 0.93773 0.0
C101 C 0.06394 0.78627 0.96335 0.0
O102 O 0.08895 0.81536 0.95468 0.0
O103 O 0.15944 0.79729 0.97053 0.0
C104 C 0.35998 0.05865 0.30015 0.0
O105 O 0.32651 0.03537 0.30608 0.0
O106 O 0.27484 0.05439 0.29504 0.0
Zn107 Zn 0.32337 0.09657 0.28587 0.0
O108 O 0.3215 0.10101 0.26 0.0
C109 C 0.3194 0.14638 0.31073 0.0
O110 O 0.29918 0.11537 0.31941 0.0
O111 O 0.3652 0.087 0.29153 0.0
C112 C 0.30728 0.11914 0.25339 0.0
O113 O 0.29262 0.1337 0.26366 0.0
C114 C 0.24476 0.03667 0.28648 0.0
O115 O 0.24365 0.04605 0.27033 0.0
O116 O 0.33351 0.14511 0.29632 0.0
C117 C 0.30495 0.35707 0.62324 0.0
O118 O 0.29322 0.32157 0.62066 0.0
O119 O 0.21791 0.28262 0.63312 0.0
Zn120 Zn 0.2274 0.32937 0.62092 0.0
O121 O 0.21638 0.31861 0.59556 0.0
C122 C 0.18623 0.3467 0.6462 0.0
O123 O 0.20266 0.33619 0.65762 0.0
O124 O 0.28125 0.36798 0.6239 0.0
C125 C 0.18415 0.30909 0.58971 0.0
O126 O 0.15796 0.30544 0.60048 0.0
C127 C 0.18592 0.25538 0.63676 0.0
O128 O 0.15601 0.25702 0.63264 0.0
O129 O 0.194 0.34726 0.63026 0.0
C130 C 0.91324 0.29622 0.94926 0.0
O131 O 0.92177 0.28658 0.93448 0.0
O132 O 0.9147 0.20631 0.96593 0.0
Zn133 Zn 0.87733 0.21762 0.95499 0.0
O134 O 0.87561 0.20856 0.92934 0.0
C135 C 0.81962 0.17671 0.98054 0.0
O136 O 0.84648 0.19525 0.99178 0.0
O137 O 0.89293 0.27103 0.96006 0.0
C138 C 0.84673 0.2024 0.92093 0.0
O139 O 0.8193 0.20308 0.92916 0.0
C140 C 0.94774 0.22233 0.96001 0.0
O141 O 0.95614 0.245 0.94674 0.0
O142 O 0.82654 0.18279 0.96448 0.0
C143 C 0.63345 0.94496 0.28944 0.0
O144 O 0.66664 0.96757 0.28301 0.0
O145 O 0.71215 0.93685 0.29986 0.0
Zn146 Zn 0.66382 0.89739 0.28926 0.0
O147 O 0.66962 0.89153 0.26384 0.0
C148 C 0.65081 0.84387 0.31634 0.0
O149 O 0.66019 0.87227 0.32677 0.0
O150 O 0.62483 0.91175 0.29316 0.0
C151 C 0.69357 0.88279 0.25899 0.0
O152 O 0.71475 0.87935 0.27066 0.0
C153 C 0.73923 0.96168 0.29112 0.0
O154 O 0.73657 0.96203 0.27417 0.0
O155 O 0.64927 0.84826 0.30015 0.0
H156 H 0.64024 0.65282 0.00983 0.0
H157 H 0.59374 0.58654 0.01008 0.0
H158 H 0.51839 0.61028 0.03865 0.0
H159 H 0.56528 0.6764 0.03896 0.0
H160 H 0.52356 0.55735 0.05385 0.0
H161 H 0.50412 0.58133 0.99497 0.0
H162 H 0.52248 0.60378 0.96501 0.0
H163 H 0.56339 0.52782 0.95776 0.0
H164 H 0.54571 0.50524 0.98776 0.0
H165 H 0.36333 0.37985 0.05035 0.0
H166 H 0.4078 0.44561 0.04548 0.0
H167 H 0.48415 0.41669 0.02165 0.0
H168 H 0.43944 0.35049 0.02627 0.0
H169 H 0.47927 0.47127 0.00357 0.0
H170 H 0.49881 0.44787 0.06252 0.0
H171 H 0.47995 0.42525 0.09242 0.0
H172 H 0.43838 0.50075 0.09935 0.0
H173 H 0.45654 0.52348 0.0694 0.0
C174 C 0.61352 0.64398 0.01591 0.0
C175 C 0.60645 0.66974 0.02448 0.0
C176 C 0.58689 0.60607 0.01599 0.0
C177 C 0.55246 0.59341 0.02432 0.0
C178 C 0.54481 0.61938 0.03221 0.0
C179 C 0.57159 0.65716 0.03235 0.0
C180 C 0.52561 0.55298 0.02607 0.0
C181 C 0.51343 0.5387 0.04279 0.0
C182 C 0.51334 0.52836 0.01173 0.0
C183 C 0.5239 0.54185 0.99367 0.0
C184 C 0.51729 0.56961 0.98703 0.0
C185 C 0.52753 0.58233 0.97003 0.0
C186 C 0.54418 0.56731 0.9595 0.0
C187 C 0.55053 0.53946 0.96593 0.0
C188 C 0.54037 0.52667 0.98293 0.0
C189 C 0.38956 0.38738 0.04407 0.0
C190 C 0.39798 0.35996 0.0388 0.0
C191 C 0.41496 0.42501 0.04132 0.0
C192 C 0.44941 0.43599 0.03339 0.0
C193 C 0.4577 0.40872 0.02781 0.0
C194 C 0.43221 0.37097 0.03054 0.0
C195 C 0.47695 0.47604 0.03127 0.0
C196 C 0.48939 0.49011 0.01456 0.0
C197 C 0.48946 0.50059 0.0456 0.0
C198 C 0.47874 0.48714 0.06366 0.0
C199 C 0.4854 0.45946 0.07038 0.0
C200 C 0.47488 0.44665 0.08734 0.0
C201 C 0.4579 0.46149 0.09777 0.0
C202 C 0.4515 0.48925 0.09126 0.0
C203 C 0.46194 0.50213 0.07429 0.0
H204 H 0.44977 0.45153 0.1109 0.0
H205 H 0.55208 0.57719 0.94634 0.0
H206 H 0.03535 0.39387 0.40993 0.0
H207 H 0.00089 0.42691 0.40654 0.0
H208 H 0.04159 0.45637 0.35416 0.0
H209 H 0.07674 0.42364 0.3575 0.0
H210 H 0.04272 0.51442 0.37149 0.0
H211 H 0.95477 0.38594 0.36098 0.0
H212 H 0.9214 0.31858 0.36724 0.0
H213 H 0.8774 0.33768 0.41405 0.0
H214 H 0.91096 0.40524 0.4082 0.0
H215 H 0.91482 0.57526 0.35182 0.0
H216 H 0.94661 0.53908 0.35047 0.0
H217 H 0.91084 0.50002 0.40263 0.0
H218 H 0.87831 0.53545 0.40397 0.0
H219 H 0.90637 0.44531 0.3825 0.0
H220 H 0.99796 0.57368 0.39426 0.0
H221 H 0.03179 0.64124 0.38843 0.0
H222 H 0.06918 0.62237 0.33955 0.0
H223 H 0.03512 0.55461 0.345 0.0
C224 C 0.03721 0.40754 0.3977 0.0
C225 C 0.05853 0.40587 0.38392 0.0
C226 C 0.01735 0.42628 0.39577 0.0
C227 C 0.01813 0.44342 0.37999 0.0
C228 C 0.04047 0.44307 0.36641 0.0
C229 C 0.0605 0.42436 0.36834 0.0
C230 C 0.99509 0.4612 0.37772 0.0
C231 C 0.01281 0.4992 0.37359 0.0
C232 C 0.95617 0.44137 0.38074 0.0
C233 C 0.93561 0.40069 0.38421 0.0
C234 C 0.93818 0.3758 0.37266 0.0
C235 C 0.9192 0.33758 0.37613 0.0
C236 C 0.89735 0.32387 0.39105 0.0
C237 C 0.89435 0.34834 0.40251 0.0
C238 C 0.91331 0.3866 0.39911 0.0
C239 C 0.91335 0.55863 0.36294 0.0
C240 C 0.89434 0.55847 0.37807 0.0
C241 C 0.93166 0.5381 0.36216 0.0
C242 C 0.93165 0.51745 0.37657 0.0
C243 C 0.91129 0.5159 0.39139 0.0
C244 C 0.89277 0.53622 0.39214 0.0
C245 C 0.95408 0.49868 0.37655 0.0
C246 C 0.93622 0.46046 0.38023 0.0
C247 C 0.99288 0.51833 0.37315 0.0
C248 C 0.01368 0.55907 0.36995 0.0
C249 C 0.01319 0.58393 0.38221 0.0
C250 C 0.03243 0.62225 0.37899 0.0
C251 C 0.05254 0.63608 0.36361 0.0
C252 C 0.05354 0.61161 0.35145 0.0
C253 C 0.0343 0.57325 0.3546 0.0
H254 H 0.0674 0.66575 0.36113 0.0
H255 H 0.88269 0.29427 0.39372 0.0
H256 H 0.37802 0.01449 0.71683 0.0
H257 H 0.44262 0.03561 0.70905 0.0
H258 H 0.40819 0.93213 0.68219 0.0
H259 H 0.34332 0.91044 0.69018 0.0
H260 H 0.4669 0.94992 0.70239 0.0
H261 H 0.43569 0.01264 0.65963 0.0
H262 H 0.4109 0.05159 0.64836 0.0
H263 H 0.49238 0.14481 0.67776 0.0
H264 H 0.51733 0.10627 0.68941 0.0
H265 H 0.64863 0.01442 0.66957 0.0
H266 H 0.58207 0.99381 0.66902 0.0
H267 H 0.60184 0.08769 0.70069 0.0
H268 H 0.66844 0.1086 0.7013 0.0
H269 H 0.54932 0.07228 0.67468 0.0
H270 H 0.57533 0.00715 0.71962 0.0
H271 H 0.59995 0.96813 0.73103 0.0
H272 H 0.52741 0.87904 0.69708 0.0
H273 H 0.50274 0.91777 0.68529 0.0
C274 C 0.3841 0.99623 0.70921 0.0
C275 C 0.35552 0.96077 0.70412 0.0
C276 C 0.42105 0.00847 0.70467 0.0
C277 C 0.43017 0.98567 0.69482 0.0
C278 C 0.40173 0.95022 0.68973 0.0
C279 C 0.3647 0.9379 0.6943 0.0
C280 C 0.46963 0.99831 0.69057 0.0
C281 C 0.48471 0.97631 0.696 0.0
C282 C 0.49303 0.03309 0.68252 0.0
C283 C 0.4782 0.05645 0.6755 0.0
C284 C 0.44815 0.04136 0.66379 0.0
C285 C 0.4341 0.06339 0.65732 0.0
C286 C 0.45001 0.10063 0.66236 0.0
C287 C 0.48006 0.11595 0.67387 0.0
C288 C 0.49421 0.09403 0.6804 0.0
C289 C 0.63894 0.03103 0.6762 0.0
C290 C 0.66376 0.06293 0.68565 0.0
C291 C 0.60089 0.01915 0.6759 0.0
C292 C 0.58706 0.03899 0.685 0.0
C293 C 0.61201 0.07198 0.69361 0.0
C294 C 0.65002 0.08378 0.694 0.0
C295 C 0.54644 0.02404 0.68666 0.0
C296 C 0.53125 0.04564 0.68081 0.0
C297 C 0.52286 0.98886 0.69429 0.0
C298 C 0.53753 0.9655 0.70143 0.0
C299 C 0.56487 0.97935 0.71448 0.0
C300 C 0.57879 0.95727 0.72104 0.0
C301 C 0.56534 0.92117 0.71474 0.0
C302 C 0.53786 0.90704 0.70192 0.0
C303 C 0.52389 0.92903 0.6953 0.0
H304 H 0.57614 0.90411 0.71984 0.0
H305 H 0.43909 0.11764 0.65733 0.0
H306 H 0.66505 0.54995 0.62592 0.0
H307 H 0.59893 0.50317 0.62842 0.0
H308 H 0.57002 0.58946 0.62447 0.0
H309 H 0.63594 0.6364 0.62209 0.0
H310 H 0.52956 0.53805 0.64964 0.0
H311 H 0.56294 0.53867 0.58968 0.0
H312 H 0.59996 0.5344 0.56569 0.0
H313 H 0.56981 0.42351 0.58151 0.0
H314 H 0.53299 0.42733 0.60576 0.0
H315 H 0.33929 0.43303 0.62535 0.0
H316 H 0.40613 0.4772 0.62722 0.0
H317 H 0.42839 0.38603 0.62725 0.0
H318 H 0.36169 0.34173 0.625 0.0
H319 H 0.47304 0.43818 0.60533 0.0
H320 H 0.43669 0.43576 0.66437 0.0
H321 H 0.39971 0.43982 0.68844 0.0
H322 H 0.43526 0.55318 0.67479 0.0
H323 H 0.47206 0.54964 0.65048 0.0
C324 C 0.64464 0.55899 0.62568 0.0
C325 C 0.65569 0.59684 0.62367 0.0
C326 C 0.6069 0.53224 0.62708 0.0
C327 C 0.57965 0.54288 0.62645 0.0
C328 C 0.59066 0.58071 0.62496 0.0
C329 C 0.62834 0.60746 0.62352 0.0
C330 C 0.53955 0.51455 0.62677 0.0
C331 C 0.51705 0.51637 0.63988 0.0
C332 C 0.52357 0.48584 0.61425 0.0
C333 C 0.54556 0.48345 0.59964 0.0
C334 C 0.56445 0.51349 0.58813 0.0
C335 C 0.58535 0.51113 0.57447 0.0
C336 C 0.58733 0.47874 0.57211 0.0
C337 C 0.56831 0.4486 0.58337 0.0
C338 C 0.5474 0.45084 0.59707 0.0
C339 C 0.3584 0.42237 0.62585 0.0
C340 C 0.34522 0.38389 0.62501 0.0
C341 C 0.39658 0.44764 0.62701 0.0
C342 C 0.42222 0.43488 0.62757 0.0
C343 C 0.40909 0.39647 0.62684 0.0
C344 C 0.37095 0.3712 0.62558 0.0
C345 C 0.46282 0.46163 0.62819 0.0
C346 C 0.48547 0.4596 0.61521 0.0
C347 C 0.47891 0.49006 0.64086 0.0
C348 C 0.45688 0.49232 0.65551 0.0
C349 C 0.4364 0.46147 0.66642 0.0
C350 C 0.41551 0.46369 0.68012 0.0
C351 C 0.41506 0.49671 0.68312 0.0
C352 C 0.43559 0.52761 0.67244 0.0
C353 C 0.45651 0.52552 0.65871 0.0
H354 H 0.39887 0.49837 0.69373 0.0
H355 H 0.60352 0.47696 0.56152 0.0
H356 H 0.96607 0.35607 0.93132 0.0
H357 H 0.99666 0.42151 0.93976 0.0
H358 H 0.92931 0.39214 0.98602 0.0
H359 H 0.89843 0.3263 0.97769 0.0
H360 H 0.93457 0.45375 0.96849 0.0
H361 H 0.01569 0.41248 0.99026 0.0
H362 H 0.05336 0.38163 0.98888 0.0
H363 H 0.12246 0.45848 0.94953 0.0
H364 H 0.08483 0.48945 0.95047 0.0
H365 H 0.0412 0.63833 3e-05 0.0
H366 H 0.01309 0.57054 -0.00054 0.0
H367 H 0.07613 0.57888 0.95349 0.0
H368 H 0.10474 0.64654 0.95409 0.0
H369 H 0.07216 0.52585 0.97507 0.0
H370 H 0.98724 0.56156 0.95054 0.0
H371 H 0.94904 0.59192 0.95066 0.0
H372 H 0.88685 0.52515 0.99418 0.0
H373 H 0.92507 0.49474 0.99446 0.0
C374 C 0.95756 0.36345 0.94325 0.0
C375 C 0.92991 0.33598 0.95387 0.0
C376 C 0.97523 0.40085 0.9481 0.0
C377 C 0.96557 0.41149 0.96362 0.0
C378 C 0.93725 0.38435 0.97403 0.0
C379 C 0.91969 0.34682 0.96925 0.0
C380 C 0.98516 0.45111 0.96884 0.0
C381 C 0.96455 0.4694 0.97029 0.0
C382 C 0.02434 0.4715 0.97087 0.0
C383 C 0.04723 0.45311 0.97035 0.0
C384 C 0.03874 0.42263 0.98121 0.0
C385 C 0.06012 0.40515 0.98053 0.0
C386 C 0.09024 0.41804 0.9691 0.0
C387 C 0.0991 0.44851 0.95837 0.0
C388 C 0.07778 0.46607 0.95899 0.0
C389 C 0.04954 0.62579 0.98996 0.0
C390 C 0.07488 0.64778 0.97698 0.0
C391 C 0.03334 0.58704 0.98962 0.0
C392 C 0.04207 0.5697 0.97626 0.0
C393 C 0.06892 0.59172 0.96388 0.0
C394 C 0.08516 0.6304 0.96422 0.0
C395 C 0.02165 0.52866 0.97442 0.0
C396 C 0.0421 0.51008 0.97356 0.0
C397 C 0.98233 0.50803 0.97283 0.0
C398 C 0.95931 0.52623 0.97265 0.0
C399 C 0.96563 0.55358 0.96022 0.0
C400 C 0.94394 0.57076 0.9602 0.0
C401 C 0.91561 0.56056 0.97246 0.0
C402 C 0.90885 0.53308 0.98472 0.0
C403 C 0.93051 0.51586 0.98482 0.0
H404 H 0.89884 0.57388 0.97242 0.0
H405 H 0.10676 0.40447 0.96859 0.0
H406 H 0.35566 0.99539 0.31325 0.0
H407 H 0.40478 0.97921 0.31386 0.0
H408 H 0.48245 0.08674 0.29237 0.0
H409 H 0.43324 0.10282 0.29134 0.0
H410 H 0.48481 0.03338 0.27498 0.0
H411 H 0.48831 0.06409 0.33498 0.0
H412 H 0.46268 0.06155 0.36412 0.0
H413 H 0.42555 0.94472 0.36739 0.0
H414 H 0.45052 0.94643 0.33817 0.0
H415 H 0.64431 0.01455 0.28346 0.0
H416 H 0.59977 0.03615 0.28755 0.0
H417 H 0.51762 0.92713 0.30583 0.0
H418 H 0.56221 0.90532 0.30197 0.0
H419 H 0.51928 0.98303 0.32555 0.0
H420 H 0.5133 0.9522 0.26504 0.0
H421 H 0.53908 0.95485 0.23592 0.0
H422 H 0.58106 0.07275 0.23381 0.0
H423 H 0.55596 0.07088 0.26303 0.0
C424 C 0.3833 0.01579 0.30885 0.0
C425 C 0.39052 0.05031 0.30215 0.0
C426 C 0.41142 0.00656 0.30929 0.0
C427 C 0.44736 0.03188 0.30327 0.0
C428 C 0.45489 0.06678 0.29706 0.0
C429 C 0.42675 0.07593 0.2965 0.0
C430 C 0.47632 0.02094 0.30228 0.0
C431 C 0.49282 0.02302 0.28612 0.0
C432 C 0.48601 0.00645 0.31671 0.0
C433 C 0.471 0.00534 0.33431 0.0
C434 C 0.47442 0.03779 0.34185 0.0
C435 C 0.46006 0.03651 0.3584 0.0
C436 C 0.44242 0.00298 0.36758 0.0
C437 C 0.43919 0.97067 0.36026 0.0
C438 C 0.45348 0.97179 0.34371 0.0
C439 C 0.6168 0.99514 0.28838 0.0
C440 C 0.60667 0.95812 0.29226 0.0
C441 C 0.59139 0.00754 0.29069 0.0
C442 C 0.55531 0.9831 0.29681 0.0
C443 C 0.54535 0.94638 0.30108 0.0
C444 C 0.57079 0.93394 0.29879 0.0
C445 C 0.52767 0.99562 0.29829 0.0
C446 C 0.51138 0.99369 0.31448 0.0
C447 C 0.51814 0.01031 0.2839 0.0
C448 C 0.53308 0.01145 0.26629 0.0
C449 C 0.52828 0.97874 0.25842 0.0
C450 C 0.54272 0.98009 0.24189 0.0
C451 C 0.56178 0.01396 0.23304 0.0
C452 C 0.56634 0.04654 0.24069 0.0
C453 C 0.55199 0.04535 0.25723 0.0
H454 H 0.57295 0.01495 0.22024 0.0
H455 H 0.43132 0.00205 0.38039 0.0
H456 H 0.33866 0.09587 0.22877 0.0
H457 H 0.34386 0.10884 0.19768 0.0
H458 H 0.28484 0.16922 0.20408 0.0
H459 H 0.27918 0.15612 0.23517 0.0
H460 H 0.26119 0.12418 0.17552 0.0
H461 H 0.37804 0.21578 0.20053 0.0
H462 H 0.43527 0.23734 0.21781 0.0
H463 H 0.4696 0.17678 0.18464 0.0
H464 H 0.41228 0.15444 0.1673 0.0
H465 H 0.31164 0.22849 0.0977 0.0
H466 H 0.30339 0.20947 0.12809 0.0
H467 H 0.36479 0.15215 0.11938 0.0
H468 H 0.37351 0.17134 0.08898 0.0
H469 H 0.38687 0.19312 0.1488 0.0
H470 H 0.27153 0.10341 0.12303 0.0
H471 H 0.21454 0.08186 0.10559 0.0
H472 H 0.1773 0.13814 0.13993 0.0
H473 H 0.23438 0.16051 0.15745 0.0
C474 C 0.32658 0.11173 0.22356 0.0
C475 C 0.30871 0.12518 0.23446 0.0
C476 C 0.32969 0.11921 0.20581 0.0
C477 C 0.31513 0.14038 0.19864 0.0
C478 C 0.29632 0.15289 0.20938 0.0
C479 C 0.29323 0.14547 0.22715 0.0
C480 C 0.3203 0.15027 0.18001 0.0
C481 C 0.28866 0.1396 0.1697 0.0
C482 C 0.35614 0.16959 0.17237 0.0
C483 C 0.39068 0.18312 0.18273 0.0
C484 C 0.39765 0.20682 0.19701 0.0
C485 C 0.43013 0.21923 0.20679 0.0
C486 C 0.456 0.20835 0.20235 0.0
C487 C 0.4495 0.18513 0.18808 0.0
C488 C 0.41703 0.17261 0.17826 0.0
C489 C 0.32342 0.21186 0.10223 0.0
C490 C 0.34324 0.20143 0.09092 0.0
C491 C 0.31854 0.20087 0.11959 0.0
C492 C 0.33314 0.17907 0.12592 0.0
C493 C 0.35327 0.16894 0.11472 0.0
C494 C 0.35818 0.17991 0.09736 0.0
C495 C 0.32776 0.16723 0.14431 0.0
C496 C 0.35937 0.17754 0.15458 0.0
C497 C 0.29189 0.14752 0.1519 0.0
C498 C 0.25741 0.13392 0.14146 0.0
C499 C 0.25133 0.11143 0.12679 0.0
C500 C 0.21898 0.09903 0.11691 0.0
C501 C 0.19235 0.1087 0.12163 0.0
C502 C 0.19797 0.13071 0.13628 0.0
C503 C 0.2303 0.14323 0.1462 0.0
H504 H 0.16733 0.09907 0.11396 0.0
H505 H 0.48114 0.21799 0.20994 0.0
H506 H 0.09939 0.32902 0.43228 0.0
H507 H 0.10558 0.32251 0.46331 0.0
H508 H 0.19598 0.3014 0.45365 0.0
H509 H 0.18934 0.30697 0.42243 0.0
H510 H 0.15106 0.256 0.47829 0.0
H511 H 0.21319 0.38686 0.4674 0.0
H512 H 0.22044 0.44572 0.45604 0.0
H513 H 0.1298 0.43269 0.488 0.0
H514 H 0.12165 0.37344 0.49938 0.0
H515 H 0.22721 0.30335 0.56441 0.0
H516 H 0.21741 0.30096 0.53304 0.0
H517 H 0.11595 0.30402 0.54105 0.0
H518 H 0.12518 0.30589 0.57242 0.0
H519 H 0.1676 0.35828 0.51736 0.0
H520 H 0.1074 0.22655 0.52846 0.0
H521 H 0.10321 0.16905 0.53989 0.0
H522 H 0.19493 0.18606 0.50764 0.0
H523 H 0.20004 0.24402 0.4962 0.0
C524 C 0.12058 0.32293 0.43673 0.0
C525 C 0.14412 0.31883 0.42491 0.0
C526 C 0.12414 0.31931 0.45448 0.0
C527 C 0.15168 0.31213 0.46081 0.0
C528 C 0.17463 0.30709 0.44904 0.0
C529 C 0.17087 0.31039 0.43122 0.0
C530 C 0.15679 0.31055 0.47974 0.0
C531 C 0.15518 0.27857 0.48681 0.0
C532 C 0.16168 0.33981 0.49088 0.0
C533 C 0.16659 0.37553 0.48412 0.0
C534 C 0.19462 0.3964 0.47191 0.0
C535 C 0.19892 0.42986 0.46549 0.0
C536 C 0.17553 0.44289 0.47126 0.0
C537 C 0.14786 0.42253 0.48352 0.0
C538 C 0.14341 0.38903 0.48998 0.0
C539 C 0.20263 0.30316 0.5595 0.0
C540 C 0.17704 0.30496 0.57087 0.0
C541 C 0.19704 0.30167 0.5416 0.0
C542 C 0.16597 0.30229 0.5348 0.0
C543 C 0.14009 0.30352 0.5461 0.0
C544 C 0.14537 0.30448 0.564 0.0
C545 C 0.1615 0.30365 0.51587 0.0
C546 C 0.16342 0.33571 0.50881 0.0
C547 C 0.15741 0.27471 0.50477 0.0
C548 C 0.15436 0.23985 0.51162 0.0
C549 C 0.12692 0.21824 0.52393 0.0
C550 C 0.12432 0.18551 0.53038 0.0
C551 C 0.14886 0.17396 0.52453 0.0
C552 C 0.17598 0.19507 0.51218 0.0
C553 C 0.17872 0.22785 0.5057 0.0
H554 H 0.14679 0.14861 0.52954 0.0
H555 H 0.17891 0.4688 0.46627 0.0
H556 H 0.75305 0.10507 0.76277 0.0
H557 H 0.7608 0.11869 0.79377 0.0
H558 H 0.87618 0.14781 0.79027 0.0
H559 H 0.86864 0.13392 0.75923 0.0
H560 H 0.84205 0.10649 0.81935 0.0
H561 H 0.85475 0.21533 0.79094 0.0
H562 H 0.83581 0.25004 0.77144 0.0
H563 H 0.73655 0.21528 0.80153 0.0
H564 H 0.75466 0.17991 0.82107 0.0
H565 H 0.89993 0.20348 0.89951 0.0
H566 H 0.89372 0.18715 0.86878 0.0
H567 H 0.77982 0.16364 0.86954 0.0
H568 H 0.78602 0.18067 0.90015 0.0
H569 H 0.81476 0.20265 0.84164 0.0
H570 H 0.80152 0.09338 0.86997 0.0
H571 H 0.82005 0.05826 0.88942 0.0
H572 H 0.91971 0.09327 0.85962 0.0
H573 H 0.90201 0.12903 0.84012 0.0
C574 C 0.78002 0.11409 0.7686 0.0
C575 C 0.81033 0.11872 0.75851 0.0
C576 C 0.78442 0.12197 0.7863 0.0
C577 C 0.81921 0.13479 0.79423 0.0
C578 C 0.84915 0.13808 0.78436 0.0
C579 C 0.84479 0.13022 0.76663 0.0
C580 C 0.82458 0.14588 0.8127 0.0
C581 C 0.83655 0.12783 0.82422 0.0
C582 C 0.81674 0.17326 0.81905 0.0
C583 C 0.80589 0.19469 0.80737 0.0
C584 C 0.82875 0.21486 0.79332 0.0
C585 C 0.81819 0.23469 0.78227 0.0
C586 C 0.78496 0.23479 0.78522 0.0
C587 C 0.76226 0.21514 0.79925 0.0
C588 C 0.77268 0.19522 0.81032 0.0
C589 C 0.87357 0.19487 0.89313 0.0
C590 C 0.84342 0.19327 0.90227 0.0
C591 C 0.87001 0.18536 0.87559 0.0
C592 C 0.83614 0.17367 0.86693 0.0
C593 C 0.80619 0.17252 0.87598 0.0
C594 C 0.80978 0.18222 0.89348 0.0
C595 C 0.83192 0.16303 0.84838 0.0
C596 C 0.82025 0.18127 0.83682 0.0
C597 C 0.83999 0.13579 0.84202 0.0
C598 C 0.85061 0.11419 0.85369 0.0
C599 C 0.82753 0.09383 0.86764 0.0
C600 C 0.83786 0.07376 0.87866 0.0
C601 C 0.87109 0.07361 0.87578 0.0
C602 C 0.89401 0.09345 0.86185 0.0
C603 C 0.88382 0.1136 0.8508 0.0
H604 H 0.87904 0.05806 0.88433 0.0
H605 H 0.77683 0.25016 0.77665 0.0
H606 H 0.76805 0.82871 0.10236 0.0
H607 H 0.7668 0.842 0.13324 0.0
H608 H 0.64862 0.80091 0.13 0.0
H609 H 0.64943 0.78707 0.09928 0.0
H610 H 0.69185 0.87319 0.14561 0.0
H611 H 0.67363 0.74871 0.14907 0.0
H612 H 0.68994 0.70009 0.14325 0.0
H613 H 0.79469 0.76518 0.16926 0.0
H614 H 0.77922 0.81446 0.17502 0.0
H615 H 0.64268 0.86716 0.23332 0.0
H616 H 0.64738 0.85329 0.20301 0.0
H617 H 0.75737 0.86985 0.21249 0.0
H618 H 0.75203 0.88208 0.24306 0.0
H619 H 0.7215 0.81198 0.1933 0.0
H620 H 0.74177 0.93579 0.19064 0.0
H621 H 0.7288 0.98684 0.1961 0.0
H622 H 0.62573 0.9277 0.16815 0.0
H623 H 0.63783 0.87604 0.16271 0.0
C624 C 0.74176 0.82223 0.10827 0.0
C625 C 0.70885 0.80687 0.0984 0.0
C626 C 0.7411 0.82978 0.12588 0.0
C627 C 0.70761 0.82242 0.13381 0.0
C628 C 0.67471 0.8068 0.12405 0.0
C629 C 0.67523 0.79877 0.10653 0.0
C630 C 0.70698 0.83204 0.15219 0.0
C631 C 0.69791 0.85959 0.15609 0.0
C632 C 0.71618 0.8151 0.16571 0.0
C633 C 0.72544 0.78545 0.1623 0.0
C634 C 0.70029 0.75281 0.1534 0.0
C635 C 0.70935 0.7251 0.15015 0.0
C636 C 0.74337 0.72959 0.15584 0.0
C637 C 0.76837 0.76176 0.16484 0.0
C638 C 0.75946 0.78958 0.16811 0.0
C639 C 0.66794 0.86803 0.22892 0.0
C640 C 0.69706 0.87584 0.24052 0.0
C641 C 0.67068 0.86026 0.21156 0.0
C642 C 0.70302 0.86117 0.20536 0.0
C643 C 0.73217 0.86902 0.21695 0.0
C644 C 0.72914 0.87611 0.2344 0.0
C645 C 0.70602 0.8531 0.18687 0.0
C646 C 0.7156 0.82586 0.18289 0.0
C647 C 0.69787 0.87079 0.17323 0.0
C648 C 0.69057 0.9019 0.1764 0.0
C649 C 0.71621 0.93355 0.18576 0.0
C650 C 0.70903 0.96262 0.18883 0.0
C651 C 0.67642 0.96047 0.18251 0.0
C652 C 0.65096 0.9293 0.17305 0.0
C653 C 0.65799 0.90014 0.16995 0.0
H654 H 0.67091 0.983 0.18491 0.0
H655 H 0.75033 0.7081 0.15331 0.0
H656 H 0.87777 0.74048 0.57076 0.0
H657 H 0.8927 0.74423 0.53982 0.0
H658 H 0.78993 0.64162 0.5308 0.0
H659 H 0.77452 0.63784 0.5616 0.0
H660 H 0.85534 0.64501 0.51619 0.0
H661 H 0.79302 0.71755 0.51934 0.0
H662 H 0.78433 0.76844 0.53051 0.0
H663 H 0.89436 0.84892 0.51339 0.0
H664 H 0.90389 0.79843 0.50233 0.0
H665 H 0.83533 0.63334 0.42614 0.0
H666 H 0.82729 0.63649 0.45724 0.0
H667 H 0.91752 0.75048 0.45783 0.0
H668 H 0.92456 0.74796 0.42641 0.0
H669 H 0.86471 0.74503 0.47755 0.0
H670 H 0.92781 0.67599 0.47301 0.0
H671 H 0.93999 0.62701 0.46232 0.0
H672 H 0.8349 0.54274 0.48279 0.0
H673 H 0.82183 0.5912 0.49339 0.0
C674 C 0.85829 0.7188 0.56217 0.0
C675 C 0.82496 0.68886 0.56859 0.0
C676 C 0.86684 0.72104 0.54453 0.0
C677 C 0.84236 0.69321 0.5331 0.0
C678 C 0.80914 0.66331 0.53947 0.0
C679 C 0.80034 0.6613 0.55704 0.0
C680 C 0.8515 0.69478 0.5145 0.0
C681 C 0.85708 0.66664 0.50766 0.0
C682 C 0.85514 0.72385 0.50363 0.0
C683 C 0.84932 0.75419 0.51019 0.0
C684 C 0.81548 0.74607 0.5181 0.0
C685 C 0.81038 0.77485 0.52438 0.0
C686 C 0.83882 0.81189 0.52271 0.0
C687 C 0.87238 0.82022 0.5147 0.0
C688 C 0.87764 0.79154 0.50842 0.0
C689 C 0.85355 0.65907 0.43289 0.0
C690 C 0.88074 0.69035 0.42387 0.0
C691 C 0.84906 0.66078 0.4507 0.0
C692 C 0.87236 0.69346 0.45998 0.0
C693 C 0.89933 0.72491 0.45097 0.0
C694 C 0.90338 0.72342 0.43304 0.0
C695 C 0.86794 0.69475 0.47902 0.0
C696 C 0.86335 0.7235 0.48602 0.0
C697 C 0.86586 0.66653 0.49012 0.0
C698 C 0.87373 0.63725 0.48389 0.0
C699 C 0.90719 0.64701 0.47514 0.0
C700 C 0.91427 0.61934 0.46911 0.0
C701 C 0.88821 0.58179 0.47185 0.0
C702 C 0.85505 0.57184 0.48067 0.0
C703 C 0.84782 0.5994 0.48672 0.0
H704 H 0.89373 0.56041 0.46716 0.0
H705 H 0.83481 0.83413 0.52757 0.0
H706 H 0.11899 0.74884 0.90061 0.0
H707 H 0.13255 0.76029 0.86964 0.0
H708 H 0.19676 0.87846 0.8793 0.0
H709 H 0.18367 0.86725 0.91029 0.0
H710 H 0.14799 0.8596 0.85098 0.0
H711 H 0.24178 0.83385 0.87259 0.0
H712 H 0.26466 0.79723 0.88811 0.0
H713 H 0.20332 0.70527 0.8535 0.0
H714 H 0.17963 0.74119 0.83791 0.0
H715 H 0.23907 0.91627 0.76974 0.0
H716 H 0.22589 0.90578 0.80075 0.0
H717 H 0.17377 0.78712 0.7927 0.0
H718 H 0.18765 0.79741 0.76178 0.0
H719 H 0.21631 0.8065 0.82045 0.0
H720 H 0.12197 0.83056 0.79882 0.0
H721 H 0.09722 0.86556 0.7833 0.0
H722 H 0.15667 0.95833 0.81771 0.0
H723 H 0.18221 0.92406 0.8333 0.0
C724 C 0.13591 0.77728 0.89615 0.0
C725 C 0.15025 0.80719 0.90791 0.0
C726 C 0.14368 0.78374 0.87847 0.0
C727 C 0.16582 0.82019 0.87224 0.0
C728 C 0.17957 0.85014 0.88388 0.0
C729 C 0.17208 0.84368 0.90157 0.0
C730 C 0.17508 0.82706 0.8536 0.0
C731 C 0.16334 0.84842 0.84431 0.0
C732 C 0.19429 0.81166 0.8449 0.0
C733 C 0.20864 0.79008 0.8542 0.0
C734 C 0.23292 0.80571 0.86838 0.0
C735 C 0.24608 0.7851 0.87717 0.0
C736 C 0.23537 0.74891 0.87182 0.0
C737 C 0.21155 0.73329 0.85764 0.0
C738 C 0.19827 0.75377 0.84881 0.0
C739 C 0.22488 0.88794 0.77458 0.0
C740 C 0.21429 0.85765 0.76329 0.0
C741 C 0.2172 0.88198 0.79229 0.0
C742 C 0.19833 0.84563 0.79901 0.0
C743 C 0.18829 0.8154 0.7878 0.0
C744 C 0.1962 0.82134 0.77012 0.0
C745 C 0.18915 0.83903 0.81772 0.0
C746 C 0.20093 0.81771 0.82705 0.0
C747 C 0.16969 0.85423 0.82643 0.0
C748 C 0.15431 0.87488 0.81711 0.0
C749 C 0.13001 0.85854 0.80299 0.0
C750 C 0.11579 0.87822 0.7942 0.0
C751 C 0.12545 0.91418 0.79949 0.0
C752 C 0.14926 0.93049 0.81361 0.0
C753 C 0.16359 0.91094 0.82244 0.0
H754 H 0.11441 0.92938 0.79266 0.0
H755 H 0.2456 0.73299 0.87864 0.0
H756 H 0.15424 0.84969 0.01259 0.0
H757 H 0.19677 0.91582 0.01783 0.0
H758 H 0.26912 0.91748 0.97718 0.0
H759 H 0.22637 0.85146 0.97161 0.0
H760 H 0.26761 0.96476 0.02549 0.0
H761 H 0.2918 0.99363 0.95159 0.0
H762 H 0.26075 0.966 0.92379 0.0
H763 H 0.15482 0.90856 0.94961 0.0
H764 H 0.18512 0.93634 0.97746 0.0
H765 H 0.37047 0.16089 0.02065 0.0
H766 H 0.3551 0.09672 0.01474 0.0
H767 H 0.25529 0.07714 0.98805 0.0
H768 H 0.27157 0.14144 0.99306 0.0
H769 H 0.27894 0.03917 0.97309 0.0
H770 H 0.2583 0.05758 0.03294 0.0
H771 H 0.27727 0.08701 0.06175 0.0
H772 H 0.3561 0.04892 0.06628 0.0
H773 H 0.33794 0.0197 0.03738 0.0
C774 C 0.17967 0.86384 0.00506 0.0
C775 C 0.18654 0.84555 0.99144 0.0
C776 C 0.20404 0.90166 0.00811 0.0
C777 C 0.23567 0.92169 0.99764 0.0
C778 C 0.2445 0.90262 0.9852 0.0
C779 C 0.22004 0.86489 0.98206 0.0
C780 C 0.25624 0.96293 0.99817 0.0
C781 C 0.27055 0.98112 0.01401 0.0
C782 C 0.25916 0.98418 0.98327 0.0
C783 C 0.24084 0.96665 0.96663 0.0
C784 C 0.26191 0.97504 0.95132 0.0
C785 C 0.24442 0.95943 0.93556 0.0
C786 C 0.20586 0.93554 0.93495 0.0
C787 C 0.1847 0.92701 0.95011 0.0
C788 C 0.20202 0.94266 0.96589 0.0
C789 C 0.34576 0.14307 0.01315 0.0
C790 C 0.32202 0.156 0.00745 0.0
C791 C 0.33686 0.10636 0.00989 0.0
C792 C 0.30351 0.08177 0.00136 0.0
C793 C 0.28114 0.09547 0.9947 0.0
C794 C 0.29046 0.13232 0.99759 0.0
C795 C 0.29003 0.04121 0.00046 0.0
C796 C 0.277 0.02303 0.98452 0.0
C797 C 0.28662 0.0199 0.01544 0.0
C798 C 0.29708 0.03684 0.03294 0.0
C799 C 0.2798 0.05564 0.04006 0.0
C800 C 0.29041 0.07229 0.05639 0.0
C801 C 0.31796 0.06994 0.06582 0.0
C802 C 0.33483 0.05079 0.05895 0.0
C803 C 0.3244 0.03418 0.0426 0.0
H804 H 0.32618 0.0829 0.07845 0.0
H805 H 0.19233 0.92389 0.92271 0.0
H806 H 0.23385 0.38889 0.35979 0.0
H807 H 0.28459 0.37785 0.35168 0.0
H808 H 0.21436 0.30037 0.31235 0.0
H809 H 0.16471 0.31276 0.31976 0.0
H810 H 0.28471 0.3191 0.35681 0.0
H811 H 0.25636 0.28088 0.28258 0.0
H812 H 0.24641 0.30801 0.25612 0.0
H813 H 0.29882 0.41594 0.28006 0.0
H814 H 0.30966 0.38964 0.30659 0.0
H815 H 0.27802 0.15511 0.33576 0.0
H816 H 0.27433 0.21065 0.34192 0.0
H817 H 0.36208 0.27295 0.3049 0.0
H818 H 0.36478 0.21669 0.29813 0.0
H819 H 0.3104 0.2861 0.29869 0.0
H820 H 0.37398 0.29445 0.34973 0.0
H821 H 0.39221 0.27473 0.37634 0.0
H822 H 0.28497 0.24064 0.39873 0.0
H823 H 0.26582 0.25959 0.37217 0.0
C824 C 0.22978 0.37047 0.34902 0.0
C825 C 0.19517 0.35139 0.34053 0.0
C826 C 0.25877 0.3641 0.34442 0.0
C827 C 0.25352 0.33826 0.33138 0.0
C828 C 0.21972 0.32112 0.32216 0.0
C829 C 0.19105 0.328 0.32653 0.0
C830 C 0.28017 0.32439 0.32923 0.0
C831 C 0.29088 0.31247 0.34408 0.0
C832 C 0.28996 0.31718 0.31269 0.0
C833 C 0.28378 0.3332 0.29664 0.0
C834 C 0.26608 0.31046 0.28218 0.0
C835 C 0.26019 0.32569 0.26717 0.0
C836 C 0.27194 0.36366 0.26641 0.0
C837 C 0.28965 0.3865 0.28067 0.0
C838 C 0.29563 0.37143 0.29571 0.0
C839 C 0.29707 0.18077 0.32916 0.0
C840 C 0.32149 0.18143 0.31637 0.0
C841 C 0.29517 0.21272 0.3328 0.0
C842 C 0.31825 0.24629 0.32403 0.0
C843 C 0.34399 0.24745 0.31184 0.0
C844 C 0.34552 0.21528 0.308 0.0
C845 C 0.31201 0.27837 0.32623 0.0
C846 C 0.30531 0.29378 0.3114 0.0
C847 C 0.30724 0.29001 0.3428 0.0
C848 C 0.31845 0.27845 0.3589 0.0
C849 C 0.35418 0.28255 0.36028 0.0
C850 C 0.36469 0.27152 0.37537 0.0
C851 C 0.33976 0.25644 0.38921 0.0
C852 C 0.30427 0.25239 0.388 0.0
C853 C 0.2936 0.26336 0.37294 0.0
H854 H 0.34795 0.24792 0.40088 0.0
H855 H 0.26734 0.37538 0.25478 0.0
H856 H 0.87947 0.20565 0.70501 0.0
H857 H 0.94122 0.25516 0.69709 0.0
H858 H 0.90069 0.26271 0.64661 0.0
H859 H 0.83839 0.21195 0.65435 0.0
H860 H 0.95934 0.25579 0.64339 0.0
H861 H 0.93433 0.33696 0.67604 0.0
H862 H 0.91185 0.35853 0.70054 0.0
H863 H 0.99232 0.3543 0.73407 0.0
H864 H 0.01496 0.33216 0.70984 0.0
H865 H 0.1484 0.37089 0.62604 0.0
H866 H 0.08661 0.36231 0.63176 0.0
H867 H 0.08796 0.32096 0.68287 0.0
H868 H 0.15 0.32993 0.67739 0.0
H869 H 0.04754 0.35922 0.68131 0.0
H870 H 0.0568 0.26076 0.65012 0.0
H871 H 0.0802 0.23944 0.62582 0.0
H872 H 0.02853 0.27804 0.58948 0.0
H873 H 0.00511 0.29989 0.6136 0.0
C874 C 0.88338 0.21816 0.6923 0.0
C875 C 0.85405 0.20453 0.68023 0.0
C876 C 0.91876 0.24689 0.68785 0.0
C877 C 0.92562 0.26308 0.67132 0.0
C878 C 0.89599 0.25074 0.65947 0.0
C879 C 0.86043 0.22175 0.66391 0.0
C880 C 0.96461 0.289 0.66589 0.0
C881 C 0.97832 0.27918 0.65139 0.0
C882 C 0.98964 0.31927 0.67642 0.0
C883 C 0.97629 0.33277 0.69109 0.0
C884 C 0.9471 0.3404 0.68865 0.0
C885 C 0.93434 0.35277 0.7025 0.0
C886 C 0.95063 0.35776 0.71885 0.0
C887 C 0.97976 0.35046 0.72139 0.0
C888 C 0.99262 0.33807 0.70759 0.0
C889 C 0.13604 0.36099 0.6387 0.0
C890 C 0.15368 0.35025 0.65114 0.0
C891 C 0.10077 0.35622 0.64194 0.0
C892 C 0.08251 0.34033 0.65759 0.0
C893 C 0.10161 0.3332 0.67069 0.0
C894 C 0.13701 0.33816 0.66749 0.0
C895 C 0.04185 0.32506 0.65926 0.0
C896 C 0.02808 0.33672 0.67303 0.0
C897 C 0.0166 0.29653 0.64807 0.0
C898 C 0.02954 0.28224 0.63362 0.0
C899 C 0.05052 0.26475 0.63694 0.0
C900 C 0.06381 0.25261 0.62321 0.0
C901 C 0.05599 0.25752 0.60611 0.0
C902 C 0.03463 0.27433 0.60272 0.0
C903 C 0.02131 0.28656 0.61641 0.0
H904 H 0.06641 0.24822 0.5955 0.0
H905 H 0.94069 0.36732 0.72956 0.0
H906 H 0.60716 0.83033 0.00059 0.0
H907 H 0.61329 0.8902 0.99203 0.0
H908 H 0.6875 0.94373 0.03512 0.0
H909 H 0.68132 0.88453 0.04377 0.0
H910 H 0.64269 0.97371 0.02929 0.0
H911 H 0.72161 0.93856 0.99576 0.0
H912 H 0.731 0.89742 0.97582 0.0
H913 H 0.66226 0.90943 0.93768 0.0
H914 H 0.65216 0.95034 0.95752 0.0
H915 H 0.8014 0.14401 0.0125 0.0
H916 H 0.74829 0.08336 0.01957 0.0
H917 H 0.70344 0.07579 0.9683 0.0
H918 H 0.75709 0.13621 0.96099 0.0
H919 H 0.7119 0.01914 0.97395 0.0
H920 H 0.65306 0.07294 0.00512 0.0
H921 H 0.64679 0.11571 0.0252 0.0
H922 H 0.67831 0.07081 0.06784 0.0
H923 H 0.68536 0.02814 0.048 0.0
C924 C 0.62422 0.85477 0.00839 0.0
C925 C 0.64431 0.85289 0.02265 0.0
C926 C 0.62761 0.88888 0.00352 0.0
C927 C 0.6511 0.92142 0.01287 0.0
C928 C 0.66915 0.91898 0.02775 0.0
C929 C 0.66589 0.88513 0.03256 0.0
C930 C 0.66135 0.95881 0.00619 0.0
C931 C 0.65757 0.98379 0.01713 0.0
C932 C 0.67961 0.9715 0.99007 0.0
C933 C 0.68573 0.94702 0.97818 0.0
C934 C 0.7083 0.93219 0.98317 0.0
C935 C 0.71378 0.90896 0.97189 0.0
C936 C 0.69712 0.9007 0.95552 0.0
C937 C 0.67505 0.91576 0.95038 0.0
C938 C 0.66943 0.93895 0.96164 0.0
C939 C 0.77974 0.12997 0.00288 0.0
C940 C 0.78379 0.14457 0.98609 0.0
C941 C 0.74912 0.09533 0.00699 0.0
C942 C 0.72175 0.07494 0.99447 0.0
C943 C 0.72423 0.09096 0.97815 0.0
C944 C 0.75497 0.12547 0.97399 0.0
C945 C 0.69495 0.03486 0.99744 0.0
C946 C 0.69569 0.00922 0.98579 0.0
C947 C 0.67405 0.02177 0.01293 0.0
C948 C 0.66981 0.04733 0.02501 0.0
C949 C 0.65889 0.07231 0.01876 0.0
C950 C 0.65516 0.09654 0.03011 0.0
C951 C 0.66215 0.09599 0.04778 0.0
C952 C 0.67285 0.07117 0.05414 0.0
C953 C 0.67664 0.04689 0.04285 0.0
H954 H 0.65926 0.11477 0.05655 0.0
H955 H 0.7014 0.88273 0.9468 0.0
H956 H 0.63146 0.78031 0.29813 0.0
H957 H 0.64248 0.72999 0.30652 0.0
H958 H 0.67759 0.77893 0.35726 0.0
H959 H 0.66708 0.82981 0.34888 0.0
H960 H 0.7307 0.77236 0.34129 0.0
H961 H 0.60188 0.69198 0.35265 0.0
H962 H 0.53425 0.66032 0.34716 0.0
H963 H 0.54776 0.60584 0.30272 0.0
H964 H 0.61557 0.63759 0.30778 0.0
H965 H 0.75315 0.61336 0.36574 0.0
H966 H 0.70684 0.63274 0.36143 0.0
H967 H 0.75898 0.68444 0.31303 0.0
H968 H 0.80524 0.66506 0.31711 0.0
H969 H 0.65674 0.63548 0.33251 0.0
H970 H 0.78828 0.7753 0.32139 0.0
H971 H 0.85585 0.80556 0.32719 0.0
H972 H 0.83423 0.74056 0.37354 0.0
H973 H 0.76658 0.71052 0.36817 0.0
C974 C 0.64061 0.77992 0.31124 0.0
C975 C 0.64912 0.80945 0.32274 0.0
C976 C 0.6466 0.7509 0.31606 0.0
C977 C 0.66096 0.75077 0.33249 0.0
C978 C 0.66655 0.77858 0.34449 0.0
C979 C 0.66053 0.80764 0.33968 0.0
C980 C 0.67605 0.72571 0.33595 0.0
C981 C 0.71424 0.74239 0.33962 0.0
C982 C 0.65472 0.68659 0.33367 0.0
C983 C 0.61391 0.66739 0.33055 0.0
C984 C 0.5905 0.67349 0.34162 0.0
C985 C 0.5521 0.65547 0.3386 0.0
C986 C 0.53673 0.63113 0.32458 0.0
C987 C 0.55971 0.62471 0.31357 0.0
C988 C 0.59813 0.64267 0.31653 0.0
C989 C 0.75395 0.62767 0.35386 0.0
C990 C 0.78337 0.63854 0.34196 0.0
C991 C 0.72727 0.63843 0.35137 0.0
C992 C 0.72995 0.66037 0.33705 0.0
C993 C 0.75664 0.66752 0.32418 0.0
C994 C 0.78314 0.65653 0.32657 0.0
C995 C 0.71108 0.68252 0.33744 0.0
C996 C 0.67264 0.66538 0.33443 0.0
C997 C 0.73192 0.72128 0.34051 0.0
C998 C 0.77245 0.74044 0.34428 0.0
C999 C 0.79798 0.7677 0.33287 0.0
C1000 C 0.83627 0.78478 0.33608 0.0
C1001 C 0.84933 0.7749 0.35069 0.0
C1002 C 0.8241 0.74812 0.3622 0.0
C1003 C 0.78579 0.73106 0.35908 0.0
H1004 H 0.87898 0.78805 0.35311 0.0
H1005 H 0.50699 0.6172 0.32227 0.0
H1006 H 0.14444 0.79006 0.70216 0.0
H1007 H 0.08236 0.74263 0.69287 0.0
H1008 H 0.1013 0.79579 0.64289 0.0
H1009 H 0.16342 0.84379 0.65218 0.0
H1010 H 0.04036 0.78855 0.65766 0.0
H1011 H 0.08924 0.70827 0.64666 0.0
H1012 H 0.12407 0.67569 0.65274 0.0
H1013 H 0.05079 0.61814 0.69529 0.0
H1014 H 0.01582 0.65077 0.68962 0.0
H1015 H 0.86253 0.62831 0.62728 0.0
H1016 H 0.928 0.64961 0.63359 0.0
H1017 H 0.91939 0.69914 0.68121 0.0
H1018 H 0.85395 0.67786 0.67513 0.0
H1019 H 0.97586 0.6509 0.66356 0.0
H1020 H 0.98359 0.79077 0.67549 0.0
H1021 H 0.9476 0.82188 0.66854 0.0
H1022 H 0.90983 0.7596 0.62117 0.0
H1023 H 0.94614 0.72871 0.62769 0.0
C1024 C 0.13576 0.79127 0.68905 0.0
C1025 C 0.15866 0.82102 0.67798 0.0
C1026 C 0.1003 0.76393 0.68372 0.0
C1027 C 0.0872 0.76567 0.66719 0.0
C1028 C 0.1109 0.79399 0.65572 0.0
C1029 C 0.1464 0.82138 0.66104 0.0
C1030 C 0.04733 0.74124 0.66286 0.0
C1031 C 0.0265 0.75845 0.65878 0.0
C1032 C 0.02911 0.70193 0.66431 0.0
C1033 C 0.05005 0.6822 0.66778 0.0
C1034 C 0.08072 0.6889 0.6574 0.0
C1035 C 0.10046 0.67037 0.66076 0.0
C1036 C 0.0897 0.64491 0.67441 0.0
C1037 C 0.05911 0.63787 0.68472 0.0
C1038 C 0.03928 0.65634 0.68142 0.0
C1039 C 0.87421 0.64265 0.63939 0.0
C1040 C 0.85334 0.65217 0.65052 0.0
C1041 C 0.91155 0.65455 0.64301 0.0
C1042 C 0.92844 0.6763 0.65772 0.0
C1043 C 0.90669 0.68244 0.66975 0.0
C1044 C 0.86932 0.67034 0.66622 0.0
C1045 C 0.96944 0.69852 0.6588 0.0
C1046 C 0.99017 0.68098 0.66229 0.0
C1047 C 0.98789 0.73757 0.65659 0.0
C1048 C 0.96727 0.75719 0.65218 0.0
C1049 C 0.9678 0.78394 0.66354 0.0
C1050 C 0.94732 0.8015 0.65968 0.0
C1051 C 0.92633 0.79262 0.64446 0.0
C1052 C 0.92599 0.76637 0.63299 0.0
C1053 C 0.94651 0.74883 0.63676 0.0
H1054 H 0.91038 0.80613 0.64153 0.0
H1055 H 0.10501 0.63059 0.67699 0.0
H1056 H 0.02188 0.25765 0.95231 0.0
H1057 H 0.07019 0.24955 0.96616 0.0
H1058 H 0.98797 0.16571 -9e-05 0.0
H1059 H 0.93934 0.17427 0.98632 0.0
H1060 H 0.04827 0.21234 0.01778 0.0
H1061 H 0.02543 0.14137 0.96616 0.0
H1062 H 0.01665 0.12818 0.93483 0.0
H1063 H 0.12828 0.21664 0.92508 0.0
H1064 H 0.13758 0.23072 0.95634 0.0
H1065 H 0.18385 0.16421 0.0471 0.0
H1066 H 0.12761 0.15998 0.03442 0.0
H1067 H 0.1957 0.2511 4e-05 0.0
H1068 H 0.25184 0.25552 0.01254 0.0
H1069 H 0.13758 0.19208 0.98318 0.0
H1070 H 0.15715 0.26575 0.03496 0.0
H1071 H 0.16528 0.27774 0.06641 0.0
H1072 H 0.0583 0.18124 0.07583 0.0
H1073 H 0.04976 0.16839 0.04443 0.0
C1074 C 0.01395 0.23733 0.96262 0.0
C1075 C 0.97673 0.2165 0.96817 0.0
C1076 C 0.04162 0.2326 0.97047 0.0
C1077 C 0.03263 0.20659 0.98389 0.0
C1078 C 0.9955 0.18582 0.98953 0.0
C1079 C 0.96776 0.1907 0.98173 0.0
C1080 C 0.06234 0.20204 0.99226 0.0
C1081 C 0.06735 0.20717 0.01025 0.0
C1082 C 0.08751 0.19571 0.98243 0.0
C1083 C 0.0821 0.18727 0.9636 0.0
C1084 C 0.04803 0.15819 0.95733 0.0
C1085 C 0.04297 0.15053 0.93958 0.0
C1086 C 0.07186 0.17161 0.92797 0.0
C1087 C 0.10592 0.20035 0.93409 0.0
C1088 C 0.11111 0.20815 0.95183 0.0
C1089 C 0.18682 0.18338 0.03686 0.0
C1090 C 0.2223 0.21026 0.03085 0.0
C1091 C 0.15469 0.18096 0.02967 0.0
C1092 C 0.15756 0.20532 0.01634 0.0
C1093 C 0.19291 0.232 0.01029 0.0
C1094 C 0.22496 0.23458 0.01751 0.0
C1095 C 0.1239 0.20323 0.00856 0.0
C1096 C 0.11815 0.19676 0.99069 0.0
C1097 C 0.09796 0.20806 0.01852 0.0
C1098 C 0.10302 0.21587 0.03738 0.0
C1099 C 0.13551 0.24691 0.04375 0.0
C1100 C 0.14016 0.2539 0.06156 0.0
C1101 C 0.11238 0.2302 0.07311 0.0
C1102 C 0.07983 0.19953 0.06687 0.0
C1103 C 0.07506 0.19239 0.04907 0.0
H1104 H 0.11603 0.23566 0.0869 0.0
H1105 H 0.06789 0.16563 0.91423 0.0
H1106 H 0.74863 0.97619 0.32586 0.0
H1107 H 0.80229 0.02721 0.34041 0.0
H1108 H 0.85864 0.0649 0.2913 0.0
H1109 H 0.80501 0.01397 0.27658 0.0
H1110 H 0.90492 0.06518 0.3181 0.0
H1111 H 0.81864 0.1085 0.30728 0.0
H1112 H 0.75746 0.10498 0.30819 0.0
H1113 H 0.75906 0.10324 0.36382 0.0
H1114 H 0.82003 0.10615 0.36322 0.0
H1115 H 0.04204 0.24951 0.34125 0.0
H1116 H 0.9911 0.19414 0.32776 0.0
H1117 H 0.93129 0.16415 0.37628 0.0
H1118 H 0.98189 0.2198 0.38983 0.0
H1119 H 0.88666 0.15867 0.35014 0.0
H1120 H 0.97354 0.11703 0.36126 0.0
H1121 H 0.03441 0.11987 0.36054 0.0
H1122 H 0.03177 0.11785 0.30492 0.0
H1123 H 0.97109 0.11553 0.30529 0.0
C1124 C 0.77252 0.99516 0.31815 0.0
C1125 C 0.77249 0.99119 0.30005 0.0
C1126 C 0.8031 0.02432 0.32648 0.0
C1127 C 0.83422 0.04994 0.31689 0.0
C1128 C 0.83482 0.04539 0.2989 0.0
C1129 C 0.80411 0.01639 0.29053 0.0
C1130 C 0.86559 0.08221 0.32556 0.0
C1131 C 0.90111 0.0859 0.32495 0.0
C1132 C 0.86026 0.10866 0.3348 0.0
C1133 C 0.82371 0.10713 0.3352 0.0
C1134 C 0.8058 0.10703 0.3197 0.0
C1135 C 0.77119 0.10521 0.32016 0.0
C1136 C 0.75433 0.10378 0.33605 0.0
C1137 C 0.77212 0.10428 0.35152 0.0
C1138 C 0.80671 0.10604 0.35113 0.0
C1139 C 0.01816 0.23104 0.34909 0.0
C1140 C 0.01602 0.23906 0.36663 0.0
C1141 C 0.98912 0.19931 0.34137 0.0
C1142 C 0.95755 0.17483 0.35106 0.0
C1143 C 0.95543 0.18266 0.36858 0.0
C1144 C 0.98442 0.21443 0.37631 0.0
C1145 C 0.92619 0.14176 0.34275 0.0
C1146 C 0.89058 0.13793 0.34338 0.0
C1147 C 0.93146 0.11515 0.33358 0.0
C1148 C 0.96792 0.11647 0.33331 0.0
C1149 C 0.98608 0.1175 0.34887 0.0
C1150 C 0.02052 0.11896 0.34853 0.0
C1151 C 0.037 0.11914 0.3327 0.0
C1152 C 0.019 0.11776 0.31717 0.0
C1153 C 0.98456 0.11634 0.31744 0.0
H1154 H 0.06367 0.12027 0.33246 0.0
H1155 H 0.72754 0.10237 0.33638 0.0
H1156 H 0.7817 0.74067 0.65571 0.0
H1157 H 0.78379 0.79336 0.67096 0.0
H1158 H 0.79845 0.85034 0.62233 0.0
H1159 H 0.79641 0.79776 0.60692 0.0
H1160 H 0.84465 0.89688 0.64877 0.0
H1161 H 0.71495 0.80644 0.63961 0.0
H1162 H 0.65913 0.74398 0.64133 0.0
H1163 H 0.66709 0.74692 0.69684 0.0
H1164 H 0.72334 0.80921 0.69544 0.0
H1165 H 0.79239 0.02956 0.67198 0.0
H1166 H 0.79868 0.97946 0.65882 0.0
H1167 H 0.77005 0.92058 0.70757 0.0
H1168 H 0.76284 0.97026 0.72076 0.0
H1169 H 0.73295 0.87459 0.68219 0.0
H1170 H 0.86048 0.96571 0.69194 0.0
H1171 H 0.91718 0.02757 0.6907 0.0
H1172 H 0.91485 0.02331 0.6351 0.0
H1173 H 0.85779 0.96162 0.63599 0.0
C1174 C 0.78562 0.76449 0.64824 0.0
C1175 C 0.78856 0.7649 0.63007 0.0
C1176 C 0.78675 0.79453 0.65699 0.0
C1177 C 0.79089 0.82551 0.64774 0.0
C1178 C 0.79517 0.82661 0.62968 0.0
C1179 C 0.79384 0.79649 0.6209 0.0
C1180 C 0.78924 0.8561 0.65682 0.0
C1181 C 0.82014 0.89219 0.65594 0.0
C1182 C 0.75758 0.84961 0.66653 0.0
C1183 C 0.72357 0.81231 0.66741 0.0
C1184 C 0.70497 0.79364 0.65218 0.0
C1185 C 0.67323 0.75829 0.65309 0.0
C1186 C 0.65963 0.74145 0.66918 0.0
C1187 C 0.67769 0.75998 0.68439 0.0
C1188 C 0.70949 0.79531 0.68354 0.0
C1189 C 0.78762 0.00605 0.67995 0.0
C1190 C 0.77715 0.0039 0.69743 0.0
C1191 C 0.79142 0.97751 0.67241 0.0
C1192 C 0.78534 0.94648 0.68226 0.0
C1193 C 0.77496 0.9443 0.69973 0.0
C1194 C 0.77091 0.97274 0.70725 0.0
C1195 C 0.78838 0.91566 0.67413 0.0
C1196 C 0.75766 0.87943 0.67514 0.0
C1197 C 0.82033 0.92203 0.66463 0.0
C1198 C 0.85464 0.95916 0.66404 0.0
C1199 C 0.87187 0.97809 0.67944 0.0
C1200 C 0.90411 0.0131 0.6788 0.0
C1201 C 0.91956 0.0294 0.66283 0.0
C1202 C 0.90283 0.01067 0.64746 0.0
C1203 C 0.87056 0.97566 0.64803 0.0
H1204 H 0.94453 0.0565 0.66236 0.0
H1205 H 0.63505 0.71408 0.66987 0.0
H1206 H 0.78405 0.81709 0.01711 0.0
H1207 H 0.8408 0.82372 0.00406 0.0
H1208 H 0.82645 0.72817 0.03282 0.0
H1209 H 0.76995 0.72167 0.04615 0.0
H1210 H 0.89782 0.78336 0.03347 0.0
H1211 H 0.80324 0.7211 0.99009 0.0
H1212 H 0.75264 0.71282 0.9705 0.0
H1213 H 0.82718 0.81552 0.94481 0.0
H1214 H 0.87813 0.82467 0.96441 0.0
H1215 H 0.01277 0.73511 0.98562 0.0
H1216 H 0.95896 0.73505 0.99855 0.0
H1217 H 0.986 0.836 0.97099 0.0
H1218 H 0.04016 0.83637 0.95794 0.0
H1219 H 0.91026 0.78213 0.96954 0.0
H1220 H 0.00577 0.84244 0.01223 0.0
H1221 H 0.05618 0.8496 0.03164 0.0
H1222 H 0.97955 0.74947 0.05855 0.0
H1223 H 0.92876 0.74138 0.03911 0.0
C1224 C 0.79298 0.79751 0.0207 0.0
C1225 C 0.77238 0.76873 0.03262 0.0
C1226 C 0.82536 0.80127 0.01318 0.0
C1227 C 0.83759 0.77616 0.01731 0.0
C1228 C 0.81747 0.74782 0.02943 0.0
C1229 C 0.78512 0.74409 0.037 0.0
C1230 C 0.87123 0.77922 0.00893 0.0
C1231 C 0.90036 0.78268 0.0195 0.0
C1232 C 0.87493 0.77929 0.99069 0.0
C1233 C 0.84439 0.77376 0.97884 0.0
C1234 C 0.80877 0.74207 0.98035 0.0
C1235 C 0.78003 0.73719 0.96923 0.0
C1236 C 0.78666 0.76368 0.95645 0.0
C1237 C 0.82207 0.79506 0.95473 0.0
C1238 C 0.8509 0.80009 0.96584 0.0
C1239 C 0.00729 0.75729 0.98224 0.0
C1240 C 0.0308 0.78582 0.97077 0.0
C1241 C 0.9766 0.75727 0.98971 0.0
C1242 C 0.96877 0.78571 0.98585 0.0
C1243 C 0.9917 0.81386 0.97416 0.0
C1244 C 0.02263 0.81407 0.96676 0.0
C1245 C 0.93657 0.78586 0.99409 0.0
C1246 C 0.90776 0.78303 0.9835 0.0
C1247 C 0.93309 0.78624 0.01231 0.0
C1248 C 0.96352 0.79112 0.0241 0.0
C1249 C -0.00028 0.82177 0.02219 0.0
C1250 C 0.02836 0.82603 0.03322 0.0
C1251 C 0.02109 0.79996 0.0463 0.0
C1252 C 0.98514 0.76962 0.0484 0.0
C1253 C 0.95641 0.7652 0.03739 0.0
H1254 H 0.0433 0.80331 0.05482 0.0
H1255 H 0.76438 0.75986 0.94786 0.0
H1256 H 0.01689 0.75556 0.37604 0.0
H1257 H 0.0647 0.81272 0.36221 0.0
H1258 H 0.98786 0.79874 0.32132 0.0
H1259 H 0.93962 0.74165 0.33516 0.0
H1260 H 0.05985 0.81503 0.30971 0.0
H1261 H 0.0041 0.86162 0.34958 0.0
H1262 H 0.98123 0.86851 0.37806 0.0
H1263 H 0.0915 0.91478 0.39913 0.0
H1264 H 0.11494 0.90762 0.37083 0.0
H1265 H 0.17559 0.99315 0.27227 0.0
H1266 H 0.12213 0.93897 0.28529 0.0
H1267 H 0.18618 0.9533 0.33163 0.0
H1268 H 0.23944 0.00782 0.31887 0.0
H1269 H 0.11733 0.93719 0.33976 0.0
H1270 H 0.17285 0.88751 0.30133 0.0
H1271 H 0.19697 0.87909 0.2735 0.0
H1272 H 0.08901 0.83727 0.2504 0.0
H1273 H 0.06436 0.84594 0.27806 0.0
C1274 C 0.01012 0.76463 0.36411 0.0
C1275 C 0.97449 0.74412 0.35669 0.0
C1276 C 0.03742 0.79734 0.35627 0.0
C1277 C 0.02967 0.80997 0.34082 0.0
C1278 C 0.99429 0.7894 0.33326 0.0
C1279 C 0.96679 0.7569 0.34121 0.0
C1280 C 0.05879 0.84447 0.33248 0.0
C1281 C 0.07203 0.8419 0.31612 0.0
C1282 C 0.07516 0.87922 0.34109 0.0
C1283 C 0.0612 0.88375 0.35811 0.0
C1284 C 0.02342 0.87296 0.36032 0.0
C1285 C 0.01036 0.87697 0.37643 0.0
C1286 C 0.03488 0.89199 0.39041 0.0
C1287 C 0.07253 0.90311 0.38829 0.0
C1288 C 0.08573 0.89912 0.37222 0.0
C1289 C 0.17825 0.98487 0.28526 0.0
C1290 C 0.21185 0.00469 0.29449 0.0
C1291 C 0.14771 0.95381 0.29266 0.0
C1292 C 0.15032 0.9418 0.30935 0.0
C1293 C 0.18355 0.96204 0.31873 0.0
C1294 C 0.21402 0.99315 0.31138 0.0
C1295 C 0.11872 0.9078 0.31698 0.0
C1296 C 0.10501 0.91042 0.33325 0.0
C1297 C 0.10214 0.87301 0.30835 0.0
C1298 C 0.11688 0.86778 0.29171 0.0
C1299 C 0.15433 0.87682 0.29028 0.0
C1300 C 0.16808 0.87195 0.27454 0.0
C1301 C 0.14456 0.85776 0.26017 0.0
C1302 C 0.10721 0.84833 0.26153 0.0
C1303 C 0.09333 0.85319 0.27723 0.0
H1304 H 0.15526 0.85399 0.24801 0.0
H1305 H 0.02472 0.89508 0.40287 0.0
H1306 H 0.25105 0.00977 0.69473 0.0
H1307 H 0.24258 0.06113 0.68524 0.0
H1308 H 0.12378 0.99295 0.69248 0.0
H1309 H 0.13195 0.94098 0.70184 0.0
H1310 H 0.14071 0.03095 0.662 0.0
H1311 H 0.17439 0.06033 0.72139 0.0
H1312 H 0.21173 0.07003 0.74776 0.0
H1313 H 0.3076 0.15908 0.72282 0.0
H1314 H 0.27098 0.14957 0.69619 0.0
H1315 H 0.12245 0.19217 0.64723 0.0
H1316 H 0.11817 0.13672 0.66083 0.0
H1317 H 0.2379 0.18747 0.65873 0.0
H1318 H 0.24248 0.24292 0.64549 0.0
H1319 H 0.21212 0.15553 0.6894 0.0
H1320 H 0.18032 0.121 0.62916 0.0
H1321 H 0.14355 0.11086 0.60252 0.0
H1322 H 0.04425 0.03142 0.62917 0.0
H1323 H 0.08039 0.04145 0.65603 0.0
C1324 C 0.22309 0.00562 0.69436 0.0
C1325 C 0.19218 0.97131 0.69912 0.0
C1326 C 0.21832 0.0351 0.68899 0.0
C1327 C 0.1826 0.03102 0.68839 0.0
C1328 C 0.1516 0.9967 0.69293 0.0
C1329 C 0.15634 0.9671 0.69832 0.0
C1330 C 0.17795 0.06263 0.68274 0.0
C1331 C 0.15572 0.05803 0.66819 0.0
C1332 C 0.19789 0.09804 0.6907 0.0
C1333 C 0.21997 0.10406 0.70675 0.0
C1334 C 0.2035 0.08182 0.72148 0.0
C1335 C 0.22453 0.08731 0.73649 0.0
C1336 C 0.26202 0.11511 0.73696 0.0
C1337 C 0.27855 0.13755 0.72243 0.0
C1338 C 0.25765 0.13215 0.70739 0.0
C1339 C 0.14785 0.19151 0.64971 0.0
C1340 C 0.1828 0.22192 0.64524 0.0
C1341 C 0.14534 0.15977 0.65743 0.0
C1342 C 0.17771 0.15785 0.66066 0.0
C1343 C 0.21257 0.18837 0.65639 0.0
C1344 C 0.21511 0.22003 0.64876 0.0
C1345 C 0.17576 0.12414 0.66837 0.0
C1346 C 0.19668 0.12833 0.68335 0.0
C1347 C 0.15465 0.08842 0.66079 0.0
C1348 C 0.13297 0.0823 0.64464 0.0
C1349 C 0.15059 0.10159 0.62936 0.0
C1350 C 0.12988 0.09582 0.61422 0.0
C1351 C 0.09157 0.0706 0.61417 0.0
C1352 C 0.07391 0.05101 0.62924 0.0
C1353 C 0.0945 0.0567 0.64442 0.0
H1354 H 0.07558 0.06617 0.60243 0.0
H1355 H 0.27826 0.11931 0.74859 0.0
loop_
_geom_bond_atom_site_label_1
_geom_bond_atom_site_label_2
_geom_bond_distance
_geom_bond_site_symmetry_2
_ccdc_geom_bond_type
C0 O1 1.160 . S
C0 O7 1.185 . S
O1 C0 1.160 . S
O2 Zn3 1.899 . S
O2 C10 1.284 . S
Zn3 O2 1.899 . S
Zn3 O4 2.032 . S
Zn3 O7 2.086 . S
Zn3 O12 1.977 . S
O4 Zn3 2.032 . S
O4 C8 1.278 . S
C5 O6 1.203 . S
C5 O12 1.267 . S
O6 C5 1.203 . S
O7 C0 1.185 . S
O7 Zn3 2.086 . S
C8 O4 1.278 . S
C8 O9 1.211 . S
O9 C8 1.211 . S
C10 O2 1.284 . S
C10 O11 1.273 . S
O11 C10 1.273 . S
O12 Zn3 1.977 . S
O12 C5 1.267 . S
C13 O14 1.160 . S
C13 O20 1.185 . S
O14 C13 1.160 . S
O15 Zn16 1.899 . S
O15 C23 1.284 . S
Zn16 O15 1.899 . S
Zn16 O17 2.032 . S
Zn16 O20 2.086 . S
Zn16 O25 1.977 . S
O17 Zn16 2.032 . S
O17 C21 1.278 . S
C18 O19 1.203 . S
C18 O25 1.267 . S
O19 C18 1.203 . S
O20 C13 1.185 . S
O20 Zn16 2.086 . S
C21 O17 1.278 . S
C21 O22 1.211 . S
O22 C21 1.211 . S
C23 O15 1.284 . S
C23 O24 1.273 . S
O24 C23 1.273 . S
O25 Zn16 1.977 . S
O25 C18 1.267 . S
C26 O27 1.160 . S
C26 O33 1.185 . S
O27 C26 1.160 . S
O28 Zn29 1.899 . S
O28 C36 1.284 . S
Zn29 O28 1.899 . S
Zn29 O30 2.032 . S
Zn29 O33 2.086 . S
Zn29 O38 1.977 . S
O30 Zn29 2.032 . S
O30 C34 1.278 . S
C31 O32 1.203 . S
C31 O38 1.267 . S
O32 C31 1.203 . S
O33 C26 1.185 . S
O33 Zn29 2.086 . S
C34 O30 1.278 . S
C34 O35 1.211 . S
O35 C34 1.211 . S
C36 O28 1.284 . S
C36 O37 1.273 . S
O37 C36 1.273 . S
O38 Zn29 1.977 . S
O38 C31 1.267 . S
C39 O40 1.160 . S
C39 O46 1.185 . S
O40 C39 1.160 . S
O41 Zn42 1.899 . S
O41 C49 1.284 . S
Zn42 O41 1.899 . S
Zn42 O43 2.032 . S
Zn42 O46 2.086 . S
Zn42 O51 1.977 . S
O43 Zn42 2.032 . S
O43 C47 1.278 . S
C44 O45 1.203 . S
C44 O51 1.267 . S
O45 C44 1.203 . S
O46 C39 1.185 . S
O46 Zn42 2.086 . S
C47 O43 1.278 . S
C47 O48 1.211 . S
O48 C47 1.211 . S
C49 O41 1.284 . S
C49 O50 1.273 . S
O50 C49 1.273 . S
O51 Zn42 1.977 . S
O51 C44 1.267 . S
C52 O53 1.160 . S
C52 O59 1.185 . S
O53 C52 1.160 . S
O54 Zn55 1.899 . S
O54 C62 1.284 . S
Zn55 O54 1.899 . S
Zn55 O56 2.032 . S
Zn55 O59 2.086 . S
Zn55 O64 1.977 . S
O56 Zn55 2.032 . S
O56 C60 1.278 . S
C57 O58 1.203 . S
C57 O64 1.267 . S
O58 C57 1.203 . S
O59 C52 1.185 . S
O59 Zn55 2.086 . S
C60 O56 1.278 . S
C60 O61 1.211 . S
O61 C60 1.211 . S
C62 O54 1.284 . S
C62 O63 1.273 . S
O63 C62 1.273 . S
O64 Zn55 1.977 . S
O64 C57 1.267 . S
C65 O66 1.160 . S
C65 O72 1.185 . S
O66 C65 1.160 . S
O67 Zn68 1.899 . S
O67 C75 1.284 . S
Zn68 O67 1.899 . S
Zn68 O69 2.032 . S
Zn68 O72 2.086 . S
Zn68 O77 1.977 . S
O69 Zn68 2.032 . S
O69 C73 1.278 . S
C70 O71 1.203 . S
C70 O77 1.267 . S
O71 C70 1.203 . S
O72 C65 1.185 . S
O72 Zn68 2.086 . S
C73 O69 1.278 . S
C73 O74 1.211 . S
O74 C73 1.211 . S
C75 O67 1.284 . S
C75 O76 1.273 . S
O76 C75 1.273 . S
O77 Zn68 1.977 . S
O77 C70 1.267 . S
C78 O79 1.160 . S
C78 O85 1.185 . S
O79 C78 1.160 . S
O80 Zn81 1.899 . S
O80 C88 1.284 . S
Zn81 O80 1.899 . S
Zn81 O82 2.032 . S
Zn81 O85 2.086 . S
Zn81 O90 1.977 . S
O82 Zn81 2.032 . S
O82 C86 1.278 . S
C83 O84 1.203 . S
C83 O90 1.267 . S
O84 C83 1.203 . S
O85 C78 1.185 . S
O85 Zn81 2.086 . S
C86 O82 1.278 . S
C86 O87 1.211 . S
O87 C86 1.211 . S
C88 O80 1.284 . S
C88 O89 1.273 . S
O89 C88 1.273 . S
O90 Zn81 1.977 . S
O90 C83 1.267 . S
C91 O92 1.160 . S
C91 O98 1.185 . S
O92 C91 1.160 . S
O93 Zn94 1.899 . S
O93 C101 1.284 . S
Zn94 O93 1.899 . S
Zn94 O95 2.032 . S
Zn94 O98 2.086 . S
Zn94 O103 1.977 . S
O95 Zn94 2.032 . S
O95 C99 1.278 . S
C96 O97 1.203 . S
C96 O103 1.267 . S
O97 C96 1.203 . S
O98 C91 1.185 . S
O98 Zn94 2.086 . S
C99 O95 1.278 . S
C99 O100 1.211 . S
O100 C99 1.211 . S
C101 O93 1.284 . S
C101 O102 1.273 . S
O102 C101 1.273 . S
O103 Zn94 1.977 . S
O103 C96 1.267 . S
C104 O105 1.160 . S
C104 O111 1.185 . S
O105 C104 1.160 . S
O106 Zn107 1.899 . S
O106 C114 1.284 . S
Zn107 O106 1.899 . S
Zn107 O108 2.032 . S
Zn107 O111 2.086 . S
Zn107 O116 1.977 . S
O108 Zn107 2.032 . S
O108 C112 1.278 . S
C109 O110 1.203 . S
C109 O116 1.267 . S
O110 C109 1.203 . S
O111 C104 1.185 . S
O111 Zn107 2.086 . S
C112 O108 1.278 . S
C112 O113 1.211 . S
O113 C112 1.211 . S
C114 O106 1.284 . S
C114 O115 1.273 . S
O115 C114 1.273 . S
O116 Zn107 1.977 . S
O116 C109 1.267 . S
C117 O118 1.160 . S
C117 O124 1.185 . S
O118 C117 1.160 . S
O119 Zn120 1.899 . S
O119 C127 1.284 . S
Zn120 O119 1.899 . S
Zn120 O121 2.032 . S
Zn120 O124 2.086 . S
Zn120 O129 1.977 . S
O121 Zn120 2.032 . S
O121 C125 1.278 . S
C122 O123 1.203 . S
C122 O129 1.267 . S
O123 C122 1.203 . S
O124 C117 1.185 . S
O124 Zn120 2.086 . S
C125 O121 1.278 . S
C125 O126 1.211 . S
O126 C125 1.211 . S
C127 O119 1.284 . S
C127 O128 1.273 . S
O128 C127 1.273 . S
O129 Zn120 1.977 . S
O129 C122 1.267 . S
C130 O131 1.160 . S
C130 O137 1.185 . S
O131 C130 1.160 . S
O132 Zn133 1.899 . S
O132 C140 1.284 . S
Zn133 O132 1.899 . S
Zn133 O134 2.032 . S
Zn133 O137 2.086 . S
Zn133 O142 1.977 . S
O134 Zn133 2.032 . S
O134 C138 1.278 . S
C135 O136 1.203 . S
C135 O142 1.267 . S
O136 C135 1.203 . S
O137 C130 1.185 . S
O137 Zn133 2.086 . S
C138 O134 1.278 . S
C138 O139 1.211 . S
O139 C138 1.211 . S
C140 O132 1.284 . S
C140 O141 1.273 . S
O141 C140 1.273 . S
O142 Zn133 1.977 . S
O142 C135 1.267 . S
C143 O144 1.160 . S
C143 O150 1.185 . S
O144 C143 1.160 . S
O145 Zn146 1.899 . S
O145 C153 1.284 . S
Zn146 O145 1.899 . S
Zn146 O147 2.032 . S
Zn146 O150 2.086 . S
Zn146 O155 1.977 . S
O147 Zn146 2.032 . S
O147 C151 1.278 . S
C148 O149 1.203 . S
C148 O155 1.267 . S
O149 C148 1.203 . S
O150 C143 1.185 . S
O150 Zn146 2.086 . S
C151 O147 1.278 . S
C151 O152 1.211 . S
O152 C151 1.211 . S
C153 O145 1.284 . S
C153 O154 1.273 . S
O154 C153 1.273 . S
O155 Zn146 1.977 . S
O155 C148 1.267 . S
H156 C174 0.951 . S
H157 C176 0.951 . S
H158 C178 0.950 . S
H159 C179 0.950 . S
H160 C181 0.950 . S
H161 C184 0.950 . S
H162 C185 0.950 . S
H163 C187 0.950 . S
H164 C188 0.950 . S
H165 C189 0.951 . S
H166 C191 0.951 . S
H167 C193 0.950 . S
H168 C194 0.950 . S
H169 C196 0.950 . S
H170 C199 0.950 . S
H171 C200 0.950 . S
H172 C202 0.950 . S
H173 C203 0.950 . S
C174 H156 0.951 . S
C174 C175 1.366 . S
C174 C176 1.388 . S
C175 C174 1.366 . S
C175 C179 1.385 . S
C176 H157 0.951 . S
C176 C174 1.388 . S
C176 C177 1.366 . S
C177 C176 1.366 . S
C177 C178 1.414 . S
C177 C180 1.499 . S
C178 H158 0.950 . S
C178 C177 1.414 . S
C178 C179 1.374 . S
C179 H159 0.950 . S
C179 C175 1.385 . S
C179 C178 1.374 . S
C180 C177 1.499 . S
C180 C181 1.373 . S
C180 C182 1.389 . S
C181 H160 0.950 . S
C181 C180 1.373 . S
C181 C197 1.377 . S
C182 C180 1.389 . S
C182 C183 1.524 . S
C182 C196 1.377 . S
C183 C182 1.524 . S
C183 C184 1.397 . S
C183 C188 1.363 . S
C184 H161 0.950 . S
C184 C183 1.397 . S
C184 C185 1.334 1_554 S
C185 H162 0.950 . S
C185 C184 1.334 1_556 S
C185 C186 1.287 . S
C186 C185 1.287 . S
C186 C187 1.524 . S
C186 H205 0.913 . S
C187 H163 0.950 . S
C187 C186 1.524 . S
C187 C188 1.415 1_556 S
C188 H164 0.950 . S
C188 C183 1.363 . S
C188 C187 1.415 1_554 S
C189 H165 0.951 . S
C189 C190 1.366 . S
C189 C191 1.388 . S
C190 C189 1.366 . S
C190 C194 1.385 . S
C191 H166 0.951 . S
C191 C189 1.388 . S
C191 C192 1.366 . S
C192 C191 1.366 . S
C192 C193 1.414 . S
C192 C195 1.499 . S
C193 H167 0.950 . S
C193 C192 1.414 . S
C193 C194 1.374 . S
C194 H168 0.950 . S
C194 C190 1.385 . S
C194 C193 1.374 . S
C195 C192 1.499 . S
C195 C196 1.373 . S
C195 C197 1.389 . S
C196 H169 0.950 . S
C196 C182 1.377 . S
C196 C195 1.373 . S
C197 C181 1.377 . S
C197 C195 1.389 . S
C197 C198 1.524 . S
C198 C197 1.524 . S
C198 C199 1.397 . S
C198 C203 1.363 . S
C199 H170 0.950 . S
C199 C198 1.397 . S
C199 C200 1.334 . S
C200 H171 0.950 . S
C200 C199 1.334 . S
C200 C201 1.287 . S
C201 C200 1.287 . S
C201 C202 1.524 . S
C201 H204 0.999 . S
C202 H172 0.950 . S
C202 C201 1.524 . S
C202 C203 1.415 . S
C203 H173 0.950 . S
C203 C198 1.363 . S
C203 C202 1.415 . S
H204 C201 0.999 . S
H205 C186 0.913 . S
H206 C224 0.951 . S
H207 C226 0.951 . S
H208 C228 0.950 . S
H209 C229 0.950 . S
H210 C231 0.950 . S
H211 C234 0.950 . S
H212 C235 0.950 . S
H213 C237 0.950 . S
H214 C238 0.950 . S
H215 C239 0.951 . S
H216 C241 0.951 . S
H217 C243 0.950 . S
H218 C244 0.950 . S
H219 C246 0.950 . S
H220 C249 0.950 . S
H221 C250 0.950 . S
H222 C252 0.950 . S
H223 C253 0.950 . S
C224 H206 0.951 . S
C224 C225 1.366 . S
C224 C226 1.388 . S
C225 C224 1.366 . S
C225 C229 1.385 . S
C226 H207 0.951 . S
C226 C224 1.388 . S
C226 C227 1.366 . S
C227 C226 1.366 . S
C227 C228 1.414 . S
C227 C230 1.499 . S
C228 H208 0.950 . S
C228 C227 1.414 . S
C228 C229 1.374 . S
C229 H209 0.950 . S
C229 C225 1.385 . S
C229 C228 1.374 . S
C230 C227 1.499 . S
C230 C231 1.373 . S
C230 C232 1.389 1_455 S
C231 H210 0.950 . S
C231 C230 1.373 . S
C231 C247 1.377 . S
C232 C230 1.389 1_655 S
C232 C233 1.524 . S
C232 C246 1.377 . S
C233 C232 1.524 . S
C233 C234 1.397 . S
C233 C238 1.363 . S
C234 H211 0.950 . S
C234 C233 1.397 . S
C234 C235 1.334 . S
C235 H212 0.950 . S
C235 C234 1.334 . S
C235 C236 1.287 . S
C236 C235 1.287 . S
C236 C237 1.524 . S
C236 H255 0.913 . S
C237 H213 0.950 . S
C237 C236 1.524 . S
C237 C238 1.415 . S
C238 H214 0.950 . S
C238 C233 1.363 . S
C238 C237 1.415 . S
C239 H215 0.951 . S
C239 C240 1.366 . S
C239 C241 1.388 . S
C240 C239 1.366 . S
C240 C244 1.385 . S
C241 H216 0.951 . S
C241 C239 1.388 . S
C241 C242 1.366 . S
C242 C241 1.366 . S
C242 C243 1.414 . S
C242 C245 1.499 . S
C243 H217 0.950 . S
C243 C242 1.414 . S
C243 C244 1.374 . S
C244 H218 0.950 . S
C244 C240 1.385 . S
C244 C243 1.374 . S
C245 C242 1.499 . S
C245 C246 1.373 . S
C245 C247 1.389 1_655 S
C246 H219 0.950 . S
C246 C232 1.377 . S
C246 C245 1.373 . S
C247 C231 1.377 . S
C247 C245 1.389 1_455 S
C247 C248 1.524 . S
C248 C247 1.524 . S
C248 C249 1.397 . S
C248 C253 1.363 . S
C249 H220 0.950 . S
C249 C248 1.397 . S
C249 C250 1.334 . S
C250 H221 0.950 . S
C250 C249 1.334 . S
C250 C251 1.287 . S
C251 C250 1.287 . S
C251 C252 1.524 . S
C251 H254 0.999 . S
C252 H222 0.950 . S
C252 C251 1.524 . S
C252 C253 1.415 . S
C253 H223 0.950 . S
C253 C248 1.363 . S
C253 C252 1.415 . S
H254 C251 0.999 . S
H255 C236 0.913 . S
H256 C274 0.951 . S
H257 C276 0.951 1_545 S
H258 C278 0.950 . S
H259 C279 0.950 . S
H260 C281 0.950 . S
H261 C284 0.950 1_565 S
H262 C285 0.950 . S
H263 C287 0.950 . S
H264 C288 0.950 . S
H265 C289 0.951 . S
H266 C291 0.951 1_565 S
H267 C293 0.950 . S
H268 C294 0.950 . S
H269 C296 0.950 . S
H270 C299 0.950 1_545 S
H271 C300 0.950 . S
H272 C302 0.950 . S
H273 C303 0.950 . S
C274 H256 0.951 . S
C274 C275 1.366 . S
C274 C276 1.388 . S
C275 C274 1.366 . S
C275 C279 1.385 . S
C276 H257 0.951 1_565 S
C276 C274 1.388 . S
C276 C277 1.366 . S
C277 C276 1.366 . S
C277 C278 1.414 . S
C277 C280 1.499 . S
C278 H258 0.950 . S
C278 C277 1.414 . S
C278 C279 1.374 . S
C279 H259 0.950 . S
C279 C275 1.385 . S
C279 C278 1.374 . S
C280 C277 1.499 . S
C280 C281 1.373 . S
C280 C282 1.389 1_565 S
C281 H260 0.950 . S
C281 C280 1.373 . S
C281 C297 1.377 . S
C282 C280 1.389 1_545 S
C282 C283 1.524 . S
C282 C296 1.377 . S
C283 C282 1.524 . S
C283 C284 1.397 . S
C283 C288 1.363 . S
C284 H261 0.950 1_545 S
C284 C283 1.397 . S
C284 C285 1.334 . S
C285 H262 0.950 . S
C285 C284 1.334 . S
C285 C286 1.287 . S
C286 C285 1.287 . S
C286 C287 1.524 . S
C286 H305 0.913 . S
C287 H263 0.950 . S
C287 C286 1.524 . S
C287 C288 1.415 . S
C288 H264 0.950 . S
C288 C283 1.363 . S
C288 C287 1.415 . S
C289 H265 0.951 . S
C289 C290 1.366 . S
C289 C291 1.388 . S
C290 C289 1.366 . S
C290 C294 1.385 . S
C291 H266 0.951 1_545 S
C291 C289 1.388 . S
C291 C292 1.366 . S
C292 C291 1.366 . S
C292 C293 1.414 . S
C292 C295 1.499 . S
C293 H267 0.950 . S
C293 C292 1.414 . S
C293 C294 1.374 . S
C294 H268 0.950 . S
C294 C290 1.385 . S
C294 C293 1.374 . S
C295 C292 1.499 . S
C295 C296 1.373 . S
C295 C297 1.389 1_545 S
C296 H269 0.950 . S
C296 C282 1.377 . S
C296 C295 1.373 . S
C297 C281 1.377 . S
C297 C295 1.389 1_565 S
C297 C298 1.524 . S
C298 C297 1.524 . S
C298 C299 1.397 . S
C298 C303 1.363 . S
C299 H270 0.950 1_565 S
C299 C298 1.397 . S
C299 C300 1.334 . S
C300 H271 0.950 . S
C300 C299 1.334 . S
C300 C301 1.287 . S
C301 C300 1.287 . S
C301 C302 1.524 . S
C301 H304 0.999 . S
C302 H272 0.950 . S
C302 C301 1.524 . S
C302 C303 1.415 . S
C303 H273 0.950 . S
C303 C298 1.363 . S
C303 C302 1.415 . S
H304 C301 0.999 . S
H305 C286 0.913 . S
H306 C324 0.951 . S
H307 C326 0.951 . S
H308 C328 0.950 . S
H309 C329 0.950 . S
H310 C331 0.950 . S
H311 C334 0.950 . S
H312 C335 0.950 . S
H313 C337 0.950 . S
H314 C338 0.950 . S
H315 C339 0.951 . S
H316 C341 0.951 . S
H317 C343 0.950 . S
H318 C344 0.950 . S
H319 C346 0.950 . S
H320 C349 0.950 . S
H321 C350 0.950 . S
H322 C352 0.950 . S
H323 C353 0.950 . S
C324 H306 0.951 . S
C324 C325 1.366 . S
C324 C326 1.388 . S
C325 C324 1.366 . S
C325 C329 1.385 . S
C326 H307 0.951 . S
C326 C324 1.388 . S
C326 C327 1.366 . S
C327 C326 1.366 . S
C327 C328 1.414 . S
C327 C330 1.499 . S
C328 H308 0.950 . S
C328 C327 1.414 . S
C328 C329 1.374 . S
C329 H309 0.950 . S
C329 C325 1.385 . S
C329 C328 1.374 . S
C330 C327 1.499 . S
C330 C331 1.373 . S
C330 C332 1.389 . S
C331 H310 0.950 . S
C331 C330 1.373 . S
C331 C347 1.377 . S
C332 C330 1.389 . S
C332 C333 1.524 . S
C332 C346 1.377 . S
C333 C332 1.524 . S
C333 C334 1.397 . S
C333 C338 1.363 . S
C334 H311 0.950 . S
C334 C333 1.397 . S
C334 C335 1.334 . S
C335 H312 0.950 . S
C335 C334 1.334 . S
C335 C336 1.287 . S
C336 C335 1.287 . S
C336 C337 1.524 . S
C336 H355 0.913 . S
C337 H313 0.950 . S
C337 C336 1.524 . S
C337 C338 1.415 . S
C338 H314 0.950 . S
C338 C333 1.363 . S
C338 C337 1.415 . S
C339 H315 0.951 . S
C339 C340 1.366 . S
C339 C341 1.388 . S
C340 C339 1.366 . S
C340 C344 1.385 . S
C341 H316 0.951 . S
C341 C339 1.388 . S
C341 C342 1.366 . S
C342 C341 1.366 . S
C342 C343 1.414 . S
C342 C345 1.499 . S
C343 H317 0.950 . S
C343 C342 1.414 . S
C343 C344 1.374 . S
C344 H318 0.950 . S
C344 C340 1.385 . S
C344 C343 1.374 . S
C345 C342 1.499 . S
C345 C346 1.373 . S
C345 C347 1.389 . S
C346 H319 0.950 . S
C346 C332 1.377 . S
C346 C345 1.373 . S
C347 C331 1.377 . S
C347 C345 1.389 . S
C347 C348 1.524 . S
C348 C347 1.524 . S
C348 C349 1.397 . S
C348 C353 1.363 . S
C349 H320 0.950 . S
C349 C348 1.397 . S
C349 C350 1.334 . S
C350 H321 0.950 . S
C350 C349 1.334 . S
C350 C351 1.287 . S
C351 C350 1.287 . S
C351 C352 1.524 . S
C351 H354 0.999 . S
C352 H322 0.950 . S
C352 C351 1.524 . S
C352 C353 1.415 . S
C353 H323 0.950 . S
C353 C348 1.363 . S
C353 C352 1.415 . S
H354 C351 0.999 . S
H355 C336 0.913 . S
H356 C374 0.951 . S
H357 C376 0.951 . S
H358 C378 0.950 . S
H359 C379 0.950 . S
H360 C381 0.950 . S
H361 C384 0.950 . S
H362 C385 0.939 1_554 S
H363 C387 0.950 . S
H364 C388 0.950 . S
H365 C389 0.951 . S
H366 C391 0.951 . S
H367 C393 0.950 . S
H368 C394 0.950 . S
H369 C396 0.950 . S
H370 C399 0.950 . S
H371 C400 0.950 . S
H372 C402 0.950 . S
H373 C403 0.950 . S
C374 H356 0.951 . S
C374 C375 1.366 . S
C374 C376 1.388 . S
C375 C374 1.366 . S
C375 C379 1.385 . S
C376 H357 0.951 . S
C376 C374 1.388 . S
C376 C377 1.366 . S
C377 C376 1.366 . S
C377 C378 1.414 . S
C377 C380 1.499 . S
C378 H358 0.950 . S
C378 C377 1.414 . S
C378 C379 1.374 . S
C379 H359 0.950 . S
C379 C375 1.385 . S
C379 C378 1.374 . S
C380 C377 1.499 . S
C380 C381 1.373 . S
C380 C382 1.389 1_655 S
C381 H360 0.950 . S
C381 C380 1.373 . S
C381 C397 1.377 . S
C382 C380 1.389 1_455 S
C382 C383 1.524 . S
C382 C396 1.377 . S
C383 C382 1.524 . S
C383 C384 1.397 . S
C383 C388 1.363 . S
C384 H361 0.950 . S
C384 C383 1.397 . S
C384 C385 1.334 . S
C385 H362 0.939 1_556 S
C385 C384 1.334 . S
C385 C386 1.287 . S
C386 C385 1.287 . S
C386 C387 1.524 . S
C386 H405 0.913 . S
C387 H363 0.950 . S
C387 C386 1.524 . S
C387 C388 1.415 . S
C388 H364 0.950 . S
C388 C383 1.363 . S
C388 C387 1.415 . S
C389 H365 0.951 . S
C389 C390 1.366 . S
C389 C391 1.388 . S
C390 C389 1.366 . S
C390 C394 1.385 . S
C391 H366 0.951 . S
C391 C389 1.388 . S
C391 C392 1.366 . S
C392 C391 1.366 . S
C392 C393 1.414 . S
C392 C395 1.499 . S
C393 H367 0.950 . S
C393 C392 1.414 . S
C393 C394 1.374 . S
C394 H368 0.950 . S
C394 C390 1.385 . S
C394 C393 1.374 . S
C395 C392 1.499 . S
C395 C396 1.373 . S
C395 C397 1.389 1_455 S
C396 H369 0.950 . S
C396 C382 1.377 . S
C396 C395 1.373 . S
C397 C381 1.377 . S
C397 C395 1.389 1_655 S
C397 C398 1.524 . S
C398 C397 1.524 . S
C398 C399 1.397 . S
C398 C403 1.363 . S
C399 H370 0.950 . S
C399 C398 1.397 . S
C399 C400 1.334 . S
C400 H371 0.950 . S
C400 C399 1.334 . S
C400 C401 1.287 . S
C401 C400 1.287 . S
C401 C402 1.524 . S
C401 H404 0.999 . S
C402 H372 0.950 . S
C402 C401 1.524 . S
C402 C403 1.415 . S
C403 H373 0.950 . S
C403 C398 1.363 . S
C403 C402 1.415 . S
H404 C401 0.999 . S
H405 C386 0.913 . S
H406 C424 0.951 . S
H407 C426 0.951 1_565 S
H408 C428 0.950 . S
H409 C429 0.950 . S
H410 C431 0.950 . S
H411 C434 0.950 . S
H412 C435 0.950 . S
H413 C437 0.950 . S
H414 C438 0.950 . S
H415 C439 0.951 . S
H416 C441 0.951 1_545 S
H417 C443 0.950 . S
H418 C444 0.950 . S
H419 C446 0.950 . S
H420 C449 0.950 . S
H421 C450 0.950 . S
H422 C452 0.950 . S
H423 C453 0.950 . S
C424 H406 0.951 . S
C424 C425 1.366 . S
C424 C426 1.388 . S
C425 C424 1.366 . S
C425 C429 1.385 . S
C426 H407 0.951 1_545 S
C426 C424 1.388 . S
C426 C427 1.366 . S
C427 C426 1.366 . S
C427 C428 1.414 . S
C427 C430 1.499 . S
C428 H408 0.950 . S
C428 C427 1.414 . S
C428 C429 1.374 . S
C429 H409 0.950 . S
C429 C425 1.385 . S
C429 C428 1.374 . S
C430 C427 1.499 . S
C430 C431 1.373 . S
C430 C432 1.389 1_545 S
C431 H410 0.950 . S
C431 C430 1.373 . S
C431 C447 1.377 . S
C432 C430 1.389 1_565 S
C432 C433 1.524 . S
C432 C446 1.377 . S
C433 C432 1.524 . S
C433 C434 1.397 1_565 S
C433 C438 1.363 . S
C434 H411 0.950 . S
C434 C433 1.397 1_545 S
C434 C435 1.334 . S
C435 H412 0.950 . S
C435 C434 1.334 . S
C435 C436 1.272 1_545 S
C436 C435 1.272 1_565 S
C436 C437 1.544 . S
C436 H455 0.908 1_565 S
C437 H413 0.950 . S
C437 C436 1.544 . S
C437 C438 1.415 . S
C438 H414 0.950 . S
C438 C433 1.363 . S
C438 C437 1.415 . S
C439 H415 0.951 . S
C439 C440 1.366 . S
C439 C441 1.388 . S
C440 C439 1.366 . S
C440 C444 1.385 . S
C441 H416 0.951 1_565 S
C441 C439 1.388 . S
C441 C442 1.366 . S
C442 C441 1.366 . S
C442 C443 1.414 . S
C442 C445 1.499 . S
C443 H417 0.950 . S
C443 C442 1.414 . S
C443 C444 1.374 . S
C444 H418 0.950 . S
C444 C440 1.385 . S
C444 C443 1.374 . S
C445 C442 1.499 . S
C445 C446 1.373 . S
C445 C447 1.389 1_565 S
C446 H419 0.950 . S
C446 C432 1.377 . S
C446 C445 1.373 . S
C447 C431 1.377 . S
C447 C445 1.389 1_545 S
C447 C448 1.524 . S
C448 C447 1.524 . S
C448 C449 1.397 1_545 S
C448 C453 1.363 . S
C449 H420 0.950 . S
C449 C448 1.397 1_565 S
C449 C450 1.334 . S
C450 H421 0.950 . S
C450 C449 1.334 . S
C450 C451 1.272 1_565 S
C451 C450 1.272 1_545 S
C451 C452 1.544 . S
C451 H454 0.995 . S
C452 H422 0.950 . S
C452 C451 1.544 . S
C452 C453 1.415 . S
C453 H423 0.950 . S
C453 C448 1.363 . S
C453 C452 1.415 . S
H454 C451 0.995 . S
H455 C436 0.908 1_545 S
H456 C474 0.951 . S
H457 C476 0.951 . S
H458 C478 0.950 . S
H459 C479 0.950 . S
H460 C481 0.950 . S
H461 C484 0.950 . S
H462 C485 0.950 . S
H463 C487 0.950 . S
H464 C488 0.950 . S
H465 C489 0.951 . S
H466 C491 0.951 . S
H467 C493 0.950 . S
H468 C494 0.950 . S
H469 C496 0.950 . S
H470 C499 0.950 . S
H471 C500 0.950 . S
H472 C502 0.950 . S
H473 C503 0.950 . S
C474 H456 0.951 . S
C474 C475 1.366 . S
C474 C476 1.388 . S
C475 C474 1.366 . S
C475 C479 1.385 . S
C476 H457 0.951 . S
C476 C474 1.388 . S
C476 C477 1.366 . S
C477 C476 1.366 . S
C477 C478 1.414 . S
C477 C480 1.499 . S
C478 H458 0.950 . S
C478 C477 1.414 . S
C478 C479 1.374 . S
C479 H459 0.950 . S
C479 C475 1.385 . S
C479 C478 1.374 . S
C480 C477 1.499 . S
C480 C481 1.373 . S
C480 C482 1.389 . S
C481 H460 0.950 . S
C481 C480 1.373 . S
C481 C497 1.377 . S
C482 C480 1.389 . S
C482 C483 1.524 . S
C482 C496 1.377 . S
C483 C482 1.524 . S
C483 C484 1.397 . S
C483 C488 1.363 . S
C484 H461 0.950 . S
C484 C483 1.397 . S
C484 C485 1.334 . S
C485 H462 0.950 . S
C485 C484 1.334 . S
C485 C486 1.287 . S
C486 C485 1.287 . S
C486 C487 1.524 . S
C486 H505 0.913 . S
C487 H463 0.950 . S
C487 C486 1.524 . S
C487 C488 1.415 . S
C488 H464 0.950 . S
C488 C483 1.363 . S
C488 C487 1.415 . S
C489 H465 0.951 . S
C489 C490 1.366 . S
C489 C491 1.388 . S
C490 C489 1.366 . S
C490 C494 1.385 . S
C491 H466 0.951 . S
C491 C489 1.388 . S
C491 C492 1.366 . S
C492 C491 1.366 . S
C492 C493 1.414 . S
C492 C495 1.499 . S
C493 H467 0.950 . S
C493 C492 1.414 . S
C493 C494 1.374 . S
C494 H468 0.950 . S
C494 C490 1.385 . S
C494 C493 1.374 . S
C495 C492 1.499 . S
C495 C496 1.373 . S
C495 C497 1.389 . S
C496 H469 0.950 . S
C496 C482 1.377 . S
C496 C495 1.373 . S
C497 C481 1.377 . S
C497 C495 1.389 . S
C497 C498 1.524 . S
C498 C497 1.524 . S
C498 C499 1.397 . S
C498 C503 1.363 . S
C499 H470 0.950 . S
C499 C498 1.397 . S
C499 C500 1.334 . S
C500 H471 0.950 . S
C500 C499 1.334 . S
C500 C501 1.287 . S
C501 C500 1.287 . S
C501 C502 1.524 . S
C501 H504 0.999 . S
C502 H472 0.950 . S
C502 C501 1.524 . S
C502 C503 1.415 . S
C503 H473 0.950 . S
C503 C498 1.363 . S
C503 C502 1.415 . S
H504 C501 0.999 . S
H505 C486 0.913 . S
H506 C524 0.951 . S
H507 C526 0.951 . S
H508 C528 0.950 . S
H509 C529 0.950 . S
H510 C531 0.950 . S
H511 C534 0.950 . S
H512 C535 0.950 . S
H513 C537 0.950 . S
H514 C538 0.950 . S
H515 C539 0.951 . S
H516 C541 0.951 . S
H517 C543 0.950 . S
H518 C544 0.950 . S
H519 C546 0.950 . S
H520 C549 0.950 . S
H521 C550 0.950 . S
H522 C552 0.950 . S
H523 C553 0.950 . S
C524 H506 0.951 . S
C524 C525 1.366 . S
C524 C526 1.388 . S
C525 C524 1.366 . S
C525 C529 1.385 . S
C526 H507 0.951 . S
C526 C524 1.388 . S
C526 C527 1.366 . S
C527 C526 1.366 . S
C527 C528 1.414 . S
C527 C530 1.499 . S
C528 H508 0.950 . S
C528 C527 1.414 . S
C528 C529 1.374 . S
C529 H509 0.950 . S
C529 C525 1.385 . S
C529 C528 1.374 . S
C530 C527 1.499 . S
C530 C531 1.373 . S
C530 C532 1.389 . S
C531 H510 0.950 . S
C531 C530 1.373 . S
C531 C547 1.377 . S
C532 C530 1.389 . S
C532 C533 1.524 . S
C532 C546 1.377 . S
C533 C532 1.524 . S
C533 C534 1.397 . S
C533 C538 1.363 . S
C534 H511 0.950 . S
C534 C533 1.397 . S
C534 C535 1.334 . S
C535 H512 0.950 . S
C535 C534 1.334 . S
C535 C536 1.287 . S
C536 C535 1.287 . S
C536 C537 1.524 . S
C536 H555 0.913 . S
C537 H513 0.950 . S
C537 C536 1.524 . S
C537 C538 1.415 . S
C538 H514 0.950 . S
C538 C533 1.363 . S
C538 C537 1.415 . S
C539 H515 0.951 . S
C539 C540 1.366 . S
C539 C541 1.388 . S
C540 C539 1.366 . S
C540 C544 1.385 . S
C541 H516 0.951 . S
C541 C539 1.388 . S
C541 C542 1.366 . S
C542 C541 1.366 . S
C542 C543 1.414 . S
C542 C545 1.499 . S
C543 H517 0.950 . S
C543 C542 1.414 . S
C543 C544 1.374 . S
C544 H518 0.950 . S
C544 C540 1.385 . S
C544 C543 1.374 . S
C545 C542 1.499 . S
C545 C546 1.373 . S
C545 C547 1.389 . S
C546 H519 0.950 . S
C546 C532 1.377 . S
C546 C545 1.373 . S
C547 C531 1.377 . S
C547 C545 1.389 . S
C547 C548 1.524 . S
C548 C547 1.524 . S
C548 C549 1.397 . S
C548 C553 1.363 . S
C549 H520 0.950 . S
C549 C548 1.397 . S
C549 C550 1.334 . S
C550 H521 0.950 . S
C550 C549 1.334 . S
C550 C551 1.287 . S
C551 C550 1.287 . S
C551 C552 1.524 . S
C551 H554 0.999 . S
C552 H522 0.950 . S
C552 C551 1.524 . S
C552 C553 1.415 . S
C553 H523 0.950 . S
C553 C548 1.363 . S
C553 C552 1.415 . S
H554 C551 0.999 . S
H555 C536 0.913 . S
H556 C574 0.951 . S
H557 C576 0.951 . S
H558 C578 0.950 . S
H559 C579 0.950 . S
H560 C581 0.950 . S
H561 C584 0.950 . S
H562 C585 0.950 . S
H563 C587 0.950 . S
H564 C588 0.950 . S
H565 C589 0.951 . S
H566 C591 0.951 . S
H567 C593 0.950 . S
H568 C594 0.950 . S
H569 C596 0.950 . S
H570 C599 0.950 . S
H571 C600 0.950 . S
H572 C602 0.950 . S
H573 C603 0.950 . S
C574 H556 0.951 . S
C574 C575 1.366 . S
C574 C576 1.388 . S
C575 C574 1.366 . S
C575 C579 1.385 . S
C576 H557 0.951 . S
C576 C574 1.388 . S
C576 C577 1.366 . S
C577 C576 1.366 . S
C577 C578 1.414 . S
C577 C580 1.499 . S
C578 H558 0.950 . S
C578 C577 1.414 . S
C578 C579 1.374 . S
C579 H559 0.950 . S
C579 C575 1.385 . S
C579 C578 1.374 . S
C580 C577 1.499 . S
C580 C581 1.373 . S
C580 C582 1.389 . S
C581 H560 0.950 . S
C581 C580 1.373 . S
C581 C597 1.377 . S
C582 C580 1.389 . S
C582 C583 1.524 . S
C582 C596 1.377 . S
C583 C582 1.524 . S
C583 C584 1.397 . S
C583 C588 1.363 . S
C584 H561 0.950 . S
C584 C583 1.397 . S
C584 C585 1.334 . S
C585 H562 0.950 . S
C585 C584 1.334 . S
C585 C586 1.287 . S
C586 C585 1.287 . S
C586 C587 1.524 . S
C586 H605 0.913 . S
C587 H563 0.950 . S
C587 C586 1.524 . S
C587 C588 1.415 . S
C588 H564 0.950 . S
C588 C583 1.363 . S
C588 C587 1.415 . S
C589 H565 0.951 . S
C589 C590 1.366 . S
C589 C591 1.388 . S
C590 C589 1.366 . S
C590 C594 1.385 . S
C591 H566 0.951 . S
C591 C589 1.388 . S
C591 C592 1.366 . S
C592 C591 1.366 . S
C592 C593 1.414 . S
C592 C595 1.499 . S
C593 H567 0.950 . S
C593 C592 1.414 . S
C593 C594 1.374 . S
C594 H568 0.950 . S
C594 C590 1.385 . S
C594 C593 1.374 . S
C595 C592 1.499 . S
C595 C596 1.373 . S
C595 C597 1.389 . S
C596 H569 0.950 . S
C596 C582 1.377 . S
C596 C595 1.373 . S
C597 C581 1.377 . S
C597 C595 1.389 . S
C597 C598 1.524 . S
C598 C597 1.524 . S
C598 C599 1.397 . S
C598 C603 1.363 . S
C599 H570 0.950 . S
C599 C598 1.397 . S
C599 C600 1.334 . S
C600 H571 0.950 . S
C600 C599 1.334 . S
C600 C601 1.287 . S
C601 C600 1.287 . S
C601 C602 1.524 . S
C601 H604 0.999 . S
C602 H572 0.950 . S
C602 C601 1.524 . S
C602 C603 1.415 . S
C603 H573 0.950 . S
C603 C598 1.363 . S
C603 C602 1.415 . S
H604 C601 0.999 . S
H605 C586 0.913 . S
H606 C624 0.951 . S
H607 C626 0.951 . S
H608 C628 0.950 . S
H609 C629 0.950 . S
H610 C631 0.950 . S
H611 C634 0.950 . S
H612 C635 0.950 . S
H613 C637 0.950 . S
H614 C638 0.950 . S
H615 C639 0.951 . S
H616 C641 0.951 . S
H617 C643 0.950 . S
H618 C644 0.950 . S
H619 C646 0.950 . S
H620 C649 0.950 . S
H621 C650 0.950 . S
H622 C652 0.950 . S
H623 C653 0.950 . S
C624 H606 0.951 . S
C624 C625 1.366 . S
C624 C626 1.388 . S
C625 C624 1.366 . S
C625 C629 1.385 . S
C626 H607 0.951 . S
C626 C624 1.388 . S
C626 C627 1.366 . S
C627 C626 1.366 . S
C627 C628 1.414 . S
C627 C630 1.499 . S
C628 H608 0.950 . S
C628 C627 1.414 . S
C628 C629 1.374 . S
C629 H609 0.950 . S
C629 C625 1.385 . S
C629 C628 1.374 . S
C630 C627 1.499 . S
C630 C631 1.373 . S
C630 C632 1.389 . S
C631 H610 0.950 . S
C631 C630 1.373 . S
C631 C647 1.377 . S
C632 C630 1.389 . S
C632 C633 1.524 . S
C632 C646 1.377 . S
C633 C632 1.524 . S
C633 C634 1.397 . S
C633 C638 1.363 . S
C634 H611 0.950 . S
C634 C633 1.397 . S
C634 C635 1.334 . S
C635 H612 0.950 . S
C635 C634 1.334 . S
C635 C636 1.287 . S
C636 C635 1.287 . S
C636 C637 1.524 . S
C636 H655 0.913 . S
C637 H613 0.950 . S
C637 C636 1.524 . S
C637 C638 1.415 . S
C638 H614 0.950 . S
C638 C633 1.363 . S
C638 C637 1.415 . S
C639 H615 0.951 . S
C639 C640 1.366 . S
C639 C641 1.388 . S
C640 C639 1.366 . S
C640 C644 1.385 . S
C641 H616 0.951 . S
C641 C639 1.388 . S
C641 C642 1.366 . S
C642 C641 1.366 . S
C642 C643 1.414 . S
C642 C645 1.499 . S
C643 H617 0.950 . S
C643 C642 1.414 . S
C643 C644 1.374 . S
C644 H618 0.950 . S
C644 C640 1.385 . S
C644 C643 1.374 . S
C645 C642 1.499 . S
C645 C646 1.373 . S
C645 C647 1.389 . S
C646 H619 0.950 . S
C646 C632 1.377 . S
C646 C645 1.373 . S
C647 C631 1.377 . S
C647 C645 1.389 . S
C647 C648 1.524 . S
C648 C647 1.524 . S
C648 C649 1.397 . S
C648 C653 1.363 . S
C649 H620 0.950 . S
C649 C648 1.397 . S
C649 C650 1.334 . S
C650 H621 0.950 . S
C650 C649 1.334 . S
C650 C651 1.287 . S
C651 C650 1.287 . S
C651 C652 1.524 . S
C651 H654 0.999 . S
C652 H622 0.950 . S
C652 C651 1.524 . S
C652 C653 1.415 . S
C653 H623 0.950 . S
C653 C648 1.363 . S
C653 C652 1.415 . S
H654 C651 0.999 . S
H655 C636 0.913 . S
H656 C674 0.951 . S
H657 C676 0.951 . S
H658 C678 0.950 . S
H659 C679 0.950 . S
H660 C681 0.950 . S
H661 C684 0.950 . S
H662 C685 0.950 . S
H663 C687 0.950 . S
H664 C688 0.950 . S
H665 C689 0.951 . S
H666 C691 0.951 . S
H667 C693 0.950 . S
H668 C694 0.950 . S
H669 C696 0.950 . S
H670 C699 0.950 . S
H671 C700 0.950 . S
H672 C702 0.950 . S
H673 C703 0.950 . S
C674 H656 0.951 . S
C674 C675 1.366 . S
C674 C676 1.388 . S
C675 C674 1.366 . S
C675 C679 1.385 . S
C676 H657 0.951 . S
C676 C674 1.388 . S
C676 C677 1.366 . S
C677 C676 1.366 . S
C677 C678 1.414 . S
C677 C680 1.499 . S
C678 H658 0.950 . S
C678 C677 1.414 . S
C678 C679 1.374 . S
C679 H659 0.950 . S
C679 C675 1.385 . S
C679 C678 1.374 . S
C680 C677 1.499 . S
C680 C681 1.373 . S
C680 C682 1.389 . S
C681 H660 0.950 . S
C681 C680 1.373 . S
C681 C697 1.377 . S
C682 C680 1.389 . S
C682 C683 1.524 . S
C682 C696 1.377 . S
C683 C682 1.524 . S
C683 C684 1.397 . S
C683 C688 1.363 . S
C684 H661 0.950 . S
C684 C683 1.397 . S
C684 C685 1.334 . S
C685 H662 0.950 . S
C685 C684 1.334 . S
C685 C686 1.287 . S
C686 C685 1.287 . S
C686 C687 1.524 . S
C686 H705 0.913 . S
C687 H663 0.950 . S
C687 C686 1.524 . S
C687 C688 1.415 . S
C688 H664 0.950 . S
C688 C683 1.363 . S
C688 C687 1.415 . S
C689 H665 0.951 . S
C689 C690 1.366 . S
C689 C691 1.388 . S
C690 C689 1.366 . S
C690 C694 1.385 . S
C691 H666 0.951 . S
C691 C689 1.388 . S
C691 C692 1.366 . S
C692 C691 1.366 . S
C692 C693 1.414 . S
C692 C695 1.499 . S
C693 H667 0.950 . S
C693 C692 1.414 . S
C693 C694 1.374 . S
C694 H668 0.950 . S
C694 C690 1.385 . S
C694 C693 1.374 . S
C695 C692 1.499 . S
C695 C696 1.373 . S
C695 C697 1.389 . S
C696 H669 0.950 . S
C696 C682 1.377 . S
C696 C695 1.373 . S
C697 C681 1.377 . S
C697 C695 1.389 . S
C697 C698 1.524 . S
C698 C697 1.524 . S
C698 C699 1.397 . S
C698 C703 1.363 . S
C699 H670 0.950 . S
C699 C698 1.397 . S
C699 C700 1.334 . S
C700 H671 0.950 . S
C700 C699 1.334 . S
C700 C701 1.287 . S
C701 C700 1.287 . S
C701 C702 1.524 . S
C701 H704 0.999 . S
C702 H672 0.950 . S
C702 C701 1.524 . S
C702 C703 1.415 . S
C703 H673 0.950 . S
C703 C698 1.363 . S
C703 C702 1.415 . S
H704 C701 0.999 . S
H705 C686 0.913 . S
H706 C724 0.951 . S
H707 C726 0.951 . S
H708 C728 0.950 . S
H709 C729 0.950 . S
H710 C731 0.950 . S
H711 C734 0.950 . S
H712 C735 0.950 . S
H713 C737 0.950 . S
H714 C738 0.950 . S
H715 C739 0.951 . S
H716 C741 0.951 . S
H717 C743 0.950 . S
H718 C744 0.950 . S
H719 C746 0.950 . S
H720 C749 0.950 . S
H721 C750 0.950 . S
H722 C752 0.950 . S
H723 C753 0.950 . S
C724 H706 0.951 . S
C724 C725 1.366 . S
C724 C726 1.388 . S
C725 C724 1.366 . S
C725 C729 1.385 . S
C726 H707 0.951 . S
C726 C724 1.388 . S
C726 C727 1.366 . S
C727 C726 1.366 . S
C727 C728 1.414 . S
C727 C730 1.499 . S
C728 H708 0.950 . S
C728 C727 1.414 . S
C728 C729 1.374 . S
C729 H709 0.950 . S
C729 C725 1.385 . S
C729 C728 1.374 . S
C730 C727 1.499 . S
C730 C731 1.373 . S
C730 C732 1.389 . S
C731 H710 0.950 . S
C731 C730 1.373 . S
C731 C747 1.377 . S
C732 C730 1.389 . S
C732 C733 1.524 . S
C732 C746 1.377 . S
C733 C732 1.524 . S
C733 C734 1.397 . S
C733 C738 1.363 . S
C734 H711 0.950 . S
C734 C733 1.397 . S
C734 C735 1.334 . S
C735 H712 0.950 . S
C735 C734 1.334 . S
C735 C736 1.287 . S
C736 C735 1.287 . S
C736 C737 1.524 . S
C736 H755 0.913 . S
C737 H713 0.950 . S
C737 C736 1.524 . S
C737 C738 1.415 . S
C738 H714 0.950 . S
C738 C733 1.363 . S
C738 C737 1.415 . S
C739 H715 0.951 . S
C739 C740 1.366 . S
C739 C741 1.388 . S
C740 C739 1.366 . S
C740 C744 1.385 . S
C741 H716 0.951 . S
C741 C739 1.388 . S
C741 C742 1.366 . S
C742 C741 1.366 . S
C742 C743 1.414 . S
C742 C745 1.499 . S
C743 H717 0.950 . S
C743 C742 1.414 . S
C743 C744 1.374 . S
C744 H718 0.950 . S
C744 C740 1.385 . S
C744 C743 1.374 . S
C745 C742 1.499 . S
C745 C746 1.373 . S
C745 C747 1.389 . S
C746 H719 0.950 . S
C746 C732 1.377 . S
C746 C745 1.373 . S
C747 C731 1.377 . S
C747 C745 1.389 . S
C747 C748 1.524 . S
C748 C747 1.524 . S
C748 C749 1.397 . S
C748 C753 1.363 . S
C749 H720 0.950 . S
C749 C748 1.397 . S
C749 C750 1.334 . S
C750 H721 0.950 . S
C750 C749 1.334 . S
C750 C751 1.287 . S
C751 C750 1.287 . S
C751 C752 1.524 . S
C751 H754 0.999 . S
C752 H722 0.950 . S
C752 C751 1.524 . S
C752 C753 1.415 . S
C753 H723 0.950 . S
C753 C748 1.363 . S
C753 C752 1.415 . S
H754 C751 0.999 . S
H755 C736 0.913 . S
H756 C774 0.951 . S
H757 C776 0.951 1_554 S
H758 C778 0.950 . S
H759 C779 0.950 . S
H760 C781 0.950 . S
H761 C784 0.950 . S
H762 C785 0.950 . S
H763 C787 0.950 . S
H764 C788 0.950 1_554 S
H765 C789 0.951 . S
H766 C791 0.951 1_556 S
H767 C793 0.950 . S
H768 C794 0.950 . S
H769 C796 0.950 . S
H770 C799 0.950 . S
H771 C800 0.950 . S
H772 C802 0.950 . S
H773 C803 0.950 1_556 S
C774 H756 0.951 . S
C774 C775 1.366 . S
C774 C776 1.388 . S
C775 C774 1.366 . S
C775 C779 1.385 . S
C776 H757 0.951 1_556 S
C776 C774 1.388 . S
C776 C777 1.366 . S
C777 C776 1.366 . S
C777 C778 1.414 . S
C777 C780 1.499 . S
C778 H758 0.950 . S
C778 C777 1.414 . S
C778 C779 1.374 . S
C779 H759 0.950 . S
C779 C775 1.385 . S
C779 C778 1.374 . S
C780 C777 1.499 . S
C780 C781 1.365 1_556 S
C780 C782 1.389 . S
C781 H760 0.950 . S
C781 C780 1.365 1_554 S
C781 C797 1.385 1_565 S
C782 C780 1.389 . S
C782 C783 1.524 . S
C782 C796 1.385 1_565 S
C783 C782 1.524 . S
C783 C784 1.397 . S
C783 C788 1.363 . S
C784 H761 0.950 . S
C784 C783 1.397 . S
C784 C785 1.334 . S
C785 H762 0.950 . S
C785 C784 1.334 . S
C785 C786 1.287 . S
C786 C785 1.287 . S
C786 C787 1.524 . S
C786 H805 0.913 . S
C787 H763 0.950 . S
C787 C786 1.524 . S
C787 C788 1.415 . S
C788 H764 0.950 1_556 S
C788 C783 1.363 . S
C788 C787 1.415 . S
C789 H765 0.951 . S
C789 C790 1.366 . S
C789 C791 1.388 . S
C790 C789 1.366 . S
C790 C794 1.385 . S
C791 H766 0.951 1_554 S
C791 C789 1.388 . S
C791 C792 1.366 . S
C792 C791 1.366 . S
C792 C793 1.414 . S
C792 C795 1.499 . S
C793 H767 0.950 . S
C793 C792 1.414 . S
C793 C794 1.374 . S
C794 H768 0.950 . S
C794 C790 1.385 . S
C794 C793 1.374 . S
C795 C792 1.499 . S
C795 C796 1.365 1_554 S
C795 C797 1.389 . S
C796 H769 0.950 . S
C796 C782 1.385 1_545 S
C796 C795 1.365 1_556 S
C797 C781 1.385 1_545 S
C797 C795 1.389 . S
C797 C798 1.524 . S
C798 C797 1.524 . S
C798 C799 1.397 . S
C798 C803 1.363 . S
C799 H770 0.950 . S
C799 C798 1.397 . S
C799 C800 1.334 . S
C800 H771 0.950 . S
C800 C799 1.334 . S
C800 C801 1.287 . S
C801 C800 1.287 . S
C801 C802 1.524 . S
C801 H804 0.999 . S
C802 H772 0.950 . S
C802 C801 1.524 . S
C802 C803 1.415 . S
C803 H773 0.950 1_554 S
C803 C798 1.363 . S
C803 C802 1.415 . S
H804 C801 0.999 . S
H805 C786 0.913 . S
H806 C824 0.951 . S
H807 C826 0.951 . S
H808 C828 0.950 . S
H809 C829 0.950 . S
H810 C831 0.950 . S
H811 C834 0.950 . S
H812 C835 0.950 . S
H813 C837 0.950 . S
H814 C838 0.950 . S
H815 C839 0.951 . S
H816 C841 0.951 . S
H817 C843 0.950 . S
H818 C844 0.950 . S
H819 C846 0.950 . S
H820 C849 0.950 . S
H821 C850 0.950 . S
H822 C852 0.950 . S
H823 C853 0.950 . S
C824 H806 0.951 . S
C824 C825 1.366 . S
C824 C826 1.388 . S
C825 C824 1.366 . S
C825 C829 1.385 . S
C826 H807 0.951 . S
C826 C824 1.388 . S
C826 C827 1.366 . S
C827 C826 1.366 . S
C827 C828 1.414 . S
C827 C830 1.499 . S
C828 H808 0.950 . S
C828 C827 1.414 . S
C828 C829 1.374 . S
C829 H809 0.950 . S
C829 C825 1.385 . S
C829 C828 1.374 . S
C830 C827 1.499 . S
C830 C831 1.373 . S
C830 C832 1.389 . S
C831 H810 0.950 . S
C831 C830 1.373 . S
C831 C847 1.377 . S
C832 C830 1.389 . S
C832 C833 1.524 . S
C832 C846 1.377 . S
C833 C832 1.524 . S
C833 C834 1.397 . S
C833 C838 1.363 . S
C834 H811 0.950 . S
C834 C833 1.397 . S
C834 C835 1.334 . S
C835 H812 0.950 . S
C835 C834 1.334 . S
C835 C836 1.287 . S
C836 C835 1.287 . S
C836 C837 1.524 . S
C836 H855 0.913 . S
C837 H813 0.950 . S
C837 C836 1.524 . S
C837 C838 1.415 . S
C838 H814 0.950 . S
C838 C833 1.363 . S
C838 C837 1.415 . S
C839 H815 0.951 . S
C839 C840 1.366 . S
C839 C841 1.388 . S
C840 C839 1.366 . S
C840 C844 1.385 . S
C841 H816 0.951 . S
C841 C839 1.388 . S
C841 C842 1.366 . S
C842 C841 1.366 . S
C842 C843 1.414 . S
C842 C845 1.499 . S
C843 H817 0.950 . S
C843 C842 1.414 . S
C843 C844 1.374 . S
C844 H818 0.950 . S
C844 C840 1.385 . S
C844 C843 1.374 . S
C845 C842 1.499 . S
C845 C846 1.373 . S
C845 C847 1.389 . S
C846 H819 0.950 . S
C846 C832 1.377 . S
C846 C845 1.373 . S
C847 C831 1.377 . S
C847 C845 1.389 . S
C847 C848 1.524 . S
C848 C847 1.524 . S
C848 C849 1.397 . S
C848 C853 1.363 . S
C849 H820 0.950 . S
C849 C848 1.397 . S
C849 C850 1.334 . S
C850 H821 0.950 . S
C850 C849 1.334 . S
C850 C851 1.287 . S
C851 C850 1.287 . S
C851 C852 1.524 . S
C851 H854 0.999 . S
C852 H822 0.950 . S
C852 C851 1.524 . S
C852 C853 1.415 . S
C853 H823 0.950 . S
C853 C848 1.363 . S
C853 C852 1.415 . S
H854 C851 0.999 . S
H855 C836 0.913 . S
H856 C874 0.951 . S
H857 C876 0.951 . S
H858 C878 0.950 . S
H859 C879 0.950 . S
H860 C881 0.950 . S
H861 C884 0.950 . S
H862 C885 0.950 . S
H863 C887 0.950 1_455 S
H864 C888 0.950 . S
H865 C889 0.951 . S
H866 C891 0.951 . S
H867 C893 0.950 . S
H868 C894 0.950 . S
H869 C896 0.950 . S
H870 C899 0.950 . S
H871 C900 0.950 . S
H872 C902 0.950 1_655 S
H873 C903 0.950 . S
C874 H856 0.951 . S
C874 C875 1.366 . S
C874 C876 1.388 . S
C875 C874 1.366 . S
C875 C879 1.385 . S
C876 H857 0.951 . S
C876 C874 1.388 . S
C876 C877 1.366 . S
C877 C876 1.366 . S
C877 C878 1.414 . S
C877 C880 1.499 . S
C878 H858 0.950 . S
C878 C877 1.414 . S
C878 C879 1.374 . S
C879 H859 0.950 . S
C879 C875 1.385 . S
C879 C878 1.374 . S
C880 C877 1.499 . S
C880 C881 1.373 . S
C880 C882 1.389 . S
C881 H860 0.950 . S
C881 C880 1.373 . S
C881 C897 1.377 1_655 S
C882 C880 1.389 . S
C882 C883 1.524 . S
C882 C896 1.377 1_655 S
C883 C882 1.524 . S
C883 C884 1.397 . S
C883 C888 1.363 1_655 S
C884 H861 0.950 . S
C884 C883 1.397 . S
C884 C885 1.334 . S
C885 H862 0.950 . S
C885 C884 1.334 . S
C885 C886 1.287 . S
C886 C885 1.287 . S
C886 C887 1.524 . S
C886 H905 0.913 . S
C887 H863 0.950 1_655 S
C887 C886 1.524 . S
C887 C888 1.415 1_655 S
C888 H864 0.950 . S
C888 C883 1.363 1_455 S
C888 C887 1.415 1_455 S
C889 H865 0.951 . S
C889 C890 1.366 . S
C889 C891 1.388 . S
C890 C889 1.366 . S
C890 C894 1.385 . S
C891 H866 0.951 . S
C891 C889 1.388 . S
C891 C892 1.366 . S
C892 C891 1.366 . S
C892 C893 1.414 . S
C892 C895 1.499 . S
C893 H867 0.950 . S
C893 C892 1.414 . S
C893 C894 1.374 . S
C894 H868 0.950 . S
C894 C890 1.385 . S
C894 C893 1.374 . S
C895 C892 1.499 . S
C895 C896 1.373 . S
C895 C897 1.389 . S
C896 H869 0.950 . S
C896 C882 1.377 1_455 S
C896 C895 1.373 . S
C897 C881 1.377 1_455 S
C897 C895 1.389 . S
C897 C898 1.524 . S
C898 C897 1.524 . S
C898 C899 1.397 . S
C898 C903 1.363 1_455 S
C899 H870 0.950 . S
C899 C898 1.397 . S
C899 C900 1.334 . S
C900 H871 0.950 . S
C900 C899 1.334 . S
C900 C901 1.287 . S
C901 C900 1.287 . S
C901 C902 1.524 . S
C901 H904 0.999 . S
C902 H872 0.950 1_455 S
C902 C901 1.524 . S
C902 C903 1.415 1_455 S
C903 H873 0.950 . S
C903 C898 1.363 1_655 S
C903 C902 1.415 1_655 S
H904 C901 0.999 . S
H905 C886 0.913 . S
H906 C924 0.938 1_556 S
H907 C926 0.951 1_556 S
H908 C928 0.950 . S
H909 C929 0.950 . S
H910 C931 0.950 . S
H911 C934 0.950 . S
H912 C935 0.950 . S
H913 C937 0.950 . S
H914 C938 0.950 . S
H915 C939 0.938 1_554 S
H916 C941 0.951 1_554 S
H917 C943 0.950 . S
H918 C944 0.950 . S
H919 C946 0.950 . S
H920 C949 0.950 . S
H921 C950 0.950 . S
H922 C952 0.950 . S
H923 C953 0.950 . S
C924 H906 0.938 1_554 S
C924 C925 1.366 . S
C924 C926 1.388 . S
C925 C924 1.366 . S
C925 C929 1.385 . S
C926 H907 0.951 1_554 S
C926 C924 1.388 . S
C926 C927 1.366 . S
C927 C926 1.366 . S
C927 C928 1.414 . S
C927 C930 1.499 . S
C928 H908 0.950 . S
C928 C927 1.414 . S
C928 C929 1.374 . S
C929 H909 0.950 . S
C929 C925 1.385 . S
C929 C928 1.374 . S
C930 C927 1.499 . S
C930 C931 1.373 . S
C930 C932 1.389 1_554 S
C931 H910 0.950 . S
C931 C930 1.373 . S
C931 C947 1.377 1_565 S
C932 C930 1.389 1_556 S
C932 C933 1.524 . S
C932 C946 1.377 1_565 S
C933 C932 1.524 . S
C933 C934 1.397 . S
C933 C938 1.363 . S
C934 H911 0.950 . S
C934 C933 1.397 . S
C934 C935 1.334 . S
C935 H912 0.950 . S
C935 C934 1.334 . S
C935 C936 1.287 . S
C936 C935 1.287 . S
C936 C937 1.524 . S
C936 H955 0.913 . S
C937 H913 0.950 . S
C937 C936 1.524 . S
C937 C938 1.415 . S
C938 H914 0.950 . S
C938 C933 1.363 . S
C938 C937 1.415 . S
C939 H915 0.938 1_556 S
C939 C940 1.366 . S
C939 C941 1.388 . S
C940 C939 1.366 . S
C940 C944 1.385 . S
C941 H916 0.951 1_556 S
C941 C939 1.388 . S
C941 C942 1.366 . S
C942 C941 1.366 . S
C942 C943 1.414 . S
C942 C945 1.499 . S
C943 H917 0.950 . S
C943 C942 1.414 . S
C943 C944 1.374 . S
C944 H918 0.950 . S
C944 C940 1.385 . S
C944 C943 1.374 . S
C945 C942 1.499 . S
C945 C946 1.373 . S
C945 C947 1.389 1_556 S
C946 H919 0.950 . S
C946 C932 1.377 1_545 S
C946 C945 1.373 . S
C947 C931 1.377 1_545 S
C947 C945 1.389 1_554 S
C947 C948 1.524 . S
C948 C947 1.524 . S
C948 C949 1.397 . S
C948 C953 1.363 . S
C949 H920 0.950 . S
C949 C948 1.397 . S
C949 C950 1.334 . S
C950 H921 0.950 . S
C950 C949 1.334 . S
C950 C951 1.287 . S
C951 C950 1.287 . S
C951 C952 1.524 . S
C951 H954 0.999 . S
C952 H922 0.950 . S
C952 C951 1.524 . S
C952 C953 1.415 . S
C953 H923 0.950 . S
C953 C948 1.363 . S
C953 C952 1.415 . S
H954 C951 0.999 . S
H955 C936 0.913 . S
H956 C974 0.951 . S
H957 C976 0.951 . S
H958 C978 0.950 . S
H959 C979 0.950 . S
H960 C981 0.950 . S
H961 C984 0.950 . S
H962 C985 0.950 . S
H963 C987 0.950 . S
H964 C988 0.950 . S
H965 C989 0.951 . S
H966 C991 0.951 . S
H967 C993 0.950 . S
H968 C994 0.950 . S
H969 C996 0.950 . S
H970 C999 0.950 . S
H971 C1000 0.950 . S
H972 C1002 0.950 . S
H973 C1003 0.950 . S
C974 H956 0.951 . S
C974 C975 1.366 . S
C974 C976 1.388 . S
C975 C974 1.366 . S
C975 C979 1.385 . S
C976 H957 0.951 . S
C976 C974 1.388 . S
C976 C977 1.366 . S
C977 C976 1.366 . S
C977 C978 1.414 . S
C977 C980 1.499 . S
C978 H958 0.950 . S
C978 C977 1.414 . S
C978 C979 1.374 . S
C979 H959 0.950 . S
C979 C975 1.385 . S
C979 C978 1.374 . S
C980 C977 1.499 . S
C980 C981 1.373 . S
C980 C982 1.389 . S
C981 H960 0.950 . S
C981 C980 1.373 . S
C981 C997 1.377 . S
C982 C980 1.389 . S
C982 C983 1.524 . S
C982 C996 1.377 . S
C983 C982 1.524 . S
C983 C984 1.397 . S
C983 C988 1.363 . S
C984 H961 0.950 . S
C984 C983 1.397 . S
C984 C985 1.334 . S
C985 H962 0.950 . S
C985 C984 1.334 . S
C985 C986 1.287 . S
C986 C985 1.287 . S
C986 C987 1.524 . S
C986 H1005 0.913 . S
C987 H963 0.950 . S
C987 C986 1.524 . S
C987 C988 1.415 . S
C988 H964 0.950 . S
C988 C983 1.363 . S
C988 C987 1.415 . S
C989 H965 0.951 . S
C989 C990 1.366 . S
C989 C991 1.388 . S
C990 C989 1.366 . S
C990 C994 1.385 . S
C991 H966 0.951 . S
C991 C989 1.388 . S
C991 C992 1.366 . S
C992 C991 1.366 . S
C992 C993 1.414 . S
C992 C995 1.499 . S
C993 H967 0.950 . S
C993 C992 1.414 . S
C993 C994 1.374 . S
C994 H968 0.950 . S
C994 C990 1.385 . S
C994 C993 1.374 . S
C995 C992 1.499 . S
C995 C996 1.373 . S
C995 C997 1.389 . S
C996 H969 0.950 . S
C996 C982 1.377 . S
C996 C995 1.373 . S
C997 C981 1.377 . S
C997 C995 1.389 . S
C997 C998 1.524 . S
C998 C997 1.524 . S
C998 C999 1.397 . S
C998 C1003 1.363 . S
C999 H970 0.950 . S
C999 C998 1.397 . S
C999 C1000 1.334 . S
C1000 H971 0.950 . S
C1000 C999 1.334 . S
C1000 C1001 1.287 . S
C1001 C1000 1.287 . S
C1001 C1002 1.524 . S
C1001 H1004 0.999 . S
C1002 H972 0.950 . S
C1002 C1001 1.524 . S
C1002 C1003 1.415 . S
C1003 H973 0.950 . S
C1003 C998 1.363 . S
C1003 C1002 1.415 . S
H1004 C1001 0.999 . S
H1005 C986 0.913 . S
H1006 C1024 0.951 . S
H1007 C1026 0.951 . S
H1008 C1028 0.950 . S
H1009 C1029 0.950 . S
H1010 C1031 0.950 . S
H1011 C1034 0.950 . S
H1012 C1035 0.950 . S
H1013 C1037 0.950 . S
H1014 C1038 0.950 1_655 S
H1015 C1039 0.951 . S
H1016 C1041 0.951 . S
H1017 C1043 0.950 . S
H1018 C1044 0.950 . S
H1019 C1046 0.950 . S
H1020 C1049 0.950 . S
H1021 C1050 0.950 . S
H1022 C1052 0.950 . S
H1023 C1053 0.950 1_455 S
C1024 H1006 0.951 . S
C1024 C1025 1.366 . S
C1024 C1026 1.388 . S
C1025 C1024 1.366 . S
C1025 C1029 1.385 . S
C1026 H1007 0.951 . S
C1026 C1024 1.388 . S
C1026 C1027 1.366 . S
C1027 C1026 1.366 . S
C1027 C1028 1.414 . S
C1027 C1030 1.499 . S
C1028 H1008 0.950 . S
C1028 C1027 1.414 . S
C1028 C1029 1.374 . S
C1029 H1009 0.950 . S
C1029 C1025 1.385 . S
C1029 C1028 1.374 . S
C1030 C1027 1.499 . S
C1030 C1031 1.373 . S
C1030 C1032 1.389 . S
C1031 H1010 0.950 . S
C1031 C1030 1.373 . S
C1031 C1047 1.377 1_455 S
C1032 C1030 1.389 . S
C1032 C1033 1.524 . S
C1032 C1046 1.377 1_455 S
C1033 C1032 1.524 . S
C1033 C1034 1.397 . S
C1033 C1038 1.363 . S
C1034 H1011 0.950 . S
C1034 C1033 1.397 . S
C1034 C1035 1.334 . S
C1035 H1012 0.950 . S
C1035 C1034 1.334 . S
C1035 C1036 1.287 . S
C1036 C1035 1.287 . S
C1036 C1037 1.524 . S
C1036 H1055 0.913 . S
C1037 H1013 0.950 . S
C1037 C1036 1.524 . S
C1037 C1038 1.415 . S
C1038 H1014 0.950 1_455 S
C1038 C1033 1.363 . S
C1038 C1037 1.415 . S
C1039 H1015 0.951 . S
C1039 C1040 1.366 . S
C1039 C1041 1.388 . S
C1040 C1039 1.366 . S
C1040 C1044 1.385 . S
C1041 H1016 0.951 . S
C1041 C1039 1.388 . S
C1041 C1042 1.366 . S
C1042 C1041 1.366 . S
C1042 C1043 1.414 . S
C1042 C1045 1.499 . S
C1043 H1017 0.950 . S
C1043 C1042 1.414 . S
C1043 C1044 1.374 . S
C1044 H1018 0.950 . S
C1044 C1040 1.385 . S
C1044 C1043 1.374 . S
C1045 C1042 1.499 . S
C1045 C1046 1.373 . S
C1045 C1047 1.389 . S
C1046 H1019 0.950 . S
C1046 C1032 1.377 1_655 S
C1046 C1045 1.373 . S
C1047 C1031 1.377 1_655 S
C1047 C1045 1.389 . S
C1047 C1048 1.524 . S
C1048 C1047 1.524 . S
C1048 C1049 1.397 . S
C1048 C1053 1.363 . S
C1049 H1020 0.950 . S
C1049 C1048 1.397 . S
C1049 C1050 1.334 . S
C1050 H1021 0.950 . S
C1050 C1049 1.334 . S
C1050 C1051 1.287 . S
C1051 C1050 1.287 . S
C1051 C1052 1.524 . S
C1051 H1054 0.999 . S
C1052 H1022 0.950 . S
C1052 C1051 1.524 . S
C1052 C1053 1.415 . S
C1053 H1023 0.950 1_655 S
C1053 C1048 1.363 . S
C1053 C1052 1.415 . S
H1054 C1051 0.999 . S
H1055 C1036 0.913 . S
H1056 C1074 0.951 . S
H1057 C1076 0.951 . S
H1058 C1078 0.950 . S
H1059 C1079 0.950 . S
H1060 C1081 0.950 . S
H1061 C1084 0.950 . S
H1062 C1085 0.950 . S
H1063 C1087 0.950 . S
H1064 C1088 0.950 . S
H1065 C1089 0.951 . S
H1066 C1091 0.951 . S
H1067 C1093 0.950 . S
H1068 C1094 0.950 . S
H1069 C1096 0.950 . S
H1070 C1099 0.950 . S
H1071 C1100 0.950 . S
H1072 C1102 0.950 . S
H1073 C1103 0.950 . S
C1074 H1056 0.951 . S
C1074 C1075 1.366 1_455 S
C1074 C1076 1.388 . S
C1075 C1074 1.366 1_655 S
C1075 C1079 1.385 . S
C1076 H1057 0.951 . S
C1076 C1074 1.388 . S
C1076 C1077 1.366 . S
C1077 C1076 1.366 . S
C1077 C1078 1.414 . S
C1077 C1080 1.499 . S
C1078 H1058 0.950 . S
C1078 C1077 1.414 . S
C1078 C1079 1.374 1_455 S
C1079 H1059 0.950 . S
C1079 C1075 1.385 . S
C1079 C1078 1.374 1_655 S
C1080 C1077 1.499 . S
C1080 C1081 1.373 1_556 S
C1080 C1082 1.389 . S
C1081 H1060 0.950 . S
C1081 C1080 1.373 1_554 S
C1081 C1097 1.377 . S
C1082 C1080 1.389 . S
C1082 C1083 1.524 . S
C1082 C1096 1.377 . S
C1083 C1082 1.524 . S
C1083 C1084 1.397 . S
C1083 C1088 1.363 . S
C1084 H1061 0.950 . S
C1084 C1083 1.397 . S
C1084 C1085 1.334 . S
C1085 H1062 0.950 . S
C1085 C1084 1.334 . S
C1085 C1086 1.287 . S
C1086 C1085 1.287 . S
C1086 C1087 1.524 . S
C1086 H1105 0.913 . S
C1087 H1063 0.950 . S
C1087 C1086 1.524 . S
C1087 C1088 1.415 . S
C1088 H1064 0.950 . S
C1088 C1083 1.363 . S
C1088 C1087 1.415 . S
C1089 H1065 0.951 . S
C1089 C1090 1.366 . S
C1089 C1091 1.388 . S
C1090 C1089 1.366 . S
C1090 C1094 1.385 . S
C1091 H1066 0.951 . S
C1091 C1089 1.388 . S
C1091 C1092 1.366 . S
C1092 C1091 1.366 . S
C1092 C1093 1.414 . S
C1092 C1095 1.499 . S
C1093 H1067 0.950 . S
C1093 C1092 1.414 . S
C1093 C1094 1.374 . S
C1094 H1068 0.950 . S
C1094 C1090 1.385 . S
C1094 C1093 1.374 . S
C1095 C1092 1.499 . S
C1095 C1096 1.373 1_554 S
C1095 C1097 1.389 . S
C1096 H1069 0.950 . S
C1096 C1082 1.377 . S
C1096 C1095 1.373 1_556 S
C1097 C1081 1.377 . S
C1097 C1095 1.389 . S
C1097 C1098 1.524 . S
C1098 C1097 1.524 . S
C1098 C1099 1.397 . S
C1098 C1103 1.363 . S
C1099 H1070 0.950 . S
C1099 C1098 1.397 . S
C1099 C1100 1.334 . S
C1100 H1071 0.950 . S
C1100 C1099 1.334 . S
C1100 C1101 1.287 . S
C1101 C1100 1.287 . S
C1101 C1102 1.524 . S
C1101 H1104 0.999 . S
C1102 H1072 0.950 . S
C1102 C1101 1.524 . S
C1102 C1103 1.415 . S
C1103 H1073 0.950 . S
C1103 C1098 1.363 . S
C1103 C1102 1.415 . S
H1104 C1101 0.999 . S
H1105 C1086 0.913 . S
H1106 C1124 0.951 1_565 S
H1107 C1126 0.951 . S
H1108 C1128 0.950 . S
H1109 C1129 0.948 1_565 S
H1110 C1131 0.950 . S
H1111 C1134 0.950 . S
H1112 C1135 0.950 . S
H1113 C1137 0.950 . S
H1114 C1138 0.950 . S
H1115 C1139 0.951 . S
H1116 C1141 0.951 . S
H1117 C1143 0.950 . S
H1118 C1144 0.950 . S
H1119 C1146 0.950 . S
H1120 C1149 0.950 . S
H1121 C1150 0.945 1_455 S
H1122 C1152 0.950 1_455 S
H1123 C1153 0.950 . S
C1124 H1106 0.951 1_545 S
C1124 C1125 1.366 1_545 S
C1124 C1126 1.388 . S
C1125 C1124 1.366 1_565 S
C1125 C1129 1.385 1_565 S
C1126 H1107 0.951 . S
C1126 C1124 1.388 . S
C1126 C1127 1.366 . S
C1127 C1126 1.366 . S
C1127 C1128 1.414 . S
C1127 C1130 1.499 . S
C1128 H1108 0.950 . S
C1128 C1127 1.414 . S
C1128 C1129 1.374 . S
C1129 H1109 0.948 1_545 S
C1129 C1125 1.385 1_545 S
C1129 C1128 1.374 . S
C1130 C1127 1.499 . S
C1130 C1131 1.373 . S
C1130 C1132 1.389 . S
C1131 H1110 0.950 . S
C1131 C1130 1.373 . S
C1131 C1147 1.377 . S
C1132 C1130 1.389 . S
C1132 C1133 1.524 . S
C1132 C1146 1.377 . S
C1133 C1132 1.524 . S
C1133 C1134 1.397 . S
C1133 C1138 1.363 . S
C1134 H1111 0.950 . S
C1134 C1133 1.397 . S
C1134 C1135 1.334 . S
C1135 H1112 0.950 . S
C1135 C1134 1.334 . S
C1135 C1136 1.287 . S
C1136 C1135 1.287 . S
C1136 C1137 1.524 . S
C1136 H1155 0.913 . S
C1137 H1113 0.950 . S
C1137 C1136 1.524 . S
C1137 C1138 1.415 . S
C1138 H1114 0.950 . S
C1138 C1133 1.363 . S
C1138 C1137 1.415 . S
C1139 H1115 0.951 . S
C1139 C1140 1.366 . S
C1139 C1141 1.388 1_455 S
C1140 C1139 1.366 . S
C1140 C1144 1.385 1_455 S
C1141 H1116 0.951 . S
C1141 C1139 1.388 1_655 S
C1141 C1142 1.366 . S
C1142 C1141 1.366 . S
C1142 C1143 1.414 . S
C1142 C1145 1.499 . S
C1143 H1117 0.950 . S
C1143 C1142 1.414 . S
C1143 C1144 1.374 . S
C1144 H1118 0.950 . S
C1144 C1140 1.385 1_655 S
C1144 C1143 1.374 . S
C1145 C1142 1.499 . S
C1145 C1146 1.373 . S
C1145 C1147 1.389 . S
C1146 H1119 0.950 . S
C1146 C1132 1.377 . S
C1146 C1145 1.373 . S
C1147 C1131 1.377 . S
C1147 C1145 1.389 . S
C1147 C1148 1.524 . S
C1148 C1147 1.524 . S
C1148 C1149 1.397 . S
C1148 C1153 1.363 . S
C1149 H1120 0.950 . S
C1149 C1148 1.397 . S
C1149 C1150 1.334 . S
C1150 H1121 0.945 1_655 S
C1150 C1149 1.334 . S
C1150 C1151 1.287 1_655 S
C1151 C1150 1.287 1_455 S
C1151 C1152 1.524 1_455 S
C1151 H1154 0.999 . S
C1152 H1122 0.950 1_655 S
C1152 C1151 1.524 1_655 S
C1152 C1153 1.415 . S
C1153 H1123 0.950 . S
C1153 C1148 1.363 . S
C1153 C1152 1.415 . S
H1154 C1151 0.999 . S
H1155 C1136 0.913 . S
H1156 C1174 0.951 . S
H1157 C1176 0.951 . S
H1158 C1178 0.950 . S
H1159 C1179 0.950 . S
H1160 C1181 0.950 . S
H1161 C1184 0.950 . S
H1162 C1185 0.950 . S
H1163 C1187 0.950 . S
H1164 C1188 0.950 . S
H1165 C1189 0.951 . S
H1166 C1191 0.951 . S
H1167 C1193 0.950 . S
H1168 C1194 0.950 . S
H1169 C1196 0.950 . S
H1170 C1199 0.950 . S
H1171 C1200 0.950 . S
H1172 C1202 0.950 . S
H1173 C1203 0.950 . S
C1174 H1156 0.951 . S
C1174 C1175 1.366 . S
C1174 C1176 1.388 . S
C1175 C1174 1.366 . S
C1175 C1179 1.385 . S
C1176 H1157 0.951 . S
C1176 C1174 1.388 . S
C1176 C1177 1.366 . S
C1177 C1176 1.366 . S
C1177 C1178 1.414 . S
C1177 C1180 1.499 . S
C1178 H1158 0.950 . S
C1178 C1177 1.414 . S
C1178 C1179 1.374 . S
C1179 H1159 0.950 . S
C1179 C1175 1.385 . S
C1179 C1178 1.374 . S
C1180 C1177 1.499 . S
C1180 C1181 1.373 . S
C1180 C1182 1.389 . S
C1181 H1160 0.950 . S
C1181 C1180 1.373 . S
C1181 C1197 1.377 . S
C1182 C1180 1.389 . S
C1182 C1183 1.524 . S
C1182 C1196 1.377 . S
C1183 C1182 1.524 . S
C1183 C1184 1.397 . S
C1183 C1188 1.363 . S
C1184 H1161 0.950 . S
C1184 C1183 1.397 . S
C1184 C1185 1.334 . S
C1185 H1162 0.950 . S
C1185 C1184 1.334 . S
C1185 C1186 1.287 . S
C1186 C1185 1.287 . S
C1186 C1187 1.524 . S
C1186 H1205 0.913 . S
C1187 H1163 0.950 . S
C1187 C1186 1.524 . S
C1187 C1188 1.415 . S
C1188 H1164 0.950 . S
C1188 C1183 1.363 . S
C1188 C1187 1.415 . S
C1189 H1165 0.951 . S
C1189 C1190 1.366 . S
C1189 C1191 1.388 1_545 S
C1190 C1189 1.366 . S
C1190 C1194 1.385 1_545 S
C1191 H1166 0.951 . S
C1191 C1189 1.388 1_565 S
C1191 C1192 1.366 . S
C1192 C1191 1.366 . S
C1192 C1193 1.414 . S
C1192 C1195 1.499 . S
C1193 H1167 0.950 . S
C1193 C1192 1.414 . S
C1193 C1194 1.374 . S
C1194 H1168 0.950 . S
C1194 C1190 1.385 1_565 S
C1194 C1193 1.374 . S
C1195 C1192 1.499 . S
C1195 C1196 1.373 . S
C1195 C1197 1.389 . S
C1196 H1169 0.950 . S
C1196 C1182 1.377 . S
C1196 C1195 1.373 . S
C1197 C1181 1.377 . S
C1197 C1195 1.389 . S
C1197 C1198 1.524 . S
C1198 C1197 1.524 . S
C1198 C1199 1.397 . S
C1198 C1203 1.363 . S
C1199 H1170 0.950 . S
C1199 C1198 1.397 . S
C1199 C1200 1.334 1_565 S
C1200 H1171 0.950 . S
C1200 C1199 1.334 1_545 S
C1200 C1201 1.287 . S
C1201 C1200 1.287 . S
C1201 C1202 1.524 . S
C1201 H1204 0.999 . S
C1202 H1172 0.950 . S
C1202 C1201 1.524 . S
C1202 C1203 1.415 1_545 S
C1203 H1173 0.950 . S
C1203 C1198 1.363 . S
C1203 C1202 1.415 1_565 S
H1204 C1201 0.999 . S
H1205 C1186 0.913 . S
H1206 C1224 0.951 . S
H1207 C1226 0.951 . S
H1208 C1228 0.950 . S
H1209 C1229 0.950 . S
H1210 C1231 0.950 . S
H1211 C1234 0.950 . S
H1212 C1235 0.950 . S
H1213 C1237 0.950 . S
H1214 C1238 0.950 . S
H1215 C1239 0.951 . S
H1216 C1241 0.951 . S
H1217 C1243 0.950 . S
H1218 C1244 0.950 1_455 S
H1219 C1246 0.950 . S
H1220 C1249 0.950 . S
H1221 C1250 0.950 . S
H1222 C1252 0.950 . S
H1223 C1253 0.950 . S
C1224 H1206 0.951 . S
C1224 C1225 1.366 . S
C1224 C1226 1.388 . S
C1225 C1224 1.366 . S
C1225 C1229 1.385 . S
C1226 H1207 0.951 . S
C1226 C1224 1.388 . S
C1226 C1227 1.366 . S
C1227 C1226 1.366 . S
C1227 C1228 1.414 . S
C1227 C1230 1.499 . S
C1228 H1208 0.950 . S
C1228 C1227 1.414 . S
C1228 C1229 1.374 . S
C1229 H1209 0.950 . S
C1229 C1225 1.385 . S
C1229 C1228 1.374 . S
C1230 C1227 1.499 . S
C1230 C1231 1.373 . S
C1230 C1232 1.389 1_554 S
C1231 H1210 0.950 . S
C1231 C1230 1.373 . S
C1231 C1247 1.377 . S
C1232 C1230 1.389 1_556 S
C1232 C1233 1.524 . S
C1232 C1246 1.377 . S
C1233 C1232 1.524 . S
C1233 C1234 1.397 . S
C1233 C1238 1.363 . S
C1234 H1211 0.950 . S
C1234 C1233 1.397 . S
C1234 C1235 1.334 . S
C1235 H1212 0.950 . S
C1235 C1234 1.334 . S
C1235 C1236 1.287 . S
C1236 C1235 1.287 . S
C1236 C1237 1.524 . S
C1236 H1255 0.913 . S
C1237 H1213 0.950 . S
C1237 C1236 1.524 . S
C1237 C1238 1.415 . S
C1238 H1214 0.950 . S
C1238 C1233 1.363 . S
C1238 C1237 1.415 . S
C1239 H1215 0.951 . S
C1239 C1240 1.366 1_655 S
C1239 C1241 1.388 . S
C1240 C1239 1.366 1_455 S
C1240 C1244 1.385 1_455 S
C1241 H1216 0.951 . S
C1241 C1239 1.388 . S
C1241 C1242 1.366 . S
C1242 C1241 1.366 . S
C1242 C1243 1.414 . S
C1242 C1245 1.499 . S
C1243 H1217 0.950 . S
C1243 C1242 1.414 . S
C1243 C1244 1.374 . S
C1244 H1218 0.950 1_655 S
C1244 C1240 1.385 1_655 S
C1244 C1243 1.374 . S
C1245 C1242 1.499 . S
C1245 C1246 1.373 . S
C1245 C1247 1.389 1_556 S
C1246 H1219 0.950 . S
C1246 C1232 1.377 . S
C1246 C1245 1.373 . S
C1247 C1231 1.377 . S
C1247 C1245 1.389 1_554 S
C1247 C1248 1.524 . S
C1248 C1247 1.524 . S
C1248 C1249 1.397 . S
C1248 C1253 1.363 . S
C1249 H1220 0.950 . S
C1249 C1248 1.397 . S
C1249 C1250 1.334 1_655 S
C1250 H1221 0.950 . S
C1250 C1249 1.334 1_455 S
C1250 C1251 1.287 1_455 S
C1251 C1250 1.287 1_655 S
C1251 C1252 1.524 . S
C1251 H1254 0.999 1_655 S
C1252 H1222 0.950 . S
C1252 C1251 1.524 . S
C1252 C1253 1.415 . S
C1253 H1223 0.950 . S
C1253 C1248 1.363 . S
C1253 C1252 1.415 . S
H1254 C1251 0.999 1_455 S
H1255 C1236 0.913 . S
H1256 C1274 0.951 . S
H1257 C1276 0.951 . S
H1258 C1278 0.950 . S
H1259 C1279 0.950 . S
H1260 C1281 0.950 . S
H1261 C1284 0.950 . S
H1262 C1285 0.950 . S
H1263 C1287 0.950 . S
H1264 C1288 0.950 . S
H1265 C1289 0.951 . S
H1266 C1291 0.951 . S
H1267 C1293 0.950 . S
H1268 C1294 0.956 . S
H1269 C1296 0.950 . S
H1270 C1299 0.950 . S
H1271 C1300 0.950 . S
H1272 C1302 0.950 . S
H1273 C1303 0.950 . S
C1274 H1256 0.951 . S
C1274 C1275 1.366 1_455 S
C1274 C1276 1.388 . S
C1275 C1274 1.366 1_655 S
C1275 C1279 1.385 . S
C1276 H1257 0.951 . S
C1276 C1274 1.388 . S
C1276 C1277 1.366 . S
C1277 C1276 1.366 . S
C1277 C1278 1.414 . S
C1277 C1280 1.499 . S
C1278 H1258 0.950 . S
C1278 C1277 1.414 . S
C1278 C1279 1.374 1_455 S
C1279 H1259 0.950 . S
C1279 C1275 1.385 . S
C1279 C1278 1.374 1_655 S
C1280 C1277 1.499 . S
C1280 C1281 1.373 . S
C1280 C1282 1.389 . S
C1281 H1260 0.950 . S
C1281 C1280 1.373 . S
C1281 C1297 1.377 . S
C1282 C1280 1.389 . S
C1282 C1283 1.524 . S
C1282 C1296 1.377 . S
C1283 C1282 1.524 . S
C1283 C1284 1.397 . S
C1283 C1288 1.363 . S
C1284 H1261 0.950 . S
C1284 C1283 1.397 . S
C1284 C1285 1.334 . S
C1285 H1262 0.950 . S
C1285 C1284 1.334 . S
C1285 C1286 1.287 . S
C1286 C1285 1.287 . S
C1286 C1287 1.524 . S
C1286 H1305 0.913 . S
C1287 H1263 0.950 . S
C1287 C1286 1.524 . S
C1287 C1288 1.415 . S
C1288 H1264 0.950 . S
C1288 C1283 1.363 . S
C1288 C1287 1.415 . S
C1289 H1265 0.951 . S
C1289 C1290 1.366 1_565 S
C1289 C1291 1.388 . S
C1290 C1289 1.366 1_545 S
C1290 C1294 1.392 . S
C1291 H1266 0.951 . S
C1291 C1289 1.388 . S
C1291 C1292 1.366 . S
C1292 C1291 1.366 . S
C1292 C1293 1.414 . S
C1292 C1295 1.499 . S
C1293 H1267 0.950 . S
C1293 C1292 1.414 . S
C1293 C1294 1.361 1_565 S
C1294 H1268 0.956 . S
C1294 C1290 1.392 . S
C1294 C1293 1.361 1_545 S
C1295 C1292 1.499 . S
C1295 C1296 1.373 . S
C1295 C1297 1.389 . S
C1296 H1269 0.950 . S
C1296 C1282 1.377 . S
C1296 C1295 1.373 . S
C1297 C1281 1.377 . S
C1297 C1295 1.389 . S
C1297 C1298 1.524 . S
C1298 C1297 1.524 . S
C1298 C1299 1.397 . S
C1298 C1303 1.363 . S
C1299 H1270 0.950 . S
C1299 C1298 1.397 . S
C1299 C1300 1.334 . S
C1300 H1271 0.950 . S
C1300 C1299 1.334 . S
C1300 C1301 1.287 . S
C1301 C1300 1.287 . S
C1301 C1302 1.524 . S
C1301 H1304 0.999 . S
C1302 H1272 0.950 . S
C1302 C1301 1.524 . S
C1302 C1303 1.415 . S
C1303 H1273 0.950 . S
C1303 C1298 1.363 . S
C1303 C1302 1.415 . S
H1304 C1301 0.999 . S
H1305 C1286 0.913 . S
H1306 C1324 0.951 . S
H1307 C1326 0.951 . S
H1308 C1328 0.950 . S
H1309 C1329 0.950 . S
H1310 C1331 0.950 . S
H1311 C1334 0.950 . S
H1312 C1335 0.950 . S
H1313 C1337 0.950 . S
H1314 C1338 0.950 . S
H1315 C1339 0.951 . S
H1316 C1341 0.951 . S
H1317 C1343 0.950 . S
H1318 C1344 0.950 . S
H1319 C1346 0.950 . S
H1320 C1349 0.950 . S
H1321 C1350 0.950 . S
H1322 C1352 0.950 . S
H1323 C1353 0.950 . S
C1324 H1306 0.951 . S
C1324 C1325 1.366 1_545 S
C1324 C1326 1.388 . S
C1325 C1324 1.366 1_565 S
C1325 C1329 1.385 . S
C1326 H1307 0.951 . S
C1326 C1324 1.388 . S
C1326 C1327 1.366 . S
C1327 C1326 1.366 . S
C1327 C1328 1.414 . S
C1327 C1330 1.499 . S
C1328 H1308 0.950 . S
C1328 C1327 1.414 . S
C1328 C1329 1.374 1_545 S
C1329 H1309 0.950 . S
C1329 C1325 1.385 . S
C1329 C1328 1.374 1_565 S
C1330 C1327 1.499 . S
C1330 C1331 1.373 . S
C1330 C1332 1.389 . S
C1331 H1310 0.950 . S
C1331 C1330 1.373 . S
C1331 C1347 1.377 . S
C1332 C1330 1.389 . S
C1332 C1333 1.524 . S
C1332 C1346 1.377 . S
C1333 C1332 1.524 . S
C1333 C1334 1.397 . S
C1333 C1338 1.363 . S
C1334 H1311 0.950 . S
C1334 C1333 1.397 . S
C1334 C1335 1.334 . S
C1335 H1312 0.950 . S
C1335 C1334 1.334 . S
C1335 C1336 1.287 . S
C1336 C1335 1.287 . S
C1336 C1337 1.524 . S
C1336 H1355 0.913 . S
C1337 H1313 0.950 . S
C1337 C1336 1.524 . S
C1337 C1338 1.415 . S
C1338 H1314 0.950 . S
C1338 C1333 1.363 . S
C1338 C1337 1.415 . S
C1339 H1315 0.951 . S
C1339 C1340 1.366 . S
C1339 C1341 1.388 . S
C1340 C1339 1.366 . S
C1340 C1344 1.385 . S
C1341 H1316 0.951 . S
C1341 C1339 1.388 . S
C1341 C1342 1.366 . S
C1342 C1341 1.366 . S
C1342 C1343 1.414 . S
C1342 C1345 1.499 . S
C1343 H1317 0.950 . S
C1343 C1342 1.414 . S
C1343 C1344 1.374 . S
C1344 H1318 0.950 . S
C1344 C1340 1.385 . S
C1344 C1343 1.374 . S
C1345 C1342 1.499 . S
C1345 C1346 1.373 . S
C1345 C1347 1.389 . S
C1346 H1319 0.950 . S
C1346 C1332 1.377 . S
C1346 C1345 1.373 . S
C1347 C1331 1.377 . S
C1347 C1345 1.389 . S
C1347 C1348 1.524 . S
C1348 C1347 1.524 . S
C1348 C1349 1.397 . S
C1348 C1353 1.363 . S
C1349 H1320 0.950 . S
C1349 C1348 1.397 . S
C1349 C1350 1.334 . S
C1350 H1321 0.950 . S
C1350 C1349 1.334 . S
C1350 C1351 1.287 . S
C1351 C1350 1.287 . S
C1351 C1352 1.524 . S
C1351 H1354 0.999 . S
C1352 H1322 0.950 . S
C1352 C1351 1.524 . S
C1352 C1353 1.415 . S
C1353 H1323 0.950 . S
C1353 C1348 1.363 . S
C1353 C1352 1.415 . S
H1354 C1351 0.999 . S
H1355 C1336 0.913 . S
C175 C39 1.333 . S
C190 C0 1.333 . S
C225 C13 1.334 . S
C240 C52 1.334 . S
C275 C65 1.334 . S
C290 C26 1.334 . S
C325 C78 1.333 . S
C340 C117 1.333 . S
C375 C130 1.334 . S
C390 C91 1.334 . S
C425 C104 1.333 . S
C440 C143 1.333 . S
C475 C112 1.518 . S
C490 C8 1.518 . S
C525 C21 1.518 . S
C540 C125 1.518 . S
C575 C34 1.518 . S
C590 C138 1.518 . S
C625 C47 1.518 . S
C640 C151 1.518 . S
C675 C86 1.518 . S
C690 C60 1.518 . S
C725 C99 1.518 . S
C740 C73 1.518 . S
C775 C96 0.738 . S
C790 C5 0.736 . S
C825 C18 0.736 . S
C840 C109 0.735 . S
C875 C31 0.736 . S
C890 C122 0.738 . S
C925 C44 0.737 . S
C940 C135 0.735 . S
C975 C148 0.735 . S
C990 C57 0.738 . S
C1025 C70 0.735 . S
C1040 C83 0.738 . S
C1075 C140 1.190 . S
C1090 C10 1.190 . S
C1125 C153 1.190 . S
C1140 C23 1.190 . S
C1175 C88 1.190 . S
C1190 C36 1.190 . S
C1225 C49 1.190 . S
C1240 C101 1.190 . S
C1275 C62 1.190 . S
C1290 C114 1.190 . S
C1325 C75 1.190 . S
C1340 C127 1.190 . S
