# Generated by pormake.
# Topology zfx, (5)-cn, num edge types: 1
# Building blocks:
#     Node 0, Type 0, BuildingBlock: XOMCOT_clean_sbu_1, # of connection points: 5
#     Node 1, Type 0, BuildingBlock: XOMCOT_clean_sbu_1, # of connection points: 5
#     Node 2, Type 0, BuildingBlock: XOMCOT_clean_sbu_1, # of connection points: 5
#     Node 3, Type 0, BuildingBlock: XOMCOT_clean_sbu_1, # of connection points: 5
#     Node 4, Type 0, BuildingBlock: XOMCOT_clean_sbu_1, # of connection points: 5
#     Node 5, Type 0, BuildingBlock: XOMCOT_clean_sbu_1, # of connection points: 5
#     Node 6, Type 0, BuildingBlock: XOMCOT_clean_sbu_1, # of connection points: 5
#     Node 7, Type 0, BuildingBlock: XOMCOT_clean_sbu_1, # of connection points: 5
#     Node 8, Type 0, BuildingBlock: XOMCOT_clean_sbu_1, # of connection points: 5
#     Node 9, Type 0, BuildingBlock: XOMCOT_clean_sbu_1, # of connection points: 5
#     Node 10, Type 0, BuildingBlock: XOMCOT_clean_sbu_1, # of connection points: 5
#     Node 11, Type 0, BuildingBlock: XOMCOT_clean_sbu_1, # of connection points: 5
#     Node 12, Type 0, BuildingBlock: XOMCOT_clean_sbu_1, # of connection points: 5
#     Node 13, Type 0, BuildingBlock: XOMCOT_clean_sbu_1, # of connection points: 5
#     Node 14, Type 0, BuildingBlock: XOMCOT_clean_sbu_1, # of connection points: 5
#     Node 15, Type 0, BuildingBlock: XOMCOT_clean_sbu_1, # of connection points: 5
#     Edge 16, Type (0, 0), BuildingBlock: MIFKUJ_clean_linker_0, # of connection points: 2
#     Edge 17, Type (0, 0), BuildingBlock: MIFKUJ_clean_linker_0, # of connection points: 2
#     Edge 18, Type (0, 0), BuildingBlock: MIFKUJ_clean_linker_0, # of connection points: 2
#     Edge 19, Type (0, 0), BuildingBlock: MIFKUJ_clean_linker_0, # of connection points: 2
#     Edge 20, Type (0, 0), BuildingBlock: MIFKUJ_clean_linker_0, # of connection points: 2
#     Edge 21, Type (0, 0), BuildingBlock: MIFKUJ_clean_linker_0, # of connection points: 2
#     Edge 22, Type (0, 0), BuildingBlock: MIFKUJ_clean_linker_0, # of connection points: 2
#     Edge 23, Type (0, 0), BuildingBlock: MIFKUJ_clean_linker_0, # of connection points: 2
#     Edge 24, Type (0, 0), BuildingBlock: MIFKUJ_clean_linker_0, # of connection points: 2
#     Edge 25, Type (0, 0), BuildingBlock: MIFKUJ_clean_linker_0, # of connection points: 2
#     Edge 26, Type (0, 0), BuildingBlock: MIFKUJ_clean_linker_0, # of connection points: 2
#     Edge 27, Type (0, 0), BuildingBlock: MIFKUJ_clean_linker_0, # of connection points: 2
#     Edge 28, Type (0, 0), BuildingBlock: MIFKUJ_clean_linker_0, # of connection points: 2
#     Edge 29, Type (0, 0), BuildingBlock: MIFKUJ_clean_linker_0, # of connection points: 2
#     Edge 30, Type (0, 0), BuildingBlock: MIFKUJ_clean_linker_0, # of connection points: 2
#     Edge 31, Type (0, 0), BuildingBlock: MIFKUJ_clean_linker_0, # of connection points: 2
#     Edge 32, Type (0, 0), BuildingBlock: MIFKUJ_clean_linker_0, # of connection points: 2
#     Edge 33, Type (0, 0), BuildingBlock: MIFKUJ_clean_linker_0, # of connection points: 2
#     Edge 34, Type (0, 0), BuildingBlock: MIFKUJ_clean_linker_0, # of connection points: 2
#     Edge 35, Type (0, 0), BuildingBlock: MIFKUJ_clean_linker_0, # of connection points: 2
#     Edge 36, Type (0, 0), BuildingBlock: MIFKUJ_clean_linker_0, # of connection points: 2
#     Edge 37, Type (0, 0), BuildingBlock: MIFKUJ_clean_linker_0, # of connection points: 2
#     Edge 38, Type (0, 0), BuildingBlock: MIFKUJ_clean_linker_0, # of connection points: 2
#     Edge 39, Type (0, 0), BuildingBlock: MIFKUJ_clean_linker_0, # of connection points: 2
#     Edge 40, Type (0, 0), BuildingBlock: MIFKUJ_clean_linker_0, # of connection points: 2
#     Edge 41, Type (0, 0), BuildingBlock: MIFKUJ_clean_linker_0, # of connection points: 2
#     Edge 42, Type (0, 0), BuildingBlock: MIFKUJ_clean_linker_0, # of connection points: 2
#     Edge 43, Type (0, 0), BuildingBlock: MIFKUJ_clean_linker_0, # of connection points: 2
#     Edge 44, Type (0, 0), BuildingBlock: MIFKUJ_clean_linker_0, # of connection points: 2
#     Edge 45, Type (0, 0), BuildingBlock: MIFKUJ_clean_linker_0, # of connection points: 2
#     Edge 46, Type (0, 0), BuildingBlock: MIFKUJ_clean_linker_0, # of connection points: 2
#     Edge 47, Type (0, 0), BuildingBlock: MIFKUJ_clean_linker_0, # of connection points: 2
#     Edge 48, Type (0, 0), BuildingBlock: MIFKUJ_clean_linker_0, # of connection points: 2
#     Edge 49, Type (0, 0), BuildingBlock: MIFKUJ_clean_linker_0, # of connection points: 2
#     Edge 50, Type (0, 0), BuildingBlock: MIFKUJ_clean_linker_0, # of connection points: 2
#     Edge 51, Type (0, 0), BuildingBlock: MIFKUJ_clean_linker_0, # of connection points: 2
#     Edge 52, Type (0, 0), BuildingBlock: MIFKUJ_clean_linker_0, # of connection points: 2
#     Edge 53, Type (0, 0), BuildingBlock: MIFKUJ_clean_linker_0, # of connection points: 2
#     Edge 54, Type (0, 0), BuildingBlock: MIFKUJ_clean_linker_0, # of connection points: 2
#     Edge 55, Type (0, 0), BuildingBlock: MIFKUJ_clean_linker_0, # of connection points: 2
# Relax obj value: 0.320
# Max RMSD: 0.201
# Mean RMSD: 0.201
data_MOF--net-zfx--node1-XOMCOT_clean_sbu_1--edge1-MIFKUJ_clean_linker_0
_symmetry_space_group_name_H-M    P1
_symmetry_Int_Tables_number       1
_symmetry_cell_setting            triclinic
loop_
_symmetry_equiv_pos_as_xyz
'x, y, z'
_cell_length_a     80.172758
_cell_length_b     80.070823
_cell_length_c     30.389244
_cell_angle_alpha  90.038414
_cell_angle_beta   90.013871
_cell_angle_gamma 90.003079
loop_
_atom_site_label
_atom_site_type_symbol
_atom_site_fract_x
_atom_site_fract_y
_atom_site_fract_z
_atom_type_partial_charge
C0 C 0.54231 0.12582 0.39788 0.0
C1 C 0.55646 0.12952 0.42153 0.0
N2 N 0.55422 0.14444 0.4413 0.0
N3 N 0.5312 0.13828 0.40309 0.0
C4 C 0.53887 0.14954 0.42893 0.0
H5 H 0.54 0.11452 0.37934 0.0
Co6 Co 0.50976 0.13884 0.38161 0.0
C7 C 0.49478 0.16605 0.43508 0.0
O8 O 0.49137 0.17389 0.39821 0.0
N9 N 0.4884 0.139 0.35957 0.0
C10 C 0.46107 0.13711 0.35033 0.0
C11 C 0.47367 0.13838 0.38084 0.0
C12 C 0.48458 0.1378 0.31666 0.0
N13 N 0.46798 0.13667 0.30983 0.0
O14 O 0.51516 0.15901 0.34782 0.0
H15 H 0.47219 0.13845 0.41622 0.0
H16 H 0.49398 0.13721 0.29123 0.0
O17 O 0.50228 0.15194 0.43345 0.0
C18 C 0.52478 0.1565 0.31485 0.0
O19 O 0.53009 0.14122 0.30744 0.0
N20 N 0.50521 0.11855 0.41038 0.0
C21 C 0.50172 0.08598 0.4427 0.0
C22 C 0.50408 0.09955 0.47156 0.0
C23 C 0.50581 0.1158 0.4547 0.0
C24 C 0.50296 0.10556 0.382 0.0
C25 C 0.50105 0.08927 0.39739 0.0
H26 H 0.50816 0.12601 0.47711 0.0
H27 H 0.5031 0.10783 0.34693 0.0
H28 H 0.5331 0.16112 0.43901 0.0
H29 H 0.56717 0.12144 0.4255 0.0
H30 H 0.44789 0.13658 0.3577 0.0
H31 H 0.50472 0.09761 0.50678 0.0
H32 H 0.49968 0.07924 0.37374 0.0
C33 C 0.12979 0.28141 0.61022 0.0
C34 C 0.12589 0.29704 0.62609 0.0
N35 N 0.11206 0.29566 0.65097 0.0
N36 N 0.11865 0.2703 0.62594 0.0
C37 C 0.10788 0.27938 0.65005 0.0
H38 H 0.14044 0.27819 0.5901 0.0
Co39 Co 0.11939 0.24749 0.61821 0.0
C40 C 0.10807 0.23481 0.70668 0.0
O41 O 0.12211 0.22659 0.71094 0.0
N42 N 0.12023 0.2239 0.60929 0.0
C43 C 0.12726 0.19687 0.60982 0.0
C44 C 0.13034 0.21229 0.62783 0.0
C45 C 0.11108 0.21496 0.58022 0.0
N46 N 0.11513 0.19861 0.57974 0.0
O47 O 0.09933 0.24939 0.5825 0.0
H48 H 0.13984 0.21468 0.65222 0.0
H49 H 0.10205 0.22034 0.55811 0.0
O50 O 0.1055 0.24372 0.67223 0.0
C51 C 0.10285 0.25253 0.54227 0.0
O52 O 0.11863 0.25248 0.53052 0.0
N53 N 0.14001 0.24722 0.64862 0.0
C54 C 0.17278 0.24977 0.68011 0.0
C55 C 0.15919 0.25479 0.70623 0.0
C56 C 0.14291 0.25381 0.68943 0.0
C57 C 0.15311 0.24309 0.62214 0.0
C58 C 0.1695 0.24394 0.63743 0.0
H59 H 0.13271 0.25869 0.70879 0.0
H60 H 0.15078 0.23907 0.5887 0.0
H61 H 0.09769 0.27405 0.66871 0.0
H62 H 0.13296 0.3084 0.62107 0.0
H63 H 0.13374 0.18539 0.61759 0.0
H64 H 0.16116 0.25994 0.73877 0.0
H65 H 0.17953 0.24005 0.61586 0.0
C66 C 0.97095 0.87057 0.88873 0.0
C67 C 0.95836 0.86829 0.91895 0.0
N68 N 0.96376 0.85742 0.94963 0.0
N69 N 0.98417 0.8612 0.90051 0.0
C70 C 0.97929 0.85306 0.93703 0.0
H71 H 0.97092 0.87932 0.86163 0.0
Co72 Co 0.00518 0.86273 0.87617 0.0
C73 C 0.02735 0.8536 0.95218 0.0
O74 O 0.03615 0.86713 0.94436 0.0
N75 N 0.02624 0.86424 0.8495 0.0
C76 C 0.05124 0.85766 0.82282 0.0
C77 C 0.03983 0.85448 0.85532 0.0
C78 C 0.02947 0.87258 0.8118 0.0
N79 N 0.04462 0.86899 0.79529 0.0
O80 O 1.00135 0.84222 0.84338 0.0
H81 H 0.04085 0.84434 0.87853 0.0
H82 H 0.02029 0.87982 0.79412 0.0
O83 O 0.01491 0.85013 0.92713 0.0
C84 C 0.99577 0.84582 0.80511 0.0
O85 O 0.99281 0.86159 0.79613 0.0
N86 N 0.00784 0.88382 0.90465 0.0
C87 C 0.00871 0.91664 0.93762 0.0
C88 C 0.00725 0.90289 0.96615 0.0
C89 C 0.00643 0.88662 0.94895 0.0
C90 C 0.00811 0.8971 0.87663 0.0
C91 C 0.00883 0.91347 0.89223 0.0
H92 H 0.00437 0.87637 0.97135 0.0
H93 H 0.00691 0.89515 0.84177 0.0
H94 H 0.98723 0.8447 0.9554 0.0
H95 H 0.94667 0.87504 0.91998 0.0
H96 H 0.06261 0.8507 0.81691 0.0
H97 H 0.00665 0.90462 1.00144 0.0
H98 H 0.00888 0.9236 0.86863 0.0
C99 C 0.3878 0.7162 0.11984 0.0
C100 C 0.39109 0.70282 0.14702 0.0
N101 N 0.40075 0.70827 0.18031 0.0
N102 N 0.3952 0.72995 0.13644 0.0
C103 C 0.40311 0.72468 0.17299 0.0
H104 H 0.37976 0.71615 0.09125 0.0
Co105 Co 0.39163 0.75153 0.1174 0.0
C106 C 0.40294 0.77339 0.19146 0.0
O107 O 0.38931 0.78231 0.18685 0.0
N108 N 0.3878 0.77371 0.09733 0.0
C109 C 0.37713 0.79879 0.08221 0.0
C110 C 0.37407 0.7835 0.10075 0.0
C111 C 0.39904 0.78361 0.07681 0.0
N112 N 0.39285 0.79884 0.06692 0.0
O113 O 0.41136 0.74959 0.08028 0.0
H114 H 0.36255 0.78025 0.11685 0.0
H115 H 0.41153 0.77966 0.06865 0.0
O116 O 0.40535 0.76071 0.16647 0.0
C117 C 0.40766 0.74567 0.04066 0.0
O118 O 0.39179 0.74449 0.03023 0.0
N119 N 0.37154 0.75155 0.14978 0.0
C120 C 0.33926 0.74816 0.18424 0.0
C121 C 0.35317 0.74983 0.21222 0.0
C122 C 0.36928 0.7512 0.19434 0.0
C123 C 0.35835 0.74879 0.12242 0.0
C124 C 0.34215 0.74753 0.1387 0.0
H125 H 0.37984 0.75153 0.21635 0.0
H126 H 0.36045 0.74805 0.0873 0.0
H127 H 0.40946 0.73286 0.19581 0.0
H128 H 0.38625 0.69026 0.14357 0.0
H129 H 0.36841 0.80908 0.0805 0.0
H130 H 0.35171 0.74967 0.24763 0.0
H131 H 0.33199 0.7463 0.11547 0.0
C132 C 0.54616 0.86672 0.60486 0.0
C133 C 0.55789 0.86632 0.57174 0.0
N134 N 0.55184 0.85682 0.53887 0.0
N135 N 0.53291 0.85737 0.59294 0.0
C136 C 0.53687 0.85135 0.55286 0.0
H137 H 0.54672 0.87436 0.63418 0.0
Co138 Co 0.51227 0.8575 0.62038 0.0
C139 C 0.49501 0.83109 0.56846 0.0
O140 O 0.49277 0.82243 0.60469 0.0
N141 N 0.49177 0.8581 0.64771 0.0
C142 C 0.46484 0.8613 0.66197 0.0
C143 C 0.47661 0.86018 0.62923 0.0
C144 C 0.489 0.85816 0.69136 0.0
N145 N 0.4727 0.86004 0.70102 0.0
O146 O 0.5178 0.83684 0.65149 0.0
H147 H 0.4743 0.86113 0.59425 0.0
H148 H 0.49884 0.85733 0.71562 0.0
O149 O 0.50232 0.84526 0.57051 0.0
C150 C 0.52723 0.83918 0.68489 0.0
O151 O 0.53224 0.85446 0.69347 0.0
N152 N 0.50779 0.87827 0.59431 0.0
C153 C 0.50523 0.91145 0.56597 0.0
C154 C 0.50413 0.89814 0.53579 0.0
C155 C 0.50555 0.88158 0.55062 0.0
C156 C 0.50864 0.89098 0.62402 0.0
C157 C 0.50729 0.90759 0.61068 0.0
H158 H 0.50538 0.87154 0.52688 0.0
H159 H 0.51072 0.88816 0.6584 0.0
H160 H 0.5286 0.84384 0.53295 0.0
H161 H 0.56934 0.87348 0.57052 0.0
H162 H 0.45153 0.86276 0.65735 0.0
H163 H 0.50275 0.90051 0.5009 0.0
H164 H 0.50799 0.91734 0.63532 0.0
C165 C 0.39974 0.28313 0.90257 0.0
C166 C 0.4039 0.29678 0.8773 0.0
N167 N 0.4079 0.29127 0.83676 0.0
N168 N 0.40113 0.26923 0.87783 0.0
C169 C 0.40602 0.27457 0.83796 0.0
H170 H 0.39598 0.28327 0.93674 0.0
Co171 Co 0.3968 0.24795 0.89634 0.0
C172 C 0.40826 0.22487 0.82442 0.0
O173 O 0.39529 0.21537 0.83293 0.0
N174 N 0.39223 0.22631 0.91668 0.0
C175 C 0.3803 0.20318 0.9421 0.0
C176 C 0.37747 0.21882 0.92531 0.0
C177 C 0.40379 0.21491 0.92857 0.0
N178 N 0.39688 0.20077 0.94427 0.0
O179 O 0.41658 0.24933 0.93381 0.0
H180 H 0.36531 0.22432 0.92134 0.0
H181 H 0.41708 0.21712 0.92652 0.0
O182 O 0.41041 0.23837 0.84666 0.0
C183 C 0.41412 0.25053 0.97532 0.0
O184 O 0.39889 0.24867 0.99045 0.0
N185 N 0.37673 0.24837 0.86341 0.0
C186 C 0.34429 0.25061 0.82946 0.0
C187 C 0.35783 0.24654 0.80204 0.0
C188 C 0.37404 0.24582 0.81948 0.0
C189 C 0.36398 0.2538 0.88939 0.0
C190 C 0.34769 0.25474 0.87342 0.0
H191 H 0.38423 0.24341 0.79733 0.0
H192 H 0.36645 0.25687 0.92345 0.0
H193 H 0.40785 0.2664 0.81001 0.0
H194 H 0.40417 0.30967 0.88803 0.0
H195 H 0.37088 0.1947 0.9544 0.0
H196 H 0.35594 0.24373 0.76755 0.0
H197 H 0.33784 0.25868 0.89549 0.0
C198 C 0.97168 0.13173 0.1307 0.0
C199 C 0.95689 0.13483 0.10906 0.0
N200 N 0.95877 0.14894 0.08552 0.0
N201 N 0.98282 0.14364 0.11975 0.0
C202 C 0.97451 0.15409 0.09298 0.0
H203 H 0.97446 0.121 0.15102 0.0
Co204 Co 0.00519 0.14406 0.13381 0.0
C205 C 0.02056 0.15352 0.04728 0.0
O206 O 0.03001 0.14014 0.04953 0.0
N207 N 0.02783 0.14472 0.14999 0.0
C208 C 0.05385 0.15327 0.16223 0.0
C209 C 0.04004 0.1551 0.13602 0.0
C210 C 0.03438 0.13736 0.18605 0.0
N211 N 0.05022 0.14215 0.19391 0.0
O212 O 0.00164 0.16467 0.16624 0.0
H213 H 0.03872 0.16464 0.11125 0.0
H214 H 0.02725 0.12967 0.20832 0.0
O215 O 0.01034 0.1568 0.07865 0.0
C216 C 0.99859 0.16171 0.20679 0.0
O217 O 0.99851 0.14607 0.21991 0.0
N218 N 0.00768 0.12283 0.10559 0.0
C219 C 0.0074 0.08978 0.07451 0.0
C220 C 0.00267 0.10304 0.04705 0.0
C221 C 0.00241 0.11941 0.06362 0.0
C222 C 0.01165 0.10991 0.13292 0.0
C223 C 0.01186 0.09343 0.118 0.0
H224 H 0.99751 0.12926 0.04304 0.0
H225 H 0.01373 0.11212 0.16733 0.0
H226 H 0.98021 0.16466 0.0767 0.0
H227 H 0.94592 0.12695 0.10897 0.0
H228 H 0.06505 0.16081 0.16069 0.0
H229 H 0.99851 0.10071 0.01369 0.0
H230 H 0.01519 0.08356 0.14073 0.0
C231 C 0.10974 0.7123 0.38633 0.0
C232 C 0.10827 0.69947 0.35637 0.0
N233 N 0.10662 0.70623 0.31601 0.0
N234 N 0.10902 0.72698 0.36475 0.0
C235 C 0.10704 0.72289 0.32209 0.0
H236 H 0.11199 0.71104 0.42127 0.0
Co237 Co 0.1138 0.74757 0.38816 0.0
C238 C 0.10244 0.77306 0.3222 0.0
O239 O 0.1149 0.78271 0.33406 0.0
N240 N 0.11898 0.76847 0.41316 0.0
C241 C 0.13213 0.79099 0.43843 0.0
C242 C 0.13409 0.77565 0.4192 0.0
C243 C 0.10807 0.77978 0.42941 0.0
N244 N 0.11575 0.79358 0.44497 0.0
O245 O 0.09372 0.74597 0.42448 0.0
H246 H 0.14597 0.77037 0.41033 0.0
H247 H 0.09473 0.7778 0.43039 0.0
O248 O 0.10076 0.75867 0.34028 0.0
C249 C 0.09638 0.74251 0.46498 0.0
O250 O 0.11193 0.74144 0.47844 0.0
N251 N 0.13405 0.74752 0.356 0.0
C252 C 0.16672 0.74597 0.32386 0.0
C253 C 0.15366 0.75175 0.29708 0.0
C254 C 0.13732 0.75231 0.31367 0.0
C255 C 0.14636 0.74048 0.38081 0.0
C256 C 0.1628 0.73991 0.36584 0.0
H257 H 0.1275 0.75646 0.29215 0.0
H258 H 0.14346 0.73599 0.4135 0.0
H259 H 0.107 0.73193 0.29564 0.0
H260 H 0.10879 0.68625 0.36356 0.0
H261 H 0.14208 0.79952 0.4471 0.0
H262 H 0.15609 0.75613 0.26399 0.0
H263 H 0.1724 0.73486 0.38711 0.0
C264 C 0.88767 0.78417 0.39643 0.0
C265 C 0.89025 0.79987 0.37925 0.0
N266 N 0.90349 0.79908 0.35208 0.0
N267 N 0.899 0.77359 0.37915 0.0
C268 C 0.90863 0.78307 0.3529 0.0
H269 H 0.87773 0.78049 0.41842 0.0
Co270 Co 0.89969 0.75088 0.38804 0.0
C271 C 0.90722 0.73787 0.29821 0.0
O272 O 0.89362 0.72878 0.30126 0.0
N273 N 0.9007 0.72782 0.39951 0.0
C274 C 0.90929 0.70148 0.40659 0.0
C275 C 0.91057 0.71581 0.38201 0.0
C276 C 0.8942 0.72058 0.43575 0.0
N277 N 0.89906 0.70459 0.4406 0.0
O278 O 0.92083 0.75375 0.41878 0.0
H279 H 0.91948 0.71757 0.35583 0.0
H280 H 0.88706 0.7273 0.46014 0.0
O281 O 0.9115 0.74729 0.33058 0.0
C282 C 0.91951 0.75494 0.46062 0.0
O283 O 0.90467 0.75346 0.47842 0.0
N284 N 0.87806 0.74909 0.36101 0.0
C285 C 0.84502 0.74959 0.32939 0.0
C286 C 0.85803 0.75699 0.30533 0.0
C287 C 0.87435 0.75684 0.32199 0.0
C288 C 0.8654 0.74244 0.38538 0.0
C289 C 0.849 0.7422 0.36988 0.0
H290 H 0.88399 0.76324 0.30373 0.0
H291 H 0.86764 0.73788 0.41801 0.0
H292 H 0.91858 0.77817 0.33259 0.0
H293 H 0.88263 0.81083 0.38488 0.0
H294 H 0.91665 0.69025 0.40231 0.0
H295 H 0.85558 0.76334 0.27455 0.0
H296 H 0.83948 0.73644 0.39005 0.0
C297 C 0.62439 0.22093 0.89435 0.0
C298 C 0.62241 0.20701 0.86827 0.0
N299 N 0.61297 0.21136 0.83351 0.0
N300 N 0.61635 0.23392 0.87569 0.0
C301 C 0.60941 0.22767 0.83889 0.0
H302 H 0.63207 0.22181 0.92351 0.0
Co303 Co 0.61856 0.25582 0.89319 0.0
C304 C 0.60614 0.27647 0.81784 0.0
O305 O 0.61935 0.28597 0.82276 0.0
N306 N 0.62111 0.27829 0.91213 0.0
C307 C 0.63057 0.30395 0.92603 0.0
C308 C 0.63425 0.28881 0.9075 0.0
C309 C 0.60959 0.28758 0.93351 0.0
N310 N 0.61507 0.30315 0.94258 0.0
O311 O 0.59921 0.25281 0.9317 0.0
H312 H 0.64574 0.28619 0.89051 0.0
H313 H 0.59746 0.28297 0.94308 0.0
O314 O 0.60408 0.26382 0.84332 0.0
C315 C 0.60426 0.24774 0.96939 0.0
O316 O 0.62045 0.24715 0.97605 0.0
N317 N 0.63848 0.25678 0.8601 0.0
C318 C 0.67071 0.25545 0.82496 0.0
C319 C 0.65668 0.25564 0.79719 0.0
C320 C 0.64058 0.25604 0.81547 0.0
C321 C 0.65193 0.2551 0.88722 0.0
C322 C 0.66811 0.25485 0.87051 0.0
H323 H 0.62995 0.25543 0.79375 0.0
H324 H 0.65002 0.25441 0.92241 0.0
H325 H 0.60305 0.23515 0.81448 0.0
H326 H 0.62809 0.1949 0.8733 0.0
H327 H 0.6387 0.31474 0.92693 0.0
H328 H 0.65812 0.25555 0.76175 0.0
H329 H 0.67851 0.25401 0.89315 0.0
C330 C 0.63494 0.78195 0.11212 0.0
C331 C 0.63291 0.79816 0.1262 0.0
N332 N 0.61825 0.79911 0.1475 0.0
N333 N 0.62183 0.77274 0.12587 0.0
C334 C 0.61175 0.7836 0.14674 0.0
H335 H 0.64563 0.77697 0.09481 0.0
Co336 Co 0.61953 0.74989 0.11884 0.0
C337 C 0.60898 0.74005 0.20993 0.0
O338 O 0.62228 0.73049 0.21214 0.0
N339 N 0.61708 0.72686 0.10913 0.0
C340 C 0.60898 0.70027 0.10606 0.0
C341 C 0.60813 0.71486 0.12975 0.0
C342 C 0.62252 0.71937 0.07202 0.0
N343 N 0.61804 0.70317 0.06968 0.0
O344 O 0.59964 0.75378 0.08312 0.0
H345 H 0.6003 0.71659 0.15817 0.0
H346 H 0.62923 0.72591 0.04639 0.0
O347 O 0.60592 0.74825 0.17444 0.0
C348 C 0.60412 0.75819 0.04441 0.0
O349 O 0.62019 0.75866 0.03585 0.0
N350 N 0.64025 0.74681 0.14969 0.0
C351 C 0.67305 0.74657 0.18294 0.0
C352 C 0.66034 0.75551 0.20436 0.0
C353 C 0.64414 0.75563 0.187 0.0
C354 C 0.65254 0.73819 0.12844 0.0
C355 C 0.66881 0.73763 0.14485 0.0
H356 H 0.6348 0.7633 0.20285 0.0
H357 H 0.65018 0.73234 0.09725 0.0
H358 H 0.60033 0.78005 0.1633 0.0
H359 H 0.64175 0.80829 0.12264 0.0
H360 H 0.60233 0.68883 0.11326 0.0
H361 H 0.66301 0.76298 0.23324 0.0
H362 H 0.67808 0.73051 0.12697 0.0
C363 C 0.90175 0.22201 0.60894 0.0
C364 C 0.90657 0.20937 0.63704 0.0
N365 N 0.90797 0.21584 0.67784 0.0
N366 N 0.90015 0.23627 0.63217 0.0
C367 C 0.90387 0.23207 0.67386 0.0
H368 H 0.8997 0.22093 0.57387 0.0
Co369 Co 0.89448 0.25721 0.61224 0.0
C370 C 0.90721 0.28103 0.68132 0.0
O371 O 0.89462 0.29117 0.67423 0.0
N372 N 0.88858 0.27868 0.59132 0.0
C373 C 0.87486 0.30177 0.57225 0.0
C374 C 0.87357 0.28643 0.59197 0.0
C375 C 0.89875 0.28977 0.57124 0.0
N376 N 0.89071 0.30384 0.55885 0.0
O377 O 0.9138 0.25649 0.57371 0.0
H378 H 0.86221 0.2815 0.60575 0.0
H379 H 0.91177 0.28737 0.56467 0.0
O380 O 0.90832 0.2674 0.65943 0.0
C381 C 0.91086 0.25381 0.53298 0.0
O382 O 0.89527 0.25355 0.51958 0.0
N383 N 0.87489 0.25618 0.64663 0.0
C384 C 0.84275 0.25282 0.68195 0.0
C385 C 0.85612 0.2585 0.70805 0.0
C386 C 0.87217 0.25993 0.68991 0.0
C387 C 0.86234 0.24964 0.62176 0.0
C388 C 0.8462 0.24814 0.63836 0.0
H389 H 0.88223 0.26383 0.71099 0.0
H390 H 0.86481 0.24622 0.58793 0.0
H391 H 0.90337 0.24077 0.70103 0.0
H392 H 0.90915 0.19655 0.62799 0.0
H393 H 0.86478 0.31058 0.56772 0.0
H394 H 0.85428 0.26167 0.74234 0.0
H395 H 0.83644 0.24379 0.61656 0.0
C396 C 0.0398 0.63588 0.85985 0.0
C397 C 0.0544 0.63819 0.88304 0.0
N398 N 0.05052 0.64491 0.92239 0.0
N399 N 0.02688 0.6412 0.88449 0.0
C400 C 0.0338 0.64681 0.92204 0.0
H401 H 0.03858 0.62996 0.82801 0.0
Co402 Co 0.00465 0.63809 0.87126 0.0
C403 C 0.98721 0.64819 0.95506 0.0
O404 O 0.97923 0.63391 0.95655 0.0
N405 N 0.98173 0.63461 0.8569 0.0
C406 C 0.95645 0.62318 0.84898 0.0
C407 C 0.97142 0.62219 0.87054 0.0
C408 C 0.97231 0.64319 0.82768 0.0
N409 N 0.95708 0.63639 0.82203 0.0
O410 O 0.00537 0.65872 0.8373 0.0
H411 H 0.97446 0.6126 0.89417 0.0
H412 H 0.97659 0.65382 0.80905 0.0
O413 O 0.99763 0.65109 0.92402 0.0
C414 C 0.00867 0.65688 0.79641 0.0
O415 O 0.0095 0.64169 0.7802 0.0
N416 N 0.00568 0.61725 0.9006 0.0
C417 C 0.0084 0.58424 0.93073 0.0
C418 C 0.01 0.59781 0.95991 0.0
C419 C 0.00892 0.61425 0.94404 0.0
C420 C 0.00527 0.60429 0.8715 0.0
C421 C 0.00621 0.58776 0.88585 0.0
H422 H 0.01084 0.62447 0.96666 0.0
H423 H 0.00369 0.60684 0.83678 0.0
H424 H 0.02667 0.65165 0.94936 0.0
H425 H 0.06674 0.63437 0.8727 0.0
H426 H 0.94606 0.61461 0.85199 0.0
H427 H 0.01236 0.59579 0.99457 0.0
H428 H 0.00493 0.57785 0.86183 0.0
C429 C 0.47207 0.37305 0.38127 0.0
C430 C 0.45788 0.36956 0.40502 0.0
N431 N 0.4616 0.3574 0.43395 0.0
N432 N 0.48461 0.36328 0.39577 0.0
C433 C 0.47782 0.35377 0.42748 0.0
H434 H 0.47336 0.38257 0.35628 0.0
Co435 Co 0.50644 0.36489 0.37784 0.0
C436 C 0.52376 0.33876 0.42961 0.0
O437 O 0.52966 0.33295 0.39227 0.0
N438 N 0.5282 0.36723 0.3589 0.0
C439 C 0.5554 0.3723 0.35388 0.0
C440 C 0.54241 0.36914 0.38234 0.0
C441 C 0.53271 0.36977 0.31686 0.0
N442 N 0.54912 0.37288 0.31285 0.0
O443 O 0.50336 0.34482 0.34168 0.0
H444 H 0.54323 0.36859 0.41783 0.0
H445 H 0.52413 0.36929 0.28948 0.0
O446 O 0.51408 0.35148 0.4291 0.0
C447 C 0.49664 0.34772 0.30422 0.0
O448 O 0.49288 0.36324 0.29436 0.0
N449 N 0.50857 0.38504 0.40891 0.0
C450 C 0.51089 0.41759 0.44241 0.0
C451 C 0.5126 0.4036 0.47022 0.0
C452 C 0.51133 0.38737 0.45283 0.0
C453 C 0.50671 0.39838 0.38164 0.0
C454 C 0.50774 0.41467 0.39759 0.0
H455 H 0.51259 0.37681 0.47466 0.0
H456 H 0.50432 0.39628 0.34703 0.0
H457 H 0.48481 0.34503 0.44737 0.0
H458 H 0.44597 0.37584 0.40233 0.0
H459 H 0.56836 0.37417 0.36259 0.0
H460 H 0.51512 0.40514 0.50499 0.0
H461 H 0.50585 0.42489 0.37483 0.0
C462 C 0.04954 0.35519 0.12172 0.0
C463 C 0.06227 0.35523 0.09119 0.0
N464 N 0.05541 0.35697 0.05106 0.0
N465 N 0.03479 0.35654 0.10054 0.0
C466 C 0.03885 0.35769 0.05767 0.0
H467 H 0.05105 0.35411 0.1569 0.0
Co468 Co 0.01317 0.35707 0.1222 0.0
C469 C 0.99873 0.32988 0.06685 0.0
O470 O 0.99534 0.32132 0.10261 0.0
N471 N 0.99149 0.35797 0.14352 0.0
C472 C 0.96391 0.35937 0.15002 0.0
C473 C 0.97697 0.35765 0.12099 0.0
C474 C 0.98697 0.36033 0.18574 0.0
N475 N 0.97028 0.361 0.19079 0.0
O476 O 0.01744 0.33667 0.15581 0.0
H477 H 0.97588 0.35639 0.08569 0.0
H478 H 0.99571 0.36192 0.21236 0.0
O479 O 0.00564 0.34422 0.07031 0.0
C480 C 0.02262 0.3393 0.19502 0.0
O481 O 0.02515 0.35478 0.20774 0.0
N482 N 0.00971 0.37766 0.09403 0.0
C483 C 0.00692 0.41065 0.06457 0.0
C484 C 0.00218 0.39723 0.03741 0.0
C485 C 0.00352 0.38075 0.05293 0.0
C486 C 0.01435 0.39051 0.1207 0.0
C487 C 0.01303 0.40705 0.10677 0.0
H488 H 0.99968 0.3706 0.03183 0.0
H489 H 0.0192 0.38781 0.15316 0.0
H490 H 0.0298 0.35855 0.03138 0.0
H491 H 0.07548 0.35399 0.09787 0.0
H492 H 0.95077 0.35913 0.1418 0.0
H493 H 0.99728 0.39944 0.00471 0.0
H494 H 0.01705 0.41694 0.12867 0.0
C495 C 0.47613 0.6347 0.63268 0.0
C496 C 0.4618 0.63795 0.60912 0.0
N497 N 0.46452 0.65149 0.58364 0.0
N498 N 0.48783 0.646 0.62158 0.0
C499 C 0.48025 0.65634 0.59301 0.0
H500 H 0.47827 0.62413 0.65409 0.0
Co501 Co 0.51024 0.64564 0.63621 0.0
C502 C 0.52164 0.65661 0.5436 0.0
O503 O 0.5254 0.64152 0.53009 0.0
N504 N 0.53282 0.64546 0.65172 0.0
C505 C 0.56049 0.64328 0.65201 0.0
C506 C 0.54647 0.6437 0.62603 0.0
C507 C 0.53888 0.64597 0.69307 0.0
N508 N 0.55565 0.64472 0.69421 0.0
O509 O 0.50694 0.66632 0.66909 0.0
H510 H 0.5464 0.6423 0.59081 0.0
H511 H 0.53112 0.64663 0.72202 0.0
O512 O 0.51615 0.65905 0.58276 0.0
C513 C 0.50163 0.66422 0.7084 0.0
O514 O 0.49944 0.6489 0.72277 0.0
N515 N 0.51249 0.6243 0.60798 0.0
C516 C 0.51263 0.59082 0.57991 0.0
C517 C 0.50477 0.60324 0.55482 0.0
C518 C 0.50447 0.6198 0.56998 0.0
C519 C 0.51979 0.6122 0.63319 0.0
C520 C 0.52019 0.59553 0.61958 0.0
H521 H 0.49752 0.62896 0.55136 0.0
H522 H 0.52487 0.61526 0.6651 0.0
H523 H 0.48647 0.66685 0.57806 0.0
H524 H 0.45073 0.63023 0.60871 0.0
H525 H 0.57323 0.64203 0.64068 0.0
H526 H 0.49833 0.60009 0.52459 0.0
H527 H 0.52621 0.58635 0.64039 0.0
H528 H 0.48095 0.061 0.41419 0.0
H529 H 0.48111 0.0316 0.43551 0.0
H530 H 0.52025 0.04152 0.5293 0.0
H531 H 0.52046 0.07096 0.50725 0.0
H532 H 0.52729 0.01421 0.48101 0.0
H533 H 0.48009 0.03394 0.56267 0.0
H534 H 0.45308 0.04809 0.57332 0.0
H535 H 0.42975 0.01378 0.48377 0.0
H536 H 0.45669 0.99955 0.4721 0.0
H537 H 0.52445 0.93739 0.59563 0.0
H538 H 0.5231 0.96674 0.57464 0.0
H539 H 0.4841 0.95548 0.48148 0.0
H540 H 0.48505 0.92599 0.50335 0.0
H541 H 0.47674 0.98332 0.52828 0.0
H542 H 0.52376 0.96346 0.44691 0.0
H543 H 0.55072 0.94924 0.43594 0.0
H544 H 0.57436 0.98379 0.52425 0.0
H545 H 0.54748 0.99808 0.53626 0.0
C546 C 0.48959 0.05696 0.43944 0.0
C547 C 0.50072 0.06839 0.45892 0.0
C548 C 0.48957 0.04013 0.45186 0.0
C549 C 0.50062 0.03429 0.48425 0.0
C550 C 0.51159 0.0457 0.50426 0.0
C551 C 0.51158 0.06258 0.49192 0.0
C552 C 0.50112 0.01619 0.49606 0.0
C553 C 0.51628 0.00753 0.49199 0.0
C554 C 0.48667 0.00728 0.50913 0.0
C555 C 0.47045 0.01578 0.51618 0.0
C556 C 0.46923 0.02949 0.54497 0.0
C557 C 0.45393 0.03751 0.55125 0.0
C558 C 0.43972 0.03187 0.52915 0.0
C559 C 0.44077 0.01816 0.50082 0.0
C560 C 0.45605 0.0101 0.49439 0.0
C561 C 0.51548 0.94112 0.57086 0.0
C562 C 0.50479 0.92927 0.55137 0.0
C563 C 0.51484 0.95793 0.55856 0.0
C564 C 0.5036 0.96337 0.52615 0.0
C565 C 0.49291 0.95161 0.5065 0.0
C566 C 0.49356 0.93472 0.51877 0.0
C567 C 0.50293 0.98137 0.51344 0.0
C568 C 0.48774 0.99 0.51728 0.0
C569 C 0.51735 0.99026 0.50008 0.0
C570 C 0.53356 0.98174 0.4928 0.0
C571 C 0.53468 0.96795 0.46426 0.0
C572 C 0.54995 0.95989 0.45781 0.0
C573 C 0.56424 0.96558 0.47947 0.0
C574 C 0.56328 0.97938 0.50754 0.0
C575 C 0.54803 0.98748 0.51415 0.0
H576 H 0.57605 0.95933 0.47443 0.0
H577 H 0.42788 0.03809 0.53406 0.0
H578 H 0.33236 0.26096 0.74878 0.0
H579 H 0.30343 0.26095 0.72298 0.0
H580 H 0.28743 0.24051 0.84725 0.0
H581 H 0.31629 0.23984 0.87254 0.0
H582 H 0.27168 0.22532 0.78267 0.0
H583 H 0.28245 0.2825 0.82115 0.0
H584 H 0.29753 0.30933 0.81899 0.0
H585 H 0.28799 0.31338 0.68036 0.0
H586 H 0.27303 0.28645 0.68158 0.0
H587 H 0.18482 0.24171 0.76203 0.0
H588 H 0.21384 0.24239 0.78737 0.0
H589 H 0.22942 0.26073 0.66048 0.0
H590 H 0.20046 0.26047 0.63534 0.0
H591 H 0.24536 0.27705 0.72574 0.0
H592 H 0.23445 0.21984 0.68774 0.0
H593 H 0.21925 0.19308 0.69035 0.0
H594 H 0.22897 0.18922 0.82893 0.0
H595 H 0.24404 0.21609 0.82726 0.0
C596 C 0.32272 0.2563 0.77047 0.0
C597 C 0.32672 0.25052 0.81293 0.0
C598 C 0.30613 0.25647 0.75583 0.0
C599 C 0.29315 0.25096 0.78338 0.0
C600 C 0.29715 0.24491 0.82541 0.0
C601 C 0.3137 0.24469 0.84 0.0
C602 C 0.27539 0.25143 0.76862 0.0
C603 C 0.26589 0.2367 0.77076 0.0
C604 C 0.26783 0.26616 0.75217 0.0
C605 C 0.27677 0.28238 0.75138 0.0
C606 C 0.28368 0.28905 0.79014 0.0
C607 C 0.29219 0.30428 0.7891 0.0
C608 C 0.29376 0.31303 0.74954 0.0
C609 C 0.28678 0.30658 0.71096 0.0
C610 C 0.27828 0.29134 0.71182 0.0
C611 C 0.1944 0.24606 0.73969 0.0
C612 C 0.1903 0.25089 0.6965 0.0
C613 C 0.21101 0.24631 0.75409 0.0
C614 C 0.22388 0.25139 0.72564 0.0
C615 C 0.21975 0.25668 0.68299 0.0
C616 C 0.20318 0.25639 0.66853 0.0
C617 C 0.24167 0.25097 0.73998 0.0
C618 C 0.25117 0.26568 0.73769 0.0
C619 C 0.24922 0.23624 0.75639 0.0
C620 C 0.24022 0.22005 0.75745 0.0
C621 C 0.23323 0.21335 0.71884 0.0
C622 C 0.22466 0.19815 0.72014 0.0
C623 C 0.22311 0.18948 0.7598 0.0
C624 C 0.23016 0.19596 0.79824 0.0
C625 C 0.23873 0.21117 0.79713 0.0
H626 H 0.21647 0.17771 0.76074 0.0
H627 H 0.30035 0.32483 0.7488 0.0
H628 H 0.99374 0.0629 0.11643 0.0
H629 H 0.99398 0.0337 0.09332 0.0
H630 H 0.02044 0.04731 0.97504 0.0
H631 H 0.0198 0.07674 0.99765 0.0
H632 H 0.99829 0.02483 0.95555 0.0
H633 H 0.04019 0.02881 0.06684 0.0
H634 H 0.05193 0.03589 0.13949 0.0
H635 H 0.0171 0.00276 0.20187 0.0
H636 H 0.00498 0.99566 0.1296 0.0
H637 H 0.02659 0.94297 0.90419 0.0
H638 H 0.02607 0.97213 0.92754 0.0
H639 H 0.99234 0.95958 0.03287 0.0
H640 H 0.99233 0.93038 0.00893 0.0
H641 H 0.01843 0.98124 0.0587 0.0
H642 H 0.977 0.9774 0.94438 0.0
H643 H 0.96662 0.97019 0.87039 0.0
H644 H 0.00268 0.0031 0.81218 0.0
H645 H 0.01344 0.01032 0.88585 0.0
C646 C 0.99965 0.05967 0.08553 0.0
C647 C 0.00692 0.07211 0.05908 0.0
C648 C 0.99983 0.04293 0.07238 0.0
C649 C 0.00758 0.03814 0.03287 0.0
C650 C 0.01446 0.05062 0.00578 0.0
C651 C 0.01408 0.06744 0.01868 0.0
C652 C 0.00849 0.02015 0.01997 0.0
C653 C 0.00292 0.01537 0.97797 0.0
C654 C 0.01427 0.00763 0.04932 0.0
C655 C 0.02157 0.01182 0.09283 0.0
C656 C 0.03495 0.02312 0.09608 0.0
C657 C 0.04169 0.02713 0.13718 0.0
C658 C 0.03524 0.01981 0.17528 0.0
C659 C 0.02206 0.00844 0.17233 0.0
C660 C 0.01527 0.00441 0.1313 0.0
C661 C 0.01892 0.94636 0.93212 0.0
C662 C 0.00935 0.93423 0.95429 0.0
C663 C 0.01871 0.96307 0.94555 0.0
C664 C 0.00901 0.96809 0.98163 0.0
C665 C 0.99991 0.95599 0.00489 0.0
C666 C 0.99999 0.93925 0.99125 0.0
C667 C 0.00821 0.98603 0.9945 0.0
C668 C 0.01381 0.99076 0.03642 0.0
C669 C 0.00267 0.99851 0.96492 0.0
C670 C 0.99613 0.99427 0.92062 0.0
C671 C 0.98281 0.98299 0.91579 0.0
C672 C 0.97684 0.97892 0.87391 0.0
C673 C 0.98401 0.98615 0.8366 0.0
C674 C 0.99715 0.9975 0.84111 0.0
C675 C 0.00318 1.00159 0.88292 0.0
H676 H 0.97938 0.98298 0.8042 0.0
H677 H 0.04047 0.02292 0.20708 0.0
H678 H 0.31305 0.7296 0.15192 0.0
H679 H 0.28409 0.72966 0.17632 0.0
H680 H 0.29672 0.76327 0.28197 0.0
H681 H 0.32572 0.76394 0.25666 0.0
H682 H 0.27536 0.73536 0.30627 0.0
H683 H 0.27868 0.77949 0.1988 0.0
H684 H 0.28569 0.79149 0.12644 0.0
H685 H 0.25295 0.75648 0.06316 0.0
H686 H 0.24594 0.74409 0.13514 0.0
H687 H 0.19362 0.75776 0.36903 0.0
H688 H 0.2228 0.75812 0.34613 0.0
H689 H 0.20917 0.73533 0.2225 0.0
H690 H 0.17977 0.73552 0.2449 0.0
H691 H 0.23148 0.7577 0.20728 0.0
H692 H 0.22803 0.71302 0.31081 0.0
H693 H 0.22123 0.6993 0.38117 0.0
H694 H 0.25416 0.73272 0.44951 0.0
H695 H 0.26099 0.74681 0.37961 0.0
C696 C 0.30974 0.73721 0.18006 0.0
C697 C 0.32183 0.747 0.2018 0.0
C698 C 0.29314 0.73711 0.19414 0.0
C699 C 0.2882 0.74661 0.23065 0.0
C700 C 0.30027 0.75586 0.25364 0.0
C701 C 0.31689 0.75615 0.23922 0.0
C702 C 0.27035 0.7471 0.24406 0.0
C703 C 0.26577 0.74046 0.28498 0.0
C704 C 0.2578 0.75325 0.21561 0.0
C705 C 0.26191 0.76076 0.17233 0.0
C706 C 0.27309 0.77425 0.16943 0.0
C707 C 0.27704 0.78114 0.12849 0.0
C708 C 0.26981 0.77472 0.09021 0.0
C709 C 0.25856 0.76143 0.09283 0.0
C710 C 0.25458 0.75447 0.13369 0.0
C711 C 0.19685 0.75278 0.337 0.0
C712 C 0.18441 0.74647 0.30893 0.0
C713 C 0.21358 0.75292 0.32397 0.0
C714 C 0.21836 0.74639 0.28292 0.0
C715 C 0.20588 0.74038 0.25441 0.0
C716 C 0.18907 0.74049 0.2672 0.0
C717 C 0.23633 0.74594 0.26978 0.0
C718 C 0.24099 0.75258 0.22878 0.0
C719 C 0.24894 0.73953 0.29792 0.0
C720 C 0.2449 0.73107 0.34002 0.0
C721 C 0.23373 0.71752 0.34089 0.0
C722 C 0.22989 0.70967 0.38068 0.0
C723 C 0.23723 0.71516 0.4198 0.0
C724 C 0.24847 0.7285 0.41919 0.0
C725 C 0.25234 0.73641 0.37949 0.0
H726 H 0.23423 0.70906 0.45057 0.0
H727 H 0.27288 0.78008 0.05854 0.0
H728 H 0.81647 0.75379 0.37823 0.0
H729 H 0.7876 0.75332 0.353 0.0
H730 H 0.80429 0.74667 0.21931 0.0
H731 H 0.83333 0.74666 0.24439 0.0
H732 H 0.77899 0.77034 0.22686 0.0
H733 H 0.78925 0.71401 0.27398 0.0
H734 H 0.79823 0.69211 0.32582 0.0
H735 H 0.76094 0.70792 0.41829 0.0
H736 H 0.75189 0.73009 0.36724 0.0
H737 H 0.70162 0.74759 0.13307 0.0
H738 H 0.73045 0.74822 0.15807 0.0
H739 H 0.71382 0.74874 0.29301 0.0
H740 H 0.6848 0.74719 0.26823 0.0
H741 H 0.73926 0.72831 0.2852 0.0
H742 H 0.7288 0.7845 0.23982 0.0
H743 H 0.7198 0.80696 0.18968 0.0
H744 H 0.75724 0.79235 0.09629 0.0
H745 H 0.76633 0.76964 0.14562 0.0
C746 C 0.81408 0.75199 0.34348 0.0
C747 C 0.82735 0.75003 0.31349 0.0
C748 C 0.79751 0.75182 0.32909 0.0
C749 C 0.79374 0.74975 0.28432 0.0
C750 C 0.80689 0.74826 0.25404 0.0
C751 C 0.82352 0.74832 0.26846 0.0
C752 C 0.77605 0.74906 0.26935 0.0
C753 C 0.77035 0.76101 0.23912 0.0
C754 C 0.76464 0.73719 0.28629 0.0
C755 C 0.77 0.72382 0.31696 0.0
C756 C 0.78306 0.71291 0.30552 0.0
C757 C 0.78814 0.70043 0.33473 0.0
C758 C 0.78019 0.69865 0.37537 0.0
C759 C 0.76711 0.70932 0.38683 0.0
C760 C 0.76198 0.72184 0.35775 0.0
C761 C 0.70401 0.74759 0.16814 0.0
C762 C 0.69075 0.74724 0.19857 0.0
C763 C 0.72058 0.74821 0.1824 0.0
C764 C 0.7244 0.7488 0.22748 0.0
C765 C 0.71124 0.74837 0.25803 0.0
C766 C 0.69461 0.74764 0.24377 0.0
C767 C 0.74212 0.74962 0.2426 0.0
C768 C 0.74785 0.73768 0.27289 0.0
C769 C 0.75353 0.76159 0.22595 0.0
C770 C 0.74813 0.77527 0.19625 0.0
C771 C 0.73503 0.786 0.20844 0.0
C772 C 0.72993 0.79879 0.1802 0.0
C773 C 0.73792 0.80106 0.13978 0.0
C774 C 0.75105 0.79057 0.12758 0.0
C775 C 0.7562 0.77774 0.15569 0.0
H776 H 0.73395 0.81097 0.11796 0.0
H777 H 0.78415 0.68898 0.39794 0.0
H778 H 0.82739 0.2742 0.74033 0.0
H779 H 0.79836 0.27384 0.76496 0.0
H780 H 0.78912 0.23001 0.68631 0.0
H781 H 0.81823 0.2298 0.66285 0.0
H782 H 0.76515 0.25535 0.67429 0.0
H783 H 0.79145 0.22551 0.79257 0.0
H784 H 0.81207 0.22121 0.85168 0.0
H785 H 0.79431 0.2651 0.91807 0.0
H786 H 0.77373 0.2698 0.85898 0.0
H787 H 0.68385 0.23673 0.75752 0.0
H788 H 0.71294 0.23582 0.7328 0.0
H789 H 0.72573 0.27383 0.82773 0.0
H790 H 0.69683 0.27447 0.85308 0.0
H791 H 0.74815 0.25078 0.83073 0.0
H792 H 0.72254 0.28153 0.71355 0.0
H793 H 0.7022 0.28693 0.65438 0.0
H794 H 0.7188 0.24307 0.58578 0.0
H795 H 0.73911 0.23729 0.64488 0.0
C796 C 0.81932 0.26427 0.72886 0.0
C797 C 0.82528 0.25208 0.6993 0.0
C798 C 0.80266 0.26416 0.74278 0.0
C799 C 0.79154 0.25193 0.72735 0.0
C800 C 0.79744 0.23965 0.69833 0.0
C801 C 0.81412 0.23962 0.6848 0.0
C802 C 0.7737 0.25209 0.74088 0.0
C803 C 0.76139 0.25413 0.70843 0.0
C804 C 0.76882 0.25092 0.7855 0.0
C805 C 0.78117 0.2481 0.82111 0.0
C806 C 0.79204 0.23433 0.81957 0.0
C807 C 0.8037 0.2318 0.85311 0.0
C808 C 0.80454 0.2429 0.88855 0.0
C809 C 0.79367 0.25653 0.89057 0.0
C810 C 0.782 0.25912 0.85707 0.0
C811 C 0.69285 0.24502 0.7727 0.0
C812 C 0.68804 0.25565 0.8073 0.0
C813 C 0.70949 0.24451 0.75855 0.0
C814 C 0.72162 0.25485 0.77814 0.0
C815 C 0.71672 0.26565 0.8122 0.0
C816 C 0.70016 0.26602 0.82664 0.0
C817 C 0.73947 0.25418 0.76417 0.0
C818 C 0.75183 0.25202 0.79654 0.0
C819 C 0.74439 0.25542 0.71948 0.0
C820 C 0.73222 0.25888 0.68387 0.0
C821 C 0.72177 0.27297 0.68602 0.0
C822 C 0.71026 0.27611 0.65246 0.0
C823 C 0.70917 0.26532 0.61641 0.0
C824 C 0.71964 0.2514 0.61377 0.0
C825 C 0.73116 0.24819 0.64727 0.0
H826 H 0.70026 0.26778 0.59046 0.0
H827 H 0.81357 0.24092 0.9145 0.0
H828 H 0.02246 0.55699 0.8898 0.0
H829 H 0.02154 0.52781 0.91274 0.0
H830 H 0.99527 0.54186 0.03082 0.0
H831 H 0.99572 0.57114 0.00759 0.0
H832 H 0.02037 0.51873 0.04666 0.0
H833 H 0.97411 0.52492 0.94767 0.0
H834 H 0.96034 0.53282 0.87818 0.0
H835 H 0.99135 0.49834 0.80729 0.0
H836 H 0.00548 0.4904 0.87632 0.0
H837 H 0.99522 0.43767 0.11031 0.0
H838 H 0.99513 0.46695 0.08781 0.0
H839 H 0.01623 0.45317 0.96237 0.0
H840 H 0.01607 0.42373 0.98457 0.0
H841 H 0.99357 0.47642 0.95046 0.0
H842 H 0.0402 0.47037 0.04764 0.0
H843 H 0.05474 0.46258 0.11613 0.0
H844 H 0.02417 0.49679 0.18922 0.0
H845 H 0.00928 0.50462 0.12122 0.0
C846 C 0.01632 0.55394 0.92049 0.0
C847 C 0.00897 0.56652 0.94651 0.0
C848 C 0.01588 0.5372 0.93365 0.0
C849 C 0.00813 0.53257 0.97322 0.0
C850 C 1.00129 0.54511 1.00009 0.0
C851 C 0.00164 0.56188 0.98682 0.0
C852 C 0.00703 0.51464 0.98617 0.0
C853 C 0.0143 0.50951 0.02594 0.0
C854 C 0.9995 0.5025 0.95863 0.0
C855 C 0.99096 0.50719 0.91711 0.0
C856 C 0.97809 0.51912 0.91721 0.0
C857 C 0.9702 0.52359 0.87792 0.0
C858 C 0.975 0.51612 0.83833 0.0
C859 C 0.98766 0.50413 0.83797 0.0
C860 C 0.9956 0.49963 0.87718 0.0
C861 C 0.99985 0.44086 0.07792 0.0
C862 C 0.00579 0.42835 0.04939 0.0
C863 C 0.99983 0.45765 0.0651 0.0
C864 C 0.00602 0.46241 0.02369 0.0
C865 C 0.01146 0.44988 0.99456 0.0
C866 C 0.01132 0.43303 0.00723 0.0
C867 C 0.00694 0.48043 0.01104 0.0
C868 C 0.99964 0.4856 0.97128 0.0
C869 C 0.01455 0.49259 0.03847 0.0
C870 C 0.02352 0.48796 0.07939 0.0
C871 C 0.0365 0.47614 0.07837 0.0
C872 C 0.04481 0.47173 0.11709 0.0
C873 C 0.04035 0.47915 0.15702 0.0
C874 C 0.02759 0.49103 0.15828 0.0
C875 C 0.01922 0.49547 0.11965 0.0
H876 H 0.04681 0.47573 0.18697 0.0
H877 H 0.96888 0.5196 0.80793 0.0
H878 H 0.52433 0.44497 0.40096 0.0
H879 H 0.52464 0.47383 0.42571 0.0
H880 H 0.50182 0.45914 0.54825 0.0
H881 H 0.50043 0.43023 0.52239 0.0
H882 H 0.48762 0.48622 0.52147 0.0
H883 H 0.54458 0.47037 0.53838 0.0
H884 H 0.57183 0.45873 0.51655 0.0
H885 H 0.57627 0.49581 0.41521 0.0
H886 H 0.54894 0.50753 0.43604 0.0
H887 H 0.5056 0.5634 0.63035 0.0
H888 H 0.50562 0.53401 0.60817 0.0
H889 H 0.51909 0.54824 0.47608 0.0
H890 H 0.51907 0.57777 0.49812 0.0
H891 H 0.53832 0.52147 0.51004 0.0
H892 H 0.48053 0.53687 0.49516 0.0
H893 H 0.4537 0.54843 0.52057 0.0
H894 H 0.45165 0.51179 0.62354 0.0
H895 H 0.47861 0.50016 0.59911 0.0
C896 C 0.51919 0.4478 0.43305 0.0
C897 C 0.51223 0.43512 0.45943 0.0
C898 C 0.51963 0.46438 0.44751 0.0
C899 C 0.51348 0.46877 0.48923 0.0
C900 C 0.5067 0.45614 0.51596 0.0
C901 C 0.50608 0.43953 0.50128 0.0
C902 C 0.51369 0.48659 0.50418 0.0
C903 C 0.49881 0.4938 0.51961 0.0
C904 C 0.52817 0.49673 0.50112 0.0
C905 C 0.54463 0.48973 0.48854 0.0
C906 C 0.55131 0.47597 0.51123 0.0
C907 C 0.56678 0.46937 0.49907 0.0
C908 C 0.57576 0.4765 0.46445 0.0
C909 C 0.5693 0.49028 0.44199 0.0
C910 C 0.55382 0.49692 0.45399 0.0
C911 C 0.50863 0.56029 0.5966 0.0
C912 C 0.51238 0.57294 0.566 0.0
C913 C 0.50854 0.54347 0.58391 0.0
C914 C 0.5123 0.5389 0.54041 0.0
C915 C 0.51615 0.55148 0.50982 0.0
C916 C 0.51603 0.56834 0.52237 0.0
C917 C 0.51229 0.52098 0.52703 0.0
C918 C 0.52719 0.5138 0.51195 0.0
C919 C 0.49791 0.51082 0.53097 0.0
C920 C 0.48167 0.51776 0.54558 0.0
C921 C 0.47443 0.53137 0.52346 0.0
C922 C 0.45919 0.53791 0.53763 0.0
C923 C 0.451 0.53087 0.57372 0.0
C924 C 0.45802 0.51724 0.59563 0.0
C925 C 0.47328 0.51066 0.58161 0.0
H926 H 0.43919 0.53596 0.58464 0.0
H927 H 0.58773 0.47137 0.45508 0.0
H928 H 0.43549 0.12819 0.29489 0.0
H929 H 0.42065 0.1298 0.22498 0.0
H930 H 0.46621 0.14383 0.15949 0.0
H931 H 0.48105 0.14292 0.22876 0.0
H932 H 0.41929 0.16012 0.18002 0.0
H933 H 0.46478 0.12969 0.05399 0.0
H934 H 0.48333 0.10519 0.04955 0.0
H935 H 0.45354 0.07971 0.14581 0.0
H936 H 0.43466 0.10394 0.15038 0.0
H937 H 0.42608 0.20286 0.9885 0.0
H938 H 0.43663 0.18269 0.04136 0.0
H939 H 0.39685 0.14875 0.00798 0.0
H940 H 0.38626 0.16887 0.95392 0.0
H941 H 0.43434 0.1356 0.03519 0.0
H942 H 0.38421 0.16673 0.08174 0.0
H943 H 0.36824 0.19308 0.08357 0.0
H944 H 0.40927 0.2177 0.14725 0.0
H945 H 0.42554 0.19153 0.14526 0.0
C946 C 0.44244 0.13155 0.26575 0.0
C947 C 0.45951 0.13567 0.26802 0.0
C948 C 0.43394 0.13225 0.22571 0.0
C949 C 0.4424 0.13674 0.18719 0.0
C950 C 0.45955 0.13999 0.18881 0.0
C951 C 0.46801 0.13951 0.22876 0.0
C952 C 0.43312 0.14076 0.14676 0.0
C953 C 0.4222 0.15441 0.14854 0.0
C954 C 0.43715 0.13344 0.10571 0.0
C955 C 0.44832 0.11869 0.10262 0.0
C956 C 0.4621 0.11882 0.07398 0.0
C957 C 0.4727 0.10498 0.07151 0.0
C958 C 0.46963 0.09091 0.09742 0.0
C959 C 0.45593 0.09063 0.12583 0.0
C960 C 0.44529 0.10443 0.12843 0.0
C961 C 0.41993 0.19087 0.99087 0.0
C962 C 0.40516 0.18755 0.96756 0.0
C963 C 0.426 0.17935 0.02114 0.0
C964 C 0.4174 0.16439 0.0285 0.0
C965 C 0.40362 0.16027 0.00242 0.0
C966 C 0.3975 0.17183 0.97206 0.0
C967 C 0.42093 0.15502 0.06894 0.0
C968 C 0.43089 0.14069 0.067 0.0
C969 C 0.41615 0.16171 0.11005 0.0
C970 C 0.40608 0.1772 0.11326 0.0
C971 C 0.38981 0.17778 0.09607 0.0
C972 C 0.38072 0.19267 0.09712 0.0
C973 C 0.38774 0.20705 0.11551 0.0
C974 C 0.40384 0.20654 0.13309 0.0
C975 C 0.41299 0.19167 0.1321 0.0
H976 H 0.3807 0.21858 0.11618 0.0
H977 H 0.47785 0.08022 0.09547 0.0
H978 H 0.08377 0.14262 0.20158 0.0
H979 H 0.09961 0.14364 0.27039 0.0
H980 H 0.05413 0.13663 0.34393 0.0
H981 H 0.03831 0.13579 0.27581 0.0
H982 H 0.0935 0.16889 0.32576 0.0
H983 H 0.06271 0.121 0.44503 0.0
H984 H 0.05214 0.0921 0.44293 0.0
H985 H 0.08459 0.081 0.33441 0.0
H986 H 0.09554 0.10976 0.33624 0.0
H987 H 0.08529 0.19811 0.53817 0.0
H988 H 0.07785 0.18084 0.47501 0.0
H989 H 0.12403 0.15373 0.4877 0.0
H990 H 0.13193 0.17134 0.5501 0.0
H991 H 0.091 0.13457 0.46158 0.0
H992 H 0.12914 0.17936 0.42145 0.0
H993 H 0.139 0.20854 0.42295 0.0
H994 H 0.09207 0.2251 0.37076 0.0
H995 H 0.08188 0.19599 0.36939 0.0
C996 C 0.07724 0.14094 0.23243 0.0
C997 C 0.05979 0.13935 0.23326 0.0
C998 C 0.08629 0.1414 0.27161 0.0
C999 C 0.07804 0.14017 0.31217 0.0
C1000 C 0.06079 0.1373 0.31296 0.0
C1001 C 0.05173 0.13686 0.27383 0.0
C1002 C 0.08667 0.145 0.35316 0.0
C1003 C 0.09327 0.1612 0.35515 0.0
C1004 C 0.08624 0.13502 0.39157 0.0
C1005 C 0.07989 0.1176 0.39066 0.0
C1006 C 0.06768 0.11238 0.4209 0.0
C1007 C 0.0616 0.09602 0.41971 0.0
C1008 C 0.06767 0.08473 0.38851 0.0
C1009 C 0.07986 0.08977 0.35849 0.0
C1010 C 0.08599 0.10611 0.35954 0.0
C1011 C 0.09382 0.18839 0.52788 0.0
C1012 C 0.10937 0.18637 0.54854 0.0
C1013 C 0.08946 0.17843 0.49215 0.0
C1014 C 0.10048 0.16617 0.47682 0.0
C1015 C 0.11538 0.16312 0.49943 0.0
C1016 C 0.11985 0.17321 0.53505 0.0
C1017 C 0.09738 0.15842 0.43373 0.0
C1018 C 0.09168 0.1419 0.43164 0.0
C1019 C 0.09861 0.16804 0.39498 0.0
C1020 C 0.10472 0.18553 0.39561 0.0
C1021 C 0.12088 0.18924 0.41064 0.0
C1022 C 0.12654 0.20575 0.41136 0.0
C1023 C 0.11618 0.21865 0.39688 0.0
C1024 C 0.10009 0.21508 0.38184 0.0
C1025 C 0.09438 0.19859 0.38104 0.0
H1026 H 0.12063 0.23141 0.39718 0.0
H1027 H 0.06294 0.07207 0.38763 0.0
H1028 H 0.0839 0.80491 0.43783 0.0
H1029 H 0.07033 0.82532 0.48623 0.0
H1030 H 0.11706 0.8337 0.55293 0.0
H1031 H 0.13055 0.81323 0.50595 0.0
H1032 H 0.0902 0.82133 0.60529 0.0
H1033 H 0.10202 0.86404 0.49628 0.0
H1034 H 0.10038 0.87644 0.42215 0.0
H1035 H 0.04694 0.8776 0.43088 0.0
H1036 H 0.04825 0.86498 0.50485 0.0
H1037 H 0.07608 0.8749 0.76985 0.0
H1038 H 0.08691 0.87036 0.69558 0.0
H1039 H 0.03677 0.86384 0.64716 0.0
H1040 H 0.02591 0.86855 0.72128 0.0
H1041 H 0.06258 0.87608 0.58098 0.0
H1042 H 0.0493 0.83117 0.68123 0.0
H1043 H 0.04878 0.81774 0.75423 0.0
H1044 H 0.10232 0.81865 0.75876 0.0
H1045 H 0.10311 0.83234 0.686 0.0
C1046 C 0.09131 0.81124 0.4625 0.0
C1047 C 0.10825 0.80725 0.46846 0.0
C1048 C 0.08359 0.82303 0.48965 0.0
C1049 C 0.09276 0.83095 0.52291 0.0
C1050 C 0.10985 0.82774 0.52715 0.0
C1051 C 0.11754 0.81604 0.50014 0.0
C1052 C 0.08427 0.84042 0.55782 0.0
C1053 C 0.08434 0.83339 0.59997 0.0
C1054 C 0.07599 0.85575 0.55026 0.0
C1055 C 0.07523 0.8634 0.50592 0.0
C1056 C 0.08991 0.86679 0.48223 0.0
C1057 C 0.08904 0.87389 0.44028 0.0
C1058 C 0.07356 0.87776 0.42176 0.0
C1059 C 0.05892 0.87458 0.44523 0.0
C1060 C 0.05972 0.86747 0.48719 0.0
C1061 C 0.06739 0.87327 0.74291 0.0
C1062 C 0.05026 0.87178 0.75118 0.0
C1063 C 0.07353 0.8708 0.70057 0.0
C1064 C 0.0626 0.86655 0.66629 0.0
C1065 C 0.04534 0.86721 0.67326 0.0
C1066 C 0.03917 0.86983 0.71566 0.0
C1067 C 0.06921 0.85723 0.62839 0.0
C1068 C 0.06853 0.86406 0.58596 0.0
C1069 C 0.07665 0.84144 0.63513 0.0
C1070 C 0.07626 0.83294 0.67848 0.0
C1071 C 0.06095 0.82862 0.69798 0.0
C1072 C 0.06061 0.82094 0.73926 0.0
C1073 C 0.07551 0.81738 0.76117 0.0
C1074 C 0.09078 0.82144 0.74176 0.0
C1075 C 0.09119 0.82915 0.7005 0.0
H1076 H 0.07522 0.81145 0.79316 0.0
H1077 H 0.07292 0.88325 0.38928 0.0
H1078 H 0.42611 0.80309 0.05314 0.0
H1079 H 0.43892 0.82147 0.99934 0.0
H1080 H 0.39086 0.84299 0.96997 0.0
H1081 H 0.37776 0.82395 0.02173 0.0
H1082 H 0.40469 0.83229 0.89864 0.0
H1083 H 0.42314 0.86654 0.01648 0.0
H1084 H 0.43576 0.8731 0.08842 0.0
H1085 H 0.48274 0.85355 0.04432 0.0
H1086 H 0.47036 0.84664 0.97231 0.0
H1087 H 0.44402 0.87534 0.7254 0.0
H1088 H 0.42992 0.87283 0.79648 0.0
H1089 H 0.47039 0.84246 0.84498 0.0
H1090 H 0.48446 0.84481 0.77415 0.0
H1091 H 0.45784 0.86378 0.90903 0.0
H1092 H 0.43752 0.824 0.80042 0.0
H1093 H 0.42521 0.81608 0.729 0.0
H1094 H 0.38171 0.84539 0.7579 0.0
H1095 H 0.39389 0.85367 0.8293 0.0
C1096 C 0.41822 0.81175 0.03548 0.0
C1097 C 0.40081 0.81169 0.04119 0.0
C1098 C 0.42564 0.82252 0.00523 0.0
C1099 C 0.41585 0.83368 0.98073 0.0
C1100 C 0.39864 0.83448 0.98857 0.0
C1101 C 0.39118 0.82359 0.01844 0.0
C1102 C 0.42318 0.84253 0.94265 0.0
C1103 C 0.41603 0.83962 0.90119 0.0
C1104 C 0.4382 0.85174 0.9458 0.0
C1105 C 0.44578 0.85601 0.98898 0.0
C1106 C 0.43614 0.86355 0.02218 0.0
C1107 C 0.44326 0.86734 0.06298 0.0
C1108 C 0.46003 0.86373 0.07095 0.0
C1109 C 0.46974 0.85635 0.03809 0.0
C1110 C 0.46269 0.85252 0.99723 0.0
C1111 C 0.44994 0.86822 0.7513 0.0
C1112 C 0.46522 0.86007 0.74399 0.0
C1113 C 0.44196 0.86693 0.79194 0.0
C1114 C 0.44908 0.85735 0.82571 0.0
C1115 C 0.46476 0.85 0.81936 0.0
C1116 C 0.47276 0.85132 0.77881 0.0
C1117 C 0.43942 0.85324 0.86557 0.0
C1118 C 0.44619 0.85693 0.90703 0.0
C1119 C 0.42406 0.84465 0.86264 0.0
C1120 C 0.4167 0.83962 0.81987 0.0
C1121 C 0.42539 0.82886 0.79137 0.0
C1122 C 0.41843 0.82429 0.75093 0.0
C1123 C 0.40271 0.83028 0.73885 0.0
C1124 C 0.3939 0.8408 0.76725 0.0
C1125 C 0.40082 0.84544 0.8077 0.0
H1126 H 0.39733 0.82673 0.70754 0.0
H1127 H 0.46552 0.86667 0.10257 0.0
H1128 H 0.55681 0.83653 0.72644 0.0
H1129 H 0.56499 0.81697 0.78392 0.0
H1130 H 0.51754 0.792 0.77272 0.0
H1131 H 0.5093 0.81168 0.71382 0.0
H1132 H 0.52774 0.80037 0.86321 0.0
H1133 H 0.54822 0.77007 0.7412 0.0
H1134 H 0.56218 0.76581 0.66978 0.0
H1135 H 0.60835 0.78336 0.72452 0.0
H1136 H 0.59462 0.78796 0.79612 0.0
H1137 H 0.57041 0.75057 0.0328 0.0
H1138 H 0.55268 0.75848 0.96961 0.0
H1139 H 0.59368 0.78643 0.91459 0.0
H1140 H 0.61121 0.77831 0.97581 0.0
H1141 H 0.58062 0.76852 0.85276 0.0
H1142 H 0.55748 0.80415 0.97005 0.0
H1143 H 0.54293 0.80866 0.04062 0.0
H1144 H 0.50115 0.78009 0.99404 0.0
H1145 H 0.51555 0.77528 0.92336 0.0
C1146 C 0.54817 0.82672 0.73559 0.0
C1147 C 0.53246 0.82558 0.71527 0.0
C1148 C 0.55287 0.81554 0.7686 0.0
C1149 C 0.54192 0.80297 0.78282 0.0
C1150 C 0.52621 0.80159 0.76233 0.0
C1151 C 0.52158 0.81271 0.7284 0.0
C1152 C 0.54719 0.79184 0.81984 0.0
C1153 C 0.53908 0.79305 0.86075 0.0
C1154 C 0.56196 0.78225 0.81688 0.0
C1155 C 0.57036 0.77943 0.77399 0.0
C1156 C 0.56132 0.77313 0.73793 0.0
C1157 C 0.5692 0.77064 0.69742 0.0
C1158 C 0.58613 0.77433 0.6926 0.0
C1159 C 0.59523 0.78049 0.72831 0.0
C1160 C 0.58742 0.78302 0.76889 0.0
C1161 C 0.57552 0.7585 0.00729 0.0
C1162 C 0.59229 0.76369 0.00933 0.0
C1163 C 0.56539 0.76303 0.97112 0.0
C1164 C 0.57179 0.77305 0.93683 0.0
C1165 C 0.58839 0.77852 0.93992 0.0
C1166 C 0.59844 0.77388 0.97531 0.0
C1167 C 0.56183 0.77793 0.89697 0.0
C1168 C 0.56905 0.77548 0.85526 0.0
C1169 C 0.54624 0.78629 0.89933 0.0
C1170 C 0.53766 0.78919 0.94173 0.0
C1171 C 0.54525 0.79874 0.97502 0.0
C1172 C 0.53702 0.80137 0.01499 0.0
C1173 C 0.52115 0.79462 0.02186 0.0
C1174 C 0.51346 0.78527 0.98872 0.0
C1175 C 0.52164 0.7826 0.94871 0.0
H1176 H 0.5148 0.79668 0.05282 0.0
H1177 H 0.59221 0.7724 0.6612 0.0
H1178 H 0.99796 0.85105 0.71755 0.0
H1179 H 0.9899 0.83251 0.6578 0.0
H1180 H 0.97874 0.79363 0.75138 0.0
H1181 H 0.9873 0.81229 0.81209 0.0
H1182 H 0.99237 0.78086 0.67297 0.0
H1183 H 0.94771 0.81746 0.71354 0.0
H1184 H 0.93453 0.8445 0.73073 0.0
H1185 H 0.9459 0.86225 0.60086 0.0
H1186 H 0.95939 0.83538 0.58309 0.0
H1187 H 0.92644 0.7428 0.54188 0.0
H1188 H 0.94525 0.75483 0.59703 0.0
H1189 H 0.96216 0.791 0.50202 0.0
H1190 H 0.94367 0.77861 0.44617 0.0
H1191 H 0.94698 0.80422 0.58062 0.0
H1192 H 0.98983 0.76612 0.53878 0.0
H1193 H 0.00344 0.73915 0.52332 0.0
H1194 H 0.99493 0.72349 0.65649 0.0
H1195 H 0.98103 0.75029 0.67267 0.0
C1196 C 0.99399 0.83848 0.72561 0.0
C1197 C 0.99302 0.83324 0.76973 0.0
C1198 C 0.98937 0.82787 0.69126 0.0
C1199 C 0.98331 0.81176 0.69993 0.0
C1200 C 0.98327 0.80604 0.74379 0.0
C1201 C 0.98815 0.81669 0.77849 0.0
C1202 C 0.97584 0.80171 0.6633 0.0
C1203 C 0.98227 0.78583 0.65316 0.0
C1204 C 0.9629 0.80831 0.63667 0.0
C1205 C 0.9547 0.82446 0.64713 0.0
C1206 C 0.94751 0.82717 0.68875 0.0
C1207 C 0.93997 0.84246 0.69859 0.0
C1208 C 0.93941 0.8551 0.66694 0.0
C1209 C 0.94636 0.85246 0.62535 0.0
C1210 C 0.95394 0.83719 0.61537 0.0
C1211 C 0.93463 0.75294 0.5323 0.0
C1212 C 0.93366 0.75971 0.48963 0.0
C1213 C 0.9454 0.75979 0.56387 0.0
C1214 C 0.95518 0.77381 0.55379 0.0
C1215 C 0.95484 0.78009 0.5105 0.0
C1216 C 0.94434 0.77296 0.47851 0.0
C1217 C 0.96351 0.78336 0.58992 0.0
C1218 C 0.95711 0.79919 0.60023 0.0
C1219 C 0.9763 0.77655 0.61678 0.0
C1220 C 0.98413 0.76016 0.60675 0.0
C1221 C 0.9906 0.75684 0.56461 0.0
C1222 C 0.99843 0.74159 0.55576 0.0
C1223 C 0.99996 0.72958 0.58882 0.0
C1224 C 0.99368 0.73279 0.63086 0.0
C1225 C 0.98583 0.74801 0.63988 0.0
H1226 H 0.00606 0.71781 0.58192 0.0
H1227 H 0.93356 0.86693 0.67462 0.0
H1228 H 0.98423 0.19271 0.19283 0.0
H1229 H 0.97344 0.21186 0.24945 0.0
H1230 H 0.9929 0.17959 0.35086 0.0
H1231 H 0.00321 0.16044 0.29491 0.0
H1232 H 0.96252 0.18561 0.36886 0.0
H1233 H 0.00863 0.21964 0.32934 0.0
H1234 H 0.02765 0.23587 0.28215 0.0
H1235 H 0.98757 0.2687 0.24652 0.0
H1236 H 0.96813 0.25237 0.29239 0.0
H1237 H 0.94024 0.23738 0.54984 0.0
H1238 H 0.95932 0.22509 0.49535 0.0
H1239 H 0.93051 0.24702 0.39048 0.0
H1240 H 0.91128 0.25899 0.44455 0.0
H1241 H 0.96714 0.24729 0.37704 0.0
H1242 H 0.92117 0.21009 0.41459 0.0
H1243 H 0.90384 0.1946 0.46776 0.0
H1244 H 0.9471 0.16811 0.51327 0.0
H1245 H 0.96473 0.18367 0.46083 0.0
C1246 C 0.98648 0.18993 0.2272 0.0
C1247 C 0.99444 0.17497 0.23934 0.0
C1248 C 0.98032 0.20089 0.25964 0.0
C1249 C 0.98223 0.19721 0.30476 0.0
C1250 C 0.99103 0.18272 0.31652 0.0
C1251 C 0.99698 0.17175 0.28435 0.0
C1252 C 0.97389 0.20742 0.33984 0.0
C1253 C 0.96384 0.19908 0.3708 0.0
C1254 C 0.9753 0.22506 0.3426 0.0
C1255 C 0.98685 0.23463 0.31392 0.0
C1256 C 0.00379 0.23017 0.31098 0.0
C1257 C 0.01467 0.23943 0.28459 0.0
C1258 C 0.00884 0.25331 0.26143 0.0
C1259 C 0.99208 0.25793 0.26444 0.0
C1260 C 0.98111 0.24865 0.29056 0.0
C1261 C 0.93825 0.23994 0.51524 0.0
C1262 C 0.92424 0.24912 0.50148 0.0
C1263 C 0.94912 0.23287 0.48411 0.0
C1264 C 0.94632 0.23508 0.43875 0.0
C1265 C 0.93298 0.24518 0.4252 0.0
C1266 C 0.92195 0.25197 0.45618 0.0
C1267 C 0.95598 0.22539 0.40543 0.0
C1268 C 0.96609 0.23381 0.37488 0.0
C1269 C 0.95493 0.20778 0.40335 0.0
C1270 C 0.94428 0.19817 0.43415 0.0
C1271 C 0.927 0.20105 0.43616 0.0
C1272 C 0.91712 0.19225 0.46614 0.0
C1273 C 0.92437 0.18041 0.49397 0.0
C1274 C 0.9415 0.1773 0.49175 0.0
C1275 C 0.95144 0.18611 0.4619 0.0
H1276 H 0.91671 0.17362 0.51719 0.0
H1277 H 0.01732 0.26051 0.24122 0.0
H1278 H 0.5553 0.15968 0.27809 0.0
H1279 H 0.56451 0.17955 0.22214 0.0
H1280 H 0.51623 0.20319 0.2245 0.0
H1281 H 0.50702 0.18342 0.2821 0.0
H1282 H 0.53131 0.19282 0.13405 0.0
H1283 H 0.5423 0.22593 0.26221 0.0
H1284 H 0.55298 0.23119 0.33705 0.0
H1285 H 0.60259 0.21902 0.29454 0.0
H1286 H 0.59217 0.21345 0.21957 0.0
H1287 H 0.56954 0.24942 0.976 0.0
H1288 H 0.55202 0.23835 0.03603 0.0
H1289 H 0.5961 0.22001 0.10156 0.0
H1290 H 0.61335 0.23136 0.04359 0.0
H1291 H 0.5777 0.23254 0.16034 0.0
H1292 H 0.56695 0.1948 0.03825 0.0
H1293 H 0.55725 0.18744 0.96366 0.0
H1294 H 0.50847 0.20635 0.9941 0.0
H1295 H 0.51796 0.21401 0.06873 0.0
C1296 C 0.54668 0.16926 0.26725 0.0
C1297 C 0.53046 0.17005 0.28481 0.0
C1298 C 0.55196 0.18059 0.2351 0.0
C1299 C 0.54108 0.19284 0.21884 0.0
C1300 C 0.52485 0.19383 0.23647 0.0
C1301 C 0.51965 0.18265 0.26965 0.0
C1302 C 0.54695 0.20425 0.18306 0.0
C1303 C 0.54118 0.20183 0.13985 0.0
C1304 C 0.56007 0.21574 0.19033 0.0
C1305 C 0.56642 0.21916 0.23532 0.0
C1306 C 0.55547 0.22424 0.2689 0.0
C1307 C 0.56148 0.22731 0.31133 0.0
C1308 C 0.57845 0.22542 0.32056 0.0
C1309 C 0.58944 0.22048 0.28734 0.0
C1310 C 0.5835 0.21739 0.24485 0.0
C1311 C 0.57543 0.24308 0.00335 0.0
C1312 C 0.59291 0.24138 0.00477 0.0
C1313 C 0.5654 0.23665 0.03766 0.0
C1314 C 0.57263 0.22817 0.07371 0.0
C1315 C 0.59006 0.22657 0.07475 0.0
C1316 C 0.59999 0.23308 0.04113 0.0
C1317 C 0.56252 0.22076 0.11063 0.0
C1318 C 0.56757 0.22386 0.15429 0.0
C1319 C 0.54889 0.20973 0.10359 0.0
C1320 C 0.54322 0.20517 0.05879 0.0
C1321 C 0.55419 0.19751 0.02889 0.0
C1322 C 0.54873 0.19326 0.98664 0.0
C1323 C 0.53227 0.19648 0.97409 0.0
C1324 C 0.52123 0.20391 0.00382 0.0
C1325 C 0.52664 0.2082 0.04608 0.0
H1326 H 0.52806 0.19318 0.94138 0.0
H1327 H 0.58307 0.2278 0.35343 0.0
H1328 H 0.93955 0.61503 0.77148 0.0
H1329 H 0.9224 0.62228 0.70748 0.0
H1330 H 0.93114 0.67458 0.73238 0.0
H1331 H 0.94854 0.66736 0.79606 0.0
H1332 H 0.89572 0.6633 0.70621 0.0
H1333 H 0.95512 0.66282 0.66146 0.0
H1334 H 0.9829 0.64973 0.65434 0.0
H1335 H 0.96082 0.60705 0.59172 0.0
H1336 H 0.93294 0.61998 0.59802 0.0
H1337 H 0.89675 0.71548 0.52456 0.0
H1338 H 0.89829 0.69858 0.5905 0.0
H1339 H 0.89931 0.6538 0.51131 0.0
H1340 H 0.89794 0.67091 0.44446 0.0
H1341 H 0.92475 0.65458 0.56384 0.0
H1342 H 0.86688 0.66136 0.58591 0.0
H1343 H 0.83983 0.67592 0.58935 0.0
H1344 H 0.85795 0.70675 0.69464 0.0
H1345 H 0.8852 0.69257 0.69146 0.0
C1346 C 0.93746 0.62806 0.76385 0.0
C1347 C 0.94531 0.64068 0.78844 0.0
C1348 C 0.92774 0.63216 0.72738 0.0
C1349 C 0.92555 0.64892 0.71562 0.0
C1350 C 0.93265 0.66158 0.7414 0.0
C1351 C 0.94262 0.65747 0.77739 0.0
C1352 C 0.91738 0.65327 0.67393 0.0
C1353 C 0.90192 0.6614 0.67489 0.0
C1354 C 0.92535 0.65021 0.63337 0.0
C1355 C 0.94198 0.64223 0.63073 0.0
C1356 C 0.9562 0.65057 0.64658 0.0
C1357 C 0.97195 0.64322 0.64258 0.0
C1358 C 0.9736 0.62752 0.62295 0.0
C1359 C 0.95952 0.61918 0.60706 0.0
C1360 C 0.94375 0.62653 0.6107 0.0
C1361 C 0.89669 0.70203 0.52104 0.0
C1362 C 0.89725 0.69449 0.47932 0.0
C1363 C 0.89751 0.69234 0.55893 0.0
C1364 C 0.8987 0.67489 0.55592 0.0
C1365 C 0.89832 0.66725 0.51434 0.0
C1366 C 0.89762 0.67699 0.47628 0.0
C1367 C 0.90311 0.66519 0.59562 0.0
C1368 C 0.91803 0.65603 0.5946 0.0
C1369 C 0.89456 0.66733 0.63601 0.0
C1370 C 0.87813 0.67589 0.63835 0.0
C1371 C 0.86514 0.6713 0.60965 0.0
C1372 C 0.84976 0.67949 0.61157 0.0
C1373 C 0.84717 0.69225 0.64218 0.0
C1374 C 0.85996 0.69684 0.67098 0.0
C1375 C 0.87537 0.6887 0.6692 0.0
H1376 H 0.83526 0.69858 0.6436 0.0
H1377 H 0.98581 0.62186 0.61985 0.0
H1378 H 0.62062 0.66953 0.07151 0.0
H1379 H 0.61915 0.65066 0.00806 0.0
H1380 H 0.6172 0.69328 0.92121 0.0
H1381 H 0.61896 0.71193 0.98394 0.0
H1382 H 0.5937 0.648 0.95919 0.0
H1383 H 0.62852 0.68611 0.82124 0.0
H1384 H 0.65535 0.70073 0.81242 0.0
H1385 H 0.67646 0.67174 0.91736 0.0
H1386 H 0.64984 0.65673 0.92644 0.0
H1387 H 0.54896 0.65993 0.77145 0.0
H1388 H 0.56655 0.66074 0.83651 0.0
H1389 H 0.60382 0.63122 0.76985 0.0
H1390 H 0.58608 0.63026 0.70413 0.0
H1391 H 0.61756 0.6575 0.81072 0.0
H1392 H 0.58288 0.6133 0.85351 0.0
H1393 H 0.55677 0.59742 0.8626 0.0
H1394 H 0.53775 0.63535 0.94899 0.0
H1395 H 0.56363 0.65159 0.93995 0.0
C1396 C 0.62025 0.67478 0.03871 0.0
C1397 C 0.61979 0.69217 0.03262 0.0
C1398 C 0.61951 0.66402 0.00255 0.0
C1399 C 0.61823 0.67052 0.95978 0.0
C1400 C 0.61867 0.6879 0.95367 0.0
C1401 C 0.61957 0.69861 0.98969 0.0
C1402 C 0.61352 0.65964 0.92232 0.0
C1403 C 0.59915 0.64979 0.92688 0.0
C1404 C 0.62097 0.66141 0.88036 0.0
C1405 C 0.63713 0.67026 0.87451 0.0
C1406 C 0.63891 0.68271 0.84218 0.0
C1407 C 0.65408 0.69111 0.83722 0.0
C1408 C 0.66759 0.68717 0.86432 0.0
C1409 C 0.66597 0.6748 0.89643 0.0
C1410 C 0.65083 0.66636 0.90154 0.0
C1411 C 0.56074 0.65334 0.77075 0.0
C1412 C 0.56607 0.64494 0.73272 0.0
C1413 C 0.57079 0.65379 0.80802 0.0
C1414 C 0.58634 0.64574 0.80827 0.0
C1415 C 0.5918 0.63739 0.77036 0.0
C1416 C 0.58171 0.63694 0.73284 0.0
C1417 C 0.59708 0.64721 0.8476 0.0
C1418 C 0.61255 0.6552 0.8433 0.0
C1419 C 0.59085 0.64345 0.88995 0.0
C1420 C 0.57525 0.63366 0.89606 0.0
C1421 C 0.57311 0.61829 0.87433 0.0
C1422 C 0.55834 0.60922 0.87947 0.0
C1423 C 0.54561 0.61536 0.90638 0.0
C1424 C 0.54764 0.63058 0.92824 0.0
C1425 C 0.56238 0.63971 0.92321 0.0
H1426 H 0.53418 0.60833 0.91029 0.0
H1427 H 0.67932 0.6937 0.86044 0.0
H1428 H 0.58172 0.30706 0.95424 0.0
H1429 H 0.56815 0.32591 0.00651 0.0
H1430 H 0.61609 0.34637 0.04206 0.0
H1431 H 0.62968 0.32756 0.9907 0.0
H1432 H 0.57349 0.32417 0.0926 0.0
H1433 H 0.61225 0.38572 0.07924 0.0
H1434 H 0.62492 0.40311 0.02129 0.0
H1435 H 0.58994 0.38393 0.92696 0.0
H1436 H 0.57688 0.3666 0.98445 0.0
H1437 H 0.57938 0.36011 0.29421 0.0
H1438 H 0.5905 0.35566 0.2202 0.0
H1439 H 0.54975 0.38396 0.16529 0.0
H1440 H 0.53861 0.3885 0.23939 0.0
H1441 H 0.5835 0.38471 0.11664 0.0
H1442 H 0.53943 0.34878 0.17227 0.0
H1443 H 0.52684 0.33254 0.23261 0.0
H1444 H 0.57003 0.30093 0.23731 0.0
H1445 H 0.5831 0.31729 0.17773 0.0
C1446 C 0.58934 0.31569 0.97288 0.0
C1447 C 0.6068 0.31566 0.96864 0.0
C1448 C 0.58156 0.32653 0.0024 0.0
C1449 C 0.59112 0.3376 0.02782 0.0
C1450 C 0.60845 0.33817 0.02207 0.0
C1451 C 0.61622 0.32735 0.99268 0.0
C1452 C 0.58347 0.34684 0.06468 0.0
C1453 C 0.57539 0.33747 0.0973 0.0
C1454 C 0.58601 0.36419 0.07087 0.0
C1455 C 0.59364 0.37478 0.0362 0.0
C1456 C 0.60718 0.38528 0.04622 0.0
C1457 C 0.61445 0.39512 0.01341 0.0
C1458 C 0.60826 0.3946 0.97045 0.0
C1459 C 0.59476 0.38428 0.96022 0.0
C1460 C 0.58743 0.37443 0.9929 0.0
C1461 C 0.57323 0.36599 0.26655 0.0
C1462 C 0.55799 0.37431 0.27212 0.0
C1463 C 0.57957 0.36347 0.22439 0.0
C1464 C 0.57077 0.36933 0.1876 0.0
C1465 C 0.55667 0.37938 0.19345 0.0
C1466 C 0.55025 0.38179 0.23559 0.0
C1467 C 0.57407 0.36188 0.14429 0.0
C1468 C 0.58129 0.37152 0.11097 0.0
C1469 C 0.57051 0.34482 0.13688 0.0
C1470 C 0.56231 0.33436 0.17089 0.0
C1471 C 0.54628 0.33843 0.18637 0.0
C1472 C 0.53907 0.32923 0.22046 0.0
C1473 C 0.54765 0.31577 0.23894 0.0
C1474 C 0.56343 0.31141 0.2231 0.0
C1475 C 0.57074 0.32064 0.18915 0.0
H1476 H 0.54202 0.30865 0.26531 0.0
H1477 H 0.61392 0.40221 0.9451 0.0
H1478 H 0.92318 0.31252 0.5471 0.0
H1479 H 0.93411 0.3309 0.49038 0.0
H1480 H 0.88399 0.34428 0.45258 0.0
H1481 H 0.87292 0.32522 0.50747 0.0
H1482 H 0.90032 0.33338 0.38496 0.0
H1483 H 0.91178 0.37375 0.4951 0.0
H1484 H 0.92206 0.38448 0.56616 0.0
H1485 H 0.97203 0.37041 0.5315 0.0
H1486 H 0.96204 0.35936 0.46049 0.0
H1487 H 0.93903 0.3731 0.2038 0.0
H1488 H 0.92299 0.37204 0.27233 0.0
H1489 H 0.96517 0.35003 0.3387 0.0
H1490 H 0.98112 0.35091 0.27079 0.0
H1491 H 0.94858 0.37206 0.39207 0.0
H1492 H 0.93576 0.3255 0.29418 0.0
H1493 H 0.92609 0.31311 0.22433 0.0
H1494 H 0.87893 0.33799 0.23838 0.0
H1495 H 0.88843 0.35069 0.30809 0.0
C1496 C 0.91444 0.31943 0.52702 0.0
C1497 C 0.89715 0.31702 0.53137 0.0
C1498 C 0.92073 0.3302 0.49502 0.0
C1499 C 0.90986 0.33903 0.4673 0.0
C1500 C 0.8926 0.33759 0.47366 0.0
C1501 C 0.8863 0.3267 0.50534 0.0
C1502 C 0.91645 0.34758 0.42779 0.0
C1503 C 0.91053 0.34227 0.38663 0.0
C1504 C 0.93 0.35889 0.42989 0.0
C1505 C 0.93613 0.36567 0.47245 0.0
C1506 C 0.92495 0.37285 0.50271 0.0
C1507 C 0.93073 0.379 0.54299 0.0
C1508 C 0.94768 0.37811 0.55335 0.0
C1509 C 0.9589 0.3711 0.52341 0.0
C1510 C 0.95319 0.36492 0.48309 0.0
C1511 C 0.9449 0.36815 0.23308 0.0
C1512 C 0.9613 0.36196 0.23171 0.0
C1513 C 0.93578 0.36767 0.27223 0.0
C1514 C 0.94289 0.36087 0.31043 0.0
C1515 C 0.95951 0.35547 0.30966 0.0
C1516 C 0.96861 0.35596 0.27069 0.0
C1517 C 0.93266 0.35748 0.34985 0.0
C1518 C 0.93796 0.36367 0.39074 0.0
C1519 C 0.91859 0.34687 0.34772 0.0
C1520 C 0.91288 0.33922 0.30594 0.0
C1521 C 0.92338 0.32843 0.28216 0.0
C1522 C 0.91793 0.32134 0.24265 0.0
C1523 C 0.90193 0.32481 0.22684 0.0
C1524 C 0.89134 0.33535 0.2506 0.0
C1525 C 0.89675 0.3425 0.2901 0.0
H1526 H 0.89773 0.3193 0.19626 0.0
H1527 H 0.95213 0.38287 0.58457 0.0
H1528 H 0.01187 0.3383 0.27897 0.0
H1529 H 0.02102 0.31963 0.33765 0.0
H1530 H 0.05066 0.29189 0.24435 0.0
H1531 H 0.04076 0.31029 0.18477 0.0
H1532 H 0.03957 0.27116 0.30666 0.0
H1533 H 0.06751 0.32401 0.30831 0.0
H1534 H 0.06966 0.35474 0.30907 0.0
H1535 H 0.04357 0.35643 0.43238 0.0
H1536 H 0.04106 0.32572 0.43204 0.0
H1537 H 0.10457 0.24659 0.45467 0.0
H1538 H 0.08636 0.25717 0.39664 0.0
H1539 H 0.05432 0.27925 0.49465 0.0
H1540 H 0.07256 0.26834 0.55323 0.0
H1541 H 0.06501 0.30185 0.43173 0.0
H1542 H 0.03858 0.24809 0.43043 0.0
H1543 H 0.03717 0.21733 0.42794 0.0
H1544 H 0.06254 0.2173 0.30354 0.0
H1545 H 0.06418 0.24807 0.30539 0.0
C1546 C 0.02 0.32795 0.27075 0.0
C1547 C 0.02564 0.32577 0.22736 0.0
C1548 C 0.02536 0.31734 0.30444 0.0
C1549 C 0.037 0.30461 0.29597 0.0
C1550 C 0.0418 0.30168 0.25198 0.0
C1551 C 0.0361 0.31215 0.21788 0.0
C1552 C 0.04506 0.29546 0.33343 0.0
C1553 C 0.04525 0.27789 0.33376 0.0
C1554 C 0.05235 0.30412 0.36944 0.0
C1555 C 0.05396 0.32258 0.36993 0.0
C1556 C 0.06214 0.33095 0.33545 0.0
C1557 C 0.06344 0.34836 0.33582 0.0
C1558 C 0.05672 0.35753 0.37069 0.0
C1559 C 0.04874 0.34931 0.40535 0.0
C1560 C 0.04739 0.3319 0.4051 0.0
C1561 C 0.09342 0.25334 0.46395 0.0
C1562 C 0.09001 0.2566 0.50856 0.0
C1563 C 0.08296 0.25935 0.43066 0.0
C1564 C 0.06887 0.26898 0.44105 0.0
C1565 C 0.06506 0.27177 0.48573 0.0
C1566 C 0.07543 0.26547 0.51923 0.0
C1567 C 0.05939 0.27759 0.40519 0.0
C1568 C 0.05911 0.29511 0.40493 0.0
C1569 C 0.05228 0.26887 0.36913 0.0
C1570 C 0.05158 0.25037 0.36818 0.0
C1571 C 0.04397 0.24152 0.4027 0.0
C1572 C 0.04308 0.22408 0.40133 0.0
C1573 C 0.04974 0.21537 0.36558 0.0
C1574 C 0.05735 0.22407 0.33117 0.0
C1575 C 0.05824 0.24151 0.33233 0.0
H1576 H 0.04902 0.20188 0.36456 0.0
H1577 H 0.05773 0.37101 0.37092 0.0
H1578 H 0.41983 0.23938 0.05846 0.0
H1579 H 0.43772 0.25195 0.11461 0.0
H1580 H 0.45472 0.28839 0.02013 0.0
H1581 H 0.43756 0.27505 0.96314 0.0
H1582 H 0.47907 0.28274 0.0721 0.0
H1583 H 0.42131 0.29532 0.10028 0.0
H1584 H 0.39168 0.28863 0.11336 0.0
H1585 H 0.40504 0.26069 0.22868 0.0
H1586 H 0.43477 0.26708 0.216 0.0
H1587 H 0.49414 0.3512 0.21573 0.0
H1588 H 0.48441 0.33095 0.16158 0.0
H1589 H 0.47959 0.29384 0.26347 0.0
H1590 H 0.48971 0.31421 0.3183 0.0
H1591 H 0.45065 0.29749 0.21181 0.0
H1592 H 0.50865 0.28613 0.18364 0.0
H1593 H 0.53814 0.29258 0.16799 0.0
H1594 H 0.52366 0.32022 0.05318 0.0
H1595 H 0.49408 0.31355 0.06752 0.0
C1596 C 0.42771 0.24982 0.04943 0.0
C1597 C 0.42732 0.25619 0.00634 0.0
C1598 C 0.4378 0.25718 0.08178 0.0
C1599 C 0.44724 0.27159 0.07245 0.0
C1600 C 0.44753 0.2774 0.02865 0.0
C1601 C 0.43776 0.26972 0.99589 0.0
C1602 C 0.45607 0.28102 0.10852 0.0
C1603 C 0.47273 0.28605 0.1024 0.0
C1604 C 0.44813 0.28519 0.14891 0.0
C1605 C 0.43026 0.28155 0.15695 0.0
C1606 C 0.41792 0.2877 0.12831 0.0
C1607 C 0.40112 0.28396 0.13566 0.0
C1608 C 0.39649 0.2742 0.17176 0.0
C1609 C 0.40865 0.26822 0.2007 0.0
C1610 C 0.42547 0.27192 0.19348 0.0
C1611 C 0.49125 0.33866 0.22671 0.0
C1612 C 0.49267 0.33437 0.27151 0.0
C1613 C 0.48577 0.32703 0.1955 0.0
C1614 C 0.48129 0.31078 0.20814 0.0
C1615 C 0.48302 0.30627 0.25276 0.0
C1616 C 0.48887 0.31789 0.28408 0.0
C1617 C 0.47352 0.29922 0.17513 0.0
C1618 C 0.457 0.29394 0.18171 0.0
C1619 C 0.4815 0.29503 0.13502 0.0
C1620 C 0.49918 0.29944 0.12682 0.0
C1621 C 0.51176 0.29367 0.15521 0.0
C1622 C 0.52848 0.2973 0.14646 0.0
C1623 C 0.53276 0.30691 0.1098 0.0
C1624 C 0.52033 0.31279 0.08159 0.0
C1625 C 0.50359 0.30899 0.08982 0.0
H1626 H 0.54571 0.30972 0.10317 0.0
H1627 H 0.38347 0.2713 0.17737 0.0
H1628 H 0.4032 0.74521 0.95215 0.0
H1629 H 0.42234 0.73559 0.89543 0.0
H1630 H 0.46022 0.72714 0.99362 0.0
H1631 H 0.44098 0.73716 0.05116 0.0
H1632 H 0.47389 0.73904 0.91556 0.0
H1633 H 0.43715 0.69489 0.95755 0.0
H1634 H 0.41009 0.6816 0.97361 0.0
H1635 H 0.3942 0.69019 0.84059 0.0
H1636 H 0.42109 0.70377 0.82391 0.0
H1637 H 0.51099 0.66842 0.79338 0.0
H1638 H 0.49885 0.68758 0.84765 0.0
H1639 H 0.46852 0.70965 0.74611 0.0
H1640 H 0.48118 0.69087 0.69125 0.0
H1641 H 0.45231 0.69194 0.82596 0.0
H1642 H 0.49077 0.73462 0.78366 0.0
H1643 H 0.51774 0.74847 0.77016 0.0
H1644 H 0.53119 0.74207 0.90582 0.0
H1645 H 0.50443 0.72784 0.92004 0.0
C1646 C 0.41565 0.74149 0.96188 0.0
C1647 C 0.42045 0.74178 0.00645 0.0
C1648 C 0.42662 0.73595 0.92924 0.0
C1649 C 0.44266 0.73026 0.94011 0.0
C1650 C 0.44789 0.73137 0.9843 0.0
C1651 C 0.43688 0.73709 0.01721 0.0
C1652 C 0.45331 0.72222 0.9055 0.0
C1653 C 0.46929 0.72858 0.89637 0.0
C1654 C 0.44724 0.70873 0.87978 0.0
C1655 C 0.43108 0.70049 0.8896 0.0
C1656 C 0.42784 0.69406 0.93181 0.0
C1657 C 0.41254 0.68646 0.94102 0.0
C1658 C 0.40042 0.68509 0.90817 0.0
C1659 C 0.40359 0.69128 0.86602 0.0
C1660 C 0.41886 0.69892 0.85666 0.0
C1661 C 0.50219 0.6778 0.78236 0.0
C1662 C 0.49715 0.67827 0.73802 0.0
C1663 C 0.49527 0.68876 0.81341 0.0
C1664 C 0.48284 0.70016 0.80102 0.0
C1665 C 0.47826 0.70112 0.75635 0.0
C1666 C 0.48553 0.69044 0.72497 0.0
C1667 C 0.47283 0.70885 0.83556 0.0
C1668 C 0.45694 0.70243 0.845 0.0
C1669 C 0.47915 0.72211 0.8617 0.0
C1670 C 0.49565 0.72986 0.85274 0.0
C1671 C 0.49959 0.73583 0.81046 0.0
C1672 C 0.51482 0.74384 0.80272 0.0
C1673 C 0.5262 0.74605 0.83705 0.0
C1674 C 0.52239 0.74026 0.8792 0.0
C1675 C 0.50719 0.73221 0.88711 0.0
H1676 H 0.53794 0.75231 0.83101 0.0
H1677 H 0.38858 0.67919 0.91536 0.0
H1678 H 0.99288 0.66385 0.71978 0.0
H1679 H 0.00187 0.68333 0.66227 0.0
H1680 H 0.04171 0.70048 0.74645 0.0
H1681 H 0.03209 0.68151 0.80475 0.0
H1682 H 0.03103 0.72575 0.69587 0.0
H1683 H 0.04684 0.66751 0.66645 0.0
H1684 H 0.03956 0.63781 0.65612 0.0
H1685 H 0.0069 0.65088 0.54954 0.0
H1686 H 0.01395 0.68068 0.55943 0.0
H1687 H 0.09793 0.74393 0.55419 0.0
H1688 H 0.07748 0.73428 0.60764 0.0
H1689 H 0.0434 0.72231 0.50247 0.0
H1690 H 0.06407 0.73205 0.44826 0.0
H1691 H 0.04626 0.69651 0.55759 0.0
H1692 H 0.03357 0.75338 0.57581 0.0
H1693 H 0.03798 0.78361 0.58578 0.0
H1694 H 0.06156 0.77459 0.71037 0.0
H1695 H 0.05741 0.74425 0.70102 0.0
C1696 C 0.00328 0.67212 0.72627 0.0
C1697 C 0.0118 0.67118 0.76657 0.0
C1698 C 0.00852 0.68317 0.69329 0.0
C1699 C 0.02285 0.69308 0.69921 0.0
C1700 C 0.03069 0.69294 0.74072 0.0
C1701 C 0.02518 0.68214 0.77417 0.0
C1702 C 0.03057 0.7023 0.66131 0.0
C1703 C 0.0345 0.71933 0.66582 0.0
C1704 C 0.03447 0.69421 0.62101 0.0
C1705 C 0.03086 0.67628 0.61379 0.0
C1706 C 0.03814 0.66402 0.64076 0.0
C1707 C 0.03404 0.64719 0.63502 0.0
C1708 C 0.02276 0.64247 0.60222 0.0
C1709 C 0.01564 0.65456 0.5749 0.0
C1710 C 0.01972 0.67141 0.58047 0.0
C1711 C 0.08599 0.73951 0.54227 0.0
C1712 C 0.0827 0.73874 0.49679 0.0
C1713 C 0.07421 0.73407 0.57306 0.0
C1714 C 0.05876 0.72761 0.55942 0.0
C1715 C 0.05519 0.72726 0.514 0.0
C1716 C 0.06698 0.73291 0.48299 0.0
C1717 C 0.04725 0.71989 0.59262 0.0
C1718 C 0.04265 0.70308 0.58734 0.0
C1719 C 0.04252 0.72828 0.63184 0.0
C1720 C 0.04529 0.7465 0.63752 0.0
C1721 C 0.03982 0.75781 0.60519 0.0
C1722 C 0.04223 0.77498 0.61078 0.0
C1723 C 0.05008 0.78101 0.64863 0.0
C1724 C 0.05549 0.76989 0.68105 0.0
C1725 C 0.05308 0.75271 0.67565 0.0
H1726 H 0.05196 0.79431 0.65288 0.0
H1727 H 0.01954 0.62944 0.59796 0.0
H1728 H 0.44051 0.23514 0.80487 0.0
H1729 H 0.45801 0.22592 0.74287 0.0
H1730 H 0.41735 0.19575 0.69444 0.0
H1731 H 0.40035 0.20423 0.75661 0.0
H1732 H 0.44294 0.17835 0.68652 0.0
H1733 H 0.43099 0.23583 0.64928 0.0
H1734 H 0.431 0.26638 0.66004 0.0
H1735 H 0.48449 0.26632 0.66693 0.0
H1736 H 0.48479 0.23572 0.65686 0.0
H1737 H 0.47449 0.19312 0.44751 0.0
H1738 H 0.46269 0.20366 0.51602 0.0
H1739 H 0.48931 0.16583 0.58859 0.0
H1740 H 0.50082 0.15485 0.51959 0.0
H1741 H 0.47322 0.21718 0.58788 0.0
H1742 H 0.46718 0.15432 0.67893 0.0
H1743 H 0.46437 0.12428 0.66209 0.0
H1744 H 0.44148 0.13613 0.53822 0.0
H1745 H 0.44396 0.16621 0.55459 0.0
C1746 C 0.43535 0.22657 0.78087 0.0
C1747 C 0.41904 0.22037 0.78604 0.0
C1748 C 0.44535 0.22133 0.74522 0.0
C1749 C 0.43909 0.2101 0.71336 0.0
C1750 C 0.42269 0.20422 0.71842 0.0
C1751 C 0.41289 0.20918 0.75417 0.0
C1752 C 0.44935 0.20413 0.6749 0.0
C1753 C 0.44961 0.18692 0.66522 0.0
C1754 C 0.4581 0.21512 0.64643 0.0
C1755 C 0.4579 0.23347 0.65281 0.0
C1756 C 0.44275 0.24231 0.65346 0.0
C1757 C 0.4427 0.25963 0.65938 0.0
C1758 C 0.45774 0.26825 0.66422 0.0
C1759 C 0.47286 0.25959 0.66322 0.0
C1760 C 0.47297 0.24227 0.65742 0.0
C1761 C 0.47793 0.18702 0.47799 0.0
C1762 C 0.48854 0.17299 0.47774 0.0
C1763 C 0.47118 0.19315 0.51738 0.0
C1764 C 0.47485 0.1855 0.55786 0.0
C1765 C 0.48594 0.17183 0.55793 0.0
C1766 C 0.4926 0.16557 0.51836 0.0
C1767 C 0.4665 0.1915 0.59928 0.0
C1768 C 0.46667 0.20865 0.60955 0.0
C1769 C 0.45773 0.18054 0.62769 0.0
C1770 C 0.45595 0.16249 0.61779 0.0
C1771 C 0.46151 0.1505 0.64818 0.0
C1772 C 0.45997 0.13347 0.6387 0.0
C1773 C 0.45281 0.12831 0.59904 0.0
C1774 C 0.44708 0.14015 0.56885 0.0
C1775 C 0.44856 0.15718 0.5782 0.0
H1776 H 0.45165 0.11512 0.59174 0.0
H1777 H 0.4577 0.28164 0.66857 0.0
H1778 H 0.02642 0.1454 0.96236 0.0
H1779 H 0.03648 0.16358 0.90365 0.0
H1780 H 0.03235 0.20618 0.98992 0.0
H1781 H 0.02148 0.18793 0.04854 0.0
H1782 H 0.02694 0.21556 0.90416 0.0
H1783 H 0.06891 0.1853 0.98279 0.0
H1784 H 0.08211 0.16028 0.01479 0.0
H1785 H 0.08638 0.13849 0.88612 0.0
H1786 H 0.07296 0.16329 0.85343 0.0
H1787 H 0.1147 0.23279 0.79354 0.0
H1788 H 0.09591 0.22451 0.85254 0.0
H1789 H 0.05467 0.22414 0.76137 0.0
H1790 H 0.07363 0.23296 0.70181 0.0
H1791 H 0.08217 0.19551 0.85307 0.0
H1792 H 0.01682 0.22605 0.82764 0.0
H1793 H 0.0046 0.25288 0.80432 0.0
H1794 H 0.05013 0.27815 0.83758 0.0
H1795 H 0.06251 0.25153 0.86195 0.0
C1796 C 0.02724 0.15871 0.96848 0.0
C1797 C 0.02332 0.16522 0.01014 0.0
C1798 C 0.03304 0.16911 0.9349 0.0
C1799 C 0.03564 0.18623 0.94256 0.0
C1800 C 0.03056 0.19302 0.98316 0.0
C1801 C 0.02435 0.18259 0.01668 0.0
C1802 C 0.04552 0.1963 0.91029 0.0
C1803 C 0.039 0.21121 0.8928 0.0
C1804 C 0.0615 0.19092 0.89627 0.0
C1805 C 0.06981 0.17609 0.91573 0.0
C1806 C 0.07259 0.17514 0.96136 0.0
C1807 C 0.08011 0.16099 0.97961 0.0
C1808 C 0.08505 0.14779 0.95251 0.0
C1809 C 0.08253 0.14872 0.90708 0.0
C1810 C 0.07498 0.16282 0.88866 0.0
C1811 C 0.10155 0.23137 0.78616 0.0
C1812 C 0.09568 0.23338 0.74291 0.0
C1813 C 0.09079 0.2266 0.82001 0.0
C1814 C 0.07384 0.22346 0.81162 0.0
C1815 C 0.06765 0.22656 0.76896 0.0
C1816 C 0.07848 0.2316 0.73488 0.0
C1817 C 0.06361 0.2148 0.84599 0.0
C1818 C 0.07009 0.2 0.86401 0.0
C1819 C 0.04789 0.22062 0.8611 0.0
C1820 C 0.0407 0.2367 0.84583 0.0
C1821 C 0.02424 0.23732 0.82986 0.0
C1822 C 0.01728 0.2525 0.81648 0.0
C1823 C 0.02664 0.26719 0.81907 0.0
C1824 C 0.04295 0.26674 0.83525 0.0
C1825 C 0.04996 0.25159 0.84875 0.0
H1826 H 0.02121 0.27894 0.8089 0.0
H1827 H 0.09087 0.13685 0.96671 0.0
H1828 H 0.01171 0.82515 0.98419 0.0
H1829 H 0.02091 0.80734 0.04566 0.0
H1830 H 0.06344 0.83943 0.06567 0.0
H1831 H 0.05452 0.85699 0.005 0.0
H1832 H 0.07276 0.80743 0.06507 0.0
H1833 H 0.02803 0.8401 0.13188 0.0
H1834 H 0.99904 0.84953 0.14292 0.0
H1835 H 0.98353 0.79892 0.16525 0.0
H1836 H 0.01237 0.78914 0.15356 0.0
H1837 H 0.10501 0.80189 0.27539 0.0
H1838 H 0.08887 0.81085 0.21204 0.0
H1839 H 0.05902 0.76619 0.21985 0.0
H1840 H 0.07544 0.75686 0.28398 0.0
H1841 H 0.04041 0.79778 0.20182 0.0
H1842 H 0.08524 0.76561 0.14656 0.0
H1843 H 0.11439 0.75618 0.14233 0.0
H1844 H 0.12946 0.80474 0.09758 0.0
H1845 H 0.10044 0.81471 0.10336 0.0
C1846 C 0.02301 0.82838 1.00175 0.0
C1847 C 0.03238 0.84252 0.98937 0.0
C1848 C 0.02823 0.81822 0.03704 0.0
C1849 C 0.0429 0.82201 0.06052 0.0
C1850 C 0.05214 0.83614 0.04813 0.0
C1851 C 0.04696 0.84624 0.01327 0.0
C1852 C 0.04919 0.81136 0.09743 0.0
C1853 C 0.06564 0.80536 0.09491 0.0
C1854 C 0.03975 0.80797 0.13592 0.0
C1855 C 0.02233 0.81386 0.14129 0.0
C1856 C 0.0184 0.83095 0.13854 0.0
C1857 C 0.002 0.83637 0.14508 0.0
C1858 C 0.98946 0.82483 0.15484 0.0
C1859 C 0.99326 0.80784 0.1577 0.0
C1860 C 0.00962 0.80236 0.15107 0.0
C1861 C 0.09499 0.79389 0.26406 0.0
C1862 C 0.09165 0.77854 0.28486 0.0
C1863 C 0.08573 0.7991 0.22767 0.0
C1864 C 0.07278 0.78919 0.21093 0.0
C1865 C 0.06895 0.77407 0.23225 0.0
C1866 C 0.07838 0.76873 0.26878 0.0
C1867 C 0.06412 0.79457 0.1698 0.0
C1868 C 0.04734 0.79954 0.17151 0.0
C1869 C 0.07317 0.79694 0.13031 0.0
C1870 C 0.09063 0.79094 0.12568 0.0
C1871 C 0.09477 0.77434 0.13616 0.0
C1872 C 0.11129 0.76889 0.13345 0.0
C1873 C 0.12378 0.77982 0.11949 0.0
C1874 C 0.11977 0.79627 0.10834 0.0
C1875 C 0.10328 0.80184 0.11143 0.0
H1876 H 0.13656 0.77556 0.11734 0.0
H1877 H 0.9768 0.82902 0.16041 0.0
H1878 H 0.39582 0.79034 0.26653 0.0
H1879 H 0.41471 0.79909 0.32472 0.0
H1880 H 0.45584 0.77582 0.25666 0.0
H1881 H 0.43657 0.76624 0.1988 0.0
H1882 H 0.46072 0.77169 0.33904 0.0
H1883 H 0.44913 0.81969 0.25543 0.0
H1884 H 0.43233 0.84056 0.21554 0.0
H1885 H 0.40802 0.85452 0.33595 0.0
H1886 H 0.42451 0.83356 0.3765 0.0
H1887 H 0.49755 0.84525 0.48616 0.0
H1888 H 0.48628 0.8347 0.41662 0.0
H1889 H 0.46673 0.79151 0.48388 0.0
H1890 H 0.47808 0.80189 0.55327 0.0
H1891 H 0.45614 0.83021 0.39127 0.0
H1892 H 0.46466 0.75738 0.41134 0.0
H1893 H 0.48557 0.73771 0.44056 0.0
H1894 H 0.52323 0.77569 0.43275 0.0
H1895 H 0.5027 0.79545 0.40243 0.0
C1896 C 0.40888 0.78702 0.26383 0.0
C1897 C 0.4147 0.77775 0.22763 0.0
C1898 C 0.41975 0.79215 0.29716 0.0
C1899 C 0.4369 0.78864 0.29476 0.0
C1900 C 0.44272 0.77888 0.25931 0.0
C1901 C 0.4317 0.77341 0.22617 0.0
C1902 C 0.44851 0.79533 0.32931 0.0
C1903 C 0.45973 0.78448 0.35049 0.0
C1904 C 0.44792 0.81226 0.34309 0.0
C1905 C 0.43799 0.82497 0.31896 0.0
C1906 C 0.44013 0.82714 0.27337 0.0
C1907 C 0.43067 0.83899 0.25064 0.0
C1908 C 0.4191 0.84884 0.27319 0.0
C1909 C 0.41699 0.84688 0.31853 0.0
C1910 C 0.42641 0.83503 0.34142 0.0
C1911 C 0.49092 0.83347 0.48619 0.0
C1912 C 0.48866 0.82451 0.52559 0.0
C1913 C 0.48447 0.82742 0.44627 0.0
C1914 C 0.47571 0.8122 0.44461 0.0
C1915 C 0.47366 0.80313 0.48384 0.0
C1916 C 0.48008 0.80917 0.52373 0.0
C1917 C 0.46772 0.80634 0.40272 0.0
C1918 C 0.45722 0.81741 0.37994 0.0
C1919 C 0.46955 0.78981 0.38646 0.0
C1920 C 0.482 0.77802 0.40528 0.0
C1921 C 0.4774 0.76155 0.41585 0.0
C1922 C 0.48921 0.75036 0.4325 0.0
C1923 C 0.5057 0.75547 0.43872 0.0
C1924 C 0.51042 0.77178 0.42823 0.0
C1925 C 0.49869 0.78299 0.41131 0.0
H1926 H 0.51483 0.74679 0.45151 0.0
H1927 H 0.41178 0.85801 0.25553 0.0
H1928 H 0.58434 0.85589 0.5151 0.0
H1929 H 0.59535 0.8521 0.44043 0.0
H1930 H 0.54514 0.85066 0.38935 0.0
H1931 H 0.53416 0.85444 0.46339 0.0
H1932 H 0.56288 0.82492 0.36062 0.0
H1933 H 0.57031 0.88408 0.37012 0.0
H1934 H 0.57992 0.91052 0.40315 0.0
H1935 H 0.63077 0.89415 0.39304 0.0
H1936 H 0.62146 0.86749 0.36051 0.0
H1937 H 0.58754 0.81236 0.14722 0.0
H1938 H 0.57569 0.83014 0.20503 0.0
H1939 H 0.62376 0.83228 0.26879 0.0
H1940 H 0.63573 0.81532 0.20952 0.0
H1941 H 0.60544 0.86022 0.28695 0.0
H1942 H 0.59751 0.79971 0.29429 0.0
H1943 H 0.5892 0.77322 0.25943 0.0
H1944 H 0.5399 0.79249 0.23762 0.0
H1945 H 0.54798 0.81917 0.27256 0.0
C1946 C 0.57571 0.85493 0.4878 0.0
C1947 C 0.55843 0.85518 0.49512 0.0
C1948 C 0.58198 0.85285 0.44523 0.0
C1949 C 0.57103 0.85119 0.40939 0.0
C1950 C 0.55379 0.85185 0.41659 0.0
C1951 C 0.54754 0.85385 0.45899 0.0
C1952 C 0.57744 0.84752 0.36482 0.0
C1953 C 0.57192 0.83285 0.34423 0.0
C1954 C 0.58951 0.85767 0.34383 0.0
C1955 C 0.59517 0.87372 0.36319 0.0
C1956 C 0.58354 0.88606 0.37524 0.0
C1957 C 0.58893 0.90109 0.39382 0.0
C1958 C 0.60594 0.904 0.40027 0.0
C1959 C 0.6176 0.89188 0.38805 0.0
C1960 C 0.61227 0.87681 0.36949 0.0
C1961 C 0.59562 0.81725 0.17274 0.0
C1962 C 0.61241 0.81249 0.17454 0.0
C1963 C 0.5889 0.82732 0.20568 0.0
C1964 C 0.59877 0.8321 0.24177 0.0
C1965 C 0.61593 0.82868 0.2413 0.0
C1966 C 0.62275 0.81899 0.20762 0.0
C1967 C 0.59081 0.83772 0.2831 0.0
C1968 C 0.59614 0.85256 0.30321 0.0
C1969 C 0.5786 0.82773 0.30402 0.0
C1970 C 0.57335 0.81138 0.28585 0.0
C1971 C 0.58487 0.79823 0.28231 0.0
C1972 C 0.5802 0.78319 0.2625 0.0
C1973 C 0.56402 0.78114 0.24627 0.0
C1974 C 0.55244 0.79411 0.25012 0.0
C1975 C 0.55702 0.80915 0.27017 0.0
H1976 H 0.56044 0.7695 0.23083 0.0
H1977 H 0.61009 0.91565 0.41466 0.0
H1978 H 0.88384 0.81971 0.30495 0.0
H1979 H 0.89237 0.83552 0.23973 0.0
H1980 H 0.94358 0.82147 0.26258 0.0
H1981 H 0.93504 0.80554 0.32764 0.0
H1982 H 0.93874 0.85499 0.22697 0.0
H1983 H 0.92422 0.79696 0.20271 0.0
H1984 H 0.90552 0.77265 0.21004 0.0
H1985 H 0.86727 0.79877 0.13895 0.0
H1986 H 0.88569 0.82337 0.13194 0.0
H1987 H 0.97951 0.84941 0.02568 0.0
H1988 H 0.96683 0.84402 0.09643 0.0
H1989 H 0.91803 0.85264 0.04127 0.0
H1990 H 0.9307 0.85748 0.96887 0.0
H1991 H 0.91839 0.82545 0.09357 0.0
H1992 H 0.93688 0.8821 0.10643 0.0
H1993 H 0.95712 0.90516 0.10016 0.0
H1994 H 0.98938 0.88083 0.1929 0.0
H1995 H 0.96945 0.85752 0.19936 0.0
C1996 C 0.89697 0.82054 0.29693 0.0
C1997 C 0.90882 0.81136 0.32085 0.0
C1998 C 0.9018 0.82949 0.2597 0.0
C1999 C 0.91855 0.82948 0.24638 0.0
C2000 C 0.9306 0.82162 0.27256 0.0
C2001 C 0.92574 0.81248 0.3094 0.0
C2002 C 0.92315 0.83528 0.20203 0.0
C2003 C 0.9343 0.84863 0.19769 0.0
C2004 C 0.91717 0.82696 0.16413 0.0
C2005 C 0.90624 0.81206 0.16728 0.0
C2006 C 0.91178 0.79756 0.18894 0.0
C2007 C 0.90124 0.78373 0.19301 0.0
C2008 C 0.8852 0.78419 0.1751 0.0
C2009 C 0.87969 0.79846 0.1529 0.0
C2010 C 0.89017 0.81234 0.14886 0.0
C2011 C 0.96606 0.84989 0.02804 0.0
C2012 C 0.9561 0.85376 0.99134 0.0
C2013 C 0.95884 0.84704 0.0689 0.0
C2014 C 0.94153 0.84822 0.07432 0.0
C2015 C 0.93145 0.85182 0.03778 0.0
C2016 C 0.93869 0.85464 0.99657 0.0
C2017 C 0.93413 0.84521 0.11815 0.0
C2018 C 0.92251 0.83222 0.12255 0.0
C2019 C 0.93985 0.85377 0.15611 0.0
C2020 C 0.95169 0.868 0.15318 0.0
C2021 C 0.94832 0.88163 0.12537 0.0
C2022 C 0.95974 0.89476 0.12179 0.0
C2023 C 0.97453 0.89445 0.14608 0.0
C2024 C 0.97791 0.88106 0.17413 0.0
C2025 C 0.96654 0.8679 0.17783 0.0
H2026 H 0.98337 0.90461 0.14319 0.0
H2027 H 0.87704 0.77349 0.17833 0.0
H2028 H 0.92234 0.23015 0.74901 0.0
H2029 H 0.92891 0.21693 0.81857 0.0
H2030 H 0.91262 0.16939 0.76717 0.0
H2031 H 0.90504 0.18287 0.6975 0.0
H2032 H 0.90068 0.17438 0.84814 0.0
H2033 H 0.95444 0.17837 0.78077 0.0
H2034 H 0.97783 0.19206 0.7424 0.0
H2035 H 0.98371 0.22626 0.85014 0.0
H2036 H 0.96021 0.21293 0.889 0.0
H2037 H 0.94062 0.13079 0.02784 0.0
H2038 H 0.92881 0.14116 0.95875 0.0
H2039 H 0.9419 0.19152 0.99586 0.0
H2040 H 0.95384 0.18113 0.06465 0.0
H2041 H 0.95575 0.18261 0.91927 0.0
H2042 H 0.90132 0.17956 0.98515 0.0
H2043 H 0.87792 0.166 0.02378 0.0
H2044 H 0.87358 0.13004 0.91951 0.0
H2045 H 0.89712 0.14325 0.88052 0.0
C2046 C 0.91996 0.21692 0.7524 0.0
C2047 C 0.91298 0.2076 0.71776 0.0
C2048 C 0.92397 0.20932 0.79211 0.0
C2049 C 0.92147 0.19214 0.79785 0.0
C2050 C 0.9147 0.18267 0.76327 0.0
C2051 C 0.91052 0.19034 0.72342 0.0
C2052 C 0.9255 0.18435 0.84064 0.0
C2053 C 0.91282 0.17589 0.86343 0.0
C2054 C 0.94123 0.18667 0.86085 0.0
C2055 C 0.95546 0.1947 0.83766 0.0
C2056 C 0.96064 0.18888 0.79618 0.0
C2057 C 0.97394 0.19657 0.77437 0.0
C2058 C 0.98222 0.21004 0.7938 0.0
C2059 C 0.97727 0.21583 0.83516 0.0
C2060 C 0.96397 0.20819 0.85711 0.0
C2061 C 0.94039 0.14412 0.02189 0.0
C2062 C 0.94823 0.1552 0.05118 0.0
C2063 C 0.9337 0.15002 0.9824 0.0
C2064 C 0.93462 0.16709 0.97213 0.0
C2065 C 0.9412 0.17829 0.0031 0.0
C2066 C 0.94797 0.17238 0.0423 0.0
C2067 C 0.93082 0.17303 0.92723 0.0
C2068 C 0.94363 0.18103 0.90392 0.0
C2069 C 0.91524 0.17027 0.90669 0.0
C2070 C 0.90111 0.16229 0.93015 0.0
C2071 C 0.89549 0.16866 0.97066 0.0
C2072 C 0.88217 0.16106 0.99257 0.0
C2073 C 0.8743 0.14714 0.97418 0.0
C2074 C 0.87971 0.14081 0.93376 0.0
C2075 C 0.89303 0.14836 0.91172 0.0
H2076 H 0.86399 0.14128 0.99119 0.0
H2077 H 0.99249 0.21598 0.77681 0.0
H2078 H 0.58737 0.13889 0.45477 0.0
H2079 H 0.60434 0.14987 0.51526 0.0
H2080 H 0.56222 0.17845 0.56138 0.0
H2081 H 0.54519 0.16736 0.50269 0.0
H2082 H 0.59163 0.19629 0.5634 0.0
H2083 H 0.57024 0.14094 0.60432 0.0
H2084 H 0.56789 0.11046 0.59428 0.0
H2085 H 0.62109 0.10561 0.60457 0.0
H2086 H 0.62375 0.13612 0.61412 0.0
H2087 H 0.58521 0.21204 0.7844 0.0
H2088 H 0.58158 0.19971 0.71147 0.0
H2089 H 0.63058 0.17765 0.71996 0.0
H2090 H 0.63414 0.18985 0.79355 0.0
H2091 H 0.60735 0.15659 0.68173 0.0
H2092 H 0.62602 0.21278 0.66317 0.0
H2093 H 0.62615 0.24321 0.67594 0.0
H2094 H 0.57639 0.24673 0.62435 0.0
H2095 H 0.57581 0.21641 0.61228 0.0
C2096 C 0.58173 0.14753 0.47771 0.0
C2097 C 0.56483 0.15212 0.47378 0.0
C2098 C 0.59149 0.15386 0.51204 0.0
C2099 C 0.58448 0.16491 0.54265 0.0
C2100 C 0.56788 0.17002 0.53776 0.0
C2101 C 0.55814 0.16367 0.50388 0.0
C2102 C 0.59371 0.17046 0.58195 0.0
C2103 C 0.59523 0.18766 0.58922 0.0
C2104 C 0.59883 0.15909 0.61488 0.0
C2105 C 0.59721 0.14079 0.60931 0.0
C2106 C 0.58144 0.13338 0.60407 0.0
C2107 C 0.58005 0.1161 0.59854 0.0
C2108 C 0.59434 0.10611 0.59862 0.0
C2109 C 0.61004 0.11337 0.60438 0.0
C2110 C 0.6115 0.13065 0.60985 0.0
C2111 C 0.59509 0.20438 0.77085 0.0
C2112 C 0.60997 0.20196 0.79419 0.0
C2113 C 0.59307 0.19743 0.72926 0.0
C2114 C 0.60602 0.18819 0.71001 0.0
C2115 C 0.62054 0.1849 0.73423 0.0
C2116 C 0.6225 0.19176 0.77621 0.0
C2117 C 0.60432 0.18248 0.66409 0.0
C2118 C 0.60435 0.16527 0.6555 0.0
C2119 C 0.60044 0.19387 0.63 0.0
C2120 C 0.60088 0.21226 0.63683 0.0
C2121 C 0.61507 0.22004 0.65478 0.0
C2122 C 0.61522 0.2373 0.66194 0.0
C2123 C 0.6013 0.24694 0.65095 0.0
C2124 C 0.5872 0.23933 0.63284 0.0
C2125 C 0.58696 0.22209 0.6258 0.0
H2126 H 0.60146 0.26029 0.65637 0.0
H2127 H 0.59324 0.09273 0.59435 0.0
H2128 H 0.98151 0.68194 0.94857 0.0
H2129 H 0.97158 0.70058 0.00724 0.0
H2130 H 0.97674 0.66047 0.10119 0.0
H2131 H 0.98555 0.64175 0.04224 0.0
H2132 H 0.94907 0.67246 0.11392 0.0
H2133 H 0.0023 0.69847 0.09709 0.0
H2134 H 0.02558 0.71219 0.0583 0.0
H2135 H 0.99321 0.75239 0.02026 0.0
H2136 H 0.96967 0.7388 0.05829 0.0
H2137 H 0.94163 0.73915 0.29401 0.0
H2138 H 0.95918 0.72759 0.23479 0.0
H2139 H 0.91519 0.71796 0.15722 0.0
H2140 H 0.89776 0.72919 0.21593 0.0
H2141 H 0.96465 0.73148 0.14181 0.0
H2142 H 0.91658 0.67779 0.12452 0.0
H2143 H 0.89543 0.66357 0.17007 0.0
H2144 H 0.92232 0.6769 0.28716 0.0
H2145 H 0.94378 0.6909 0.2423 0.0
C2146 C 0.98081 0.67727 0.98197 0.0
C2147 C 0.98425 0.66041 0.9909 0.0
C2148 C 0.97517 0.68795 0.01565 0.0
C2149 C 0.97336 0.68206 0.05914 0.0
C2150 C 0.97778 0.6654 0.06812 0.0
C2151 C 0.98292 0.65468 0.0344 0.0
C2152 C 0.96547 0.69253 0.09454 0.0
C2153 C 0.95266 0.68532 0.11986 0.0
C2154 C 0.97006 0.70936 0.10327 0.0
C2155 C 0.98418 0.71753 0.08021 0.0
C2156 C 1.00011 0.71017 0.08015 0.0
C2157 C 0.01336 0.71794 0.05835 0.0
C2158 C 0.01086 0.73313 0.03674 0.0
C2159 C 0.99512 0.74061 0.03696 0.0
C2160 C 0.98182 0.73289 0.05866 0.0
C2161 C 0.93579 0.73502 0.26375 0.0
C2162 C 0.9183 0.73486 0.25985 0.0
C2163 C 0.94583 0.7284 0.22994 0.0
C2164 C 0.93849 0.72161 0.19182 0.0
C2165 C 0.92114 0.72288 0.1865 0.0
C2166 C 0.91118 0.72931 0.22017 0.0
C2167 C 0.94836 0.71132 0.16012 0.0
C2168 C 0.96133 0.71856 0.13563 0.0
C2169 C 0.94434 0.69432 0.15286 0.0
C2170 C 0.93169 0.68554 0.18002 0.0
C2171 C 0.91802 0.6776 0.15996 0.0
C2172 C 0.90598 0.66958 0.18566 0.0
C2173 C 0.90751 0.66937 0.23148 0.0
C2174 C 0.92113 0.6771 0.25168 0.0
C2175 C 0.93323 0.68509 0.22613 0.0
H2176 H 0.89815 0.66319 0.25131 0.0
H2177 H 0.02114 0.73913 0.01991 0.0
H2178 H 0.57463 0.73758 0.20795 0.0
H2179 H 0.55652 0.72944 0.26973 0.0
H2180 H 0.59866 0.73221 0.3578 0.0
H2181 H 0.61665 0.73976 0.29629 0.0
H2182 H 0.58589 0.70379 0.36697 0.0
H2183 H 0.56316 0.75825 0.37023 0.0
H2184 H 0.54972 0.78445 0.34692 0.0
H2185 H 0.50639 0.7572 0.30514 0.0
H2186 H 0.51952 0.7308 0.32864 0.0
H2187 H 0.53864 0.68538 0.56278 0.0
H2188 H 0.55036 0.70531 0.50932 0.0
H2189 H 0.52548 0.6793 0.4039 0.0
H2190 H 0.51435 0.65905 0.4568 0.0
H2191 H 0.52867 0.7213 0.4084 0.0
H2192 H 0.55727 0.66579 0.40008 0.0
H2193 H 0.57083 0.64218 0.43809 0.0
H2194 H 0.60471 0.67609 0.50145 0.0
H2195 H 0.59114 0.69991 0.46424 0.0
C2196 C 0.57986 0.7369 0.24077 0.0
C2197 C 0.59707 0.7392 0.24729 0.0
C2198 C 0.5695 0.73226 0.27619 0.0
C2199 C 0.57617 0.73001 0.31874 0.0
C2200 C 0.59314 0.73361 0.32546 0.0
C2201 C 0.60345 0.738 0.29023 0.0
C2202 C 0.56634 0.72178 0.35473 0.0
C2203 C 0.57348 0.70791 0.3761 0.0
C2204 C 0.55003 0.72685 0.3672 0.0
C2205 C 0.54245 0.74251 0.35053 0.0
C2206 C 0.55087 0.7578 0.35547 0.0
C2207 C 0.54326 0.77271 0.34248 0.0
C2208 C 0.52728 0.77248 0.32409 0.0
C2209 C 0.51882 0.75734 0.31901 0.0
C2210 C 0.52631 0.74241 0.33237 0.0
C2211 C 0.53528 0.68426 0.52837 0.0
C2212 C 0.52557 0.67072 0.51386 0.0
C2213 C 0.54199 0.69561 0.49788 0.0
C2214 C 0.53872 0.69382 0.45264 0.0
C2215 C 0.52803 0.68101 0.43862 0.0
C2216 C 0.52173 0.66943 0.46885 0.0
C2217 C 0.54833 0.70356 0.41952 0.0
C2218 C 0.54113 0.71748 0.39885 0.0
C2219 C 0.56476 0.6989 0.40829 0.0
C2220 C 0.57311 0.68459 0.42981 0.0
C2221 C 0.56753 0.6682 0.42238 0.0
C2222 C 0.57522 0.65479 0.44372 0.0
C2223 C 0.5886 0.65764 0.47227 0.0
C2224 C 0.59434 0.6739 0.4794 0.0
C2225 C 0.58665 0.68735 0.45819 0.0
H2226 H 0.59454 0.64725 0.48878 0.0
H2227 H 0.52141 0.78404 0.31414 0.0
H2228 H 0.55383 0.32425 0.44494 0.0
H2229 H 0.56446 0.31223 0.51285 0.0
H2230 H 0.51803 0.32382 0.57799 0.0
H2231 H 0.5078 0.33706 0.51012 0.0
H2232 H 0.53988 0.32814 0.63453 0.0
H2233 H 0.53114 0.28189 0.54186 0.0
H2234 H 0.53214 0.26396 0.47594 0.0
H2235 H 0.5855 0.26127 0.48569 0.0
H2236 H 0.58487 0.27941 0.55124 0.0
H2237 H 0.57177 0.27345 0.81111 0.0
H2238 H 0.55411 0.28233 0.74858 0.0
H2239 H 0.59816 0.29584 0.67559 0.0
H2240 H 0.61561 0.28749 0.7376 0.0
H2241 H 0.57296 0.27592 0.62797 0.0
H2242 H 0.57879 0.32523 0.72161 0.0
H2243 H 0.57496 0.3406 0.79121 0.0
H2244 H 0.52202 0.33305 0.78333 0.0
H2245 H 0.52557 0.31733 0.71404 0.0
C2246 C 0.54583 0.32422 0.47366 0.0
C2247 C 0.52988 0.33148 0.47185 0.0
C2248 C 0.55189 0.31715 0.51266 0.0
C2249 C 0.54195 0.31646 0.55082 0.0
C2250 C 0.52603 0.32397 0.54927 0.0
C2251 C 0.52012 0.33152 0.51036 0.0
C2252 C 0.54849 0.30829 0.59212 0.0
C2253 C 0.54676 0.31649 0.63293 0.0
C2254 C 0.55745 0.29295 0.59111 0.0
C2255 C 0.55796 0.28218 0.55129 0.0
C2256 C 0.54311 0.27761 0.52973 0.0
C2257 C 0.54361 0.26739 0.49245 0.0
C2258 C 0.55888 0.26152 0.47656 0.0
C2259 C 0.57368 0.26585 0.49798 0.0
C2260 C 0.57326 0.2761 0.53523 0.0
C2261 C 0.57762 0.27815 0.7815 0.0
C2262 C 0.59509 0.27981 0.77939 0.0
C2263 C 0.56754 0.28332 0.74593 0.0
C2264 C 0.5748 0.28988 0.70739 0.0
C2265 C 0.59224 0.29091 0.70489 0.0
C2266 C 0.60221 0.28613 0.74047 0.0
C2267 C 0.56456 0.29589 0.66936 0.0
C2268 C 0.56569 0.2873 0.62928 0.0
C2269 C 0.55456 0.31044 0.67145 0.0
C2270 C 0.55247 0.3199 0.713 0.0
C2271 C 0.56635 0.32667 0.73498 0.0
C2272 C 0.56423 0.33547 0.77432 0.0
C2273 C 0.54826 0.33773 0.79178 0.0
C2274 C 0.53438 0.33123 0.76985 0.0
C2275 C 0.53644 0.32237 0.73055 0.0
H2276 H 0.54664 0.34456 0.82222 0.0
H2277 H 0.55923 0.25359 0.44771 0.0
H2278 H 0.98022 0.30188 0.04935 0.0
H2279 H 0.96941 0.29234 0.9787 0.0
H2280 H 0.99433 0.33322 0.91371 0.0
H2281 H 0.00483 0.3431 0.98474 0.0
H2282 H 0.96528 0.33228 0.88414 0.0
H2283 H 0.00594 0.29039 0.89816 0.0
H2284 H 0.02297 0.26729 0.92755 0.0
H2285 H 0.9793 0.23669 0.93949 0.0
H2286 H 0.96195 0.25953 0.91023 0.0
H2287 H 0.93924 0.26936 0.69391 0.0
H2288 H 0.95872 0.277 0.75308 0.0
H2289 H 0.92067 0.30785 0.81213 0.0
H2290 H 0.90172 0.30106 0.75223 0.0
H2291 H 0.96147 0.27336 0.83487 0.0
H2292 H 0.93477 0.34032 0.8658 0.0
H2293 H 0.92237 0.36329 0.82276 0.0
H2294 H 0.94615 0.34495 0.70573 0.0
H2295 H 0.95888 0.32201 0.74815 0.0
C2296 C 0.98356 0.30879 0.02003 0.0
C2297 C 0.9933 0.32339 0.02302 0.0
C2298 C 0.97747 0.30319 0.97936 0.0
C2299 C 0.98108 0.31191 0.94034 0.0
C2300 C 0.99123 0.32623 0.94312 0.0
C2301 C 0.99725 0.33191 0.98389 0.0
C2302 C 0.97294 0.30701 0.89772 0.0
C2303 C 0.96458 0.31938 0.87342 0.0
C2304 C 0.97235 0.29026 0.88233 0.0
C2305 C 0.98258 0.2768 0.90245 0.0
C2306 C 0.9999 0.27885 0.90774 0.0
C2307 C 0.00963 0.26578 0.92429 0.0
C2308 C 0.00222 0.25061 0.93571 0.0
C2309 C 0.98503 0.24847 0.93075 0.0
C2310 C 0.97524 0.26146 0.91409 0.0
C2311 C 0.93512 0.27786 0.71943 0.0
C2312 C 0.91902 0.28482 0.71786 0.0
C2313 C 0.94625 0.28219 0.75339 0.0
C2314 C 0.94144 0.29341 0.78683 0.0
C2315 C 0.92506 0.29971 0.78611 0.0
C2316 C 0.91413 0.29571 0.75182 0.0
C2317 C 0.95328 0.29853 0.82271 0.0
C2318 C 0.96232 0.28625 0.84561 0.0
C2319 C 0.95512 0.31545 0.83579 0.0
C2320 C 0.94768 0.32937 0.81014 0.0
C2321 C 0.93743 0.34124 0.83093 0.0
C2322 C 0.93033 0.35424 0.80663 0.0
C2323 C 0.93344 0.35555 0.76152 0.0
C2324 C 0.94371 0.34389 0.74064 0.0
C2325 C 0.95086 0.33088 0.7648 0.0
H2326 H 0.92791 0.36562 0.74276 0.0
H2327 H 0.00981 0.24048 0.94817 0.0
H2328 H 0.07961 0.29991 0.67021 0.0
H2329 H 0.06832 0.31656 0.73087 0.0
H2330 H 0.11783 0.33472 0.76003 0.0
H2331 H 0.12895 0.31847 0.6987 0.0
H2332 H 0.07522 0.31037 0.81132 0.0
H2333 H 0.11671 0.37026 0.81916 0.0
H2334 H 0.12916 0.39066 0.76805 0.0
H2335 H 0.09179 0.37912 0.6715 0.0
H2336 H 0.07896 0.35883 0.72222 0.0
H2337 H 0.0813 0.33734 0.02799 0.0
H2338 H 0.09092 0.332 0.9527 0.0
H2339 H 0.05676 0.36923 0.90372 0.0
H2340 H 0.04715 0.3746 0.97894 0.0
H2341 H 0.088 0.36834 0.85843 0.0
H2342 H 0.04289 0.33276 0.90182 0.0
H2343 H 0.02815 0.31337 0.9514 0.0
H2344 H 0.06799 0.27787 0.93863 0.0
H2345 H 0.08312 0.29717 0.88951 0.0
C2346 C 0.08793 0.30785 0.68892 0.0
C2347 C 0.10511 0.30789 0.68012 0.0
C2348 C 0.08152 0.31733 0.72349 0.0
C2349 C 0.09223 0.32686 0.75006 0.0
C2350 C 0.10927 0.32771 0.73955 0.0
C2351 C 0.11564 0.31841 0.70454 0.0
C2352 C 0.08607 0.33394 0.79204 0.0
C2353 C 0.07791 0.32311 0.82128 0.0
C2354 C 0.08941 0.35059 0.80503 0.0
C2355 C 0.09695 0.36291 0.77443 0.0
C2356 C 0.11109 0.37213 0.78712 0.0
C2357 C 0.11823 0.38366 0.75818 0.0
C2358 C 0.1113 0.38615 0.71651 0.0
C2359 C 0.09718 0.37714 0.70372 0.0
C2360 C 0.08999 0.36559 0.73253 0.0
C2361 C 0.07626 0.34472 1.00128 0.0
C2362 C 0.06339 0.35623 0.00893 0.0
C2363 C 0.08166 0.34162 0.95841 0.0
C2364 C 0.07436 0.3501 0.92287 0.0
C2365 C 0.06249 0.36256 0.93081 0.0
C2366 C 0.05697 0.36554 0.97359 0.0
C2367 C 0.07769 0.3446 0.87743 0.0
C2368 C 0.08526 0.35569 0.84788 0.0
C2369 C 0.07344 0.3283 0.86356 0.0
C2370 C 0.06425 0.31652 0.89249 0.0
C2371 C 0.04858 0.32089 0.90988 0.0
C2372 C 0.04015 0.30991 0.93786 0.0
C2373 C 0.0472 0.29447 0.94845 0.0
C2374 C 0.0626 0.28989 0.93064 0.0
C2375 C 0.07111 0.30084 0.9027 0.0
H2376 H 0.04073 0.28607 0.97046 0.0
H2377 H 0.11685 0.39508 0.69416 0.0
H2378 H 0.42829 0.28114 0.77148 0.0
H2379 H 0.43575 0.29666 0.70569 0.0
H2380 H 0.40747 0.33902 0.75174 0.0
H2381 H 0.39939 0.32323 0.81762 0.0
H2382 H 0.40075 0.33118 0.66574 0.0
H2383 H 0.4488 0.34054 0.75341 0.0
H2384 H 0.47245 0.33366 0.80195 0.0
H2385 H 0.49408 0.3034 0.70023 0.0
H2386 H 0.47049 0.30989 0.65123 0.0
H2387 H 0.43932 0.37531 0.48139 0.0
H2388 H 0.42732 0.36708 0.55232 0.0
H2389 H 0.45011 0.3185 0.5398 0.0
H2390 H 0.46201 0.32663 0.46901 0.0
H2391 H 0.45937 0.33571 0.61502 0.0
H2392 H 0.4091 0.32215 0.53389 0.0
H2393 H 0.38543 0.32843 0.48476 0.0
H2394 H 0.36864 0.36656 0.57375 0.0
H2395 H 0.39235 0.36065 0.62316 0.0
C2396 C 0.42359 0.29373 0.76767 0.0
C2397 C 0.41317 0.30095 0.79955 0.0
C2398 C 0.42805 0.30265 0.73031 0.0
C2399 C 0.42236 0.31903 0.72427 0.0
C2400 C 0.41207 0.32641 0.75613 0.0
C2401 C 0.40757 0.31744 0.79374 0.0
C2402 C 0.42661 0.32788 0.68329 0.0
C2403 C 0.41358 0.33255 0.65497 0.0
C2404 C 0.44337 0.32944 0.6693 0.0
C2405 C 0.45771 0.32557 0.69873 0.0
C2406 C 0.45851 0.33229 0.74147 0.0
C2407 C 0.47194 0.32849 0.76906 0.0
C2408 C 0.48473 0.31806 0.75424 0.0
C2409 C 0.48416 0.31146 0.71171 0.0
C2410 C 0.47076 0.31522 0.68398 0.0
C2411 C 0.44129 0.36271 0.49318 0.0
C2412 C 0.45174 0.35163 0.47018 0.0
C2413 C 0.43451 0.35807 0.53368 0.0
C2414 C 0.43803 0.34228 0.55126 0.0
C2415 C 0.44743 0.33081 0.52679 0.0
C2416 C 0.4542 0.33544 0.48651 0.0
C2417 C 0.43353 0.33815 0.59693 0.0
C2418 C 0.44657 0.33457 0.62617 0.0
C2419 C 0.41685 0.33756 0.61163 0.0
C2420 C 0.40262 0.34111 0.58192 0.0
C2421 C 0.40045 0.33199 0.54276 0.0
C2422 C 0.38701 0.33546 0.51492 0.0
C2423 C 0.37557 0.34793 0.52605 0.0
C2424 C 0.37753 0.35693 0.56512 0.0
C2425 C 0.39096 0.35352 0.59307 0.0
H2426 H 0.36517 0.35059 0.50446 0.0
H2427 H 0.49509 0.3151 0.77568 0.0
H2428 H 0.47425 0.67109 0.51498 0.0
H2429 H 0.45768 0.67983 0.45301 0.0
H2430 H 0.41493 0.65402 0.50549 0.0
H2431 H 0.43139 0.64547 0.56962 0.0
H2432 H 0.42274 0.6471 0.4138 0.0
H2433 H 0.41188 0.69362 0.50691 0.0
H2434 H 0.41899 0.7158 0.56 0.0
H2435 H 0.45185 0.73822 0.46554 0.0
H2436 H 0.44509 0.71609 0.41191 0.0
H2437 H 0.38239 0.68538 0.22458 0.0
H2438 H 0.38854 0.67415 0.29796 0.0
H2439 H 0.4354 0.7007 0.29859 0.0
H2440 H 0.42919 0.71201 0.22581 0.0
H2441 H 0.41805 0.70678 0.37176 0.0
H2442 H 0.43308 0.65805 0.28509 0.0
H2443 H 0.42772 0.63527 0.23227 0.0
H2444 H 0.38832 0.61672 0.31452 0.0
H2445 H 0.39332 0.63954 0.36759 0.0
C2446 C 0.46127 0.6675 0.51458 0.0
C2447 C 0.45423 0.65758 0.54806 0.0
C2448 C 0.45181 0.67248 0.47862 0.0
C2449 C 0.43509 0.66766 0.47493 0.0
C2450 C 0.42785 0.65785 0.50797 0.0
C2451 C 0.43731 0.65296 0.5445 0.0
C2452 C 0.42572 0.67257 0.4352 0.0
C2453 C 0.42123 0.66014 0.40492 0.0
C2454 C 0.42407 0.68958 0.42367 0.0
C2455 C 0.42798 0.70315 0.45541 0.0
C2456 C 0.42067 0.70324 0.49748 0.0
C2457 C 0.42463 0.71582 0.52764 0.0
C2458 C 0.43586 0.72842 0.5161 0.0
C2459 C 0.44312 0.72848 0.47432 0.0
C2460 C 0.4392 0.71594 0.44399 0.0
C2461 C 0.39415 0.68847 0.24009 0.0
C2462 C 0.40532 0.69959 0.2198 0.0
C2463 C 0.39761 0.68213 0.282 0.0
C2464 C 0.41237 0.68669 0.30378 0.0
C2465 C 0.42385 0.69718 0.28256 0.0
C2466 C 0.42034 0.70358 0.24101 0.0
C2467 C 0.41576 0.68131 0.34948 0.0
C2468 C 0.41908 0.69373 0.38093 0.0
C2469 C 0.41642 0.6643 0.36188 0.0
C2470 C 0.41342 0.65062 0.32998 0.0
C2471 C 0.42317 0.6492 0.2917 0.0
C2472 C 0.42022 0.63627 0.26177 0.0
C2473 C 0.40764 0.6246 0.26995 0.0
C2474 C 0.39803 0.6258 0.30817 0.0
C2475 C 0.40092 0.63872 0.33819 0.0
H2476 H 0.40538 0.61459 0.24675 0.0
H2477 H 0.43894 0.73813 0.53952 0.0
H2478 H 0.12113 0.67666 0.29533 0.0
H2479 H 0.12061 0.66264 0.22362 0.0
H2480 H 0.09038 0.7026 0.17135 0.0
H2481 H 0.09105 0.71663 0.24243 0.0
H2482 H 0.09636 0.65002 0.17992 0.0
H2483 H 0.09692 0.70979 0.06663 0.0
H2484 H 0.11186 0.73665 0.06275 0.0
H2485 H 0.1514 0.71665 0.14212 0.0
H2486 H 0.13687 0.68956 0.14588 0.0
H2487 H 0.04207 0.64478 0.00863 0.0
H2488 H 0.05988 0.65101 0.07066 0.0
H2489 H 0.10206 0.65648 0.98361 0.0
H2490 H 0.08385 0.65114 0.92025 0.0
H2491 H 0.10192 0.68087 0.03913 0.0
H2492 H 0.09998 0.623 0.05639 0.0
H2493 H 0.08809 0.59461 0.05791 0.0
H2494 H 0.05725 0.60812 0.16778 0.0
H2495 H 0.06874 0.63666 0.16655 0.0
C2496 C 0.11437 0.68239 0.26848 0.0
C2497 C 0.10613 0.69773 0.27438 0.0
C2498 C 0.11419 0.67445 0.2275 0.0
C2499 C 0.10576 0.68174 0.19186 0.0
C2500 C 0.09742 0.69698 0.19793 0.0
C2501 C 0.0977 0.70495 0.23865 0.0
C2502 C 0.1043 0.67292 0.14918 0.0
C2503 C 0.09781 0.65665 0.14905 0.0
C2504 C 0.10697 0.68126 0.10874 0.0
C2505 C 0.11576 0.6976 0.10658 0.0
C2506 C 0.10886 0.71105 0.08298 0.0
C2507 C 0.11726 0.72633 0.08082 0.0
C2508 C 0.13259 0.72833 0.10207 0.0
C2509 C 0.13952 0.71508 0.12566 0.0
C2510 C 0.1312 0.69976 0.12786 0.0
C2511 C 0.05507 0.64745 0.00231 0.0
C2512 C 0.06146 0.6477 0.95925 0.0
C2513 C 0.06537 0.65068 0.03809 0.0
C2514 C 0.08241 0.65387 0.03195 0.0
C2515 C 0.08897 0.65389 0.98911 0.0
C2516 C 0.07857 0.65078 0.953 0.0
C2517 C 0.09272 0.65857 0.07045 0.0
C2518 C 0.10095 0.67403 0.06981 0.0
C2519 C 0.09217 0.64924 0.10999 0.0
C2520 C 0.08526 0.63201 0.11134 0.0
C2521 C 0.09061 0.61995 0.08077 0.0
C2522 C 0.08394 0.60382 0.08159 0.0
C2523 C 0.07193 0.59957 0.11293 0.0
C2524 C 0.06658 0.61143 0.14357 0.0
C2525 C 0.07321 0.62758 0.1429 0.0
H2526 H 0.06676 0.58708 0.11348 0.0
H2527 H 0.13907 0.74017 0.10033 0.0
loop_
_geom_bond_atom_site_label_1
_geom_bond_atom_site_label_2
_geom_bond_distance
_geom_bond_site_symmetry_2
_ccdc_geom_bond_type
C0 C1 1.351 . S
C0 N3 1.368 . S
C0 H5 0.931 . S
C1 C0 1.351 . S
C1 N2 1.373 . S
C1 H29 0.930 . S
N2 C1 1.373 . S
N2 C4 1.340 . S
N3 C0 1.368 . S
N3 C4 1.321 . S
N3 Co6 2.135 . S
C4 N2 1.340 . S
C4 N3 1.321 . S
C4 H28 0.930 . S
H5 C0 0.931 . S
Co6 N3 2.135 . S
Co6 N9 2.121 . S
Co6 O14 2.055 . S
Co6 O17 2.039 . S
Co6 N20 2.140 . S
C7 O8 1.227 . S
C7 O17 1.265 . S
O8 C7 1.227 . S
N9 Co6 2.121 . S
N9 C11 1.375 . S
N9 C12 1.313 . S
C10 C11 1.338 . S
C10 N13 1.377 . S
C10 H30 0.930 . S
C11 N9 1.375 . S
C11 C10 1.338 . S
C11 H15 0.931 . S
C12 N9 1.313 . S
C12 N13 1.344 . S
C12 H16 0.930 . S
N13 C10 1.377 . S
N13 C12 1.344 . S
O14 Co6 2.055 . S
O14 C18 1.253 . S
H15 C11 0.931 . S
H16 C12 0.930 . S
O17 Co6 2.039 . S
O17 C7 1.265 . S
C18 O14 1.253 . S
C18 O19 1.227 . S
O19 C18 1.227 . S
N20 Co6 2.140 . S
N20 C23 1.346 . S
N20 C24 1.345 . S
C21 C22 1.387 . S
C21 C25 1.391 . S
C22 C21 1.387 . S
C22 C23 1.369 . S
C22 H31 0.929 . S
C23 N20 1.346 . S
C23 C22 1.369 . S
C23 H26 0.928 . S
C24 N20 1.345 . S
C24 C25 1.371 . S
C24 H27 0.931 . S
C25 C21 1.391 . S
C25 C24 1.371 . S
C25 H32 0.930 . S
H26 C23 0.928 . S
H27 C24 0.931 . S
H28 C4 0.930 . S
H29 C1 0.930 . S
H30 C10 0.930 . S
H31 C22 0.929 . S
H32 C25 0.930 . S
C33 C34 1.351 . S
C33 N36 1.368 . S
C33 H38 0.931 . S
C34 C33 1.351 . S
C34 N35 1.373 . S
C34 H62 0.930 . S
N35 C34 1.373 . S
N35 C37 1.340 . S
N36 C33 1.368 . S
N36 C37 1.321 . S
N36 Co39 2.135 . S
C37 N35 1.340 . S
C37 N36 1.321 . S
C37 H61 0.930 . S
H38 C33 0.931 . S
Co39 N36 2.135 . S
Co39 N42 2.121 . S
Co39 O47 2.055 . S
Co39 O50 2.039 . S
Co39 N53 2.140 . S
C40 O41 1.227 . S
C40 O50 1.265 . S
O41 C40 1.227 . S
N42 Co39 2.121 . S
N42 C44 1.375 . S
N42 C45 1.313 . S
C43 C44 1.338 . S
C43 N46 1.377 . S
C43 H63 0.930 . S
C44 N42 1.375 . S
C44 C43 1.338 . S
C44 H48 0.931 . S
C45 N42 1.313 . S
C45 N46 1.344 . S
C45 H49 0.930 . S
N46 C43 1.377 . S
N46 C45 1.344 . S
O47 Co39 2.055 . S
O47 C51 1.253 . S
H48 C44 0.931 . S
H49 C45 0.930 . S
O50 Co39 2.039 . S
O50 C40 1.265 . S
C51 O47 1.253 . S
C51 O52 1.227 . S
O52 C51 1.227 . S
N53 Co39 2.140 . S
N53 C56 1.346 . S
N53 C57 1.345 . S
C54 C55 1.387 . S
C54 C58 1.391 . S
C55 C54 1.387 . S
C55 C56 1.369 . S
C55 H64 0.929 . S
C56 N53 1.346 . S
C56 C55 1.369 . S
C56 H59 0.928 . S
C57 N53 1.345 . S
C57 C58 1.371 . S
C57 H60 0.931 . S
C58 C54 1.391 . S
C58 C57 1.371 . S
C58 H65 0.930 . S
H59 C56 0.928 . S
H60 C57 0.931 . S
H61 C37 0.930 . S
H62 C34 0.930 . S
H63 C43 0.930 . S
H64 C55 0.929 . S
H65 C58 0.930 . S
C66 C67 1.351 . S
C66 N69 1.368 . S
C66 H71 0.931 . S
C67 C66 1.351 . S
C67 N68 1.373 . S
C67 H95 0.930 . S
N68 C67 1.373 . S
N68 C70 1.340 . S
N69 C66 1.368 . S
N69 C70 1.321 . S
N69 Co72 2.135 1_655 S
C70 N68 1.340 . S
C70 N69 1.321 . S
C70 H94 0.930 . S
H71 C66 0.931 . S
Co72 N69 2.135 1_455 S
Co72 N75 2.121 . S
Co72 O80 2.055 1_455 S
Co72 O83 2.039 . S
Co72 N86 2.140 . S
C73 O74 1.227 . S
C73 O83 1.265 . S
O74 C73 1.227 . S
N75 Co72 2.121 . S
N75 C77 1.375 . S
N75 C78 1.313 . S
C76 C77 1.338 . S
C76 N79 1.377 . S
C76 H96 0.930 . S
C77 N75 1.375 . S
C77 C76 1.338 . S
C77 H81 0.931 . S
C78 N75 1.313 . S
C78 N79 1.344 . S
C78 H82 0.930 . S
N79 C76 1.377 . S
N79 C78 1.344 . S
O80 Co72 2.055 1_655 S
O80 C84 1.253 . S
H81 C77 0.931 . S
H82 C78 0.930 . S
O83 Co72 2.039 . S
O83 C73 1.265 . S
C84 O80 1.253 . S
C84 O85 1.227 . S
O85 C84 1.227 . S
N86 Co72 2.140 . S
N86 C89 1.346 . S
N86 C90 1.345 . S
C87 C88 1.387 . S
C87 C91 1.391 . S
C88 C87 1.387 . S
C88 C89 1.369 . S
C88 H97 0.929 . S
C89 N86 1.346 . S
C89 C88 1.369 . S
C89 H92 0.928 . S
C90 N86 1.345 . S
C90 C91 1.371 . S
C90 H93 0.931 . S
C91 C87 1.391 . S
C91 C90 1.371 . S
C91 H98 0.930 . S
H92 C89 0.928 . S
H93 C90 0.931 . S
H94 C70 0.930 . S
H95 C67 0.930 . S
H96 C76 0.930 . S
H97 C88 0.929 . S
H98 C91 0.930 . S
C99 C100 1.351 . S
C99 N102 1.368 . S
C99 H104 0.931 . S
C100 C99 1.351 . S
C100 N101 1.373 . S
C100 H128 0.930 . S
N101 C100 1.373 . S
N101 C103 1.340 . S
N102 C99 1.368 . S
N102 C103 1.321 . S
N102 Co105 2.135 . S
C103 N101 1.340 . S
C103 N102 1.321 . S
C103 H127 0.930 . S
H104 C99 0.931 . S
Co105 N102 2.135 . S
Co105 N108 2.121 . S
Co105 O113 2.055 . S
Co105 O116 2.039 . S
Co105 N119 2.140 . S
C106 O107 1.227 . S
C106 O116 1.265 . S
O107 C106 1.227 . S
N108 Co105 2.121 . S
N108 C110 1.375 . S
N108 C111 1.313 . S
C109 C110 1.338 . S
C109 N112 1.377 . S
C109 H129 0.930 . S
C110 N108 1.375 . S
C110 C109 1.338 . S
C110 H114 0.931 . S
C111 N108 1.313 . S
C111 N112 1.344 . S
C111 H115 0.930 . S
N112 C109 1.377 . S
N112 C111 1.344 . S
O113 Co105 2.055 . S
O113 C117 1.253 . S
H114 C110 0.931 . S
H115 C111 0.930 . S
O116 Co105 2.039 . S
O116 C106 1.265 . S
C117 O113 1.253 . S
C117 O118 1.227 . S
O118 C117 1.227 . S
N119 Co105 2.140 . S
N119 C122 1.346 . S
N119 C123 1.345 . S
C120 C121 1.387 . S
C120 C124 1.391 . S
C121 C120 1.387 . S
C121 C122 1.369 . S
C121 H130 0.929 . S
C122 N119 1.346 . S
C122 C121 1.369 . S
C122 H125 0.928 . S
C123 N119 1.345 . S
C123 C124 1.371 . S
C123 H126 0.931 . S
C124 C120 1.391 . S
C124 C123 1.371 . S
C124 H131 0.930 . S
H125 C122 0.928 . S
H126 C123 0.931 . S
H127 C103 0.930 . S
H128 C100 0.930 . S
H129 C109 0.930 . S
H130 C121 0.929 . S
H131 C124 0.930 . S
C132 C133 1.351 . S
C132 N135 1.368 . S
C132 H137 0.931 . S
C133 C132 1.351 . S
C133 N134 1.373 . S
C133 H161 0.930 . S
N134 C133 1.373 . S
N134 C136 1.340 . S
N135 C132 1.368 . S
N135 C136 1.321 . S
N135 Co138 2.135 . S
C136 N134 1.340 . S
C136 N135 1.321 . S
C136 H160 0.930 . S
H137 C132 0.931 . S
Co138 N135 2.135 . S
Co138 N141 2.121 . S
Co138 O146 2.055 . S
Co138 O149 2.039 . S
Co138 N152 2.140 . S
C139 O140 1.227 . S
C139 O149 1.265 . S
O140 C139 1.227 . S
N141 Co138 2.121 . S
N141 C143 1.375 . S
N141 C144 1.313 . S
C142 C143 1.338 . S
C142 N145 1.377 . S
C142 H162 0.930 . S
C143 N141 1.375 . S
C143 C142 1.338 . S
C143 H147 0.931 . S
C144 N141 1.313 . S
C144 N145 1.344 . S
C144 H148 0.930 . S
N145 C142 1.377 . S
N145 C144 1.344 . S
O146 Co138 2.055 . S
O146 C150 1.253 . S
H147 C143 0.931 . S
H148 C144 0.930 . S
O149 Co138 2.039 . S
O149 C139 1.265 . S
C150 O146 1.253 . S
C150 O151 1.227 . S
O151 C150 1.227 . S
N152 Co138 2.140 . S
N152 C155 1.346 . S
N152 C156 1.345 . S
C153 C154 1.387 . S
C153 C157 1.391 . S
C154 C153 1.387 . S
C154 C155 1.369 . S
C154 H163 0.929 . S
C155 N152 1.346 . S
C155 C154 1.369 . S
C155 H158 0.928 . S
C156 N152 1.345 . S
C156 C157 1.371 . S
C156 H159 0.931 . S
C157 C153 1.391 . S
C157 C156 1.371 . S
C157 H164 0.930 . S
H158 C155 0.928 . S
H159 C156 0.931 . S
H160 C136 0.930 . S
H161 C133 0.930 . S
H162 C142 0.930 . S
H163 C154 0.929 . S
H164 C157 0.930 . S
C165 C166 1.351 . S
C165 N168 1.368 . S
C165 H170 0.931 . S
C166 C165 1.351 . S
C166 N167 1.373 . S
C166 H194 0.930 . S
N167 C166 1.373 . S
N167 C169 1.340 . S
N168 C165 1.368 . S
N168 C169 1.321 . S
N168 Co171 2.135 . S
C169 N167 1.340 . S
C169 N168 1.321 . S
C169 H193 0.930 . S
H170 C165 0.931 . S
Co171 N168 2.135 . S
Co171 N174 2.121 . S
Co171 O179 2.055 . S
Co171 O182 2.039 . S
Co171 N185 2.140 . S
C172 O173 1.227 . S
C172 O182 1.265 . S
O173 C172 1.227 . S
N174 Co171 2.121 . S
N174 C176 1.375 . S
N174 C177 1.313 . S
C175 C176 1.338 . S
C175 N178 1.377 . S
C175 H195 0.930 . S
C176 N174 1.375 . S
C176 C175 1.338 . S
C176 H180 0.931 . S
C177 N174 1.313 . S
C177 N178 1.344 . S
C177 H181 0.930 . S
N178 C175 1.377 . S
N178 C177 1.344 . S
O179 Co171 2.055 . S
O179 C183 1.253 . S
H180 C176 0.931 . S
H181 C177 0.930 . S
O182 Co171 2.039 . S
O182 C172 1.265 . S
C183 O179 1.253 . S
C183 O184 1.227 . S
O184 C183 1.227 . S
N185 Co171 2.140 . S
N185 C188 1.346 . S
N185 C189 1.345 . S
C186 C187 1.387 . S
C186 C190 1.391 . S
C187 C186 1.387 . S
C187 C188 1.369 . S
C187 H196 0.929 . S
C188 N185 1.346 . S
C188 C187 1.369 . S
C188 H191 0.928 . S
C189 N185 1.345 . S
C189 C190 1.371 . S
C189 H192 0.931 . S
C190 C186 1.391 . S
C190 C189 1.371 . S
C190 H197 0.930 . S
H191 C188 0.928 . S
H192 C189 0.931 . S
H193 C169 0.930 . S
H194 C166 0.930 . S
H195 C175 0.930 . S
H196 C187 0.929 . S
H197 C190 0.930 . S
C198 C199 1.351 . S
C198 N201 1.368 . S
C198 H203 0.931 . S
C199 C198 1.351 . S
C199 N200 1.373 . S
C199 H227 0.930 . S
N200 C199 1.373 . S
N200 C202 1.340 . S
N201 C198 1.368 . S
N201 C202 1.321 . S
N201 Co204 2.135 1_655 S
C202 N200 1.340 . S
C202 N201 1.321 . S
C202 H226 0.930 . S
H203 C198 0.931 . S
Co204 N201 2.135 1_455 S
Co204 N207 2.121 . S
Co204 O212 2.055 1_455 S
Co204 O215 2.039 . S
Co204 N218 2.140 . S
C205 O206 1.227 . S
C205 O215 1.265 . S
O206 C205 1.227 . S
N207 Co204 2.121 . S
N207 C209 1.375 . S
N207 C210 1.313 . S
C208 C209 1.338 . S
C208 N211 1.377 . S
C208 H228 0.930 . S
C209 N207 1.375 . S
C209 C208 1.338 . S
C209 H213 0.931 . S
C210 N207 1.313 . S
C210 N211 1.344 . S
C210 H214 0.930 . S
N211 C208 1.377 . S
N211 C210 1.344 . S
O212 Co204 2.055 1_655 S
O212 C216 1.253 . S
H213 C209 0.931 . S
H214 C210 0.930 . S
O215 Co204 2.039 . S
O215 C205 1.265 . S
C216 O212 1.253 . S
C216 O217 1.227 . S
O217 C216 1.227 . S
N218 Co204 2.140 . S
N218 C221 1.346 . S
N218 C222 1.345 . S
C219 C220 1.387 . S
C219 C223 1.391 . S
C220 C219 1.387 . S
C220 C221 1.369 . S
C220 H229 0.929 . S
C221 N218 1.346 . S
C221 C220 1.369 . S
C221 H224 0.928 . S
C222 N218 1.345 . S
C222 C223 1.371 . S
C222 H225 0.931 . S
C223 C219 1.391 . S
C223 C222 1.371 . S
C223 H230 0.930 . S
H224 C221 0.928 . S
H225 C222 0.931 . S
H226 C202 0.930 . S
H227 C199 0.930 . S
H228 C208 0.930 . S
H229 C220 0.929 . S
H230 C223 0.930 . S
C231 C232 1.351 . S
C231 N234 1.368 . S
C231 H236 0.931 . S
C232 C231 1.351 . S
C232 N233 1.373 . S
C232 H260 0.930 . S
N233 C232 1.373 . S
N233 C235 1.340 . S
N234 C231 1.368 . S
N234 C235 1.321 . S
N234 Co237 2.135 . S
C235 N233 1.340 . S
C235 N234 1.321 . S
C235 H259 0.930 . S
H236 C231 0.931 . S
Co237 N234 2.135 . S
Co237 N240 2.121 . S
Co237 O245 2.055 . S
Co237 O248 2.039 . S
Co237 N251 2.140 . S
C238 O239 1.227 . S
C238 O248 1.265 . S
O239 C238 1.227 . S
N240 Co237 2.121 . S
N240 C242 1.375 . S
N240 C243 1.313 . S
C241 C242 1.338 . S
C241 N244 1.377 . S
C241 H261 0.930 . S
C242 N240 1.375 . S
C242 C241 1.338 . S
C242 H246 0.931 . S
C243 N240 1.313 . S
C243 N244 1.344 . S
C243 H247 0.930 . S
N244 C241 1.377 . S
N244 C243 1.344 . S
O245 Co237 2.055 . S
O245 C249 1.253 . S
H246 C242 0.931 . S
H247 C243 0.930 . S
O248 Co237 2.039 . S
O248 C238 1.265 . S
C249 O245 1.253 . S
C249 O250 1.227 . S
O250 C249 1.227 . S
N251 Co237 2.140 . S
N251 C254 1.346 . S
N251 C255 1.345 . S
C252 C253 1.387 . S
C252 C256 1.391 . S
C253 C252 1.387 . S
C253 C254 1.369 . S
C253 H262 0.929 . S
C254 N251 1.346 . S
C254 C253 1.369 . S
C254 H257 0.928 . S
C255 N251 1.345 . S
C255 C256 1.371 . S
C255 H258 0.931 . S
C256 C252 1.391 . S
C256 C255 1.371 . S
C256 H263 0.930 . S
H257 C254 0.928 . S
H258 C255 0.931 . S
H259 C235 0.930 . S
H260 C232 0.930 . S
H261 C241 0.930 . S
H262 C253 0.929 . S
H263 C256 0.930 . S
C264 C265 1.351 . S
C264 N267 1.368 . S
C264 H269 0.931 . S
C265 C264 1.351 . S
C265 N266 1.373 . S
C265 H293 0.930 . S
N266 C265 1.373 . S
N266 C268 1.340 . S
N267 C264 1.368 . S
N267 C268 1.321 . S
N267 Co270 2.135 . S
C268 N266 1.340 . S
C268 N267 1.321 . S
C268 H292 0.930 . S
H269 C264 0.931 . S
Co270 N267 2.135 . S
Co270 N273 2.121 . S
Co270 O278 2.055 . S
Co270 O281 2.039 . S
Co270 N284 2.140 . S
C271 O272 1.227 . S
C271 O281 1.265 . S
O272 C271 1.227 . S
N273 Co270 2.121 . S
N273 C275 1.375 . S
N273 C276 1.313 . S
C274 C275 1.338 . S
C274 N277 1.377 . S
C274 H294 0.930 . S
C275 N273 1.375 . S
C275 C274 1.338 . S
C275 H279 0.931 . S
C276 N273 1.313 . S
C276 N277 1.344 . S
C276 H280 0.930 . S
N277 C274 1.377 . S
N277 C276 1.344 . S
O278 Co270 2.055 . S
O278 C282 1.253 . S
H279 C275 0.931 . S
H280 C276 0.930 . S
O281 Co270 2.039 . S
O281 C271 1.265 . S
C282 O278 1.253 . S
C282 O283 1.227 . S
O283 C282 1.227 . S
N284 Co270 2.140 . S
N284 C287 1.346 . S
N284 C288 1.345 . S
C285 C286 1.387 . S
C285 C289 1.391 . S
C286 C285 1.387 . S
C286 C287 1.369 . S
C286 H295 0.929 . S
C287 N284 1.346 . S
C287 C286 1.369 . S
C287 H290 0.928 . S
C288 N284 1.345 . S
C288 C289 1.371 . S
C288 H291 0.931 . S
C289 C285 1.391 . S
C289 C288 1.371 . S
C289 H296 0.930 . S
H290 C287 0.928 . S
H291 C288 0.931 . S
H292 C268 0.930 . S
H293 C265 0.930 . S
H294 C274 0.930 . S
H295 C286 0.929 . S
H296 C289 0.930 . S
C297 C298 1.351 . S
C297 N300 1.368 . S
C297 H302 0.931 . S
C298 C297 1.351 . S
C298 N299 1.373 . S
C298 H326 0.930 . S
N299 C298 1.373 . S
N299 C301 1.340 . S
N300 C297 1.368 . S
N300 C301 1.321 . S
N300 Co303 2.135 . S
C301 N299 1.340 . S
C301 N300 1.321 . S
C301 H325 0.930 . S
H302 C297 0.931 . S
Co303 N300 2.135 . S
Co303 N306 2.121 . S
Co303 O311 2.055 . S
Co303 O314 2.039 . S
Co303 N317 2.140 . S
C304 O305 1.227 . S
C304 O314 1.265 . S
O305 C304 1.227 . S
N306 Co303 2.121 . S
N306 C308 1.375 . S
N306 C309 1.313 . S
C307 C308 1.338 . S
C307 N310 1.377 . S
C307 H327 0.930 . S
C308 N306 1.375 . S
C308 C307 1.338 . S
C308 H312 0.931 . S
C309 N306 1.313 . S
C309 N310 1.344 . S
C309 H313 0.930 . S
N310 C307 1.377 . S
N310 C309 1.344 . S
O311 Co303 2.055 . S
O311 C315 1.253 . S
H312 C308 0.931 . S
H313 C309 0.930 . S
O314 Co303 2.039 . S
O314 C304 1.265 . S
C315 O311 1.253 . S
C315 O316 1.227 . S
O316 C315 1.227 . S
N317 Co303 2.140 . S
N317 C320 1.346 . S
N317 C321 1.345 . S
C318 C319 1.387 . S
C318 C322 1.391 . S
C319 C318 1.387 . S
C319 C320 1.369 . S
C319 H328 0.929 . S
C320 N317 1.346 . S
C320 C319 1.369 . S
C320 H323 0.928 . S
C321 N317 1.345 . S
C321 C322 1.371 . S
C321 H324 0.931 . S
C322 C318 1.391 . S
C322 C321 1.371 . S
C322 H329 0.930 . S
H323 C320 0.928 . S
H324 C321 0.931 . S
H325 C301 0.930 . S
H326 C298 0.930 . S
H327 C307 0.930 . S
H328 C319 0.929 . S
H329 C322 0.930 . S
C330 C331 1.351 . S
C330 N333 1.368 . S
C330 H335 0.931 . S
C331 C330 1.351 . S
C331 N332 1.373 . S
C331 H359 0.930 . S
N332 C331 1.373 . S
N332 C334 1.340 . S
N333 C330 1.368 . S
N333 C334 1.321 . S
N333 Co336 2.135 . S
C334 N332 1.340 . S
C334 N333 1.321 . S
C334 H358 0.930 . S
H335 C330 0.931 . S
Co336 N333 2.135 . S
Co336 N339 2.121 . S
Co336 O344 2.055 . S
Co336 O347 2.039 . S
Co336 N350 2.140 . S
C337 O338 1.227 . S
C337 O347 1.265 . S
O338 C337 1.227 . S
N339 Co336 2.121 . S
N339 C341 1.375 . S
N339 C342 1.313 . S
C340 C341 1.338 . S
C340 N343 1.377 . S
C340 H360 0.930 . S
C341 N339 1.375 . S
C341 C340 1.338 . S
C341 H345 0.931 . S
C342 N339 1.313 . S
C342 N343 1.344 . S
C342 H346 0.930 . S
N343 C340 1.377 . S
N343 C342 1.344 . S
O344 Co336 2.055 . S
O344 C348 1.253 . S
H345 C341 0.931 . S
H346 C342 0.930 . S
O347 Co336 2.039 . S
O347 C337 1.265 . S
C348 O344 1.253 . S
C348 O349 1.227 . S
O349 C348 1.227 . S
N350 Co336 2.140 . S
N350 C353 1.346 . S
N350 C354 1.345 . S
C351 C352 1.387 . S
C351 C355 1.391 . S
C352 C351 1.387 . S
C352 C353 1.369 . S
C352 H361 0.929 . S
C353 N350 1.346 . S
C353 C352 1.369 . S
C353 H356 0.928 . S
C354 N350 1.345 . S
C354 C355 1.371 . S
C354 H357 0.931 . S
C355 C351 1.391 . S
C355 C354 1.371 . S
C355 H362 0.930 . S
H356 C353 0.928 . S
H357 C354 0.931 . S
H358 C334 0.930 . S
H359 C331 0.930 . S
H360 C340 0.930 . S
H361 C352 0.929 . S
H362 C355 0.930 . S
C363 C364 1.351 . S
C363 N366 1.368 . S
C363 H368 0.931 . S
C364 C363 1.351 . S
C364 N365 1.373 . S
C364 H392 0.930 . S
N365 C364 1.373 . S
N365 C367 1.340 . S
N366 C363 1.368 . S
N366 C367 1.321 . S
N366 Co369 2.135 . S
C367 N365 1.340 . S
C367 N366 1.321 . S
C367 H391 0.930 . S
H368 C363 0.931 . S
Co369 N366 2.135 . S
Co369 N372 2.121 . S
Co369 O377 2.055 . S
Co369 O380 2.039 . S
Co369 N383 2.140 . S
C370 O371 1.227 . S
C370 O380 1.265 . S
O371 C370 1.227 . S
N372 Co369 2.121 . S
N372 C374 1.375 . S
N372 C375 1.313 . S
C373 C374 1.338 . S
C373 N376 1.377 . S
C373 H393 0.930 . S
C374 N372 1.375 . S
C374 C373 1.338 . S
C374 H378 0.931 . S
C375 N372 1.313 . S
C375 N376 1.344 . S
C375 H379 0.930 . S
N376 C373 1.377 . S
N376 C375 1.344 . S
O377 Co369 2.055 . S
O377 C381 1.253 . S
H378 C374 0.931 . S
H379 C375 0.930 . S
O380 Co369 2.039 . S
O380 C370 1.265 . S
C381 O377 1.253 . S
C381 O382 1.227 . S
O382 C381 1.227 . S
N383 Co369 2.140 . S
N383 C386 1.346 . S
N383 C387 1.345 . S
C384 C385 1.387 . S
C384 C388 1.391 . S
C385 C384 1.387 . S
C385 C386 1.369 . S
C385 H394 0.929 . S
C386 N383 1.346 . S
C386 C385 1.369 . S
C386 H389 0.928 . S
C387 N383 1.345 . S
C387 C388 1.371 . S
C387 H390 0.931 . S
C388 C384 1.391 . S
C388 C387 1.371 . S
C388 H395 0.930 . S
H389 C386 0.928 . S
H390 C387 0.931 . S
H391 C367 0.930 . S
H392 C364 0.930 . S
H393 C373 0.930 . S
H394 C385 0.929 . S
H395 C388 0.930 . S
C396 C397 1.351 . S
C396 N399 1.368 . S
C396 H401 0.931 . S
C397 C396 1.351 . S
C397 N398 1.373 . S
C397 H425 0.930 . S
N398 C397 1.373 . S
N398 C400 1.340 . S
N399 C396 1.368 . S
N399 C400 1.321 . S
N399 Co402 2.135 . S
C400 N398 1.340 . S
C400 N399 1.321 . S
C400 H424 0.930 . S
H401 C396 0.931 . S
Co402 N399 2.135 . S
Co402 N405 2.121 1_455 S
Co402 O410 2.055 . S
Co402 O413 2.039 1_455 S
Co402 N416 2.140 . S
C403 O404 1.227 . S
C403 O413 1.265 . S
O404 C403 1.227 . S
N405 Co402 2.121 1_655 S
N405 C407 1.375 . S
N405 C408 1.313 . S
C406 C407 1.338 . S
C406 N409 1.377 . S
C406 H426 0.930 . S
C407 N405 1.375 . S
C407 C406 1.338 . S
C407 H411 0.931 . S
C408 N405 1.313 . S
C408 N409 1.344 . S
C408 H412 0.930 . S
N409 C406 1.377 . S
N409 C408 1.344 . S
O410 Co402 2.055 . S
O410 C414 1.253 . S
H411 C407 0.931 . S
H412 C408 0.930 . S
O413 Co402 2.039 1_655 S
O413 C403 1.265 . S
C414 O410 1.253 . S
C414 O415 1.227 . S
O415 C414 1.227 . S
N416 Co402 2.140 . S
N416 C419 1.346 . S
N416 C420 1.345 . S
C417 C418 1.387 . S
C417 C421 1.391 . S
C418 C417 1.387 . S
C418 C419 1.369 . S
C418 H427 0.929 . S
C419 N416 1.346 . S
C419 C418 1.369 . S
C419 H422 0.928 . S
C420 N416 1.345 . S
C420 C421 1.371 . S
C420 H423 0.931 . S
C421 C417 1.391 . S
C421 C420 1.371 . S
C421 H428 0.930 . S
H422 C419 0.928 . S
H423 C420 0.931 . S
H424 C400 0.930 . S
H425 C397 0.930 . S
H426 C406 0.930 . S
H427 C418 0.929 . S
H428 C421 0.930 . S
C429 C430 1.351 . S
C429 N432 1.368 . S
C429 H434 0.931 . S
C430 C429 1.351 . S
C430 N431 1.373 . S
C430 H458 0.930 . S
N431 C430 1.373 . S
N431 C433 1.340 . S
N432 C429 1.368 . S
N432 C433 1.321 . S
N432 Co435 2.135 . S
C433 N431 1.340 . S
C433 N432 1.321 . S
C433 H457 0.930 . S
H434 C429 0.931 . S
Co435 N432 2.135 . S
Co435 N438 2.121 . S
Co435 O443 2.055 . S
Co435 O446 2.039 . S
Co435 N449 2.140 . S
C436 O437 1.227 . S
C436 O446 1.265 . S
O437 C436 1.227 . S
N438 Co435 2.121 . S
N438 C440 1.375 . S
N438 C441 1.313 . S
C439 C440 1.338 . S
C439 N442 1.377 . S
C439 H459 0.930 . S
C440 N438 1.375 . S
C440 C439 1.338 . S
C440 H444 0.931 . S
C441 N438 1.313 . S
C441 N442 1.344 . S
C441 H445 0.930 . S
N442 C439 1.377 . S
N442 C441 1.344 . S
O443 Co435 2.055 . S
O443 C447 1.253 . S
H444 C440 0.931 . S
H445 C441 0.930 . S
O446 Co435 2.039 . S
O446 C436 1.265 . S
C447 O443 1.253 . S
C447 O448 1.227 . S
O448 C447 1.227 . S
N449 Co435 2.140 . S
N449 C452 1.346 . S
N449 C453 1.345 . S
C450 C451 1.387 . S
C450 C454 1.391 . S
C451 C450 1.387 . S
C451 C452 1.369 . S
C451 H460 0.929 . S
C452 N449 1.346 . S
C452 C451 1.369 . S
C452 H455 0.928 . S
C453 N449 1.345 . S
C453 C454 1.371 . S
C453 H456 0.931 . S
C454 C450 1.391 . S
C454 C453 1.371 . S
C454 H461 0.930 . S
H455 C452 0.928 . S
H456 C453 0.931 . S
H457 C433 0.930 . S
H458 C430 0.930 . S
H459 C439 0.930 . S
H460 C451 0.929 . S
H461 C454 0.930 . S
C462 C463 1.351 . S
C462 N465 1.368 . S
C462 H467 0.931 . S
C463 C462 1.351 . S
C463 N464 1.373 . S
C463 H491 0.930 . S
N464 C463 1.373 . S
N464 C466 1.340 . S
N465 C462 1.368 . S
N465 C466 1.321 . S
N465 Co468 2.135 . S
C466 N464 1.340 . S
C466 N465 1.321 . S
C466 H490 0.930 . S
H467 C462 0.931 . S
Co468 N465 2.135 . S
Co468 N471 2.121 1_455 S
Co468 O476 2.055 . S
Co468 O479 2.039 1_455 S
Co468 N482 2.140 . S
C469 O470 1.227 . S
C469 O479 1.265 . S
O470 C469 1.227 . S
N471 Co468 2.121 1_655 S
N471 C473 1.375 . S
N471 C474 1.313 . S
C472 C473 1.338 . S
C472 N475 1.377 . S
C472 H492 0.930 . S
C473 N471 1.375 . S
C473 C472 1.338 . S
C473 H477 0.931 . S
C474 N471 1.313 . S
C474 N475 1.344 . S
C474 H478 0.930 . S
N475 C472 1.377 . S
N475 C474 1.344 . S
O476 Co468 2.055 . S
O476 C480 1.253 . S
H477 C473 0.931 . S
H478 C474 0.930 . S
O479 Co468 2.039 1_655 S
O479 C469 1.265 . S
C480 O476 1.253 . S
C480 O481 1.227 . S
O481 C480 1.227 . S
N482 Co468 2.140 . S
N482 C485 1.346 . S
N482 C486 1.345 . S
C483 C484 1.387 . S
C483 C487 1.391 . S
C484 C483 1.387 . S
C484 C485 1.369 . S
C484 H493 0.929 . S
C485 N482 1.346 . S
C485 C484 1.369 . S
C485 H488 0.928 . S
C486 N482 1.345 . S
C486 C487 1.371 . S
C486 H489 0.931 . S
C487 C483 1.391 . S
C487 C486 1.371 . S
C487 H494 0.930 . S
H488 C485 0.928 . S
H489 C486 0.931 . S
H490 C466 0.930 . S
H491 C463 0.930 . S
H492 C472 0.930 . S
H493 C484 0.929 . S
H494 C487 0.930 . S
C495 C496 1.351 . S
C495 N498 1.368 . S
C495 H500 0.931 . S
C496 C495 1.351 . S
C496 N497 1.373 . S
C496 H524 0.930 . S
N497 C496 1.373 . S
N497 C499 1.340 . S
N498 C495 1.368 . S
N498 C499 1.321 . S
N498 Co501 2.135 . S
C499 N497 1.340 . S
C499 N498 1.321 . S
C499 H523 0.930 . S
H500 C495 0.931 . S
Co501 N498 2.135 . S
Co501 N504 2.121 . S
Co501 O509 2.055 . S
Co501 O512 2.039 . S
Co501 N515 2.140 . S
C502 O503 1.227 . S
C502 O512 1.265 . S
O503 C502 1.227 . S
N504 Co501 2.121 . S
N504 C506 1.375 . S
N504 C507 1.313 . S
C505 C506 1.338 . S
C505 N508 1.377 . S
C505 H525 0.930 . S
C506 N504 1.375 . S
C506 C505 1.338 . S
C506 H510 0.931 . S
C507 N504 1.313 . S
C507 N508 1.344 . S
C507 H511 0.930 . S
N508 C505 1.377 . S
N508 C507 1.344 . S
O509 Co501 2.055 . S
O509 C513 1.253 . S
H510 C506 0.931 . S
H511 C507 0.930 . S
O512 Co501 2.039 . S
O512 C502 1.265 . S
C513 O509 1.253 . S
C513 O514 1.227 . S
O514 C513 1.227 . S
N515 Co501 2.140 . S
N515 C518 1.346 . S
N515 C519 1.345 . S
C516 C517 1.387 . S
C516 C520 1.391 . S
C517 C516 1.387 . S
C517 C518 1.369 . S
C517 H526 0.929 . S
C518 N515 1.346 . S
C518 C517 1.369 . S
C518 H521 0.928 . S
C519 N515 1.345 . S
C519 C520 1.371 . S
C519 H522 0.931 . S
C520 C516 1.391 . S
C520 C519 1.371 . S
C520 H527 0.930 . S
H521 C518 0.928 . S
H522 C519 0.931 . S
H523 C499 0.930 . S
H524 C496 0.930 . S
H525 C505 0.930 . S
H526 C517 0.929 . S
H527 C520 0.930 . S
H528 C546 0.951 . S
H529 C548 0.951 . S
H530 C550 0.950 . S
H531 C551 0.950 . S
H532 C553 0.950 . S
H533 C556 0.950 . S
H534 C557 0.950 . S
H535 C559 0.950 . S
H536 C560 0.950 . S
H537 C561 0.951 . S
H538 C563 0.951 . S
H539 C565 0.950 . S
H540 C566 0.950 . S
H541 C568 0.950 . S
H542 C571 0.950 . S
H543 C572 0.950 . S
H544 C574 0.950 . S
H545 C575 0.950 . S
C546 H528 0.951 . S
C546 C547 1.366 . S
C546 C548 1.388 . S
C547 C546 1.366 . S
C547 C551 1.385 . S
C548 H529 0.951 . S
C548 C546 1.388 . S
C548 C549 1.366 . S
C549 C548 1.366 . S
C549 C550 1.414 . S
C549 C552 1.499 . S
C550 H530 0.950 . S
C550 C549 1.414 . S
C550 C551 1.374 . S
C551 H531 0.950 . S
C551 C547 1.385 . S
C551 C550 1.374 . S
C552 C549 1.499 . S
C552 C553 1.373 . S
C552 C554 1.389 . S
C553 H532 0.950 . S
C553 C552 1.373 . S
C553 C569 1.377 1_545 S
C554 C552 1.389 . S
C554 C555 1.524 . S
C554 C568 1.377 1_545 S
C555 C554 1.524 . S
C555 C556 1.397 . S
C555 C560 1.363 . S
C556 H533 0.950 . S
C556 C555 1.397 . S
C556 C557 1.334 . S
C557 H534 0.950 . S
C557 C556 1.334 . S
C557 C558 1.287 . S
C558 C557 1.287 . S
C558 C559 1.524 . S
C558 H577 0.913 . S
C559 H535 0.950 . S
C559 C558 1.524 . S
C559 C560 1.415 . S
C560 H536 0.950 . S
C560 C555 1.363 . S
C560 C559 1.415 . S
C561 H537 0.951 . S
C561 C562 1.366 . S
C561 C563 1.388 . S
C562 C561 1.366 . S
C562 C566 1.385 . S
C563 H538 0.951 . S
C563 C561 1.388 . S
C563 C564 1.366 . S
C564 C563 1.366 . S
C564 C565 1.414 . S
C564 C567 1.499 . S
C565 H539 0.950 . S
C565 C564 1.414 . S
C565 C566 1.374 . S
C566 H540 0.950 . S
C566 C562 1.385 . S
C566 C565 1.374 . S
C567 C564 1.499 . S
C567 C568 1.373 . S
C567 C569 1.389 . S
C568 H541 0.950 . S
C568 C554 1.377 1_565 S
C568 C567 1.373 . S
C569 C553 1.377 1_565 S
C569 C567 1.389 . S
C569 C570 1.524 . S
C570 C569 1.524 . S
C570 C571 1.397 . S
C570 C575 1.363 . S
C571 H542 0.950 . S
C571 C570 1.397 . S
C571 C572 1.334 . S
C572 H543 0.950 . S
C572 C571 1.334 . S
C572 C573 1.287 . S
C573 C572 1.287 . S
C573 C574 1.524 . S
C573 H576 0.999 . S
C574 H544 0.950 . S
C574 C573 1.524 . S
C574 C575 1.415 . S
C575 H545 0.950 . S
C575 C570 1.363 . S
C575 C574 1.415 . S
H576 C573 0.999 . S
H577 C558 0.913 . S
H578 C596 0.951 . S
H579 C598 0.951 . S
H580 C600 0.950 . S
H581 C601 0.950 . S
H582 C603 0.950 . S
H583 C606 0.950 . S
H584 C607 0.950 . S
H585 C609 0.950 . S
H586 C610 0.950 . S
H587 C611 0.951 . S
H588 C613 0.951 . S
H589 C615 0.950 . S
H590 C616 0.950 . S
H591 C618 0.950 . S
H592 C621 0.950 . S
H593 C622 0.950 . S
H594 C624 0.950 . S
H595 C625 0.950 . S
C596 H578 0.951 . S
C596 C597 1.366 . S
C596 C598 1.388 . S
C597 C596 1.366 . S
C597 C601 1.385 . S
C598 H579 0.951 . S
C598 C596 1.388 . S
C598 C599 1.366 . S
C599 C598 1.366 . S
C599 C600 1.414 . S
C599 C602 1.499 . S
C600 H580 0.950 . S
C600 C599 1.414 . S
C600 C601 1.374 . S
C601 H581 0.950 . S
C601 C597 1.385 . S
C601 C600 1.374 . S
C602 C599 1.499 . S
C602 C603 1.373 . S
C602 C604 1.389 . S
C603 H582 0.950 . S
C603 C602 1.373 . S
C603 C619 1.377 . S
C604 C602 1.389 . S
C604 C605 1.524 . S
C604 C618 1.377 . S
C605 C604 1.524 . S
C605 C606 1.397 . S
C605 C610 1.363 . S
C606 H583 0.950 . S
C606 C605 1.397 . S
C606 C607 1.334 . S
C607 H584 0.950 . S
C607 C606 1.334 . S
C607 C608 1.287 . S
C608 C607 1.287 . S
C608 C609 1.524 . S
C608 H627 0.913 . S
C609 H585 0.950 . S
C609 C608 1.524 . S
C609 C610 1.415 . S
C610 H586 0.950 . S
C610 C605 1.363 . S
C610 C609 1.415 . S
C611 H587 0.951 . S
C611 C612 1.366 . S
C611 C613 1.388 . S
C612 C611 1.366 . S
C612 C616 1.385 . S
C613 H588 0.951 . S
C613 C611 1.388 . S
C613 C614 1.366 . S
C614 C613 1.366 . S
C614 C615 1.414 . S
C614 C617 1.499 . S
C615 H589 0.950 . S
C615 C614 1.414 . S
C615 C616 1.374 . S
C616 H590 0.950 . S
C616 C612 1.385 . S
C616 C615 1.374 . S
C617 C614 1.499 . S
C617 C618 1.373 . S
C617 C619 1.389 . S
C618 H591 0.950 . S
C618 C604 1.377 . S
C618 C617 1.373 . S
C619 C603 1.377 . S
C619 C617 1.389 . S
C619 C620 1.524 . S
C620 C619 1.524 . S
C620 C621 1.397 . S
C620 C625 1.363 . S
C621 H592 0.950 . S
C621 C620 1.397 . S
C621 C622 1.334 . S
C622 H593 0.950 . S
C622 C621 1.334 . S
C622 C623 1.287 . S
C623 C622 1.287 . S
C623 C624 1.524 . S
C623 H626 0.999 . S
C624 H594 0.950 . S
C624 C623 1.524 . S
C624 C625 1.415 . S
C625 H595 0.950 . S
C625 C620 1.363 . S
C625 C624 1.415 . S
H626 C623 0.999 . S
H627 C608 0.913 . S
H628 C646 0.951 . S
H629 C648 0.951 . S
H630 C650 0.950 . S
H631 C651 0.950 . S
H632 C653 0.950 . S
H633 C656 0.950 . S
H634 C657 0.950 . S
H635 C659 0.950 . S
H636 C660 0.950 . S
H637 C661 0.951 . S
H638 C663 0.951 . S
H639 C665 0.950 . S
H640 C666 0.950 . S
H641 C668 0.950 . S
H642 C671 0.950 . S
H643 C672 0.950 . S
H644 C674 0.950 . S
H645 C675 0.950 . S
C646 H628 0.951 . S
C646 C647 1.366 1_655 S
C646 C648 1.388 . S
C647 C646 1.366 1_455 S
C647 C651 1.385 . S
C648 H629 0.951 . S
C648 C646 1.388 . S
C648 C649 1.366 1_655 S
C649 C648 1.366 1_455 S
C649 C650 1.414 . S
C649 C652 1.499 . S
C650 H630 0.950 . S
C650 C649 1.414 . S
C650 C651 1.374 . S
C651 H631 0.950 . S
C651 C647 1.385 . S
C651 C650 1.374 . S
C652 C649 1.499 . S
C652 C653 1.373 1_554 S
C652 C654 1.388 1_545 S
C653 H632 0.950 . S
C653 C652 1.373 1_556 S
C653 C669 1.378 . S
C654 C652 1.388 1_565 S
C654 C655 1.525 . S
C654 C668 1.378 . S
C655 C654 1.525 . S
C655 C656 1.397 1_565 S
C655 C660 1.363 1_455 S
C656 H633 0.950 . S
C656 C655 1.397 1_545 S
C656 C657 1.334 . S
C657 H634 0.950 . S
C657 C656 1.334 . S
C657 C658 1.287 1_545 S
C658 C657 1.287 1_565 S
C658 C659 1.524 1_455 S
C658 H677 0.913 . S
C659 H635 0.950 . S
C659 C658 1.524 1_655 S
C659 C660 1.415 . S
C660 H636 0.950 . S
C660 C655 1.363 1_655 S
C660 C659 1.415 . S
C661 H637 0.951 . S
C661 C662 1.366 . S
C661 C663 1.388 . S
C662 C661 1.366 . S
C662 C666 1.385 1_455 S
C663 H638 0.951 . S
C663 C661 1.388 . S
C663 C664 1.366 . S
C664 C663 1.366 . S
C664 C665 1.414 1_455 S
C664 C667 1.499 . S
C665 H639 0.950 . S
C665 C664 1.414 1_655 S
C665 C666 1.374 . S
C666 H640 0.950 . S
C666 C662 1.385 1_655 S
C666 C665 1.374 . S
C667 C664 1.499 . S
C667 C668 1.373 1_556 S
C667 C669 1.388 1_565 S
C668 H641 0.950 . S
C668 C654 1.378 . S
C668 C667 1.373 1_554 S
C669 C653 1.378 . S
C669 C667 1.388 1_545 S
C669 C670 1.525 . S
C670 C669 1.525 . S
C670 C671 1.397 1_445 S
C670 C675 1.363 . S
C671 H642 0.950 . S
C671 C670 1.397 1_665 S
C671 C672 1.334 . S
C672 H643 0.950 . S
C672 C671 1.334 . S
C672 C673 1.287 1_665 S
C673 C672 1.287 1_445 S
C673 C674 1.524 . S
C673 H676 1.003 . S
C674 H644 0.950 . S
C674 C673 1.524 . S
C674 C675 1.415 . S
C675 H645 0.950 . S
C675 C670 1.363 . S
C675 C674 1.415 . S
H676 C673 1.003 . S
H677 C658 0.913 . S
H678 C696 0.951 . S
H679 C698 0.951 . S
H680 C700 0.950 . S
H681 C701 0.950 . S
H682 C703 0.950 . S
H683 C706 0.950 . S
H684 C707 0.950 . S
H685 C709 0.950 . S
H686 C710 0.950 . S
H687 C711 0.951 . S
H688 C713 0.951 . S
H689 C715 0.950 . S
H690 C716 0.950 . S
H691 C718 0.950 . S
H692 C721 0.950 . S
H693 C722 0.950 . S
H694 C724 0.950 . S
H695 C725 0.950 . S
C696 H678 0.951 . S
C696 C697 1.366 . S
C696 C698 1.388 . S
C697 C696 1.366 . S
C697 C701 1.385 . S
C698 H679 0.951 . S
C698 C696 1.388 . S
C698 C699 1.366 . S
C699 C698 1.366 . S
C699 C700 1.414 . S
C699 C702 1.499 . S
C700 H680 0.950 . S
C700 C699 1.414 . S
C700 C701 1.374 . S
C701 H681 0.950 . S
C701 C697 1.385 . S
C701 C700 1.374 . S
C702 C699 1.499 . S
C702 C703 1.373 . S
C702 C704 1.389 . S
C703 H682 0.950 . S
C703 C702 1.373 . S
C703 C719 1.377 . S
C704 C702 1.389 . S
C704 C705 1.524 . S
C704 C718 1.377 . S
C705 C704 1.524 . S
C705 C706 1.397 . S
C705 C710 1.363 . S
C706 H683 0.950 . S
C706 C705 1.397 . S
C706 C707 1.334 . S
C707 H684 0.950 . S
C707 C706 1.334 . S
C707 C708 1.287 . S
C708 C707 1.287 . S
C708 C709 1.524 . S
C708 H727 0.913 . S
C709 H685 0.950 . S
C709 C708 1.524 . S
C709 C710 1.415 . S
C710 H686 0.950 . S
C710 C705 1.363 . S
C710 C709 1.415 . S
C711 H687 0.951 . S
C711 C712 1.366 . S
C711 C713 1.388 . S
C712 C711 1.366 . S
C712 C716 1.385 . S
C713 H688 0.951 . S
C713 C711 1.388 . S
C713 C714 1.366 . S
C714 C713 1.366 . S
C714 C715 1.414 . S
C714 C717 1.499 . S
C715 H689 0.950 . S
C715 C714 1.414 . S
C715 C716 1.374 . S
C716 H690 0.950 . S
C716 C712 1.385 . S
C716 C715 1.374 . S
C717 C714 1.499 . S
C717 C718 1.373 . S
C717 C719 1.389 . S
C718 H691 0.950 . S
C718 C704 1.377 . S
C718 C717 1.373 . S
C719 C703 1.377 . S
C719 C717 1.389 . S
C719 C720 1.524 . S
C720 C719 1.524 . S
C720 C721 1.397 . S
C720 C725 1.363 . S
C721 H692 0.950 . S
C721 C720 1.397 . S
C721 C722 1.334 . S
C722 H693 0.950 . S
C722 C721 1.334 . S
C722 C723 1.287 . S
C723 C722 1.287 . S
C723 C724 1.524 . S
C723 H726 0.999 . S
C724 H694 0.950 . S
C724 C723 1.524 . S
C724 C725 1.415 . S
C725 H695 0.950 . S
C725 C720 1.363 . S
C725 C724 1.415 . S
H726 C723 0.999 . S
H727 C708 0.913 . S
H728 C746 0.951 . S
H729 C748 0.951 . S
H730 C750 0.950 . S
H731 C751 0.950 . S
H732 C753 0.950 . S
H733 C756 0.950 . S
H734 C757 0.950 . S
H735 C759 0.950 . S
H736 C760 0.950 . S
H737 C761 0.951 . S
H738 C763 0.951 . S
H739 C765 0.950 . S
H740 C766 0.950 . S
H741 C768 0.950 . S
H742 C771 0.950 . S
H743 C772 0.950 . S
H744 C774 0.950 . S
H745 C775 0.950 . S
C746 H728 0.951 . S
C746 C747 1.366 . S
C746 C748 1.388 . S
C747 C746 1.366 . S
C747 C751 1.385 . S
C748 H729 0.951 . S
C748 C746 1.388 . S
C748 C749 1.366 . S
C749 C748 1.366 . S
C749 C750 1.414 . S
C749 C752 1.499 . S
C750 H730 0.950 . S
C750 C749 1.414 . S
C750 C751 1.374 . S
C751 H731 0.950 . S
C751 C747 1.385 . S
C751 C750 1.374 . S
C752 C749 1.499 . S
C752 C753 1.373 . S
C752 C754 1.389 . S
C753 H732 0.950 . S
C753 C752 1.373 . S
C753 C769 1.377 . S
C754 C752 1.389 . S
C754 C755 1.524 . S
C754 C768 1.377 . S
C755 C754 1.524 . S
C755 C756 1.397 . S
C755 C760 1.363 . S
C756 H733 0.950 . S
C756 C755 1.397 . S
C756 C757 1.334 . S
C757 H734 0.950 . S
C757 C756 1.334 . S
C757 C758 1.287 . S
C758 C757 1.287 . S
C758 C759 1.524 . S
C758 H777 0.913 . S
C759 H735 0.950 . S
C759 C758 1.524 . S
C759 C760 1.415 . S
C760 H736 0.950 . S
C760 C755 1.363 . S
C760 C759 1.415 . S
C761 H737 0.951 . S
C761 C762 1.366 . S
C761 C763 1.388 . S
C762 C761 1.366 . S
C762 C766 1.385 . S
C763 H738 0.951 . S
C763 C761 1.388 . S
C763 C764 1.366 . S
C764 C763 1.366 . S
C764 C765 1.414 . S
C764 C767 1.499 . S
C765 H739 0.950 . S
C765 C764 1.414 . S
C765 C766 1.374 . S
C766 H740 0.950 . S
C766 C762 1.385 . S
C766 C765 1.374 . S
C767 C764 1.499 . S
C767 C768 1.373 . S
C767 C769 1.389 . S
C768 H741 0.950 . S
C768 C754 1.377 . S
C768 C767 1.373 . S
C769 C753 1.377 . S
C769 C767 1.389 . S
C769 C770 1.524 . S
C770 C769 1.524 . S
C770 C771 1.397 . S
C770 C775 1.363 . S
C771 H742 0.950 . S
C771 C770 1.397 . S
C771 C772 1.334 . S
C772 H743 0.950 . S
C772 C771 1.334 . S
C772 C773 1.287 . S
C773 C772 1.287 . S
C773 C774 1.524 . S
C773 H776 0.999 . S
C774 H744 0.950 . S
C774 C773 1.524 . S
C774 C775 1.415 . S
C775 H745 0.950 . S
C775 C770 1.363 . S
C775 C774 1.415 . S
H776 C773 0.999 . S
H777 C758 0.913 . S
H778 C796 0.951 . S
H779 C798 0.951 . S
H780 C800 0.950 . S
H781 C801 0.950 . S
H782 C803 0.950 . S
H783 C806 0.950 . S
H784 C807 0.950 . S
H785 C809 0.950 . S
H786 C810 0.950 . S
H787 C811 0.951 . S
H788 C813 0.951 . S
H789 C815 0.950 . S
H790 C816 0.950 . S
H791 C818 0.950 . S
H792 C821 0.950 . S
H793 C822 0.950 . S
H794 C824 0.950 . S
H795 C825 0.950 . S
C796 H778 0.951 . S
C796 C797 1.366 . S
C796 C798 1.388 . S
C797 C796 1.366 . S
C797 C801 1.385 . S
C798 H779 0.951 . S
C798 C796 1.388 . S
C798 C799 1.366 . S
C799 C798 1.366 . S
C799 C800 1.414 . S
C799 C802 1.499 . S
C800 H780 0.950 . S
C800 C799 1.414 . S
C800 C801 1.374 . S
C801 H781 0.950 . S
C801 C797 1.385 . S
C801 C800 1.374 . S
C802 C799 1.499 . S
C802 C803 1.373 . S
C802 C804 1.389 . S
C803 H782 0.950 . S
C803 C802 1.373 . S
C803 C819 1.377 . S
C804 C802 1.389 . S
C804 C805 1.524 . S
C804 C818 1.377 . S
C805 C804 1.524 . S
C805 C806 1.397 . S
C805 C810 1.363 . S
C806 H783 0.950 . S
C806 C805 1.397 . S
C806 C807 1.334 . S
C807 H784 0.950 . S
C807 C806 1.334 . S
C807 C808 1.287 . S
C808 C807 1.287 . S
C808 C809 1.524 . S
C808 H827 0.913 . S
C809 H785 0.950 . S
C809 C808 1.524 . S
C809 C810 1.415 . S
C810 H786 0.950 . S
C810 C805 1.363 . S
C810 C809 1.415 . S
C811 H787 0.951 . S
C811 C812 1.366 . S
C811 C813 1.388 . S
C812 C811 1.366 . S
C812 C816 1.385 . S
C813 H788 0.951 . S
C813 C811 1.388 . S
C813 C814 1.366 . S
C814 C813 1.366 . S
C814 C815 1.414 . S
C814 C817 1.499 . S
C815 H789 0.950 . S
C815 C814 1.414 . S
C815 C816 1.374 . S
C816 H790 0.950 . S
C816 C812 1.385 . S
C816 C815 1.374 . S
C817 C814 1.499 . S
C817 C818 1.373 . S
C817 C819 1.389 . S
C818 H791 0.950 . S
C818 C804 1.377 . S
C818 C817 1.373 . S
C819 C803 1.377 . S
C819 C817 1.389 . S
C819 C820 1.524 . S
C820 C819 1.524 . S
C820 C821 1.397 . S
C820 C825 1.363 . S
C821 H792 0.950 . S
C821 C820 1.397 . S
C821 C822 1.334 . S
C822 H793 0.950 . S
C822 C821 1.334 . S
C822 C823 1.287 . S
C823 C822 1.287 . S
C823 C824 1.524 . S
C823 H826 0.999 . S
C824 H794 0.950 . S
C824 C823 1.524 . S
C824 C825 1.415 . S
C825 H795 0.950 . S
C825 C820 1.363 . S
C825 C824 1.415 . S
H826 C823 0.999 . S
H827 C808 0.913 . S
H828 C846 0.951 . S
H829 C848 0.951 . S
H830 C850 0.950 1_554 S
H831 C851 0.950 . S
H832 C853 0.950 . S
H833 C856 0.950 . S
H834 C857 0.950 . S
H835 C859 0.950 . S
H836 C860 0.950 . S
H837 C861 0.951 . S
H838 C863 0.951 . S
H839 C865 0.950 1_556 S
H840 C866 0.950 . S
H841 C868 0.950 . S
H842 C871 0.950 . S
H843 C872 0.950 . S
H844 C874 0.950 . S
H845 C875 0.950 . S
C846 H828 0.951 . S
C846 C847 1.366 . S
C846 C848 1.388 . S
C847 C846 1.366 . S
C847 C851 1.385 . S
C848 H829 0.951 . S
C848 C846 1.388 . S
C848 C849 1.366 . S
C849 C848 1.366 . S
C849 C850 1.414 . S
C849 C852 1.499 . S
C850 H830 0.950 1_556 S
C850 C849 1.414 . S
C850 C851 1.374 . S
C851 H831 0.950 . S
C851 C847 1.385 . S
C851 C850 1.374 . S
C852 C849 1.499 . S
C852 C853 1.373 1_556 S
C852 C854 1.389 1_455 S
C853 H832 0.950 . S
C853 C852 1.373 1_554 S
C853 C869 1.377 . S
C854 C852 1.389 1_655 S
C854 C855 1.524 . S
C854 C868 1.377 . S
C855 C854 1.524 . S
C855 C856 1.397 . S
C855 C860 1.363 . S
C856 H833 0.950 . S
C856 C855 1.397 . S
C856 C857 1.334 . S
C857 H834 0.950 . S
C857 C856 1.334 . S
C857 C858 1.287 . S
C858 C857 1.287 . S
C858 C859 1.524 . S
C858 H877 0.913 . S
C859 H835 0.950 . S
C859 C858 1.524 . S
C859 C860 1.415 . S
C860 H836 0.950 . S
C860 C855 1.363 . S
C860 C859 1.415 . S
C861 H837 0.951 . S
C861 C862 1.366 . S
C861 C863 1.388 . S
C862 C861 1.366 . S
C862 C866 1.385 . S
C863 H838 0.951 . S
C863 C861 1.388 . S
C863 C864 1.366 . S
C864 C863 1.366 . S
C864 C865 1.414 . S
C864 C867 1.499 . S
C865 H839 0.950 1_554 S
C865 C864 1.414 . S
C865 C866 1.374 . S
C866 H840 0.950 . S
C866 C862 1.385 . S
C866 C865 1.374 . S
C867 C864 1.499 . S
C867 C868 1.373 1_454 S
C867 C869 1.389 . S
C868 H841 0.950 . S
C868 C854 1.377 . S
C868 C867 1.373 1_656 S
C869 C853 1.377 . S
C869 C867 1.389 . S
C869 C870 1.524 . S
C870 C869 1.524 . S
C870 C871 1.397 . S
C870 C875 1.363 . S
C871 H842 0.950 . S
C871 C870 1.397 . S
C871 C872 1.334 . S
C872 H843 0.950 . S
C872 C871 1.334 . S
C872 C873 1.287 . S
C873 C872 1.287 . S
C873 C874 1.524 . S
C873 H876 0.999 . S
C874 H844 0.950 . S
C874 C873 1.524 . S
C874 C875 1.415 . S
C875 H845 0.950 . S
C875 C870 1.363 . S
C875 C874 1.415 . S
H876 C873 0.999 . S
H877 C858 0.913 . S
H878 C896 0.951 . S
H879 C898 0.951 . S
H880 C900 0.950 . S
H881 C901 0.950 . S
H882 C903 0.950 . S
H883 C906 0.950 . S
H884 C907 0.950 . S
H885 C909 0.950 . S
H886 C910 0.950 . S
H887 C911 0.951 . S
H888 C913 0.951 . S
H889 C915 0.950 . S
H890 C916 0.950 . S
H891 C918 0.950 . S
H892 C921 0.950 . S
H893 C922 0.950 . S
H894 C924 0.950 . S
H895 C925 0.950 . S
C896 H878 0.951 . S
C896 C897 1.366 . S
C896 C898 1.388 . S
C897 C896 1.366 . S
C897 C901 1.385 . S
C898 H879 0.951 . S
C898 C896 1.388 . S
C898 C899 1.366 . S
C899 C898 1.366 . S
C899 C900 1.414 . S
C899 C902 1.499 . S
C900 H880 0.950 . S
C900 C899 1.414 . S
C900 C901 1.374 . S
C901 H881 0.950 . S
C901 C897 1.385 . S
C901 C900 1.374 . S
C902 C899 1.499 . S
C902 C903 1.373 . S
C902 C904 1.389 . S
C903 H882 0.950 . S
C903 C902 1.373 . S
C903 C919 1.377 . S
C904 C902 1.389 . S
C904 C905 1.524 . S
C904 C918 1.377 . S
C905 C904 1.524 . S
C905 C906 1.397 . S
C905 C910 1.363 . S
C906 H883 0.950 . S
C906 C905 1.397 . S
C906 C907 1.334 . S
C907 H884 0.950 . S
C907 C906 1.334 . S
C907 C908 1.287 . S
C908 C907 1.287 . S
C908 C909 1.524 . S
C908 H927 0.913 . S
C909 H885 0.950 . S
C909 C908 1.524 . S
C909 C910 1.415 . S
C910 H886 0.950 . S
C910 C905 1.363 . S
C910 C909 1.415 . S
C911 H887 0.951 . S
C911 C912 1.366 . S
C911 C913 1.388 . S
C912 C911 1.366 . S
C912 C916 1.385 . S
C913 H888 0.951 . S
C913 C911 1.388 . S
C913 C914 1.366 . S
C914 C913 1.366 . S
C914 C915 1.414 . S
C914 C917 1.499 . S
C915 H889 0.950 . S
C915 C914 1.414 . S
C915 C916 1.374 . S
C916 H890 0.950 . S
C916 C912 1.385 . S
C916 C915 1.374 . S
C917 C914 1.499 . S
C917 C918 1.373 . S
C917 C919 1.389 . S
C918 H891 0.950 . S
C918 C904 1.377 . S
C918 C917 1.373 . S
C919 C903 1.377 . S
C919 C917 1.389 . S
C919 C920 1.524 . S
C920 C919 1.524 . S
C920 C921 1.397 . S
C920 C925 1.363 . S
C921 H892 0.950 . S
C921 C920 1.397 . S
C921 C922 1.334 . S
C922 H893 0.950 . S
C922 C921 1.334 . S
C922 C923 1.287 . S
C923 C922 1.287 . S
C923 C924 1.524 . S
C923 H926 0.999 . S
C924 H894 0.950 . S
C924 C923 1.524 . S
C924 C925 1.415 . S
C925 H895 0.950 . S
C925 C920 1.363 . S
C925 C924 1.415 . S
H926 C923 0.999 . S
H927 C908 0.913 . S
H928 C946 0.951 . S
H929 C948 0.951 . S
H930 C950 0.950 . S
H931 C951 0.950 . S
H932 C953 0.950 . S
H933 C956 0.950 . S
H934 C957 0.950 . S
H935 C959 0.950 . S
H936 C960 0.950 . S
H937 C961 0.951 . S
H938 C963 0.951 . S
H939 C965 0.950 . S
H940 C966 0.950 . S
H941 C968 0.950 . S
H942 C971 0.950 . S
H943 C972 0.950 . S
H944 C974 0.950 . S
H945 C975 0.950 . S
C946 H928 0.951 . S
C946 C947 1.366 . S
C946 C948 1.388 . S
C947 C946 1.366 . S
C947 C951 1.385 . S
C948 H929 0.951 . S
C948 C946 1.388 . S
C948 C949 1.366 . S
C949 C948 1.366 . S
C949 C950 1.414 . S
C949 C952 1.499 . S
C950 H930 0.950 . S
C950 C949 1.414 . S
C950 C951 1.374 . S
C951 H931 0.950 . S
C951 C947 1.385 . S
C951 C950 1.374 . S
C952 C949 1.499 . S
C952 C953 1.373 . S
C952 C954 1.389 . S
C953 H932 0.950 . S
C953 C952 1.373 . S
C953 C969 1.377 . S
C954 C952 1.389 . S
C954 C955 1.524 . S
C954 C968 1.377 . S
C955 C954 1.524 . S
C955 C956 1.397 . S
C955 C960 1.363 . S
C956 H933 0.950 . S
C956 C955 1.397 . S
C956 C957 1.334 . S
C957 H934 0.950 . S
C957 C956 1.334 . S
C957 C958 1.287 . S
C958 C957 1.287 . S
C958 C959 1.524 . S
C958 H977 0.913 . S
C959 H935 0.950 . S
C959 C958 1.524 . S
C959 C960 1.415 . S
C960 H936 0.950 . S
C960 C955 1.363 . S
C960 C959 1.415 . S
C961 H937 0.951 . S
C961 C962 1.366 . S
C961 C963 1.388 . S
C962 C961 1.366 . S
C962 C966 1.385 1_554 S
C963 H938 0.951 . S
C963 C961 1.388 . S
C963 C964 1.366 . S
C964 C963 1.366 . S
C964 C965 1.414 . S
C964 C967 1.499 . S
C965 H939 0.950 . S
C965 C964 1.414 . S
C965 C966 1.374 1_554 S
C966 H940 0.950 . S
C966 C962 1.385 1_556 S
C966 C965 1.374 1_556 S
C967 C964 1.499 . S
C967 C968 1.373 . S
C967 C969 1.389 . S
C968 H941 0.950 . S
C968 C954 1.377 . S
C968 C967 1.373 . S
C969 C953 1.377 . S
C969 C967 1.389 . S
C969 C970 1.524 . S
C970 C969 1.524 . S
C970 C971 1.397 . S
C970 C975 1.363 . S
C971 H942 0.950 . S
C971 C970 1.397 . S
C971 C972 1.334 . S
C972 H943 0.950 . S
C972 C971 1.334 . S
C972 C973 1.287 . S
C973 C972 1.287 . S
C973 C974 1.524 . S
C973 H976 0.999 . S
C974 H944 0.950 . S
C974 C973 1.524 . S
C974 C975 1.415 . S
C975 H945 0.950 . S
C975 C970 1.363 . S
C975 C974 1.415 . S
H976 C973 0.999 . S
H977 C958 0.913 . S
H978 C996 0.951 . S
H979 C998 0.951 . S
H980 C1000 0.950 . S
H981 C1001 0.950 . S
H982 C1003 0.950 . S
H983 C1006 0.950 . S
H984 C1007 0.950 . S
H985 C1009 0.950 . S
H986 C1010 0.950 . S
H987 C1011 0.951 . S
H988 C1013 0.951 . S
H989 C1015 0.950 . S
H990 C1016 0.950 . S
H991 C1018 0.950 . S
H992 C1021 0.950 . S
H993 C1022 0.950 . S
H994 C1024 0.950 . S
H995 C1025 0.950 . S
C996 H978 0.951 . S
C996 C997 1.366 . S
C996 C998 1.388 . S
C997 C996 1.366 . S
C997 C1001 1.385 . S
C998 H979 0.951 . S
C998 C996 1.388 . S
C998 C999 1.366 . S
C999 C998 1.366 . S
C999 C1000 1.414 . S
C999 C1002 1.499 . S
C1000 H980 0.950 . S
C1000 C999 1.414 . S
C1000 C1001 1.374 . S
C1001 H981 0.950 . S
C1001 C997 1.385 . S
C1001 C1000 1.374 . S
C1002 C999 1.499 . S
C1002 C1003 1.373 . S
C1002 C1004 1.389 . S
C1003 H982 0.950 . S
C1003 C1002 1.373 . S
C1003 C1019 1.377 . S
C1004 C1002 1.389 . S
C1004 C1005 1.524 . S
C1004 C1018 1.377 . S
C1005 C1004 1.524 . S
C1005 C1006 1.397 . S
C1005 C1010 1.363 . S
C1006 H983 0.950 . S
C1006 C1005 1.397 . S
C1006 C1007 1.334 . S
C1007 H984 0.950 . S
C1007 C1006 1.334 . S
C1007 C1008 1.287 . S
C1008 C1007 1.287 . S
C1008 C1009 1.524 . S
C1008 H1027 0.913 . S
C1009 H985 0.950 . S
C1009 C1008 1.524 . S
C1009 C1010 1.415 . S
C1010 H986 0.950 . S
C1010 C1005 1.363 . S
C1010 C1009 1.415 . S
C1011 H987 0.951 . S
C1011 C1012 1.366 . S
C1011 C1013 1.388 . S
C1012 C1011 1.366 . S
C1012 C1016 1.385 . S
C1013 H988 0.951 . S
C1013 C1011 1.388 . S
C1013 C1014 1.366 . S
C1014 C1013 1.366 . S
C1014 C1015 1.414 . S
C1014 C1017 1.499 . S
C1015 H989 0.950 . S
C1015 C1014 1.414 . S
C1015 C1016 1.374 . S
C1016 H990 0.950 . S
C1016 C1012 1.385 . S
C1016 C1015 1.374 . S
C1017 C1014 1.499 . S
C1017 C1018 1.373 . S
C1017 C1019 1.389 . S
C1018 H991 0.950 . S
C1018 C1004 1.377 . S
C1018 C1017 1.373 . S
C1019 C1003 1.377 . S
C1019 C1017 1.389 . S
C1019 C1020 1.524 . S
C1020 C1019 1.524 . S
C1020 C1021 1.397 . S
C1020 C1025 1.363 . S
C1021 H992 0.950 . S
C1021 C1020 1.397 . S
C1021 C1022 1.334 . S
C1022 H993 0.950 . S
C1022 C1021 1.334 . S
C1022 C1023 1.287 . S
C1023 C1022 1.287 . S
C1023 C1024 1.524 . S
C1023 H1026 0.999 . S
C1024 H994 0.950 . S
C1024 C1023 1.524 . S
C1024 C1025 1.415 . S
C1025 H995 0.950 . S
C1025 C1020 1.363 . S
C1025 C1024 1.415 . S
H1026 C1023 0.999 . S
H1027 C1008 0.913 . S
H1028 C1046 0.951 . S
H1029 C1048 0.951 . S
H1030 C1050 0.950 . S
H1031 C1051 0.950 . S
H1032 C1053 0.950 . S
H1033 C1056 0.950 . S
H1034 C1057 0.950 . S
H1035 C1059 0.950 . S
H1036 C1060 0.950 . S
H1037 C1061 0.951 . S
H1038 C1063 0.951 . S
H1039 C1065 0.950 . S
H1040 C1066 0.950 . S
H1041 C1068 0.950 . S
H1042 C1071 0.950 . S
H1043 C1072 0.950 . S
H1044 C1074 0.950 . S
H1045 C1075 0.950 . S
C1046 H1028 0.951 . S
C1046 C1047 1.366 . S
C1046 C1048 1.388 . S
C1047 C1046 1.366 . S
C1047 C1051 1.385 . S
C1048 H1029 0.951 . S
C1048 C1046 1.388 . S
C1048 C1049 1.366 . S
C1049 C1048 1.366 . S
C1049 C1050 1.414 . S
C1049 C1052 1.499 . S
C1050 H1030 0.950 . S
C1050 C1049 1.414 . S
C1050 C1051 1.374 . S
C1051 H1031 0.950 . S
C1051 C1047 1.385 . S
C1051 C1050 1.374 . S
C1052 C1049 1.499 . S
C1052 C1053 1.373 . S
C1052 C1054 1.389 . S
C1053 H1032 0.950 . S
C1053 C1052 1.373 . S
C1053 C1069 1.377 . S
C1054 C1052 1.389 . S
C1054 C1055 1.524 . S
C1054 C1068 1.377 . S
C1055 C1054 1.524 . S
C1055 C1056 1.397 . S
C1055 C1060 1.363 . S
C1056 H1033 0.950 . S
C1056 C1055 1.397 . S
C1056 C1057 1.334 . S
C1057 H1034 0.950 . S
C1057 C1056 1.334 . S
C1057 C1058 1.287 . S
C1058 C1057 1.287 . S
C1058 C1059 1.524 . S
C1058 H1077 0.913 . S
C1059 H1035 0.950 . S
C1059 C1058 1.524 . S
C1059 C1060 1.415 . S
C1060 H1036 0.950 . S
C1060 C1055 1.363 . S
C1060 C1059 1.415 . S
C1061 H1037 0.951 . S
C1061 C1062 1.366 . S
C1061 C1063 1.388 . S
C1062 C1061 1.366 . S
C1062 C1066 1.385 . S
C1063 H1038 0.951 . S
C1063 C1061 1.388 . S
C1063 C1064 1.366 . S
C1064 C1063 1.366 . S
C1064 C1065 1.414 . S
C1064 C1067 1.499 . S
C1065 H1039 0.950 . S
C1065 C1064 1.414 . S
C1065 C1066 1.374 . S
C1066 H1040 0.950 . S
C1066 C1062 1.385 . S
C1066 C1065 1.374 . S
C1067 C1064 1.499 . S
C1067 C1068 1.373 . S
C1067 C1069 1.389 . S
C1068 H1041 0.950 . S
C1068 C1054 1.377 . S
C1068 C1067 1.373 . S
C1069 C1053 1.377 . S
C1069 C1067 1.389 . S
C1069 C1070 1.524 . S
C1070 C1069 1.524 . S
C1070 C1071 1.397 . S
C1070 C1075 1.363 . S
C1071 H1042 0.950 . S
C1071 C1070 1.397 . S
C1071 C1072 1.334 . S
C1072 H1043 0.950 . S
C1072 C1071 1.334 . S
C1072 C1073 1.287 . S
C1073 C1072 1.287 . S
C1073 C1074 1.524 . S
C1073 H1076 0.999 . S
C1074 H1044 0.950 . S
C1074 C1073 1.524 . S
C1074 C1075 1.415 . S
C1075 H1045 0.950 . S
C1075 C1070 1.363 . S
C1075 C1074 1.415 . S
H1076 C1073 0.999 . S
H1077 C1058 0.913 . S
H1078 C1096 0.951 1_554 S
H1079 C1098 0.951 . S
H1080 C1100 0.950 . S
H1081 C1101 0.950 . S
H1082 C1103 0.950 . S
H1083 C1106 0.950 . S
H1084 C1107 0.950 . S
H1085 C1109 0.950 . S
H1086 C1110 0.950 . S
H1087 C1111 0.951 . S
H1088 C1113 0.951 . S
H1089 C1115 0.950 . S
H1090 C1116 0.950 . S
H1091 C1118 0.950 . S
H1092 C1121 0.950 . S
H1093 C1122 0.950 . S
H1094 C1124 0.950 . S
H1095 C1125 0.950 . S
C1096 H1078 0.951 1_556 S
C1096 C1097 1.366 . S
C1096 C1098 1.387 . S
C1097 C1096 1.366 . S
C1097 C1101 1.385 . S
C1098 H1079 0.951 . S
C1098 C1096 1.387 . S
C1098 C1099 1.366 . S
C1099 C1098 1.366 . S
C1099 C1100 1.414 . S
C1099 C1102 1.499 . S
C1100 H1080 0.950 . S
C1100 C1099 1.414 . S
C1100 C1101 1.374 . S
C1101 H1081 0.950 . S
C1101 C1097 1.385 . S
C1101 C1100 1.374 . S
C1102 C1099 1.499 . S
C1102 C1103 1.373 . S
C1102 C1104 1.389 . S
C1103 H1082 0.950 . S
C1103 C1102 1.373 . S
C1103 C1119 1.377 . S
C1104 C1102 1.389 . S
C1104 C1105 1.524 . S
C1104 C1118 1.377 . S
C1105 C1104 1.524 . S
C1105 C1106 1.397 . S
C1105 C1110 1.363 . S
C1106 H1083 0.950 . S
C1106 C1105 1.397 . S
C1106 C1107 1.334 1_556 S
C1107 H1084 0.950 . S
C1107 C1106 1.334 1_554 S
C1107 C1108 1.287 . S
C1108 C1107 1.287 . S
C1108 C1109 1.524 . S
C1108 H1127 0.913 . S
C1109 H1085 0.950 . S
C1109 C1108 1.524 . S
C1109 C1110 1.415 1_554 S
C1110 H1086 0.950 . S
C1110 C1105 1.363 . S
C1110 C1109 1.415 1_556 S
C1111 H1087 0.951 . S
C1111 C1112 1.366 . S
C1111 C1113 1.388 . S
C1112 C1111 1.366 . S
C1112 C1116 1.385 . S
C1113 H1088 0.951 . S
C1113 C1111 1.388 . S
C1113 C1114 1.366 . S
C1114 C1113 1.366 . S
C1114 C1115 1.414 . S
C1114 C1117 1.499 . S
C1115 H1089 0.950 . S
C1115 C1114 1.414 . S
C1115 C1116 1.374 . S
C1116 H1090 0.950 . S
C1116 C1112 1.385 . S
C1116 C1115 1.374 . S
C1117 C1114 1.499 . S
C1117 C1118 1.373 . S
C1117 C1119 1.389 . S
C1118 H1091 0.950 . S
C1118 C1104 1.377 . S
C1118 C1117 1.373 . S
C1119 C1103 1.377 . S
C1119 C1117 1.389 . S
C1119 C1120 1.524 . S
C1120 C1119 1.524 . S
C1120 C1121 1.397 . S
C1120 C1125 1.363 . S
C1121 H1092 0.950 . S
C1121 C1120 1.397 . S
C1121 C1122 1.334 . S
C1122 H1093 0.950 . S
C1122 C1121 1.334 . S
C1122 C1123 1.287 . S
C1123 C1122 1.287 . S
C1123 C1124 1.524 . S
C1123 H1126 0.999 . S
C1124 H1094 0.950 . S
C1124 C1123 1.524 . S
C1124 C1125 1.415 . S
C1125 H1095 0.950 . S
C1125 C1120 1.363 . S
C1125 C1124 1.415 . S
H1126 C1123 0.999 . S
H1127 C1108 0.913 . S
H1128 C1146 0.951 . S
H1129 C1148 0.951 . S
H1130 C1150 0.950 . S
H1131 C1151 0.950 . S
H1132 C1153 0.950 . S
H1133 C1156 0.950 . S
H1134 C1157 0.950 . S
H1135 C1159 0.950 . S
H1136 C1160 0.950 . S
H1137 C1161 0.951 . S
H1138 C1163 0.951 . S
H1139 C1165 0.950 . S
H1140 C1166 0.950 1_554 S
H1141 C1168 0.950 . S
H1142 C1171 0.950 . S
H1143 C1172 0.950 . S
H1144 C1174 0.950 1_554 S
H1145 C1175 0.950 . S
C1146 H1128 0.951 . S
C1146 C1147 1.366 . S
C1146 C1148 1.388 . S
C1147 C1146 1.366 . S
C1147 C1151 1.385 . S
C1148 H1129 0.951 . S
C1148 C1146 1.388 . S
C1148 C1149 1.366 . S
C1149 C1148 1.366 . S
C1149 C1150 1.414 . S
C1149 C1152 1.499 . S
C1150 H1130 0.950 . S
C1150 C1149 1.414 . S
C1150 C1151 1.374 . S
C1151 H1131 0.950 . S
C1151 C1147 1.385 . S
C1151 C1150 1.374 . S
C1152 C1149 1.499 . S
C1152 C1153 1.373 . S
C1152 C1154 1.389 . S
C1153 H1132 0.950 . S
C1153 C1152 1.373 . S
C1153 C1169 1.377 . S
C1154 C1152 1.389 . S
C1154 C1155 1.524 . S
C1154 C1168 1.377 . S
C1155 C1154 1.524 . S
C1155 C1156 1.397 . S
C1155 C1160 1.363 . S
C1156 H1133 0.950 . S
C1156 C1155 1.397 . S
C1156 C1157 1.334 . S
C1157 H1134 0.950 . S
C1157 C1156 1.334 . S
C1157 C1158 1.287 . S
C1158 C1157 1.287 . S
C1158 C1159 1.524 . S
C1158 H1177 0.913 . S
C1159 H1135 0.950 . S
C1159 C1158 1.524 . S
C1159 C1160 1.415 . S
C1160 H1136 0.950 . S
C1160 C1155 1.363 . S
C1160 C1159 1.415 . S
C1161 H1137 0.951 . S
C1161 C1162 1.366 . S
C1161 C1163 1.388 1_554 S
C1162 C1161 1.366 . S
C1162 C1166 1.385 1_554 S
C1163 H1138 0.951 . S
C1163 C1161 1.388 1_556 S
C1163 C1164 1.366 . S
C1164 C1163 1.366 . S
C1164 C1165 1.414 . S
C1164 C1167 1.499 . S
C1165 H1139 0.950 . S
C1165 C1164 1.414 . S
C1165 C1166 1.374 . S
C1166 H1140 0.950 1_556 S
C1166 C1162 1.385 1_556 S
C1166 C1165 1.374 . S
C1167 C1164 1.499 . S
C1167 C1168 1.373 . S
C1167 C1169 1.389 . S
C1168 H1141 0.950 . S
C1168 C1154 1.377 . S
C1168 C1167 1.373 . S
C1169 C1153 1.377 . S
C1169 C1167 1.389 . S
C1169 C1170 1.524 . S
C1170 C1169 1.524 . S
C1170 C1171 1.397 . S
C1170 C1175 1.363 . S
C1171 H1142 0.950 . S
C1171 C1170 1.397 . S
C1171 C1172 1.334 1_556 S
C1172 H1143 0.950 . S
C1172 C1171 1.334 1_554 S
C1172 C1173 1.287 . S
C1173 C1172 1.287 . S
C1173 C1174 1.526 1_554 S
C1173 H1176 0.999 . S
C1174 H1144 0.950 1_556 S
C1174 C1173 1.526 1_556 S
C1174 C1175 1.413 . S
C1175 H1145 0.950 . S
C1175 C1170 1.363 . S
C1175 C1174 1.413 . S
H1176 C1173 0.999 . S
H1177 C1158 0.913 . S
H1178 C1196 0.951 . S
H1179 C1198 0.951 . S
H1180 C1200 0.950 . S
H1181 C1201 0.950 . S
H1182 C1203 0.950 . S
H1183 C1206 0.950 . S
H1184 C1207 0.950 . S
H1185 C1209 0.950 . S
H1186 C1210 0.950 . S
H1187 C1211 0.951 . S
H1188 C1213 0.951 . S
H1189 C1215 0.950 . S
H1190 C1216 0.950 . S
H1191 C1218 0.950 . S
H1192 C1221 0.950 . S
H1193 C1222 0.950 . S
H1194 C1224 0.950 . S
H1195 C1225 0.950 . S
C1196 H1178 0.951 . S
C1196 C1197 1.366 . S
C1196 C1198 1.388 . S
C1197 C1196 1.366 . S
C1197 C1201 1.385 . S
C1198 H1179 0.951 . S
C1198 C1196 1.388 . S
C1198 C1199 1.366 . S
C1199 C1198 1.366 . S
C1199 C1200 1.414 . S
C1199 C1202 1.499 . S
C1200 H1180 0.950 . S
C1200 C1199 1.414 . S
C1200 C1201 1.374 . S
C1201 H1181 0.950 . S
C1201 C1197 1.385 . S
C1201 C1200 1.374 . S
C1202 C1199 1.499 . S
C1202 C1203 1.373 . S
C1202 C1204 1.389 . S
C1203 H1182 0.950 . S
C1203 C1202 1.373 . S
C1203 C1219 1.377 . S
C1204 C1202 1.389 . S
C1204 C1205 1.524 . S
C1204 C1218 1.377 . S
C1205 C1204 1.524 . S
C1205 C1206 1.397 . S
C1205 C1210 1.363 . S
C1206 H1183 0.950 . S
C1206 C1205 1.397 . S
C1206 C1207 1.334 . S
C1207 H1184 0.950 . S
C1207 C1206 1.334 . S
C1207 C1208 1.287 . S
C1208 C1207 1.287 . S
C1208 C1209 1.524 . S
C1208 H1227 0.913 . S
C1209 H1185 0.950 . S
C1209 C1208 1.524 . S
C1209 C1210 1.415 . S
C1210 H1186 0.950 . S
C1210 C1205 1.363 . S
C1210 C1209 1.415 . S
C1211 H1187 0.951 . S
C1211 C1212 1.366 . S
C1211 C1213 1.388 . S
C1212 C1211 1.366 . S
C1212 C1216 1.385 . S
C1213 H1188 0.951 . S
C1213 C1211 1.388 . S
C1213 C1214 1.366 . S
C1214 C1213 1.366 . S
C1214 C1215 1.414 . S
C1214 C1217 1.499 . S
C1215 H1189 0.950 . S
C1215 C1214 1.414 . S
C1215 C1216 1.374 . S
C1216 H1190 0.950 . S
C1216 C1212 1.385 . S
C1216 C1215 1.374 . S
C1217 C1214 1.499 . S
C1217 C1218 1.373 . S
C1217 C1219 1.389 . S
C1218 H1191 0.950 . S
C1218 C1204 1.377 . S
C1218 C1217 1.373 . S
C1219 C1203 1.377 . S
C1219 C1217 1.389 . S
C1219 C1220 1.524 . S
C1220 C1219 1.524 . S
C1220 C1221 1.397 . S
C1220 C1225 1.363 . S
C1221 H1192 0.950 . S
C1221 C1220 1.397 . S
C1221 C1222 1.334 . S
C1222 H1193 0.950 . S
C1222 C1221 1.334 . S
C1222 C1223 1.287 . S
C1223 C1222 1.287 . S
C1223 C1224 1.524 . S
C1223 H1226 0.999 . S
C1224 H1194 0.950 . S
C1224 C1223 1.524 . S
C1224 C1225 1.415 . S
C1225 H1195 0.950 . S
C1225 C1220 1.363 . S
C1225 C1224 1.415 . S
H1226 C1223 0.999 . S
H1227 C1208 0.913 . S
H1228 C1246 0.951 . S
H1229 C1248 0.951 . S
H1230 C1250 0.950 . S
H1231 C1251 0.950 . S
H1232 C1253 0.950 . S
H1233 C1256 0.950 . S
H1234 C1257 0.950 . S
H1235 C1259 0.950 . S
H1236 C1260 0.950 . S
H1237 C1261 0.951 . S
H1238 C1263 0.951 . S
H1239 C1265 0.950 . S
H1240 C1266 0.950 . S
H1241 C1268 0.950 . S
H1242 C1271 0.950 . S
H1243 C1272 0.950 . S
H1244 C1274 0.950 . S
H1245 C1275 0.950 . S
C1246 H1228 0.951 . S
C1246 C1247 1.366 . S
C1246 C1248 1.388 . S
C1247 C1246 1.366 . S
C1247 C1251 1.385 . S
C1248 H1229 0.951 . S
C1248 C1246 1.388 . S
C1248 C1249 1.366 . S
C1249 C1248 1.366 . S
C1249 C1250 1.414 . S
C1249 C1252 1.499 . S
C1250 H1230 0.950 . S
C1250 C1249 1.414 . S
C1250 C1251 1.374 . S
C1251 H1231 0.950 . S
C1251 C1247 1.385 . S
C1251 C1250 1.374 . S
C1252 C1249 1.499 . S
C1252 C1253 1.373 . S
C1252 C1254 1.389 . S
C1253 H1232 0.950 . S
C1253 C1252 1.373 . S
C1253 C1269 1.377 . S
C1254 C1252 1.389 . S
C1254 C1255 1.524 . S
C1254 C1268 1.377 . S
C1255 C1254 1.524 . S
C1255 C1256 1.397 . S
C1255 C1260 1.363 . S
C1256 H1233 0.950 . S
C1256 C1255 1.397 . S
C1256 C1257 1.334 1_655 S
C1257 H1234 0.950 . S
C1257 C1256 1.334 1_455 S
C1257 C1258 1.287 . S
C1258 C1257 1.287 . S
C1258 C1259 1.524 1_455 S
C1258 H1277 0.913 . S
C1259 H1235 0.950 . S
C1259 C1258 1.524 1_655 S
C1259 C1260 1.415 . S
C1260 H1236 0.950 . S
C1260 C1255 1.363 . S
C1260 C1259 1.415 . S
C1261 H1237 0.951 . S
C1261 C1262 1.366 . S
C1261 C1263 1.388 . S
C1262 C1261 1.366 . S
C1262 C1266 1.385 . S
C1263 H1238 0.951 . S
C1263 C1261 1.388 . S
C1263 C1264 1.366 . S
C1264 C1263 1.366 . S
C1264 C1265 1.414 . S
C1264 C1267 1.499 . S
C1265 H1239 0.950 . S
C1265 C1264 1.414 . S
C1265 C1266 1.374 . S
C1266 H1240 0.950 . S
C1266 C1262 1.385 . S
C1266 C1265 1.374 . S
C1267 C1264 1.499 . S
C1267 C1268 1.373 . S
C1267 C1269 1.389 . S
C1268 H1241 0.950 . S
C1268 C1254 1.377 . S
C1268 C1267 1.373 . S
C1269 C1253 1.377 . S
C1269 C1267 1.389 . S
C1269 C1270 1.524 . S
C1270 C1269 1.524 . S
C1270 C1271 1.397 . S
C1270 C1275 1.363 . S
C1271 H1242 0.950 . S
C1271 C1270 1.397 . S
C1271 C1272 1.334 . S
C1272 H1243 0.950 . S
C1272 C1271 1.334 . S
C1272 C1273 1.287 . S
C1273 C1272 1.287 . S
C1273 C1274 1.524 . S
C1273 H1276 0.999 . S
C1274 H1244 0.950 . S
C1274 C1273 1.524 . S
C1274 C1275 1.415 . S
C1275 H1245 0.950 . S
C1275 C1270 1.363 . S
C1275 C1274 1.415 . S
H1276 C1273 0.999 . S
H1277 C1258 0.913 . S
H1278 C1296 0.951 . S
H1279 C1298 0.951 . S
H1280 C1300 0.950 . S
H1281 C1301 0.950 . S
H1282 C1303 0.950 . S
H1283 C1306 0.950 . S
H1284 C1307 0.950 . S
H1285 C1309 0.950 . S
H1286 C1310 0.950 . S
H1287 C1311 0.951 . S
H1288 C1313 0.951 . S
H1289 C1315 0.950 . S
H1290 C1316 0.950 . S
H1291 C1318 0.950 . S
H1292 C1321 0.950 . S
H1293 C1322 0.950 . S
H1294 C1324 0.950 . S
H1295 C1325 0.950 . S
C1296 H1278 0.951 . S
C1296 C1297 1.366 . S
C1296 C1298 1.388 . S
C1297 C1296 1.366 . S
C1297 C1301 1.385 . S
C1298 H1279 0.951 . S
C1298 C1296 1.388 . S
C1298 C1299 1.366 . S
C1299 C1298 1.366 . S
C1299 C1300 1.414 . S
C1299 C1302 1.499 . S
C1300 H1280 0.950 . S
C1300 C1299 1.414 . S
C1300 C1301 1.374 . S
C1301 H1281 0.950 . S
C1301 C1297 1.385 . S
C1301 C1300 1.374 . S
C1302 C1299 1.499 . S
C1302 C1303 1.373 . S
C1302 C1304 1.389 . S
C1303 H1282 0.950 . S
C1303 C1302 1.373 . S
C1303 C1319 1.377 . S
C1304 C1302 1.389 . S
C1304 C1305 1.524 . S
C1304 C1318 1.377 . S
C1305 C1304 1.524 . S
C1305 C1306 1.397 . S
C1305 C1310 1.363 . S
C1306 H1283 0.950 . S
C1306 C1305 1.397 . S
C1306 C1307 1.334 . S
C1307 H1284 0.950 . S
C1307 C1306 1.334 . S
C1307 C1308 1.287 . S
C1308 C1307 1.287 . S
C1308 C1309 1.524 . S
C1308 H1327 0.913 . S
C1309 H1285 0.950 . S
C1309 C1308 1.524 . S
C1309 C1310 1.415 . S
C1310 H1286 0.950 . S
C1310 C1305 1.363 . S
C1310 C1309 1.415 . S
C1311 H1287 0.951 . S
C1311 C1312 1.366 . S
C1311 C1313 1.388 1_556 S
C1312 C1311 1.366 . S
C1312 C1316 1.385 1_556 S
C1313 H1288 0.951 . S
C1313 C1311 1.388 1_554 S
C1313 C1314 1.366 . S
C1314 C1313 1.366 . S
C1314 C1315 1.414 . S
C1314 C1317 1.499 . S
C1315 H1289 0.950 . S
C1315 C1314 1.414 . S
C1315 C1316 1.374 . S
C1316 H1290 0.950 . S
C1316 C1312 1.385 1_554 S
C1316 C1315 1.374 . S
C1317 C1314 1.499 . S
C1317 C1318 1.373 . S
C1317 C1319 1.389 . S
C1318 H1291 0.950 . S
C1318 C1304 1.377 . S
C1318 C1317 1.373 . S
C1319 C1303 1.377 . S
C1319 C1317 1.389 . S
C1319 C1320 1.524 . S
C1320 C1319 1.524 . S
C1320 C1321 1.397 . S
C1320 C1325 1.363 . S
C1321 H1292 0.950 . S
C1321 C1320 1.397 . S
C1321 C1322 1.334 1_554 S
C1322 H1293 0.950 . S
C1322 C1321 1.334 1_556 S
C1322 C1323 1.287 . S
C1323 C1322 1.287 . S
C1323 C1324 1.524 . S
C1323 H1326 0.999 . S
C1324 H1294 0.950 . S
C1324 C1323 1.524 . S
C1324 C1325 1.415 1_556 S
C1325 H1295 0.950 . S
C1325 C1320 1.363 . S
C1325 C1324 1.415 1_554 S
H1326 C1323 0.999 . S
H1327 C1308 0.913 . S
H1328 C1346 0.951 . S
H1329 C1348 0.951 . S
H1330 C1350 0.950 . S
H1331 C1351 0.950 . S
H1332 C1353 0.950 . S
H1333 C1356 0.950 . S
H1334 C1357 0.950 . S
H1335 C1359 0.950 . S
H1336 C1360 0.950 . S
H1337 C1361 0.951 . S
H1338 C1363 0.951 . S
H1339 C1365 0.950 . S
H1340 C1366 0.950 . S
H1341 C1368 0.950 . S
H1342 C1371 0.950 . S
H1343 C1372 0.950 . S
H1344 C1374 0.950 . S
H1345 C1375 0.950 . S
C1346 H1328 0.951 . S
C1346 C1347 1.366 . S
C1346 C1348 1.388 . S
C1347 C1346 1.366 . S
C1347 C1351 1.385 . S
C1348 H1329 0.951 . S
C1348 C1346 1.388 . S
C1348 C1349 1.366 . S
C1349 C1348 1.366 . S
C1349 C1350 1.414 . S
C1349 C1352 1.499 . S
C1350 H1330 0.950 . S
C1350 C1349 1.414 . S
C1350 C1351 1.374 . S
C1351 H1331 0.950 . S
C1351 C1347 1.385 . S
C1351 C1350 1.374 . S
C1352 C1349 1.499 . S
C1352 C1353 1.373 . S
C1352 C1354 1.389 . S
C1353 H1332 0.950 . S
C1353 C1352 1.373 . S
C1353 C1369 1.377 . S
C1354 C1352 1.389 . S
C1354 C1355 1.524 . S
C1354 C1368 1.377 . S
C1355 C1354 1.524 . S
C1355 C1356 1.397 . S
C1355 C1360 1.363 . S
C1356 H1333 0.950 . S
C1356 C1355 1.397 . S
C1356 C1357 1.334 . S
C1357 H1334 0.950 . S
C1357 C1356 1.334 . S
C1357 C1358 1.287 . S
C1358 C1357 1.287 . S
C1358 C1359 1.524 . S
C1358 H1377 0.913 . S
C1359 H1335 0.950 . S
C1359 C1358 1.524 . S
C1359 C1360 1.415 . S
C1360 H1336 0.950 . S
C1360 C1355 1.363 . S
C1360 C1359 1.415 . S
C1361 H1337 0.951 . S
C1361 C1362 1.366 . S
C1361 C1363 1.388 . S
C1362 C1361 1.366 . S
C1362 C1366 1.385 . S
C1363 H1338 0.951 . S
C1363 C1361 1.388 . S
C1363 C1364 1.366 . S
C1364 C1363 1.366 . S
C1364 C1365 1.414 . S
C1364 C1367 1.499 . S
C1365 H1339 0.950 . S
C1365 C1364 1.414 . S
C1365 C1366 1.374 . S
C1366 H1340 0.950 . S
C1366 C1362 1.385 . S
C1366 C1365 1.374 . S
C1367 C1364 1.499 . S
C1367 C1368 1.373 . S
C1367 C1369 1.389 . S
C1368 H1341 0.950 . S
C1368 C1354 1.377 . S
C1368 C1367 1.373 . S
C1369 C1353 1.377 . S
C1369 C1367 1.389 . S
C1369 C1370 1.524 . S
C1370 C1369 1.524 . S
C1370 C1371 1.397 . S
C1370 C1375 1.363 . S
C1371 H1342 0.950 . S
C1371 C1370 1.397 . S
C1371 C1372 1.334 . S
C1372 H1343 0.950 . S
C1372 C1371 1.334 . S
C1372 C1373 1.287 . S
C1373 C1372 1.287 . S
C1373 C1374 1.524 . S
C1373 H1376 0.999 . S
C1374 H1344 0.950 . S
C1374 C1373 1.524 . S
C1374 C1375 1.415 . S
C1375 H1345 0.950 . S
C1375 C1370 1.363 . S
C1375 C1374 1.415 . S
H1376 C1373 0.999 . S
H1377 C1358 0.913 . S
H1378 C1396 0.951 . S
H1379 C1398 0.951 . S
H1380 C1400 0.950 . S
H1381 C1401 0.950 1_554 S
H1382 C1403 0.950 . S
H1383 C1406 0.950 . S
H1384 C1407 0.950 . S
H1385 C1409 0.950 . S
H1386 C1410 0.950 . S
H1387 C1411 0.951 . S
H1388 C1413 0.951 . S
H1389 C1415 0.950 . S
H1390 C1416 0.950 . S
H1391 C1418 0.950 . S
H1392 C1421 0.950 . S
H1393 C1422 0.950 . S
H1394 C1424 0.950 . S
H1395 C1425 0.950 . S
C1396 H1378 0.951 . S
C1396 C1397 1.366 . S
C1396 C1398 1.388 . S
C1397 C1396 1.366 . S
C1397 C1401 1.385 . S
C1398 H1379 0.951 . S
C1398 C1396 1.388 . S
C1398 C1399 1.366 . S
C1399 C1398 1.366 . S
C1399 C1400 1.414 . S
C1399 C1402 1.499 . S
C1400 H1380 0.950 . S
C1400 C1399 1.414 . S
C1400 C1401 1.374 . S
C1401 H1381 0.950 1_556 S
C1401 C1397 1.385 . S
C1401 C1400 1.374 . S
C1402 C1399 1.499 . S
C1402 C1403 1.373 . S
C1402 C1404 1.389 . S
C1403 H1382 0.950 . S
C1403 C1402 1.373 . S
C1403 C1419 1.377 . S
C1404 C1402 1.389 . S
C1404 C1405 1.524 . S
C1404 C1418 1.377 . S
C1405 C1404 1.524 . S
C1405 C1406 1.397 . S
C1405 C1410 1.363 . S
C1406 H1383 0.950 . S
C1406 C1405 1.397 . S
C1406 C1407 1.334 . S
C1407 H1384 0.950 . S
C1407 C1406 1.334 . S
C1407 C1408 1.287 . S
C1408 C1407 1.287 . S
C1408 C1409 1.524 . S
C1408 H1427 0.913 . S
C1409 H1385 0.950 . S
C1409 C1408 1.524 . S
C1409 C1410 1.415 . S
C1410 H1386 0.950 . S
C1410 C1405 1.363 . S
C1410 C1409 1.415 . S
C1411 H1387 0.951 . S
C1411 C1412 1.366 . S
C1411 C1413 1.388 . S
C1412 C1411 1.366 . S
C1412 C1416 1.385 . S
C1413 H1388 0.951 . S
C1413 C1411 1.388 . S
C1413 C1414 1.366 . S
C1414 C1413 1.366 . S
C1414 C1415 1.414 . S
C1414 C1417 1.499 . S
C1415 H1389 0.950 . S
C1415 C1414 1.414 . S
C1415 C1416 1.374 . S
C1416 H1390 0.950 . S
C1416 C1412 1.385 . S
C1416 C1415 1.374 . S
C1417 C1414 1.499 . S
C1417 C1418 1.373 . S
C1417 C1419 1.389 . S
C1418 H1391 0.950 . S
C1418 C1404 1.377 . S
C1418 C1417 1.373 . S
C1419 C1403 1.377 . S
C1419 C1417 1.389 . S
C1419 C1420 1.524 . S
C1420 C1419 1.524 . S
C1420 C1421 1.397 . S
C1420 C1425 1.363 . S
C1421 H1392 0.950 . S
C1421 C1420 1.397 . S
C1421 C1422 1.334 . S
C1422 H1393 0.950 . S
C1422 C1421 1.334 . S
C1422 C1423 1.287 . S
C1423 C1422 1.287 . S
C1423 C1424 1.524 . S
C1423 H1426 0.999 . S
C1424 H1394 0.950 . S
C1424 C1423 1.524 . S
C1424 C1425 1.415 . S
C1425 H1395 0.950 . S
C1425 C1420 1.363 . S
C1425 C1424 1.415 . S
H1426 C1423 0.999 . S
H1427 C1408 0.913 . S
H1428 C1446 0.951 . S
H1429 C1448 0.951 . S
H1430 C1450 0.950 . S
H1431 C1451 0.950 . S
H1432 C1453 0.950 . S
H1433 C1456 0.950 . S
H1434 C1457 0.950 . S
H1435 C1459 0.950 1_556 S
H1436 C1460 0.950 . S
H1437 C1461 0.951 . S
H1438 C1463 0.951 . S
H1439 C1465 0.950 . S
H1440 C1466 0.950 . S
H1441 C1468 0.950 . S
H1442 C1471 0.950 . S
H1443 C1472 0.950 . S
H1444 C1474 0.950 . S
H1445 C1475 0.950 . S
C1446 H1428 0.951 . S
C1446 C1447 1.366 1_556 S
C1446 C1448 1.388 1_556 S
C1447 C1446 1.366 1_554 S
C1447 C1451 1.385 . S
C1448 H1429 0.951 . S
C1448 C1446 1.388 1_554 S
C1448 C1449 1.366 . S
C1449 C1448 1.366 . S
C1449 C1450 1.414 . S
C1449 C1452 1.499 . S
C1450 H1430 0.950 . S
C1450 C1449 1.414 . S
C1450 C1451 1.374 . S
C1451 H1431 0.950 . S
C1451 C1447 1.385 . S
C1451 C1450 1.374 . S
C1452 C1449 1.499 . S
C1452 C1453 1.373 . S
C1452 C1454 1.389 . S
C1453 H1432 0.950 . S
C1453 C1452 1.373 . S
C1453 C1469 1.377 . S
C1454 C1452 1.389 . S
C1454 C1455 1.524 . S
C1454 C1468 1.377 . S
C1455 C1454 1.524 . S
C1455 C1456 1.397 . S
C1455 C1460 1.363 . S
C1456 H1433 0.950 . S
C1456 C1455 1.397 . S
C1456 C1457 1.334 . S
C1457 H1434 0.950 . S
C1457 C1456 1.334 . S
C1457 C1458 1.287 . S
C1458 C1457 1.287 . S
C1458 C1459 1.524 . S
C1458 H1477 0.913 1_554 S
C1459 H1435 0.950 1_554 S
C1459 C1458 1.524 . S
C1459 C1460 1.415 . S
C1460 H1436 0.950 . S
C1460 C1455 1.363 . S
C1460 C1459 1.415 . S
C1461 H1437 0.951 . S
C1461 C1462 1.366 . S
C1461 C1463 1.388 . S
C1462 C1461 1.366 . S
C1462 C1466 1.385 . S
C1463 H1438 0.951 . S
C1463 C1461 1.388 . S
C1463 C1464 1.366 . S
C1464 C1463 1.366 . S
C1464 C1465 1.414 . S
C1464 C1467 1.499 . S
C1465 H1439 0.950 . S
C1465 C1464 1.414 . S
C1465 C1466 1.374 . S
C1466 H1440 0.950 . S
C1466 C1462 1.385 . S
C1466 C1465 1.374 . S
C1467 C1464 1.499 . S
C1467 C1468 1.373 . S
C1467 C1469 1.389 . S
C1468 H1441 0.950 . S
C1468 C1454 1.377 . S
C1468 C1467 1.373 . S
C1469 C1453 1.377 . S
C1469 C1467 1.389 . S
C1469 C1470 1.524 . S
C1470 C1469 1.524 . S
C1470 C1471 1.397 . S
C1470 C1475 1.363 . S
C1471 H1442 0.950 . S
C1471 C1470 1.397 . S
C1471 C1472 1.334 . S
C1472 H1443 0.950 . S
C1472 C1471 1.334 . S
C1472 C1473 1.287 . S
C1473 C1472 1.287 . S
C1473 C1474 1.524 . S
C1473 H1476 0.999 . S
C1474 H1444 0.950 . S
C1474 C1473 1.524 . S
C1474 C1475 1.415 . S
C1475 H1445 0.950 . S
C1475 C1470 1.363 . S
C1475 C1474 1.415 . S
H1476 C1473 0.999 . S
H1477 C1458 0.913 1_556 S
H1478 C1496 0.951 . S
H1479 C1498 0.951 . S
H1480 C1500 0.950 . S
H1481 C1501 0.950 . S
H1482 C1503 0.950 . S
H1483 C1506 0.950 . S
H1484 C1507 0.950 . S
H1485 C1509 0.950 . S
H1486 C1510 0.950 . S
H1487 C1511 0.951 . S
H1488 C1513 0.951 . S
H1489 C1515 0.950 . S
H1490 C1516 0.950 . S
H1491 C1518 0.950 . S
H1492 C1521 0.950 . S
H1493 C1522 0.950 . S
H1494 C1524 0.950 . S
H1495 C1525 0.950 . S
C1496 H1478 0.951 . S
C1496 C1497 1.366 . S
C1496 C1498 1.388 . S
C1497 C1496 1.366 . S
C1497 C1501 1.385 . S
C1498 H1479 0.951 . S
C1498 C1496 1.388 . S
C1498 C1499 1.366 . S
C1499 C1498 1.366 . S
C1499 C1500 1.414 . S
C1499 C1502 1.499 . S
C1500 H1480 0.950 . S
C1500 C1499 1.414 . S
C1500 C1501 1.374 . S
C1501 H1481 0.950 . S
C1501 C1497 1.385 . S
C1501 C1500 1.374 . S
C1502 C1499 1.499 . S
C1502 C1503 1.373 . S
C1502 C1504 1.389 . S
C1503 H1482 0.950 . S
C1503 C1502 1.373 . S
C1503 C1519 1.377 . S
C1504 C1502 1.389 . S
C1504 C1505 1.524 . S
C1504 C1518 1.377 . S
C1505 C1504 1.524 . S
C1505 C1506 1.397 . S
C1505 C1510 1.363 . S
C1506 H1483 0.950 . S
C1506 C1505 1.397 . S
C1506 C1507 1.334 . S
C1507 H1484 0.950 . S
C1507 C1506 1.334 . S
C1507 C1508 1.287 . S
C1508 C1507 1.287 . S
C1508 C1509 1.524 . S
C1508 H1527 0.913 . S
C1509 H1485 0.950 . S
C1509 C1508 1.524 . S
C1509 C1510 1.415 . S
C1510 H1486 0.950 . S
C1510 C1505 1.363 . S
C1510 C1509 1.415 . S
C1511 H1487 0.951 . S
C1511 C1512 1.366 . S
C1511 C1513 1.388 . S
C1512 C1511 1.366 . S
C1512 C1516 1.385 . S
C1513 H1488 0.951 . S
C1513 C1511 1.388 . S
C1513 C1514 1.366 . S
C1514 C1513 1.366 . S
C1514 C1515 1.414 . S
C1514 C1517 1.499 . S
C1515 H1489 0.950 . S
C1515 C1514 1.414 . S
C1515 C1516 1.374 . S
C1516 H1490 0.950 . S
C1516 C1512 1.385 . S
C1516 C1515 1.374 . S
C1517 C1514 1.499 . S
C1517 C1518 1.373 . S
C1517 C1519 1.389 . S
C1518 H1491 0.950 . S
C1518 C1504 1.377 . S
C1518 C1517 1.373 . S
C1519 C1503 1.377 . S
C1519 C1517 1.389 . S
C1519 C1520 1.524 . S
C1520 C1519 1.524 . S
C1520 C1521 1.397 . S
C1520 C1525 1.363 . S
C1521 H1492 0.950 . S
C1521 C1520 1.397 . S
C1521 C1522 1.334 . S
C1522 H1493 0.950 . S
C1522 C1521 1.334 . S
C1522 C1523 1.287 . S
C1523 C1522 1.287 . S
C1523 C1524 1.524 . S
C1523 H1526 0.999 . S
C1524 H1494 0.950 . S
C1524 C1523 1.524 . S
C1524 C1525 1.415 . S
C1525 H1495 0.950 . S
C1525 C1520 1.363 . S
C1525 C1524 1.415 . S
H1526 C1523 0.999 . S
H1527 C1508 0.913 . S
H1528 C1546 0.951 . S
H1529 C1548 0.951 . S
H1530 C1550 0.950 . S
H1531 C1551 0.950 . S
H1532 C1553 0.950 . S
H1533 C1556 0.950 . S
H1534 C1557 0.950 . S
H1535 C1559 0.950 . S
H1536 C1560 0.950 . S
H1537 C1561 0.951 . S
H1538 C1563 0.951 . S
H1539 C1565 0.950 . S
H1540 C1566 0.950 . S
H1541 C1568 0.950 . S
H1542 C1571 0.950 . S
H1543 C1572 0.950 . S
H1544 C1574 0.950 . S
H1545 C1575 0.950 . S
C1546 H1528 0.951 . S
C1546 C1547 1.366 . S
C1546 C1548 1.388 . S
C1547 C1546 1.366 . S
C1547 C1551 1.385 . S
C1548 H1529 0.951 . S
C1548 C1546 1.388 . S
C1548 C1549 1.366 . S
C1549 C1548 1.366 . S
C1549 C1550 1.414 . S
C1549 C1552 1.499 . S
C1550 H1530 0.950 . S
C1550 C1549 1.414 . S
C1550 C1551 1.374 . S
C1551 H1531 0.950 . S
C1551 C1547 1.385 . S
C1551 C1550 1.374 . S
C1552 C1549 1.499 . S
C1552 C1553 1.373 . S
C1552 C1554 1.389 . S
C1553 H1532 0.950 . S
C1553 C1552 1.373 . S
C1553 C1569 1.377 . S
C1554 C1552 1.389 . S
C1554 C1555 1.524 . S
C1554 C1568 1.377 . S
C1555 C1554 1.524 . S
C1555 C1556 1.397 . S
C1555 C1560 1.363 . S
C1556 H1533 0.950 . S
C1556 C1555 1.397 . S
C1556 C1557 1.334 . S
C1557 H1534 0.950 . S
C1557 C1556 1.334 . S
C1557 C1558 1.287 . S
C1558 C1557 1.287 . S
C1558 C1559 1.524 . S
C1558 H1577 0.913 . S
C1559 H1535 0.950 . S
C1559 C1558 1.524 . S
C1559 C1560 1.415 . S
C1560 H1536 0.950 . S
C1560 C1555 1.363 . S
C1560 C1559 1.415 . S
C1561 H1537 0.951 . S
C1561 C1562 1.366 . S
C1561 C1563 1.388 . S
C1562 C1561 1.366 . S
C1562 C1566 1.385 . S
C1563 H1538 0.951 . S
C1563 C1561 1.388 . S
C1563 C1564 1.366 . S
C1564 C1563 1.366 . S
C1564 C1565 1.414 . S
C1564 C1567 1.499 . S
C1565 H1539 0.950 . S
C1565 C1564 1.414 . S
C1565 C1566 1.374 . S
C1566 H1540 0.950 . S
C1566 C1562 1.385 . S
C1566 C1565 1.374 . S
C1567 C1564 1.499 . S
C1567 C1568 1.373 . S
C1567 C1569 1.389 . S
C1568 H1541 0.950 . S
C1568 C1554 1.377 . S
C1568 C1567 1.373 . S
C1569 C1553 1.377 . S
C1569 C1567 1.389 . S
C1569 C1570 1.524 . S
C1570 C1569 1.524 . S
C1570 C1571 1.397 . S
C1570 C1575 1.363 . S
C1571 H1542 0.950 . S
C1571 C1570 1.397 . S
C1571 C1572 1.334 . S
C1572 H1543 0.950 . S
C1572 C1571 1.334 . S
C1572 C1573 1.287 . S
C1573 C1572 1.287 . S
C1573 C1574 1.524 . S
C1573 H1576 0.999 . S
C1574 H1544 0.950 . S
C1574 C1573 1.524 . S
C1574 C1575 1.415 . S
C1575 H1545 0.950 . S
C1575 C1570 1.363 . S
C1575 C1574 1.415 . S
H1576 C1573 0.999 . S
H1577 C1558 0.913 . S
H1578 C1596 0.951 . S
H1579 C1598 0.951 . S
H1580 C1600 0.950 . S
H1581 C1601 0.950 . S
H1582 C1603 0.950 . S
H1583 C1606 0.950 . S
H1584 C1607 0.950 . S
H1585 C1609 0.950 . S
H1586 C1610 0.950 . S
H1587 C1611 0.951 . S
H1588 C1613 0.951 . S
H1589 C1615 0.950 . S
H1590 C1616 0.950 . S
H1591 C1618 0.950 . S
H1592 C1621 0.950 . S
H1593 C1622 0.950 . S
H1594 C1624 0.950 . S
H1595 C1625 0.950 . S
C1596 H1578 0.951 . S
C1596 C1597 1.366 1_554 S
C1596 C1598 1.388 . S
C1597 C1596 1.366 1_556 S
C1597 C1601 1.385 . S
C1598 H1579 0.951 . S
C1598 C1596 1.388 . S
C1598 C1599 1.366 . S
C1599 C1598 1.366 . S
C1599 C1600 1.414 . S
C1599 C1602 1.499 . S
C1600 H1580 0.950 . S
C1600 C1599 1.414 . S
C1600 C1601 1.374 1_554 S
C1601 H1581 0.950 . S
C1601 C1597 1.385 . S
C1601 C1600 1.374 1_556 S
C1602 C1599 1.499 . S
C1602 C1603 1.373 . S
C1602 C1604 1.389 . S
C1603 H1582 0.950 . S
C1603 C1602 1.373 . S
C1603 C1619 1.377 . S
C1604 C1602 1.389 . S
C1604 C1605 1.524 . S
C1604 C1618 1.377 . S
C1605 C1604 1.524 . S
C1605 C1606 1.397 . S
C1605 C1610 1.363 . S
C1606 H1583 0.950 . S
C1606 C1605 1.397 . S
C1606 C1607 1.334 . S
C1607 H1584 0.950 . S
C1607 C1606 1.334 . S
C1607 C1608 1.287 . S
C1608 C1607 1.287 . S
C1608 C1609 1.524 . S
C1608 H1627 0.913 . S
C1609 H1585 0.950 . S
C1609 C1608 1.524 . S
C1609 C1610 1.415 . S
C1610 H1586 0.950 . S
C1610 C1605 1.363 . S
C1610 C1609 1.415 . S
C1611 H1587 0.951 . S
C1611 C1612 1.366 . S
C1611 C1613 1.388 . S
C1612 C1611 1.366 . S
C1612 C1616 1.385 . S
C1613 H1588 0.951 . S
C1613 C1611 1.388 . S
C1613 C1614 1.366 . S
C1614 C1613 1.366 . S
C1614 C1615 1.414 . S
C1614 C1617 1.499 . S
C1615 H1589 0.950 . S
C1615 C1614 1.414 . S
C1615 C1616 1.374 . S
C1616 H1590 0.950 . S
C1616 C1612 1.385 . S
C1616 C1615 1.374 . S
C1617 C1614 1.499 . S
C1617 C1618 1.373 . S
C1617 C1619 1.389 . S
C1618 H1591 0.950 . S
C1618 C1604 1.377 . S
C1618 C1617 1.373 . S
C1619 C1603 1.377 . S
C1619 C1617 1.389 . S
C1619 C1620 1.524 . S
C1620 C1619 1.524 . S
C1620 C1621 1.397 . S
C1620 C1625 1.363 . S
C1621 H1592 0.950 . S
C1621 C1620 1.397 . S
C1621 C1622 1.334 . S
C1622 H1593 0.950 . S
C1622 C1621 1.334 . S
C1622 C1623 1.287 . S
C1623 C1622 1.287 . S
C1623 C1624 1.524 . S
C1623 H1626 0.999 . S
C1624 H1594 0.950 . S
C1624 C1623 1.524 . S
C1624 C1625 1.415 . S
C1625 H1595 0.950 . S
C1625 C1620 1.363 . S
C1625 C1624 1.415 . S
H1626 C1623 0.999 . S
H1627 C1608 0.913 . S
H1628 C1646 0.951 . S
H1629 C1648 0.951 . S
H1630 C1650 0.950 . S
H1631 C1651 0.950 . S
H1632 C1653 0.950 . S
H1633 C1656 0.950 . S
H1634 C1657 0.950 1_554 S
H1635 C1659 0.950 . S
H1636 C1660 0.950 . S
H1637 C1661 0.951 . S
H1638 C1663 0.951 . S
H1639 C1665 0.950 . S
H1640 C1666 0.950 . S
H1641 C1668 0.950 . S
H1642 C1671 0.950 . S
H1643 C1672 0.950 . S
H1644 C1674 0.950 . S
H1645 C1675 0.950 . S
C1646 H1628 0.951 . S
C1646 C1647 1.366 1_556 S
C1646 C1648 1.388 . S
C1647 C1646 1.366 1_554 S
C1647 C1651 1.385 . S
C1648 H1629 0.951 . S
C1648 C1646 1.388 . S
C1648 C1649 1.366 . S
C1649 C1648 1.366 . S
C1649 C1650 1.414 . S
C1649 C1652 1.499 . S
C1650 H1630 0.950 . S
C1650 C1649 1.414 . S
C1650 C1651 1.374 1_556 S
C1651 H1631 0.950 . S
C1651 C1647 1.385 . S
C1651 C1650 1.374 1_554 S
C1652 C1649 1.499 . S
C1652 C1653 1.373 . S
C1652 C1654 1.389 . S
C1653 H1632 0.950 . S
C1653 C1652 1.373 . S
C1653 C1669 1.377 . S
C1654 C1652 1.389 . S
C1654 C1655 1.524 . S
C1654 C1668 1.377 . S
C1655 C1654 1.524 . S
C1655 C1656 1.397 . S
C1655 C1660 1.363 . S
C1656 H1633 0.950 . S
C1656 C1655 1.397 . S
C1656 C1657 1.334 . S
C1657 H1634 0.950 1_556 S
C1657 C1656 1.334 . S
C1657 C1658 1.287 . S
C1658 C1657 1.287 . S
C1658 C1659 1.524 . S
C1658 H1677 0.913 . S
C1659 H1635 0.950 . S
C1659 C1658 1.524 . S
C1659 C1660 1.415 . S
C1660 H1636 0.950 . S
C1660 C1655 1.363 . S
C1660 C1659 1.415 . S
C1661 H1637 0.951 . S
C1661 C1662 1.366 . S
C1661 C1663 1.388 . S
C1662 C1661 1.366 . S
C1662 C1666 1.385 . S
C1663 H1638 0.951 . S
C1663 C1661 1.388 . S
C1663 C1664 1.366 . S
C1664 C1663 1.366 . S
C1664 C1665 1.414 . S
C1664 C1667 1.499 . S
C1665 H1639 0.950 . S
C1665 C1664 1.414 . S
C1665 C1666 1.374 . S
C1666 H1640 0.950 . S
C1666 C1662 1.385 . S
C1666 C1665 1.374 . S
C1667 C1664 1.499 . S
C1667 C1668 1.373 . S
C1667 C1669 1.389 . S
C1668 H1641 0.950 . S
C1668 C1654 1.377 . S
C1668 C1667 1.373 . S
C1669 C1653 1.377 . S
C1669 C1667 1.389 . S
C1669 C1670 1.524 . S
C1670 C1669 1.524 . S
C1670 C1671 1.397 . S
C1670 C1675 1.363 . S
C1671 H1642 0.950 . S
C1671 C1670 1.397 . S
C1671 C1672 1.334 . S
C1672 H1643 0.950 . S
C1672 C1671 1.334 . S
C1672 C1673 1.287 . S
C1673 C1672 1.287 . S
C1673 C1674 1.524 . S
C1673 H1676 0.999 . S
C1674 H1644 0.950 . S
C1674 C1673 1.524 . S
C1674 C1675 1.415 . S
C1675 H1645 0.950 . S
C1675 C1670 1.363 . S
C1675 C1674 1.415 . S
H1676 C1673 0.999 . S
H1677 C1658 0.913 . S
H1678 C1696 0.951 . S
H1679 C1698 0.951 . S
H1680 C1700 0.950 . S
H1681 C1701 0.950 . S
H1682 C1703 0.950 . S
H1683 C1706 0.950 . S
H1684 C1707 0.950 . S
H1685 C1709 0.950 . S
H1686 C1710 0.950 . S
H1687 C1711 0.951 . S
H1688 C1713 0.951 . S
H1689 C1715 0.950 . S
H1690 C1716 0.950 . S
H1691 C1718 0.950 . S
H1692 C1721 0.950 . S
H1693 C1722 0.950 . S
H1694 C1724 0.950 . S
H1695 C1725 0.950 . S
C1696 H1678 0.951 . S
C1696 C1697 1.366 . S
C1696 C1698 1.388 . S
C1697 C1696 1.366 . S
C1697 C1701 1.385 . S
C1698 H1679 0.951 . S
C1698 C1696 1.388 . S
C1698 C1699 1.366 . S
C1699 C1698 1.366 . S
C1699 C1700 1.414 . S
C1699 C1702 1.499 . S
C1700 H1680 0.950 . S
C1700 C1699 1.414 . S
C1700 C1701 1.374 . S
C1701 H1681 0.950 . S
C1701 C1697 1.385 . S
C1701 C1700 1.374 . S
C1702 C1699 1.499 . S
C1702 C1703 1.373 . S
C1702 C1704 1.389 . S
C1703 H1682 0.950 . S
C1703 C1702 1.373 . S
C1703 C1719 1.377 . S
C1704 C1702 1.389 . S
C1704 C1705 1.524 . S
C1704 C1718 1.377 . S
C1705 C1704 1.524 . S
C1705 C1706 1.397 . S
C1705 C1710 1.363 . S
C1706 H1683 0.950 . S
C1706 C1705 1.397 . S
C1706 C1707 1.334 . S
C1707 H1684 0.950 . S
C1707 C1706 1.334 . S
C1707 C1708 1.287 . S
C1708 C1707 1.287 . S
C1708 C1709 1.524 . S
C1708 H1727 0.913 . S
C1709 H1685 0.950 . S
C1709 C1708 1.524 . S
C1709 C1710 1.415 . S
C1710 H1686 0.950 . S
C1710 C1705 1.363 . S
C1710 C1709 1.415 . S
C1711 H1687 0.951 . S
C1711 C1712 1.366 . S
C1711 C1713 1.388 . S
C1712 C1711 1.366 . S
C1712 C1716 1.385 . S
C1713 H1688 0.951 . S
C1713 C1711 1.388 . S
C1713 C1714 1.366 . S
C1714 C1713 1.366 . S
C1714 C1715 1.414 . S
C1714 C1717 1.499 . S
C1715 H1689 0.950 . S
C1715 C1714 1.414 . S
C1715 C1716 1.374 . S
C1716 H1690 0.950 . S
C1716 C1712 1.385 . S
C1716 C1715 1.374 . S
C1717 C1714 1.499 . S
C1717 C1718 1.373 . S
C1717 C1719 1.389 . S
C1718 H1691 0.950 . S
C1718 C1704 1.377 . S
C1718 C1717 1.373 . S
C1719 C1703 1.377 . S
C1719 C1717 1.389 . S
C1719 C1720 1.524 . S
C1720 C1719 1.524 . S
C1720 C1721 1.397 . S
C1720 C1725 1.363 . S
C1721 H1692 0.950 . S
C1721 C1720 1.397 . S
C1721 C1722 1.334 . S
C1722 H1693 0.950 . S
C1722 C1721 1.334 . S
C1722 C1723 1.287 . S
C1723 C1722 1.287 . S
C1723 C1724 1.524 . S
C1723 H1726 0.999 . S
C1724 H1694 0.950 . S
C1724 C1723 1.524 . S
C1724 C1725 1.415 . S
C1725 H1695 0.950 . S
C1725 C1720 1.363 . S
C1725 C1724 1.415 . S
H1726 C1723 0.999 . S
H1727 C1708 0.913 . S
H1728 C1746 0.951 . S
H1729 C1748 0.951 . S
H1730 C1750 0.950 . S
H1731 C1751 0.950 . S
H1732 C1753 0.950 . S
H1733 C1756 0.950 . S
H1734 C1757 0.950 . S
H1735 C1759 0.950 . S
H1736 C1760 0.950 . S
H1737 C1761 0.951 . S
H1738 C1763 0.951 . S
H1739 C1765 0.950 . S
H1740 C1766 0.950 . S
H1741 C1768 0.950 . S
H1742 C1771 0.950 . S
H1743 C1772 0.950 . S
H1744 C1774 0.950 . S
H1745 C1775 0.950 . S
C1746 H1728 0.951 . S
C1746 C1747 1.366 . S
C1746 C1748 1.388 . S
C1747 C1746 1.366 . S
C1747 C1751 1.385 . S
C1748 H1729 0.951 . S
C1748 C1746 1.388 . S
C1748 C1749 1.366 . S
C1749 C1748 1.366 . S
C1749 C1750 1.414 . S
C1749 C1752 1.499 . S
C1750 H1730 0.950 . S
C1750 C1749 1.414 . S
C1750 C1751 1.374 . S
C1751 H1731 0.950 . S
C1751 C1747 1.385 . S
C1751 C1750 1.374 . S
C1752 C1749 1.499 . S
C1752 C1753 1.373 . S
C1752 C1754 1.389 . S
C1753 H1732 0.950 . S
C1753 C1752 1.373 . S
C1753 C1769 1.377 . S
C1754 C1752 1.389 . S
C1754 C1755 1.524 . S
C1754 C1768 1.377 . S
C1755 C1754 1.524 . S
C1755 C1756 1.397 . S
C1755 C1760 1.363 . S
C1756 H1733 0.950 . S
C1756 C1755 1.397 . S
C1756 C1757 1.334 . S
C1757 H1734 0.950 . S
C1757 C1756 1.334 . S
C1757 C1758 1.287 . S
C1758 C1757 1.287 . S
C1758 C1759 1.524 . S
C1758 H1777 0.913 . S
C1759 H1735 0.950 . S
C1759 C1758 1.524 . S
C1759 C1760 1.415 . S
C1760 H1736 0.950 . S
C1760 C1755 1.363 . S
C1760 C1759 1.415 . S
C1761 H1737 0.951 . S
C1761 C1762 1.366 . S
C1761 C1763 1.388 . S
C1762 C1761 1.366 . S
C1762 C1766 1.385 . S
C1763 H1738 0.951 . S
C1763 C1761 1.388 . S
C1763 C1764 1.366 . S
C1764 C1763 1.366 . S
C1764 C1765 1.414 . S
C1764 C1767 1.499 . S
C1765 H1739 0.950 . S
C1765 C1764 1.414 . S
C1765 C1766 1.374 . S
C1766 H1740 0.950 . S
C1766 C1762 1.385 . S
C1766 C1765 1.374 . S
C1767 C1764 1.499 . S
C1767 C1768 1.373 . S
C1767 C1769 1.389 . S
C1768 H1741 0.950 . S
C1768 C1754 1.377 . S
C1768 C1767 1.373 . S
C1769 C1753 1.377 . S
C1769 C1767 1.389 . S
C1769 C1770 1.524 . S
C1770 C1769 1.524 . S
C1770 C1771 1.397 . S
C1770 C1775 1.363 . S
C1771 H1742 0.950 . S
C1771 C1770 1.397 . S
C1771 C1772 1.334 . S
C1772 H1743 0.950 . S
C1772 C1771 1.334 . S
C1772 C1773 1.287 . S
C1773 C1772 1.287 . S
C1773 C1774 1.524 . S
C1773 H1776 0.999 . S
C1774 H1744 0.950 . S
C1774 C1773 1.524 . S
C1774 C1775 1.415 . S
C1775 H1745 0.950 . S
C1775 C1770 1.363 . S
C1775 C1774 1.415 . S
H1776 C1773 0.999 . S
H1777 C1758 0.913 . S
H1778 C1796 0.951 . S
H1779 C1798 0.951 . S
H1780 C1800 0.950 . S
H1781 C1801 0.950 . S
H1782 C1803 0.950 . S
H1783 C1806 0.950 . S
H1784 C1807 0.950 . S
H1785 C1809 0.950 . S
H1786 C1810 0.950 . S
H1787 C1811 0.951 . S
H1788 C1813 0.951 . S
H1789 C1815 0.950 . S
H1790 C1816 0.950 . S
H1791 C1818 0.950 . S
H1792 C1821 0.950 . S
H1793 C1822 0.950 . S
H1794 C1824 0.950 . S
H1795 C1825 0.950 . S
C1796 H1778 0.951 . S
C1796 C1797 1.366 1_556 S
C1796 C1798 1.388 . S
C1797 C1796 1.366 1_554 S
C1797 C1801 1.385 . S
C1798 H1779 0.951 . S
C1798 C1796 1.388 . S
C1798 C1799 1.366 . S
C1799 C1798 1.366 . S
C1799 C1800 1.414 . S
C1799 C1802 1.499 . S
C1800 H1780 0.950 . S
C1800 C1799 1.414 . S
C1800 C1801 1.374 1_556 S
C1801 H1781 0.950 . S
C1801 C1797 1.385 . S
C1801 C1800 1.374 1_554 S
C1802 C1799 1.499 . S
C1802 C1803 1.373 . S
C1802 C1804 1.389 . S
C1803 H1782 0.950 . S
C1803 C1802 1.373 . S
C1803 C1819 1.377 . S
C1804 C1802 1.389 . S
C1804 C1805 1.524 . S
C1804 C1818 1.377 . S
C1805 C1804 1.524 . S
C1805 C1806 1.397 . S
C1805 C1810 1.363 . S
C1806 H1783 0.950 . S
C1806 C1805 1.397 . S
C1806 C1807 1.334 . S
C1807 H1784 0.950 . S
C1807 C1806 1.334 . S
C1807 C1808 1.287 . S
C1808 C1807 1.287 . S
C1808 C1809 1.524 . S
C1808 H1827 0.913 . S
C1809 H1785 0.950 . S
C1809 C1808 1.524 . S
C1809 C1810 1.415 . S
C1810 H1786 0.950 . S
C1810 C1805 1.363 . S
C1810 C1809 1.415 . S
C1811 H1787 0.951 . S
C1811 C1812 1.366 . S
C1811 C1813 1.388 . S
C1812 C1811 1.366 . S
C1812 C1816 1.385 . S
C1813 H1788 0.951 . S
C1813 C1811 1.388 . S
C1813 C1814 1.366 . S
C1814 C1813 1.366 . S
C1814 C1815 1.414 . S
C1814 C1817 1.499 . S
C1815 H1789 0.950 . S
C1815 C1814 1.414 . S
C1815 C1816 1.374 . S
C1816 H1790 0.950 . S
C1816 C1812 1.385 . S
C1816 C1815 1.374 . S
C1817 C1814 1.499 . S
C1817 C1818 1.373 . S
C1817 C1819 1.389 . S
C1818 H1791 0.950 . S
C1818 C1804 1.377 . S
C1818 C1817 1.373 . S
C1819 C1803 1.377 . S
C1819 C1817 1.389 . S
C1819 C1820 1.524 . S
C1820 C1819 1.524 . S
C1820 C1821 1.397 . S
C1820 C1825 1.363 . S
C1821 H1792 0.950 . S
C1821 C1820 1.397 . S
C1821 C1822 1.334 . S
C1822 H1793 0.950 . S
C1822 C1821 1.334 . S
C1822 C1823 1.287 . S
C1823 C1822 1.287 . S
C1823 C1824 1.524 . S
C1823 H1826 0.999 . S
C1824 H1794 0.950 . S
C1824 C1823 1.524 . S
C1824 C1825 1.415 . S
C1825 H1795 0.950 . S
C1825 C1820 1.363 . S
C1825 C1824 1.415 . S
H1826 C1823 0.999 . S
H1827 C1808 0.913 . S
H1828 C1846 0.951 . S
H1829 C1848 0.951 . S
H1830 C1850 0.950 . S
H1831 C1851 0.950 . S
H1832 C1853 0.950 . S
H1833 C1856 0.950 . S
H1834 C1857 0.950 . S
H1835 C1859 0.950 . S
H1836 C1860 0.950 . S
H1837 C1861 0.951 . S
H1838 C1863 0.951 . S
H1839 C1865 0.950 . S
H1840 C1866 0.950 . S
H1841 C1868 0.950 . S
H1842 C1871 0.950 . S
H1843 C1872 0.950 . S
H1844 C1874 0.950 . S
H1845 C1875 0.950 . S
C1846 H1828 0.951 . S
C1846 C1847 1.366 . S
C1846 C1848 1.388 1_556 S
C1847 C1846 1.366 . S
C1847 C1851 1.385 1_556 S
C1848 H1829 0.951 . S
C1848 C1846 1.388 1_554 S
C1848 C1849 1.366 . S
C1849 C1848 1.366 . S
C1849 C1850 1.414 . S
C1849 C1852 1.499 . S
C1850 H1830 0.950 . S
C1850 C1849 1.414 . S
C1850 C1851 1.374 . S
C1851 H1831 0.950 . S
C1851 C1847 1.385 1_554 S
C1851 C1850 1.374 . S
C1852 C1849 1.499 . S
C1852 C1853 1.373 . S
C1852 C1854 1.389 . S
C1853 H1832 0.950 . S
C1853 C1852 1.373 . S
C1853 C1869 1.377 . S
C1854 C1852 1.389 . S
C1854 C1855 1.524 . S
C1854 C1868 1.377 . S
C1855 C1854 1.524 . S
C1855 C1856 1.397 . S
C1855 C1860 1.363 . S
C1856 H1833 0.950 . S
C1856 C1855 1.397 . S
C1856 C1857 1.334 . S
C1857 H1834 0.950 . S
C1857 C1856 1.334 . S
C1857 C1858 1.287 . S
C1858 C1857 1.287 . S
C1858 C1859 1.524 . S
C1858 H1877 0.913 1_455 S
C1859 H1835 0.950 . S
C1859 C1858 1.524 . S
C1859 C1860 1.415 . S
C1860 H1836 0.950 . S
C1860 C1855 1.363 . S
C1860 C1859 1.415 . S
C1861 H1837 0.951 . S
C1861 C1862 1.366 . S
C1861 C1863 1.388 . S
C1862 C1861 1.366 . S
C1862 C1866 1.385 . S
C1863 H1838 0.951 . S
C1863 C1861 1.388 . S
C1863 C1864 1.366 . S
C1864 C1863 1.366 . S
C1864 C1865 1.414 . S
C1864 C1867 1.499 . S
C1865 H1839 0.950 . S
C1865 C1864 1.414 . S
C1865 C1866 1.374 . S
C1866 H1840 0.950 . S
C1866 C1862 1.385 . S
C1866 C1865 1.374 . S
C1867 C1864 1.499 . S
C1867 C1868 1.373 . S
C1867 C1869 1.389 . S
C1868 H1841 0.950 . S
C1868 C1854 1.377 . S
C1868 C1867 1.373 . S
C1869 C1853 1.377 . S
C1869 C1867 1.389 . S
C1869 C1870 1.524 . S
C1870 C1869 1.524 . S
C1870 C1871 1.397 . S
C1870 C1875 1.363 . S
C1871 H1842 0.950 . S
C1871 C1870 1.397 . S
C1871 C1872 1.334 . S
C1872 H1843 0.950 . S
C1872 C1871 1.334 . S
C1872 C1873 1.287 . S
C1873 C1872 1.287 . S
C1873 C1874 1.524 . S
C1873 H1876 0.999 . S
C1874 H1844 0.950 . S
C1874 C1873 1.524 . S
C1874 C1875 1.415 . S
C1875 H1845 0.950 . S
C1875 C1870 1.363 . S
C1875 C1874 1.415 . S
H1876 C1873 0.999 . S
H1877 C1858 0.913 1_655 S
H1878 C1896 0.951 . S
H1879 C1898 0.951 . S
H1880 C1900 0.950 . S
H1881 C1901 0.950 . S
H1882 C1903 0.950 . S
H1883 C1906 0.950 . S
H1884 C1907 0.950 . S
H1885 C1909 0.950 . S
H1886 C1910 0.950 . S
H1887 C1911 0.951 . S
H1888 C1913 0.951 . S
H1889 C1915 0.950 . S
H1890 C1916 0.950 . S
H1891 C1918 0.950 . S
H1892 C1921 0.950 . S
H1893 C1922 0.950 . S
H1894 C1924 0.950 . S
H1895 C1925 0.950 . S
C1896 H1878 0.951 . S
C1896 C1897 1.366 . S
C1896 C1898 1.388 . S
C1897 C1896 1.366 . S
C1897 C1901 1.385 . S
C1898 H1879 0.951 . S
C1898 C1896 1.388 . S
C1898 C1899 1.366 . S
C1899 C1898 1.366 . S
C1899 C1900 1.414 . S
C1899 C1902 1.499 . S
C1900 H1880 0.950 . S
C1900 C1899 1.414 . S
C1900 C1901 1.374 . S
C1901 H1881 0.950 . S
C1901 C1897 1.385 . S
C1901 C1900 1.374 . S
C1902 C1899 1.499 . S
C1902 C1903 1.373 . S
C1902 C1904 1.389 . S
C1903 H1882 0.950 . S
C1903 C1902 1.373 . S
C1903 C1919 1.377 . S
C1904 C1902 1.389 . S
C1904 C1905 1.524 . S
C1904 C1918 1.377 . S
C1905 C1904 1.524 . S
C1905 C1906 1.397 . S
C1905 C1910 1.363 . S
C1906 H1883 0.950 . S
C1906 C1905 1.397 . S
C1906 C1907 1.334 . S
C1907 H1884 0.950 . S
C1907 C1906 1.334 . S
C1907 C1908 1.287 . S
C1908 C1907 1.287 . S
C1908 C1909 1.524 . S
C1908 H1927 0.913 . S
C1909 H1885 0.950 . S
C1909 C1908 1.524 . S
C1909 C1910 1.415 . S
C1910 H1886 0.950 . S
C1910 C1905 1.363 . S
C1910 C1909 1.415 . S
C1911 H1887 0.951 . S
C1911 C1912 1.366 . S
C1911 C1913 1.388 . S
C1912 C1911 1.366 . S
C1912 C1916 1.385 . S
C1913 H1888 0.951 . S
C1913 C1911 1.388 . S
C1913 C1914 1.366 . S
C1914 C1913 1.366 . S
C1914 C1915 1.414 . S
C1914 C1917 1.499 . S
C1915 H1889 0.950 . S
C1915 C1914 1.414 . S
C1915 C1916 1.374 . S
C1916 H1890 0.950 . S
C1916 C1912 1.385 . S
C1916 C1915 1.374 . S
C1917 C1914 1.499 . S
C1917 C1918 1.373 . S
C1917 C1919 1.389 . S
C1918 H1891 0.950 . S
C1918 C1904 1.377 . S
C1918 C1917 1.373 . S
C1919 C1903 1.377 . S
C1919 C1917 1.389 . S
C1919 C1920 1.524 . S
C1920 C1919 1.524 . S
C1920 C1921 1.397 . S
C1920 C1925 1.363 . S
C1921 H1892 0.950 . S
C1921 C1920 1.397 . S
C1921 C1922 1.334 . S
C1922 H1893 0.950 . S
C1922 C1921 1.334 . S
C1922 C1923 1.287 . S
C1923 C1922 1.287 . S
C1923 C1924 1.524 . S
C1923 H1926 0.999 . S
C1924 H1894 0.950 . S
C1924 C1923 1.524 . S
C1924 C1925 1.415 . S
C1925 H1895 0.950 . S
C1925 C1920 1.363 . S
C1925 C1924 1.415 . S
H1926 C1923 0.999 . S
H1927 C1908 0.913 . S
H1928 C1946 0.951 . S
H1929 C1948 0.951 . S
H1930 C1950 0.950 . S
H1931 C1951 0.950 . S
H1932 C1953 0.950 . S
H1933 C1956 0.950 . S
H1934 C1957 0.950 . S
H1935 C1959 0.950 . S
H1936 C1960 0.950 . S
H1937 C1961 0.951 . S
H1938 C1963 0.951 . S
H1939 C1965 0.950 . S
H1940 C1966 0.950 . S
H1941 C1968 0.950 . S
H1942 C1971 0.950 . S
H1943 C1972 0.950 . S
H1944 C1974 0.950 . S
H1945 C1975 0.950 . S
C1946 H1928 0.951 . S
C1946 C1947 1.366 . S
C1946 C1948 1.388 . S
C1947 C1946 1.366 . S
C1947 C1951 1.385 . S
C1948 H1929 0.951 . S
C1948 C1946 1.388 . S
C1948 C1949 1.366 . S
C1949 C1948 1.366 . S
C1949 C1950 1.414 . S
C1949 C1952 1.499 . S
C1950 H1930 0.950 . S
C1950 C1949 1.414 . S
C1950 C1951 1.374 . S
C1951 H1931 0.950 . S
C1951 C1947 1.385 . S
C1951 C1950 1.374 . S
C1952 C1949 1.499 . S
C1952 C1953 1.373 . S
C1952 C1954 1.389 . S
C1953 H1932 0.950 . S
C1953 C1952 1.373 . S
C1953 C1969 1.377 . S
C1954 C1952 1.389 . S
C1954 C1955 1.524 . S
C1954 C1968 1.377 . S
C1955 C1954 1.524 . S
C1955 C1956 1.397 . S
C1955 C1960 1.363 . S
C1956 H1933 0.950 . S
C1956 C1955 1.397 . S
C1956 C1957 1.334 . S
C1957 H1934 0.950 . S
C1957 C1956 1.334 . S
C1957 C1958 1.287 . S
C1958 C1957 1.287 . S
C1958 C1959 1.524 . S
C1958 H1977 0.913 . S
C1959 H1935 0.950 . S
C1959 C1958 1.524 . S
C1959 C1960 1.415 . S
C1960 H1936 0.950 . S
C1960 C1955 1.363 . S
C1960 C1959 1.415 . S
C1961 H1937 0.951 . S
C1961 C1962 1.366 . S
C1961 C1963 1.388 . S
C1962 C1961 1.366 . S
C1962 C1966 1.385 . S
C1963 H1938 0.951 . S
C1963 C1961 1.388 . S
C1963 C1964 1.366 . S
C1964 C1963 1.366 . S
C1964 C1965 1.414 . S
C1964 C1967 1.499 . S
C1965 H1939 0.950 . S
C1965 C1964 1.414 . S
C1965 C1966 1.374 . S
C1966 H1940 0.950 . S
C1966 C1962 1.385 . S
C1966 C1965 1.374 . S
C1967 C1964 1.499 . S
C1967 C1968 1.373 . S
C1967 C1969 1.389 . S
C1968 H1941 0.950 . S
C1968 C1954 1.377 . S
C1968 C1967 1.373 . S
C1969 C1953 1.377 . S
C1969 C1967 1.389 . S
C1969 C1970 1.524 . S
C1970 C1969 1.524 . S
C1970 C1971 1.397 . S
C1970 C1975 1.363 . S
C1971 H1942 0.950 . S
C1971 C1970 1.397 . S
C1971 C1972 1.334 . S
C1972 H1943 0.950 . S
C1972 C1971 1.334 . S
C1972 C1973 1.287 . S
C1973 C1972 1.287 . S
C1973 C1974 1.524 . S
C1973 H1976 0.999 . S
C1974 H1944 0.950 . S
C1974 C1973 1.524 . S
C1974 C1975 1.415 . S
C1975 H1945 0.950 . S
C1975 C1970 1.363 . S
C1975 C1974 1.415 . S
H1976 C1973 0.999 . S
H1977 C1958 0.913 . S
H1978 C1996 0.951 . S
H1979 C1998 0.951 . S
H1980 C2000 0.950 . S
H1981 C2001 0.950 . S
H1982 C2003 0.950 . S
H1983 C2006 0.950 . S
H1984 C2007 0.950 . S
H1985 C2009 0.950 . S
H1986 C2010 0.950 . S
H1987 C2011 0.951 . S
H1988 C2013 0.951 . S
H1989 C2015 0.950 . S
H1990 C2016 0.950 1_556 S
H1991 C2018 0.950 . S
H1992 C2021 0.950 . S
H1993 C2022 0.950 . S
H1994 C2024 0.950 . S
H1995 C2025 0.950 . S
C1996 H1978 0.951 . S
C1996 C1997 1.366 . S
C1996 C1998 1.388 . S
C1997 C1996 1.366 . S
C1997 C2001 1.385 . S
C1998 H1979 0.951 . S
C1998 C1996 1.388 . S
C1998 C1999 1.366 . S
C1999 C1998 1.366 . S
C1999 C2000 1.414 . S
C1999 C2002 1.499 . S
C2000 H1980 0.950 . S
C2000 C1999 1.414 . S
C2000 C2001 1.374 . S
C2001 H1981 0.950 . S
C2001 C1997 1.385 . S
C2001 C2000 1.374 . S
C2002 C1999 1.499 . S
C2002 C2003 1.373 . S
C2002 C2004 1.389 . S
C2003 H1982 0.950 . S
C2003 C2002 1.373 . S
C2003 C2019 1.377 . S
C2004 C2002 1.389 . S
C2004 C2005 1.524 . S
C2004 C2018 1.377 . S
C2005 C2004 1.524 . S
C2005 C2006 1.397 . S
C2005 C2010 1.363 . S
C2006 H1983 0.950 . S
C2006 C2005 1.397 . S
C2006 C2007 1.334 . S
C2007 H1984 0.950 . S
C2007 C2006 1.334 . S
C2007 C2008 1.287 . S
C2008 C2007 1.287 . S
C2008 C2009 1.524 . S
C2008 H2027 0.913 . S
C2009 H1985 0.950 . S
C2009 C2008 1.524 . S
C2009 C2010 1.415 . S
C2010 H1986 0.950 . S
C2010 C2005 1.363 . S
C2010 C2009 1.415 . S
C2011 H1987 0.951 . S
C2011 C2012 1.366 . S
C2011 C2013 1.388 . S
C2012 C2011 1.366 . S
C2012 C2016 1.385 . S
C2013 H1988 0.951 . S
C2013 C2011 1.388 . S
C2013 C2014 1.366 . S
C2014 C2013 1.366 . S
C2014 C2015 1.414 . S
C2014 C2017 1.499 . S
C2015 H1989 0.950 . S
C2015 C2014 1.414 . S
C2015 C2016 1.374 . S
C2016 H1990 0.950 1_554 S
C2016 C2012 1.385 . S
C2016 C2015 1.374 . S
C2017 C2014 1.499 . S
C2017 C2018 1.373 . S
C2017 C2019 1.389 . S
C2018 H1991 0.950 . S
C2018 C2004 1.377 . S
C2018 C2017 1.373 . S
C2019 C2003 1.377 . S
C2019 C2017 1.389 . S
C2019 C2020 1.524 . S
C2020 C2019 1.524 . S
C2020 C2021 1.397 . S
C2020 C2025 1.363 . S
C2021 H1992 0.950 . S
C2021 C2020 1.397 . S
C2021 C2022 1.334 . S
C2022 H1993 0.950 . S
C2022 C2021 1.334 . S
C2022 C2023 1.287 . S
C2023 C2022 1.287 . S
C2023 C2024 1.524 . S
C2023 H2026 0.999 . S
C2024 H1994 0.950 . S
C2024 C2023 1.524 . S
C2024 C2025 1.415 . S
C2025 H1995 0.950 . S
C2025 C2020 1.363 . S
C2025 C2024 1.415 . S
H2026 C2023 0.999 . S
H2027 C2008 0.913 . S
H2028 C2046 0.951 . S
H2029 C2048 0.951 . S
H2030 C2050 0.950 . S
H2031 C2051 0.950 . S
H2032 C2053 0.950 . S
H2033 C2056 0.950 . S
H2034 C2057 0.950 . S
H2035 C2059 0.950 . S
H2036 C2060 0.950 . S
H2037 C2061 0.951 . S
H2038 C2063 0.951 . S
H2039 C2065 0.950 . S
H2040 C2066 0.950 . S
H2041 C2068 0.950 . S
H2042 C2071 0.950 . S
H2043 C2072 0.950 . S
H2044 C2074 0.950 1_554 S
H2045 C2075 0.950 . S
C2046 H2028 0.951 . S
C2046 C2047 1.366 . S
C2046 C2048 1.388 . S
C2047 C2046 1.366 . S
C2047 C2051 1.385 . S
C2048 H2029 0.951 . S
C2048 C2046 1.388 . S
C2048 C2049 1.366 . S
C2049 C2048 1.366 . S
C2049 C2050 1.414 . S
C2049 C2052 1.499 . S
C2050 H2030 0.950 . S
C2050 C2049 1.414 . S
C2050 C2051 1.374 . S
C2051 H2031 0.950 . S
C2051 C2047 1.385 . S
C2051 C2050 1.374 . S
C2052 C2049 1.499 . S
C2052 C2053 1.373 . S
C2052 C2054 1.389 . S
C2053 H2032 0.950 . S
C2053 C2052 1.373 . S
C2053 C2069 1.377 . S
C2054 C2052 1.389 . S
C2054 C2055 1.524 . S
C2054 C2068 1.377 . S
C2055 C2054 1.524 . S
C2055 C2056 1.397 . S
C2055 C2060 1.363 . S
C2056 H2033 0.950 . S
C2056 C2055 1.397 . S
C2056 C2057 1.334 . S
C2057 H2034 0.950 . S
C2057 C2056 1.334 . S
C2057 C2058 1.287 . S
C2058 C2057 1.287 . S
C2058 C2059 1.524 . S
C2058 H2077 0.913 . S
C2059 H2035 0.950 . S
C2059 C2058 1.524 . S
C2059 C2060 1.415 . S
C2060 H2036 0.950 . S
C2060 C2055 1.363 . S
C2060 C2059 1.415 . S
C2061 H2037 0.951 . S
C2061 C2062 1.366 . S
C2061 C2063 1.388 . S
C2062 C2061 1.366 . S
C2062 C2066 1.385 . S
C2063 H2038 0.951 . S
C2063 C2061 1.388 . S
C2063 C2064 1.366 . S
C2064 C2063 1.366 . S
C2064 C2065 1.414 . S
C2064 C2067 1.499 . S
C2065 H2039 0.950 . S
C2065 C2064 1.414 . S
C2065 C2066 1.374 . S
C2066 H2040 0.950 . S
C2066 C2062 1.385 . S
C2066 C2065 1.374 . S
C2067 C2064 1.499 . S
C2067 C2068 1.373 . S
C2067 C2069 1.389 . S
C2068 H2041 0.950 . S
C2068 C2054 1.377 . S
C2068 C2067 1.373 . S
C2069 C2053 1.377 . S
C2069 C2067 1.389 . S
C2069 C2070 1.524 . S
C2070 C2069 1.524 . S
C2070 C2071 1.397 . S
C2070 C2075 1.363 . S
C2071 H2042 0.950 . S
C2071 C2070 1.397 . S
C2071 C2072 1.334 1_556 S
C2072 H2043 0.950 . S
C2072 C2071 1.334 1_554 S
C2072 C2073 1.287 . S
C2073 C2072 1.287 . S
C2073 C2074 1.524 1_554 S
C2073 H2076 0.999 . S
C2074 H2044 0.950 1_556 S
C2074 C2073 1.524 1_556 S
C2074 C2075 1.415 . S
C2075 H2045 0.950 . S
C2075 C2070 1.363 . S
C2075 C2074 1.415 . S
H2076 C2073 0.999 . S
H2077 C2058 0.913 . S
H2078 C2096 0.951 . S
H2079 C2098 0.951 . S
H2080 C2100 0.950 . S
H2081 C2101 0.950 . S
H2082 C2103 0.950 . S
H2083 C2106 0.950 . S
H2084 C2107 0.950 . S
H2085 C2109 0.950 . S
H2086 C2110 0.950 . S
H2087 C2111 0.951 . S
H2088 C2113 0.951 . S
H2089 C2115 0.950 . S
H2090 C2116 0.950 . S
H2091 C2118 0.950 . S
H2092 C2121 0.950 . S
H2093 C2122 0.950 . S
H2094 C2124 0.950 . S
H2095 C2125 0.950 . S
C2096 H2078 0.951 . S
C2096 C2097 1.366 . S
C2096 C2098 1.388 . S
C2097 C2096 1.366 . S
C2097 C2101 1.385 . S
C2098 H2079 0.951 . S
C2098 C2096 1.388 . S
C2098 C2099 1.366 . S
C2099 C2098 1.366 . S
C2099 C2100 1.414 . S
C2099 C2102 1.499 . S
C2100 H2080 0.950 . S
C2100 C2099 1.414 . S
C2100 C2101 1.374 . S
C2101 H2081 0.950 . S
C2101 C2097 1.385 . S
C2101 C2100 1.374 . S
C2102 C2099 1.499 . S
C2102 C2103 1.373 . S
C2102 C2104 1.389 . S
C2103 H2082 0.950 . S
C2103 C2102 1.373 . S
C2103 C2119 1.377 . S
C2104 C2102 1.389 . S
C2104 C2105 1.524 . S
C2104 C2118 1.377 . S
C2105 C2104 1.524 . S
C2105 C2106 1.397 . S
C2105 C2110 1.363 . S
C2106 H2083 0.950 . S
C2106 C2105 1.397 . S
C2106 C2107 1.334 . S
C2107 H2084 0.950 . S
C2107 C2106 1.334 . S
C2107 C2108 1.287 . S
C2108 C2107 1.287 . S
C2108 C2109 1.524 . S
C2108 H2127 0.913 . S
C2109 H2085 0.950 . S
C2109 C2108 1.524 . S
C2109 C2110 1.415 . S
C2110 H2086 0.950 . S
C2110 C2105 1.363 . S
C2110 C2109 1.415 . S
C2111 H2087 0.951 . S
C2111 C2112 1.366 . S
C2111 C2113 1.388 . S
C2112 C2111 1.366 . S
C2112 C2116 1.385 . S
C2113 H2088 0.951 . S
C2113 C2111 1.388 . S
C2113 C2114 1.366 . S
C2114 C2113 1.366 . S
C2114 C2115 1.414 . S
C2114 C2117 1.499 . S
C2115 H2089 0.950 . S
C2115 C2114 1.414 . S
C2115 C2116 1.374 . S
C2116 H2090 0.950 . S
C2116 C2112 1.385 . S
C2116 C2115 1.374 . S
C2117 C2114 1.499 . S
C2117 C2118 1.373 . S
C2117 C2119 1.389 . S
C2118 H2091 0.950 . S
C2118 C2104 1.377 . S
C2118 C2117 1.373 . S
C2119 C2103 1.377 . S
C2119 C2117 1.389 . S
C2119 C2120 1.524 . S
C2120 C2119 1.524 . S
C2120 C2121 1.397 . S
C2120 C2125 1.363 . S
C2121 H2092 0.950 . S
C2121 C2120 1.397 . S
C2121 C2122 1.334 . S
C2122 H2093 0.950 . S
C2122 C2121 1.334 . S
C2122 C2123 1.287 . S
C2123 C2122 1.287 . S
C2123 C2124 1.524 . S
C2123 H2126 0.999 . S
C2124 H2094 0.950 . S
C2124 C2123 1.524 . S
C2124 C2125 1.415 . S
C2125 H2095 0.950 . S
C2125 C2120 1.363 . S
C2125 C2124 1.415 . S
H2126 C2123 0.999 . S
H2127 C2108 0.913 . S
H2128 C2146 0.951 . S
H2129 C2148 0.951 . S
H2130 C2150 0.950 . S
H2131 C2151 0.950 . S
H2132 C2153 0.950 . S
H2133 C2156 0.950 . S
H2134 C2157 0.950 . S
H2135 C2159 0.950 . S
H2136 C2160 0.950 . S
H2137 C2161 0.951 . S
H2138 C2163 0.951 . S
H2139 C2165 0.950 . S
H2140 C2166 0.950 . S
H2141 C2168 0.950 . S
H2142 C2171 0.950 . S
H2143 C2172 0.950 . S
H2144 C2174 0.950 . S
H2145 C2175 0.950 . S
C2146 H2128 0.951 . S
C2146 C2147 1.366 . S
C2146 C2148 1.388 1_556 S
C2147 C2146 1.366 . S
C2147 C2151 1.385 1_556 S
C2148 H2129 0.951 . S
C2148 C2146 1.388 1_554 S
C2148 C2149 1.366 . S
C2149 C2148 1.366 . S
C2149 C2150 1.414 . S
C2149 C2152 1.499 . S
C2150 H2130 0.950 . S
C2150 C2149 1.414 . S
C2150 C2151 1.374 . S
C2151 H2131 0.950 . S
C2151 C2147 1.385 1_554 S
C2151 C2150 1.374 . S
C2152 C2149 1.499 . S
C2152 C2153 1.373 . S
C2152 C2154 1.389 . S
C2153 H2132 0.950 . S
C2153 C2152 1.373 . S
C2153 C2169 1.377 . S
C2154 C2152 1.389 . S
C2154 C2155 1.524 . S
C2154 C2168 1.377 . S
C2155 C2154 1.524 . S
C2155 C2156 1.397 . S
C2155 C2160 1.363 . S
C2156 H2133 0.950 . S
C2156 C2155 1.397 . S
C2156 C2157 1.334 . S
C2157 H2134 0.950 . S
C2157 C2156 1.334 . S
C2157 C2158 1.287 . S
C2158 C2157 1.287 . S
C2158 C2159 1.524 . S
C2158 H2177 0.913 1_554 S
C2159 H2135 0.950 . S
C2159 C2158 1.524 . S
C2159 C2160 1.415 . S
C2160 H2136 0.950 . S
C2160 C2155 1.363 . S
C2160 C2159 1.415 . S
C2161 H2137 0.951 . S
C2161 C2162 1.366 . S
C2161 C2163 1.388 . S
C2162 C2161 1.366 . S
C2162 C2166 1.385 . S
C2163 H2138 0.951 . S
C2163 C2161 1.388 . S
C2163 C2164 1.366 . S
C2164 C2163 1.366 . S
C2164 C2165 1.414 . S
C2164 C2167 1.499 . S
C2165 H2139 0.950 . S
C2165 C2164 1.414 . S
C2165 C2166 1.374 . S
C2166 H2140 0.950 . S
C2166 C2162 1.385 . S
C2166 C2165 1.374 . S
C2167 C2164 1.499 . S
C2167 C2168 1.373 . S
C2167 C2169 1.389 . S
C2168 H2141 0.950 . S
C2168 C2154 1.377 . S
C2168 C2167 1.373 . S
C2169 C2153 1.377 . S
C2169 C2167 1.389 . S
C2169 C2170 1.524 . S
C2170 C2169 1.524 . S
C2170 C2171 1.397 . S
C2170 C2175 1.363 . S
C2171 H2142 0.950 . S
C2171 C2170 1.397 . S
C2171 C2172 1.334 . S
C2172 H2143 0.950 . S
C2172 C2171 1.334 . S
C2172 C2173 1.287 . S
C2173 C2172 1.287 . S
C2173 C2174 1.524 . S
C2173 H2176 0.999 . S
C2174 H2144 0.950 . S
C2174 C2173 1.524 . S
C2174 C2175 1.415 . S
C2175 H2145 0.950 . S
C2175 C2170 1.363 . S
C2175 C2174 1.415 . S
H2176 C2173 0.999 . S
H2177 C2158 0.913 1_556 S
H2178 C2196 0.951 . S
H2179 C2198 0.951 . S
H2180 C2200 0.950 . S
H2181 C2201 0.950 . S
H2182 C2203 0.950 . S
H2183 C2206 0.950 . S
H2184 C2207 0.950 . S
H2185 C2209 0.950 . S
H2186 C2210 0.950 . S
H2187 C2211 0.951 . S
H2188 C2213 0.951 . S
H2189 C2215 0.950 . S
H2190 C2216 0.950 . S
H2191 C2218 0.950 . S
H2192 C2221 0.950 . S
H2193 C2222 0.950 . S
H2194 C2224 0.950 . S
H2195 C2225 0.950 . S
C2196 H2178 0.951 . S
C2196 C2197 1.366 . S
C2196 C2198 1.388 . S
C2197 C2196 1.366 . S
C2197 C2201 1.385 . S
C2198 H2179 0.951 . S
C2198 C2196 1.388 . S
C2198 C2199 1.366 . S
C2199 C2198 1.366 . S
C2199 C2200 1.414 . S
C2199 C2202 1.499 . S
C2200 H2180 0.950 . S
C2200 C2199 1.414 . S
C2200 C2201 1.374 . S
C2201 H2181 0.950 . S
C2201 C2197 1.385 . S
C2201 C2200 1.374 . S
C2202 C2199 1.499 . S
C2202 C2203 1.373 . S
C2202 C2204 1.389 . S
C2203 H2182 0.950 . S
C2203 C2202 1.373 . S
C2203 C2219 1.377 . S
C2204 C2202 1.389 . S
C2204 C2205 1.524 . S
C2204 C2218 1.377 . S
C2205 C2204 1.524 . S
C2205 C2206 1.397 . S
C2205 C2210 1.363 . S
C2206 H2183 0.950 . S
C2206 C2205 1.397 . S
C2206 C2207 1.334 . S
C2207 H2184 0.950 . S
C2207 C2206 1.334 . S
C2207 C2208 1.287 . S
C2208 C2207 1.287 . S
C2208 C2209 1.524 . S
C2208 H2227 0.913 . S
C2209 H2185 0.950 . S
C2209 C2208 1.524 . S
C2209 C2210 1.415 . S
C2210 H2186 0.950 . S
C2210 C2205 1.363 . S
C2210 C2209 1.415 . S
C2211 H2187 0.951 . S
C2211 C2212 1.366 . S
C2211 C2213 1.388 . S
C2212 C2211 1.366 . S
C2212 C2216 1.385 . S
C2213 H2188 0.951 . S
C2213 C2211 1.388 . S
C2213 C2214 1.366 . S
C2214 C2213 1.366 . S
C2214 C2215 1.414 . S
C2214 C2217 1.499 . S
C2215 H2189 0.950 . S
C2215 C2214 1.414 . S
C2215 C2216 1.374 . S
C2216 H2190 0.950 . S
C2216 C2212 1.385 . S
C2216 C2215 1.374 . S
C2217 C2214 1.499 . S
C2217 C2218 1.373 . S
C2217 C2219 1.389 . S
C2218 H2191 0.950 . S
C2218 C2204 1.377 . S
C2218 C2217 1.373 . S
C2219 C2203 1.377 . S
C2219 C2217 1.389 . S
C2219 C2220 1.524 . S
C2220 C2219 1.524 . S
C2220 C2221 1.397 . S
C2220 C2225 1.363 . S
C2221 H2192 0.950 . S
C2221 C2220 1.397 . S
C2221 C2222 1.334 . S
C2222 H2193 0.950 . S
C2222 C2221 1.334 . S
C2222 C2223 1.287 . S
C2223 C2222 1.287 . S
C2223 C2224 1.524 . S
C2223 H2226 0.999 . S
C2224 H2194 0.950 . S
C2224 C2223 1.524 . S
C2224 C2225 1.415 . S
C2225 H2195 0.950 . S
C2225 C2220 1.363 . S
C2225 C2224 1.415 . S
H2226 C2223 0.999 . S
H2227 C2208 0.913 . S
H2228 C2246 0.951 . S
H2229 C2248 0.951 . S
H2230 C2250 0.950 . S
H2231 C2251 0.950 . S
H2232 C2253 0.950 . S
H2233 C2256 0.950 . S
H2234 C2257 0.950 . S
H2235 C2259 0.950 . S
H2236 C2260 0.950 . S
H2237 C2261 0.951 . S
H2238 C2263 0.951 . S
H2239 C2265 0.950 . S
H2240 C2266 0.950 . S
H2241 C2268 0.950 . S
H2242 C2271 0.950 . S
H2243 C2272 0.950 . S
H2244 C2274 0.950 . S
H2245 C2275 0.950 . S
C2246 H2228 0.951 . S
C2246 C2247 1.366 . S
C2246 C2248 1.388 . S
C2247 C2246 1.366 . S
C2247 C2251 1.385 . S
C2248 H2229 0.951 . S
C2248 C2246 1.388 . S
C2248 C2249 1.366 . S
C2249 C2248 1.366 . S
C2249 C2250 1.414 . S
C2249 C2252 1.499 . S
C2250 H2230 0.950 . S
C2250 C2249 1.414 . S
C2250 C2251 1.374 . S
C2251 H2231 0.950 . S
C2251 C2247 1.385 . S
C2251 C2250 1.374 . S
C2252 C2249 1.499 . S
C2252 C2253 1.373 . S
C2252 C2254 1.389 . S
C2253 H2232 0.950 . S
C2253 C2252 1.373 . S
C2253 C2269 1.377 . S
C2254 C2252 1.389 . S
C2254 C2255 1.524 . S
C2254 C2268 1.377 . S
C2255 C2254 1.524 . S
C2255 C2256 1.397 . S
C2255 C2260 1.363 . S
C2256 H2233 0.950 . S
C2256 C2255 1.397 . S
C2256 C2257 1.334 . S
C2257 H2234 0.950 . S
C2257 C2256 1.334 . S
C2257 C2258 1.287 . S
C2258 C2257 1.287 . S
C2258 C2259 1.524 . S
C2258 H2277 0.913 . S
C2259 H2235 0.950 . S
C2259 C2258 1.524 . S
C2259 C2260 1.415 . S
C2260 H2236 0.950 . S
C2260 C2255 1.363 . S
C2260 C2259 1.415 . S
C2261 H2237 0.951 . S
C2261 C2262 1.366 . S
C2261 C2263 1.388 . S
C2262 C2261 1.366 . S
C2262 C2266 1.385 . S
C2263 H2238 0.951 . S
C2263 C2261 1.388 . S
C2263 C2264 1.366 . S
C2264 C2263 1.366 . S
C2264 C2265 1.414 . S
C2264 C2267 1.499 . S
C2265 H2239 0.950 . S
C2265 C2264 1.414 . S
C2265 C2266 1.374 . S
C2266 H2240 0.950 . S
C2266 C2262 1.385 . S
C2266 C2265 1.374 . S
C2267 C2264 1.499 . S
C2267 C2268 1.373 . S
C2267 C2269 1.389 . S
C2268 H2241 0.950 . S
C2268 C2254 1.377 . S
C2268 C2267 1.373 . S
C2269 C2253 1.377 . S
C2269 C2267 1.389 . S
C2269 C2270 1.524 . S
C2270 C2269 1.524 . S
C2270 C2271 1.397 . S
C2270 C2275 1.363 . S
C2271 H2242 0.950 . S
C2271 C2270 1.397 . S
C2271 C2272 1.334 . S
C2272 H2243 0.950 . S
C2272 C2271 1.334 . S
C2272 C2273 1.287 . S
C2273 C2272 1.287 . S
C2273 C2274 1.524 . S
C2273 H2276 0.999 . S
C2274 H2244 0.950 . S
C2274 C2273 1.524 . S
C2274 C2275 1.415 . S
C2275 H2245 0.950 . S
C2275 C2270 1.363 . S
C2275 C2274 1.415 . S
H2276 C2273 0.999 . S
H2277 C2258 0.913 . S
H2278 C2296 0.951 . S
H2279 C2298 0.951 . S
H2280 C2300 0.950 . S
H2281 C2301 0.950 . S
H2282 C2303 0.950 . S
H2283 C2306 0.950 . S
H2284 C2307 0.950 . S
H2285 C2309 0.950 1_554 S
H2286 C2310 0.950 . S
H2287 C2311 0.951 . S
H2288 C2313 0.951 . S
H2289 C2315 0.950 . S
H2290 C2316 0.950 . S
H2291 C2318 0.950 . S
H2292 C2321 0.950 . S
H2293 C2322 0.950 . S
H2294 C2324 0.950 . S
H2295 C2325 0.950 . S
C2296 H2278 0.951 . S
C2296 C2297 1.366 . S
C2296 C2298 1.388 1_554 S
C2297 C2296 1.366 . S
C2297 C2301 1.385 1_554 S
C2298 H2279 0.951 . S
C2298 C2296 1.388 1_556 S
C2298 C2299 1.366 . S
C2299 C2298 1.366 . S
C2299 C2300 1.414 . S
C2299 C2302 1.499 . S
C2300 H2280 0.950 . S
C2300 C2299 1.414 . S
C2300 C2301 1.374 . S
C2301 H2281 0.950 . S
C2301 C2297 1.385 1_556 S
C2301 C2300 1.374 . S
C2302 C2299 1.499 . S
C2302 C2303 1.373 . S
C2302 C2304 1.389 . S
C2303 H2282 0.950 . S
C2303 C2302 1.373 . S
C2303 C2319 1.377 . S
C2304 C2302 1.389 . S
C2304 C2305 1.524 . S
C2304 C2318 1.377 . S
C2305 C2304 1.524 . S
C2305 C2306 1.397 . S
C2305 C2310 1.363 . S
C2306 H2283 0.950 . S
C2306 C2305 1.397 . S
C2306 C2307 1.334 . S
C2307 H2284 0.950 . S
C2307 C2306 1.334 . S
C2307 C2308 1.287 . S
C2308 C2307 1.287 . S
C2308 C2309 1.524 . S
C2308 H2327 0.913 1_556 S
C2309 H2285 0.950 1_556 S
C2309 C2308 1.524 . S
C2309 C2310 1.415 . S
C2310 H2286 0.950 . S
C2310 C2305 1.363 . S
C2310 C2309 1.415 . S
C2311 H2287 0.951 . S
C2311 C2312 1.366 . S
C2311 C2313 1.388 . S
C2312 C2311 1.366 . S
C2312 C2316 1.385 . S
C2313 H2288 0.951 . S
C2313 C2311 1.388 . S
C2313 C2314 1.366 . S
C2314 C2313 1.366 . S
C2314 C2315 1.414 . S
C2314 C2317 1.499 . S
C2315 H2289 0.950 . S
C2315 C2314 1.414 . S
C2315 C2316 1.374 . S
C2316 H2290 0.950 . S
C2316 C2312 1.385 . S
C2316 C2315 1.374 . S
C2317 C2314 1.499 . S
C2317 C2318 1.373 . S
C2317 C2319 1.389 . S
C2318 H2291 0.950 . S
C2318 C2304 1.377 . S
C2318 C2317 1.373 . S
C2319 C2303 1.377 . S
C2319 C2317 1.389 . S
C2319 C2320 1.524 . S
C2320 C2319 1.524 . S
C2320 C2321 1.397 . S
C2320 C2325 1.363 . S
C2321 H2292 0.950 . S
C2321 C2320 1.397 . S
C2321 C2322 1.334 . S
C2322 H2293 0.950 . S
C2322 C2321 1.334 . S
C2322 C2323 1.287 . S
C2323 C2322 1.287 . S
C2323 C2324 1.524 . S
C2323 H2326 0.999 . S
C2324 H2294 0.950 . S
C2324 C2323 1.524 . S
C2324 C2325 1.415 . S
C2325 H2295 0.950 . S
C2325 C2320 1.363 . S
C2325 C2324 1.415 . S
H2326 C2323 0.999 . S
H2327 C2308 0.913 1_554 S
H2328 C2346 0.951 . S
H2329 C2348 0.951 . S
H2330 C2350 0.950 . S
H2331 C2351 0.950 . S
H2332 C2353 0.950 . S
H2333 C2356 0.950 . S
H2334 C2357 0.950 . S
H2335 C2359 0.950 . S
H2336 C2360 0.950 . S
H2337 C2361 0.951 . S
H2338 C2363 0.951 . S
H2339 C2365 0.950 . S
H2340 C2366 0.950 . S
H2341 C2368 0.950 . S
H2342 C2371 0.950 . S
H2343 C2372 0.950 . S
H2344 C2374 0.950 . S
H2345 C2375 0.950 . S
C2346 H2328 0.951 . S
C2346 C2347 1.366 . S
C2346 C2348 1.388 . S
C2347 C2346 1.366 . S
C2347 C2351 1.385 . S
C2348 H2329 0.951 . S
C2348 C2346 1.388 . S
C2348 C2349 1.366 . S
C2349 C2348 1.366 . S
C2349 C2350 1.414 . S
C2349 C2352 1.499 . S
C2350 H2330 0.950 . S
C2350 C2349 1.414 . S
C2350 C2351 1.374 . S
C2351 H2331 0.950 . S
C2351 C2347 1.385 . S
C2351 C2350 1.374 . S
C2352 C2349 1.499 . S
C2352 C2353 1.373 . S
C2352 C2354 1.389 . S
C2353 H2332 0.950 . S
C2353 C2352 1.373 . S
C2353 C2369 1.377 . S
C2354 C2352 1.389 . S
C2354 C2355 1.524 . S
C2354 C2368 1.377 . S
C2355 C2354 1.524 . S
C2355 C2356 1.397 . S
C2355 C2360 1.363 . S
C2356 H2333 0.950 . S
C2356 C2355 1.397 . S
C2356 C2357 1.334 . S
C2357 H2334 0.950 . S
C2357 C2356 1.334 . S
C2357 C2358 1.287 . S
C2358 C2357 1.287 . S
C2358 C2359 1.524 . S
C2358 H2377 0.913 . S
C2359 H2335 0.950 . S
C2359 C2358 1.524 . S
C2359 C2360 1.415 . S
C2360 H2336 0.950 . S
C2360 C2355 1.363 . S
C2360 C2359 1.415 . S
C2361 H2337 0.951 . S
C2361 C2362 1.366 1_554 S
C2361 C2363 1.388 1_554 S
C2362 C2361 1.366 1_556 S
C2362 C2366 1.385 . S
C2363 H2338 0.951 . S
C2363 C2361 1.388 1_556 S
C2363 C2364 1.366 . S
C2364 C2363 1.366 . S
C2364 C2365 1.414 . S
C2364 C2367 1.499 . S
C2365 H2339 0.950 . S
C2365 C2364 1.414 . S
C2365 C2366 1.374 . S
C2366 H2340 0.950 . S
C2366 C2362 1.385 . S
C2366 C2365 1.374 . S
C2367 C2364 1.499 . S
C2367 C2368 1.373 . S
C2367 C2369 1.389 . S
C2368 H2341 0.950 . S
C2368 C2354 1.377 . S
C2368 C2367 1.373 . S
C2369 C2353 1.377 . S
C2369 C2367 1.389 . S
C2369 C2370 1.524 . S
C2370 C2369 1.524 . S
C2370 C2371 1.397 . S
C2370 C2375 1.363 . S
C2371 H2342 0.950 . S
C2371 C2370 1.397 . S
C2371 C2372 1.334 . S
C2372 H2343 0.950 . S
C2372 C2371 1.334 . S
C2372 C2373 1.287 1_556 S
C2373 C2372 1.287 1_554 S
C2373 C2374 1.524 . S
C2373 H2376 0.999 . S
C2374 H2344 0.950 . S
C2374 C2373 1.524 . S
C2374 C2375 1.415 1_554 S
C2375 H2345 0.950 . S
C2375 C2370 1.363 . S
C2375 C2374 1.415 1_556 S
H2376 C2373 0.999 . S
H2377 C2358 0.913 . S
H2378 C2396 0.951 . S
H2379 C2398 0.951 . S
H2380 C2400 0.950 . S
H2381 C2401 0.950 . S
H2382 C2403 0.950 . S
H2383 C2406 0.950 . S
H2384 C2407 0.950 . S
H2385 C2409 0.950 . S
H2386 C2410 0.950 . S
H2387 C2411 0.951 . S
H2388 C2413 0.951 . S
H2389 C2415 0.950 . S
H2390 C2416 0.950 . S
H2391 C2418 0.950 . S
H2392 C2421 0.950 . S
H2393 C2422 0.950 . S
H2394 C2424 0.950 . S
H2395 C2425 0.950 . S
C2396 H2378 0.951 . S
C2396 C2397 1.366 . S
C2396 C2398 1.388 . S
C2397 C2396 1.366 . S
C2397 C2401 1.385 . S
C2398 H2379 0.951 . S
C2398 C2396 1.388 . S
C2398 C2399 1.366 . S
C2399 C2398 1.366 . S
C2399 C2400 1.414 . S
C2399 C2402 1.499 . S
C2400 H2380 0.950 . S
C2400 C2399 1.414 . S
C2400 C2401 1.374 . S
C2401 H2381 0.950 . S
C2401 C2397 1.385 . S
C2401 C2400 1.374 . S
C2402 C2399 1.499 . S
C2402 C2403 1.373 . S
C2402 C2404 1.389 . S
C2403 H2382 0.950 . S
C2403 C2402 1.373 . S
C2403 C2419 1.377 . S
C2404 C2402 1.389 . S
C2404 C2405 1.524 . S
C2404 C2418 1.377 . S
C2405 C2404 1.524 . S
C2405 C2406 1.397 . S
C2405 C2410 1.363 . S
C2406 H2383 0.950 . S
C2406 C2405 1.397 . S
C2406 C2407 1.334 . S
C2407 H2384 0.950 . S
C2407 C2406 1.334 . S
C2407 C2408 1.287 . S
C2408 C2407 1.287 . S
C2408 C2409 1.524 . S
C2408 H2427 0.913 . S
C2409 H2385 0.950 . S
C2409 C2408 1.524 . S
C2409 C2410 1.415 . S
C2410 H2386 0.950 . S
C2410 C2405 1.363 . S
C2410 C2409 1.415 . S
C2411 H2387 0.951 . S
C2411 C2412 1.366 . S
C2411 C2413 1.388 . S
C2412 C2411 1.366 . S
C2412 C2416 1.385 . S
C2413 H2388 0.951 . S
C2413 C2411 1.388 . S
C2413 C2414 1.366 . S
C2414 C2413 1.366 . S
C2414 C2415 1.414 . S
C2414 C2417 1.499 . S
C2415 H2389 0.950 . S
C2415 C2414 1.414 . S
C2415 C2416 1.374 . S
C2416 H2390 0.950 . S
C2416 C2412 1.385 . S
C2416 C2415 1.374 . S
C2417 C2414 1.499 . S
C2417 C2418 1.373 . S
C2417 C2419 1.389 . S
C2418 H2391 0.950 . S
C2418 C2404 1.377 . S
C2418 C2417 1.373 . S
C2419 C2403 1.377 . S
C2419 C2417 1.389 . S
C2419 C2420 1.524 . S
C2420 C2419 1.524 . S
C2420 C2421 1.397 . S
C2420 C2425 1.363 . S
C2421 H2392 0.950 . S
C2421 C2420 1.397 . S
C2421 C2422 1.334 . S
C2422 H2393 0.950 . S
C2422 C2421 1.334 . S
C2422 C2423 1.287 . S
C2423 C2422 1.287 . S
C2423 C2424 1.524 . S
C2423 H2426 0.999 . S
C2424 H2394 0.950 . S
C2424 C2423 1.524 . S
C2424 C2425 1.415 . S
C2425 H2395 0.950 . S
C2425 C2420 1.363 . S
C2425 C2424 1.415 . S
H2426 C2423 0.999 . S
H2427 C2408 0.913 . S
H2428 C2446 0.951 . S
H2429 C2448 0.951 . S
H2430 C2450 0.950 . S
H2431 C2451 0.950 . S
H2432 C2453 0.950 . S
H2433 C2456 0.950 . S
H2434 C2457 0.950 . S
H2435 C2459 0.950 . S
H2436 C2460 0.950 . S
H2437 C2461 0.951 . S
H2438 C2463 0.951 . S
H2439 C2465 0.950 . S
H2440 C2466 0.950 . S
H2441 C2468 0.950 . S
H2442 C2471 0.950 . S
H2443 C2472 0.950 . S
H2444 C2474 0.950 . S
H2445 C2475 0.950 . S
C2446 H2428 0.951 . S
C2446 C2447 1.366 . S
C2446 C2448 1.388 . S
C2447 C2446 1.366 . S
C2447 C2451 1.385 . S
C2448 H2429 0.951 . S
C2448 C2446 1.388 . S
C2448 C2449 1.366 . S
C2449 C2448 1.366 . S
C2449 C2450 1.414 . S
C2449 C2452 1.499 . S
C2450 H2430 0.950 . S
C2450 C2449 1.414 . S
C2450 C2451 1.374 . S
C2451 H2431 0.950 . S
C2451 C2447 1.385 . S
C2451 C2450 1.374 . S
C2452 C2449 1.499 . S
C2452 C2453 1.373 . S
C2452 C2454 1.389 . S
C2453 H2432 0.950 . S
C2453 C2452 1.373 . S
C2453 C2469 1.377 . S
C2454 C2452 1.389 . S
C2454 C2455 1.524 . S
C2454 C2468 1.377 . S
C2455 C2454 1.524 . S
C2455 C2456 1.397 . S
C2455 C2460 1.363 . S
C2456 H2433 0.950 . S
C2456 C2455 1.397 . S
C2456 C2457 1.334 . S
C2457 H2434 0.950 . S
C2457 C2456 1.334 . S
C2457 C2458 1.287 . S
C2458 C2457 1.287 . S
C2458 C2459 1.524 . S
C2458 H2477 0.913 . S
C2459 H2435 0.950 . S
C2459 C2458 1.524 . S
C2459 C2460 1.415 . S
C2460 H2436 0.950 . S
C2460 C2455 1.363 . S
C2460 C2459 1.415 . S
C2461 H2437 0.951 . S
C2461 C2462 1.366 . S
C2461 C2463 1.388 . S
C2462 C2461 1.366 . S
C2462 C2466 1.385 . S
C2463 H2438 0.951 . S
C2463 C2461 1.388 . S
C2463 C2464 1.366 . S
C2464 C2463 1.366 . S
C2464 C2465 1.414 . S
C2464 C2467 1.499 . S
C2465 H2439 0.950 . S
C2465 C2464 1.414 . S
C2465 C2466 1.374 . S
C2466 H2440 0.950 . S
C2466 C2462 1.385 . S
C2466 C2465 1.374 . S
C2467 C2464 1.499 . S
C2467 C2468 1.373 . S
C2467 C2469 1.389 . S
C2468 H2441 0.950 . S
C2468 C2454 1.377 . S
C2468 C2467 1.373 . S
C2469 C2453 1.377 . S
C2469 C2467 1.389 . S
C2469 C2470 1.524 . S
C2470 C2469 1.524 . S
C2470 C2471 1.397 . S
C2470 C2475 1.363 . S
C2471 H2442 0.950 . S
C2471 C2470 1.397 . S
C2471 C2472 1.334 . S
C2472 H2443 0.950 . S
C2472 C2471 1.334 . S
C2472 C2473 1.287 . S
C2473 C2472 1.287 . S
C2473 C2474 1.524 . S
C2473 H2476 0.999 . S
C2474 H2444 0.950 . S
C2474 C2473 1.524 . S
C2474 C2475 1.415 . S
C2475 H2445 0.950 . S
C2475 C2470 1.363 . S
C2475 C2474 1.415 . S
H2476 C2473 0.999 . S
H2477 C2458 0.913 . S
H2478 C2496 0.951 . S
H2479 C2498 0.951 . S
H2480 C2500 0.950 . S
H2481 C2501 0.950 . S
H2482 C2503 0.950 . S
H2483 C2506 0.950 . S
H2484 C2507 0.950 . S
H2485 C2509 0.950 . S
H2486 C2510 0.950 . S
H2487 C2511 0.951 . S
H2488 C2513 0.951 . S
H2489 C2515 0.950 . S
H2490 C2516 0.950 . S
H2491 C2518 0.950 . S
H2492 C2521 0.950 . S
H2493 C2522 0.950 . S
H2494 C2524 0.950 . S
H2495 C2525 0.950 . S
C2496 H2478 0.951 . S
C2496 C2497 1.366 . S
C2496 C2498 1.388 . S
C2497 C2496 1.366 . S
C2497 C2501 1.385 . S
C2498 H2479 0.951 . S
C2498 C2496 1.388 . S
C2498 C2499 1.366 . S
C2499 C2498 1.366 . S
C2499 C2500 1.414 . S
C2499 C2502 1.499 . S
C2500 H2480 0.950 . S
C2500 C2499 1.414 . S
C2500 C2501 1.374 . S
C2501 H2481 0.950 . S
C2501 C2497 1.385 . S
C2501 C2500 1.374 . S
C2502 C2499 1.499 . S
C2502 C2503 1.373 . S
C2502 C2504 1.389 . S
C2503 H2482 0.950 . S
C2503 C2502 1.373 . S
C2503 C2519 1.377 . S
C2504 C2502 1.389 . S
C2504 C2505 1.524 . S
C2504 C2518 1.377 . S
C2505 C2504 1.524 . S
C2505 C2506 1.397 . S
C2505 C2510 1.363 . S
C2506 H2483 0.950 . S
C2506 C2505 1.397 . S
C2506 C2507 1.334 . S
C2507 H2484 0.950 . S
C2507 C2506 1.334 . S
C2507 C2508 1.287 . S
C2508 C2507 1.287 . S
C2508 C2509 1.524 . S
C2508 H2527 0.913 . S
C2509 H2485 0.950 . S
C2509 C2508 1.524 . S
C2509 C2510 1.415 . S
C2510 H2486 0.950 . S
C2510 C2505 1.363 . S
C2510 C2509 1.415 . S
C2511 H2487 0.951 . S
C2511 C2512 1.366 . S
C2511 C2513 1.388 . S
C2512 C2511 1.366 . S
C2512 C2516 1.385 1_554 S
C2513 H2488 0.951 . S
C2513 C2511 1.388 . S
C2513 C2514 1.366 . S
C2514 C2513 1.366 . S
C2514 C2515 1.414 . S
C2514 C2517 1.499 . S
C2515 H2489 0.950 . S
C2515 C2514 1.414 . S
C2515 C2516 1.374 1_554 S
C2516 H2490 0.950 . S
C2516 C2512 1.385 1_556 S
C2516 C2515 1.374 1_556 S
C2517 C2514 1.499 . S
C2517 C2518 1.373 . S
C2517 C2519 1.389 . S
C2518 H2491 0.950 . S
C2518 C2504 1.377 . S
C2518 C2517 1.373 . S
C2519 C2503 1.377 . S
C2519 C2517 1.389 . S
C2519 C2520 1.524 . S
C2520 C2519 1.524 . S
C2520 C2521 1.397 . S
C2520 C2525 1.363 . S
C2521 H2492 0.950 . S
C2521 C2520 1.397 . S
C2521 C2522 1.334 . S
C2522 H2493 0.950 . S
C2522 C2521 1.334 . S
C2522 C2523 1.287 . S
C2523 C2522 1.287 . S
C2523 C2524 1.524 . S
C2523 H2526 0.999 . S
C2524 H2494 0.950 . S
C2524 C2523 1.524 . S
C2524 C2525 1.415 . S
C2525 H2495 0.950 . S
C2525 C2520 1.363 . S
C2525 C2524 1.415 . S
H2526 C2523 0.999 . S
H2527 C2508 0.913 . S
C547 C21 0.987 . S
C562 C153 0.987 . S
C597 C186 0.986 . S
C612 C54 0.986 . S
C647 C219 0.986 . S
C662 C87 0.986 . S
C697 C120 0.985 . S
C712 C252 0.985 . S
C747 C285 0.986 . S
C762 C351 0.986 . S
C797 C384 0.986 . S
C812 C318 0.986 . S
C847 C417 0.986 . S
C862 C483 0.986 . S
C897 C450 0.987 . S
C912 C516 0.987 . S
C947 N13 1.134 . S
C962 N178 1.134 1_554 S
C997 N211 1.134 . S
C1012 N46 1.134 . S
C1047 N244 1.136 . S
C1062 N79 1.135 . S
C1097 N112 1.135 1_556 S
C1112 N145 1.136 . S
C1147 C150 1.942 . S
C1162 C348 1.942 . S
C1197 C84 1.942 . S
C1212 C282 1.942 . S
C1247 C216 1.942 . S
C1262 C381 1.942 . S
C1297 C18 1.942 . S
C1312 C315 1.942 . S
C1347 N409 1.134 . S
C1362 N277 1.134 . S
C1397 N343 1.134 1_556 S
C1412 N508 1.134 . S
C1447 N310 1.135 1_554 S
C1462 N442 1.135 . S
C1497 N376 1.135 . S
C1512 N475 1.136 . S
C1547 C480 1.942 . S
C1562 C51 1.942 . S
C1597 C183 1.942 . S
C1612 C447 1.942 . S
C1647 C117 1.942 . S
C1662 C513 1.942 . S
C1697 C414 1.942 . S
C1712 C249 1.942 . S
C1747 C172 1.542 . S
C1762 C7 1.542 . S
C1797 C205 1.542 . S
C1812 C40 1.543 . S
C1847 C73 1.543 . S
C1862 C238 1.543 . S
C1897 C106 1.542 . S
C1912 C139 1.542 . S
C1947 N134 0.615 . S
C1962 N332 0.615 . S
C1997 N266 0.613 . S
C2012 N68 0.613 1_554 S
C2047 N365 0.616 . S
C2062 N200 0.616 1_556 S
C2097 N2 0.614 . S
C2112 N299 0.614 . S
C2147 C403 1.542 . S
C2162 C271 1.542 . S
C2197 C337 1.542 . S
C2212 C502 1.542 . S
C2247 C436 1.542 . S
C2262 C304 1.542 . S
C2297 C469 1.542 . S
C2312 C370 1.542 . S
C2347 N35 0.615 . S
C2362 N464 0.616 1_556 S
C2397 N167 0.616 . S
C2412 N431 0.616 . S
C2447 N497 0.616 . S
C2462 N101 0.616 . S
C2497 N233 0.614 . S
C2512 N398 0.613 1_554 S
