# Generated by pormake.
# Topology uni, (4)-cn, num edge types: 1
# Building blocks:
#     Node 0, Type 0, BuildingBlock: QUQFOY_clean_sbu_1, # of connection points: 4
#     Node 1, Type 0, BuildingBlock: QUQFOY_clean_sbu_1, # of connection points: 4
#     Node 2, Type 0, BuildingBlock: QUQFOY_clean_sbu_1, # of connection points: 4
#     Node 3, Type 0, BuildingBlock: QUQFOY_clean_sbu_1, # of connection points: 4
#     Node 4, Type 0, BuildingBlock: QUQFOY_clean_sbu_1, # of connection points: 4
#     Node 5, Type 0, BuildingBlock: QUQFOY_clean_sbu_1, # of connection points: 4
#     Edge 6, Type (0, 0), BuildingBlock: XUDNAN_clean_linker_2, # of connection points: 2
#     Edge 7, Type (0, 0), BuildingBlock: XUDNAN_clean_linker_2, # of connection points: 2
#     Edge 8, Type (0, 0), BuildingBlock: XUDNAN_clean_linker_2, # of connection points: 2
#     Edge 9, Type (0, 0), BuildingBlock: XUDNAN_clean_linker_2, # of connection points: 2
#     Edge 10, Type (0, 0), BuildingBlock: XUDNAN_clean_linker_2, # of connection points: 2
#     Edge 11, Type (0, 0), BuildingBlock: XUDNAN_clean_linker_2, # of connection points: 2
#     Edge 12, Type (0, 0), BuildingBlock: XUDNAN_clean_linker_2, # of connection points: 2
#     Edge 13, Type (0, 0), BuildingBlock: XUDNAN_clean_linker_2, # of connection points: 2
#     Edge 14, Type (0, 0), BuildingBlock: XUDNAN_clean_linker_2, # of connection points: 2
#     Edge 15, Type (0, 0), BuildingBlock: XUDNAN_clean_linker_2, # of connection points: 2
#     Edge 16, Type (0, 0), BuildingBlock: XUDNAN_clean_linker_2, # of connection points: 2
#     Edge 17, Type (0, 0), BuildingBlock: XUDNAN_clean_linker_2, # of connection points: 2
# Relax obj value: 0.074
# Max RMSD: 0.155
# Mean RMSD: 0.155
data_MOF--net-uni--node1-QUQFOY_clean_sbu_1--edge1-XUDNAN_clean_linker_2
_symmetry_space_group_name_H-M    P1
_symmetry_Int_Tables_number       1
_symmetry_cell_setting            triclinic
loop_
_symmetry_equiv_pos_as_xyz
'x, y, z'
_cell_length_a     42.265748
_cell_length_b     42.149834
_cell_length_c     22.623016
_cell_angle_alpha  89.976946
_cell_angle_beta   90.114726
_cell_angle_gamma 120.26965
loop_
_atom_site_label
_atom_site_type_symbol
_atom_site_fract_x
_atom_site_fract_y
_atom_site_fract_z
_atom_type_partial_charge
O0 O 0.63995 0.06296 0.01343 0.0
Cd1 Cd 0.67707 0.07097 0.07898 0.0
Cd2 Cd 0.63047 0.99724 0.086 0.0
O3 O 0.60707 1.00253 0.00899 0.0
O4 O 0.71389 0.12387 0.06702 0.0
O5 O 0.72798 0.08036 0.05896 0.0
C6 C 0.73805 0.11475 0.05568 0.0
C7 C 0.64676 0.95229 0.09802 0.0
C8 C 0.61418 0.03388 -0.00969 0.0
C9 C 0.63044 0.04426 0.18643 0.0
O10 O 0.61481 1.0129 0.16172 0.0
O11 O 0.65852 0.07107 0.16306 0.0
O12 O 0.61297 0.94417 0.09781 0.0
O13 O 0.67163 0.98615 0.08897 0.0
O14 O 0.60538 0.63666 0.15079 0.0
Cd15 Cd 0.63674 0.66879 0.21962 0.0
Cd16 Cd 0.67133 0.62691 0.19787 0.0
O17 O 0.63638 0.60947 0.1257 0.0
O18 O 0.62088 0.70588 0.22466 0.0
O19 O 0.67761 0.72063 0.20303 0.0
C20 C 0.6535 0.73061 0.20947 0.0
C21 C 0.72721 0.62782 0.18969 0.0
C22 C 0.60984 0.61508 0.1173 0.0
C23 C 0.63026 0.61689 0.31393 0.0
O24 O 0.64711 0.60713 0.2786 0.0
O25 O 0.62472 0.64303 0.30082 0.0
O26 O 0.69614 0.5979 0.18619 0.0
O27 O 0.727 0.65814 0.19575 0.0
O28 O 0.02398 0.60842 0.2932 0.0
Cd29 Cd 0.99726 0.62255 0.35459 0.0
Cd30 Cd 0.07407 0.66414 0.39299 0.0
O31 O 0.08247 0.64275 0.31657 0.0
O32 O 0.94687 0.59266 0.32181 0.0
O33 O 0.97376 0.65275 0.3308 0.0
C34 C 0.94584 0.62227 0.31365 0.0
C35 C 0.11951 0.72382 0.42028 0.0
C36 C 0.05743 0.61883 0.28364 0.0
C37 C 1.01655 0.60413 0.4727 0.0
O38 O 0.04985 0.62753 0.46165 0.0
O39 O 0.99117 0.59963 0.4374 0.0
O40 O 0.1249 0.69642 0.42311 0.0
O41 O 0.08806 0.71758 0.40121 0.0
O42 O 0.44234 1.00632 0.50665 0.0
Cd43 Cd 0.40513 0.98813 0.5749 0.0
Cd44 Cd 0.42874 0.06269 0.58462 0.0
O45 O 0.45828 0.06488 0.51049 0.0
O46 O 0.3697 0.93532 0.55945 0.0
O47 O 0.35387 0.97804 0.56037 0.0
C48 C 0.34467 0.94402 0.55292 0.0
C49 C 0.41315 0.10868 0.59594 0.0
C50 C 0.46119 0.03898 0.48733 0.0
C51 C 0.44382 0.02343 0.68563 0.0
O52 O 0.44634 0.05218 0.66297 0.0
O53 O 0.42698 0.99292 0.65848 0.0
O54 O 0.44647 0.11578 0.5976 0.0
O55 O 0.38803 0.07522 0.58521 0.0
O56 O 0.46933 0.42954 0.65162 0.0
Cd57 Cd 0.43652 0.39758 0.71934 0.0
Cd58 Cd 0.4027 0.43789 0.69602 0.0
O59 O 0.43753 0.45541 0.62408 0.0
O60 O 0.44942 0.3584 0.7251 0.0
O61 O 0.39393 0.34695 0.70105 0.0
C62 C 0.41651 0.33509 0.70857 0.0
C63 C 0.34535 0.43342 0.68621 0.0
C64 C 0.46464 0.45058 0.61713 0.0
C65 C 0.44339 0.44983 0.81259 0.0
O66 O 0.42691 0.45954 0.77625 0.0
O67 O 0.44837 0.4232 0.80068 0.0
O68 O 0.37547 0.46424 0.68187 0.0
O69 O 0.34739 0.4042 0.69429 0.0
O70 O 0.05118 0.45375 0.7943 0.0
Cd71 Cd 0.07767 0.43901 0.85524 0.0
Cd72 Cd 1.00227 0.39784 0.89268 0.0
O73 O 0.99274 0.41893 0.81678 0.0
O74 O 0.12768 0.46756 0.82111 0.0
O75 O 0.09944 0.40739 0.83112 0.0
C76 C 0.12753 0.43734 0.81283 0.0
C77 C 0.95855 0.33756 0.9197 0.0
C78 C 0.01773 0.44323 0.7844 0.0
C79 C 0.05938 0.4579 0.97292 0.0
O80 O 0.02611 0.43448 0.96156 0.0
O81 O 0.08477 0.46232 0.9379 0.0
O82 O 0.95206 0.36422 0.92334 0.0
O83 O 0.99013 0.34488 0.89978 0.0
H84 H 0.57131 0.99297 0.24956 0.0
H85 H 0.64888 0.1101 0.23863 0.0
H86 H 0.61364 0.12153 0.31397 0.0
H87 H 0.49196 0.99915 0.26285 0.0
H88 H 0.46938 0.96191 0.31481 0.0
H89 H 0.50203 0.96236 0.26333 0.0
H90 H 0.53986 0.9577 0.3497 0.0
H91 H 0.50695 0.95653 0.40144 0.0
H92 H 0.55475 0.99066 0.40914 0.0
H93 H 0.567 0.1206 0.38403 0.0
H94 H 0.51641 0.10682 0.45281 0.0
H95 H 0.47007 0.99023 0.419 0.0
C96 C 0.58134 0.021 0.26374 0.0
C97 C 0.61291 0.05063 0.23811 0.0
C98 C 0.62492 0.0869 0.25779 0.0
C99 C 0.60496 0.09371 0.30033 0.0
C100 C 0.57328 0.06396 0.32312 0.0
C101 C 0.56189 0.02827 0.30629 0.0
C102 C 0.5266 1.00122 0.33685 0.0
C103 C 0.49568 0.97992 0.29176 0.0
C104 C 0.5324 0.97499 0.37666 0.0
C105 C 0.51967 0.02731 0.37298 0.0
C106 C 0.54678 0.06338 0.3642 0.0
C107 C 0.5458 0.09243 0.39171 0.0
C108 C 0.51678 0.08432 0.43039 0.0
C109 C 0.48927 0.04743 0.44145 0.0
C110 C 0.49069 0.0187 0.41169 0.0
H111 H 0.57017 0.60761 0.37529 0.0
H112 H 0.65187 0.57411 0.37096 0.0
H113 H 0.61858 0.52855 0.4491 0.0
H114 H 0.55177 0.59475 0.5362 0.0
H115 H 0.50346 0.5774 0.52616 0.0
H116 H 0.53591 0.61015 0.47454 0.0
H117 H 0.5012 0.56518 0.38861 0.0
H118 H 0.46908 0.532 0.44 0.0
H119 H 0.49432 0.51935 0.39063 0.0
H120 H 0.57434 0.48343 0.52074 0.0
H121 H 0.52392 0.44423 0.58816 0.0
H122 H 0.46992 0.50597 0.54557 0.0
C123 C 0.58159 0.59143 0.39205 0.0
C124 C 0.61373 0.59454 0.36741 0.0
C125 C 0.62735 0.57223 0.3894 0.0
C126 C 0.60861 0.54624 0.43366 0.0
C127 C 0.57629 0.54287 0.45542 0.0
C128 C 0.56303 0.56507 0.43598 0.0
C129 C 0.52662 0.5544 0.4647 0.0
C130 C 0.52963 0.58606 0.50267 0.0
C131 C 0.49601 0.542 0.4182 0.0
C132 C 0.52136 0.52247 0.50266 0.0
C133 C 0.55039 0.51639 0.49663 0.0
C134 C 0.55158 0.48809 0.52631 0.0
C135 C 0.52268 0.46585 0.56429 0.0
C136 C 0.49291 0.47197 0.57225 0.0
C137 C 0.49217 0.50046 0.54036 0.0
H138 H 0.0658 0.50204 0.71851 0.0
H139 H 0.94943 0.42761 0.74523 0.0
H140 H 0.93571 0.46235 0.6711 0.0
H141 H 0.0611 0.58384 0.7041 0.0
H142 H 0.09644 0.60349 0.64867 0.0
H143 H 0.09675 0.57226 0.7027 0.0
H144 H 0.09721 0.53042 0.61909 0.0
H145 H 0.09739 0.56175 0.56484 0.0
H146 H 0.06224 0.51397 0.56274 0.0
H147 H 0.93548 0.50575 0.59222 0.0
H148 H 0.94866 0.55219 0.51459 0.0
H149 H 0.06523 0.59835 0.54487 0.0
C150 C 0.03735 0.49271 0.70869 0.0
C151 C 1.00867 0.46194 0.73755 0.0
C152 C 0.97187 0.45102 0.72351 0.0
C153 C 0.96383 0.47066 0.68165 0.0
C154 C 0.9929 0.50123 0.65471 0.0
C155 C 0.0289 0.51206 0.66774 0.0
C156 C 0.05534 0.54577 0.63316 0.0
C157 C 0.07878 0.57825 0.67465 0.0
C158 C 0.07945 0.53746 0.59254 0.0
C159 C 0.02867 0.55221 0.59806 0.0
C160 C 0.99276 0.52635 0.61094 0.0
C161 C 0.96351 0.52624 0.58211 0.0
C162 C 0.97126 0.55279 0.5382 0.0
C163 C 1.00798 0.57911 0.52379 0.0
C164 C 0.03685 0.57898 0.55511 0.0
H165 H 0.56541 0.98213 0.91058 0.0
H166 H 0.60718 0.0937 0.97366 0.0
H167 H 0.56374 0.09981 0.90951 0.0
H168 H 0.5548 1.00228 0.75889 0.0
H169 H 0.51363 0.95884 0.74621 0.0
H170 H 0.54684 0.96211 0.79954 0.0
H171 H 0.49628 0.93527 0.87973 0.0
H172 H 0.46304 0.93244 0.82675 0.0
H173 H 0.4702 0.95749 0.89473 0.0
H174 H 0.51632 0.09465 0.84147 0.0
H175 H 0.47291 0.08187 0.76032 0.0
H176 H 0.46246 0.97478 0.73464 0.0
C177 C 0.56536 1.0078 0.9107 0.0
C178 C 0.58968 0.03739 0.94734 0.0
C179 C 0.58903 0.07068 0.94587 0.0
C180 C 0.56419 0.07437 0.90996 0.0
C181 C 0.54032 0.04469 0.87511 0.0
C182 C 0.54102 1.01227 0.87406 0.0
C183 C 0.51375 0.98573 0.82913 0.0
C184 C 0.53344 0.97673 0.78056 0.0
C185 C 0.48406 0.95065 0.85942 0.0
C186 C 0.49797 1.00855 0.80515 0.0
C187 C 0.51337 0.04217 0.83334 0.0
C188 C 0.50407 0.06847 0.81883 0.0
C189 C 0.47929 0.06087 0.77264 0.0
C190 C 0.46433 0.02737 0.74085 0.0
C191 C 0.47313 1.00047 0.75842 0.0
H192 H 0.60238 0.55742 0.04926 0.0
H193 H 0.55342 0.62488 0.08283 0.0
H194 H 0.50329 0.58683 0.01392 0.0
H195 H 0.58053 0.54345 0.89365 0.0
H196 H 0.57109 0.4967 0.89398 0.0
H197 H 0.60323 0.52937 0.94611 0.0
H198 H 0.56591 0.48599 0.03211 0.0
H199 H 0.53331 0.45346 0.98023 0.0
H200 H 0.51794 0.47111 0.03922 0.0
H201 H 0.45868 0.54216 0.9421 0.0
H202 H 0.42456 0.49616 0.8648 0.0
H203 H 0.50145 0.4567 0.87788 0.0
C204 C 0.58131 0.5644 0.04173 0.0
C205 C 0.58189 0.59418 0.07155 0.0
C206 C 0.55362 0.60222 0.06063 0.0
C207 C 0.5249 0.58067 0.02175 0.0
C208 C 0.52472 0.5511 -0.00584 0.0
C209 C 0.55228 0.54307 0.0031 0.0
C210 C 0.5457 0.51002 0.96688 0.0
C211 C 0.57699 0.52053 0.92252 0.0
C212 C 0.5404 0.47827 0.00703 0.0
C213 C 0.51032 0.50102 0.93583 0.0
C214 C 0.49863 0.52496 0.95264 0.0
C215 C 0.46742 0.52314 0.92867 0.0
C216 C 0.4482 0.49686 0.88491 0.0
C217 C 0.46023 0.47273 0.86558 0.0
C218 C 0.49123 0.47434 0.89247 0.0
H219 H 1.01056 0.46335 0.04482 0.0
H220 H 0.12718 0.51034 0.01479 0.0
H221 H 0.14013 0.55693 0.09206 0.0
H222 H 1.0126 0.54699 0.06154 0.0
H223 H 0.97774 0.53054 0.11782 0.0
H224 H 0.97788 0.49905 0.06426 0.0
H225 H 0.97968 0.45813 0.14831 0.0
H226 H 0.97896 0.4892 0.20219 0.0
H227 H 1.01508 0.4783 0.20384 0.0
H228 H 0.13965 0.60035 0.17048 0.0
H229 H 0.12574 0.63498 0.24433 0.0
H230 H 1.00943 0.55976 0.2177 0.0
C231 C 0.03891 0.48293 0.05506 0.0
C232 C 0.06786 0.483 0.0239 0.0
C233 C 0.10452 0.50959 0.03829 0.0
C234 C 0.11214 0.53622 0.082 0.0
C235 C 0.08281 0.53591 0.11067 0.0
C236 C 0.04694 0.50977 0.09788 0.0
C237 C 0.02016 0.51606 0.13281 0.0
C238 C 0.99567 0.52362 0.09163 0.0
C239 C 0.99713 0.48349 0.17425 0.0
C240 C 0.04649 0.55003 0.16707 0.0
C241 C 0.08252 0.56109 0.15413 0.0
C242 C 0.11151 0.59186 0.18096 0.0
C243 C 0.10335 0.61143 0.22266 0.0
C244 C 0.06651 0.60026 0.23666 0.0
C245 C 0.03791 0.56931 0.20785 0.0
H246 H 0.60491 0.75501 0.20351 0.0
H247 H 0.72023 0.79124 0.1821 0.0
H248 H 0.73188 0.85272 0.15148 0.0
H249 H 0.59713 0.80037 0.07758 0.0
H250 H 0.56536 0.81146 0.11151 0.0
H251 H 0.56683 0.77143 0.13507 0.0
H252 H 0.57817 0.79504 0.24323 0.0
H253 H 0.57638 0.83499 0.22009 0.0
H254 H 0.61589 0.84033 0.2595 0.0
H255 H 0.72995 0.91036 0.12097 0.0
H256 H 0.71471 0.95817 0.09426 0.0
H257 H 0.60033 0.88179 0.13309 0.0
C258 C 0.63276 0.77593 0.1932 0.0
C259 C 0.66173 0.76839 0.19564 0.0
C260 C 0.69765 0.79648 0.18088 0.0
C261 C 0.70449 0.83143 0.16335 0.0
C262 C 0.67509 0.8377 0.16054 0.0
C263 C 0.63996 0.81063 0.17519 0.0
C264 C 0.61275 0.82356 0.16686 0.0
C265 C 0.58383 0.80032 0.11996 0.0
C266 C 0.59475 0.82348 0.22594 0.0
C267 C 0.63796 0.86222 0.14513 0.0
C268 C 0.67385 0.87008 0.14191 0.0
C269 C 0.70191 0.90441 0.12332 0.0
C270 C 0.693 0.93137 0.10813 0.0
C271 C 0.65631 0.9237 0.11127 0.0
C272 C 0.62861 0.88854 0.12975 0.0
H273 H 0.92203 0.67269 0.31659 0.0
H274 H 0.89739 0.5676 0.24258 0.0
H275 H 0.84294 0.56205 0.19336 0.0
H276 H 0.83036 0.64619 0.34957 0.0
H277 H 0.83443 0.68975 0.33156 0.0
H278 H 0.87406 0.68795 0.35586 0.0
H279 H 0.90855 0.72198 0.26079 0.0
H280 H 0.86887 0.72371 0.23604 0.0
H281 H 0.88858 0.70346 0.18955 0.0
H282 H 0.78936 0.56472 0.15839 0.0
H283 H 0.7368 0.57388 0.14397 0.0
H284 H 0.79376 0.67687 0.24031 0.0
C285 C 0.90543 0.64886 0.28923 0.0
C286 C 0.91403 0.62063 0.28323 0.0
C287 C 0.89131 0.58952 0.24797 0.0
C288 C 0.86044 0.58621 0.21942 0.0
C289 C 0.85244 0.61419 0.22656 0.0
C290 C 0.87403 0.64486 0.26074 0.0
C291 C 0.85721 0.66927 0.26473 0.0
C292 C 0.84849 0.67352 0.32926 0.0
C293 C 0.8823 0.70684 0.23606 0.0
C294 C 0.82245 0.64697 0.22869 0.0
C295 C 0.82072 0.61559 0.20647 0.0
C296 C 0.79052 0.58939 0.17488 0.0
C297 C 0.76078 0.59482 0.16698 0.0
C298 C 0.76133 0.62619 0.19059 0.0
C299 C 0.79295 0.65304 0.22069 0.0
H300 H 0.18843 0.74374 0.45795 0.0
H301 H 0.11669 0.78771 0.42523 0.0
H302 H 0.16594 0.84912 0.45804 0.0
H303 H 0.23157 0.79612 0.58863 0.0
H304 H 0.27581 0.80221 0.57052 0.0
H305 H 0.23478 0.76207 0.54499 0.0
H306 H 0.25803 0.77725 0.43696 0.0
H307 H 0.29918 0.81736 0.46216 0.0
H308 H 0.27086 0.82175 0.40686 0.0
H309 H 0.22421 0.90619 0.49462 0.0
H310 H 0.28604 0.95346 0.52875 0.0
H311 H 0.3182 0.87067 0.53646 0.0
C312 C 0.18292 0.7662 0.45766 0.0
C313 C 0.14866 0.7609 0.43905 0.0
C314 C 0.14274 0.79113 0.43927 0.0
C315 C 0.17053 0.82607 0.45794 0.0
C316 C 0.204 0.83025 0.47617 0.0
C317 C 0.21021 0.80105 0.47597 0.0
C318 C 0.24854 0.81252 0.49678 0.0
C319 C 0.2476 0.79201 0.55361 0.0
C320 C 0.27043 0.8069 0.44776 0.0
C321 C 0.26313 0.85284 0.50865 0.0
C322 C 0.23711 0.86267 0.49676 0.0
C323 C 0.24472 0.89872 0.50411 0.0
C324 C 0.27989 0.92537 0.52361 0.0
C325 C 0.30698 0.9158 0.53537 0.0
C326 C 0.29817 0.87895 0.52803 0.0
H327 H 0.46184 0.30677 0.70669 0.0
H328 H 0.34882 0.27718 0.67647 0.0
H329 H 0.33444 0.2149 0.64505 0.0
H330 H 0.46996 0.26164 0.58159 0.0
H331 H 0.49908 0.24774 0.61771 0.0
H332 H 0.49941 0.28863 0.64155 0.0
H333 H 0.48398 0.26328 0.74853 0.0
H334 H 0.48397 0.22244 0.72515 0.0
H335 H 0.44434 0.21872 0.76154 0.0
H336 H 0.33364 0.15558 0.61426 0.0
H337 H 0.34659 0.10606 0.5878 0.0
H338 H 0.46064 0.17757 0.6356 0.0
C339 C 0.43388 0.28713 0.69432 0.0
C340 C 0.40638 0.29677 0.69447 0.0
C341 C 0.37029 0.27031 0.67706 0.0
C342 C 0.3619 0.23491 0.65905 0.0
C343 C 0.38997 0.22659 0.6585 0.0
C344 C 0.4252 0.25208 0.67584 0.0
C345 C 0.45096 0.23728 0.66939 0.0
C346 C 0.48165 0.26018 0.62491 0.0
C347 C 0.46672 0.2353 0.72974 0.0
C348 C 0.42486 0.19942 0.64547 0.0
C349 C 0.38972 0.19345 0.63967 0.0
C350 C 0.3611 0.16007 0.61864 0.0
C351 C 0.36869 0.13214 0.60361 0.0
C352 C 0.40464 0.13799 0.60926 0.0
C353 C 0.4329 0.1722 0.63026 0.0
H354 H 0.1531 0.38855 0.821 0.0
H355 H 0.17112 0.48758 0.73212 0.0
H356 H 0.22386 0.49153 0.67962 0.0
H357 H 0.24618 0.41974 0.8469 0.0
H358 H 0.24332 0.37604 0.83552 0.0
H359 H 0.20373 0.37764 0.86027 0.0
H360 H 0.16648 0.33715 0.77144 0.0
H361 H 0.20613 0.3356 0.74623 0.0
H362 H 0.18334 0.35156 0.69739 0.0
H363 H 0.27716 0.48893 0.64396 0.0
H364 H 0.33121 0.48202 0.63141 0.0
H365 H 0.2812 0.38517 0.74307 0.0
C366 C 0.16781 0.41057 0.78958 0.0
C367 C 0.15797 0.43767 0.78034 0.0
C368 C 0.17826 0.46659 0.73996 0.0
C369 C 0.20808 0.46891 0.70952 0.0
C370 C 0.21748 0.44219 0.72002 0.0
C371 C 0.19822 0.41364 0.75923 0.0
C372 C 0.21663 0.39085 0.76645 0.0
C373 C 0.22815 0.39111 0.83111 0.0
C374 C 0.19165 0.35144 0.74403 0.0
C375 C 0.24971 0.41177 0.72655 0.0
C376 C 0.24913 0.44089 0.69953 0.0
C377 C 0.27775 0.46594 0.66408 0.0
C378 C 0.30834 0.46181 0.65728 0.0
C379 C 0.31017 0.43289 0.68577 0.0
C380 C 0.28006 0.40698 0.71964 0.0
H381 H 0.89133 0.31659 0.96576 0.0
H382 H 0.96201 0.27389 0.9167 0.0
H383 H 0.91411 0.21175 0.9491 0.0
H384 H 0.85319 0.26155 0.09602 0.0
H385 H 0.80842 0.25581 0.08397 0.0
H386 H 0.84855 0.29651 0.0577 0.0
H387 H 0.8215 0.28367 0.95162 0.0
H388 H 0.78126 0.24302 0.97758 0.0
H389 H 0.80753 0.23988 0.91756 0.0
H390 H 0.85662 0.15346 -0.01394 0.0
H391 H 0.79563 0.10541 0.02214 0.0
H392 H 0.76478 0.18836 0.04654 0.0
C393 C 0.89692 0.29427 0.96179 0.0
C394 C 0.93044 0.30011 0.93862 0.0
C395 C 0.93651 0.27005 0.93431 0.0
C396 C 0.90948 0.23469 0.95268 0.0
C397 C 0.87668 0.22998 0.97537 0.0
C398 C 0.87046 0.25909 0.9799 0.0
C399 C 0.83299 0.24715 0.00493 0.0
C400 C 0.83599 0.26639 0.06417 0.0
C401 C 0.80944 0.25382 0.96025 0.0
C402 C 0.81879 0.20664 0.01349 0.0
C403 C 0.84425 0.19706 -0.00352 0.0
C404 C 0.83659 0.16077 -0.00032 0.0
C405 C 0.80192 0.13368 0.0203 0.0
C406 C 0.77544 0.1431 0.0373 0.0
C407 C 0.78436 0.18016 0.03414 0.0
loop_
_geom_bond_atom_site_label_1
_geom_bond_atom_site_label_2
_geom_bond_distance
_geom_bond_site_symmetry_2
_ccdc_geom_bond_type
O0 Cd1 2.223 . S
O0 C8 1.315 1_554 S
Cd1 O0 2.223 . S
Cd1 O4 2.297 . S
Cd1 O5 2.439 . S
Cd1 O11 2.240 . S
Cd2 O3 2.240 1_564 S
Cd2 O10 2.223 . S
Cd2 O12 2.297 . S
Cd2 O13 2.439 . S
O3 Cd2 2.240 1_546 S
O3 C8 1.279 . S
O4 Cd1 2.297 . S
O4 C6 1.247 . S
O5 Cd1 2.439 . S
O5 C6 1.208 . S
C6 O4 1.247 . S
C6 O5 1.208 . S
C7 O12 1.247 . S
C7 O13 1.208 . S
C8 O0 1.315 1_556 S
C8 O3 1.279 . S
C9 O10 1.315 1_545 S
C9 O11 1.279 . S
O10 Cd2 2.223 . S
O10 C9 1.315 1_565 S
O11 Cd1 2.240 . S
O11 C9 1.279 . S
O12 Cd2 2.297 . S
O12 C7 1.247 . S
O13 Cd2 2.439 . S
O13 C7 1.208 . S
O14 Cd15 2.223 . S
O14 C22 1.315 . S
Cd15 O14 2.223 . S
Cd15 O18 2.297 . S
Cd15 O19 2.439 . S
Cd15 O25 2.240 . S
Cd16 O17 2.240 . S
Cd16 O24 2.223 . S
Cd16 O26 2.297 . S
Cd16 O27 2.439 . S
O17 Cd16 2.240 . S
O17 C22 1.279 . S
O18 Cd15 2.297 . S
O18 C20 1.247 . S
O19 Cd15 2.439 . S
O19 C20 1.208 . S
C20 O18 1.247 . S
C20 O19 1.208 . S
C21 O26 1.247 . S
C21 O27 1.208 . S
C22 O14 1.315 . S
C22 O17 1.279 . S
C23 O24 1.315 . S
C23 O25 1.279 . S
O24 Cd16 2.223 . S
O24 C23 1.315 . S
O25 Cd15 2.240 . S
O25 C23 1.279 . S
O26 Cd16 2.297 . S
O26 C21 1.247 . S
O27 Cd16 2.439 . S
O27 C21 1.208 . S
O28 Cd29 2.223 . S
O28 C36 1.315 1_655 S
Cd29 O28 2.223 . S
Cd29 O32 2.297 . S
Cd29 O33 2.439 . S
Cd29 O39 2.240 1_655 S
Cd30 O31 2.240 . S
Cd30 O38 2.223 . S
Cd30 O40 2.297 . S
Cd30 O41 2.439 . S
O31 Cd30 2.240 . S
O31 C36 1.279 . S
O32 Cd29 2.297 . S
O32 C34 1.247 . S
O33 Cd29 2.439 . S
O33 C34 1.208 . S
C34 O32 1.247 . S
C34 O33 1.208 . S
C35 O40 1.247 . S
C35 O41 1.208 . S
C36 O28 1.315 1_455 S
C36 O31 1.279 . S
C37 O38 1.315 . S
C37 O39 1.279 . S
O38 Cd30 2.223 . S
O38 C37 1.315 . S
O39 Cd29 2.240 1_455 S
O39 C37 1.279 . S
O40 Cd30 2.297 . S
O40 C35 1.247 . S
O41 Cd30 2.439 . S
O41 C35 1.208 . S
O42 Cd43 2.223 . S
O42 C50 1.315 1_565 S
Cd43 O42 2.223 . S
Cd43 O46 2.297 . S
Cd43 O47 2.439 . S
Cd43 O53 2.240 1_565 S
Cd44 O45 2.240 . S
Cd44 O52 2.223 . S
Cd44 O54 2.297 . S
Cd44 O55 2.439 . S
O45 Cd44 2.240 . S
O45 C50 1.279 . S
O46 Cd43 2.297 . S
O46 C48 1.247 . S
O47 Cd43 2.439 . S
O47 C48 1.208 . S
C48 O46 1.247 . S
C48 O47 1.208 . S
C49 O54 1.247 . S
C49 O55 1.208 . S
C50 O42 1.315 1_545 S
C50 O45 1.279 . S
C51 O52 1.315 . S
C51 O53 1.279 . S
O52 Cd44 2.223 . S
O52 C51 1.315 . S
O53 Cd43 2.240 1_545 S
O53 C51 1.279 . S
O54 Cd44 2.297 . S
O54 C49 1.247 . S
O55 Cd44 2.439 . S
O55 C49 1.208 . S
O56 Cd57 2.223 . S
O56 C64 1.315 . S
Cd57 O56 2.223 . S
Cd57 O60 2.297 . S
Cd57 O61 2.439 . S
Cd57 O67 2.240 . S
Cd58 O59 2.240 . S
Cd58 O66 2.223 . S
Cd58 O68 2.297 . S
Cd58 O69 2.439 . S
O59 Cd58 2.240 . S
O59 C64 1.279 . S
O60 Cd57 2.297 . S
O60 C62 1.247 . S
O61 Cd57 2.439 . S
O61 C62 1.208 . S
C62 O60 1.247 . S
C62 O61 1.208 . S
C63 O68 1.247 . S
C63 O69 1.208 . S
C64 O56 1.315 . S
C64 O59 1.279 . S
C65 O66 1.315 . S
C65 O67 1.279 . S
O66 Cd58 2.223 . S
O66 C65 1.315 . S
O67 Cd57 2.240 . S
O67 C65 1.279 . S
O68 Cd58 2.297 . S
O68 C63 1.247 . S
O69 Cd58 2.439 . S
O69 C63 1.208 . S
O70 Cd71 2.223 . S
O70 C78 1.315 . S
Cd71 O70 2.223 . S
Cd71 O74 2.297 . S
Cd71 O75 2.439 . S
Cd71 O81 2.240 . S
Cd72 O73 2.240 1_655 S
Cd72 O80 2.223 . S
Cd72 O82 2.297 . S
Cd72 O83 2.439 . S
O73 Cd72 2.240 1_455 S
O73 C78 1.279 . S
O74 Cd71 2.297 . S
O74 C76 1.247 . S
O75 Cd71 2.439 . S
O75 C76 1.208 . S
C76 O74 1.247 . S
C76 O75 1.208 . S
C77 O82 1.247 . S
C77 O83 1.208 . S
C78 O70 1.315 . S
C78 O73 1.279 . S
C79 O80 1.315 1_455 S
C79 O81 1.279 . S
O80 Cd72 2.223 . S
O80 C79 1.315 1_655 S
O81 Cd71 2.240 . S
O81 C79 1.279 . S
O82 Cd72 2.297 . S
O82 C77 1.247 . S
O83 Cd72 2.439 . S
O83 C77 1.208 . S
H84 C96 0.930 . S
H85 C98 0.930 . S
H86 C99 0.930 . S
H87 C103 0.959 . S
H88 C103 0.959 . S
H89 C103 0.961 . S
H90 C104 0.960 . S
H91 C104 0.961 . S
H92 C104 0.959 . S
H93 C107 0.929 . S
H94 C108 0.931 . S
H95 C110 0.930 . S
C96 H84 0.930 . S
C96 C97 1.399 1_565 S
C96 C101 1.399 . S
C97 C96 1.399 1_545 S
C97 C98 1.376 . S
C98 H85 0.930 . S
C98 C97 1.376 . S
C98 C99 1.388 . S
C99 H86 0.930 . S
C99 C98 1.388 . S
C99 C100 1.390 . S
C100 C99 1.390 . S
C100 C101 1.394 1_545 S
C100 C106 1.465 . S
C101 C96 1.399 . S
C101 C100 1.394 1_565 S
C101 C102 1.516 . S
C102 C101 1.516 . S
C102 C103 1.502 . S
C102 C104 1.561 . S
C102 C105 1.526 . S
C103 H87 0.959 . S
C103 H88 0.959 . S
C103 H89 0.961 . S
C103 C102 1.502 . S
C104 H90 0.960 . S
C104 H91 0.961 . S
C104 H92 0.959 . S
C104 C102 1.561 . S
C105 C102 1.526 . S
C105 C106 1.396 1_565 S
C105 C110 1.390 . S
C106 C100 1.465 . S
C106 C105 1.396 1_545 S
C106 C107 1.399 . S
C107 H93 0.929 . S
C107 C106 1.399 . S
C107 C108 1.385 . S
C108 H94 0.931 . S
C108 C107 1.385 . S
C108 C109 1.389 . S
C109 C108 1.389 . S
C109 C110 1.387 1_545 S
C110 H95 0.930 . S
C110 C105 1.390 . S
C110 C109 1.387 1_565 S
H111 C123 0.930 . S
H112 C125 0.930 . S
H113 C126 0.930 . S
H114 C130 0.959 . S
H115 C130 0.959 . S
H116 C130 0.961 . S
H117 C131 0.960 . S
H118 C131 0.961 . S
H119 C131 0.959 . S
H120 C134 0.929 . S
H121 C135 0.931 . S
H122 C137 0.930 . S
C123 H111 0.930 . S
C123 C124 1.399 . S
C123 C128 1.399 . S
C124 C123 1.399 . S
C124 C125 1.376 . S
C125 H112 0.930 . S
C125 C124 1.376 . S
C125 C126 1.388 . S
C126 H113 0.930 . S
C126 C125 1.388 . S
C126 C127 1.390 . S
C127 C126 1.390 . S
C127 C128 1.394 . S
C127 C133 1.465 . S
C128 C123 1.399 . S
C128 C127 1.394 . S
C128 C129 1.516 . S
C129 C128 1.516 . S
C129 C130 1.502 . S
C129 C131 1.561 . S
C129 C132 1.526 . S
C130 H114 0.959 . S
C130 H115 0.959 . S
C130 H116 0.961 . S
C130 C129 1.502 . S
C131 H117 0.960 . S
C131 H118 0.961 . S
C131 H119 0.959 . S
C131 C129 1.561 . S
C132 C129 1.526 . S
C132 C133 1.396 . S
C132 C137 1.390 . S
C133 C127 1.465 . S
C133 C132 1.396 . S
C133 C134 1.399 . S
C134 H120 0.929 . S
C134 C133 1.399 . S
C134 C135 1.385 . S
C135 H121 0.931 . S
C135 C134 1.385 . S
C135 C136 1.389 . S
C136 C135 1.389 . S
C136 C137 1.387 . S
C137 H122 0.930 . S
C137 C132 1.390 . S
C137 C136 1.387 . S
H138 C150 0.930 . S
H139 C152 0.930 . S
H140 C153 0.930 . S
H141 C157 0.959 . S
H142 C157 0.959 . S
H143 C157 0.961 . S
H144 C158 0.960 . S
H145 C158 0.961 . S
H146 C158 0.959 . S
H147 C161 0.929 . S
H148 C162 0.931 . S
H149 C164 0.930 . S
C150 H138 0.930 . S
C150 C151 1.399 . S
C150 C155 1.399 . S
C151 C150 1.399 . S
C151 C152 1.376 1_455 S
C152 H139 0.930 . S
C152 C151 1.376 1_655 S
C152 C153 1.388 . S
C153 H140 0.930 . S
C153 C152 1.388 . S
C153 C154 1.390 1_655 S
C154 C153 1.390 1_455 S
C154 C155 1.394 . S
C154 C160 1.465 . S
C155 C150 1.399 . S
C155 C154 1.394 . S
C155 C156 1.516 . S
C156 C155 1.516 . S
C156 C157 1.502 . S
C156 C158 1.561 . S
C156 C159 1.526 . S
C157 H141 0.959 . S
C157 H142 0.959 . S
C157 H143 0.961 . S
C157 C156 1.502 . S
C158 H144 0.960 . S
C158 H145 0.961 . S
C158 H146 0.959 . S
C158 C156 1.561 . S
C159 C156 1.526 . S
C159 C160 1.396 . S
C159 C164 1.390 . S
C160 C154 1.465 . S
C160 C159 1.396 . S
C160 C161 1.399 1_455 S
C161 H147 0.929 . S
C161 C160 1.399 1_655 S
C161 C162 1.385 . S
C162 H148 0.931 . S
C162 C161 1.385 . S
C162 C163 1.389 1_655 S
C163 C162 1.389 1_455 S
C163 C164 1.387 . S
C164 H149 0.930 . S
C164 C159 1.390 . S
C164 C163 1.387 . S
H165 C177 0.930 1_565 S
H166 C179 0.930 . S
H167 C180 0.930 . S
H168 C184 0.959 1_545 S
H169 C184 0.959 . S
H170 C184 0.961 . S
H171 C185 0.960 . S
H172 C185 0.961 . S
H173 C185 0.959 . S
H174 C188 0.929 . S
H175 C189 0.931 . S
H176 C191 0.930 1_565 S
C177 H165 0.930 1_545 S
C177 C178 1.399 . S
C177 C182 1.399 . S
C178 C177 1.399 . S
C178 C179 1.376 . S
C179 H166 0.930 . S
C179 C178 1.376 . S
C179 C180 1.388 . S
C180 H167 0.930 . S
C180 C179 1.388 . S
C180 C181 1.390 . S
C181 C180 1.390 . S
C181 C182 1.394 . S
C181 C187 1.465 . S
C182 C177 1.399 . S
C182 C181 1.394 . S
C182 C183 1.516 1_545 S
C183 C182 1.516 1_565 S
C183 C184 1.502 . S
C183 C185 1.561 . S
C183 C186 1.526 1_565 S
C184 H168 0.959 1_565 S
C184 H169 0.959 . S
C184 H170 0.961 . S
C184 C183 1.502 . S
C185 H171 0.960 . S
C185 H172 0.961 . S
C185 H173 0.959 . S
C185 C183 1.561 . S
C186 C183 1.526 1_545 S
C186 C187 1.396 . S
C186 C191 1.390 . S
C187 C181 1.465 . S
C187 C186 1.396 . S
C187 C188 1.399 . S
C188 H174 0.929 . S
C188 C187 1.399 . S
C188 C189 1.385 . S
C189 H175 0.931 . S
C189 C188 1.385 . S
C189 C190 1.389 . S
C190 C189 1.389 . S
C190 C191 1.387 . S
C191 H176 0.930 1_545 S
C191 C186 1.390 . S
C191 C190 1.387 . S
H192 C204 0.930 . S
H193 C206 0.930 . S
H194 C207 0.930 . S
H195 C211 0.959 . S
H196 C211 0.959 . S
H197 C211 0.961 . S
H198 C212 0.960 . S
H199 C212 0.961 . S
H200 C212 0.959 . S
H201 C215 0.929 . S
H202 C216 0.931 . S
H203 C218 0.930 . S
C204 H192 0.930 . S
C204 C205 1.399 . S
C204 C209 1.399 . S
C205 C204 1.399 . S
C205 C206 1.376 . S
C206 H193 0.930 . S
C206 C205 1.376 . S
C206 C207 1.388 1_554 S
C207 H194 0.930 . S
C207 C206 1.388 1_556 S
C207 C208 1.390 . S
C208 C207 1.390 . S
C208 C209 1.394 1_556 S
C208 C214 1.465 . S
C209 C204 1.399 . S
C209 C208 1.394 1_554 S
C209 C210 1.516 . S
C210 C209 1.516 . S
C210 C211 1.502 . S
C210 C212 1.561 . S
C210 C213 1.526 1_554 S
C211 H195 0.959 . S
C211 H196 0.959 . S
C211 H197 0.961 . S
C211 C210 1.502 . S
C212 H198 0.960 . S
C212 H199 0.961 . S
C212 H200 0.959 . S
C212 C210 1.561 . S
C213 C210 1.526 1_556 S
C213 C214 1.396 . S
C213 C218 1.390 . S
C214 C208 1.465 . S
C214 C213 1.396 . S
C214 C215 1.399 . S
C215 H201 0.929 . S
C215 C214 1.399 . S
C215 C216 1.385 . S
C216 H202 0.931 . S
C216 C215 1.385 . S
C216 C217 1.389 . S
C217 C216 1.389 . S
C217 C218 1.387 . S
C218 H203 0.930 . S
C218 C213 1.390 . S
C218 C217 1.387 . S
H219 C231 0.930 . S
H220 C233 0.930 . S
H221 C234 0.930 . S
H222 C238 0.959 . S
H223 C238 0.959 . S
H224 C238 0.961 . S
H225 C239 0.960 . S
H226 C239 0.961 . S
H227 C239 0.959 . S
H228 C242 0.929 . S
H229 C243 0.931 . S
H230 C245 0.930 . S
C231 H219 0.930 . S
C231 C232 1.399 1_655 S
C231 C236 1.399 . S
C232 C231 1.399 1_455 S
C232 C233 1.376 . S
C233 H220 0.930 . S
C233 C232 1.376 . S
C233 C234 1.388 . S
C234 H221 0.930 . S
C234 C233 1.388 . S
C234 C235 1.390 . S
C235 C234 1.390 . S
C235 C236 1.394 1_455 S
C235 C241 1.465 . S
C236 C231 1.399 . S
C236 C235 1.394 1_655 S
C236 C237 1.516 . S
C237 C236 1.516 . S
C237 C238 1.502 . S
C237 C239 1.561 . S
C237 C240 1.526 . S
C238 H222 0.959 . S
C238 H223 0.959 . S
C238 H224 0.961 . S
C238 C237 1.502 . S
C239 H225 0.960 . S
C239 H226 0.961 . S
C239 H227 0.959 . S
C239 C237 1.561 . S
C240 C237 1.526 . S
C240 C241 1.396 1_655 S
C240 C245 1.390 . S
C241 C235 1.465 . S
C241 C240 1.396 1_455 S
C241 C242 1.399 . S
C242 H228 0.929 . S
C242 C241 1.399 . S
C242 C243 1.385 . S
C243 H229 0.931 . S
C243 C242 1.385 . S
C243 C244 1.389 . S
C244 C243 1.389 . S
C244 C245 1.387 1_455 S
C245 H230 0.930 . S
C245 C240 1.390 . S
C245 C244 1.387 1_655 S
H246 C258 0.930 . S
H247 C260 0.930 . S
H248 C261 0.930 . S
H249 C265 0.959 . S
H250 C265 0.959 . S
H251 C265 0.961 . S
H252 C266 0.960 . S
H253 C266 0.961 . S
H254 C266 0.959 . S
H255 C269 0.929 . S
H256 C270 0.931 . S
H257 C272 0.930 . S
C258 H246 0.930 . S
C258 C259 1.399 . S
C258 C263 1.399 . S
C259 C258 1.399 . S
C259 C260 1.376 . S
C260 H247 0.930 . S
C260 C259 1.376 . S
C260 C261 1.388 . S
C261 H248 0.930 . S
C261 C260 1.388 . S
C261 C262 1.390 . S
C262 C261 1.390 . S
C262 C263 1.394 . S
C262 C268 1.465 . S
C263 C258 1.399 . S
C263 C262 1.394 . S
C263 C264 1.516 . S
C264 C263 1.516 . S
C264 C265 1.502 . S
C264 C266 1.561 . S
C264 C267 1.526 . S
C265 H249 0.959 . S
C265 H250 0.959 . S
C265 H251 0.961 . S
C265 C264 1.502 . S
C266 H252 0.960 . S
C266 H253 0.961 . S
C266 H254 0.959 . S
C266 C264 1.561 . S
C267 C264 1.526 . S
C267 C268 1.396 . S
C267 C272 1.390 . S
C268 C262 1.465 . S
C268 C267 1.396 . S
C268 C269 1.399 . S
C269 H255 0.929 . S
C269 C268 1.399 . S
C269 C270 1.385 . S
C270 H256 0.931 . S
C270 C269 1.385 . S
C270 C271 1.389 . S
C271 C270 1.389 . S
C271 C272 1.387 . S
C272 H257 0.930 . S
C272 C267 1.390 . S
C272 C271 1.387 . S
H273 C285 0.930 . S
H274 C287 0.930 . S
H275 C288 0.930 . S
H276 C292 0.959 . S
H277 C292 0.959 . S
H278 C292 0.961 . S
H279 C293 0.960 . S
H280 C293 0.961 . S
H281 C293 0.959 . S
H282 C296 0.929 . S
H283 C297 0.931 . S
H284 C299 0.930 . S
C285 H273 0.930 . S
C285 C286 1.399 . S
C285 C290 1.399 . S
C286 C285 1.399 . S
C286 C287 1.376 . S
C287 H274 0.930 . S
C287 C286 1.376 . S
C287 C288 1.388 . S
C288 H275 0.930 . S
C288 C287 1.388 . S
C288 C289 1.390 . S
C289 C288 1.390 . S
C289 C290 1.394 . S
C289 C295 1.465 . S
C290 C285 1.399 . S
C290 C289 1.394 . S
C290 C291 1.516 . S
C291 C290 1.516 . S
C291 C292 1.502 . S
C291 C293 1.561 . S
C291 C294 1.526 . S
C292 H276 0.959 . S
C292 H277 0.959 . S
C292 H278 0.961 . S
C292 C291 1.502 . S
C293 H279 0.960 . S
C293 H280 0.961 . S
C293 H281 0.959 . S
C293 C291 1.561 . S
C294 C291 1.526 . S
C294 C295 1.396 . S
C294 C299 1.390 . S
C295 C289 1.465 . S
C295 C294 1.396 . S
C295 C296 1.399 . S
C296 H282 0.929 . S
C296 C295 1.399 . S
C296 C297 1.385 . S
C297 H283 0.931 . S
C297 C296 1.385 . S
C297 C298 1.389 . S
C298 C297 1.389 . S
C298 C299 1.387 . S
C299 H284 0.930 . S
C299 C294 1.390 . S
C299 C298 1.387 . S
H300 C312 0.930 . S
H301 C314 0.930 . S
H302 C315 0.930 . S
H303 C319 0.959 . S
H304 C319 0.959 . S
H305 C319 0.961 . S
H306 C320 0.960 . S
H307 C320 0.961 . S
H308 C320 0.959 . S
H309 C323 0.929 . S
H310 C324 0.931 . S
H311 C326 0.930 . S
C312 H300 0.930 . S
C312 C313 1.399 . S
C312 C317 1.399 . S
C313 C312 1.399 . S
C313 C314 1.376 . S
C314 H301 0.930 . S
C314 C313 1.376 . S
C314 C315 1.388 . S
C315 H302 0.930 . S
C315 C314 1.388 . S
C315 C316 1.390 . S
C316 C315 1.390 . S
C316 C317 1.394 . S
C316 C322 1.465 . S
C317 C312 1.399 . S
C317 C316 1.394 . S
C317 C318 1.516 . S
C318 C317 1.516 . S
C318 C319 1.502 . S
C318 C320 1.561 . S
C318 C321 1.526 . S
C319 H303 0.959 . S
C319 H304 0.959 . S
C319 H305 0.961 . S
C319 C318 1.502 . S
C320 H306 0.960 . S
C320 H307 0.961 . S
C320 H308 0.959 . S
C320 C318 1.561 . S
C321 C318 1.526 . S
C321 C322 1.396 . S
C321 C326 1.390 . S
C322 C316 1.465 . S
C322 C321 1.396 . S
C322 C323 1.399 . S
C323 H309 0.929 . S
C323 C322 1.399 . S
C323 C324 1.385 . S
C324 H310 0.931 . S
C324 C323 1.385 . S
C324 C325 1.389 . S
C325 C324 1.389 . S
C325 C326 1.387 . S
C326 H311 0.930 . S
C326 C321 1.390 . S
C326 C325 1.387 . S
H327 C339 0.930 . S
H328 C341 0.930 . S
H329 C342 0.930 . S
H330 C346 0.959 . S
H331 C346 0.959 . S
H332 C346 0.961 . S
H333 C347 0.960 . S
H334 C347 0.961 . S
H335 C347 0.959 . S
H336 C350 0.929 . S
H337 C351 0.931 . S
H338 C353 0.930 . S
C339 H327 0.930 . S
C339 C340 1.399 . S
C339 C344 1.399 . S
C340 C339 1.399 . S
C340 C341 1.376 . S
C341 H328 0.930 . S
C341 C340 1.376 . S
C341 C342 1.388 . S
C342 H329 0.930 . S
C342 C341 1.388 . S
C342 C343 1.390 . S
C343 C342 1.390 . S
C343 C344 1.394 . S
C343 C349 1.465 . S
C344 C339 1.399 . S
C344 C343 1.394 . S
C344 C345 1.516 . S
C345 C344 1.516 . S
C345 C346 1.502 . S
C345 C347 1.561 . S
C345 C348 1.526 . S
C346 H330 0.959 . S
C346 H331 0.959 . S
C346 H332 0.961 . S
C346 C345 1.502 . S
C347 H333 0.960 . S
C347 H334 0.961 . S
C347 H335 0.959 . S
C347 C345 1.561 . S
C348 C345 1.526 . S
C348 C349 1.396 . S
C348 C353 1.390 . S
C349 C343 1.465 . S
C349 C348 1.396 . S
C349 C350 1.399 . S
C350 H336 0.929 . S
C350 C349 1.399 . S
C350 C351 1.385 . S
C351 H337 0.931 . S
C351 C350 1.385 . S
C351 C352 1.389 . S
C352 C351 1.389 . S
C352 C353 1.387 . S
C353 H338 0.930 . S
C353 C348 1.390 . S
C353 C352 1.387 . S
H354 C366 0.930 . S
H355 C368 0.930 . S
H356 C369 0.930 . S
H357 C373 0.959 . S
H358 C373 0.959 . S
H359 C373 0.961 . S
H360 C374 0.960 . S
H361 C374 0.961 . S
H362 C374 0.959 . S
H363 C377 0.929 . S
H364 C378 0.931 . S
H365 C380 0.930 . S
C366 H354 0.930 . S
C366 C367 1.399 . S
C366 C371 1.399 . S
C367 C366 1.399 . S
C367 C368 1.376 . S
C368 H355 0.930 . S
C368 C367 1.376 . S
C368 C369 1.388 . S
C369 H356 0.930 . S
C369 C368 1.388 . S
C369 C370 1.390 . S
C370 C369 1.390 . S
C370 C371 1.394 . S
C370 C376 1.465 . S
C371 C366 1.399 . S
C371 C370 1.394 . S
C371 C372 1.516 . S
C372 C371 1.516 . S
C372 C373 1.502 . S
C372 C374 1.561 . S
C372 C375 1.526 . S
C373 H357 0.959 . S
C373 H358 0.959 . S
C373 H359 0.961 . S
C373 C372 1.502 . S
C374 H360 0.960 . S
C374 H361 0.961 . S
C374 H362 0.959 . S
C374 C372 1.561 . S
C375 C372 1.526 . S
C375 C376 1.396 . S
C375 C380 1.390 . S
C376 C370 1.465 . S
C376 C375 1.396 . S
C376 C377 1.399 . S
C377 H363 0.929 . S
C377 C376 1.399 . S
C377 C378 1.385 . S
C378 H364 0.931 . S
C378 C377 1.385 . S
C378 C379 1.389 . S
C379 C378 1.389 . S
C379 C380 1.387 . S
C380 H365 0.930 . S
C380 C375 1.390 . S
C380 C379 1.387 . S
H381 C393 0.930 . S
H382 C395 0.930 . S
H383 C396 0.930 . S
H384 C400 0.959 . S
H385 C400 0.959 . S
H386 C400 0.961 . S
H387 C401 0.960 . S
H388 C401 0.961 . S
H389 C401 0.959 . S
H390 C404 0.929 . S
H391 C405 0.931 . S
H392 C407 0.930 . S
C393 H381 0.930 . S
C393 C394 1.399 1_554 S
C393 C398 1.399 . S
C394 C393 1.399 1_556 S
C394 C395 1.376 . S
C395 H382 0.930 . S
C395 C394 1.376 . S
C395 C396 1.388 . S
C396 H383 0.930 . S
C396 C395 1.388 . S
C396 C397 1.390 . S
C397 C396 1.390 . S
C397 C398 1.394 1_556 S
C397 C403 1.465 . S
C398 C393 1.399 . S
C398 C397 1.394 1_554 S
C398 C399 1.516 . S
C399 C398 1.516 . S
C399 C400 1.502 . S
C399 C401 1.561 . S
C399 C402 1.526 . S
C400 H384 0.959 . S
C400 H385 0.959 . S
C400 H386 0.961 . S
C400 C399 1.502 . S
C401 H387 0.960 . S
C401 H388 0.961 . S
C401 H389 0.959 . S
C401 C399 1.561 . S
C402 C399 1.526 . S
C402 C403 1.396 1_554 S
C402 C407 1.390 . S
C403 C397 1.465 . S
C403 C402 1.396 1_556 S
C403 C404 1.399 . S
C404 H390 0.929 . S
C404 C403 1.399 . S
C404 C405 1.385 . S
C405 H391 0.931 . S
C405 C404 1.385 . S
C405 C406 1.389 . S
C406 C405 1.389 . S
C406 C407 1.387 1_556 S
C407 H392 0.930 . S
C407 C402 1.390 . S
C407 C406 1.387 1_554 S
C97 C9 1.818 . S
C109 C50 1.823 . S
C124 C23 1.801 . S
C136 C64 1.809 . S
C151 C78 1.824 . S
C163 C37 1.822 . S
C178 C8 1.805 . S
C190 C51 1.799 . S
C205 C22 1.799 . S
C217 C65 1.806 . S
C232 C79 1.816 1_554 S
C244 C36 1.822 . S
C259 C20 1.468 . S
C271 C7 1.435 . S
C286 C34 1.414 . S
C298 C21 1.390 . S
C313 C35 1.391 . S
C325 C48 1.456 . S
C340 C62 1.469 . S
C352 C49 1.413 . S
C367 C76 1.453 . S
C379 C63 1.390 . S
C394 C77 1.385 . S
C406 C6 1.442 1_556 S
