# Generated by pormake.
# Topology mer, (4)-cn, num edge types: 1
# Building blocks:
#     Node 0, Type 0, BuildingBlock: QUQFOY_clean_sbu_1, # of connection points: 4
#     Node 1, Type 0, BuildingBlock: QUQFOY_clean_sbu_1, # of connection points: 4
#     Node 2, Type 0, BuildingBlock: QUQFOY_clean_sbu_1, # of connection points: 4
#     Node 3, Type 0, BuildingBlock: QUQFOY_clean_sbu_1, # of connection points: 4
#     Node 4, Type 0, BuildingBlock: QUQFOY_clean_sbu_1, # of connection points: 4
#     Node 5, Type 0, BuildingBlock: QUQFOY_clean_sbu_1, # of connection points: 4
#     Node 6, Type 0, BuildingBlock: QUQFOY_clean_sbu_1, # of connection points: 4
#     Node 7, Type 0, BuildingBlock: QUQFOY_clean_sbu_1, # of connection points: 4
#     Node 8, Type 0, BuildingBlock: QUQFOY_clean_sbu_1, # of connection points: 4
#     Node 9, Type 0, BuildingBlock: QUQFOY_clean_sbu_1, # of connection points: 4
#     Node 10, Type 0, BuildingBlock: QUQFOY_clean_sbu_1, # of connection points: 4
#     Node 11, Type 0, BuildingBlock: QUQFOY_clean_sbu_1, # of connection points: 4
#     Node 12, Type 0, BuildingBlock: QUQFOY_clean_sbu_1, # of connection points: 4
#     Node 13, Type 0, BuildingBlock: QUQFOY_clean_sbu_1, # of connection points: 4
#     Node 14, Type 0, BuildingBlock: QUQFOY_clean_sbu_1, # of connection points: 4
#     Node 15, Type 0, BuildingBlock: QUQFOY_clean_sbu_1, # of connection points: 4
#     Node 16, Type 0, BuildingBlock: QUQFOY_clean_sbu_1, # of connection points: 4
#     Node 17, Type 0, BuildingBlock: QUQFOY_clean_sbu_1, # of connection points: 4
#     Node 18, Type 0, BuildingBlock: QUQFOY_clean_sbu_1, # of connection points: 4
#     Node 19, Type 0, BuildingBlock: QUQFOY_clean_sbu_1, # of connection points: 4
#     Node 20, Type 0, BuildingBlock: QUQFOY_clean_sbu_1, # of connection points: 4
#     Node 21, Type 0, BuildingBlock: QUQFOY_clean_sbu_1, # of connection points: 4
#     Node 22, Type 0, BuildingBlock: QUQFOY_clean_sbu_1, # of connection points: 4
#     Node 23, Type 0, BuildingBlock: QUQFOY_clean_sbu_1, # of connection points: 4
#     Node 24, Type 0, BuildingBlock: QUQFOY_clean_sbu_1, # of connection points: 4
#     Node 25, Type 0, BuildingBlock: QUQFOY_clean_sbu_1, # of connection points: 4
#     Node 26, Type 0, BuildingBlock: QUQFOY_clean_sbu_1, # of connection points: 4
#     Node 27, Type 0, BuildingBlock: QUQFOY_clean_sbu_1, # of connection points: 4
#     Node 28, Type 0, BuildingBlock: QUQFOY_clean_sbu_1, # of connection points: 4
#     Node 29, Type 0, BuildingBlock: QUQFOY_clean_sbu_1, # of connection points: 4
#     Node 30, Type 0, BuildingBlock: QUQFOY_clean_sbu_1, # of connection points: 4
#     Node 31, Type 0, BuildingBlock: QUQFOY_clean_sbu_1, # of connection points: 4
#     Edge 32, Type (0, 0), BuildingBlock: UVAHIK_clean_linker_0, # of connection points: 2
#     Edge 33, Type (0, 0), BuildingBlock: UVAHIK_clean_linker_0, # of connection points: 2
#     Edge 34, Type (0, 0), BuildingBlock: UVAHIK_clean_linker_0, # of connection points: 2
#     Edge 35, Type (0, 0), BuildingBlock: UVAHIK_clean_linker_0, # of connection points: 2
#     Edge 36, Type (0, 0), BuildingBlock: UVAHIK_clean_linker_0, # of connection points: 2
#     Edge 37, Type (0, 0), BuildingBlock: UVAHIK_clean_linker_0, # of connection points: 2
#     Edge 38, Type (0, 0), BuildingBlock: UVAHIK_clean_linker_0, # of connection points: 2
#     Edge 39, Type (0, 0), BuildingBlock: UVAHIK_clean_linker_0, # of connection points: 2
#     Edge 40, Type (0, 0), BuildingBlock: UVAHIK_clean_linker_0, # of connection points: 2
#     Edge 41, Type (0, 0), BuildingBlock: UVAHIK_clean_linker_0, # of connection points: 2
#     Edge 42, Type (0, 0), BuildingBlock: UVAHIK_clean_linker_0, # of connection points: 2
#     Edge 43, Type (0, 0), BuildingBlock: UVAHIK_clean_linker_0, # of connection points: 2
#     Edge 44, Type (0, 0), BuildingBlock: UVAHIK_clean_linker_0, # of connection points: 2
#     Edge 45, Type (0, 0), BuildingBlock: UVAHIK_clean_linker_0, # of connection points: 2
#     Edge 46, Type (0, 0), BuildingBlock: UVAHIK_clean_linker_0, # of connection points: 2
#     Edge 47, Type (0, 0), BuildingBlock: UVAHIK_clean_linker_0, # of connection points: 2
#     Edge 48, Type (0, 0), BuildingBlock: UVAHIK_clean_linker_0, # of connection points: 2
#     Edge 49, Type (0, 0), BuildingBlock: UVAHIK_clean_linker_0, # of connection points: 2
#     Edge 50, Type (0, 0), BuildingBlock: UVAHIK_clean_linker_0, # of connection points: 2
#     Edge 51, Type (0, 0), BuildingBlock: UVAHIK_clean_linker_0, # of connection points: 2
#     Edge 52, Type (0, 0), BuildingBlock: UVAHIK_clean_linker_0, # of connection points: 2
#     Edge 53, Type (0, 0), BuildingBlock: UVAHIK_clean_linker_0, # of connection points: 2
#     Edge 54, Type (0, 0), BuildingBlock: UVAHIK_clean_linker_0, # of connection points: 2
#     Edge 55, Type (0, 0), BuildingBlock: UVAHIK_clean_linker_0, # of connection points: 2
#     Edge 56, Type (0, 0), BuildingBlock: UVAHIK_clean_linker_0, # of connection points: 2
#     Edge 57, Type (0, 0), BuildingBlock: UVAHIK_clean_linker_0, # of connection points: 2
#     Edge 58, Type (0, 0), BuildingBlock: UVAHIK_clean_linker_0, # of connection points: 2
#     Edge 59, Type (0, 0), BuildingBlock: UVAHIK_clean_linker_0, # of connection points: 2
#     Edge 60, Type (0, 0), BuildingBlock: UVAHIK_clean_linker_0, # of connection points: 2
#     Edge 61, Type (0, 0), BuildingBlock: UVAHIK_clean_linker_0, # of connection points: 2
#     Edge 62, Type (0, 0), BuildingBlock: UVAHIK_clean_linker_0, # of connection points: 2
#     Edge 63, Type (0, 0), BuildingBlock: UVAHIK_clean_linker_0, # of connection points: 2
#     Edge 64, Type (0, 0), BuildingBlock: UVAHIK_clean_linker_0, # of connection points: 2
#     Edge 65, Type (0, 0), BuildingBlock: UVAHIK_clean_linker_0, # of connection points: 2
#     Edge 66, Type (0, 0), BuildingBlock: UVAHIK_clean_linker_0, # of connection points: 2
#     Edge 67, Type (0, 0), BuildingBlock: UVAHIK_clean_linker_0, # of connection points: 2
#     Edge 68, Type (0, 0), BuildingBlock: UVAHIK_clean_linker_0, # of connection points: 2
#     Edge 69, Type (0, 0), BuildingBlock: UVAHIK_clean_linker_0, # of connection points: 2
#     Edge 70, Type (0, 0), BuildingBlock: UVAHIK_clean_linker_0, # of connection points: 2
#     Edge 71, Type (0, 0), BuildingBlock: UVAHIK_clean_linker_0, # of connection points: 2
#     Edge 72, Type (0, 0), BuildingBlock: UVAHIK_clean_linker_0, # of connection points: 2
#     Edge 73, Type (0, 0), BuildingBlock: UVAHIK_clean_linker_0, # of connection points: 2
#     Edge 74, Type (0, 0), BuildingBlock: UVAHIK_clean_linker_0, # of connection points: 2
#     Edge 75, Type (0, 0), BuildingBlock: UVAHIK_clean_linker_0, # of connection points: 2
#     Edge 76, Type (0, 0), BuildingBlock: UVAHIK_clean_linker_0, # of connection points: 2
#     Edge 77, Type (0, 0), BuildingBlock: UVAHIK_clean_linker_0, # of connection points: 2
#     Edge 78, Type (0, 0), BuildingBlock: UVAHIK_clean_linker_0, # of connection points: 2
#     Edge 79, Type (0, 0), BuildingBlock: UVAHIK_clean_linker_0, # of connection points: 2
#     Edge 80, Type (0, 0), BuildingBlock: UVAHIK_clean_linker_0, # of connection points: 2
#     Edge 81, Type (0, 0), BuildingBlock: UVAHIK_clean_linker_0, # of connection points: 2
#     Edge 82, Type (0, 0), BuildingBlock: UVAHIK_clean_linker_0, # of connection points: 2
#     Edge 83, Type (0, 0), BuildingBlock: UVAHIK_clean_linker_0, # of connection points: 2
#     Edge 84, Type (0, 0), BuildingBlock: UVAHIK_clean_linker_0, # of connection points: 2
#     Edge 85, Type (0, 0), BuildingBlock: UVAHIK_clean_linker_0, # of connection points: 2
#     Edge 86, Type (0, 0), BuildingBlock: UVAHIK_clean_linker_0, # of connection points: 2
#     Edge 87, Type (0, 0), BuildingBlock: UVAHIK_clean_linker_0, # of connection points: 2
#     Edge 88, Type (0, 0), BuildingBlock: UVAHIK_clean_linker_0, # of connection points: 2
#     Edge 89, Type (0, 0), BuildingBlock: UVAHIK_clean_linker_0, # of connection points: 2
#     Edge 90, Type (0, 0), BuildingBlock: UVAHIK_clean_linker_0, # of connection points: 2
#     Edge 91, Type (0, 0), BuildingBlock: UVAHIK_clean_linker_0, # of connection points: 2
#     Edge 92, Type (0, 0), BuildingBlock: UVAHIK_clean_linker_0, # of connection points: 2
#     Edge 93, Type (0, 0), BuildingBlock: UVAHIK_clean_linker_0, # of connection points: 2
#     Edge 94, Type (0, 0), BuildingBlock: UVAHIK_clean_linker_0, # of connection points: 2
#     Edge 95, Type (0, 0), BuildingBlock: UVAHIK_clean_linker_0, # of connection points: 2
# Relax obj value: 0.010
# Max RMSD: 0.061
# Mean RMSD: 0.061
data_MOF--net-mer--node1-QUQFOY_clean_sbu_1--edge1-UVAHIK_clean_linker_0
_symmetry_space_group_name_H-M    P1
_symmetry_Int_Tables_number       1
_symmetry_cell_setting            triclinic
loop_
_symmetry_equiv_pos_as_xyz
'x, y, z'
_cell_length_a     86.638362
_cell_length_b     86.637599
_cell_length_c     70.43891
_cell_angle_alpha  90.002116
_cell_angle_beta   89.9763
_cell_angle_gamma 90.010041
loop_
_atom_site_label
_atom_site_type_symbol
_atom_site_fract_x
_atom_site_fract_y
_atom_site_fract_z
_atom_type_partial_charge
O0 O 0.14685 0.27354 0.36069 0.0
Cd1 Cd 0.13323 0.29282 0.36444 0.0
Cd2 Cd 0.11073 0.27146 0.36751 0.0
O3 O 0.12805 0.25644 0.35895 0.0
O4 O 0.14458 0.31039 0.35258 0.0
O5 O 0.12259 0.30117 0.34128 0.0
C6 C 0.13408 0.3106 0.3396 0.0
C7 C 0.0859 0.26997 0.35445 0.0
C8 C 0.14235 0.25974 0.35805 0.0
C9 C 0.11846 0.29051 0.40239 0.0
O10 O 0.11129 0.27907 0.3953 0.0
O11 O 0.12747 0.29855 0.39211 0.0
O12 O 0.09107 0.25954 0.36585 0.0
O13 O 0.09512 0.28106 0.34979 0.0
O14 O 0.7348 0.14684 0.35942 0.0
Cd15 Cd 0.71499 0.13404 0.36359 0.0
Cd16 Cd 0.73554 0.11047 0.36648 0.0
O17 O 0.75093 0.12723 0.35737 0.0
O18 O 0.69766 0.14635 0.35276 0.0
O19 O 0.70555 0.12418 0.34048 0.0
C20 C 0.69656 0.13607 0.33958 0.0
C21 C 0.73729 0.08524 0.35462 0.0
C22 C 0.74832 0.14166 0.35647 0.0
C23 C 0.71709 0.11912 0.40154 0.0
O24 O 0.72821 0.11153 0.39434 0.0
O25 O 0.70933 0.1284 0.39132 0.0
O26 O 0.74764 0.09092 0.36572 0.0
O27 O 0.72607 0.09413 0.34952 0.0
O28 O 0.85978 0.73416 0.35989 0.0
Cd29 Cd 0.87321 0.71476 0.36376 0.0
Cd30 Cd 0.89605 0.73588 0.36677 0.0
O31 O 0.87889 0.75087 0.35771 0.0
O32 O 0.86182 0.69725 0.35188 0.0
O33 O 0.88394 0.70632 0.34071 0.0
C34 C 0.87241 0.69694 0.33899 0.0
C35 C 0.92124 0.73808 0.35487 0.0
C36 C 0.86454 0.74783 0.35693 0.0
C37 C 0.88787 0.71701 0.4017 0.0
O38 O 0.89512 0.72839 0.39459 0.0
O39 O 0.87886 0.70898 0.39142 0.0
O40 O 0.91541 0.74833 0.366 0.0
O41 O 0.91251 0.72673 0.34976 0.0
O42 O 0.27399 0.85958 0.36038 0.0
Cd43 Cd 0.29316 0.87337 0.36413 0.0
Cd44 Cd 0.27148 0.89576 0.36691 0.0
O45 O 0.2568 0.87826 0.3581 0.0
O46 O 0.31093 0.86166 0.35336 0.0
O47 O 0.30206 0.88332 0.34074 0.0
C48 C 0.31151 0.87178 0.33995 0.0
C49 C 0.26918 0.92078 0.35455 0.0
C50 C 0.26019 0.86398 0.35745 0.0
C51 C 0.29036 0.88828 0.40198 0.0
O52 O 0.27882 0.8952 0.39479 0.0
O53 O 0.29864 0.87945 0.39176 0.0
O54 O 0.25887 0.91498 0.36564 0.0
O55 O 0.28064 0.91209 0.34971 0.0
O56 O 0.14772 0.73293 0.64803 0.0
Cd57 Cd 0.13447 0.7134 0.64407 0.0
Cd58 Cd 0.11133 0.73438 0.64136 0.0
O59 O 0.12843 0.74942 0.65042 0.0
O60 O 0.14638 0.69586 0.65505 0.0
O61 O 0.12441 0.70436 0.66729 0.0
C62 C 0.13609 0.69511 0.66828 0.0
C63 C 0.08616 0.73664 0.65331 0.0
C64 C 0.14282 0.74654 0.65111 0.0
C65 C 0.11949 0.71577 0.60624 0.0
O66 O 0.11217 0.72705 0.61348 0.0
O67 O 0.12863 0.70779 0.61641 0.0
O68 O 0.09203 0.74688 0.6422 0.0
O69 O 0.09484 0.72523 0.65837 0.0
O70 O 0.26957 0.14474 0.64772 0.0
Cd71 Cd 0.28989 0.13281 0.64347 0.0
Cd72 Cd 0.26975 0.10873 0.64017 0.0
O73 O 0.25363 0.12494 0.64885 0.0
O74 O 0.306 0.14684 0.65392 0.0
O75 O 0.3007 0.12404 0.66643 0.0
C76 C 0.30831 0.13686 0.6672 0.0
C77 C 0.26916 0.08375 0.65289 0.0
C78 C 0.25607 0.13937 0.65017 0.0
C79 C 0.2884 0.11798 0.6054 0.0
O80 O 0.27751 0.10998 0.61248 0.0
O81 O 0.29576 0.12754 0.61569 0.0
O82 O 0.25873 0.08855 0.64129 0.0
O83 O 0.27983 0.09336 0.65786 0.0
O84 O 0.85749 0.27472 0.647 0.0
Cd85 Cd 0.87134 0.29383 0.64316 0.0
Cd86 Cd 0.89371 0.27233 0.64049 0.0
O87 O 0.87623 0.25761 0.64931 0.0
O88 O 0.86042 0.31159 0.65516 0.0
O89 O 0.88233 0.30195 0.66617 0.0
C90 C 0.87104 0.3116 0.66801 0.0
C91 C 0.91874 0.26987 0.65275 0.0
C92 C 0.86194 0.26095 0.64998 0.0
C93 C 0.88617 0.2912 0.60536 0.0
O94 O 0.89317 0.27974 0.61263 0.0
O95 O 0.87721 0.29941 0.61549 0.0
O96 O 0.91287 0.25963 0.64162 0.0
O97 O 0.9101 0.28134 0.65769 0.0
O98 O 0.73278 0.85988 0.64787 0.0
Cd99 Cd 0.7133 0.87323 0.64417 0.0
Cd100 Cd 0.73455 0.89611 0.64101 0.0
O101 O 0.74962 0.87891 0.64971 0.0
O102 O 0.69582 0.86113 0.65505 0.0
O103 O 0.70424 0.88301 0.66759 0.0
C104 C 0.69505 0.87126 0.66845 0.0
C105 C 0.73676 0.92122 0.65314 0.0
C106 C 0.74651 0.86457 0.65056 0.0
C107 C 0.71554 0.88809 0.6062 0.0
O108 O 0.72696 0.89532 0.61324 0.0
O109 O 0.70755 0.87908 0.61653 0.0
O110 O 0.74698 0.91546 0.64189 0.0
O111 O 0.72543 0.91244 0.65824 0.0
O112 O 0.86021 0.73429 0.6473 0.0
Cd113 Cd 0.8732 0.71461 0.64339 0.0
Cd114 Cd 0.89616 0.73596 0.64023 0.0
O115 O 0.87914 0.75123 0.64895 0.0
O116 O 0.85988 0.69789 0.65377 0.0
O117 O 0.88228 0.70435 0.66653 0.0
C118 C 0.86983 0.69615 0.66721 0.0
C119 C 0.92126 0.73788 0.65237 0.0
C120 C 0.86483 0.74805 0.64993 0.0
C121 C 0.88794 0.71688 0.60541 0.0
O122 O 0.89523 0.72825 0.6125 0.0
O123 O 0.87888 0.7089 0.61569 0.0
O124 O 0.91566 0.74813 0.64106 0.0
O125 O 0.91235 0.72668 0.6575 0.0
O126 O 0.27307 0.85927 0.64747 0.0
Cd127 Cd 0.29255 0.87258 0.6435 0.0
Cd128 Cd 0.2716 0.89557 0.64105 0.0
O129 O 0.25648 0.87847 0.64992 0.0
O130 O 0.31015 0.86065 0.65433 0.0
O131 O 0.30163 0.88253 0.66675 0.0
C132 C 0.3109 0.87086 0.66764 0.0
C133 C 0.27037 0.92041 0.65412 0.0
C134 C 0.25944 0.86409 0.65056 0.0
C135 C 0.29005 0.88776 0.60576 0.0
O136 O 0.27878 0.89502 0.61309 0.0
O137 O 0.29807 0.87859 0.61584 0.0
O138 O 0.2598 0.91527 0.64291 0.0
O139 O 0.28149 0.91117 0.65858 0.0
O140 O 0.14513 0.27002 0.64838 0.0
Cd141 Cd 0.13327 0.29039 0.64419 0.0
Cd142 Cd 0.10898 0.27019 0.64078 0.0
O143 O 0.12524 0.25419 0.64963 0.0
O144 O 0.14735 0.30644 0.65467 0.0
O145 O 0.12452 0.3012 0.66717 0.0
C146 C 0.13737 0.30877 0.66796 0.0
C147 C 0.08364 0.26852 0.6523 0.0
C148 C 0.13969 0.25656 0.6509 0.0
C149 C 0.11849 0.28897 0.60612 0.0
O150 O 0.11047 0.27808 0.61316 0.0
O151 O 0.12804 0.29632 0.61643 0.0
O152 O 0.08924 0.2584 0.64083 0.0
O153 O 0.09264 0.2795 0.65788 0.0
O154 O 0.73129 0.14725 0.6472 0.0
Cd155 Cd 0.71225 0.13333 0.64327 0.0
Cd156 Cd 0.734 0.11111 0.64053 0.0
O157 O 0.74856 0.12866 0.6495 0.0
O158 O 0.69435 0.14474 0.65422 0.0
O159 O 0.70349 0.12307 0.66653 0.0
C160 C 0.69392 0.13449 0.66751 0.0
C161 C 0.73634 0.08609 0.65285 0.0
C162 C 0.7451 0.14292 0.65019 0.0
C163 C 0.71525 0.11861 0.60536 0.0
O164 O 0.72679 0.11171 0.61259 0.0
O165 O 0.70688 0.12737 0.61556 0.0
O166 O 0.74667 0.09194 0.64184 0.0
O167 O 0.72483 0.09474 0.65763 0.0
O168 O 0.86135 0.27113 0.35891 0.0
Cd169 Cd 0.87382 0.29108 0.36338 0.0
Cd170 Cd 0.89732 0.27044 0.36695 0.0
O171 O 0.88077 0.25471 0.3581 0.0
O172 O 0.86062 0.30771 0.3525 0.0
O173 O 0.88349 0.30154 0.34075 0.0
C174 C 0.87101 0.30968 0.33961 0.0
C175 C 0.92237 0.26944 0.35445 0.0
C176 C 0.86641 0.25749 0.35658 0.0
C177 C 0.88821 0.28924 0.40164 0.0
O178 O 0.89606 0.27821 0.39465 0.0
O179 O 0.87888 0.29679 0.39124 0.0
O180 O 0.9173 0.25905 0.36597 0.0
O181 O 0.91297 0.28027 0.34943 0.0
O182 O 0.73272 0.85871 0.36063 0.0
Cd183 Cd 0.71311 0.87183 0.36464 0.0
Cd184 Cd 0.73394 0.89513 0.36724 0.0
O185 O 0.74908 0.87811 0.35819 0.0
O186 O 0.69563 0.85981 0.35368 0.0
O187 O 0.704 0.88182 0.34143 0.0
C188 C 0.69481 0.87008 0.34045 0.0
C189 C 0.73606 0.92029 0.35522 0.0
C190 C 0.74629 0.8637 0.35752 0.0
C191 C 0.71543 0.88691 0.40244 0.0
O192 O 0.72663 0.89431 0.39514 0.0
O193 O 0.70751 0.87767 0.39232 0.0
O194 O 0.74634 0.9145 0.36634 0.0
O195 O 0.7247 0.91154 0.35021 0.0
O196 O 0.14745 0.73242 0.36079 0.0
Cd197 Cd 0.13369 0.71323 0.36453 0.0
Cd198 Cd 0.11127 0.73477 0.36766 0.0
O199 O 0.12871 0.74956 0.35887 0.0
O200 O 0.1449 0.69559 0.35267 0.0
O201 O 0.12295 0.70493 0.3414 0.0
C202 C 0.13437 0.69542 0.33971 0.0
C203 C 0.0862 0.73726 0.35554 0.0
C204 C 0.143 0.74622 0.35804 0.0
C205 C 0.11902 0.71563 0.4025 0.0
O206 O 0.11198 0.72715 0.39543 0.0
O207 O 0.12791 0.70749 0.39218 0.0
O208 O 0.09206 0.74742 0.36677 0.0
O209 O 0.09484 0.72584 0.35045 0.0
O210 O 0.2737 0.14694 0.35988 0.0
Cd211 Cd 0.29295 0.1333 0.36373 0.0
Cd212 Cd 0.27143 0.11073 0.36655 0.0
O213 O 0.25663 0.12813 0.35773 0.0
O214 O 0.31068 0.14504 0.35289 0.0
O215 O 0.30189 0.12329 0.34041 0.0
C216 C 0.3113 0.13486 0.33954 0.0
C217 C 0.26915 0.08567 0.3543 0.0
C218 C 0.25993 0.14244 0.357 0.0
C219 C 0.29024 0.11845 0.40162 0.0
O220 O 0.27879 0.11137 0.39442 0.0
O221 O 0.29843 0.12737 0.39142 0.0
O222 O 0.25886 0.09147 0.3654 0.0
O223 O 0.28058 0.09438 0.34939 0.0
O224 O 0.64661 0.77151 0.86003 0.0
Cd225 Cd 0.63376 0.79129 0.86409 0.0
Cd226 Cd 0.61027 0.77078 0.86736 0.0
O227 O 0.62702 0.75531 0.85838 0.0
O228 O 0.64554 0.80852 0.85213 0.0
O229 O 0.62311 0.80008 0.84118 0.0
C230 C 0.63487 0.80917 0.83936 0.0
C231 C 0.58502 0.76882 0.85563 0.0
C232 C 0.64144 0.75796 0.85731 0.0
C233 C 0.61912 0.78953 0.90216 0.0
O234 O 0.61144 0.77842 0.8951 0.0
O235 O 0.62842 0.79719 0.89184 0.0
O236 O 0.59074 0.75862 0.86691 0.0
O237 O 0.59387 0.78 0.85031 0.0
O238 O 0.23311 0.64691 0.86111 0.0
Cd239 Cd 0.2136 0.63359 0.86482 0.0
Cd240 Cd 0.23447 0.6106 0.86759 0.0
O241 O 0.24971 0.6277 0.85897 0.0
O242 O 0.19617 0.64506 0.85287 0.0
O243 O 0.20523 0.62295 0.84169 0.0
C244 C 0.19589 0.6345 0.83993 0.0
C245 C 0.23588 0.58575 0.85458 0.0
C246 C 0.24677 0.64208 0.85824 0.0
C247 C 0.21562 0.61851 0.90259 0.0
O248 O 0.22692 0.61119 0.89539 0.0
O249 O 0.20775 0.62775 0.89242 0.0
O250 O 0.2463 0.5909 0.86599 0.0
O251 O 0.22482 0.59498 0.84989 0.0
O252 O 0.36087 0.236 0.85961 0.0
Cd253 Cd 0.37267 0.21561 0.8639 0.0
Cd254 Cd 0.39701 0.23571 0.86727 0.0
O255 O 0.38082 0.25176 0.85837 0.0
O256 O 0.35858 0.19957 0.8534 0.0
O257 O 0.38145 0.20474 0.84099 0.0
C258 C 0.36859 0.1972 0.84016 0.0
C259 C 0.42235 0.23726 0.85573 0.0
C260 C 0.36637 0.24944 0.85707 0.0
C261 C 0.3874 0.21706 0.902 0.0
O262 O 0.39548 0.22788 0.89492 0.0
O263 O 0.37782 0.20973 0.8917 0.0
O264 O 0.41679 0.24743 0.86718 0.0
O265 O 0.41331 0.2263 0.8502 0.0
O266 O 0.77465 0.35802 0.86068 0.0
Cd267 Cd 0.7937 0.37193 0.86468 0.0
Cd268 Cd 0.77195 0.39413 0.86755 0.0
O269 O 0.75738 0.37662 0.85847 0.0
O270 O 0.81159 0.36055 0.85369 0.0
O271 O 0.80246 0.38226 0.84149 0.0
C272 C 0.81204 0.37084 0.84047 0.0
C273 C 0.76961 0.41921 0.85545 0.0
C274 C 0.76085 0.36236 0.8577 0.0
C275 C 0.79071 0.3865 0.90266 0.0
O276 O 0.77916 0.39341 0.89548 0.0
O277 O 0.79908 0.37778 0.89241 0.0
O278 O 0.75928 0.4133 0.86642 0.0
O279 O 0.78111 0.41059 0.85058 0.0
O280 O 0.64558 0.23438 0.14846 0.0
Cd281 Cd 0.63269 0.21461 0.14454 0.0
Cd282 Cd 0.60935 0.23515 0.14116 0.0
O283 O 0.62609 0.2507 0.14993 0.0
O284 O 0.64461 0.19743 0.1564 0.0
O285 O 0.62224 0.20581 0.1676 0.0
C286 C 0.63404 0.19677 0.1693 0.0
C287 C 0.58435 0.23626 0.15383 0.0
C288 C 0.64049 0.24799 0.15105 0.0
C289 C 0.61801 0.21627 0.10646 0.0
O290 O 0.61038 0.22745 0.11343 0.0
O291 O 0.62726 0.20863 0.11686 0.0
O292 O 0.58944 0.24667 0.14237 0.0
O293 O 0.5937 0.22536 0.15874 0.0
O294 O 0.77293 0.64774 0.14844 0.0
Cd295 Cd 0.79256 0.63469 0.14426 0.0
Cd296 Cd 0.77173 0.61136 0.14148 0.0
O297 O 0.75656 0.62832 0.15059 0.0
O298 O 0.81004 0.64679 0.15508 0.0
O299 O 0.80189 0.6247 0.16735 0.0
C300 C 0.81102 0.63649 0.16825 0.0
C301 C 0.76965 0.58614 0.1533 0.0
C302 C 0.75935 0.64273 0.15144 0.0
C303 C 0.79024 0.6198 0.10636 0.0
O304 O 0.77907 0.61231 0.11361 0.0
O305 O 0.79811 0.62903 0.11653 0.0
O306 O 0.75938 0.59196 0.14222 0.0
O307 O 0.78098 0.59489 0.15842 0.0
O308 O 0.35874 0.77389 0.14741 0.0
Cd309 Cd 0.37242 0.79315 0.14374 0.0
Cd310 Cd 0.39491 0.77169 0.14041 0.0
O311 O 0.37753 0.75679 0.14911 0.0
O312 O 0.36114 0.81071 0.1557 0.0
O313 O 0.38315 0.80145 0.16688 0.0
C314 C 0.37169 0.81091 0.16862 0.0
C315 C 0.42003 0.76925 0.15242 0.0
C316 C 0.36324 0.76009 0.15002 0.0
C317 C 0.38703 0.79097 0.10573 0.0
O318 O 0.39414 0.77945 0.1127 0.0
O319 O 0.37812 0.79902 0.11611 0.0
O320 O 0.41418 0.75911 0.14115 0.0
O321 O 0.41134 0.7806 0.15763 0.0
O322 O 0.2338 0.35898 0.14865 0.0
Cd323 Cd 0.2142 0.37205 0.1444 0.0
Cd324 Cd 0.23508 0.39534 0.14164 0.0
O325 O 0.25021 0.37835 0.15081 0.0
O326 O 0.19668 0.36001 0.15525 0.0
O327 O 0.20487 0.3821 0.16746 0.0
C328 C 0.19572 0.37033 0.16841 0.0
C329 C 0.2371 0.42056 0.15351 0.0
C330 C 0.24738 0.36396 0.15167 0.0
C331 C 0.21669 0.38687 0.10646 0.0
O332 O 0.22784 0.39435 0.11373 0.0
O333 O 0.20876 0.37768 0.11662 0.0
O334 O 0.24743 0.41476 0.14246 0.0
O335 O 0.22576 0.41179 0.15856 0.0
O336 O 0.3596 0.2335 0.14794 0.0
Cd337 Cd 0.37268 0.2139 0.1438 0.0
Cd338 Cd 0.39586 0.23463 0.14079 0.0
O339 O 0.37895 0.24997 0.14968 0.0
O340 O 0.36107 0.19649 0.15564 0.0
O341 O 0.38338 0.20514 0.16669 0.0
C342 C 0.37171 0.19593 0.16844 0.0
C343 C 0.42081 0.23586 0.15356 0.0
C344 C 0.36456 0.24712 0.15071 0.0
C345 C 0.38741 0.216 0.10579 0.0
O346 O 0.39498 0.22714 0.11296 0.0
O347 O 0.37815 0.20821 0.11603 0.0
O348 O 0.41567 0.24631 0.1422 0.0
O349 O 0.41153 0.22484 0.15831 0.0
O350 O 0.77111 0.35966 0.14932 0.0
Cd351 Cd 0.7911 0.37205 0.14469 0.0
Cd352 Cd 0.77053 0.39575 0.14138 0.0
O353 O 0.7549 0.37924 0.15056 0.0
O354 O 0.80778 0.35895 0.15559 0.0
O355 O 0.8016 0.38187 0.16717 0.0
C356 C 0.80977 0.36942 0.16838 0.0
C357 C 0.76884 0.42109 0.15288 0.0
C358 C 0.75755 0.36484 0.15193 0.0
C359 C 0.78907 0.38645 0.10649 0.0
O360 O 0.7781 0.3943 0.11362 0.0
O361 O 0.7967 0.37711 0.11678 0.0
O362 O 0.75858 0.4154 0.14167 0.0
O363 O 0.77996 0.41216 0.15826 0.0
O364 O 0.64661 0.77276 0.148 0.0
Cd365 Cd 0.63338 0.79227 0.14401 0.0
Cd366 Cd 0.61032 0.77131 0.14082 0.0
O367 O 0.62734 0.7562 0.14997 0.0
O368 O 0.64486 0.80968 0.15601 0.0
O369 O 0.62261 0.80079 0.167 0.0
C370 C 0.63421 0.81006 0.16884 0.0
C371 C 0.58506 0.76911 0.1525 0.0
C372 C 0.64172 0.75912 0.15089 0.0
C373 C 0.61886 0.79015 0.10595 0.0
O374 O 0.61144 0.77887 0.11303 0.0
O375 O 0.62793 0.79807 0.11628 0.0
O376 O 0.59094 0.75891 0.14134 0.0
O377 O 0.59377 0.78043 0.15775 0.0
O378 O 0.23219 0.64675 0.14777 0.0
Cd379 Cd 0.21296 0.63304 0.14412 0.0
Cd380 Cd 0.23456 0.61056 0.14114 0.0
O381 O 0.24935 0.62803 0.14982 0.0
O382 O 0.19526 0.64481 0.15498 0.0
O383 O 0.20408 0.62311 0.16754 0.0
C384 C 0.19467 0.63468 0.16837 0.0
C385 C 0.23689 0.58553 0.15344 0.0
C386 C 0.246 0.64232 0.15054 0.0
C387 C 0.21549 0.61811 0.10625 0.0
O388 O 0.22704 0.61113 0.11334 0.0
O389 O 0.20733 0.627 0.11652 0.0
O390 O 0.24714 0.59132 0.14226 0.0
O391 O 0.22548 0.59424 0.15841 0.0
O392 O 0.3585 0.77332 0.86046 0.0
Cd393 Cd 0.37176 0.79286 0.86419 0.0
Cd394 Cd 0.39486 0.77201 0.86721 0.0
O395 O 0.3778 0.75683 0.85837 0.0
O396 O 0.36034 0.81025 0.85209 0.0
O397 O 0.38254 0.80121 0.84112 0.0
C398 C 0.37098 0.81053 0.83925 0.0
C399 C 0.42005 0.76968 0.85534 0.0
C400 C 0.36341 0.75969 0.85759 0.0
C401 C 0.38658 0.79095 0.90207 0.0
O402 O 0.39396 0.77966 0.89497 0.0
O403 O 0.3774 0.7988 0.89182 0.0
O404 O 0.4142 0.75955 0.86662 0.0
O405 O 0.41135 0.781 0.85008 0.0
O406 O 0.2367 0.36133 0.86006 0.0
Cd407 Cd 0.21637 0.3732 0.86444 0.0
Cd408 Cd 0.2365 0.39732 0.86787 0.0
O409 O 0.25263 0.38116 0.85909 0.0
O410 O 0.20029 0.35913 0.85402 0.0
O411 O 0.20546 0.38199 0.84157 0.0
C412 C 0.1979 0.36913 0.84078 0.0
C413 C 0.23715 0.42236 0.85533 0.0
C414 C 0.25021 0.36673 0.85765 0.0
C415 C 0.21791 0.38787 0.90261 0.0
O416 O 0.22875 0.39594 0.89555 0.0
O417 O 0.21055 0.37832 0.89228 0.0
O418 O 0.24756 0.41749 0.86693 0.0
O419 O 0.22647 0.41279 0.85028 0.0
O420 O 0.64844 0.23059 0.86109 0.0
Cd421 Cd 0.63458 0.2115 0.86493 0.0
Cd422 Cd 0.61223 0.23302 0.86756 0.0
O423 O 0.62972 0.24771 0.85871 0.0
O424 O 0.64548 0.19373 0.85293 0.0
O425 O 0.62359 0.20341 0.84189 0.0
C426 C 0.63488 0.19375 0.84005 0.0
C427 C 0.58721 0.23551 0.85527 0.0
C428 C 0.64401 0.24436 0.85807 0.0
C429 C 0.61973 0.21419 0.90273 0.0
O430 O 0.61276 0.22566 0.89544 0.0
O431 O 0.62867 0.20594 0.89261 0.0
O432 O 0.59308 0.24574 0.8664 0.0
O433 O 0.59583 0.22401 0.85037 0.0
O434 O 0.77135 0.64565 0.86021 0.0
Cd435 Cd 0.79146 0.6334 0.86449 0.0
Cd436 Cd 0.77083 0.60956 0.86792 0.0
O437 O 0.75514 0.62607 0.8589 0.0
O438 O 0.80778 0.64716 0.85399 0.0
O439 O 0.80217 0.62438 0.84161 0.0
C440 C 0.80996 0.63709 0.84077 0.0
C441 C 0.769 0.58422 0.85643 0.0
C442 C 0.75779 0.64047 0.85763 0.0
C443 C 0.78966 0.61883 0.90262 0.0
O444 O 0.77863 0.61101 0.89559 0.0
O445 O 0.79724 0.62819 0.89228 0.0
O446 O 0.75885 0.58993 0.86779 0.0
O447 O 0.7801 0.59313 0.85093 0.0
C448 C 0.23196 0.14968 0.35328 0.0
C449 C 0.24759 0.15404 0.35382 0.0
C450 C 0.22033 0.16086 0.35188 0.0
C451 C 0.21361 0.20213 0.36188 0.0
H452 H 0.17651 0.19656 0.33188 0.0
C453 C 0.16968 0.2512 0.35313 0.0
C454 C 0.15396 0.24742 0.35483 0.0
C455 C 0.18083 0.23963 0.35151 0.0
C456 C 0.18675 0.19822 0.34046 0.0
H457 H 0.26325 0.17357 0.35247 0.0
H458 H 0.24307 0.19295 0.34978 0.0
H459 H 0.19652 0.17664 0.3316 0.0
H460 H 0.13762 0.22844 0.35557 0.0
H461 H 0.15715 0.20822 0.35292 0.0
H462 H 0.2039 0.22358 0.37088 0.0
C463 C 0.23975 0.18092 0.35084 0.0
C464 C 0.19821 0.18681 0.34029 0.0
C465 C 0.25134 0.16979 0.35228 0.0
C466 C 0.14963 0.23177 0.35429 0.0
C467 C 0.16082 0.22017 0.35269 0.0
C468 C 0.20219 0.21349 0.36204 0.0
C469 C 0.22409 0.17664 0.35097 0.0
C470 C 0.21181 0.18867 0.35096 0.0
C471 C 0.17658 0.22397 0.35159 0.0
C472 C 0.18865 0.21173 0.35128 0.0
H473 H 0.22866 0.13766 0.35445 0.0
H474 H 0.20839 0.15716 0.35214 0.0
H475 H 0.22376 0.2038 0.37061 0.0
H476 H 0.17345 0.26312 0.35332 0.0
H477 H 0.19284 0.24299 0.35031 0.0
C478 C 0.75827 0.1685 0.35109 0.0
C479 C 0.76118 0.15259 0.3528 0.0
C480 C 0.77042 0.17895 0.34878 0.0
C481 C 0.81192 0.18337 0.35833 0.0
H482 H 0.80787 0.21922 0.32576 0.0
C483 C 0.86026 0.22931 0.35213 0.0
C484 C 0.85533 0.24477 0.35287 0.0
C485 C 0.84956 0.21733 0.34984 0.0
C486 C 0.80915 0.20931 0.33501 0.0
H487 H 0.7792 0.13519 0.35297 0.0
H488 H 0.8004 0.15346 0.34889 0.0
H489 H 0.78769 0.19958 0.32583 0.0
H490 H 0.83526 0.25972 0.35131 0.0
H491 H 0.81671 0.23893 0.34751 0.0
H492 H 0.83321 0.19326 0.36782 0.0
C493 C 0.7887 0.15784 0.34951 0.0
C494 C 0.79759 0.19805 0.33504 0.0
C495 C 0.77653 0.14736 0.35174 0.0
C496 C 0.8395 0.24797 0.35081 0.0
C497 C 0.82884 0.23603 0.34849 0.0
C498 C 0.82348 0.19464 0.35832 0.0
C499 C 0.78579 0.17377 0.34818 0.0
C500 C 0.7987 0.18507 0.34693 0.0
C501 C 0.83369 0.22055 0.34816 0.0
C502 C 0.82211 0.20788 0.34689 0.0
H503 H 0.74661 0.17295 0.35183 0.0
H504 H 0.76777 0.19115 0.34804 0.0
H505 H 0.81306 0.1736 0.36783 0.0
H506 H 0.87236 0.22643 0.35363 0.0
H507 H 0.8537 0.20555 0.34944 0.0
C508 C 0.83733 0.75697 0.3523 0.0
C509 C 0.85319 0.76034 0.35339 0.0
C510 C 0.82649 0.76877 0.35013 0.0
C511 C 0.82122 0.81036 0.35874 0.0
H512 H 0.78453 0.80466 0.32801 0.0
C513 C 0.77436 0.85767 0.3522 0.0
C514 C 0.759 0.85259 0.35389 0.0
C515 C 0.7864 0.84705 0.34997 0.0
C516 C 0.79467 0.8064 0.33674 0.0
H517 H 0.87007 0.77883 0.35255 0.0
H518 H 0.85112 0.79945 0.34864 0.0
H519 H 0.80466 0.78498 0.32787 0.0
H520 H 0.74426 0.83233 0.3541 0.0
H521 H 0.7652 0.81388 0.35034 0.0
H522 H 0.81111 0.83165 0.36787 0.0
C523 C 0.84709 0.78764 0.34969 0.0
C524 C 0.80621 0.79511 0.33666 0.0
C525 C 0.85795 0.77581 0.35183 0.0
C526 C 0.75594 0.83667 0.35284 0.0
C527 C 0.76796 0.82608 0.35056 0.0
C528 C 0.80968 0.82165 0.35882 0.0
C529 C 0.83121 0.78428 0.349 0.0
C530 C 0.81952 0.79684 0.34788 0.0
C531 C 0.78335 0.83111 0.34929 0.0
C532 C 0.79616 0.8197 0.34804 0.0
H533 H 0.83322 0.7452 0.35346 0.0
H534 H 0.81436 0.76577 0.34991 0.0
H535 H 0.83122 0.81198 0.36774 0.0
H536 H 0.77714 0.86985 0.3529 0.0
H537 H 0.79811 0.85132 0.34881 0.0
C538 C 0.1503 0.77416 0.3541 0.0
C539 C 0.15464 0.75852 0.35482 0.0
C540 C 0.1615 0.78576 0.35253 0.0
C541 C 0.20279 0.79257 0.36231 0.0
H542 H 0.1972 0.8293 0.33161 0.0
C543 C 0.25179 0.83654 0.3529 0.0
C544 C 0.24795 0.85227 0.35429 0.0
C545 C 0.24028 0.82532 0.35142 0.0
C546 C 0.19887 0.81916 0.34038 0.0
H547 H 0.17415 0.74283 0.3537 0.0
H548 H 0.19355 0.76297 0.35074 0.0
H549 H 0.17728 0.80929 0.33175 0.0
H550 H 0.22891 0.86853 0.35462 0.0
H551 H 0.20878 0.8489 0.35223 0.0
H552 H 0.22425 0.8024 0.37109 0.0
C553 C 0.18154 0.76631 0.35176 0.0
C554 C 0.18746 0.8077 0.34046 0.0
C555 C 0.17038 0.75475 0.35335 0.0
C556 C 0.23229 0.85653 0.35357 0.0
C557 C 0.22074 0.84527 0.35211 0.0
C558 C 0.21416 0.80399 0.36223 0.0
C559 C 0.17727 0.78197 0.35166 0.0
C560 C 0.18932 0.79423 0.35138 0.0
C561 C 0.2246 0.82951 0.35134 0.0
C562 C 0.21239 0.81741 0.35122 0.0
H563 H 0.13829 0.77749 0.35521 0.0
H564 H 0.15782 0.7977 0.35262 0.0
H565 H 0.20446 0.78252 0.37122 0.0
H566 H 0.26373 0.83283 0.35324 0.0
H567 H 0.24367 0.81332 0.35046 0.0
C568 C 0.14906 0.77457 0.65638 0.0
C569 C 0.15403 0.75917 0.65468 0.0
C570 C 0.15977 0.78654 0.65852 0.0
C571 C 0.20056 0.79457 0.67134 0.0
H572 H 0.19501 0.83112 0.64033 0.0
C573 C 0.25016 0.83692 0.65516 0.0
C574 C 0.24688 0.8528 0.65416 0.0
C575 C 0.2383 0.82615 0.65745 0.0
C576 C 0.19663 0.82112 0.64933 0.0
H577 H 0.17419 0.74431 0.65437 0.0
H578 H 0.19279 0.76513 0.65795 0.0
H579 H 0.17521 0.81114 0.64045 0.0
H580 H 0.2285 0.86979 0.65522 0.0
H581 H 0.20779 0.85095 0.65933 0.0
H582 H 0.22211 0.80443 0.67995 0.0
C583 C 0.18061 0.76797 0.65781 0.0
C584 C 0.18526 0.80965 0.6494 0.0
C585 C 0.16993 0.75601 0.65564 0.0
C586 C 0.23145 0.85766 0.65589 0.0
C587 C 0.21956 0.84685 0.65813 0.0
C588 C 0.21193 0.80604 0.67127 0.0
C589 C 0.17569 0.7834 0.65907 0.0
C590 C 0.1872 0.79613 0.66019 0.0
C591 C 0.22284 0.83096 0.65877 0.0
C592 C 0.21021 0.81935 0.66004 0.0
H593 H 0.1369 0.77742 0.65576 0.0
H594 H 0.15558 0.79828 0.65968 0.0
H595 H 0.20229 0.78443 0.68008 0.0
H596 H 0.2619 0.83275 0.65387 0.0
H597 H 0.24123 0.814 0.65763 0.0
C598 C 0.22773 0.14493 0.6543 0.0
C599 C 0.24311 0.15016 0.6539 0.0
C600 C 0.21554 0.15537 0.65669 0.0
C601 C 0.20667 0.19524 0.67275 0.0
H602 H 0.17162 0.19181 0.6388 0.0
C603 C 0.16627 0.24631 0.65697 0.0
C604 C 0.1504 0.24353 0.65456 0.0
C605 C 0.1766 0.23408 0.65929 0.0
C606 C 0.18119 0.1928 0.64862 0.0
H607 H 0.25768 0.17046 0.65618 0.0
H608 H 0.23652 0.18856 0.66022 0.0
H609 H 0.19145 0.17183 0.63864 0.0
H610 H 0.13292 0.22563 0.65315 0.0
H611 H 0.151 0.20423 0.65727 0.0
H612 H 0.19659 0.21637 0.68244 0.0
C613 C 0.23385 0.1764 0.65886 0.0
C614 C 0.19257 0.18134 0.64853 0.0
C615 C 0.246 0.166 0.6564 0.0
C616 C 0.14507 0.22819 0.65494 0.0
C617 C 0.15544 0.21592 0.65719 0.0
C618 C 0.19531 0.20669 0.67284 0.0
C619 C 0.21846 0.17125 0.65886 0.0
C620 C 0.2056 0.18258 0.66033 0.0
C621 C 0.17135 0.21872 0.65924 0.0
C622 C 0.18259 0.20577 0.66051 0.0
H623 H 0.22509 0.13281 0.65244 0.0
H624 H 0.20382 0.15102 0.6568 0.0
H625 H 0.21641 0.1964 0.68228 0.0
H626 H 0.17081 0.25796 0.65676 0.0
H627 H 0.18879 0.23666 0.66057 0.0
C628 C 0.75334 0.17038 0.65488 0.0
C629 C 0.75727 0.15468 0.65349 0.0
C630 C 0.7648 0.18165 0.65646 0.0
C631 C 0.80612 0.188 0.66778 0.0
H632 H 0.80055 0.22456 0.63679 0.0
C633 C 0.85464 0.23304 0.65413 0.0
C634 C 0.85029 0.24866 0.65325 0.0
C635 C 0.84345 0.22144 0.65573 0.0
C636 C 0.80221 0.21454 0.64575 0.0
H637 H 0.77639 0.1385 0.65328 0.0
H638 H 0.79641 0.15822 0.65585 0.0
H639 H 0.78082 0.20462 0.63686 0.0
H640 H 0.83077 0.26434 0.65415 0.0
H641 H 0.81137 0.2442 0.65717 0.0
H642 H 0.82764 0.19796 0.67652 0.0
C643 C 0.78443 0.16179 0.65588 0.0
C644 C 0.79088 0.20309 0.64579 0.0
C645 C 0.77294 0.15048 0.65432 0.0
C646 C 0.83455 0.25243 0.65462 0.0
C647 C 0.82339 0.24087 0.65624 0.0
C648 C 0.8175 0.1995 0.66775 0.0
C649 C 0.7805 0.17753 0.65664 0.0
C650 C 0.79265 0.18969 0.65684 0.0
C651 C 0.82767 0.22521 0.65649 0.0
C652 C 0.81564 0.21293 0.65676 0.0
H653 H 0.7414 0.17404 0.65445 0.0
H654 H 0.76134 0.19364 0.6574 0.0
H655 H 0.80779 0.17789 0.67658 0.0
H656 H 0.86666 0.22971 0.65311 0.0
H657 H 0.84714 0.2095 0.65574 0.0
C658 C 0.83759 0.75668 0.6552 0.0
C659 C 0.85329 0.76043 0.65318 0.0
C660 C 0.82645 0.76825 0.65673 0.0
C661 C 0.82047 0.80977 0.6669 0.0
H662 H 0.78331 0.80357 0.63718 0.0
C663 C 0.7746 0.85771 0.65397 0.0
C664 C 0.75902 0.85314 0.65368 0.0
C665 C 0.78638 0.84669 0.65535 0.0
C666 C 0.79351 0.80541 0.64578 0.0
H667 H 0.86962 0.77939 0.6518 0.0
H668 H 0.85009 0.79965 0.6543 0.0
H669 H 0.80333 0.78394 0.63706 0.0
H670 H 0.74362 0.83343 0.65545 0.0
H671 H 0.76407 0.81434 0.65812 0.0
H672 H 0.81057 0.83136 0.67551 0.0
C673 C 0.84644 0.7877 0.65484 0.0
C674 C 0.80501 0.79414 0.64571 0.0
C675 C 0.85763 0.77608 0.65334 0.0
C676 C 0.75549 0.83737 0.65545 0.0
C677 C 0.76723 0.82639 0.65687 0.0
C678 C 0.80891 0.82109 0.66699 0.0
C679 C 0.83069 0.7839 0.65621 0.0
C680 C 0.8186 0.79611 0.65634 0.0
C681 C 0.78283 0.83087 0.65649 0.0
C682 C 0.79525 0.81899 0.6565 0.0
H683 H 0.83382 0.74476 0.65532 0.0
H684 H 0.81446 0.76491 0.65816 0.0
H685 H 0.83075 0.81159 0.67535 0.0
H686 H 0.77774 0.86976 0.65262 0.0
H687 H 0.79827 0.85053 0.65489 0.0
C688 C 0.6472 0.72973 0.85281 0.0
C689 C 0.65239 0.7451 0.85369 0.0
C690 C 0.6577 0.71758 0.85059 0.0
C691 C 0.6979 0.7088 0.83588 0.0
H692 H 0.69338 0.67328 0.8689 0.0
C693 C 0.74809 0.6673 0.85183 0.0
C694 C 0.74499 0.65146 0.8539 0.0
C695 C 0.73607 0.67787 0.84948 0.0
C696 C 0.69468 0.68298 0.85933 0.0
H697 H 0.6727 0.75973 0.85245 0.0
H698 H 0.69094 0.73862 0.84869 0.0
H699 H 0.67362 0.69332 0.86889 0.0
H700 H 0.72678 0.63428 0.85466 0.0
H701 H 0.70576 0.65279 0.85045 0.0
H702 H 0.71909 0.69861 0.82657 0.0
C703 C 0.67875 0.73593 0.84955 0.0
C704 C 0.68335 0.69448 0.85933 0.0
C705 C 0.66828 0.74805 0.85183 0.0
C706 C 0.72957 0.64641 0.85315 0.0
C707 C 0.71752 0.65702 0.85084 0.0
C708 C 0.70921 0.69731 0.83586 0.0
C709 C 0.67362 0.72054 0.8491 0.0
C710 C 0.68496 0.70766 0.84785 0.0
C711 C 0.72063 0.6729 0.84914 0.0
C712 C 0.70789 0.68438 0.84784 0.0
H713 H 0.63504 0.72703 0.85416 0.0
H714 H 0.65336 0.70587 0.85009 0.0
H715 H 0.69935 0.71867 0.8266 0.0
H716 H 0.75981 0.67163 0.85234 0.0
H717 H 0.73889 0.69003 0.84848 0.0
C718 C 0.25609 0.66922 0.85364 0.0
C719 C 0.25937 0.65335 0.85479 0.0
C720 C 0.26797 0.67999 0.85143 0.0
C721 C 0.30958 0.68509 0.85994 0.0
H722 H 0.30411 0.72155 0.82873 0.0
C723 C 0.3572 0.7316 0.85271 0.0
C724 C 0.35222 0.74701 0.85416 0.0
C725 C 0.3465 0.71961 0.85067 0.0
C726 C 0.30578 0.71148 0.83759 0.0
H727 H 0.27776 0.63636 0.85408 0.0
H728 H 0.29849 0.65518 0.85011 0.0
H729 H 0.28429 0.70155 0.82888 0.0
H730 H 0.33206 0.76188 0.85415 0.0
H731 H 0.31348 0.74101 0.85073 0.0
H732 H 0.33095 0.69514 0.8689 0.0
C733 C 0.28671 0.65929 0.85113 0.0
C734 C 0.29443 0.70001 0.83768 0.0
C735 C 0.27481 0.64849 0.8533 0.0
C736 C 0.33632 0.75016 0.85307 0.0
C737 C 0.32565 0.73818 0.85098 0.0
C738 C 0.32095 0.69656 0.85985 0.0
C739 C 0.28344 0.67518 0.85033 0.0
C740 C 0.29607 0.68679 0.84907 0.0
C741 C 0.33059 0.72275 0.84996 0.0
C742 C 0.31908 0.71001 0.84889 0.0
H743 H 0.24434 0.6734 0.85474 0.0
H744 H 0.26504 0.69214 0.85112 0.0
H745 H 0.31114 0.67515 0.86906 0.0
H746 H 0.36936 0.72876 0.85345 0.0
H747 H 0.3507 0.70786 0.84969 0.0
C748 C 0.33984 0.25977 0.85082 0.0
C749 C 0.35571 0.2625 0.85333 0.0
C750 C 0.32957 0.27203 0.84844 0.0
C751 C 0.32504 0.31328 0.85919 0.0
H752 H 0.28996 0.30985 0.82528 0.0
C753 C 0.27855 0.3612 0.85355 0.0
C754 C 0.26317 0.35597 0.85386 0.0
C755 C 0.29074 0.35077 0.85113 0.0
C756 C 0.29966 0.31096 0.83488 0.0
H757 H 0.37324 0.28035 0.85488 0.0
H758 H 0.35524 0.3018 0.85067 0.0
H759 H 0.30975 0.28984 0.82517 0.0
H760 H 0.24861 0.33568 0.85137 0.0
H761 H 0.26978 0.3176 0.84727 0.0
H762 H 0.31476 0.33424 0.8692 0.0
C763 C 0.35077 0.29012 0.8507 0.0
C764 C 0.311 0.29949 0.83481 0.0
C765 C 0.36109 0.27782 0.85301 0.0
C766 C 0.26029 0.34014 0.85122 0.0
C767 C 0.27244 0.32976 0.84873 0.0
C768 C 0.31368 0.32477 0.85926 0.0
C769 C 0.33487 0.28737 0.84855 0.0
C770 C 0.32367 0.30035 0.84723 0.0
C771 C 0.28783 0.3349 0.84884 0.0
C772 C 0.3007 0.32358 0.84737 0.0
H773 H 0.33527 0.24813 0.85098 0.0
H774 H 0.31738 0.26949 0.84707 0.0
H775 H 0.33456 0.31423 0.86908 0.0
H776 H 0.28119 0.37331 0.85552 0.0
H777 H 0.30246 0.35512 0.8511 0.0
C778 C 0.6714 0.25286 0.85338 0.0
C779 C 0.65566 0.25664 0.85476 0.0
C780 C 0.68255 0.26442 0.85172 0.0
C781 C 0.68845 0.30578 0.84013 0.0
H782 H 0.72516 0.30067 0.87097 0.0
C783 C 0.733 0.3548 0.85355 0.0
C784 C 0.74867 0.35061 0.85437 0.0
C785 C 0.72151 0.34349 0.85198 0.0
C786 C 0.71509 0.3022 0.86206 0.0
H787 H 0.63929 0.2756 0.85488 0.0
H788 H 0.65882 0.2958 0.85218 0.0
H789 H 0.70543 0.28073 0.87108 0.0
H790 H 0.76455 0.33125 0.85334 0.0
H791 H 0.74461 0.31165 0.85037 0.0
H792 H 0.69815 0.32739 0.83128 0.0
C793 C 0.6625 0.28386 0.85221 0.0
C794 C 0.70376 0.29075 0.86212 0.0
C795 C 0.65131 0.27227 0.85385 0.0
C796 C 0.7526 0.33491 0.85293 0.0
C797 C 0.74115 0.32364 0.85134 0.0
C798 C 0.69982 0.31728 0.84008 0.0
C799 C 0.67828 0.28008 0.85144 0.0
C800 C 0.69031 0.29235 0.85113 0.0
C801 C 0.72545 0.32776 0.85119 0.0
C802 C 0.71331 0.3156 0.851 0.0
H803 H 0.67517 0.24095 0.85387 0.0
H804 H 0.69458 0.26108 0.85077 0.0
H805 H 0.6783 0.30732 0.83138 0.0
H806 H 0.72956 0.36679 0.85464 0.0
H807 H 0.70953 0.34706 0.85203 0.0
C808 C 0.66739 0.2577 0.15656 0.0
C809 C 0.65152 0.26077 0.15469 0.0
C810 C 0.67794 0.26974 0.15896 0.0
C811 C 0.68289 0.31122 0.14959 0.0
H812 H 0.71851 0.3066 0.18242 0.0
C813 C 0.72933 0.35899 0.15647 0.0
C814 C 0.74473 0.35388 0.15567 0.0
C815 C 0.71723 0.34841 0.15866 0.0
C816 C 0.70866 0.30804 0.17311 0.0
H817 H 0.63431 0.27896 0.15427 0.0
H818 H 0.65278 0.29998 0.15853 0.0
H819 H 0.69862 0.28668 0.1821 0.0
H820 H 0.75946 0.33365 0.15707 0.0
H821 H 0.73845 0.3153 0.16074 0.0
H822 H 0.69309 0.33243 0.14031 0.0
C823 C 0.65704 0.28824 0.15796 0.0
C824 C 0.69726 0.29662 0.17293 0.0
C825 C 0.64645 0.27617 0.15563 0.0
C826 C 0.74776 0.33801 0.15762 0.0
C827 C 0.73569 0.32747 0.15986 0.0
C828 C 0.6943 0.32265 0.14977 0.0
C829 C 0.67293 0.28516 0.1595 0.0
C830 C 0.68436 0.29794 0.16093 0.0
C831 C 0.72027 0.3325 0.16019 0.0
C832 C 0.70746 0.32107 0.16129 0.0
H833 H 0.67173 0.24599 0.1559 0.0
H834 H 0.69011 0.26696 0.15984 0.0
H835 H 0.6732 0.31252 0.14002 0.0
H836 H 0.72658 0.37112 0.15505 0.0
H837 H 0.70549 0.35268 0.15907 0.0
C838 C 0.73125 0.64878 0.15649 0.0
C839 C 0.74664 0.65383 0.15507 0.0
C840 C 0.71921 0.65941 0.15866 0.0
C841 C 0.71092 0.70003 0.17211 0.0
H842 H 0.67474 0.69478 0.14037 0.0
C843 C 0.6688 0.74978 0.15594 0.0
C844 C 0.65294 0.74652 0.15456 0.0
C845 C 0.67953 0.73788 0.15826 0.0
C846 C 0.68463 0.6963 0.14957 0.0
H847 H 0.76143 0.67406 0.15532 0.0
H848 H 0.7405 0.69253 0.15897 0.0
H849 H 0.69474 0.675 0.1405 0.0
H850 H 0.63591 0.72815 0.15502 0.0
H851 H 0.65467 0.70739 0.15919 0.0
H852 H 0.70094 0.72147 0.18092 0.0
C853 C 0.73771 0.68034 0.15858 0.0
C854 C 0.69612 0.68495 0.14964 0.0
C855 C 0.74973 0.66973 0.15636 0.0
C856 C 0.64804 0.73108 0.15598 0.0
C857 C 0.6588 0.71916 0.15826 0.0
C858 C 0.69944 0.71137 0.17204 0.0
C859 C 0.72229 0.67534 0.15955 0.0
C860 C 0.70951 0.68679 0.16069 0.0
C861 C 0.67469 0.72242 0.15925 0.0
C862 C 0.68627 0.70977 0.16055 0.0
H863 H 0.72845 0.63661 0.1556 0.0
H864 H 0.70748 0.65516 0.15959 0.0
H865 H 0.72096 0.70168 0.18104 0.0
H866 H 0.67301 0.76152 0.1549 0.0
H867 H 0.69168 0.7408 0.15872 0.0
C868 C 0.2545 0.66972 0.1551 0.0
C869 C 0.25829 0.65399 0.15363 0.0
C870 C 0.26605 0.68091 0.15652 0.0
C871 C 0.30751 0.68696 0.16729 0.0
H872 H 0.30182 0.72373 0.13672 0.0
C873 C 0.356 0.7321 0.15374 0.0
C874 C 0.35163 0.74774 0.15317 0.0
C875 C 0.34483 0.72047 0.15523 0.0
C876 C 0.30352 0.71364 0.14555 0.0
H877 H 0.27729 0.63768 0.15308 0.0
H878 H 0.29748 0.65727 0.15537 0.0
H879 H 0.28203 0.70386 0.13682 0.0
H880 H 0.33209 0.76338 0.1545 0.0
H881 H 0.31274 0.74319 0.15734 0.0
H882 H 0.32913 0.69679 0.17587 0.0
C883 C 0.28553 0.66092 0.15559 0.0
C884 C 0.29215 0.70223 0.14562 0.0
C885 C 0.27395 0.64969 0.1542 0.0
C886 C 0.33589 0.75147 0.15473 0.0
C887 C 0.32476 0.73987 0.15624 0.0
C888 C 0.31893 0.69842 0.16722 0.0
C889 C 0.28171 0.67668 0.15645 0.0
C890 C 0.29395 0.68876 0.15654 0.0
C891 C 0.32905 0.72422 0.15619 0.0
C892 C 0.31703 0.71194 0.15641 0.0
H893 H 0.24257 0.67346 0.15487 0.0
H894 H 0.26268 0.69292 0.15754 0.0
H895 H 0.30921 0.67679 0.17598 0.0
H896 H 0.36802 0.72881 0.15255 0.0
H897 H 0.34853 0.70854 0.15502 0.0
C898 C 0.27547 0.35783 0.1567 0.0
C899 C 0.26007 0.35282 0.15532 0.0
C900 C 0.28748 0.34716 0.15885 0.0
C901 C 0.29568 0.30652 0.17225 0.0
H902 H 0.33179 0.31165 0.14034 0.0
C903 C 0.33754 0.2566 0.15585 0.0
C904 C 0.35341 0.25979 0.15439 0.0
C905 C 0.32687 0.26854 0.15823 0.0
C906 C 0.32192 0.31016 0.14959 0.0
H907 H 0.24522 0.33264 0.15562 0.0
H908 H 0.2661 0.31411 0.15923 0.0
H909 H 0.31186 0.3315 0.14058 0.0
H910 H 0.37052 0.27808 0.15474 0.0
H911 H 0.35187 0.29893 0.159 0.0
H912 H 0.3056 0.28504 0.181 0.0
C913 C 0.26892 0.32629 0.15883 0.0
C914 C 0.31048 0.32155 0.14973 0.0
C915 C 0.25693 0.33693 0.15663 0.0
C916 C 0.35838 0.27521 0.15576 0.0
C917 C 0.34768 0.28717 0.15809 0.0
C918 C 0.30711 0.29513 0.17212 0.0
C919 C 0.28435 0.33124 0.15975 0.0
C920 C 0.2971 0.31976 0.16083 0.0
C921 C 0.33178 0.28399 0.15919 0.0
C922 C 0.32026 0.29669 0.16056 0.0
H923 H 0.27831 0.36999 0.15579 0.0
H924 H 0.29923 0.35137 0.15974 0.0
H925 H 0.28565 0.3049 0.18123 0.0
H926 H 0.33328 0.24488 0.15485 0.0
H927 H 0.31471 0.26568 0.15876 0.0
C928 C 0.94818 0.25662 0.35279 0.0
C929 C 0.93873 0.26928 0.34827 0.0
C930 C 0.96396 0.2569 0.34875 0.0
C931 C 0.99605 0.28401 0.34232 0.0
H932 H 0.01826 0.247 0.32777 0.0
C933 C 0.06287 0.28238 0.33895 0.0
C934 C 0.06959 0.26962 0.34811 0.0
C935 C 0.04702 0.28259 0.33499 0.0
C936 C 0.01224 0.25743 0.33187 0.0
H937 H 0.93839 0.292 0.33538 0.0
H938 H 0.96607 0.29248 0.32828 0.0
H939 H 0.99011 0.24694 0.32784 0.0
H940 H 0.06501 0.24685 0.3596 0.0
H941 H 0.03753 0.24723 0.35277 0.0
H942 H 0.01819 0.29436 0.34691 0.0
C943 C 0.96122 0.28238 0.33509 0.0
C944 C 0.9961 0.2574 0.33191 0.0
C945 C 0.94536 0.28206 0.33904 0.0
C946 C 0.06023 0.25686 0.35253 0.0
C947 C 0.04445 0.25704 0.3485 0.0
C948 C 0.01221 0.28404 0.34229 0.0
C949 C 0.97074 0.26987 0.34013 0.0
C950 C 0.9878 0.27056 0.3376 0.0
C951 C 0.03758 0.27001 0.33998 0.0
C952 C 0.0205 0.27063 0.33752 0.0
H953 H 0.94347 0.24658 0.35991 0.0
H954 H 0.97095 0.24715 0.35307 0.0
H955 H 0.99004 0.2943 0.34696 0.0
H956 H 0.06976 0.2924 0.33536 0.0
H957 H 0.04211 0.2927 0.32824 0.0
C958 C 0.75115 0.06001 0.35328 0.0
C959 C 0.73786 0.0687 0.34926 0.0
C960 C 0.75122 0.04403 0.35077 0.0
C961 C 0.73054 0.01085 0.32919 0.0
H962 H 0.74917 0.98873 0.37119 0.0
C963 C 0.72399 0.94451 0.34219 0.0
C964 C 0.73688 0.93679 0.34976 0.0
C965 C 0.72427 0.96057 0.33964 0.0
C966 C 0.74411 0.99468 0.35918 0.0
H967 H 0.71444 0.06752 0.33855 0.0
H968 H 0.71449 0.03945 0.33436 0.0
H969 H 0.74938 0.01671 0.37108 0.0
H970 H 0.76049 0.93971 0.35935 0.0
H971 H 0.76107 0.96748 0.35458 0.0
H972 H 0.72514 0.9886 0.31747 0.0
C973 C 0.72491 0.04506 0.33932 0.0
C974 C 0.74423 0.01077 0.35912 0.0
C975 C 0.72487 0.06113 0.34176 0.0
C976 C 0.75029 0.94531 0.35371 0.0
C977 C 0.7506 0.96127 0.35108 0.0
C978 C 0.73042 0.99464 0.32925 0.0
C979 C 0.73796 0.03628 0.34431 0.0
C980 C 0.73758 0.01909 0.34407 0.0
C981 C 0.73746 0.96918 0.34457 0.0
C982 C 0.73734 0.98638 0.3442 0.0
H983 H 0.76143 0.06548 0.35887 0.0
H984 H 0.7616 0.03769 0.3543 0.0
H985 H 0.72535 0.01691 0.31736 0.0
H986 H 0.71348 0.93826 0.33903 0.0
H987 H 0.71394 0.9663 0.33464 0.0
C988 C 0.06194 0.72546 0.34227 0.0
C989 C 0.06971 0.73823 0.35006 0.0
C990 C 0.04588 0.72583 0.33969 0.0
C991 C 0.0118 0.74563 0.3594 0.0
H992 H 0.98963 0.72703 0.31741 0.0
C993 C 0.94635 0.7522 0.35372 0.0
C994 C 0.93778 0.73887 0.34952 0.0
C995 C 0.96233 0.75244 0.3512 0.0
C996 C 0.99567 0.73218 0.32929 0.0
H997 H 0.06688 0.76174 0.36003 0.0
H998 H 0.03911 0.7625 0.3552 0.0
H999 H 0.01793 0.7269 0.31752 0.0
H1000 H 0.93918 0.71556 0.33848 0.0
H1001 H 0.96723 0.71591 0.33426 0.0
H1002 H 0.98974 0.75076 0.37135 0.0
C1003 C 0.04528 0.75204 0.35156 0.0
C1004 C 0.01187 0.73211 0.32935 0.0
C1005 C 0.06124 0.75164 0.35421 0.0
C1006 C 0.94547 0.72601 0.34183 0.0
C1007 C 0.96154 0.72623 0.33938 0.0
C1008 C 0.9957 0.74571 0.35934 0.0
C1009 C 0.03732 0.739 0.34481 0.0
C1010 C 0.02012 0.73894 0.34438 0.0
C1011 C 0.9702 0.73932 0.34454 0.0
C1012 C 0.9874 0.73909 0.34425 0.0
H1013 H 0.06814 0.71494 0.33895 0.0
H1014 H 0.04012 0.71557 0.33451 0.0
H1015 H 0.01773 0.75063 0.37146 0.0
H1016 H 0.94078 0.76237 0.35948 0.0
H1017 H 0.96858 0.76285 0.35488 0.0
C1018 C 0.28124 0.94499 0.34146 0.0
C1019 C 0.26833 0.93726 0.34898 0.0
C1020 C 0.28095 0.96104 0.33886 0.0
C1021 C 0.26101 0.99518 0.35821 0.0
H1022 H 0.28029 0.01734 0.31667 0.0
C1023 C 0.25488 0.06066 0.35268 0.0
C1024 C 0.26831 0.06918 0.34878 0.0
C1025 C 0.25457 0.0447 0.35006 0.0
C1026 C 0.27495 0.0113 0.32842 0.0
H1027 H 0.24469 0.94016 0.35845 0.0
H1028 H 0.24409 0.96793 0.3536 0.0
H1029 H 0.2803 0.98904 0.31671 0.0
H1030 H 0.29175 0.06768 0.33816 0.0
H1031 H 0.29129 0.03965 0.33378 0.0
H1032 H 0.25583 0.01722 0.37012 0.0
C1033 C 0.25458 0.96173 0.35017 0.0
C1034 C 0.27496 0.9951 0.32845 0.0
C1035 C 0.25489 0.94577 0.35284 0.0
C1036 C 0.28121 0.06144 0.34127 0.0
C1037 C 0.28094 0.04538 0.33873 0.0
C1038 C 0.26101 0.01127 0.35819 0.0
C1039 C 0.26774 0.96965 0.3437 0.0
C1040 C 0.26788 0.98685 0.34331 0.0
C1041 C 0.26773 0.03678 0.34361 0.0
C1042 C 0.26788 0.01957 0.34326 0.0
H1043 H 0.29178 0.93875 0.33837 0.0
H1044 H 0.2913 0.96677 0.3339 0.0
H1045 H 0.25583 0.98924 0.37016 0.0
H1046 H 0.24467 0.06627 0.35828 0.0
H1047 H 0.24409 0.03849 0.35351 0.0
C1048 C 0.06184 0.72467 0.66623 0.0
C1049 C 0.06965 0.73752 0.6587 0.0
C1050 C 0.04577 0.725 0.66868 0.0
C1051 C 0.01185 0.74492 0.64884 0.0
H1052 H 0.98931 0.72619 0.69047 0.0
C1053 C 0.94645 0.75183 0.65392 0.0
C1054 C 0.93775 0.73853 0.65792 0.0
C1055 C 0.9624 0.75195 0.65663 0.0
C1056 C 0.99546 0.73137 0.67869 0.0
H1057 H 0.06686 0.76114 0.64908 0.0
H1058 H 0.03907 0.76182 0.65367 0.0
H1059 H 0.01762 0.72596 0.69064 0.0
H1060 H 0.9389 0.71516 0.66882 0.0
H1061 H 0.96692 0.7153 0.67334 0.0
H1062 H 0.98991 0.75017 0.63671 0.0
C1063 C 0.04522 0.75133 0.65722 0.0
C1064 C 0.01166 0.73124 0.67879 0.0
C1065 C 0.06119 0.75097 0.65469 0.0
C1066 C 0.94529 0.72559 0.66562 0.0
C1067 C 0.96134 0.72568 0.66824 0.0
C1068 C 0.99575 0.74504 0.64874 0.0
C1069 C 0.03723 0.73821 0.66368 0.0
C1070 C 0.02004 0.73814 0.66391 0.0
C1071 C 0.97013 0.73874 0.66327 0.0
C1072 C 0.98732 0.7384 0.66371 0.0
H1073 H 0.06803 0.71413 0.66943 0.0
H1074 H 0.03998 0.71469 0.67365 0.0
H1075 H 0.01789 0.74996 0.63688 0.0
H1076 H 0.94099 0.76206 0.64819 0.0
H1077 H 0.96875 0.76233 0.6531 0.0
C1078 C 0.25727 0.94605 0.65638 0.0
C1079 C 0.27012 0.93672 0.66046 0.0
C1080 C 0.25749 0.96183 0.6604 0.0
C1081 C 0.28451 0.99413 0.66579 0.0
H1082 H 0.24756 0.01616 0.68101 0.0
C1083 C 0.28215 0.06101 0.66839 0.0
C1084 C 0.26922 0.06744 0.65929 0.0
C1085 C 0.28264 0.04519 0.67255 0.0
C1086 C 0.25798 0.01018 0.67673 0.0
H1087 H 0.29311 0.9366 0.6726 0.0
H1088 H 0.29348 0.96427 0.67969 0.0
H1089 H 0.24774 0.98801 0.68133 0.0
H1090 H 0.24644 0.06241 0.64809 0.0
H1091 H 0.24729 0.03501 0.65531 0.0
H1092 H 0.29458 0.01633 0.66065 0.0
C1093 C 0.28327 0.95933 0.67323 0.0
C1094 C 0.25808 0.99405 0.67691 0.0
C1095 C 0.28302 0.94347 0.66928 0.0
C1096 C 0.25659 0.05785 0.6551 0.0
C1097 C 0.25703 0.04212 0.65936 0.0
C1098 C 0.28441 0.0103 0.66562 0.0
C1099 C 0.27058 0.96874 0.66856 0.0
C1100 C 0.27121 0.98581 0.67096 0.0
C1101 C 0.27015 0.03553 0.66785 0.0
C1102 C 0.271 0.0185 0.67061 0.0
H1103 H 0.24714 0.94124 0.64958 0.0
H1104 H 0.24759 0.96872 0.65637 0.0
H1105 H 0.29476 0.98818 0.66094 0.0
H1106 H 0.29207 0.0681 0.67178 0.0
H1107 H 0.29286 0.04049 0.67924 0.0
C1108 C 0.05959 0.28083 0.6655 0.0
C1109 C 0.0671 0.26793 0.65765 0.0
C1110 C 0.04352 0.28077 0.66805 0.0
C1111 C 0.00909 0.26164 0.64822 0.0
H1112 H 0.9872 0.28029 0.69041 0.0
C1113 C 0.94369 0.25551 0.65418 0.0
C1114 C 0.93522 0.26893 0.65825 0.0
C1115 C 0.95965 0.25515 0.65673 0.0
C1116 C 0.99317 0.27513 0.67848 0.0
H1117 H 0.06381 0.24452 0.64754 0.0
H1118 H 0.03605 0.24429 0.65233 0.0
H1119 H 0.01551 0.2801 0.69021 0.0
H1120 H 0.93679 0.29227 0.66917 0.0
H1121 H 0.96484 0.29171 0.67346 0.0
H1122 H 0.98697 0.25678 0.63633 0.0
C1123 C 0.04241 0.25462 0.65603 0.0
C1124 C 0.00937 0.27503 0.67837 0.0
C1125 C 0.05837 0.25472 0.65339 0.0
C1126 C 0.943 0.28175 0.66591 0.0
C1127 C 0.95906 0.28141 0.6684 0.0
C1128 C 0.993 0.26173 0.64835 0.0
C1129 C 0.03471 0.26779 0.66285 0.0
C1130 C 0.01751 0.26815 0.66328 0.0
C1131 C 0.96761 0.26824 0.66331 0.0
C1132 C 0.98481 0.26835 0.66352 0.0
H1133 H 0.066 0.29119 0.66891 0.0
H1134 H 0.03795 0.29111 0.67329 0.0
H1135 H 0.01495 0.25663 0.63611 0.0
H1136 H 0.93804 0.24536 0.64846 0.0
H1137 H 0.96583 0.24468 0.65311 0.0
C1138 C 0.75069 0.06114 0.65456 0.0
C1139 C 0.73723 0.06961 0.65842 0.0
C1140 C 0.75104 0.04518 0.65723 0.0
C1141 C 0.7308 0.01177 0.679 0.0
H1142 H 0.74985 0.98969 0.63724 0.0
C1143 C 0.72468 0.94541 0.66623 0.0
C1144 C 0.73757 0.93771 0.65863 0.0
C1145 C 0.72492 0.96147 0.66877 0.0
C1146 C 0.74469 0.99563 0.64919 0.0
H1147 H 0.7138 0.06807 0.66905 0.0
H1148 H 0.71435 0.04005 0.67353 0.0
H1149 H 0.74979 0.01767 0.63721 0.0
H1150 H 0.76116 0.94068 0.64898 0.0
H1151 H 0.76169 0.96846 0.65375 0.0
H1152 H 0.72555 0.98952 0.6908 0.0
C1153 C 0.72468 0.04581 0.66856 0.0
C1154 C 0.74465 0.01173 0.64917 0.0
C1155 C 0.72435 0.06186 0.66596 0.0
C1156 C 0.75096 0.94626 0.65464 0.0
C1157 C 0.75123 0.96223 0.65727 0.0
C1158 C 0.73084 0.99557 0.67902 0.0
C1159 C 0.73791 0.03723 0.66371 0.0
C1160 C 0.73781 0.02003 0.66411 0.0
C1161 C 0.73808 0.97011 0.6638 0.0
C1162 C 0.73789 0.98731 0.66415 0.0
H1163 H 0.76088 0.06677 0.64894 0.0
H1164 H 0.76155 0.039 0.6538 0.0
H1165 H 0.72548 0.01782 0.69076 0.0
H1166 H 0.71418 0.93914 0.66942 0.0
H1167 H 0.71457 0.96717 0.67378 0.0
C1168 C 0.55982 0.75486 0.85458 0.0
C1169 C 0.56849 0.76812 0.85028 0.0
C1170 C 0.54385 0.7547 0.85199 0.0
C1171 C 0.5107 0.77492 0.8297 0.0
H1172 H 0.48842 0.75682 0.87194 0.0
C1173 C 0.44432 0.78156 0.84217 0.0
C1174 C 0.43657 0.76878 0.84998 0.0
C1175 C 0.46039 0.78125 0.83971 0.0
C1176 C 0.49442 0.76172 0.85987 0.0
H1177 H 0.56726 0.79136 0.839 0.0
H1178 H 0.53921 0.79114 0.83468 0.0
H1179 H 0.5164 0.75669 0.87203 0.0
H1180 H 0.43945 0.74532 0.8601 0.0
H1181 H 0.46724 0.74467 0.85548 0.0
H1182 H 0.4885 0.7801 0.81772 0.0
C1183 C 0.54484 0.78083 0.83992 0.0
C1184 C 0.51051 0.76165 0.85992 0.0
C1185 C 0.5609 0.78097 0.84243 0.0
C1186 C 0.44508 0.75543 0.85426 0.0
C1187 C 0.46105 0.75509 0.85173 0.0
C1188 C 0.4945 0.775 0.82965 0.0
C1189 C 0.53609 0.76782 0.84517 0.0
C1190 C 0.51889 0.76812 0.8448 0.0
C1191 C 0.46898 0.76814 0.84497 0.0
C1192 C 0.48618 0.76827 0.84469 0.0
H1193 H 0.56531 0.7447 0.86045 0.0
H1194 H 0.53753 0.74435 0.85574 0.0
H1195 H 0.51681 0.77997 0.8178 0.0
H1196 H 0.43809 0.79203 0.83875 0.0
H1197 H 0.46614 0.79151 0.83451 0.0
C1198 C 0.22429 0.44515 0.83981 0.0
C1199 C 0.23714 0.43869 0.84904 0.0
C1200 C 0.22384 0.46099 0.83571 0.0
C1201 C 0.24857 0.496 0.83203 0.0
H1202 H 0.21161 0.51798 0.84728 0.0
C1203 C 0.24901 0.56011 0.85258 0.0
C1204 C 0.23622 0.56943 0.84825 0.0
C1205 C 0.24885 0.54433 0.84854 0.0
C1206 C 0.22192 0.51203 0.84258 0.0
H1207 H 0.25983 0.44368 0.86054 0.0
H1208 H 0.25904 0.4711 0.85345 0.0
H1209 H 0.21178 0.48982 0.84748 0.0
H1210 H 0.21339 0.56956 0.83564 0.0
H1211 H 0.21311 0.5419 0.82852 0.0
H1212 H 0.25885 0.51819 0.82768 0.0
C1213 C 0.24933 0.46401 0.84924 0.0
C1214 C 0.22202 0.49587 0.8427 0.0
C1215 C 0.24974 0.44827 0.85343 0.0
C1216 C 0.22343 0.56269 0.83916 0.0
C1217 C 0.22323 0.54683 0.8352 0.0
C1218 C 0.24846 0.51214 0.8319 0.0
C1219 C 0.23629 0.47063 0.84061 0.0
C1220 C 0.23548 0.48767 0.83791 0.0
C1221 C 0.23586 0.53743 0.8401 0.0
C1222 C 0.23527 0.52036 0.83766 0.0
H1223 H 0.21439 0.43808 0.83625 0.0
H1224 H 0.21368 0.46571 0.82891 0.0
H1225 H 0.25903 0.49004 0.8279 0.0
H1226 H 0.25905 0.56491 0.85958 0.0
H1227 H 0.25869 0.53744 0.85275 0.0
C1228 C 0.44764 0.25101 0.8545 0.0
C1229 C 0.43888 0.2378 0.85034 0.0
C1230 C 0.46359 0.25107 0.85184 0.0
C1231 C 0.49658 0.2305 0.82961 0.0
H1232 H 0.51903 0.24887 0.87153 0.0
C1233 C 0.56293 0.22365 0.84215 0.0
C1234 C 0.57074 0.23647 0.84974 0.0
C1235 C 0.54687 0.22402 0.83963 0.0
C1236 C 0.51298 0.24389 0.85954 0.0
H1237 H 0.43992 0.21449 0.83924 0.0
H1238 H 0.46797 0.2145 0.83481 0.0
H1239 H 0.49105 0.24909 0.87175 0.0
H1240 H 0.56798 0.26009 0.85937 0.0
H1241 H 0.5402 0.26084 0.85468 0.0
H1242 H 0.51874 0.22513 0.81761 0.0
C1243 C 0.46242 0.22488 0.83999 0.0
C1244 C 0.4969 0.24402 0.85967 0.0
C1245 C 0.44636 0.22485 0.84256 0.0
C1246 C 0.56231 0.24994 0.85371 0.0
C1247 C 0.54635 0.25034 0.85113 0.0
C1248 C 0.51278 0.23036 0.8295 0.0
C1249 C 0.47127 0.23786 0.8451 0.0
C1250 C 0.48846 0.23746 0.84466 0.0
C1251 C 0.53835 0.23724 0.84463 0.0
C1252 C 0.52116 0.23718 0.84441 0.0
H1253 H 0.44222 0.26125 0.86029 0.0
H1254 H 0.46998 0.26141 0.85546 0.0
H1255 H 0.49043 0.22539 0.8178 0.0
H1256 H 0.56911 0.21309 0.83896 0.0
H1257 H 0.54107 0.21373 0.83464 0.0
C1258 C 0.78161 0.4435 0.8425 0.0
C1259 C 0.76875 0.43574 0.85009 0.0
C1260 C 0.78134 0.45958 0.84012 0.0
C1261 C 0.76177 0.49355 0.86031 0.0
H1262 H 0.78026 0.51608 0.81852 0.0
C1263 C 0.75509 0.559 0.85545 0.0
C1264 C 0.76834 0.56768 0.85113 0.0
C1265 C 0.75492 0.54304 0.85282 0.0
C1266 C 0.77515 0.50994 0.83035 0.0
H1267 H 0.74519 0.43862 0.8599 0.0
H1268 H 0.74463 0.46643 0.85545 0.0
H1269 H 0.78033 0.48778 0.81823 0.0
H1270 H 0.79157 0.56647 0.83981 0.0
H1271 H 0.79136 0.53842 0.83544 0.0
H1272 H 0.75675 0.51549 0.87262 0.0
C1273 C 0.75507 0.46023 0.85179 0.0
C1274 C 0.77519 0.49374 0.83018 0.0
C1275 C 0.75536 0.44425 0.85423 0.0
C1276 C 0.78119 0.5601 0.84326 0.0
C1277 C 0.78104 0.54403 0.84072 0.0
C1278 C 0.76174 0.50964 0.86049 0.0
C1279 C 0.76819 0.46817 0.84526 0.0
C1280 C 0.76837 0.48536 0.84511 0.0
C1281 C 0.76803 0.53527 0.84595 0.0
C1282 C 0.76831 0.51808 0.84547 0.0
H1283 H 0.79211 0.43727 0.8392 0.0
H1284 H 0.79166 0.46534 0.83509 0.0
H1285 H 0.75679 0.4875 0.8723 0.0
H1286 H 0.74493 0.56449 0.86133 0.0
H1287 H 0.74456 0.53672 0.85656 0.0
C1288 C 0.44384 0.22333 0.16896 0.0
C1289 C 0.43715 0.23612 0.15982 0.0
C1290 C 0.45969 0.22309 0.17294 0.0
C1291 C 0.49445 0.24824 0.17627 0.0
H1292 H 0.51671 0.21142 0.16112 0.0
C1293 C 0.55856 0.24913 0.15558 0.0
C1294 C 0.568 0.23645 0.16005 0.0
C1295 C 0.54278 0.24885 0.15959 0.0
C1296 C 0.51068 0.22169 0.16578 0.0
H1297 H 0.44177 0.2589 0.14837 0.0
H1298 H 0.46924 0.25847 0.15524 0.0
H1299 H 0.48856 0.21135 0.16106 0.0
H1300 H 0.56831 0.21368 0.17283 0.0
H1301 H 0.54063 0.21319 0.17988 0.0
H1302 H 0.51657 0.25873 0.18044 0.0
C1303 C 0.46231 0.24866 0.15948 0.0
C1304 C 0.49452 0.22165 0.16575 0.0
C1305 C 0.44653 0.24886 0.15542 0.0
C1306 C 0.56135 0.22364 0.16921 0.0
C1307 C 0.54549 0.22332 0.17313 0.0
C1308 C 0.51059 0.24828 0.1763 0.0
C1309 C 0.46915 0.23568 0.168 0.0
C1310 C 0.48621 0.23505 0.17053 0.0
C1311 C 0.53598 0.23585 0.16812 0.0
C1312 C 0.51891 0.23513 0.17059 0.0
H1313 H 0.43692 0.21333 0.17254 0.0
H1314 H 0.46458 0.21298 0.17968 0.0
H1315 H 0.48842 0.25866 0.18039 0.0
H1316 H 0.56329 0.25918 0.14851 0.0
H1317 H 0.5358 0.25861 0.15529 0.0
C1318 C 0.75556 0.56102 0.15441 0.0
C1319 C 0.76889 0.5696 0.1586 0.0
C1320 C 0.75533 0.54504 0.15686 0.0
C1321 C 0.77545 0.51164 0.17864 0.0
H1322 H 0.75706 0.48976 0.13629 0.0
C1323 C 0.78119 0.44519 0.1659 0.0
C1324 C 0.76827 0.43765 0.15813 0.0
C1325 C 0.78114 0.46127 0.16835 0.0
C1326 C 0.76204 0.49565 0.14839 0.0
H1327 H 0.79222 0.56818 0.16959 0.0
H1328 H 0.79187 0.54011 0.1737 0.0
H1329 H 0.75717 0.51775 0.13644 0.0
H1330 H 0.74485 0.44092 0.14806 0.0
H1331 H 0.74466 0.46871 0.15266 0.0
H1332 H 0.78044 0.48933 0.19044 0.0
C1333 C 0.78155 0.54582 0.16863 0.0
C1334 C 0.76211 0.51174 0.14847 0.0
C1335 C 0.78176 0.5619 0.16624 0.0
C1336 C 0.75506 0.44638 0.15385 0.0
C1337 C 0.75499 0.46235 0.15638 0.0
C1338 C 0.77538 0.49544 0.17856 0.0
C1339 C 0.76846 0.53717 0.16345 0.0
C1340 C 0.76867 0.51997 0.16365 0.0
C1341 C 0.76817 0.47007 0.16313 0.0
C1342 C 0.76854 0.48726 0.16349 0.0
H1343 H 0.74538 0.5666 0.1487 0.0
H1344 H 0.74492 0.5388 0.15317 0.0
H1345 H 0.78057 0.51764 0.19057 0.0
H1346 H 0.79155 0.43878 0.16932 0.0
H1347 H 0.7915 0.46685 0.17354 0.0
C1348 C 0.44508 0.75502 0.15345 0.0
C1349 C 0.43655 0.76835 0.1578 0.0
C1350 C 0.46105 0.7547 0.156 0.0
C1351 C 0.49443 0.77467 0.17823 0.0
H1352 H 0.5165 0.75646 0.13589 0.0
C1353 C 0.5608 0.78107 0.16561 0.0
C1354 C 0.56851 0.76828 0.15777 0.0
C1355 C 0.54473 0.78081 0.16807 0.0
C1356 C 0.51056 0.76139 0.14799 0.0
H1357 H 0.43802 0.79156 0.16915 0.0
H1358 H 0.46606 0.79108 0.17341 0.0
H1359 H 0.48852 0.75646 0.13593 0.0
H1360 H 0.56553 0.74486 0.14753 0.0
H1361 H 0.53774 0.7443 0.15213 0.0
H1362 H 0.51668 0.77975 0.19012 0.0
C1363 C 0.46033 0.78082 0.16815 0.0
C1364 C 0.49447 0.76138 0.14801 0.0
C1365 C 0.44427 0.78111 0.16568 0.0
C1366 C 0.55994 0.75497 0.1534 0.0
C1367 C 0.54397 0.75469 0.15593 0.0
C1368 C 0.51063 0.77467 0.17821 0.0
C1369 C 0.46896 0.76774 0.16284 0.0
C1370 C 0.48616 0.76791 0.16317 0.0
C1371 C 0.53608 0.76774 0.16277 0.0
C1372 C 0.51888 0.76792 0.16313 0.0
H1373 H 0.43948 0.74492 0.14756 0.0
H1374 H 0.46727 0.74431 0.1522 0.0
H1375 H 0.48839 0.77974 0.19015 0.0
H1376 H 0.56707 0.7915 0.1691 0.0
H1377 H 0.53902 0.79107 0.17332 0.0
C1378 C 0.25121 0.44567 0.15485 0.0
C1379 C 0.23785 0.43709 0.15889 0.0
C1380 C 0.25145 0.46164 0.15742 0.0
C1381 C 0.23111 0.49494 0.17927 0.0
H1382 H 0.24994 0.51709 0.1374 0.0
C1383 C 0.22486 0.56132 0.16656 0.0
C1384 C 0.23773 0.56903 0.15895 0.0
C1385 C 0.22512 0.54525 0.16908 0.0
C1386 C 0.24484 0.51113 0.14938 0.0
H1387 H 0.21446 0.43848 0.16969 0.0
H1388 H 0.2148 0.46653 0.17399 0.0
H1389 H 0.24994 0.48911 0.13735 0.0
H1390 H 0.26131 0.56609 0.14925 0.0
H1391 H 0.26186 0.53831 0.15397 0.0
H1392 H 0.22586 0.51718 0.19111 0.0
C1393 C 0.22515 0.46084 0.16897 0.0
C1394 C 0.24484 0.49503 0.14935 0.0
C1395 C 0.22494 0.44477 0.16646 0.0
C1396 C 0.25113 0.5605 0.15493 0.0
C1397 C 0.25141 0.54453 0.15753 0.0
C1398 C 0.23111 0.51115 0.1793 0.0
C1399 C 0.23829 0.4695 0.16397 0.0
C1400 C 0.23809 0.4867 0.16433 0.0
C1401 C 0.23827 0.53663 0.16408 0.0
C1402 C 0.23809 0.51942 0.1644 0.0
H1403 H 0.26142 0.4401 0.14919 0.0
H1404 H 0.26189 0.46789 0.15387 0.0
H1405 H 0.22586 0.48888 0.19106 0.0
H1406 H 0.21435 0.56757 0.16977 0.0
H1407 H 0.21478 0.53953 0.17411 0.0
C1408 C 0.12745 0.30336 0.43252 0.0
C1409 C 0.11697 0.29365 0.42302 0.0
C1410 C 0.127 0.30475 0.45235 0.0
C1411 C 0.11395 0.28276 0.49424 0.0
H1412 H 0.12126 0.3207 0.52203 0.0
C1413 C 0.10565 0.28503 0.57469 0.0
C1414 C 0.11718 0.2923 0.58551 0.0
C1415 C 0.10518 0.28676 0.55501 0.0
C1416 C 0.11933 0.31 0.51444 0.0
H1417 H 0.09721 0.27856 0.42684 0.0
H1418 H 0.09627 0.28121 0.46114 0.0
H1419 H 0.12112 0.32102 0.48723 0.0
H1420 H 0.13691 0.30768 0.58409 0.0
H1421 H 0.13617 0.3106 0.54953 0.0
H1422 H 0.11223 0.27167 0.52123 0.0
C1423 C 0.10511 0.28743 0.45341 0.0
C1424 C 0.11924 0.31018 0.49453 0.0
C1425 C 0.1056 0.28598 0.43369 0.0
C1426 C 0.12788 0.3019 0.57619 0.0
C1427 C 0.12743 0.30361 0.55639 0.0
C1428 C 0.11401 0.28258 0.51404 0.0
C1429 C 0.11604 0.2965 0.46305 0.0
C1430 C 0.1164 0.29656 0.4842 0.0
C1431 C 0.11627 0.29576 0.54555 0.0
C1432 C 0.11655 0.2962 0.52442 0.0
H1433 H 0.13636 0.30942 0.42473 0.0
H1434 H 0.13562 0.3118 0.45934 0.0
H1435 H 0.11214 0.27197 0.48679 0.0
H1436 H 0.0971 0.2777 0.58138 0.0
H1437 H 0.09622 0.28084 0.54715 0.0
C1438 C 0.72052 0.10608 0.57403 0.0
C1439 C 0.71233 0.11709 0.58468 0.0
C1440 C 0.71919 0.1056 0.5543 0.0
C1441 C 0.69597 0.1188 0.51314 0.0
H1442 H 0.73479 0.11352 0.48651 0.0
C1443 C 0.70387 0.1279 0.43154 0.0
C1444 C 0.71393 0.11767 0.42218 0.0
C1445 C 0.70221 0.12735 0.45134 0.0
C1446 C 0.72381 0.11481 0.49368 0.0
H1447 H 0.69579 0.13583 0.58293 0.0
H1448 H 0.69361 0.13509 0.54832 0.0
H1449 H 0.73443 0.11336 0.52096 0.0
H1450 H 0.72948 0.09831 0.42623 0.0
H1451 H 0.72644 0.09725 0.46048 0.0
H1452 H 0.68542 0.12039 0.48563 0.0
C1453 C 0.70097 0.12675 0.55532 0.0
C1454 C 0.7236 0.11471 0.51348 0.0
C1455 C 0.70226 0.1272 0.57515 0.0
C1456 C 0.72177 0.1065 0.43296 0.0
C1457 C 0.7201 0.10593 0.45265 0.0
C1458 C 0.69618 0.11892 0.49323 0.0
C1459 C 0.70971 0.11616 0.54463 0.0
C1460 C 0.70968 0.11655 0.52349 0.0
C1461 C 0.71058 0.11657 0.46215 0.0
C1462 C 0.71011 0.11677 0.48328 0.0
H1463 H 0.72824 0.09799 0.58089 0.0
H1464 H 0.7258 0.09705 0.54657 0.0
H1465 H 0.68504 0.12019 0.52042 0.0
H1466 H 0.69764 0.13665 0.42367 0.0
H1467 H 0.69483 0.13574 0.45823 0.0
C1468 C 0.90056 0.72169 0.43306 0.0
C1469 C 0.88935 0.71385 0.42233 0.0
C1470 C 0.9011 0.72011 0.45276 0.0
C1471 C 0.88772 0.69663 0.49357 0.0
H1472 H 0.89365 0.73507 0.52082 0.0
C1473 C 0.87912 0.70376 0.57537 0.0
C1474 C 0.88943 0.71371 0.58479 0.0
C1475 C 0.87961 0.70224 0.55556 0.0
C1476 C 0.89219 0.72418 0.51348 0.0
H1477 H 0.8703 0.69766 0.42391 0.0
H1478 H 0.87113 0.69503 0.45848 0.0
H1479 H 0.89362 0.73511 0.48638 0.0
H1480 H 0.90892 0.72912 0.58083 0.0
H1481 H 0.90991 0.72628 0.54655 0.0
H1482 H 0.88616 0.68577 0.52092 0.0
C1483 C 0.87958 0.70232 0.45155 0.0
C1484 C 0.89217 0.72421 0.49368 0.0
C1485 C 0.87908 0.70387 0.43174 0.0
C1486 C 0.90067 0.72151 0.57405 0.0
C1487 C 0.90119 0.71995 0.55435 0.0
C1488 C 0.88773 0.69661 0.51349 0.0
C1489 C 0.89039 0.71072 0.46232 0.0
C1490 C 0.8901 0.71043 0.48345 0.0
C1491 C 0.89044 0.71062 0.54479 0.0
C1492 C 0.89012 0.71038 0.52366 0.0
H1493 H 0.90879 0.72933 0.42628 0.0
H1494 H 0.90981 0.72646 0.46055 0.0
H1495 H 0.88615 0.68581 0.48612 0.0
H1496 H 0.87032 0.69758 0.58321 0.0
H1497 H 0.87113 0.69499 0.54863 0.0
C1498 C 0.30325 0.87935 0.57559 0.0
C1499 C 0.2931 0.88939 0.58512 0.0
C1500 C 0.30475 0.87999 0.55579 0.0
C1501 C 0.28266 0.89237 0.51375 0.0
H1502 H 0.32124 0.88726 0.48654 0.0
C1503 C 0.28523 0.90087 0.43331 0.0
C1504 C 0.2934 0.88987 0.42262 0.0
C1505 C 0.28671 0.90144 0.45302 0.0
C1506 C 0.31036 0.88857 0.49395 0.0
H1507 H 0.27724 0.90854 0.58135 0.0
H1508 H 0.28004 0.90978 0.54707 0.0
H1509 H 0.32115 0.88713 0.52133 0.0
H1510 H 0.31007 0.87125 0.42429 0.0
H1511 H 0.31252 0.87214 0.45887 0.0
H1512 H 0.27179 0.89368 0.48661 0.0
C1513 C 0.28656 0.90116 0.55479 0.0
C1514 C 0.31032 0.8885 0.51387 0.0
C1515 C 0.28503 0.9005 0.5745 0.0
C1516 C 0.30361 0.87986 0.43209 0.0
C1517 C 0.30505 0.8804 0.45191 0.0
C1518 C 0.2827 0.89244 0.49395 0.0
C1519 C 0.29615 0.89069 0.54513 0.0
C1520 C 0.29646 0.89054 0.52399 0.0
C1521 C 0.29633 0.89098 0.46263 0.0
C1522 C 0.29655 0.89068 0.48377 0.0
H1523 H 0.30964 0.87065 0.58334 0.0
H1524 H 0.3122 0.87172 0.54878 0.0
H1525 H 0.27172 0.89357 0.52106 0.0
H1526 H 0.27741 0.90889 0.42649 0.0
H1527 H 0.28011 0.90998 0.46079 0.0
C1528 C 0.10636 0.72041 0.43386 0.0
C1529 C 0.11749 0.71247 0.42312 0.0
C1530 C 0.10583 0.71887 0.45356 0.0
C1531 C 0.11913 0.6954 0.49443 0.0
H1532 H 0.11357 0.73396 0.52155 0.0
C1533 C 0.12813 0.70265 0.57612 0.0
C1534 C 0.11794 0.71267 0.5856 0.0
C1535 C 0.12755 0.70112 0.55631 0.0
C1536 C 0.11493 0.72304 0.51424 0.0
H1537 H 0.13641 0.69612 0.42469 0.0
H1538 H 0.13559 0.69356 0.45927 0.0
H1539 H 0.11346 0.7339 0.4871 0.0
H1540 H 0.09858 0.72825 0.58177 0.0
H1541 H 0.09743 0.72541 0.54749 0.0
H1542 H 0.12072 0.68462 0.52181 0.0
C1543 C 0.12719 0.70091 0.45235 0.0
C1544 C 0.11486 0.72301 0.49444 0.0
C1545 C 0.12768 0.70241 0.43253 0.0
C1546 C 0.10674 0.72058 0.57494 0.0
C1547 C 0.10613 0.71901 0.55524 0.0
C1548 C 0.1192 0.69544 0.51435 0.0
C1549 C 0.11648 0.70942 0.46312 0.0
C1550 C 0.11681 0.70919 0.48426 0.0
C1551 C 0.11675 0.70956 0.54561 0.0
C1552 C 0.11695 0.70927 0.52448 0.0
H1553 H 0.09819 0.72812 0.42708 0.0
H1554 H 0.09719 0.72531 0.46137 0.0
H1555 H 0.1206 0.68456 0.48702 0.0
H1556 H 0.13691 0.69639 0.5839 0.0
H1557 H 0.13593 0.69378 0.54933 0.0
C1558 C 0.30305 0.12726 0.43185 0.0
C1559 C 0.29324 0.11692 0.42228 0.0
C1560 C 0.30438 0.12677 0.45168 0.0
C1561 C 0.28215 0.11388 0.49349 0.0
H1562 H 0.32015 0.12064 0.52134 0.0
C1563 C 0.28429 0.10528 0.57391 0.0
C1564 C 0.2917 0.1167 0.58478 0.0
C1565 C 0.28601 0.10487 0.55422 0.0
C1566 C 0.30943 0.11886 0.51374 0.0
H1567 H 0.27788 0.09736 0.42598 0.0
H1568 H 0.2804 0.09634 0.46029 0.0
H1569 H 0.3205 0.12061 0.48654 0.0
H1570 H 0.3073 0.13626 0.58344 0.0
H1571 H 0.3102 0.13559 0.54889 0.0
H1572 H 0.27102 0.11221 0.52046 0.0
C1573 C 0.28676 0.10511 0.45261 0.0
C1574 C 0.30963 0.11884 0.49382 0.0
C1575 C 0.28538 0.10564 0.43288 0.0
C1576 C 0.30141 0.12732 0.5755 0.0
C1577 C 0.30312 0.12691 0.55571 0.0
C1578 C 0.28195 0.11388 0.51328 0.0
C1579 C 0.29595 0.1159 0.46232 0.0
C1580 C 0.29599 0.1162 0.48347 0.0
C1581 C 0.29514 0.11588 0.54481 0.0
C1582 C 0.2956 0.11622 0.52368 0.0
H1583 H 0.30926 0.1361 0.42411 0.0
H1584 H 0.31152 0.13529 0.45872 0.0
H1585 H 0.27135 0.11224 0.48601 0.0
H1586 H 0.27686 0.0968 0.58056 0.0
H1587 H 0.27998 0.096 0.54631 0.0
C1588 C 0.87883 0.30238 0.43142 0.0
C1589 C 0.88939 0.29253 0.42227 0.0
C1590 C 0.87912 0.3041 0.45121 0.0
C1591 C 0.89164 0.28285 0.49381 0.0
H1592 H 0.88494 0.32147 0.52039 0.0
C1593 C 0.89923 0.28633 0.57427 0.0
C1594 C 0.88786 0.2942 0.58472 0.0
C1595 C 0.89994 0.28771 0.55456 0.0
C1596 C 0.88669 0.31058 0.51315 0.0
H1597 H 0.90908 0.27746 0.42671 0.0
H1598 H 0.90969 0.28062 0.46096 0.0
H1599 H 0.88523 0.32109 0.4856 0.0
H1600 H 0.86872 0.31025 0.58264 0.0
H1601 H 0.86986 0.3125 0.54803 0.0
H1602 H 0.89297 0.27226 0.52112 0.0
C1603 C 0.90095 0.28674 0.45295 0.0
C1604 C 0.88686 0.31036 0.49324 0.0
C1605 C 0.90064 0.285 0.43326 0.0
C1606 C 0.87762 0.30402 0.57502 0.0
C1607 C 0.8783 0.30535 0.55519 0.0
C1608 C 0.89146 0.28306 0.5136 0.0
C1609 C 0.88998 0.29601 0.46223 0.0
C1610 C 0.88949 0.2965 0.48335 0.0
C1611 C 0.88925 0.29691 0.5447 0.0
C1612 C 0.88914 0.29693 0.52356 0.0
H1613 H 0.87002 0.30836 0.42338 0.0
H1614 H 0.87047 0.31129 0.45792 0.0
H1615 H 0.89329 0.2719 0.48668 0.0
H1616 H 0.90743 0.27882 0.58128 0.0
H1617 H 0.90877 0.28134 0.54699 0.0
C1618 C 0.70239 0.87921 0.57622 0.0
C1619 C 0.71235 0.88954 0.58558 0.0
C1620 C 0.70086 0.87963 0.55641 0.0
C1621 C 0.72277 0.89209 0.51421 0.0
H1622 H 0.68443 0.88563 0.48696 0.0
C1623 C 0.72015 0.89983 0.43366 0.0
C1624 C 0.71235 0.8885 0.42308 0.0
C1625 C 0.71861 0.9005 0.45336 0.0
C1626 C 0.69524 0.88732 0.49439 0.0
H1627 H 0.72777 0.909 0.58151 0.0
H1628 H 0.72492 0.90988 0.54723 0.0
H1629 H 0.6844 0.88589 0.52175 0.0
H1630 H 0.69627 0.86936 0.42493 0.0
H1631 H 0.69372 0.87044 0.4595 0.0
H1632 H 0.73368 0.8934 0.48707 0.0
C1633 C 0.71859 0.90119 0.55508 0.0
C1634 C 0.69523 0.88747 0.5143 0.0
C1635 C 0.72015 0.90074 0.57478 0.0
C1636 C 0.70245 0.87823 0.43265 0.0
C1637 C 0.70095 0.87888 0.45246 0.0
C1638 C 0.72279 0.89194 0.49441 0.0
C1639 C 0.70924 0.8904 0.54558 0.0
C1640 C 0.70899 0.89 0.52444 0.0
C1641 C 0.70929 0.88981 0.46307 0.0
C1642 C 0.70902 0.8897 0.48422 0.0
H1643 H 0.69621 0.87043 0.58411 0.0
H1644 H 0.69361 0.87112 0.54953 0.0
H1645 H 0.73366 0.89365 0.52152 0.0
H1646 H 0.72772 0.90805 0.42677 0.0
H1647 H 0.72492 0.9093 0.46104 0.0
C1648 C 0.60617 0.78566 0.07455 0.0
C1649 C 0.61752 0.79329 0.0853 0.0
C1650 C 0.60575 0.78717 0.05484 0.0
C1651 C 0.61984 0.81014 0.01393 0.0
H1652 H 0.61302 0.77175 0.98691 0.0
C1653 C 0.62834 0.80246 0.93216 0.0
C1654 C 0.61777 0.79277 0.92279 0.0
C1655 C 0.6279 0.80406 0.95197 0.0
C1656 C 0.61474 0.78263 0.99419 0.0
H1657 H 0.63693 0.80904 0.08374 0.0
H1658 H 0.63629 0.81154 0.04914 0.0
H1659 H 0.61296 0.77186 0.02136 0.0
H1660 H 0.59788 0.77788 0.92685 0.0
H1661 H 0.59699 0.78084 0.96111 0.0
H1662 H 0.62175 0.82083 0.98652 0.0
C1663 C 0.62765 0.80447 0.05606 0.0
C1664 C 0.6147 0.78269 0.01399 0.0
C1665 C 0.62804 0.803 0.07589 0.0
C1666 C 0.60634 0.78529 0.93358 0.0
C1667 C 0.60587 0.78692 0.95327 0.0
C1668 C 0.61989 0.81008 0.99401 0.0
C1669 C 0.61671 0.79627 0.04528 0.0
C1670 C 0.61709 0.79645 0.02414 0.0
C1671 C 0.61687 0.796 0.96278 0.0
C1672 C 0.61718 0.79632 0.98392 0.0
H1673 H 0.59775 0.77824 0.08133 0.0
H1674 H 0.59693 0.78099 0.04703 0.0
H1675 H 0.62167 0.82095 0.02132 0.0
H1676 H 0.6373 0.80839 0.92428 0.0
H1677 H 0.63657 0.81111 0.95886 0.0
C1678 C 0.20246 0.62712 0.9327 0.0
C1679 C 0.21241 0.61688 0.92319 0.0
C1680 C 0.2009 0.62648 0.9525 0.0
C1681 C 0.22273 0.61361 0.9945 0.0
H1682 H 0.18432 0.61956 0.02181 0.0
C1683 C 0.22023 0.60532 0.07495 0.0
C1684 C 0.21232 0.6165 0.08564 0.0
C1685 C 0.21865 0.60472 0.05525 0.0
C1686 C 0.19515 0.61801 0.01437 0.0
H1687 H 0.22779 0.59734 0.92696 0.0
H1688 H 0.22489 0.5961 0.96122 0.0
H1689 H 0.18434 0.61968 0.98702 0.0
H1690 H 0.19599 0.63543 0.084 0.0
H1691 H 0.19338 0.6345 0.04944 0.0
H1692 H 0.23362 0.6121 0.02161 0.0
C1693 C 0.21858 0.60488 0.9535 0.0
C1694 C 0.19516 0.61807 0.99445 0.0
C1695 C 0.22018 0.60555 0.93381 0.0
C1696 C 0.20225 0.62667 0.0762 0.0
C1697 C 0.20072 0.62611 0.05639 0.0
C1698 C 0.22272 0.61356 0.0143 0.0
C1699 C 0.20923 0.61557 0.96316 0.0
C1700 C 0.20896 0.61574 0.9843 0.0
C1701 C 0.2092 0.61535 0.04565 0.0
C1702 C 0.20894 0.61562 0.02451 0.0
H1703 H 0.19631 0.63599 0.92495 0.0
H1704 H 0.19364 0.63491 0.95952 0.0
H1705 H 0.23363 0.61218 0.98717 0.0
H1706 H 0.22793 0.59717 0.08176 0.0
H1707 H 0.22506 0.59603 0.04748 0.0
C1708 C 0.37812 0.20337 0.07565 0.0
C1709 C 0.38878 0.21289 0.08514 0.0
C1710 C 0.37853 0.20195 0.05582 0.0
C1711 C 0.39199 0.2236 0.01385 0.0
H1712 H 0.38411 0.18568 0.98625 0.0
C1713 C 0.40028 0.22095 0.93341 0.0
C1714 C 0.38866 0.21378 0.92263 0.0
C1715 C 0.40071 0.21928 0.9531 0.0
C1716 C 0.3862 0.19638 0.99378 0.0
H1717 H 0.4088 0.22762 0.08128 0.0
H1718 H 0.40967 0.22494 0.04698 0.0
H1719 H 0.3842 0.18548 0.02105 0.0
H1720 H 0.36874 0.19865 0.92411 0.0
H1721 H 0.36942 0.19585 0.95868 0.0
H1722 H 0.3939 0.23456 0.98681 0.0
C1723 C 0.40073 0.21888 0.05473 0.0
C1724 C 0.38626 0.19626 0.0137 0.0
C1725 C 0.40028 0.22035 0.07445 0.0
C1726 C 0.37784 0.20434 0.93199 0.0
C1727 C 0.37826 0.2027 0.95179 0.0
C1728 C 0.39195 0.22371 0.99405 0.0
C1729 C 0.38964 0.20999 0.0451 0.0
C1730 C 0.3893 0.20987 0.02396 0.0
C1731 C 0.3895 0.21045 0.96261 0.0
C1732 C 0.38921 0.2101 0.98374 0.0
H1733 H 0.36911 0.19747 0.08345 0.0
H1734 H 0.36979 0.19505 0.04885 0.0
H1735 H 0.39396 0.23438 0.02126 0.0
H1736 H 0.40892 0.22815 0.92669 0.0
H1737 H 0.40974 0.22512 0.96094 0.0
C1738 C 0.80214 0.3773 0.07653 0.0
C1739 C 0.79222 0.38771 0.08583 0.0
C1740 C 0.80378 0.37772 0.05673 0.0
C1741 C 0.78227 0.39024 0.01435 0.0
H1742 H 0.82097 0.38463 0.98756 0.0
C1743 C 0.78551 0.39898 0.93403 0.0
C1744 C 0.79364 0.38796 0.92334 0.0
C1745 C 0.78686 0.39943 0.95376 0.0
C1746 C 0.81006 0.38608 0.99485 0.0
H1747 H 0.7769 0.40725 0.08162 0.0
H1748 H 0.7799 0.40806 0.04737 0.0
H1749 H 0.82063 0.38448 0.02235 0.0
H1750 H 0.81011 0.36915 0.92502 0.0
H1751 H 0.81232 0.36982 0.95964 0.0
H1752 H 0.77161 0.3917 0.98709 0.0
C1753 C 0.78616 0.39935 0.05527 0.0
C1754 C 0.80987 0.38599 0.01477 0.0
C1755 C 0.7845 0.39892 0.07496 0.0
C1756 C 0.80368 0.37779 0.93283 0.0
C1757 C 0.80499 0.3782 0.95267 0.0
C1758 C 0.78245 0.39031 0.99455 0.0
C1759 C 0.79553 0.38855 0.04585 0.0
C1760 C 0.79597 0.38824 0.02473 0.0
C1761 C 0.7963 0.38881 0.96338 0.0
C1762 C 0.79635 0.3884 0.98452 0.0
H1763 H 0.80827 0.36853 0.08447 0.0
H1764 H 0.81106 0.36921 0.0499 0.0
H1765 H 0.7713 0.3916 0.02154 0.0
H1766 H 0.77782 0.40712 0.92719 0.0
H1767 H 0.7803 0.408 0.96152 0.0
C1768 C 0.62714 0.20296 0.07668 0.0
C1769 C 0.61671 0.21293 0.08585 0.0
C1770 C 0.62679 0.20122 0.05689 0.0
C1771 C 0.6144 0.2226 0.01431 0.0
H1772 H 0.62078 0.18393 0.98771 0.0
C1773 C 0.60674 0.21917 0.93383 0.0
C1774 C 0.61804 0.21121 0.92338 0.0
C1775 C 0.60603 0.21781 0.95355 0.0
C1776 C 0.61911 0.19483 0.99495 0.0
H1777 H 0.59717 0.2282 0.08146 0.0
H1778 H 0.59644 0.22501 0.04722 0.0
H1779 H 0.62051 0.18431 0.02251 0.0
H1780 H 0.63705 0.19502 0.92545 0.0
H1781 H 0.63591 0.19278 0.96006 0.0
H1782 H 0.61313 0.2332 0.987 0.0
C1783 C 0.60514 0.21881 0.0552 0.0
C1784 C 0.61895 0.19505 0.01487 0.0
C1785 C 0.60551 0.22057 0.07489 0.0
C1786 C 0.62821 0.20131 0.93308 0.0
C1787 C 0.62753 0.2 0.95291 0.0
C1788 C 0.61456 0.22238 0.99451 0.0
C1789 C 0.616 0.20942 0.04589 0.0
C1790 C 0.61644 0.20893 0.02476 0.0
C1791 C 0.61665 0.20853 0.9634 0.0
C1792 C 0.61677 0.2085 0.98455 0.0
H1793 H 0.63592 0.1969 0.0847 0.0
H1794 H 0.63535 0.19394 0.05015 0.0
H1795 H 0.61284 0.23356 0.02144 0.0
H1796 H 0.59859 0.22675 0.92683 0.0
H1797 H 0.59726 0.22425 0.96113 0.0
C1798 C 0.80298 0.62883 0.07617 0.0
C1799 C 0.79332 0.61832 0.08572 0.0
C1800 C 0.80445 0.62829 0.05636 0.0
C1801 C 0.78277 0.61487 0.01444 0.0
H1802 H 0.8209 0.622 0.98694 0.0
C1803 C 0.78551 0.60612 0.93409 0.0
C1804 C 0.79289 0.61758 0.92325 0.0
C1805 C 0.78713 0.60575 0.95379 0.0
C1806 C 0.81015 0.62012 0.99444 0.0
H1807 H 0.77837 0.59845 0.08199 0.0
H1808 H 0.78113 0.59737 0.0477 0.0
H1809 H 0.82098 0.62213 0.02173 0.0
H1810 H 0.80834 0.63725 0.92464 0.0
H1811 H 0.81106 0.63667 0.95922 0.0
H1812 H 0.77187 0.61295 0.98737 0.0
C1813 C 0.78726 0.60628 0.0554 0.0
C1814 C 0.8102 0.62019 0.01435 0.0
C1815 C 0.78575 0.60686 0.07511 0.0
C1816 C 0.80249 0.62827 0.93256 0.0
C1817 C 0.80408 0.62792 0.95237 0.0
C1818 C 0.78273 0.61478 0.99464 0.0
C1819 C 0.79631 0.61721 0.04571 0.0
C1820 C 0.79651 0.61742 0.02457 0.0
C1821 C 0.79612 0.61685 0.96324 0.0
C1822 C 0.79642 0.61726 0.98437 0.0
H1823 H 0.80898 0.63781 0.08392 0.0
H1824 H 0.81147 0.63691 0.04933 0.0
H1825 H 0.77195 0.61311 0.02181 0.0
H1826 H 0.77818 0.59758 0.9274 0.0
H1827 H 0.78113 0.59685 0.96167 0.0
C1828 C 0.39949 0.78654 0.93335 0.0
C1829 C 0.38812 0.79419 0.92268 0.0
C1830 C 0.40008 0.78815 0.95304 0.0
C1831 C 0.38657 0.81144 0.99394 0.0
H1832 H 0.39292 0.77304 0.02111 0.0
C1833 C 0.37821 0.80418 0.07576 0.0
C1834 C 0.38854 0.79423 0.08513 0.0
C1835 C 0.37869 0.80575 0.05595 0.0
C1836 C 0.39135 0.78392 0.01379 0.0
H1837 H 0.36885 0.81012 0.92434 0.0
H1838 H 0.36979 0.81281 0.95891 0.0
H1839 H 0.39282 0.77303 0.98667 0.0
H1840 H 0.40807 0.77889 0.08111 0.0
H1841 H 0.40905 0.78183 0.04684 0.0
H1842 H 0.38499 0.82226 0.0213 0.0
C1843 C 0.37832 0.80563 0.95194 0.0
C1844 C 0.39128 0.78391 0.99399 0.0
C1845 C 0.37775 0.80405 0.93214 0.0
C1846 C 0.3998 0.7865 0.07436 0.0
C1847 C 0.40031 0.78811 0.05466 0.0
C1848 C 0.38664 0.81145 0.01386 0.0
C1849 C 0.38927 0.7974 0.96265 0.0
C1850 C 0.38904 0.79767 0.98379 0.0
C1851 C 0.38952 0.79743 0.04514 0.0
C1852 C 0.38918 0.79769 0.024 0.0
H1853 H 0.40779 0.779 0.92654 0.0
H1854 H 0.4089 0.78194 0.9608 0.0
H1855 H 0.38487 0.82225 0.9865 0.0
H1856 H 0.36939 0.81031 0.08363 0.0
H1857 H 0.37018 0.81299 0.04905 0.0
C1858 C 0.2051 0.37827 0.93252 0.0
C1859 C 0.21465 0.38904 0.92326 0.0
C1860 C 0.20348 0.37856 0.95233 0.0
C1861 C 0.22468 0.39168 0.99471 0.0
H1862 H 0.18635 0.38428 0.02166 0.0
C1863 C 0.22136 0.3997 0.07517 0.0
C1864 C 0.21371 0.38829 0.08578 0.0
C1865 C 0.21995 0.40021 0.05544 0.0
C1866 C 0.19716 0.38623 0.01432 0.0
H1867 H 0.22927 0.40909 0.92752 0.0
H1868 H 0.22629 0.4097 0.96179 0.0
H1869 H 0.18655 0.38441 0.98686 0.0
H1870 H 0.19803 0.36882 0.08396 0.0
H1871 H 0.19571 0.36962 0.04936 0.0
H1872 H 0.23538 0.39337 0.02192 0.0
C1873 C 0.22033 0.4008 0.95386 0.0
C1874 C 0.19727 0.38631 0.9944 0.0
C1875 C 0.22197 0.4005 0.93416 0.0
C1876 C 0.20408 0.37776 0.07622 0.0
C1877 C 0.20272 0.37825 0.05639 0.0
C1878 C 0.22457 0.39159 0.01451 0.0
C1879 C 0.21138 0.38963 0.96325 0.0
C1880 C 0.21103 0.38919 0.98438 0.0
C1881 C 0.21093 0.38928 0.04574 0.0
C1882 C 0.2108 0.38903 0.0246 0.0
H1883 H 0.19929 0.36929 0.92455 0.0
H1884 H 0.19653 0.36976 0.95913 0.0
H1885 H 0.23555 0.39353 0.98747 0.0
H1886 H 0.22872 0.40811 0.08206 0.0
H1887 H 0.22614 0.4091 0.04775 0.0
C1888 C 0.18828 0.37517 0.2023 0.0
C1889 C 0.18532 0.36792 0.18484 0.0
C1890 C 0.1799 0.37107 0.21855 0.0
C1891 C 0.15665 0.33831 0.23714 0.0
H1892 H 0.14987 0.36596 0.27962 0.0
C1893 C 0.12744 0.31733 0.30594 0.0
C1894 C 0.13601 0.32036 0.32247 0.0
C1895 C 0.13096 0.32491 0.28892 0.0
C1896 C 0.15167 0.35812 0.26784 0.0
H1897 H 0.17056 0.3515 0.1704 0.0
H1898 H 0.1555 0.34486 0.19841 0.0
H1899 H 0.16028 0.37612 0.24988 0.0
H1900 H 0.15434 0.33439 0.33438 0.0
H1901 H 0.1603 0.34775 0.30477 0.0
H1902 H 0.14806 0.32035 0.25512 0.0
C1903 C 0.16468 0.35326 0.19985 0.0
C1904 C 0.15771 0.36391 0.25081 0.0
C1905 C 0.17322 0.35717 0.18371 0.0
C1906 C 0.14755 0.33176 0.32188 0.0
C1907 C 0.15092 0.33948 0.30493 0.0
C1908 C 0.15044 0.33259 0.25404 0.0
C1909 C 0.16821 0.35978 0.21765 0.0
C1910 C 0.16052 0.35403 0.2353 0.0
C1911 C 0.14296 0.33582 0.28815 0.0
C1912 C 0.14809 0.34237 0.26968 0.0
H1913 H 0.1976 0.38344 0.20364 0.0
H1914 H 0.18312 0.37625 0.23196 0.0
H1915 H 0.15893 0.33022 0.22577 0.0
H1916 H 0.11849 0.3086 0.30591 0.0
H1917 H 0.12453 0.32196 0.27624 0.0
C1918 C 0.64793 0.17576 0.18674 0.0
C1919 C 0.63619 0.18696 0.18632 0.0
C1920 C 0.65146 0.16795 0.20357 0.0
C1921 C 0.65101 0.17435 0.25451 0.0
H1922 H 0.66111 0.13086 0.25811 0.0
C1923 C 0.67408 0.14937 0.32446 0.0
C1924 C 0.68617 0.13862 0.32319 0.0
C1925 C 0.66552 0.15338 0.30839 0.0
C1926 C 0.65848 0.14305 0.25734 0.0
H1927 H 0.6185 0.19827 0.20307 0.0
H1928 H 0.62482 0.18477 0.23256 0.0
H1929 H 0.65059 0.14119 0.22854 0.0
H1930 H 0.69841 0.12323 0.30419 0.0
H1931 H 0.68391 0.13062 0.27599 0.0
H1932 H 0.65956 0.17656 0.28276 0.0
C1933 C 0.63127 0.18205 0.21982 0.0
C1934 C 0.65237 0.14894 0.24041 0.0
C1935 C 0.6276 0.1897 0.20291 0.0
C1936 C 0.6891 0.13149 0.30565 0.0
C1937 C 0.68071 0.13571 0.28946 0.0
C1938 C 0.6573 0.16854 0.27131 0.0
C1939 C 0.64345 0.17133 0.22042 0.0
C1940 C 0.64869 0.16468 0.23877 0.0
C1941 C 0.66902 0.14699 0.29052 0.0
C1942 C 0.66127 0.15283 0.27296 0.0
H1943 H 0.65475 0.17335 0.17418 0.0
H1944 H 0.66097 0.15984 0.20361 0.0
H1945 H 0.64854 0.18658 0.25358 0.0
H1946 H 0.67144 0.15494 0.33784 0.0
H1947 H 0.65634 0.16177 0.30996 0.0
C1948 C 0.81846 0.63176 0.20215 0.0
C1949 C 0.82143 0.63893 0.18465 0.0
C1950 C 0.82684 0.63591 0.21837 0.0
C1951 C 0.85013 0.66872 0.23671 0.0
H1952 H 0.85684 0.64128 0.27938 0.0
C1953 C 0.87917 0.69004 0.30541 0.0
C1954 C 0.87054 0.68711 0.32192 0.0
C1955 C 0.87572 0.68237 0.28844 0.0
C1956 C 0.85507 0.64905 0.26754 0.0
H1957 H 0.83623 0.65525 0.17008 0.0
H1958 H 0.8513 0.66197 0.19803 0.0
H1959 H 0.84647 0.63098 0.24971 0.0
H1960 H 0.85217 0.67313 0.33387 0.0
H1961 H 0.84631 0.65962 0.30434 0.0
H1962 H 0.8587 0.68677 0.25456 0.0
C1963 C 0.84211 0.6536 0.19954 0.0
C1964 C 0.84904 0.64318 0.25056 0.0
C1965 C 0.83355 0.64964 0.18343 0.0
C1966 C 0.85901 0.67569 0.32138 0.0
C1967 C 0.85569 0.66789 0.30448 0.0
C1968 C 0.85632 0.67452 0.25357 0.0
C1969 C 0.83856 0.64717 0.21737 0.0
C1970 C 0.84625 0.65299 0.23498 0.0
C1971 C 0.86371 0.67145 0.28771 0.0
C1972 C 0.85864 0.66481 0.26927 0.0
H1973 H 0.80912 0.62352 0.20356 0.0
H1974 H 0.82361 0.63079 0.23181 0.0
H1975 H 0.84786 0.67676 0.22528 0.0
H1976 H 0.88812 0.69877 0.30535 0.0
H1977 H 0.88219 0.68525 0.27576 0.0
C1978 C 0.35833 0.83213 0.18633 0.0
C1979 C 0.36987 0.82073 0.18571 0.0
C1980 C 0.3551 0.83996 0.20324 0.0
C1981 C 0.35618 0.83356 0.25425 0.0
H1982 H 0.34609 0.87706 0.25784 0.0
C1983 C 0.33406 0.8588 0.32453 0.0
C1984 C 0.32179 0.86936 0.32341 0.0
C1985 C 0.34246 0.8548 0.30832 0.0
C1986 C 0.34873 0.86486 0.25707 0.0
H1987 H 0.38753 0.8091 0.20216 0.0
H1988 H 0.38176 0.82268 0.23176 0.0
H1989 H 0.35623 0.86663 0.22811 0.0
H1990 H 0.30909 0.88446 0.30453 0.0
H1991 H 0.32335 0.87712 0.27611 0.0
H1992 H 0.34804 0.83146 0.28272 0.0
C1993 C 0.37521 0.82553 0.21914 0.0
C1994 C 0.35462 0.85892 0.24005 0.0
C1995 C 0.37858 0.81782 0.20216 0.0
C1996 C 0.31854 0.87635 0.30587 0.0
C1997 C 0.32679 0.87216 0.28956 0.0
C1998 C 0.35014 0.83943 0.27117 0.0
C1999 C 0.36322 0.83644 0.21995 0.0
C2000 C 0.35828 0.84317 0.23841 0.0
C2001 C 0.33863 0.86103 0.29047 0.0
C2002 C 0.34617 0.85514 0.2728 0.0
H2003 H 0.35143 0.83467 0.1739 0.0
H2004 H 0.34572 0.84823 0.20343 0.0
H2005 H 0.35863 0.82132 0.25335 0.0
H2006 H 0.33695 0.85334 0.3379 0.0
H2007 H 0.35176 0.84653 0.30975 0.0
C2008 C 0.18906 0.6277 0.80636 0.0
C2009 C 0.18615 0.63642 0.82281 0.0
C2010 C 0.18146 0.63114 0.78934 0.0
C2011 C 0.14833 0.65189 0.7682 0.0
H2012 H 0.17611 0.65857 0.72586 0.0
C2013 C 0.13131 0.68802 0.70229 0.0
C2014 C 0.13846 0.68483 0.68482 0.0
C2015 C 0.1354 0.67976 0.71862 0.0
C2016 C 0.16805 0.65645 0.73732 0.0
H2017 H 0.1723 0.65495 0.83457 0.0
H2018 H 0.15891 0.66079 0.80495 0.0
H2019 H 0.18603 0.6479 0.75529 0.0
H2020 H 0.15469 0.6698 0.67048 0.0
H2021 H 0.16132 0.65495 0.69865 0.0
H2022 H 0.13032 0.66045 0.75025 0.0
C2023 C 0.16711 0.65135 0.80519 0.0
C2024 C 0.17379 0.65036 0.75426 0.0
C2025 C 0.17484 0.64804 0.82213 0.0
C2026 C 0.1491 0.67263 0.68379 0.0
C2027 C 0.153 0.66421 0.70002 0.0
C2028 C 0.14251 0.65781 0.75113 0.0
C2029 C 0.17065 0.64322 0.78848 0.0
C2030 C 0.16406 0.64823 0.76999 0.0
C2031 C 0.14659 0.66797 0.71781 0.0
C2032 C 0.15235 0.66041 0.73552 0.0
H2033 H 0.19771 0.61867 0.80639 0.0
H2034 H 0.18432 0.62458 0.77672 0.0
H2035 H 0.14053 0.65026 0.78006 0.0
H2036 H 0.12313 0.69742 0.70355 0.0
H2037 H 0.1303 0.68315 0.73202 0.0
C2038 C 0.3211 0.12999 0.69819 0.0
C2039 C 0.3182 0.14078 0.68369 0.0
C2040 C 0.32871 0.1345 0.71487 0.0
C2041 C 0.33224 0.16805 0.74486 0.0
H2042 H 0.36708 0.14795 0.76908 0.0
C2043 C 0.34947 0.18191 0.82142 0.0
C2044 C 0.36467 0.18731 0.82366 0.0
C2045 C 0.34496 0.17454 0.8047 0.0
C2046 C 0.35734 0.15363 0.76242 0.0
H2047 H 0.32169 0.16458 0.67501 0.0
H2048 H 0.33463 0.17241 0.70415 0.0
H2049 H 0.35748 0.13833 0.73835 0.0
H2050 H 0.38728 0.18835 0.81051 0.0
H2051 H 0.37938 0.1751 0.78128 0.0
H2052 H 0.33182 0.18314 0.7689 0.0
C2053 C 0.33105 0.16049 0.70259 0.0
C2054 C 0.35184 0.14811 0.74495 0.0
C2055 C 0.32368 0.15596 0.68588 0.0
C2056 C 0.37549 0.18436 0.8092 0.0
C2057 C 0.37099 0.17675 0.79251 0.0
C2058 C 0.33751 0.17334 0.7624 0.0
C2059 C 0.33334 0.14991 0.71741 0.0
C2060 C 0.3393 0.15537 0.73597 0.0
C2061 C 0.35557 0.17218 0.78992 0.0
C2062 C 0.35013 0.16623 0.77135 0.0
H2063 H 0.31704 0.11821 0.69693 0.0
H2064 H 0.33031 0.12614 0.72613 0.0
H2065 H 0.32248 0.17378 0.73832 0.0
H2066 H 0.34084 0.18395 0.83225 0.0
H2067 H 0.33303 0.17101 0.8031 0.0
C2068 C 0.85796 0.33282 0.68603 0.0
C2069 C 0.86946 0.32139 0.68516 0.0
C2070 C 0.85491 0.34057 0.70305 0.0
C2071 C 0.85648 0.33378 0.75397 0.0
H2072 H 0.84621 0.3772 0.75817 0.0
C2073 C 0.83468 0.35829 0.82475 0.0
C2074 C 0.8223 0.36873 0.82385 0.0
C2075 C 0.84305 0.35453 0.80842 0.0
C2076 C 0.84892 0.36503 0.75724 0.0
H2077 H 0.88727 0.30965 0.70125 0.0
H2078 H 0.88183 0.3231 0.73102 0.0
H2079 H 0.85617 0.36705 0.7282 0.0
H2080 H 0.80936 0.38388 0.80527 0.0
H2081 H 0.82356 0.37695 0.77665 0.0
H2082 H 0.84858 0.33143 0.7825 0.0
C2083 C 0.87516 0.32602 0.71853 0.0
C2084 C 0.85469 0.35924 0.74007 0.0
C2085 C 0.87833 0.31839 0.70145 0.0
C2086 C 0.8189 0.37586 0.80644 0.0
C2087 C 0.82712 0.3719 0.79001 0.0
C2088 C 0.85055 0.3395 0.77102 0.0
C2089 C 0.86318 0.33694 0.71961 0.0
C2090 C 0.8584 0.34352 0.73821 0.0
C2091 C 0.83906 0.36088 0.79068 0.0
C2092 C 0.84652 0.35518 0.77288 0.0
H2093 H 0.85094 0.33543 0.67373 0.0
H2094 H 0.84555 0.34884 0.70345 0.0
H2095 H 0.85896 0.32156 0.75289 0.0
H2096 H 0.83768 0.35273 0.83801 0.0
H2097 H 0.85243 0.34633 0.80966 0.0
C2098 C 0.67267 0.858 0.68386 0.0
C2099 C 0.68485 0.86865 0.68502 0.0
C2100 C 0.66433 0.85385 0.70007 0.0
C2101 C 0.65818 0.8636 0.75146 0.0
H2102 H 0.64817 0.82005 0.75474 0.0
C2103 C 0.64857 0.83028 0.82183 0.0
C2104 C 0.63684 0.81906 0.82237 0.0
C2105 C 0.65188 0.8382 0.80501 0.0
C2106 C 0.65065 0.83229 0.75396 0.0
H2107 H 0.6975 0.88373 0.70397 0.0
H2108 H 0.68339 0.87612 0.73239 0.0
H2109 H 0.65874 0.83038 0.72546 0.0
H2110 H 0.61895 0.80785 0.80585 0.0
H2111 H 0.62488 0.82157 0.77639 0.0
H2112 H 0.65076 0.86517 0.78048 0.0
C2113 C 0.67994 0.87121 0.71892 0.0
C2114 C 0.65669 0.83827 0.7371 0.0
C2115 C 0.68811 0.87556 0.70261 0.0
C2116 C 0.62805 0.81642 0.80592 0.0
C2117 C 0.6315 0.82421 0.78902 0.0
C2118 C 0.65232 0.85754 0.76845 0.0
C2119 C 0.66816 0.86001 0.71796 0.0
C2120 C 0.66068 0.85399 0.73562 0.0
C2121 C 0.64365 0.83495 0.7883 0.0
C2122 C 0.64862 0.84179 0.76992 0.0
H2123 H 0.66978 0.85259 0.67045 0.0
H2124 H 0.65508 0.84553 0.6986 0.0
H2125 H 0.66084 0.87579 0.75083 0.0
H2126 H 0.65554 0.8326 0.83427 0.0
H2127 H 0.66138 0.84633 0.80488 0.0
C2128 C 0.85123 0.68017 0.68588 0.0
C2129 C 0.86619 0.68624 0.68379 0.0
C2130 C 0.84684 0.67284 0.70268 0.0
C2131 C 0.85936 0.6531 0.74559 0.0
H2132 H 0.8239 0.67283 0.76893 0.0
C2133 C 0.82282 0.62987 0.80993 0.0
C2134 C 0.81992 0.64081 0.82426 0.0
C2135 C 0.83048 0.63419 0.79321 0.0
C2136 C 0.83382 0.66722 0.76259 0.0
H2137 H 0.88856 0.6885 0.6973 0.0
H2138 H 0.88089 0.67531 0.72668 0.0
H2139 H 0.83323 0.68192 0.73819 0.0
H2140 H 0.82344 0.66469 0.8326 0.0
H2141 H 0.83645 0.6722 0.80336 0.0
H2142 H 0.85965 0.63817 0.77002 0.0
C2143 C 0.87259 0.6764 0.71526 0.0
C2144 C 0.83909 0.67235 0.74498 0.0
C2145 C 0.87695 0.68397 0.69848 0.0
C2146 C 0.82544 0.65596 0.82187 0.0
C2147 C 0.83285 0.6603 0.8051 0.0
C2148 C 0.85385 0.64772 0.76313 0.0
C2149 C 0.85735 0.6712 0.71769 0.0
C2150 C 0.85192 0.66539 0.73632 0.0
C2151 C 0.83515 0.64957 0.79046 0.0
C2152 C 0.8411 0.65485 0.77183 0.0
H2153 H 0.84264 0.68167 0.67486 0.0
H2154 H 0.83505 0.66883 0.70417 0.0
H2155 H 0.86926 0.64755 0.73916 0.0
H2156 H 0.81873 0.61812 0.81136 0.0
H2157 H 0.83208 0.62572 0.78207 0.0
C2158 C 0.37791 0.81734 0.8057 0.0
C2159 C 0.36916 0.82029 0.82212 0.0
C2160 C 0.37456 0.82498 0.78867 0.0
C2161 C 0.35403 0.85826 0.76752 0.0
H2162 H 0.34729 0.83058 0.72511 0.0
C2163 C 0.31802 0.87554 0.70165 0.0
C2164 C 0.32117 0.86842 0.68417 0.0
C2165 C 0.32626 0.87139 0.71797 0.0
C2166 C 0.34943 0.83861 0.73658 0.0
H2167 H 0.35067 0.83422 0.83382 0.0
H2168 H 0.34498 0.84767 0.8042 0.0
H2169 H 0.35787 0.82056 0.75454 0.0
H2170 H 0.33615 0.85216 0.66977 0.0
H2171 H 0.35096 0.84542 0.69792 0.0
H2172 H 0.34558 0.87633 0.74959 0.0
C2173 C 0.35438 0.83942 0.80446 0.0
C2174 C 0.35547 0.83281 0.75353 0.0
C2175 C 0.35759 0.83166 0.82141 0.0
C2176 C 0.33333 0.85774 0.6831 0.0
C2177 C 0.34174 0.85377 0.69931 0.0
C2178 C 0.34816 0.86413 0.75046 0.0
C2179 C 0.36254 0.83586 0.78778 0.0
C2180 C 0.35762 0.8425 0.76928 0.0
C2181 C 0.33801 0.86015 0.71712 0.0
C2182 C 0.34554 0.85433 0.73482 0.0
H2183 H 0.38689 0.80865 0.80576 0.0
H2184 H 0.38113 0.8221 0.77608 0.0
H2185 H 0.35568 0.86603 0.7794 0.0
H2186 H 0.30865 0.88376 0.70295 0.0
H2187 H 0.32289 0.87647 0.73138 0.0
C2188 C 0.13052 0.32157 0.69896 0.0
C2189 C 0.14131 0.31866 0.68445 0.0
C2190 C 0.13504 0.32919 0.71564 0.0
C2191 C 0.16861 0.3327 0.7456 0.0
H2192 H 0.14856 0.36759 0.7698 0.0
C2193 C 0.18256 0.35001 0.8221 0.0
C2194 C 0.18798 0.36521 0.82431 0.0
C2195 C 0.17516 0.34549 0.8054 0.0
C2196 C 0.15423 0.35784 0.76315 0.0
H2197 H 0.1651 0.32211 0.67576 0.0
H2198 H 0.17296 0.33505 0.70488 0.0
H2199 H 0.13891 0.35796 0.7391 0.0
H2200 H 0.18903 0.3878 0.81113 0.0
H2201 H 0.17573 0.37988 0.78195 0.0
H2202 H 0.18371 0.3323 0.76961 0.0
C2203 C 0.16103 0.33149 0.70334 0.0
C2204 C 0.14869 0.35232 0.7457 0.0
C2205 C 0.15649 0.32411 0.68663 0.0
C2206 C 0.18501 0.37601 0.80985 0.0
C2207 C 0.17738 0.3715 0.79318 0.0
C2208 C 0.17391 0.33799 0.76312 0.0
C2209 C 0.15046 0.3338 0.71817 0.0
C2210 C 0.15593 0.33977 0.73672 0.0
C2211 C 0.1728 0.35608 0.79062 0.0
C2212 C 0.16682 0.35062 0.77207 0.0
H2213 H 0.11873 0.31754 0.69771 0.0
H2214 H 0.12669 0.3308 0.72691 0.0
H2215 H 0.17432 0.32293 0.73905 0.0
H2216 H 0.1846 0.34139 0.83294 0.0
H2217 H 0.17162 0.33356 0.80383 0.0
C2218 C 0.67134 0.14715 0.68325 0.0
C2219 C 0.68368 0.13667 0.68413 0.0
C2220 C 0.66299 0.15095 0.69958 0.0
C2221 C 0.65706 0.14043 0.75074 0.0
H2222 H 0.64712 0.18392 0.75515 0.0
C2223 C 0.64796 0.17254 0.822 0.0
C2224 C 0.63648 0.184 0.82288 0.0
C2225 C 0.65103 0.16482 0.80497 0.0
C2226 C 0.64957 0.17169 0.75405 0.0
H2227 H 0.69656 0.12146 0.70271 0.0
H2228 H 0.68238 0.12844 0.73133 0.0
H2229 H 0.65751 0.17405 0.72554 0.0
H2230 H 0.61873 0.1958 0.80676 0.0
H2231 H 0.62421 0.1824 0.77696 0.0
H2232 H 0.64976 0.13838 0.77976 0.0
C2233 C 0.67885 0.13351 0.71798 0.0
C2234 C 0.65551 0.16597 0.737 0.0
C2235 C 0.68705 0.12953 0.70155 0.0
C2236 C 0.62765 0.18705 0.80657 0.0
C2237 C 0.63084 0.17944 0.78947 0.0
C2238 C 0.65127 0.14621 0.76791 0.0
C2239 C 0.66695 0.14458 0.71731 0.0
C2240 C 0.65949 0.15029 0.73512 0.0
C2241 C 0.6428 0.1685 0.78839 0.0
C2242 C 0.6476 0.16194 0.76979 0.0
H2243 H 0.66836 0.15273 0.66998 0.0
H2244 H 0.65364 0.15918 0.69834 0.0
H2245 H 0.65973 0.12824 0.74979 0.0
H2246 H 0.65495 0.16989 0.83433 0.0
H2247 H 0.66038 0.15653 0.80458 0.0
C2248 C 0.82287 0.37798 0.19848 0.0
C2249 C 0.8202 0.36656 0.1847 0.0
C2250 C 0.83138 0.37458 0.21488 0.0
C2251 C 0.85665 0.34421 0.23685 0.0
H2252 H 0.84053 0.36083 0.2839 0.0
C2253 C 0.87932 0.32259 0.30926 0.0
C2254 C 0.86802 0.32001 0.32323 0.0
C2255 C 0.87576 0.33097 0.29281 0.0
C2256 C 0.84516 0.356 0.27092 0.0
H2257 H 0.82477 0.34274 0.17709 0.0
H2258 H 0.83906 0.33669 0.20568 0.0
H2259 H 0.83026 0.36992 0.25386 0.0
H2260 H 0.84426 0.32462 0.33111 0.0
H2261 H 0.83794 0.33868 0.30243 0.0
H2262 H 0.87075 0.3295 0.25391 0.0
C2263 C 0.83499 0.3484 0.20379 0.0
C2264 C 0.83942 0.36142 0.25359 0.0
C2265 C 0.82665 0.35185 0.18736 0.0
C2266 C 0.85327 0.32644 0.32069 0.0
C2267 C 0.84967 0.33464 0.30421 0.0
C2268 C 0.86224 0.33864 0.25417 0.0
C2269 C 0.83728 0.35963 0.21796 0.0
C2270 C 0.84481 0.35533 0.2363 0.0
C2271 C 0.86077 0.33682 0.28986 0.0
C2272 C 0.8563 0.34419 0.27148 0.0
H2273 H 0.81812 0.38947 0.19681 0.0
H2274 H 0.83312 0.38362 0.22527 0.0
H2275 H 0.86137 0.33947 0.22386 0.0
H2276 H 0.89082 0.31786 0.31083 0.0
H2277 H 0.8847 0.33263 0.28227 0.0
C2278 C 0.64773 0.83114 0.18662 0.0
C2279 C 0.6361 0.81983 0.18596 0.0
C2280 C 0.65103 0.83888 0.20357 0.0
C2281 C 0.65009 0.8322 0.25449 0.0
H2282 H 0.66014 0.87569 0.25851 0.0
C2283 C 0.6724 0.85695 0.32495 0.0
C2284 C 0.68455 0.86765 0.32391 0.0
C2285 C 0.66399 0.85301 0.30872 0.0
C2286 C 0.65751 0.86349 0.25762 0.0
H2287 H 0.61836 0.80826 0.20238 0.0
H2288 H 0.62428 0.82166 0.23206 0.0
H2289 H 0.64992 0.86546 0.22871 0.0
H2290 H 0.69707 0.88303 0.30516 0.0
H2291 H 0.68282 0.87579 0.27671 0.0
H2292 H 0.65834 0.82989 0.28287 0.0
C2293 C 0.63083 0.82452 0.21943 0.0
C2294 C 0.65158 0.85767 0.24056 0.0
C2295 C 0.62739 0.81691 0.20241 0.0
C2296 C 0.6877 0.87481 0.30644 0.0
C2297 C 0.67945 0.87067 0.29011 0.0
C2298 C 0.6562 0.83795 0.27143 0.0
C2299 C 0.64291 0.83534 0.22029 0.0
C2300 C 0.64793 0.84193 0.23877 0.0
C2301 C 0.66771 0.85944 0.29094 0.0
C2302 C 0.66014 0.85366 0.27323 0.0
H2303 H 0.65464 0.83368 0.17419 0.0
H2304 H 0.66047 0.84708 0.2038 0.0
H2305 H 0.64765 0.81996 0.25346 0.0
H2306 H 0.66959 0.85135 0.33826 0.0
H2307 H 0.65476 0.84466 0.3101 0.0
C2308 C 0.12751 0.68851 0.30617 0.0
C2309 C 0.13619 0.68558 0.32264 0.0
C2310 C 0.13089 0.68081 0.2892 0.0
C2311 C 0.15152 0.64744 0.26828 0.0
H2312 H 0.15817 0.67496 0.22569 0.0
C2313 C 0.18765 0.63009 0.20246 0.0
C2314 C 0.18441 0.6371 0.18493 0.0
C2315 C 0.1794 0.63427 0.21877 0.0
C2316 C 0.15606 0.66697 0.23722 0.0
H2317 H 0.15459 0.67161 0.33449 0.0
H2318 H 0.16034 0.65807 0.30495 0.0
H2319 H 0.14754 0.68506 0.25506 0.0
H2320 H 0.16927 0.65316 0.17046 0.0
H2321 H 0.15445 0.65993 0.19862 0.0
H2322 H 0.16008 0.62933 0.25046 0.0
C2323 C 0.15097 0.66634 0.30513 0.0
C2324 C 0.14998 0.67282 0.25413 0.0
C2325 C 0.14771 0.67416 0.32204 0.0
C2326 C 0.17215 0.64767 0.18382 0.0
C2327 C 0.16375 0.65166 0.20004 0.0
C2328 C 0.15743 0.64152 0.25125 0.0
C2329 C 0.14288 0.66988 0.2884 0.0
C2330 C 0.14786 0.66319 0.26994 0.0
C2331 C 0.16757 0.6454 0.21788 0.0
C2332 C 0.16002 0.65126 0.23555 0.0
H2333 H 0.11856 0.69724 0.30616 0.0
H2334 H 0.12437 0.68366 0.27656 0.0
H2335 H 0.14989 0.63971 0.2802 0.0
H2336 H 0.1971 0.62197 0.20378 0.0
H2337 H 0.18283 0.62928 0.23222 0.0
C2338 C 0.3339 0.14773 0.32411 0.0
C2339 C 0.32157 0.13725 0.32299 0.0
C2340 C 0.3423 0.15171 0.30789 0.0
C2341 C 0.34834 0.14176 0.25654 0.0
H2342 H 0.35873 0.18521 0.25306 0.0
C2343 C 0.35805 0.17483 0.18602 0.0
C2344 C 0.36979 0.18602 0.18543 0.0
C2345 C 0.35476 0.16693 0.20287 0.0
C2346 C 0.35614 0.17299 0.2539 0.0
H2347 H 0.30873 0.12227 0.30409 0.0
H2348 H 0.32297 0.12959 0.27565 0.0
H2349 H 0.34812 0.17506 0.28241 0.0
H2350 H 0.38776 0.1972 0.20186 0.0
H2351 H 0.38188 0.18352 0.23136 0.0
H2352 H 0.3557 0.14005 0.22751 0.0
C2353 C 0.32648 0.1345 0.28911 0.0
C2354 C 0.35008 0.16711 0.2708 0.0
C2355 C 0.31824 0.13032 0.30543 0.0
C2356 C 0.37864 0.18865 0.20183 0.0
C2357 C 0.37522 0.18089 0.21876 0.0
C2358 C 0.35423 0.14772 0.23952 0.0
C2359 C 0.3384 0.14555 0.29002 0.0
C2360 C 0.34594 0.15144 0.27235 0.0
C2361 C 0.36303 0.17019 0.21955 0.0
C2362 C 0.35806 0.16343 0.23797 0.0
H2363 H 0.33685 0.15314 0.33749 0.0
H2364 H 0.35166 0.15991 0.30933 0.0
H2365 H 0.34556 0.12959 0.25723 0.0
H2366 H 0.35104 0.17251 0.17361 0.0
H2367 H 0.34524 0.15883 0.20305 0.0
loop_
_geom_bond_atom_site_label_1
_geom_bond_atom_site_label_2
_geom_bond_distance
_geom_bond_site_symmetry_2
_ccdc_geom_bond_type
O0 Cd1 2.223 . S
O0 C8 1.315 . S
Cd1 O0 2.223 . S
Cd1 O4 2.297 . S
Cd1 O5 2.439 . S
Cd1 O11 2.240 . S
Cd2 O3 2.240 . S
Cd2 O10 2.223 . S
Cd2 O12 2.297 . S
Cd2 O13 2.439 . S
O3 Cd2 2.240 . S
O3 C8 1.279 . S
O4 Cd1 2.297 . S
O4 C6 1.247 . S
O5 Cd1 2.439 . S
O5 C6 1.208 . S
C6 O4 1.247 . S
C6 O5 1.208 . S
C7 O12 1.247 . S
C7 O13 1.208 . S
C8 O0 1.315 . S
C8 O3 1.279 . S
C9 O10 1.315 . S
C9 O11 1.279 . S
O10 Cd2 2.223 . S
O10 C9 1.315 . S
O11 Cd1 2.240 . S
O11 C9 1.279 . S
O12 Cd2 2.297 . S
O12 C7 1.247 . S
O13 Cd2 2.439 . S
O13 C7 1.208 . S
O14 Cd15 2.223 . S
O14 C22 1.315 . S
Cd15 O14 2.223 . S
Cd15 O18 2.297 . S
Cd15 O19 2.439 . S
Cd15 O25 2.240 . S
Cd16 O17 2.240 . S
Cd16 O24 2.223 . S
Cd16 O26 2.297 . S
Cd16 O27 2.439 . S
O17 Cd16 2.240 . S
O17 C22 1.279 . S
O18 Cd15 2.297 . S
O18 C20 1.247 . S
O19 Cd15 2.439 . S
O19 C20 1.208 . S
C20 O18 1.247 . S
C20 O19 1.208 . S
C21 O26 1.247 . S
C21 O27 1.208 . S
C22 O14 1.315 . S
C22 O17 1.279 . S
C23 O24 1.315 . S
C23 O25 1.279 . S
O24 Cd16 2.223 . S
O24 C23 1.315 . S
O25 Cd15 2.240 . S
O25 C23 1.279 . S
O26 Cd16 2.297 . S
O26 C21 1.247 . S
O27 Cd16 2.439 . S
O27 C21 1.208 . S
O28 Cd29 2.223 . S
O28 C36 1.315 . S
Cd29 O28 2.223 . S
Cd29 O32 2.297 . S
Cd29 O33 2.439 . S
Cd29 O39 2.240 . S
Cd30 O31 2.240 . S
Cd30 O38 2.223 . S
Cd30 O40 2.297 . S
Cd30 O41 2.439 . S
O31 Cd30 2.240 . S
O31 C36 1.279 . S
O32 Cd29 2.297 . S
O32 C34 1.247 . S
O33 Cd29 2.439 . S
O33 C34 1.208 . S
C34 O32 1.247 . S
C34 O33 1.208 . S
C35 O40 1.247 . S
C35 O41 1.208 . S
C36 O28 1.315 . S
C36 O31 1.279 . S
C37 O38 1.315 . S
C37 O39 1.279 . S
O38 Cd30 2.223 . S
O38 C37 1.315 . S
O39 Cd29 2.240 . S
O39 C37 1.279 . S
O40 Cd30 2.297 . S
O40 C35 1.247 . S
O41 Cd30 2.439 . S
O41 C35 1.208 . S
O42 Cd43 2.223 . S
O42 C50 1.315 . S
Cd43 O42 2.223 . S
Cd43 O46 2.297 . S
Cd43 O47 2.439 . S
Cd43 O53 2.240 . S
Cd44 O45 2.240 . S
Cd44 O52 2.223 . S
Cd44 O54 2.297 . S
Cd44 O55 2.439 . S
O45 Cd44 2.240 . S
O45 C50 1.279 . S
O46 Cd43 2.297 . S
O46 C48 1.247 . S
O47 Cd43 2.439 . S
O47 C48 1.208 . S
C48 O46 1.247 . S
C48 O47 1.208 . S
C49 O54 1.247 . S
C49 O55 1.208 . S
C50 O42 1.315 . S
C50 O45 1.279 . S
C51 O52 1.315 . S
C51 O53 1.279 . S
O52 Cd44 2.223 . S
O52 C51 1.315 . S
O53 Cd43 2.240 . S
O53 C51 1.279 . S
O54 Cd44 2.297 . S
O54 C49 1.247 . S
O55 Cd44 2.439 . S
O55 C49 1.208 . S
O56 Cd57 2.223 . S
O56 C64 1.315 . S
Cd57 O56 2.223 . S
Cd57 O60 2.297 . S
Cd57 O61 2.439 . S
Cd57 O67 2.240 . S
Cd58 O59 2.240 . S
Cd58 O66 2.223 . S
Cd58 O68 2.297 . S
Cd58 O69 2.439 . S
O59 Cd58 2.240 . S
O59 C64 1.279 . S
O60 Cd57 2.297 . S
O60 C62 1.247 . S
O61 Cd57 2.439 . S
O61 C62 1.208 . S
C62 O60 1.247 . S
C62 O61 1.208 . S
C63 O68 1.247 . S
C63 O69 1.208 . S
C64 O56 1.315 . S
C64 O59 1.279 . S
C65 O66 1.315 . S
C65 O67 1.279 . S
O66 Cd58 2.223 . S
O66 C65 1.315 . S
O67 Cd57 2.240 . S
O67 C65 1.279 . S
O68 Cd58 2.297 . S
O68 C63 1.247 . S
O69 Cd58 2.439 . S
O69 C63 1.208 . S
O70 Cd71 2.223 . S
O70 C78 1.315 . S
Cd71 O70 2.223 . S
Cd71 O74 2.297 . S
Cd71 O75 2.439 . S
Cd71 O81 2.240 . S
Cd72 O73 2.240 . S
Cd72 O80 2.223 . S
Cd72 O82 2.297 . S
Cd72 O83 2.439 . S
O73 Cd72 2.240 . S
O73 C78 1.279 . S
O74 Cd71 2.297 . S
O74 C76 1.247 . S
O75 Cd71 2.439 . S
O75 C76 1.208 . S
C76 O74 1.247 . S
C76 O75 1.208 . S
C77 O82 1.247 . S
C77 O83 1.208 . S
C78 O70 1.315 . S
C78 O73 1.279 . S
C79 O80 1.315 . S
C79 O81 1.279 . S
O80 Cd72 2.223 . S
O80 C79 1.315 . S
O81 Cd71 2.240 . S
O81 C79 1.279 . S
O82 Cd72 2.297 . S
O82 C77 1.247 . S
O83 Cd72 2.439 . S
O83 C77 1.208 . S
O84 Cd85 2.223 . S
O84 C92 1.315 . S
Cd85 O84 2.223 . S
Cd85 O88 2.297 . S
Cd85 O89 2.439 . S
Cd85 O95 2.240 . S
Cd86 O87 2.240 . S
Cd86 O94 2.223 . S
Cd86 O96 2.297 . S
Cd86 O97 2.439 . S
O87 Cd86 2.240 . S
O87 C92 1.279 . S
O88 Cd85 2.297 . S
O88 C90 1.247 . S
O89 Cd85 2.439 . S
O89 C90 1.208 . S
C90 O88 1.247 . S
C90 O89 1.208 . S
C91 O96 1.247 . S
C91 O97 1.208 . S
C92 O84 1.315 . S
C92 O87 1.279 . S
C93 O94 1.315 . S
C93 O95 1.279 . S
O94 Cd86 2.223 . S
O94 C93 1.315 . S
O95 Cd85 2.240 . S
O95 C93 1.279 . S
O96 Cd86 2.297 . S
O96 C91 1.247 . S
O97 Cd86 2.439 . S
O97 C91 1.208 . S
O98 Cd99 2.223 . S
O98 C106 1.315 . S
Cd99 O98 2.223 . S
Cd99 O102 2.297 . S
Cd99 O103 2.439 . S
Cd99 O109 2.240 . S
Cd100 O101 2.240 . S
Cd100 O108 2.223 . S
Cd100 O110 2.297 . S
Cd100 O111 2.439 . S
O101 Cd100 2.240 . S
O101 C106 1.279 . S
O102 Cd99 2.297 . S
O102 C104 1.247 . S
O103 Cd99 2.439 . S
O103 C104 1.208 . S
C104 O102 1.247 . S
C104 O103 1.208 . S
C105 O110 1.247 . S
C105 O111 1.208 . S
C106 O98 1.315 . S
C106 O101 1.279 . S
C107 O108 1.315 . S
C107 O109 1.279 . S
O108 Cd100 2.223 . S
O108 C107 1.315 . S
O109 Cd99 2.240 . S
O109 C107 1.279 . S
O110 Cd100 2.297 . S
O110 C105 1.247 . S
O111 Cd100 2.439 . S
O111 C105 1.208 . S
O112 Cd113 2.223 . S
O112 C120 1.315 . S
Cd113 O112 2.223 . S
Cd113 O116 2.297 . S
Cd113 O117 2.439 . S
Cd113 O123 2.240 . S
Cd114 O115 2.240 . S
Cd114 O122 2.223 . S
Cd114 O124 2.297 . S
Cd114 O125 2.439 . S
O115 Cd114 2.240 . S
O115 C120 1.279 . S
O116 Cd113 2.297 . S
O116 C118 1.247 . S
O117 Cd113 2.439 . S
O117 C118 1.208 . S
C118 O116 1.247 . S
C118 O117 1.208 . S
C119 O124 1.247 . S
C119 O125 1.208 . S
C120 O112 1.315 . S
C120 O115 1.279 . S
C121 O122 1.315 . S
C121 O123 1.279 . S
O122 Cd114 2.223 . S
O122 C121 1.315 . S
O123 Cd113 2.240 . S
O123 C121 1.279 . S
O124 Cd114 2.297 . S
O124 C119 1.247 . S
O125 Cd114 2.439 . S
O125 C119 1.208 . S
O126 Cd127 2.223 . S
O126 C134 1.315 . S
Cd127 O126 2.223 . S
Cd127 O130 2.297 . S
Cd127 O131 2.439 . S
Cd127 O137 2.240 . S
Cd128 O129 2.240 . S
Cd128 O136 2.223 . S
Cd128 O138 2.297 . S
Cd128 O139 2.439 . S
O129 Cd128 2.240 . S
O129 C134 1.279 . S
O130 Cd127 2.297 . S
O130 C132 1.247 . S
O131 Cd127 2.439 . S
O131 C132 1.208 . S
C132 O130 1.247 . S
C132 O131 1.208 . S
C133 O138 1.247 . S
C133 O139 1.208 . S
C134 O126 1.315 . S
C134 O129 1.279 . S
C135 O136 1.315 . S
C135 O137 1.279 . S
O136 Cd128 2.223 . S
O136 C135 1.315 . S
O137 Cd127 2.240 . S
O137 C135 1.279 . S
O138 Cd128 2.297 . S
O138 C133 1.247 . S
O139 Cd128 2.439 . S
O139 C133 1.208 . S
O140 Cd141 2.223 . S
O140 C148 1.315 . S
Cd141 O140 2.223 . S
Cd141 O144 2.297 . S
Cd141 O145 2.439 . S
Cd141 O151 2.240 . S
Cd142 O143 2.240 . S
Cd142 O150 2.223 . S
Cd142 O152 2.297 . S
Cd142 O153 2.439 . S
O143 Cd142 2.240 . S
O143 C148 1.279 . S
O144 Cd141 2.297 . S
O144 C146 1.247 . S
O145 Cd141 2.439 . S
O145 C146 1.208 . S
C146 O144 1.247 . S
C146 O145 1.208 . S
C147 O152 1.247 . S
C147 O153 1.208 . S
C148 O140 1.315 . S
C148 O143 1.279 . S
C149 O150 1.315 . S
C149 O151 1.279 . S
O150 Cd142 2.223 . S
O150 C149 1.315 . S
O151 Cd141 2.240 . S
O151 C149 1.279 . S
O152 Cd142 2.297 . S
O152 C147 1.247 . S
O153 Cd142 2.439 . S
O153 C147 1.208 . S
O154 Cd155 2.223 . S
O154 C162 1.315 . S
Cd155 O154 2.223 . S
Cd155 O158 2.297 . S
Cd155 O159 2.439 . S
Cd155 O165 2.240 . S
Cd156 O157 2.240 . S
Cd156 O164 2.223 . S
Cd156 O166 2.297 . S
Cd156 O167 2.439 . S
O157 Cd156 2.240 . S
O157 C162 1.279 . S
O158 Cd155 2.297 . S
O158 C160 1.247 . S
O159 Cd155 2.439 . S
O159 C160 1.208 . S
C160 O158 1.247 . S
C160 O159 1.208 . S
C161 O166 1.247 . S
C161 O167 1.208 . S
C162 O154 1.315 . S
C162 O157 1.279 . S
C163 O164 1.315 . S
C163 O165 1.279 . S
O164 Cd156 2.223 . S
O164 C163 1.315 . S
O165 Cd155 2.240 . S
O165 C163 1.279 . S
O166 Cd156 2.297 . S
O166 C161 1.247 . S
O167 Cd156 2.439 . S
O167 C161 1.208 . S
O168 Cd169 2.223 . S
O168 C176 1.315 . S
Cd169 O168 2.223 . S
Cd169 O172 2.297 . S
Cd169 O173 2.439 . S
Cd169 O179 2.240 . S
Cd170 O171 2.240 . S
Cd170 O178 2.223 . S
Cd170 O180 2.297 . S
Cd170 O181 2.439 . S
O171 Cd170 2.240 . S
O171 C176 1.279 . S
O172 Cd169 2.297 . S
O172 C174 1.247 . S
O173 Cd169 2.439 . S
O173 C174 1.208 . S
C174 O172 1.247 . S
C174 O173 1.208 . S
C175 O180 1.247 . S
C175 O181 1.208 . S
C176 O168 1.315 . S
C176 O171 1.279 . S
C177 O178 1.315 . S
C177 O179 1.279 . S
O178 Cd170 2.223 . S
O178 C177 1.315 . S
O179 Cd169 2.240 . S
O179 C177 1.279 . S
O180 Cd170 2.297 . S
O180 C175 1.247 . S
O181 Cd170 2.439 . S
O181 C175 1.208 . S
O182 Cd183 2.223 . S
O182 C190 1.315 . S
Cd183 O182 2.223 . S
Cd183 O186 2.297 . S
Cd183 O187 2.439 . S
Cd183 O193 2.240 . S
Cd184 O185 2.240 . S
Cd184 O192 2.223 . S
Cd184 O194 2.297 . S
Cd184 O195 2.439 . S
O185 Cd184 2.240 . S
O185 C190 1.279 . S
O186 Cd183 2.297 . S
O186 C188 1.247 . S
O187 Cd183 2.439 . S
O187 C188 1.208 . S
C188 O186 1.247 . S
C188 O187 1.208 . S
C189 O194 1.247 . S
C189 O195 1.208 . S
C190 O182 1.315 . S
C190 O185 1.279 . S
C191 O192 1.315 . S
C191 O193 1.279 . S
O192 Cd184 2.223 . S
O192 C191 1.315 . S
O193 Cd183 2.240 . S
O193 C191 1.279 . S
O194 Cd184 2.297 . S
O194 C189 1.247 . S
O195 Cd184 2.439 . S
O195 C189 1.208 . S
O196 Cd197 2.223 . S
O196 C204 1.315 . S
Cd197 O196 2.223 . S
Cd197 O200 2.297 . S
Cd197 O201 2.439 . S
Cd197 O207 2.240 . S
Cd198 O199 2.240 . S
Cd198 O206 2.223 . S
Cd198 O208 2.297 . S
Cd198 O209 2.439 . S
O199 Cd198 2.240 . S
O199 C204 1.279 . S
O200 Cd197 2.297 . S
O200 C202 1.247 . S
O201 Cd197 2.439 . S
O201 C202 1.208 . S
C202 O200 1.247 . S
C202 O201 1.208 . S
C203 O208 1.247 . S
C203 O209 1.208 . S
C204 O196 1.315 . S
C204 O199 1.279 . S
C205 O206 1.315 . S
C205 O207 1.279 . S
O206 Cd198 2.223 . S
O206 C205 1.315 . S
O207 Cd197 2.240 . S
O207 C205 1.279 . S
O208 Cd198 2.297 . S
O208 C203 1.247 . S
O209 Cd198 2.439 . S
O209 C203 1.208 . S
O210 Cd211 2.223 . S
O210 C218 1.315 . S
Cd211 O210 2.223 . S
Cd211 O214 2.297 . S
Cd211 O215 2.439 . S
Cd211 O221 2.240 . S
Cd212 O213 2.240 . S
Cd212 O220 2.223 . S
Cd212 O222 2.297 . S
Cd212 O223 2.439 . S
O213 Cd212 2.240 . S
O213 C218 1.279 . S
O214 Cd211 2.297 . S
O214 C216 1.247 . S
O215 Cd211 2.439 . S
O215 C216 1.208 . S
C216 O214 1.247 . S
C216 O215 1.208 . S
C217 O222 1.247 . S
C217 O223 1.208 . S
C218 O210 1.315 . S
C218 O213 1.279 . S
C219 O220 1.315 . S
C219 O221 1.279 . S
O220 Cd212 2.223 . S
O220 C219 1.315 . S
O221 Cd211 2.240 . S
O221 C219 1.279 . S
O222 Cd212 2.297 . S
O222 C217 1.247 . S
O223 Cd212 2.439 . S
O223 C217 1.208 . S
O224 Cd225 2.223 . S
O224 C232 1.315 . S
Cd225 O224 2.223 . S
Cd225 O228 2.297 . S
Cd225 O229 2.439 . S
Cd225 O235 2.240 . S
Cd226 O227 2.240 . S
Cd226 O234 2.223 . S
Cd226 O236 2.297 . S
Cd226 O237 2.439 . S
O227 Cd226 2.240 . S
O227 C232 1.279 . S
O228 Cd225 2.297 . S
O228 C230 1.247 . S
O229 Cd225 2.439 . S
O229 C230 1.208 . S
C230 O228 1.247 . S
C230 O229 1.208 . S
C231 O236 1.247 . S
C231 O237 1.208 . S
C232 O224 1.315 . S
C232 O227 1.279 . S
C233 O234 1.315 . S
C233 O235 1.279 . S
O234 Cd226 2.223 . S
O234 C233 1.315 . S
O235 Cd225 2.240 . S
O235 C233 1.279 . S
O236 Cd226 2.297 . S
O236 C231 1.247 . S
O237 Cd226 2.439 . S
O237 C231 1.208 . S
O238 Cd239 2.223 . S
O238 C246 1.315 . S
Cd239 O238 2.223 . S
Cd239 O242 2.297 . S
Cd239 O243 2.439 . S
Cd239 O249 2.240 . S
Cd240 O241 2.240 . S
Cd240 O248 2.223 . S
Cd240 O250 2.297 . S
Cd240 O251 2.439 . S
O241 Cd240 2.240 . S
O241 C246 1.279 . S
O242 Cd239 2.297 . S
O242 C244 1.247 . S
O243 Cd239 2.439 . S
O243 C244 1.208 . S
C244 O242 1.247 . S
C244 O243 1.208 . S
C245 O250 1.247 . S
C245 O251 1.208 . S
C246 O238 1.315 . S
C246 O241 1.279 . S
C247 O248 1.315 . S
C247 O249 1.279 . S
O248 Cd240 2.223 . S
O248 C247 1.315 . S
O249 Cd239 2.240 . S
O249 C247 1.279 . S
O250 Cd240 2.297 . S
O250 C245 1.247 . S
O251 Cd240 2.439 . S
O251 C245 1.208 . S
O252 Cd253 2.223 . S
O252 C260 1.315 . S
Cd253 O252 2.223 . S
Cd253 O256 2.297 . S
Cd253 O257 2.439 . S
Cd253 O263 2.240 . S
Cd254 O255 2.240 . S
Cd254 O262 2.223 . S
Cd254 O264 2.297 . S
Cd254 O265 2.439 . S
O255 Cd254 2.240 . S
O255 C260 1.279 . S
O256 Cd253 2.297 . S
O256 C258 1.247 . S
O257 Cd253 2.439 . S
O257 C258 1.208 . S
C258 O256 1.247 . S
C258 O257 1.208 . S
C259 O264 1.247 . S
C259 O265 1.208 . S
C260 O252 1.315 . S
C260 O255 1.279 . S
C261 O262 1.315 . S
C261 O263 1.279 . S
O262 Cd254 2.223 . S
O262 C261 1.315 . S
O263 Cd253 2.240 . S
O263 C261 1.279 . S
O264 Cd254 2.297 . S
O264 C259 1.247 . S
O265 Cd254 2.439 . S
O265 C259 1.208 . S
O266 Cd267 2.223 . S
O266 C274 1.315 . S
Cd267 O266 2.223 . S
Cd267 O270 2.297 . S
Cd267 O271 2.439 . S
Cd267 O277 2.240 . S
Cd268 O269 2.240 . S
Cd268 O276 2.223 . S
Cd268 O278 2.297 . S
Cd268 O279 2.439 . S
O269 Cd268 2.240 . S
O269 C274 1.279 . S
O270 Cd267 2.297 . S
O270 C272 1.247 . S
O271 Cd267 2.439 . S
O271 C272 1.208 . S
C272 O270 1.247 . S
C272 O271 1.208 . S
C273 O278 1.247 . S
C273 O279 1.208 . S
C274 O266 1.315 . S
C274 O269 1.279 . S
C275 O276 1.315 . S
C275 O277 1.279 . S
O276 Cd268 2.223 . S
O276 C275 1.315 . S
O277 Cd267 2.240 . S
O277 C275 1.279 . S
O278 Cd268 2.297 . S
O278 C273 1.247 . S
O279 Cd268 2.439 . S
O279 C273 1.208 . S
O280 Cd281 2.223 . S
O280 C288 1.315 . S
Cd281 O280 2.223 . S
Cd281 O284 2.297 . S
Cd281 O285 2.439 . S
Cd281 O291 2.240 . S
Cd282 O283 2.240 . S
Cd282 O290 2.223 . S
Cd282 O292 2.297 . S
Cd282 O293 2.439 . S
O283 Cd282 2.240 . S
O283 C288 1.279 . S
O284 Cd281 2.297 . S
O284 C286 1.247 . S
O285 Cd281 2.439 . S
O285 C286 1.208 . S
C286 O284 1.247 . S
C286 O285 1.208 . S
C287 O292 1.247 . S
C287 O293 1.208 . S
C288 O280 1.315 . S
C288 O283 1.279 . S
C289 O290 1.315 . S
C289 O291 1.279 . S
O290 Cd282 2.223 . S
O290 C289 1.315 . S
O291 Cd281 2.240 . S
O291 C289 1.279 . S
O292 Cd282 2.297 . S
O292 C287 1.247 . S
O293 Cd282 2.439 . S
O293 C287 1.208 . S
O294 Cd295 2.223 . S
O294 C302 1.315 . S
Cd295 O294 2.223 . S
Cd295 O298 2.297 . S
Cd295 O299 2.439 . S
Cd295 O305 2.240 . S
Cd296 O297 2.240 . S
Cd296 O304 2.223 . S
Cd296 O306 2.297 . S
Cd296 O307 2.439 . S
O297 Cd296 2.240 . S
O297 C302 1.279 . S
O298 Cd295 2.297 . S
O298 C300 1.247 . S
O299 Cd295 2.439 . S
O299 C300 1.208 . S
C300 O298 1.247 . S
C300 O299 1.208 . S
C301 O306 1.247 . S
C301 O307 1.208 . S
C302 O294 1.315 . S
C302 O297 1.279 . S
C303 O304 1.315 . S
C303 O305 1.279 . S
O304 Cd296 2.223 . S
O304 C303 1.315 . S
O305 Cd295 2.240 . S
O305 C303 1.279 . S
O306 Cd296 2.297 . S
O306 C301 1.247 . S
O307 Cd296 2.439 . S
O307 C301 1.208 . S
O308 Cd309 2.223 . S
O308 C316 1.315 . S
Cd309 O308 2.223 . S
Cd309 O312 2.297 . S
Cd309 O313 2.439 . S
Cd309 O319 2.240 . S
Cd310 O311 2.240 . S
Cd310 O318 2.223 . S
Cd310 O320 2.297 . S
Cd310 O321 2.439 . S
O311 Cd310 2.240 . S
O311 C316 1.279 . S
O312 Cd309 2.297 . S
O312 C314 1.247 . S
O313 Cd309 2.439 . S
O313 C314 1.208 . S
C314 O312 1.247 . S
C314 O313 1.208 . S
C315 O320 1.247 . S
C315 O321 1.208 . S
C316 O308 1.315 . S
C316 O311 1.279 . S
C317 O318 1.315 . S
C317 O319 1.279 . S
O318 Cd310 2.223 . S
O318 C317 1.315 . S
O319 Cd309 2.240 . S
O319 C317 1.279 . S
O320 Cd310 2.297 . S
O320 C315 1.247 . S
O321 Cd310 2.439 . S
O321 C315 1.208 . S
O322 Cd323 2.223 . S
O322 C330 1.315 . S
Cd323 O322 2.223 . S
Cd323 O326 2.297 . S
Cd323 O327 2.439 . S
Cd323 O333 2.240 . S
Cd324 O325 2.240 . S
Cd324 O332 2.223 . S
Cd324 O334 2.297 . S
Cd324 O335 2.439 . S
O325 Cd324 2.240 . S
O325 C330 1.279 . S
O326 Cd323 2.297 . S
O326 C328 1.247 . S
O327 Cd323 2.439 . S
O327 C328 1.208 . S
C328 O326 1.247 . S
C328 O327 1.208 . S
C329 O334 1.247 . S
C329 O335 1.208 . S
C330 O322 1.315 . S
C330 O325 1.279 . S
C331 O332 1.315 . S
C331 O333 1.279 . S
O332 Cd324 2.223 . S
O332 C331 1.315 . S
O333 Cd323 2.240 . S
O333 C331 1.279 . S
O334 Cd324 2.297 . S
O334 C329 1.247 . S
O335 Cd324 2.439 . S
O335 C329 1.208 . S
O336 Cd337 2.223 . S
O336 C344 1.315 . S
Cd337 O336 2.223 . S
Cd337 O340 2.297 . S
Cd337 O341 2.439 . S
Cd337 O347 2.240 . S
Cd338 O339 2.240 . S
Cd338 O346 2.223 . S
Cd338 O348 2.297 . S
Cd338 O349 2.439 . S
O339 Cd338 2.240 . S
O339 C344 1.279 . S
O340 Cd337 2.297 . S
O340 C342 1.247 . S
O341 Cd337 2.439 . S
O341 C342 1.208 . S
C342 O340 1.247 . S
C342 O341 1.208 . S
C343 O348 1.247 . S
C343 O349 1.208 . S
C344 O336 1.315 . S
C344 O339 1.279 . S
C345 O346 1.315 . S
C345 O347 1.279 . S
O346 Cd338 2.223 . S
O346 C345 1.315 . S
O347 Cd337 2.240 . S
O347 C345 1.279 . S
O348 Cd338 2.297 . S
O348 C343 1.247 . S
O349 Cd338 2.439 . S
O349 C343 1.208 . S
O350 Cd351 2.223 . S
O350 C358 1.315 . S
Cd351 O350 2.223 . S
Cd351 O354 2.297 . S
Cd351 O355 2.439 . S
Cd351 O361 2.240 . S
Cd352 O353 2.240 . S
Cd352 O360 2.223 . S
Cd352 O362 2.297 . S
Cd352 O363 2.439 . S
O353 Cd352 2.240 . S
O353 C358 1.279 . S
O354 Cd351 2.297 . S
O354 C356 1.247 . S
O355 Cd351 2.439 . S
O355 C356 1.208 . S
C356 O354 1.247 . S
C356 O355 1.208 . S
C357 O362 1.247 . S
C357 O363 1.208 . S
C358 O350 1.315 . S
C358 O353 1.279 . S
C359 O360 1.315 . S
C359 O361 1.279 . S
O360 Cd352 2.223 . S
O360 C359 1.315 . S
O361 Cd351 2.240 . S
O361 C359 1.279 . S
O362 Cd352 2.297 . S
O362 C357 1.247 . S
O363 Cd352 2.439 . S
O363 C357 1.208 . S
O364 Cd365 2.223 . S
O364 C372 1.315 . S
Cd365 O364 2.223 . S
Cd365 O368 2.297 . S
Cd365 O369 2.439 . S
Cd365 O375 2.240 . S
Cd366 O367 2.240 . S
Cd366 O374 2.223 . S
Cd366 O376 2.297 . S
Cd366 O377 2.439 . S
O367 Cd366 2.240 . S
O367 C372 1.279 . S
O368 Cd365 2.297 . S
O368 C370 1.247 . S
O369 Cd365 2.439 . S
O369 C370 1.208 . S
C370 O368 1.247 . S
C370 O369 1.208 . S
C371 O376 1.247 . S
C371 O377 1.208 . S
C372 O364 1.315 . S
C372 O367 1.279 . S
C373 O374 1.315 . S
C373 O375 1.279 . S
O374 Cd366 2.223 . S
O374 C373 1.315 . S
O375 Cd365 2.240 . S
O375 C373 1.279 . S
O376 Cd366 2.297 . S
O376 C371 1.247 . S
O377 Cd366 2.439 . S
O377 C371 1.208 . S
O378 Cd379 2.223 . S
O378 C386 1.315 . S
Cd379 O378 2.223 . S
Cd379 O382 2.297 . S
Cd379 O383 2.439 . S
Cd379 O389 2.240 . S
Cd380 O381 2.240 . S
Cd380 O388 2.223 . S
Cd380 O390 2.297 . S
Cd380 O391 2.439 . S
O381 Cd380 2.240 . S
O381 C386 1.279 . S
O382 Cd379 2.297 . S
O382 C384 1.247 . S
O383 Cd379 2.439 . S
O383 C384 1.208 . S
C384 O382 1.247 . S
C384 O383 1.208 . S
C385 O390 1.247 . S
C385 O391 1.208 . S
C386 O378 1.315 . S
C386 O381 1.279 . S
C387 O388 1.315 . S
C387 O389 1.279 . S
O388 Cd380 2.223 . S
O388 C387 1.315 . S
O389 Cd379 2.240 . S
O389 C387 1.279 . S
O390 Cd380 2.297 . S
O390 C385 1.247 . S
O391 Cd380 2.439 . S
O391 C385 1.208 . S
O392 Cd393 2.223 . S
O392 C400 1.315 . S
Cd393 O392 2.223 . S
Cd393 O396 2.297 . S
Cd393 O397 2.439 . S
Cd393 O403 2.240 . S
Cd394 O395 2.240 . S
Cd394 O402 2.223 . S
Cd394 O404 2.297 . S
Cd394 O405 2.439 . S
O395 Cd394 2.240 . S
O395 C400 1.279 . S
O396 Cd393 2.297 . S
O396 C398 1.247 . S
O397 Cd393 2.439 . S
O397 C398 1.208 . S
C398 O396 1.247 . S
C398 O397 1.208 . S
C399 O404 1.247 . S
C399 O405 1.208 . S
C400 O392 1.315 . S
C400 O395 1.279 . S
C401 O402 1.315 . S
C401 O403 1.279 . S
O402 Cd394 2.223 . S
O402 C401 1.315 . S
O403 Cd393 2.240 . S
O403 C401 1.279 . S
O404 Cd394 2.297 . S
O404 C399 1.247 . S
O405 Cd394 2.439 . S
O405 C399 1.208 . S
O406 Cd407 2.223 . S
O406 C414 1.315 . S
Cd407 O406 2.223 . S
Cd407 O410 2.297 . S
Cd407 O411 2.439 . S
Cd407 O417 2.240 . S
Cd408 O409 2.240 . S
Cd408 O416 2.223 . S
Cd408 O418 2.297 . S
Cd408 O419 2.439 . S
O409 Cd408 2.240 . S
O409 C414 1.279 . S
O410 Cd407 2.297 . S
O410 C412 1.247 . S
O411 Cd407 2.439 . S
O411 C412 1.208 . S
C412 O410 1.247 . S
C412 O411 1.208 . S
C413 O418 1.247 . S
C413 O419 1.208 . S
C414 O406 1.315 . S
C414 O409 1.279 . S
C415 O416 1.315 . S
C415 O417 1.279 . S
O416 Cd408 2.223 . S
O416 C415 1.315 . S
O417 Cd407 2.240 . S
O417 C415 1.279 . S
O418 Cd408 2.297 . S
O418 C413 1.247 . S
O419 Cd408 2.439 . S
O419 C413 1.208 . S
O420 Cd421 2.223 . S
O420 C428 1.315 . S
Cd421 O420 2.223 . S
Cd421 O424 2.297 . S
Cd421 O425 2.439 . S
Cd421 O431 2.240 . S
Cd422 O423 2.240 . S
Cd422 O430 2.223 . S
Cd422 O432 2.297 . S
Cd422 O433 2.439 . S
O423 Cd422 2.240 . S
O423 C428 1.279 . S
O424 Cd421 2.297 . S
O424 C426 1.247 . S
O425 Cd421 2.439 . S
O425 C426 1.208 . S
C426 O424 1.247 . S
C426 O425 1.208 . S
C427 O432 1.247 . S
C427 O433 1.208 . S
C428 O420 1.315 . S
C428 O423 1.279 . S
C429 O430 1.315 . S
C429 O431 1.279 . S
O430 Cd422 2.223 . S
O430 C429 1.315 . S
O431 Cd421 2.240 . S
O431 C429 1.279 . S
O432 Cd422 2.297 . S
O432 C427 1.247 . S
O433 Cd422 2.439 . S
O433 C427 1.208 . S
O434 Cd435 2.223 . S
O434 C442 1.315 . S
Cd435 O434 2.223 . S
Cd435 O438 2.297 . S
Cd435 O439 2.439 . S
Cd435 O445 2.240 . S
Cd436 O437 2.240 . S
Cd436 O444 2.223 . S
Cd436 O446 2.297 . S
Cd436 O447 2.439 . S
O437 Cd436 2.240 . S
O437 C442 1.279 . S
O438 Cd435 2.297 . S
O438 C440 1.247 . S
O439 Cd435 2.439 . S
O439 C440 1.208 . S
C440 O438 1.247 . S
C440 O439 1.208 . S
C441 O446 1.247 . S
C441 O447 1.208 . S
C442 O434 1.315 . S
C442 O437 1.279 . S
C443 O444 1.315 . S
C443 O445 1.279 . S
O444 Cd436 2.223 . S
O444 C443 1.315 . S
O445 Cd435 2.240 . S
O445 C443 1.279 . S
O446 Cd436 2.297 . S
O446 C441 1.247 . S
O447 Cd436 2.439 . S
O447 C441 1.208 . S
C448 C449 1.349 . S
C448 C450 1.327 . S
C448 H473 0.950 . S
C449 C448 1.349 . S
C449 C465 1.349 . S
C450 C448 1.327 . S
C450 C469 1.429 . S
C450 H474 0.950 . S
C451 C468 1.574 . S
C451 C470 1.368 . S
C451 H475 0.949 . S
H452 C456 0.949 . S
C453 C454 1.349 . S
C453 C455 1.327 . S
C453 H476 0.950 . S
C454 C453 1.349 . S
C454 C466 1.349 . S
C455 C453 1.327 . S
C455 C471 1.429 . S
C455 H477 0.950 . S
C456 H452 0.949 . S
C456 C464 1.574 . S
C456 C472 1.368 . S
H457 C465 0.950 . S
H458 C463 0.950 . S
H459 C464 0.949 . S
H460 C466 0.950 . S
H461 C467 0.950 . S
H462 C468 0.949 . S
C463 H458 0.950 . S
C463 C465 1.327 . S
C463 C469 1.429 . S
C464 C456 1.574 . S
C464 H459 0.949 . S
C464 C470 1.368 . S
C465 C449 1.349 . S
C465 H457 0.950 . S
C465 C463 1.327 . S
C466 C454 1.349 . S
C466 H460 0.950 . S
C466 C467 1.327 . S
C467 H461 0.950 . S
C467 C466 1.327 . S
C467 C471 1.429 . S
C468 C451 1.574 . S
C468 H462 0.949 . S
C468 C472 1.368 . S
C469 C450 1.429 . S
C469 C463 1.429 . S
C469 C470 1.523 . S
C470 C451 1.368 . S
C470 C464 1.368 . S
C470 C469 1.523 . S
C471 C455 1.429 . S
C471 C467 1.429 . S
C471 C472 1.523 . S
C472 C456 1.368 . S
C472 C468 1.368 . S
C472 C471 1.523 . S
H473 C448 0.950 . S
H474 C450 0.950 . S
H475 C451 0.949 . S
H476 C453 0.950 . S
H477 C455 0.950 . S
C478 C479 1.349 . S
C478 C480 1.327 . S
C478 H503 0.950 . S
C479 C478 1.349 . S
C479 C495 1.349 . S
C480 C478 1.327 . S
C480 C499 1.429 . S
C480 H504 0.950 . S
C481 C498 1.574 . S
C481 C500 1.368 . S
C481 H505 0.949 . S
H482 C486 0.949 . S
C483 C484 1.349 . S
C483 C485 1.327 . S
C483 H506 0.950 . S
C484 C483 1.349 . S
C484 C496 1.349 . S
C485 C483 1.327 . S
C485 C501 1.429 . S
C485 H507 0.950 . S
C486 H482 0.949 . S
C486 C494 1.574 . S
C486 C502 1.368 . S
H487 C495 0.950 . S
H488 C493 0.950 . S
H489 C494 0.949 . S
H490 C496 0.950 . S
H491 C497 0.950 . S
H492 C498 0.949 . S
C493 H488 0.950 . S
C493 C495 1.327 . S
C493 C499 1.429 . S
C494 C486 1.574 . S
C494 H489 0.949 . S
C494 C500 1.368 . S
C495 C479 1.349 . S
C495 H487 0.950 . S
C495 C493 1.327 . S
C496 C484 1.349 . S
C496 H490 0.950 . S
C496 C497 1.327 . S
C497 H491 0.950 . S
C497 C496 1.327 . S
C497 C501 1.429 . S
C498 C481 1.574 . S
C498 H492 0.949 . S
C498 C502 1.368 . S
C499 C480 1.429 . S
C499 C493 1.429 . S
C499 C500 1.523 . S
C500 C481 1.368 . S
C500 C494 1.368 . S
C500 C499 1.523 . S
C501 C485 1.429 . S
C501 C497 1.429 . S
C501 C502 1.523 . S
C502 C486 1.368 . S
C502 C498 1.368 . S
C502 C501 1.523 . S
H503 C478 0.950 . S
H504 C480 0.950 . S
H505 C481 0.949 . S
H506 C483 0.950 . S
H507 C485 0.950 . S
C508 C509 1.349 . S
C508 C510 1.327 . S
C508 H533 0.950 . S
C509 C508 1.349 . S
C509 C525 1.349 . S
C510 C508 1.327 . S
C510 C529 1.429 . S
C510 H534 0.950 . S
C511 C528 1.574 . S
C511 C530 1.368 . S
C511 H535 0.949 . S
H512 C516 0.949 . S
C513 C514 1.349 . S
C513 C515 1.327 . S
C513 H536 0.950 . S
C514 C513 1.349 . S
C514 C526 1.349 . S
C515 C513 1.327 . S
C515 C531 1.429 . S
C515 H537 0.950 . S
C516 H512 0.949 . S
C516 C524 1.574 . S
C516 C532 1.368 . S
H517 C525 0.950 . S
H518 C523 0.950 . S
H519 C524 0.949 . S
H520 C526 0.950 . S
H521 C527 0.950 . S
H522 C528 0.949 . S
C523 H518 0.950 . S
C523 C525 1.327 . S
C523 C529 1.429 . S
C524 C516 1.574 . S
C524 H519 0.949 . S
C524 C530 1.368 . S
C525 C509 1.349 . S
C525 H517 0.950 . S
C525 C523 1.327 . S
C526 C514 1.349 . S
C526 H520 0.950 . S
C526 C527 1.327 . S
C527 H521 0.950 . S
C527 C526 1.327 . S
C527 C531 1.429 . S
C528 C511 1.574 . S
C528 H522 0.949 . S
C528 C532 1.368 . S
C529 C510 1.429 . S
C529 C523 1.429 . S
C529 C530 1.523 . S
C530 C511 1.368 . S
C530 C524 1.368 . S
C530 C529 1.523 . S
C531 C515 1.429 . S
C531 C527 1.429 . S
C531 C532 1.523 . S
C532 C516 1.368 . S
C532 C528 1.368 . S
C532 C531 1.523 . S
H533 C508 0.950 . S
H534 C510 0.950 . S
H535 C511 0.949 . S
H536 C513 0.950 . S
H537 C515 0.950 . S
C538 C539 1.349 . S
C538 C540 1.327 . S
C538 H563 0.950 . S
C539 C538 1.349 . S
C539 C555 1.349 . S
C540 C538 1.327 . S
C540 C559 1.429 . S
C540 H564 0.950 . S
C541 C558 1.574 . S
C541 C560 1.368 . S
C541 H565 0.949 . S
H542 C546 0.949 . S
C543 C544 1.349 . S
C543 C545 1.327 . S
C543 H566 0.950 . S
C544 C543 1.349 . S
C544 C556 1.349 . S
C545 C543 1.327 . S
C545 C561 1.429 . S
C545 H567 0.950 . S
C546 H542 0.949 . S
C546 C554 1.574 . S
C546 C562 1.368 . S
H547 C555 0.950 . S
H548 C553 0.950 . S
H549 C554 0.949 . S
H550 C556 0.950 . S
H551 C557 0.950 . S
H552 C558 0.949 . S
C553 H548 0.950 . S
C553 C555 1.327 . S
C553 C559 1.429 . S
C554 C546 1.574 . S
C554 H549 0.949 . S
C554 C560 1.368 . S
C555 C539 1.349 . S
C555 H547 0.950 . S
C555 C553 1.327 . S
C556 C544 1.349 . S
C556 H550 0.950 . S
C556 C557 1.327 . S
C557 H551 0.950 . S
C557 C556 1.327 . S
C557 C561 1.429 . S
C558 C541 1.574 . S
C558 H552 0.949 . S
C558 C562 1.368 . S
C559 C540 1.429 . S
C559 C553 1.429 . S
C559 C560 1.523 . S
C560 C541 1.368 . S
C560 C554 1.368 . S
C560 C559 1.523 . S
C561 C545 1.429 . S
C561 C557 1.429 . S
C561 C562 1.523 . S
C562 C546 1.368 . S
C562 C558 1.368 . S
C562 C561 1.523 . S
H563 C538 0.950 . S
H564 C540 0.950 . S
H565 C541 0.949 . S
H566 C543 0.950 . S
H567 C545 0.950 . S
C568 C569 1.349 . S
C568 C570 1.327 . S
C568 H593 0.950 . S
C569 C568 1.349 . S
C569 C585 1.349 . S
C570 C568 1.327 . S
C570 C589 1.429 . S
C570 H594 0.950 . S
C571 C588 1.574 . S
C571 C590 1.368 . S
C571 H595 0.949 . S
H572 C576 0.949 . S
C573 C574 1.349 . S
C573 C575 1.327 . S
C573 H596 0.950 . S
C574 C573 1.349 . S
C574 C586 1.349 . S
C575 C573 1.327 . S
C575 C591 1.429 . S
C575 H597 0.950 . S
C576 H572 0.949 . S
C576 C584 1.574 . S
C576 C592 1.368 . S
H577 C585 0.950 . S
H578 C583 0.950 . S
H579 C584 0.949 . S
H580 C586 0.950 . S
H581 C587 0.950 . S
H582 C588 0.949 . S
C583 H578 0.950 . S
C583 C585 1.327 . S
C583 C589 1.429 . S
C584 C576 1.574 . S
C584 H579 0.949 . S
C584 C590 1.368 . S
C585 C569 1.349 . S
C585 H577 0.950 . S
C585 C583 1.327 . S
C586 C574 1.349 . S
C586 H580 0.950 . S
C586 C587 1.327 . S
C587 H581 0.950 . S
C587 C586 1.327 . S
C587 C591 1.429 . S
C588 C571 1.574 . S
C588 H582 0.949 . S
C588 C592 1.368 . S
C589 C570 1.429 . S
C589 C583 1.429 . S
C589 C590 1.523 . S
C590 C571 1.368 . S
C590 C584 1.368 . S
C590 C589 1.523 . S
C591 C575 1.429 . S
C591 C587 1.429 . S
C591 C592 1.523 . S
C592 C576 1.368 . S
C592 C588 1.368 . S
C592 C591 1.523 . S
H593 C568 0.950 . S
H594 C570 0.950 . S
H595 C571 0.949 . S
H596 C573 0.950 . S
H597 C575 0.950 . S
C598 C599 1.349 . S
C598 C600 1.327 . S
C598 H623 0.950 . S
C599 C598 1.349 . S
C599 C615 1.349 . S
C600 C598 1.327 . S
C600 C619 1.429 . S
C600 H624 0.950 . S
C601 C618 1.574 . S
C601 C620 1.368 . S
C601 H625 0.949 . S
H602 C606 0.949 . S
C603 C604 1.349 . S
C603 C605 1.327 . S
C603 H626 0.950 . S
C604 C603 1.349 . S
C604 C616 1.349 . S
C605 C603 1.327 . S
C605 C621 1.429 . S
C605 H627 0.950 . S
C606 H602 0.949 . S
C606 C614 1.574 . S
C606 C622 1.368 . S
H607 C615 0.950 . S
H608 C613 0.950 . S
H609 C614 0.949 . S
H610 C616 0.950 . S
H611 C617 0.950 . S
H612 C618 0.949 . S
C613 H608 0.950 . S
C613 C615 1.327 . S
C613 C619 1.429 . S
C614 C606 1.574 . S
C614 H609 0.949 . S
C614 C620 1.368 . S
C615 C599 1.349 . S
C615 H607 0.950 . S
C615 C613 1.327 . S
C616 C604 1.349 . S
C616 H610 0.950 . S
C616 C617 1.327 . S
C617 H611 0.950 . S
C617 C616 1.327 . S
C617 C621 1.429 . S
C618 C601 1.574 . S
C618 H612 0.949 . S
C618 C622 1.368 . S
C619 C600 1.429 . S
C619 C613 1.429 . S
C619 C620 1.523 . S
C620 C601 1.368 . S
C620 C614 1.368 . S
C620 C619 1.523 . S
C621 C605 1.429 . S
C621 C617 1.429 . S
C621 C622 1.523 . S
C622 C606 1.368 . S
C622 C618 1.368 . S
C622 C621 1.523 . S
H623 C598 0.950 . S
H624 C600 0.950 . S
H625 C601 0.949 . S
H626 C603 0.950 . S
H627 C605 0.950 . S
C628 C629 1.349 . S
C628 C630 1.327 . S
C628 H653 0.950 . S
C629 C628 1.349 . S
C629 C645 1.349 . S
C630 C628 1.327 . S
C630 C649 1.429 . S
C630 H654 0.950 . S
C631 C648 1.574 . S
C631 C650 1.368 . S
C631 H655 0.949 . S
H632 C636 0.949 . S
C633 C634 1.349 . S
C633 C635 1.327 . S
C633 H656 0.950 . S
C634 C633 1.349 . S
C634 C646 1.349 . S
C635 C633 1.327 . S
C635 C651 1.429 . S
C635 H657 0.950 . S
C636 H632 0.949 . S
C636 C644 1.574 . S
C636 C652 1.368 . S
H637 C645 0.950 . S
H638 C643 0.950 . S
H639 C644 0.949 . S
H640 C646 0.950 . S
H641 C647 0.950 . S
H642 C648 0.949 . S
C643 H638 0.950 . S
C643 C645 1.327 . S
C643 C649 1.429 . S
C644 C636 1.574 . S
C644 H639 0.949 . S
C644 C650 1.368 . S
C645 C629 1.349 . S
C645 H637 0.950 . S
C645 C643 1.327 . S
C646 C634 1.349 . S
C646 H640 0.950 . S
C646 C647 1.327 . S
C647 H641 0.950 . S
C647 C646 1.327 . S
C647 C651 1.429 . S
C648 C631 1.574 . S
C648 H642 0.949 . S
C648 C652 1.368 . S
C649 C630 1.429 . S
C649 C643 1.429 . S
C649 C650 1.523 . S
C650 C631 1.368 . S
C650 C644 1.368 . S
C650 C649 1.523 . S
C651 C635 1.429 . S
C651 C647 1.429 . S
C651 C652 1.523 . S
C652 C636 1.368 . S
C652 C648 1.368 . S
C652 C651 1.523 . S
H653 C628 0.950 . S
H654 C630 0.950 . S
H655 C631 0.949 . S
H656 C633 0.950 . S
H657 C635 0.950 . S
C658 C659 1.349 . S
C658 C660 1.327 . S
C658 H683 0.950 . S
C659 C658 1.349 . S
C659 C675 1.349 . S
C660 C658 1.327 . S
C660 C679 1.429 . S
C660 H684 0.950 . S
C661 C678 1.574 . S
C661 C680 1.368 . S
C661 H685 0.949 . S
H662 C666 0.949 . S
C663 C664 1.349 . S
C663 C665 1.327 . S
C663 H686 0.950 . S
C664 C663 1.349 . S
C664 C676 1.349 . S
C665 C663 1.327 . S
C665 C681 1.429 . S
C665 H687 0.950 . S
C666 H662 0.949 . S
C666 C674 1.574 . S
C666 C682 1.368 . S
H667 C675 0.950 . S
H668 C673 0.950 . S
H669 C674 0.949 . S
H670 C676 0.950 . S
H671 C677 0.950 . S
H672 C678 0.949 . S
C673 H668 0.950 . S
C673 C675 1.327 . S
C673 C679 1.429 . S
C674 C666 1.574 . S
C674 H669 0.949 . S
C674 C680 1.368 . S
C675 C659 1.349 . S
C675 H667 0.950 . S
C675 C673 1.327 . S
C676 C664 1.349 . S
C676 H670 0.950 . S
C676 C677 1.327 . S
C677 H671 0.950 . S
C677 C676 1.327 . S
C677 C681 1.429 . S
C678 C661 1.574 . S
C678 H672 0.949 . S
C678 C682 1.368 . S
C679 C660 1.429 . S
C679 C673 1.429 . S
C679 C680 1.523 . S
C680 C661 1.368 . S
C680 C674 1.368 . S
C680 C679 1.523 . S
C681 C665 1.429 . S
C681 C677 1.429 . S
C681 C682 1.523 . S
C682 C666 1.368 . S
C682 C678 1.368 . S
C682 C681 1.523 . S
H683 C658 0.950 . S
H684 C660 0.950 . S
H685 C661 0.949 . S
H686 C663 0.950 . S
H687 C665 0.950 . S
C688 C689 1.349 . S
C688 C690 1.327 . S
C688 H713 0.950 . S
C689 C688 1.349 . S
C689 C705 1.349 . S
C690 C688 1.327 . S
C690 C709 1.429 . S
C690 H714 0.950 . S
C691 C708 1.574 . S
C691 C710 1.368 . S
C691 H715 0.949 . S
H692 C696 0.949 . S
C693 C694 1.349 . S
C693 C695 1.327 . S
C693 H716 0.950 . S
C694 C693 1.349 . S
C694 C706 1.349 . S
C695 C693 1.327 . S
C695 C711 1.429 . S
C695 H717 0.950 . S
C696 H692 0.949 . S
C696 C704 1.574 . S
C696 C712 1.368 . S
H697 C705 0.950 . S
H698 C703 0.950 . S
H699 C704 0.949 . S
H700 C706 0.950 . S
H701 C707 0.950 . S
H702 C708 0.949 . S
C703 H698 0.950 . S
C703 C705 1.327 . S
C703 C709 1.429 . S
C704 C696 1.574 . S
C704 H699 0.949 . S
C704 C710 1.368 . S
C705 C689 1.349 . S
C705 H697 0.950 . S
C705 C703 1.327 . S
C706 C694 1.349 . S
C706 H700 0.950 . S
C706 C707 1.327 . S
C707 H701 0.950 . S
C707 C706 1.327 . S
C707 C711 1.429 . S
C708 C691 1.574 . S
C708 H702 0.949 . S
C708 C712 1.368 . S
C709 C690 1.429 . S
C709 C703 1.429 . S
C709 C710 1.523 . S
C710 C691 1.368 . S
C710 C704 1.368 . S
C710 C709 1.523 . S
C711 C695 1.429 . S
C711 C707 1.429 . S
C711 C712 1.523 . S
C712 C696 1.368 . S
C712 C708 1.368 . S
C712 C711 1.523 . S
H713 C688 0.950 . S
H714 C690 0.950 . S
H715 C691 0.949 . S
H716 C693 0.950 . S
H717 C695 0.950 . S
C718 C719 1.349 . S
C718 C720 1.327 . S
C718 H743 0.950 . S
C719 C718 1.349 . S
C719 C735 1.349 . S
C720 C718 1.327 . S
C720 C739 1.429 . S
C720 H744 0.950 . S
C721 C738 1.574 . S
C721 C740 1.368 . S
C721 H745 0.949 . S
H722 C726 0.949 . S
C723 C724 1.349 . S
C723 C725 1.327 . S
C723 H746 0.950 . S
C724 C723 1.349 . S
C724 C736 1.349 . S
C725 C723 1.327 . S
C725 C741 1.429 . S
C725 H747 0.950 . S
C726 H722 0.949 . S
C726 C734 1.574 . S
C726 C742 1.368 . S
H727 C735 0.950 . S
H728 C733 0.950 . S
H729 C734 0.949 . S
H730 C736 0.950 . S
H731 C737 0.950 . S
H732 C738 0.949 . S
C733 H728 0.950 . S
C733 C735 1.327 . S
C733 C739 1.429 . S
C734 C726 1.574 . S
C734 H729 0.949 . S
C734 C740 1.368 . S
C735 C719 1.349 . S
C735 H727 0.950 . S
C735 C733 1.327 . S
C736 C724 1.349 . S
C736 H730 0.950 . S
C736 C737 1.327 . S
C737 H731 0.950 . S
C737 C736 1.327 . S
C737 C741 1.429 . S
C738 C721 1.574 . S
C738 H732 0.949 . S
C738 C742 1.368 . S
C739 C720 1.429 . S
C739 C733 1.429 . S
C739 C740 1.523 . S
C740 C721 1.368 . S
C740 C734 1.368 . S
C740 C739 1.523 . S
C741 C725 1.429 . S
C741 C737 1.429 . S
C741 C742 1.523 . S
C742 C726 1.368 . S
C742 C738 1.368 . S
C742 C741 1.523 . S
H743 C718 0.950 . S
H744 C720 0.950 . S
H745 C721 0.949 . S
H746 C723 0.950 . S
H747 C725 0.950 . S
C748 C749 1.349 . S
C748 C750 1.327 . S
C748 H773 0.950 . S
C749 C748 1.349 . S
C749 C765 1.349 . S
C750 C748 1.327 . S
C750 C769 1.429 . S
C750 H774 0.950 . S
C751 C768 1.574 . S
C751 C770 1.368 . S
C751 H775 0.949 . S
H752 C756 0.949 . S
C753 C754 1.349 . S
C753 C755 1.327 . S
C753 H776 0.950 . S
C754 C753 1.349 . S
C754 C766 1.349 . S
C755 C753 1.327 . S
C755 C771 1.429 . S
C755 H777 0.950 . S
C756 H752 0.949 . S
C756 C764 1.574 . S
C756 C772 1.368 . S
H757 C765 0.950 . S
H758 C763 0.950 . S
H759 C764 0.949 . S
H760 C766 0.950 . S
H761 C767 0.950 . S
H762 C768 0.949 . S
C763 H758 0.950 . S
C763 C765 1.327 . S
C763 C769 1.429 . S
C764 C756 1.574 . S
C764 H759 0.949 . S
C764 C770 1.368 . S
C765 C749 1.349 . S
C765 H757 0.950 . S
C765 C763 1.327 . S
C766 C754 1.349 . S
C766 H760 0.950 . S
C766 C767 1.327 . S
C767 H761 0.950 . S
C767 C766 1.327 . S
C767 C771 1.429 . S
C768 C751 1.574 . S
C768 H762 0.949 . S
C768 C772 1.368 . S
C769 C750 1.429 . S
C769 C763 1.429 . S
C769 C770 1.523 . S
C770 C751 1.368 . S
C770 C764 1.368 . S
C770 C769 1.523 . S
C771 C755 1.429 . S
C771 C767 1.429 . S
C771 C772 1.523 . S
C772 C756 1.368 . S
C772 C768 1.368 . S
C772 C771 1.523 . S
H773 C748 0.950 . S
H774 C750 0.950 . S
H775 C751 0.949 . S
H776 C753 0.950 . S
H777 C755 0.950 . S
C778 C779 1.349 . S
C778 C780 1.327 . S
C778 H803 0.950 . S
C779 C778 1.349 . S
C779 C795 1.349 . S
C780 C778 1.327 . S
C780 C799 1.429 . S
C780 H804 0.950 . S
C781 C798 1.574 . S
C781 C800 1.368 . S
C781 H805 0.949 . S
H782 C786 0.949 . S
C783 C784 1.349 . S
C783 C785 1.327 . S
C783 H806 0.950 . S
C784 C783 1.349 . S
C784 C796 1.349 . S
C785 C783 1.327 . S
C785 C801 1.429 . S
C785 H807 0.950 . S
C786 H782 0.949 . S
C786 C794 1.574 . S
C786 C802 1.368 . S
H787 C795 0.950 . S
H788 C793 0.950 . S
H789 C794 0.949 . S
H790 C796 0.950 . S
H791 C797 0.950 . S
H792 C798 0.949 . S
C793 H788 0.950 . S
C793 C795 1.327 . S
C793 C799 1.429 . S
C794 C786 1.574 . S
C794 H789 0.949 . S
C794 C800 1.368 . S
C795 C779 1.349 . S
C795 H787 0.950 . S
C795 C793 1.327 . S
C796 C784 1.349 . S
C796 H790 0.950 . S
C796 C797 1.327 . S
C797 H791 0.950 . S
C797 C796 1.327 . S
C797 C801 1.429 . S
C798 C781 1.574 . S
C798 H792 0.949 . S
C798 C802 1.368 . S
C799 C780 1.429 . S
C799 C793 1.429 . S
C799 C800 1.523 . S
C800 C781 1.368 . S
C800 C794 1.368 . S
C800 C799 1.523 . S
C801 C785 1.429 . S
C801 C797 1.429 . S
C801 C802 1.523 . S
C802 C786 1.368 . S
C802 C798 1.368 . S
C802 C801 1.523 . S
H803 C778 0.950 . S
H804 C780 0.950 . S
H805 C781 0.949 . S
H806 C783 0.950 . S
H807 C785 0.950 . S
C808 C809 1.349 . S
C808 C810 1.327 . S
C808 H833 0.950 . S
C809 C808 1.349 . S
C809 C825 1.349 . S
C810 C808 1.327 . S
C810 C829 1.429 . S
C810 H834 0.950 . S
C811 C828 1.574 . S
C811 C830 1.368 . S
C811 H835 0.949 . S
H812 C816 0.949 . S
C813 C814 1.349 . S
C813 C815 1.327 . S
C813 H836 0.950 . S
C814 C813 1.349 . S
C814 C826 1.349 . S
C815 C813 1.327 . S
C815 C831 1.429 . S
C815 H837 0.950 . S
C816 H812 0.949 . S
C816 C824 1.574 . S
C816 C832 1.368 . S
H817 C825 0.950 . S
H818 C823 0.950 . S
H819 C824 0.949 . S
H820 C826 0.950 . S
H821 C827 0.950 . S
H822 C828 0.949 . S
C823 H818 0.950 . S
C823 C825 1.327 . S
C823 C829 1.429 . S
C824 C816 1.574 . S
C824 H819 0.949 . S
C824 C830 1.368 . S
C825 C809 1.349 . S
C825 H817 0.950 . S
C825 C823 1.327 . S
C826 C814 1.349 . S
C826 H820 0.950 . S
C826 C827 1.327 . S
C827 H821 0.950 . S
C827 C826 1.327 . S
C827 C831 1.429 . S
C828 C811 1.574 . S
C828 H822 0.949 . S
C828 C832 1.368 . S
C829 C810 1.429 . S
C829 C823 1.429 . S
C829 C830 1.523 . S
C830 C811 1.368 . S
C830 C824 1.368 . S
C830 C829 1.523 . S
C831 C815 1.429 . S
C831 C827 1.429 . S
C831 C832 1.523 . S
C832 C816 1.368 . S
C832 C828 1.368 . S
C832 C831 1.523 . S
H833 C808 0.950 . S
H834 C810 0.950 . S
H835 C811 0.949 . S
H836 C813 0.950 . S
H837 C815 0.950 . S
C838 C839 1.349 . S
C838 C840 1.327 . S
C838 H863 0.950 . S
C839 C838 1.349 . S
C839 C855 1.349 . S
C840 C838 1.327 . S
C840 C859 1.429 . S
C840 H864 0.950 . S
C841 C858 1.574 . S
C841 C860 1.368 . S
C841 H865 0.949 . S
H842 C846 0.949 . S
C843 C844 1.349 . S
C843 C845 1.327 . S
C843 H866 0.950 . S
C844 C843 1.349 . S
C844 C856 1.349 . S
C845 C843 1.327 . S
C845 C861 1.429 . S
C845 H867 0.950 . S
C846 H842 0.949 . S
C846 C854 1.574 . S
C846 C862 1.368 . S
H847 C855 0.950 . S
H848 C853 0.950 . S
H849 C854 0.949 . S
H850 C856 0.950 . S
H851 C857 0.950 . S
H852 C858 0.949 . S
C853 H848 0.950 . S
C853 C855 1.327 . S
C853 C859 1.429 . S
C854 C846 1.574 . S
C854 H849 0.949 . S
C854 C860 1.368 . S
C855 C839 1.349 . S
C855 H847 0.950 . S
C855 C853 1.327 . S
C856 C844 1.349 . S
C856 H850 0.950 . S
C856 C857 1.327 . S
C857 H851 0.950 . S
C857 C856 1.327 . S
C857 C861 1.429 . S
C858 C841 1.574 . S
C858 H852 0.949 . S
C858 C862 1.368 . S
C859 C840 1.429 . S
C859 C853 1.429 . S
C859 C860 1.523 . S
C860 C841 1.368 . S
C860 C854 1.368 . S
C860 C859 1.523 . S
C861 C845 1.429 . S
C861 C857 1.429 . S
C861 C862 1.523 . S
C862 C846 1.368 . S
C862 C858 1.368 . S
C862 C861 1.523 . S
H863 C838 0.950 . S
H864 C840 0.950 . S
H865 C841 0.949 . S
H866 C843 0.950 . S
H867 C845 0.950 . S
C868 C869 1.349 . S
C868 C870 1.327 . S
C868 H893 0.950 . S
C869 C868 1.349 . S
C869 C885 1.349 . S
C870 C868 1.327 . S
C870 C889 1.429 . S
C870 H894 0.950 . S
C871 C888 1.574 . S
C871 C890 1.368 . S
C871 H895 0.949 . S
H872 C876 0.949 . S
C873 C874 1.349 . S
C873 C875 1.327 . S
C873 H896 0.950 . S
C874 C873 1.349 . S
C874 C886 1.349 . S
C875 C873 1.327 . S
C875 C891 1.429 . S
C875 H897 0.950 . S
C876 H872 0.949 . S
C876 C884 1.574 . S
C876 C892 1.368 . S
H877 C885 0.950 . S
H878 C883 0.950 . S
H879 C884 0.949 . S
H880 C886 0.950 . S
H881 C887 0.950 . S
H882 C888 0.949 . S
C883 H878 0.950 . S
C883 C885 1.327 . S
C883 C889 1.429 . S
C884 C876 1.574 . S
C884 H879 0.949 . S
C884 C890 1.368 . S
C885 C869 1.349 . S
C885 H877 0.950 . S
C885 C883 1.327 . S
C886 C874 1.349 . S
C886 H880 0.950 . S
C886 C887 1.327 . S
C887 H881 0.950 . S
C887 C886 1.327 . S
C887 C891 1.429 . S
C888 C871 1.574 . S
C888 H882 0.949 . S
C888 C892 1.368 . S
C889 C870 1.429 . S
C889 C883 1.429 . S
C889 C890 1.523 . S
C890 C871 1.368 . S
C890 C884 1.368 . S
C890 C889 1.523 . S
C891 C875 1.429 . S
C891 C887 1.429 . S
C891 C892 1.523 . S
C892 C876 1.368 . S
C892 C888 1.368 . S
C892 C891 1.523 . S
H893 C868 0.950 . S
H894 C870 0.950 . S
H895 C871 0.949 . S
H896 C873 0.950 . S
H897 C875 0.950 . S
C898 C899 1.349 . S
C898 C900 1.327 . S
C898 H923 0.950 . S
C899 C898 1.349 . S
C899 C915 1.349 . S
C900 C898 1.327 . S
C900 C919 1.429 . S
C900 H924 0.950 . S
C901 C918 1.574 . S
C901 C920 1.368 . S
C901 H925 0.949 . S
H902 C906 0.949 . S
C903 C904 1.349 . S
C903 C905 1.327 . S
C903 H926 0.950 . S
C904 C903 1.349 . S
C904 C916 1.349 . S
C905 C903 1.327 . S
C905 C921 1.429 . S
C905 H927 0.950 . S
C906 H902 0.949 . S
C906 C914 1.574 . S
C906 C922 1.368 . S
H907 C915 0.950 . S
H908 C913 0.950 . S
H909 C914 0.949 . S
H910 C916 0.950 . S
H911 C917 0.950 . S
H912 C918 0.949 . S
C913 H908 0.950 . S
C913 C915 1.327 . S
C913 C919 1.429 . S
C914 C906 1.574 . S
C914 H909 0.949 . S
C914 C920 1.368 . S
C915 C899 1.349 . S
C915 H907 0.950 . S
C915 C913 1.327 . S
C916 C904 1.349 . S
C916 H910 0.950 . S
C916 C917 1.327 . S
C917 H911 0.950 . S
C917 C916 1.327 . S
C917 C921 1.429 . S
C918 C901 1.574 . S
C918 H912 0.949 . S
C918 C922 1.368 . S
C919 C900 1.429 . S
C919 C913 1.429 . S
C919 C920 1.523 . S
C920 C901 1.368 . S
C920 C914 1.368 . S
C920 C919 1.523 . S
C921 C905 1.429 . S
C921 C917 1.429 . S
C921 C922 1.523 . S
C922 C906 1.368 . S
C922 C918 1.368 . S
C922 C921 1.523 . S
H923 C898 0.950 . S
H924 C900 0.950 . S
H925 C901 0.949 . S
H926 C903 0.950 . S
H927 C905 0.950 . S
C928 C929 1.349 . S
C928 C930 1.327 . S
C928 H953 0.950 . S
C929 C928 1.349 . S
C929 C945 1.349 . S
C930 C928 1.327 . S
C930 C949 1.429 . S
C930 H954 0.950 . S
C931 C948 1.574 1_655 S
C931 C950 1.368 . S
C931 H955 0.949 . S
H932 C936 0.949 . S
C933 C934 1.349 . S
C933 C935 1.327 . S
C933 H956 0.950 . S
C934 C933 1.349 . S
C934 C946 1.349 . S
C935 C933 1.327 . S
C935 C951 1.429 . S
C935 H957 0.950 . S
C936 H932 0.949 . S
C936 C944 1.574 1_455 S
C936 C952 1.368 . S
H937 C945 0.950 . S
H938 C943 0.950 . S
H939 C944 0.949 . S
H940 C946 0.950 . S
H941 C947 0.950 . S
H942 C948 0.949 . S
C943 H938 0.950 . S
C943 C945 1.327 . S
C943 C949 1.429 . S
C944 C936 1.574 1_655 S
C944 H939 0.949 . S
C944 C950 1.368 . S
C945 C929 1.349 . S
C945 H937 0.950 . S
C945 C943 1.327 . S
C946 C934 1.349 . S
C946 H940 0.950 . S
C946 C947 1.327 . S
C947 H941 0.950 . S
C947 C946 1.327 . S
C947 C951 1.429 . S
C948 C931 1.574 1_455 S
C948 H942 0.949 . S
C948 C952 1.368 . S
C949 C930 1.429 . S
C949 C943 1.429 . S
C949 C950 1.523 . S
C950 C931 1.368 . S
C950 C944 1.368 . S
C950 C949 1.523 . S
C951 C935 1.429 . S
C951 C947 1.429 . S
C951 C952 1.523 . S
C952 C936 1.368 . S
C952 C948 1.368 . S
C952 C951 1.523 . S
H953 C928 0.950 . S
H954 C930 0.950 . S
H955 C931 0.949 . S
H956 C933 0.950 . S
H957 C935 0.950 . S
C958 C959 1.349 . S
C958 C960 1.327 . S
C958 H983 0.950 . S
C959 C958 1.349 . S
C959 C975 1.349 . S
C960 C958 1.327 . S
C960 C979 1.429 . S
C960 H984 0.950 . S
C961 C978 1.574 1_545 S
C961 C980 1.368 . S
C961 H985 0.949 . S
H962 C966 0.949 . S
C963 C964 1.349 . S
C963 C965 1.327 . S
C963 H986 0.950 . S
C964 C963 1.349 . S
C964 C976 1.349 . S
C965 C963 1.327 . S
C965 C981 1.429 . S
C965 H987 0.950 . S
C966 H962 0.949 . S
C966 C974 1.574 1_565 S
C966 C982 1.368 . S
H967 C975 0.950 . S
H968 C973 0.950 . S
H969 C974 0.949 . S
H970 C976 0.950 . S
H971 C977 0.950 . S
H972 C978 0.949 . S
C973 H968 0.950 . S
C973 C975 1.327 . S
C973 C979 1.429 . S
C974 C966 1.574 1_545 S
C974 H969 0.949 . S
C974 C980 1.368 . S
C975 C959 1.349 . S
C975 H967 0.950 . S
C975 C973 1.327 . S
C976 C964 1.349 . S
C976 H970 0.950 . S
C976 C977 1.327 . S
C977 H971 0.950 . S
C977 C976 1.327 . S
C977 C981 1.429 . S
C978 C961 1.574 1_565 S
C978 H972 0.949 . S
C978 C982 1.368 . S
C979 C960 1.429 . S
C979 C973 1.429 . S
C979 C980 1.523 . S
C980 C961 1.368 . S
C980 C974 1.368 . S
C980 C979 1.523 . S
C981 C965 1.429 . S
C981 C977 1.429 . S
C981 C982 1.523 . S
C982 C966 1.368 . S
C982 C978 1.368 . S
C982 C981 1.523 . S
H983 C958 0.950 . S
H984 C960 0.950 . S
H985 C961 0.949 . S
H986 C963 0.950 . S
H987 C965 0.950 . S
C988 C989 1.349 . S
C988 C990 1.327 . S
C988 H1013 0.950 . S
C989 C988 1.349 . S
C989 C1005 1.349 . S
C990 C988 1.327 . S
C990 C1009 1.429 . S
C990 H1014 0.950 . S
C991 C1008 1.574 1_455 S
C991 C1010 1.368 . S
C991 H1015 0.949 . S
H992 C996 0.949 . S
C993 C994 1.349 . S
C993 C995 1.327 . S
C993 H1016 0.950 . S
C994 C993 1.349 . S
C994 C1006 1.349 . S
C995 C993 1.327 . S
C995 C1011 1.429 . S
C995 H1017 0.950 . S
C996 H992 0.949 . S
C996 C1004 1.574 1_655 S
C996 C1012 1.368 . S
H997 C1005 0.950 . S
H998 C1003 0.950 . S
H999 C1004 0.949 . S
H1000 C1006 0.950 . S
H1001 C1007 0.950 . S
H1002 C1008 0.949 . S
C1003 H998 0.950 . S
C1003 C1005 1.327 . S
C1003 C1009 1.429 . S
C1004 C996 1.574 1_455 S
C1004 H999 0.949 . S
C1004 C1010 1.368 . S
C1005 C989 1.349 . S
C1005 H997 0.950 . S
C1005 C1003 1.327 . S
C1006 C994 1.349 . S
C1006 H1000 0.950 . S
C1006 C1007 1.327 . S
C1007 H1001 0.950 . S
C1007 C1006 1.327 . S
C1007 C1011 1.429 . S
C1008 C991 1.574 1_655 S
C1008 H1002 0.949 . S
C1008 C1012 1.368 . S
C1009 C990 1.429 . S
C1009 C1003 1.429 . S
C1009 C1010 1.523 . S
C1010 C991 1.368 . S
C1010 C1004 1.368 . S
C1010 C1009 1.523 . S
C1011 C995 1.429 . S
C1011 C1007 1.429 . S
C1011 C1012 1.523 . S
C1012 C996 1.368 . S
C1012 C1008 1.368 . S
C1012 C1011 1.523 . S
H1013 C988 0.950 . S
H1014 C990 0.950 . S
H1015 C991 0.949 . S
H1016 C993 0.950 . S
H1017 C995 0.950 . S
C1018 C1019 1.349 . S
C1018 C1020 1.327 . S
C1018 H1043 0.950 . S
C1019 C1018 1.349 . S
C1019 C1035 1.349 . S
C1020 C1018 1.327 . S
C1020 C1039 1.429 . S
C1020 H1044 0.950 . S
C1021 C1038 1.574 1_565 S
C1021 C1040 1.368 . S
C1021 H1045 0.949 . S
H1022 C1026 0.949 . S
C1023 C1024 1.349 . S
C1023 C1025 1.327 . S
C1023 H1046 0.950 . S
C1024 C1023 1.349 . S
C1024 C1036 1.349 . S
C1025 C1023 1.327 . S
C1025 C1041 1.429 . S
C1025 H1047 0.950 . S
C1026 H1022 0.949 . S
C1026 C1034 1.574 1_545 S
C1026 C1042 1.368 . S
H1027 C1035 0.950 . S
H1028 C1033 0.950 . S
H1029 C1034 0.949 . S
H1030 C1036 0.950 . S
H1031 C1037 0.950 . S
H1032 C1038 0.949 . S
C1033 H1028 0.950 . S
C1033 C1035 1.327 . S
C1033 C1039 1.429 . S
C1034 C1026 1.574 1_565 S
C1034 H1029 0.949 . S
C1034 C1040 1.368 . S
C1035 C1019 1.349 . S
C1035 H1027 0.950 . S
C1035 C1033 1.327 . S
C1036 C1024 1.349 . S
C1036 H1030 0.950 . S
C1036 C1037 1.327 . S
C1037 H1031 0.950 . S
C1037 C1036 1.327 . S
C1037 C1041 1.429 . S
C1038 C1021 1.574 1_545 S
C1038 H1032 0.949 . S
C1038 C1042 1.368 . S
C1039 C1020 1.429 . S
C1039 C1033 1.429 . S
C1039 C1040 1.523 . S
C1040 C1021 1.368 . S
C1040 C1034 1.368 . S
C1040 C1039 1.523 . S
C1041 C1025 1.429 . S
C1041 C1037 1.429 . S
C1041 C1042 1.523 . S
C1042 C1026 1.368 . S
C1042 C1038 1.368 . S
C1042 C1041 1.523 . S
H1043 C1018 0.950 . S
H1044 C1020 0.950 . S
H1045 C1021 0.949 . S
H1046 C1023 0.950 . S
H1047 C1025 0.950 . S
C1048 C1049 1.349 . S
C1048 C1050 1.327 . S
C1048 H1073 0.950 . S
C1049 C1048 1.349 . S
C1049 C1065 1.349 . S
C1050 C1048 1.327 . S
C1050 C1069 1.429 . S
C1050 H1074 0.950 . S
C1051 C1068 1.574 1_455 S
C1051 C1070 1.368 . S
C1051 H1075 0.949 . S
H1052 C1056 0.949 . S
C1053 C1054 1.349 . S
C1053 C1055 1.327 . S
C1053 H1076 0.950 . S
C1054 C1053 1.349 . S
C1054 C1066 1.349 . S
C1055 C1053 1.327 . S
C1055 C1071 1.429 . S
C1055 H1077 0.950 . S
C1056 H1052 0.949 . S
C1056 C1064 1.574 1_655 S
C1056 C1072 1.368 . S
H1057 C1065 0.950 . S
H1058 C1063 0.950 . S
H1059 C1064 0.949 . S
H1060 C1066 0.950 . S
H1061 C1067 0.950 . S
H1062 C1068 0.949 . S
C1063 H1058 0.950 . S
C1063 C1065 1.327 . S
C1063 C1069 1.429 . S
C1064 C1056 1.574 1_455 S
C1064 H1059 0.949 . S
C1064 C1070 1.368 . S
C1065 C1049 1.349 . S
C1065 H1057 0.950 . S
C1065 C1063 1.327 . S
C1066 C1054 1.349 . S
C1066 H1060 0.950 . S
C1066 C1067 1.327 . S
C1067 H1061 0.950 . S
C1067 C1066 1.327 . S
C1067 C1071 1.429 . S
C1068 C1051 1.574 1_655 S
C1068 H1062 0.949 . S
C1068 C1072 1.368 . S
C1069 C1050 1.429 . S
C1069 C1063 1.429 . S
C1069 C1070 1.523 . S
C1070 C1051 1.368 . S
C1070 C1064 1.368 . S
C1070 C1069 1.523 . S
C1071 C1055 1.429 . S
C1071 C1067 1.429 . S
C1071 C1072 1.523 . S
C1072 C1056 1.368 . S
C1072 C1068 1.368 . S
C1072 C1071 1.523 . S
H1073 C1048 0.950 . S
H1074 C1050 0.950 . S
H1075 C1051 0.949 . S
H1076 C1053 0.950 . S
H1077 C1055 0.950 . S
C1078 C1079 1.349 . S
C1078 C1080 1.327 . S
C1078 H1103 0.950 . S
C1079 C1078 1.349 . S
C1079 C1095 1.349 . S
C1080 C1078 1.327 . S
C1080 C1099 1.429 . S
C1080 H1104 0.950 . S
C1081 C1098 1.574 1_565 S
C1081 C1100 1.368 . S
C1081 H1105 0.949 . S
H1082 C1086 0.949 . S
C1083 C1084 1.349 . S
C1083 C1085 1.327 . S
C1083 H1106 0.950 . S
C1084 C1083 1.349 . S
C1084 C1096 1.349 . S
C1085 C1083 1.327 . S
C1085 C1101 1.429 . S
C1085 H1107 0.950 . S
C1086 H1082 0.949 . S
C1086 C1094 1.574 1_545 S
C1086 C1102 1.368 . S
H1087 C1095 0.950 . S
H1088 C1093 0.950 . S
H1089 C1094 0.949 . S
H1090 C1096 0.950 . S
H1091 C1097 0.950 . S
H1092 C1098 0.949 . S
C1093 H1088 0.950 . S
C1093 C1095 1.327 . S
C1093 C1099 1.429 . S
C1094 C1086 1.574 1_565 S
C1094 H1089 0.949 . S
C1094 C1100 1.368 . S
C1095 C1079 1.349 . S
C1095 H1087 0.950 . S
C1095 C1093 1.327 . S
C1096 C1084 1.349 . S
C1096 H1090 0.950 . S
C1096 C1097 1.327 . S
C1097 H1091 0.950 . S
C1097 C1096 1.327 . S
C1097 C1101 1.429 . S
C1098 C1081 1.574 1_545 S
C1098 H1092 0.949 . S
C1098 C1102 1.368 . S
C1099 C1080 1.429 . S
C1099 C1093 1.429 . S
C1099 C1100 1.523 . S
C1100 C1081 1.368 . S
C1100 C1094 1.368 . S
C1100 C1099 1.523 . S
C1101 C1085 1.429 . S
C1101 C1097 1.429 . S
C1101 C1102 1.523 . S
C1102 C1086 1.368 . S
C1102 C1098 1.368 . S
C1102 C1101 1.523 . S
H1103 C1078 0.950 . S
H1104 C1080 0.950 . S
H1105 C1081 0.949 . S
H1106 C1083 0.950 . S
H1107 C1085 0.950 . S
C1108 C1109 1.349 . S
C1108 C1110 1.327 . S
C1108 H1133 0.950 . S
C1109 C1108 1.349 . S
C1109 C1125 1.349 . S
C1110 C1108 1.327 . S
C1110 C1129 1.429 . S
C1110 H1134 0.950 . S
C1111 C1128 1.574 1_455 S
C1111 C1130 1.368 . S
C1111 H1135 0.949 . S
H1112 C1116 0.949 . S
C1113 C1114 1.349 . S
C1113 C1115 1.327 . S
C1113 H1136 0.950 . S
C1114 C1113 1.349 . S
C1114 C1126 1.349 . S
C1115 C1113 1.327 . S
C1115 C1131 1.429 . S
C1115 H1137 0.950 . S
C1116 H1112 0.949 . S
C1116 C1124 1.574 1_655 S
C1116 C1132 1.368 . S
H1117 C1125 0.950 . S
H1118 C1123 0.950 . S
H1119 C1124 0.949 . S
H1120 C1126 0.950 . S
H1121 C1127 0.950 . S
H1122 C1128 0.949 . S
C1123 H1118 0.950 . S
C1123 C1125 1.327 . S
C1123 C1129 1.429 . S
C1124 C1116 1.574 1_455 S
C1124 H1119 0.949 . S
C1124 C1130 1.368 . S
C1125 C1109 1.349 . S
C1125 H1117 0.950 . S
C1125 C1123 1.327 . S
C1126 C1114 1.349 . S
C1126 H1120 0.950 . S
C1126 C1127 1.327 . S
C1127 H1121 0.950 . S
C1127 C1126 1.327 . S
C1127 C1131 1.429 . S
C1128 C1111 1.574 1_655 S
C1128 H1122 0.949 . S
C1128 C1132 1.368 . S
C1129 C1110 1.429 . S
C1129 C1123 1.429 . S
C1129 C1130 1.523 . S
C1130 C1111 1.368 . S
C1130 C1124 1.368 . S
C1130 C1129 1.523 . S
C1131 C1115 1.429 . S
C1131 C1127 1.429 . S
C1131 C1132 1.523 . S
C1132 C1116 1.368 . S
C1132 C1128 1.368 . S
C1132 C1131 1.523 . S
H1133 C1108 0.950 . S
H1134 C1110 0.950 . S
H1135 C1111 0.949 . S
H1136 C1113 0.950 . S
H1137 C1115 0.950 . S
C1138 C1139 1.349 . S
C1138 C1140 1.327 . S
C1138 H1163 0.950 . S
C1139 C1138 1.349 . S
C1139 C1155 1.349 . S
C1140 C1138 1.327 . S
C1140 C1159 1.429 . S
C1140 H1164 0.950 . S
C1141 C1158 1.574 1_545 S
C1141 C1160 1.368 . S
C1141 H1165 0.949 . S
H1142 C1146 0.949 . S
C1143 C1144 1.349 . S
C1143 C1145 1.327 . S
C1143 H1166 0.950 . S
C1144 C1143 1.349 . S
C1144 C1156 1.349 . S
C1145 C1143 1.327 . S
C1145 C1161 1.429 . S
C1145 H1167 0.950 . S
C1146 H1142 0.949 . S
C1146 C1154 1.574 1_565 S
C1146 C1162 1.368 . S
H1147 C1155 0.950 . S
H1148 C1153 0.950 . S
H1149 C1154 0.949 . S
H1150 C1156 0.950 . S
H1151 C1157 0.950 . S
H1152 C1158 0.949 . S
C1153 H1148 0.950 . S
C1153 C1155 1.327 . S
C1153 C1159 1.429 . S
C1154 C1146 1.574 1_545 S
C1154 H1149 0.949 . S
C1154 C1160 1.368 . S
C1155 C1139 1.349 . S
C1155 H1147 0.950 . S
C1155 C1153 1.327 . S
C1156 C1144 1.349 . S
C1156 H1150 0.950 . S
C1156 C1157 1.327 . S
C1157 H1151 0.950 . S
C1157 C1156 1.327 . S
C1157 C1161 1.429 . S
C1158 C1141 1.574 1_565 S
C1158 H1152 0.949 . S
C1158 C1162 1.368 . S
C1159 C1140 1.429 . S
C1159 C1153 1.429 . S
C1159 C1160 1.523 . S
C1160 C1141 1.368 . S
C1160 C1154 1.368 . S
C1160 C1159 1.523 . S
C1161 C1145 1.429 . S
C1161 C1157 1.429 . S
C1161 C1162 1.523 . S
C1162 C1146 1.368 . S
C1162 C1158 1.368 . S
C1162 C1161 1.523 . S
H1163 C1138 0.950 . S
H1164 C1140 0.950 . S
H1165 C1141 0.949 . S
H1166 C1143 0.950 . S
H1167 C1145 0.950 . S
C1168 C1169 1.349 . S
C1168 C1170 1.327 . S
C1168 H1193 0.950 . S
C1169 C1168 1.349 . S
C1169 C1185 1.349 . S
C1170 C1168 1.327 . S
C1170 C1189 1.429 . S
C1170 H1194 0.950 . S
C1171 C1188 1.574 . S
C1171 C1190 1.368 . S
C1171 H1195 0.949 . S
H1172 C1176 0.949 . S
C1173 C1174 1.349 . S
C1173 C1175 1.327 . S
C1173 H1196 0.950 . S
C1174 C1173 1.349 . S
C1174 C1186 1.349 . S
C1175 C1173 1.327 . S
C1175 C1191 1.429 . S
C1175 H1197 0.950 . S
C1176 H1172 0.949 . S
C1176 C1184 1.574 . S
C1176 C1192 1.368 . S
H1177 C1185 0.950 . S
H1178 C1183 0.950 . S
H1179 C1184 0.949 . S
H1180 C1186 0.950 . S
H1181 C1187 0.950 . S
H1182 C1188 0.949 . S
C1183 H1178 0.950 . S
C1183 C1185 1.327 . S
C1183 C1189 1.429 . S
C1184 C1176 1.574 . S
C1184 H1179 0.949 . S
C1184 C1190 1.368 . S
C1185 C1169 1.349 . S
C1185 H1177 0.950 . S
C1185 C1183 1.327 . S
C1186 C1174 1.349 . S
C1186 H1180 0.950 . S
C1186 C1187 1.327 . S
C1187 H1181 0.950 . S
C1187 C1186 1.327 . S
C1187 C1191 1.429 . S
C1188 C1171 1.574 . S
C1188 H1182 0.949 . S
C1188 C1192 1.368 . S
C1189 C1170 1.429 . S
C1189 C1183 1.429 . S
C1189 C1190 1.523 . S
C1190 C1171 1.368 . S
C1190 C1184 1.368 . S
C1190 C1189 1.523 . S
C1191 C1175 1.429 . S
C1191 C1187 1.429 . S
C1191 C1192 1.523 . S
C1192 C1176 1.368 . S
C1192 C1188 1.368 . S
C1192 C1191 1.523 . S
H1193 C1168 0.950 . S
H1194 C1170 0.950 . S
H1195 C1171 0.949 . S
H1196 C1173 0.950 . S
H1197 C1175 0.950 . S
C1198 C1199 1.349 . S
C1198 C1200 1.327 . S
C1198 H1223 0.950 . S
C1199 C1198 1.349 . S
C1199 C1215 1.349 . S
C1200 C1198 1.327 . S
C1200 C1219 1.429 . S
C1200 H1224 0.950 . S
C1201 C1218 1.574 . S
C1201 C1220 1.368 . S
C1201 H1225 0.949 . S
H1202 C1206 0.949 . S
C1203 C1204 1.349 . S
C1203 C1205 1.327 . S
C1203 H1226 0.950 . S
C1204 C1203 1.349 . S
C1204 C1216 1.349 . S
C1205 C1203 1.327 . S
C1205 C1221 1.429 . S
C1205 H1227 0.950 . S
C1206 H1202 0.949 . S
C1206 C1214 1.574 . S
C1206 C1222 1.368 . S
H1207 C1215 0.950 . S
H1208 C1213 0.950 . S
H1209 C1214 0.949 . S
H1210 C1216 0.950 . S
H1211 C1217 0.950 . S
H1212 C1218 0.949 . S
C1213 H1208 0.950 . S
C1213 C1215 1.327 . S
C1213 C1219 1.429 . S
C1214 C1206 1.574 . S
C1214 H1209 0.949 . S
C1214 C1220 1.368 . S
C1215 C1199 1.349 . S
C1215 H1207 0.950 . S
C1215 C1213 1.327 . S
C1216 C1204 1.349 . S
C1216 H1210 0.950 . S
C1216 C1217 1.327 . S
C1217 H1211 0.950 . S
C1217 C1216 1.327 . S
C1217 C1221 1.429 . S
C1218 C1201 1.574 . S
C1218 H1212 0.949 . S
C1218 C1222 1.368 . S
C1219 C1200 1.429 . S
C1219 C1213 1.429 . S
C1219 C1220 1.523 . S
C1220 C1201 1.368 . S
C1220 C1214 1.368 . S
C1220 C1219 1.523 . S
C1221 C1205 1.429 . S
C1221 C1217 1.429 . S
C1221 C1222 1.523 . S
C1222 C1206 1.368 . S
C1222 C1218 1.368 . S
C1222 C1221 1.523 . S
H1223 C1198 0.950 . S
H1224 C1200 0.950 . S
H1225 C1201 0.949 . S
H1226 C1203 0.950 . S
H1227 C1205 0.950 . S
C1228 C1229 1.349 . S
C1228 C1230 1.327 . S
C1228 H1253 0.950 . S
C1229 C1228 1.349 . S
C1229 C1245 1.349 . S
C1230 C1228 1.327 . S
C1230 C1249 1.429 . S
C1230 H1254 0.950 . S
C1231 C1248 1.574 . S
C1231 C1250 1.368 . S
C1231 H1255 0.949 . S
H1232 C1236 0.949 . S
C1233 C1234 1.349 . S
C1233 C1235 1.327 . S
C1233 H1256 0.950 . S
C1234 C1233 1.349 . S
C1234 C1246 1.349 . S
C1235 C1233 1.327 . S
C1235 C1251 1.429 . S
C1235 H1257 0.950 . S
C1236 H1232 0.949 . S
C1236 C1244 1.574 . S
C1236 C1252 1.368 . S
H1237 C1245 0.950 . S
H1238 C1243 0.950 . S
H1239 C1244 0.949 . S
H1240 C1246 0.950 . S
H1241 C1247 0.950 . S
H1242 C1248 0.949 . S
C1243 H1238 0.950 . S
C1243 C1245 1.327 . S
C1243 C1249 1.429 . S
C1244 C1236 1.574 . S
C1244 H1239 0.949 . S
C1244 C1250 1.368 . S
C1245 C1229 1.349 . S
C1245 H1237 0.950 . S
C1245 C1243 1.327 . S
C1246 C1234 1.349 . S
C1246 H1240 0.950 . S
C1246 C1247 1.327 . S
C1247 H1241 0.950 . S
C1247 C1246 1.327 . S
C1247 C1251 1.429 . S
C1248 C1231 1.574 . S
C1248 H1242 0.949 . S
C1248 C1252 1.368 . S
C1249 C1230 1.429 . S
C1249 C1243 1.429 . S
C1249 C1250 1.523 . S
C1250 C1231 1.368 . S
C1250 C1244 1.368 . S
C1250 C1249 1.523 . S
C1251 C1235 1.429 . S
C1251 C1247 1.429 . S
C1251 C1252 1.523 . S
C1252 C1236 1.368 . S
C1252 C1248 1.368 . S
C1252 C1251 1.523 . S
H1253 C1228 0.950 . S
H1254 C1230 0.950 . S
H1255 C1231 0.949 . S
H1256 C1233 0.950 . S
H1257 C1235 0.950 . S
C1258 C1259 1.349 . S
C1258 C1260 1.327 . S
C1258 H1283 0.950 . S
C1259 C1258 1.349 . S
C1259 C1275 1.349 . S
C1260 C1258 1.327 . S
C1260 C1279 1.429 . S
C1260 H1284 0.950 . S
C1261 C1278 1.574 . S
C1261 C1280 1.368 . S
C1261 H1285 0.949 . S
H1262 C1266 0.949 . S
C1263 C1264 1.349 . S
C1263 C1265 1.327 . S
C1263 H1286 0.950 . S
C1264 C1263 1.349 . S
C1264 C1276 1.349 . S
C1265 C1263 1.327 . S
C1265 C1281 1.429 . S
C1265 H1287 0.950 . S
C1266 H1262 0.949 . S
C1266 C1274 1.574 . S
C1266 C1282 1.368 . S
H1267 C1275 0.950 . S
H1268 C1273 0.950 . S
H1269 C1274 0.949 . S
H1270 C1276 0.950 . S
H1271 C1277 0.950 . S
H1272 C1278 0.949 . S
C1273 H1268 0.950 . S
C1273 C1275 1.327 . S
C1273 C1279 1.429 . S
C1274 C1266 1.574 . S
C1274 H1269 0.949 . S
C1274 C1280 1.368 . S
C1275 C1259 1.349 . S
C1275 H1267 0.950 . S
C1275 C1273 1.327 . S
C1276 C1264 1.349 . S
C1276 H1270 0.950 . S
C1276 C1277 1.327 . S
C1277 H1271 0.950 . S
C1277 C1276 1.327 . S
C1277 C1281 1.429 . S
C1278 C1261 1.574 . S
C1278 H1272 0.949 . S
C1278 C1282 1.368 . S
C1279 C1260 1.429 . S
C1279 C1273 1.429 . S
C1279 C1280 1.523 . S
C1280 C1261 1.368 . S
C1280 C1274 1.368 . S
C1280 C1279 1.523 . S
C1281 C1265 1.429 . S
C1281 C1277 1.429 . S
C1281 C1282 1.523 . S
C1282 C1266 1.368 . S
C1282 C1278 1.368 . S
C1282 C1281 1.523 . S
H1283 C1258 0.950 . S
H1284 C1260 0.950 . S
H1285 C1261 0.949 . S
H1286 C1263 0.950 . S
H1287 C1265 0.950 . S
C1288 C1289 1.349 . S
C1288 C1290 1.327 . S
C1288 H1313 0.950 . S
C1289 C1288 1.349 . S
C1289 C1305 1.349 . S
C1290 C1288 1.327 . S
C1290 C1309 1.429 . S
C1290 H1314 0.950 . S
C1291 C1308 1.574 . S
C1291 C1310 1.368 . S
C1291 H1315 0.949 . S
H1292 C1296 0.949 . S
C1293 C1294 1.349 . S
C1293 C1295 1.327 . S
C1293 H1316 0.950 . S
C1294 C1293 1.349 . S
C1294 C1306 1.349 . S
C1295 C1293 1.327 . S
C1295 C1311 1.429 . S
C1295 H1317 0.950 . S
C1296 H1292 0.949 . S
C1296 C1304 1.574 . S
C1296 C1312 1.368 . S
H1297 C1305 0.950 . S
H1298 C1303 0.950 . S
H1299 C1304 0.949 . S
H1300 C1306 0.950 . S
H1301 C1307 0.950 . S
H1302 C1308 0.949 . S
C1303 H1298 0.950 . S
C1303 C1305 1.327 . S
C1303 C1309 1.429 . S
C1304 C1296 1.574 . S
C1304 H1299 0.949 . S
C1304 C1310 1.368 . S
C1305 C1289 1.349 . S
C1305 H1297 0.950 . S
C1305 C1303 1.327 . S
C1306 C1294 1.349 . S
C1306 H1300 0.950 . S
C1306 C1307 1.327 . S
C1307 H1301 0.950 . S
C1307 C1306 1.327 . S
C1307 C1311 1.429 . S
C1308 C1291 1.574 . S
C1308 H1302 0.949 . S
C1308 C1312 1.368 . S
C1309 C1290 1.429 . S
C1309 C1303 1.429 . S
C1309 C1310 1.523 . S
C1310 C1291 1.368 . S
C1310 C1304 1.368 . S
C1310 C1309 1.523 . S
C1311 C1295 1.429 . S
C1311 C1307 1.429 . S
C1311 C1312 1.523 . S
C1312 C1296 1.368 . S
C1312 C1308 1.368 . S
C1312 C1311 1.523 . S
H1313 C1288 0.950 . S
H1314 C1290 0.950 . S
H1315 C1291 0.949 . S
H1316 C1293 0.950 . S
H1317 C1295 0.950 . S
C1318 C1319 1.349 . S
C1318 C1320 1.327 . S
C1318 H1343 0.950 . S
C1319 C1318 1.349 . S
C1319 C1335 1.349 . S
C1320 C1318 1.327 . S
C1320 C1339 1.429 . S
C1320 H1344 0.950 . S
C1321 C1338 1.574 . S
C1321 C1340 1.368 . S
C1321 H1345 0.949 . S
H1322 C1326 0.949 . S
C1323 C1324 1.349 . S
C1323 C1325 1.327 . S
C1323 H1346 0.950 . S
C1324 C1323 1.349 . S
C1324 C1336 1.349 . S
C1325 C1323 1.327 . S
C1325 C1341 1.429 . S
C1325 H1347 0.950 . S
C1326 H1322 0.949 . S
C1326 C1334 1.574 . S
C1326 C1342 1.368 . S
H1327 C1335 0.950 . S
H1328 C1333 0.950 . S
H1329 C1334 0.949 . S
H1330 C1336 0.950 . S
H1331 C1337 0.950 . S
H1332 C1338 0.949 . S
C1333 H1328 0.950 . S
C1333 C1335 1.327 . S
C1333 C1339 1.429 . S
C1334 C1326 1.574 . S
C1334 H1329 0.949 . S
C1334 C1340 1.368 . S
C1335 C1319 1.349 . S
C1335 H1327 0.950 . S
C1335 C1333 1.327 . S
C1336 C1324 1.349 . S
C1336 H1330 0.950 . S
C1336 C1337 1.327 . S
C1337 H1331 0.950 . S
C1337 C1336 1.327 . S
C1337 C1341 1.429 . S
C1338 C1321 1.574 . S
C1338 H1332 0.949 . S
C1338 C1342 1.368 . S
C1339 C1320 1.429 . S
C1339 C1333 1.429 . S
C1339 C1340 1.523 . S
C1340 C1321 1.368 . S
C1340 C1334 1.368 . S
C1340 C1339 1.523 . S
C1341 C1325 1.429 . S
C1341 C1337 1.429 . S
C1341 C1342 1.523 . S
C1342 C1326 1.368 . S
C1342 C1338 1.368 . S
C1342 C1341 1.523 . S
H1343 C1318 0.950 . S
H1344 C1320 0.950 . S
H1345 C1321 0.949 . S
H1346 C1323 0.950 . S
H1347 C1325 0.950 . S
C1348 C1349 1.349 . S
C1348 C1350 1.327 . S
C1348 H1373 0.950 . S
C1349 C1348 1.349 . S
C1349 C1365 1.349 . S
C1350 C1348 1.327 . S
C1350 C1369 1.429 . S
C1350 H1374 0.950 . S
C1351 C1368 1.574 . S
C1351 C1370 1.368 . S
C1351 H1375 0.949 . S
H1352 C1356 0.949 . S
C1353 C1354 1.349 . S
C1353 C1355 1.327 . S
C1353 H1376 0.950 . S
C1354 C1353 1.349 . S
C1354 C1366 1.349 . S
C1355 C1353 1.327 . S
C1355 C1371 1.429 . S
C1355 H1377 0.950 . S
C1356 H1352 0.949 . S
C1356 C1364 1.574 . S
C1356 C1372 1.368 . S
H1357 C1365 0.950 . S
H1358 C1363 0.950 . S
H1359 C1364 0.949 . S
H1360 C1366 0.950 . S
H1361 C1367 0.950 . S
H1362 C1368 0.949 . S
C1363 H1358 0.950 . S
C1363 C1365 1.327 . S
C1363 C1369 1.429 . S
C1364 C1356 1.574 . S
C1364 H1359 0.949 . S
C1364 C1370 1.368 . S
C1365 C1349 1.349 . S
C1365 H1357 0.950 . S
C1365 C1363 1.327 . S
C1366 C1354 1.349 . S
C1366 H1360 0.950 . S
C1366 C1367 1.327 . S
C1367 H1361 0.950 . S
C1367 C1366 1.327 . S
C1367 C1371 1.429 . S
C1368 C1351 1.574 . S
C1368 H1362 0.949 . S
C1368 C1372 1.368 . S
C1369 C1350 1.429 . S
C1369 C1363 1.429 . S
C1369 C1370 1.523 . S
C1370 C1351 1.368 . S
C1370 C1364 1.368 . S
C1370 C1369 1.523 . S
C1371 C1355 1.429 . S
C1371 C1367 1.429 . S
C1371 C1372 1.523 . S
C1372 C1356 1.368 . S
C1372 C1368 1.368 . S
C1372 C1371 1.523 . S
H1373 C1348 0.950 . S
H1374 C1350 0.950 . S
H1375 C1351 0.949 . S
H1376 C1353 0.950 . S
H1377 C1355 0.950 . S
C1378 C1379 1.349 . S
C1378 C1380 1.327 . S
C1378 H1403 0.950 . S
C1379 C1378 1.349 . S
C1379 C1395 1.349 . S
C1380 C1378 1.327 . S
C1380 C1399 1.429 . S
C1380 H1404 0.950 . S
C1381 C1398 1.574 . S
C1381 C1400 1.368 . S
C1381 H1405 0.949 . S
H1382 C1386 0.949 . S
C1383 C1384 1.349 . S
C1383 C1385 1.327 . S
C1383 H1406 0.950 . S
C1384 C1383 1.349 . S
C1384 C1396 1.349 . S
C1385 C1383 1.327 . S
C1385 C1401 1.429 . S
C1385 H1407 0.950 . S
C1386 H1382 0.949 . S
C1386 C1394 1.574 . S
C1386 C1402 1.368 . S
H1387 C1395 0.950 . S
H1388 C1393 0.950 . S
H1389 C1394 0.949 . S
H1390 C1396 0.950 . S
H1391 C1397 0.950 . S
H1392 C1398 0.949 . S
C1393 H1388 0.950 . S
C1393 C1395 1.327 . S
C1393 C1399 1.429 . S
C1394 C1386 1.574 . S
C1394 H1389 0.949 . S
C1394 C1400 1.368 . S
C1395 C1379 1.349 . S
C1395 H1387 0.950 . S
C1395 C1393 1.327 . S
C1396 C1384 1.349 . S
C1396 H1390 0.950 . S
C1396 C1397 1.327 . S
C1397 H1391 0.950 . S
C1397 C1396 1.327 . S
C1397 C1401 1.429 . S
C1398 C1381 1.574 . S
C1398 H1392 0.949 . S
C1398 C1402 1.368 . S
C1399 C1380 1.429 . S
C1399 C1393 1.429 . S
C1399 C1400 1.523 . S
C1400 C1381 1.368 . S
C1400 C1394 1.368 . S
C1400 C1399 1.523 . S
C1401 C1385 1.429 . S
C1401 C1397 1.429 . S
C1401 C1402 1.523 . S
C1402 C1386 1.368 . S
C1402 C1398 1.368 . S
C1402 C1401 1.523 . S
H1403 C1378 0.950 . S
H1404 C1380 0.950 . S
H1405 C1381 0.949 . S
H1406 C1383 0.950 . S
H1407 C1385 0.950 . S
C1408 C1409 1.349 . S
C1408 C1410 1.327 . S
C1408 H1433 0.950 . S
C1409 C1408 1.349 . S
C1409 C1425 1.349 . S
C1410 C1408 1.327 . S
C1410 C1429 1.429 . S
C1410 H1434 0.950 . S
C1411 C1428 1.574 . S
C1411 C1430 1.368 . S
C1411 H1435 0.949 . S
H1412 C1416 0.949 . S
C1413 C1414 1.349 . S
C1413 C1415 1.327 . S
C1413 H1436 0.950 . S
C1414 C1413 1.349 . S
C1414 C1426 1.349 . S
C1415 C1413 1.327 . S
C1415 C1431 1.429 . S
C1415 H1437 0.950 . S
C1416 H1412 0.949 . S
C1416 C1424 1.574 . S
C1416 C1432 1.368 . S
H1417 C1425 0.950 . S
H1418 C1423 0.950 . S
H1419 C1424 0.949 . S
H1420 C1426 0.950 . S
H1421 C1427 0.950 . S
H1422 C1428 0.949 . S
C1423 H1418 0.950 . S
C1423 C1425 1.327 . S
C1423 C1429 1.429 . S
C1424 C1416 1.574 . S
C1424 H1419 0.949 . S
C1424 C1430 1.368 . S
C1425 C1409 1.349 . S
C1425 H1417 0.950 . S
C1425 C1423 1.327 . S
C1426 C1414 1.349 . S
C1426 H1420 0.950 . S
C1426 C1427 1.327 . S
C1427 H1421 0.950 . S
C1427 C1426 1.327 . S
C1427 C1431 1.429 . S
C1428 C1411 1.574 . S
C1428 H1422 0.949 . S
C1428 C1432 1.368 . S
C1429 C1410 1.429 . S
C1429 C1423 1.429 . S
C1429 C1430 1.523 . S
C1430 C1411 1.368 . S
C1430 C1424 1.368 . S
C1430 C1429 1.523 . S
C1431 C1415 1.429 . S
C1431 C1427 1.429 . S
C1431 C1432 1.523 . S
C1432 C1416 1.368 . S
C1432 C1428 1.368 . S
C1432 C1431 1.523 . S
H1433 C1408 0.950 . S
H1434 C1410 0.950 . S
H1435 C1411 0.949 . S
H1436 C1413 0.950 . S
H1437 C1415 0.950 . S
C1438 C1439 1.349 . S
C1438 C1440 1.327 . S
C1438 H1463 0.950 . S
C1439 C1438 1.349 . S
C1439 C1455 1.349 . S
C1440 C1438 1.327 . S
C1440 C1459 1.429 . S
C1440 H1464 0.950 . S
C1441 C1458 1.574 . S
C1441 C1460 1.368 . S
C1441 H1465 0.949 . S
H1442 C1446 0.949 . S
C1443 C1444 1.349 . S
C1443 C1445 1.327 . S
C1443 H1466 0.950 . S
C1444 C1443 1.349 . S
C1444 C1456 1.349 . S
C1445 C1443 1.327 . S
C1445 C1461 1.429 . S
C1445 H1467 0.950 . S
C1446 H1442 0.949 . S
C1446 C1454 1.574 . S
C1446 C1462 1.368 . S
H1447 C1455 0.950 . S
H1448 C1453 0.950 . S
H1449 C1454 0.949 . S
H1450 C1456 0.950 . S
H1451 C1457 0.950 . S
H1452 C1458 0.949 . S
C1453 H1448 0.950 . S
C1453 C1455 1.327 . S
C1453 C1459 1.429 . S
C1454 C1446 1.574 . S
C1454 H1449 0.949 . S
C1454 C1460 1.368 . S
C1455 C1439 1.349 . S
C1455 H1447 0.950 . S
C1455 C1453 1.327 . S
C1456 C1444 1.349 . S
C1456 H1450 0.950 . S
C1456 C1457 1.327 . S
C1457 H1451 0.950 . S
C1457 C1456 1.327 . S
C1457 C1461 1.429 . S
C1458 C1441 1.574 . S
C1458 H1452 0.949 . S
C1458 C1462 1.368 . S
C1459 C1440 1.429 . S
C1459 C1453 1.429 . S
C1459 C1460 1.523 . S
C1460 C1441 1.368 . S
C1460 C1454 1.368 . S
C1460 C1459 1.523 . S
C1461 C1445 1.429 . S
C1461 C1457 1.429 . S
C1461 C1462 1.523 . S
C1462 C1446 1.368 . S
C1462 C1458 1.368 . S
C1462 C1461 1.523 . S
H1463 C1438 0.950 . S
H1464 C1440 0.950 . S
H1465 C1441 0.949 . S
H1466 C1443 0.950 . S
H1467 C1445 0.950 . S
C1468 C1469 1.349 . S
C1468 C1470 1.327 . S
C1468 H1493 0.950 . S
C1469 C1468 1.349 . S
C1469 C1485 1.349 . S
C1470 C1468 1.327 . S
C1470 C1489 1.429 . S
C1470 H1494 0.950 . S
C1471 C1488 1.574 . S
C1471 C1490 1.368 . S
C1471 H1495 0.949 . S
H1472 C1476 0.949 . S
C1473 C1474 1.349 . S
C1473 C1475 1.327 . S
C1473 H1496 0.950 . S
C1474 C1473 1.349 . S
C1474 C1486 1.349 . S
C1475 C1473 1.327 . S
C1475 C1491 1.429 . S
C1475 H1497 0.950 . S
C1476 H1472 0.949 . S
C1476 C1484 1.574 . S
C1476 C1492 1.368 . S
H1477 C1485 0.950 . S
H1478 C1483 0.950 . S
H1479 C1484 0.949 . S
H1480 C1486 0.950 . S
H1481 C1487 0.950 . S
H1482 C1488 0.949 . S
C1483 H1478 0.950 . S
C1483 C1485 1.327 . S
C1483 C1489 1.429 . S
C1484 C1476 1.574 . S
C1484 H1479 0.949 . S
C1484 C1490 1.368 . S
C1485 C1469 1.349 . S
C1485 H1477 0.950 . S
C1485 C1483 1.327 . S
C1486 C1474 1.349 . S
C1486 H1480 0.950 . S
C1486 C1487 1.327 . S
C1487 H1481 0.950 . S
C1487 C1486 1.327 . S
C1487 C1491 1.429 . S
C1488 C1471 1.574 . S
C1488 H1482 0.949 . S
C1488 C1492 1.368 . S
C1489 C1470 1.429 . S
C1489 C1483 1.429 . S
C1489 C1490 1.523 . S
C1490 C1471 1.368 . S
C1490 C1484 1.368 . S
C1490 C1489 1.523 . S
C1491 C1475 1.429 . S
C1491 C1487 1.429 . S
C1491 C1492 1.523 . S
C1492 C1476 1.368 . S
C1492 C1488 1.368 . S
C1492 C1491 1.523 . S
H1493 C1468 0.950 . S
H1494 C1470 0.950 . S
H1495 C1471 0.949 . S
H1496 C1473 0.950 . S
H1497 C1475 0.950 . S
C1498 C1499 1.349 . S
C1498 C1500 1.327 . S
C1498 H1523 0.950 . S
C1499 C1498 1.349 . S
C1499 C1515 1.349 . S
C1500 C1498 1.327 . S
C1500 C1519 1.429 . S
C1500 H1524 0.950 . S
C1501 C1518 1.574 . S
C1501 C1520 1.368 . S
C1501 H1525 0.949 . S
H1502 C1506 0.949 . S
C1503 C1504 1.349 . S
C1503 C1505 1.327 . S
C1503 H1526 0.950 . S
C1504 C1503 1.349 . S
C1504 C1516 1.349 . S
C1505 C1503 1.327 . S
C1505 C1521 1.429 . S
C1505 H1527 0.950 . S
C1506 H1502 0.949 . S
C1506 C1514 1.574 . S
C1506 C1522 1.368 . S
H1507 C1515 0.950 . S
H1508 C1513 0.950 . S
H1509 C1514 0.949 . S
H1510 C1516 0.950 . S
H1511 C1517 0.950 . S
H1512 C1518 0.949 . S
C1513 H1508 0.950 . S
C1513 C1515 1.327 . S
C1513 C1519 1.429 . S
C1514 C1506 1.574 . S
C1514 H1509 0.949 . S
C1514 C1520 1.368 . S
C1515 C1499 1.349 . S
C1515 H1507 0.950 . S
C1515 C1513 1.327 . S
C1516 C1504 1.349 . S
C1516 H1510 0.950 . S
C1516 C1517 1.327 . S
C1517 H1511 0.950 . S
C1517 C1516 1.327 . S
C1517 C1521 1.429 . S
C1518 C1501 1.574 . S
C1518 H1512 0.949 . S
C1518 C1522 1.368 . S
C1519 C1500 1.429 . S
C1519 C1513 1.429 . S
C1519 C1520 1.523 . S
C1520 C1501 1.368 . S
C1520 C1514 1.368 . S
C1520 C1519 1.523 . S
C1521 C1505 1.429 . S
C1521 C1517 1.429 . S
C1521 C1522 1.523 . S
C1522 C1506 1.368 . S
C1522 C1518 1.368 . S
C1522 C1521 1.523 . S
H1523 C1498 0.950 . S
H1524 C1500 0.950 . S
H1525 C1501 0.949 . S
H1526 C1503 0.950 . S
H1527 C1505 0.950 . S
C1528 C1529 1.349 . S
C1528 C1530 1.327 . S
C1528 H1553 0.950 . S
C1529 C1528 1.349 . S
C1529 C1545 1.349 . S
C1530 C1528 1.327 . S
C1530 C1549 1.429 . S
C1530 H1554 0.950 . S
C1531 C1548 1.574 . S
C1531 C1550 1.368 . S
C1531 H1555 0.949 . S
H1532 C1536 0.949 . S
C1533 C1534 1.349 . S
C1533 C1535 1.327 . S
C1533 H1556 0.950 . S
C1534 C1533 1.349 . S
C1534 C1546 1.349 . S
C1535 C1533 1.327 . S
C1535 C1551 1.429 . S
C1535 H1557 0.950 . S
C1536 H1532 0.949 . S
C1536 C1544 1.574 . S
C1536 C1552 1.368 . S
H1537 C1545 0.950 . S
H1538 C1543 0.950 . S
H1539 C1544 0.949 . S
H1540 C1546 0.950 . S
H1541 C1547 0.950 . S
H1542 C1548 0.949 . S
C1543 H1538 0.950 . S
C1543 C1545 1.327 . S
C1543 C1549 1.429 . S
C1544 C1536 1.574 . S
C1544 H1539 0.949 . S
C1544 C1550 1.368 . S
C1545 C1529 1.349 . S
C1545 H1537 0.950 . S
C1545 C1543 1.327 . S
C1546 C1534 1.349 . S
C1546 H1540 0.950 . S
C1546 C1547 1.327 . S
C1547 H1541 0.950 . S
C1547 C1546 1.327 . S
C1547 C1551 1.429 . S
C1548 C1531 1.574 . S
C1548 H1542 0.949 . S
C1548 C1552 1.368 . S
C1549 C1530 1.429 . S
C1549 C1543 1.429 . S
C1549 C1550 1.523 . S
C1550 C1531 1.368 . S
C1550 C1544 1.368 . S
C1550 C1549 1.523 . S
C1551 C1535 1.429 . S
C1551 C1547 1.429 . S
C1551 C1552 1.523 . S
C1552 C1536 1.368 . S
C1552 C1548 1.368 . S
C1552 C1551 1.523 . S
H1553 C1528 0.950 . S
H1554 C1530 0.950 . S
H1555 C1531 0.949 . S
H1556 C1533 0.950 . S
H1557 C1535 0.950 . S
C1558 C1559 1.349 . S
C1558 C1560 1.327 . S
C1558 H1583 0.950 . S
C1559 C1558 1.349 . S
C1559 C1575 1.349 . S
C1560 C1558 1.327 . S
C1560 C1579 1.429 . S
C1560 H1584 0.950 . S
C1561 C1578 1.574 . S
C1561 C1580 1.368 . S
C1561 H1585 0.949 . S
H1562 C1566 0.949 . S
C1563 C1564 1.349 . S
C1563 C1565 1.327 . S
C1563 H1586 0.950 . S
C1564 C1563 1.349 . S
C1564 C1576 1.349 . S
C1565 C1563 1.327 . S
C1565 C1581 1.429 . S
C1565 H1587 0.950 . S
C1566 H1562 0.949 . S
C1566 C1574 1.574 . S
C1566 C1582 1.368 . S
H1567 C1575 0.950 . S
H1568 C1573 0.950 . S
H1569 C1574 0.949 . S
H1570 C1576 0.950 . S
H1571 C1577 0.950 . S
H1572 C1578 0.949 . S
C1573 H1568 0.950 . S
C1573 C1575 1.327 . S
C1573 C1579 1.429 . S
C1574 C1566 1.574 . S
C1574 H1569 0.949 . S
C1574 C1580 1.368 . S
C1575 C1559 1.349 . S
C1575 H1567 0.950 . S
C1575 C1573 1.327 . S
C1576 C1564 1.349 . S
C1576 H1570 0.950 . S
C1576 C1577 1.327 . S
C1577 H1571 0.950 . S
C1577 C1576 1.327 . S
C1577 C1581 1.429 . S
C1578 C1561 1.574 . S
C1578 H1572 0.949 . S
C1578 C1582 1.368 . S
C1579 C1560 1.429 . S
C1579 C1573 1.429 . S
C1579 C1580 1.523 . S
C1580 C1561 1.368 . S
C1580 C1574 1.368 . S
C1580 C1579 1.523 . S
C1581 C1565 1.429 . S
C1581 C1577 1.429 . S
C1581 C1582 1.523 . S
C1582 C1566 1.368 . S
C1582 C1578 1.368 . S
C1582 C1581 1.523 . S
H1583 C1558 0.950 . S
H1584 C1560 0.950 . S
H1585 C1561 0.949 . S
H1586 C1563 0.950 . S
H1587 C1565 0.950 . S
C1588 C1589 1.349 . S
C1588 C1590 1.327 . S
C1588 H1613 0.950 . S
C1589 C1588 1.349 . S
C1589 C1605 1.349 . S
C1590 C1588 1.327 . S
C1590 C1609 1.429 . S
C1590 H1614 0.950 . S
C1591 C1608 1.574 . S
C1591 C1610 1.368 . S
C1591 H1615 0.949 . S
H1592 C1596 0.949 . S
C1593 C1594 1.349 . S
C1593 C1595 1.327 . S
C1593 H1616 0.950 . S
C1594 C1593 1.349 . S
C1594 C1606 1.349 . S
C1595 C1593 1.327 . S
C1595 C1611 1.429 . S
C1595 H1617 0.950 . S
C1596 H1592 0.949 . S
C1596 C1604 1.574 . S
C1596 C1612 1.368 . S
H1597 C1605 0.950 . S
H1598 C1603 0.950 . S
H1599 C1604 0.949 . S
H1600 C1606 0.950 . S
H1601 C1607 0.950 . S
H1602 C1608 0.949 . S
C1603 H1598 0.950 . S
C1603 C1605 1.327 . S
C1603 C1609 1.429 . S
C1604 C1596 1.574 . S
C1604 H1599 0.949 . S
C1604 C1610 1.368 . S
C1605 C1589 1.349 . S
C1605 H1597 0.950 . S
C1605 C1603 1.327 . S
C1606 C1594 1.349 . S
C1606 H1600 0.950 . S
C1606 C1607 1.327 . S
C1607 H1601 0.950 . S
C1607 C1606 1.327 . S
C1607 C1611 1.429 . S
C1608 C1591 1.574 . S
C1608 H1602 0.949 . S
C1608 C1612 1.368 . S
C1609 C1590 1.429 . S
C1609 C1603 1.429 . S
C1609 C1610 1.523 . S
C1610 C1591 1.368 . S
C1610 C1604 1.368 . S
C1610 C1609 1.523 . S
C1611 C1595 1.429 . S
C1611 C1607 1.429 . S
C1611 C1612 1.523 . S
C1612 C1596 1.368 . S
C1612 C1608 1.368 . S
C1612 C1611 1.523 . S
H1613 C1588 0.950 . S
H1614 C1590 0.950 . S
H1615 C1591 0.949 . S
H1616 C1593 0.950 . S
H1617 C1595 0.950 . S
C1618 C1619 1.349 . S
C1618 C1620 1.327 . S
C1618 H1643 0.950 . S
C1619 C1618 1.349 . S
C1619 C1635 1.349 . S
C1620 C1618 1.327 . S
C1620 C1639 1.429 . S
C1620 H1644 0.950 . S
C1621 C1638 1.574 . S
C1621 C1640 1.368 . S
C1621 H1645 0.949 . S
H1622 C1626 0.949 . S
C1623 C1624 1.349 . S
C1623 C1625 1.327 . S
C1623 H1646 0.950 . S
C1624 C1623 1.349 . S
C1624 C1636 1.349 . S
C1625 C1623 1.327 . S
C1625 C1641 1.429 . S
C1625 H1647 0.950 . S
C1626 H1622 0.949 . S
C1626 C1634 1.574 . S
C1626 C1642 1.368 . S
H1627 C1635 0.950 . S
H1628 C1633 0.950 . S
H1629 C1634 0.949 . S
H1630 C1636 0.950 . S
H1631 C1637 0.950 . S
H1632 C1638 0.949 . S
C1633 H1628 0.950 . S
C1633 C1635 1.327 . S
C1633 C1639 1.429 . S
C1634 C1626 1.574 . S
C1634 H1629 0.949 . S
C1634 C1640 1.368 . S
C1635 C1619 1.349 . S
C1635 H1627 0.950 . S
C1635 C1633 1.327 . S
C1636 C1624 1.349 . S
C1636 H1630 0.950 . S
C1636 C1637 1.327 . S
C1637 H1631 0.950 . S
C1637 C1636 1.327 . S
C1637 C1641 1.429 . S
C1638 C1621 1.574 . S
C1638 H1632 0.949 . S
C1638 C1642 1.368 . S
C1639 C1620 1.429 . S
C1639 C1633 1.429 . S
C1639 C1640 1.523 . S
C1640 C1621 1.368 . S
C1640 C1634 1.368 . S
C1640 C1639 1.523 . S
C1641 C1625 1.429 . S
C1641 C1637 1.429 . S
C1641 C1642 1.523 . S
C1642 C1626 1.368 . S
C1642 C1638 1.368 . S
C1642 C1641 1.523 . S
H1643 C1618 0.950 . S
H1644 C1620 0.950 . S
H1645 C1621 0.949 . S
H1646 C1623 0.950 . S
H1647 C1625 0.950 . S
C1648 C1649 1.349 . S
C1648 C1650 1.327 . S
C1648 H1673 0.950 . S
C1649 C1648 1.349 . S
C1649 C1665 1.349 . S
C1650 C1648 1.327 . S
C1650 C1669 1.429 . S
C1650 H1674 0.950 . S
C1651 C1668 1.574 1_554 S
C1651 C1670 1.368 . S
C1651 H1675 0.949 . S
H1652 C1656 0.949 . S
C1653 C1654 1.349 . S
C1653 C1655 1.327 . S
C1653 H1676 0.950 . S
C1654 C1653 1.349 . S
C1654 C1666 1.349 . S
C1655 C1653 1.327 . S
C1655 C1671 1.429 . S
C1655 H1677 0.950 . S
C1656 H1652 0.949 . S
C1656 C1664 1.574 1_556 S
C1656 C1672 1.368 . S
H1657 C1665 0.950 . S
H1658 C1663 0.950 . S
H1659 C1664 0.949 . S
H1660 C1666 0.950 . S
H1661 C1667 0.950 . S
H1662 C1668 0.949 . S
C1663 H1658 0.950 . S
C1663 C1665 1.327 . S
C1663 C1669 1.429 . S
C1664 C1656 1.574 1_554 S
C1664 H1659 0.949 . S
C1664 C1670 1.368 . S
C1665 C1649 1.349 . S
C1665 H1657 0.950 . S
C1665 C1663 1.327 . S
C1666 C1654 1.349 . S
C1666 H1660 0.950 . S
C1666 C1667 1.327 . S
C1667 H1661 0.950 . S
C1667 C1666 1.327 . S
C1667 C1671 1.429 . S
C1668 C1651 1.574 1_556 S
C1668 H1662 0.949 . S
C1668 C1672 1.368 . S
C1669 C1650 1.429 . S
C1669 C1663 1.429 . S
C1669 C1670 1.523 . S
C1670 C1651 1.368 . S
C1670 C1664 1.368 . S
C1670 C1669 1.523 . S
C1671 C1655 1.429 . S
C1671 C1667 1.429 . S
C1671 C1672 1.523 . S
C1672 C1656 1.368 . S
C1672 C1668 1.368 . S
C1672 C1671 1.523 . S
H1673 C1648 0.950 . S
H1674 C1650 0.950 . S
H1675 C1651 0.949 . S
H1676 C1653 0.950 . S
H1677 C1655 0.950 . S
C1678 C1679 1.349 . S
C1678 C1680 1.327 . S
C1678 H1703 0.950 . S
C1679 C1678 1.349 . S
C1679 C1695 1.349 . S
C1680 C1678 1.327 . S
C1680 C1699 1.429 . S
C1680 H1704 0.950 . S
C1681 C1698 1.574 1_556 S
C1681 C1700 1.368 . S
C1681 H1705 0.949 . S
H1682 C1686 0.949 . S
C1683 C1684 1.349 . S
C1683 C1685 1.327 . S
C1683 H1706 0.950 . S
C1684 C1683 1.349 . S
C1684 C1696 1.349 . S
C1685 C1683 1.327 . S
C1685 C1701 1.429 . S
C1685 H1707 0.950 . S
C1686 H1682 0.949 . S
C1686 C1694 1.574 1_554 S
C1686 C1702 1.368 . S
H1687 C1695 0.950 . S
H1688 C1693 0.950 . S
H1689 C1694 0.949 . S
H1690 C1696 0.950 . S
H1691 C1697 0.950 . S
H1692 C1698 0.949 . S
C1693 H1688 0.950 . S
C1693 C1695 1.327 . S
C1693 C1699 1.429 . S
C1694 C1686 1.574 1_556 S
C1694 H1689 0.949 . S
C1694 C1700 1.368 . S
C1695 C1679 1.349 . S
C1695 H1687 0.950 . S
C1695 C1693 1.327 . S
C1696 C1684 1.349 . S
C1696 H1690 0.950 . S
C1696 C1697 1.327 . S
C1697 H1691 0.950 . S
C1697 C1696 1.327 . S
C1697 C1701 1.429 . S
C1698 C1681 1.574 1_554 S
C1698 H1692 0.949 . S
C1698 C1702 1.368 . S
C1699 C1680 1.429 . S
C1699 C1693 1.429 . S
C1699 C1700 1.523 . S
C1700 C1681 1.368 . S
C1700 C1694 1.368 . S
C1700 C1699 1.523 . S
C1701 C1685 1.429 . S
C1701 C1697 1.429 . S
C1701 C1702 1.523 . S
C1702 C1686 1.368 . S
C1702 C1698 1.368 . S
C1702 C1701 1.523 . S
H1703 C1678 0.950 . S
H1704 C1680 0.950 . S
H1705 C1681 0.949 . S
H1706 C1683 0.950 . S
H1707 C1685 0.950 . S
C1708 C1709 1.349 . S
C1708 C1710 1.327 . S
C1708 H1733 0.950 . S
C1709 C1708 1.349 . S
C1709 C1725 1.349 . S
C1710 C1708 1.327 . S
C1710 C1729 1.429 . S
C1710 H1734 0.950 . S
C1711 C1728 1.574 1_554 S
C1711 C1730 1.368 . S
C1711 H1735 0.949 . S
H1712 C1716 0.949 . S
C1713 C1714 1.349 . S
C1713 C1715 1.327 . S
C1713 H1736 0.950 . S
C1714 C1713 1.349 . S
C1714 C1726 1.349 . S
C1715 C1713 1.327 . S
C1715 C1731 1.429 . S
C1715 H1737 0.950 . S
C1716 H1712 0.949 . S
C1716 C1724 1.574 1_556 S
C1716 C1732 1.368 . S
H1717 C1725 0.950 . S
H1718 C1723 0.950 . S
H1719 C1724 0.949 . S
H1720 C1726 0.950 . S
H1721 C1727 0.950 . S
H1722 C1728 0.949 . S
C1723 H1718 0.950 . S
C1723 C1725 1.327 . S
C1723 C1729 1.429 . S
C1724 C1716 1.574 1_554 S
C1724 H1719 0.949 . S
C1724 C1730 1.368 . S
C1725 C1709 1.349 . S
C1725 H1717 0.950 . S
C1725 C1723 1.327 . S
C1726 C1714 1.349 . S
C1726 H1720 0.950 . S
C1726 C1727 1.327 . S
C1727 H1721 0.950 . S
C1727 C1726 1.327 . S
C1727 C1731 1.429 . S
C1728 C1711 1.574 1_556 S
C1728 H1722 0.949 . S
C1728 C1732 1.368 . S
C1729 C1710 1.429 . S
C1729 C1723 1.429 . S
C1729 C1730 1.523 . S
C1730 C1711 1.368 . S
C1730 C1724 1.368 . S
C1730 C1729 1.523 . S
C1731 C1715 1.429 . S
C1731 C1727 1.429 . S
C1731 C1732 1.523 . S
C1732 C1716 1.368 . S
C1732 C1728 1.368 . S
C1732 C1731 1.523 . S
H1733 C1708 0.950 . S
H1734 C1710 0.950 . S
H1735 C1711 0.949 . S
H1736 C1713 0.950 . S
H1737 C1715 0.950 . S
C1738 C1739 1.349 . S
C1738 C1740 1.327 . S
C1738 H1763 0.950 . S
C1739 C1738 1.349 . S
C1739 C1755 1.349 . S
C1740 C1738 1.327 . S
C1740 C1759 1.429 . S
C1740 H1764 0.950 . S
C1741 C1758 1.574 1_554 S
C1741 C1760 1.368 . S
C1741 H1765 0.949 . S
H1742 C1746 0.949 . S
C1743 C1744 1.349 . S
C1743 C1745 1.327 . S
C1743 H1766 0.950 . S
C1744 C1743 1.349 . S
C1744 C1756 1.349 . S
C1745 C1743 1.327 . S
C1745 C1761 1.429 . S
C1745 H1767 0.950 . S
C1746 H1742 0.949 . S
C1746 C1754 1.574 1_556 S
C1746 C1762 1.368 . S
H1747 C1755 0.950 . S
H1748 C1753 0.950 . S
H1749 C1754 0.949 . S
H1750 C1756 0.950 . S
H1751 C1757 0.950 . S
H1752 C1758 0.949 . S
C1753 H1748 0.950 . S
C1753 C1755 1.327 . S
C1753 C1759 1.429 . S
C1754 C1746 1.574 1_554 S
C1754 H1749 0.949 . S
C1754 C1760 1.368 . S
C1755 C1739 1.349 . S
C1755 H1747 0.950 . S
C1755 C1753 1.327 . S
C1756 C1744 1.349 . S
C1756 H1750 0.950 . S
C1756 C1757 1.327 . S
C1757 H1751 0.950 . S
C1757 C1756 1.327 . S
C1757 C1761 1.429 . S
C1758 C1741 1.574 1_556 S
C1758 H1752 0.949 . S
C1758 C1762 1.368 . S
C1759 C1740 1.429 . S
C1759 C1753 1.429 . S
C1759 C1760 1.523 . S
C1760 C1741 1.368 . S
C1760 C1754 1.368 . S
C1760 C1759 1.523 . S
C1761 C1745 1.429 . S
C1761 C1757 1.429 . S
C1761 C1762 1.523 . S
C1762 C1746 1.368 . S
C1762 C1758 1.368 . S
C1762 C1761 1.523 . S
H1763 C1738 0.950 . S
H1764 C1740 0.950 . S
H1765 C1741 0.949 . S
H1766 C1743 0.950 . S
H1767 C1745 0.950 . S
C1768 C1769 1.349 . S
C1768 C1770 1.327 . S
C1768 H1793 0.950 . S
C1769 C1768 1.349 . S
C1769 C1785 1.349 . S
C1770 C1768 1.327 . S
C1770 C1789 1.429 . S
C1770 H1794 0.950 . S
C1771 C1788 1.574 1_554 S
C1771 C1790 1.368 . S
C1771 H1795 0.949 . S
H1772 C1776 0.949 . S
C1773 C1774 1.349 . S
C1773 C1775 1.327 . S
C1773 H1796 0.950 . S
C1774 C1773 1.349 . S
C1774 C1786 1.349 . S
C1775 C1773 1.327 . S
C1775 C1791 1.429 . S
C1775 H1797 0.950 . S
C1776 H1772 0.949 . S
C1776 C1784 1.574 1_556 S
C1776 C1792 1.368 . S
H1777 C1785 0.950 . S
H1778 C1783 0.950 . S
H1779 C1784 0.949 . S
H1780 C1786 0.950 . S
H1781 C1787 0.950 . S
H1782 C1788 0.949 . S
C1783 H1778 0.950 . S
C1783 C1785 1.327 . S
C1783 C1789 1.429 . S
C1784 C1776 1.574 1_554 S
C1784 H1779 0.949 . S
C1784 C1790 1.368 . S
C1785 C1769 1.349 . S
C1785 H1777 0.950 . S
C1785 C1783 1.327 . S
C1786 C1774 1.349 . S
C1786 H1780 0.950 . S
C1786 C1787 1.327 . S
C1787 H1781 0.950 . S
C1787 C1786 1.327 . S
C1787 C1791 1.429 . S
C1788 C1771 1.574 1_556 S
C1788 H1782 0.949 . S
C1788 C1792 1.368 . S
C1789 C1770 1.429 . S
C1789 C1783 1.429 . S
C1789 C1790 1.523 . S
C1790 C1771 1.368 . S
C1790 C1784 1.368 . S
C1790 C1789 1.523 . S
C1791 C1775 1.429 . S
C1791 C1787 1.429 . S
C1791 C1792 1.523 . S
C1792 C1776 1.368 . S
C1792 C1788 1.368 . S
C1792 C1791 1.523 . S
H1793 C1768 0.950 . S
H1794 C1770 0.950 . S
H1795 C1771 0.949 . S
H1796 C1773 0.950 . S
H1797 C1775 0.950 . S
C1798 C1799 1.349 . S
C1798 C1800 1.327 . S
C1798 H1823 0.950 . S
C1799 C1798 1.349 . S
C1799 C1815 1.349 . S
C1800 C1798 1.327 . S
C1800 C1819 1.429 . S
C1800 H1824 0.950 . S
C1801 C1818 1.574 1_554 S
C1801 C1820 1.368 . S
C1801 H1825 0.949 . S
H1802 C1806 0.949 . S
C1803 C1804 1.349 . S
C1803 C1805 1.327 . S
C1803 H1826 0.950 . S
C1804 C1803 1.349 . S
C1804 C1816 1.349 . S
C1805 C1803 1.327 . S
C1805 C1821 1.429 . S
C1805 H1827 0.950 . S
C1806 H1802 0.949 . S
C1806 C1814 1.574 1_556 S
C1806 C1822 1.368 . S
H1807 C1815 0.950 . S
H1808 C1813 0.950 . S
H1809 C1814 0.949 . S
H1810 C1816 0.950 . S
H1811 C1817 0.950 . S
H1812 C1818 0.949 . S
C1813 H1808 0.950 . S
C1813 C1815 1.327 . S
C1813 C1819 1.429 . S
C1814 C1806 1.574 1_554 S
C1814 H1809 0.949 . S
C1814 C1820 1.368 . S
C1815 C1799 1.349 . S
C1815 H1807 0.950 . S
C1815 C1813 1.327 . S
C1816 C1804 1.349 . S
C1816 H1810 0.950 . S
C1816 C1817 1.327 . S
C1817 H1811 0.950 . S
C1817 C1816 1.327 . S
C1817 C1821 1.429 . S
C1818 C1801 1.574 1_556 S
C1818 H1812 0.949 . S
C1818 C1822 1.368 . S
C1819 C1800 1.429 . S
C1819 C1813 1.429 . S
C1819 C1820 1.523 . S
C1820 C1801 1.368 . S
C1820 C1814 1.368 . S
C1820 C1819 1.523 . S
C1821 C1805 1.429 . S
C1821 C1817 1.429 . S
C1821 C1822 1.523 . S
C1822 C1806 1.368 . S
C1822 C1818 1.368 . S
C1822 C1821 1.523 . S
H1823 C1798 0.950 . S
H1824 C1800 0.950 . S
H1825 C1801 0.949 . S
H1826 C1803 0.950 . S
H1827 C1805 0.950 . S
C1828 C1829 1.349 . S
C1828 C1830 1.327 . S
C1828 H1853 0.950 . S
C1829 C1828 1.349 . S
C1829 C1845 1.349 . S
C1830 C1828 1.327 . S
C1830 C1849 1.429 . S
C1830 H1854 0.950 . S
C1831 C1848 1.574 1_556 S
C1831 C1850 1.368 . S
C1831 H1855 0.949 . S
H1832 C1836 0.949 . S
C1833 C1834 1.349 . S
C1833 C1835 1.327 . S
C1833 H1856 0.950 . S
C1834 C1833 1.349 . S
C1834 C1846 1.349 . S
C1835 C1833 1.327 . S
C1835 C1851 1.429 . S
C1835 H1857 0.950 . S
C1836 H1832 0.949 . S
C1836 C1844 1.574 1_554 S
C1836 C1852 1.368 . S
H1837 C1845 0.950 . S
H1838 C1843 0.950 . S
H1839 C1844 0.949 . S
H1840 C1846 0.950 . S
H1841 C1847 0.950 . S
H1842 C1848 0.949 . S
C1843 H1838 0.950 . S
C1843 C1845 1.327 . S
C1843 C1849 1.429 . S
C1844 C1836 1.574 1_556 S
C1844 H1839 0.949 . S
C1844 C1850 1.368 . S
C1845 C1829 1.349 . S
C1845 H1837 0.950 . S
C1845 C1843 1.327 . S
C1846 C1834 1.349 . S
C1846 H1840 0.950 . S
C1846 C1847 1.327 . S
C1847 H1841 0.950 . S
C1847 C1846 1.327 . S
C1847 C1851 1.429 . S
C1848 C1831 1.574 1_554 S
C1848 H1842 0.949 . S
C1848 C1852 1.368 . S
C1849 C1830 1.429 . S
C1849 C1843 1.429 . S
C1849 C1850 1.523 . S
C1850 C1831 1.368 . S
C1850 C1844 1.368 . S
C1850 C1849 1.523 . S
C1851 C1835 1.429 . S
C1851 C1847 1.429 . S
C1851 C1852 1.523 . S
C1852 C1836 1.368 . S
C1852 C1848 1.368 . S
C1852 C1851 1.523 . S
H1853 C1828 0.950 . S
H1854 C1830 0.950 . S
H1855 C1831 0.949 . S
H1856 C1833 0.950 . S
H1857 C1835 0.950 . S
C1858 C1859 1.349 . S
C1858 C1860 1.327 . S
C1858 H1883 0.950 . S
C1859 C1858 1.349 . S
C1859 C1875 1.349 . S
C1860 C1858 1.327 . S
C1860 C1879 1.429 . S
C1860 H1884 0.950 . S
C1861 C1878 1.574 1_556 S
C1861 C1880 1.368 . S
C1861 H1885 0.949 . S
H1862 C1866 0.949 . S
C1863 C1864 1.349 . S
C1863 C1865 1.327 . S
C1863 H1886 0.950 . S
C1864 C1863 1.349 . S
C1864 C1876 1.349 . S
C1865 C1863 1.327 . S
C1865 C1881 1.429 . S
C1865 H1887 0.950 . S
C1866 H1862 0.949 . S
C1866 C1874 1.574 1_554 S
C1866 C1882 1.368 . S
H1867 C1875 0.950 . S
H1868 C1873 0.950 . S
H1869 C1874 0.949 . S
H1870 C1876 0.950 . S
H1871 C1877 0.950 . S
H1872 C1878 0.949 . S
C1873 H1868 0.950 . S
C1873 C1875 1.327 . S
C1873 C1879 1.429 . S
C1874 C1866 1.574 1_556 S
C1874 H1869 0.949 . S
C1874 C1880 1.368 . S
C1875 C1859 1.349 . S
C1875 H1867 0.950 . S
C1875 C1873 1.327 . S
C1876 C1864 1.349 . S
C1876 H1870 0.950 . S
C1876 C1877 1.327 . S
C1877 H1871 0.950 . S
C1877 C1876 1.327 . S
C1877 C1881 1.429 . S
C1878 C1861 1.574 1_554 S
C1878 H1872 0.949 . S
C1878 C1882 1.368 . S
C1879 C1860 1.429 . S
C1879 C1873 1.429 . S
C1879 C1880 1.523 . S
C1880 C1861 1.368 . S
C1880 C1874 1.368 . S
C1880 C1879 1.523 . S
C1881 C1865 1.429 . S
C1881 C1877 1.429 . S
C1881 C1882 1.523 . S
C1882 C1866 1.368 . S
C1882 C1878 1.368 . S
C1882 C1881 1.523 . S
H1883 C1858 0.950 . S
H1884 C1860 0.950 . S
H1885 C1861 0.949 . S
H1886 C1863 0.950 . S
H1887 C1865 0.950 . S
C1888 C1889 1.349 . S
C1888 C1890 1.327 . S
C1888 H1913 0.950 . S
C1889 C1888 1.349 . S
C1889 C1905 1.349 . S
C1890 C1888 1.327 . S
C1890 C1909 1.429 . S
C1890 H1914 0.950 . S
C1891 C1908 1.574 . S
C1891 C1910 1.368 . S
C1891 H1915 0.949 . S
H1892 C1896 0.949 . S
C1893 C1894 1.349 . S
C1893 C1895 1.327 . S
C1893 H1916 0.950 . S
C1894 C1893 1.349 . S
C1894 C1906 1.349 . S
C1895 C1893 1.327 . S
C1895 C1911 1.429 . S
C1895 H1917 0.950 . S
C1896 H1892 0.949 . S
C1896 C1904 1.574 . S
C1896 C1912 1.368 . S
H1897 C1905 0.950 . S
H1898 C1903 0.950 . S
H1899 C1904 0.949 . S
H1900 C1906 0.950 . S
H1901 C1907 0.950 . S
H1902 C1908 0.949 . S
C1903 H1898 0.950 . S
C1903 C1905 1.327 . S
C1903 C1909 1.429 . S
C1904 C1896 1.574 . S
C1904 H1899 0.949 . S
C1904 C1910 1.368 . S
C1905 C1889 1.349 . S
C1905 H1897 0.950 . S
C1905 C1903 1.327 . S
C1906 C1894 1.349 . S
C1906 H1900 0.950 . S
C1906 C1907 1.327 . S
C1907 H1901 0.950 . S
C1907 C1906 1.327 . S
C1907 C1911 1.429 . S
C1908 C1891 1.574 . S
C1908 H1902 0.949 . S
C1908 C1912 1.368 . S
C1909 C1890 1.429 . S
C1909 C1903 1.429 . S
C1909 C1910 1.523 . S
C1910 C1891 1.368 . S
C1910 C1904 1.368 . S
C1910 C1909 1.523 . S
C1911 C1895 1.429 . S
C1911 C1907 1.429 . S
C1911 C1912 1.523 . S
C1912 C1896 1.368 . S
C1912 C1908 1.368 . S
C1912 C1911 1.523 . S
H1913 C1888 0.950 . S
H1914 C1890 0.950 . S
H1915 C1891 0.949 . S
H1916 C1893 0.950 . S
H1917 C1895 0.950 . S
C1918 C1919 1.349 . S
C1918 C1920 1.327 . S
C1918 H1943 0.950 . S
C1919 C1918 1.349 . S
C1919 C1935 1.349 . S
C1920 C1918 1.327 . S
C1920 C1939 1.429 . S
C1920 H1944 0.950 . S
C1921 C1938 1.574 . S
C1921 C1940 1.368 . S
C1921 H1945 0.949 . S
H1922 C1926 0.949 . S
C1923 C1924 1.349 . S
C1923 C1925 1.327 . S
C1923 H1946 0.950 . S
C1924 C1923 1.349 . S
C1924 C1936 1.349 . S
C1925 C1923 1.327 . S
C1925 C1941 1.429 . S
C1925 H1947 0.950 . S
C1926 H1922 0.949 . S
C1926 C1934 1.574 . S
C1926 C1942 1.368 . S
H1927 C1935 0.950 . S
H1928 C1933 0.950 . S
H1929 C1934 0.949 . S
H1930 C1936 0.950 . S
H1931 C1937 0.950 . S
H1932 C1938 0.949 . S
C1933 H1928 0.950 . S
C1933 C1935 1.327 . S
C1933 C1939 1.429 . S
C1934 C1926 1.574 . S
C1934 H1929 0.949 . S
C1934 C1940 1.368 . S
C1935 C1919 1.349 . S
C1935 H1927 0.950 . S
C1935 C1933 1.327 . S
C1936 C1924 1.349 . S
C1936 H1930 0.950 . S
C1936 C1937 1.327 . S
C1937 H1931 0.950 . S
C1937 C1936 1.327 . S
C1937 C1941 1.429 . S
C1938 C1921 1.574 . S
C1938 H1932 0.949 . S
C1938 C1942 1.368 . S
C1939 C1920 1.429 . S
C1939 C1933 1.429 . S
C1939 C1940 1.523 . S
C1940 C1921 1.368 . S
C1940 C1934 1.368 . S
C1940 C1939 1.523 . S
C1941 C1925 1.429 . S
C1941 C1937 1.429 . S
C1941 C1942 1.523 . S
C1942 C1926 1.368 . S
C1942 C1938 1.368 . S
C1942 C1941 1.523 . S
H1943 C1918 0.950 . S
H1944 C1920 0.950 . S
H1945 C1921 0.949 . S
H1946 C1923 0.950 . S
H1947 C1925 0.950 . S
C1948 C1949 1.349 . S
C1948 C1950 1.327 . S
C1948 H1973 0.950 . S
C1949 C1948 1.349 . S
C1949 C1965 1.349 . S
C1950 C1948 1.327 . S
C1950 C1969 1.429 . S
C1950 H1974 0.950 . S
C1951 C1968 1.574 . S
C1951 C1970 1.368 . S
C1951 H1975 0.949 . S
H1952 C1956 0.949 . S
C1953 C1954 1.349 . S
C1953 C1955 1.327 . S
C1953 H1976 0.950 . S
C1954 C1953 1.349 . S
C1954 C1966 1.349 . S
C1955 C1953 1.327 . S
C1955 C1971 1.429 . S
C1955 H1977 0.950 . S
C1956 H1952 0.949 . S
C1956 C1964 1.574 . S
C1956 C1972 1.368 . S
H1957 C1965 0.950 . S
H1958 C1963 0.950 . S
H1959 C1964 0.949 . S
H1960 C1966 0.950 . S
H1961 C1967 0.950 . S
H1962 C1968 0.949 . S
C1963 H1958 0.950 . S
C1963 C1965 1.327 . S
C1963 C1969 1.429 . S
C1964 C1956 1.574 . S
C1964 H1959 0.949 . S
C1964 C1970 1.368 . S
C1965 C1949 1.349 . S
C1965 H1957 0.950 . S
C1965 C1963 1.327 . S
C1966 C1954 1.349 . S
C1966 H1960 0.950 . S
C1966 C1967 1.327 . S
C1967 H1961 0.950 . S
C1967 C1966 1.327 . S
C1967 C1971 1.429 . S
C1968 C1951 1.574 . S
C1968 H1962 0.949 . S
C1968 C1972 1.368 . S
C1969 C1950 1.429 . S
C1969 C1963 1.429 . S
C1969 C1970 1.523 . S
C1970 C1951 1.368 . S
C1970 C1964 1.368 . S
C1970 C1969 1.523 . S
C1971 C1955 1.429 . S
C1971 C1967 1.429 . S
C1971 C1972 1.523 . S
C1972 C1956 1.368 . S
C1972 C1968 1.368 . S
C1972 C1971 1.523 . S
H1973 C1948 0.950 . S
H1974 C1950 0.950 . S
H1975 C1951 0.949 . S
H1976 C1953 0.950 . S
H1977 C1955 0.950 . S
C1978 C1979 1.349 . S
C1978 C1980 1.327 . S
C1978 H2003 0.950 . S
C1979 C1978 1.349 . S
C1979 C1995 1.349 . S
C1980 C1978 1.327 . S
C1980 C1999 1.429 . S
C1980 H2004 0.950 . S
C1981 C1998 1.574 . S
C1981 C2000 1.368 . S
C1981 H2005 0.949 . S
H1982 C1986 0.949 . S
C1983 C1984 1.349 . S
C1983 C1985 1.327 . S
C1983 H2006 0.950 . S
C1984 C1983 1.349 . S
C1984 C1996 1.349 . S
C1985 C1983 1.327 . S
C1985 C2001 1.429 . S
C1985 H2007 0.950 . S
C1986 H1982 0.949 . S
C1986 C1994 1.574 . S
C1986 C2002 1.368 . S
H1987 C1995 0.950 . S
H1988 C1993 0.950 . S
H1989 C1994 0.949 . S
H1990 C1996 0.950 . S
H1991 C1997 0.950 . S
H1992 C1998 0.949 . S
C1993 H1988 0.950 . S
C1993 C1995 1.327 . S
C1993 C1999 1.429 . S
C1994 C1986 1.574 . S
C1994 H1989 0.949 . S
C1994 C2000 1.368 . S
C1995 C1979 1.349 . S
C1995 H1987 0.950 . S
C1995 C1993 1.327 . S
C1996 C1984 1.349 . S
C1996 H1990 0.950 . S
C1996 C1997 1.327 . S
C1997 H1991 0.950 . S
C1997 C1996 1.327 . S
C1997 C2001 1.429 . S
C1998 C1981 1.574 . S
C1998 H1992 0.949 . S
C1998 C2002 1.368 . S
C1999 C1980 1.429 . S
C1999 C1993 1.429 . S
C1999 C2000 1.523 . S
C2000 C1981 1.368 . S
C2000 C1994 1.368 . S
C2000 C1999 1.523 . S
C2001 C1985 1.429 . S
C2001 C1997 1.429 . S
C2001 C2002 1.523 . S
C2002 C1986 1.368 . S
C2002 C1998 1.368 . S
C2002 C2001 1.523 . S
H2003 C1978 0.950 . S
H2004 C1980 0.950 . S
H2005 C1981 0.949 . S
H2006 C1983 0.950 . S
H2007 C1985 0.950 . S
C2008 C2009 1.349 . S
C2008 C2010 1.327 . S
C2008 H2033 0.950 . S
C2009 C2008 1.349 . S
C2009 C2025 1.349 . S
C2010 C2008 1.327 . S
C2010 C2029 1.429 . S
C2010 H2034 0.950 . S
C2011 C2028 1.574 . S
C2011 C2030 1.368 . S
C2011 H2035 0.949 . S
H2012 C2016 0.949 . S
C2013 C2014 1.349 . S
C2013 C2015 1.327 . S
C2013 H2036 0.950 . S
C2014 C2013 1.349 . S
C2014 C2026 1.349 . S
C2015 C2013 1.327 . S
C2015 C2031 1.429 . S
C2015 H2037 0.950 . S
C2016 H2012 0.949 . S
C2016 C2024 1.574 . S
C2016 C2032 1.368 . S
H2017 C2025 0.950 . S
H2018 C2023 0.950 . S
H2019 C2024 0.949 . S
H2020 C2026 0.950 . S
H2021 C2027 0.950 . S
H2022 C2028 0.949 . S
C2023 H2018 0.950 . S
C2023 C2025 1.327 . S
C2023 C2029 1.429 . S
C2024 C2016 1.574 . S
C2024 H2019 0.949 . S
C2024 C2030 1.368 . S
C2025 C2009 1.349 . S
C2025 H2017 0.950 . S
C2025 C2023 1.327 . S
C2026 C2014 1.349 . S
C2026 H2020 0.950 . S
C2026 C2027 1.327 . S
C2027 H2021 0.950 . S
C2027 C2026 1.327 . S
C2027 C2031 1.429 . S
C2028 C2011 1.574 . S
C2028 H2022 0.949 . S
C2028 C2032 1.368 . S
C2029 C2010 1.429 . S
C2029 C2023 1.429 . S
C2029 C2030 1.523 . S
C2030 C2011 1.368 . S
C2030 C2024 1.368 . S
C2030 C2029 1.523 . S
C2031 C2015 1.429 . S
C2031 C2027 1.429 . S
C2031 C2032 1.523 . S
C2032 C2016 1.368 . S
C2032 C2028 1.368 . S
C2032 C2031 1.523 . S
H2033 C2008 0.950 . S
H2034 C2010 0.950 . S
H2035 C2011 0.949 . S
H2036 C2013 0.950 . S
H2037 C2015 0.950 . S
C2038 C2039 1.349 . S
C2038 C2040 1.327 . S
C2038 H2063 0.950 . S
C2039 C2038 1.349 . S
C2039 C2055 1.349 . S
C2040 C2038 1.327 . S
C2040 C2059 1.429 . S
C2040 H2064 0.950 . S
C2041 C2058 1.574 . S
C2041 C2060 1.368 . S
C2041 H2065 0.949 . S
H2042 C2046 0.949 . S
C2043 C2044 1.349 . S
C2043 C2045 1.327 . S
C2043 H2066 0.950 . S
C2044 C2043 1.349 . S
C2044 C2056 1.349 . S
C2045 C2043 1.327 . S
C2045 C2061 1.429 . S
C2045 H2067 0.950 . S
C2046 H2042 0.949 . S
C2046 C2054 1.574 . S
C2046 C2062 1.368 . S
H2047 C2055 0.950 . S
H2048 C2053 0.950 . S
H2049 C2054 0.949 . S
H2050 C2056 0.950 . S
H2051 C2057 0.950 . S
H2052 C2058 0.949 . S
C2053 H2048 0.950 . S
C2053 C2055 1.327 . S
C2053 C2059 1.429 . S
C2054 C2046 1.574 . S
C2054 H2049 0.949 . S
C2054 C2060 1.368 . S
C2055 C2039 1.349 . S
C2055 H2047 0.950 . S
C2055 C2053 1.327 . S
C2056 C2044 1.349 . S
C2056 H2050 0.950 . S
C2056 C2057 1.327 . S
C2057 H2051 0.950 . S
C2057 C2056 1.327 . S
C2057 C2061 1.429 . S
C2058 C2041 1.574 . S
C2058 H2052 0.949 . S
C2058 C2062 1.368 . S
C2059 C2040 1.429 . S
C2059 C2053 1.429 . S
C2059 C2060 1.523 . S
C2060 C2041 1.368 . S
C2060 C2054 1.368 . S
C2060 C2059 1.523 . S
C2061 C2045 1.429 . S
C2061 C2057 1.429 . S
C2061 C2062 1.523 . S
C2062 C2046 1.368 . S
C2062 C2058 1.368 . S
C2062 C2061 1.523 . S
H2063 C2038 0.950 . S
H2064 C2040 0.950 . S
H2065 C2041 0.949 . S
H2066 C2043 0.950 . S
H2067 C2045 0.950 . S
C2068 C2069 1.349 . S
C2068 C2070 1.327 . S
C2068 H2093 0.950 . S
C2069 C2068 1.349 . S
C2069 C2085 1.349 . S
C2070 C2068 1.327 . S
C2070 C2089 1.429 . S
C2070 H2094 0.950 . S
C2071 C2088 1.574 . S
C2071 C2090 1.368 . S
C2071 H2095 0.949 . S
H2072 C2076 0.949 . S
C2073 C2074 1.349 . S
C2073 C2075 1.327 . S
C2073 H2096 0.950 . S
C2074 C2073 1.349 . S
C2074 C2086 1.349 . S
C2075 C2073 1.327 . S
C2075 C2091 1.429 . S
C2075 H2097 0.950 . S
C2076 H2072 0.949 . S
C2076 C2084 1.574 . S
C2076 C2092 1.368 . S
H2077 C2085 0.950 . S
H2078 C2083 0.950 . S
H2079 C2084 0.949 . S
H2080 C2086 0.950 . S
H2081 C2087 0.950 . S
H2082 C2088 0.949 . S
C2083 H2078 0.950 . S
C2083 C2085 1.327 . S
C2083 C2089 1.429 . S
C2084 C2076 1.574 . S
C2084 H2079 0.949 . S
C2084 C2090 1.368 . S
C2085 C2069 1.349 . S
C2085 H2077 0.950 . S
C2085 C2083 1.327 . S
C2086 C2074 1.349 . S
C2086 H2080 0.950 . S
C2086 C2087 1.327 . S
C2087 H2081 0.950 . S
C2087 C2086 1.327 . S
C2087 C2091 1.429 . S
C2088 C2071 1.574 . S
C2088 H2082 0.949 . S
C2088 C2092 1.368 . S
C2089 C2070 1.429 . S
C2089 C2083 1.429 . S
C2089 C2090 1.523 . S
C2090 C2071 1.368 . S
C2090 C2084 1.368 . S
C2090 C2089 1.523 . S
C2091 C2075 1.429 . S
C2091 C2087 1.429 . S
C2091 C2092 1.523 . S
C2092 C2076 1.368 . S
C2092 C2088 1.368 . S
C2092 C2091 1.523 . S
H2093 C2068 0.950 . S
H2094 C2070 0.950 . S
H2095 C2071 0.949 . S
H2096 C2073 0.950 . S
H2097 C2075 0.950 . S
C2098 C2099 1.349 . S
C2098 C2100 1.327 . S
C2098 H2123 0.950 . S
C2099 C2098 1.349 . S
C2099 C2115 1.349 . S
C2100 C2098 1.327 . S
C2100 C2119 1.429 . S
C2100 H2124 0.950 . S
C2101 C2118 1.574 . S
C2101 C2120 1.368 . S
C2101 H2125 0.949 . S
H2102 C2106 0.949 . S
C2103 C2104 1.349 . S
C2103 C2105 1.327 . S
C2103 H2126 0.950 . S
C2104 C2103 1.349 . S
C2104 C2116 1.349 . S
C2105 C2103 1.327 . S
C2105 C2121 1.429 . S
C2105 H2127 0.950 . S
C2106 H2102 0.949 . S
C2106 C2114 1.574 . S
C2106 C2122 1.368 . S
H2107 C2115 0.950 . S
H2108 C2113 0.950 . S
H2109 C2114 0.949 . S
H2110 C2116 0.950 . S
H2111 C2117 0.950 . S
H2112 C2118 0.949 . S
C2113 H2108 0.950 . S
C2113 C2115 1.327 . S
C2113 C2119 1.429 . S
C2114 C2106 1.574 . S
C2114 H2109 0.949 . S
C2114 C2120 1.368 . S
C2115 C2099 1.349 . S
C2115 H2107 0.950 . S
C2115 C2113 1.327 . S
C2116 C2104 1.349 . S
C2116 H2110 0.950 . S
C2116 C2117 1.327 . S
C2117 H2111 0.950 . S
C2117 C2116 1.327 . S
C2117 C2121 1.429 . S
C2118 C2101 1.574 . S
C2118 H2112 0.949 . S
C2118 C2122 1.368 . S
C2119 C2100 1.429 . S
C2119 C2113 1.429 . S
C2119 C2120 1.523 . S
C2120 C2101 1.368 . S
C2120 C2114 1.368 . S
C2120 C2119 1.523 . S
C2121 C2105 1.429 . S
C2121 C2117 1.429 . S
C2121 C2122 1.523 . S
C2122 C2106 1.368 . S
C2122 C2118 1.368 . S
C2122 C2121 1.523 . S
H2123 C2098 0.950 . S
H2124 C2100 0.950 . S
H2125 C2101 0.949 . S
H2126 C2103 0.950 . S
H2127 C2105 0.950 . S
C2128 C2129 1.349 . S
C2128 C2130 1.327 . S
C2128 H2153 0.950 . S
C2129 C2128 1.349 . S
C2129 C2145 1.349 . S
C2130 C2128 1.327 . S
C2130 C2149 1.429 . S
C2130 H2154 0.950 . S
C2131 C2148 1.574 . S
C2131 C2150 1.368 . S
C2131 H2155 0.949 . S
H2132 C2136 0.949 . S
C2133 C2134 1.349 . S
C2133 C2135 1.327 . S
C2133 H2156 0.950 . S
C2134 C2133 1.349 . S
C2134 C2146 1.349 . S
C2135 C2133 1.327 . S
C2135 C2151 1.429 . S
C2135 H2157 0.950 . S
C2136 H2132 0.949 . S
C2136 C2144 1.574 . S
C2136 C2152 1.368 . S
H2137 C2145 0.950 . S
H2138 C2143 0.950 . S
H2139 C2144 0.949 . S
H2140 C2146 0.950 . S
H2141 C2147 0.950 . S
H2142 C2148 0.949 . S
C2143 H2138 0.950 . S
C2143 C2145 1.327 . S
C2143 C2149 1.429 . S
C2144 C2136 1.574 . S
C2144 H2139 0.949 . S
C2144 C2150 1.368 . S
C2145 C2129 1.349 . S
C2145 H2137 0.950 . S
C2145 C2143 1.327 . S
C2146 C2134 1.349 . S
C2146 H2140 0.950 . S
C2146 C2147 1.327 . S
C2147 H2141 0.950 . S
C2147 C2146 1.327 . S
C2147 C2151 1.429 . S
C2148 C2131 1.574 . S
C2148 H2142 0.949 . S
C2148 C2152 1.368 . S
C2149 C2130 1.429 . S
C2149 C2143 1.429 . S
C2149 C2150 1.523 . S
C2150 C2131 1.368 . S
C2150 C2144 1.368 . S
C2150 C2149 1.523 . S
C2151 C2135 1.429 . S
C2151 C2147 1.429 . S
C2151 C2152 1.523 . S
C2152 C2136 1.368 . S
C2152 C2148 1.368 . S
C2152 C2151 1.523 . S
H2153 C2128 0.950 . S
H2154 C2130 0.950 . S
H2155 C2131 0.949 . S
H2156 C2133 0.950 . S
H2157 C2135 0.950 . S
C2158 C2159 1.349 . S
C2158 C2160 1.327 . S
C2158 H2183 0.950 . S
C2159 C2158 1.349 . S
C2159 C2175 1.349 . S
C2160 C2158 1.327 . S
C2160 C2179 1.429 . S
C2160 H2184 0.950 . S
C2161 C2178 1.574 . S
C2161 C2180 1.368 . S
C2161 H2185 0.949 . S
H2162 C2166 0.949 . S
C2163 C2164 1.349 . S
C2163 C2165 1.327 . S
C2163 H2186 0.950 . S
C2164 C2163 1.349 . S
C2164 C2176 1.349 . S
C2165 C2163 1.327 . S
C2165 C2181 1.429 . S
C2165 H2187 0.950 . S
C2166 H2162 0.949 . S
C2166 C2174 1.574 . S
C2166 C2182 1.368 . S
H2167 C2175 0.950 . S
H2168 C2173 0.950 . S
H2169 C2174 0.949 . S
H2170 C2176 0.950 . S
H2171 C2177 0.950 . S
H2172 C2178 0.949 . S
C2173 H2168 0.950 . S
C2173 C2175 1.327 . S
C2173 C2179 1.429 . S
C2174 C2166 1.574 . S
C2174 H2169 0.949 . S
C2174 C2180 1.368 . S
C2175 C2159 1.349 . S
C2175 H2167 0.950 . S
C2175 C2173 1.327 . S
C2176 C2164 1.349 . S
C2176 H2170 0.950 . S
C2176 C2177 1.327 . S
C2177 H2171 0.950 . S
C2177 C2176 1.327 . S
C2177 C2181 1.429 . S
C2178 C2161 1.574 . S
C2178 H2172 0.949 . S
C2178 C2182 1.368 . S
C2179 C2160 1.429 . S
C2179 C2173 1.429 . S
C2179 C2180 1.523 . S
C2180 C2161 1.368 . S
C2180 C2174 1.368 . S
C2180 C2179 1.523 . S
C2181 C2165 1.429 . S
C2181 C2177 1.429 . S
C2181 C2182 1.523 . S
C2182 C2166 1.368 . S
C2182 C2178 1.368 . S
C2182 C2181 1.523 . S
H2183 C2158 0.950 . S
H2184 C2160 0.950 . S
H2185 C2161 0.949 . S
H2186 C2163 0.950 . S
H2187 C2165 0.950 . S
C2188 C2189 1.349 . S
C2188 C2190 1.327 . S
C2188 H2213 0.950 . S
C2189 C2188 1.349 . S
C2189 C2205 1.349 . S
C2190 C2188 1.327 . S
C2190 C2209 1.429 . S
C2190 H2214 0.950 . S
C2191 C2208 1.574 . S
C2191 C2210 1.368 . S
C2191 H2215 0.949 . S
H2192 C2196 0.949 . S
C2193 C2194 1.349 . S
C2193 C2195 1.327 . S
C2193 H2216 0.950 . S
C2194 C2193 1.349 . S
C2194 C2206 1.349 . S
C2195 C2193 1.327 . S
C2195 C2211 1.429 . S
C2195 H2217 0.950 . S
C2196 H2192 0.949 . S
C2196 C2204 1.574 . S
C2196 C2212 1.368 . S
H2197 C2205 0.950 . S
H2198 C2203 0.950 . S
H2199 C2204 0.949 . S
H2200 C2206 0.950 . S
H2201 C2207 0.950 . S
H2202 C2208 0.949 . S
C2203 H2198 0.950 . S
C2203 C2205 1.327 . S
C2203 C2209 1.429 . S
C2204 C2196 1.574 . S
C2204 H2199 0.949 . S
C2204 C2210 1.368 . S
C2205 C2189 1.349 . S
C2205 H2197 0.950 . S
C2205 C2203 1.327 . S
C2206 C2194 1.349 . S
C2206 H2200 0.950 . S
C2206 C2207 1.327 . S
C2207 H2201 0.950 . S
C2207 C2206 1.327 . S
C2207 C2211 1.429 . S
C2208 C2191 1.574 . S
C2208 H2202 0.949 . S
C2208 C2212 1.368 . S
C2209 C2190 1.429 . S
C2209 C2203 1.429 . S
C2209 C2210 1.523 . S
C2210 C2191 1.368 . S
C2210 C2204 1.368 . S
C2210 C2209 1.523 . S
C2211 C2195 1.429 . S
C2211 C2207 1.429 . S
C2211 C2212 1.523 . S
C2212 C2196 1.368 . S
C2212 C2208 1.368 . S
C2212 C2211 1.523 . S
H2213 C2188 0.950 . S
H2214 C2190 0.950 . S
H2215 C2191 0.949 . S
H2216 C2193 0.950 . S
H2217 C2195 0.950 . S
C2218 C2219 1.349 . S
C2218 C2220 1.327 . S
C2218 H2243 0.950 . S
C2219 C2218 1.349 . S
C2219 C2235 1.349 . S
C2220 C2218 1.327 . S
C2220 C2239 1.429 . S
C2220 H2244 0.950 . S
C2221 C2238 1.574 . S
C2221 C2240 1.368 . S
C2221 H2245 0.949 . S
H2222 C2226 0.949 . S
C2223 C2224 1.349 . S
C2223 C2225 1.327 . S
C2223 H2246 0.950 . S
C2224 C2223 1.349 . S
C2224 C2236 1.349 . S
C2225 C2223 1.327 . S
C2225 C2241 1.429 . S
C2225 H2247 0.950 . S
C2226 H2222 0.949 . S
C2226 C2234 1.574 . S
C2226 C2242 1.368 . S
H2227 C2235 0.950 . S
H2228 C2233 0.950 . S
H2229 C2234 0.949 . S
H2230 C2236 0.950 . S
H2231 C2237 0.950 . S
H2232 C2238 0.949 . S
C2233 H2228 0.950 . S
C2233 C2235 1.327 . S
C2233 C2239 1.429 . S
C2234 C2226 1.574 . S
C2234 H2229 0.949 . S
C2234 C2240 1.368 . S
C2235 C2219 1.349 . S
C2235 H2227 0.950 . S
C2235 C2233 1.327 . S
C2236 C2224 1.349 . S
C2236 H2230 0.950 . S
C2236 C2237 1.327 . S
C2237 H2231 0.950 . S
C2237 C2236 1.327 . S
C2237 C2241 1.429 . S
C2238 C2221 1.574 . S
C2238 H2232 0.949 . S
C2238 C2242 1.368 . S
C2239 C2220 1.429 . S
C2239 C2233 1.429 . S
C2239 C2240 1.523 . S
C2240 C2221 1.368 . S
C2240 C2234 1.368 . S
C2240 C2239 1.523 . S
C2241 C2225 1.429 . S
C2241 C2237 1.429 . S
C2241 C2242 1.523 . S
C2242 C2226 1.368 . S
C2242 C2238 1.368 . S
C2242 C2241 1.523 . S
H2243 C2218 0.950 . S
H2244 C2220 0.950 . S
H2245 C2221 0.949 . S
H2246 C2223 0.950 . S
H2247 C2225 0.950 . S
C2248 C2249 1.349 . S
C2248 C2250 1.327 . S
C2248 H2273 0.950 . S
C2249 C2248 1.349 . S
C2249 C2265 1.349 . S
C2250 C2248 1.327 . S
C2250 C2269 1.429 . S
C2250 H2274 0.950 . S
C2251 C2268 1.574 . S
C2251 C2270 1.368 . S
C2251 H2275 0.949 . S
H2252 C2256 0.949 . S
C2253 C2254 1.349 . S
C2253 C2255 1.327 . S
C2253 H2276 0.950 . S
C2254 C2253 1.349 . S
C2254 C2266 1.349 . S
C2255 C2253 1.327 . S
C2255 C2271 1.429 . S
C2255 H2277 0.950 . S
C2256 H2252 0.949 . S
C2256 C2264 1.574 . S
C2256 C2272 1.368 . S
H2257 C2265 0.950 . S
H2258 C2263 0.950 . S
H2259 C2264 0.949 . S
H2260 C2266 0.950 . S
H2261 C2267 0.950 . S
H2262 C2268 0.949 . S
C2263 H2258 0.950 . S
C2263 C2265 1.327 . S
C2263 C2269 1.429 . S
C2264 C2256 1.574 . S
C2264 H2259 0.949 . S
C2264 C2270 1.368 . S
C2265 C2249 1.349 . S
C2265 H2257 0.950 . S
C2265 C2263 1.327 . S
C2266 C2254 1.349 . S
C2266 H2260 0.950 . S
C2266 C2267 1.327 . S
C2267 H2261 0.950 . S
C2267 C2266 1.327 . S
C2267 C2271 1.429 . S
C2268 C2251 1.574 . S
C2268 H2262 0.949 . S
C2268 C2272 1.368 . S
C2269 C2250 1.429 . S
C2269 C2263 1.429 . S
C2269 C2270 1.523 . S
C2270 C2251 1.368 . S
C2270 C2264 1.368 . S
C2270 C2269 1.523 . S
C2271 C2255 1.429 . S
C2271 C2267 1.429 . S
C2271 C2272 1.523 . S
C2272 C2256 1.368 . S
C2272 C2268 1.368 . S
C2272 C2271 1.523 . S
H2273 C2248 0.950 . S
H2274 C2250 0.950 . S
H2275 C2251 0.949 . S
H2276 C2253 0.950 . S
H2277 C2255 0.950 . S
C2278 C2279 1.349 . S
C2278 C2280 1.327 . S
C2278 H2303 0.950 . S
C2279 C2278 1.349 . S
C2279 C2295 1.349 . S
C2280 C2278 1.327 . S
C2280 C2299 1.429 . S
C2280 H2304 0.950 . S
C2281 C2298 1.574 . S
C2281 C2300 1.368 . S
C2281 H2305 0.949 . S
H2282 C2286 0.949 . S
C2283 C2284 1.349 . S
C2283 C2285 1.327 . S
C2283 H2306 0.950 . S
C2284 C2283 1.349 . S
C2284 C2296 1.349 . S
C2285 C2283 1.327 . S
C2285 C2301 1.429 . S
C2285 H2307 0.950 . S
C2286 H2282 0.949 . S
C2286 C2294 1.574 . S
C2286 C2302 1.368 . S
H2287 C2295 0.950 . S
H2288 C2293 0.950 . S
H2289 C2294 0.949 . S
H2290 C2296 0.950 . S
H2291 C2297 0.950 . S
H2292 C2298 0.949 . S
C2293 H2288 0.950 . S
C2293 C2295 1.327 . S
C2293 C2299 1.429 . S
C2294 C2286 1.574 . S
C2294 H2289 0.949 . S
C2294 C2300 1.368 . S
C2295 C2279 1.349 . S
C2295 H2287 0.950 . S
C2295 C2293 1.327 . S
C2296 C2284 1.349 . S
C2296 H2290 0.950 . S
C2296 C2297 1.327 . S
C2297 H2291 0.950 . S
C2297 C2296 1.327 . S
C2297 C2301 1.429 . S
C2298 C2281 1.574 . S
C2298 H2292 0.949 . S
C2298 C2302 1.368 . S
C2299 C2280 1.429 . S
C2299 C2293 1.429 . S
C2299 C2300 1.523 . S
C2300 C2281 1.368 . S
C2300 C2294 1.368 . S
C2300 C2299 1.523 . S
C2301 C2285 1.429 . S
C2301 C2297 1.429 . S
C2301 C2302 1.523 . S
C2302 C2286 1.368 . S
C2302 C2298 1.368 . S
C2302 C2301 1.523 . S
H2303 C2278 0.950 . S
H2304 C2280 0.950 . S
H2305 C2281 0.949 . S
H2306 C2283 0.950 . S
H2307 C2285 0.950 . S
C2308 C2309 1.349 . S
C2308 C2310 1.327 . S
C2308 H2333 0.950 . S
C2309 C2308 1.349 . S
C2309 C2325 1.349 . S
C2310 C2308 1.327 . S
C2310 C2329 1.429 . S
C2310 H2334 0.950 . S
C2311 C2328 1.574 . S
C2311 C2330 1.368 . S
C2311 H2335 0.949 . S
H2312 C2316 0.949 . S
C2313 C2314 1.349 . S
C2313 C2315 1.327 . S
C2313 H2336 0.950 . S
C2314 C2313 1.349 . S
C2314 C2326 1.349 . S
C2315 C2313 1.327 . S
C2315 C2331 1.429 . S
C2315 H2337 0.950 . S
C2316 H2312 0.949 . S
C2316 C2324 1.574 . S
C2316 C2332 1.368 . S
H2317 C2325 0.950 . S
H2318 C2323 0.950 . S
H2319 C2324 0.949 . S
H2320 C2326 0.950 . S
H2321 C2327 0.950 . S
H2322 C2328 0.949 . S
C2323 H2318 0.950 . S
C2323 C2325 1.327 . S
C2323 C2329 1.429 . S
C2324 C2316 1.574 . S
C2324 H2319 0.949 . S
C2324 C2330 1.368 . S
C2325 C2309 1.349 . S
C2325 H2317 0.950 . S
C2325 C2323 1.327 . S
C2326 C2314 1.349 . S
C2326 H2320 0.950 . S
C2326 C2327 1.327 . S
C2327 H2321 0.950 . S
C2327 C2326 1.327 . S
C2327 C2331 1.429 . S
C2328 C2311 1.574 . S
C2328 H2322 0.949 . S
C2328 C2332 1.368 . S
C2329 C2310 1.429 . S
C2329 C2323 1.429 . S
C2329 C2330 1.523 . S
C2330 C2311 1.368 . S
C2330 C2324 1.368 . S
C2330 C2329 1.523 . S
C2331 C2315 1.429 . S
C2331 C2327 1.429 . S
C2331 C2332 1.523 . S
C2332 C2316 1.368 . S
C2332 C2328 1.368 . S
C2332 C2331 1.523 . S
H2333 C2308 0.950 . S
H2334 C2310 0.950 . S
H2335 C2311 0.949 . S
H2336 C2313 0.950 . S
H2337 C2315 0.950 . S
C2338 C2339 1.349 . S
C2338 C2340 1.327 . S
C2338 H2363 0.950 . S
C2339 C2338 1.349 . S
C2339 C2355 1.349 . S
C2340 C2338 1.327 . S
C2340 C2359 1.429 . S
C2340 H2364 0.950 . S
C2341 C2358 1.574 . S
C2341 C2360 1.368 . S
C2341 H2365 0.949 . S
H2342 C2346 0.949 . S
C2343 C2344 1.349 . S
C2343 C2345 1.327 . S
C2343 H2366 0.950 . S
C2344 C2343 1.349 . S
C2344 C2356 1.349 . S
C2345 C2343 1.327 . S
C2345 C2361 1.429 . S
C2345 H2367 0.950 . S
C2346 H2342 0.949 . S
C2346 C2354 1.574 . S
C2346 C2362 1.368 . S
H2347 C2355 0.950 . S
H2348 C2353 0.950 . S
H2349 C2354 0.949 . S
H2350 C2356 0.950 . S
H2351 C2357 0.950 . S
H2352 C2358 0.949 . S
C2353 H2348 0.950 . S
C2353 C2355 1.327 . S
C2353 C2359 1.429 . S
C2354 C2346 1.574 . S
C2354 H2349 0.949 . S
C2354 C2360 1.368 . S
C2355 C2339 1.349 . S
C2355 H2347 0.950 . S
C2355 C2353 1.327 . S
C2356 C2344 1.349 . S
C2356 H2350 0.950 . S
C2356 C2357 1.327 . S
C2357 H2351 0.950 . S
C2357 C2356 1.327 . S
C2357 C2361 1.429 . S
C2358 C2341 1.574 . S
C2358 H2352 0.949 . S
C2358 C2362 1.368 . S
C2359 C2340 1.429 . S
C2359 C2353 1.429 . S
C2359 C2360 1.523 . S
C2360 C2341 1.368 . S
C2360 C2354 1.368 . S
C2360 C2359 1.523 . S
C2361 C2345 1.429 . S
C2361 C2357 1.429 . S
C2361 C2362 1.523 . S
C2362 C2346 1.368 . S
C2362 C2358 1.368 . S
C2362 C2361 1.523 . S
H2363 C2338 0.950 . S
H2364 C2340 0.950 . S
H2365 C2341 0.949 . S
H2366 C2343 0.950 . S
H2367 C2345 0.950 . S
C449 C218 1.522 . S
C454 C8 1.522 . S
C479 C22 1.522 . S
C484 C176 1.522 . S
C509 C36 1.522 . S
C514 C190 1.522 . S
C539 C204 1.522 . S
C544 C50 1.522 . S
C569 C64 1.522 . S
C574 C134 1.522 . S
C599 C78 1.522 . S
C604 C148 1.522 . S
C629 C162 1.522 . S
C634 C92 1.522 . S
C659 C120 1.522 . S
C664 C106 1.522 . S
C689 C232 1.522 . S
C694 C442 1.522 . S
C719 C246 1.522 . S
C724 C400 1.522 . S
C749 C260 1.522 . S
C754 C414 1.522 . S
C779 C428 1.522 . S
C784 C274 1.522 . S
C809 C288 1.522 . S
C814 C358 1.522 . S
C839 C302 1.522 . S
C844 C372 1.522 . S
C869 C386 1.522 . S
C874 C316 1.522 . S
C899 C330 1.522 . S
C904 C344 1.522 . S
C929 C175 1.458 . S
C934 C7 1.458 . S
C959 C21 1.458 . S
C964 C189 1.458 . S
C989 C203 1.458 . S
C994 C35 1.458 . S
C1019 C49 1.458 . S
C1024 C217 1.458 . S
C1049 C63 1.458 . S
C1054 C119 1.458 . S
C1079 C133 1.458 . S
C1084 C77 1.458 . S
C1109 C147 1.458 . S
C1114 C91 1.458 . S
C1139 C161 1.458 . S
C1144 C105 1.458 . S
C1169 C231 1.458 . S
C1174 C399 1.458 . S
C1199 C413 1.458 . S
C1204 C245 1.458 . S
C1229 C259 1.458 . S
C1234 C427 1.458 . S
C1259 C273 1.458 . S
C1264 C441 1.458 . S
C1289 C343 1.458 . S
C1294 C287 1.458 . S
C1319 C301 1.458 . S
C1324 C357 1.458 . S
C1349 C315 1.458 . S
C1354 C371 1.458 . S
C1379 C329 1.458 . S
C1384 C385 1.458 . S
C1409 C9 1.366 . S
C1414 C149 1.366 . S
C1439 C163 1.366 . S
C1444 C23 1.366 . S
C1469 C37 1.366 . S
C1474 C121 1.366 . S
C1499 C135 1.366 . S
C1504 C51 1.366 . S
C1529 C205 1.366 . S
C1534 C65 1.366 . S
C1559 C219 1.366 . S
C1564 C79 1.366 . S
C1589 C177 1.366 . S
C1594 C93 1.366 . S
C1619 C107 1.366 . S
C1624 C191 1.366 . S
C1649 C373 1.366 . S
C1654 C233 1.366 . S
C1679 C247 1.366 . S
C1684 C387 1.366 . S
C1709 C345 1.366 . S
C1714 C261 1.366 . S
C1739 C359 1.366 . S
C1744 C275 1.366 . S
C1769 C289 1.366 . S
C1774 C429 1.366 . S
C1799 C303 1.366 . S
C1804 C443 1.366 . S
C1829 C401 1.366 . S
C1834 C317 1.366 . S
C1859 C415 1.366 . S
C1864 C331 1.366 . S
C1889 C328 1.362 . S
C1894 C6 1.362 . S
C1919 C286 1.362 . S
C1924 C20 1.362 . S
C1949 C300 1.362 . S
C1954 C34 1.362 . S
C1979 C314 1.362 . S
C1984 C48 1.362 . S
C2009 C244 1.362 . S
C2014 C62 1.362 . S
C2039 C76 1.362 . S
C2044 C258 1.362 . S
C2069 C90 1.362 . S
C2074 C272 1.362 . S
C2099 C104 1.362 . S
C2104 C230 1.362 . S
C2129 C118 1.362 . S
C2134 C440 1.362 . S
C2159 C398 1.362 . S
C2164 C132 1.362 . S
C2189 C146 1.362 . S
C2194 C412 1.362 . S
C2219 C160 1.362 . S
C2224 C426 1.362 . S
C2249 C356 1.362 . S
C2254 C174 1.362 . S
C2279 C370 1.362 . S
C2284 C188 1.362 . S
C2309 C202 1.362 . S
C2314 C384 1.362 . S
C2339 C216 1.362 . S
C2344 C342 1.362 . S
