# Generated by pormake.
# Topology uoc, (4)-cn, num edge types: 1
# Building blocks:
#     Node 0, Type 0, BuildingBlock: KUFVIS_clean_sbu_0, # of connection points: 4
#     Node 1, Type 0, BuildingBlock: KUFVIS_clean_sbu_0, # of connection points: 4
#     Node 2, Type 0, BuildingBlock: KUFVIS_clean_sbu_0, # of connection points: 4
#     Node 3, Type 0, BuildingBlock: KUFVIS_clean_sbu_0, # of connection points: 4
#     Node 4, Type 0, BuildingBlock: KUFVIS_clean_sbu_0, # of connection points: 4
#     Node 5, Type 0, BuildingBlock: KUFVIS_clean_sbu_0, # of connection points: 4
#     Node 6, Type 0, BuildingBlock: KUFVIS_clean_sbu_0, # of connection points: 4
#     Node 7, Type 0, BuildingBlock: KUFVIS_clean_sbu_0, # of connection points: 4
#     Edge 8, Type (0, 0), BuildingBlock: CIFDUS_clean_linker_0, # of connection points: 2
#     Edge 9, Type (0, 0), BuildingBlock: CIFDUS_clean_linker_0, # of connection points: 2
#     Edge 10, Type (0, 0), BuildingBlock: CIFDUS_clean_linker_0, # of connection points: 2
#     Edge 11, Type (0, 0), BuildingBlock: CIFDUS_clean_linker_0, # of connection points: 2
#     Edge 12, Type (0, 0), BuildingBlock: CIFDUS_clean_linker_0, # of connection points: 2
#     Edge 13, Type (0, 0), BuildingBlock: CIFDUS_clean_linker_0, # of connection points: 2
#     Edge 14, Type (0, 0), BuildingBlock: CIFDUS_clean_linker_0, # of connection points: 2
#     Edge 15, Type (0, 0), BuildingBlock: CIFDUS_clean_linker_0, # of connection points: 2
#     Edge 16, Type (0, 0), BuildingBlock: CIFDUS_clean_linker_0, # of connection points: 2
#     Edge 17, Type (0, 0), BuildingBlock: CIFDUS_clean_linker_0, # of connection points: 2
#     Edge 18, Type (0, 0), BuildingBlock: CIFDUS_clean_linker_0, # of connection points: 2
#     Edge 19, Type (0, 0), BuildingBlock: CIFDUS_clean_linker_0, # of connection points: 2
#     Edge 20, Type (0, 0), BuildingBlock: CIFDUS_clean_linker_0, # of connection points: 2
#     Edge 21, Type (0, 0), BuildingBlock: CIFDUS_clean_linker_0, # of connection points: 2
#     Edge 22, Type (0, 0), BuildingBlock: CIFDUS_clean_linker_0, # of connection points: 2
#     Edge 23, Type (0, 0), BuildingBlock: CIFDUS_clean_linker_0, # of connection points: 2
# Relax obj value: 0.117
# Max RMSD: 0.131
# Mean RMSD: 0.129
data_MOF--net-uoc--node1-KUFVIS_clean_sbu_0--edge1-CIFDUS_clean_linker_0
_symmetry_space_group_name_H-M    P1
_symmetry_Int_Tables_number       1
_symmetry_cell_setting            triclinic
loop_
_symmetry_equiv_pos_as_xyz
'x, y, z'
_cell_length_a     24.126974
_cell_length_b     23.972807
_cell_length_c     46.80608
_cell_angle_alpha  90.298526
_cell_angle_beta   90.700544
_cell_angle_gamma 89.683283
loop_
_atom_site_label
_atom_site_type_symbol
_atom_site_fract_x
_atom_site_fract_y
_atom_site_fract_z
_atom_type_partial_charge
Mn0 Mn 0.10956 0.24121 0.13351 0.0
Mn1 Mn 0.22712 0.16498 0.1326 0.0
C2 C 0.16123 0.22801 0.17554 0.0
C3 C 0.06838 0.33028 0.12705 0.0
C4 C 0.1124 0.11277 0.13272 0.0
O5 O 0.12526 0.23384 0.09069 0.0
O6 O 0.20757 0.19003 0.09376 0.0
C7 C 0.30435 0.25472 0.11673 0.0
N8 N 0.28975 0.21293 0.13467 0.0
C9 C 0.37736 0.21714 0.15943 0.0
C10 C 0.39348 0.26047 0.14135 0.0
C11 C 0.3565 0.27983 0.12012 0.0
C12 C 0.32387 0.19581 0.15596 0.0
H13 H 0.27663 0.26818 0.09978 0.0
C14 C 0.16825 0.21239 0.07927 0.0
O15 O 0.03922 0.28487 0.12523 0.0
O16 O 0.12076 0.32362 0.13216 0.0
N17 N 0.25232 0.1363 0.16837 0.0
C18 C 0.23032 0.09377 0.18367 0.0
C19 C 0.26267 0.06756 0.20478 0.0
C20 C 0.31774 0.08419 0.20931 0.0
C21 C 0.33918 0.12891 0.19373 0.0
C22 C 0.30452 0.15424 0.17342 0.0
H23 H 0.18902 0.07877 0.17918 0.0
O24 O 0.10995 0.24432 0.17641 0.0
O25 O 0.1814 0.22224 0.15015 0.0
O26 O 0.08375 0.15807 0.13431 0.0
O27 O 0.16517 0.11237 0.13104 0.0
C28 C 0.39436 0.14741 0.19638 0.0
C29 C 0.41293 0.19262 0.17991 0.0
H30 H 0.43435 0.27868 0.14333 0.0
H31 H 0.3687 0.31303 0.10598 0.0
H32 H 0.24596 0.0331 0.21672 0.0
H33 H 0.34328 0.06116 0.2243 0.0
H34 H 0.42328 0.1267 0.21064 0.0
H35 H 0.45519 0.20697 0.18253 0.0
Mn36 Mn 0.78584 0.58574 0.37761 0.0
Mn37 Mn 0.85045 0.70652 0.39418 0.0
C38 C 0.78593 0.61831 0.42381 0.0
C39 C 0.70594 0.53852 0.36269 0.0
C40 C 0.9122 0.59722 0.38491 0.0
O41 O 0.796 0.62156 0.33892 0.0
O42 O 0.83622 0.70244 0.35223 0.0
C43 C 0.75767 0.78324 0.38002 0.0
N44 N 0.79558 0.76341 0.39928 0.0
C45 C 0.76211 0.82559 0.43582 0.0
C46 C 0.72296 0.84695 0.41631 0.0
C47 C 0.72068 0.8256 0.38831 0.0
C48 C 0.79794 0.78346 0.42631 0.0
H49 H 0.75557 0.76671 0.35853 0.0
C50 C 0.81659 0.66906 0.33321 0.0
O51 O 0.75491 0.51639 0.35987 0.0
O52 O 0.70381 0.58865 0.37309 0.0
N53 N 0.86674 0.71662 0.434 0.0
C54 C 0.90599 0.69052 0.45039 0.0
C55 C 0.91316 0.70652 0.4791 0.0
C56 C 0.88032 0.74949 0.49058 0.0
C57 C 0.84097 0.77648 0.47315 0.0
C58 C 0.83605 0.7591 0.44461 0.0
H59 H 0.93136 0.65746 0.44169 0.0
O60 O 0.77699 0.56597 0.41848 0.0
O61 O 0.79418 0.6502 0.40192 0.0
O62 O 0.86945 0.56716 0.37988 0.0
O63 O 0.90942 0.64959 0.39013 0.0
C64 C 0.80588 0.81939 0.48306 0.0
C65 C 0.76639 0.84384 0.46443 0.0
H66 H 0.6942 0.87946 0.42265 0.0
H67 H 0.69038 0.84166 0.37318 0.0
H68 H 0.94374 0.6856 0.49239 0.0
H69 H 0.88554 0.76129 0.51282 0.0
H70 H 0.80844 0.83341 0.50507 0.0
H71 H 0.73915 0.87627 0.4724 0.0
Mn72 Mn 0.4109 0.28781 0.62379 0.0
Mn73 Mn 0.2974 0.21106 0.60843 0.0
C74 C 0.37495 0.2874 0.57807 0.0
C75 C 0.456 0.36773 0.63896 0.0
C76 C 0.41227 0.16137 0.61379 0.0
O77 O 0.38028 0.27225 0.66298 0.0
O78 O 0.30585 0.22077 0.65077 0.0
C79 C 0.21397 0.29351 0.62786 0.0
N80 N 0.23507 0.26057 0.60679 0.0
C81 C 0.16631 0.29329 0.57307 0.0
C82 C 0.14365 0.3273 0.59446 0.0
C83 C 0.16765 0.32745 0.62196 0.0
C84 C 0.21245 0.2603 0.58022 0.0
H85 H 0.23245 0.29402 0.64899 0.0
C86 C 0.33769 0.24399 0.66945 0.0
O87 O 0.4795 0.31911 0.64071 0.0
O88 O 0.40498 0.36965 0.62971 0.0
N89 N 0.28326 0.19824 0.56861 0.0
C90 C 0.30969 0.16256 0.55048 0.0
C91 C 0.2908 0.15746 0.52209 0.0
C92 C 0.24455 0.1885 0.51274 0.0
C93 C 0.21709 0.22374 0.53201 0.0
C94 C 0.23755 0.22678 0.5601 0.0
H95 H 0.34532 0.13865 0.55751 0.0
O96 O 0.42628 0.30066 0.58285 0.0
O97 O 0.34546 0.27518 0.60032 0.0
O98 O 0.4358 0.20722 0.62002 0.0
O99 O 0.36023 0.15726 0.60881 0.0
C100 C 0.1705 0.25633 0.52438 0.0
C101 C 0.14522 0.29119 0.54487 0.0
H102 H 0.10801 0.35364 0.58998 0.0
H103 H 0.15054 0.35376 0.63855 0.0
H104 H 0.31206 0.12996 0.50739 0.0
H105 H 0.23047 0.18491 0.49075 0.0
H106 H 0.15395 0.25512 0.50277 0.0
H107 H 0.10961 0.31629 0.53871 0.0
Mn108 Mn 0.71058 0.89416 0.87299 0.0
Mn109 Mn 0.78105 0.78176 0.84925 0.0
C110 C 0.70005 0.86524 0.82601 0.0
C111 C 0.63342 0.93684 0.89288 0.0
C112 C 0.83238 0.8956 0.85427 0.0
O113 O 0.73561 0.85757 0.91042 0.0
O114 O 0.78564 0.78814 0.89114 0.0
C115 C 0.70508 0.69945 0.87467 0.0
N116 N 0.73039 0.72088 0.85131 0.0
C117 C 0.6797 0.65942 0.8199 0.0
C118 C 0.65334 0.63647 0.8436 0.0
C119 C 0.66625 0.65648 0.87112 0.0
C120 C 0.71863 0.7016 0.82481 0.0
H121 H 0.71407 0.71522 0.89585 0.0
C122 C 0.76796 0.81546 0.91266 0.0
O123 O 0.68152 0.9609 0.89347 0.0
O124 O 0.63129 0.8865 0.88261 0.0
N125 N 0.78037 0.76884 0.80914 0.0
C126 C 0.81271 0.79256 0.78895 0.0
C127 C 0.80544 0.77686 0.76029 0.0
C128 C 0.76491 0.7373 0.75299 0.0
C129 C 0.73578 0.7099 0.77436 0.0
C130 C 0.74571 0.72646 0.80256 0.0
H131 H 0.84253 0.82431 0.7946 0.0
O132 O 0.68828 0.91602 0.83336 0.0
O133 O 0.71684 0.83229 0.84649 0.0
O134 O 0.78996 0.91839 0.86554 0.0
O135 O 0.83399 0.84443 0.84624 0.0
C136 C 0.69571 0.66855 0.76877 0.0
C137 C 0.66803 0.64297 0.79155 0.0
H138 H 0.62289 0.60377 0.8409 0.0
H139 H 0.64591 0.6392 0.88953 0.0
H140 H 0.82874 0.79728 0.74377 0.0
H141 H 0.75436 0.73041 0.73087 0.0
H142 H 0.68518 0.65663 0.74709 0.0
H143 H 0.63741 0.61115 0.787 0.0
Mn144 Mn 0.61077 0.7847 0.61756 0.0
Mn145 Mn 0.72456 0.70692 0.63168 0.0
C146 C 0.64551 0.77952 0.66404 0.0
C147 C 0.56389 0.86585 0.60482 0.0
C148 C 0.6105 0.65805 0.62603 0.0
O149 O 0.64139 0.77372 0.5775 0.0
O150 O 0.7116 0.71804 0.59058 0.0
C151 C 0.80176 0.79343 0.61152 0.0
N152 N 0.78645 0.75617 0.63178 0.0
C153 C 0.86974 0.77251 0.6591 0.0
C154 C 0.88652 0.81115 0.63858 0.0
C155 C 0.85206 0.82209 0.61483 0.0
C156 C 0.81788 0.74743 0.65537 0.0
H157 H 0.77597 0.80092 0.59291 0.0
C158 C 0.68246 0.74247 0.57149 0.0
O159 O 0.54156 0.81717 0.60149 0.0
O160 O 0.61466 0.8673 0.61444 0.0
N161 N 0.74656 0.6893 0.67 0.0
C162 C 0.72746 0.6459 0.68575 0.0
C163 C 0.76112 0.6227 0.70737 0.0
C164 C 0.81395 0.64469 0.71298 0.0
C165 C 0.83265 0.68984 0.69687 0.0
C166 C 0.79802 0.70998 0.67492 0.0
H167 H 0.68788 0.62708 0.68093 0.0
O168 O 0.59413 0.79214 0.65876 0.0
O169 O 0.67648 0.77075 0.64183 0.0
O170 O 0.58754 0.70362 0.61857 0.0
O171 O 0.66194 0.65384 0.63253 0.0
C172 C 0.88517 0.7142 0.70106 0.0
C173 C 0.90317 0.75649 0.68257 0.0
H174 H 0.92604 0.83211 0.64066 0.0
H175 H 0.86474 0.8517 0.59883 0.0
H176 H 0.74652 0.58758 0.71955 0.0
H177 H 0.8396 0.62689 0.72979 0.0
H178 H 0.91226 0.70031 0.71826 0.0
H179 H 0.94365 0.77488 0.68595 0.0
Mn180 Mn 0.20981 0.07898 0.87275 0.0
Mn181 Mn 0.2846 0.19438 0.88853 0.0
C182 C 0.2107 0.11296 0.91872 0.0
C183 C 0.13026 0.03473 0.85612 0.0
C184 C 0.33564 0.07938 0.88395 0.0
O185 O 0.22581 0.11046 0.83376 0.0
O186 O 0.27488 0.18634 0.84621 0.0
C187 C 0.1997 0.27581 0.86903 0.0
N188 N 0.23376 0.25576 0.89006 0.0
C189 C 0.20038 0.32429 0.92354 0.0
C190 C 0.16521 0.34589 0.90219 0.0
C191 C 0.16481 0.32146 0.87484 0.0
C192 C 0.23407 0.27862 0.91652 0.0
H193 H 0.19902 0.25701 0.84802 0.0
C194 C 0.25277 0.15405 0.82741 0.0
O195 O 0.17842 0.01055 0.85514 0.0
O196 O 0.12858 0.08554 0.86592 0.0
N197 N 0.29817 0.2093 0.92822 0.0
C198 C 0.3365 0.18528 0.94599 0.0
C199 C 0.34294 0.20553 0.97404 0.0
C200 C 0.31075 0.25093 0.98336 0.0
C201 C 0.27319 0.27639 0.96435 0.0
C202 C 0.26889 0.25464 0.93658 0.0
H203 H 0.36159 0.15055 0.93893 0.0
O204 O 0.19631 0.06191 0.91334 0.0
O205 O 0.22241 0.14398 0.89677 0.0
O206 O 0.29054 0.05465 0.8774 0.0
O207 O 0.33885 0.13199 0.88839 0.0
C208 C 0.23978 0.32242 0.97187 0.0
C209 C 0.20319 0.34618 0.95152 0.0
H210 H 0.13825 0.38111 0.90658 0.0
H211 H 0.13762 0.33775 0.85828 0.0
H212 H 0.37249 0.18604 0.98848 0.0
H213 H 0.31545 0.2661 0.00509 0.0
H214 H 0.24178 0.33977 0.99327 0.0
H215 H 0.17754 0.38142 0.95759 0.0
Mn216 Mn 0.89574 0.74382 0.11797 0.0
Mn217 Mn 0.77923 0.67132 0.10357 0.0
C218 C 0.85732 0.74488 0.07271 0.0
C219 C 0.93496 0.82986 0.13189 0.0
C220 C 0.89265 0.61585 0.11005 0.0
O221 O 0.86585 0.72827 0.1574 0.0
O222 O 0.78661 0.68359 0.14559 0.0
C223 C 0.69707 0.75702 0.12054 0.0
N224 N 0.71825 0.72219 0.1003 0.0
C225 C 0.65151 0.75392 0.06529 0.0
C226 C 0.62871 0.78983 0.08582 0.0
C227 C 0.65164 0.79142 0.11355 0.0
C228 C 0.69648 0.72028 0.07356 0.0
H229 H 0.71485 0.75864 0.14181 0.0
C230 C 0.82086 0.70395 0.16402 0.0
O231 O 0.96325 0.78356 0.13367 0.0
O232 O 0.88409 0.82546 0.12338 0.0
N233 N 0.76722 0.65697 0.06371 0.0
C234 C 0.79583 0.62212 0.04605 0.0
C235 C 0.77918 0.61689 0.01731 0.0
C236 C 0.7332 0.64728 0.00707 0.0
C237 C 0.70403 0.68238 0.02572 0.0
C238 C 0.72223 0.6855 0.05422 0.0
H239 H 0.83141 0.59893 0.05377 0.0
O240 O 0.90918 0.75685 0.07662 0.0
O241 O 0.82983 0.73203 0.09539 0.0
O242 O 0.9209 0.66049 0.11448 0.0
O243 O 0.84015 0.61636 0.1059 0.0
C244 C 0.65834 0.71525 0.01703 0.0
C245 C 0.63211 0.75101 0.0368 0.0
H246 H 0.59394 0.81674 0.08046 0.0
H247 H 0.63448 0.81927 0.12946 0.0
H248 H 0.80198 0.58981 0.00303 0.0
H249 H 0.72092 0.64369 0.9848 0.0
H250 H 0.64349 0.71391 0.99511 0.0
H251 H 0.59747 0.77661 0.02977 0.0
Mn252 Mn 0.28131 0.38345 0.36202 0.0
Mn253 Mn 0.36891 0.27574 0.35125 0.0
C254 C 0.29172 0.34506 0.31646 0.0
C255 C 0.19317 0.41854 0.3731 0.0
C256 C 0.40776 0.39503 0.35762 0.0
O257 O 0.29561 0.35553 0.40291 0.0
O258 O 0.35149 0.28338 0.39212 0.0
C259 C 0.29254 0.18494 0.36686 0.0
N260 N 0.32734 0.2086 0.34777 0.0
C261 C 0.32088 0.1292 0.31643 0.0
C262 C 0.28493 0.1038 0.3357 0.0
C263 C 0.27024 0.13208 0.3609 0.0
C264 C 0.34012 0.18271 0.32304 0.0
H265 H 0.28228 0.20608 0.38655 0.0
C266 C 0.32553 0.31361 0.41016 0.0
O267 O 0.23741 0.44874 0.37612 0.0
O268 O 0.20044 0.36742 0.36468 0.0
N269 N 0.39017 0.26268 0.31273 0.0
C270 C 0.4247 0.29345 0.29632 0.0
C271 C 0.44399 0.27108 0.27054 0.0
C272 C 0.42891 0.21679 0.2624 0.0
C273 C 0.39311 0.18604 0.27961 0.0
C274 C 0.37416 0.21101 0.30469 0.0
H275 H 0.43806 0.33442 0.30305 0.0
O276 O 0.27231 0.39518 0.31981 0.0
O277 O 0.30332 0.31834 0.33984 0.0
O278 O 0.35985 0.41689 0.36111 0.0
O279 O 0.4154 0.34279 0.35399 0.0
C280 C 0.37717 0.13086 0.27352 0.0
C281 C 0.33987 0.10294 0.2914 0.0
H282 H 0.26868 0.06251 0.33147 0.0
H283 H 0.2426 0.11277 0.37592 0.0
H284 H 0.47164 0.29499 0.25738 0.0
H285 H 0.44583 0.1991 0.24311 0.0
H286 H 0.39455 0.10905 0.25558 0.0
H287 H 0.32729 0.06079 0.28611 0.0
H288 H 0.23569 0.1429 0.05063 0.0
H289 H 0.10841 0.26754 0.03691 0.0
H290 H 0.11289 0.25064 0.98509 0.0
H291 H 0.15043 0.19595 0.94395 0.0
H292 H 0.27235 0.06757 0.96031 0.0
H293 H 0.27205 0.09002 0.01119 0.0
C294 C 0.20908 0.1671 0.03648 0.0
C295 C 0.1719 0.20672 0.04774 0.0
C296 C 0.21069 0.15599 0.00721 0.0
C297 C 0.13741 0.2368 0.02884 0.0
C298 C 0.13985 0.22698 -0.00074 0.0
C299 C 0.17744 0.17382 0.95877 0.0
C300 C 0.21297 0.13162 0.94857 0.0
C301 C 0.17595 0.18612 0.98823 0.0
C302 C 0.24592 0.10114 0.96782 0.0
C303 C 0.2456 0.11384 -0.00317 0.0
H304 H 0.75854 0.6266 0.28797 0.0
H305 H 0.88175 0.74981 0.3104 0.0
H306 H 0.8919 0.77349 0.26014 0.0
H307 H 0.86962 0.75573 0.20968 0.0
H308 H 0.74523 0.63359 0.18733 0.0
H309 H 0.73153 0.61351 0.23772 0.0
C310 C 0.78751 0.65876 0.28189 0.0
C311 C 0.81972 0.68591 0.30292 0.0
C312 C 0.79304 0.6724 0.25295 0.0
C313 C 0.85645 0.72811 0.29467 0.0
C314 C 0.86243 0.74163 0.26591 0.0
C315 C 0.83928 0.72492 0.2158 0.0
C316 C 0.80896 0.69588 0.19468 0.0
C317 C 0.83151 0.7135 0.24485 0.0
C318 C 0.76928 0.65661 0.20308 0.0
C319 C 0.76151 0.64487 0.23192 0.0
H320 H 0.41299 0.23756 0.53121 0.0
H321 H 0.28903 0.35373 0.56009 0.0
H322 H 0.26038 0.37202 0.51037 0.0
H323 H 0.27493 0.35773 0.45816 0.0
H324 H 0.39804 0.23701 0.43138 0.0
H325 H 0.42172 0.2173 0.48052 0.0
C326 C 0.37914 0.26624 0.52652 0.0
C327 C 0.35222 0.29331 0.54897 0.0
C328 C 0.36287 0.27595 0.49818 0.0
C329 C 0.30924 0.33135 0.54293 0.0
C330 C 0.29323 0.34206 0.51455 0.0
C331 C 0.30662 0.32691 0.46311 0.0
C332 C 0.33493 0.29969 0.4408 0.0
C333 C 0.32025 0.31497 0.49188 0.0
C334 C 0.37552 0.25925 0.44779 0.0
C335 C 0.38945 0.24778 0.47604 0.0
H336 H 0.74043 0.89635 0.77477 0.0
H337 H 0.6188 0.79157 0.8139 0.0
H338 H 0.58939 0.75663 0.76682 0.0
H339 H 0.60312 0.75101 0.71478 0.0
H340 H 0.73424 0.84483 0.67641 0.0
H341 H 0.75667 0.88776 0.72275 0.0
C342 C 0.70754 0.86585 0.7728 0.0
C343 C 0.6829 0.84497 0.79755 0.0
C344 C 0.69318 0.84368 0.74582 0.0
C345 C 0.63939 0.80665 0.79502 0.0
C346 C 0.6225 0.78693 0.76816 0.0
C347 C 0.63737 0.77997 0.7168 0.0
C348 C 0.66788 0.79388 0.6925 0.0
C349 C 0.65037 0.80371 0.74353 0.0
C350 C 0.71141 0.83225 0.69508 0.0
C351 C 0.72331 0.85775 0.7214 0.0
H352 H 0.23821 0.24963 0.30287 0.0
H353 H 0.33358 0.38229 0.26655 0.0
H354 H 0.31093 0.34872 0.21828 0.0
H355 H 0.25072 0.2919 0.18681 0.0
H356 H 0.14475 0.16845 0.22373 0.0
H357 H 0.18549 0.1865 0.27108 0.0
C358 C 0.25531 0.26999 0.28433 0.0
C359 C 0.28797 0.3179 0.2881 0.0
C360 C 0.23963 0.25216 0.25669 0.0
C361 C 0.30865 0.34509 0.26402 0.0
C362 C 0.29551 0.32602 0.23647 0.0
C363 C 0.23799 0.26784 0.20515 0.0
C364 C 0.19533 0.22856 0.20193 0.0
C365 C 0.25914 0.28104 0.23253 0.0
C366 C 0.1779 0.19856 0.22583 0.0
C367 C 0.20089 0.20921 0.25288 0.0
H368 H 0.76291 0.67269 0.55355 0.0
H369 H 0.6353 0.78416 0.52173 0.0
H370 H 0.65805 0.75696 0.47257 0.0
H371 H 0.71192 0.6977 0.43904 0.0
H372 H 0.83497 0.58378 0.47252 0.0
H373 H 0.8155 0.6153 0.52116 0.0
C374 C 0.73985 0.69154 0.53603 0.0
C375 C 0.69715 0.73036 0.54143 0.0
C376 C 0.75218 0.67489 0.50823 0.0
C377 C 0.66821 0.75408 0.51822 0.0
C378 C 0.68103 0.73835 0.49016 0.0
C379 C 0.73483 0.68065 0.4571 0.0
C380 C 0.7761 0.64005 0.45254 0.0
C381 C 0.72259 0.69832 0.48498 0.0
C382 C 0.80402 0.61604 0.47581 0.0
C383 C 0.79283 0.63397 0.50347 0.0
H384 H 0.26254 0.17361 0.69297 0.0
H385 H 0.38527 0.29738 0.71536 0.0
H386 H 0.36824 0.28215 0.76595 0.0
H387 H 0.32101 0.23152 0.80398 0.0
H388 H 0.20013 0.10597 0.78149 0.0
H389 H 0.214 0.12439 0.73093 0.0
C390 C 0.28538 0.19758 0.70886 0.0
C391 C 0.32526 0.23649 0.70021 0.0
C392 C 0.2759 0.18821 0.73801 0.0
C393 C 0.35449 0.26693 0.72126 0.0
C394 C 0.34479 0.2583 0.75027 0.0
C395 C 0.2974 0.20837 0.78807 0.0
C396 C 0.2597 0.16727 0.79668 0.0
C397 C 0.30596 0.21868 0.75891 0.0
C398 C 0.22968 0.13765 0.77561 0.0
C399 C 0.23752 0.14816 0.74662 0.0
H400 H 0.88626 0.71017 0.02055 0.0
H401 H 0.77129 0.81673 0.06473 0.0
H402 H 0.73183 0.8485 0.01902 0.0
H403 H 0.73241 0.84734 0.96606 0.0
H404 H 0.84917 0.73921 0.92307 0.0
H405 H 0.88494 0.70661 0.96849 0.0
C406 C 0.85212 0.73983 0.02001 0.0
C407 C 0.83033 0.75987 0.04561 0.0
C408 C 0.8301 0.75787 0.99383 0.0
C409 C 0.78723 0.79947 0.04501 0.0
C410 C 0.76511 0.81796 0.01895 0.0
C411 C 0.76563 0.81671 0.96667 0.0
C412 C 0.78797 0.7962 0.94104 0.0
C413 C 0.78644 0.79761 0.99313 0.0
C414 C 0.83086 0.75603 0.94231 0.0
C415 C 0.85166 0.73719 0.96834 0.0
H416 H 0.00096 0.08569 0.13725 0.0
H417 H 0.16413 0.01161 0.13052 0.0
H418 H 0.12486 0.91928 0.13216 0.0
H419 H 0.0445 0.85754 0.13367 0.0
H420 H 0.88062 0.92901 0.13895 0.0
H421 H 0.91968 0.02286 0.14009 0.0
C422 C 0.02789 0.04942 0.13613 0.0
C423 C 0.08558 0.05658 0.13359 0.0
C424 C 0.00496 0.99518 0.13699 0.0
C425 C 0.11956 0.00841 0.13232 0.0
C426 C 0.09721 0.95499 0.13334 0.0
C427 C 0.01739 0.89358 0.13552 0.0
C428 C 0.95977 0.88601 0.13631 0.0
C429 C 0.04002 0.94768 0.13552 0.0
C430 C 0.92525 0.93346 0.13833 0.0
C431 C 0.94754 0.98733 0.13886 0.0
H432 H 0.16532 0.52582 0.38623 0.0
H433 H 0.09387 0.36474 0.36805 0.0
H434 H 0.00079 0.40508 0.37049 0.0
H435 H 0.93946 0.48701 0.37606 0.0
H436 H 0.01208 0.64803 0.39393 0.0
H437 H 0.1043 0.60676 0.39326 0.0
C438 C 0.12941 0.4994 0.38303 0.0
C439 C 0.13674 0.44232 0.37694 0.0
C440 C 0.07593 0.52296 0.38419 0.0
C441 C 0.08959 0.40881 0.37279 0.0
C442 C 0.03624 0.4319 0.3741 0.0
C443 C 0.97538 0.51313 0.37985 0.0
C444 C 0.96831 0.57077 0.38485 0.0
C445 C 0.02886 0.4891 0.37946 0.0
C446 C 0.01573 0.60365 0.38986 0.0
C447 C 0.06878 0.58008 0.38953 0.0
H448 H 0.42684 0.4726 0.62408 0.0
H449 H 0.55941 0.37676 0.66279 0.0
H450 H 0.61936 0.45861 0.66264 0.0
H451 H 0.6359 0.55573 0.64841 0.0
H452 H 0.50295 0.64954 0.60828 0.0
H453 H 0.44183 0.56994 0.61187 0.0
C454 C 0.46851 0.46984 0.63294 0.0
C455 C 0.4887 0.41882 0.64337 0.0
C456 C 0.50312 0.51646 0.63208 0.0
C457 C 0.54294 0.41573 0.65461 0.0
C458 C 0.57736 0.46237 0.65437 0.0
C459 C 0.59362 0.55875 0.64043 0.0
C460 C 0.5744 0.60857 0.62795 0.0
C461 C 0.55828 0.51264 0.64253 0.0
C462 C 0.51919 0.61177 0.61792 0.0
C463 C 0.48394 0.56628 0.62001 0.0
H464 H 0.52822 0.90094 0.88563 0.0
H465 H 0.62331 0.04436 0.91234 0.0
H466 H 0.53881 0.10123 0.91298 0.0
H467 H 0.43921 0.11182 0.90179 0.0
H468 H 0.34611 0.96782 0.87338 0.0
H469 H 0.42874 0.90996 0.87737 0.0
C470 C 0.53046 0.94441 0.89209 0.0
C471 C 0.58201 0.96841 0.89879 0.0
C472 C 0.48216 0.97711 0.8916 0.0
C473 C 0.58409 0.02483 0.90708 0.0
C474 C 0.53585 0.05748 0.90723 0.0
C475 C 0.43691 0.06779 0.8965 0.0
C476 C 0.3864 0.0446 0.88697 0.0
C477 C 0.48486 0.0344 0.89875 0.0
C478 C 0.38431 0.98719 0.88055 0.0
C479 C 0.43159 0.95384 0.88289 0.0
H480 H 0.00117 0.58732 0.12415 0.0
H481 H 0.84545 0.51595 0.09628 0.0
H482 H 0.885 0.42297 0.09897 0.0
H483 H 0.96288 0.35993 0.11033 0.0
H484 H 0.1194 0.42986 0.13728 0.0
H485 H 0.08068 0.52389 0.13383 0.0
C486 C 0.97597 0.55153 0.11848 0.0
C487 C 0.92007 0.5595 0.11022 0.0
C488 C 0.99907 0.49713 0.12002 0.0
C489 C 0.88843 0.51197 0.10296 0.0
C490 C 0.911 0.45826 0.10447 0.0
C491 C 0.98855 0.39571 0.11541 0.0
C492 C 0.04397 0.38742 0.12416 0.0
C493 C 0.9661 0.45011 0.11321 0.0
C494 C 0.07657 0.43463 0.13048 0.0
C495 C 0.05443 0.48868 0.12854 0.0
H496 H 0.51297 0.36597 0.34308 0.0
H497 H 0.41507 0.5059 0.37241 0.0
H498 H 0.49831 0.56355 0.3747 0.0
H499 H 0.59949 0.57276 0.3707 0.0
H500 H 0.6969 0.4322 0.34189 0.0
H501 H 0.61287 0.37642 0.33684 0.0
C502 C 0.50955 0.40911 0.34995 0.0
C503 C 0.45761 0.43127 0.35782 0.0
C504 C 0.55753 0.44195 0.35127 0.0
C505 C 0.45433 0.48754 0.36631 0.0
C506 C 0.50198 0.52056 0.36766 0.0
C507 C 0.60234 0.53009 0.36303 0.0
C508 C 0.65455 0.50664 0.35678 0.0
C509 C 0.55388 0.49801 0.36049 0.0
C510 C 0.65736 0.45129 0.34689 0.0
C511 C 0.60932 0.41929 0.34408 0.0
H512 H 0.38478 0.05715 0.59425 0.0
H513 H 0.52107 0.15258 0.62953 0.0
H514 H 0.58091 0.07097 0.6275 0.0
H515 H 0.5941 0.97166 0.61788 0.0
H516 H 0.45845 0.87482 0.58343 0.0
H517 H 0.39937 0.9579 0.58261 0.0
C518 C 0.42753 0.0601 0.6015 0.0
C519 C 0.44801 0.11101 0.6122 0.0
C520 C 0.46213 0.0128 0.60031 0.0
C521 C 0.50383 0.11405 0.62125 0.0
C522 C 0.53833 0.06735 0.62009 0.0
C523 C 0.55185 0.96884 0.60984 0.0
C524 C 0.5307 0.91719 0.60082 0.0
C525 C 0.51785 0.01645 0.60988 0.0
C526 C 0.47576 0.91418 0.59054 0.0
C527 C 0.44183 0.9616 0.59018 0.0
H528 H 0.9366 0.86272 0.83874 0.0
H529 H 0.84072 0.00781 0.86308 0.0
H530 H 0.92373 0.06465 0.86294 0.0
H531 H 0.02441 0.07197 0.86006 0.0
H532 H 0.12149 0.92727 0.83696 0.0
H533 H 0.03715 0.87197 0.83208 0.0
C534 C 0.93374 0.90686 0.84374 0.0
C535 C 0.88246 0.93053 0.85133 0.0
C536 C 0.98192 0.93954 0.84393 0.0
C537 C 0.87963 0.98803 0.85754 0.0
C538 C 0.92713 0.02079 0.85744 0.0
C539 C 0.0271 0.02854 0.85358 0.0
C540 C 0.07912 0.00368 0.84915 0.0
C541 C 0.97863 0.99676 0.85131 0.0
C542 C 0.0819 0.94739 0.84064 0.0
C543 C 0.0337 0.91564 0.83795 0.0
loop_
_geom_bond_atom_site_label_1
_geom_bond_atom_site_label_2
_geom_bond_distance
_geom_bond_site_symmetry_2
_ccdc_geom_bond_type
Mn0 O5 2.095 . S
Mn0 O15 2.162 . S
Mn0 O16 2.297 . S
Mn0 O24 2.385 . S
Mn0 O25 2.209 . S
Mn0 O26 2.094 . S
Mn1 O6 2.121 . S
Mn1 N8 2.257 . S
Mn1 N17 2.282 . S
Mn1 O25 2.215 . S
Mn1 O27 2.117 . S
C2 O24 1.234 . S
C2 O25 1.283 . S
C3 O15 1.281 . S
C3 O16 1.236 . S
C4 O26 1.240 . S
C4 O27 1.264 . S
O5 Mn0 2.095 . S
O5 C14 1.250 . S
O6 Mn1 2.121 . S
O6 C14 1.258 . S
C7 N8 1.326 . S
C7 C11 1.460 . S
C7 H13 0.929 . S
N8 Mn1 2.257 . S
N8 C7 1.326 . S
N8 C12 1.362 . S
C9 C10 1.258 . S
C9 C12 1.431 . S
C9 C29 1.449 . S
C10 C9 1.258 . S
C10 C11 1.477 . S
C10 H30 0.931 . S
C11 C7 1.460 . S
C11 C10 1.477 . S
C11 H31 0.930 . S
C12 N8 1.362 . S
C12 C9 1.431 . S
C12 C22 1.476 . S
H13 C7 0.929 . S
C14 O5 1.250 . S
C14 O6 1.258 . S
O15 Mn0 2.162 . S
O15 C3 1.281 . S
O16 Mn0 2.297 . S
O16 C3 1.236 . S
N17 Mn1 2.282 . S
N17 C18 1.328 . S
N17 C22 1.318 . S
C18 N17 1.328 . S
C18 C19 1.457 . S
C18 H23 0.929 . S
C19 C18 1.457 . S
C19 C20 1.291 . S
C19 H32 0.931 . S
C20 C19 1.291 . S
C20 C21 1.373 . S
C20 H33 0.929 . S
C21 C20 1.373 . S
C21 C22 1.396 . S
C21 C28 1.403 . S
C22 C12 1.476 . S
C22 N17 1.318 . S
C22 C21 1.396 . S
H23 C18 0.929 . S
O24 Mn0 2.385 . S
O24 C2 1.234 . S
O25 Mn0 2.209 . S
O25 Mn1 2.215 . S
O25 C2 1.283 . S
O26 Mn0 2.094 . S
O26 C4 1.240 . S
O27 Mn1 2.117 . S
O27 C4 1.264 . S
C28 C21 1.403 . S
C28 C29 1.399 . S
C28 H34 0.929 . S
C29 C9 1.449 . S
C29 C28 1.399 . S
C29 H35 0.930 . S
H30 C10 0.931 . S
H31 C11 0.930 . S
H32 C19 0.931 . S
H33 C20 0.929 . S
H34 C28 0.929 . S
H35 C29 0.930 . S
Mn36 O41 2.095 . S
Mn36 O51 2.162 . S
Mn36 O52 2.297 . S
Mn36 O60 2.385 . S
Mn36 O61 2.209 . S
Mn36 O62 2.094 . S
Mn37 O42 2.121 . S
Mn37 N44 2.257 . S
Mn37 N53 2.282 . S
Mn37 O61 2.215 . S
Mn37 O63 2.117 . S
C38 O60 1.234 . S
C38 O61 1.283 . S
C39 O51 1.281 . S
C39 O52 1.236 . S
C40 O62 1.240 . S
C40 O63 1.264 . S
O41 Mn36 2.095 . S
O41 C50 1.250 . S
O42 Mn37 2.121 . S
O42 C50 1.258 . S
C43 N44 1.326 . S
C43 C47 1.460 . S
C43 H49 0.929 . S
N44 Mn37 2.257 . S
N44 C43 1.326 . S
N44 C48 1.362 . S
C45 C46 1.258 . S
C45 C48 1.431 . S
C45 C65 1.449 . S
C46 C45 1.258 . S
C46 C47 1.477 . S
C46 H66 0.931 . S
C47 C43 1.460 . S
C47 C46 1.477 . S
C47 H67 0.930 . S
C48 N44 1.362 . S
C48 C45 1.431 . S
C48 C58 1.476 . S
H49 C43 0.929 . S
C50 O41 1.250 . S
C50 O42 1.258 . S
O51 Mn36 2.162 . S
O51 C39 1.281 . S
O52 Mn36 2.297 . S
O52 C39 1.236 . S
N53 Mn37 2.282 . S
N53 C54 1.328 . S
N53 C58 1.318 . S
C54 N53 1.328 . S
C54 C55 1.457 . S
C54 H59 0.929 . S
C55 C54 1.457 . S
C55 C56 1.291 . S
C55 H68 0.931 . S
C56 C55 1.291 . S
C56 C57 1.373 . S
C56 H69 0.929 . S
C57 C56 1.373 . S
C57 C58 1.396 . S
C57 C64 1.403 . S
C58 C48 1.476 . S
C58 N53 1.318 . S
C58 C57 1.396 . S
H59 C54 0.929 . S
O60 Mn36 2.385 . S
O60 C38 1.234 . S
O61 Mn36 2.209 . S
O61 Mn37 2.215 . S
O61 C38 1.283 . S
O62 Mn36 2.094 . S
O62 C40 1.240 . S
O63 Mn37 2.117 . S
O63 C40 1.264 . S
C64 C57 1.403 . S
C64 C65 1.399 . S
C64 H70 0.929 . S
C65 C45 1.449 . S
C65 C64 1.399 . S
C65 H71 0.930 . S
H66 C46 0.931 . S
H67 C47 0.930 . S
H68 C55 0.931 . S
H69 C56 0.929 . S
H70 C64 0.929 . S
H71 C65 0.930 . S
Mn72 O77 2.095 . S
Mn72 O87 2.162 . S
Mn72 O88 2.297 . S
Mn72 O96 2.385 . S
Mn72 O97 2.209 . S
Mn72 O98 2.094 . S
Mn73 O78 2.121 . S
Mn73 N80 2.257 . S
Mn73 N89 2.282 . S
Mn73 O97 2.215 . S
Mn73 O99 2.117 . S
C74 O96 1.234 . S
C74 O97 1.283 . S
C75 O87 1.281 . S
C75 O88 1.236 . S
C76 O98 1.240 . S
C76 O99 1.264 . S
O77 Mn72 2.095 . S
O77 C86 1.250 . S
O78 Mn73 2.121 . S
O78 C86 1.258 . S
C79 N80 1.326 . S
C79 C83 1.460 . S
C79 H85 0.929 . S
N80 Mn73 2.257 . S
N80 C79 1.326 . S
N80 C84 1.362 . S
C81 C82 1.258 . S
C81 C84 1.431 . S
C81 C101 1.449 . S
C82 C81 1.258 . S
C82 C83 1.477 . S
C82 H102 0.931 . S
C83 C79 1.460 . S
C83 C82 1.477 . S
C83 H103 0.930 . S
C84 N80 1.362 . S
C84 C81 1.431 . S
C84 C94 1.476 . S
H85 C79 0.929 . S
C86 O77 1.250 . S
C86 O78 1.258 . S
O87 Mn72 2.162 . S
O87 C75 1.281 . S
O88 Mn72 2.297 . S
O88 C75 1.236 . S
N89 Mn73 2.282 . S
N89 C90 1.328 . S
N89 C94 1.318 . S
C90 N89 1.328 . S
C90 C91 1.457 . S
C90 H95 0.929 . S
C91 C90 1.457 . S
C91 C92 1.291 . S
C91 H104 0.931 . S
C92 C91 1.291 . S
C92 C93 1.373 . S
C92 H105 0.929 . S
C93 C92 1.373 . S
C93 C94 1.396 . S
C93 C100 1.403 . S
C94 C84 1.476 . S
C94 N89 1.318 . S
C94 C93 1.396 . S
H95 C90 0.929 . S
O96 Mn72 2.385 . S
O96 C74 1.234 . S
O97 Mn72 2.209 . S
O97 Mn73 2.215 . S
O97 C74 1.283 . S
O98 Mn72 2.094 . S
O98 C76 1.240 . S
O99 Mn73 2.117 . S
O99 C76 1.264 . S
C100 C93 1.403 . S
C100 C101 1.399 . S
C100 H106 0.929 . S
C101 C81 1.449 . S
C101 C100 1.399 . S
C101 H107 0.930 . S
H102 C82 0.931 . S
H103 C83 0.930 . S
H104 C91 0.931 . S
H105 C92 0.929 . S
H106 C100 0.929 . S
H107 C101 0.930 . S
Mn108 O113 2.095 . S
Mn108 O123 2.162 . S
Mn108 O124 2.297 . S
Mn108 O132 2.385 . S
Mn108 O133 2.209 . S
Mn108 O134 2.094 . S
Mn109 O114 2.121 . S
Mn109 N116 2.257 . S
Mn109 N125 2.282 . S
Mn109 O133 2.215 . S
Mn109 O135 2.117 . S
C110 O132 1.234 . S
C110 O133 1.283 . S
C111 O123 1.281 . S
C111 O124 1.236 . S
C112 O134 1.240 . S
C112 O135 1.264 . S
O113 Mn108 2.095 . S
O113 C122 1.250 . S
O114 Mn109 2.121 . S
O114 C122 1.258 . S
C115 N116 1.326 . S
C115 C119 1.460 . S
C115 H121 0.929 . S
N116 Mn109 2.257 . S
N116 C115 1.326 . S
N116 C120 1.362 . S
C117 C118 1.258 . S
C117 C120 1.431 . S
C117 C137 1.449 . S
C118 C117 1.258 . S
C118 C119 1.477 . S
C118 H138 0.931 . S
C119 C115 1.460 . S
C119 C118 1.477 . S
C119 H139 0.930 . S
C120 N116 1.362 . S
C120 C117 1.431 . S
C120 C130 1.476 . S
H121 C115 0.929 . S
C122 O113 1.250 . S
C122 O114 1.258 . S
O123 Mn108 2.162 . S
O123 C111 1.281 . S
O124 Mn108 2.297 . S
O124 C111 1.236 . S
N125 Mn109 2.282 . S
N125 C126 1.328 . S
N125 C130 1.318 . S
C126 N125 1.328 . S
C126 C127 1.457 . S
C126 H131 0.929 . S
C127 C126 1.457 . S
C127 C128 1.291 . S
C127 H140 0.931 . S
C128 C127 1.291 . S
C128 C129 1.373 . S
C128 H141 0.929 . S
C129 C128 1.373 . S
C129 C130 1.396 . S
C129 C136 1.403 . S
C130 C120 1.476 . S
C130 N125 1.318 . S
C130 C129 1.396 . S
H131 C126 0.929 . S
O132 Mn108 2.385 . S
O132 C110 1.234 . S
O133 Mn108 2.209 . S
O133 Mn109 2.215 . S
O133 C110 1.283 . S
O134 Mn108 2.094 . S
O134 C112 1.240 . S
O135 Mn109 2.117 . S
O135 C112 1.264 . S
C136 C129 1.403 . S
C136 C137 1.399 . S
C136 H142 0.929 . S
C137 C117 1.449 . S
C137 C136 1.399 . S
C137 H143 0.930 . S
H138 C118 0.931 . S
H139 C119 0.930 . S
H140 C127 0.931 . S
H141 C128 0.929 . S
H142 C136 0.929 . S
H143 C137 0.930 . S
Mn144 O149 2.095 . S
Mn144 O159 2.162 . S
Mn144 O160 2.297 . S
Mn144 O168 2.385 . S
Mn144 O169 2.209 . S
Mn144 O170 2.094 . S
Mn145 O150 2.121 . S
Mn145 N152 2.257 . S
Mn145 N161 2.282 . S
Mn145 O169 2.215 . S
Mn145 O171 2.117 . S
C146 O168 1.234 . S
C146 O169 1.283 . S
C147 O159 1.281 . S
C147 O160 1.236 . S
C148 O170 1.240 . S
C148 O171 1.264 . S
O149 Mn144 2.095 . S
O149 C158 1.250 . S
O150 Mn145 2.121 . S
O150 C158 1.258 . S
C151 N152 1.326 . S
C151 C155 1.460 . S
C151 H157 0.929 . S
N152 Mn145 2.257 . S
N152 C151 1.326 . S
N152 C156 1.362 . S
C153 C154 1.258 . S
C153 C156 1.431 . S
C153 C173 1.449 . S
C154 C153 1.258 . S
C154 C155 1.477 . S
C154 H174 0.931 . S
C155 C151 1.460 . S
C155 C154 1.477 . S
C155 H175 0.930 . S
C156 N152 1.362 . S
C156 C153 1.431 . S
C156 C166 1.476 . S
H157 C151 0.929 . S
C158 O149 1.250 . S
C158 O150 1.258 . S
O159 Mn144 2.162 . S
O159 C147 1.281 . S
O160 Mn144 2.297 . S
O160 C147 1.236 . S
N161 Mn145 2.282 . S
N161 C162 1.328 . S
N161 C166 1.318 . S
C162 N161 1.328 . S
C162 C163 1.457 . S
C162 H167 0.929 . S
C163 C162 1.457 . S
C163 C164 1.291 . S
C163 H176 0.931 . S
C164 C163 1.291 . S
C164 C165 1.373 . S
C164 H177 0.929 . S
C165 C164 1.373 . S
C165 C166 1.396 . S
C165 C172 1.403 . S
C166 C156 1.476 . S
C166 N161 1.318 . S
C166 C165 1.396 . S
H167 C162 0.929 . S
O168 Mn144 2.385 . S
O168 C146 1.234 . S
O169 Mn144 2.209 . S
O169 Mn145 2.215 . S
O169 C146 1.283 . S
O170 Mn144 2.094 . S
O170 C148 1.240 . S
O171 Mn145 2.117 . S
O171 C148 1.264 . S
C172 C165 1.403 . S
C172 C173 1.399 . S
C172 H178 0.929 . S
C173 C153 1.449 . S
C173 C172 1.399 . S
C173 H179 0.930 . S
H174 C154 0.931 . S
H175 C155 0.930 . S
H176 C163 0.931 . S
H177 C164 0.929 . S
H178 C172 0.929 . S
H179 C173 0.930 . S
Mn180 O185 2.095 . S
Mn180 O195 2.162 . S
Mn180 O196 2.297 . S
Mn180 O204 2.385 . S
Mn180 O205 2.209 . S
Mn180 O206 2.094 . S
Mn181 O186 2.121 . S
Mn181 N188 2.257 . S
Mn181 N197 2.282 . S
Mn181 O205 2.215 . S
Mn181 O207 2.117 . S
C182 O204 1.234 . S
C182 O205 1.283 . S
C183 O195 1.281 . S
C183 O196 1.236 . S
C184 O206 1.240 . S
C184 O207 1.264 . S
O185 Mn180 2.095 . S
O185 C194 1.250 . S
O186 Mn181 2.121 . S
O186 C194 1.258 . S
C187 N188 1.326 . S
C187 C191 1.460 . S
C187 H193 0.929 . S
N188 Mn181 2.257 . S
N188 C187 1.326 . S
N188 C192 1.362 . S
C189 C190 1.258 . S
C189 C192 1.431 . S
C189 C209 1.449 . S
C190 C189 1.258 . S
C190 C191 1.477 . S
C190 H210 0.931 . S
C191 C187 1.460 . S
C191 C190 1.477 . S
C191 H211 0.930 . S
C192 N188 1.362 . S
C192 C189 1.431 . S
C192 C202 1.476 . S
H193 C187 0.929 . S
C194 O185 1.250 . S
C194 O186 1.258 . S
O195 Mn180 2.162 . S
O195 C183 1.281 . S
O196 Mn180 2.297 . S
O196 C183 1.236 . S
N197 Mn181 2.282 . S
N197 C198 1.328 . S
N197 C202 1.318 . S
C198 N197 1.328 . S
C198 C199 1.457 . S
C198 H203 0.929 . S
C199 C198 1.457 . S
C199 C200 1.291 . S
C199 H212 0.931 . S
C200 C199 1.291 . S
C200 C201 1.373 . S
C200 H213 0.929 1_556 S
C201 C200 1.373 . S
C201 C202 1.396 . S
C201 C208 1.403 . S
C202 C192 1.476 . S
C202 N197 1.318 . S
C202 C201 1.396 . S
H203 C198 0.929 . S
O204 Mn180 2.385 . S
O204 C182 1.234 . S
O205 Mn180 2.209 . S
O205 Mn181 2.215 . S
O205 C182 1.283 . S
O206 Mn180 2.094 . S
O206 C184 1.240 . S
O207 Mn181 2.117 . S
O207 C184 1.264 . S
C208 C201 1.403 . S
C208 C209 1.399 . S
C208 H214 0.929 . S
C209 C189 1.449 . S
C209 C208 1.399 . S
C209 H215 0.930 . S
H210 C190 0.931 . S
H211 C191 0.930 . S
H212 C199 0.931 . S
H213 C200 0.929 1_554 S
H214 C208 0.929 . S
H215 C209 0.930 . S
Mn216 O221 2.095 . S
Mn216 O231 2.162 . S
Mn216 O232 2.297 . S
Mn216 O240 2.385 . S
Mn216 O241 2.209 . S
Mn216 O242 2.094 . S
Mn217 O222 2.121 . S
Mn217 N224 2.257 . S
Mn217 N233 2.282 . S
Mn217 O241 2.215 . S
Mn217 O243 2.117 . S
C218 O240 1.234 . S
C218 O241 1.283 . S
C219 O231 1.281 . S
C219 O232 1.236 . S
C220 O242 1.240 . S
C220 O243 1.264 . S
O221 Mn216 2.095 . S
O221 C230 1.250 . S
O222 Mn217 2.121 . S
O222 C230 1.258 . S
C223 N224 1.326 . S
C223 C227 1.460 . S
C223 H229 0.929 . S
N224 Mn217 2.257 . S
N224 C223 1.326 . S
N224 C228 1.362 . S
C225 C226 1.258 . S
C225 C228 1.431 . S
C225 C245 1.449 . S
C226 C225 1.258 . S
C226 C227 1.477 . S
C226 H246 0.931 . S
C227 C223 1.460 . S
C227 C226 1.477 . S
C227 H247 0.930 . S
C228 N224 1.362 . S
C228 C225 1.431 . S
C228 C238 1.476 . S
H229 C223 0.929 . S
C230 O221 1.250 . S
C230 O222 1.258 . S
O231 Mn216 2.162 . S
O231 C219 1.281 . S
O232 Mn216 2.297 . S
O232 C219 1.236 . S
N233 Mn217 2.282 . S
N233 C234 1.328 . S
N233 C238 1.318 . S
C234 N233 1.328 . S
C234 C235 1.457 . S
C234 H239 0.929 . S
C235 C234 1.457 . S
C235 C236 1.291 . S
C235 H248 0.931 . S
C236 C235 1.291 . S
C236 C237 1.373 . S
C236 H249 0.929 1_554 S
C237 C236 1.373 . S
C237 C238 1.396 . S
C237 C244 1.403 . S
C238 C228 1.476 . S
C238 N233 1.318 . S
C238 C237 1.396 . S
H239 C234 0.929 . S
O240 Mn216 2.385 . S
O240 C218 1.234 . S
O241 Mn216 2.209 . S
O241 Mn217 2.215 . S
O241 C218 1.283 . S
O242 Mn216 2.094 . S
O242 C220 1.240 . S
O243 Mn217 2.117 . S
O243 C220 1.264 . S
C244 C237 1.403 . S
C244 C245 1.399 . S
C244 H250 0.929 . S
C245 C225 1.449 . S
C245 C244 1.399 . S
C245 H251 0.930 . S
H246 C226 0.931 . S
H247 C227 0.930 . S
H248 C235 0.931 . S
H249 C236 0.929 1_556 S
H250 C244 0.929 . S
H251 C245 0.930 . S
Mn252 O257 2.095 . S
Mn252 O267 2.162 . S
Mn252 O268 2.297 . S
Mn252 O276 2.385 . S
Mn252 O277 2.209 . S
Mn252 O278 2.094 . S
Mn253 O258 2.121 . S
Mn253 N260 2.257 . S
Mn253 N269 2.282 . S
Mn253 O277 2.215 . S
Mn253 O279 2.117 . S
C254 O276 1.234 . S
C254 O277 1.283 . S
C255 O267 1.281 . S
C255 O268 1.236 . S
C256 O278 1.240 . S
C256 O279 1.264 . S
O257 Mn252 2.095 . S
O257 C266 1.250 . S
O258 Mn253 2.121 . S
O258 C266 1.258 . S
C259 N260 1.326 . S
C259 C263 1.460 . S
C259 H265 0.929 . S
N260 Mn253 2.257 . S
N260 C259 1.326 . S
N260 C264 1.362 . S
C261 C262 1.258 . S
C261 C264 1.431 . S
C261 C281 1.449 . S
C262 C261 1.258 . S
C262 C263 1.477 . S
C262 H282 0.931 . S
C263 C259 1.460 . S
C263 C262 1.477 . S
C263 H283 0.930 . S
C264 N260 1.362 . S
C264 C261 1.431 . S
C264 C274 1.476 . S
H265 C259 0.929 . S
C266 O257 1.250 . S
C266 O258 1.258 . S
O267 Mn252 2.162 . S
O267 C255 1.281 . S
O268 Mn252 2.297 . S
O268 C255 1.236 . S
N269 Mn253 2.282 . S
N269 C270 1.328 . S
N269 C274 1.318 . S
C270 N269 1.328 . S
C270 C271 1.457 . S
C270 H275 0.929 . S
C271 C270 1.457 . S
C271 C272 1.291 . S
C271 H284 0.931 . S
C272 C271 1.291 . S
C272 C273 1.373 . S
C272 H285 0.929 . S
C273 C272 1.373 . S
C273 C274 1.396 . S
C273 C280 1.403 . S
C274 C264 1.476 . S
C274 N269 1.318 . S
C274 C273 1.396 . S
H275 C270 0.929 . S
O276 Mn252 2.385 . S
O276 C254 1.234 . S
O277 Mn252 2.209 . S
O277 Mn253 2.215 . S
O277 C254 1.283 . S
O278 Mn252 2.094 . S
O278 C256 1.240 . S
O279 Mn253 2.117 . S
O279 C256 1.264 . S
C280 C273 1.403 . S
C280 C281 1.399 . S
C280 H286 0.929 . S
C281 C261 1.449 . S
C281 C280 1.399 . S
C281 H287 0.930 . S
H282 C262 0.931 . S
H283 C263 0.930 . S
H284 C271 0.931 . S
H285 C272 0.929 . S
H286 C280 0.929 . S
H287 C281 0.930 . S
H288 C294 0.930 . S
H289 C297 0.930 . S
H290 C298 0.914 1_556 S
H291 C299 0.930 . S
H292 C302 0.930 . S
H293 C303 0.930 . S
C294 H288 0.930 . S
C294 C295 1.355 . S
C294 C296 1.415 . S
C295 C294 1.355 . S
C295 C297 1.419 . S
C296 C294 1.415 . S
C296 C301 1.425 1_554 S
C296 C303 1.409 1_554 S
C297 H289 0.930 . S
C297 C295 1.419 . S
C297 C298 1.362 . S
C298 H290 0.914 1_554 S
C298 C297 1.362 . S
C298 C301 1.409 1_554 S
C299 H291 0.930 . S
C299 C300 1.355 . S
C299 C301 1.415 . S
C300 C299 1.355 . S
C300 C302 1.419 . S
C301 C296 1.425 1_556 S
C301 C298 1.409 1_556 S
C301 C299 1.415 . S
C302 H292 0.930 . S
C302 C300 1.419 . S
C302 C303 1.362 . S
C303 H293 0.930 . S
C303 C296 1.409 1_556 S
C303 C302 1.362 . S
H304 C310 0.930 . S
H305 C313 0.930 . S
H306 C314 0.930 . S
H307 C315 0.930 . S
H308 C318 0.930 . S
H309 C319 0.930 . S
C310 H304 0.930 . S
C310 C311 1.355 . S
C310 C312 1.415 . S
C311 C310 1.355 . S
C311 C313 1.419 . S
C312 C310 1.415 . S
C312 C317 1.425 . S
C312 C319 1.409 . S
C313 H305 0.930 . S
C313 C311 1.419 . S
C313 C314 1.362 . S
C314 H306 0.930 . S
C314 C313 1.362 . S
C314 C317 1.409 . S
C315 H307 0.930 . S
C315 C316 1.355 . S
C315 C317 1.415 . S
C316 C315 1.355 . S
C316 C318 1.419 . S
C317 C312 1.425 . S
C317 C314 1.409 . S
C317 C315 1.415 . S
C318 H308 0.930 . S
C318 C316 1.419 . S
C318 C319 1.362 . S
C319 H309 0.930 . S
C319 C312 1.409 . S
C319 C318 1.362 . S
H320 C326 0.930 . S
H321 C329 0.930 . S
H322 C330 0.930 . S
H323 C331 0.930 . S
H324 C334 0.930 . S
H325 C335 0.930 . S
C326 H320 0.930 . S
C326 C327 1.355 . S
C326 C328 1.415 . S
C327 C326 1.355 . S
C327 C329 1.419 . S
C328 C326 1.415 . S
C328 C333 1.425 . S
C328 C335 1.409 . S
C329 H321 0.930 . S
C329 C327 1.419 . S
C329 C330 1.362 . S
C330 H322 0.930 . S
C330 C329 1.362 . S
C330 C333 1.409 . S
C331 H323 0.930 . S
C331 C332 1.355 . S
C331 C333 1.415 . S
C332 C331 1.355 . S
C332 C334 1.419 . S
C333 C328 1.425 . S
C333 C330 1.409 . S
C333 C331 1.415 . S
C334 H324 0.930 . S
C334 C332 1.419 . S
C334 C335 1.362 . S
C335 H325 0.930 . S
C335 C328 1.409 . S
C335 C334 1.362 . S
H336 C342 0.930 . S
H337 C345 0.930 . S
H338 C346 0.930 . S
H339 C347 0.930 . S
H340 C350 0.930 . S
H341 C351 0.930 . S
C342 H336 0.930 . S
C342 C343 1.355 . S
C342 C344 1.415 . S
C343 C342 1.355 . S
C343 C345 1.419 . S
C344 C342 1.415 . S
C344 C349 1.425 . S
C344 C351 1.409 . S
C345 H337 0.930 . S
C345 C343 1.419 . S
C345 C346 1.362 . S
C346 H338 0.930 . S
C346 C345 1.362 . S
C346 C349 1.409 . S
C347 H339 0.930 . S
C347 C348 1.355 . S
C347 C349 1.415 . S
C348 C347 1.355 . S
C348 C350 1.419 . S
C349 C344 1.425 . S
C349 C346 1.409 . S
C349 C347 1.415 . S
C350 H340 0.930 . S
C350 C348 1.419 . S
C350 C351 1.362 . S
C351 H341 0.930 . S
C351 C344 1.409 . S
C351 C350 1.362 . S
H352 C358 0.930 . S
H353 C361 0.930 . S
H354 C362 0.930 . S
H355 C363 0.930 . S
H356 C366 0.930 . S
H357 C367 0.930 . S
C358 H352 0.930 . S
C358 C359 1.355 . S
C358 C360 1.415 . S
C359 C358 1.355 . S
C359 C361 1.419 . S
C360 C358 1.415 . S
C360 C365 1.425 . S
C360 C367 1.409 . S
C361 H353 0.930 . S
C361 C359 1.419 . S
C361 C362 1.362 . S
C362 H354 0.930 . S
C362 C361 1.362 . S
C362 C365 1.409 . S
C363 H355 0.930 . S
C363 C364 1.355 . S
C363 C365 1.415 . S
C364 C363 1.355 . S
C364 C366 1.419 . S
C365 C360 1.425 . S
C365 C362 1.409 . S
C365 C363 1.415 . S
C366 H356 0.930 . S
C366 C364 1.419 . S
C366 C367 1.362 . S
C367 H357 0.930 . S
C367 C360 1.409 . S
C367 C366 1.362 . S
H368 C374 0.930 . S
H369 C377 0.930 . S
H370 C378 0.930 . S
H371 C379 0.930 . S
H372 C382 0.930 . S
H373 C383 0.930 . S
C374 H368 0.930 . S
C374 C375 1.355 . S
C374 C376 1.415 . S
C375 C374 1.355 . S
C375 C377 1.419 . S
C376 C374 1.415 . S
C376 C381 1.425 . S
C376 C383 1.409 . S
C377 H369 0.930 . S
C377 C375 1.419 . S
C377 C378 1.362 . S
C378 H370 0.930 . S
C378 C377 1.362 . S
C378 C381 1.409 . S
C379 H371 0.930 . S
C379 C380 1.355 . S
C379 C381 1.415 . S
C380 C379 1.355 . S
C380 C382 1.419 . S
C381 C376 1.425 . S
C381 C378 1.409 . S
C381 C379 1.415 . S
C382 H372 0.930 . S
C382 C380 1.419 . S
C382 C383 1.362 . S
C383 H373 0.930 . S
C383 C376 1.409 . S
C383 C382 1.362 . S
H384 C390 0.930 . S
H385 C393 0.930 . S
H386 C394 0.930 . S
H387 C395 0.930 . S
H388 C398 0.930 . S
H389 C399 0.930 . S
C390 H384 0.930 . S
C390 C391 1.355 . S
C390 C392 1.415 . S
C391 C390 1.355 . S
C391 C393 1.419 . S
C392 C390 1.415 . S
C392 C397 1.425 . S
C392 C399 1.409 . S
C393 H385 0.930 . S
C393 C391 1.419 . S
C393 C394 1.362 . S
C394 H386 0.930 . S
C394 C393 1.362 . S
C394 C397 1.409 . S
C395 H387 0.930 . S
C395 C396 1.355 . S
C395 C397 1.415 . S
C396 C395 1.355 . S
C396 C398 1.419 . S
C397 C392 1.425 . S
C397 C394 1.409 . S
C397 C395 1.415 . S
C398 H388 0.930 . S
C398 C396 1.419 . S
C398 C399 1.362 . S
C399 H389 0.930 . S
C399 C392 1.409 . S
C399 C398 1.362 . S
H400 C406 0.930 . S
H401 C409 0.930 . S
H402 C410 0.930 . S
H403 C411 0.930 . S
H404 C414 0.930 . S
H405 C415 0.930 . S
C406 H400 0.930 . S
C406 C407 1.355 . S
C406 C408 1.415 . S
C407 C406 1.355 . S
C407 C409 1.419 . S
C408 C406 1.415 . S
C408 C413 1.425 1_554 S
C408 C415 1.409 1_554 S
C409 H401 0.930 . S
C409 C407 1.419 . S
C409 C410 1.362 . S
C410 H402 0.930 . S
C410 C409 1.362 . S
C410 C413 1.409 1_554 S
C411 H403 0.930 . S
C411 C412 1.355 . S
C411 C413 1.415 . S
C412 C411 1.355 . S
C412 C414 1.419 . S
C413 C408 1.425 1_556 S
C413 C410 1.409 1_556 S
C413 C411 1.415 . S
C414 H404 0.930 . S
C414 C412 1.419 . S
C414 C415 1.362 . S
C415 H405 0.930 . S
C415 C408 1.409 1_556 S
C415 C414 1.362 . S
H416 C422 0.930 1_655 S
H417 C425 0.930 . S
H418 C426 0.930 . S
H419 C427 0.930 1_455 S
H420 C430 0.930 . S
H421 C431 0.930 . S
C422 H416 0.930 1_455 S
C422 C423 1.355 . S
C422 C424 1.415 1_455 S
C423 C422 1.355 . S
C423 C425 1.419 . S
C424 C422 1.415 1_655 S
C424 C429 1.425 1_645 S
C424 C431 1.409 . S
C425 H417 0.930 . S
C425 C423 1.419 . S
C425 C426 1.362 1_545 S
C426 H418 0.930 . S
C426 C425 1.362 1_565 S
C426 C429 1.409 . S
C427 H419 0.930 1_655 S
C427 C428 1.355 . S
C427 C429 1.415 1_655 S
C428 C427 1.355 . S
C428 C430 1.419 . S
C429 C424 1.425 1_465 S
C429 C426 1.409 . S
C429 C427 1.415 1_455 S
C430 H420 0.930 . S
C430 C428 1.419 . S
C430 C431 1.362 1_565 S
C431 H421 0.930 . S
C431 C424 1.409 . S
C431 C430 1.362 1_545 S
H432 C438 0.930 . S
H433 C441 0.930 . S
H434 C442 0.925 1_655 S
H435 C443 0.930 . S
H436 C446 0.930 . S
H437 C447 0.930 1_455 S
C438 H432 0.930 . S
C438 C439 1.355 . S
C438 C440 1.415 . S
C439 C438 1.355 . S
C439 C441 1.419 . S
C440 C438 1.415 . S
C440 C445 1.425 1_455 S
C440 C447 1.409 1_455 S
C441 H433 0.930 . S
C441 C439 1.419 . S
C441 C442 1.371 . S
C442 H434 0.925 1_455 S
C442 C441 1.371 . S
C442 C445 1.406 1_455 S
C443 H435 0.930 . S
C443 C444 1.355 . S
C443 C445 1.415 . S
C444 C443 1.355 . S
C444 C446 1.419 . S
C445 C440 1.425 1_655 S
C445 C442 1.406 1_655 S
C445 C443 1.415 . S
C446 H436 0.930 . S
C446 C444 1.419 . S
C446 C447 1.362 . S
C447 H437 0.930 1_655 S
C447 C440 1.409 1_655 S
C447 C446 1.362 . S
H448 C454 0.930 . S
H449 C457 0.930 . S
H450 C458 0.930 . S
H451 C459 0.930 . S
H452 C462 0.930 . S
H453 C463 0.930 . S
C454 H448 0.930 . S
C454 C455 1.355 . S
C454 C456 1.415 . S
C455 C454 1.355 . S
C455 C457 1.419 . S
C456 C454 1.415 . S
C456 C461 1.425 . S
C456 C463 1.409 . S
C457 H449 0.930 . S
C457 C455 1.419 . S
C457 C458 1.362 . S
C458 H450 0.930 . S
C458 C457 1.362 . S
C458 C461 1.409 . S
C459 H451 0.930 . S
C459 C460 1.355 . S
C459 C461 1.415 . S
C460 C459 1.355 . S
C460 C462 1.419 . S
C461 C456 1.425 . S
C461 C458 1.409 . S
C461 C459 1.415 . S
C462 H452 0.930 . S
C462 C460 1.419 . S
C462 C463 1.362 . S
C463 H453 0.930 . S
C463 C456 1.409 . S
C463 C462 1.362 . S
H464 C470 0.930 . S
H465 C473 0.930 . S
H466 C474 0.930 1_545 S
H467 C475 0.930 . S
H468 C478 0.930 . S
H469 C479 0.930 1_565 S
C470 H464 0.930 . S
C470 C471 1.355 . S
C470 C472 1.415 . S
C471 C470 1.355 . S
C471 C473 1.419 . S
C472 C470 1.415 . S
C472 C477 1.425 1_565 S
C472 C479 1.409 1_565 S
C473 H465 0.930 . S
C473 C471 1.419 . S
C473 C474 1.362 . S
C474 H466 0.930 1_565 S
C474 C473 1.362 . S
C474 C477 1.409 1_565 S
C475 H467 0.930 . S
C475 C476 1.355 . S
C475 C477 1.415 . S
C476 C475 1.355 . S
C476 C478 1.419 . S
C477 C472 1.425 1_545 S
C477 C474 1.409 1_545 S
C477 C475 1.415 . S
C478 H468 0.930 . S
C478 C476 1.419 . S
C478 C479 1.362 . S
C479 H469 0.930 1_545 S
C479 C472 1.409 1_545 S
C479 C478 1.362 . S
H480 C486 0.930 . S
H481 C489 0.930 . S
H482 C490 0.930 . S
H483 C491 0.930 . S
H484 C494 0.930 . S
H485 C495 0.930 . S
C486 H480 0.930 . S
C486 C487 1.355 . S
C486 C488 1.415 . S
C487 C486 1.355 . S
C487 C489 1.419 . S
C488 C486 1.415 . S
C488 C493 1.425 1_655 S
C488 C495 1.409 1_655 S
C489 H481 0.930 . S
C489 C487 1.419 . S
C489 C490 1.362 . S
C490 H482 0.930 . S
C490 C489 1.362 . S
C490 C493 1.409 1_655 S
C491 H483 0.930 . S
C491 C492 1.355 . S
C491 C493 1.415 . S
C492 C491 1.355 . S
C492 C494 1.419 . S
C493 C488 1.425 1_455 S
C493 C490 1.409 1_455 S
C493 C491 1.415 . S
C494 H484 0.930 . S
C494 C492 1.419 . S
C494 C495 1.362 . S
C495 H485 0.930 . S
C495 C488 1.409 1_455 S
C495 C494 1.362 . S
H496 C502 0.930 . S
H497 C505 0.930 . S
H498 C506 0.930 . S
H499 C507 0.930 . S
H500 C510 0.930 . S
H501 C511 0.930 . S
C502 H496 0.930 . S
C502 C503 1.355 . S
C502 C504 1.415 . S
C503 C502 1.355 . S
C503 C505 1.419 . S
C504 C502 1.415 . S
C504 C509 1.425 . S
C504 C511 1.409 . S
C505 H497 0.930 . S
C505 C503 1.419 . S
C505 C506 1.362 . S
C506 H498 0.930 . S
C506 C505 1.362 . S
C506 C509 1.409 . S
C507 H499 0.930 . S
C507 C508 1.355 . S
C507 C509 1.415 . S
C508 C507 1.355 . S
C508 C510 1.419 . S
C509 C504 1.425 . S
C509 C506 1.409 . S
C509 C507 1.415 . S
C510 H500 0.930 . S
C510 C508 1.419 . S
C510 C511 1.362 . S
C511 H501 0.930 . S
C511 C504 1.409 . S
C511 C510 1.362 . S
H512 C518 0.930 . S
H513 C521 0.930 . S
H514 C522 0.930 . S
H515 C523 0.930 . S
H516 C526 0.930 . S
H517 C527 0.930 . S
C518 H512 0.930 . S
C518 C519 1.355 . S
C518 C520 1.415 . S
C519 C518 1.355 . S
C519 C521 1.419 . S
C520 C518 1.415 . S
C520 C525 1.425 . S
C520 C527 1.409 1_545 S
C521 H513 0.930 . S
C521 C519 1.419 . S
C521 C522 1.362 . S
C522 H514 0.930 . S
C522 C521 1.362 . S
C522 C525 1.409 . S
C523 H515 0.930 . S
C523 C524 1.355 . S
C523 C525 1.415 1_565 S
C524 C523 1.355 . S
C524 C526 1.419 . S
C525 C520 1.425 . S
C525 C522 1.409 . S
C525 C523 1.415 1_545 S
C526 H516 0.930 . S
C526 C524 1.419 . S
C526 C527 1.362 . S
C527 H517 0.930 . S
C527 C520 1.409 1_565 S
C527 C526 1.362 . S
H528 C534 0.930 . S
H529 C537 0.930 1_545 S
H530 C538 0.930 . S
H531 C539 0.930 . S
H532 C542 0.930 1_565 S
H533 C543 0.930 . S
C534 H528 0.930 . S
C534 C535 1.355 . S
C534 C536 1.415 1_655 S
C535 C534 1.355 . S
C535 C537 1.419 . S
C536 C534 1.415 1_455 S
C536 C541 1.425 1_465 S
C536 C543 1.409 . S
C537 H529 0.930 1_565 S
C537 C535 1.419 . S
C537 C538 1.362 1_565 S
C538 H530 0.930 . S
C538 C537 1.362 1_545 S
C538 C541 1.409 . S
C539 H531 0.930 . S
C539 C540 1.355 . S
C539 C541 1.415 1_455 S
C540 C539 1.355 . S
C540 C542 1.419 . S
C541 C536 1.425 1_645 S
C541 C538 1.409 . S
C541 C539 1.415 1_655 S
C542 H532 0.930 1_545 S
C542 C540 1.419 . S
C542 C543 1.362 1_545 S
C543 H533 0.930 . S
C543 C536 1.409 . S
C543 C542 1.362 1_565 S
C295 C14 1.227 . S
C300 C182 1.168 . S
C311 C50 1.182 . S
C316 C230 1.129 . S
C327 C74 1.174 . S
C332 C266 1.243 . S
C343 C110 1.273 . S
C348 C146 1.270 . S
C359 C254 1.190 . S
C364 C2 1.233 . S
C375 C158 1.208 . S
C380 C38 1.190 . S
C391 C86 1.203 . S
C396 C194 1.133 . S
C407 C218 1.244 . S
C412 C122 1.178 . S
C423 C4 1.565 . S
C428 C219 1.571 . S
C439 C255 1.563 . S
C444 C40 1.563 . S
C455 C75 1.545 . S
C460 C148 1.568 . S
C471 C111 1.552 . S
C476 C184 1.565 . S
C487 C220 1.570 . S
C492 C3 1.554 . S
C503 C256 1.568 . S
C508 C39 1.544 . S
C519 C76 1.564 . S
C524 C147 1.556 . S
C535 C112 1.566 . S
C540 C183 1.549 . S
