# Generated by pormake.
# Topology sra, (4)-cn, num edge types: 1
# Building blocks:
#     Node 0, Type 0, BuildingBlock: ICAMEG_clean_sbu_1, # of connection points: 4
#     Node 1, Type 0, BuildingBlock: ICAMEG_clean_sbu_1, # of connection points: 4
#     Node 2, Type 0, BuildingBlock: ICAMEG_clean_sbu_1, # of connection points: 4
#     Node 3, Type 0, BuildingBlock: ICAMEG_clean_sbu_1, # of connection points: 4
#     Node 4, Type 0, BuildingBlock: ICAMEG_clean_sbu_1, # of connection points: 4
#     Node 5, Type 0, BuildingBlock: ICAMEG_clean_sbu_1, # of connection points: 4
#     Node 6, Type 0, BuildingBlock: ICAMEG_clean_sbu_1, # of connection points: 4
#     Node 7, Type 0, BuildingBlock: ICAMEG_clean_sbu_1, # of connection points: 4
#     Edge 8, Type (0, 0), BuildingBlock: EZIPEK_clean_linker_0, # of connection points: 2
#     Edge 9, Type (0, 0), BuildingBlock: EZIPEK_clean_linker_0, # of connection points: 2
#     Edge 10, Type (0, 0), BuildingBlock: EZIPEK_clean_linker_0, # of connection points: 2
#     Edge 11, Type (0, 0), BuildingBlock: EZIPEK_clean_linker_0, # of connection points: 2
#     Edge 12, Type (0, 0), BuildingBlock: EZIPEK_clean_linker_0, # of connection points: 2
#     Edge 13, Type (0, 0), BuildingBlock: EZIPEK_clean_linker_0, # of connection points: 2
#     Edge 14, Type (0, 0), BuildingBlock: EZIPEK_clean_linker_0, # of connection points: 2
#     Edge 15, Type (0, 0), BuildingBlock: EZIPEK_clean_linker_0, # of connection points: 2
#     Edge 16, Type (0, 0), BuildingBlock: EZIPEK_clean_linker_0, # of connection points: 2
#     Edge 17, Type (0, 0), BuildingBlock: EZIPEK_clean_linker_0, # of connection points: 2
#     Edge 18, Type (0, 0), BuildingBlock: EZIPEK_clean_linker_0, # of connection points: 2
#     Edge 19, Type (0, 0), BuildingBlock: EZIPEK_clean_linker_0, # of connection points: 2
#     Edge 20, Type (0, 0), BuildingBlock: EZIPEK_clean_linker_0, # of connection points: 2
#     Edge 21, Type (0, 0), BuildingBlock: EZIPEK_clean_linker_0, # of connection points: 2
#     Edge 22, Type (0, 0), BuildingBlock: EZIPEK_clean_linker_0, # of connection points: 2
#     Edge 23, Type (0, 0), BuildingBlock: EZIPEK_clean_linker_0, # of connection points: 2
# Relax obj value: 0.025
# Max RMSD: 0.060
# Mean RMSD: 0.060
data_MOF--net-sra--node1-ICAMEG_clean_sbu_1--edge1-EZIPEK_clean_linker_0
_symmetry_space_group_name_H-M    P1
_symmetry_Int_Tables_number       1
_symmetry_cell_setting            triclinic
loop_
_symmetry_equiv_pos_as_xyz
'x, y, z'
_cell_length_a     22.48746
_cell_length_b     41.896755
_cell_length_c     23.380939
_cell_angle_alpha  89.961332
_cell_angle_beta   90.130479
_cell_angle_gamma 90.136981
loop_
_atom_site_label
_atom_site_type_symbol
_atom_site_fract_x
_atom_site_fract_y
_atom_site_fract_z
_atom_type_partial_charge
Co0 Co 0.02282 0.12985 0.24377 0.0
Co1 Co 0.9651 0.1292 0.10689 0.0
O2 O 0.02188 0.11365 0.16476 0.0
C3 C 0.1506 0.13189 0.20919 0.0
O4 O 0.13498 0.13864 0.1566 0.0
C5 C 0.95624 0.05817 0.0956 0.0
O6 O 0.95526 0.05578 0.1515 0.0
O7 O 0.89717 0.11904 0.1591 0.0
O8 O 0.93404 0.13297 0.24501 0.0
H9 H 0.7845 0.1887 0.039 0.0
H10 H 0.08345 0.06933 0.216 0.0
O11 O 0.11177 0.12686 0.24754 0.0
H12 H 0.93587 0.04118 0.36326 0.0
H13 H 0.09143 0.1333 0.449 0.0
H14 H 0.96304 0.18327 0.30336 0.0
H15 H 0.94648 0.0968 0.33028 0.0
H16 H 0.08819 0.11223 0.35059 0.0
O17 O 0.9599 0.08541 0.07184 0.0
H18 H 0.85781 0.17003 0.11004 0.0
H19 H 0.94969 0.11861 0.98137 0.0
H20 H 0.9644 0.20494 0.40136 0.0
H21 H 0.07499 0.01343 0.24819 0.0
H22 H 0.02898 0.17988 0.47502 0.0
H23 H 1.00053 0.99903 0.32225 0.0
O24 O 0.0299 0.17452 0.21437 0.0
H25 H 0.15728 0.10544 0.00653 0.0
H26 H 1.00115 0.18601 0.03744 0.0
H27 H 0.08662 0.19901 0.97583 0.0
H28 H 0.16539 0.15855 0.95989 0.0
H29 H 0.07158 0.09361 0.06873 0.0
H30 H 0.87704 0.13638 0.90899 0.0
H31 H 0.79388 0.17183 0.93758 0.0
O32 O 0.96968 0.17413 0.13754 0.0
C33 C 0.89102 0.1251 0.21232 0.0
C34 C 0.82079 0.17345 0.02591 0.0
C35 C 0.87267 0.14405 0.95297 0.0
N36 N 0.90861 0.14378 0.04976 0.0
C37 C 0.86264 0.16298 0.06592 0.0
C38 C 0.91368 0.13406 0.99417 0.0
C39 C 0.82602 0.16393 0.96904 0.0
C40 C 0.05168 0.0633 0.2488 0.0
N41 N 0.01603 0.08633 0.27155 0.0
C42 C 0.04679 0.03159 0.26665 0.0
C43 C 0.00492 0.02353 0.3081 0.0
C44 C 0.96863 0.04715 0.33112 0.0
C45 C 0.9748 0.07861 0.3122 0.0
C46 C 0.06289 0.14433 0.41737 0.0
C47 C 0.99067 0.17203 0.33528 0.0
C48 C 0.06088 0.13252 0.36154 0.0
N49 N 0.02463 0.14619 0.32144 0.0
C50 C 0.99153 0.1845 0.39066 0.0
C51 C 0.02784 0.17046 0.43194 0.0
C52 C 1.00129 0.18882 0.17466 0.0
C53 C 0.12317 0.12324 0.01303 0.0
C54 C 0.03538 0.16831 0.03105 0.0
C55 C 0.08359 0.17579 0.99591 0.0
C56 C 0.12774 0.15306 0.98695 0.0
N57 N 0.03133 0.13905 0.05669 0.0
C58 C 0.07436 0.11662 0.04795 0.0
Co59 Co 0.01174 0.38487 0.24539 0.0
Co60 Co 0.07776 0.38647 0.11215 0.0
O61 O 0.01623 0.401 0.16621 0.0
C62 C 0.88496 0.38428 0.20488 0.0
O63 O 0.90195 0.37974 0.15201 0.0
C64 C 0.0575 0.45708 0.08587 0.0
O65 O 0.01979 0.45893 0.1284 0.0
O66 O 0.14116 0.3981 0.1687 0.0
O67 O 0.10021 0.38179 0.25109 0.0
H68 H 0.26829 0.33046 0.06319 0.0
H69 H 0.94748 0.4447 0.21854 0.0
O70 O 0.92272 0.38729 0.24503 0.0
H71 H 0.09444 0.47422 0.36619 0.0
H72 H 0.93326 0.38114 0.44695 0.0
H73 H 0.06909 0.33154 0.30799 0.0
H74 H 0.08598 0.41859 0.33302 0.0
H75 H 0.9414 0.40237 0.3489 0.0
O76 O 0.08473 0.43081 0.07596 0.0
H77 H 0.18785 0.34873 0.1264 0.0
H78 H 0.1023 0.39403 0.98655 0.0
H79 H 0.06279 0.30971 0.4057 0.0
H80 H 0.95389 0.50057 0.25104 0.0
H81 H 0.99443 0.33456 0.476 0.0
H82 H 0.02806 0.51569 0.32517 0.0
O83 O 0.00696 0.3404 0.2156 0.0
H84 H 0.88598 0.40126 1.00281 0.0
H85 H 0.05498 0.32936 0.03934 0.0
H86 H 0.97595 0.31266 0.97279 0.0
H87 H 0.89078 0.34879 0.95374 0.0
H88 H 0.96521 0.41676 0.06974 0.0
H89 H 0.18207 0.37675 0.92181 0.0
H90 H 0.26581 0.3445 0.95997 0.0
O91 O 0.07272 0.34151 0.14339 0.0
C92 C 0.14481 0.39057 0.22151 0.0
C93 C 0.23189 0.34436 0.04593 0.0
C94 C 0.18362 0.3704 0.96667 0.0
N95 N 0.13981 0.3722 0.06025 0.0
C96 C 0.18598 0.35464 0.08153 0.0
C97 C 0.13856 0.38029 1.00363 0.0
C98 C 0.23055 0.35229 0.98808 0.0
C99 C 0.97949 0.45102 0.25114 0.0
N100 N 0.01647 0.4284 0.27352 0.0
C101 C 0.98306 0.48273 0.26925 0.0
C102 C 0.02473 0.4912 0.31079 0.0
C103 C 0.06203 0.46795 0.33377 0.0
C104 C 0.0572 0.43649 0.31459 0.0
C105 C 0.96343 0.3702 0.4168 0.0
C106 C 0.0398 0.3427 0.33845 0.0
C107 C 0.96824 0.38212 0.36119 0.0
N108 N 0.00645 0.36851 0.32292 0.0
C109 C 0.03617 0.33014 0.39368 0.0
C110 C 0.99775 0.34406 0.43307 0.0
C111 C 0.03838 0.32643 0.17768 0.0
C112 C 0.9232 0.38544 0.01023 0.0
C113 C 0.01829 0.34538 0.03127 0.0
C114 C 0.97358 0.33572 0.99349 0.0
C115 C 0.92582 0.35598 0.98284 0.0
N116 N 0.01593 0.37453 0.05757 0.0
C117 C 0.96868 0.39426 0.04786 0.0
Co118 Co 0.01226 0.89317 0.76507 0.0
Co119 Co 0.97597 0.87947 0.90875 0.0
O120 O 0.02016 0.90213 0.84777 0.0
C121 C 0.14261 0.88787 0.786 0.0
O122 O 0.13037 0.87632 0.83669 0.0
C123 C 0.97018 0.94994 0.94046 0.0
O124 O 0.98874 0.95806 0.88946 0.0
O125 O 0.89905 0.88537 0.86618 0.0
O126 O 0.92443 0.88961 0.77322 0.0
H127 H 0.83473 0.79614 0.98429 0.0
H128 H 0.07482 0.9512 0.80546 0.0
O129 O 0.10074 0.89684 0.7531 0.0
H130 H 0.91552 0.9902 0.6785 0.0
H131 H 0.06118 0.90718 0.55625 0.0
H132 H 0.93728 0.84932 0.69565 0.0
H133 H 0.92797 0.9326 0.69619 0.0
H134 H 0.06973 0.91871 0.65926 0.0
O135 O 0.96084 0.92064 0.9526 0.0
H136 H 0.8918 0.8246 0.91049 0.0
H137 H 0.96701 0.88542 0.03642 0.0
H138 H 0.92702 0.83711 0.59309 0.0
H139 H 0.06517 0.00906 0.78783 0.0
H140 H 0.98936 0.86615 0.52248 0.0
H141 H 0.98469 0.0289 0.72419 0.0
O142 O 0.0217 0.84627 0.77891 0.0
H143 H 0.17756 0.91299 0.98157 0.0
H144 H 0.03051 0.82566 0.97425 0.0
H145 H 0.12456 0.81775 0.0264 0.0
H146 H 0.19903 0.86157 0.03023 0.0
H147 H 0.08263 0.92009 0.93058 0.0
H148 H 0.91046 0.85786 0.11161 0.0
H149 H 0.84374 0.81275 0.08588 0.0
O150 O 0.99071 0.83748 0.86925 0.0
C151 C 0.88609 0.88811 0.81307 0.0
C152 C 0.86339 0.81588 0.99604 0.0
C153 C 0.90581 0.85052 0.06744 0.0
N154 N 0.93212 0.85709 0.9685 0.0
C155 C 0.89572 0.83218 0.95423 0.0
C156 C 0.93743 0.86626 0.02445 0.0
C157 C 0.86847 0.82519 0.05301 0.0
C158 C 0.0409 0.95966 0.77647 0.0
N159 N 0.00299 0.93853 0.75096 0.0
C160 C 0.03511 0.99244 0.7672 0.0
C161 C 0.98984 1.00356 0.73164 0.0
C162 C 0.95102 0.98186 0.70601 0.0
C163 C 0.95828 0.94926 0.71624 0.0
C164 C 0.03397 0.89426 0.58661 0.0
C165 C 0.96474 0.8619 0.6654 0.0
C166 C 0.03883 0.90054 0.6451 0.0
N167 N 0.00447 0.88439 0.68374 0.0
C168 C 0.95866 0.85496 0.60726 0.0
C169 C 0.99363 0.87126 0.56768 0.0
C170 C 0.00996 0.82775 0.8209 0.0
C171 C 0.14533 0.89377 0.98052 0.0
C172 C 0.06205 0.84512 0.97657 0.0
C173 C 0.11552 0.84038 0.00584 0.0
C174 C 0.15734 0.86493 0.00782 0.0
N175 N 0.05026 0.87359 0.95025 0.0
C176 C 0.09138 0.89765 0.95166 0.0
Co177 Co 0.02243 0.62604 0.75731 0.0
Co178 Co 0.07294 0.63596 0.89613 0.0
O179 O 0.01768 0.61762 0.83975 0.0
C180 C 0.89691 0.64233 0.78185 0.0
O181 O 0.91501 0.66104 0.82344 0.0
C182 C 0.05433 0.5668 0.93154 0.0
O183 O 0.02255 0.56202 0.88532 0.0
O184 O 0.14249 0.62123 0.85022 0.0
O185 O 0.11084 0.62574 0.75935 0.0
H186 H 0.25961 0.69287 0.95805 0.0
H187 H 0.9453 0.57211 0.7937 0.0
O188 O 0.93376 0.62647 0.75221 0.0
H189 H 0.10139 0.52365 0.67438 0.0
H190 H 0.95786 0.61387 0.55211 0.0
H191 H 0.09754 0.66748 0.68369 0.0
H192 H 0.09924 0.58176 0.69004 0.0
H193 H 0.95455 0.60289 0.65565 0.0
O194 O 0.07659 0.59438 0.9415 0.0
H195 H 0.18888 0.67002 0.88878 0.0
H196 H 0.07814 0.6381 0.02395 0.0
H197 H 0.10298 0.67878 0.58037 0.0
H198 H 0.94513 0.51392 0.77813 0.0
H199 H 0.03263 0.65198 0.51379 0.0
H200 H 0.02393 0.48927 0.71855 0.0
O201 O 0.02281 0.67292 0.77162 0.0
H202 H 0.87122 0.62487 0.98754 0.0
H203 H 0.03932 0.69766 0.95046 0.0
H204 H 0.95214 0.71734 1.00323 0.0
H205 H 0.86739 0.68079 0.02248 0.0
H206 H 0.95863 0.60636 0.93411 0.0
H207 H 0.14812 0.6601 0.09489 0.0
H208 H 0.23944 0.68804 0.06211 0.0
O209 O 0.07205 0.67834 0.85415 0.0
C210 C 0.15147 0.62143 0.79638 0.0
C211 C 0.21956 0.68116 0.97291 0.0
C212 C 0.15709 0.66271 0.04966 0.0
N213 N 0.12803 0.65383 0.95196 0.0
C214 C 0.17892 0.66847 0.93375 0.0
C215 C 0.11749 0.65033 0.00921 0.0
C216 C 0.20831 0.67837 0.03126 0.0
C217 C 0.9793 0.56165 0.76708 0.0
N218 N 0.02249 0.58036 0.74326 0.0
C219 C 0.97915 0.52864 0.75868 0.0
C220 C 0.02343 0.51482 0.72533 0.0
C221 C 0.06695 0.53409 0.70062 0.0
C222 C 0.06568 0.567 0.70994 0.0
C223 C 0.98878 0.62569 0.58068 0.0
C224 C 0.06722 0.65543 0.65498 0.0
C225 C 0.98701 0.61964 0.6394 0.0
N226 N 0.02598 0.63444 0.67574 0.0
C227 C 0.07031 0.66206 0.59651 0.0
C228 C 0.03077 0.64705 0.5592 0.0
C229 C 0.04892 0.69033 0.80873 0.0
C230 C 0.90811 0.64094 0.97992 0.0
C231 C 0.00268 0.68154 0.95857 0.0
C232 C 0.95343 0.69285 0.98859 0.0
C233 C 0.90591 0.67234 0.99937 0.0
N234 N 0.0049 0.65057 0.94015 0.0
C235 C 0.95808 0.63049 0.94998 0.0
Co236 Co 0.52145 0.62369 0.74473 0.0
Co237 Co 0.47012 0.62904 0.60432 0.0
O238 O 0.52392 0.61189 0.66323 0.0
C239 C 0.65199 0.62421 0.71201 0.0
O240 O 0.63924 0.61637 0.65915 0.0
C241 C 0.45872 0.55844 0.59046 0.0
O242 O 0.45853 0.55568 0.64633 0.0
O243 O 0.39907 0.61964 0.65351 0.0
O244 O 0.43306 0.62169 0.74415 0.0
H245 H 0.29251 0.68971 0.53168 0.0
H246 H 0.59155 0.56725 0.70552 0.0
O247 O 0.61103 0.62687 0.74939 0.0
H248 H 0.45057 0.52531 0.84802 0.0
H249 H 0.5882 0.61977 0.95047 0.0
H250 H 0.44875 0.6686 0.81327 0.0
H251 H 0.45212 0.5826 0.8244 0.0
H252 H 0.58988 0.60445 0.84872 0.0
O253 O 0.46284 0.58583 0.56728 0.0
H254 H 0.36071 0.66868 0.60503 0.0
H255 H 0.46248 0.62218 0.47745 0.0
H256 H 0.44494 0.68438 0.91472 0.0
H257 H 0.59212 0.50998 0.72841 0.0
H258 H 0.51511 0.65991 0.98415 0.0
H259 H 0.52115 0.48854 0.80011 0.0
O260 O 0.51922 0.67001 0.72483 0.0
H261 H 0.6625 0.60224 0.50638 0.0
H262 H 0.5147 0.68664 0.54176 0.0
H263 H 0.60356 0.69885 0.48431 0.0
H264 H 0.6782 0.65647 0.46612 0.0
H265 H 0.57371 0.59122 0.56479 0.0
H266 H 0.39489 0.64224 0.4026 0.0
H267 H 0.30941 0.67651 0.42945 0.0
O268 O 0.47731 0.67318 0.63756 0.0
C269 C 0.39132 0.61893 0.70767 0.0
C270 C 0.33012 0.67522 0.5193 0.0
C271 C 0.38749 0.64853 0.4469 0.0
N272 N 0.41704 0.64537 0.54556 0.0
C273 C 0.36935 0.66358 0.56071 0.0
C274 C 0.42577 0.63734 0.48951 0.0
C275 C 0.33952 0.66772 0.46199 0.0
C276 C 0.56132 0.55839 0.73748 0.0
N277 N 0.52293 0.57857 0.76447 0.0
C278 C 0.56153 0.52579 0.75001 0.0
C279 C 0.52161 0.51377 0.79012 0.0
C280 C 0.48203 0.53438 0.81701 0.0
C281 C 0.48319 0.56684 0.80345 0.0
C282 C 0.55731 0.63056 0.92067 0.0
C283 C 0.47904 0.65766 0.84322 0.0
C284 C 0.55818 0.62204 0.86294 0.0
N285 N 0.51909 0.63542 0.82506 0.0
C286 C 0.47685 0.66677 0.90062 0.0
C287 C 0.51628 0.65307 0.93954 0.0
C288 C 0.49985 0.68606 0.68224 0.0
C289 C 0.63028 0.6209 0.51397 0.0
C290 C 0.54724 0.66812 0.53471 0.0
C291 C 0.59732 0.67515 0.50177 0.0
C292 C 0.63912 0.65135 0.49149 0.0
N293 N 0.53904 0.63824 0.55699 0.0
C294 C 0.57967 0.61474 0.54673 0.0
Co295 Co 0.51593 0.88605 0.74891 0.0
Co296 Co 0.57324 0.88199 0.61133 0.0
O297 O 0.51758 0.89973 0.66813 0.0
C298 C 0.38842 0.88432 0.71293 0.0
O299 O 0.40446 0.8776 0.6606 0.0
C300 C 0.56474 0.95311 0.58307 0.0
O301 O 0.53516 0.95854 0.63029 0.0
O302 O 0.64205 0.89182 0.66317 0.0
O303 O 0.60441 0.88258 0.75076 0.0
H304 H 0.75139 0.81826 0.55052 0.0
H305 H 0.45149 0.94532 0.71842 0.0
O306 O 0.42693 0.88912 0.75182 0.0
H307 H 0.60609 0.9788 0.85577 0.0
H308 H 0.44758 0.89128 0.95373 0.0
H309 H 0.5728 0.83389 0.81536 0.0
H310 H 0.59547 0.92226 0.82866 0.0
H311 H 0.4516 0.90841 0.85294 0.0
O312 O 0.58364 0.92506 0.5718 0.0
H313 H 0.67979 0.84065 0.61912 0.0
H314 H 0.5881 0.88739 0.48438 0.0
H315 H 0.57073 0.81613 0.91578 0.0
H316 H 0.45973 1.00206 0.74528 0.0
H317 H 0.50771 0.84493 0.98586 0.0
H318 H 0.53779 0.01916 0.81415 0.0
O319 O 0.50897 0.84035 0.72493 0.0
H320 H 0.37662 0.90352 0.51511 0.0
H321 H 0.53652 0.82482 0.54376 0.0
H322 H 0.4501 0.81072 0.48398 0.0
H323 H 0.36949 0.85028 0.46892 0.0
H324 H 0.46325 0.91644 0.57534 0.0
H325 H 0.65912 0.86595 0.41429 0.0
H326 H 0.74131 0.83089 0.44714 0.0
O327 O 0.56494 0.83805 0.64548 0.0
C328 C 0.64792 0.88769 0.71713 0.0
C329 C 0.71544 0.83326 0.53557 0.0
C330 C 0.66376 0.86009 0.45916 0.0
N331 N 0.62882 0.86469 0.55584 0.0
C332 C 0.67444 0.8458 0.57425 0.0
C333 C 0.62365 0.8722 0.49912 0.0
C334 C 0.70985 0.84041 0.47761 0.0
C335 C 0.48501 0.9525 0.74896 0.0
N336 N 0.5229 0.93046 0.77181 0.0
C337 C 0.48971 0.9847 0.76378 0.0
C338 C 0.53357 0.99428 0.80235 0.0
C339 C 0.57196 0.97166 0.82565 0.0
C340 C 0.56591 0.93967 0.80985 0.0
C341 C 0.47555 0.87867 0.92371 0.0
C342 C 0.54611 0.84684 0.84564 0.0
C343 C 0.47807 0.88828 0.86655 0.0
N344 N 0.51359 0.8726 0.82841 0.0
C345 C 0.54472 0.83654 0.90245 0.0
C346 C 0.50927 0.85267 0.94171 0.0
C347 C 0.53515 0.8247 0.68541 0.0
C348 C 0.41174 0.88619 0.5208 0.0
C349 C 0.50183 0.84228 0.53735 0.0
C350 C 0.45292 0.83411 0.50344 0.0
C351 C 0.4077 0.8563 0.49503 0.0
N352 N 0.50597 0.87184 0.56194 0.0
C353 C 0.46125 0.89347 0.55459 0.0
Co354 Co 0.50826 0.38738 0.26787 0.0
Co355 Co 0.47274 0.37697 0.41287 0.0
O356 O 0.51856 0.39738 0.35009 0.0
C357 C 0.64213 0.3906 0.28599 0.0
O358 O 0.63523 0.39706 0.34032 0.0
C359 C 0.46993 0.44813 0.43908 0.0
O360 O 0.4836 0.45482 0.38597 0.0
O361 O 0.39585 0.38457 0.37117 0.0
O362 O 0.42033 0.38739 0.27783 0.0
H363 H 0.32634 0.29865 0.49677 0.0
H364 H 0.57812 0.44498 0.30377 0.0
O365 O 0.59714 0.38662 0.25341 0.0
H366 H 0.42151 0.48534 0.17537 0.0
H367 H 0.55106 0.39545 0.05664 0.0
H368 H 0.42751 0.34402 0.20428 0.0
H369 H 0.42838 0.42796 0.19708 0.0
H370 H 0.56461 0.40889 0.15843 0.0
O371 O 0.46259 0.41918 0.45454 0.0
H372 H 0.38439 0.32383 0.42008 0.0
H373 H 0.46703 0.38569 0.53994 0.0
H374 H 0.41195 0.33008 0.10297 0.0
H375 H 0.57347 0.50237 0.28254 0.0
H376 H 0.47407 0.35586 0.02827 0.0
H377 H 0.49459 0.52303 0.21799 0.0
O378 O 0.51209 0.34073 0.28417 0.0
H379 H 0.67667 0.40606 0.48532 0.0
H380 H 0.52374 0.32171 0.47688 0.0
H381 H 0.61796 0.31138 0.52747 0.0
H382 H 0.69541 0.35369 0.53175 0.0
H383 H 0.58148 0.41547 0.4357 0.0
H384 H 0.40975 0.36131 0.61803 0.0
H385 H 0.33869 0.31741 0.59684 0.0
O386 O 0.48221 0.33406 0.37531 0.0
C387 C 0.38243 0.38738 0.31816 0.0
C388 C 0.35672 0.31799 0.50652 0.0
C389 C 0.40347 0.35314 0.57453 0.0
N390 N 0.42799 0.35693 0.47466 0.0
C391 C 0.38948 0.33252 0.46297 0.0
C392 C 0.43545 0.3671 0.52985 0.0
C393 C 0.3637 0.32848 0.56264 0.0
C394 C 0.54439 0.45349 0.27486 0.0
N395 N 0.50444 0.43282 0.25091 0.0
C396 C 0.54165 0.48617 0.26331 0.0
C397 C 0.49733 0.49776 0.2272 0.0
C398 C 0.45636 0.47663 0.20327 0.0
C399 C 0.46056 0.44411 0.21574 0.0
C400 C 0.5238 0.38399 0.0888 0.0
C401 C 0.4547 0.35532 0.17213 0.0
C402 C 0.53152 0.39139 0.14659 0.0
N403 N 0.49706 0.37715 0.18746 0.0
C404 C 0.4457 0.34734 0.11478 0.0
C405 C 0.48057 0.3618 0.0729 0.0
C406 C 0.49902 0.32318 0.32694 0.0
C407 C 0.64326 0.38744 0.48386 0.0
C408 C 0.55681 0.34043 0.47914 0.0
C409 C 0.61026 0.33436 0.50765 0.0
C410 C 0.65373 0.35807 0.50993 0.0
N411 N 0.54679 0.36933 0.45366 0.0
C412 C 0.58927 0.39262 0.45573 0.0
Co413 Co 0.52266 0.12177 0.26201 0.0
Co414 Co 0.56889 0.13112 0.40168 0.0
O415 O 0.51761 0.11149 0.34357 0.0
C416 C 0.39533 0.13315 0.28668 0.0
O417 O 0.41228 0.14909 0.33224 0.0
C418 C 0.58236 0.06166 0.42718 0.0
O419 O 0.59303 0.05706 0.37267 0.0
O420 O 0.64143 0.11873 0.35721 0.0
O421 O 0.61113 0.12434 0.26591 0.0
H422 H 0.74833 0.19084 0.47416 0.0
H423 H 0.46142 0.06348 0.30303 0.0
O424 O 0.43362 0.11927 0.2553 0.0
H425 H 0.61122 0.0255 0.16583 0.0
H426 H 0.4628 0.11249 0.05496 0.0
H427 H 0.59466 0.16696 0.19274 0.0
H428 H 0.60109 0.08289 0.18657 0.0
H429 H 0.45876 0.09911 0.1576 0.0
O430 O 0.57122 0.08961 0.44556 0.0
H431 H 0.6827 0.16761 0.40075 0.0
H432 H 0.56835 0.13101 0.52928 0.0
H433 H 0.60083 0.18068 0.09038 0.0
H434 H 0.46872 1.00584 0.28262 0.0
H435 H 0.53442 0.15344 0.02071 0.0
H436 H 0.54444 0.98651 0.21375 0.0
O437 O 0.51679 0.16827 0.27926 0.0
H438 H 0.36762 0.11209 0.48832 0.0
H439 H 0.5257 0.19167 0.45473 0.0
H440 H 0.43426 0.20777 0.50487 0.0
H441 H 0.35451 0.16781 0.52216 0.0
H442 H 0.45944 0.0971 0.43755 0.0
H443 H 0.63325 0.15341 0.60428 0.0
H444 H 0.72372 0.18388 0.57693 0.0
O445 O 0.56675 0.17387 0.36114 0.0
C446 C 0.65149 0.12034 0.30347 0.0
C447 C 0.70846 0.17813 0.48665 0.0
C448 C 0.64394 0.15708 0.55964 0.0
N449 N 0.61998 0.1494 0.46038 0.0
C450 C 0.67064 0.16527 0.44513 0.0
C451 C 0.60715 0.14461 0.5169 0.0
C452 C 0.69474 0.17412 0.54428 0.0
C453 C 0.49314 0.05528 0.27195 0.0
N454 N 0.52943 0.07659 0.24495 0.0
C455 C 0.49766 0.02261 0.261 0.0
C456 C 0.54026 0.01177 0.22248 0.0
C457 C 0.57771 0.03363 0.19557 0.0
C458 C 0.57171 0.06612 0.20748 0.0
C459 C 0.49196 0.12453 0.0849 0.0
C460 C 0.56606 0.15473 0.16264 0.0
C461 C 0.48968 0.11716 0.14313 0.0
N462 N 0.52657 0.13217 0.18117 0.0
C463 C 0.56954 0.16273 0.10475 0.0
C464 C 0.5322 0.14748 0.0657 0.0
C465 C 0.54213 0.18587 0.31652 0.0
C466 C 0.40215 0.12969 0.48123 0.0
C467 C 0.49108 0.17417 0.46176 0.0
C468 C 0.43948 0.18341 0.49039 0.0
C469 C 0.39477 0.16097 0.50011 0.0
N470 N 0.49806 0.14341 0.44348 0.0
C471 C 0.45436 0.1213 0.45277 0.0
C472 C 0.97112 0.27891 0.16395 0.0
C473 C 0.02984 0.29118 0.16948 0.0
C474 C 0.06786 0.23645 0.16025 0.0
C475 C 0.00967 0.22411 0.168 0.0
N476 N 0.90416 0.23412 0.1739 0.0
N477 N 0.1357 0.28061 0.1711 0.0
C478 C 0.96073 0.24549 0.16866 0.0
C479 C 0.07872 0.2697 0.16678 0.0
N480 N 0.92568 0.29902 0.14978 0.0
N481 N 0.11211 0.21665 0.14218 0.0
H482 H 0.14674 0.3046 0.17005 0.0
H483 H 0.17197 0.26567 0.17821 0.0
H484 H 0.10421 0.19283 0.13225 0.0
H485 H 0.15422 0.22458 0.13017 0.0
H486 H 0.88281 0.29132 0.13989 0.0
H487 H 0.93271 0.32305 0.14073 0.0
H488 H 0.86783 0.24855 0.18338 0.0
H489 H 0.89382 0.21005 0.17078 0.0
C490 C 0.98864 0.77387 0.77694 0.0
C491 C 0.02325 0.79296 0.81439 0.0
C492 C 0.08548 0.74618 0.83667 0.0
C493 C 0.04815 0.72654 0.80182 0.0
N494 N 0.98649 0.7275 0.71637 0.0
N495 N 0.10999 0.79882 0.87391 0.0
C496 C 0.00597 0.7419 0.76537 0.0
C497 C 0.07308 0.77944 0.8429 0.0
N498 N 0.93814 0.78601 0.753 0.0
N499 N 0.13557 0.73338 0.86018 0.0
H500 H 0.10366 0.8233 0.87684 0.0
H501 H 0.14828 0.79154 0.89506 0.0
H502 H 0.15428 0.71275 0.84365 0.0
H503 H 0.16076 0.74371 0.89259 0.0
H504 H 0.90708 0.77204 0.73122 0.0
H505 H 0.92468 0.80944 0.75944 0.0
H506 H 0.95862 0.73864 0.68688 0.0
H507 H 0.0063 0.70727 0.69938 0.0
C508 C 0.56672 0.73457 0.68995 0.0
C509 C 0.5085 0.72165 0.68261 0.0
C510 C 0.46843 0.77635 0.67592 0.0
C511 C 0.52662 0.78917 0.68278 0.0
N512 N 0.63259 0.78005 0.68234 0.0
N513 N 0.405 0.73052 0.65996 0.0
C514 C 0.57612 0.76816 0.68588 0.0
C515 C 0.45973 0.74266 0.67313 0.0
N516 N 0.61374 0.71476 0.70042 0.0
N517 N 0.42107 0.79653 0.67116 0.0
H518 H 0.39531 0.70641 0.66149 0.0
H519 H 0.3697 0.74399 0.64436 0.0
H520 H 0.42603 0.82085 0.66422 0.0
H521 H 0.37691 0.78951 0.67564 0.0
H522 H 0.65473 0.72266 0.71572 0.0
H523 H 0.61156 0.69009 0.69633 0.0
H524 H 0.67023 0.76601 0.67658 0.0
H525 H 0.64193 0.80422 0.67987 0.0
C526 C 0.56337 0.27579 0.34866 0.0
C527 C 0.51169 0.28838 0.32233 0.0
C528 C 0.4952 0.23693 0.2748 0.0
C529 C 0.53893 0.22213 0.31052 0.0
N530 N 0.62388 0.23036 0.37254 0.0
N531 N 0.42441 0.27996 0.26455 0.0
C532 C 0.57538 0.24245 0.34522 0.0
C533 C 0.47635 0.26861 0.28688 0.0
N534 N 0.60324 0.29613 0.37381 0.0
N535 N 0.47558 0.22246 0.22593 0.0
H536 H 0.41004 0.30326 0.27124 0.0
H537 H 0.39343 0.26542 0.2439 0.0
H538 H 0.49598 0.2026 0.20825 0.0
H539 H 0.44644 0.23332 0.19724 0.0
H540 H 0.6449 0.28936 0.38889 0.0
H541 H 0.59671 0.3207 0.37559 0.0
H542 H 0.64439 0.24123 0.40747 0.0
H543 H 0.64512 0.21004 0.3579 0.0
C544 C 0.30259 0.10372 0.25722 0.0
C545 C 0.33182 0.13312 0.26864 0.0
C546 C 0.24025 0.16183 0.24398 0.0
C547 C 0.21392 0.13266 0.22623 0.0
N548 N 0.22363 0.0766 0.20584 0.0
N549 N 0.33157 0.19077 0.26215 0.0
C550 C 0.2463 0.10382 0.22958 0.0
C551 C 0.30151 0.16242 0.25921 0.0
N552 N 0.32693 0.07576 0.27583 0.0
N553 N 0.20646 0.18882 0.24767 0.0
H554 H 0.37667 0.1924 0.27195 0.0
H555 H 0.31312 0.21247 0.24963 0.0
H556 H 0.16148 0.18931 0.23678 0.0
H557 H 0.22169 0.20995 0.26612 0.0
H558 H 0.30529 0.05381 0.27301 0.0
H559 H 0.36539 0.07519 0.30059 0.0
H560 H 0.24782 0.05551 0.2023 0.0
H561 H 0.18285 0.07604 0.18452 0.0
C562 C 0.72317 0.41006 0.21968 0.0
C563 C 0.70331 0.38805 0.26205 0.0
C564 C 0.79935 0.3603 0.25738 0.0
C565 C 0.82103 0.38422 0.2199 0.0
N566 N 0.80676 0.4337 0.16929 0.0
N567 N 0.72447 0.34393 0.32549 0.0
C568 C 0.7836 0.4094 0.20147 0.0
C569 C 0.74204 0.36368 0.28214 0.0
N570 N 0.68461 0.43195 0.19735 0.0
N571 N 0.83294 0.3337 0.26771 0.0
H572 H 0.68199 0.34438 0.34286 0.0
H573 H 0.7531 0.32852 0.34698 0.0
H574 H 0.87489 0.33025 0.24982 0.0
H575 H 0.81729 0.31371 0.28949 0.0
H576 H 0.69379 0.44566 0.16128 0.0
H577 H 0.64183 0.43533 0.2129 0.0
H578 H 0.78418 0.45477 0.16032 0.0
H579 H 0.85052 0.4339 0.1546 0.0
C580 C 0.23745 0.85797 0.76828 0.0
C581 C 0.20481 0.88687 0.76422 0.0
C582 C 0.28999 0.91205 0.71613 0.0
C583 C 0.32477 0.88476 0.72833 0.0
N584 N 0.33439 0.83322 0.77363 0.0
N585 N 0.20332 0.94308 0.74082 0.0
C586 C 0.29941 0.85819 0.75692 0.0
C587 C 0.23176 0.91435 0.73943 0.0
N588 N 0.20869 0.82988 0.77943 0.0
N589 N 0.31254 0.93581 0.68236 0.0
H590 H 0.16156 0.94603 0.75884 0.0
H591 H 0.22334 0.96454 0.7291 0.0
H592 H 0.35552 0.93526 0.66572 0.0
H593 H 0.28704 0.95467 0.6669 0.0
H594 H 0.22951 0.80771 0.77797 0.0
H595 H 0.16259 0.82831 0.78299 0.0
H596 H 0.31918 0.81488 0.79998 0.0
H597 H 0.37983 0.83211 0.76511 0.0
C598 C 0.73759 0.61305 0.77862 0.0
C599 C 0.71508 0.62912 0.72951 0.0
C600 C 0.8129 0.65412 0.71484 0.0
C601 C 0.83322 0.64019 0.76663 0.0
N602 N 0.81319 0.61034 0.85254 0.0
N603 N 0.72913 0.66872 0.65522 0.0
C604 C 0.79479 0.62112 0.80023 0.0
C605 C 0.75219 0.65062 0.6986 0.0
N606 N 0.70623 0.58837 0.80223 0.0
N607 N 0.85191 0.67042 0.68071 0.0
H608 H 0.68546 0.66679 0.6408 0.0
H609 H 0.75193 0.68757 0.63617 0.0
H610 H 0.89563 0.67542 0.69283 0.0
H611 H 0.84215 0.67737 0.63898 0.0
H612 H 0.72289 0.57367 0.83438 0.0
H613 H 0.66611 0.58018 0.78549 0.0
H614 H 0.78482 0.59949 0.88189 0.0
H615 H 0.8558 0.61449 0.86859 0.0
C616 C 0.74201 0.91698 0.74482 0.0
C617 C 0.70847 0.88818 0.74325 0.0
C618 C 0.79022 0.85984 0.79124 0.0
C619 C 0.82275 0.88874 0.79488 0.0
N620 N 0.82661 0.94581 0.78465 0.0
N621 N 0.69596 0.83371 0.77562 0.0
C622 C 0.79774 0.91764 0.77426 0.0
C623 C 0.73108 0.86015 0.76995 0.0
N624 N 0.72042 0.94372 0.71851 0.0
N625 N 0.81692 0.83168 0.80543 0.0
H626 H 0.6536 0.83205 0.75825 0.0
H627 H 0.707 0.81425 0.80123 0.0
H628 H 0.85975 0.83056 0.82202 0.0
H629 H 0.79874 0.80934 0.79649 0.0
H630 H 0.74527 0.96441 0.71221 0.0
H631 H 0.67816 0.94482 0.7002 0.0
H632 H 0.8089 0.96817 0.77558 0.0
H633 H 0.86683 0.94696 0.80692 0.0
C634 C 0.29927 0.58962 0.74079 0.0
C635 C 0.32986 0.61877 0.73052 0.0
C636 C 0.24227 0.64894 0.76004 0.0
C637 C 0.21319 0.62009 0.77493 0.0
N638 N 0.21456 0.5629 0.78479 0.0
N639 N 0.33613 0.67561 0.74615 0.0
C640 C 0.24194 0.59032 0.76696 0.0
C641 C 0.30302 0.64827 0.74478 0.0
N642 N 0.32496 0.56142 0.72537 0.0
N643 N 0.21154 0.67702 0.7588 0.0
H644 H 0.38143 0.67594 0.73732 0.0
H645 H 0.32024 0.69719 0.76206 0.0
H646 H 0.16661 0.67857 0.76887 0.0
H647 H 0.2291 0.69814 0.74232 0.0
H648 H 0.30303 0.53953 0.72608 0.0
H649 H 0.36782 0.56019 0.70882 0.0
H650 H 0.23501 0.54066 0.78533 0.0
H651 H 0.17202 0.5627 0.80255 0.0
C652 C 0.74098 0.15073 0.27118 0.0
C653 C 0.7138 0.12089 0.28287 0.0
C654 C 0.80317 0.09323 0.24826 0.0
C655 C 0.83065 0.12334 0.23821 0.0
N656 N 0.83213 0.17997 0.25716 0.0
N657 N 0.71465 0.0636 0.27677 0.0
C658 C 0.80148 0.15184 0.25474 0.0
C659 C 0.74391 0.09201 0.27021 0.0
N660 N 0.70806 0.17809 0.27256 0.0
N661 N 0.83522 0.06596 0.23991 0.0
H662 H 0.67166 0.06209 0.29306 0.0
H663 H 0.73094 0.04163 0.26351 0.0
H664 H 0.87915 0.0663 0.22609 0.0
H665 H 0.8206 0.04314 0.25033 0.0
H666 H 0.72369 0.20007 0.258 0.0
H667 H 0.66298 0.17828 0.28235 0.0
H668 H 0.8149 0.20077 0.27496 0.0
H669 H 0.87702 0.18172 0.24742 0.0
C670 C 0.22764 0.36114 0.27145 0.0
C671 C 0.20412 0.39039 0.2502 0.0
C672 C 0.29507 0.41851 0.28059 0.0
C673 C 0.31888 0.38916 0.30063 0.0
N674 N 0.30746 0.33312 0.31994 0.0
N675 N 0.20948 0.44769 0.24417 0.0
C676 C 0.28473 0.36071 0.2978 0.0
C677 C 0.23631 0.41933 0.2573 0.0
N678 N 0.19635 0.33342 0.26413 0.0
N679 N 0.32923 0.44552 0.28329 0.0
H680 H 0.16639 0.44913 0.22776 0.0
H681 H 0.2277 0.46996 0.25322 0.0
H682 H 0.37035 0.44617 0.30401 0.0
H683 H 0.31835 0.46693 0.26333 0.0
H684 H 0.21322 0.3107 0.27136 0.0
H685 H 0.15324 0.33278 0.24829 0.0
H686 H 0.28315 0.31232 0.3267 0.0
H687 H 0.35119 0.33128 0.33388 0.0
C688 C 1.00007 1.00522 0.06723 0.0
C689 C 0.95613 0.02901 0.05906 0.0
C690 C 0.9192 1.00021 0.97422 0.0
C691 C 0.96103 0.97543 0.98448 0.0
N692 N 0.03095 0.95099 0.05001 0.0
N693 N 0.86606 0.04598 0.012 0.0
C694 C 0.99789 0.97678 0.03406 0.0
C695 C 0.91348 0.02563 0.01447 0.0
N696 N 0.04643 0.01056 0.10401 0.0
N697 N 0.88473 0.99943 0.92601 0.0
H698 H 0.85949 0.06427 0.04155 0.0
H699 H 0.83033 0.043 0.98412 0.0
H700 H 0.88361 0.97996 0.89825 0.0
H701 H 0.85928 0.01867 0.91207 0.0
H702 H 0.08339 0.99569 0.10677 0.0
H703 H 0.05141 0.03154 0.12749 0.0
H704 H 0.05334 0.94954 0.08898 0.0
H705 H 0.03108 0.92973 0.02747 0.0
C706 C 0.07377 0.50858 0.9504 0.0
C707 C 0.06299 0.53957 0.97244 0.0
C708 C 0.06575 0.51672 0.06941 0.0
C709 C 0.06413 0.48529 0.04648 0.0
N710 N 0.05021 0.45297 0.96153 0.0
N711 N 0.03585 0.57144 0.05471 0.0
C712 C 0.06424 0.48155 0.98594 0.0
C713 C 0.05592 0.54334 0.03256 0.0
N714 N 0.09363 0.50473 0.89566 0.0
N715 N 0.07761 0.52137 0.12611 0.0
H716 H 0.02301 0.59064 0.02938 0.0
H717 H 0.0251 0.5742 0.09776 0.0
H718 H 0.08803 0.5027 0.15389 0.0
H719 H 0.08397 0.54399 0.14372 0.0
H720 H 0.10637 0.48261 0.87944 0.0
H721 H 0.1041 0.52395 0.86908 0.0
H722 H 0.0451 0.45002 0.91751 0.0
H723 H 0.03546 0.43357 0.98519 0.0
C724 C 0.50104 0.47713 0.52982 0.0
C725 C 0.46267 0.47476 0.48139 0.0
C726 C 0.41538 0.52535 0.51011 0.0
C727 C 0.45905 0.52944 0.55354 0.0
N728 N 0.55163 0.51244 0.59578 0.0
N729 N 0.38385 0.49744 0.4242 0.0
C730 C 0.50392 0.50614 0.56116 0.0
C731 C 0.42017 0.49925 0.47105 0.0
N732 N 0.53458 0.45173 0.54678 0.0
N733 N 0.36787 0.54564 0.50773 0.0
H734 H 0.38149 0.47736 0.39798 0.0
H735 H 0.35777 0.51634 0.40989 0.0
H736 H 0.36229 0.56457 0.53616 0.0
H737 H 0.33134 0.54219 0.48101 0.0
H738 H 0.55815 0.45123 0.58519 0.0
H739 H 0.53377 0.42987 0.52624 0.0
H740 H 0.589 0.49784 0.59798 0.0
H741 H 0.55712 0.53397 0.61746 0.0
C742 C 0.60757 0.00727 0.55733 0.0
C743 C 0.57382 0.9799 0.5413 0.0
C744 C 0.54132 0.00784 0.45413 0.0
C745 C 0.57935 0.03385 0.46714 0.0
N746 N 0.65677 0.05607 0.52666 0.0
N747 N 0.52029 0.9519 0.46657 0.0
C748 C 0.61461 0.03303 0.5177 0.0
C749 C 0.54463 0.97943 0.48719 0.0
N750 N 0.63325 0.00863 0.61031 0.0
N751 N 0.49917 0.01089 0.41228 0.0
H752 H 0.52232 0.93043 0.48835 0.0
H753 H 0.50403 0.94962 0.42499 0.0
H754 H 0.49273 0.032 0.38955 0.0
H755 H 0.46608 0.99392 0.40488 0.0
H756 H 0.65199 0.02933 0.62726 0.0
H757 H 0.63304 0.98946 0.63877 0.0
H758 H 0.68801 0.05511 0.55954 0.0
H759 H 0.66417 0.07483 0.49819 0.0
loop_
_geom_bond_atom_site_label_1
_geom_bond_atom_site_label_2
_geom_bond_distance
_geom_bond_site_symmetry_2
_ccdc_geom_bond_type
Co0 O2 2.143 . S
Co0 O8 2.074 1_455 S
Co0 O11 2.093 . S
Co0 O24 2.097 . S
Co0 N41 2.151 . S
Co0 N49 2.214 . S
Co1 O2 2.160 1_655 S
Co1 O7 2.058 . S
Co1 O17 2.057 . S
Co1 O32 2.037 . S
Co1 N36 2.145 . S
Co1 N57 2.257 1_655 S
O2 Co0 2.143 . S
O2 Co1 2.160 1_455 S
C3 O4 1.278 . S
C3 O11 1.224 . S
O4 C3 1.278 . S
C5 O6 1.245 1_655 S
C5 O17 1.232 . S
O6 C5 1.245 1_455 S
O7 Co1 2.058 . S
O7 C33 1.269 . S
O8 Co0 2.074 1_655 S
O8 C33 1.257 . S
H9 C34 0.930 . S
H10 C40 0.930 . S
O11 Co0 2.093 . S
O11 C3 1.224 . S
H12 C44 0.929 . S
H13 C46 0.930 . S
H14 C47 0.930 . S
H15 C45 0.929 . S
H16 C48 0.928 . S
O17 Co1 2.057 . S
O17 C5 1.232 . S
H18 C37 0.929 . S
H19 C38 0.929 . S
H20 C50 0.931 . S
H21 C42 0.929 . S
H22 C51 0.930 . S
H23 C43 0.931 . S
O24 Co0 2.097 . S
O24 C52 1.214 . S
H25 C53 0.929 . S
H26 C54 0.929 . S
H27 C55 0.930 . S
H28 C56 0.929 . S
H29 C58 0.930 . S
H30 C35 0.930 . S
H31 C39 0.930 . S
O32 Co1 2.037 . S
O32 C52 1.234 1_655 S
C33 O7 1.269 . S
C33 O8 1.257 . S
C34 H9 0.930 . S
C34 C37 1.388 1_556 S
C34 C39 1.418 . S
C35 H30 0.930 . S
C35 C38 1.404 . S
C35 C39 1.353 . S
N36 Co1 2.145 . S
N36 C37 1.397 . S
N36 C38 1.334 1_554 S
C37 H18 0.929 . S
C37 C34 1.388 1_554 S
C37 N36 1.397 . S
C38 H19 0.929 . S
C38 C35 1.404 . S
C38 N36 1.334 1_556 S
C39 H31 0.930 . S
C39 C34 1.418 . S
C39 C35 1.353 . S
C40 H10 0.930 . S
C40 N41 1.330 . S
C40 C42 1.446 . S
N41 Co0 2.151 . S
N41 C40 1.330 . S
N41 C45 1.418 1_455 S
C42 H21 0.929 . S
C42 C40 1.446 . S
C42 C43 1.332 . S
C43 H23 0.931 . S
C43 C42 1.332 . S
C43 C44 1.267 1_455 S
C44 H12 0.929 . S
C44 C43 1.267 1_655 S
C44 C45 1.251 . S
C45 H15 0.929 . S
C45 N41 1.418 1_655 S
C45 C44 1.251 . S
C46 H13 0.930 . S
C46 C48 1.406 . S
C46 C51 1.261 1_455 S
C47 H14 0.930 . S
C47 N49 1.325 1_655 S
C47 C50 1.357 . S
C48 H16 0.928 . S
C48 C46 1.406 . S
C48 N49 1.261 . S
N49 Co0 2.214 . S
N49 C47 1.325 1_455 S
N49 C48 1.261 . S
C50 H20 0.931 . S
C50 C47 1.357 . S
C50 C51 1.312 . S
C51 H22 0.930 . S
C51 C46 1.261 1_655 S
C51 C50 1.312 . S
C52 O24 1.214 . S
C52 O32 1.234 1_455 S
C53 H25 0.929 . S
C53 C56 1.391 1_554 S
C53 C58 1.391 . S
C54 H26 0.929 . S
C54 C55 1.390 1_554 S
C54 N57 1.391 . S
C55 H27 0.930 . S
C55 C54 1.390 1_556 S
C55 C56 1.392 . S
C56 H28 0.929 . S
C56 C53 1.391 1_556 S
C56 C55 1.392 . S
N57 Co1 2.257 1_455 S
N57 C54 1.391 . S
N57 C58 1.388 . S
C58 H29 0.930 . S
C58 C53 1.391 . S
C58 N57 1.388 . S
Co59 O61 2.143 . S
Co59 O67 2.074 . S
Co59 O70 2.093 1_455 S
Co59 O83 2.097 . S
Co59 N100 2.151 . S
Co59 N108 2.214 . S
Co60 O61 2.160 . S
Co60 O66 2.058 . S
Co60 O76 2.057 . S
Co60 O91 2.037 . S
Co60 N95 2.145 . S
Co60 N116 2.257 1_455 S
O61 Co59 2.143 . S
O61 Co60 2.160 . S
C62 O63 1.278 . S
C62 O70 1.224 . S
O63 C62 1.278 . S
C64 O65 1.245 . S
C64 O76 1.232 . S
O65 C64 1.245 . S
O66 Co60 2.058 . S
O66 C92 1.269 . S
O67 Co59 2.074 . S
O67 C92 1.257 . S
H68 C93 0.930 . S
H69 C99 0.930 . S
O70 Co59 2.093 1_655 S
O70 C62 1.224 . S
H71 C103 0.929 . S
H72 C105 0.930 1_655 S
H73 C106 0.930 . S
H74 C104 0.929 . S
H75 C107 0.928 . S
O76 Co60 2.057 . S
O76 C64 1.232 . S
H77 C96 0.929 . S
H78 C97 0.929 . S
H79 C109 0.931 . S
H80 C101 0.929 . S
H81 C110 0.930 . S
H82 C102 0.931 . S
O83 Co59 2.097 . S
O83 C111 1.214 . S
H84 C112 0.929 . S
H85 C113 0.929 1_455 S
H86 C114 0.930 . S
H87 C115 0.929 . S
H88 C117 0.930 . S
H89 C94 0.930 . S
H90 C98 0.930 . S
O91 Co60 2.037 . S
O91 C111 1.234 . S
C92 O66 1.269 . S
C92 O67 1.257 . S
C93 H68 0.930 . S
C93 C96 1.388 1_556 S
C93 C98 1.418 . S
C94 H89 0.930 . S
C94 C97 1.404 . S
C94 C98 1.353 . S
N95 Co60 2.145 . S
N95 C96 1.397 . S
N95 C97 1.334 1_554 S
C96 H77 0.929 . S
C96 C93 1.388 1_554 S
C96 N95 1.397 . S
C97 H78 0.929 . S
C97 C94 1.404 . S
C97 N95 1.334 1_556 S
C98 H90 0.930 . S
C98 C93 1.418 . S
C98 C94 1.353 . S
C99 H69 0.930 . S
C99 N100 1.330 1_655 S
C99 C101 1.446 . S
N100 Co59 2.151 . S
N100 C99 1.330 1_455 S
N100 C104 1.418 . S
C101 H80 0.929 . S
C101 C99 1.446 . S
C101 C102 1.332 1_655 S
C102 H82 0.931 . S
C102 C101 1.332 1_455 S
C102 C103 1.267 . S
C103 H71 0.929 . S
C103 C102 1.267 . S
C103 C104 1.251 . S
C104 H74 0.929 . S
C104 N100 1.418 . S
C104 C103 1.251 . S
C105 H72 0.930 1_455 S
C105 C107 1.406 1_455 S
C105 C110 1.261 . S
C106 H73 0.930 . S
C106 N108 1.325 . S
C106 C109 1.357 . S
C107 H75 0.928 . S
C107 C105 1.406 1_655 S
C107 N108 1.261 1_655 S
N108 Co59 2.214 . S
N108 C106 1.325 . S
N108 C107 1.261 1_455 S
C109 H79 0.931 . S
C109 C106 1.357 . S
C109 C110 1.312 . S
C110 H81 0.930 . S
C110 C105 1.261 . S
C110 C109 1.312 . S
C111 O83 1.214 . S
C111 O91 1.234 . S
C112 H84 0.929 . S
C112 C115 1.391 1_554 S
C112 C117 1.391 . S
C113 H85 0.929 1_655 S
C113 C114 1.390 1_554 S
C113 N116 1.391 . S
C114 H86 0.930 . S
C114 C113 1.390 1_556 S
C114 C115 1.392 . S
C115 H87 0.929 . S
C115 C112 1.391 1_556 S
C115 C114 1.392 . S
N116 Co60 2.257 1_655 S
N116 C113 1.391 . S
N116 C117 1.388 . S
C117 H88 0.930 . S
C117 C112 1.391 . S
C117 N116 1.388 . S
Co118 O120 2.143 . S
Co118 O126 2.074 1_455 S
Co118 O129 2.093 . S
Co118 O142 2.097 . S
Co118 N159 2.151 . S
Co118 N167 2.214 . S
Co119 O120 2.160 1_655 S
Co119 O125 2.058 . S
Co119 O135 2.057 . S
Co119 O150 2.037 . S
Co119 N154 2.145 . S
Co119 N175 2.257 1_655 S
O120 Co118 2.143 . S
O120 Co119 2.160 1_455 S
C121 O122 1.278 . S
C121 O129 1.224 . S
O122 C121 1.278 . S
C123 O124 1.245 1_655 S
C123 O135 1.232 . S
O124 C123 1.245 1_455 S
O125 Co119 2.058 . S
O125 C151 1.269 . S
O126 Co118 2.074 1_655 S
O126 C151 1.257 . S
H127 C152 0.930 . S
H128 C158 0.930 . S
O129 Co118 2.093 . S
O129 C121 1.224 . S
H130 C162 0.929 . S
H131 C164 0.930 . S
H132 C165 0.930 . S
H133 C163 0.929 . S
H134 C166 0.928 . S
O135 Co119 2.057 . S
O135 C123 1.232 . S
H136 C155 0.929 . S
H137 C156 0.929 . S
H138 C168 0.931 . S
H139 C160 0.929 . S
H140 C169 0.930 . S
H141 C161 0.931 . S
O142 Co118 2.097 . S
O142 C170 1.214 . S
H143 C171 0.929 . S
H144 C172 0.929 . S
H145 C173 0.930 . S
H146 C174 0.929 . S
H147 C176 0.930 . S
H148 C153 0.930 . S
H149 C157 0.930 . S
O150 Co119 2.037 . S
O150 C170 1.234 1_655 S
C151 O125 1.269 . S
C151 O126 1.257 . S
C152 H127 0.930 . S
C152 C155 1.388 1_554 S
C152 C157 1.418 . S
C153 H148 0.930 . S
C153 C156 1.404 . S
C153 C157 1.353 . S
N154 Co119 2.145 . S
N154 C155 1.397 . S
N154 C156 1.334 1_556 S
C155 H136 0.929 . S
C155 C152 1.388 1_556 S
C155 N154 1.397 . S
C156 H137 0.929 . S
C156 C153 1.404 . S
C156 N154 1.334 1_554 S
C157 H149 0.930 . S
C157 C152 1.418 . S
C157 C153 1.353 . S
C158 H128 0.930 . S
C158 N159 1.330 . S
C158 C160 1.446 . S
N159 Co118 2.151 . S
N159 C158 1.330 . S
N159 C163 1.418 1_455 S
C160 H139 0.929 . S
C160 C158 1.446 . S
C160 C161 1.332 . S
C161 H141 0.931 . S
C161 C160 1.332 . S
C161 C162 1.267 1_455 S
C162 H130 0.929 . S
C162 C161 1.267 1_655 S
C162 C163 1.251 . S
C163 H133 0.929 . S
C163 N159 1.418 1_655 S
C163 C162 1.251 . S
C164 H131 0.930 . S
C164 C166 1.406 . S
C164 C169 1.261 1_455 S
C165 H132 0.930 . S
C165 N167 1.325 1_655 S
C165 C168 1.357 . S
C166 H134 0.928 . S
C166 C164 1.406 . S
C166 N167 1.261 . S
N167 Co118 2.214 . S
N167 C165 1.325 1_455 S
N167 C166 1.261 . S
C168 H138 0.931 . S
C168 C165 1.357 . S
C168 C169 1.312 . S
C169 H140 0.930 . S
C169 C164 1.261 1_655 S
C169 C168 1.312 . S
C170 O142 1.214 . S
C170 O150 1.234 1_455 S
C171 H143 0.929 . S
C171 C174 1.391 1_556 S
C171 C176 1.391 . S
C172 H144 0.929 . S
C172 C173 1.390 1_556 S
C172 N175 1.391 . S
C173 H145 0.930 . S
C173 C172 1.390 1_554 S
C173 C174 1.392 . S
C174 H146 0.929 . S
C174 C171 1.391 1_554 S
C174 C173 1.392 . S
N175 Co119 2.257 1_455 S
N175 C172 1.391 . S
N175 C176 1.388 . S
C176 H147 0.930 . S
C176 C171 1.391 . S
C176 N175 1.388 . S
Co177 O179 2.143 . S
Co177 O185 2.074 . S
Co177 O188 2.093 1_455 S
Co177 O201 2.097 . S
Co177 N218 2.151 . S
Co177 N226 2.214 . S
Co178 O179 2.160 . S
Co178 O184 2.058 . S
Co178 O194 2.057 . S
Co178 O209 2.037 . S
Co178 N213 2.145 . S
Co178 N234 2.257 1_455 S
O179 Co177 2.143 . S
O179 Co178 2.160 . S
C180 O181 1.278 . S
C180 O188 1.224 . S
O181 C180 1.278 . S
C182 O183 1.245 . S
C182 O194 1.232 . S
O183 C182 1.245 . S
O184 Co178 2.058 . S
O184 C210 1.269 . S
O185 Co177 2.074 . S
O185 C210 1.257 . S
H186 C211 0.930 . S
H187 C217 0.930 . S
O188 Co177 2.093 1_655 S
O188 C180 1.224 . S
H189 C221 0.929 . S
H190 C223 0.930 1_655 S
H191 C224 0.930 . S
H192 C222 0.929 . S
H193 C225 0.928 . S
O194 Co178 2.057 . S
O194 C182 1.232 . S
H195 C214 0.929 . S
H196 C215 0.929 . S
H197 C227 0.931 . S
H198 C219 0.929 . S
H199 C228 0.930 . S
H200 C220 0.931 . S
O201 Co177 2.097 . S
O201 C229 1.214 . S
H202 C230 0.929 . S
H203 C231 0.929 1_455 S
H204 C232 0.930 . S
H205 C233 0.929 . S
H206 C235 0.930 . S
H207 C212 0.930 . S
H208 C216 0.930 . S
O209 Co178 2.037 . S
O209 C229 1.234 . S
C210 O184 1.269 . S
C210 O185 1.257 . S
C211 H186 0.930 . S
C211 C214 1.388 1_554 S
C211 C216 1.418 . S
C212 H207 0.930 . S
C212 C215 1.404 . S
C212 C216 1.353 . S
N213 Co178 2.145 . S
N213 C214 1.397 . S
N213 C215 1.334 1_556 S
C214 H195 0.929 . S
C214 C211 1.388 1_556 S
C214 N213 1.397 . S
C215 H196 0.929 . S
C215 C212 1.404 . S
C215 N213 1.334 1_554 S
C216 H208 0.930 . S
C216 C211 1.418 . S
C216 C212 1.353 . S
C217 H187 0.930 . S
C217 N218 1.330 1_655 S
C217 C219 1.446 . S
N218 Co177 2.151 . S
N218 C217 1.330 1_455 S
N218 C222 1.418 . S
C219 H198 0.929 . S
C219 C217 1.446 . S
C219 C220 1.332 1_655 S
C220 H200 0.931 . S
C220 C219 1.332 1_455 S
C220 C221 1.267 . S
C221 H189 0.929 . S
C221 C220 1.267 . S
C221 C222 1.251 . S
C222 H192 0.929 . S
C222 N218 1.418 . S
C222 C221 1.251 . S
C223 H190 0.930 1_455 S
C223 C225 1.406 1_455 S
C223 C228 1.261 . S
C224 H191 0.930 . S
C224 N226 1.325 . S
C224 C227 1.357 . S
C225 H193 0.928 . S
C225 C223 1.406 1_655 S
C225 N226 1.261 1_655 S
N226 Co177 2.214 . S
N226 C224 1.325 . S
N226 C225 1.261 1_455 S
C227 H197 0.931 . S
C227 C224 1.357 . S
C227 C228 1.312 . S
C228 H199 0.930 . S
C228 C223 1.261 . S
C228 C227 1.312 . S
C229 O201 1.214 . S
C229 O209 1.234 . S
C230 H202 0.929 . S
C230 C233 1.391 1_556 S
C230 C235 1.391 . S
C231 H203 0.929 1_655 S
C231 C232 1.390 1_556 S
C231 N234 1.391 . S
C232 H204 0.930 . S
C232 C231 1.390 1_554 S
C232 C233 1.392 . S
C233 H205 0.929 . S
C233 C230 1.391 1_554 S
C233 C232 1.392 . S
N234 Co178 2.257 1_655 S
N234 C231 1.391 . S
N234 C235 1.388 . S
C235 H206 0.930 . S
C235 C230 1.391 . S
C235 N234 1.388 . S
Co236 O238 2.143 . S
Co236 O244 2.074 . S
Co236 O247 2.093 . S
Co236 O260 2.097 . S
Co236 N277 2.151 . S
Co236 N285 2.214 . S
Co237 O238 2.160 . S
Co237 O243 2.058 . S
Co237 O253 2.057 . S
Co237 O268 2.037 . S
Co237 N272 2.145 . S
Co237 N293 2.257 . S
O238 Co236 2.143 . S
O238 Co237 2.160 . S
C239 O240 1.278 . S
C239 O247 1.224 . S
O240 C239 1.278 . S
C241 O242 1.245 . S
C241 O253 1.232 . S
O242 C241 1.245 . S
O243 Co237 2.058 . S
O243 C269 1.269 . S
O244 Co236 2.074 . S
O244 C269 1.257 . S
H245 C270 0.930 . S
H246 C276 0.930 . S
O247 Co236 2.093 . S
O247 C239 1.224 . S
H248 C280 0.929 . S
H249 C282 0.930 . S
H250 C283 0.930 . S
H251 C281 0.929 . S
H252 C284 0.928 . S
O253 Co237 2.057 . S
O253 C241 1.232 . S
H254 C273 0.929 . S
H255 C274 0.929 . S
H256 C286 0.931 . S
H257 C278 0.929 . S
H258 C287 0.930 . S
H259 C279 0.931 . S
O260 Co236 2.097 . S
O260 C288 1.214 . S
H261 C289 0.929 . S
H262 C290 0.929 . S
H263 C291 0.930 . S
H264 C292 0.929 . S
H265 C294 0.930 . S
H266 C271 0.930 . S
H267 C275 0.930 . S
O268 Co237 2.037 . S
O268 C288 1.234 . S
C269 O243 1.269 . S
C269 O244 1.257 . S
C270 H245 0.930 . S
C270 C273 1.388 . S
C270 C275 1.418 . S
C271 H266 0.930 . S
C271 C274 1.404 . S
C271 C275 1.353 . S
N272 Co237 2.145 . S
N272 C273 1.397 . S
N272 C274 1.334 . S
C273 H254 0.929 . S
C273 C270 1.388 . S
C273 N272 1.397 . S
C274 H255 0.929 . S
C274 C271 1.404 . S
C274 N272 1.334 . S
C275 H267 0.930 . S
C275 C270 1.418 . S
C275 C271 1.353 . S
C276 H246 0.930 . S
C276 N277 1.330 . S
C276 C278 1.446 . S
N277 Co236 2.151 . S
N277 C276 1.330 . S
N277 C281 1.418 . S
C278 H257 0.929 . S
C278 C276 1.446 . S
C278 C279 1.332 . S
C279 H259 0.931 . S
C279 C278 1.332 . S
C279 C280 1.267 . S
C280 H248 0.929 . S
C280 C279 1.267 . S
C280 C281 1.251 . S
C281 H251 0.929 . S
C281 N277 1.418 . S
C281 C280 1.251 . S
C282 H249 0.930 . S
C282 C284 1.406 . S
C282 C287 1.261 . S
C283 H250 0.930 . S
C283 N285 1.325 . S
C283 C286 1.357 . S
C284 H252 0.928 . S
C284 C282 1.406 . S
C284 N285 1.261 . S
N285 Co236 2.214 . S
N285 C283 1.325 . S
N285 C284 1.261 . S
C286 H256 0.931 . S
C286 C283 1.357 . S
C286 C287 1.312 . S
C287 H258 0.930 . S
C287 C282 1.261 . S
C287 C286 1.312 . S
C288 O260 1.214 . S
C288 O268 1.234 . S
C289 H261 0.929 . S
C289 C292 1.391 . S
C289 C294 1.391 . S
C290 H262 0.929 . S
C290 C291 1.390 . S
C290 N293 1.391 . S
C291 H263 0.930 . S
C291 C290 1.390 . S
C291 C292 1.392 . S
C292 H264 0.929 . S
C292 C289 1.391 . S
C292 C291 1.392 . S
N293 Co237 2.257 . S
N293 C290 1.391 . S
N293 C294 1.388 . S
C294 H265 0.930 . S
C294 C289 1.391 . S
C294 N293 1.388 . S
Co295 O297 2.143 . S
Co295 O303 2.074 . S
Co295 O306 2.093 . S
Co295 O319 2.097 . S
Co295 N336 2.151 . S
Co295 N344 2.214 . S
Co296 O297 2.160 . S
Co296 O302 2.058 . S
Co296 O312 2.057 . S
Co296 O327 2.037 . S
Co296 N331 2.145 . S
Co296 N352 2.257 . S
O297 Co295 2.143 . S
O297 Co296 2.160 . S
C298 O299 1.278 . S
C298 O306 1.224 . S
O299 C298 1.278 . S
C300 O301 1.245 . S
C300 O312 1.232 . S
O301 C300 1.245 . S
O302 Co296 2.058 . S
O302 C328 1.269 . S
O303 Co295 2.074 . S
O303 C328 1.257 . S
H304 C329 0.930 . S
H305 C335 0.930 . S
O306 Co295 2.093 . S
O306 C298 1.224 . S
H307 C339 0.929 . S
H308 C341 0.930 . S
H309 C342 0.930 . S
H310 C340 0.929 . S
H311 C343 0.928 . S
O312 Co296 2.057 . S
O312 C300 1.232 . S
H313 C332 0.929 . S
H314 C333 0.929 . S
H315 C345 0.931 . S
H316 C337 0.929 . S
H317 C346 0.930 . S
H318 C338 0.931 . S
O319 Co295 2.097 . S
O319 C347 1.214 . S
H320 C348 0.929 . S
H321 C349 0.929 . S
H322 C350 0.930 . S
H323 C351 0.929 . S
H324 C353 0.930 . S
H325 C330 0.930 . S
H326 C334 0.930 . S
O327 Co296 2.037 . S
O327 C347 1.234 . S
C328 O302 1.269 . S
C328 O303 1.257 . S
C329 H304 0.930 . S
C329 C332 1.388 . S
C329 C334 1.418 . S
C330 H325 0.930 . S
C330 C333 1.404 . S
C330 C334 1.353 . S
N331 Co296 2.145 . S
N331 C332 1.397 . S
N331 C333 1.334 . S
C332 H313 0.929 . S
C332 C329 1.388 . S
C332 N331 1.397 . S
C333 H314 0.929 . S
C333 C330 1.404 . S
C333 N331 1.334 . S
C334 H326 0.930 . S
C334 C329 1.418 . S
C334 C330 1.353 . S
C335 H305 0.930 . S
C335 N336 1.330 . S
C335 C337 1.446 . S
N336 Co295 2.151 . S
N336 C335 1.330 . S
N336 C340 1.418 . S
C337 H316 0.929 . S
C337 C335 1.446 . S
C337 C338 1.332 . S
C338 H318 0.931 . S
C338 C337 1.332 . S
C338 C339 1.267 . S
C339 H307 0.929 . S
C339 C338 1.267 . S
C339 C340 1.251 . S
C340 H310 0.929 . S
C340 N336 1.418 . S
C340 C339 1.251 . S
C341 H308 0.930 . S
C341 C343 1.406 . S
C341 C346 1.261 . S
C342 H309 0.930 . S
C342 N344 1.325 . S
C342 C345 1.357 . S
C343 H311 0.928 . S
C343 C341 1.406 . S
C343 N344 1.261 . S
N344 Co295 2.214 . S
N344 C342 1.325 . S
N344 C343 1.261 . S
C345 H315 0.931 . S
C345 C342 1.357 . S
C345 C346 1.312 . S
C346 H317 0.930 . S
C346 C341 1.261 . S
C346 C345 1.312 . S
C347 O319 1.214 . S
C347 O327 1.234 . S
C348 H320 0.929 . S
C348 C351 1.391 . S
C348 C353 1.391 . S
C349 H321 0.929 . S
C349 C350 1.390 . S
C349 N352 1.391 . S
C350 H322 0.930 . S
C350 C349 1.390 . S
C350 C351 1.392 . S
C351 H323 0.929 . S
C351 C348 1.391 . S
C351 C350 1.392 . S
N352 Co296 2.257 . S
N352 C349 1.391 . S
N352 C353 1.388 . S
C353 H324 0.930 . S
C353 C348 1.391 . S
C353 N352 1.388 . S
Co354 O356 2.143 . S
Co354 O362 2.074 . S
Co354 O365 2.093 . S
Co354 O378 2.097 . S
Co354 N395 2.151 . S
Co354 N403 2.214 . S
Co355 O356 2.160 . S
Co355 O361 2.058 . S
Co355 O371 2.057 . S
Co355 O386 2.037 . S
Co355 N390 2.145 . S
Co355 N411 2.257 . S
O356 Co354 2.143 . S
O356 Co355 2.160 . S
C357 O358 1.278 . S
C357 O365 1.224 . S
O358 C357 1.278 . S
C359 O360 1.245 . S
C359 O371 1.232 . S
O360 C359 1.245 . S
O361 Co355 2.058 . S
O361 C387 1.269 . S
O362 Co354 2.074 . S
O362 C387 1.257 . S
H363 C388 0.930 . S
H364 C394 0.930 . S
O365 Co354 2.093 . S
O365 C357 1.224 . S
H366 C398 0.929 . S
H367 C400 0.930 . S
H368 C401 0.930 . S
H369 C399 0.929 . S
H370 C402 0.928 . S
O371 Co355 2.057 . S
O371 C359 1.232 . S
H372 C391 0.929 . S
H373 C392 0.929 . S
H374 C404 0.931 . S
H375 C396 0.929 . S
H376 C405 0.930 . S
H377 C397 0.931 . S
O378 Co354 2.097 . S
O378 C406 1.214 . S
H379 C407 0.929 . S
H380 C408 0.929 . S
H381 C409 0.930 . S
H382 C410 0.929 . S
H383 C412 0.930 . S
H384 C389 0.930 . S
H385 C393 0.930 . S
O386 Co355 2.037 . S
O386 C406 1.234 . S
C387 O361 1.269 . S
C387 O362 1.257 . S
C388 H363 0.930 . S
C388 C391 1.388 . S
C388 C393 1.418 . S
C389 H384 0.930 . S
C389 C392 1.404 . S
C389 C393 1.353 . S
N390 Co355 2.145 . S
N390 C391 1.397 . S
N390 C392 1.334 . S
C391 H372 0.929 . S
C391 C388 1.388 . S
C391 N390 1.397 . S
C392 H373 0.929 . S
C392 C389 1.404 . S
C392 N390 1.334 . S
C393 H385 0.930 . S
C393 C388 1.418 . S
C393 C389 1.353 . S
C394 H364 0.930 . S
C394 N395 1.330 . S
C394 C396 1.446 . S
N395 Co354 2.151 . S
N395 C394 1.330 . S
N395 C399 1.418 . S
C396 H375 0.929 . S
C396 C394 1.446 . S
C396 C397 1.332 . S
C397 H377 0.931 . S
C397 C396 1.332 . S
C397 C398 1.267 . S
C398 H366 0.929 . S
C398 C397 1.267 . S
C398 C399 1.251 . S
C399 H369 0.929 . S
C399 N395 1.418 . S
C399 C398 1.251 . S
C400 H367 0.930 . S
C400 C402 1.406 . S
C400 C405 1.261 . S
C401 H368 0.930 . S
C401 N403 1.325 . S
C401 C404 1.357 . S
C402 H370 0.928 . S
C402 C400 1.406 . S
C402 N403 1.261 . S
N403 Co354 2.214 . S
N403 C401 1.325 . S
N403 C402 1.261 . S
C404 H374 0.931 . S
C404 C401 1.357 . S
C404 C405 1.312 . S
C405 H376 0.930 . S
C405 C400 1.261 . S
C405 C404 1.312 . S
C406 O378 1.214 . S
C406 O386 1.234 . S
C407 H379 0.929 . S
C407 C410 1.391 . S
C407 C412 1.391 . S
C408 H380 0.929 . S
C408 C409 1.390 . S
C408 N411 1.391 . S
C409 H381 0.930 . S
C409 C408 1.390 . S
C409 C410 1.392 . S
C410 H382 0.929 . S
C410 C407 1.391 . S
C410 C409 1.392 . S
N411 Co355 2.257 . S
N411 C408 1.391 . S
N411 C412 1.388 . S
C412 H383 0.930 . S
C412 C407 1.391 . S
C412 N411 1.388 . S
Co413 O415 2.143 . S
Co413 O421 2.074 . S
Co413 O424 2.093 . S
Co413 O437 2.097 . S
Co413 N454 2.151 . S
Co413 N462 2.214 . S
Co414 O415 2.160 . S
Co414 O420 2.058 . S
Co414 O430 2.057 . S
Co414 O445 2.037 . S
Co414 N449 2.145 . S
Co414 N470 2.257 . S
O415 Co413 2.143 . S
O415 Co414 2.160 . S
C416 O417 1.278 . S
C416 O424 1.224 . S
O417 C416 1.278 . S
C418 O419 1.245 . S
C418 O430 1.232 . S
O419 C418 1.245 . S
O420 Co414 2.058 . S
O420 C446 1.269 . S
O421 Co413 2.074 . S
O421 C446 1.257 . S
H422 C447 0.930 . S
H423 C453 0.930 . S
O424 Co413 2.093 . S
O424 C416 1.224 . S
H425 C457 0.929 . S
H426 C459 0.930 . S
H427 C460 0.930 . S
H428 C458 0.929 . S
H429 C461 0.928 . S
O430 Co414 2.057 . S
O430 C418 1.232 . S
H431 C450 0.929 . S
H432 C451 0.929 . S
H433 C463 0.931 . S
H434 C455 0.929 . S
H435 C464 0.930 . S
H436 C456 0.931 . S
O437 Co413 2.097 . S
O437 C465 1.214 . S
H438 C466 0.929 . S
H439 C467 0.929 . S
H440 C468 0.930 . S
H441 C469 0.929 . S
H442 C471 0.930 . S
H443 C448 0.930 . S
H444 C452 0.930 . S
O445 Co414 2.037 . S
O445 C465 1.234 . S
C446 O420 1.269 . S
C446 O421 1.257 . S
C447 H422 0.930 . S
C447 C450 1.388 . S
C447 C452 1.418 . S
C448 H443 0.930 . S
C448 C451 1.404 . S
C448 C452 1.353 . S
N449 Co414 2.145 . S
N449 C450 1.397 . S
N449 C451 1.334 . S
C450 H431 0.929 . S
C450 C447 1.388 . S
C450 N449 1.397 . S
C451 H432 0.929 . S
C451 C448 1.404 . S
C451 N449 1.334 . S
C452 H444 0.930 . S
C452 C447 1.418 . S
C452 C448 1.353 . S
C453 H423 0.930 . S
C453 N454 1.330 . S
C453 C455 1.446 . S
N454 Co413 2.151 . S
N454 C453 1.330 . S
N454 C458 1.418 . S
C455 H434 0.929 . S
C455 C453 1.446 . S
C455 C456 1.332 . S
C456 H436 0.931 . S
C456 C455 1.332 . S
C456 C457 1.267 . S
C457 H425 0.929 . S
C457 C456 1.267 . S
C457 C458 1.251 . S
C458 H428 0.929 . S
C458 N454 1.418 . S
C458 C457 1.251 . S
C459 H426 0.930 . S
C459 C461 1.406 . S
C459 C464 1.261 . S
C460 H427 0.930 . S
C460 N462 1.325 . S
C460 C463 1.357 . S
C461 H429 0.928 . S
C461 C459 1.406 . S
C461 N462 1.261 . S
N462 Co413 2.214 . S
N462 C460 1.325 . S
N462 C461 1.261 . S
C463 H433 0.931 . S
C463 C460 1.357 . S
C463 C464 1.312 . S
C464 H435 0.930 . S
C464 C459 1.261 . S
C464 C463 1.312 . S
C465 O437 1.214 . S
C465 O445 1.234 . S
C466 H438 0.929 . S
C466 C469 1.391 . S
C466 C471 1.391 . S
C467 H439 0.929 . S
C467 C468 1.390 . S
C467 N470 1.391 . S
C468 H440 0.930 . S
C468 C467 1.390 . S
C468 C469 1.392 . S
C469 H441 0.929 . S
C469 C466 1.391 . S
C469 C468 1.392 . S
N470 Co414 2.257 . S
N470 C467 1.391 . S
N470 C471 1.388 . S
C471 H442 0.930 . S
C471 C466 1.391 . S
C471 N470 1.388 . S
C472 C473 1.363 1_655 S
C472 C478 1.379 . S
C472 N480 1.356 . S
C473 C472 1.363 1_455 S
C473 C479 1.363 . S
C474 C475 1.363 . S
C474 C479 1.379 . S
C474 N481 1.356 . S
C475 C474 1.363 . S
C475 C478 1.363 1_455 S
N476 C478 1.356 . S
N476 H488 0.984 . S
N476 H489 0.985 . S
N477 C479 1.356 . S
N477 H482 0.984 . S
N477 H483 0.985 . S
C478 C472 1.379 . S
C478 C475 1.363 1_655 S
C478 N476 1.356 . S
C479 C473 1.363 . S
C479 C474 1.379 . S
C479 N477 1.356 . S
N480 C472 1.356 . S
N480 H486 0.984 . S
N480 H487 0.984 . S
N481 C474 1.356 . S
N481 H484 0.984 . S
N481 H485 0.985 . S
H482 N477 0.984 . S
H483 N477 0.985 . S
H484 N481 0.984 . S
H485 N481 0.985 . S
H486 N480 0.984 . S
H487 N480 0.984 . S
H488 N476 0.984 . S
H489 N476 0.985 . S
C490 C491 1.363 1_655 S
C490 C496 1.379 . S
C490 N498 1.356 . S
C491 C490 1.363 1_455 S
C491 C497 1.363 . S
C492 C493 1.363 . S
C492 C497 1.379 . S
C492 N499 1.356 . S
C493 C492 1.363 . S
C493 C496 1.363 1_455 S
N494 C496 1.356 . S
N494 H506 0.984 . S
N494 H507 0.985 . S
N495 C497 1.356 . S
N495 H500 0.984 . S
N495 H501 0.985 . S
C496 C490 1.379 . S
C496 C493 1.363 1_655 S
C496 N494 1.356 . S
C497 C491 1.363 . S
C497 C492 1.379 . S
C497 N495 1.356 . S
N498 C490 1.356 . S
N498 H504 0.984 . S
N498 H505 0.984 . S
N499 C492 1.356 . S
N499 H502 0.984 . S
N499 H503 0.985 . S
H500 N495 0.984 . S
H501 N495 0.985 . S
H502 N499 0.984 . S
H503 N499 0.985 . S
H504 N498 0.984 . S
H505 N498 0.984 . S
H506 N494 0.984 . S
H507 N494 0.985 . S
C508 C509 1.363 . S
C508 C514 1.379 . S
C508 N516 1.356 . S
C509 C508 1.363 . S
C509 C515 1.363 . S
C510 C511 1.363 . S
C510 C515 1.379 . S
C510 N517 1.356 . S
C511 C510 1.363 . S
C511 C514 1.363 . S
N512 C514 1.356 . S
N512 H524 0.984 . S
N512 H525 0.985 . S
N513 C515 1.356 . S
N513 H518 0.984 . S
N513 H519 0.985 . S
C514 C508 1.379 . S
C514 C511 1.363 . S
C514 N512 1.356 . S
C515 C509 1.363 . S
C515 C510 1.379 . S
C515 N513 1.356 . S
N516 C508 1.356 . S
N516 H522 0.984 . S
N516 H523 0.984 . S
N517 C510 1.356 . S
N517 H520 0.984 . S
N517 H521 0.985 . S
H518 N513 0.984 . S
H519 N513 0.985 . S
H520 N517 0.984 . S
H521 N517 0.985 . S
H522 N516 0.984 . S
H523 N516 0.984 . S
H524 N512 0.984 . S
H525 N512 0.985 . S
C526 C527 1.363 . S
C526 C532 1.379 . S
C526 N534 1.356 . S
C527 C526 1.363 . S
C527 C533 1.363 . S
C528 C529 1.363 . S
C528 C533 1.379 . S
C528 N535 1.356 . S
C529 C528 1.363 . S
C529 C532 1.363 . S
N530 C532 1.356 . S
N530 H542 0.984 . S
N530 H543 0.985 . S
N531 C533 1.356 . S
N531 H536 0.984 . S
N531 H537 0.985 . S
C532 C526 1.379 . S
C532 C529 1.363 . S
C532 N530 1.356 . S
C533 C527 1.363 . S
C533 C528 1.379 . S
C533 N531 1.356 . S
N534 C526 1.356 . S
N534 H540 0.984 . S
N534 H541 0.984 . S
N535 C528 1.356 . S
N535 H538 0.984 . S
N535 H539 0.985 . S
H536 N531 0.984 . S
H537 N531 0.985 . S
H538 N535 0.984 . S
H539 N535 0.985 . S
H540 N534 0.984 . S
H541 N534 0.984 . S
H542 N530 0.984 . S
H543 N530 0.985 . S
C544 C545 1.363 . S
C544 C550 1.379 . S
C544 N552 1.356 . S
C545 C544 1.363 . S
C545 C551 1.363 . S
C546 C547 1.363 . S
C546 C551 1.379 . S
C546 N553 1.356 . S
C547 C546 1.363 . S
C547 C550 1.363 . S
N548 C550 1.356 . S
N548 H560 0.984 . S
N548 H561 0.985 . S
N549 C551 1.356 . S
N549 H554 0.984 . S
N549 H555 0.985 . S
C550 C544 1.379 . S
C550 C547 1.363 . S
C550 N548 1.356 . S
C551 C545 1.363 . S
C551 C546 1.379 . S
C551 N549 1.356 . S
N552 C544 1.356 . S
N552 H558 0.984 . S
N552 H559 0.984 . S
N553 C546 1.356 . S
N553 H556 0.984 . S
N553 H557 0.985 . S
H554 N549 0.984 . S
H555 N549 0.985 . S
H556 N553 0.984 . S
H557 N553 0.985 . S
H558 N552 0.984 . S
H559 N552 0.984 . S
H560 N548 0.984 . S
H561 N548 0.985 . S
C562 C563 1.363 . S
C562 C568 1.379 . S
C562 N570 1.356 . S
C563 C562 1.363 . S
C563 C569 1.363 . S
C564 C565 1.363 . S
C564 C569 1.379 . S
C564 N571 1.356 . S
C565 C564 1.363 . S
C565 C568 1.363 . S
N566 C568 1.356 . S
N566 H578 0.984 . S
N566 H579 0.985 . S
N567 C569 1.356 . S
N567 H572 0.984 . S
N567 H573 0.985 . S
C568 C562 1.379 . S
C568 C565 1.363 . S
C568 N566 1.356 . S
C569 C563 1.363 . S
C569 C564 1.379 . S
C569 N567 1.356 . S
N570 C562 1.356 . S
N570 H576 0.984 . S
N570 H577 0.984 . S
N571 C564 1.356 . S
N571 H574 0.984 . S
N571 H575 0.985 . S
H572 N567 0.984 . S
H573 N567 0.985 . S
H574 N571 0.984 . S
H575 N571 0.985 . S
H576 N570 0.984 . S
H577 N570 0.984 . S
H578 N566 0.984 . S
H579 N566 0.985 . S
C580 C581 1.363 . S
C580 C586 1.379 . S
C580 N588 1.356 . S
C581 C580 1.363 . S
C581 C587 1.363 . S
C582 C583 1.363 . S
C582 C587 1.379 . S
C582 N589 1.356 . S
C583 C582 1.363 . S
C583 C586 1.363 . S
N584 C586 1.356 . S
N584 H596 0.984 . S
N584 H597 0.985 . S
N585 C587 1.356 . S
N585 H590 0.984 . S
N585 H591 0.985 . S
C586 C580 1.379 . S
C586 C583 1.363 . S
C586 N584 1.356 . S
C587 C581 1.363 . S
C587 C582 1.379 . S
C587 N585 1.356 . S
N588 C580 1.356 . S
N588 H594 0.984 . S
N588 H595 0.984 . S
N589 C582 1.356 . S
N589 H592 0.984 . S
N589 H593 0.985 . S
H590 N585 0.984 . S
H591 N585 0.985 . S
H592 N589 0.984 . S
H593 N589 0.985 . S
H594 N588 0.984 . S
H595 N588 0.984 . S
H596 N584 0.984 . S
H597 N584 0.985 . S
C598 C599 1.363 . S
C598 C604 1.379 . S
C598 N606 1.356 . S
C599 C598 1.363 . S
C599 C605 1.363 . S
C600 C601 1.363 . S
C600 C605 1.379 . S
C600 N607 1.356 . S
C601 C600 1.363 . S
C601 C604 1.363 . S
N602 C604 1.356 . S
N602 H614 0.984 . S
N602 H615 0.985 . S
N603 C605 1.356 . S
N603 H608 0.984 . S
N603 H609 0.985 . S
C604 C598 1.379 . S
C604 C601 1.363 . S
C604 N602 1.356 . S
C605 C599 1.363 . S
C605 C600 1.379 . S
C605 N603 1.356 . S
N606 C598 1.356 . S
N606 H612 0.984 . S
N606 H613 0.984 . S
N607 C600 1.356 . S
N607 H610 0.984 . S
N607 H611 0.985 . S
H608 N603 0.984 . S
H609 N603 0.985 . S
H610 N607 0.984 . S
H611 N607 0.985 . S
H612 N606 0.984 . S
H613 N606 0.984 . S
H614 N602 0.984 . S
H615 N602 0.985 . S
C616 C617 1.363 . S
C616 C622 1.379 . S
C616 N624 1.356 . S
C617 C616 1.363 . S
C617 C623 1.363 . S
C618 C619 1.363 . S
C618 C623 1.379 . S
C618 N625 1.356 . S
C619 C618 1.363 . S
C619 C622 1.363 . S
N620 C622 1.356 . S
N620 H632 0.984 . S
N620 H633 0.985 . S
N621 C623 1.356 . S
N621 H626 0.984 . S
N621 H627 0.985 . S
C622 C616 1.379 . S
C622 C619 1.363 . S
C622 N620 1.356 . S
C623 C617 1.363 . S
C623 C618 1.379 . S
C623 N621 1.356 . S
N624 C616 1.356 . S
N624 H630 0.984 . S
N624 H631 0.984 . S
N625 C618 1.356 . S
N625 H628 0.984 . S
N625 H629 0.985 . S
H626 N621 0.984 . S
H627 N621 0.985 . S
H628 N625 0.984 . S
H629 N625 0.985 . S
H630 N624 0.984 . S
H631 N624 0.984 . S
H632 N620 0.984 . S
H633 N620 0.985 . S
C634 C635 1.363 . S
C634 C640 1.379 . S
C634 N642 1.356 . S
C635 C634 1.363 . S
C635 C641 1.363 . S
C636 C637 1.363 . S
C636 C641 1.379 . S
C636 N643 1.356 . S
C637 C636 1.363 . S
C637 C640 1.363 . S
N638 C640 1.356 . S
N638 H650 0.984 . S
N638 H651 0.985 . S
N639 C641 1.356 . S
N639 H644 0.984 . S
N639 H645 0.985 . S
C640 C634 1.379 . S
C640 C637 1.363 . S
C640 N638 1.356 . S
C641 C635 1.363 . S
C641 C636 1.379 . S
C641 N639 1.356 . S
N642 C634 1.356 . S
N642 H648 0.984 . S
N642 H649 0.984 . S
N643 C636 1.356 . S
N643 H646 0.984 . S
N643 H647 0.985 . S
H644 N639 0.984 . S
H645 N639 0.985 . S
H646 N643 0.984 . S
H647 N643 0.985 . S
H648 N642 0.984 . S
H649 N642 0.984 . S
H650 N638 0.984 . S
H651 N638 0.985 . S
C652 C653 1.363 . S
C652 C658 1.379 . S
C652 N660 1.356 . S
C653 C652 1.363 . S
C653 C659 1.363 . S
C654 C655 1.363 . S
C654 C659 1.379 . S
C654 N661 1.356 . S
C655 C654 1.363 . S
C655 C658 1.363 . S
N656 C658 1.356 . S
N656 H668 0.984 . S
N656 H669 0.985 . S
N657 C659 1.356 . S
N657 H662 0.984 . S
N657 H663 0.985 . S
C658 C652 1.379 . S
C658 C655 1.363 . S
C658 N656 1.356 . S
C659 C653 1.363 . S
C659 C654 1.379 . S
C659 N657 1.356 . S
N660 C652 1.356 . S
N660 H666 0.984 . S
N660 H667 0.984 . S
N661 C654 1.356 . S
N661 H664 0.984 . S
N661 H665 0.985 . S
H662 N657 0.984 . S
H663 N657 0.985 . S
H664 N661 0.984 . S
H665 N661 0.985 . S
H666 N660 0.984 . S
H667 N660 0.984 . S
H668 N656 0.984 . S
H669 N656 0.985 . S
C670 C671 1.363 . S
C670 C676 1.379 . S
C670 N678 1.356 . S
C671 C670 1.363 . S
C671 C677 1.363 . S
C672 C673 1.363 . S
C672 C677 1.379 . S
C672 N679 1.356 . S
C673 C672 1.363 . S
C673 C676 1.363 . S
N674 C676 1.356 . S
N674 H686 0.984 . S
N674 H687 0.985 . S
N675 C677 1.356 . S
N675 H680 0.984 . S
N675 H681 0.985 . S
C676 C670 1.379 . S
C676 C673 1.363 . S
C676 N674 1.356 . S
C677 C671 1.363 . S
C677 C672 1.379 . S
C677 N675 1.356 . S
N678 C670 1.356 . S
N678 H684 0.984 . S
N678 H685 0.984 . S
N679 C672 1.356 . S
N679 H682 0.984 . S
N679 H683 0.985 . S
H680 N675 0.984 . S
H681 N675 0.985 . S
H682 N679 0.984 . S
H683 N679 0.985 . S
H684 N678 0.984 . S
H685 N678 0.984 . S
H686 N674 0.984 . S
H687 N674 0.985 . S
C688 C689 1.357 1_465 S
C688 C694 1.379 . S
C688 N696 1.356 1_565 S
C689 C688 1.357 1_645 S
C689 C695 1.369 1_554 S
C690 C691 1.369 1_545 S
C690 C695 1.379 . S
C690 N697 1.356 1_545 S
C691 C690 1.369 1_565 S
C691 C694 1.357 1_656 S
N692 C694 1.356 . S
N692 H704 0.984 . S
N692 H705 0.985 1_554 S
N693 C695 1.356 . S
N693 H698 0.984 1_556 S
N693 H699 0.985 . S
C694 C688 1.379 . S
C694 C691 1.357 1_454 S
C694 N692 1.356 . S
C695 C689 1.369 1_556 S
C695 C690 1.379 . S
C695 N693 1.356 . S
N696 C688 1.356 1_545 S
N696 H702 0.984 1_545 S
N696 H703 0.984 . S
N697 C690 1.356 1_565 S
N697 H700 0.984 . S
N697 H701 0.985 1_565 S
H698 N693 0.984 1_554 S
H699 N693 0.985 . S
H700 N697 0.984 . S
H701 N697 0.985 1_545 S
H702 N696 0.984 1_565 S
H703 N696 0.984 . S
H704 N692 0.984 . S
H705 N692 0.985 1_556 S
C706 C707 1.363 . S
C706 C712 1.379 . S
C706 N714 1.356 . S
C707 C706 1.363 . S
C707 C713 1.363 1_556 S
C708 C709 1.363 . S
C708 C713 1.379 . S
C708 N715 1.356 . S
C709 C708 1.363 . S
C709 C712 1.363 1_554 S
N710 C712 1.356 . S
N710 H722 0.984 . S
N710 H723 0.985 1_556 S
N711 C713 1.356 . S
N711 H716 0.984 1_554 S
N711 H717 0.985 . S
C712 C706 1.379 . S
C712 C709 1.363 1_556 S
C712 N710 1.356 . S
C713 C707 1.363 1_554 S
C713 C708 1.379 . S
C713 N711 1.356 . S
N714 C706 1.356 . S
N714 H720 0.984 . S
N714 H721 0.984 . S
N715 C708 1.356 . S
N715 H718 0.984 . S
N715 H719 0.985 . S
H716 N711 0.984 1_556 S
H717 N711 0.985 . S
H718 N715 0.984 . S
H719 N715 0.985 . S
H720 N714 0.984 . S
H721 N714 0.984 . S
H722 N710 0.984 . S
H723 N710 0.985 1_554 S
C724 C725 1.363 . S
C724 C730 1.379 . S
C724 N732 1.356 . S
C725 C724 1.363 . S
C725 C731 1.363 . S
C726 C727 1.363 . S
C726 C731 1.379 . S
C726 N733 1.356 . S
C727 C726 1.363 . S
C727 C730 1.363 . S
N728 C730 1.356 . S
N728 H740 0.984 . S
N728 H741 0.985 . S
N729 C731 1.356 . S
N729 H734 0.984 . S
N729 H735 0.985 . S
C730 C724 1.379 . S
C730 C727 1.363 . S
C730 N728 1.356 . S
C731 C725 1.363 . S
C731 C726 1.379 . S
C731 N729 1.356 . S
N732 C724 1.356 . S
N732 H738 0.984 . S
N732 H739 0.984 . S
N733 C726 1.356 . S
N733 H736 0.984 . S
N733 H737 0.985 . S
H734 N729 0.984 . S
H735 N729 0.985 . S
H736 N733 0.984 . S
H737 N733 0.985 . S
H738 N732 0.984 . S
H739 N732 0.984 . S
H740 N728 0.984 . S
H741 N728 0.985 . S
C742 C743 1.363 . S
C742 C748 1.379 1_565 S
C742 N750 1.356 . S
C743 C742 1.363 . S
C743 C749 1.363 . S
C744 C745 1.363 . S
C744 C749 1.379 1_545 S
C744 N751 1.356 . S
C745 C744 1.363 . S
C745 C748 1.363 . S
N746 C748 1.356 . S
N746 H758 0.984 . S
N746 H759 0.985 . S
N747 C749 1.356 . S
N747 H752 0.984 . S
N747 H753 0.985 . S
C748 C742 1.379 1_545 S
C748 C745 1.363 . S
C748 N746 1.356 . S
C749 C743 1.363 . S
C749 C744 1.379 1_565 S
C749 N747 1.356 . S
N750 C742 1.356 . S
N750 H756 0.984 . S
N750 H757 0.984 . S
N751 C744 1.356 . S
N751 H754 0.984 . S
N751 H755 0.985 . S
H752 N747 0.984 . S
H753 N747 0.985 . S
H754 N751 0.984 . S
H755 N751 0.985 . S
H756 N750 0.984 . S
H757 N750 0.984 . S
H758 N746 0.984 . S
H759 N746 0.985 . S
C473 C111 1.522 . S
C475 C52 1.522 . S
C491 C170 1.522 . S
C493 C229 1.522 . S
C509 C288 1.522 . S
C511 C347 1.522 . S
C527 C406 1.522 . S
C529 C465 1.522 . S
C545 C416 1.289 . S
C547 C3 1.289 . S
C563 C357 1.289 . S
C565 C62 1.289 . S
C581 C121 1.289 . S
C583 C298 1.289 . S
C599 C239 1.289 . S
C601 C180 1.289 . S
C617 C328 1.689 . S
C619 C151 1.689 . S
C635 C269 1.689 . S
C637 C210 1.689 . S
C653 C446 1.689 . S
C655 C33 1.689 . S
C671 C92 1.689 . S
C673 C387 1.689 . S
C689 C5 1.491 . S
C691 C123 1.491 . S
C707 C182 1.491 . S
C709 C64 1.491 . S
C725 C359 1.491 . S
C727 C241 1.491 . S
C743 C300 1.491 . S
C745 C418 1.491 . S
