# Generated by pormake.
# Topology bcs, (6)-cn, num edge types: 1
# Building blocks:
#     Node 0, Type 0, BuildingBlock: MIFKUJ_clean_sbu_0, # of connection points: 6
#     Node 1, Type 0, BuildingBlock: MIFKUJ_clean_sbu_0, # of connection points: 6
#     Node 2, Type 0, BuildingBlock: MIFKUJ_clean_sbu_0, # of connection points: 6
#     Node 3, Type 0, BuildingBlock: MIFKUJ_clean_sbu_0, # of connection points: 6
#     Node 4, Type 0, BuildingBlock: MIFKUJ_clean_sbu_0, # of connection points: 6
#     Node 5, Type 0, BuildingBlock: MIFKUJ_clean_sbu_0, # of connection points: 6
#     Node 6, Type 0, BuildingBlock: MIFKUJ_clean_sbu_0, # of connection points: 6
#     Node 7, Type 0, BuildingBlock: MIFKUJ_clean_sbu_0, # of connection points: 6
#     Node 8, Type 0, BuildingBlock: MIFKUJ_clean_sbu_0, # of connection points: 6
#     Node 9, Type 0, BuildingBlock: MIFKUJ_clean_sbu_0, # of connection points: 6
#     Node 10, Type 0, BuildingBlock: MIFKUJ_clean_sbu_0, # of connection points: 6
#     Node 11, Type 0, BuildingBlock: MIFKUJ_clean_sbu_0, # of connection points: 6
#     Node 12, Type 0, BuildingBlock: MIFKUJ_clean_sbu_0, # of connection points: 6
#     Node 13, Type 0, BuildingBlock: MIFKUJ_clean_sbu_0, # of connection points: 6
#     Node 14, Type 0, BuildingBlock: MIFKUJ_clean_sbu_0, # of connection points: 6
#     Node 15, Type 0, BuildingBlock: MIFKUJ_clean_sbu_0, # of connection points: 6
#     Edge 16, Type (0, 0), BuildingBlock: OJICUG_clean_linker_0, # of connection points: 2
#     Edge 17, Type (0, 0), BuildingBlock: OJICUG_clean_linker_0, # of connection points: 2
#     Edge 18, Type (0, 0), BuildingBlock: OJICUG_clean_linker_0, # of connection points: 2
#     Edge 19, Type (0, 0), BuildingBlock: OJICUG_clean_linker_0, # of connection points: 2
#     Edge 20, Type (0, 0), BuildingBlock: OJICUG_clean_linker_0, # of connection points: 2
#     Edge 21, Type (0, 0), BuildingBlock: OJICUG_clean_linker_0, # of connection points: 2
#     Edge 22, Type (0, 0), BuildingBlock: OJICUG_clean_linker_0, # of connection points: 2
#     Edge 23, Type (0, 0), BuildingBlock: OJICUG_clean_linker_0, # of connection points: 2
#     Edge 24, Type (0, 0), BuildingBlock: OJICUG_clean_linker_0, # of connection points: 2
#     Edge 25, Type (0, 0), BuildingBlock: OJICUG_clean_linker_0, # of connection points: 2
#     Edge 26, Type (0, 0), BuildingBlock: OJICUG_clean_linker_0, # of connection points: 2
#     Edge 27, Type (0, 0), BuildingBlock: OJICUG_clean_linker_0, # of connection points: 2
#     Edge 28, Type (0, 0), BuildingBlock: OJICUG_clean_linker_0, # of connection points: 2
#     Edge 29, Type (0, 0), BuildingBlock: OJICUG_clean_linker_0, # of connection points: 2
#     Edge 30, Type (0, 0), BuildingBlock: OJICUG_clean_linker_0, # of connection points: 2
#     Edge 31, Type (0, 0), BuildingBlock: OJICUG_clean_linker_0, # of connection points: 2
#     Edge 32, Type (0, 0), BuildingBlock: OJICUG_clean_linker_0, # of connection points: 2
#     Edge 33, Type (0, 0), BuildingBlock: OJICUG_clean_linker_0, # of connection points: 2
#     Edge 34, Type (0, 0), BuildingBlock: OJICUG_clean_linker_0, # of connection points: 2
#     Edge 35, Type (0, 0), BuildingBlock: OJICUG_clean_linker_0, # of connection points: 2
#     Edge 36, Type (0, 0), BuildingBlock: OJICUG_clean_linker_0, # of connection points: 2
#     Edge 37, Type (0, 0), BuildingBlock: OJICUG_clean_linker_0, # of connection points: 2
#     Edge 38, Type (0, 0), BuildingBlock: OJICUG_clean_linker_0, # of connection points: 2
#     Edge 39, Type (0, 0), BuildingBlock: OJICUG_clean_linker_0, # of connection points: 2
#     Edge 40, Type (0, 0), BuildingBlock: OJICUG_clean_linker_0, # of connection points: 2
#     Edge 41, Type (0, 0), BuildingBlock: OJICUG_clean_linker_0, # of connection points: 2
#     Edge 42, Type (0, 0), BuildingBlock: OJICUG_clean_linker_0, # of connection points: 2
#     Edge 43, Type (0, 0), BuildingBlock: OJICUG_clean_linker_0, # of connection points: 2
#     Edge 44, Type (0, 0), BuildingBlock: OJICUG_clean_linker_0, # of connection points: 2
#     Edge 45, Type (0, 0), BuildingBlock: OJICUG_clean_linker_0, # of connection points: 2
#     Edge 46, Type (0, 0), BuildingBlock: OJICUG_clean_linker_0, # of connection points: 2
#     Edge 47, Type (0, 0), BuildingBlock: OJICUG_clean_linker_0, # of connection points: 2
#     Edge 48, Type (0, 0), BuildingBlock: OJICUG_clean_linker_0, # of connection points: 2
#     Edge 49, Type (0, 0), BuildingBlock: OJICUG_clean_linker_0, # of connection points: 2
#     Edge 50, Type (0, 0), BuildingBlock: OJICUG_clean_linker_0, # of connection points: 2
#     Edge 51, Type (0, 0), BuildingBlock: OJICUG_clean_linker_0, # of connection points: 2
#     Edge 52, Type (0, 0), BuildingBlock: OJICUG_clean_linker_0, # of connection points: 2
#     Edge 53, Type (0, 0), BuildingBlock: OJICUG_clean_linker_0, # of connection points: 2
#     Edge 54, Type (0, 0), BuildingBlock: OJICUG_clean_linker_0, # of connection points: 2
#     Edge 55, Type (0, 0), BuildingBlock: OJICUG_clean_linker_0, # of connection points: 2
#     Edge 56, Type (0, 0), BuildingBlock: OJICUG_clean_linker_0, # of connection points: 2
#     Edge 57, Type (0, 0), BuildingBlock: OJICUG_clean_linker_0, # of connection points: 2
#     Edge 58, Type (0, 0), BuildingBlock: OJICUG_clean_linker_0, # of connection points: 2
#     Edge 59, Type (0, 0), BuildingBlock: OJICUG_clean_linker_0, # of connection points: 2
#     Edge 60, Type (0, 0), BuildingBlock: OJICUG_clean_linker_0, # of connection points: 2
#     Edge 61, Type (0, 0), BuildingBlock: OJICUG_clean_linker_0, # of connection points: 2
#     Edge 62, Type (0, 0), BuildingBlock: OJICUG_clean_linker_0, # of connection points: 2
#     Edge 63, Type (0, 0), BuildingBlock: OJICUG_clean_linker_0, # of connection points: 2
# Relax obj value: 0.093
# Max RMSD: 0.235
# Mean RMSD: 0.140
data_MOF--net-bcs--node1-MIFKUJ_clean_sbu_0--edge1-OJICUG_clean_linker_0
_symmetry_space_group_name_H-M    P1
_symmetry_Int_Tables_number       1
_symmetry_cell_setting            triclinic
loop_
_symmetry_equiv_pos_as_xyz
'x, y, z'
_cell_length_a     28.378961
_cell_length_b     30.765601
_cell_length_c     27.329671
_cell_angle_alpha  97.333804
_cell_angle_beta   100.0024
_cell_angle_gamma 106.59379
loop_
_atom_site_label
_atom_site_type_symbol
_atom_site_fract_x
_atom_site_fract_y
_atom_site_fract_z
_atom_type_partial_charge
Zn0 Zn 0.93915 0.00559 0.95599 0.0
Zn1 Zn 0.05135 0.95972 0.01546 0.0
C2 C 0.9057 0.05518 0.02147 0.0
O3 O 0.8657 0.02765 0.98831 0.0
C4 C 0.10896 0.92422 0.9629 0.0
O5 O 0.14141 0.95733 -0.00164 0.0
O6 O 0.89851 0.02994 0.90044 0.0
O7 O 0.00612 0.00107 0.94197 0.0
O8 O 0.07768 0.02413 -0.00226 0.0
C9 C 0.91602 0.07373 0.90407 0.0
O10 O 0.95955 0.09564 0.93548 0.0
O11 O 0.94906 0.05274 0.01811 0.0
C12 C 0.07944 0.89882 0.07438 0.0
O13 O 0.0384 0.87334 0.04107 0.0
O14 O 0.09218 0.9426 0.07726 0.0
O15 O 0.97579 0.94124 0.01128 0.0
O16 O 0.90151 0.94676 0.97904 0.0
O17 O 0.06219 0.91832 0.95876 0.0
C18 C 0.04853 0.03189 0.96105 0.0
C19 C 0.92845 0.92974 0.00856 0.0
Zn20 Zn 0.28545 0.76592 0.21431 0.0
Zn21 Zn 0.22813 0.71844 0.28402 0.0
C22 C 0.21553 0.80101 0.15432 0.0
O23 O 0.2272 0.77434 0.12006 0.0
C24 C 0.29659 0.6777 0.3342 0.0
O25 O 0.2942 0.70808 0.37131 0.0
O26 O 0.32979 0.78536 0.16847 0.0
O27 O 0.32974 0.78342 0.28335 0.0
O28 O 0.26831 0.78191 0.32241 0.0
C29 C 0.36088 0.82556 0.18286 0.0
O30 O 0.36546 0.84821 0.22837 0.0
O31 O 0.23472 0.8033 0.20091 0.0
C32 C 0.13883 0.66023 0.3046 0.0
O33 O 0.12719 0.64387 0.25573 0.0
O34 O 0.17794 0.69462 0.32324 0.0
O35 O 0.1896 0.71118 0.21298 0.0
O36 O 0.25483 0.69904 0.18898 0.0
O37 O 0.2717 0.67514 0.2898 0.0
C38 C 0.31457 0.79699 0.32157 0.0
C39 C 0.20792 0.6914 0.18119 0.0
Zn40 Zn 0.54334 0.9617 0.45745 0.0
Zn41 Zn 0.47567 0.03995 0.53102 0.0
C42 C 0.54046 0.91112 0.53934 0.0
O43 O 0.55306 0.95237 0.56703 0.0
C44 C 0.43057 0.07862 0.46023 0.0
O45 O 0.39223 0.04838 0.47053 0.0
O46 O 0.56693 0.94662 0.39456 0.0
O47 O 0.4821 0.98346 0.45046 0.0
O48 O 0.42414 0.97951 0.49413 0.0
C49 C 0.55538 0.90429 0.37491 0.0
O50 O 0.5213 0.87364 0.39035 0.0
O51 O 0.53337 0.90664 0.49163 0.0
C52 C 0.45915 0.10459 0.60099 0.0
O53 O 0.49441 0.13195 0.58373 0.0
O54 O 0.45271 0.06157 0.59249 0.0
O55 O 0.53888 0.02333 0.53627 0.0
O56 O 0.5999 0.01545 0.50174 0.0
O57 O 0.47493 0.08399 0.48386 0.0
C58 C 0.44065 0.96072 0.45964 0.0
C59 C 0.58291 0.04077 0.52952 0.0
Zn60 Zn 0.17908 0.23994 0.79665 0.0
Zn61 Zn 0.27118 0.24273 0.68255 0.0
C62 C 0.12008 0.17177 0.84215 0.0
O63 O 0.08625 0.17791 0.80664 0.0
C64 C 0.32997 0.29389 0.62292 0.0
O65 O 0.36108 0.27626 0.64878 0.0
O66 O 0.15632 0.29392 0.81465 0.0
O67 O 0.24956 0.2609 0.7842 0.0
O68 O 0.31545 0.27675 0.7502 0.0
C69 C 0.17482 0.32648 0.85273 0.0
O70 O 0.21368 0.32639 0.88672 0.0
O71 O 0.16618 0.19552 0.84723 0.0
C72 C 0.29438 0.17244 0.62159 0.0
O73 O 0.27254 0.18823 0.5845 0.0
O74 O 0.29408 0.18799 0.6667 0.0
O75 O 0.20063 0.22343 0.69456 0.0
O76 O 0.13469 0.20802 0.72802 0.0
O77 O 0.28532 0.28511 0.63039 0.0
C78 C 0.29642 0.28011 0.78877 0.0
C79 C 0.15352 0.20507 0.68923 0.0
Zn80 Zn 0.99287 0.03462 0.43147 0.0
Zn81 Zn 0.99354 0.94733 0.54698 0.0
C82 C 0.90178 0.0572 0.39435 0.0
O83 O 0.88417 0.01324 0.37329 0.0
C84 C 0.07589 0.92149 0.59667 0.0
O85 O 0.0823 0.9598 0.62813 0.0
O86 O 0.04979 0.06025 0.39693 0.0
O87 O 0.01588 0.03294 0.50458 0.0
O88 O 0.03116 0.01419 0.57898 0.0
C89 C 0.08736 0.096 0.41678 0.0
O90 O 0.09161 0.11656 0.46323 0.0
O91 O 0.946 0.07307 0.42229 0.0
C92 C 0.91004 0.87948 0.5682 0.0
O93 O 0.9183 0.85383 0.53041 0.0
O94 O 0.93654 0.92181 0.58132 0.0
O95 O 0.97032 0.94736 0.47296 0.0
O96 O 0.95666 0.96772 0.399 0.0
O97 O 0.04056 0.90929 0.55717 0.0
C98 C 0.03601 0.04475 0.5513 0.0
C99 C 0.95166 0.93639 0.42581 0.0
Zn100 Zn 0.32104 0.71165 0.73445 0.0
Zn101 Zn 0.21059 0.76146 0.75972 0.0
C102 C 0.35625 0.68189 0.8264 0.0
O103 O 0.39033 0.72286 0.8355 0.0
C104 C 0.1673 0.79128 0.6702 0.0
O105 O 0.14118 0.74735 0.65516 0.0
O106 O 0.35917 0.6902 0.68554 0.0
O107 O 0.24914 0.70301 0.6934 0.0
O108 O 0.18126 0.69583 0.72476 0.0
C109 C 0.35576 0.64766 0.68044 0.0
O110 O 0.32766 0.62135 0.70549 0.0
O111 O 0.31995 0.67129 0.78787 0.0
C112 C 0.18891 0.82104 0.82974 0.0
O113 O 0.218 0.84932 0.8072 0.0
O114 O 0.18048 0.77782 0.8178 0.0
O115 O 0.28064 0.76376 0.77565 0.0
O116 O 0.35733 0.77888 0.76889 0.0
O117 O 0.20082 0.80385 0.71107 0.0
C118 C 0.20712 0.67771 0.69962 0.0
C119 C 0.32364 0.79308 0.78372 0.0
Zn120 Zn 0.46485 0.0237 0.01364 0.0
Zn121 Zn 0.5245 0.95617 0.97336 0.0
C122 C 0.40833 0.94879 0.04921 0.0
O123 O 0.37064 0.95438 0.01801 0.0
C124 C 0.57275 0.03471 0.93619 0.0
O125 O 0.61287 0.03509 0.96872 0.0
O126 O 0.43108 0.07089 0.03953 0.0
O127 O 0.53941 0.05179 0.0331 0.0
O128 O 0.55837 0.98832 0.04595 0.0
C129 C 0.42084 0.07181 0.08332 0.0
O130 O 0.43349 0.04378 0.11165 0.0
O131 O 0.4526 0.97547 0.05414 0.0
C132 C 0.56639 0.91095 0.89904 0.0
O133 O 0.54622 0.93532 0.87082 0.0
O134 O 0.56081 0.91234 0.9446 0.0
O135 O 0.44979 0.92649 0.95749 0.0
O136 O 0.43225 0.98999 0.94147 0.0
O137 O 0.53117 0.00399 0.93191 0.0
C138 C 0.56543 0.0314 0.05864 0.0
C139 C 0.4226 0.94625 0.93231 0.0
Zn140 Zn 0.21815 0.25641 0.24406 0.0
Zn141 Zn 0.32051 0.23718 0.28043 0.0
C142 C 0.17742 0.28539 0.32777 0.0
O143 O 0.14512 0.24375 0.31113 0.0
C144 C 0.34953 0.20489 0.19021 0.0
O145 O 0.38576 0.24436 0.20715 0.0
O146 O 0.16216 0.26323 0.19458 0.0
O147 O 0.27555 0.28318 0.21078 0.0
O148 O 0.344 0.30355 0.27114 0.0
C149 C 0.16778 0.30597 0.19697 0.0
O150 O 0.20627 0.33667 0.22911 0.0
O151 O 0.21612 0.29754 0.30874 0.0
C152 C 0.36022 0.17796 0.31947 0.0
O153 O 0.31591 0.15432 0.29035 0.0
O154 O 0.37543 0.22165 0.32367 0.0
O155 O 0.26394 0.21651 0.31842 0.0
O156 O 0.2012 0.1903 0.25252 0.0
O157 O 0.31275 0.19516 0.21234 0.0
C158 C 0.32109 0.30783 0.22873 0.0
C159 C 0.22034 0.18873 0.29742 0.0
Zn160 Zn 0.51118 0.51167 0.9394 0.0
Zn161 Zn 0.47881 0.46854 0.04046 0.0
C162 C 0.42525 0.53986 0.90147 0.0
O163 O 0.41573 0.50254 0.86728 0.0
C164 C 0.56709 0.44349 0.07458 0.0
O165 O 0.57601 0.48039 0.1092 0.0
O166 O 0.54797 0.53088 0.88394 0.0
O167 O 0.5643 0.53269 0.00287 0.0
O168 O 0.51422 0.5368 0.05554 0.0
C169 C 0.5565 0.57291 0.87912 0.0
O170 O 0.54223 0.60073 0.90959 0.0
O171 O 0.46206 0.54897 0.93929 0.0
C172 C 0.42397 0.40419 0.08972 0.0
O173 O 0.42308 0.37945 0.04644 0.0
O174 O 0.44642 0.44753 0.0981 0.0
O175 O 0.42428 0.44625 0.97744 0.0
O176 O 0.47382 0.44375 0.92359 0.0
O177 O 0.52876 0.43289 0.03815 0.0
C178 C 0.55443 0.55374 0.04069 0.0
C179 C 0.43348 0.42663 0.93818 0.0
Zn180 Zn 0.78456 0.20862 0.2094 0.0
Zn181 Zn 0.6891 0.28126 0.23523 0.0
C182 C 0.8172 0.18487 0.30599 0.0
O183 O 0.84376 0.22886 0.31766 0.0
C184 C 0.65313 0.30853 0.14207 0.0
O185 O 0.62227 0.26598 0.13206 0.0
O186 O 0.81226 0.18288 0.1538 0.0
O187 O 0.71839 0.21689 0.19062 0.0
O188 O 0.64589 0.21432 0.20533 0.0
C189 C 0.84978 0.16906 0.16795 0.0
O190 O 0.86851 0.17401 0.21651 0.0
O191 O 0.78649 0.16947 0.26324 0.0
C192 C 0.6344 0.33497 0.28276 0.0
O193 O 0.62696 0.34667 0.23824 0.0
O194 O 0.65946 0.30715 0.29028 0.0
O195 O 0.76051 0.28179 0.2685 0.0
O196 O 0.82478 0.27424 0.23773 0.0
O197 O 0.68849 0.3212 0.18168 0.0
C198 C 0.67424 0.19275 0.19033 0.0
C199 C 0.80373 0.30029 0.25957 0.0
Zn200 Zn 0.95851 0.51759 0.50776 0.0
Zn201 Zn 0.02855 0.45696 0.47029 0.0
C202 C 0.91309 0.43826 0.547 0.0
O203 O 0.8755 0.43279 0.50871 0.0
C204 C 0.0809 0.53194 0.43224 0.0
O205 O 0.11793 0.52898 0.46655 0.0
O206 O 0.92126 0.56353 0.52761 0.0
O207 O 0.03208 0.55198 0.52237 0.0
O208 O 0.0576 0.49329 0.54166 0.0
C209 C 0.89732 0.5594 0.56309 0.0
O210 O 0.89628 0.52511 0.58735 0.0
O211 O 0.95242 0.47276 0.55461 0.0
C212 C 0.08288 0.41164 0.40994 0.0
O213 O 0.07147 0.43805 0.37876 0.0
O214 O 0.06785 0.41252 0.45136 0.0
O215 O 0.95548 0.42341 0.45242 0.0
O216 O 0.9284 0.48196 0.43625 0.0
O217 O 0.03736 0.50312 0.42537 0.0
C218 C 0.063 0.53634 0.54846 0.0
C219 C 0.92774 0.4404 0.42411 0.0
Zn220 Zn 0.70965 0.7277 0.29925 0.0
Zn221 Zn 0.8005 0.73315 0.18436 0.0
C222 C 0.6752 0.68861 0.38392 0.0
O223 O 0.67349 0.73032 0.39896 0.0
C224 C 0.8542 0.80785 0.14317 0.0
O225 O 0.88725 0.80847 0.18359 0.0
O226 O 0.67971 0.77692 0.31514 0.0
O227 O 0.78455 0.75476 0.29681 0.0
O228 O 0.84408 0.76466 0.25246 0.0
C229 C 0.69558 0.82022 0.3175 0.0
O230 O 0.74207 0.84067 0.31424 0.0
O231 O 0.69308 0.68082 0.34521 0.0
C232 C 0.80691 0.6513 0.12104 0.0
O233 O 0.77171 0.65659 0.08635 0.0
O234 O 0.82225 0.67875 0.16343 0.0
O235 O 0.73492 0.71583 0.20296 0.0
O236 O 0.66677 0.69547 0.23093 0.0
O237 O 0.81059 0.77784 0.13398 0.0
C238 C 0.83068 0.77107 0.29434 0.0
C239 C 0.68825 0.69541 0.1942 0.0
Zn240 Zn 0.76868 0.27524 0.71696 0.0
Zn241 Zn 0.71023 0.21468 0.78527 0.0
C242 C 0.7113 0.31991 0.65316 0.0
O243 O 0.74314 0.31579 0.62468 0.0
C244 C 0.79303 0.1864 0.83685 0.0
O245 O 0.79538 0.22099 0.87175 0.0
O246 O 0.82064 0.29696 0.67848 0.0
O247 O 0.79802 0.30524 0.78815 0.0
O248 O 0.73516 0.27818 0.82484 0.0
C249 C 0.86157 0.3299 0.69422 0.0
O250 O 0.87537 0.34964 0.74223 0.0
O251 O 0.7126 0.30257 0.69311 0.0
C252 C 0.61646 0.15718 0.80271 0.0
O253 O 0.59971 0.14456 0.75347 0.0
O254 O 0.65992 0.1858 0.82074 0.0
O255 O 0.67446 0.20627 0.71335 0.0
O256 O 0.74681 0.20692 0.69655 0.0
O257 O 0.76118 0.17789 0.79493 0.0
C258 C 0.77488 0.309 0.82334 0.0
C259 C 0.69931 0.1929 0.68387 0.0
Zn260 Zn 0.66826 0.74826 0.69656 0.0
Zn261 Zn 0.77182 0.72008 0.73342 0.0
C262 C 0.65926 0.7905 0.799 0.0
O263 O 0.65067 0.74901 0.80981 0.0
C264 C 0.81653 0.69445 0.65175 0.0
O265 O 0.85134 0.73384 0.67346 0.0
O266 O 0.61211 0.75457 0.64667 0.0
O267 O 0.72597 0.76415 0.66022 0.0
O268 O 0.78657 0.78742 0.72804 0.0
C269 C 0.62362 0.79662 0.64253 0.0
O270 O 0.66757 0.8255 0.66736 0.0
O271 O 0.67236 0.79768 0.7576 0.0
C272 C 0.82553 0.67095 0.77616 0.0
O273 O 0.78775 0.64066 0.74284 0.0
O274 O 0.82878 0.7134 0.78222 0.0
O275 O 0.71271 0.68527 0.76121 0.0
O276 O 0.64261 0.6854 0.71176 0.0
O277 O 0.77551 0.68327 0.66708 0.0
C278 C 0.76982 0.79012 0.68281 0.0
C279 C 0.66506 0.66976 0.74613 0.0
Zn280 Zn 0.44681 0.50055 0.45294 0.0
Zn281 Zn 0.53562 0.46956 0.51739 0.0
C282 C 0.41384 0.54681 0.52558 0.0
O283 O 0.37186 0.5199 0.4948 0.0
C284 C 0.57891 0.4308 0.4466 0.0
O285 O 0.61851 0.45743 0.48081 0.0
O286 O 0.40023 0.52286 0.40214 0.0
O287 O 0.51392 0.51373 0.4311 0.0
O288 O 0.56085 0.53611 0.50848 0.0
C289 C 0.41899 0.56576 0.40176 0.0
O290 O 0.46511 0.58738 0.4281 0.0
O291 O 0.45592 0.54469 0.51746 0.0
C292 C 0.57758 0.42551 0.59716 0.0
O293 O 0.53143 0.41119 0.60409 0.0
O294 O 0.58789 0.45381 0.56738 0.0
O295 O 0.46974 0.44667 0.53828 0.0
O296 O 0.4123 0.43647 0.46794 0.0
O297 O 0.53499 0.43011 0.4518 0.0
C298 C 0.55318 0.54067 0.46241 0.0
C299 C 0.42579 0.42632 0.51098 0.0
Zn300 Zn 0.02743 0.45435 0.01574 0.0
Zn301 Zn 0.96673 0.52637 0.96008 0.0
C302 C 0.0475 0.42178 0.91863 0.0
O303 O 0.00106 0.39369 0.90928 0.0
C304 C 0.93665 0.55968 0.05032 0.0
O305 O 0.98371 0.58638 0.06325 0.0
O306 O 0.05463 0.421 0.06586 0.0
O307 O 0.04748 0.51917 0.05001 0.0
O308 O 0.03787 0.56084 -0.00928 0.0
C309 C 0.0737 0.39009 0.05214 0.0
O310 O 0.07566 0.38015 0.0046 0.0
O311 O 0.06392 0.45195 0.95901 0.0
C312 C 0.90284 0.56448 0.90168 0.0
O313 O 0.87285 0.54679 0.93048 0.0
O314 O 0.94486 0.55711 0.90423 0.0
O315 O 0.95937 0.46268 0.93501 0.0
O316 O 0.95351 0.42453 -0.00356 0.0
O317 O 0.92238 0.52927 0.01023 0.0
C318 C 0.06338 0.55419 0.03028 0.0
C319 C 0.93228 0.43597 0.95792 0.0
C320 C 0.05545 0.10348 0.85748 0.0
C321 C 0.10348 0.13664 0.87385 0.0
H322 H 0.00128 0.04483 0.87113 0.0
C323 C 0.13375 0.13567 0.92012 0.0
H324 H 0.0311 0.10272 0.82194 0.0
C325 C 0.11594 0.10244 0.94935 0.0
C326 C 0.06769 0.06928 0.93264 0.0
H327 H 0.17091 0.16076 0.93392 0.0
H328 H 0.14004 0.10253 0.98476 0.0
C329 C 0.03812 0.07019 0.88604 0.0
C330 C 0.1151 0.83361 0.06997 0.0
C331 C 0.1147 0.87529 0.09759 0.0
H332 H 0.14658 0.77837 0.06591 0.0
C333 C 0.14765 0.89261 0.14555 0.0
H334 H 0.09091 0.81941 0.03265 0.0
C335 C 0.17954 0.8681 0.16544 0.0
C336 C 0.17996 0.82656 0.13709 0.0
H337 H 0.14837 0.92466 0.16776 0.0
H338 H 0.2046 0.88214 0.20232 0.0
C339 C 0.14734 0.80999 0.08909 0.0
C340 C 0.36687 0.88842 0.44023 0.0
C341 C 0.41173 0.91489 0.42932 0.0
H342 H 0.3003 0.82966 0.41414 0.0
C343 C 0.42644 0.89946 0.38577 0.0
H344 H 0.35467 0.89959 0.47371 0.0
C345 C 0.3966 0.85896 0.35297 0.0
C346 C 0.34985 0.83435 0.36154 0.0
H347 H 0.45986 0.91991 0.37556 0.0
H348 H 0.40911 0.84854 0.31946 0.0
C349 C 0.33585 0.84849 0.40626 0.0
C350 C 0.34916 0.12525 0.64959 0.0
C351 C 0.33142 0.14884 0.61328 0.0
H352 H 0.40401 0.09201 0.67398 0.0
C353 C 0.35473 0.15575 0.57246 0.0
H354 H 0.33182 0.11971 0.68155 0.0
C355 C 0.39666 0.14167 0.56941 0.0
C356 C 0.41532 0.11933 0.60632 0.0
H357 H 0.34229 0.17417 0.54419 0.0
H358 H 0.41464 0.14844 0.53808 0.0
C359 C 0.39051 0.10988 0.64565 0.0
C360 C 0.09178 0.84516 0.58284 0.0
C361 C 0.10503 0.89025 0.61066 0.0
H362 H 0.10159 0.77841 0.57965 0.0
C363 C 0.14368 0.90398 0.65465 0.0
H364 H 0.0624 0.8336 0.54857 0.0
C365 C 0.1664 0.87252 0.67218 0.0
C366 C 0.15061 0.82649 0.64633 0.0
H367 H 0.15509 0.93857 0.67677 0.0
H368 H 0.1944 0.88373 0.70748 0.0
C369 C 0.11424 0.81353 0.60063 0.0
C370 C 0.31919 0.84403 0.85863 0.0
C371 C 0.33561 0.83945 0.81328 0.0
H372 H 0.33465 0.88352 0.93318 0.0
C373 C 0.37253 0.87655 0.80342 0.0
H374 H 0.29138 0.81544 0.86729 0.0
C375 C 0.3966 0.91591 0.84086 0.0
C376 C 0.38444 0.91772 0.88846 0.0
H377 H 0.38578 0.87342 0.76867 0.0
H378 H 0.42847 0.94229 0.83465 0.0
C379 C 0.34384 0.88291 0.8963 0.0
C380 C 0.3653 0.09137 0.13838 0.0
C381 C 0.39579 0.1041 0.10377 0.0
H382 H 0.32506 0.11275 0.19138 0.0
C383 C 0.40529 0.14883 0.093 0.0
H384 H 0.3572 0.05706 0.14736 0.0
C385 C 0.38757 0.18109 0.11905 0.0
C386 C 0.35878 0.1688 0.15518 0.0
H387 H 0.42883 0.15967 0.06673 0.0
H388 H 0.39797 0.21619 0.11235 0.0
C389 C 0.34644 0.12313 0.16328 0.0
C390 C 0.16983 0.1502 0.40995 0.0
C391 C 0.1234 0.11667 0.38635 0.0
H392 H 0.23725 0.19855 0.40049 0.0
C393 C 0.11059 0.1049 0.33322 0.0
H394 H 0.18091 0.15991 0.4508 0.0
C395 C 0.1426 0.12746 0.30432 0.0
C396 C 0.18851 0.1618 0.32789 0.0
H397 H 0.07503 0.07929 0.31385 0.0
H398 H 0.13098 0.11854 0.26346 0.0
C399 C 0.20221 0.17223 0.38107 0.0
C400 C 0.85327 0.14291 0.07885 0.0
C401 C 0.86961 0.14443 0.1307 0.0
H402 H 0.85312 0.11356 0.00347 0.0
C403 C 0.90291 0.12007 0.14646 0.0
H404 H 0.82812 0.16169 0.06559 0.0
C405 C 0.91769 0.09297 0.1108 0.0
C406 C 0.89899 0.08977 0.05915 0.0
H407 H 0.91598 0.12044 0.18623 0.0
H408 H 0.94128 0.07263 0.12348 0.0
C409 C 0.86767 0.1156 0.04338 0.0
C410 C 0.0616 0.55987 0.35186 0.0
C411 C 0.09018 0.56755 0.40138 0.0
H412 H 0.05473 0.58389 0.28156 0.0
C413 C 0.12949 0.60886 0.4207 0.0
H414 H 0.03075 0.52817 0.33645 0.0
C415 C 0.1421 0.64111 0.39015 0.0
C416 C 0.11661 0.63187 0.33916 0.0
H417 H 0.15156 0.61569 0.459 0.0
H418 H 0.1741 0.67187 0.40576 0.0
C419 C 0.07512 0.59172 0.32064 0.0
C420 C 0.55493 0.87953 0.61716 0.0
C421 C 0.54626 0.8729 0.56421 0.0
H422 H 0.58664 0.85921 0.68373 0.0
C423 C 0.55234 0.83357 0.53699 0.0
H424 H 0.54975 0.90908 0.63905 0.0
C425 C 0.57293 0.80461 0.56289 0.0
C426 C 0.58727 0.81509 0.61575 0.0
H427 H 0.54556 0.82754 0.49608 0.0
H428 H 0.58197 0.77696 0.54173 0.0
C429 C 0.5758 0.851 0.64277 0.0
C430 C 0.347 0.3876 0.88732 0.0
C431 C 0.39536 0.38587 0.90654 0.0
H432 H 0.27781 0.3549 0.83249 0.0
C433 C 0.40853 0.34645 0.89173 0.0
H434 H 0.33673 0.41825 0.89796 0.0
C435 C 0.37435 0.3098 0.85577 0.0
C436 C 0.32699 0.31259 0.83437 0.0
H437 H 0.44578 0.34473 0.90671 0.0
H438 H 0.38569 0.28032 0.84291 0.0
C439 C 0.31316 0.35127 0.85072 0.0
C440 C 0.91529 0.82862 0.32959 0.0
C441 C 0.86715 0.80551 0.33659 0.0
H442 H 0.97963 0.88935 0.35272 0.0
C443 C 0.85182 0.82146 0.37983 0.0
H444 H 0.92875 0.81684 0.29723 0.0
C445 C 0.88178 0.86278 0.41218 0.0
C446 C 0.9269 0.88828 0.40123 0.0
H447 H 0.81518 0.80411 0.38652 0.0
H448 H 0.86778 0.87661 0.44309 0.0
C449 C 0.94454 0.87011 0.36123 0.0
C450 C 0.40318 0.55993 0.61313 0.0
C451 C 0.41072 0.57747 0.5694 0.0
H452 H 0.3803 0.56909 0.68316 0.0
C453 C 0.40556 0.62081 0.56448 0.0
H454 H 0.40636 0.52619 0.61702 0.0
C455 C 0.39065 0.64553 0.60226 0.0
C456 C 0.37987 0.62653 0.6447 0.0
H457 H 0.4104 0.6343 0.53029 0.0
H458 H 0.38459 0.67795 0.59679 0.0
C459 C 0.38787 0.58429 0.65056 0.0
C460 C 0.54997 0.05491 0.85256 0.0
C461 C 0.57579 0.0685 0.90349 0.0
H462 H 0.54242 0.07337 0.7794 0.0
C463 C 0.60597 0.11409 0.92243 0.0
H464 H 0.52572 0.01973 0.83774 0.0
C465 C 0.61386 0.14506 0.88976 0.0
C466 C 0.59326 0.13011 0.83749 0.0
H467 H 0.62481 0.12529 0.96204 0.0
H468 H 0.63951 0.17965 0.90489 0.0
C469 C 0.559 0.0856 0.81941 0.0
C470 C 0.0972 0.37971 0.14103 0.0
C471 C 0.09379 0.36571 0.08922 0.0
H472 H 0.12344 0.37074 0.21626 0.0
C473 C 0.11078 0.32878 0.07313 0.0
H474 H 0.08437 0.40804 0.15449 0.0
C475 C 0.13181 0.30682 0.1084 0.0
C476 C 0.13687 0.32216 0.16004 0.0
H477 H 0.10877 0.31739 0.03343 0.0
H478 H 0.14657 0.27963 0.09553 0.0
C479 C 0.11914 0.35832 0.17627 0.0
C480 C 0.56011 0.61752 0.80974 0.0
C481 C 0.58136 0.59123 0.83972 0.0
H482 H 0.56913 0.6615 0.75526 0.0
C483 C 0.62864 0.58732 0.8355 0.0
H484 H 0.52378 0.62119 0.81268 0.0
C485 C 0.65551 0.61161 0.80366 0.0
C486 C 0.63475 0.63899 0.77456 0.0
H487 H 0.64592 0.56762 0.85882 0.0
H488 H 0.69298 0.60994 0.80276 0.0
C489 C 0.58608 0.64046 0.77681 0.0
C490 C 0.66154 0.39111 0.1372 0.0
C491 C 0.63828 0.3439 0.11654 0.0
H492 H 0.65724 0.4597 0.13995 0.0
C493 C 0.59572 0.3308 0.07625 0.0
H494 H 0.69447 0.40252 0.16812 0.0
C495 C 0.57453 0.36374 0.05985 0.0
C496 C 0.59527 0.4104 0.08369 0.0
H497 H 0.57699 0.29475 0.05929 0.0
H498 H 0.54006 0.35215 0.03078 0.0
C499 C 0.64007 0.42395 0.12117 0.0
C500 C 0.91885 0.38435 0.34774 0.0
C501 C 0.89742 0.41177 0.37584 0.0
H502 H 0.90632 0.32861 0.28729 0.0
C503 C 0.84649 0.40793 0.35989 0.0
H504 H 0.95842 0.38751 0.35911 0.0
C505 C 0.8161 0.37345 0.31904 0.0
C506 C 0.83679 0.3433 0.29351 0.0
H507 H 0.82956 0.42922 0.38104 0.0
H508 H 0.77605 0.3687 0.30926 0.0
C509 C 0.88898 0.35082 0.30645 0.0
C510 C 0.60013 0.56885 0.3974 0.0
C511 C 0.58868 0.57758 0.44492 0.0
H512 H 0.63786 0.59676 0.34156 0.0
C513 C 0.60895 0.6224 0.47396 0.0
H514 H 0.58506 0.5345 0.37437 0.0
C515 C 0.63831 0.65834 0.45476 0.0
C516 C 0.64912 0.64984 0.40676 0.0
H517 H 0.6003 0.63006 0.51055 0.0
H518 H 0.65179 0.69295 0.47713 0.0
C519 C 0.63061 0.60446 0.3788 0.0
C520 C 0.81867 0.39113 0.85434 0.0
C521 C 0.79842 0.34738 0.86532 0.0
H522 H 0.87743 0.45534 0.87742 0.0
C523 C 0.81244 0.33869 0.9139 0.0
H524 H 0.80713 0.39846 0.81716 0.0
C525 C 0.85364 0.37073 0.94807 0.0
C526 C 0.87982 0.4112 0.93324 0.0
H527 H 0.79615 0.30516 0.92303 0.0
H528 H 0.86815 0.36147 0.98324 0.0
C529 C 0.85902 0.42335 0.88863 0.0
C530 C 0.9177 0.874 0.12314 0.0
C531 C 0.86989 0.8403 0.10857 0.0
H532 H 0.9731 0.92779 0.10303 0.0
C533 C 0.83972 0.83732 0.06069 0.0
H534 H 0.94184 0.87801 0.15987 0.0
C535 C 0.85779 0.86681 0.0279 0.0
C536 C 0.90657 0.89907 0.0422 0.0
H537 H 0.80271 0.81177 0.04826 0.0
H538 H 0.8343 0.86354 -0.00899 0.0
C539 C 0.93584 0.9026 0.0904 0.0
C540 C 0.87208 0.1768 0.88346 0.0
C541 C 0.82587 0.15716 0.84836 0.0
H542 H 0.93652 0.16654 0.92713 0.0
C543 C 0.81037 0.1094 0.82855 0.0
H544 H 0.88526 0.21337 0.89946 0.0
C545 C 0.83968 0.08177 0.84539 0.0
C546 C 0.88555 0.10162 0.88147 0.0
H547 H 0.77468 0.09313 0.80172 0.0
H548 H 0.82607 0.04493 0.8309 0.0
C549 C 0.90162 0.14968 0.89929 0.0
C550 C 0.69267 0.12168 0.62617 0.0
C551 C 0.67324 0.15755 0.63913 0.0
H552 H 0.67807 0.05545 0.58039 0.0
C553 C 0.62727 0.15795 0.61078 0.0
H554 H 0.72829 0.12105 0.64763 0.0
C555 C 0.59943 0.12113 0.57171 0.0
C556 C 0.6166 0.08337 0.56192 0.0
H557 H 0.61257 0.1862 0.61947 0.0
H558 H 0.56417 0.12142 0.54966 0.0
C559 C 0.66423 0.08449 0.58777 0.0
C560 C 0.57322 0.84319 0.32046 0.0
C561 C 0.58978 0.88829 0.34828 0.0
H562 H 0.59418 0.78658 0.28849 0.0
C563 C 0.64139 0.91382 0.3589 0.0
H564 H 0.53363 0.823 0.31139 0.0
C565 C 0.67641 0.89275 0.34624 0.0
C566 C 0.65995 0.84611 0.32285 0.0
H567 H 0.65513 0.9487 0.3806 0.0
H568 H 0.71627 0.91188 0.35779 0.0
C569 C 0.60798 0.8223 0.30783 0.0
C570 C 0.87395 0.16803 0.3768 0.0
C571 C 0.83196 0.15209 0.33584 0.0
H572 H 0.9289 0.15051 0.42771 0.0
C573 C 0.80881 0.10423 0.31948 0.0
H574 H 0.89249 0.20467 0.39063 0.0
C575 C 0.82971 0.07313 0.34083 0.0
C576 C 0.87423 0.08926 0.37886 0.0
H577 H 0.77615 0.09077 0.28829 0.0
H578 H 0.81244 0.03658 0.32555 0.0
C579 C 0.89494 0.13694 0.39802 0.0
C580 C 0.67784 0.12389 0.13431 0.0
C581 C 0.65531 0.14283 0.16988 0.0
H582 H 0.66604 0.07095 0.07016 0.0
C583 C 0.60896 0.11614 0.17745 0.0
H584 H 0.71358 0.14372 0.12776 0.0
C585 C 0.58218 0.07427 0.14486 0.0
C586 C 0.6015 0.05893 0.10452 0.0
H587 H 0.59118 0.12964 0.20517 0.0
H588 H 0.54397 0.05676 0.14752 0.0
C589 C 0.65081 0.08211 0.10144 0.0
C590 C 0.62915 0.81827 0.87512 0.0
C591 C 0.64279 0.82528 0.82883 0.0
H592 H 0.5947 0.83984 0.93397 0.0
C593 C 0.6346 0.86284 0.80837 0.0
H594 H 0.63498 0.78973 0.89205 0.0
C595 C 0.61079 0.89093 0.83192 0.0
C596 C 0.59517 0.88279 0.87703 0.0
H597 H 0.64452 0.8694 0.77288 0.0
H598 H 0.60378 0.91864 0.81408 0.0
C599 C 0.60591 0.8469 0.89914 0.0
C600 C 0.87728 0.8775 0.64789 0.0
C601 C 0.87269 0.85835 0.59703 0.0
H602 H 0.84881 0.87033 0.71536 0.0
C603 C 0.83331 0.81743 0.57449 0.0
H604 H 0.90748 0.90887 0.66636 0.0
C605 C 0.7992 0.79612 0.60211 0.0
C606 C 0.80456 0.81451 0.65332 0.0
H607 H 0.82885 0.8018 0.53543 0.0
H608 H 0.76945 0.76441 0.58372 0.0
C609 C 0.84393 0.8554 0.67599 0.0
C610 C 0.11488 0.83744 0.85466 0.0
C611 C 0.16587 0.84028 0.86717 0.0
H612 H 0.0565 0.86254 0.87535 0.0
C613 C 0.19688 0.8682 0.91225 0.0
H614 H 0.0908 0.81665 0.81928 0.0
C615 C 0.17765 0.89436 0.94399 0.0
C616 C 0.12723 0.89349 0.93069 0.0
H617 H 0.23642 0.87094 0.92207 0.0
H618 H 0.20274 0.91616 0.97836 0.0
C619 C 0.09553 0.86392 0.88638 0.0
C620 C 0.93368 0.4232 0.63432 0.0
C621 C 0.90757 0.40735 0.58357 0.0
H622 H 0.93975 0.4105 0.71002 0.0
C623 C 0.87327 0.36272 0.56866 0.0
H624 H 0.96076 0.45751 0.64652 0.0
C625 C 0.86224 0.33551 0.60457 0.0
C626 C 0.8843 0.35306 0.65621 0.0
H627 H 0.85353 0.34948 0.52952 0.0
H628 H 0.83374 0.30195 0.59207 0.0
C629 C 0.92186 0.39627 0.67059 0.0
C630 C 0.44231 0.15255 0.42889 0.0
C631 C 0.42124 0.10438 0.42059 0.0
H632 H 0.4389 0.21465 0.40264 0.0
C633 C 0.38642 0.08073 0.37572 0.0
H634 H 0.46938 0.17111 0.4636 0.0
C635 C 0.36991 0.1051 0.34084 0.0
C636 C 0.38711 0.1536 0.35094 0.0
H637 H 0.37049 0.04343 0.36854 0.0
H638 H 0.34147 0.08588 0.30728 0.0
C639 C 0.42498 0.17726 0.39418 0.0
C640 C 0.64129 0.59272 0.09043 0.0
C641 C 0.59271 0.59441 0.07202 0.0
H642 H 0.71011 0.62433 0.14604 0.0
C643 C 0.5794 0.6335 0.08773 0.0
H644 H 0.65173 0.56237 0.07882 0.0
C645 C 0.6133 0.66939 0.12459 0.0
C646 C 0.66039 0.66606 0.14602 0.0
H647 H 0.54208 0.63526 0.07322 0.0
H648 H 0.60158 0.69825 0.13874 0.0
C649 C 0.67486 0.62829 0.12801 0.0
C650 C 0.06991 0.15901 0.63526 0.0
C651 C 0.12271 0.17287 0.64288 0.0
H652 H 0.00034 0.1065 0.59861 0.0
C653 C 0.14533 0.1492 0.61166 0.0
H654 H 0.0516 0.1771 0.65855 0.0
C655 C 0.116 0.10882 0.57771 0.0
C656 C 0.0639 0.0926 0.57413 0.0
H657 H 0.18588 0.15918 0.61694 0.0
H658 H 0.13437 0.08847 0.55725 0.0
C659 C 0.04062 0.11887 0.60107 0.0
C660 C 0.62889 0.34864 0.3737 0.0
C661 C 0.6158 0.35595 0.32414 0.0
H662 H 0.62697 0.36701 0.45157 0.0
C663 C 0.58641 0.38521 0.31474 0.0
H664 H 0.65131 0.32625 0.3822 0.0
C665 C 0.57164 0.40768 0.35432 0.0
C666 C 0.58666 0.40172 0.40389 0.0
H667 H 0.57574 0.39164 0.27698 0.0
H668 H 0.55061 0.43134 0.34658 0.0
C669 C 0.61487 0.37176 0.41332 0.0
C670 C 0.43295 0.92061 0.12725 0.0
C671 C 0.39968 0.91369 0.08041 0.0
H672 H 0.44636 0.89707 0.19709 0.0
C673 C 0.35771 0.87394 0.0646 0.0
H674 H 0.46584 0.95108 0.13991 0.0
C675 C 0.34761 0.84246 0.09659 0.0
C676 C 0.37871 0.85131 0.14508 0.0
H677 H 0.33214 0.86781 0.02821 0.0
H678 H 0.31364 0.81301 0.0847 0.0
C679 C 0.42213 0.8898 0.15974 0.0
C680 C 0.86692 0.62779 0.89112 0.0
C681 C 0.89021 0.59703 0.87152 0.0
H682 H 0.8301 0.67797 0.87589 0.0
C683 C 0.8996 0.5968 0.82286 0.0
H684 H 0.86002 0.62874 0.92896 0.0
C685 C 0.88191 0.62442 0.79249 0.0
C686 C 0.85657 0.65352 0.8114 0.0
H687 H 0.91769 0.57333 0.80735 0.0
H688 H 0.88562 0.62134 0.75348 0.0
C689 C 0.8507 0.6564 0.86133 0.0
C690 C 0.36043 0.33819 0.10934 0.0
C691 C 0.39823 0.38107 0.12664 0.0
H692 H 0.30667 0.28212 0.12795 0.0
C693 C 0.41146 0.39999 0.17873 0.0
H694 H 0.3494 0.32251 0.06957 0.0
C695 C 0.38741 0.37604 0.21276 0.0
C696 C 0.34893 0.33355 0.19486 0.0
H697 H 0.44079 0.43283 0.19318 0.0
H698 H 0.39818 0.39102 0.25272 0.0
C699 C 0.33578 0.31505 0.14285 0.0
C700 C 0.42401 0.62187 0.91358 0.0
C701 C 0.40095 0.57531 0.88993 0.0
H702 H 0.42771 0.69226 0.91218 0.0
C703 C 0.35815 0.56392 0.85024 0.0
H704 H 0.45703 0.63189 0.94429 0.0
C705 C 0.34101 0.59849 0.83217 0.0
C706 C 0.36674 0.64533 0.85292 0.0
H707 H 0.33927 0.52838 0.83143 0.0
H708 H 0.30953 0.58854 0.79983 0.0
C709 C 0.40725 0.65653 0.89507 0.0
C710 C 0.12973 0.61199 0.57329 0.0
C711 C 0.10632 0.56912 0.58505 0.0
H712 H 0.18202 0.67985 0.60087 0.0
C713 C 0.1212 0.5601 0.6334 0.0
H714 H 0.11865 0.61952 0.53617 0.0
C715 C 0.15633 0.59512 0.67086 0.0
C716 C 0.1779 0.63856 0.65944 0.0
H717 H 0.10331 0.5272 0.64308 0.0
H718 H 0.16525 0.58892 0.709 0.0
C719 C 0.1659 0.6463 0.61008 0.0
C720 C 0.32557 0.35613 0.57094 0.0
C721 C 0.3483 0.32358 0.58673 0.0
H722 H 0.33222 0.41468 0.53356 0.0
C723 C 0.3921 0.3215 0.57047 0.0
H724 H 0.29183 0.35862 0.58284 0.0
C725 C 0.4145 0.35284 0.54212 0.0
C726 C 0.39389 0.38725 0.52906 0.0
H727 H 0.4103 0.29652 0.58115 0.0
H728 H 0.44952 0.35151 0.53227 0.0
C729 C 0.34838 0.38795 0.54242 0.0
C730 C 0.18154 0.61551 0.12589 0.0
C731 C 0.17526 0.65884 0.13721 0.0
H732 H 0.14927 0.54734 0.08188 0.0
C733 C 0.13622 0.6699 0.10794 0.0
H734 H 0.21187 0.60686 0.14825 0.0
C735 C 0.10179 0.63666 0.06889 0.0
C736 C 0.10543 0.59197 0.06077 0.0
H737 H 0.13164 0.70366 0.11618 0.0
H738 H 0.07051 0.64488 0.04773 0.0
C739 C 0.14618 0.58184 0.08815 0.0
C740 C 0.68483 0.37482 0.60303 0.0
C741 C 0.67746 0.34774 0.64049 0.0
H742 H 0.66023 0.42135 0.56108 0.0
C743 C 0.63859 0.34861 0.66589 0.0
H744 H 0.71462 0.37532 0.58291 0.0
C745 C 0.60696 0.37503 0.65302 0.0
C746 C 0.61415 0.4017 0.61514 0.0
H747 H 0.6321 0.32835 0.69512 0.0
H748 H 0.57653 0.37414 0.67232 0.0
C749 C 0.65389 0.4017 0.59082 0.0
C750 C 0.88328 0.62642 0.13803 0.0
C751 C 0.83516 0.61956 0.1083 0.0
H752 H 0.95326 0.61235 0.14285 0.0
C753 C 0.81727 0.58574 0.06397 0.0
H754 H 0.89796 0.65178 0.17281 0.0
C755 C 0.84881 0.56221 0.04742 0.0
C756 C 0.89899 0.57317 0.07434 0.0
H757 H 0.77994 0.57909 0.04087 0.0
H758 H 0.83499 0.53807 0.01177 0.0
C759 C 0.91504 0.60376 0.12097 0.0
C760 C 0.83307 0.58012 0.60484 0.0
C761 C 0.8721 0.59322 0.57899 0.0
H762 H 0.78349 0.60135 0.64615 0.0
C763 C 0.8886 0.63921 0.5721 0.0
H764 H 0.81935 0.54492 0.61062 0.0
C765 C 0.8686 0.67198 0.59353 0.0
C766 C 0.83082 0.65903 0.62096 0.0
H767 H 0.91866 0.65035 0.55244 0.0
H768 H 0.88378 0.70771 0.59003 0.0
C769 C 0.8122 0.61246 0.62494 0.0
C770 C 0.3418 0.57303 0.34439 0.0
C771 C 0.38834 0.59336 0.37936 0.0
H772 H 0.27644 0.58413 0.30108 0.0
C773 C 0.40533 0.6416 0.39557 0.0
H774 H 0.32765 0.53601 0.33114 0.0
C775 C 0.37593 0.6686 0.3793 0.0
C776 C 0.32917 0.64852 0.34528 0.0
H777 H 0.4408 0.65866 0.42253 0.0
H778 H 0.38954 0.70542 0.39409 0.0
C779 C 0.3127 0.60054 0.32696 0.0
C780 C 0.16636 0.39657 0.9032 0.0
C781 C 0.14702 0.35931 0.86225 0.0
H782 H 0.15 0.44746 0.9523 0.0
C783 C 0.09804 0.35045 0.83331 0.0
H784 H 0.20439 0.40489 0.9254 0.0
C785 C 0.06676 0.37442 0.84886 0.0
C786 C 0.08416 0.40807 0.89318 0.0
H787 H 0.08235 0.32258 0.80079 0.0
H788 H 0.02785 0.36416 0.82833 0.0
C789 C 0.13524 0.42116 0.91828 0.0
C790 C 0.12914 0.30765 0.39023 0.0
C791 C 0.16126 0.32042 0.35702 0.0
H792 H 0.07995 0.327 0.43433 0.0
C793 C 0.17092 0.36492 0.34562 0.0
H794 H 0.12079 0.27342 0.39942 0.0
C795 C 0.14638 0.3948 0.36415 0.0
C796 C 0.11276 0.38148 0.39577 0.0
H797 H 0.19496 0.37569 0.31977 0.0
H798 H 0.15282 0.42805 0.35265 0.0
C799 C 0.10569 0.33821 0.4101 0.0
loop_
_geom_bond_atom_site_label_1
_geom_bond_atom_site_label_2
_geom_bond_distance
_geom_bond_site_symmetry_2
_ccdc_geom_bond_type
Zn0 O6 1.969 . S
Zn0 O7 1.965 1_655 S
Zn0 O11 2.024 1_556 S
Zn0 O16 1.969 1_546 S
Zn1 O8 1.969 1_564 S
Zn1 O14 1.969 . S
Zn1 O15 1.965 1_455 S
Zn1 O17 2.024 1_554 S
C2 O3 1.229 . S
C2 O11 1.058 . S
O3 C2 1.229 . S
C4 O5 1.229 . S
C4 O17 1.058 . S
O5 C4 1.229 . S
O6 Zn0 1.969 . S
O6 C9 1.267 . S
O7 Zn0 1.965 1_455 S
O7 C18 1.260 . S
O8 Zn1 1.969 1_546 S
O8 C18 1.258 . S
C9 O6 1.267 . S
C9 O10 1.228 . S
O10 C9 1.228 . S
O11 Zn0 2.024 1_554 S
O11 C2 1.058 . S
C12 O13 1.228 . S
C12 O14 1.267 . S
O13 C12 1.228 . S
O14 Zn1 1.969 . S
O14 C12 1.267 . S
O15 Zn1 1.965 1_655 S
O15 C19 1.260 . S
O16 Zn0 1.969 1_564 S
O16 C19 1.258 . S
O17 Zn1 2.024 1_556 S
O17 C4 1.058 . S
C18 O7 1.260 . S
C18 O8 1.258 . S
C19 O15 1.260 . S
C19 O16 1.258 . S
Zn20 O26 1.969 . S
Zn20 O27 1.965 . S
Zn20 O31 2.024 . S
Zn20 O36 1.969 . S
Zn21 O28 1.969 . S
Zn21 O34 1.969 . S
Zn21 O35 1.965 . S
Zn21 O37 2.024 . S
C22 O23 1.229 . S
C22 O31 1.058 . S
O23 C22 1.229 . S
C24 O25 1.229 . S
C24 O37 1.058 . S
O25 C24 1.229 . S
O26 Zn20 1.969 . S
O26 C29 1.267 . S
O27 Zn20 1.965 . S
O27 C38 1.260 . S
O28 Zn21 1.969 . S
O28 C38 1.258 . S
C29 O26 1.267 . S
C29 O30 1.228 . S
O30 C29 1.228 . S
O31 Zn20 2.024 . S
O31 C22 1.058 . S
C32 O33 1.228 . S
C32 O34 1.267 . S
O33 C32 1.228 . S
O34 Zn21 1.969 . S
O34 C32 1.267 . S
O35 Zn21 1.965 . S
O35 C39 1.260 . S
O36 Zn20 1.969 . S
O36 C39 1.258 . S
O37 Zn21 2.024 . S
O37 C24 1.058 . S
C38 O27 1.260 . S
C38 O28 1.258 . S
C39 O35 1.260 . S
C39 O36 1.258 . S
Zn40 O46 1.969 . S
Zn40 O47 1.965 . S
Zn40 O51 2.024 . S
Zn40 O56 1.969 1_565 S
Zn41 O48 1.969 1_545 S
Zn41 O54 1.969 . S
Zn41 O55 1.965 . S
Zn41 O57 2.024 . S
C42 O43 1.229 . S
C42 O51 1.058 . S
O43 C42 1.229 . S
C44 O45 1.229 . S
C44 O57 1.058 . S
O45 C44 1.229 . S
O46 Zn40 1.969 . S
O46 C49 1.267 . S
O47 Zn40 1.965 . S
O47 C58 1.260 . S
O48 Zn41 1.969 1_565 S
O48 C58 1.258 . S
C49 O46 1.267 . S
C49 O50 1.228 . S
O50 C49 1.228 . S
O51 Zn40 2.024 . S
O51 C42 1.058 . S
C52 O53 1.228 . S
C52 O54 1.267 . S
O53 C52 1.228 . S
O54 Zn41 1.969 . S
O54 C52 1.267 . S
O55 Zn41 1.965 . S
O55 C59 1.260 . S
O56 Zn40 1.969 1_545 S
O56 C59 1.258 . S
O57 Zn41 2.024 . S
O57 C44 1.058 . S
C58 O47 1.260 . S
C58 O48 1.258 . S
C59 O55 1.260 . S
C59 O56 1.258 . S
Zn60 O66 1.969 . S
Zn60 O67 1.965 . S
Zn60 O71 2.024 . S
Zn60 O76 1.969 . S
Zn61 O68 1.969 . S
Zn61 O74 1.969 . S
Zn61 O75 1.965 . S
Zn61 O77 2.024 . S
C62 O63 1.229 . S
C62 O71 1.058 . S
O63 C62 1.229 . S
C64 O65 1.229 . S
C64 O77 1.058 . S
O65 C64 1.229 . S
O66 Zn60 1.969 . S
O66 C69 1.267 . S
O67 Zn60 1.965 . S
O67 C78 1.260 . S
O68 Zn61 1.969 . S
O68 C78 1.258 . S
C69 O66 1.267 . S
C69 O70 1.228 . S
O70 C69 1.228 . S
O71 Zn60 2.024 . S
O71 C62 1.058 . S
C72 O73 1.228 . S
C72 O74 1.267 . S
O73 C72 1.228 . S
O74 Zn61 1.969 . S
O74 C72 1.267 . S
O75 Zn61 1.965 . S
O75 C79 1.260 . S
O76 Zn60 1.969 . S
O76 C79 1.258 . S
O77 Zn61 2.024 . S
O77 C64 1.058 . S
C78 O67 1.260 . S
C78 O68 1.258 . S
C79 O75 1.260 . S
C79 O76 1.258 . S
Zn80 O86 1.969 . S
Zn80 O87 1.965 . S
Zn80 O91 2.024 1_455 S
Zn80 O96 1.969 1_445 S
Zn81 O88 1.969 1_665 S
Zn81 O94 1.969 . S
Zn81 O95 1.965 . S
Zn81 O97 2.024 1_655 S
C82 O83 1.229 . S
C82 O91 1.058 . S
O83 C82 1.229 . S
C84 O85 1.229 . S
C84 O97 1.058 . S
O85 C84 1.229 . S
O86 Zn80 1.969 . S
O86 C89 1.267 . S
O87 Zn80 1.965 . S
O87 C98 1.260 . S
O88 Zn81 1.969 1_445 S
O88 C98 1.258 . S
C89 O86 1.267 . S
C89 O90 1.228 . S
O90 C89 1.228 . S
O91 Zn80 2.024 1_655 S
O91 C82 1.058 . S
C92 O93 1.228 . S
C92 O94 1.267 . S
O93 C92 1.228 . S
O94 Zn81 1.969 . S
O94 C92 1.267 . S
O95 Zn81 1.965 . S
O95 C99 1.260 . S
O96 Zn80 1.969 1_665 S
O96 C99 1.258 . S
O97 Zn81 2.024 1_455 S
O97 C84 1.058 . S
C98 O87 1.260 . S
C98 O88 1.258 . S
C99 O95 1.260 . S
C99 O96 1.258 . S
Zn100 O106 1.969 . S
Zn100 O107 1.965 . S
Zn100 O111 2.024 . S
Zn100 O116 1.969 . S
Zn101 O108 1.969 . S
Zn101 O114 1.969 . S
Zn101 O115 1.965 . S
Zn101 O117 2.024 . S
C102 O103 1.229 . S
C102 O111 1.058 . S
O103 C102 1.229 . S
C104 O105 1.229 . S
C104 O117 1.058 . S
O105 C104 1.229 . S
O106 Zn100 1.969 . S
O106 C109 1.267 . S
O107 Zn100 1.965 . S
O107 C118 1.260 . S
O108 Zn101 1.969 . S
O108 C118 1.258 . S
C109 O106 1.267 . S
C109 O110 1.228 . S
O110 C109 1.228 . S
O111 Zn100 2.024 . S
O111 C102 1.058 . S
C112 O113 1.228 . S
C112 O114 1.267 . S
O113 C112 1.228 . S
O114 Zn101 1.969 . S
O114 C112 1.267 . S
O115 Zn101 1.965 . S
O115 C119 1.260 . S
O116 Zn100 1.969 . S
O116 C119 1.258 . S
O117 Zn101 2.024 . S
O117 C104 1.058 . S
C118 O107 1.260 . S
C118 O108 1.258 . S
C119 O115 1.260 . S
C119 O116 1.258 . S
Zn120 O126 1.985 . S
Zn120 O127 1.972 . S
Zn120 O131 2.008 1_545 S
Zn120 O136 1.962 1_544 S
Zn121 O128 1.964 1_566 S
Zn121 O134 1.980 . S
Zn121 O135 1.970 . S
Zn121 O137 2.013 1_565 S
C122 O123 1.229 . S
C122 O131 1.058 . S
O123 C122 1.229 . S
C124 O125 1.229 . S
C124 O137 1.058 . S
O125 C124 1.229 . S
O126 Zn120 1.985 . S
O126 C129 1.267 . S
O127 Zn120 1.972 . S
O127 C138 1.260 . S
O128 Zn121 1.964 1_544 S
O128 C138 1.258 . S
C129 O126 1.267 . S
C129 O130 1.228 . S
O130 C129 1.228 . S
O131 Zn120 2.008 1_565 S
O131 C122 1.058 . S
C132 O133 1.228 . S
C132 O134 1.267 . S
O133 C132 1.228 . S
O134 Zn121 1.980 . S
O134 C132 1.267 . S
O135 Zn121 1.970 . S
O135 C139 1.260 . S
O136 Zn120 1.962 1_566 S
O136 C139 1.258 . S
O137 Zn121 2.013 1_545 S
O137 C124 1.058 . S
C138 O127 1.260 . S
C138 O128 1.258 . S
C139 O135 1.260 . S
C139 O136 1.258 . S
Zn140 O146 1.969 . S
Zn140 O147 1.965 . S
Zn140 O151 2.024 . S
Zn140 O156 1.969 . S
Zn141 O148 1.969 . S
Zn141 O154 1.969 . S
Zn141 O155 1.965 . S
Zn141 O157 2.024 . S
C142 O143 1.229 . S
C142 O151 1.058 . S
O143 C142 1.229 . S
C144 O145 1.229 . S
C144 O157 1.058 . S
O145 C144 1.229 . S
O146 Zn140 1.969 . S
O146 C149 1.267 . S
O147 Zn140 1.965 . S
O147 C158 1.260 . S
O148 Zn141 1.969 . S
O148 C158 1.258 . S
C149 O146 1.267 . S
C149 O150 1.228 . S
O150 C149 1.228 . S
O151 Zn140 2.024 . S
O151 C142 1.058 . S
C152 O153 1.228 . S
C152 O154 1.267 . S
O153 C152 1.228 . S
O154 Zn141 1.969 . S
O154 C152 1.267 . S
O155 Zn141 1.965 . S
O155 C159 1.260 . S
O156 Zn140 1.969 . S
O156 C159 1.258 . S
O157 Zn141 2.024 . S
O157 C144 1.058 . S
C158 O147 1.260 . S
C158 O148 1.258 . S
C159 O155 1.260 . S
C159 O156 1.258 . S
Zn160 O166 1.969 . S
Zn160 O167 1.965 1_556 S
Zn160 O171 2.024 . S
Zn160 O176 1.969 . S
Zn161 O168 1.969 . S
Zn161 O174 1.969 . S
Zn161 O175 1.965 1_554 S
Zn161 O177 2.024 . S
C162 O163 1.229 . S
C162 O171 1.058 . S
O163 C162 1.229 . S
C164 O165 1.229 . S
C164 O177 1.058 . S
O165 C164 1.229 . S
O166 Zn160 1.969 . S
O166 C169 1.267 . S
O167 Zn160 1.965 1_554 S
O167 C178 1.260 . S
O168 Zn161 1.969 . S
O168 C178 1.258 . S
C169 O166 1.267 . S
C169 O170 1.228 . S
O170 C169 1.228 . S
O171 Zn160 2.024 . S
O171 C162 1.058 . S
C172 O173 1.228 . S
C172 O174 1.267 . S
O173 C172 1.228 . S
O174 Zn161 1.969 . S
O174 C172 1.267 . S
O175 Zn161 1.965 1_556 S
O175 C179 1.260 . S
O176 Zn160 1.969 . S
O176 C179 1.258 . S
O177 Zn161 2.024 . S
O177 C164 1.058 . S
C178 O167 1.260 . S
C178 O168 1.258 . S
C179 O175 1.260 . S
C179 O176 1.258 . S
Zn180 O186 1.969 . S
Zn180 O187 1.965 . S
Zn180 O191 2.024 . S
Zn180 O196 1.969 . S
Zn181 O188 1.969 . S
Zn181 O194 1.969 . S
Zn181 O195 1.965 . S
Zn181 O197 2.024 . S
C182 O183 1.229 . S
C182 O191 1.058 . S
O183 C182 1.229 . S
C184 O185 1.229 . S
C184 O197 1.058 . S
O185 C184 1.229 . S
O186 Zn180 1.969 . S
O186 C189 1.267 . S
O187 Zn180 1.965 . S
O187 C198 1.260 . S
O188 Zn181 1.969 . S
O188 C198 1.258 . S
C189 O186 1.267 . S
C189 O190 1.228 . S
O190 C189 1.228 . S
O191 Zn180 2.024 . S
O191 C182 1.058 . S
C192 O193 1.228 . S
C192 O194 1.267 . S
O193 C192 1.228 . S
O194 Zn181 1.969 . S
O194 C192 1.267 . S
O195 Zn181 1.965 . S
O195 C199 1.260 . S
O196 Zn180 1.969 . S
O196 C199 1.258 . S
O197 Zn181 2.024 . S
O197 C184 1.058 . S
C198 O187 1.260 . S
C198 O188 1.258 . S
C199 O195 1.260 . S
C199 O196 1.258 . S
Zn200 O206 1.969 . S
Zn200 O207 1.965 1_655 S
Zn200 O211 2.024 . S
Zn200 O216 1.969 . S
Zn201 O208 1.969 . S
Zn201 O214 1.969 . S
Zn201 O215 1.965 1_455 S
Zn201 O217 2.024 . S
C202 O203 1.229 . S
C202 O211 1.058 . S
O203 C202 1.229 . S
C204 O205 1.229 . S
C204 O217 1.058 . S
O205 C204 1.229 . S
O206 Zn200 1.969 . S
O206 C209 1.267 . S
O207 Zn200 1.965 1_455 S
O207 C218 1.260 . S
O208 Zn201 1.969 . S
O208 C218 1.258 . S
C209 O206 1.267 . S
C209 O210 1.228 . S
O210 C209 1.228 . S
O211 Zn200 2.024 . S
O211 C202 1.058 . S
C212 O213 1.228 . S
C212 O214 1.267 . S
O213 C212 1.228 . S
O214 Zn201 1.969 . S
O214 C212 1.267 . S
O215 Zn201 1.965 1_655 S
O215 C219 1.260 . S
O216 Zn200 1.969 . S
O216 C219 1.258 . S
O217 Zn201 2.024 . S
O217 C204 1.058 . S
C218 O207 1.260 . S
C218 O208 1.258 . S
C219 O215 1.260 . S
C219 O216 1.258 . S
Zn220 O226 1.969 . S
Zn220 O227 1.965 . S
Zn220 O231 2.024 . S
Zn220 O236 1.969 . S
Zn221 O228 1.969 . S
Zn221 O234 1.969 . S
Zn221 O235 1.965 . S
Zn221 O237 2.024 . S
C222 O223 1.229 . S
C222 O231 1.058 . S
O223 C222 1.229 . S
C224 O225 1.229 . S
C224 O237 1.058 . S
O225 C224 1.229 . S
O226 Zn220 1.969 . S
O226 C229 1.267 . S
O227 Zn220 1.965 . S
O227 C238 1.260 . S
O228 Zn221 1.969 . S
O228 C238 1.258 . S
C229 O226 1.267 . S
C229 O230 1.228 . S
O230 C229 1.228 . S
O231 Zn220 2.024 . S
O231 C222 1.058 . S
C232 O233 1.228 . S
C232 O234 1.267 . S
O233 C232 1.228 . S
O234 Zn221 1.969 . S
O234 C232 1.267 . S
O235 Zn221 1.965 . S
O235 C239 1.260 . S
O236 Zn220 1.969 . S
O236 C239 1.258 . S
O237 Zn221 2.024 . S
O237 C224 1.058 . S
C238 O227 1.260 . S
C238 O228 1.258 . S
C239 O235 1.260 . S
C239 O236 1.258 . S
Zn240 O246 1.969 . S
Zn240 O247 1.965 . S
Zn240 O251 2.024 . S
Zn240 O256 1.969 . S
Zn241 O248 1.969 . S
Zn241 O254 1.969 . S
Zn241 O255 1.965 . S
Zn241 O257 2.024 . S
C242 O243 1.229 . S
C242 O251 1.058 . S
O243 C242 1.229 . S
C244 O245 1.229 . S
C244 O257 1.058 . S
O245 C244 1.229 . S
O246 Zn240 1.969 . S
O246 C249 1.267 . S
O247 Zn240 1.965 . S
O247 C258 1.260 . S
O248 Zn241 1.969 . S
O248 C258 1.258 . S
C249 O246 1.267 . S
C249 O250 1.228 . S
O250 C249 1.228 . S
O251 Zn240 2.024 . S
O251 C242 1.058 . S
C252 O253 1.228 . S
C252 O254 1.267 . S
O253 C252 1.228 . S
O254 Zn241 1.969 . S
O254 C252 1.267 . S
O255 Zn241 1.965 . S
O255 C259 1.260 . S
O256 Zn240 1.969 . S
O256 C259 1.258 . S
O257 Zn241 2.024 . S
O257 C244 1.058 . S
C258 O247 1.260 . S
C258 O248 1.258 . S
C259 O255 1.260 . S
C259 O256 1.258 . S
Zn260 O266 1.969 . S
Zn260 O267 1.965 . S
Zn260 O271 2.024 . S
Zn260 O276 1.969 . S
Zn261 O268 1.969 . S
Zn261 O274 1.969 . S
Zn261 O275 1.965 . S
Zn261 O277 2.024 . S
C262 O263 1.229 . S
C262 O271 1.058 . S
O263 C262 1.229 . S
C264 O265 1.229 . S
C264 O277 1.058 . S
O265 C264 1.229 . S
O266 Zn260 1.969 . S
O266 C269 1.267 . S
O267 Zn260 1.965 . S
O267 C278 1.260 . S
O268 Zn261 1.969 . S
O268 C278 1.258 . S
C269 O266 1.267 . S
C269 O270 1.228 . S
O270 C269 1.228 . S
O271 Zn260 2.024 . S
O271 C262 1.058 . S
C272 O273 1.228 . S
C272 O274 1.267 . S
O273 C272 1.228 . S
O274 Zn261 1.969 . S
O274 C272 1.267 . S
O275 Zn261 1.965 . S
O275 C279 1.260 . S
O276 Zn260 1.969 . S
O276 C279 1.258 . S
O277 Zn261 2.024 . S
O277 C264 1.058 . S
C278 O267 1.260 . S
C278 O268 1.258 . S
C279 O275 1.260 . S
C279 O276 1.258 . S
Zn280 O286 1.969 . S
Zn280 O287 1.965 . S
Zn280 O291 2.024 . S
Zn280 O296 1.969 . S
Zn281 O288 1.969 . S
Zn281 O294 1.969 . S
Zn281 O295 1.965 . S
Zn281 O297 2.024 . S
C282 O283 1.229 . S
C282 O291 1.058 . S
O283 C282 1.229 . S
C284 O285 1.229 . S
C284 O297 1.058 . S
O285 C284 1.229 . S
O286 Zn280 1.969 . S
O286 C289 1.267 . S
O287 Zn280 1.965 . S
O287 C298 1.260 . S
O288 Zn281 1.969 . S
O288 C298 1.258 . S
C289 O286 1.267 . S
C289 O290 1.228 . S
O290 C289 1.228 . S
O291 Zn280 2.024 . S
O291 C282 1.058 . S
C292 O293 1.228 . S
C292 O294 1.267 . S
O293 C292 1.228 . S
O294 Zn281 1.969 . S
O294 C292 1.267 . S
O295 Zn281 1.965 . S
O295 C299 1.260 . S
O296 Zn280 1.969 . S
O296 C299 1.258 . S
O297 Zn281 2.024 . S
O297 C284 1.058 . S
C298 O287 1.260 . S
C298 O288 1.258 . S
C299 O295 1.260 . S
C299 O296 1.258 . S
Zn300 O306 1.969 . S
Zn300 O307 1.965 . S
Zn300 O311 2.024 1_554 S
Zn300 O316 1.969 1_454 S
Zn301 O308 1.969 1_656 S
Zn301 O314 1.969 . S
Zn301 O315 1.965 . S
Zn301 O317 2.024 1_556 S
C302 O303 1.229 . S
C302 O311 1.058 . S
O303 C302 1.229 . S
C304 O305 1.229 . S
C304 O317 1.058 . S
O305 C304 1.229 . S
O306 Zn300 1.969 . S
O306 C309 1.267 . S
O307 Zn300 1.965 . S
O307 C318 1.260 . S
O308 Zn301 1.969 1_454 S
O308 C318 1.258 . S
C309 O306 1.267 . S
C309 O310 1.228 . S
O310 C309 1.228 . S
O311 Zn300 2.024 1_556 S
O311 C302 1.058 . S
C312 O313 1.228 . S
C312 O314 1.267 . S
O313 C312 1.228 . S
O314 Zn301 1.969 . S
O314 C312 1.267 . S
O315 Zn301 1.965 . S
O315 C319 1.260 . S
O316 Zn300 1.969 1_656 S
O316 C319 1.258 . S
O317 Zn301 2.024 1_554 S
O317 C304 1.058 . S
C318 O307 1.260 . S
C318 O308 1.258 . S
C319 O315 1.260 . S
C319 O316 1.258 . S
C320 C321 1.387 . S
C320 H324 0.950 . S
C320 C329 1.390 . S
C321 C320 1.387 . S
C321 C323 1.387 . S
H322 C329 0.950 . S
C323 C321 1.387 . S
C323 C325 1.390 . S
C323 H327 0.950 . S
H324 C320 0.950 . S
C325 C323 1.390 . S
C325 C326 1.387 . S
C325 H328 0.950 1_556 S
C326 C325 1.387 . S
C326 C329 1.387 . S
H327 C323 0.950 . S
H328 C325 0.950 1_554 S
C329 C320 1.390 . S
C329 H322 0.950 . S
C329 C326 1.387 . S
C330 C331 1.387 . S
C330 H334 0.950 . S
C330 C339 1.390 . S
C331 C330 1.387 . S
C331 C333 1.387 . S
H332 C339 0.950 . S
C333 C331 1.387 . S
C333 C335 1.390 . S
C333 H337 0.950 . S
H334 C330 0.950 . S
C335 C333 1.390 . S
C335 C336 1.387 . S
C335 H338 0.950 . S
C336 C335 1.387 . S
C336 C339 1.387 . S
H337 C333 0.950 . S
H338 C335 0.950 . S
C339 C330 1.390 . S
C339 H332 0.950 . S
C339 C336 1.387 . S
C340 C341 1.387 . S
C340 H344 0.950 . S
C340 C349 1.390 . S
C341 C340 1.387 . S
C341 C343 1.387 . S
H342 C349 0.950 . S
C343 C341 1.387 . S
C343 C345 1.390 . S
C343 H347 0.950 . S
H344 C340 0.950 . S
C345 C343 1.390 . S
C345 C346 1.387 . S
C345 H348 0.950 . S
C346 C345 1.387 . S
C346 C349 1.387 . S
H347 C343 0.950 . S
H348 C345 0.950 . S
C349 C340 1.390 . S
C349 H342 0.950 . S
C349 C346 1.387 . S
C350 C351 1.387 . S
C350 H354 0.950 . S
C350 C359 1.390 . S
C351 C350 1.387 . S
C351 C353 1.387 . S
H352 C359 0.950 . S
C353 C351 1.387 . S
C353 C355 1.390 . S
C353 H357 0.950 . S
H354 C350 0.950 . S
C355 C353 1.390 . S
C355 C356 1.387 . S
C355 H358 0.950 . S
C356 C355 1.387 . S
C356 C359 1.387 . S
H357 C353 0.950 . S
H358 C355 0.950 . S
C359 C350 1.390 . S
C359 H352 0.950 . S
C359 C356 1.387 . S
C360 C361 1.387 . S
C360 H364 0.950 . S
C360 C369 1.390 . S
C361 C360 1.387 . S
C361 C363 1.387 . S
H362 C369 0.950 . S
C363 C361 1.387 . S
C363 C365 1.390 . S
C363 H367 0.950 . S
H364 C360 0.950 . S
C365 C363 1.390 . S
C365 C366 1.387 . S
C365 H368 0.950 . S
C366 C365 1.387 . S
C366 C369 1.387 . S
H367 C363 0.950 . S
H368 C365 0.950 . S
C369 C360 1.390 . S
C369 H362 0.950 . S
C369 C366 1.387 . S
C370 C371 1.387 . S
C370 H374 0.950 . S
C370 C379 1.390 . S
C371 C370 1.387 . S
C371 C373 1.387 . S
H372 C379 0.950 . S
C373 C371 1.387 . S
C373 C375 1.390 . S
C373 H377 0.950 . S
H374 C370 0.950 . S
C375 C373 1.390 . S
C375 C376 1.387 . S
C375 H378 0.950 . S
C376 C375 1.387 . S
C376 C379 1.387 . S
H377 C373 0.950 . S
H378 C375 0.950 . S
C379 C370 1.390 . S
C379 H372 0.950 . S
C379 C376 1.387 . S
C380 C381 1.387 . S
C380 H384 0.950 . S
C380 C389 1.390 . S
C381 C380 1.387 . S
C381 C383 1.387 . S
H382 C389 0.950 . S
C383 C381 1.387 . S
C383 C385 1.390 . S
C383 H387 0.950 . S
H384 C380 0.950 . S
C385 C383 1.390 . S
C385 C386 1.387 . S
C385 H388 0.950 . S
C386 C385 1.387 . S
C386 C389 1.387 . S
H387 C383 0.950 . S
H388 C385 0.950 . S
C389 C380 1.390 . S
C389 H382 0.950 . S
C389 C386 1.387 . S
C390 C391 1.387 . S
C390 H394 0.950 . S
C390 C399 1.390 . S
C391 C390 1.387 . S
C391 C393 1.387 . S
H392 C399 0.950 . S
C393 C391 1.387 . S
C393 C395 1.390 . S
C393 H397 0.950 . S
H394 C390 0.950 . S
C395 C393 1.390 . S
C395 C396 1.387 . S
C395 H398 0.950 . S
C396 C395 1.387 . S
C396 C399 1.387 . S
H397 C393 0.950 . S
H398 C395 0.950 . S
C399 C390 1.390 . S
C399 H392 0.950 . S
C399 C396 1.387 . S
C400 C401 1.387 . S
C400 H404 0.950 . S
C400 C409 1.390 . S
C401 C400 1.387 . S
C401 C403 1.387 . S
H402 C409 0.950 . S
C403 C401 1.387 . S
C403 C405 1.390 . S
C403 H407 0.950 . S
H404 C400 0.950 . S
C405 C403 1.390 . S
C405 C406 1.387 . S
C405 H408 0.950 . S
C406 C405 1.387 . S
C406 C409 1.387 . S
H407 C403 0.950 . S
H408 C405 0.950 . S
C409 C400 1.390 . S
C409 H402 0.950 . S
C409 C406 1.387 . S
C410 C411 1.387 . S
C410 H414 0.950 . S
C410 C419 1.390 . S
C411 C410 1.387 . S
C411 C413 1.387 . S
H412 C419 0.950 . S
C413 C411 1.387 . S
C413 C415 1.390 . S
C413 H417 0.950 . S
H414 C410 0.950 . S
C415 C413 1.390 . S
C415 C416 1.387 . S
C415 H418 0.950 . S
C416 C415 1.387 . S
C416 C419 1.387 . S
H417 C413 0.950 . S
H418 C415 0.950 . S
C419 C410 1.390 . S
C419 H412 0.950 . S
C419 C416 1.387 . S
C420 C421 1.387 . S
C420 H424 0.950 . S
C420 C429 1.390 . S
C421 C420 1.387 . S
C421 C423 1.387 . S
H422 C429 0.950 . S
C423 C421 1.387 . S
C423 C425 1.390 . S
C423 H427 0.950 . S
H424 C420 0.950 . S
C425 C423 1.390 . S
C425 C426 1.387 . S
C425 H428 0.950 . S
C426 C425 1.387 . S
C426 C429 1.387 . S
H427 C423 0.950 . S
H428 C425 0.950 . S
C429 C420 1.390 . S
C429 H422 0.950 . S
C429 C426 1.387 . S
C430 C431 1.387 . S
C430 H434 0.950 . S
C430 C439 1.390 . S
C431 C430 1.387 . S
C431 C433 1.387 . S
H432 C439 0.950 . S
C433 C431 1.387 . S
C433 C435 1.390 . S
C433 H437 0.950 . S
H434 C430 0.950 . S
C435 C433 1.390 . S
C435 C436 1.387 . S
C435 H438 0.950 . S
C436 C435 1.387 . S
C436 C439 1.387 . S
H437 C433 0.950 . S
H438 C435 0.950 . S
C439 C430 1.390 . S
C439 H432 0.950 . S
C439 C436 1.387 . S
C440 C441 1.387 . S
C440 H444 0.950 . S
C440 C449 1.390 . S
C441 C440 1.387 . S
C441 C443 1.387 . S
H442 C449 0.950 . S
C443 C441 1.387 . S
C443 C445 1.390 . S
C443 H447 0.950 . S
H444 C440 0.950 . S
C445 C443 1.390 . S
C445 C446 1.387 . S
C445 H448 0.950 . S
C446 C445 1.387 . S
C446 C449 1.387 . S
H447 C443 0.950 . S
H448 C445 0.950 . S
C449 C440 1.390 . S
C449 H442 0.950 . S
C449 C446 1.387 . S
C450 C451 1.387 . S
C450 H454 0.950 . S
C450 C459 1.390 . S
C451 C450 1.387 . S
C451 C453 1.387 . S
H452 C459 0.950 . S
C453 C451 1.387 . S
C453 C455 1.390 . S
C453 H457 0.950 . S
H454 C450 0.950 . S
C455 C453 1.390 . S
C455 C456 1.387 . S
C455 H458 0.950 . S
C456 C455 1.387 . S
C456 C459 1.387 . S
H457 C453 0.950 . S
H458 C455 0.950 . S
C459 C450 1.390 . S
C459 H452 0.950 . S
C459 C456 1.387 . S
C460 C461 1.387 . S
C460 H464 0.950 . S
C460 C469 1.390 . S
C461 C460 1.387 . S
C461 C463 1.387 . S
H462 C469 0.950 . S
C463 C461 1.387 . S
C463 C465 1.390 . S
C463 H467 0.950 . S
H464 C460 0.950 . S
C465 C463 1.390 . S
C465 C466 1.387 . S
C465 H468 0.950 . S
C466 C465 1.387 . S
C466 C469 1.387 . S
H467 C463 0.950 . S
H468 C465 0.950 . S
C469 C460 1.390 . S
C469 H462 0.950 . S
C469 C466 1.387 . S
C470 C471 1.387 . S
C470 H474 0.950 . S
C470 C479 1.390 . S
C471 C470 1.387 . S
C471 C473 1.387 . S
H472 C479 0.950 . S
C473 C471 1.387 . S
C473 C475 1.390 . S
C473 H477 0.950 . S
H474 C470 0.950 . S
C475 C473 1.390 . S
C475 C476 1.387 . S
C475 H478 0.950 . S
C476 C475 1.387 . S
C476 C479 1.387 . S
H477 C473 0.950 . S
H478 C475 0.950 . S
C479 C470 1.390 . S
C479 H472 0.950 . S
C479 C476 1.387 . S
C480 C481 1.387 . S
C480 H484 0.950 . S
C480 C489 1.390 . S
C481 C480 1.387 . S
C481 C483 1.387 . S
H482 C489 0.950 . S
C483 C481 1.387 . S
C483 C485 1.390 . S
C483 H487 0.950 . S
H484 C480 0.950 . S
C485 C483 1.390 . S
C485 C486 1.387 . S
C485 H488 0.950 . S
C486 C485 1.387 . S
C486 C489 1.387 . S
H487 C483 0.950 . S
H488 C485 0.950 . S
C489 C480 1.390 . S
C489 H482 0.950 . S
C489 C486 1.387 . S
C490 C491 1.387 . S
C490 H494 0.950 . S
C490 C499 1.390 . S
C491 C490 1.387 . S
C491 C493 1.387 . S
H492 C499 0.950 . S
C493 C491 1.387 . S
C493 C495 1.390 . S
C493 H497 0.950 . S
H494 C490 0.950 . S
C495 C493 1.390 . S
C495 C496 1.387 . S
C495 H498 0.950 . S
C496 C495 1.387 . S
C496 C499 1.387 . S
H497 C493 0.950 . S
H498 C495 0.950 . S
C499 C490 1.390 . S
C499 H492 0.950 . S
C499 C496 1.387 . S
C500 C501 1.387 . S
C500 H504 0.950 . S
C500 C509 1.390 . S
C501 C500 1.387 . S
C501 C503 1.387 . S
H502 C509 0.950 . S
C503 C501 1.387 . S
C503 C505 1.390 . S
C503 H507 0.950 . S
H504 C500 0.950 . S
C505 C503 1.390 . S
C505 C506 1.387 . S
C505 H508 0.950 . S
C506 C505 1.387 . S
C506 C509 1.387 . S
H507 C503 0.950 . S
H508 C505 0.950 . S
C509 C500 1.390 . S
C509 H502 0.950 . S
C509 C506 1.387 . S
C510 C511 1.387 . S
C510 H514 0.950 . S
C510 C519 1.390 . S
C511 C510 1.387 . S
C511 C513 1.387 . S
H512 C519 0.950 . S
C513 C511 1.387 . S
C513 C515 1.390 . S
C513 H517 0.950 . S
H514 C510 0.950 . S
C515 C513 1.390 . S
C515 C516 1.387 . S
C515 H518 0.950 . S
C516 C515 1.387 . S
C516 C519 1.387 . S
H517 C513 0.950 . S
H518 C515 0.950 . S
C519 C510 1.390 . S
C519 H512 0.950 . S
C519 C516 1.387 . S
C520 C521 1.387 . S
C520 H524 0.950 . S
C520 C529 1.390 . S
C521 C520 1.387 . S
C521 C523 1.387 . S
H522 C529 0.950 . S
C523 C521 1.387 . S
C523 C525 1.390 . S
C523 H527 0.950 . S
H524 C520 0.950 . S
C525 C523 1.390 . S
C525 C526 1.387 . S
C525 H528 0.950 . S
C526 C525 1.387 . S
C526 C529 1.387 . S
H527 C523 0.950 . S
H528 C525 0.950 . S
C529 C520 1.390 . S
C529 H522 0.950 . S
C529 C526 1.387 . S
C530 C531 1.387 . S
C530 H534 0.950 . S
C530 C539 1.390 . S
C531 C530 1.387 . S
C531 C533 1.387 . S
H532 C539 0.950 . S
C533 C531 1.387 . S
C533 C535 1.390 . S
C533 H537 0.950 . S
H534 C530 0.950 . S
C535 C533 1.390 . S
C535 C536 1.387 . S
C535 H538 0.950 1_554 S
C536 C535 1.387 . S
C536 C539 1.387 . S
H537 C533 0.950 . S
H538 C535 0.950 1_556 S
C539 C530 1.390 . S
C539 H532 0.950 . S
C539 C536 1.387 . S
C540 C541 1.387 . S
C540 H544 0.950 . S
C540 C549 1.390 . S
C541 C540 1.387 . S
C541 C543 1.387 . S
H542 C549 0.950 . S
C543 C541 1.387 . S
C543 C545 1.390 . S
C543 H547 0.950 . S
H544 C540 0.950 . S
C545 C543 1.390 . S
C545 C546 1.387 . S
C545 H548 0.950 . S
C546 C545 1.387 . S
C546 C549 1.387 . S
H547 C543 0.950 . S
H548 C545 0.950 . S
C549 C540 1.390 . S
C549 H542 0.950 . S
C549 C546 1.387 . S
C550 C551 1.387 . S
C550 H554 0.950 . S
C550 C559 1.390 . S
C551 C550 1.387 . S
C551 C553 1.387 . S
H552 C559 0.950 . S
C553 C551 1.387 . S
C553 C555 1.390 . S
C553 H557 0.950 . S
H554 C550 0.950 . S
C555 C553 1.390 . S
C555 C556 1.387 . S
C555 H558 0.950 . S
C556 C555 1.387 . S
C556 C559 1.387 . S
H557 C553 0.950 . S
H558 C555 0.950 . S
C559 C550 1.390 . S
C559 H552 0.950 . S
C559 C556 1.387 . S
C560 C561 1.387 . S
C560 H564 0.950 . S
C560 C569 1.390 . S
C561 C560 1.387 . S
C561 C563 1.387 . S
H562 C569 0.950 . S
C563 C561 1.387 . S
C563 C565 1.390 . S
C563 H567 0.950 . S
H564 C560 0.950 . S
C565 C563 1.390 . S
C565 C566 1.387 . S
C565 H568 0.950 . S
C566 C565 1.387 . S
C566 C569 1.387 . S
H567 C563 0.950 . S
H568 C565 0.950 . S
C569 C560 1.390 . S
C569 H562 0.950 . S
C569 C566 1.387 . S
C570 C571 1.387 . S
C570 H574 0.950 . S
C570 C579 1.390 . S
C571 C570 1.387 . S
C571 C573 1.387 . S
H572 C579 0.950 . S
C573 C571 1.387 . S
C573 C575 1.390 . S
C573 H577 0.950 . S
H574 C570 0.950 . S
C575 C573 1.390 . S
C575 C576 1.387 . S
C575 H578 0.950 . S
C576 C575 1.387 . S
C576 C579 1.387 . S
H577 C573 0.950 . S
H578 C575 0.950 . S
C579 C570 1.390 . S
C579 H572 0.950 . S
C579 C576 1.387 . S
C580 C581 1.387 . S
C580 H584 0.950 . S
C580 C589 1.390 . S
C581 C580 1.387 . S
C581 C583 1.387 . S
H582 C589 0.950 . S
C583 C581 1.387 . S
C583 C585 1.390 . S
C583 H587 0.950 . S
H584 C580 0.950 . S
C585 C583 1.390 . S
C585 C586 1.387 . S
C585 H588 0.950 . S
C586 C585 1.387 . S
C586 C589 1.387 . S
H587 C583 0.950 . S
H588 C585 0.950 . S
C589 C580 1.390 . S
C589 H582 0.950 . S
C589 C586 1.387 . S
C590 C591 1.387 . S
C590 H594 0.950 . S
C590 C599 1.390 . S
C591 C590 1.387 . S
C591 C593 1.387 . S
H592 C599 0.950 . S
C593 C591 1.387 . S
C593 C595 1.390 . S
C593 H597 0.950 . S
H594 C590 0.950 . S
C595 C593 1.390 . S
C595 C596 1.387 . S
C595 H598 0.950 . S
C596 C595 1.387 . S
C596 C599 1.387 . S
H597 C593 0.950 . S
H598 C595 0.950 . S
C599 C590 1.390 . S
C599 H592 0.950 . S
C599 C596 1.387 . S
C600 C601 1.387 . S
C600 H604 0.950 . S
C600 C609 1.390 . S
C601 C600 1.387 . S
C601 C603 1.387 . S
H602 C609 0.950 . S
C603 C601 1.387 . S
C603 C605 1.390 . S
C603 H607 0.950 . S
H604 C600 0.950 . S
C605 C603 1.390 . S
C605 C606 1.387 . S
C605 H608 0.950 . S
C606 C605 1.387 . S
C606 C609 1.387 . S
H607 C603 0.950 . S
H608 C605 0.950 . S
C609 C600 1.390 . S
C609 H602 0.950 . S
C609 C606 1.387 . S
C610 C611 1.387 . S
C610 H614 0.950 . S
C610 C619 1.390 . S
C611 C610 1.387 . S
C611 C613 1.387 . S
H612 C619 0.950 . S
C613 C611 1.387 . S
C613 C615 1.390 . S
C613 H617 0.950 . S
H614 C610 0.950 . S
C615 C613 1.390 . S
C615 C616 1.387 . S
C615 H618 0.950 . S
C616 C615 1.387 . S
C616 C619 1.387 . S
H617 C613 0.950 . S
H618 C615 0.950 . S
C619 C610 1.390 . S
C619 H612 0.950 . S
C619 C616 1.387 . S
C620 C621 1.387 . S
C620 H624 0.950 . S
C620 C629 1.390 . S
C621 C620 1.387 . S
C621 C623 1.387 . S
H622 C629 0.950 . S
C623 C621 1.387 . S
C623 C625 1.390 . S
C623 H627 0.950 . S
H624 C620 0.950 . S
C625 C623 1.390 . S
C625 C626 1.387 . S
C625 H628 0.950 . S
C626 C625 1.387 . S
C626 C629 1.387 . S
H627 C623 0.950 . S
H628 C625 0.950 . S
C629 C620 1.390 . S
C629 H622 0.950 . S
C629 C626 1.387 . S
C630 C631 1.387 . S
C630 H634 0.950 . S
C630 C639 1.390 . S
C631 C630 1.387 . S
C631 C633 1.387 . S
H632 C639 0.950 . S
C633 C631 1.387 . S
C633 C635 1.390 . S
C633 H637 0.950 . S
H634 C630 0.950 . S
C635 C633 1.390 . S
C635 C636 1.387 . S
C635 H638 0.950 . S
C636 C635 1.387 . S
C636 C639 1.387 . S
H637 C633 0.950 . S
H638 C635 0.950 . S
C639 C630 1.390 . S
C639 H632 0.950 . S
C639 C636 1.387 . S
C640 C641 1.387 . S
C640 H644 0.950 . S
C640 C649 1.390 . S
C641 C640 1.387 . S
C641 C643 1.387 . S
H642 C649 0.950 . S
C643 C641 1.387 . S
C643 C645 1.390 . S
C643 H647 0.950 . S
H644 C640 0.950 . S
C645 C643 1.390 . S
C645 C646 1.387 . S
C645 H648 0.950 . S
C646 C645 1.387 . S
C646 C649 1.387 . S
H647 C643 0.950 . S
H648 C645 0.950 . S
C649 C640 1.390 . S
C649 H642 0.950 . S
C649 C646 1.387 . S
C650 C651 1.387 . S
C650 H654 0.950 . S
C650 C659 1.390 . S
C651 C650 1.387 . S
C651 C653 1.387 . S
H652 C659 0.950 . S
C653 C651 1.387 . S
C653 C655 1.390 . S
C653 H657 0.950 . S
H654 C650 0.950 . S
C655 C653 1.390 . S
C655 C656 1.387 . S
C655 H658 0.950 . S
C656 C655 1.387 . S
C656 C659 1.387 . S
H657 C653 0.950 . S
H658 C655 0.950 . S
C659 C650 1.390 . S
C659 H652 0.950 . S
C659 C656 1.387 . S
C660 C661 1.387 . S
C660 H664 0.950 . S
C660 C669 1.390 . S
C661 C660 1.387 . S
C661 C663 1.387 . S
H662 C669 0.950 . S
C663 C661 1.387 . S
C663 C665 1.390 . S
C663 H667 0.950 . S
H664 C660 0.950 . S
C665 C663 1.390 . S
C665 C666 1.387 . S
C665 H668 0.950 . S
C666 C665 1.387 . S
C666 C669 1.387 . S
H667 C663 0.950 . S
H668 C665 0.950 . S
C669 C660 1.390 . S
C669 H662 0.950 . S
C669 C666 1.387 . S
C670 C671 1.387 . S
C670 H674 0.950 . S
C670 C679 1.390 . S
C671 C670 1.387 . S
C671 C673 1.387 . S
H672 C679 0.950 . S
C673 C671 1.387 . S
C673 C675 1.390 . S
C673 H677 0.950 . S
H674 C670 0.950 . S
C675 C673 1.390 . S
C675 C676 1.387 . S
C675 H678 0.950 . S
C676 C675 1.387 . S
C676 C679 1.387 . S
H677 C673 0.950 . S
H678 C675 0.950 . S
C679 C670 1.390 . S
C679 H672 0.950 . S
C679 C676 1.387 . S
C680 C681 1.387 . S
C680 H684 0.950 . S
C680 C689 1.390 . S
C681 C680 1.387 . S
C681 C683 1.387 . S
H682 C689 0.950 . S
C683 C681 1.387 . S
C683 C685 1.390 . S
C683 H687 0.950 . S
H684 C680 0.950 . S
C685 C683 1.390 . S
C685 C686 1.387 . S
C685 H688 0.950 . S
C686 C685 1.387 . S
C686 C689 1.387 . S
H687 C683 0.950 . S
H688 C685 0.950 . S
C689 C680 1.390 . S
C689 H682 0.950 . S
C689 C686 1.387 . S
C690 C691 1.387 . S
C690 H694 0.950 . S
C690 C699 1.390 . S
C691 C690 1.387 . S
C691 C693 1.387 . S
H692 C699 0.950 . S
C693 C691 1.387 . S
C693 C695 1.390 . S
C693 H697 0.950 . S
H694 C690 0.950 . S
C695 C693 1.390 . S
C695 C696 1.387 . S
C695 H698 0.950 . S
C696 C695 1.387 . S
C696 C699 1.387 . S
H697 C693 0.950 . S
H698 C695 0.950 . S
C699 C690 1.390 . S
C699 H692 0.950 . S
C699 C696 1.387 . S
C700 C701 1.387 . S
C700 H704 0.950 . S
C700 C709 1.390 . S
C701 C700 1.387 . S
C701 C703 1.387 . S
H702 C709 0.950 . S
C703 C701 1.387 . S
C703 C705 1.390 . S
C703 H707 0.950 . S
H704 C700 0.950 . S
C705 C703 1.390 . S
C705 C706 1.387 . S
C705 H708 0.950 . S
C706 C705 1.387 . S
C706 C709 1.387 . S
H707 C703 0.950 . S
H708 C705 0.950 . S
C709 C700 1.390 . S
C709 H702 0.950 . S
C709 C706 1.387 . S
C710 C711 1.387 . S
C710 H714 0.950 . S
C710 C719 1.390 . S
C711 C710 1.387 . S
C711 C713 1.387 . S
H712 C719 0.950 . S
C713 C711 1.387 . S
C713 C715 1.390 . S
C713 H717 0.950 . S
H714 C710 0.950 . S
C715 C713 1.390 . S
C715 C716 1.387 . S
C715 H718 0.950 . S
C716 C715 1.387 . S
C716 C719 1.387 . S
H717 C713 0.950 . S
H718 C715 0.950 . S
C719 C710 1.390 . S
C719 H712 0.950 . S
C719 C716 1.387 . S
C720 C721 1.387 . S
C720 H724 0.950 . S
C720 C729 1.390 . S
C721 C720 1.387 . S
C721 C723 1.387 . S
H722 C729 0.950 . S
C723 C721 1.387 . S
C723 C725 1.390 . S
C723 H727 0.950 . S
H724 C720 0.950 . S
C725 C723 1.390 . S
C725 C726 1.387 . S
C725 H728 0.950 . S
C726 C725 1.387 . S
C726 C729 1.387 . S
H727 C723 0.950 . S
H728 C725 0.950 . S
C729 C720 1.390 . S
C729 H722 0.950 . S
C729 C726 1.387 . S
C730 C731 1.387 . S
C730 H734 0.950 . S
C730 C739 1.390 . S
C731 C730 1.387 . S
C731 C733 1.387 . S
H732 C739 0.950 . S
C733 C731 1.387 . S
C733 C735 1.390 . S
C733 H737 0.950 . S
H734 C730 0.950 . S
C735 C733 1.390 . S
C735 C736 1.387 . S
C735 H738 0.950 . S
C736 C735 1.387 . S
C736 C739 1.387 . S
H737 C733 0.950 . S
H738 C735 0.950 . S
C739 C730 1.390 . S
C739 H732 0.950 . S
C739 C736 1.387 . S
C740 C741 1.387 . S
C740 H744 0.950 . S
C740 C749 1.390 . S
C741 C740 1.387 . S
C741 C743 1.387 . S
H742 C749 0.950 . S
C743 C741 1.387 . S
C743 C745 1.390 . S
C743 H747 0.950 . S
H744 C740 0.950 . S
C745 C743 1.390 . S
C745 C746 1.387 . S
C745 H748 0.950 . S
C746 C745 1.387 . S
C746 C749 1.387 . S
H747 C743 0.950 . S
H748 C745 0.950 . S
C749 C740 1.390 . S
C749 H742 0.950 . S
C749 C746 1.387 . S
C750 C751 1.387 . S
C750 H754 0.950 . S
C750 C759 1.390 . S
C751 C750 1.387 . S
C751 C753 1.387 . S
H752 C759 0.950 . S
C753 C751 1.387 . S
C753 C755 1.390 . S
C753 H757 0.950 . S
H754 C750 0.950 . S
C755 C753 1.390 . S
C755 C756 1.387 . S
C755 H758 0.950 . S
C756 C755 1.387 . S
C756 C759 1.387 . S
H757 C753 0.950 . S
H758 C755 0.950 . S
C759 C750 1.390 . S
C759 H752 0.950 . S
C759 C756 1.387 . S
C760 C761 1.387 . S
C760 H764 0.950 . S
C760 C769 1.390 . S
C761 C760 1.387 . S
C761 C763 1.387 . S
H762 C769 0.950 . S
C763 C761 1.387 . S
C763 C765 1.390 . S
C763 H767 0.950 . S
H764 C760 0.950 . S
C765 C763 1.390 . S
C765 C766 1.387 . S
C765 H768 0.950 . S
C766 C765 1.387 . S
C766 C769 1.387 . S
H767 C763 0.950 . S
H768 C765 0.950 . S
C769 C760 1.390 . S
C769 H762 0.950 . S
C769 C766 1.387 . S
C770 C771 1.387 . S
C770 H774 0.950 . S
C770 C779 1.390 . S
C771 C770 1.387 . S
C771 C773 1.387 . S
H772 C779 0.950 . S
C773 C771 1.387 . S
C773 C775 1.390 . S
C773 H777 0.950 . S
H774 C770 0.950 . S
C775 C773 1.390 . S
C775 C776 1.387 . S
C775 H778 0.950 . S
C776 C775 1.387 . S
C776 C779 1.387 . S
H777 C773 0.950 . S
H778 C775 0.950 . S
C779 C770 1.390 . S
C779 H772 0.950 . S
C779 C776 1.387 . S
C780 C781 1.387 . S
C780 H784 0.950 . S
C780 C789 1.390 . S
C781 C780 1.387 . S
C781 C783 1.387 . S
H782 C789 0.950 . S
C783 C781 1.387 . S
C783 C785 1.390 . S
C783 H787 0.950 . S
H784 C780 0.950 . S
C785 C783 1.390 . S
C785 C786 1.387 . S
C785 H788 0.950 . S
C786 C785 1.387 . S
C786 C789 1.387 . S
H787 C783 0.950 . S
H788 C785 0.950 . S
C789 C780 1.390 . S
C789 H782 0.950 . S
C789 C786 1.387 . S
C790 C791 1.387 . S
C790 H794 0.950 . S
C790 C799 1.390 . S
C791 C790 1.387 . S
C791 C793 1.387 . S
H792 C799 0.950 . S
C793 C791 1.387 . S
C793 C795 1.390 . S
C793 H797 0.950 . S
H794 C790 0.950 . S
C795 C793 1.390 . S
C795 C796 1.387 . S
C795 H798 0.950 . S
C796 C795 1.387 . S
C796 C799 1.387 . S
H797 C793 0.950 . S
H798 C795 0.950 . S
C799 C790 1.390 . S
C799 H792 0.950 . S
C799 C796 1.387 . S
C321 C62 1.794 . S
C326 C18 1.844 . S
C331 C12 1.385 . S
C336 C22 1.400 . S
C341 C58 1.285 . S
C346 C38 1.290 . S
C351 C72 1.300 . S
C356 C52 1.239 . S
C361 C84 1.572 . S
C366 C104 1.508 . S
C371 C119 1.286 . S
C376 C139 1.277 . S
C381 C129 1.459 . S
C386 C144 1.369 . S
C391 C89 1.581 . S
C396 C159 1.568 . S
C401 C189 1.449 . S
C406 C2 1.333 . S
C411 C204 0.782 . S
C416 C32 0.791 . S
C421 C42 1.268 . S
C426 C269 1.238 . S
C431 C179 1.216 . S
C436 C78 1.198 . S
C441 C238 1.330 . S
C446 C99 1.352 . S
C451 C282 1.359 . S
C456 C109 1.484 . S
C461 C124 0.770 . S
C466 C252 0.777 . S
C471 C309 1.232 . S
C476 C149 1.171 . S
C481 C169 1.598 . S
C486 C279 1.574 . S
C491 C184 1.528 . S
C496 C164 1.588 . S
C501 C219 1.272 . S
C506 C199 1.280 . S
C511 C298 1.876 . S
C516 C222 1.829 . S
C521 C258 1.259 . S
C526 C319 1.254 . S
C531 C224 1.797 . S
C536 C19 1.845 . S
C541 C244 1.404 . S
C546 C9 1.387 . S
C551 C259 1.287 . S
C556 C59 1.282 . S
C561 C49 1.236 . S
C566 C229 1.301 . S
C571 C182 1.503 . S
C576 C82 1.574 . S
C581 C198 1.284 . S
C586 C138 1.274 . S
C591 C262 1.373 . S
C596 C132 1.460 . S
C601 C92 1.582 . S
C606 C278 1.569 . S
C611 C112 1.448 . S
C616 C4 1.335 . S
C621 C202 0.788 . S
C626 C249 0.787 . S
C631 C44 1.268 . S
C636 C152 1.234 . S
C641 C178 1.218 . S
C646 C239 1.197 . S
C651 C79 1.329 . S
C656 C98 1.351 . S
C661 C192 1.485 . S
C666 C284 1.360 . S
C671 C122 0.776 . S
C676 C29 0.768 . S
C681 C312 1.232 . S
C686 C272 1.176 . S
C691 C172 1.599 . S
C696 C158 1.573 . S
C701 C162 1.588 . S
C706 C102 1.530 . S
C711 C218 1.271 . S
C716 C118 1.280 . S
C721 C64 1.831 . S
C726 C299 1.875 . S
C731 C39 1.260 . S
C736 C318 1.249 . S
C741 C242 1.272 . S
C746 C292 1.273 . S
C751 C232 1.413 . S
C756 C304 1.302 . S
C761 C209 1.482 . S
C766 C264 1.348 . S
C771 C289 1.275 . S
C776 C24 1.271 . S
C781 C69 1.413 . S
C786 C302 1.304 . S
C791 C142 1.348 . S
C796 C212 1.481 . S
