# Generated by pormake.
# Topology uoz, (4)-cn, num edge types: 1
# Building blocks:
#     Node 0, Type 0, BuildingBlock: ICAMEG_clean_sbu_1, # of connection points: 4
#     Node 1, Type 0, BuildingBlock: ICAMEG_clean_sbu_1, # of connection points: 4
#     Node 2, Type 0, BuildingBlock: ICAMEG_clean_sbu_1, # of connection points: 4
#     Node 3, Type 0, BuildingBlock: ICAMEG_clean_sbu_1, # of connection points: 4
#     Node 4, Type 0, BuildingBlock: ICAMEG_clean_sbu_1, # of connection points: 4
#     Node 5, Type 0, BuildingBlock: ICAMEG_clean_sbu_1, # of connection points: 4
#     Node 6, Type 0, BuildingBlock: ICAMEG_clean_sbu_1, # of connection points: 4
#     Node 7, Type 0, BuildingBlock: ICAMEG_clean_sbu_1, # of connection points: 4
#     Node 8, Type 0, BuildingBlock: ICAMEG_clean_sbu_1, # of connection points: 4
#     Node 9, Type 0, BuildingBlock: ICAMEG_clean_sbu_1, # of connection points: 4
#     Node 10, Type 0, BuildingBlock: ICAMEG_clean_sbu_1, # of connection points: 4
#     Node 11, Type 0, BuildingBlock: ICAMEG_clean_sbu_1, # of connection points: 4
#     Node 12, Type 0, BuildingBlock: ICAMEG_clean_sbu_1, # of connection points: 4
#     Node 13, Type 0, BuildingBlock: ICAMEG_clean_sbu_1, # of connection points: 4
#     Node 14, Type 0, BuildingBlock: ICAMEG_clean_sbu_1, # of connection points: 4
#     Node 15, Type 0, BuildingBlock: ICAMEG_clean_sbu_1, # of connection points: 4
#     Edge 16, Type (0, 0), BuildingBlock: OJICUG_clean_linker_0, # of connection points: 2
#     Edge 17, Type (0, 0), BuildingBlock: OJICUG_clean_linker_0, # of connection points: 2
#     Edge 18, Type (0, 0), BuildingBlock: OJICUG_clean_linker_0, # of connection points: 2
#     Edge 19, Type (0, 0), BuildingBlock: OJICUG_clean_linker_0, # of connection points: 2
#     Edge 20, Type (0, 0), BuildingBlock: OJICUG_clean_linker_0, # of connection points: 2
#     Edge 21, Type (0, 0), BuildingBlock: OJICUG_clean_linker_0, # of connection points: 2
#     Edge 22, Type (0, 0), BuildingBlock: OJICUG_clean_linker_0, # of connection points: 2
#     Edge 23, Type (0, 0), BuildingBlock: OJICUG_clean_linker_0, # of connection points: 2
#     Edge 24, Type (0, 0), BuildingBlock: OJICUG_clean_linker_0, # of connection points: 2
#     Edge 25, Type (0, 0), BuildingBlock: OJICUG_clean_linker_0, # of connection points: 2
#     Edge 26, Type (0, 0), BuildingBlock: OJICUG_clean_linker_0, # of connection points: 2
#     Edge 27, Type (0, 0), BuildingBlock: OJICUG_clean_linker_0, # of connection points: 2
#     Edge 28, Type (0, 0), BuildingBlock: OJICUG_clean_linker_0, # of connection points: 2
#     Edge 29, Type (0, 0), BuildingBlock: OJICUG_clean_linker_0, # of connection points: 2
#     Edge 30, Type (0, 0), BuildingBlock: OJICUG_clean_linker_0, # of connection points: 2
#     Edge 31, Type (0, 0), BuildingBlock: OJICUG_clean_linker_0, # of connection points: 2
#     Edge 32, Type (0, 0), BuildingBlock: OJICUG_clean_linker_0, # of connection points: 2
#     Edge 33, Type (0, 0), BuildingBlock: OJICUG_clean_linker_0, # of connection points: 2
#     Edge 34, Type (0, 0), BuildingBlock: OJICUG_clean_linker_0, # of connection points: 2
#     Edge 35, Type (0, 0), BuildingBlock: OJICUG_clean_linker_0, # of connection points: 2
#     Edge 36, Type (0, 0), BuildingBlock: OJICUG_clean_linker_0, # of connection points: 2
#     Edge 37, Type (0, 0), BuildingBlock: OJICUG_clean_linker_0, # of connection points: 2
#     Edge 38, Type (0, 0), BuildingBlock: OJICUG_clean_linker_0, # of connection points: 2
#     Edge 39, Type (0, 0), BuildingBlock: OJICUG_clean_linker_0, # of connection points: 2
#     Edge 40, Type (0, 0), BuildingBlock: OJICUG_clean_linker_0, # of connection points: 2
#     Edge 41, Type (0, 0), BuildingBlock: OJICUG_clean_linker_0, # of connection points: 2
#     Edge 42, Type (0, 0), BuildingBlock: OJICUG_clean_linker_0, # of connection points: 2
#     Edge 43, Type (0, 0), BuildingBlock: OJICUG_clean_linker_0, # of connection points: 2
#     Edge 44, Type (0, 0), BuildingBlock: OJICUG_clean_linker_0, # of connection points: 2
#     Edge 45, Type (0, 0), BuildingBlock: OJICUG_clean_linker_0, # of connection points: 2
#     Edge 46, Type (0, 0), BuildingBlock: OJICUG_clean_linker_0, # of connection points: 2
#     Edge 47, Type (0, 0), BuildingBlock: OJICUG_clean_linker_0, # of connection points: 2
# Relax obj value: 0.294
# Max RMSD: 0.239
# Mean RMSD: 0.239
data_MOF--net-uoz--node1-ICAMEG_clean_sbu_1--edge1-OJICUG_clean_linker_0
_symmetry_space_group_name_H-M    P1
_symmetry_Int_Tables_number       1
_symmetry_cell_setting            triclinic
loop_
_symmetry_equiv_pos_as_xyz
'x, y, z'
_cell_length_a     45.878838
_cell_length_b     45.881566
_cell_length_c     17.427188
_cell_angle_alpha  89.99934
_cell_angle_beta   90.004778
_cell_angle_gamma 90.054755
loop_
_atom_site_label
_atom_site_type_symbol
_atom_site_fract_x
_atom_site_fract_y
_atom_site_fract_z
_atom_type_partial_charge
Co0 Co 1.00943 0.58701 0.16167 0.0
Co1 Co 0.01354 0.60815 0.35143 0.0
O2 O 1.0063 0.57892 0.27191 0.0
C3 C 0.95371 0.56465 0.10167 0.0
O4 O 0.94957 0.59062 0.07187 0.0
C5 C 0.03393 0.54849 0.421 0.0
O6 O 0.0301 0.53593 0.35422 0.0
O7 O 0.05286 0.61844 0.30245 0.0
O8 O 0.04203 0.61488 0.17724 0.0
H9 H 0.04506 0.70674 0.44551 0.0
H10 H 1.00945 0.52478 0.20954 0.0
O11 O 0.97609 0.5597 0.14336 0.0
H12 H 0.10691 0.54284 0.1002 0.0
H13 H 0.01062 0.55862 0.88225 0.0
H14 H 0.01665 0.64012 0.06603 0.0
H15 H 0.06907 0.58075 0.0951 0.0
H16 H 1.00842 0.54945 0.02157 0.0
O17 O 0.03147 0.5766 0.42561 0.0
H18 H 0.03421 0.66926 0.34814 0.0
H19 H 1.00958 0.60961 0.523 0.0
H20 H 0.0195 0.65019 0.92726 0.0
H21 H 0.0467 0.48605 0.21436 0.0
H22 H 0.01638 0.60927 0.83428 0.0
H23 H 0.09587 0.49513 0.16096 0.0
O24 O 0.98172 0.61982 0.17157 0.0
H25 H 0.92987 0.54343 0.43215 0.0
H26 H 0.9656 0.64451 0.41512 0.0
H27 H 0.91686 0.635 0.46845 0.0
H28 H 0.89873 0.5841 0.47792 0.0
H29 H 0.97811 0.55391 0.37803 0.0
H30 H 0.02043 0.64634 0.62222 0.0
H31 H 0.03819 0.69536 0.5837 0.0
O32 O 0.99362 0.6396 0.28549 0.0
C33 C 0.05838 0.62388 0.23114 0.0
C34 C 0.0373 0.68547 0.46302 0.0
C35 C 0.02354 0.65155 0.5622 0.0
N36 N 0.02128 0.63727 0.42975 0.0
C37 C 0.03107 0.66417 0.40813 0.0
C38 C 0.01759 0.63077 0.50572 0.0
C39 C 0.03347 0.67906 0.54054 0.0
C40 C 0.03063 0.5287 0.18443 0.0
N41 N 0.03718 0.55524 0.1534 0.0
C42 C 0.05162 0.5067 0.18761 0.0
C43 C 0.07932 0.51188 0.15801 0.0
C44 C 0.08555 0.53866 0.12415 0.0
C45 C 0.06401 0.56009 0.12167 0.0
C46 C 0.01212 0.57662 0.9222 0.0
C47 C 0.01542 0.62218 0.02599 0.0
C48 C 0.01085 0.57158 1.00116 0.0
N49 N 0.01228 0.59426 0.05198 0.0
C50 C 0.01703 0.62802 0.94745 0.0
C51 C 0.01529 0.60505 0.89532 0.0
C52 C 0.98009 0.64033 0.22063 0.0
C53 C 0.93766 0.56568 0.42926 0.0
C54 C 0.95803 0.62227 0.41922 0.0
C55 C 0.93034 0.61703 0.44947 0.0
C56 C 0.92017 0.5885 0.45472 0.0
N57 N 0.97537 0.59976 0.39551 0.0
C58 C 0.96524 0.57176 0.39925 0.0
Co59 Co 0.68214 0.7601 0.40435 0.0
Co60 Co 0.66408 0.76233 0.59594 0.0
O61 O 0.69264 0.75692 0.51341 0.0
C62 C 0.71525 0.70417 0.40517 0.0
O63 O 0.70163 0.69486 0.46668 0.0
C64 C 0.72391 0.78333 0.66372 0.0
O65 O 0.73627 0.78024 0.59637 0.0
O66 O 0.65217 0.80187 0.55056 0.0
O67 O 0.65292 0.79083 0.42541 0.0
H68 H 0.56575 0.78976 0.69986 0.0
H69 H 0.74466 0.76417 0.44653 0.0
O70 O 0.71075 0.72944 0.37801 0.0
H71 H 0.7197 0.85975 0.33538 0.0
H72 H 0.70292 0.75889 0.12037 0.0
H73 H 0.6266 0.76621 0.3184 0.0
H74 H 0.68393 0.81969 0.33528 0.0
H75 H 0.71599 0.75876 0.25783 0.0
O76 O 0.69585 0.78047 0.669 0.0
H77 H 0.60242 0.78118 0.59891 0.0
H78 H 0.66467 0.75648 0.76722 0.0
H79 H 0.61283 0.76775 0.18188 0.0
H80 H 0.78137 0.80353 0.44609 0.0
H81 H 0.65115 0.76393 0.08172 0.0
H82 H 0.76864 0.85195 0.39265 0.0
O83 O 0.65161 0.73001 0.41693 0.0
H84 H 0.73207 0.67997 0.66622 0.0
H85 H 0.62988 0.71266 0.65907 0.0
H86 H 0.64136 0.66376 0.70836 0.0
H87 H 0.69283 0.64715 0.7129 0.0
H88 H 0.71961 0.72827 0.61591 0.0
H89 H 0.62878 0.7651 0.86996 0.0
H90 H 0.57886 0.78173 0.83654 0.0
O91 O 0.63235 0.74204 0.53125 0.0
C92 C 0.64509 0.80725 0.48021 0.0
C93 C 0.58742 0.78248 0.71515 0.0
C94 C 0.62282 0.76871 0.81062 0.0
N95 N 0.63567 0.76834 0.67703 0.0
C96 C 0.60827 0.77754 0.65822 0.0
C97 C 0.64311 0.76403 0.75217 0.0
C98 C 0.5948 0.77801 0.79183 0.0
C99 C 0.73919 0.78499 0.4214 0.0
N100 N 0.71194 0.7898 0.39249 0.0
C101 C 0.76002 0.80721 0.42172 0.0
C102 C 0.75283 0.83443 0.39187 0.0
C103 C 0.72535 0.83885 0.35995 0.0
C104 C 0.70516 0.81607 0.36015 0.0
C105 C 0.68612 0.76093 0.16358 0.0
C106 C 0.6435 0.76508 0.27531 0.0
C107 C 0.69334 0.76069 0.24149 0.0
N108 N 0.67211 0.76264 0.29627 0.0
C109 C 0.63553 0.7658 0.19801 0.0
C110 C 0.65703 0.76364 0.14187 0.0
C111 C 0.63151 0.72802 0.4671 0.0
C112 C 0.70959 0.6871 0.66558 0.0
C113 C 0.65235 0.70575 0.66093 0.0
C114 C 0.65871 0.67796 0.68896 0.0
C115 C 0.68757 0.66866 0.69149 0.0
N116 N 0.67408 0.72401 0.6367 0.0
C117 C 0.70239 0.71474 0.63791 0.0
Co118 Co 0.51213 0.43276 0.66169 0.0
Co119 Co 0.50809 0.41161 0.85143 0.0
O120 O 0.51527 0.44085 0.77192 0.0
C121 C 0.56782 0.45522 0.60176 0.0
O122 O 0.57201 0.42926 0.57192 0.0
C123 C 0.48767 0.47125 0.92109 0.0
O124 O 0.49147 0.48382 0.85431 0.0
O125 O 0.46876 0.40131 0.80254 0.0
O126 O 0.47957 0.40485 0.67731 0.0
H127 H 0.47669 0.31299 0.94553 0.0
H128 H 0.51197 0.49499 0.70966 0.0
O129 O 0.54541 0.46012 0.64338 0.0
H130 H 0.41456 0.47673 0.60014 0.0
H131 H 0.51094 0.46114 0.38226 0.0
H132 H 0.50492 0.37964 0.56606 0.0
H133 H 0.45249 0.43891 0.59503 0.0
H134 H 0.5131 0.47032 0.52159 0.0
O135 O 0.49016 0.44314 0.92568 0.0
H136 H 0.48745 0.35049 0.84815 0.0
H137 H 0.51214 0.41013 0.02298 0.0
H138 H 0.50208 0.36957 0.42729 0.0
H139 H 0.47461 0.53362 0.71455 0.0
H140 H 0.5052 0.41049 0.3343 0.0
H141 H 0.42547 0.52445 0.66102 0.0
O142 O 0.53989 0.4 0.67154 0.0
H143 H 0.59175 0.47638 0.932 0.0
H144 H 0.55609 0.37528 0.91489 0.0
H145 H 0.60485 0.38481 0.96807 0.0
H146 H 0.62295 0.43571 0.97757 0.0
H147 H 0.54348 0.46587 0.87803 0.0
H148 H 0.50138 0.37338 0.1222 0.0
H149 H 0.48364 0.32434 0.0837 0.0
O150 O 0.528 0.38017 0.7854 0.0
C151 C 0.46323 0.39586 0.73124 0.0
C152 C 0.48445 0.33426 0.96303 0.0
C153 C 0.49824 0.36817 0.06219 0.0
N154 N 0.50041 0.38248 0.92975 0.0
C155 C 0.49063 0.35557 0.90813 0.0
C156 C 0.50414 0.38896 1.00571 0.0
C157 C 0.48832 0.34066 0.04054 0.0
C158 C 0.4908 0.49102 0.68452 0.0
N159 N 0.48431 0.46448 0.65343 0.0
C160 C 0.46975 0.51297 0.68773 0.0
C161 C 0.44207 0.50774 0.65806 0.0
C162 C 0.43591 0.48095 0.62414 0.0
C163 C 0.4575 0.45957 0.62165 0.0
C164 C 0.50944 0.44314 0.42222 0.0
C165 C 0.50614 0.39759 0.52602 0.0
C166 C 0.51069 0.44819 0.50118 0.0
N167 N 0.50927 0.42551 0.552 0.0
C168 C 0.50455 0.39174 0.44748 0.0
C169 C 0.50628 0.41471 0.39534 0.0
C170 C 0.54152 0.37947 0.72053 0.0
C171 C 0.58397 0.45412 0.92909 0.0
C172 C 0.56364 0.39751 0.91901 0.0
C173 C 0.59136 0.40277 0.94917 0.0
C174 C 0.6015 0.43131 0.95444 0.0
N175 N 0.54627 0.42002 0.89541 0.0
C176 C 0.55638 0.44802 0.89917 0.0
Co177 Co 0.83921 0.25957 0.90319 0.0
Co178 Co 0.85722 0.25726 0.09483 0.0
O179 O 0.82868 0.26269 0.01224 0.0
C180 C 0.80627 0.31559 0.90386 0.0
O181 O 0.82003 0.32495 0.96511 0.0
C182 C 0.79735 0.23628 0.16254 0.0
O183 O 0.78498 0.23944 0.09522 0.0
O184 O 0.8692 0.21775 0.04934 0.0
O185 O 0.8684 0.22882 0.92421 0.0
H186 H 0.95552 0.22985 0.19897 0.0
H187 H 0.77668 0.2555 0.94533 0.0
O188 O 0.81061 0.29025 0.87694 0.0
H189 H 0.80164 0.15993 0.8341 0.0
H190 H 0.81849 0.26108 0.61917 0.0
H191 H 0.89474 0.25342 0.81731 0.0
H192 H 0.83739 0.20002 0.83388 0.0
H193 H 0.80538 0.26106 0.7566 0.0
O194 O 0.82542 0.23907 0.16778 0.0
H195 H 0.91889 0.23847 0.09794 0.0
H196 H 0.85656 0.26303 0.26613 0.0
H197 H 0.90855 0.25197 0.68081 0.0
H198 H 0.73999 0.21611 0.94504 0.0
H199 H 0.87027 0.25597 0.5806 0.0
H200 H 0.75274 0.1677 0.8916 0.0
O201 O 0.86976 0.28963 0.9159 0.0
H202 H 0.78916 0.33963 0.16468 0.0
H203 H 0.89135 0.3069 0.15838 0.0
H204 H 0.87983 0.35579 0.20766 0.0
H205 H 0.82835 0.37242 0.21176 0.0
H206 H 0.80166 0.29133 0.11442 0.0
H207 H 0.89241 0.25437 0.36895 0.0
H208 H 0.94235 0.23779 0.33563 0.0
O209 O 0.88895 0.2776 0.0303 0.0
C210 C 0.87628 0.2124 0.97896 0.0
C211 C 0.93384 0.23711 0.21422 0.0
C212 C 0.8984 0.2508 0.30962 0.0
N213 N 0.8856 0.25123 0.17599 0.0
C214 C 0.91302 0.24207 0.15724 0.0
C215 C 0.87813 0.2555 0.25112 0.0
C216 C 0.92643 0.24153 0.29089 0.0
C217 C 0.78215 0.23468 0.92018 0.0
N218 N 0.80939 0.22988 0.8912 0.0
C219 C 0.76134 0.21244 0.92059 0.0
C220 C 0.76853 0.18523 0.89073 0.0
C221 C 0.79599 0.18083 0.85869 0.0
C222 C 0.81617 0.20362 0.85881 0.0
C223 C 0.83528 0.25895 0.66241 0.0
C224 C 0.87786 0.25461 0.7742 0.0
C225 C 0.82803 0.25911 0.7403 0.0
N226 N 0.84925 0.25708 0.79512 0.0
C227 C 0.88585 0.25395 0.69691 0.0
C228 C 0.86437 0.25621 0.64074 0.0
C229 C 0.88982 0.29163 0.96616 0.0
C230 C 0.81164 0.33249 0.16424 0.0
C231 C 0.86888 0.31381 0.16009 0.0
C232 C 0.86249 0.3416 0.1881 0.0
C233 C 0.83363 0.35092 0.19037 0.0
N234 N 0.84717 0.29557 0.13565 0.0
C235 C 0.81887 0.30485 0.1366 0.0
Co236 Co 0.01144 0.42904 0.95437 0.0
Co237 Co 0.01371 0.41068 0.7629 0.0
O238 O 1.00849 0.43937 0.84521 0.0
C239 C 0.95559 0.46228 0.95303 0.0
O240 O 0.94618 0.44845 0.89195 0.0
C241 C 0.0352 0.47028 0.69504 0.0
O242 O 0.03223 0.48268 0.76238 0.0
O243 O 0.0531 0.39825 0.80874 0.0
O244 O 0.04203 0.39965 0.93382 0.0
H245 H 0.04013 0.31197 0.65965 0.0
H246 H 0.01582 0.4915 0.91177 0.0
O247 O 0.98089 0.45785 0.98011 0.0
H248 H 0.11117 0.4663 0.02397 0.0
H249 H 1.00987 0.45021 0.23816 0.0
H250 H 0.01715 0.37361 0.04088 0.0
H251 H 0.07098 0.43067 0.0239 0.0
H252 H 0.01004 0.46311 0.10059 0.0
O253 O 0.03225 0.44223 0.68985 0.0
H254 H 0.03179 0.34879 0.76037 0.0
H255 H 1.00817 0.41124 0.59154 0.0
H256 H 0.01846 0.36 0.17753 0.0
H257 H 0.0553 0.52808 0.91246 0.0
H258 H 0.01465 0.39846 0.27731 0.0
H259 H 0.1036 0.51522 0.96641 0.0
O260 O 0.98119 0.39867 0.94187 0.0
H261 H 0.93204 0.47952 0.69248 0.0
H262 H 0.96383 0.37703 0.6988 0.0
H263 H 0.91511 0.38902 0.64915 0.0
H264 H 0.89895 0.44064 0.64503 0.0
H265 H 0.98015 0.46657 0.74313 0.0
H266 H 0.01657 0.37521 0.48903 0.0
H267 H 0.03254 0.32511 0.52282 0.0
O268 O 0.99293 0.37925 0.82751 0.0
C269 C 0.05837 0.39136 0.87931 0.0
C270 C 0.03314 0.33372 0.6442 0.0
C271 C 0.01999 0.36923 0.54843 0.0
N272 N 0.01951 0.38215 0.68198 0.0
C273 C 0.02834 0.35465 0.701 0.0
C274 C 0.01544 0.38961 0.60676 0.0
C275 C 0.02891 0.34112 0.56744 0.0
C276 C 0.03659 0.48597 0.93712 0.0
N277 N 0.04127 0.45872 0.96621 0.0
C278 C 0.05888 0.50673 0.93694 0.0
C279 C 0.08603 0.49947 0.96708 0.0
C280 C 0.09032 0.472 0.99915 0.0
C281 C 0.06748 0.45188 0.99884 0.0
C282 C 0.01192 0.43334 0.19511 0.0
C283 C 0.01605 0.39057 0.08381 0.0
C284 C 0.01184 0.44047 0.11714 0.0
N285 N 0.01378 0.41915 0.06257 0.0
C286 C 0.01663 0.38269 0.16118 0.0
C287 C 0.01448 0.40427 0.21711 0.0
C288 C 0.97889 0.37863 0.89165 0.0
C289 C 0.93898 0.45697 0.69292 0.0
C290 C 0.95713 0.39957 0.6971 0.0
C291 C 0.92944 0.40622 0.66887 0.0
C292 C 0.92038 0.43516 0.66658 0.0
N293 N 0.97555 0.42109 0.72175 0.0
C294 C 0.96652 0.44949 0.72079 0.0
Co295 Co 0.84029 0.75791 0.1971 0.0
Co296 Co 0.86165 0.76198 1.00744 0.0
O297 O 0.83232 0.75488 0.08682 0.0
C298 C 0.81776 0.70221 0.25688 0.0
O299 O 0.84369 0.69801 0.28685 0.0
C300 C 0.80212 0.78262 0.93777 0.0
O301 O 0.78954 0.77893 1.00458 0.0
O302 O 0.87221 0.80126 0.05657 0.0
O303 O 0.86822 0.79046 0.1817 0.0
H304 H 0.96049 0.79286 0.9137 0.0
H305 H 0.77809 0.75799 0.14902 0.0
O306 O 0.81291 0.72461 0.21517 0.0
H307 H 0.79613 0.85539 0.25876 0.0
H308 H 0.81176 0.75897 0.47644 0.0
H309 H 0.89336 0.76499 0.29296 0.0
H310 H 0.83406 0.81755 0.26371 0.0
H311 H 0.80265 0.7569 0.33706 0.0
O312 O 0.83022 0.78009 0.93322 0.0
H313 H 0.92289 0.78223 1.01095 0.0
H314 H 0.86314 0.7581 0.83586 0.0
H315 H 0.90337 0.76775 0.43178 0.0
H316 H 0.73934 0.79521 0.14446 0.0
H317 H 0.86239 0.76463 0.5246 0.0
H318 H 0.7484 0.84436 0.19805 0.0
O319 O 0.87304 0.73013 0.18734 0.0
H320 H 0.79645 0.67866 0.92674 0.0
H321 H 0.89771 0.71389 0.94342 0.0
H322 H 0.88793 0.66522 0.89003 0.0
H323 H 0.83694 0.64733 0.88073 0.0
H324 H 0.80719 0.72683 0.98092 0.0
H325 H 0.89997 0.76875 0.73677 0.0
H326 H 0.9491 0.78614 0.77546 0.0
O327 O 0.89293 0.74181 0.0734 0.0
C328 C 0.87747 0.80677 0.128 0.0
C329 C 0.93917 0.78525 0.89612 0.0
C330 C 0.90518 0.77179 0.79681 0.0
N331 N 0.89084 0.76956 0.92922 0.0
C332 C 0.91781 0.77915 0.95094 0.0
C333 C 0.88434 0.76596 0.85322 0.0
C334 C 0.93276 0.78152 0.81856 0.0
C335 C 0.78201 0.77915 0.17422 0.0
N336 N 0.80855 0.7857 0.20528 0.0
C337 C 0.76 0.80014 0.17118 0.0
C338 C 0.76517 0.82782 0.20089 0.0
C339 C 0.79196 0.83404 0.23472 0.0
C340 C 0.81341 0.81251 0.2371 0.0
C341 C 0.82978 0.76048 0.43655 0.0
C342 C 0.87539 0.76377 0.33293 0.0
C343 C 0.82477 0.75928 0.35756 0.0
N344 N 0.84748 0.7607 0.30683 0.0
C345 C 0.8812 0.76533 0.4115 0.0
C346 C 0.8582 0.76359 0.46354 0.0
C347 C 0.89352 0.72829 0.13828 0.0
C348 C 0.81873 0.68635 0.92955 0.0
C349 C 0.87544 0.70643 0.93939 0.0
C350 C 0.87004 0.67877 0.90911 0.0
C351 C 0.84145 0.66875 0.90395 0.0
N352 N 0.85303 0.72388 0.96324 0.0
C353 C 0.82497 0.71388 0.95959 0.0
Co354 Co 0.50982 0.59066 0.45463 0.0
Co355 Co 0.50773 0.60904 0.26311 0.0
O356 O 0.51285 0.58035 0.34548 0.0
C357 C 0.56576 0.55761 0.45349 0.0
O358 O 0.57517 0.57155 0.39258 0.0
C359 C 0.48623 0.54945 0.19516 0.0
O360 O 0.48914 0.53705 0.26252 0.0
O361 O 0.46832 0.62155 0.30871 0.0
O362 O 0.47919 0.61999 0.43392 0.0
H363 H 0.48154 0.70777 0.15952 0.0
H364 H 0.50559 0.5282 0.41194 0.0
O365 O 0.54042 0.56192 0.48045 0.0
H366 H 0.41013 0.55318 0.52379 0.0
H367 H 0.51133 0.56948 0.73843 0.0
H368 H 0.50389 0.64607 0.54114 0.0
H369 H 0.45025 0.58889 0.52388 0.0
H370 H 0.51125 0.55659 0.60084 0.0
O371 O 0.4892 0.5775 0.18999 0.0
H372 H 0.48973 0.67095 0.26036 0.0
H373 H 0.51341 0.60843 0.09178 0.0
H374 H 0.50245 0.65966 0.6778 0.0
H375 H 0.46619 0.49153 0.41244 0.0
H376 H 0.50634 0.6212 0.77758 0.0
H377 H 0.41784 0.50428 0.46623 0.0
O378 O 0.54002 0.6211 0.44236 0.0
H379 H 0.58937 0.54008 0.19341 0.0
H380 H 0.5577 0.6426 0.19924 0.0
H381 H 0.60645 0.63054 0.14997 0.0
H382 H 0.62256 0.5789 0.14611 0.0
H383 H 0.54123 0.5531 0.24368 0.0
H384 H 0.50516 0.64445 0.98916 0.0
H385 H 0.48924 0.69458 0.02277 0.0
O386 O 0.52849 0.64045 0.32777 0.0
C387 C 0.46296 0.62837 0.37928 0.0
C388 C 0.48851 0.686 0.14415 0.0
C389 C 0.50169 0.65045 0.04853 0.0
N390 N 0.50202 0.63756 0.1821 0.0
C391 C 0.49323 0.66508 0.20102 0.0
C392 C 0.50616 0.63008 0.10692 0.0
C393 C 0.49279 0.67858 0.06743 0.0
C394 C 0.4848 0.53369 0.43721 0.0
N395 N 0.48004 0.56092 0.4663 0.0
C396 C 0.46255 0.51288 0.43692 0.0
C397 C 0.43537 0.52007 0.46697 0.0
C398 C 0.43101 0.54753 0.49904 0.0
C399 C 0.45381 0.5677 0.49882 0.0
C400 C 0.50924 0.58634 0.69537 0.0
C401 C 0.50502 0.62911 0.58407 0.0
C402 C 0.50937 0.57922 0.61739 0.0
N403 N 0.50739 0.60053 0.56283 0.0
C404 C 0.50437 0.63698 0.66145 0.0
C405 C 0.50657 0.6154 0.71737 0.0
C406 C 0.54242 0.64111 0.39209 0.0
C407 C 0.58246 0.56263 0.19373 0.0
C408 C 0.56437 0.62006 0.19763 0.0
C409 C 0.59209 0.61337 0.16962 0.0
C410 C 0.60111 0.58441 0.16748 0.0
N411 N 0.54591 0.59856 0.2222 0.0
C412 C 0.5549 0.57016 0.22138 0.0
Co413 Co 0.68136 0.26203 0.69612 0.0
Co414 Co 0.65972 0.25767 0.50673 0.0
O415 O 0.68916 0.26493 0.58574 0.0
C416 C 0.70391 0.31782 0.75515 0.0
O417 O 0.67799 0.32207 0.78511 0.0
C418 C 0.7192 0.23703 0.43675 0.0
O419 O 0.73182 0.24078 0.50348 0.0
O420 O 0.64927 0.21844 0.55636 0.0
O421 O 0.65343 0.22945 0.68132 0.0
H422 H 0.56079 0.2265 0.4143 0.0
H423 H 0.7435 0.26193 0.64747 0.0
O424 O 0.70875 0.29537 0.71363 0.0
H425 H 0.72559 0.16458 0.75762 0.0
H426 H 0.71039 0.26136 0.97511 0.0
H427 H 0.62847 0.25502 0.79267 0.0
H428 H 0.68772 0.20245 0.76304 0.0
H429 H 0.71925 0.26324 0.83561 0.0
O430 O 0.69109 0.23952 0.43235 0.0
H431 H 0.59851 0.23735 0.51106 0.0
H432 H 0.65797 0.26129 0.33512 0.0
H433 H 0.61871 0.25244 0.93164 0.0
H434 H 0.78221 0.22467 0.64246 0.0
H435 H 0.65985 0.25573 0.02394 0.0
H436 H 0.77321 0.17555 0.69629 0.0
O437 O 0.64857 0.28976 0.68645 0.0
H438 H 0.72466 0.34097 0.42443 0.0
H439 H 0.62348 0.30562 0.44264 0.0
H440 H 0.6331 0.35422 0.3886 0.0
H441 H 0.68405 0.37216 0.37853 0.0
H442 H 0.71408 0.29287 0.47927 0.0
H443 H 0.62101 0.25042 0.23651 0.0
H444 H 0.57196 0.23301 0.27588 0.0
O445 O 0.6285 0.2779 0.57284 0.0
C446 C 0.6441 0.21305 0.62789 0.0
C447 C 0.58207 0.23411 0.39642 0.0
C448 C 0.61589 0.24747 0.29664 0.0
N449 N 0.63042 0.24994 0.42888 0.0
C450 C 0.6035 0.24034 0.45097 0.0
C451 C 0.6368 0.25343 0.35277 0.0
C452 C 0.58836 0.23773 0.31877 0.0
C453 C 0.73962 0.24078 0.67279 0.0
N454 N 0.71313 0.23426 0.70418 0.0
C455 C 0.76161 0.21978 0.6695 0.0
C456 C 0.75647 0.19211 0.69933 0.0
C457 C 0.72974 0.18592 0.73351 0.0
C458 C 0.70832 0.20747 0.73615 0.0
C459 C 0.6923 0.25978 0.93545 0.0
C460 C 0.6465 0.25631 0.83242 0.0
C461 C 0.69716 0.26088 0.8564 0.0
N462 N 0.67437 0.25937 0.80595 0.0
C463 C 0.64084 0.25486 0.91107 0.0
C464 C 0.66393 0.25669 0.96282 0.0
C465 C 0.62801 0.29151 0.63761 0.0
C466 C 0.70239 0.33325 0.42758 0.0
C467 C 0.64573 0.3131 0.43828 0.0
C468 C 0.65104 0.34072 0.40763 0.0
C469 C 0.6796 0.35078 0.40204 0.0
N470 N 0.66821 0.29573 0.46207 0.0
C471 C 0.69624 0.30575 0.45799 0.0
Co472 Co 0.33976 0.2619 0.70729 0.0
Co473 Co 0.35846 0.26364 0.51594 0.0
O474 O 0.32969 0.25831 0.59809 0.0
C475 C 0.30776 0.2053 0.70682 0.0
O476 O 0.32196 0.19606 0.64619 0.0
C477 C 0.29868 0.28418 0.44709 0.0
O478 O 0.28629 0.28139 0.51449 0.0
O479 O 0.37024 0.3034 0.56055 0.0
O480 O 0.36855 0.29304 0.68607 0.0
H481 H 0.45693 0.2911 0.41262 0.0
H482 H 0.27727 0.26467 0.66416 0.0
O483 O 0.31154 0.23079 0.73345 0.0
H484 H 0.30038 0.36104 0.77361 0.0
H485 H 0.31834 0.26025 0.99096 0.0
H486 H 0.39491 0.26944 0.79414 0.0
H487 H 0.33686 0.3217 0.7748 0.0
H488 H 0.30555 0.25998 0.85328 0.0
O489 O 0.32675 0.28137 0.44202 0.0
H490 H 0.42008 0.28276 0.51331 0.0
H491 H 0.35821 0.25718 0.34485 0.0
H492 H 0.40833 0.27134 0.93085 0.0
H493 H 0.23983 0.30326 0.66367 0.0
H494 H 0.36989 0.26654 0.0304 0.0
H495 H 0.25164 0.35209 0.71618 0.0
O496 O 0.37074 0.2323 0.69615 0.0
H497 H 0.29085 0.1807 0.44675 0.0
H498 H 0.39295 0.21388 0.45486 0.0
H499 H 0.38173 0.1647 0.40692 0.0
H500 H 0.33031 0.14784 0.40193 0.0
H501 H 0.30305 0.22929 0.49573 0.0
H502 H 0.39428 0.26555 0.24236 0.0
H503 H 0.4441 0.2825 0.276 0.0
O504 O 0.39013 0.24376 0.58157 0.0
C505 C 0.37685 0.30916 0.63104 0.0
C506 C 0.4353 0.28368 0.39724 0.0
C507 C 0.40012 0.26941 0.30168 0.0
N508 N 0.38701 0.2695 0.4351 0.0
C509 C 0.41436 0.27888 0.45403 0.0
C510 C 0.37973 0.26487 0.35998 0.0
C511 C 0.42808 0.27888 0.32059 0.0
C512 C 0.28233 0.28567 0.68895 0.0
N513 N 0.30946 0.2911 0.71798 0.0
C514 C 0.2611 0.30746 0.68806 0.0
C515 C 0.26776 0.3349 0.7174 0.0
C516 C 0.29513 0.33996 0.74941 0.0
C517 C 0.31573 0.31759 0.74983 0.0
C518 C 0.33517 0.26276 0.94799 0.0
C519 C 0.37793 0.26797 0.83695 0.0
C520 C 0.32812 0.26243 0.86997 0.0
N521 N 0.34943 0.26488 0.81552 0.0
C522 C 0.38572 0.26887 0.91437 0.0
C523 C 0.36415 0.26616 0.97016 0.0
C524 C 0.39095 0.23019 0.64638 0.0
C525 C 0.31331 0.18793 0.44759 0.0
C526 C 0.3705 0.20686 0.45275 0.0
C527 C 0.36428 0.17892 0.42551 0.0
C528 C 0.33545 0.16947 0.42273 0.0
N529 N 0.34866 0.22513 0.47599 0.0
C530 C 0.32037 0.21573 0.47451 0.0
Co531 Co 0.18173 0.75797 0.20669 0.0
Co532 Co 0.16308 0.75608 0.0153 0.0
O533 O 0.19183 0.76149 0.0975 0.0
C534 C 0.21387 0.81451 0.20615 0.0
O535 O 0.19983 0.82374 0.14525 0.0
C536 C 0.22287 0.7355 0.94674 0.0
O537 O 0.23524 0.73833 0.01417 0.0
O538 O 0.15129 0.71635 0.06011 0.0
O539 O 0.15291 0.72683 0.18555 0.0
H540 H 0.06464 0.7285 0.91196 0.0
H541 H 0.24423 0.75518 0.16387 0.0
O542 O 0.20995 0.78907 0.23291 0.0
H543 H 0.22108 0.65884 0.27339 0.0
H544 H 0.20306 0.75955 0.49043 0.0
H545 H 0.12653 0.75061 0.29338 0.0
H546 H 0.18458 0.69817 0.27431 0.0
H547 H 0.21588 0.75982 0.35278 0.0
O548 O 0.1948 0.7383 0.94158 0.0
H549 H 0.10146 0.73696 0.01267 0.0
H550 H 0.16337 0.76238 0.84416 0.0
H551 H 0.11305 0.74875 0.43006 0.0
H552 H 0.28169 0.71663 0.16375 0.0
H553 H 0.15147 0.75341 0.52972 0.0
H554 H 0.26986 0.6678 0.21625 0.0
O555 O 0.15077 0.78758 0.19529 0.0
H556 H 0.23071 0.83895 0.94568 0.0
H557 H 0.12862 0.80577 0.95369 0.0
H558 H 0.13986 0.85488 0.90534 0.0
H559 H 0.19127 0.87175 0.9004 0.0
H560 H 0.2185 0.79043 0.99507 0.0
H561 H 0.12734 0.75388 0.74165 0.0
H562 H 0.07751 0.73695 0.7753 0.0
O563 O 0.13141 0.77603 0.08073 0.0
C564 C 0.14465 0.71066 0.13061 0.0
C565 C 0.08627 0.73591 0.89658 0.0
C566 C 0.12148 0.75008 0.80098 0.0
N567 N 0.13455 0.75014 0.93444 0.0
C568 C 0.1072 0.74079 0.95337 0.0
C569 C 0.14186 0.75469 0.8593 0.0
C570 C 0.09351 0.74062 0.81991 0.0
C571 C 0.23915 0.7342 0.18868 0.0
N572 N 0.21201 0.72876 0.21758 0.0
C573 C 0.2604 0.71242 0.18799 0.0
C574 C 0.25373 0.68499 0.21733 0.0
C575 C 0.22634 0.67992 0.24917 0.0
C576 C 0.20572 0.70228 0.24943 0.0
C577 C 0.18623 0.7571 0.44741 0.0
C578 C 0.14349 0.75204 0.33624 0.0
C579 C 0.19331 0.75743 0.36941 0.0
N580 N 0.172 0.75505 0.3149 0.0
C581 C 0.13567 0.75115 0.41364 0.0
C582 C 0.15723 0.75378 0.4695 0.0
C583 C 0.13059 0.78968 0.14542 0.0
C584 C 0.20825 0.83172 0.94651 0.0
C585 C 0.15106 0.81279 0.95162 0.0
C586 C 0.15729 0.8407 0.92414 0.0
C587 C 0.18612 0.85015 0.92138 0.0
N588 N 0.1729 0.79456 0.97511 0.0
C589 C 0.20118 0.80395 0.97366 0.0
Co590 Co 0.182 0.25634 0.91408 0.0
Co591 Co 0.16102 0.26084 0.10377 0.0
O592 O 0.19026 0.25374 0.02431 0.0
C593 C 0.20544 0.20093 0.85524 0.0
O594 O 0.17956 0.19613 0.82554 0.0
C595 C 0.22054 0.28191 0.17292 0.0
O596 O 0.23314 0.27792 0.10628 0.0
O597 O 0.15031 0.29988 0.05383 0.0
O598 O 0.15358 0.28846 0.92895 0.0
H599 H 0.06214 0.29148 0.19734 0.0
H600 H 0.24422 0.25793 0.96206 0.0
O601 O 0.20992 0.22353 0.89648 0.0
H602 H 0.22421 0.3545 0.84986 0.0
H603 H 0.21019 0.25742 0.63452 0.0
H604 H 0.12869 0.26211 0.81856 0.0
H605 H 0.18714 0.31576 0.84545 0.0
H606 H 0.21947 0.25569 0.77383 0.0
O607 O 0.19243 0.27936 0.17746 0.0
H608 H 0.09969 0.28071 0.10014 0.0
H609 H 0.15967 0.2575 0.27547 0.0
H610 H 0.11848 0.26443 0.67977 0.0
H611 H 0.28208 0.29616 0.96648 0.0
H612 H 0.15941 0.26199 0.58667 0.0
H613 H 0.27205 0.34486 0.91148 0.0
O614 O 0.1497 0.22799 0.92496 0.0
H615 H 0.22659 0.17808 0.18549 0.0
H616 H 0.12521 0.21279 0.16939 0.0
H617 H 0.13523 0.16436 0.22387 0.0
H618 H 0.18628 0.14674 0.23289 0.0
H619 H 0.21561 0.22599 0.13025 0.0
H620 H 0.12288 0.26829 0.37451 0.0
H621 H 0.07366 0.28529 0.33566 0.0
O622 O 0.12976 0.24026 0.03841 0.0
C623 C 0.14464 0.30502 0.98243 0.0
C624 C 0.0835 0.28404 0.21498 0.0
C625 C 0.11761 0.2711 0.31442 0.0
N626 N 0.13186 0.26849 0.18199 0.0
C627 C 0.10484 0.27786 0.16019 0.0
C628 C 0.13842 0.26519 0.25804 0.0
C629 C 0.08999 0.2806 0.29258 0.0
C630 C 0.23987 0.27892 0.93637 0.0
N631 N 0.21324 0.28473 0.90494 0.0
C632 C 0.26139 0.30045 0.93926 0.0
C633 C 0.25567 0.3279 0.90879 0.0
C634 C 0.22882 0.33334 0.87445 0.0
C635 C 0.20786 0.3113 0.87236 0.0
C636 C 0.19218 0.2586 0.67452 0.0
C637 C 0.14662 0.26115 0.77845 0.0
C638 C 0.19729 0.25759 0.75347 0.0
N639 N 0.17461 0.25866 0.80437 0.0
C640 C 0.14071 0.26246 0.69991 0.0
C641 C 0.16368 0.26111 0.64771 0.0
C642 C 0.12923 0.2263 0.97416 0.0
C643 C 0.20428 0.18565 0.18282 0.0
C644 C 0.14751 0.20545 0.17329 0.0
C645 C 0.15304 0.17793 0.2042 0.0
C646 C 0.18166 0.16805 0.2092 0.0
N647 N 0.16982 0.22292 0.14871 0.0
C648 C 0.19791 0.21305 0.15218 0.0
Co649 Co 0.33966 0.76377 0.41425 0.0
Co650 Co 0.36058 0.75905 0.60393 0.0
O651 O 0.33136 0.76627 0.52448 0.0
C652 C 0.31613 0.81914 0.35544 0.0
O653 O 0.34201 0.82401 0.32584 0.0
C654 C 0.30105 0.73793 0.67277 0.0
O655 O 0.28846 0.74199 0.60614 0.0
O656 O 0.37125 0.72005 0.55373 0.0
O657 O 0.36813 0.73167 0.42896 0.0
H658 H 0.45941 0.72817 0.69733 0.0
H659 H 0.27743 0.76209 0.46196 0.0
O660 O 0.31169 0.79655 0.39674 0.0
H661 H 0.29757 0.66561 0.3494 0.0
H662 H 0.31154 0.76265 0.13463 0.0
H663 H 0.39303 0.75827 0.31883 0.0
H664 H 0.33461 0.70438 0.34536 0.0
H665 H 0.30223 0.76436 0.27391 0.0
O666 O 0.32916 0.74047 0.67741 0.0
H667 H 0.42188 0.73913 0.60019 0.0
H668 H 0.36192 0.76217 0.77567 0.0
H669 H 0.40328 0.75604 0.18006 0.0
H670 H 0.23957 0.72386 0.46594 0.0
H671 H 0.36236 0.75832 0.08688 0.0
H672 H 0.24968 0.6752 0.4108 0.0
O673 O 0.37192 0.79215 0.42545 0.0
H674 H 0.29507 0.84176 0.68635 0.0
H675 H 0.39643 0.80698 0.67005 0.0
H676 H 0.38644 0.85534 0.72502 0.0
H677 H 0.3354 0.87298 0.73414 0.0
H678 H 0.30602 0.79391 0.63064 0.0
H679 H 0.39868 0.75119 0.87465 0.0
H680 H 0.44789 0.73417 0.8357 0.0
O681 O 0.39186 0.77969 0.53878 0.0
C682 C 0.37698 0.71501 0.48233 0.0
C683 C 0.43806 0.73561 0.71502 0.0
C684 C 0.40395 0.74846 0.81454 0.0
N685 N 0.38973 0.75128 0.68212 0.0
C686 C 0.41674 0.7419 0.66027 0.0
C687 C 0.38316 0.75448 0.75819 0.0
C688 C 0.43157 0.73895 0.79265 0.0
C689 C 0.2818 0.74113 0.43619 0.0
N690 N 0.30846 0.73536 0.40487 0.0
C691 C 0.26029 0.71958 0.43884 0.0
C692 C 0.26605 0.69216 0.40828 0.0
C693 C 0.29293 0.68675 0.37407 0.0
C694 C 0.31387 0.70881 0.37219 0.0
C695 C 0.32955 0.76155 0.17466 0.0
C696 C 0.3751 0.75918 0.27869 0.0
C697 C 0.32442 0.76254 0.2536 0.0
N698 N 0.34709 0.76155 0.30454 0.0
C699 C 0.38104 0.75791 0.20016 0.0
C700 C 0.35807 0.75918 0.14791 0.0
C701 C 0.39239 0.79377 0.47471 0.0
C702 C 0.31737 0.83416 0.68362 0.0
C703 C 0.37413 0.81433 0.67398 0.0
C704 C 0.36862 0.84182 0.70516 0.0
C705 C 0.34 0.85171 0.71022 0.0
N706 N 0.35181 0.79693 0.64919 0.0
C707 C 0.32373 0.8068 0.65272 0.0
Co708 Co 0.50874 0.09026 0.66781 0.0
Co709 Co 0.51335 0.11169 0.8572 0.0
O710 O 0.50605 0.08231 0.77814 0.0
C711 C 0.45307 0.06725 0.6092 0.0
O712 O 0.44855 0.09314 0.57931 0.0
C713 C 0.53415 0.05221 0.92677 0.0
O714 O 0.53029 0.03961 0.86006 0.0
O715 O 0.55251 0.12219 0.80723 0.0
O716 O 0.54116 0.11841 0.68243 0.0
H717 H 0.5445 0.21061 0.94967 0.0
H718 H 0.5095 0.02809 0.71624 0.0
O719 O 0.47561 0.06261 0.65051 0.0
H720 H 0.60642 0.0469 0.60448 0.0
H721 H 0.50948 0.06147 0.38866 0.0
H722 H 0.51511 0.1433 0.57152 0.0
H723 H 0.56821 0.08444 0.59986 0.0
H724 H 0.5077 0.05249 0.5281 0.0
O725 O 0.53167 0.08032 0.93127 0.0
H726 H 0.53357 0.17293 0.85289 0.0
H727 H 0.51 0.11333 0.02886 0.0
H728 H 0.51751 0.1532 0.4326 0.0
H729 H 0.54713 0.98973 0.72061 0.0
H730 H 0.51459 0.11211 0.34008 0.0
H731 H 0.59602 0.99916 0.66589 0.0
O732 O 0.48075 0.12282 0.67807 0.0
H733 H 0.43029 0.04654 0.93997 0.0
H734 H 0.46546 0.1478 0.92215 0.0
H735 H 0.41698 0.13803 0.97679 0.0
H736 H 0.39913 0.08705 0.98667 0.0
H737 H 0.47826 0.05727 0.88457 0.0
H738 H 0.52097 0.15025 0.1275 0.0
H739 H 0.53824 0.19935 0.08813 0.0
O740 O 0.49294 0.14292 0.7914 0.0
C741 C 0.55774 0.12753 0.73571 0.0
C742 C 0.53696 0.18931 0.96755 0.0
C743 C 0.52382 0.15541 0.06736 0.0
N744 N 0.52116 0.14096 0.93509 0.0
C745 C 0.53068 0.1679 0.913 0.0
C746 C 0.5178 0.13453 1.01121 0.0
C747 C 0.53347 0.18297 0.04522 0.0
C748 C 0.53056 0.03217 0.69061 0.0
N749 N 0.53676 0.05873 0.6592 0.0
C750 C 0.55176 0.01037 0.69352 0.0
C751 C 0.57931 0.01576 0.66319 0.0
C752 C 0.58518 0.04255 0.62896 0.0
C753 C 0.56344 0.06378 0.62678 0.0
C754 C 0.51088 0.07955 0.4284 0.0
C755 C 0.51395 0.12529 0.53168 0.0
C756 C 0.50984 0.07461 0.50743 0.0
N757 N 0.51117 0.09738 0.558 0.0
C758 C 0.51531 0.13103 0.45305 0.0
C759 C 0.51369 0.10797 0.40118 0.0
C760 C 0.47908 0.14337 0.72698 0.0
C761 C 0.43796 0.06883 0.9369 0.0
C762 C 0.45802 0.12553 0.92642 0.0
C763 C 0.43047 0.12014 0.95741 0.0
C764 C 0.42046 0.09156 0.96289 0.0
N765 N 0.47538 0.1031 0.90221 0.0
C766 C 0.46539 0.07506 0.90617 0.0
Co767 Co 0.01278 0.92972 0.16489 0.0
Co768 Co 1.00842 0.90873 0.35467 0.0
O769 O 0.01556 0.93795 0.27508 0.0
C770 C 0.06836 0.95265 0.10548 0.0
O771 O 0.07283 0.92673 0.07578 0.0
C772 C 0.98768 0.96833 0.4238 0.0
O773 O 0.99158 0.98089 0.35705 0.0
O774 O 0.96922 0.89806 0.30521 0.0
O775 O 0.98042 0.90156 0.18024 0.0
H776 H 0.97754 0.80998 0.449 0.0
H777 H 0.01191 0.99197 0.21256 0.0
O778 O 0.04585 0.95737 0.14688 0.0
H779 H 0.91501 0.97277 0.10108 0.0
H780 H 0.01171 0.95775 0.88519 0.0
H781 H 1.00639 0.87641 0.06964 0.0
H782 H 0.95329 0.93529 0.09692 0.0
H783 H 0.01363 0.96711 0.02446 0.0
O784 O 0.99014 0.94022 0.42843 0.0
H785 H 0.98828 0.84746 0.35151 0.0
H786 H 0.01203 0.90748 0.52632 0.0
H787 H 1.00385 0.86613 0.93092 0.0
H788 H 0.97418 0.03024 0.2166 0.0
H789 H 1.00661 0.90698 0.83761 0.0
H790 H 0.92529 0.02061 0.16205 0.0
O791 O 0.04085 0.89723 0.17551 0.0
H792 H 0.09157 0.97418 0.43528 0.0
H793 H 0.05644 0.87286 0.41986 0.0
H794 H 0.10501 0.88281 0.47372 0.0
H795 H 0.12284 0.93383 0.48238 0.0
H796 H 0.04351 0.96327 0.38068 0.0
H797 H 1.00126 0.87077 0.62564 0.0
H798 H 0.984 0.82156 0.58721 0.0
O799 O 0.02878 0.87739 0.28924 0.0
C800 C 0.96391 0.89256 0.23381 0.0
C801 C 0.98508 0.83133 0.46647 0.0
C802 C 0.99833 0.86547 0.56561 0.0
N803 N 1.00077 0.87964 0.43309 0.0
C804 C 0.99125 0.85263 0.41152 0.0
C805 C 1.00423 0.88624 0.50907 0.0
C806 C 0.98868 0.83786 0.544 0.0
C807 C 0.99085 0.98779 0.18703 0.0
N808 N 0.9847 0.96117 0.15591 0.0
C809 C 0.96959 1.00954 0.18974 0.0
C810 C 0.94205 1.00405 0.15949 0.0
C811 C 0.93624 0.97719 0.12552 0.0
C812 C 0.95803 0.95601 0.12357 0.0
C813 C 0.01038 0.93978 0.92529 0.0
C814 C 1.00748 0.89431 0.02944 0.0
C815 C 0.01149 0.94493 1.00422 0.0
N816 N 0.01025 0.9223 0.05522 0.0
C817 C 1.00604 0.88836 0.95094 0.0
C818 C 1.00757 0.91128 0.89863 0.0
C819 C 0.04259 0.87679 0.22475 0.0
C820 C 0.0839 0.95188 0.43276 0.0
C821 C 0.06387 0.89514 0.42362 0.0
C822 C 0.09148 0.90063 0.45417 0.0
C823 C 0.10147 0.92924 0.45897 0.0
N824 N 0.04645 0.91748 0.3992 0.0
C825 C 0.05642 0.94555 0.40249 0.0
Co826 Co 0.51243 0.93236 0.46049 0.0
Co827 Co 0.51411 0.91425 0.26868 0.0
O828 O 0.50904 0.9428 0.35143 0.0
C829 C 0.45623 0.96493 0.46047 0.0
O830 O 0.44684 0.951 0.39952 0.0
C831 C 0.53531 0.97399 0.20082 0.0
O832 O 0.53242 0.98635 0.26824 0.0
O833 O 0.55363 0.90192 0.31348 0.0
O834 O 0.54323 0.9033 0.43901 0.0
H835 H 0.54059 0.81581 0.16376 0.0
H836 H 0.51605 0.9949 0.4183 0.0
O837 O 0.48166 0.96082 0.48707 0.0
H838 H 0.61202 0.97051 0.52804 0.0
H839 H 0.51132 0.95312 0.74451 0.0
H840 H 0.51913 0.8769 0.54638 0.0
H841 H 0.57219 0.93448 0.52855 0.0
H842 H 0.51102 0.96621 0.60705 0.0
O843 O 0.53233 0.94595 0.19554 0.0
H844 H 0.53247 0.85244 0.26506 0.0
H845 H 0.50793 0.91503 0.09749 0.0
H846 H 0.52096 0.86313 0.68286 0.0
H847 H 0.55516 0.03188 0.41841 0.0
H848 H 0.51688 0.9014 0.78308 0.0
H849 H 0.60378 0.01942 0.47107 0.0
O850 O 0.48247 0.90168 0.44851 0.0
H851 H 0.43199 0.98288 0.20057 0.0
H852 H 0.46409 0.88048 0.20588 0.0
H853 H 0.41513 0.89234 0.15763 0.0
H854 H 0.39881 0.94391 0.15404 0.0
H855 H 0.48035 0.97004 0.24983 0.0
H856 H 0.51609 0.87918 0.9944 0.0
H857 H 0.53241 0.82911 0.02727 0.0
O858 O 0.49374 0.88263 0.33341 0.0
C859 C 0.55925 0.89503 0.38384 0.0
C860 C 0.53344 0.83755 0.14871 0.0
C861 C 0.51977 0.87313 0.05365 0.0
N862 N 0.51975 0.88586 0.18733 0.0
C863 C 0.52876 0.85837 0.20584 0.0
C864 C 0.51535 0.89341 0.1123 0.0
C865 C 0.52888 0.84503 0.07214 0.0
C866 C 0.53696 0.98955 0.44314 0.0
N867 N 0.542 0.96232 0.47189 0.0
C868 C 0.55904 0.01053 0.4426 0.0
C869 C 0.58636 1.0035 0.47203 0.0
C870 C 0.59103 0.97604 0.50378 0.0
C871 C 0.56839 0.95569 0.50382 0.0
C872 C 0.5135 0.93635 0.70126 0.0
C873 C 0.51793 0.89378 0.58948 0.0
C874 C 0.51315 0.94358 0.62335 0.0
N875 N 0.51523 0.92237 0.56855 0.0
C876 C 0.5188 0.88581 0.66677 0.0
C877 C 0.51649 0.90728 0.72293 0.0
C878 C 0.48011 0.88172 0.3981 0.0
C879 C 0.43899 0.96035 0.20079 0.0
C880 C 0.45732 0.90299 0.20438 0.0
C881 C 0.42949 0.90957 0.17696 0.0
C882 C 0.42035 0.93849 0.17496 0.0
N883 N 0.47577 0.92457 0.22853 0.0
C884 C 0.46667 0.95294 0.22785 0.0
Co885 Co 1.00936 0.08766 0.95777 0.0
Co886 Co 1.00757 0.10617 0.76627 0.0
O887 O 0.01274 0.07746 0.84857 0.0
C888 C 0.06554 0.05504 0.95707 0.0
O889 O 0.0749 0.06902 0.89617 0.0
C890 C 0.98641 0.04652 0.69787 0.0
O891 O 0.98926 0.03412 0.76524 0.0
O892 O 0.96804 0.11829 0.81133 0.0
O893 O 0.97853 0.11677 0.93678 0.0
H894 H 0.98082 0.20478 0.66289 0.0
H895 H 1.00579 0.02518 0.91491 0.0
O896 O 0.04015 0.05917 0.98388 0.0
H897 H 0.90979 0.04933 0.02476 0.0
H898 H 0.01062 0.06627 0.24144 0.0
H899 H 1.00266 0.14294 0.04452 0.0
H900 H 0.94959 0.0854 0.02569 0.0
H901 H 0.01083 0.05349 0.10378 0.0
O902 O 0.9894 0.07457 0.69273 0.0
H903 H 0.98907 0.16794 0.76362 0.0
H904 H 0.01366 0.10577 0.59505 0.0
H905 H 1.00092 0.1564 0.18123 0.0
H906 H 0.96673 0.98816 0.91467 0.0
H907 H 1.00508 0.11791 0.28083 0.0
H908 H 0.9181 1.00049 0.96741 0.0
O909 O 0.0393 0.11837 0.94616 0.0
H910 H 0.08976 0.03789 0.6965 0.0
H911 H 0.0575 0.14021 0.70399 0.0
H912 H 0.10644 0.12858 0.65528 0.0
H913 H 0.12284 0.07704 0.65058 0.0
H914 H 0.04141 0.0505 0.74625 0.0
H915 H 1.00538 0.14183 0.49252 0.0
H916 H 0.98897 0.19179 0.52619 0.0
O917 O 0.02789 0.1377 0.83146 0.0
C918 C 0.96244 0.12507 0.88178 0.0
C919 C 0.988 0.18309 0.6475 0.0
C920 C 1.00172 0.14774 0.55187 0.0
N921 N 1.00183 0.13472 0.68536 0.0
C922 C 0.99276 0.16215 0.7043 0.0
C923 C 1.00621 0.12735 0.6102 0.0
C924 C 0.99255 0.17578 0.57081 0.0
C925 C 0.98488 0.03048 0.93979 0.0
N926 N 0.97981 0.05767 0.96879 0.0
C927 C 0.96283 1.00947 0.93905 0.0
C928 C 0.93549 0.01643 0.96852 0.0
C929 C 0.93079 0.04386 1.00048 0.0
C930 C 0.95341 0.06422 1.00074 0.0
C931 C 1.00841 0.08314 0.19846 0.0
C932 C 1.0039 0.12595 0.08736 0.0
C933 C 1.0087 0.07608 0.12044 0.0
N934 N 1.00659 0.09742 0.06597 0.0
C935 C 1.00308 0.13375 0.16477 0.0
C936 C 1.00543 0.11216 0.2206 0.0
C937 C 0.04158 0.13847 0.8961 0.0
C938 C 0.08273 0.0604 0.69721 0.0
C939 C 0.06431 0.11772 0.70203 0.0
C940 C 0.09213 0.11126 0.67434 0.0
C941 C 0.10131 0.08237 0.67173 0.0
N942 N 0.04591 0.09604 0.72586 0.0
C943 C 0.05506 0.06769 0.72456 0.0
C944 C 0.12053 0.67979 0.23349 0.0
C945 C 0.12525 0.68554 0.15425 0.0
H946 H 0.09651 0.65641 0.31998 0.0
C947 C 0.10942 0.66877 0.10139 0.0
H948 H 0.13211 0.69198 0.27701 0.0
C949 C 0.08891 0.64797 0.1269 0.0
C950 C 0.08333 0.6432 0.20622 0.0
H951 H 0.11212 0.67236 0.04038 0.0
H952 H 0.07671 0.6362 0.08368 0.0
C953 C 0.1 0.65913 0.25892 0.0
C954 C 0.59018 0.87034 0.48584 0.0
C955 C 0.58404 0.87518 0.40681 0.0
H956 H 0.61374 0.84587 0.57127 0.0
C957 C 0.59997 0.85894 0.35326 0.0
H958 H 0.57853 0.8822 0.52981 0.0
C959 C 0.62036 0.83796 0.3778 0.0
C960 C 0.62569 0.83235 0.45688 0.0
H961 H 0.59598 0.86165 0.29242 0.0
H962 H 0.63136 0.82548 0.33386 0.0
C963 C 0.61058 0.84937 0.51038 0.0
C964 C 0.42153 0.36073 0.75914 0.0
C965 C 0.43826 0.37655 0.70637 0.0
H966 H 0.38933 0.32798 0.77735 0.0
C967 C 0.43271 0.37171 0.62707 0.0
H968 H 0.42499 0.3635 0.82019 0.0
C969 C 0.41216 0.35094 0.60164 0.0
C970 C 0.39628 0.33427 0.65457 0.0
H971 H 0.44496 0.3834 0.58381 0.0
H972 H 0.4095 0.34728 0.54065 0.0
C973 C 0.40096 0.34009 0.73379 0.0
C974 C 0.901 0.18178 0.87638 0.0
C975 C 0.89575 0.18738 0.9555 0.0
H976 H 0.92538 0.15824 0.79076 0.0
C977 C 0.91106 0.17046 1.00887 0.0
H978 H 0.88985 0.19418 0.83253 0.0
C979 C 0.93156 0.14962 0.98413 0.0
C980 C 0.9376 0.14481 0.90504 0.0
H981 H 0.90799 0.17396 0.06979 0.0
H982 H 0.94335 0.13783 0.02798 0.0
C983 C 0.92149 0.16094 0.85164 0.0
C984 C 0.08867 0.36705 0.98303 0.0
C985 C 0.08324 0.37177 0.90362 0.0
H986 H 0.11174 0.34313 0.07022 0.0
C987 C 0.10012 0.35586 0.85127 0.0
H988 H 0.07633 0.37863 0.02622 0.0
C989 C 0.12075 0.33532 0.8774 0.0
C990 C 0.1253 0.32985 0.95687 0.0
H991 H 0.09675 0.35852 0.79016 0.0
H992 H 0.13259 0.32304 0.83452 0.0
C993 C 0.10922 0.34655 1.00908 0.0
C994 C 0.93372 0.86886 0.12849 0.0
C995 C 0.9389 0.87339 0.20805 0.0
H996 H 0.91084 0.84498 0.04062 0.0
C997 C 0.92168 0.85755 0.25984 0.0
H998 H 0.94629 0.88055 0.08587 0.0
C999 C 0.90099 0.83719 0.23315 0.0
C1000 C 0.89676 0.8317 0.15362 0.0
H1001 H 0.92482 0.86012 0.32106 0.0
H1002 H 0.88888 0.82502 0.27577 0.0
C1003 C 0.91314 0.84839 0.10181 0.0
C1004 C 0.41207 0.67319 0.50889 0.0
C1005 C 0.39625 0.69014 0.45667 0.0
H1006 H 0.44467 0.64084 0.52607 0.0
C1007 C 0.40095 0.68483 0.37719 0.0
H1008 H 0.40942 0.67648 0.57004 0.0
C1009 C 0.4215 0.66419 0.35108 0.0
C1010 C 0.43813 0.64803 0.40347 0.0
H1011 H 0.38931 0.69729 0.33432 0.0
H1012 H 0.42501 0.66166 0.28999 0.0
C1013 C 0.43253 0.6526 0.48286 0.0
C1014 C 0.60835 0.17141 0.60259 0.0
C1015 C 0.62484 0.18817 0.65401 0.0
H1016 H 0.57514 0.13925 0.58742 0.0
C1017 C 0.62073 0.18283 0.73366 0.0
H1018 H 0.61056 0.17471 0.54133 0.0
C1019 C 0.60005 0.16254 0.76082 0.0
C1020 C 0.58273 0.14662 0.70943 0.0
H1021 H 0.63292 0.19505 0.77599 0.0
H1022 H 0.59701 0.16008 0.82211 0.0
C1023 C 0.58779 0.151 0.62975 0.0
C1024 C 0.94376 0.33851 0.85212 0.0
C1025 C 0.95854 0.35389 0.91003 0.0
H1026 H 0.91042 0.3075 0.82415 0.0
C1027 C 0.95199 0.34685 0.98709 0.0
H1028 H 0.94808 0.34311 0.79236 0.0
C1029 C 0.9309 0.32566 1.00562 0.0
C1030 C 0.91498 0.31146 0.94772 0.0
H1031 H 0.96289 0.35807 0.03359 0.0
H1032 H 0.92632 0.32132 0.06539 0.0
C1033 C 0.92204 0.31799 0.87065 0.0
C1034 C 0.44448 0.1842 0.7638 0.0
C1035 C 0.45931 0.16835 0.70698 0.0
H1036 H 0.41121 0.21549 0.78951 0.0
C1037 C 0.45308 0.17491 0.62942 0.0
H1038 H 0.44851 0.1799 0.82388 0.0
C1039 C 0.43217 0.19602 0.60939 0.0
C1040 C 0.41612 0.21064 0.66624 0.0
H1041 H 0.46402 0.16327 0.58373 0.0
H1042 H 0.42775 0.19992 0.54931 0.0
C1043 C 0.42294 0.20467 0.74378 0.0
C1044 C 0.57768 0.68113 0.35274 0.0
C1045 C 0.56277 0.66583 0.41057 0.0
H1046 H 0.61113 0.71203 0.32496 0.0
C1047 C 0.5692 0.67294 0.48767 0.0
H1048 H 0.57345 0.67647 0.29296 0.0
C1049 C 0.5903 0.6941 0.5063 0.0
C1050 C 0.60635 0.7082 0.44851 0.0
H1051 H 0.55818 0.66179 0.5341 0.0
H1052 H 0.59478 0.6985 0.56611 0.0
C1053 C 0.59941 0.70162 0.3714 0.0
C1054 C 0.09862 0.81543 0.24243 0.0
C1055 C 0.10545 0.80932 0.16498 0.0
H1056 H 0.07308 0.84038 0.32215 0.0
C1057 C 0.08946 0.82388 0.10791 0.0
H1058 H 0.11031 0.80467 0.28831 0.0
C1059 C 0.06859 0.84507 0.12763 0.0
C1060 C 0.06234 0.85177 0.20508 0.0
H1061 H 0.09388 0.81987 0.0479 0.0
H1062 H 0.05768 0.85664 0.08176 0.0
C1063 C 0.07712 0.83599 0.26214 0.0
C1064 C 0.95485 0.6722 0.12253 0.0
C1065 C 0.96083 0.66563 0.20021 0.0
H1066 H 0.93004 0.69747 0.04193 0.0
C1067 C 0.94627 0.68189 0.25674 0.0
H1068 H 0.9656 0.66027 0.07705 0.0
C1069 C 0.92518 0.70275 0.2363 0.0
C1070 C 0.91857 0.70868 0.15863 0.0
H1071 H 0.95015 0.67761 0.31691 0.0
H1072 H 0.91357 0.71384 0.28178 0.0
C1073 C 0.93438 0.69367 0.10208 0.0
C1074 C 0.07618 0.17924 0.85799 0.0
C1075 C 0.06146 0.16349 0.91531 0.0
H1076 H 0.10917 0.21078 0.83136 0.0
C1077 C 0.06759 0.17048 0.99264 0.0
H1078 H 0.07215 0.17468 0.79805 0.0
C1079 C 0.08828 0.19193 0.01201 0.0
C1080 C 0.1042 0.20648 0.95474 0.0
H1081 H 0.05671 0.15898 0.0387 0.0
H1082 H 0.09265 0.19614 0.07197 0.0
C1083 C 0.09751 0.20005 0.87739 0.0
C1084 C 0.58711 0.32613 0.60167 0.0
C1085 C 0.60297 0.3111 0.65811 0.0
H1086 H 0.5559 0.35955 0.57685 0.0
C1087 C 0.59642 0.31702 0.73582 0.0
H1088 H 0.59141 0.32234 0.54149 0.0
C1089 C 0.57535 0.33789 0.75641 0.0
C1090 C 0.56076 0.35416 0.69998 0.0
H1091 H 0.60807 0.30592 0.78122 0.0
H1092 H 0.57153 0.34216 0.8166 0.0
C1093 C 0.56667 0.34761 0.62226 0.0
C1094 C 0.43338 0.82801 0.51312 0.0
C1095 C 0.41742 0.81364 0.4556 0.0
H1096 H 0.46502 0.86083 0.54036 0.0
C1097 C 0.42406 0.8203 0.37836 0.0
H1098 H 0.42905 0.82362 0.573 0.0
C1099 C 0.44541 0.84114 0.35932 0.0
C1100 C 0.46019 0.85669 0.4169 0.0
H1101 H 0.41236 0.80971 0.33216 0.0
H1102 H 0.44941 0.84586 0.29946 0.0
C1103 C 0.45409 0.84948 0.49411 0.0
C1104 C 0.93539 0.53864 0.9864 0.0
C1105 C 0.9396 0.5392 0.06639 0.0
H1106 H 0.93656 0.51207 0.88518 0.0
C1107 C 0.93846 0.51304 0.10777 0.0
H1108 H 0.93626 0.55858 0.95317 0.0
C1109 C 0.9381 0.48656 0.06884 0.0
C1110 C 0.93922 0.48606 0.98835 0.0
H1111 H 0.9415 0.51298 0.16945 0.0
H1112 H 0.94119 0.46668 0.10146 0.0
C1113 C 0.93536 0.51201 0.94728 0.0
C1114 C 0.79162 0.68386 0.37191 0.0
C1115 C 0.79224 0.68816 0.29196 0.0
H1116 H 0.76499 0.68496 0.47303 0.0
C1117 C 0.7661 0.68714 0.25046 0.0
H1118 H 0.81154 0.68464 0.40524 0.0
C1119 C 0.7396 0.68681 0.28927 0.0
C1120 C 0.73905 0.68783 0.36976 0.0
H1121 H 0.76608 0.69024 0.1888 0.0
H1122 H 0.71974 0.68998 0.25659 0.0
C1123 C 0.76497 0.68385 0.41091 0.0
C1124 C 0.58331 0.53333 0.56924 0.0
C1125 C 0.5822 0.53387 0.48875 0.0
H1126 H 0.57995 0.50687 0.66975 0.0
C1127 C 0.58613 0.50794 0.4476 0.0
H1128 H 0.58017 0.5532 0.60189 0.0
C1129 C 0.58615 0.48129 0.48663 0.0
C1130 C 0.58192 0.48069 0.56661 0.0
H1131 H 0.58494 0.50792 0.38549 0.0
H1132 H 0.58531 0.46138 0.45331 0.0
C1133 C 0.583 0.50683 0.60808 0.0
C1134 C 0.75667 0.33616 0.90928 0.0
C1135 C 0.78259 0.33203 0.86826 0.0
H1136 H 0.7101 0.33555 0.90344 0.0
C1137 C 0.78209 0.33301 0.78776 0.0
H1138 H 0.75662 0.33508 0.9714 0.0
C1139 C 0.75561 0.33276 0.74883 0.0
C1140 C 0.72945 0.33186 0.79022 0.0
H1141 H 0.80196 0.32975 0.7552 0.0
H1142 H 0.75566 0.32961 0.68719 0.0
C1143 C 0.73004 0.33624 0.87016 0.0
C1144 C 0.23189 0.18311 0.74021 0.0
C1145 C 0.2312 0.18737 0.82017 0.0
H1146 H 0.25845 0.18492 0.63904 0.0
C1147 C 0.25737 0.18697 0.86161 0.0
H1148 H 0.21194 0.18344 0.70693 0.0
C1149 C 0.28386 0.18733 0.82274 0.0
C1150 C 0.28436 0.18839 0.74225 0.0
H1151 H 0.25734 0.19006 0.92327 0.0
H1152 H 0.30365 0.19098 0.85537 0.0
C1153 C 0.25852 0.18378 0.70115 0.0
C1154 C 0.26414 0.83289 0.36137 0.0
C1155 C 0.29035 0.83258 0.32012 0.0
H1156 H 0.21787 0.82874 0.35483 0.0
C1157 C 0.28972 0.83682 0.24014 0.0
H1158 H 0.26412 0.82981 0.42303 0.0
C1159 C 0.26312 0.83606 0.20089 0.0
C1160 C 0.23726 0.83139 0.24183 0.0
H1161 H 0.30969 0.83656 0.20699 0.0
H1162 H 0.26324 0.83493 0.13878 0.0
C1163 C 0.23768 0.83244 0.32232 0.0
C1164 C 0.43518 0.01433 0.45518 0.0
C1165 C 0.43963 0.98846 0.49619 0.0
H1166 H 0.43527 0.0609 0.46101 0.0
C1167 C 0.4387 0.98894 0.57669 0.0
H1168 H 0.4362 0.01439 0.39305 0.0
C1169 C 0.43866 0.01542 0.61561 0.0
C1170 C 0.43924 0.04159 0.57421 0.0
H1171 H 0.44223 0.96911 0.60923 0.0
H1172 H 0.44186 0.01541 0.67724 0.0
C1173 C 0.43482 0.04096 0.4943 0.0
C1174 C 0.0863 1.00553 0.95136 0.0
C1175 C 0.08212 0.03142 0.99248 0.0
H1176 H 0.08588 0.95896 0.95708 0.0
C1177 C 0.08318 0.0309 0.07297 0.0
H1178 H 0.08516 1.0055 0.88924 0.0
C1179 C 0.08307 1.0044 0.11182 0.0
C1180 C 0.08225 0.97825 0.07036 0.0
H1181 H 0.07985 0.05074 0.1056 0.0
H1182 H 0.07998 1.00442 0.17348 0.0
C1183 C 0.08653 0.97889 0.9904 0.0
C1184 C 0.03798 0.4791 0.54873 0.0
C1185 C 0.03791 0.49005 0.62435 0.0
H1186 H 0.03718 0.48822 0.42761 0.0
C1187 C 0.0382 0.52089 0.63194 0.0
H1188 H 0.0376 0.45579 0.53914 0.0
C1189 C 0.03785 0.53981 0.56732 0.0
C1190 C 0.03727 0.52884 0.49172 0.0
H1191 H 0.03801 0.53066 0.6885 0.0
H1192 H 0.03736 0.56312 0.57688 0.0
C1193 C 0.03772 0.49801 0.48414 0.0
C1194 C 0.79345 0.78619 0.79138 0.0
C1195 C 0.78248 0.78582 0.86699 0.0
H1196 H 0.7843 0.78605 0.67019 0.0
C1197 C 0.75164 0.78631 0.87456 0.0
H1198 H 0.81676 0.78565 0.78184 0.0
C1199 C 0.73274 0.78643 0.80996 0.0
C1200 C 0.74369 0.78616 0.73434 0.0
H1201 H 0.74185 0.78593 0.93108 0.0
H1202 H 0.70943 0.7861 0.81954 0.0
C1203 C 0.77453 0.7864 0.72675 0.0
C1204 C 0.48331 0.49884 0.13204 0.0
C1205 C 0.48357 0.52968 0.12445 0.0
H1206 H 0.48421 0.45661 0.07697 0.0
C1207 C 0.48353 0.54063 0.04883 0.0
H1208 H 0.48349 0.48907 0.1886 0.0
C1209 C 0.48383 0.52172 0.98424 0.0
C1210 C 0.4843 0.49089 0.99181 0.0
H1211 H 0.48389 0.56394 0.03925 0.0
H1212 H 0.48438 0.53151 0.92772 0.0
C1213 C 0.48371 0.47992 0.06741 0.0
C1214 C 0.78854 0.23313 0.3088 0.0
C1215 C 0.77757 0.23345 0.23319 0.0
H1216 H 0.77945 0.23359 0.42993 0.0
C1217 C 0.74673 0.23327 0.22564 0.0
H1218 H 0.81185 0.23341 0.31836 0.0
C1219 C 0.72783 0.23348 0.2903 0.0
C1220 C 0.73881 0.2338 0.36591 0.0
H1221 H 0.73695 0.23366 0.1691 0.0
H1222 H 0.70451 0.23407 0.28079 0.0
C1223 C 0.76965 0.23325 0.37342 0.0
C1224 C 0.28989 0.28652 0.30072 0.0
C1225 C 0.27892 0.2866 0.37632 0.0
H1226 H 0.2808 0.28539 0.17961 0.0
C1227 C 0.24808 0.28681 0.38386 0.0
H1228 H 0.3132 0.28618 0.29119 0.0
C1229 C 0.22917 0.28624 0.3192 0.0
C1230 C 0.24016 0.28552 0.24363 0.0
H1231 H 0.2383 0.28673 0.4404 0.0
H1232 H 0.20586 0.2857 0.32873 0.0
C1233 C 0.271 0.28604 0.2361 0.0
C1234 C 0.29239 0.73351 0.819 0.0
C1235 C 0.28142 0.73426 0.74341 0.0
H1236 H 0.28325 0.73296 0.94018 0.0
C1237 C 0.25059 0.73372 0.73583 0.0
H1238 H 0.31571 0.73406 0.82857 0.0
C1239 C 0.23168 0.7332 0.80041 0.0
C1240 C 0.24264 0.73309 0.87602 0.0
H1241 H 0.24079 0.73439 0.67932 0.0
H1242 H 0.20837 0.73352 0.79083 0.0
C1243 C 0.27348 0.73289 0.88362 0.0
C1244 C 0.53816 0.98283 0.05455 0.0
C1245 C 0.53803 0.99378 0.13017 0.0
H1246 H 0.53746 0.99195 0.93344 0.0
C1247 C 0.53831 0.02462 0.13778 0.0
H1248 H 0.5378 0.95952 0.04495 0.0
C1249 C 0.538 0.04354 0.07315 0.0
C1250 C 0.53749 0.03257 0.99754 0.0
H1251 H 0.53807 0.03438 0.19434 0.0
H1252 H 0.53749 0.06685 0.08271 0.0
C1253 C 0.53795 1.00174 0.98996 0.0
C1254 C 0.98333 0.99593 0.63473 0.0
C1255 C 0.98372 0.02676 0.62715 0.0
H1256 H 0.98408 0.9537 0.57966 0.0
C1257 C 0.98374 0.03772 0.55153 0.0
H1258 H 0.98345 0.98616 0.69128 0.0
C1259 C 0.98399 0.01882 0.48693 0.0
C1260 C 0.98433 0.98798 0.4945 0.0
H1261 H 0.9842 0.06103 0.54196 0.0
H1262 H 0.9846 0.02861 0.43042 0.0
C1263 C 0.98367 0.97701 0.5701 0.0
loop_
_geom_bond_atom_site_label_1
_geom_bond_atom_site_label_2
_geom_bond_distance
_geom_bond_site_symmetry_2
_ccdc_geom_bond_type
Co0 O2 2.143 . S
Co0 O8 2.074 . S
Co0 O11 2.093 1_455 S
Co0 O24 2.097 1_455 S
Co0 N41 2.151 . S
Co0 N49 2.214 . S
Co1 O2 2.160 1_655 S
Co1 O7 2.058 1_655 S
Co1 O17 2.057 1_655 S
Co1 O32 2.037 . S
Co1 N36 2.145 . S
Co1 N57 2.257 . S
O2 Co0 2.143 . S
O2 Co1 2.160 1_455 S
C3 O4 1.278 . S
C3 O11 1.224 . S
O4 C3 1.278 . S
C5 O6 1.245 . S
C5 O17 1.232 . S
O6 C5 1.245 . S
O7 Co1 2.058 1_455 S
O7 C33 1.269 . S
O8 Co0 2.074 . S
O8 C33 1.257 . S
H9 C34 0.930 . S
H10 C40 0.930 . S
O11 Co0 2.093 1_655 S
O11 C3 1.224 . S
H12 C44 0.929 . S
H13 C46 0.930 . S
H14 C47 0.930 . S
H15 C45 0.929 . S
H16 C48 0.928 . S
O17 Co1 2.057 1_455 S
O17 C5 1.232 . S
H18 C37 0.929 . S
H19 C38 0.929 . S
H20 C50 0.931 . S
H21 C42 0.929 . S
H22 C51 0.930 . S
H23 C43 0.931 . S
O24 Co0 2.097 1_655 S
O24 C52 1.214 . S
H25 C53 0.929 . S
H26 C54 0.929 . S
H27 C55 0.930 . S
H28 C56 0.929 . S
H29 C58 0.930 . S
H30 C35 0.930 . S
H31 C39 0.930 . S
O32 Co1 2.037 . S
O32 C52 1.234 . S
C33 O7 1.269 . S
C33 O8 1.257 . S
C34 H9 0.930 . S
C34 C37 1.388 . S
C34 C39 1.418 . S
C35 H30 0.930 . S
C35 C38 1.404 . S
C35 C39 1.353 . S
N36 Co1 2.145 . S
N36 C37 1.397 . S
N36 C38 1.334 . S
C37 H18 0.929 . S
C37 C34 1.388 . S
C37 N36 1.397 . S
C38 H19 0.929 . S
C38 C35 1.404 . S
C38 N36 1.334 . S
C39 H31 0.930 . S
C39 C34 1.418 . S
C39 C35 1.353 . S
C40 H10 0.930 . S
C40 N41 1.330 . S
C40 C42 1.446 . S
N41 Co0 2.151 . S
N41 C40 1.330 . S
N41 C45 1.418 . S
C42 H21 0.929 . S
C42 C40 1.446 . S
C42 C43 1.332 . S
C43 H23 0.931 . S
C43 C42 1.332 . S
C43 C44 1.267 . S
C44 H12 0.929 . S
C44 C43 1.267 . S
C44 C45 1.251 . S
C45 H15 0.929 . S
C45 N41 1.418 . S
C45 C44 1.251 . S
C46 H13 0.930 . S
C46 C48 1.406 . S
C46 C51 1.261 . S
C47 H14 0.930 . S
C47 N49 1.325 . S
C47 C50 1.357 1_554 S
C48 H16 0.928 . S
C48 C46 1.406 . S
C48 N49 1.261 1_556 S
N49 Co0 2.214 . S
N49 C47 1.325 . S
N49 C48 1.261 1_554 S
C50 H20 0.931 . S
C50 C47 1.357 1_556 S
C50 C51 1.312 . S
C51 H22 0.930 . S
C51 C46 1.261 . S
C51 C50 1.312 . S
C52 O24 1.214 . S
C52 O32 1.234 . S
C53 H25 0.929 . S
C53 C56 1.391 . S
C53 C58 1.391 . S
C54 H26 0.929 . S
C54 C55 1.390 . S
C54 N57 1.391 . S
C55 H27 0.930 . S
C55 C54 1.390 . S
C55 C56 1.392 . S
C56 H28 0.929 . S
C56 C53 1.391 . S
C56 C55 1.392 . S
N57 Co1 2.257 . S
N57 C54 1.391 . S
N57 C58 1.388 . S
C58 H29 0.930 . S
C58 C53 1.391 . S
C58 N57 1.388 . S
Co59 O61 2.143 . S
Co59 O67 2.074 . S
Co59 O70 2.093 . S
Co59 O83 2.097 . S
Co59 N100 2.151 . S
Co59 N108 2.214 . S
Co60 O61 2.160 . S
Co60 O66 2.058 . S
Co60 O76 2.057 . S
Co60 O91 2.037 . S
Co60 N95 2.145 . S
Co60 N116 2.257 . S
O61 Co59 2.143 . S
O61 Co60 2.160 . S
C62 O63 1.278 . S
C62 O70 1.224 . S
O63 C62 1.278 . S
C64 O65 1.245 . S
C64 O76 1.232 . S
O65 C64 1.245 . S
O66 Co60 2.058 . S
O66 C92 1.269 . S
O67 Co59 2.074 . S
O67 C92 1.257 . S
H68 C93 0.930 . S
H69 C99 0.930 . S
O70 Co59 2.093 . S
O70 C62 1.224 . S
H71 C103 0.929 . S
H72 C105 0.930 . S
H73 C106 0.930 . S
H74 C104 0.929 . S
H75 C107 0.928 . S
O76 Co60 2.057 . S
O76 C64 1.232 . S
H77 C96 0.929 . S
H78 C97 0.929 . S
H79 C109 0.931 . S
H80 C101 0.929 . S
H81 C110 0.930 . S
H82 C102 0.931 . S
O83 Co59 2.097 . S
O83 C111 1.214 . S
H84 C112 0.929 . S
H85 C113 0.929 . S
H86 C114 0.930 . S
H87 C115 0.929 . S
H88 C117 0.930 . S
H89 C94 0.930 . S
H90 C98 0.930 . S
O91 Co60 2.037 . S
O91 C111 1.234 . S
C92 O66 1.269 . S
C92 O67 1.257 . S
C93 H68 0.930 . S
C93 C96 1.388 . S
C93 C98 1.418 . S
C94 H89 0.930 . S
C94 C97 1.404 . S
C94 C98 1.353 . S
N95 Co60 2.145 . S
N95 C96 1.397 . S
N95 C97 1.334 . S
C96 H77 0.929 . S
C96 C93 1.388 . S
C96 N95 1.397 . S
C97 H78 0.929 . S
C97 C94 1.404 . S
C97 N95 1.334 . S
C98 H90 0.930 . S
C98 C93 1.418 . S
C98 C94 1.353 . S
C99 H69 0.930 . S
C99 N100 1.330 . S
C99 C101 1.446 . S
N100 Co59 2.151 . S
N100 C99 1.330 . S
N100 C104 1.418 . S
C101 H80 0.929 . S
C101 C99 1.446 . S
C101 C102 1.332 . S
C102 H82 0.931 . S
C102 C101 1.332 . S
C102 C103 1.267 . S
C103 H71 0.929 . S
C103 C102 1.267 . S
C103 C104 1.251 . S
C104 H74 0.929 . S
C104 N100 1.418 . S
C104 C103 1.251 . S
C105 H72 0.930 . S
C105 C107 1.406 . S
C105 C110 1.261 . S
C106 H73 0.930 . S
C106 N108 1.325 . S
C106 C109 1.357 . S
C107 H75 0.928 . S
C107 C105 1.406 . S
C107 N108 1.261 . S
N108 Co59 2.214 . S
N108 C106 1.325 . S
N108 C107 1.261 . S
C109 H79 0.931 . S
C109 C106 1.357 . S
C109 C110 1.312 . S
C110 H81 0.930 . S
C110 C105 1.261 . S
C110 C109 1.312 . S
C111 O83 1.214 . S
C111 O91 1.234 . S
C112 H84 0.929 . S
C112 C115 1.391 . S
C112 C117 1.391 . S
C113 H85 0.929 . S
C113 C114 1.390 . S
C113 N116 1.391 . S
C114 H86 0.930 . S
C114 C113 1.390 . S
C114 C115 1.392 . S
C115 H87 0.929 . S
C115 C112 1.391 . S
C115 C114 1.392 . S
N116 Co60 2.257 . S
N116 C113 1.391 . S
N116 C117 1.388 . S
C117 H88 0.930 . S
C117 C112 1.391 . S
C117 N116 1.388 . S
Co118 O120 2.143 . S
Co118 O126 2.074 . S
Co118 O129 2.093 . S
Co118 O142 2.097 . S
Co118 N159 2.151 . S
Co118 N167 2.214 . S
Co119 O120 2.160 . S
Co119 O125 2.058 . S
Co119 O135 2.057 . S
Co119 O150 2.037 . S
Co119 N154 2.145 . S
Co119 N175 2.257 . S
O120 Co118 2.143 . S
O120 Co119 2.160 . S
C121 O122 1.278 . S
C121 O129 1.224 . S
O122 C121 1.278 . S
C123 O124 1.245 . S
C123 O135 1.232 . S
O124 C123 1.245 . S
O125 Co119 2.058 . S
O125 C151 1.269 . S
O126 Co118 2.074 . S
O126 C151 1.257 . S
H127 C152 0.930 . S
H128 C158 0.930 . S
O129 Co118 2.093 . S
O129 C121 1.224 . S
H130 C162 0.929 . S
H131 C164 0.930 . S
H132 C165 0.930 . S
H133 C163 0.929 . S
H134 C166 0.928 . S
O135 Co119 2.057 . S
O135 C123 1.232 . S
H136 C155 0.929 . S
H137 C156 0.931 . S
H138 C168 0.931 . S
H139 C160 0.929 . S
H140 C169 0.930 . S
H141 C161 0.931 . S
O142 Co118 2.097 . S
O142 C170 1.214 . S
H143 C171 0.929 . S
H144 C172 0.929 . S
H145 C173 0.930 . S
H146 C174 0.929 . S
H147 C176 0.930 . S
H148 C153 0.930 . S
H149 C157 0.930 . S
O150 Co119 2.037 . S
O150 C170 1.234 . S
C151 O125 1.269 . S
C151 O126 1.257 . S
C152 H127 0.930 . S
C152 C155 1.388 . S
C152 C157 1.418 1_556 S
C153 H148 0.930 . S
C153 C156 1.409 . S
C153 C157 1.353 . S
N154 Co119 2.145 . S
N154 C155 1.397 . S
N154 C156 1.327 1_556 S
C155 H136 0.929 . S
C155 C152 1.388 . S
C155 N154 1.397 . S
C156 H137 0.931 . S
C156 C153 1.409 . S
C156 N154 1.327 1_554 S
C157 H149 0.930 . S
C157 C152 1.418 1_554 S
C157 C153 1.353 . S
C158 H128 0.930 . S
C158 N159 1.330 . S
C158 C160 1.446 . S
N159 Co118 2.151 . S
N159 C158 1.330 . S
N159 C163 1.418 . S
C160 H139 0.929 . S
C160 C158 1.446 . S
C160 C161 1.332 . S
C161 H141 0.931 . S
C161 C160 1.332 . S
C161 C162 1.267 . S
C162 H130 0.929 . S
C162 C161 1.267 . S
C162 C163 1.251 . S
C163 H133 0.929 . S
C163 N159 1.418 . S
C163 C162 1.251 . S
C164 H131 0.930 . S
C164 C166 1.406 . S
C164 C169 1.261 . S
C165 H132 0.930 . S
C165 N167 1.325 . S
C165 C168 1.357 . S
C166 H134 0.928 . S
C166 C164 1.406 . S
C166 N167 1.261 . S
N167 Co118 2.214 . S
N167 C165 1.325 . S
N167 C166 1.261 . S
C168 H138 0.931 . S
C168 C165 1.357 . S
C168 C169 1.312 . S
C169 H140 0.930 . S
C169 C164 1.261 . S
C169 C168 1.312 . S
C170 O142 1.214 . S
C170 O150 1.234 . S
C171 H143 0.929 . S
C171 C174 1.391 . S
C171 C176 1.391 . S
C172 H144 0.929 . S
C172 C173 1.390 . S
C172 N175 1.391 . S
C173 H145 0.930 . S
C173 C172 1.390 . S
C173 C174 1.392 . S
C174 H146 0.929 . S
C174 C171 1.391 . S
C174 C173 1.392 . S
N175 Co119 2.257 . S
N175 C172 1.391 . S
N175 C176 1.388 . S
C176 H147 0.930 . S
C176 C171 1.391 . S
C176 N175 1.388 . S
Co177 O179 2.143 1_556 S
Co177 O185 2.074 . S
Co177 O188 2.093 . S
Co177 O201 2.097 . S
Co177 N218 2.151 . S
Co177 N226 2.214 . S
Co178 O179 2.160 . S
Co178 O184 2.058 . S
Co178 O194 2.057 . S
Co178 O209 2.037 . S
Co178 N213 2.145 . S
Co178 N234 2.257 . S
O179 Co177 2.143 1_554 S
O179 Co178 2.160 . S
C180 O181 1.278 . S
C180 O188 1.224 . S
O181 C180 1.278 . S
C182 O183 1.245 . S
C182 O194 1.232 . S
O183 C182 1.245 . S
O184 Co178 2.058 . S
O184 C210 1.269 . S
O185 Co177 2.074 . S
O185 C210 1.257 1_556 S
H186 C211 0.930 . S
H187 C217 0.930 . S
O188 Co177 2.093 . S
O188 C180 1.224 . S
H189 C221 0.929 . S
H190 C223 0.930 . S
H191 C224 0.930 . S
H192 C222 0.929 . S
H193 C225 0.928 . S
O194 Co178 2.057 . S
O194 C182 1.232 . S
H195 C214 0.929 . S
H196 C215 0.929 . S
H197 C227 0.931 . S
H198 C219 0.929 . S
H199 C228 0.930 . S
H200 C220 0.931 . S
O201 Co177 2.097 . S
O201 C229 1.214 . S
H202 C230 0.929 . S
H203 C231 0.929 . S
H204 C232 0.930 . S
H205 C233 0.929 . S
H206 C235 0.930 . S
H207 C212 0.930 . S
H208 C216 0.930 . S
O209 Co178 2.037 . S
O209 C229 1.234 1_554 S
C210 O184 1.269 . S
C210 O185 1.257 1_554 S
C211 H186 0.930 . S
C211 C214 1.388 . S
C211 C216 1.418 . S
C212 H207 0.930 . S
C212 C215 1.404 . S
C212 C216 1.353 . S
N213 Co178 2.145 . S
N213 C214 1.397 . S
N213 C215 1.334 . S
C214 H195 0.929 . S
C214 C211 1.388 . S
C214 N213 1.397 . S
C215 H196 0.929 . S
C215 C212 1.404 . S
C215 N213 1.334 . S
C216 H208 0.930 . S
C216 C211 1.418 . S
C216 C212 1.353 . S
C217 H187 0.930 . S
C217 N218 1.330 . S
C217 C219 1.446 . S
N218 Co177 2.151 . S
N218 C217 1.330 . S
N218 C222 1.418 . S
C219 H198 0.929 . S
C219 C217 1.446 . S
C219 C220 1.332 . S
C220 H200 0.931 . S
C220 C219 1.332 . S
C220 C221 1.267 . S
C221 H189 0.929 . S
C221 C220 1.267 . S
C221 C222 1.251 . S
C222 H192 0.929 . S
C222 N218 1.418 . S
C222 C221 1.251 . S
C223 H190 0.930 . S
C223 C225 1.406 . S
C223 C228 1.261 . S
C224 H191 0.930 . S
C224 N226 1.325 . S
C224 C227 1.357 . S
C225 H193 0.928 . S
C225 C223 1.406 . S
C225 N226 1.261 . S
N226 Co177 2.214 . S
N226 C224 1.325 . S
N226 C225 1.261 . S
C227 H197 0.931 . S
C227 C224 1.357 . S
C227 C228 1.312 . S
C228 H199 0.930 . S
C228 C223 1.261 . S
C228 C227 1.312 . S
C229 O201 1.214 . S
C229 O209 1.234 1_556 S
C230 H202 0.929 . S
C230 C233 1.391 . S
C230 C235 1.391 . S
C231 H203 0.929 . S
C231 C232 1.390 . S
C231 N234 1.391 . S
C232 H204 0.930 . S
C232 C231 1.390 . S
C232 C233 1.392 . S
C233 H205 0.929 . S
C233 C230 1.391 . S
C233 C232 1.392 . S
N234 Co178 2.257 . S
N234 C231 1.391 . S
N234 C235 1.388 . S
C235 H206 0.930 . S
C235 C230 1.391 . S
C235 N234 1.388 . S
Co236 O238 2.143 . S
Co236 O244 2.074 . S
Co236 O247 2.093 1_455 S
Co236 O260 2.097 1_455 S
Co236 N277 2.151 . S
Co236 N285 2.214 1_556 S
Co237 O238 2.160 1_655 S
Co237 O243 2.058 1_655 S
Co237 O253 2.057 1_655 S
Co237 O268 2.037 . S
Co237 N272 2.145 . S
Co237 N293 2.257 . S
O238 Co236 2.143 . S
O238 Co237 2.160 1_455 S
C239 O240 1.278 . S
C239 O247 1.224 . S
O240 C239 1.278 . S
C241 O242 1.245 . S
C241 O253 1.232 . S
O242 C241 1.245 . S
O243 Co237 2.058 1_455 S
O243 C269 1.269 . S
O244 Co236 2.074 . S
O244 C269 1.257 . S
H245 C270 0.930 . S
H246 C276 0.930 . S
O247 Co236 2.093 1_655 S
O247 C239 1.224 . S
H248 C280 0.929 . S
H249 C282 0.930 . S
H250 C283 0.930 . S
H251 C281 0.929 . S
H252 C284 0.928 . S
O253 Co237 2.057 1_455 S
O253 C241 1.232 . S
H254 C273 0.929 . S
H255 C274 0.929 . S
H256 C286 0.931 . S
H257 C278 0.929 . S
H258 C287 0.930 . S
H259 C279 0.931 . S
O260 Co236 2.097 1_655 S
O260 C288 1.214 . S
H261 C289 0.929 . S
H262 C290 0.929 . S
H263 C291 0.930 . S
H264 C292 0.929 . S
H265 C294 0.930 . S
H266 C271 0.930 . S
H267 C275 0.930 . S
O268 Co237 2.037 . S
O268 C288 1.234 . S
C269 O243 1.269 . S
C269 O244 1.257 . S
C270 H245 0.930 . S
C270 C273 1.388 . S
C270 C275 1.418 . S
C271 H266 0.930 . S
C271 C274 1.404 . S
C271 C275 1.353 . S
N272 Co237 2.145 . S
N272 C273 1.397 . S
N272 C274 1.334 . S
C273 H254 0.929 . S
C273 C270 1.388 . S
C273 N272 1.397 . S
C274 H255 0.929 . S
C274 C271 1.404 . S
C274 N272 1.334 . S
C275 H267 0.930 . S
C275 C270 1.418 . S
C275 C271 1.353 . S
C276 H246 0.930 . S
C276 N277 1.330 . S
C276 C278 1.446 . S
N277 Co236 2.151 . S
N277 C276 1.330 . S
N277 C281 1.418 . S
C278 H257 0.929 . S
C278 C276 1.446 . S
C278 C279 1.332 . S
C279 H259 0.931 . S
C279 C278 1.332 . S
C279 C280 1.267 . S
C280 H248 0.929 . S
C280 C279 1.267 . S
C280 C281 1.251 . S
C281 H251 0.929 . S
C281 N277 1.418 . S
C281 C280 1.251 . S
C282 H249 0.930 . S
C282 C284 1.406 . S
C282 C287 1.261 . S
C283 H250 0.930 . S
C283 N285 1.325 . S
C283 C286 1.357 . S
C284 H252 0.928 . S
C284 C282 1.406 . S
C284 N285 1.261 . S
N285 Co236 2.214 1_554 S
N285 C283 1.325 . S
N285 C284 1.261 . S
C286 H256 0.931 . S
C286 C283 1.357 . S
C286 C287 1.312 . S
C287 H258 0.930 . S
C287 C282 1.261 . S
C287 C286 1.312 . S
C288 O260 1.214 . S
C288 O268 1.234 . S
C289 H261 0.929 . S
C289 C292 1.391 . S
C289 C294 1.391 . S
C290 H262 0.929 . S
C290 C291 1.390 . S
C290 N293 1.391 . S
C291 H263 0.930 . S
C291 C290 1.390 . S
C291 C292 1.392 . S
C292 H264 0.929 . S
C292 C289 1.391 . S
C292 C291 1.392 . S
N293 Co237 2.257 . S
N293 C290 1.391 . S
N293 C294 1.388 . S
C294 H265 0.930 . S
C294 C289 1.391 . S
C294 N293 1.388 . S
Co295 O297 2.143 . S
Co295 O303 2.074 . S
Co295 O306 2.093 . S
Co295 O319 2.097 . S
Co295 N336 2.151 . S
Co295 N344 2.214 . S
Co296 O297 2.160 1_556 S
Co296 O302 2.058 1_556 S
Co296 O312 2.057 . S
Co296 O327 2.037 1_556 S
Co296 N331 2.145 . S
Co296 N352 2.257 . S
O297 Co295 2.143 . S
O297 Co296 2.160 1_554 S
C298 O299 1.278 . S
C298 O306 1.224 . S
O299 C298 1.278 . S
C300 O301 1.245 . S
C300 O312 1.232 . S
O301 C300 1.245 . S
O302 Co296 2.058 1_554 S
O302 C328 1.269 . S
O303 Co295 2.074 . S
O303 C328 1.257 . S
H304 C329 0.930 . S
H305 C335 0.930 . S
O306 Co295 2.093 . S
O306 C298 1.224 . S
H307 C339 0.929 . S
H308 C341 0.930 . S
H309 C342 0.930 . S
H310 C340 0.929 . S
H311 C343 0.928 . S
O312 Co296 2.057 . S
O312 C300 1.232 . S
H313 C332 0.929 . S
H314 C333 0.929 . S
H315 C345 0.931 . S
H316 C337 0.929 . S
H317 C346 0.930 . S
H318 C338 0.931 . S
O319 Co295 2.097 . S
O319 C347 1.214 . S
H320 C348 0.929 . S
H321 C349 0.929 . S
H322 C350 0.930 1_554 S
H323 C351 0.929 . S
H324 C353 0.930 . S
H325 C330 0.930 . S
H326 C334 0.930 . S
O327 Co296 2.037 1_554 S
O327 C347 1.234 . S
C328 O302 1.269 . S
C328 O303 1.257 . S
C329 H304 0.930 . S
C329 C332 1.388 . S
C329 C334 1.418 . S
C330 H325 0.930 . S
C330 C333 1.404 . S
C330 C334 1.353 . S
N331 Co296 2.145 . S
N331 C332 1.397 . S
N331 C333 1.334 . S
C332 H313 0.929 . S
C332 C329 1.388 . S
C332 N331 1.397 . S
C333 H314 0.929 . S
C333 C330 1.404 . S
C333 N331 1.334 . S
C334 H326 0.930 . S
C334 C329 1.418 . S
C334 C330 1.353 . S
C335 H305 0.930 . S
C335 N336 1.330 . S
C335 C337 1.446 . S
N336 Co295 2.151 . S
N336 C335 1.330 . S
N336 C340 1.418 . S
C337 H316 0.929 . S
C337 C335 1.446 . S
C337 C338 1.332 . S
C338 H318 0.931 . S
C338 C337 1.332 . S
C338 C339 1.267 . S
C339 H307 0.929 . S
C339 C338 1.267 . S
C339 C340 1.251 . S
C340 H310 0.929 . S
C340 N336 1.418 . S
C340 C339 1.251 . S
C341 H308 0.930 . S
C341 C343 1.406 . S
C341 C346 1.261 . S
C342 H309 0.930 . S
C342 N344 1.325 . S
C342 C345 1.357 . S
C343 H311 0.928 . S
C343 C341 1.406 . S
C343 N344 1.261 . S
N344 Co295 2.214 . S
N344 C342 1.325 . S
N344 C343 1.261 . S
C345 H315 0.931 . S
C345 C342 1.357 . S
C345 C346 1.312 . S
C346 H317 0.930 . S
C346 C341 1.261 . S
C346 C345 1.312 . S
C347 O319 1.214 . S
C347 O327 1.234 . S
C348 H320 0.929 . S
C348 C351 1.391 . S
C348 C353 1.391 . S
C349 H321 0.929 . S
C349 C350 1.390 . S
C349 N352 1.391 . S
C350 H322 0.930 1_556 S
C350 C349 1.390 . S
C350 C351 1.392 . S
C351 H323 0.929 . S
C351 C348 1.391 . S
C351 C350 1.392 . S
N352 Co296 2.257 . S
N352 C349 1.391 . S
N352 C353 1.388 . S
C353 H324 0.930 . S
C353 C348 1.391 . S
C353 N352 1.388 . S
Co354 O356 2.143 . S
Co354 O362 2.074 . S
Co354 O365 2.093 . S
Co354 O378 2.097 . S
Co354 N395 2.151 . S
Co354 N403 2.214 . S
Co355 O356 2.160 . S
Co355 O361 2.058 . S
Co355 O371 2.057 . S
Co355 O386 2.037 . S
Co355 N390 2.145 . S
Co355 N411 2.257 . S
O356 Co354 2.143 . S
O356 Co355 2.160 . S
C357 O358 1.278 . S
C357 O365 1.224 . S
O358 C357 1.278 . S
C359 O360 1.245 . S
C359 O371 1.232 . S
O360 C359 1.245 . S
O361 Co355 2.058 . S
O361 C387 1.269 . S
O362 Co354 2.074 . S
O362 C387 1.257 . S
H363 C388 0.930 . S
H364 C394 0.930 . S
O365 Co354 2.093 . S
O365 C357 1.224 . S
H366 C398 0.929 . S
H367 C400 0.930 . S
H368 C401 0.930 . S
H369 C399 0.929 . S
H370 C402 0.928 . S
O371 Co355 2.057 . S
O371 C359 1.232 . S
H372 C391 0.929 . S
H373 C392 0.929 . S
H374 C404 0.931 . S
H375 C396 0.929 . S
H376 C405 0.930 . S
H377 C397 0.931 . S
O378 Co354 2.097 . S
O378 C406 1.214 . S
H379 C407 0.929 . S
H380 C408 0.929 . S
H381 C409 0.930 . S
H382 C410 0.929 . S
H383 C412 0.930 . S
H384 C389 0.930 1_556 S
H385 C393 0.930 . S
O386 Co355 2.037 . S
O386 C406 1.234 . S
C387 O361 1.269 . S
C387 O362 1.257 . S
C388 H363 0.930 . S
C388 C391 1.388 . S
C388 C393 1.418 . S
C389 H384 0.930 1_554 S
C389 C392 1.404 . S
C389 C393 1.353 . S
N390 Co355 2.145 . S
N390 C391 1.397 . S
N390 C392 1.334 . S
C391 H372 0.929 . S
C391 C388 1.388 . S
C391 N390 1.397 . S
C392 H373 0.929 . S
C392 C389 1.404 . S
C392 N390 1.334 . S
C393 H385 0.930 . S
C393 C388 1.418 . S
C393 C389 1.353 . S
C394 H364 0.930 . S
C394 N395 1.330 . S
C394 C396 1.446 . S
N395 Co354 2.151 . S
N395 C394 1.330 . S
N395 C399 1.418 . S
C396 H375 0.929 . S
C396 C394 1.446 . S
C396 C397 1.332 . S
C397 H377 0.931 . S
C397 C396 1.332 . S
C397 C398 1.267 . S
C398 H366 0.929 . S
C398 C397 1.267 . S
C398 C399 1.251 . S
C399 H369 0.929 . S
C399 N395 1.418 . S
C399 C398 1.251 . S
C400 H367 0.930 . S
C400 C402 1.406 . S
C400 C405 1.261 . S
C401 H368 0.930 . S
C401 N403 1.325 . S
C401 C404 1.357 . S
C402 H370 0.928 . S
C402 C400 1.406 . S
C402 N403 1.261 . S
N403 Co354 2.214 . S
N403 C401 1.325 . S
N403 C402 1.261 . S
C404 H374 0.931 . S
C404 C401 1.357 . S
C404 C405 1.312 . S
C405 H376 0.930 . S
C405 C400 1.261 . S
C405 C404 1.312 . S
C406 O378 1.214 . S
C406 O386 1.234 . S
C407 H379 0.929 . S
C407 C410 1.391 . S
C407 C412 1.391 . S
C408 H380 0.929 . S
C408 C409 1.390 . S
C408 N411 1.391 . S
C409 H381 0.930 . S
C409 C408 1.390 . S
C409 C410 1.392 . S
C410 H382 0.929 . S
C410 C407 1.391 . S
C410 C409 1.392 . S
N411 Co355 2.257 . S
N411 C408 1.391 . S
N411 C412 1.388 . S
C412 H383 0.930 . S
C412 C407 1.391 . S
C412 N411 1.388 . S
Co413 O415 2.143 . S
Co413 O421 2.074 . S
Co413 O424 2.093 . S
Co413 O437 2.097 . S
Co413 N454 2.151 . S
Co413 N462 2.214 . S
Co414 O415 2.160 . S
Co414 O420 2.058 . S
Co414 O430 2.057 . S
Co414 O445 2.037 . S
Co414 N449 2.145 . S
Co414 N470 2.257 . S
O415 Co413 2.143 . S
O415 Co414 2.160 . S
C416 O417 1.278 . S
C416 O424 1.224 . S
O417 C416 1.278 . S
C418 O419 1.245 . S
C418 O430 1.232 . S
O419 C418 1.245 . S
O420 Co414 2.058 . S
O420 C446 1.269 . S
O421 Co413 2.074 . S
O421 C446 1.257 . S
H422 C447 0.930 . S
H423 C453 0.930 . S
O424 Co413 2.093 . S
O424 C416 1.224 . S
H425 C457 0.929 . S
H426 C459 0.930 . S
H427 C460 0.930 . S
H428 C458 0.929 . S
H429 C461 0.928 . S
O430 Co414 2.057 . S
O430 C418 1.232 . S
H431 C450 0.929 . S
H432 C451 0.929 . S
H433 C463 0.931 . S
H434 C455 0.929 . S
H435 C464 0.930 . S
H436 C456 0.931 . S
O437 Co413 2.097 . S
O437 C465 1.214 . S
H438 C466 0.929 . S
H439 C467 0.929 . S
H440 C468 0.930 . S
H441 C469 0.929 . S
H442 C471 0.930 . S
H443 C448 0.930 . S
H444 C452 0.930 . S
O445 Co414 2.037 . S
O445 C465 1.234 . S
C446 O420 1.269 . S
C446 O421 1.257 . S
C447 H422 0.930 . S
C447 C450 1.388 . S
C447 C452 1.418 . S
C448 H443 0.930 . S
C448 C451 1.404 . S
C448 C452 1.353 . S
N449 Co414 2.145 . S
N449 C450 1.397 . S
N449 C451 1.334 . S
C450 H431 0.929 . S
C450 C447 1.388 . S
C450 N449 1.397 . S
C451 H432 0.929 . S
C451 C448 1.404 . S
C451 N449 1.334 . S
C452 H444 0.930 . S
C452 C447 1.418 . S
C452 C448 1.353 . S
C453 H423 0.930 . S
C453 N454 1.330 . S
C453 C455 1.446 . S
N454 Co413 2.151 . S
N454 C453 1.330 . S
N454 C458 1.418 . S
C455 H434 0.929 . S
C455 C453 1.446 . S
C455 C456 1.332 . S
C456 H436 0.931 . S
C456 C455 1.332 . S
C456 C457 1.267 . S
C457 H425 0.929 . S
C457 C456 1.267 . S
C457 C458 1.251 . S
C458 H428 0.929 . S
C458 N454 1.418 . S
C458 C457 1.251 . S
C459 H426 0.930 . S
C459 C461 1.406 . S
C459 C464 1.261 . S
C460 H427 0.930 . S
C460 N462 1.325 . S
C460 C463 1.357 . S
C461 H429 0.928 . S
C461 C459 1.406 . S
C461 N462 1.261 . S
N462 Co413 2.214 . S
N462 C460 1.325 . S
N462 C461 1.261 . S
C463 H433 0.931 . S
C463 C460 1.357 . S
C463 C464 1.312 . S
C464 H435 0.930 . S
C464 C459 1.261 . S
C464 C463 1.312 . S
C465 O437 1.214 . S
C465 O445 1.234 . S
C466 H438 0.929 . S
C466 C469 1.391 . S
C466 C471 1.391 . S
C467 H439 0.929 . S
C467 C468 1.390 . S
C467 N470 1.391 . S
C468 H440 0.930 . S
C468 C467 1.390 . S
C468 C469 1.392 . S
C469 H441 0.929 . S
C469 C466 1.391 . S
C469 C468 1.392 . S
N470 Co414 2.257 . S
N470 C467 1.391 . S
N470 C471 1.388 . S
C471 H442 0.930 . S
C471 C466 1.391 . S
C471 N470 1.388 . S
Co472 O474 2.143 . S
Co472 O480 2.074 . S
Co472 O483 2.093 . S
Co472 O496 2.097 . S
Co472 N513 2.151 . S
Co472 N521 2.214 . S
Co473 O474 2.160 . S
Co473 O479 2.058 . S
Co473 O489 2.057 . S
Co473 O504 2.037 . S
Co473 N508 2.145 . S
Co473 N529 2.257 . S
O474 Co472 2.143 . S
O474 Co473 2.160 . S
C475 O476 1.278 . S
C475 O483 1.224 . S
O476 C475 1.278 . S
C477 O478 1.245 . S
C477 O489 1.232 . S
O478 C477 1.245 . S
O479 Co473 2.058 . S
O479 C505 1.269 . S
O480 Co472 2.074 . S
O480 C505 1.257 . S
H481 C506 0.930 . S
H482 C512 0.930 . S
O483 Co472 2.093 . S
O483 C475 1.224 . S
H484 C516 0.929 . S
H485 C518 0.930 . S
H486 C519 0.930 . S
H487 C517 0.929 . S
H488 C520 0.928 . S
O489 Co473 2.057 . S
O489 C477 1.232 . S
H490 C509 0.929 . S
H491 C510 0.929 . S
H492 C522 0.931 . S
H493 C514 0.929 . S
H494 C523 0.930 . S
H495 C515 0.931 . S
O496 Co472 2.097 . S
O496 C524 1.214 . S
H497 C525 0.929 . S
H498 C526 0.929 . S
H499 C527 0.930 . S
H500 C528 0.929 . S
H501 C530 0.930 . S
H502 C507 0.930 . S
H503 C511 0.930 . S
O504 Co473 2.037 . S
O504 C524 1.234 . S
C505 O479 1.269 . S
C505 O480 1.257 . S
C506 H481 0.930 . S
C506 C509 1.388 . S
C506 C511 1.418 . S
C507 H502 0.930 . S
C507 C510 1.404 . S
C507 C511 1.353 . S
N508 Co473 2.145 . S
N508 C509 1.397 . S
N508 C510 1.334 . S
C509 H490 0.929 . S
C509 C506 1.388 . S
C509 N508 1.397 . S
C510 H491 0.929 . S
C510 C507 1.404 . S
C510 N508 1.334 . S
C511 H503 0.930 . S
C511 C506 1.418 . S
C511 C507 1.353 . S
C512 H482 0.930 . S
C512 N513 1.330 . S
C512 C514 1.446 . S
N513 Co472 2.151 . S
N513 C512 1.330 . S
N513 C517 1.418 . S
C514 H493 0.929 . S
C514 C512 1.446 . S
C514 C515 1.332 . S
C515 H495 0.931 . S
C515 C514 1.332 . S
C515 C516 1.267 . S
C516 H484 0.929 . S
C516 C515 1.267 . S
C516 C517 1.251 . S
C517 H487 0.929 . S
C517 N513 1.418 . S
C517 C516 1.251 . S
C518 H485 0.930 . S
C518 C520 1.406 . S
C518 C523 1.261 . S
C519 H486 0.930 . S
C519 N521 1.325 . S
C519 C522 1.357 . S
C520 H488 0.928 . S
C520 C518 1.406 . S
C520 N521 1.261 . S
N521 Co472 2.214 . S
N521 C519 1.325 . S
N521 C520 1.261 . S
C522 H492 0.931 . S
C522 C519 1.357 . S
C522 C523 1.312 . S
C523 H494 0.930 . S
C523 C518 1.261 . S
C523 C522 1.312 . S
C524 O496 1.214 . S
C524 O504 1.234 . S
C525 H497 0.929 . S
C525 C528 1.391 . S
C525 C530 1.391 . S
C526 H498 0.929 . S
C526 C527 1.390 . S
C526 N529 1.391 . S
C527 H499 0.930 . S
C527 C526 1.390 . S
C527 C528 1.392 . S
C528 H500 0.929 . S
C528 C525 1.391 . S
C528 C527 1.392 . S
N529 Co473 2.257 . S
N529 C526 1.391 . S
N529 C530 1.388 . S
C530 H501 0.930 . S
C530 C525 1.391 . S
C530 N529 1.388 . S
Co531 O533 2.143 . S
Co531 O539 2.074 . S
Co531 O542 2.093 . S
Co531 O555 2.097 . S
Co531 N572 2.151 . S
Co531 N580 2.214 . S
Co532 O533 2.160 1_556 S
Co532 O538 2.058 1_556 S
Co532 O548 2.057 . S
Co532 O563 2.037 1_556 S
Co532 N567 2.145 . S
Co532 N588 2.257 . S
O533 Co531 2.143 . S
O533 Co532 2.160 1_554 S
C534 O535 1.278 . S
C534 O542 1.224 . S
O535 C534 1.278 . S
C536 O537 1.245 . S
C536 O548 1.232 . S
O537 C536 1.245 . S
O538 Co532 2.058 1_554 S
O538 C564 1.269 . S
O539 Co531 2.074 . S
O539 C564 1.257 . S
H540 C565 0.930 . S
H541 C571 0.930 . S
O542 Co531 2.093 . S
O542 C534 1.224 . S
H543 C575 0.929 . S
H544 C577 0.930 . S
H545 C578 0.930 . S
H546 C576 0.929 . S
H547 C579 0.928 . S
O548 Co532 2.057 . S
O548 C536 1.232 . S
H549 C568 0.929 . S
H550 C569 0.929 . S
H551 C581 0.931 . S
H552 C573 0.929 . S
H553 C582 0.930 . S
H554 C574 0.931 . S
O555 Co531 2.097 . S
O555 C583 1.214 . S
H556 C584 0.929 . S
H557 C585 0.929 . S
H558 C586 0.930 1_554 S
H559 C587 0.929 . S
H560 C589 0.930 . S
H561 C566 0.930 . S
H562 C570 0.930 . S
O563 Co532 2.037 1_554 S
O563 C583 1.234 . S
C564 O538 1.269 . S
C564 O539 1.257 . S
C565 H540 0.930 . S
C565 C568 1.388 . S
C565 C570 1.418 . S
C566 H561 0.930 . S
C566 C569 1.404 . S
C566 C570 1.353 . S
N567 Co532 2.145 . S
N567 C568 1.397 . S
N567 C569 1.334 . S
C568 H549 0.929 . S
C568 C565 1.388 . S
C568 N567 1.397 . S
C569 H550 0.929 . S
C569 C566 1.404 . S
C569 N567 1.334 . S
C570 H562 0.930 . S
C570 C565 1.418 . S
C570 C566 1.353 . S
C571 H541 0.930 . S
C571 N572 1.330 . S
C571 C573 1.446 . S
N572 Co531 2.151 . S
N572 C571 1.330 . S
N572 C576 1.418 . S
C573 H552 0.929 . S
C573 C571 1.446 . S
C573 C574 1.332 . S
C574 H554 0.931 . S
C574 C573 1.332 . S
C574 C575 1.267 . S
C575 H543 0.929 . S
C575 C574 1.267 . S
C575 C576 1.251 . S
C576 H546 0.929 . S
C576 N572 1.418 . S
C576 C575 1.251 . S
C577 H544 0.930 . S
C577 C579 1.406 . S
C577 C582 1.261 . S
C578 H545 0.930 . S
C578 N580 1.325 . S
C578 C581 1.357 . S
C579 H547 0.928 . S
C579 C577 1.406 . S
C579 N580 1.261 . S
N580 Co531 2.214 . S
N580 C578 1.325 . S
N580 C579 1.261 . S
C581 H551 0.931 . S
C581 C578 1.357 . S
C581 C582 1.312 . S
C582 H553 0.930 . S
C582 C577 1.261 . S
C582 C581 1.312 . S
C583 O555 1.214 . S
C583 O563 1.234 . S
C584 H556 0.929 . S
C584 C587 1.391 . S
C584 C589 1.391 . S
C585 H557 0.929 . S
C585 C586 1.390 . S
C585 N588 1.391 . S
C586 H558 0.930 1_556 S
C586 C585 1.390 . S
C586 C587 1.392 . S
C587 H559 0.929 . S
C587 C584 1.391 . S
C587 C586 1.392 . S
N588 Co532 2.257 . S
N588 C585 1.391 . S
N588 C589 1.388 . S
C589 H560 0.930 . S
C589 C584 1.391 . S
C589 N588 1.388 . S
Co590 O592 2.143 1_556 S
Co590 O598 2.074 . S
Co590 O601 2.093 . S
Co590 O614 2.097 . S
Co590 N631 2.151 . S
Co590 N639 2.214 . S
Co591 O592 2.160 . S
Co591 O597 2.058 . S
Co591 O607 2.057 . S
Co591 O622 2.037 . S
Co591 N626 2.145 . S
Co591 N647 2.257 . S
O592 Co590 2.143 1_554 S
O592 Co591 2.160 . S
C593 O594 1.278 . S
C593 O601 1.224 . S
O594 C593 1.278 . S
C595 O596 1.245 . S
C595 O607 1.232 . S
O596 C595 1.245 . S
O597 Co591 2.058 . S
O597 C623 1.269 . S
O598 Co590 2.074 . S
O598 C623 1.257 1_556 S
H599 C624 0.930 . S
H600 C630 0.930 . S
O601 Co590 2.093 . S
O601 C593 1.224 . S
H602 C634 0.929 . S
H603 C636 0.930 . S
H604 C637 0.930 . S
H605 C635 0.929 . S
H606 C638 0.928 . S
O607 Co591 2.057 . S
O607 C595 1.232 . S
H608 C627 0.929 . S
H609 C628 0.929 . S
H610 C640 0.931 . S
H611 C632 0.929 . S
H612 C641 0.930 . S
H613 C633 0.931 . S
O614 Co590 2.097 . S
O614 C642 1.214 . S
H615 C643 0.929 . S
H616 C644 0.929 . S
H617 C645 0.930 . S
H618 C646 0.929 . S
H619 C648 0.930 . S
H620 C625 0.930 . S
H621 C629 0.930 . S
O622 Co591 2.037 . S
O622 C642 1.234 1_554 S
C623 O597 1.269 . S
C623 O598 1.257 1_554 S
C624 H599 0.930 . S
C624 C627 1.388 . S
C624 C629 1.418 . S
C625 H620 0.930 . S
C625 C628 1.404 . S
C625 C629 1.353 . S
N626 Co591 2.145 . S
N626 C627 1.397 . S
N626 C628 1.334 . S
C627 H608 0.929 . S
C627 C624 1.388 . S
C627 N626 1.397 . S
C628 H609 0.929 . S
C628 C625 1.404 . S
C628 N626 1.334 . S
C629 H621 0.930 . S
C629 C624 1.418 . S
C629 C625 1.353 . S
C630 H600 0.930 . S
C630 N631 1.330 . S
C630 C632 1.446 . S
N631 Co590 2.151 . S
N631 C630 1.330 . S
N631 C635 1.418 . S
C632 H611 0.929 . S
C632 C630 1.446 . S
C632 C633 1.332 . S
C633 H613 0.931 . S
C633 C632 1.332 . S
C633 C634 1.267 . S
C634 H602 0.929 . S
C634 C633 1.267 . S
C634 C635 1.251 . S
C635 H605 0.929 . S
C635 N631 1.418 . S
C635 C634 1.251 . S
C636 H603 0.930 . S
C636 C638 1.406 . S
C636 C641 1.261 . S
C637 H604 0.930 . S
C637 N639 1.325 . S
C637 C640 1.357 . S
C638 H606 0.928 . S
C638 C636 1.406 . S
C638 N639 1.261 . S
N639 Co590 2.214 . S
N639 C637 1.325 . S
N639 C638 1.261 . S
C640 H610 0.931 . S
C640 C637 1.357 . S
C640 C641 1.312 . S
C641 H612 0.930 . S
C641 C636 1.261 . S
C641 C640 1.312 . S
C642 O614 1.214 . S
C642 O622 1.234 1_556 S
C643 H615 0.929 . S
C643 C646 1.391 . S
C643 C648 1.391 . S
C644 H616 0.929 . S
C644 C645 1.390 . S
C644 N647 1.391 . S
C645 H617 0.930 . S
C645 C644 1.390 . S
C645 C646 1.392 . S
C646 H618 0.929 . S
C646 C643 1.391 . S
C646 C645 1.392 . S
N647 Co591 2.257 . S
N647 C644 1.391 . S
N647 C648 1.388 . S
C648 H619 0.930 . S
C648 C643 1.391 . S
C648 N647 1.388 . S
Co649 O651 2.143 . S
Co649 O657 2.074 . S
Co649 O660 2.093 . S
Co649 O673 2.097 . S
Co649 N690 2.151 . S
Co649 N698 2.214 . S
Co650 O651 2.160 . S
Co650 O656 2.058 . S
Co650 O666 2.057 . S
Co650 O681 2.037 . S
Co650 N685 2.145 . S
Co650 N706 2.257 . S
O651 Co649 2.143 . S
O651 Co650 2.160 . S
C652 O653 1.278 . S
C652 O660 1.224 . S
O653 C652 1.278 . S
C654 O655 1.245 . S
C654 O666 1.232 . S
O655 C654 1.245 . S
O656 Co650 2.058 . S
O656 C682 1.269 . S
O657 Co649 2.074 . S
O657 C682 1.257 . S
H658 C683 0.930 . S
H659 C689 0.930 . S
O660 Co649 2.093 . S
O660 C652 1.224 . S
H661 C693 0.929 . S
H662 C695 0.930 . S
H663 C696 0.930 . S
H664 C694 0.929 . S
H665 C697 0.928 . S
O666 Co650 2.057 . S
O666 C654 1.232 . S
H667 C686 0.929 . S
H668 C687 0.929 . S
H669 C699 0.931 . S
H670 C691 0.929 . S
H671 C700 0.930 . S
H672 C692 0.931 . S
O673 Co649 2.097 . S
O673 C701 1.214 . S
H674 C702 0.929 . S
H675 C703 0.929 . S
H676 C704 0.930 . S
H677 C705 0.929 . S
H678 C707 0.930 . S
H679 C684 0.930 . S
H680 C688 0.930 . S
O681 Co650 2.037 . S
O681 C701 1.234 . S
C682 O656 1.269 . S
C682 O657 1.257 . S
C683 H658 0.930 . S
C683 C686 1.388 . S
C683 C688 1.418 . S
C684 H679 0.930 . S
C684 C687 1.404 . S
C684 C688 1.353 . S
N685 Co650 2.145 . S
N685 C686 1.397 . S
N685 C687 1.334 . S
C686 H667 0.929 . S
C686 C683 1.388 . S
C686 N685 1.397 . S
C687 H668 0.929 . S
C687 C684 1.404 . S
C687 N685 1.334 . S
C688 H680 0.930 . S
C688 C683 1.418 . S
C688 C684 1.353 . S
C689 H659 0.930 . S
C689 N690 1.330 . S
C689 C691 1.446 . S
N690 Co649 2.151 . S
N690 C689 1.330 . S
N690 C694 1.418 . S
C691 H670 0.929 . S
C691 C689 1.446 . S
C691 C692 1.332 . S
C692 H672 0.931 . S
C692 C691 1.332 . S
C692 C693 1.267 . S
C693 H661 0.929 . S
C693 C692 1.267 . S
C693 C694 1.251 . S
C694 H664 0.929 . S
C694 N690 1.418 . S
C694 C693 1.251 . S
C695 H662 0.930 . S
C695 C697 1.406 . S
C695 C700 1.261 . S
C696 H663 0.930 . S
C696 N698 1.325 . S
C696 C699 1.357 . S
C697 H665 0.928 . S
C697 C695 1.406 . S
C697 N698 1.261 . S
N698 Co649 2.214 . S
N698 C696 1.325 . S
N698 C697 1.261 . S
C699 H669 0.931 . S
C699 C696 1.357 . S
C699 C700 1.312 . S
C700 H671 0.930 . S
C700 C695 1.261 . S
C700 C699 1.312 . S
C701 O673 1.214 . S
C701 O681 1.234 . S
C702 H674 0.929 . S
C702 C705 1.391 . S
C702 C707 1.391 . S
C703 H675 0.929 . S
C703 C704 1.390 . S
C703 N706 1.391 . S
C704 H676 0.930 . S
C704 C703 1.390 . S
C704 C705 1.392 . S
C705 H677 0.929 . S
C705 C702 1.391 . S
C705 C704 1.392 . S
N706 Co650 2.257 . S
N706 C703 1.391 . S
N706 C707 1.388 . S
C707 H678 0.930 . S
C707 C702 1.391 . S
C707 N706 1.388 . S
Co708 O710 2.143 . S
Co708 O716 2.074 . S
Co708 O719 2.093 . S
Co708 O732 2.097 . S
Co708 N749 2.151 . S
Co708 N757 2.214 . S
Co709 O710 2.160 . S
Co709 O715 2.058 . S
Co709 O725 2.057 . S
Co709 O740 2.037 . S
Co709 N744 2.145 . S
Co709 N765 2.257 . S
O710 Co708 2.143 . S
O710 Co709 2.160 . S
C711 O712 1.278 . S
C711 O719 1.224 . S
O712 C711 1.278 . S
C713 O714 1.245 . S
C713 O725 1.232 . S
O714 C713 1.245 . S
O715 Co709 2.058 . S
O715 C741 1.269 . S
O716 Co708 2.074 . S
O716 C741 1.257 . S
H717 C742 0.930 . S
H718 C748 0.930 . S
O719 Co708 2.093 . S
O719 C711 1.224 . S
H720 C752 0.929 . S
H721 C754 0.930 . S
H722 C755 0.930 . S
H723 C753 0.929 . S
H724 C756 0.928 . S
O725 Co709 2.057 . S
O725 C713 1.232 . S
H726 C745 0.929 . S
H727 C746 0.931 . S
H728 C758 0.931 . S
H729 C750 0.929 . S
H730 C759 0.930 . S
H731 C751 0.931 . S
O732 Co708 2.097 . S
O732 C760 1.214 . S
H733 C761 0.929 . S
H734 C762 0.929 . S
H735 C763 0.930 . S
H736 C764 0.929 . S
H737 C766 0.930 . S
H738 C743 0.930 . S
H739 C747 0.930 . S
O740 Co709 2.037 . S
O740 C760 1.234 . S
C741 O715 1.269 . S
C741 O716 1.257 . S
C742 H717 0.930 . S
C742 C745 1.388 . S
C742 C747 1.418 1_556 S
C743 H738 0.930 . S
C743 C746 1.409 . S
C743 C747 1.353 . S
N744 Co709 2.145 . S
N744 C745 1.397 . S
N744 C746 1.327 1_556 S
C745 H726 0.929 . S
C745 C742 1.388 . S
C745 N744 1.397 . S
C746 H727 0.931 . S
C746 C743 1.409 . S
C746 N744 1.327 1_554 S
C747 H739 0.930 . S
C747 C742 1.418 1_554 S
C747 C743 1.353 . S
C748 H718 0.930 . S
C748 N749 1.330 . S
C748 C750 1.446 . S
N749 Co708 2.151 . S
N749 C748 1.330 . S
N749 C753 1.418 . S
C750 H729 0.929 . S
C750 C748 1.446 . S
C750 C751 1.332 . S
C751 H731 0.931 . S
C751 C750 1.332 . S
C751 C752 1.267 . S
C752 H720 0.929 . S
C752 C751 1.267 . S
C752 C753 1.251 . S
C753 H723 0.929 . S
C753 N749 1.418 . S
C753 C752 1.251 . S
C754 H721 0.930 . S
C754 C756 1.406 . S
C754 C759 1.261 . S
C755 H722 0.930 . S
C755 N757 1.325 . S
C755 C758 1.357 . S
C756 H724 0.928 . S
C756 C754 1.406 . S
C756 N757 1.261 . S
N757 Co708 2.214 . S
N757 C755 1.325 . S
N757 C756 1.261 . S
C758 H728 0.931 . S
C758 C755 1.357 . S
C758 C759 1.312 . S
C759 H730 0.930 . S
C759 C754 1.261 . S
C759 C758 1.312 . S
C760 O732 1.214 . S
C760 O740 1.234 . S
C761 H733 0.929 . S
C761 C764 1.391 . S
C761 C766 1.391 . S
C762 H734 0.929 . S
C762 C763 1.390 . S
C762 N765 1.391 . S
C763 H735 0.930 . S
C763 C762 1.390 . S
C763 C764 1.392 . S
C764 H736 0.929 . S
C764 C761 1.391 . S
C764 C763 1.392 . S
N765 Co709 2.257 . S
N765 C762 1.391 . S
N765 C766 1.388 . S
C766 H737 0.930 . S
C766 C761 1.391 . S
C766 N765 1.388 . S
Co767 O769 2.153 . S
Co767 O775 2.074 . S
Co767 O778 2.093 1_655 S
Co767 O791 2.097 1_655 S
Co767 N808 2.151 . S
Co767 N816 2.214 . S
Co768 O769 2.147 1_455 S
Co768 O774 2.058 1_455 S
Co768 O784 2.057 1_455 S
Co768 O799 2.037 . S
Co768 N803 2.145 . S
Co768 N824 2.257 . S
O769 Co767 2.153 . S
O769 Co768 2.147 1_655 S
C770 O771 1.278 . S
C770 O778 1.224 . S
O771 C770 1.278 . S
C772 O773 1.245 . S
C772 O784 1.233 . S
O773 C772 1.245 . S
O774 Co768 2.058 1_655 S
O774 C800 1.269 . S
O775 Co767 2.074 . S
O775 C800 1.257 . S
H776 C801 0.930 . S
H777 C807 0.930 . S
O778 Co767 2.093 1_455 S
O778 C770 1.224 . S
H779 C811 0.929 . S
H780 C813 0.930 . S
H781 C814 0.930 . S
H782 C812 0.929 . S
H783 C815 0.928 . S
O784 Co768 2.057 1_655 S
O784 C772 1.233 . S
H785 C804 0.929 . S
H786 C805 0.929 . S
H787 C817 0.931 . S
H788 C809 0.929 . S
H789 C818 0.930 . S
H790 C810 0.931 . S
O791 Co767 2.097 1_455 S
O791 C819 1.214 . S
H792 C820 0.929 . S
H793 C821 0.929 . S
H794 C822 0.930 . S
H795 C823 0.929 . S
H796 C825 0.930 . S
H797 C802 0.930 . S
H798 C806 0.930 . S
O799 Co768 2.037 . S
O799 C819 1.234 . S
C800 O774 1.269 . S
C800 O775 1.257 . S
C801 H776 0.930 . S
C801 C804 1.388 . S
C801 C806 1.418 . S
C802 H797 0.930 . S
C802 C805 1.404 . S
C802 C806 1.353 . S
N803 Co768 2.145 . S
N803 C804 1.397 . S
N803 C805 1.334 . S
C804 H785 0.929 . S
C804 C801 1.388 . S
C804 N803 1.397 . S
C805 H786 0.929 . S
C805 C802 1.404 . S
C805 N803 1.334 . S
C806 H798 0.930 . S
C806 C801 1.418 . S
C806 C802 1.353 . S
C807 H777 0.930 . S
C807 N808 1.330 . S
C807 C809 1.446 . S
N808 Co767 2.151 . S
N808 C807 1.330 . S
N808 C812 1.418 . S
C809 H788 0.929 . S
C809 C807 1.446 . S
C809 C810 1.332 . S
C810 H790 0.931 . S
C810 C809 1.332 . S
C810 C811 1.267 . S
C811 H779 0.929 . S
C811 C810 1.267 . S
C811 C812 1.251 . S
C812 H782 0.929 . S
C812 N808 1.418 . S
C812 C811 1.251 . S
C813 H780 0.930 . S
C813 C815 1.406 . S
C813 C818 1.261 . S
C814 H781 0.930 . S
C814 N816 1.325 . S
C814 C817 1.357 1_554 S
C815 H783 0.928 . S
C815 C813 1.406 . S
C815 N816 1.261 1_556 S
N816 Co767 2.214 . S
N816 C814 1.325 . S
N816 C815 1.261 1_554 S
C817 H787 0.931 . S
C817 C814 1.357 1_556 S
C817 C818 1.312 . S
C818 H789 0.930 . S
C818 C813 1.261 . S
C818 C817 1.312 . S
C819 O791 1.214 . S
C819 O799 1.234 . S
C820 H792 0.929 . S
C820 C823 1.391 . S
C820 C825 1.391 . S
C821 H793 0.929 . S
C821 C822 1.390 . S
C821 N824 1.391 . S
C822 H794 0.930 . S
C822 C821 1.390 . S
C822 C823 1.392 . S
C823 H795 0.929 . S
C823 C820 1.391 . S
C823 C822 1.392 . S
N824 Co768 2.257 . S
N824 C821 1.391 . S
N824 C825 1.388 . S
C825 H796 0.930 . S
C825 C820 1.391 . S
C825 N824 1.388 . S
Co826 O828 2.143 . S
Co826 O834 2.074 . S
Co826 O837 2.093 . S
Co826 O850 2.097 . S
Co826 N867 2.151 . S
Co826 N875 2.214 . S
Co827 O828 2.160 . S
Co827 O833 2.058 . S
Co827 O843 2.057 . S
Co827 O858 2.037 . S
Co827 N862 2.145 . S
Co827 N883 2.257 . S
O828 Co826 2.143 . S
O828 Co827 2.160 . S
C829 O830 1.278 . S
C829 O837 1.224 . S
O830 C829 1.278 . S
C831 O832 1.245 . S
C831 O843 1.232 . S
O832 C831 1.245 . S
O833 Co827 2.058 . S
O833 C859 1.269 . S
O834 Co826 2.074 . S
O834 C859 1.257 . S
H835 C860 0.930 . S
H836 C866 0.930 . S
O837 Co826 2.093 . S
O837 C829 1.224 . S
H838 C870 0.929 . S
H839 C872 0.930 . S
H840 C873 0.930 . S
H841 C871 0.929 . S
H842 C874 0.928 . S
O843 Co827 2.057 . S
O843 C831 1.232 . S
H844 C863 0.929 . S
H845 C864 0.929 . S
H846 C876 0.931 . S
H847 C868 0.929 . S
H848 C877 0.930 . S
H849 C869 0.931 . S
O850 Co826 2.097 . S
O850 C878 1.214 . S
H851 C879 0.929 . S
H852 C880 0.929 . S
H853 C881 0.930 . S
H854 C882 0.929 . S
H855 C884 0.930 . S
H856 C861 0.930 1_556 S
H857 C865 0.930 . S
O858 Co827 2.037 . S
O858 C878 1.234 . S
C859 O833 1.269 . S
C859 O834 1.257 . S
C860 H835 0.930 . S
C860 C863 1.388 . S
C860 C865 1.418 . S
C861 H856 0.930 1_554 S
C861 C864 1.404 . S
C861 C865 1.353 . S
N862 Co827 2.145 . S
N862 C863 1.397 . S
N862 C864 1.334 . S
C863 H844 0.929 . S
C863 C860 1.388 . S
C863 N862 1.397 . S
C864 H845 0.929 . S
C864 C861 1.404 . S
C864 N862 1.334 . S
C865 H857 0.930 . S
C865 C860 1.418 . S
C865 C861 1.353 . S
C866 H836 0.930 . S
C866 N867 1.330 . S
C866 C868 1.446 . S
N867 Co826 2.151 . S
N867 C866 1.330 . S
N867 C871 1.418 . S
C868 H847 0.929 . S
C868 C866 1.446 . S
C868 C869 1.332 . S
C869 H849 0.931 . S
C869 C868 1.332 . S
C869 C870 1.267 . S
C870 H838 0.929 . S
C870 C869 1.267 . S
C870 C871 1.251 . S
C871 H841 0.929 . S
C871 N867 1.418 . S
C871 C870 1.251 . S
C872 H839 0.930 . S
C872 C874 1.406 . S
C872 C877 1.261 . S
C873 H840 0.930 . S
C873 N875 1.325 . S
C873 C876 1.357 . S
C874 H842 0.928 . S
C874 C872 1.406 . S
C874 N875 1.261 . S
N875 Co826 2.214 . S
N875 C873 1.325 . S
N875 C874 1.261 . S
C876 H846 0.931 . S
C876 C873 1.357 . S
C876 C877 1.312 . S
C877 H848 0.930 . S
C877 C872 1.261 . S
C877 C876 1.312 . S
C878 O850 1.214 . S
C878 O858 1.234 . S
C879 H851 0.929 . S
C879 C882 1.391 . S
C879 C884 1.391 . S
C880 H852 0.929 . S
C880 C881 1.390 . S
C880 N883 1.391 . S
C881 H853 0.930 . S
C881 C880 1.390 . S
C881 C882 1.392 . S
C882 H854 0.929 . S
C882 C879 1.391 . S
C882 C881 1.392 . S
N883 Co827 2.257 . S
N883 C880 1.391 . S
N883 C884 1.388 . S
C884 H855 0.930 . S
C884 C879 1.391 . S
C884 N883 1.388 . S
Co885 O887 2.153 . S
Co885 O893 2.074 . S
Co885 O896 2.093 1_655 S
Co885 O909 2.097 1_655 S
Co885 N926 2.151 . S
Co885 N934 2.214 1_556 S
Co886 O887 2.147 1_455 S
Co886 O892 2.058 1_455 S
Co886 O902 2.057 1_455 S
Co886 O917 2.037 . S
Co886 N921 2.145 . S
Co886 N942 2.257 . S
O887 Co885 2.153 . S
O887 Co886 2.147 1_655 S
C888 O889 1.278 . S
C888 O896 1.224 . S
O889 C888 1.278 . S
C890 O891 1.245 . S
C890 O902 1.233 . S
O891 C890 1.245 . S
O892 Co886 2.058 1_655 S
O892 C918 1.269 . S
O893 Co885 2.074 . S
O893 C918 1.257 . S
H894 C919 0.930 . S
H895 C925 0.930 . S
O896 Co885 2.093 1_455 S
O896 C888 1.224 . S
H897 C929 0.929 . S
H898 C931 0.930 . S
H899 C932 0.930 . S
H900 C930 0.929 . S
H901 C933 0.928 . S
O902 Co886 2.057 1_655 S
O902 C890 1.233 . S
H903 C922 0.929 . S
H904 C923 0.929 . S
H905 C935 0.931 . S
H906 C927 0.929 . S
H907 C936 0.930 . S
H908 C928 0.931 . S
O909 Co885 2.097 1_455 S
O909 C937 1.214 . S
H910 C938 0.929 . S
H911 C939 0.929 . S
H912 C940 0.930 . S
H913 C941 0.929 . S
H914 C943 0.930 . S
H915 C920 0.930 . S
H916 C924 0.930 . S
O917 Co886 2.037 . S
O917 C937 1.234 . S
C918 O892 1.269 . S
C918 O893 1.257 . S
C919 H894 0.930 . S
C919 C922 1.388 . S
C919 C924 1.418 . S
C920 H915 0.930 . S
C920 C923 1.404 . S
C920 C924 1.353 . S
N921 Co886 2.145 . S
N921 C922 1.397 . S
N921 C923 1.334 . S
C922 H903 0.929 . S
C922 C919 1.388 . S
C922 N921 1.397 . S
C923 H904 0.929 . S
C923 C920 1.404 . S
C923 N921 1.334 . S
C924 H916 0.930 . S
C924 C919 1.418 . S
C924 C920 1.353 . S
C925 H895 0.930 . S
C925 N926 1.330 . S
C925 C927 1.446 . S
N926 Co885 2.151 . S
N926 C925 1.330 . S
N926 C930 1.418 . S
C927 H906 0.929 . S
C927 C925 1.446 . S
C927 C928 1.332 . S
C928 H908 0.931 . S
C928 C927 1.332 . S
C928 C929 1.267 . S
C929 H897 0.929 . S
C929 C928 1.267 . S
C929 C930 1.251 . S
C930 H900 0.929 . S
C930 N926 1.418 . S
C930 C929 1.251 . S
C931 H898 0.930 . S
C931 C933 1.406 . S
C931 C936 1.261 . S
C932 H899 0.930 . S
C932 N934 1.325 . S
C932 C935 1.357 . S
C933 H901 0.928 . S
C933 C931 1.406 . S
C933 N934 1.261 . S
N934 Co885 2.214 1_554 S
N934 C932 1.325 . S
N934 C933 1.261 . S
C935 H905 0.931 . S
C935 C932 1.357 . S
C935 C936 1.312 . S
C936 H907 0.930 . S
C936 C931 1.261 . S
C936 C935 1.312 . S
C937 O909 1.214 . S
C937 O917 1.234 . S
C938 H910 0.929 . S
C938 C941 1.391 . S
C938 C943 1.391 . S
C939 H911 0.929 . S
C939 C940 1.390 . S
C939 N942 1.391 . S
C940 H912 0.930 . S
C940 C939 1.390 . S
C940 C941 1.392 . S
C941 H913 0.929 . S
C941 C938 1.391 . S
C941 C940 1.392 . S
N942 Co886 2.257 . S
N942 C939 1.391 . S
N942 C943 1.388 . S
C943 H914 0.930 . S
C943 C938 1.391 . S
C943 N942 1.388 . S
C944 C945 1.387 . S
C944 H948 0.950 . S
C944 C953 1.390 . S
C945 C944 1.387 . S
C945 C947 1.387 . S
H946 C953 0.950 . S
C947 C945 1.387 . S
C947 C949 1.390 . S
C947 H951 0.950 . S
H948 C944 0.950 . S
C949 C947 1.390 . S
C949 C950 1.387 . S
C949 H952 0.950 . S
C950 C949 1.387 . S
C950 C953 1.387 . S
H951 C947 0.950 . S
H952 C949 0.950 . S
C953 C944 1.390 . S
C953 H946 0.950 . S
C953 C950 1.387 . S
C954 C955 1.387 . S
C954 H958 0.950 . S
C954 C963 1.390 . S
C955 C954 1.387 . S
C955 C957 1.387 . S
H956 C963 0.950 . S
C957 C955 1.387 . S
C957 C959 1.390 . S
C957 H961 0.950 . S
H958 C954 0.950 . S
C959 C957 1.390 . S
C959 C960 1.387 . S
C959 H962 0.950 . S
C960 C959 1.387 . S
C960 C963 1.387 . S
H961 C957 0.950 . S
H962 C959 0.950 . S
C963 C954 1.390 . S
C963 H956 0.950 . S
C963 C960 1.387 . S
C964 C965 1.387 . S
C964 H968 0.950 . S
C964 C973 1.390 . S
C965 C964 1.387 . S
C965 C967 1.387 . S
H966 C973 0.950 . S
C967 C965 1.387 . S
C967 C969 1.390 . S
C967 H971 0.950 . S
H968 C964 0.950 . S
C969 C967 1.390 . S
C969 C970 1.387 . S
C969 H972 0.950 . S
C970 C969 1.387 . S
C970 C973 1.387 . S
H971 C967 0.950 . S
H972 C969 0.950 . S
C973 C964 1.390 . S
C973 H966 0.950 . S
C973 C970 1.387 . S
C974 C975 1.387 . S
C974 H978 0.950 . S
C974 C983 1.390 . S
C975 C974 1.387 . S
C975 C977 1.387 . S
H976 C983 0.950 . S
C977 C975 1.387 . S
C977 C979 1.390 . S
C977 H981 0.950 1_556 S
H978 C974 0.950 . S
C979 C977 1.390 . S
C979 C980 1.387 . S
C979 H982 0.950 . S
C980 C979 1.387 . S
C980 C983 1.387 . S
H981 C977 0.950 1_554 S
H982 C979 0.950 . S
C983 C974 1.390 . S
C983 H976 0.950 . S
C983 C980 1.387 . S
C984 C985 1.387 . S
C984 H988 0.950 . S
C984 C993 1.390 . S
C985 C984 1.387 . S
C985 C987 1.387 . S
H986 C993 0.950 1_554 S
C987 C985 1.387 . S
C987 C989 1.390 . S
C987 H991 0.950 . S
H988 C984 0.950 . S
C989 C987 1.390 . S
C989 C990 1.387 . S
C989 H992 0.950 . S
C990 C989 1.387 . S
C990 C993 1.387 . S
H991 C987 0.950 . S
H992 C989 0.950 . S
C993 C984 1.390 . S
C993 H986 0.950 1_556 S
C993 C990 1.387 . S
C994 C995 1.387 . S
C994 H998 0.950 . S
C994 C1003 1.390 . S
C995 C994 1.387 . S
C995 C997 1.387 . S
H996 C1003 0.950 . S
C997 C995 1.387 . S
C997 C999 1.390 . S
C997 H1001 0.950 . S
H998 C994 0.950 . S
C999 C997 1.390 . S
C999 C1000 1.387 . S
C999 H1002 0.950 . S
C1000 C999 1.387 . S
C1000 C1003 1.387 . S
H1001 C997 0.950 . S
H1002 C999 0.950 . S
C1003 C994 1.390 . S
C1003 H996 0.950 . S
C1003 C1000 1.387 . S
C1004 C1005 1.387 . S
C1004 H1008 0.950 . S
C1004 C1013 1.390 . S
C1005 C1004 1.387 . S
C1005 C1007 1.387 . S
H1006 C1013 0.950 . S
C1007 C1005 1.387 . S
C1007 C1009 1.390 . S
C1007 H1011 0.950 . S
H1008 C1004 0.950 . S
C1009 C1007 1.390 . S
C1009 C1010 1.387 . S
C1009 H1012 0.950 . S
C1010 C1009 1.387 . S
C1010 C1013 1.387 . S
H1011 C1007 0.950 . S
H1012 C1009 0.950 . S
C1013 C1004 1.390 . S
C1013 H1006 0.950 . S
C1013 C1010 1.387 . S
C1014 C1015 1.387 . S
C1014 H1018 0.950 . S
C1014 C1023 1.390 . S
C1015 C1014 1.387 . S
C1015 C1017 1.387 . S
H1016 C1023 0.950 . S
C1017 C1015 1.387 . S
C1017 C1019 1.390 . S
C1017 H1021 0.950 . S
H1018 C1014 0.950 . S
C1019 C1017 1.390 . S
C1019 C1020 1.387 . S
C1019 H1022 0.950 . S
C1020 C1019 1.387 . S
C1020 C1023 1.387 . S
H1021 C1017 0.950 . S
H1022 C1019 0.950 . S
C1023 C1014 1.390 . S
C1023 H1016 0.950 . S
C1023 C1020 1.387 . S
C1024 C1025 1.387 . S
C1024 H1028 0.950 . S
C1024 C1033 1.390 . S
C1025 C1024 1.387 . S
C1025 C1027 1.387 . S
H1026 C1033 0.950 . S
C1027 C1025 1.387 . S
C1027 C1029 1.390 . S
C1027 H1031 0.950 1_556 S
H1028 C1024 0.950 . S
C1029 C1027 1.390 . S
C1029 C1030 1.387 . S
C1029 H1032 0.950 1_556 S
C1030 C1029 1.387 . S
C1030 C1033 1.387 . S
H1031 C1027 0.950 1_554 S
H1032 C1029 0.950 1_554 S
C1033 C1024 1.390 . S
C1033 H1026 0.950 . S
C1033 C1030 1.387 . S
C1034 C1035 1.387 . S
C1034 H1038 0.950 . S
C1034 C1043 1.390 . S
C1035 C1034 1.387 . S
C1035 C1037 1.387 . S
H1036 C1043 0.950 . S
C1037 C1035 1.387 . S
C1037 C1039 1.390 . S
C1037 H1041 0.950 . S
H1038 C1034 0.950 . S
C1039 C1037 1.390 . S
C1039 C1040 1.387 . S
C1039 H1042 0.950 . S
C1040 C1039 1.387 . S
C1040 C1043 1.387 . S
H1041 C1037 0.950 . S
H1042 C1039 0.950 . S
C1043 C1034 1.390 . S
C1043 H1036 0.950 . S
C1043 C1040 1.387 . S
C1044 C1045 1.387 . S
C1044 H1048 0.950 . S
C1044 C1053 1.390 . S
C1045 C1044 1.387 . S
C1045 C1047 1.387 . S
H1046 C1053 0.950 . S
C1047 C1045 1.387 . S
C1047 C1049 1.390 . S
C1047 H1051 0.950 . S
H1048 C1044 0.950 . S
C1049 C1047 1.390 . S
C1049 C1050 1.387 . S
C1049 H1052 0.950 . S
C1050 C1049 1.387 . S
C1050 C1053 1.387 . S
H1051 C1047 0.950 . S
H1052 C1049 0.950 . S
C1053 C1044 1.390 . S
C1053 H1046 0.950 . S
C1053 C1050 1.387 . S
C1054 C1055 1.387 . S
C1054 H1058 0.950 . S
C1054 C1063 1.390 . S
C1055 C1054 1.387 . S
C1055 C1057 1.387 . S
H1056 C1063 0.950 . S
C1057 C1055 1.387 . S
C1057 C1059 1.390 . S
C1057 H1061 0.950 . S
H1058 C1054 0.950 . S
C1059 C1057 1.390 . S
C1059 C1060 1.387 . S
C1059 H1062 0.950 . S
C1060 C1059 1.387 . S
C1060 C1063 1.387 . S
H1061 C1057 0.950 . S
H1062 C1059 0.950 . S
C1063 C1054 1.390 . S
C1063 H1056 0.950 . S
C1063 C1060 1.387 . S
C1064 C1065 1.387 . S
C1064 H1068 0.950 . S
C1064 C1073 1.390 . S
C1065 C1064 1.387 . S
C1065 C1067 1.387 . S
H1066 C1073 0.950 . S
C1067 C1065 1.387 . S
C1067 C1069 1.390 . S
C1067 H1071 0.950 . S
H1068 C1064 0.950 . S
C1069 C1067 1.390 . S
C1069 C1070 1.387 . S
C1069 H1072 0.950 . S
C1070 C1069 1.387 . S
C1070 C1073 1.387 . S
H1071 C1067 0.950 . S
H1072 C1069 0.950 . S
C1073 C1064 1.390 . S
C1073 H1066 0.950 . S
C1073 C1070 1.387 . S
C1074 C1075 1.387 . S
C1074 H1078 0.950 . S
C1074 C1083 1.390 . S
C1075 C1074 1.387 . S
C1075 C1077 1.387 . S
H1076 C1083 0.950 . S
C1077 C1075 1.387 . S
C1077 C1079 1.390 . S
C1077 H1081 0.950 1_556 S
H1078 C1074 0.950 . S
C1079 C1077 1.390 . S
C1079 C1080 1.387 . S
C1079 H1082 0.950 1_556 S
C1080 C1079 1.387 . S
C1080 C1083 1.387 . S
H1081 C1077 0.950 1_554 S
H1082 C1079 0.950 1_554 S
C1083 C1074 1.390 . S
C1083 H1076 0.950 . S
C1083 C1080 1.387 . S
C1084 C1085 1.387 . S
C1084 H1088 0.950 . S
C1084 C1093 1.390 . S
C1085 C1084 1.387 . S
C1085 C1087 1.387 . S
H1086 C1093 0.950 . S
C1087 C1085 1.387 . S
C1087 C1089 1.390 . S
C1087 H1091 0.950 . S
H1088 C1084 0.950 . S
C1089 C1087 1.390 . S
C1089 C1090 1.387 . S
C1089 H1092 0.950 . S
C1090 C1089 1.387 . S
C1090 C1093 1.387 . S
H1091 C1087 0.950 . S
H1092 C1089 0.950 . S
C1093 C1084 1.390 . S
C1093 H1086 0.950 . S
C1093 C1090 1.387 . S
C1094 C1095 1.387 . S
C1094 H1098 0.950 . S
C1094 C1103 1.390 . S
C1095 C1094 1.387 . S
C1095 C1097 1.387 . S
H1096 C1103 0.950 . S
C1097 C1095 1.387 . S
C1097 C1099 1.390 . S
C1097 H1101 0.950 . S
H1098 C1094 0.950 . S
C1099 C1097 1.390 . S
C1099 C1100 1.387 . S
C1099 H1102 0.950 . S
C1100 C1099 1.387 . S
C1100 C1103 1.387 . S
H1101 C1097 0.950 . S
H1102 C1099 0.950 . S
C1103 C1094 1.390 . S
C1103 H1096 0.950 . S
C1103 C1100 1.387 . S
C1104 C1105 1.387 . S
C1104 H1108 0.950 . S
C1104 C1113 1.390 . S
C1105 C1104 1.387 . S
C1105 C1107 1.387 1_655 S
H1106 C1113 0.950 1_556 S
C1107 C1105 1.387 1_455 S
C1107 C1109 1.390 . S
C1107 H1111 0.950 . S
H1108 C1104 0.950 . S
C1109 C1107 1.390 . S
C1109 C1110 1.387 1_454 S
C1109 H1112 0.950 1_554 S
C1110 C1109 1.387 1_656 S
C1110 C1113 1.387 1_556 S
H1111 C1107 0.950 . S
H1112 C1109 0.950 1_556 S
C1113 C1104 1.390 . S
C1113 H1106 0.950 1_554 S
C1113 C1110 1.387 1_554 S
C1114 C1115 1.387 . S
C1114 H1118 0.950 . S
C1114 C1123 1.390 . S
C1115 C1114 1.387 . S
C1115 C1117 1.387 . S
H1116 C1123 0.950 . S
C1117 C1115 1.387 . S
C1117 C1119 1.390 . S
C1117 H1121 0.950 . S
H1118 C1114 0.950 . S
C1119 C1117 1.390 . S
C1119 C1120 1.387 . S
C1119 H1122 0.950 . S
C1120 C1119 1.387 . S
C1120 C1123 1.387 . S
H1121 C1117 0.950 . S
H1122 C1119 0.950 . S
C1123 C1114 1.390 . S
C1123 H1116 0.950 . S
C1123 C1120 1.387 . S
C1124 C1125 1.387 . S
C1124 H1128 0.950 . S
C1124 C1133 1.390 . S
C1125 C1124 1.387 . S
C1125 C1127 1.387 . S
H1126 C1133 0.950 . S
C1127 C1125 1.387 . S
C1127 C1129 1.390 . S
C1127 H1131 0.950 . S
H1128 C1124 0.950 . S
C1129 C1127 1.390 . S
C1129 C1130 1.387 . S
C1129 H1132 0.950 . S
C1130 C1129 1.387 . S
C1130 C1133 1.387 . S
H1131 C1127 0.950 . S
H1132 C1129 0.950 . S
C1133 C1124 1.390 . S
C1133 H1126 0.950 . S
C1133 C1130 1.387 . S
C1134 C1135 1.387 . S
C1134 H1138 0.950 . S
C1134 C1143 1.390 . S
C1135 C1134 1.387 . S
C1135 C1137 1.387 . S
H1136 C1143 0.950 . S
C1137 C1135 1.387 . S
C1137 C1139 1.390 . S
C1137 H1141 0.950 . S
H1138 C1134 0.950 . S
C1139 C1137 1.390 . S
C1139 C1140 1.387 . S
C1139 H1142 0.950 . S
C1140 C1139 1.387 . S
C1140 C1143 1.387 . S
H1141 C1137 0.950 . S
H1142 C1139 0.950 . S
C1143 C1134 1.390 . S
C1143 H1136 0.950 . S
C1143 C1140 1.387 . S
C1144 C1145 1.387 . S
C1144 H1148 0.950 . S
C1144 C1153 1.390 . S
C1145 C1144 1.387 . S
C1145 C1147 1.387 . S
H1146 C1153 0.950 . S
C1147 C1145 1.387 . S
C1147 C1149 1.390 . S
C1147 H1151 0.950 . S
H1148 C1144 0.950 . S
C1149 C1147 1.390 . S
C1149 C1150 1.387 . S
C1149 H1152 0.950 . S
C1150 C1149 1.387 . S
C1150 C1153 1.387 . S
H1151 C1147 0.950 . S
H1152 C1149 0.950 . S
C1153 C1144 1.390 . S
C1153 H1146 0.950 . S
C1153 C1150 1.387 . S
C1154 C1155 1.387 . S
C1154 H1158 0.950 . S
C1154 C1163 1.390 . S
C1155 C1154 1.387 . S
C1155 C1157 1.387 . S
H1156 C1163 0.950 . S
C1157 C1155 1.387 . S
C1157 C1159 1.390 . S
C1157 H1161 0.950 . S
H1158 C1154 0.950 . S
C1159 C1157 1.390 . S
C1159 C1160 1.387 . S
C1159 H1162 0.950 . S
C1160 C1159 1.387 . S
C1160 C1163 1.387 . S
H1161 C1157 0.950 . S
H1162 C1159 0.950 . S
C1163 C1154 1.390 . S
C1163 H1156 0.950 . S
C1163 C1160 1.387 . S
C1164 C1165 1.387 . S
C1164 H1168 0.950 . S
C1164 C1173 1.390 1_565 S
C1165 C1164 1.387 . S
C1165 C1167 1.387 . S
H1166 C1173 0.950 . S
C1167 C1165 1.387 . S
C1167 C1169 1.390 1_565 S
C1167 H1171 0.950 . S
H1168 C1164 0.950 . S
C1169 C1167 1.390 1_545 S
C1169 C1170 1.387 . S
C1169 H1172 0.950 . S
C1170 C1169 1.387 . S
C1170 C1173 1.387 . S
H1171 C1167 0.950 . S
H1172 C1169 0.950 . S
C1173 C1164 1.390 1_545 S
C1173 H1166 0.950 . S
C1173 C1170 1.387 . S
C1174 C1175 1.387 1_654 S
C1174 H1178 0.950 1_554 S
C1174 C1183 1.390 1_545 S
C1175 C1174 1.387 1_456 S
C1175 C1177 1.387 1_556 S
H1176 C1183 0.950 . S
C1177 C1175 1.387 1_554 S
C1177 C1179 1.390 1_545 S
C1177 H1181 0.950 1_554 S
H1178 C1174 0.950 1_556 S
C1179 C1177 1.390 1_565 S
C1179 C1180 1.387 . S
C1179 H1182 0.950 . S
C1180 C1179 1.387 . S
C1180 C1183 1.387 1_455 S
H1181 C1177 0.950 1_556 S
H1182 C1179 0.950 . S
C1183 C1174 1.390 1_565 S
C1183 H1176 0.950 . S
C1183 C1180 1.387 1_655 S
C1184 C1185 1.387 1_655 S
C1184 H1188 0.950 . S
C1184 C1193 1.390 . S
C1185 C1184 1.387 1_455 S
C1185 C1187 1.387 . S
H1186 C1193 0.950 . S
C1187 C1185 1.387 . S
C1187 C1189 1.390 . S
C1187 H1191 0.950 . S
H1188 C1184 0.950 . S
C1189 C1187 1.390 . S
C1189 C1190 1.387 . S
C1189 H1192 0.950 . S
C1190 C1189 1.387 . S
C1190 C1193 1.387 1_455 S
H1191 C1187 0.950 . S
H1192 C1189 0.950 . S
C1193 C1184 1.390 . S
C1193 H1186 0.950 . S
C1193 C1190 1.387 1_655 S
C1194 C1195 1.387 . S
C1194 H1198 0.950 . S
C1194 C1203 1.390 . S
C1195 C1194 1.387 . S
C1195 C1197 1.387 . S
H1196 C1203 0.950 . S
C1197 C1195 1.387 . S
C1197 C1199 1.390 . S
C1197 H1201 0.950 . S
H1198 C1194 0.950 . S
C1199 C1197 1.390 . S
C1199 C1200 1.387 . S
C1199 H1202 0.950 . S
C1200 C1199 1.387 . S
C1200 C1203 1.387 . S
H1201 C1197 0.950 . S
H1202 C1199 0.950 . S
C1203 C1194 1.390 . S
C1203 H1196 0.950 . S
C1203 C1200 1.387 . S
C1204 C1205 1.387 . S
C1204 H1208 0.950 . S
C1204 C1213 1.390 . S
C1205 C1204 1.387 . S
C1205 C1207 1.387 . S
H1206 C1213 0.950 . S
C1207 C1205 1.387 . S
C1207 C1209 1.390 . S
C1207 H1211 0.950 . S
H1208 C1204 0.950 . S
C1209 C1207 1.390 . S
C1209 C1210 1.387 1_554 S
C1209 H1212 0.950 . S
C1210 C1209 1.387 1_556 S
C1210 C1213 1.387 1_556 S
H1211 C1207 0.950 . S
H1212 C1209 0.950 . S
C1213 C1204 1.390 . S
C1213 H1206 0.950 . S
C1213 C1210 1.387 1_554 S
C1214 C1215 1.387 . S
C1214 H1218 0.950 . S
C1214 C1223 1.390 . S
C1215 C1214 1.387 . S
C1215 C1217 1.387 . S
H1216 C1223 0.950 . S
C1217 C1215 1.387 . S
C1217 C1219 1.390 . S
C1217 H1221 0.950 . S
H1218 C1214 0.950 . S
C1219 C1217 1.390 . S
C1219 C1220 1.387 . S
C1219 H1222 0.950 . S
C1220 C1219 1.387 . S
C1220 C1223 1.387 . S
H1221 C1217 0.950 . S
H1222 C1219 0.950 . S
C1223 C1214 1.390 . S
C1223 H1216 0.950 . S
C1223 C1220 1.387 . S
C1224 C1225 1.387 . S
C1224 H1228 0.950 . S
C1224 C1233 1.390 . S
C1225 C1224 1.387 . S
C1225 C1227 1.387 . S
H1226 C1233 0.950 . S
C1227 C1225 1.387 . S
C1227 C1229 1.390 . S
C1227 H1231 0.950 . S
H1228 C1224 0.950 . S
C1229 C1227 1.390 . S
C1229 C1230 1.387 . S
C1229 H1232 0.950 . S
C1230 C1229 1.387 . S
C1230 C1233 1.387 . S
H1231 C1227 0.950 . S
H1232 C1229 0.950 . S
C1233 C1224 1.390 . S
C1233 H1226 0.950 . S
C1233 C1230 1.387 . S
C1234 C1235 1.387 . S
C1234 H1238 0.950 . S
C1234 C1243 1.390 . S
C1235 C1234 1.387 . S
C1235 C1237 1.387 . S
H1236 C1243 0.950 . S
C1237 C1235 1.387 . S
C1237 C1239 1.390 . S
C1237 H1241 0.950 . S
H1238 C1234 0.950 . S
C1239 C1237 1.390 . S
C1239 C1240 1.387 . S
C1239 H1242 0.950 . S
C1240 C1239 1.387 . S
C1240 C1243 1.387 . S
H1241 C1237 0.950 . S
H1242 C1239 0.950 . S
C1243 C1234 1.390 . S
C1243 H1236 0.950 . S
C1243 C1240 1.387 . S
C1244 C1245 1.387 . S
C1244 H1248 0.950 . S
C1244 C1253 1.390 1_565 S
C1245 C1244 1.387 . S
C1245 C1247 1.387 . S
H1246 C1253 0.950 . S
C1247 C1245 1.387 . S
C1247 C1249 1.390 1_565 S
C1247 H1251 0.950 . S
H1248 C1244 0.950 . S
C1249 C1247 1.390 1_545 S
C1249 C1250 1.387 1_554 S
C1249 H1252 0.950 . S
C1250 C1249 1.387 1_556 S
C1250 C1253 1.387 1_556 S
H1251 C1247 0.950 . S
H1252 C1249 0.950 . S
C1253 C1244 1.390 1_545 S
C1253 H1246 0.950 . S
C1253 C1250 1.387 1_554 S
C1254 C1255 1.387 . S
C1254 H1258 0.950 . S
C1254 C1263 1.390 1_545 S
C1255 C1254 1.387 . S
C1255 C1257 1.387 1_655 S
H1256 C1263 0.950 . S
C1257 C1255 1.387 1_455 S
C1257 C1259 1.390 1_545 S
C1257 H1261 0.950 . S
H1258 C1254 0.950 . S
C1259 C1257 1.390 1_565 S
C1259 C1260 1.387 1_455 S
C1259 H1262 0.950 . S
C1260 C1259 1.387 1_655 S
C1260 C1263 1.387 . S
H1261 C1257 0.950 . S
H1262 C1259 0.950 . S
C1263 C1254 1.390 1_565 S
C1263 H1256 0.950 . S
C1263 C1260 1.387 . S
C945 C564 1.878 . S
C950 C33 1.878 . S
C955 C859 1.880 . S
C960 C92 1.880 . S
C965 C151 1.878 . S
C970 C505 1.878 . S
C975 C210 1.878 1_556 S
C980 C918 1.878 . S
C985 C269 1.878 . S
C990 C623 1.878 1_556 S
C995 C800 1.878 . S
C1000 C328 1.878 . S
C1005 C682 1.880 . S
C1010 C387 1.880 . S
C1015 C446 1.879 . S
C1020 C741 1.879 . S
C1025 C288 1.526 . S
C1030 C229 1.527 . S
C1035 C760 1.527 . S
C1040 C524 1.527 . S
C1045 C406 1.527 . S
C1050 C111 1.527 . S
C1055 C583 1.527 . S
C1060 C819 1.526 . S
C1065 C52 1.527 . S
C1070 C347 1.527 . S
C1075 C937 1.526 . S
C1080 C642 1.527 . S
C1085 C465 1.527 . S
C1090 C170 1.527 . S
C1095 C701 1.527 . S
C1100 C878 1.527 . S
C1105 C3 0.783 . S
C1110 C239 0.783 . S
C1115 C298 0.782 . S
C1120 C62 0.782 . S
C1125 C357 0.779 . S
C1130 C121 0.779 . S
C1135 C180 0.783 . S
C1140 C416 0.783 . S
C1145 C593 0.783 . S
C1150 C475 0.783 . S
C1155 C652 0.779 . S
C1160 C534 0.779 . S
C1165 C829 0.783 . S
C1170 C711 0.783 . S
C1175 C888 0.779 . S
C1180 C770 0.779 . S
C1185 C241 1.923 . S
C1190 C5 1.923 . S
C1195 C300 1.922 . S
C1200 C64 1.922 . S
C1205 C359 1.922 . S
C1210 C123 1.922 . S
C1215 C182 1.923 . S
C1220 C418 1.923 . S
C1225 C477 1.923 . S
C1230 C595 1.923 . S
C1235 C654 1.924 . S
C1240 C536 1.924 . S
C1245 C831 1.924 . S
C1250 C713 1.924 . S
C1255 C890 1.922 . S
C1260 C772 1.922 . S
