# Generated by pormake.
# Topology whw, (6)-cn, num edge types: 1
# Building blocks:
#     Node 0, Type 0, BuildingBlock: BETDAH_clean_sbu_0, # of connection points: 6
#     Node 1, Type 0, BuildingBlock: BETDAH_clean_sbu_0, # of connection points: 6
#     Node 2, Type 0, BuildingBlock: BETDAH_clean_sbu_0, # of connection points: 6
#     Node 3, Type 0, BuildingBlock: BETDAH_clean_sbu_0, # of connection points: 6
#     Node 4, Type 0, BuildingBlock: BETDAH_clean_sbu_0, # of connection points: 6
#     Node 5, Type 0, BuildingBlock: BETDAH_clean_sbu_0, # of connection points: 6
#     Node 6, Type 0, BuildingBlock: BETDAH_clean_sbu_0, # of connection points: 6
#     Node 7, Type 0, BuildingBlock: BETDAH_clean_sbu_0, # of connection points: 6
#     Node 8, Type 0, BuildingBlock: BETDAH_clean_sbu_0, # of connection points: 6
#     Node 9, Type 0, BuildingBlock: BETDAH_clean_sbu_0, # of connection points: 6
#     Node 10, Type 0, BuildingBlock: BETDAH_clean_sbu_0, # of connection points: 6
#     Node 11, Type 0, BuildingBlock: BETDAH_clean_sbu_0, # of connection points: 6
#     Node 12, Type 0, BuildingBlock: BETDAH_clean_sbu_0, # of connection points: 6
#     Node 13, Type 0, BuildingBlock: BETDAH_clean_sbu_0, # of connection points: 6
#     Node 14, Type 0, BuildingBlock: BETDAH_clean_sbu_0, # of connection points: 6
#     Node 15, Type 0, BuildingBlock: BETDAH_clean_sbu_0, # of connection points: 6
#     Edge 16, Type (0, 0), BuildingBlock: UVAHIK_clean_linker_0, # of connection points: 2
#     Edge 17, Type (0, 0), BuildingBlock: UVAHIK_clean_linker_0, # of connection points: 2
#     Edge 18, Type (0, 0), BuildingBlock: UVAHIK_clean_linker_0, # of connection points: 2
#     Edge 19, Type (0, 0), BuildingBlock: UVAHIK_clean_linker_0, # of connection points: 2
#     Edge 20, Type (0, 0), BuildingBlock: UVAHIK_clean_linker_0, # of connection points: 2
#     Edge 21, Type (0, 0), BuildingBlock: UVAHIK_clean_linker_0, # of connection points: 2
#     Edge 22, Type (0, 0), BuildingBlock: UVAHIK_clean_linker_0, # of connection points: 2
#     Edge 23, Type (0, 0), BuildingBlock: UVAHIK_clean_linker_0, # of connection points: 2
#     Edge 24, Type (0, 0), BuildingBlock: UVAHIK_clean_linker_0, # of connection points: 2
#     Edge 25, Type (0, 0), BuildingBlock: UVAHIK_clean_linker_0, # of connection points: 2
#     Edge 26, Type (0, 0), BuildingBlock: UVAHIK_clean_linker_0, # of connection points: 2
#     Edge 27, Type (0, 0), BuildingBlock: UVAHIK_clean_linker_0, # of connection points: 2
#     Edge 28, Type (0, 0), BuildingBlock: UVAHIK_clean_linker_0, # of connection points: 2
#     Edge 29, Type (0, 0), BuildingBlock: UVAHIK_clean_linker_0, # of connection points: 2
#     Edge 30, Type (0, 0), BuildingBlock: UVAHIK_clean_linker_0, # of connection points: 2
#     Edge 31, Type (0, 0), BuildingBlock: UVAHIK_clean_linker_0, # of connection points: 2
#     Edge 32, Type (0, 0), BuildingBlock: UVAHIK_clean_linker_0, # of connection points: 2
#     Edge 33, Type (0, 0), BuildingBlock: UVAHIK_clean_linker_0, # of connection points: 2
#     Edge 34, Type (0, 0), BuildingBlock: UVAHIK_clean_linker_0, # of connection points: 2
#     Edge 35, Type (0, 0), BuildingBlock: UVAHIK_clean_linker_0, # of connection points: 2
#     Edge 36, Type (0, 0), BuildingBlock: UVAHIK_clean_linker_0, # of connection points: 2
#     Edge 37, Type (0, 0), BuildingBlock: UVAHIK_clean_linker_0, # of connection points: 2
#     Edge 38, Type (0, 0), BuildingBlock: UVAHIK_clean_linker_0, # of connection points: 2
#     Edge 39, Type (0, 0), BuildingBlock: UVAHIK_clean_linker_0, # of connection points: 2
#     Edge 40, Type (0, 0), BuildingBlock: UVAHIK_clean_linker_0, # of connection points: 2
#     Edge 41, Type (0, 0), BuildingBlock: UVAHIK_clean_linker_0, # of connection points: 2
#     Edge 42, Type (0, 0), BuildingBlock: UVAHIK_clean_linker_0, # of connection points: 2
#     Edge 43, Type (0, 0), BuildingBlock: UVAHIK_clean_linker_0, # of connection points: 2
#     Edge 44, Type (0, 0), BuildingBlock: UVAHIK_clean_linker_0, # of connection points: 2
#     Edge 45, Type (0, 0), BuildingBlock: UVAHIK_clean_linker_0, # of connection points: 2
#     Edge 46, Type (0, 0), BuildingBlock: UVAHIK_clean_linker_0, # of connection points: 2
#     Edge 47, Type (0, 0), BuildingBlock: UVAHIK_clean_linker_0, # of connection points: 2
#     Edge 48, Type (0, 0), BuildingBlock: UVAHIK_clean_linker_0, # of connection points: 2
#     Edge 49, Type (0, 0), BuildingBlock: UVAHIK_clean_linker_0, # of connection points: 2
#     Edge 50, Type (0, 0), BuildingBlock: UVAHIK_clean_linker_0, # of connection points: 2
#     Edge 51, Type (0, 0), BuildingBlock: UVAHIK_clean_linker_0, # of connection points: 2
#     Edge 52, Type (0, 0), BuildingBlock: UVAHIK_clean_linker_0, # of connection points: 2
#     Edge 53, Type (0, 0), BuildingBlock: UVAHIK_clean_linker_0, # of connection points: 2
#     Edge 54, Type (0, 0), BuildingBlock: UVAHIK_clean_linker_0, # of connection points: 2
#     Edge 55, Type (0, 0), BuildingBlock: UVAHIK_clean_linker_0, # of connection points: 2
#     Edge 56, Type (0, 0), BuildingBlock: UVAHIK_clean_linker_0, # of connection points: 2
#     Edge 57, Type (0, 0), BuildingBlock: UVAHIK_clean_linker_0, # of connection points: 2
#     Edge 58, Type (0, 0), BuildingBlock: UVAHIK_clean_linker_0, # of connection points: 2
#     Edge 59, Type (0, 0), BuildingBlock: UVAHIK_clean_linker_0, # of connection points: 2
#     Edge 60, Type (0, 0), BuildingBlock: UVAHIK_clean_linker_0, # of connection points: 2
#     Edge 61, Type (0, 0), BuildingBlock: UVAHIK_clean_linker_0, # of connection points: 2
#     Edge 62, Type (0, 0), BuildingBlock: UVAHIK_clean_linker_0, # of connection points: 2
#     Edge 63, Type (0, 0), BuildingBlock: UVAHIK_clean_linker_0, # of connection points: 2
# Relax obj value: 0.313
# Max RMSD: 0.215
# Mean RMSD: 0.195
data_MOF--net-whw--node1-BETDAH_clean_sbu_0--edge1-UVAHIK_clean_linker_0
_symmetry_space_group_name_H-M    P1
_symmetry_Int_Tables_number       1
_symmetry_cell_setting            triclinic
loop_
_symmetry_equiv_pos_as_xyz
'x, y, z'
_cell_length_a     60.157356
_cell_length_b     59.745984
_cell_length_c     42.28187
_cell_angle_alpha  90.139901
_cell_angle_beta   94.784838
_cell_angle_gamma 93.573439
loop_
_atom_site_label
_atom_site_type_symbol
_atom_site_fract_x
_atom_site_fract_y
_atom_site_fract_z
_atom_type_partial_charge
Ho0 Ho 0.0275 0.15616 0.14356 0.0
Ho1 Ho 0.98488 0.13392 0.16281 0.0
C2 C 0.98785 0.15283 0.09014 0.0
C3 C 0.06804 0.16288 0.12944 0.0
C4 C 0.07852 0.15803 0.10027 0.0
C5 C 0.09684 0.14456 0.10177 0.0
C6 C 0.10502 0.13704 0.07396 0.0
C7 C 0.09507 0.14303 0.04417 0.0
C8 C 0.07709 0.15707 0.04282 0.0
C9 C 0.06877 0.16434 0.07057 0.0
C10 C -0.00273 0.18389 0.16206 0.0
C11 C 0.02381 0.14519 0.21897 0.0
C12 C 0.94437 0.12255 0.17517 0.0
C13 C 0.9331 0.12378 0.20433 0.0
C14 C 0.9451 0.13235 0.23198 0.0
C15 C 0.93532 0.13181 0.26061 0.0
C16 C 0.91335 0.1227 0.26206 0.0
C17 C 0.901 0.1149 0.23409 0.0
C18 C 0.91092 0.11534 0.2053 0.0
C19 C 0.01321 0.10499 0.14051 0.0
O20 O 0.0098 0.15277 0.09504 0.0
O21 O 0.97492 0.1482 0.1136 0.0
O22 O 0.05382 0.17871 0.12797 0.0
O23 O 0.0609 0.14499 0.14436 0.0
O24 O 0.01004 0.18885 0.13942 0.0
O25 O 0.00248 0.16578 0.17427 0.0
O26 O 0.00196 0.14105 0.21228 0.0
O27 O 0.03702 0.14889 0.19569 0.0
O28 O 0.96029 0.10862 0.17616 0.0
O29 O 0.95028 0.14184 0.1629 0.0
O30 O 0.00174 0.10142 0.16479 0.0
O31 O 0.00914 0.12404 0.12961 0.0
H32 H 0.10434 0.13922 0.12448 0.0
H33 H 0.11874 0.12609 0.07582 0.0
H34 H 0.06935 0.16242 1.02029 0.0
H35 H 0.05441 0.17447 0.06867 0.0
H36 H 0.9622 0.13899 0.23158 0.0
H37 H 0.94505 0.13831 0.28175 0.0
H38 H 0.88402 0.10783 0.23472 0.0
H39 H 0.90149 0.10867 0.18404 0.0
Ho40 Ho 0.14569 0.77975 0.42994 0.0
Ho41 Ho 0.14801 0.7346 0.39451 0.0
C42 C 0.15449 0.73383 0.4688 0.0
C43 C 0.1384 0.81258 0.46708 0.0
C44 C 0.13007 0.81754 0.49798 0.0
C45 C 0.1299 0.80186 0.52268 0.0
C46 C 0.12221 0.80758 0.55193 0.0
C47 C 0.11439 0.82897 0.55674 0.0
C48 C 0.11451 0.84445 0.53173 0.0
C49 C 0.12228 0.83878 0.50274 0.0
C50 C 0.18398 0.7736 0.40274 0.0
C51 C 0.13238 0.77952 0.35564 0.0
C52 C 0.15671 0.70418 0.35459 0.0
C53 C 0.14862 0.69859 0.32146 0.0
C54 C 0.16361 0.69174 0.30022 0.0
C55 C 0.15606 0.68594 0.26888 0.0
C56 C 0.13332 0.68675 0.25836 0.0
C57 C 0.11843 0.69408 0.27955 0.0
C58 C 0.12602 0.70006 0.31073 0.0
C59 C 0.10966 0.73985 0.4208 0.0
O60 O 0.14567 0.7536 0.46809 0.0
O61 O 0.16112 0.72443 0.44308 0.0
O62 O 0.15762 0.80338 0.46734 0.0
O63 O 0.12365 0.80423 0.445 0.0
O64 O 0.17519 0.79279 0.40433 0.0
O65 O 0.17281 0.75902 0.41729 0.0
O66 O 0.13868 0.75864 0.3549 0.0
O67 O 0.13179 0.79079 0.38243 0.0
O68 O 0.14219 0.70093 0.37575 0.0
O69 O 0.16876 0.72308 0.35901 0.0
O70 O 0.11775 0.7205 0.41704 0.0
O71 O 0.12093 0.75497 0.40738 0.0
H72 H 0.13573 0.78529 0.51937 0.0
H73 H 0.12216 0.79522 0.57063 0.0
H74 H 0.10894 0.86116 0.53473 0.0
H75 H 0.12232 0.85112 0.484 0.0
H76 H 0.18114 0.69069 0.30796 0.0
H77 H 0.1679 0.68028 0.25313 0.0
H78 H 0.10089 0.69524 0.27198 0.0
H79 H 0.11417 0.70567 0.32651 0.0
Ho80 Ho 0.48862 0.86335 0.68489 0.0
Ho81 Ho 0.50658 0.86652 0.61814 0.0
C82 C 0.54086 0.8586 0.67894 0.0
C83 C 0.47621 0.85216 0.74063 0.0
C84 C 0.46903 0.84561 0.77287 0.0
C85 C 0.46508 0.82297 0.78092 0.0
C86 C 0.45933 0.81671 0.81154 0.0
C87 C 0.45673 0.83288 0.83535 0.0
C88 C 0.46046 0.85566 0.82678 0.0
C89 C 0.46675 0.86184 0.79637 0.0
C90 C 0.4997 0.90537 0.66366 0.0
C91 C 0.45684 0.87914 0.62557 0.0
C92 C 0.52756 0.86389 0.56669 0.0
C93 C 0.52762 0.85428 0.53363 0.0
C94 C 0.52276 0.86721 0.50641 0.0
C95 C 0.5262 0.85922 0.47579 0.0
C96 C 0.535 0.83811 0.47123 0.0
C97 C 0.53943 0.82509 0.49862 0.0
C98 C 0.53577 0.83296 0.52905 0.0
C99 C 0.48081 0.82889 0.62856 0.0
O100 O 0.52383 0.85412 0.69607 0.0
O101 O 0.53849 0.86661 0.64991 0.0
O102 O 0.48918 0.87007 0.73589 0.0
O103 O 0.46969 0.8406 0.7147 0.0
O104 O 0.48297 0.90057 0.68053 0.0
O105 O 0.50986 0.88794 0.66032 0.0
O106 O 0.47502 0.88462 0.61064 0.0
O107 O 0.45765 0.86729 0.65221 0.0
O108 O 0.52889 0.84971 0.59019 0.0
O109 O 0.51535 0.88074 0.57255 0.0
O110 O 0.4776 0.84266 0.60553 0.0
O111 O 0.49567 0.83812 0.64824 0.0
H112 H 0.46693 0.80993 0.76366 0.0
H113 H 0.45735 0.79898 0.81637 0.0
H114 H 0.45835 0.86902 0.84331 0.0
H115 H 0.4696 0.87947 0.79114 0.0
H116 H 0.51677 0.88381 0.50878 0.0
H117 H 0.52205 0.86981 0.45573 0.0
H118 H 0.54658 0.809 0.49696 0.0
H119 H 0.54019 0.82252 0.54923 0.0
Ho120 Ho 0.36272 0.21017 0.90103 0.0
Ho121 Ho 0.36055 0.25527 0.86605 0.0
C122 C 0.35251 0.25558 0.93829 0.0
C123 C 0.36941 0.17706 0.93917 0.0
C124 C 0.37698 0.17207 0.97214 0.0
C125 C 0.3795 0.18865 0.996 0.0
C126 C 0.38694 0.18309 0.02715 0.0
C127 C 0.39214 0.16096 0.03464 0.0
C128 C 0.38947 0.14452 1.01054 0.0
C129 C 0.38195 0.15005 0.97964 0.0
C130 C 0.32537 0.21491 0.86251 0.0
C131 C 0.37819 0.2112 0.83112 0.0
C132 C 0.35308 0.28555 0.82357 0.0
C133 C 0.36252 0.29128 0.79309 0.0
C134 C 0.34892 0.28911 0.76447 0.0
C135 C 0.35768 0.29425 0.73549 0.0
C136 C 0.38024 0.30183 0.73451 0.0
C137 C 0.3938 0.30403 0.76326 0.0
C138 C 0.38509 0.29876 0.79214 0.0
C139 C 0.3983 0.25044 0.90305 0.0
O140 O 0.36135 0.23584 0.93961 0.0
O141 O 0.34644 0.2652 0.911 0.0
O142 O 0.35016 0.18609 0.93429 0.0
O143 O 0.3846 0.18581 0.92166 0.0
O144 O 0.33471 0.19613 0.86718 0.0
O145 O 0.33532 0.23007 0.88025 0.0
O146 O 0.37216 0.23214 0.82921 0.0
O147 O 0.37762 0.19942 0.85743 0.0
O148 O 0.36633 0.28912 0.84946 0.0
O149 O 0.34107 0.26655 0.82427 0.0
O150 O 0.38987 0.26963 0.89757 0.0
O151 O 0.3877 0.23532 0.88608 0.0
H152 H 0.37582 0.2058 0.99052 0.0
H153 H 0.38897 0.19611 0.04522 0.0
H154 H 0.393 0.12728 1.01565 0.0
H155 H 0.38004 0.13706 0.96151 0.0
H156 H 0.33149 0.28332 0.76449 0.0
H157 H 0.34679 0.29205 0.71385 0.0
H158 H 0.41114 0.31018 0.76359 0.0
H159 H 0.3961 0.30065 0.81372 0.0
Ho160 Ho 0.02445 0.89586 0.9155 0.0
Ho161 Ho 0.97944 0.89078 0.87474 0.0
C162 C 0.97884 0.87601 0.94685 0.0
C163 C 0.05481 0.90639 0.96081 0.0
C164 C 0.05949 0.89734 0.99291 0.0
C165 C 0.06896 0.91146 1.01763 0.0
C166 C 0.07387 0.90283 0.048 0.0
C167 C 0.06949 0.8799 0.05409 0.0
C168 C 0.05956 0.86592 0.02935 0.0
C169 C 0.05451 0.87457 0.99911 0.0
C170 C 0.0175 0.85729 0.88325 0.0
C171 C 0.026 0.9017 0.84201 0.0
C172 C 0.94679 0.88201 0.83178 0.0
C173 C 0.9426 0.87352 0.79864 0.0
C174 C 0.93641 0.85071 0.79275 0.0
C175 C 0.93026 0.8429 0.76187 0.0
C176 C 0.93007 0.85768 0.73598 0.0
C177 C 0.93671 0.88043 0.74182 0.0
C178 C 0.94282 0.88827 0.77277 0.0
C179 C 0.98801 0.92945 0.90812 0.0
O180 O 0.00011 0.88358 0.95077 0.0
O181 O 0.96738 0.87543 0.91878 0.0
O182 O 0.05784 0.89293 0.93733 0.0
O183 O 0.0364 0.91692 0.95603 0.0
O184 O 0.03719 0.86669 0.89113 0.0
O185 O 0.0027 0.86721 0.89624 0.0
O186 O 0.00549 0.89212 0.83938 0.0
O187 O 0.03589 0.90902 0.86961 0.0
O188 O 0.95685 0.90199 0.83629 0.0
O189 O 0.9534 0.86766 0.85341 0.0
O190 O 0.96839 0.91914 0.90373 0.0
O191 O 0.00174 0.91938 0.8933 0.0
H192 H 0.07274 0.9291 1.01336 0.0
H193 H 0.0816 0.91401 0.06651 0.0
H194 H 0.05563 0.84827 0.03341 0.0
H195 H 0.04684 0.86341 0.98051 0.0
H196 H 0.93574 0.83893 0.81213 0.0
H197 H 0.92492 0.82535 0.75849 0.0
H198 H 0.93707 0.89226 0.72249 0.0
H199 H 0.9473 0.90597 0.77645 0.0
Ho200 Ho 0.39965 0.76878 0.23181 0.0
Ho201 Ho 0.41064 0.72243 0.20719 0.0
C202 C 0.41871 0.73088 0.28205 0.0
C203 C 0.37828 0.79947 0.25702 0.0
C204 C 0.37539 0.80695 0.28928 0.0
C205 C 0.35393 0.81125 0.29735 0.0
C206 C 0.35045 0.8169 0.3285 0.0
C207 C 0.36843 0.81835 0.35201 0.0
C208 C 0.38998 0.8142 0.34368 0.0
C209 C 0.39341 0.80839 0.31261 0.0
C210 C 0.44211 0.76804 0.21748 0.0
C211 C 0.40134 0.76197 0.15515 0.0
C212 C 0.42131 0.68638 0.18003 0.0
C213 C 0.41448 0.67693 0.14837 0.0
C214 C 0.41716 0.68985 0.12111 0.0
C215 C 0.40772 0.68211 0.09166 0.0
C216 C 0.39539 0.66135 0.0889 0.0
C217 C 0.39337 0.64805 0.11596 0.0
C218 C 0.40285 0.65582 0.14553 0.0
C219 C 0.36806 0.72678 0.22168 0.0
O220 O 0.40737 0.7493 0.27788 0.0
O221 O 0.42488 0.71957 0.25761 0.0
O222 O 0.39807 0.80325 0.24673 0.0
O223 O 0.36959 0.77937 0.24997 0.0
O224 O 0.4321 0.78622 0.22247 0.0
O225 O 0.43051 0.75163 0.22811 0.0
O226 O 0.4077 0.74145 0.16106 0.0
O227 O 0.39553 0.77519 0.17821 0.0
O228 O 0.40529 0.68671 0.19896 0.0
O229 O 0.43386 0.70505 0.18119 0.0
O230 O 0.37917 0.7093 0.22795 0.0
O231 O 0.38002 0.74091 0.20748 0.0
H232 H 0.3398 0.80985 0.27965 0.0
H233 H 0.33364 0.81972 0.33428 0.0
H234 H 0.40424 0.81554 0.36114 0.0
H235 H 0.41007 0.80484 0.30694 0.0
H236 H 0.42603 0.70621 0.12256 0.0
H237 H 0.41003 0.69245 0.07102 0.0
H238 H 0.38399 0.63195 0.11439 0.0
H239 H 0.40048 0.64568 0.16633 0.0
Ho240 Ho 0.48518 0.09787 0.41211 0.0
Ho241 Ho 0.52955 0.1018 0.38001 0.0
C242 C 0.53178 0.11622 0.4526 0.0
C243 C 0.45466 0.08903 0.45063 0.0
C244 C 0.44973 0.09804 0.48178 0.0
C245 C 0.45567 0.08645 0.50982 0.0
C246 C 0.45129 0.09499 0.53933 0.0
C247 C 0.44075 0.11524 0.54143 0.0
C248 C 0.43467 0.12671 0.51334 0.0
C249 C 0.43908 0.11822 0.48388 0.0
C250 C 0.49243 0.13611 0.38064 0.0
C251 C 0.48231 0.09028 0.33861 0.0
C252 C 0.5617 0.11011 0.34401 0.0
C253 C 0.56562 0.11832 0.31182 0.0
C254 C 0.57332 0.14071 0.30764 0.0
C255 C 0.57938 0.14814 0.2781 0.0
C256 C 0.57795 0.13333 0.25197 0.0
C257 C 0.56973 0.11105 0.25597 0.0
C258 C 0.5637 0.1036 0.28559 0.0
C259 C 0.52172 0.0636 0.41229 0.0
O260 O 0.5105 0.10899 0.45236 0.0
O261 O 0.54263 0.11697 0.42669 0.0
O262 O 0.45204 0.1023 0.42624 0.0
O263 O 0.47271 0.07796 0.45028 0.0
O264 O 0.47271 0.1271 0.38448 0.0
O265 O 0.50715 0.12592 0.39678 0.0
O266 O 0.50273 0.09997 0.33959 0.0
O267 O 0.47307 0.08342 0.36452 0.0
O268 O 0.55152 0.09023 0.34637 0.0
O269 O 0.5554 0.12469 0.36409 0.0
O270 O 0.54136 0.07343 0.41031 0.0
O271 O 0.50736 0.07364 0.3952 0.0
H272 H 0.4638 0.07081 0.50896 0.0
H273 H 0.45638 0.08584 0.56052 0.0
H274 H 0.42617 0.14214 0.51404 0.0
H275 H 0.43408 0.1275 0.46278 0.0
H276 H 0.57529 0.15239 0.32746 0.0
H277 H 0.58596 0.16531 0.27609 0.0
H278 H 0.56814 0.09928 0.23628 0.0
H279 H 0.55797 0.08619 0.28802 0.0
Ho280 Ho 0.10497 0.21669 0.60867 0.0
Ho281 Ho 0.11069 0.26534 0.58882 0.0
C282 C 0.09465 0.2569 0.65793 0.0
C283 C 0.10958 0.17849 0.63573 0.0
C284 C 0.1159 0.17127 0.6681 0.0
C285 C 0.12932 0.15306 0.67306 0.0
C286 C 0.1358 0.14632 0.70388 0.0
C287 C 0.12892 0.15776 0.7301 0.0
C288 C 0.11557 0.17612 0.72491 0.0
C289 C 0.1092 0.18286 0.69418 0.0
C290 C 0.06943 0.23208 0.57501 0.0
C291 C 0.10974 0.22496 0.53526 0.0
C292 C 0.11443 0.30403 0.56209 0.0
C293 C 0.11521 0.31104 0.52909 0.0
C294 C 0.10489 0.29736 0.50443 0.0
C295 C 0.10936 0.30167 0.47313 0.0
C296 C 0.12408 0.31982 0.46611 0.0
C297 C 0.13349 0.33415 0.49069 0.0
C298 C 0.12918 0.32968 0.52205 0.0
C299 C 0.14474 0.25089 0.62706 0.0
O300 O 0.10045 0.23593 0.65437 0.0
O301 O 0.09437 0.27117 0.6339 0.0
O302 O 0.09036 0.18765 0.63118 0.0
O303 O 0.12554 0.18925 0.62161 0.0
O304 O 0.07438 0.21129 0.57413 0.0
O305 O 0.08191 0.24271 0.59599 0.0
O306 O 0.10796 0.24654 0.54142 0.0
O307 O 0.11248 0.21032 0.55844 0.0
O308 O 0.13148 0.29289 0.57267 0.0
O309 O 0.09538 0.295 0.57028 0.0
O310 O 0.1371 0.27054 0.62837 0.0
O311 O 0.13457 0.23965 0.60416 0.0
H312 H 0.13481 0.1441 0.6531 0.0
H313 H 0.14624 0.13225 0.7072 0.0
H314 H 0.10964 0.18503 0.74457 0.0
H315 H 0.09891 0.19701 0.69082 0.0
H316 H 0.09402 0.2829 0.50946 0.0
H317 H 0.10157 0.29065 0.45446 0.0
H318 H 0.14486 0.34825 0.48578 0.0
H319 H 0.13747 0.34023 0.54093 0.0
Ho320 Ho 0.88778 0.26456 0.7235 0.0
Ho321 Ho 0.90889 0.22203 0.70134 0.0
C322 C 0.91202 0.23073 0.77568 0.0
C323 C 0.85988 0.28974 0.74698 0.0
C324 C 0.85955 0.3024 0.77647 0.0
C325 C 0.83918 0.30458 0.78964 0.0
C326 C 0.83881 0.31452 0.81947 0.0
C327 C 0.85882 0.32281 0.83592 0.0
C328 C 0.87916 0.3211 0.82235 0.0
C329 C 0.87957 0.31074 0.7929 0.0
C330 C 0.93136 0.2721 0.71576 0.0
C331 C 0.89466 0.2591 0.64835 0.0
C332 C 0.92785 0.19053 0.67418 0.0
C333 C 0.92185 0.17921 0.64342 0.0
C334 C 0.93649 0.18169 0.61936 0.0
C335 C 0.92966 0.17431 0.58856 0.0
C336 C 0.9081 0.1642 0.58134 0.0
C337 C 0.89379 0.16087 0.60571 0.0
C338 C 0.90056 0.16838 0.63647 0.0
C339 C 0.86438 0.21848 0.70946 0.0
O340 O 0.8968 0.24587 0.76994 0.0
O341 O 0.92211 0.222 0.75232 0.0
O342 O 0.87444 0.29707 0.7275 0.0
O343 O 0.85932 0.26801 0.75047 0.0
O344 O 0.91792 0.28786 0.71987 0.0
O345 O 0.9219 0.2538 0.72432 0.0
O346 O 0.90539 0.24095 0.65566 0.0
O347 O 0.88427 0.26998 0.6698 0.0
O348 O 0.91416 0.18676 0.69631 0.0
O349 O 0.93432 0.2117 0.67225 0.0
O350 O 0.87796 0.20302 0.71683 0.0
O351 O 0.87508 0.23447 0.69722 0.0
H352 H 0.82367 0.29824 0.77707 0.0
H353 H 0.823 0.31573 0.8297 0.0
H354 H 0.89479 0.3272 0.83498 0.0
H355 H 0.89549 0.30885 0.78327 0.0
H356 H 0.95292 0.19012 0.62413 0.0
H357 H 0.94115 0.1768 0.57029 0.0
H358 H 0.87703 0.15328 0.60075 0.0
H359 H 0.88877 0.16644 0.65443 0.0
Ho360 Ho 0.60324 0.71953 0.10944 0.0
Ho361 Ho 0.60483 0.76798 0.08888 0.0
C362 C 0.59075 0.75887 0.15888 0.0
C363 C 0.61245 0.682 0.13542 0.0
C364 C 0.62299 0.67653 0.16633 0.0
C365 C 0.63358 0.6937 0.18578 0.0
C366 C 0.64118 0.68917 0.21688 0.0
C367 C 0.63763 0.66755 0.22911 0.0
C368 C 0.62825 0.65008 0.2089 0.0
C369 C 0.62097 0.65459 0.17755 0.0
C370 C 0.56587 0.73091 0.07637 0.0
C371 C 0.60489 0.72799 0.03521 0.0
C372 C 0.60596 0.80666 0.06182 0.0
C373 C 0.60567 0.81366 0.02868 0.0
C374 C 0.59499 0.7998 1.00448 0.0
C375 C 0.59882 0.80397 0.97291 0.0
C376 C 0.61329 0.82214 0.96513 0.0
C377 C 0.623 0.83668 0.98928 0.0
C378 C 0.61929 0.83238 1.0209 0.0
C379 C 0.64093 0.756 0.12572 0.0
O380 O 0.59823 0.7385 0.15546 0.0
O381 O 0.58882 0.77275 0.13447 0.0
O382 O 0.59292 0.69048 0.13601 0.0
O383 O 0.62562 0.69297 0.11692 0.0
O384 O 0.57255 0.71071 0.07681 0.0
O385 O 0.57764 0.74316 0.09647 0.0
O386 O 0.60185 0.74931 0.0414 0.0
O387 O 0.60946 0.71377 0.05841 0.0
O388 O 0.62379 0.79643 0.07159 0.0
O389 O 0.58759 0.79676 0.07105 0.0
O390 O 0.63178 0.77485 0.12775 0.0
O391 O 0.63093 0.74431 0.10322 0.0
H392 H 0.63494 0.7108 0.17741 0.0
H393 H 0.64851 0.70286 0.23193 0.0
H394 H 0.62502 0.63333 0.21787 0.0
H395 H 0.61273 0.64125 0.16265 0.0
H396 H 0.58442 0.78526 1.01009 0.0
H397 H 0.59081 0.79277 0.95461 0.0
H398 H 0.63423 0.85077 0.98386 0.0
H399 H 0.6279 0.84305 0.03939 0.0
Ho400 Ho 0.65102 0.27829 0.92957 0.0
Ho401 Ho 0.65004 0.2322 0.89603 0.0
C402 C 0.65565 0.23237 0.97018 0.0
C403 C 0.64649 0.31134 0.96755 0.0
C404 C 0.63889 0.31517 0.9994 0.0
C405 C 0.61684 0.3093 1.00643 0.0
C406 C 0.60968 0.31476 0.03599 0.0
C407 C 0.62441 0.32607 0.05925 0.0
C408 C 0.64663 0.33125 0.05239 0.0
C409 C 0.65372 0.32597 1.02278 0.0
C410 C 0.68839 0.26893 0.90234 0.0
C411 C 0.63664 0.27741 0.85578 0.0
C412 C 0.65719 0.20076 0.85684 0.0
C413 C 0.64879 0.19562 0.82379 0.0
C414 C 0.66245 0.18547 0.80338 0.0
C415 C 0.6545 0.18039 0.77197 0.0
C416 C 0.63271 0.1853 0.7606 0.0
C417 C 0.61927 0.19592 0.78099 0.0
C418 C 0.62728 0.20114 0.81224 0.0
C419 C 0.61238 0.24065 0.92205 0.0
O420 O 0.6485 0.25285 0.96823 0.0
O421 O 0.66204 0.22193 0.94513 0.0
O422 O 0.6652 0.30137 0.96649 0.0
O423 O 0.63129 0.3046 0.94495 0.0
O424 O 0.6809 0.28877 0.9033 0.0
O425 O 0.67651 0.25539 0.91759 0.0
O426 O 0.64057 0.25579 0.85579 0.0
O427 O 0.63819 0.28974 0.88191 0.0
O428 O 0.64245 0.19856 0.87788 0.0
O429 O 0.67024 0.21903 0.8611 0.0
O430 O 0.61913 0.22061 0.91902 0.0
O431 O 0.62455 0.25475 0.90814 0.0
H432 H 0.60498 0.30092 0.98893 0.0
H433 H 0.59239 0.31067 0.04021 0.0
H434 H 0.65859 0.33952 0.06986 0.0
H435 H 0.6708 0.33063 1.01798 0.0
H436 H 0.67919 0.18134 0.81181 0.0
H437 H 0.66519 0.17216 0.75682 0.0
H438 H 0.60257 0.20026 0.77273 0.0
H439 H 0.6166 0.20939 0.82742 0.0
Ho440 Ho 0.86064 0.70942 0.39554 0.0
Ho441 Ho 0.85934 0.75501 0.36136 0.0
C442 C 0.85444 0.7555 0.4345 0.0
C443 C 0.86681 0.67729 0.43553 0.0
C444 C 0.87477 0.67432 0.46922 0.0
C445 C 0.89588 0.68317 0.48181 0.0
C446 C 0.90361 0.67858 0.51314 0.0
C447 C 0.89034 0.66522 0.53257 0.0
C448 C 0.86896 0.65702 0.52017 0.0
C449 C 0.86132 0.66146 0.48881 0.0
C450 C 0.8227 0.71596 0.35912 0.0
C451 C 0.87457 0.71008 0.32498 0.0
C452 C 0.85183 0.78566 0.31938 0.0
C453 C 0.86069 0.79063 0.28849 0.0
C454 C 0.84806 0.80217 0.26522 0.0
C455 C 0.85664 0.80742 0.23614 0.0
C456 C 0.87809 0.8013 0.22991 0.0
C457 C 0.89049 0.78932 0.25313 0.0
C458 C 0.88185 0.78397 0.28206 0.0
C459 C 0.89769 0.74834 0.39595 0.0
O460 O 0.86225 0.7353 0.43429 0.0
O461 O 0.8475 0.76554 0.40786 0.0
O462 O 0.84764 0.68639 0.42998 0.0
O463 O 0.88163 0.68434 0.4162 0.0
O464 O 0.8313 0.69671 0.36301 0.0
O465 O 0.83371 0.73064 0.37664 0.0
O466 O 0.86923 0.7313 0.32375 0.0
O467 O 0.87417 0.6981 0.35116 0.0
O468 O 0.86616 0.78856 0.34427 0.0
O469 O 0.8392 0.76712 0.32076 0.0
O470 O 0.89006 0.76799 0.39128 0.0
O471 O 0.8859 0.73376 0.37948 0.0
H472 H 0.90658 0.69331 0.46736 0.0
H473 H 0.92004 0.6854 0.52212 0.0
H474 H 0.85841 0.64651 0.53436 0.0
H475 H 0.84501 0.65443 0.47962 0.0
H476 H 0.83164 0.80733 0.26966 0.0
H477 H 0.84671 0.81676 0.21886 0.0
H478 H 0.90689 0.78402 0.2489 0.0
H479 H 0.89178 0.77477 0.29954 0.0
Ho480 Ho 0.52474 0.63215 0.65498 0.0
Ho481 Ho 0.47694 0.63194 0.66558 0.0
C482 C 0.48795 0.64278 0.59439 0.0
C483 C 0.5621 0.62232 0.63495 0.0
C484 C 0.5696 0.62293 0.60282 0.0
C485 C 0.56847 0.60312 0.58466 0.0
C486 C 0.57272 0.60392 0.55282 0.0
C487 C 0.57838 0.62452 0.53881 0.0
C488 C 0.5802 0.64423 0.55722 0.0
C489 C 0.57584 0.64347 0.58895 0.0
C490 C 0.51223 0.67396 0.66376 0.0
C491 C 0.51452 0.63609 0.72652 0.0
C492 C 0.43676 0.6326 0.6826 0.0
C493 C 0.42678 0.63196 0.71293 0.0
C494 C 0.43799 0.64244 0.73988 0.0
C495 C 0.42963 0.63944 0.76939 0.0
C496 C 0.41006 0.62574 0.77243 0.0
C497 C 0.39868 0.61555 0.74527 0.0
C498 C 0.40704 0.61863 0.71569 0.0
C499 C 0.49098 0.59254 0.6456 0.0
O500 O 0.50874 0.63754 0.60389 0.0
O501 O 0.47279 0.64393 0.61522 0.0
O502 O 0.5591 0.64169 0.64783 0.0
O503 O 0.54595 0.60727 0.63937 0.0
O504 O 0.53037 0.66621 0.67719 0.0
O505 O 0.50066 0.65798 0.64985 0.0
O506 O 0.49388 0.63992 0.71515 0.0
O507 O 0.5289 0.62868 0.7077 0.0
O508 O 0.44614 0.61427 0.67592 0.0
O509 O 0.44886 0.65077 0.67626 0.0
O510 O 0.47301 0.60134 0.63427 0.0
O511 O 0.50092 0.60529 0.66683 0.0
H512 H 0.56368 0.58708 0.59482 0.0
H513 H 0.57118 0.58851 0.53905 0.0
H514 H 0.58508 0.66027 0.54714 0.0
H515 H 0.57693 0.65904 0.60234 0.0
H516 H 0.4534 0.6526 0.73826 0.0
H517 H 0.43851 0.64787 0.78984 0.0
H518 H 0.38367 0.60479 0.74701 0.0
H519 H 0.39842 0.61013 0.69509 0.0
Ho520 Ho -0.00756 0.3599 0.18798 0.0
Ho521 Ho 0.01225 0.3525 0.12013 0.0
C522 C 0.04544 0.35491 0.18525 0.0
C523 C 0.98034 0.35146 0.24457 0.0
C524 C 0.97369 0.34605 0.27724 0.0
C525 C 0.98119 0.3269 0.29315 0.0
C526 C 0.97443 0.32119 0.3233 0.0
C527 C 0.95993 0.33444 0.33871 0.0
C528 C 0.95252 0.3537 0.32275 0.0
C529 C 0.95928 0.35939 0.29251 0.0
C530 C 0.00454 0.39743 0.15673 0.0
C531 C 0.96205 0.36629 0.12402 0.0
C532 C 0.03394 0.35168 0.06933 0.0
C533 C 0.03422 0.34306 0.03595 0.0
C534 C 0.0278 0.35627 1.00959 0.0
C535 C 0.03107 0.34939 0.97847 0.0
C536 C 0.04111 0.32918 0.97265 0.0
C537 C 0.04721 0.3159 0.99913 0.0
C538 C 0.04385 0.32271 0.03012 0.0
C539 C 0.98366 0.31941 0.13909 0.0
O540 O 0.02919 0.36119 0.20196 0.0
O541 O 0.04256 0.34957 0.1547 0.0
O542 O 0.97298 0.36819 0.22756 0.0
O543 O -0.00541 0.33981 0.23081 0.0
O544 O 0.98969 0.39666 0.17753 0.0
O545 O 0.0138 0.37905 0.15656 0.0
O546 O 0.98038 0.36948 0.10864 0.0
O547 O 0.96206 0.35828 0.15326 0.0
O548 O 0.03579 0.3371 0.09239 0.0
O549 O 0.02083 0.36769 0.07544 0.0
O550 O 0.98729 0.3231 0.10972 0.0
O551 O -0.00257 0.33169 0.15654 0.0
H552 H -0.00786 0.31607 0.28212 0.0
H553 H 0.98029 0.30604 0.33422 0.0
H554 H 0.94161 0.36459 0.33372 0.0
H555 H 0.95312 0.37425 0.28104 0.0
H556 H 0.02069 0.37222 1.01302 0.0
H557 H 0.02578 0.36007 0.95898 0.0
H558 H 0.05539 0.30048 0.99618 0.0
H559 H 0.04954 0.31225 0.04968 0.0
Ho560 Ho 0.52714 0.38999 0.41769 0.0
Ho561 Ho 0.48163 0.38561 0.37752 0.0
C562 C 0.48119 0.37144 0.4497 0.0
C563 C 0.55839 0.40221 0.46117 0.0
C564 C 0.56343 0.39572 0.49442 0.0
C565 C 0.54635 0.38753 0.51279 0.0
C566 C 0.55151 0.37934 0.54327 0.0
C567 C 0.57385 0.37944 0.55603 0.0
C568 C 0.59087 0.38825 0.53793 0.0
C569 C 0.58569 0.39621 0.50728 0.0
C570 C 0.51892 0.35018 0.38865 0.0
C571 C 0.52809 0.39117 0.34375 0.0
C572 C 0.44851 0.37992 0.33456 0.0
C573 C 0.44351 0.37104 0.3019 0.0
C574 C 0.44808 0.34909 0.29363 0.0
C575 C 0.44175 0.34071 0.26305 0.0
C576 C 0.43071 0.35408 0.2401 0.0
C577 C 0.42664 0.37619 0.2483 0.0
C578 C 0.43294 0.38454 0.27887 0.0
C579 C 0.49145 0.42448 0.41024 0.0
O580 O 0.50265 0.3785 0.45334 0.0
O581 O 0.46946 0.37089 0.4218 0.0
O582 O 0.56035 0.38651 0.44022 0.0
O583 O 0.54041 0.41322 0.45493 0.0
O584 O 0.53887 0.3589 0.39678 0.0
O585 O 0.50436 0.36163 0.39986 0.0
O586 O 0.50729 0.38249 0.34268 0.0
O587 O 0.53835 0.40029 0.37007 0.0
O588 O 0.46131 0.39846 0.33779 0.0
O589 O 0.45282 0.36551 0.35721 0.0
O590 O 0.47173 0.41447 0.40619 0.0
O591 O 0.50479 0.41381 0.39542 0.0
H592 H 0.52905 0.38715 0.50348 0.0
H593 H 0.53804 0.37288 0.55682 0.0
H594 H 0.60824 0.38833 0.54708 0.0
H595 H 0.59911 0.40233 0.49337 0.0
H596 H 0.45622 0.33828 0.31082 0.0
H597 H 0.44543 0.32371 0.25742 0.0
H598 H 0.41794 0.38687 0.2314 0.0
H599 H 0.42913 0.40147 0.28473 0.0
Ho600 Ho 0.99088 0.59868 0.91251 0.0
Ho601 Ho 0.03379 0.59737 0.87717 0.0
C602 C 0.03813 0.60919 0.95104 0.0
C603 C 0.95545 0.59279 0.94283 0.0
C604 C 0.94871 0.60095 0.9736 0.0
C605 C 0.95356 0.58902 1.00172 0.0
C606 C 0.94775 0.59701 0.03084 0.0
C607 C 0.93681 0.61705 0.03253 0.0
C608 C 0.93165 0.62878 1.00432 0.0
C609 C 0.93748 0.62081 0.97522 0.0
C610 C 0.01001 0.63874 0.8968 0.0
C611 C 0.98537 0.59361 0.83623 0.0
C612 C 0.06591 0.60261 0.84063 0.0
C613 C 0.07006 0.61162 0.8091 0.0
C614 C 0.06273 0.63253 0.79905 0.0
C615 C 0.06834 0.64132 0.76991 0.0
C616 C 0.08128 0.62935 0.75028 0.0
C617 C 0.08805 0.60818 0.76012 0.0
C618 C 0.08251 0.59945 0.78926 0.0
C619 C 0.02394 0.56043 0.91113 0.0
O620 O 0.01795 0.59927 0.95216 0.0
O621 O 0.04662 0.61385 0.92373 0.0
O622 O 0.95748 0.60768 0.92039 0.0
O623 O 0.97147 0.57886 0.94426 0.0
O624 O 0.00032 0.63544 0.92283 0.0
O625 O 0.00814 0.62115 0.8805 0.0
O626 O 0.0074 0.59601 0.83633 0.0
O627 O 0.97506 0.59243 0.86275 0.0
O628 O 0.05299 0.58413 0.84114 0.0
O629 O 0.06227 0.61716 0.86264 0.0
O630 O 0.04399 0.5683 0.90709 0.0
O631 O 0.00994 0.57163 0.89511 0.0
H632 H 0.96205 0.57357 1.00135 0.0
H633 H 0.95216 0.58765 0.0521 0.0
H634 H 0.92287 0.64406 1.00466 0.0
H635 H 0.93323 0.63028 0.95399 0.0
H636 H 0.05299 0.64222 0.81385 0.0
H637 H 0.06262 0.65754 0.76283 0.0
H638 H 0.09823 0.59863 0.74576 0.0
H639 H 0.08837 0.58333 0.79663 0.0
C640 C 0.12648 0.13398 1.01179 0.0
C641 C 0.10344 0.13499 1.01447 0.0
C642 C 0.13439 0.12885 0.9827 0.0
C643 C 0.11589 0.11075 0.89936 0.0
H644 H 0.16409 0.15308 0.87929 0.0
C645 C 0.13304 0.12721 0.77021 0.0
C646 C 0.13466 0.15014 0.76284 0.0
C647 C 0.13533 0.12029 0.80176 0.0
C648 C 0.15067 0.14107 0.88451 0.0
H649 H 0.07055 0.12943 0.98945 0.0
H650 H 0.08427 0.12184 0.93851 0.0
H651 H 0.15511 0.14897 0.93387 0.0
H652 H 0.14175 0.18367 0.78238 0.0
H653 H 0.14477 0.17179 0.83725 0.0
H654 H 0.11007 0.10449 0.84957 0.0
C655 C 0.09633 0.12459 0.95883 0.0
C656 C 0.14571 0.13845 0.91594 0.0
C657 C 0.08844 0.12941 0.98796 0.0
C658 C 0.13999 0.1659 0.7874 0.0
C659 C 0.14208 0.15902 0.81887 0.0
C660 C 0.12063 0.11364 0.86785 0.0
C661 C 0.11943 0.1249 0.95562 0.0
C662 C 0.12767 0.12392 0.92358 0.0
C663 C 0.13916 0.13618 0.82648 0.0
C664 C 0.13749 0.12953 0.85998 0.0
H665 H 0.1385 0.13816 0.03175 0.0
H666 H 0.15226 0.1288 0.98118 0.0
H667 H 0.10221 0.09904 0.90451 0.0
H668 H 0.12888 0.11467 0.75177 0.0
H669 H 0.1333 0.10256 0.80683 0.0
C670 C 0.1164 0.81162 0.32507 0.0
C671 C 0.12565 0.79055 0.32528 0.0
C672 C 0.11043 0.82217 0.29639 0.0
C673 C 0.12183 0.82314 0.21206 0.0
H674 H 0.06518 0.85081 0.19922 0.0
C675 C 0.08613 0.84999 0.08839 0.0
C676 C 0.07577 0.87043 0.08584 0.0
C677 C 0.09241 0.84115 0.11812 0.0
C678 C 0.08119 0.84342 0.20256 0.0
H679 H 0.13584 0.76409 0.29539 0.0
H680 H 0.1254 0.78249 0.24549 0.0
H681 H 0.07586 0.83379 0.25027 0.0
H682 H 0.06361 0.89747 0.11258 0.0
H683 H 0.07477 0.8821 0.16463 0.0
H684 H 0.12721 0.83271 0.16445 0.0
C685 C 0.12292 0.79091 0.26752 0.0
C686 C 0.08729 0.83366 0.2318 0.0
C687 C 0.12875 0.78029 0.29616 0.0
C688 C 0.07173 0.88178 0.11376 0.0
C689 C 0.07793 0.87287 0.14356 0.0
C690 C 0.11577 0.83294 0.18289 0.0
C691 C 0.11372 0.81198 0.2673 0.0
C692 C 0.10758 0.82319 0.23675 0.0
C693 C 0.08845 0.85249 0.14608 0.0
C694 C 0.09526 0.84298 0.17765 0.0
H695 H 0.11378 0.82002 0.34706 0.0
H696 H 0.10354 0.83848 0.29701 0.0
H697 H 0.13777 0.81561 0.21533 0.0
H698 H 0.08968 0.84094 0.06735 0.0
H699 H 0.1002 0.82528 0.11918 0.0
C700 C 0.37647 0.8138 0.41047 0.0
C701 C 0.36492 0.8244 0.38509 0.0
C702 C 0.37511 0.82103 0.44152 0.0
C703 C 0.36644 0.87244 0.48404 0.0
H704 H 0.37998 0.83364 0.5554 0.0
C705 C 0.43372 0.8943 0.57999 0.0
C706 C 0.43491 0.88221 0.60841 0.0
C707 C 0.41482 0.89162 0.55865 0.0
C708 C 0.37554 0.84488 0.53616 0.0
H709 H 0.34182 0.85003 0.37246 0.0
H710 H 0.33896 0.86231 0.42694 0.0
H711 H 0.36469 0.81735 0.50515 0.0
H712 H 0.41597 0.86064 0.63911 0.0
H713 H 0.38278 0.85628 0.60202 0.0
H714 H 0.37783 0.89994 0.51488 0.0
C715 C 0.34939 0.84865 0.42273 0.0
C716 C 0.36708 0.83544 0.50711 0.0
C717 C 0.3509 0.8415 0.39155 0.0
C718 C 0.41572 0.86988 0.61708 0.0
C719 C 0.39671 0.86727 0.59575 0.0
C720 C 0.37457 0.88192 0.51325 0.0
C721 C 0.36196 0.8389 0.44798 0.0
C722 C 0.36394 0.84901 0.48024 0.0
C723 C 0.39667 0.8769 0.56545 0.0
C724 C 0.38071 0.86813 0.53899 0.0
H725 H 0.38707 0.80027 0.40628 0.0
H726 H 0.38532 0.81332 0.46024 0.0
H727 H 0.36408 0.88345 0.4639 0.0
H728 H 0.44809 0.90433 0.57293 0.0
H729 H 0.41549 0.89937 0.5356 0.0
C730 C 0.39211 0.21405 0.77714 0.0
C731 C 0.38595 0.20073 0.80268 0.0
C732 C 0.3987 0.20418 0.74977 0.0
C733 C 0.41797 0.15135 0.71824 0.0
H734 H 0.39897 0.17742 0.6373 0.0
C735 C 0.42793 0.10996 0.59619 0.0
C736 C 0.43581 0.1243 0.57268 0.0
C737 C 0.42237 0.11867 0.62502 0.0
C738 C 0.40455 0.17007 0.65974 0.0
H739 H 0.38189 0.1666 0.81962 0.0
H740 H 0.39283 0.1493 0.77148 0.0
H741 H 0.38798 0.19358 0.68607 0.0
H742 H 0.44485 0.15896 0.5616 0.0
H743 H 0.43484 0.17413 0.61168 0.0
H744 H 0.43421 0.12756 0.69153 0.0
C745 C 0.39306 0.16742 0.77285 0.0
C746 C 0.39833 0.17936 0.68773 0.0
C747 C 0.3867 0.17733 0.80041 0.0
C748 C 0.43839 0.14749 0.5789 0.0
C749 C 0.4327 0.15619 0.6076 0.0
C750 C 0.42404 0.14192 0.69015 0.0
C751 C 0.39899 0.18072 0.7471 0.0
C752 C 0.40516 0.17029 0.71736 0.0
C753 C 0.42445 0.1419 0.63082 0.0
C754 C 0.41757 0.15135 0.66066 0.0
H755 H 0.39191 0.23216 0.77826 0.0
H756 H 0.40363 0.21498 0.73071 0.0
H757 H 0.42372 0.14406 0.74065 0.0
H758 H 0.42549 0.09206 0.59202 0.0
H759 H 0.41587 0.1073 0.64242 0.0
C760 C 0.87476 0.80615 0.17051 0.0
C761 C 0.88777 0.80788 0.19974 0.0
C762 C 0.88397 0.81254 0.14228 0.0
C763 C 0.93847 0.8233 0.10795 0.0
H764 H 0.90402 0.85636 0.04435 0.0
C765 C 0.97942 0.86838 1.00525 0.0
C766 C 0.96778 0.86748 0.97496 0.0
C767 C 0.96911 0.86041 0.03181 0.0
C768 C 0.91378 0.8469 0.06168 0.0
H769 H 0.92054 0.81815 0.22222 0.0
H770 H 0.93651 0.82944 0.17323 0.0
H771 H 0.88703 0.84359 0.09211 0.0
H772 H 0.93604 0.85749 0.94902 0.0
H773 H 0.91815 0.8434 0.99538 0.0
H774 H 0.96526 0.82673 0.07773 0.0
C775 C 0.91933 0.82267 0.17192 0.0
C776 C 0.90403 0.83956 0.08909 0.0
C777 C 0.91016 0.81622 0.20006 0.0
C778 C 0.94552 0.85848 0.97196 0.0
C779 C 0.9352 0.8505 0.99858 0.0
C780 C 0.94821 0.83065 0.08063 0.0
C781 C 0.9064 0.82089 0.14263 0.0
C782 C 0.91633 0.82787 0.11274 0.0
C783 C 0.94689 0.85131 0.02884 0.0
C784 C 0.93609 0.84274 0.05728 0.0
H785 H 0.85753 0.79956 0.16939 0.0
H786 H 0.8736 0.81066 0.12013 0.0
H787 H 0.9483 0.81393 0.12531 0.0
H788 H -0.00347 0.87531 1.00858 0.0
H789 H 0.97851 0.86166 0.0548 0.0
C790 C 0.93701 0.21013 0.81477 0.0
C791 C 0.91867 0.22353 0.80888 0.0
C792 C 0.94338 0.20277 0.84544 0.0
C793 C 0.9233 0.19179 0.92474 0.0
H794 H 0.98654 0.19418 0.95184 0.0
C795 C 0.95688 0.16803 0.05366 0.0
C796 C 0.97795 0.15898 0.05798 0.0
C797 C 0.94875 0.17579 0.02371 0.0
C798 C 0.96881 0.19293 0.94469 0.0
H799 H 0.89252 0.23941 0.8312 0.0
H800 H 0.90363 0.22641 0.88498 0.0
H801 H 0.97416 0.20794 0.89976 0.0
H802 H 0.00655 0.15019 0.0337 0.0
H803 H -0.00783 0.1626 0.98173 0.0
H804 H 0.91796 0.1763 0.96943 0.0
C805 C 0.91307 0.22164 0.86558 0.0
C806 C 0.96168 0.20102 0.91467 0.0
C807 C 0.90678 0.22923 0.83476 0.0
C808 C 0.99033 0.15723 0.03139 0.0
C809 C 0.98211 0.16463 1.00147 0.0
C810 C 0.93046 0.18342 0.95476 0.0
C811 C 0.93157 0.20839 0.87137 0.0
C812 C 0.93885 0.20048 0.9041 0.0
C813 C 0.96137 0.17448 0.99712 0.0
C814 C 0.95339 0.18371 0.96521 0.0
H815 H 0.9466 0.20522 0.79561 0.0
H816 H 0.95749 0.19236 0.84875 0.0
H817 H 0.90559 0.19089 0.91736 0.0
H818 H 0.94698 0.16987 0.07367 0.0
H819 H 0.93286 0.18343 1.02173 0.0
C820 C 0.60203 0.16869 0.72252 0.0
C821 C 0.62371 0.17885 0.7279 0.0
C822 C 0.59328 0.16274 0.69187 0.0
C823 C 0.60886 0.15069 0.61137 0.0
H824 H 0.54674 0.16143 0.58799 0.0
C825 C 0.56537 0.13414 0.4846 0.0
C826 C 0.54357 0.12397 0.48317 0.0
C827 C 0.5762 0.14157 0.51366 0.0
C828 C 0.56406 0.15815 0.59422 0.0
H829 H 0.65327 0.19069 0.70538 0.0
H830 H 0.63785 0.1804 0.65152 0.0
H831 H 0.56374 0.17316 0.64007 0.0
H832 H 0.51633 0.11312 0.51133 0.0
H833 H 0.53525 0.12582 0.5617 0.0
H834 H 0.60902 0.13551 0.56538 0.0
C835 C 0.62776 0.17682 0.67116 0.0
C836 C 0.5738 0.16486 0.62408 0.0
C837 C 0.63657 0.18272 0.70195 0.0
C838 C 0.533 0.12112 0.51143 0.0
C839 C 0.54382 0.1285 0.54036 0.0
C840 C 0.59907 0.14395 0.58138 0.0
C841 C 0.60595 0.16688 0.66579 0.0
C842 C 0.5962 0.16091 0.63321 0.0
C843 C 0.56545 0.13898 0.54181 0.0
C844 C 0.57645 0.1473 0.57271 0.0
H845 H 0.59189 0.1651 0.74212 0.0
H846 H 0.57661 0.15466 0.68863 0.0
H847 H 0.62612 0.14728 0.61778 0.0
H848 H 0.57399 0.13656 0.46327 0.0
H849 H 0.59283 0.1497 0.51401 0.0
C850 C 0.54001 0.80685 0.4312 0.0
C851 C 0.54013 0.82995 0.43855 0.0
C852 C 0.54553 0.79926 0.4014 0.0
C853 C 0.57144 0.81905 0.32639 0.0
H854 H 0.54685 0.76121 0.29395 0.0
C855 C 0.58046 0.78928 0.19617 0.0
C856 C 0.58492 0.7667 0.19099 0.0
C857 C 0.5753 0.79687 0.22613 0.0
C858 C 0.55409 0.77734 0.30267 0.0
H859 H 0.54648 0.86299 0.41865 0.0
H860 H 0.55471 0.84995 0.36681 0.0
H861 H 0.53691 0.7746 0.34499 0.0
H862 H 0.58732 0.73452 0.21415 0.0
H863 H 0.57802 0.74765 0.2661 0.0
H864 H 0.5881 0.8219 0.28339 0.0
C865 C 0.55096 0.83749 0.38442 0.0
C866 C 0.54842 0.7851 0.33232 0.0
C867 C 0.54574 0.84508 0.41441 0.0
C868 C 0.58394 0.75198 0.21693 0.0
C869 C 0.57848 0.75953 0.24684 0.0
C870 C 0.57684 0.8114 0.29654 0.0
C871 C 0.55111 0.81438 0.37723 0.0
C872 C 0.55703 0.80612 0.34499 0.0
C873 C 0.57413 0.78215 0.25204 0.0
C874 C 0.56834 0.79036 0.28414 0.0
H875 H 0.5355 0.79435 0.4484 0.0
H876 H 0.54568 0.78136 0.39765 0.0
H877 H 0.57898 0.83507 0.33499 0.0
H878 H 0.58107 0.80125 0.17704 0.0
H879 H 0.57189 0.81432 0.22883 0.0
C880 C 0.63023 0.67952 0.28309 0.0
C881 C 0.63954 0.66415 0.26364 0.0
C882 C 0.62743 0.67446 0.31455 0.0
C883 C 0.61728 0.62562 0.36301 0.0
H884 H 0.61956 0.67035 0.43005 0.0
C885 C 0.59696 0.61002 0.49314 0.0
C886 C 0.58326 0.62555 0.50535 0.0
C887 C 0.60418 0.61288 0.46291 0.0
C888 C 0.61879 0.65777 0.41141 0.0
H889 H 0.65472 0.63224 0.26219 0.0
H890 H 0.64998 0.6234 0.31783 0.0
H891 H 0.63612 0.67971 0.3807 0.0
H892 H 0.56468 0.65501 0.49482 0.0
H893 H 0.57778 0.66027 0.44206 0.0
H894 H 0.59992 0.60372 0.39405 0.0
C895 C 0.64459 0.6392 0.30841 0.0
C896 C 0.62832 0.66306 0.38335 0.0
C897 C 0.64736 0.64426 0.27675 0.0
C898 C 0.57571 0.64315 0.48617 0.0
C899 C 0.58308 0.64611 0.4561 0.0
C900 C 0.60797 0.62025 0.3913 0.0
C901 C 0.63392 0.65396 0.3272 0.0
C902 C 0.62721 0.64721 0.35864 0.0
C903 C 0.59789 0.63138 0.44476 0.0
C904 C 0.60827 0.63648 0.41531 0.0
H905 H 0.62359 0.69476 0.27347 0.0
H906 H 0.61879 0.68598 0.32827 0.0
H907 H 0.61585 0.61322 0.34411 0.0
H908 H 0.60307 0.59637 0.50755 0.0
H909 H 0.61564 0.60139 0.45444 0.0
C910 C 0.63422 0.31116 0.82129 0.0
C911 C 0.6297 0.28807 0.82543 0.0
C912 C 0.62795 0.32129 0.79244 0.0
C913 C 0.6102 0.30755 0.70765 0.0
H914 H 0.59244 0.36887 0.7063 0.0
C915 C 0.56965 0.34867 0.59561 0.0
C916 C 0.57942 0.36967 0.58768 0.0
C917 C 0.57548 0.33901 0.62494 0.0
C918 C 0.59747 0.35177 0.70638 0.0
H919 H 0.61464 0.25751 0.80305 0.0
H920 H 0.6027 0.27527 0.75326 0.0
H921 H 0.60264 0.35124 0.75697 0.0
H922 H 0.60254 0.39725 0.60445 0.0
H923 H 0.61255 0.38042 0.65605 0.0
H924 H 0.60432 0.30802 0.65699 0.0
C925 C 0.61183 0.28552 0.77174 0.0
C926 C 0.60345 0.34166 0.73538 0.0
C927 C 0.61854 0.27532 0.80037 0.0
C928 C 0.59487 0.38099 0.60989 0.0
C929 C 0.60047 0.37145 0.63943 0.0
C930 C 0.60387 0.31754 0.67874 0.0
C931 C 0.6166 0.30863 0.76726 0.0
C932 C 0.60997 0.31941 0.73642 0.0
C933 C 0.59097 0.35028 0.64708 0.0
C934 C 0.59751 0.33975 0.67783 0.0
H935 H 0.64301 0.32135 0.84015 0.0
H936 H 0.63235 0.339 0.78981 0.0
H937 H 0.6156 0.29061 0.7073 0.0
H938 H 0.55783 0.33949 0.57885 0.0
H939 H 0.56783 0.32273 0.63038 0.0
C940 C 0.93904 0.38801 0.08588 0.0
C941 C 0.94076 0.3695 0.10593 0.0
C942 C 0.92202 0.38801 0.06155 0.0
C943 C 0.87334 0.35608 1.01996 0.0
H944 H 0.9085 0.36645 0.94795 0.0
C945 C 0.85189 0.31941 0.89296 0.0
C946 C 0.85893 0.33257 0.86779 0.0
C947 C 0.85603 0.32728 0.92417 0.0
C948 C 0.8982 0.364 0.96763 0.0
H949 H 0.92502 0.33769 0.11915 0.0
H950 H 0.89579 0.33705 0.07524 0.0
H951 H 0.92507 0.37538 1.00066 0.0
H952 H 0.87387 0.36467 0.85451 0.0
H953 H 0.88044 0.37883 0.90884 0.0
H954 H 0.84664 0.3438 0.98622 0.0
C955 C 0.90715 0.35181 0.07875 0.0
C956 C 0.90771 0.36915 0.99793 0.0
C957 C 0.92392 0.3521 0.10373 0.0
C958 C 0.8685 0.35427 0.87376 0.0
C959 C 0.8723 0.36226 0.90477 0.0
C960 C 0.86368 0.35095 0.98928 0.0
C961 C 0.90705 0.36911 0.05629 0.0
C962 C 0.89544 0.36532 0.02442 0.0
C963 C 0.86708 0.34846 0.93035 0.0
C964 C 0.8761 0.35493 0.96287 0.0
H965 H 0.9518 0.40167 0.08749 0.0
H966 H 0.92195 0.40178 0.04493 0.0
H967 H 0.86367 0.35271 0.0401 0.0
H968 H 0.84456 0.30254 0.88865 0.0
H969 H 0.85198 0.31624 0.94342 0.0
C970 C 0.8879 0.71317 0.27063 0.0
C971 C 0.88165 0.69969 0.29598 0.0
C972 C 0.89405 0.70345 0.24287 0.0
C973 C 0.91209 0.65058 0.20965 0.0
H974 H 0.89375 0.67831 0.12962 0.0
C975 C 0.92265 0.61108 0.08647 0.0
C976 C 0.93084 0.62574 0.06354 0.0
C977 C 0.91672 0.61937 0.11537 0.0
C978 C 0.89914 0.67047 0.1518 0.0
H979 H 0.87698 0.66542 0.31212 0.0
H980 H 0.88717 0.6484 0.26328 0.0
H981 H 0.88302 0.69389 0.17892 0.0
H982 H 0.93985 0.66059 0.05356 0.0
H983 H 0.92923 0.67502 0.10373 0.0
H984 H 0.92793 0.62694 0.18215 0.0
C985 C 0.88778 0.66652 0.2651 0.0
C986 C 0.89306 0.67944 0.1801 0.0
C987 C 0.88185 0.67626 0.29306 0.0
C988 C 0.93317 0.64886 0.07036 0.0
C989 C 0.92713 0.65714 0.09914 0.0
C990 C 0.91802 0.64148 0.18123 0.0
C991 C 0.89383 0.68 0.23957 0.0
C992 C 0.89968 0.66979 0.20944 0.0
C993 C 0.91873 0.64251 0.12188 0.0
C994 C 0.91182 0.65151 0.15205 0.0
H995 H 0.88816 0.73128 0.27223 0.0
H996 H 0.8991 0.7144 0.22403 0.0
H997 H 0.91767 0.64284 0.23179 0.0
H998 H 0.92039 0.59321 0.08185 0.0
H999 H 0.9101 0.60772 0.13234 0.0
C1000 C 0.44689 0.36377 0.47872 0.0
C1001 C 0.47016 0.36342 0.47792 0.0
C1002 C 0.43658 0.35684 0.50583 0.0
C1003 C 0.44956 0.34635 0.59208 0.0
H1004 H 0.39072 0.31541 0.58508 0.0
C1005 C 0.41172 0.30307 0.69868 0.0
C1006 C 0.38964 0.3077 0.70379 0.0
C1007 C 0.42095 0.30955 0.67059 0.0
C1008 C 0.4071 0.32417 0.58737 0.0
H1009 H 0.50079 0.35475 0.50442 0.0
H1010 H 0.48287 0.34204 0.5512 0.0
H1011 H 0.40806 0.32703 0.53705 0.0
H1012 H 0.35991 0.3226 0.68282 0.0
H1013 H 0.37593 0.33339 0.63347 0.0
H1014 H 0.44874 0.34299 0.64238 0.0
C1015 C 0.47255 0.34839 0.53143 0.0
C1016 C 0.41703 0.33092 0.55986 0.0
C1017 C 0.48286 0.3556 0.50451 0.0
C1018 C 0.37685 0.31847 0.67963 0.0
C1019 C 0.38603 0.32474 0.65136 0.0
C1020 C 0.43975 0.33935 0.61949 0.0
C1021 C 0.44928 0.34912 0.53263 0.0
C1022 C 0.43845 0.34206 0.56184 0.0
C1023 C 0.40827 0.32059 0.64673 0.0
C1024 C 0.41845 0.32814 0.61745 0.0
H1025 H 0.43667 0.36986 0.45863 0.0
H1026 H 0.41869 0.35798 0.50595 0.0
H1027 H 0.4658 0.35535 0.59471 0.0
H1028 H 0.42193 0.29436 0.71637 0.0
H1029 H 0.43802 0.3058 0.66746 0.0
C1030 C 0.45915 0.64994 0.54946 0.0
C1031 C 0.48181 0.65036 0.56114 0.0
C1032 C 0.45267 0.65851 0.51943 0.0
C1033 C 0.47037 0.69853 0.45795 0.0
H1034 H 0.42435 0.66593 0.40334 0.0
C1035 C 0.42669 0.73634 0.34188 0.0
C1036 C 0.42512 0.72238 0.31477 0.0
C1037 C 0.43366 0.72802 0.37211 0.0
C1038 C 0.4372 0.67532 0.41827 0.0
H1039 H 0.51542 0.66059 0.54998 0.0
H1040 H 0.50408 0.67581 0.49749 0.0
H1041 H 0.43703 0.65026 0.45458 0.0
H1042 H 0.42913 0.68844 0.29881 0.0
H1043 H 0.44057 0.674 0.35111 0.0
H1044 H 0.47025 0.72373 0.42164 0.0
C1045 C 0.49131 0.66858 0.51166 0.0
C1046 C 0.44443 0.66635 0.44782 0.0
C1047 C 0.49785 0.65965 0.54167 0.0
C1048 C 0.43023 0.69981 0.31895 0.0
C1049 C 0.43671 0.69143 0.3491 0.0
C1050 C 0.46278 0.70774 0.42863 0.0
C1051 C 0.46857 0.66815 0.50006 0.0
C1052 C 0.46121 0.67774 0.46816 0.0
C1053 C 0.43873 0.70539 0.37616 0.0
C1054 C 0.44617 0.69619 0.40822 0.0
H1055 H 0.44626 0.64307 0.56372 0.0
H1056 H 0.43502 0.65803 0.51167 0.0
H1057 H 0.48326 0.70787 0.4728 0.0
H1058 H 0.42291 0.75378 0.33967 0.0
H1059 H 0.43485 0.73925 0.3924 0.0
C1060 C 0.10528 0.66543 0.2208 0.0
C1061 C 0.12495 0.67937 0.22572 0.0
C1062 C 0.09721 0.65841 0.19025 0.0
C1063 C 0.11365 0.65152 0.10853 0.0
H1064 H 0.04952 0.64853 0.0878 0.0
C1065 C 0.07004 0.63074 0.98223 0.0
C1066 C 0.05067 0.61623 0.98143 0.0
C1067 C 0.08051 0.63875 1.01129 0.0
C1068 C 0.06746 0.6491 0.09328 0.0
H1069 H 0.1516 0.69691 0.20242 0.0
H1070 H 0.13731 0.68485 0.1488 0.0
H1071 H 0.06489 0.66243 0.13965 0.0
H1072 H 0.02778 0.59791 1.01062 0.0
H1073 H 0.04603 0.6117 0.06086 0.0
H1074 H 0.11605 0.63819 0.06182 0.0
C1075 C 0.12832 0.67907 0.16869 0.0
C1076 C 0.07628 0.65704 0.12305 0.0
C1077 C 0.13648 0.68602 0.19937 0.0
C1078 C 0.04249 0.60929 1.01026 0.0
C1079 C 0.05289 0.61728 0.03912 0.0
C1080 C 0.10478 0.64363 0.07857 0.0
C1081 C 0.10851 0.66526 0.16377 0.0
C1082 C 0.09945 0.65802 0.13127 0.0
C1083 C 0.07174 0.63243 0.04 0.0
C1084 C 0.08155 0.642 0.07087 0.0
H1085 H 0.09625 0.65967 0.24067 0.0
H1086 H 0.08219 0.64737 0.18744 0.0
H1087 H 0.13156 0.65192 0.11416 0.0
H1088 H 0.07675 0.63641 0.96044 0.0
H1089 H 0.09501 0.65045 1.01124 0.0
C1090 C 0.08604 0.28754 0.69592 0.0
C1091 C 0.0887 0.26469 0.68982 0.0
C1092 C 0.08081 0.29487 0.72594 0.0
C1093 C 0.05645 0.27469 0.7999 0.0
H1094 H 0.08528 0.32936 0.83746 0.0
C1095 C 0.04528 0.29936 0.93068 0.0
C1096 C 0.04575 0.32219 0.93948 0.0
C1097 C 0.05031 0.29278 0.90026 0.0
C1098 C 0.07672 0.31422 0.8273 0.0
H1099 H 0.08776 0.23175 0.71119 0.0
H1100 H 0.07854 0.24441 0.76312 0.0
H1101 H 0.09414 0.31739 0.78503 0.0
H1102 H 0.05214 0.35592 0.922 0.0
H1103 H 0.0599 0.34455 0.86894 0.0
H1104 H 0.03871 0.2716 0.84166 0.0
C1105 C 0.08041 0.25673 0.74463 0.0
C1106 C 0.08191 0.30729 0.79706 0.0
C1107 C 0.08585 0.24943 0.71473 0.0
C1108 C 0.05122 0.33818 0.9164 0.0
C1109 C 0.05609 0.33159 0.88584 0.0
C1110 C 0.0511 0.2817 0.82997 0.0
C1111 C 0.07781 0.27958 0.7508 0.0
C1112 C 0.07198 0.28731 0.78292 0.0
C1113 C 0.05581 0.30874 0.87716 0.0
C1114 C 0.06123 0.30153 0.84444 0.0
H1115 H 0.08813 0.29988 0.67751 0.0
H1116 H 0.07878 0.31256 0.72952 0.0
H1117 H 0.0481 0.25944 0.78973 0.0
H1118 H 0.04088 0.28638 0.94726 0.0
H1119 H 0.05017 0.27502 0.89511 0.0
C1120 C 0.95491 0.3121 0.17818 0.0
C1121 C 0.96265 0.30828 0.14842 0.0
C1122 C 0.93502 0.30134 0.18666 0.0
C1123 C 0.9149 0.25867 0.20848 0.0
H1124 H 0.89513 0.21942 0.13771 0.0
C1125 C 0.96499 0.20588 0.14271 0.0
C1126 C 0.97564 0.19306 0.16633 0.0
C1127 C 0.94401 0.21364 0.14683 0.0
C1128 C 0.89987 0.2299 0.15842 0.0
H1129 H 0.9547 0.29177 0.10295 0.0
H1130 H 0.92138 0.27162 0.11792 0.0
H1131 H 0.88736 0.25883 0.13529 0.0
H1132 H 0.97258 0.17734 0.21206 0.0
H1133 H 0.93605 0.19123 0.21954 0.0
H1134 H 0.92912 0.23042 0.23081 0.0
C1135 C 0.92988 0.28337 0.13504 0.0
C1136 C 0.89554 0.25262 0.15703 0.0
C1137 C 0.94945 0.29458 0.12646 0.0
C1138 C 0.9647 0.18742 0.1936 0.0
C1139 C 0.94369 0.19508 0.19772 0.0
C1140 C 0.91888 0.23595 0.21038 0.0
C1141 C 0.92292 0.28561 0.16598 0.0
C1142 C 0.90785 0.26754 0.17873 0.0
C1143 C 0.93332 0.20875 0.17474 0.0
C1144 C 0.91498 0.2226 0.18284 0.0
H1145 H 0.9642 0.32333 0.19496 0.0
H1146 H 0.92999 0.3043 0.21022 0.0
H1147 H 0.92223 0.26936 0.22777 0.0
H1148 H 0.97294 0.2101 0.12125 0.0
H1149 H 0.93685 0.22466 0.12896 0.0
C1150 C 0.92921 0.7255 0.41495 0.0
C1151 C 0.91635 0.74383 0.41907 0.0
C1152 C 0.94905 0.72345 0.43399 0.0
C1153 C -0.00848 0.76189 0.47597 0.0
H1154 H 0.02357 0.70771 0.47584 0.0
C1155 C 0.07731 0.76147 0.43279 0.0
C1156 C 0.09055 0.74333 0.43917 0.0
C1157 C 0.05725 0.76266 0.44691 0.0
C1158 C 0.01505 0.72307 0.47706 0.0
H1159 H 0.91205 0.77263 0.44864 0.0
H1160 H 0.9462 0.76856 0.4829 0.0
H1161 H 0.9832 0.70493 0.47321 0.0
H1162 H 0.09506 0.71374 0.46794 0.0
H1163 H 0.06052 0.71627 0.49369 0.0
H1164 H 0.02337 0.78003 0.4799 0.0
C1165 C 0.94175 0.75638 0.46408 0.0
C1166 C -0.00826 0.72144 0.47501 0.0
C1167 C 0.92221 0.75873 0.4445 0.0
C1168 C 0.08468 0.72758 0.46207 0.0
C1169 C 0.0649 0.72903 0.47677 0.0
C1170 C 0.01483 0.76351 0.47881 0.0
C1171 C 0.9561 0.73947 0.45791 0.0
C1172 C 0.97972 0.74083 0.47178 0.0
C1173 C 0.05036 0.74595 0.46818 0.0
C1174 C 0.02682 0.7442 0.47673 0.0
H1175 H 0.92476 0.71367 0.39566 0.0
H1176 H 0.95959 0.71025 0.42818 0.0
H1177 H 0.98301 0.77731 0.47403 0.0
H1178 H 0.08169 0.7739 0.41537 0.0
H1179 H 0.04651 0.77585 0.43931 0.0
C1180 C 0.49551 0.70238 0.62958 0.0
C1181 C 0.51494 0.69342 0.64321 0.0
C1182 C 0.49528 0.71203 0.59969 0.0
C1183 C 0.53126 0.74114 0.54728 0.0
H1184 H 0.46957 0.75118 0.52271 0.0
C1185 C 0.50418 0.7982 0.61747 0.0
C1186 C 0.48279 0.80627 0.6162 0.0
C1187 C 0.51053 0.78584 0.59217 0.0
C1188 C 0.48714 0.74882 0.52823 0.0
H1189 H 0.54998 0.68911 0.63729 0.0
H1190 H 0.54966 0.7063 0.58539 0.0
H1191 H 0.48027 0.7137 0.53396 0.0
H1192 H 0.45022 0.80487 0.5901 0.0
H1193 H 0.46101 0.78302 0.54614 0.0
H1194 H 0.53772 0.77636 0.54186 0.0
C1195 C 0.53444 0.70552 0.59742 0.0
C1196 C 0.49332 0.72708 0.53469 0.0
C1197 C 0.53474 0.69621 0.62766 0.0
C1198 C 0.46687 0.79877 0.59161 0.0
C1199 C 0.47332 0.78683 0.56585 0.0
C1200 C 0.52508 0.76262 0.53884 0.0
C1201 C 0.51451 0.71285 0.58252 0.0
C1202 C 0.51418 0.72447 0.55148 0.0
C1203 C 0.49555 0.78095 0.56504 0.0
C1204 C 0.50229 0.7667 0.53877 0.0
H1205 H 0.47996 0.70006 0.64076 0.0
H1206 H 0.47977 0.71856 0.59004 0.0
H1207 H 0.54832 0.73929 0.55673 0.0
H1208 H 0.51685 0.8036 0.63614 0.0
H1209 H 0.52749 0.78064 0.59396 0.0
C1210 C 0.58781 0.23147 0.96501 0.0
C1211 C 0.59381 0.24586 0.94058 0.0
C1212 C 0.56826 0.23426 0.97974 0.0
C1213 C 0.51857 0.26964 0.97792 0.0
H1214 H 0.48658 0.2113 0.9783 0.0
C1215 C 0.42478 0.26345 0.94846 0.0
C1216 C 0.41812 0.24735 0.92481 0.0
C1217 C 0.44516 0.2623 0.96653 0.0
C1218 C 0.49523 0.22775 0.97841 0.0
H1219 H 0.58563 0.27558 0.91415 0.0
H1220 H 0.55074 0.27974 0.93808 0.0
H1221 H 0.52691 0.21369 0.98053 0.0
H1222 H 0.4263 0.21648 0.90295 0.0
H1223 H 0.4624 0.21499 0.93298 0.0
H1224 H 0.48677 0.28353 0.97197 0.0
C1225 C 0.5612 0.26663 0.94685 0.0
C1226 C 0.51853 0.2292 0.98024 0.0
C1227 C 0.58108 0.26415 0.93274 0.0
C1228 C 0.43126 0.22919 0.92094 0.0
C1229 C 0.45186 0.22826 0.93852 0.0
C1230 C 0.49525 0.26816 0.97535 0.0
C1231 C 0.55402 0.25108 0.96954 0.0
C1232 C 0.53043 0.25011 0.97792 0.0
C1233 C 0.45946 0.24528 0.96072 0.0
C1234 C 0.48332 0.24709 0.97347 0.0
H1235 H 0.59785 0.21759 0.97203 0.0
H1236 H 0.56374 0.22246 0.99786 0.0
H1237 H 0.5272 0.28607 0.97736 0.0
H1238 H 0.41453 0.27733 0.95234 0.0
H1239 H 0.45015 0.27533 0.98399 0.0
C1240 C -0.00495 0.82262 0.86448 0.0
C1241 C 0.01371 0.83759 0.86244 0.0
C1242 C -0.00544 0.80144 0.85028 0.0
C1243 C 0.03701 0.76353 0.84288 0.0
H1244 H 0.98668 0.72112 0.82073 0.0
C1245 C 0.0162 0.66288 0.85028 0.0
C1246 C 0.01538 0.66078 0.88331 0.0
C1247 C 0.01857 0.68401 0.83662 0.0
C1248 C 0.00099 0.73282 0.82621 0.0
H1249 H 0.04456 0.84417 0.84002 0.0
H1250 H 0.04361 0.80728 0.81506 0.0
H1251 H 0.98295 0.76119 0.81061 0.0
H1252 H 0.01762 0.67866 0.92816 0.0
H1253 H 0.02249 0.71581 0.90422 0.0
H1254 H 0.05427 0.73545 0.86122 0.0
C1255 C 0.02971 0.8115 0.82818 0.0
C1256 C -0.00115 0.75563 0.8205 0.0
C1257 C 0.03032 0.83249 0.84265 0.0
C1258 C 0.01816 0.67995 0.90267 0.0
C1259 C 0.021 0.70106 0.88905 0.0
C1260 C 0.03898 0.74085 0.84901 0.0
C1261 C 0.01267 0.79526 0.8338 0.0
C1262 C 0.01653 0.77126 0.83018 0.0
C1263 C 0.0207 0.70317 0.85594 0.0
C1264 C 0.02069 0.72557 0.84196 0.0
H1265 H 0.98189 0.82647 0.87926 0.0
H1266 H 0.98118 0.78924 0.855 0.0
H1267 H 0.05086 0.77517 0.85096 0.0
H1268 H 0.01405 0.64827 0.83484 0.0
H1269 H 0.01828 0.68543 0.81105 0.0
C1270 C 0.54182 0.76066 0.056 0.0
C1271 C 0.54738 0.73837 0.05506 0.0
C1272 C 0.52169 0.76682 0.04118 0.0
C1273 C 0.47103 0.73415 0.04662 0.0
H1274 H 0.46768 0.79465 0.07666 0.0
C1275 C 0.45329 0.78562 0.16794 0.0
C1276 C 0.45381 0.76708 0.1883 0.0
C1277 C 0.45684 0.78323 0.13615 0.0
C1278 C 0.46779 0.77745 0.06894 0.0
H1279 H 0.53888 0.70594 0.03268 0.0
H1280 H 0.50277 0.7163 1.00835 0.0
H1281 H 0.48091 0.78823 0.02583 0.0
H1282 H 0.46417 0.73339 0.19381 0.0
H1283 H 0.47117 0.7289 0.13811 0.0
H1284 H 0.4563 0.72296 0.08838 0.0
C1285 C 0.51375 0.72911 1.02071 0.0
C1286 C 0.47524 0.77378 0.0391 0.0
C1287 C 0.53427 0.72306 0.03504 0.0
C1288 C 0.46175 0.7472 0.17767 0.0
C1289 C 0.46555 0.74475 0.14565 0.0
C1290 C 0.46215 0.73752 0.07558 0.0
C1291 C 0.50604 0.75031 0.02713 0.0
C1292 C 0.48193 0.7524 0.03195 0.0
C1293 C 0.46162 0.76235 0.12389 0.0
C1294 C 0.46339 0.75917 0.0891 0.0
H1295 H 0.55196 0.77292 0.07054 0.0
H1296 H 0.51732 0.78379 0.04544 0.0
H1297 H 0.4731 0.71703 0.03958 0.0
H1298 H 0.44809 0.80163 0.17567 0.0
H1299 H 0.45428 0.79763 0.12127 0.0
C1300 C 0.51671 0.16793 0.36171 0.0
C1301 C 0.49647 0.15487 0.35911 0.0
C1302 C 0.51863 0.188 0.34494 0.0
C1303 C 0.48131 0.2306 0.32654 0.0
H1304 H 0.53409 0.26371 0.30075 0.0
C1305 C 0.49299 0.32315 0.35615 0.0
C1306 C 0.51456 0.32985 0.36898 0.0
C1307 C 0.48922 0.30347 0.33804 0.0
C1308 C 0.51918 0.25474 0.30799 0.0
H1309 H 0.46354 0.15054 0.33397 0.0
H1310 H 0.46687 0.18559 0.30489 0.0
H1311 H 0.53179 0.22276 0.29863 0.0
H1312 H 0.54935 0.32199 0.37211 0.0
H1313 H 0.54276 0.28695 0.34334 0.0
H1314 H 0.46957 0.26176 0.33949 0.0
C1315 C 0.48107 0.18064 0.32015 0.0
C1316 C 0.51782 0.23131 0.3064 0.0
C1317 C 0.47912 0.16074 0.33702 0.0
C1318 C 0.53245 0.31705 0.36267 0.0
C1319 C 0.52866 0.29708 0.34551 0.0
C1320 C 0.48288 0.25386 0.32889 0.0
C1321 C 0.50033 0.19509 0.32538 0.0
C1322 C 0.49936 0.21906 0.31728 0.0
C1323 C 0.5069 0.28965 0.33358 0.0
C1324 C 0.50244 0.2662 0.32155 0.0
H1325 H 0.53041 0.1635 0.37832 0.0
H1326 H 0.53365 0.19888 0.34953 0.0
H1327 H 0.46686 0.22162 0.33523 0.0
H1328 H 0.47902 0.33291 0.36051 0.0
H1329 H 0.47231 0.29873 0.32857 0.0
C1330 C 0.03615 0.22843 0.53535 0.0
C1331 C 0.051 0.24176 0.55593 0.0
C1332 C 0.01577 0.23662 0.52375 0.0
C1333 C 0.98099 0.28343 0.54749 0.0
H1334 H 0.9553 0.23249 0.591 0.0
C1335 C 0.94218 0.29187 0.66738 0.0
C1336 C 0.94494 0.27384 0.68841 0.0
C1337 C 0.94857 0.29051 0.6366 0.0
C1338 C 0.96253 0.24696 0.57928 0.0
H1339 H 0.05835 0.27501 0.5758 0.0
H1340 H 0.02393 0.28935 0.55576 0.0
H1341 H 0.97635 0.22634 0.54615 0.0
H1342 H 0.96063 0.24266 0.69639 0.0
H1343 H 0.97234 0.24018 0.64251 0.0
H1344 H 0.96963 0.30397 0.58331 0.0
C1345 C 0.02702 0.27253 0.5485 0.0
C1346 C 0.97413 0.24351 0.55272 0.0
C1347 C 0.04704 0.26428 0.56042 0.0
C1348 C 0.95718 0.25604 0.67981 0.0
C1349 C 0.96359 0.25461 0.6489 0.0
C1350 C 0.97009 0.28694 0.57478 0.0
C1351 C 0.01 0.25795 0.53345 0.0
C1352 C 0.98652 0.26161 0.53994 0.0
C1353 C 0.95808 0.27121 0.62637 0.0
C1354 C 0.96289 0.26849 0.59276 0.0
H1355 H 0.03936 0.21117 0.53049 0.0
H1356 H 0.00354 0.22528 0.51074 0.0
H1357 H 0.98865 0.29785 0.53617 0.0
H1358 H 0.93332 0.30627 0.67362 0.0
H1359 H 0.94467 0.30397 0.62043 0.0
C1360 C 0.02791 0.09034 0.09115 0.0
C1361 C 0.01785 0.08624 0.11956 0.0
C1362 C 0.02887 0.07304 0.06892 0.0
C1363 C 0.01788 0.01048 0.0577 0.0
H1364 H 0.0096 0.02636 0.96881 0.0
C1365 C 0.98035 0.95038 0.95671 0.0
C1366 C -0.00597 0.94742 0.93188 0.0
C1367 C 0.98613 0.96698 0.9798 0.0
C1368 C 0.01212 0.02175 0.99356 0.0
H1369 H 0.00152 0.06064 0.14734 0.0
H1370 H 0.0022 0.031 0.1085 0.0
H1371 H 0.01489 0.05593 1.00913 0.0
H1372 H 0.02434 0.95948 0.91145 0.0
H1373 H 0.034 0.9893 0.95139 0.0
H1374 H 0.01354 0.97622 0.04177 0.0
C1375 C 0.01009 0.04721 0.10341 0.0
C1376 C 0.01533 0.03868 1.01678 0.0
C1377 C 0.00957 0.06435 0.12582 0.0
C1378 C 0.0135 0.9615 0.93035 0.0
C1379 C 0.01901 0.9785 0.95309 0.0
C1380 C 0.01413 0.99362 0.03452 0.0
C1381 C 0.0194 0.05131 0.07432 0.0
C1382 C 0.01799 0.03332 0.0493 0.0
C1383 C 0.00542 0.98126 0.97809 0.0
C1384 C 0.01103 -0.00089 1.00231 0.0
H1385 H 0.03446 0.10707 0.08573 0.0
H1386 H 0.03668 0.07686 0.04726 0.0
H1387 H 0.02045 0.00549 0.08225 0.0
H1388 H 0.96533 0.93964 0.95855 0.0
H1389 H 0.97537 0.96887 0.99881 0.0
C1390 C 0.20917 0.78489 0.36068 0.0
C1391 C 0.20218 0.76894 0.3827 0.0
C1392 C 0.22585 0.78034 0.34085 0.0
C1393 C 0.25542 0.7332 0.30932 0.0
H1394 H 0.29932 0.78047 0.29008 0.0
C1395 C 0.33923 0.71669 0.25913 0.0
C1396 C 0.34671 0.73082 0.23517 0.0
C1397 C 0.32011 0.72112 0.27406 0.0
C1398 C 0.28699 0.76718 0.29487 0.0
H1399 H 0.20739 0.73591 0.40175 0.0
H1400 H 0.23684 0.72803 0.36762 0.0
H1401 H 0.26948 0.78875 0.32321 0.0
H1402 H 0.33912 0.75975 0.20645 0.0
H1403 H 0.30588 0.76802 0.23341 0.0
H1404 H 0.27344 0.71151 0.28173 0.0
C1405 C 0.22913 0.7439 0.36506 0.0
C1406 C 0.26985 0.7719 0.31387 0.0
C1407 C 0.21238 0.74845 0.38482 0.0
C1408 C 0.33401 0.74889 0.22536 0.0
C1409 C 0.31503 0.75361 0.24076 0.0
C1410 C 0.27266 0.72845 0.29057 0.0
C1411 C 0.23606 0.75977 0.34271 0.0
C1412 C 0.25393 0.75493 0.3216 0.0
C1413 C 0.30803 0.73987 0.26551 0.0
C1414 C 0.28874 0.74534 0.28334 0.0
H1415 H 0.20149 0.8008 0.35841 0.0
H1416 H 0.23047 0.79285 0.32369 0.0
H1417 H 0.24322 0.71981 0.31413 0.0
H1418 H 0.34853 0.70248 0.26702 0.0
H1419 H 0.31521 0.71027 0.2931 0.0
C1420 C 0.53484 0.03823 0.45542 0.0
C1421 C 0.51711 0.04562 0.43518 0.0
C1422 C 0.53087 0.02229 0.47865 0.0
C1423 C 0.49139 0.0023 0.53209 0.0
H1424 H 0.52434 0.9485 0.53659 0.0
C1425 C 0.48204 0.9358 0.63145 0.0
C1426 C 0.50099 0.92418 0.64117 0.0
C1427 C 0.48244 0.95056 0.60575 0.0
C1428 C 0.51525 0.96359 0.53609 0.0
H1429 H 0.4815 0.04128 0.42223 0.0
H1430 H 0.47435 0.01405 0.46438 0.0
H1431 H 0.52757 0.97373 0.49187 0.0
H1432 H 0.53548 0.9197 0.63304 0.0
H1433 H 0.53672 0.94636 0.58981 0.0
H1434 H 0.47995 0.99291 0.57709 0.0
C1435 C 0.49129 0.02071 0.462 0.0
C1436 C 0.51693 0.97787 0.51022 0.0
C1437 C 0.49536 0.03629 0.43808 0.0
C1438 C 0.52064 0.92846 0.62598 0.0
C1439 C 0.52119 0.94349 0.60081 0.0
C1440 C 0.49001 0.98819 0.55838 0.0
C1441 C 0.50906 0.01364 0.48248 0.0
C1442 C 0.50524 -0.00254 0.50817 0.0
C1443 C 0.50192 0.95427 0.58967 0.0
C1444 C 0.50224 0.96882 0.561 0.0
H1445 H 0.55181 0.04499 0.45364 0.0
H1446 H 0.54483 0.01711 0.49419 0.0
H1447 H 0.48238 0.01746 0.53109 0.0
H1448 H 0.46656 0.93252 0.64248 0.0
H1449 H 0.46721 0.95834 0.59777 0.0
C1450 C 0.29653 0.23821 0.83443 0.0
C1451 C 0.30679 0.21782 0.83805 0.0
C1452 C 0.27938 0.24062 0.81036 0.0
C1453 C 0.23748 0.20783 0.75646 0.0
H1454 H 0.23649 0.26311 0.70881 0.0
C1455 C 0.17301 0.22349 0.64794 0.0
C1456 C 0.16354 0.24435 0.64921 0.0
C1457 C 0.19112 0.21865 0.66962 0.0
C1458 C 0.2365 0.24757 0.72196 0.0
H1459 H 0.30703 0.18389 0.81976 0.0
H1460 H 0.27728 0.18809 0.77798 0.0
H1461 H 0.2664 0.25837 0.75028 0.0
H1462 H 0.16529 0.27621 0.67447 0.0
H1463 H 0.19636 0.26788 0.71145 0.0
H1464 H 0.20735 0.1972 0.72815 0.0
C1465 C 0.28226 0.20218 0.79369 0.0
C1466 C 0.25358 0.24492 0.74585 0.0
C1467 C 0.29939 0.19982 0.81758 0.0
C1468 C 0.17229 0.26004 0.67254 0.0
C1469 C 0.19025 0.25534 0.69375 0.0
C1470 C 0.22035 0.21049 0.73247 0.0
C1471 C 0.27209 0.22262 0.78965 0.0
C1472 C 0.25413 0.22515 0.76371 0.0
C1473 C 0.20007 0.23474 0.69246 0.0
C1474 C 0.21948 0.23056 0.71533 0.0
H1475 H 0.30177 0.25227 0.85009 0.0
H1476 H 0.27169 0.25652 0.80816 0.0
H1477 H 0.23733 0.19243 0.76992 0.0
H1478 H 0.16663 0.21111 0.6302 0.0
H1479 H 0.19836 0.20258 0.66816 0.0
C1480 C 0.7154 0.24208 0.8846 0.0
C1481 C 0.70534 0.2626 0.88119 0.0
C1482 C 0.73114 0.23617 0.86392 0.0
C1483 C 0.76891 0.26138 0.80608 0.0
H1484 H 0.77298 0.1995 0.78053 0.0
C1485 C 0.82866 0.23732 0.71366 0.0
C1486 C 0.84277 0.22031 0.72332 0.0
C1487 C 0.81005 0.24123 0.73022 0.0
C1488 C 0.77204 0.21685 0.78751 0.0
H1489 H 0.70357 0.29293 0.85338 0.0
H1490 H 0.73046 0.28254 0.81695 0.0
H1491 H 0.74444 0.20903 0.8153 0.0
H1492 H 0.8475 0.19288 0.75615 0.0
H1493 H 0.81483 0.19944 0.7847 0.0
H1494 H 0.79619 0.26916 0.77786 0.0
C1495 C 0.72677 0.27113 0.83594 0.0
C1496 C 0.75578 0.22232 0.80762 0.0
C1497 C 0.71124 0.27708 0.85676 0.0
C1498 C 0.83699 0.2062 0.74828 0.0
C1499 C 0.81825 0.20995 0.76461 0.0
C1500 C 0.78489 0.25593 0.78567 0.0
C1501 C 0.73706 0.25064 0.83927 0.0
C1502 C 0.75408 0.24467 0.81738 0.0
C1503 C 0.80493 0.2279 0.75637 0.0
C1504 C 0.78681 0.23361 0.77634 0.0
H1505 H 0.71115 0.23064 0.90332 0.0
H1506 H 0.7389 0.22041 0.86759 0.0
H1507 H 0.76853 0.2787 0.81349 0.0
H1508 H 0.83264 0.24829 0.69428 0.0
H1509 H 0.79994 0.25501 0.72303 0.0
C1510 C 0.79597 0.70248 0.314 0.0
C1511 C 0.80396 0.71984 0.33524 0.0
C1512 C 0.77864 0.70571 0.29069 0.0
C1513 C 0.74948 0.75022 0.24647 0.0
H1514 H 0.70403 0.70233 0.22517 0.0
C1515 C 0.66796 0.76538 0.17197 0.0
C1516 C 0.66012 0.75006 0.14769 0.0
C1517 C 0.68589 0.7608 0.19345 0.0
C1518 C 0.71679 0.71572 0.23054 0.0
H1519 H 0.7998 0.75411 0.34914 0.0
H1520 H 0.76926 0.75983 0.30843 0.0
H1521 H 0.73399 0.6966 0.26654 0.0
H1522 H 0.66504 0.71778 0.12689 0.0
H1523 H 0.69649 0.7094 0.16529 0.0
H1524 H 0.73205 0.76946 0.21088 0.0
C1525 C 0.77667 0.74377 0.30949 0.0
C1526 C 0.73395 0.71249 0.2543 0.0
C1527 C 0.79409 0.74051 0.33291 0.0
C1528 C 0.67066 0.72985 0.14542 0.0
C1529 C 0.6886 0.72508 0.1674 0.0
C1530 C 0.73231 0.75346 0.22287 0.0
C1531 C 0.76875 0.72638 0.28803 0.0
C1532 C 0.75045 0.72976 0.26272 0.0
C1533 C 0.6965 0.74066 0.19147 0.0
C1534 C 0.71565 0.73634 0.2148 0.0
H1535 H 0.80331 0.68637 0.31511 0.0
H1536 H 0.77329 0.69206 0.27436 0.0
H1537 H 0.76212 0.76372 0.25177 0.0
H1538 H 0.66018 0.78109 0.17455 0.0
H1539 H 0.69127 0.77298 0.21197 0.0
C1540 C 0.49804 0.55246 0.63738 0.0
C1541 C 0.50102 0.57488 0.62814 0.0
C1542 C 0.50202 0.5351 0.61664 0.0
C1543 C 0.52708 0.52016 0.54302 0.0
H1544 H 0.47404 0.48005 0.52877 0.0
C1545 C 0.51167 0.45937 0.43398 0.0
C1546 C 0.49793 0.43982 0.43724 0.0
C1547 C 0.51526 0.47505 0.45899 0.0
C1548 C 0.4893 0.49061 0.53277 0.0
H1549 H 0.5111 0.59677 0.59047 0.0
H1550 H 0.51888 0.56661 0.55484 0.0
H1551 H 0.47611 0.50802 0.57057 0.0
H1552 H 0.47861 0.42031 0.46956 0.0
H1553 H 0.48602 0.44652 0.51361 0.0
H1554 H 0.54041 0.50256 0.50534 0.0
C1555 C 0.51358 0.56237 0.57807 0.0
C1556 C 0.4904 0.50679 0.5568 0.0
C1557 C 0.50918 0.57968 0.59855 0.0
C1558 C 0.48899 0.43548 0.46632 0.0
C1559 C 0.49307 0.45071 0.49148 0.0
C1560 C 0.52618 0.50361 0.51923 0.0
C1561 C 0.50918 0.53989 0.58638 0.0
C1562 C 0.50923 0.52179 0.56219 0.0
C1563 C 0.50556 0.47115 0.48792 0.0
C1564 C 0.50721 0.48858 0.5137 0.0
H1565 H 0.49127 0.54834 0.65975 0.0
H1566 H 0.49855 0.5179 0.62368 0.0
H1567 H 0.54177 0.53162 0.54656 0.0
H1568 H 0.51873 0.46301 0.41168 0.0
H1569 H 0.52488 0.49057 0.45511 0.0
C1570 C -0.00291 0.53449 0.93838 0.0
C1571 C 0.01905 0.54198 0.9331 0.0
C1572 C -0.0068 0.51796 0.96111 0.0
C1573 C 0.01697 0.4703 1.00046 0.0
H1574 H 0.98845 0.48622 0.07552 0.0
C1575 C 0.02356 0.41581 0.11245 0.0
C1576 C 0.00557 0.41435 0.13152 0.0
C1577 C 0.02375 0.43091 0.08725 0.0
C1578 C -0.00396 0.48122 0.0545 0.0
H1579 H 0.05412 0.53737 0.94616 0.0
H1580 H 0.04729 0.50799 0.9846 0.0
H1581 H 0.98987 0.51252 0.03157 0.0
H1582 H 0.97358 0.42722 0.13928 0.0
H1583 H 0.97338 0.45287 0.0947 0.0
H1584 H 0.02287 0.43892 1.02264 0.0
C1585 C 0.03313 0.51521 0.9718 0.0
C1586 C -0.00314 0.49636 0.02939 0.0
C1587 C 0.03699 0.53203 0.94982 0.0
C1588 C 0.98783 0.42827 0.12516 0.0
C1589 C 0.98777 0.44304 0.0996 0.0
C1590 C 0.01577 0.45497 0.02523 0.0
C1591 C 0.01125 0.50823 0.97792 0.0
C1592 C 0.0077 0.49116 1.00248 0.0
C1593 C 0.00572 0.44458 0.08022 0.0
C1594 C 0.00572 0.46038 0.05293 0.0
H1595 H 0.983 0.5414 0.9251 0.0
H1596 H 0.97617 0.51264 0.96538 0.0
H1597 H 0.02537 0.46596 0.9798 0.0
H1598 H 0.03747 0.40527 0.11701 0.0
H1599 H 0.03814 0.43192 0.07345 0.0
C1600 C 0.05583 0.15771 0.25885 0.0
C1601 C 0.03318 0.15034 0.25246 0.0
C1602 C 0.0643 0.1652 0.28927 0.0
C1603 C 0.05274 0.16469 0.375 0.0
H1604 H 0.09653 0.21528 0.38083 0.0
C1605 C 0.09992 0.19317 0.49584 0.0
C1606 C 0.10417 0.21632 0.5019 0.0
C1607 C 0.09159 0.18511 0.46559 0.0
C1608 C 0.08422 0.20123 0.37982 0.0
H1609 H 0.00185 0.14479 0.27397 0.0
H1610 H 0.01663 0.15766 0.32705 0.0
H1611 H 0.08093 0.20139 0.32894 0.0
H1612 H 0.10323 0.249 0.47993 0.0
H1613 H 0.08887 0.23508 0.4274 0.0
H1614 H 0.05573 0.16482 0.42594 0.0
C1615 C 0.02794 0.15756 0.30844 0.0
C1616 C 0.0754 0.19302 0.34985 0.0
C1617 C 0.01941 0.15014 0.27786 0.0
C1618 C 0.10035 0.23109 0.47637 0.0
C1619 C 0.0921 0.22303 0.44604 0.0
C1620 C 0.06162 0.17286 0.40501 0.0
C1621 C 0.05048 0.16556 0.31457 0.0
C1622 C 0.05958 0.17452 0.34685 0.0
C1623 C 0.08726 0.19989 0.44019 0.0
C1624 C 0.07759 0.19124 0.40799 0.0
H1625 H 0.06706 0.15822 0.24011 0.0
H1626 H 0.08181 0.17076 0.2929 0.0
H1627 H 0.04073 0.15038 0.37394 0.0
H1628 H 0.1024 0.18116 0.51476 0.0
H1629 H 0.0885 0.16719 0.46217 0.0
C1630 C 0.08707 0.84776 0.58806 0.0
C1631 C 0.10625 0.83552 0.5876 0.0
C1632 C 0.08026 0.85559 0.61665 0.0
C1633 C 0.08717 0.84896 0.70437 0.0
H1634 H 0.06287 0.90762 0.70297 0.0
C1635 C 0.06098 0.89298 0.81749 0.0
C1636 C 0.03905 0.90004 0.81408 0.0
C1637 C 0.07145 0.8864 0.79082 0.0
C1638 C 0.06961 0.89122 0.70374 0.0
H1639 H 0.13299 0.82139 0.61709 0.0
H1640 H 0.12121 0.83524 0.66718 0.0
H1641 H 0.07642 0.89274 0.65499 0.0
H1642 H 0.01116 0.90637 0.78023 0.0
H1643 H 0.0297 0.89586 0.73371 0.0
H1644 H 0.08033 0.84767 0.75341 0.0
C1645 C 0.1113 0.83863 0.64536 0.0
C1646 C 0.07725 0.88258 0.67617 0.0
C1647 C 0.11806 0.83067 0.61664 0.0
C1648 C 0.02821 0.90136 0.78349 0.0
C1649 C 0.0388 0.89526 0.75687 0.0
C1650 C 0.07968 0.85774 0.73212 0.0
C1651 C 0.0925 0.85154 0.64568 0.0
C1652 C 0.08573 0.86114 0.67586 0.0
C1653 C 0.06033 0.88721 0.76025 0.0
C1654 C 0.07046 0.87881 0.73192 0.0
H1655 H 0.07731 0.8514 0.56618 0.0
H1656 H 0.06534 0.86488 0.61592 0.0
H1657 H 0.09342 0.83235 0.70505 0.0
H1658 H 0.06951 0.89125 0.84087 0.0
H1659 H 0.08806 0.8803 0.79412 0.0
C1660 C 0.4048 0.7935 0.11456 0.0
C1661 C 0.4026 0.77043 0.12157 0.0
C1662 C 0.40953 0.80095 0.08391 0.0
C1663 C 0.40824 0.7823 0.9985 0.0
H1664 H 0.45335 0.83065 0.9914 0.0
C1665 C 0.43986 0.80476 0.87439 0.0
C1666 C 0.45024 0.82609 0.86854 0.0
C1667 C 0.43404 0.79841 0.90492 0.0
C1668 C 0.44035 0.8174 0.99235 0.0
H1669 H 0.40272 0.73731 0.10053 0.0
H1670 H 0.41026 0.75013 0.04768 0.0
H1671 H 0.44187 0.82 0.04328 0.0
H1672 H 0.46255 0.85717 0.89274 0.0
H1673 H 0.45098 0.84698 0.94421 0.0
H1674 H 0.40575 0.7801 0.94791 0.0
C1675 C 0.40852 0.7626 0.06578 0.0
C1676 C 0.4338 0.81118 1.02262 0.0
C1677 C 0.40424 0.75519 0.09642 0.0
C1678 C 0.45427 0.84075 0.89503 0.0
C1679 C 0.44792 0.8346 0.92543 0.0
C1680 C 0.41434 0.78886 0.9682 0.0
C1681 C 0.4117 0.78562 0.05898 0.0
C1682 C 0.41781 0.79329 0.02636 0.0
C1683 C 0.43767 0.81321 0.93128 0.0
C1684 C 0.43076 0.80645 0.96424 0.0
H1685 H 0.40395 0.80583 0.13315 0.0
H1686 H 0.41166 0.8188 0.07982 0.0
H1687 H 0.39562 0.76869 0.99999 0.0
H1688 H 0.43585 0.7927 0.85538 0.0
H1689 H 0.42677 0.78159 0.90754 0.0
C1690 C 0.44714 0.0999 0.3076 0.0
C1691 C 0.46849 0.09152 0.30832 0.0
C1692 C 0.43624 0.10633 0.27879 0.0
C1693 C 0.43453 0.09898 0.19245 0.0
H1694 H 0.41694 0.16032 0.1869 0.0
C1695 C 0.41832 0.14072 0.07188 0.0
C1696 C 0.40041 0.15468 0.0673 0.0
C1697 C 0.42511 0.13314 0.10211 0.0
C1698 C 0.42141 0.14305 0.18811 0.0
H1699 H 0.4949 0.08266 0.27977 0.0
H1700 H 0.47545 0.09285 0.22934 0.0
H1701 H 0.43008 0.14518 0.23837 0.0
H1702 H 0.37596 0.1722 0.09099 0.0
H1703 H 0.38768 0.15873 0.14404 0.0
H1704 H 0.42591 0.09662 0.1425 0.0
C1705 C 0.46719 0.0946 0.25094 0.0
C1706 C 0.42892 0.1344 0.21759 0.0
C1707 C 0.47827 0.08867 0.27972 0.0
C1708 C 0.38989 0.16153 0.09384 0.0
C1709 C 0.39661 0.1538 0.12421 0.0
C1710 C 0.42684 0.10751 0.16313 0.0
C1711 C 0.44633 0.10401 0.25025 0.0
C1712 C 0.43594 0.11241 0.21989 0.0
C1713 C 0.41406 0.13917 0.12861 0.0
C1714 C 0.42065 0.12981 0.16041 0.0
H1715 H 0.43953 0.10283 0.32946 0.0
H1716 H 0.42017 0.11356 0.27887 0.0
H1717 H 0.43961 0.0819 0.19365 0.0
H1718 H 0.42705 0.13553 0.05197 0.0
H1719 H 0.43904 0.12246 0.10467 0.0
C1720 C 0.85405 0.79082 0.46791 0.0
C1721 C 0.85744 0.76782 0.46534 0.0
C1722 C 0.85984 0.80237 0.49678 0.0
C1723 C 0.8743 0.79175 0.58318 0.0
H1724 H 0.90368 0.85139 0.58381 0.0
C1725 C 0.92685 0.82796 0.69317 0.0
C1726 C 0.92214 0.84947 0.70334 0.0
C1727 C 0.91807 0.81959 0.66353 0.0
C1728 C 0.89535 0.83478 0.58393 0.0
H1729 H 0.86959 0.73905 0.49146 0.0
H1730 H 0.88007 0.75896 0.54031 0.0
H1731 H 0.88873 0.83398 0.53327 0.0
H1732 H 0.90471 0.87916 0.68963 0.0
H1733 H 0.8899 0.86466 0.63748 0.0
H1734 H 0.88167 0.79219 0.63358 0.0
C1735 C 0.87235 0.76815 0.52074 0.0
C1736 C 0.88666 0.82485 0.55502 0.0
C1737 C 0.8664 0.75668 0.49233 0.0
C1738 C 0.90899 0.86266 0.68251 0.0
C1739 C 0.9004 0.85435 0.65266 0.0
C1740 C 0.88326 0.8015 0.61184 0.0
C1741 C 0.86921 0.79114 0.52354 0.0
C1742 C 0.87637 0.80299 0.55423 0.0
C1743 C 0.90454 0.83258 0.6431 0.0
C1744 C 0.89417 0.82296 0.61252 0.0
H1745 H 0.84744 0.79998 0.44753 0.0
H1746 H 0.85707 0.82007 0.49809 0.0
H1747 H 0.86594 0.77519 0.58376 0.0
H1748 H 0.93729 0.81749 0.70818 0.0
H1749 H 0.92183 0.80287 0.65656 0.0
C1750 C 0.88837 0.13722 0.54135 0.0
C1751 C 0.90031 0.15785 0.54827 0.0
C1752 C 0.88181 0.13099 0.50995 0.0
C1753 C 0.87613 0.15293 0.42767 0.0
H1754 H 0.89298 0.09381 0.4048 0.0
C1755 C 0.88294 0.12883 0.29755 0.0
C1756 C 0.90392 0.12086 0.29308 0.0
C1757 C 0.87554 0.12954 0.328 0.0
C1758 C 0.88795 0.11028 0.41084 0.0
H1759 H 0.9137 0.18865 0.52805 0.0
H1760 H 0.90289 0.17754 0.47329 0.0
H1761 H 0.89293 0.10401 0.46053 0.0
H1762 H 0.93288 0.10589 0.31607 0.0
H1763 H 0.92025 0.10743 0.36902 0.0
H1764 H 0.87288 0.15979 0.37799 0.0
C1765 C 0.89834 0.16624 0.49202 0.0
C1766 C 0.88771 0.11607 0.44276 0.0
C1767 C 0.90488 0.17246 0.52335 0.0
C1768 C 0.91675 0.11239 0.31904 0.0
C1769 C 0.90936 0.113 0.34929 0.0
C1770 C 0.87646 0.14718 0.39573 0.0
C1771 C 0.88702 0.14531 0.48494 0.0
C1772 C 0.8827 0.13777 0.4515 0.0
C1773 C 0.88894 0.12209 0.35424 0.0
C1774 C 0.88331 0.12612 0.38709 0.0
H1775 H 0.88464 0.12564 0.56013 0.0
H1776 H 0.87298 0.11481 0.5052 0.0
H1777 H 0.87179 0.16965 0.43374 0.0
H1778 H 0.87278 0.13545 0.27781 0.0
H1779 H 0.85967 0.13652 0.33116 0.0
C1780 C 0.64401 0.23147 0.02525 0.0
C1781 C 0.65258 0.22017 1.00015 0.0
C1782 C 0.63808 0.22003 0.05217 0.0
C1783 C 0.62209 0.16388 0.08176 0.0
H1784 H 0.62988 0.19558 0.16251 0.0
C1785 C 0.59821 0.12689 0.20329 0.0
C1786 C 0.58602 0.14095 0.22121 0.0
C1787 C 0.6072 0.13468 0.17559 0.0
C1788 C 0.62753 0.18655 0.14011 0.0
H1789 H 0.66187 0.18783 0.98405 0.0
H1790 H 0.65212 0.16778 0.03209 0.0
H1791 H 0.64602 0.21212 0.1165 0.0
H1792 H 0.57286 0.17389 0.22308 0.0
H1793 H 0.58899 0.18759 0.17522 0.0
H1794 H 0.60371 0.13816 0.106 0.0
C1795 C 0.64974 0.18556 0.03043 0.0
C1796 C 0.63675 0.19601 0.1137 0.0
C1797 C 0.65557 0.19708 1.00309 0.0
C1798 C 0.58254 0.16277 0.21028 0.0
C1799 C 0.59171 0.1706 0.18283 0.0
C1800 C 0.61309 0.15423 0.10845 0.0
C1801 C 0.64081 0.19695 0.05521 0.0
C1802 C 0.63361 0.18514 0.08396 0.0
C1803 C 0.60437 0.15675 0.16547 0.0
C1804 C 0.61526 0.16579 0.13764 0.0
H1805 H 0.64114 0.24917 0.02386 0.0
H1806 H 0.6307 0.22928 0.07026 0.0
H1807 H 0.61923 0.15511 0.0592 0.0
H1808 H 0.60148 0.1101 0.21121 0.0
H1809 H 0.61701 0.12373 0.1627 0.0
C1810 C 0.57487 0.83795 0.69202 0.0
C1811 C 0.56319 0.85731 0.69484 0.0
C1812 C 0.59289 0.83398 0.71392 0.0
C1813 C 0.60632 0.82119 0.78123 0.0
H1814 H 0.64249 0.86598 0.83233 0.0
C1815 C 0.61777 0.8468 0.91817 0.0
C1816 C 0.61862 0.82552 0.93196 0.0
C1817 C 0.62107 0.84958 0.88611 0.0
C1818 C 0.63263 0.8532 0.81823 0.0
H1819 H 0.56185 0.88861 0.7201 0.0
H1820 H 0.59306 0.88179 0.75847 0.0
H1821 H 0.63148 0.87369 0.77668 0.0
H1822 H 0.6253 0.79081 0.924 0.0
H1823 H 0.63128 0.79568 0.86798 0.0
H1824 H 0.60576 0.80145 0.82303 0.0
C1825 C 0.58885 0.86974 0.73939 0.0
C1826 C 0.62645 0.85756 0.78635 0.0
C1827 C 0.57086 0.87363 0.7176 0.0
C1828 C 0.62408 0.80731 0.91367 0.0
C1829 C 0.62759 0.81013 0.88169 0.0
C1830 C 0.61241 0.81688 0.81301 0.0
C1831 C 0.59919 0.84928 0.73893 0.0
C1832 C 0.61215 0.84211 0.76809 0.0
C1833 C 0.62548 0.83116 0.86731 0.0
C1834 C 0.62456 0.83334 0.8323 0.0
H1835 H 0.569 0.82516 0.67455 0.0
H1836 H 0.6007 0.81817 0.71285 0.0
H1837 H 0.59512 0.80898 0.768 0.0
H1838 H 0.61354 0.86108 0.93179 0.0
H1839 H 0.6189 0.86594 0.87574 0.0
C1840 C 0.50897 0.65281 0.78059 0.0
C1841 C 0.52289 0.64314 0.75983 0.0
C1842 C 0.51768 0.6615 0.81047 0.0
C1843 C 0.56852 0.6613 0.86938 0.0
H1844 H 0.54449 0.71417 0.90318 0.0
C1845 C 0.59785 0.69552 0.99627 0.0
C1846 C 0.59854 0.71878 1.00229 0.0
C1847 C 0.58884 0.68638 0.96692 0.0
C1848 C 0.55165 0.69953 0.89407 0.0
H1849 H 0.55713 0.63516 0.75492 0.0
H1850 H 0.57217 0.65038 0.80603 0.0
H1851 H 0.52834 0.69817 0.85269 0.0
H1852 H 0.59039 0.75055 0.98111 0.0
H1853 H 0.57534 0.73481 0.9299 0.0
H1854 H 0.59226 0.66302 0.91011 0.0
C1855 C 0.55439 0.65092 0.79983 0.0
C1856 C 0.54207 0.69007 0.86511 0.0
C1857 C 0.54569 0.64217 0.77016 0.0
C1858 C 0.59037 0.73261 0.97756 0.0
C1859 C 0.58139 0.72347 0.94813 0.0
C1860 C 0.57812 0.67079 0.8982 0.0
C1861 C 0.54063 0.6609 0.82056 0.0
C1862 C 0.55037 0.67079 0.85212 0.0
C1863 C 0.58022 0.70013 0.94234 0.0
C1864 C 0.56992 0.69011 0.91115 0.0
H1865 H 0.49136 0.65402 0.7736 0.0
H1866 H 0.50633 0.66869 0.82567 0.0
H1867 H 0.57534 0.64631 0.86079 0.0
H1868 H 0.60361 0.68415 1.01466 0.0
H1869 H 0.58805 0.66834 0.96397 0.0
C1870 C 0.53386 0.36658 0.29833 0.0
C1871 C 0.54074 0.38598 0.31635 0.0
C1872 C 0.54466 0.36099 0.27191 0.0
C1873 C 0.59574 0.37153 0.22984 0.0
H1874 H 0.55659 0.34669 0.15908 0.0
C1875 C 0.62429 0.3538 0.10426 0.0
C1876 C 0.61649 0.33311 0.09007 0.0
C1877 C 0.61641 0.36077 0.13266 0.0
C1878 C 0.56777 0.35342 0.1787 0.0
H1879 H 0.56519 0.41416 0.3216 0.0
H1880 H 0.58391 0.40476 0.27405 0.0
H1881 H 0.54069 0.35889 0.20668 0.0
H1882 H 0.59464 0.30329 0.09543 0.0
H1883 H 0.58053 0.31573 0.14453 0.0
H1884 H 0.62281 0.36631 0.2011 0.0
C1885 C 0.5701 0.39382 0.28081 0.0
C1886 C 0.55869 0.36041 0.20607 0.0
C1887 C 0.55936 0.3993 0.30788 0.0
C1888 C 0.60074 0.31949 0.10526 0.0
C1889 C 0.59271 0.32657 0.13348 0.0
C1890 C 0.60485 0.36472 0.20215 0.0
C1891 C 0.56253 0.37478 0.26218 0.0
C1892 C 0.57254 0.36916 0.23228 0.0
C1893 C 0.60035 0.34735 0.14738 0.0
C1894 C 0.59095 0.35527 0.17651 0.0
H1895 H 0.52005 0.35545 0.30472 0.0
H1896 H 0.53889 0.34575 0.25901 0.0
H1897 H 0.60691 0.37805 0.24959 0.0
H1898 H 0.63609 0.36496 0.09304 0.0
H1899 H 0.62239 0.37697 0.14262 0.0
C1900 C 0.93079 0.33181 0.37929 0.0
C1901 C 0.9525 0.32804 0.37098 0.0
C1902 C 0.92374 0.3253 0.40905 0.0
C1903 C 0.9376 0.28716 0.4773 0.0
H1904 H 0.89654 0.32179 0.52005 0.0
C1905 C 0.90091 0.25273 0.59108 0.0
C1906 C 0.89611 0.2676 0.61514 0.0
C1907 C 0.90621 0.26051 0.56119 0.0
C1908 C 0.90816 0.3119 0.50878 0.0
H1909 H 0.98392 0.31492 0.38886 0.0
H1910 H 0.97173 0.30366 0.44023 0.0
H1911 H 0.90964 0.33487 0.46989 0.0
H1912 H 0.89279 0.30259 0.62587 0.0
H1913 H 0.90275 0.31639 0.57412 0.0
H1914 H 0.93659 0.26444 0.51605 0.0
C1915 C 0.9599 0.31126 0.42348 0.0
C1916 C 0.91551 0.31933 0.47955 0.0
C1917 C 0.96695 0.31777 0.39377 0.0
C1918 C 0.89599 0.29057 0.60785 0.0
C1919 C 0.90182 0.29848 0.57796 0.0
C1920 C 0.93024 0.27974 0.50639 0.0
C1921 C 0.93811 0.31476 0.43165 0.0
C1922 C 0.93036 0.30708 0.46322 0.0
C1923 C 0.90751 0.28361 0.55422 0.0
C1924 C 0.91533 0.29188 0.52282 0.0
H1925 H 0.91895 0.33933 0.36248 0.0
H1926 H 0.90676 0.32808 0.41397 0.0
H1927 H 0.94879 0.27698 0.46563 0.0
H1928 H 0.9011 0.23489 0.59557 0.0
H1929 H 0.9096 0.2482 0.54371 0.0
C1930 C 0.98286 0.59497 0.77706 0.0
C1931 C 0.97223 0.59625 0.80533 0.0
C1932 C 0.97242 0.60189 0.74835 0.0
C1933 C 0.9188 0.61521 0.70612 0.0
H1934 H 0.95715 0.65304 0.65632 0.0
C1935 C 0.8854 0.65869 0.5905 0.0
C1936 C 0.8991 0.65894 0.5651 0.0
C1937 C 0.89343 0.65177 0.62072 0.0
C1938 C 0.94624 0.64231 0.66969 0.0
H1939 H 0.94172 0.60478 0.82521 0.0
H1940 H 0.92335 0.61674 0.77473 0.0
H1941 H 0.97209 0.63835 0.70675 0.0
H1942 H 0.93192 0.65186 0.55154 0.0
H1943 H 0.94586 0.63964 0.60393 0.0
H1944 H 0.893 0.61895 0.66873 0.0
C1945 C 0.93981 0.61032 0.77494 0.0
C1946 C 0.95481 0.63389 0.69866 0.0
C1947 C 0.95031 0.60337 0.80384 0.0
C1948 C 0.92106 0.65226 0.57069 0.0
C1949 C 0.92905 0.64525 0.6008 0.0
C1950 C 0.91021 0.62356 0.67695 0.0
C1951 C 0.95108 0.6103 0.74708 0.0
C1952 C 0.94132 0.61996 0.71701 0.0
C1953 C 0.91535 0.64486 0.62623 0.0
C1954 C 0.92393 0.63698 0.65815 0.0
H1955 H -0.00032 0.58945 0.77725 0.0
H1956 H 0.98134 0.60116 0.72718 0.0
H1957 H 0.908 0.6045 0.71969 0.0
H1958 H 0.86847 0.66395 0.58704 0.0
H1959 H 0.88252 0.652 0.63981 0.0
C1960 C 0.42408 0.35793 0.18077 0.0
C1961 C 0.42268 0.34477 0.20818 0.0
C1962 C 0.41571 0.34939 0.15097 0.0
C1963 C 0.40009 0.29608 0.10794 0.0
H1964 H 0.36509 0.33275 0.04963 0.0
C1965 C 0.35247 0.2568 0.99698 0.0
C1966 C 0.35381 0.26842 0.96833 0.0
C1967 C 0.35925 0.26741 0.02592 0.0
C1968 C 0.375 0.32237 0.06551 0.0
H1969 H 0.41114 0.31234 0.22563 0.0
H1970 H 0.39673 0.29744 0.17379 0.0
H1971 H 0.38122 0.34858 0.10046 0.0
H1972 H 0.36254 0.30053 0.94749 0.0
H1973 H 0.37458 0.31917 0.99822 0.0
H1974 H 0.39413 0.26994 0.07317 0.0
C1975 C 0.40457 0.31427 0.17525 0.0
C1976 C 0.38427 0.33144 0.09462 0.0
C1977 C 0.41288 0.32281 0.205 0.0
C1978 C 0.36089 0.29129 0.96928 0.0
C1979 C 0.36793 0.30191 0.99834 0.0
C1980 C 0.39091 0.28705 0.07891 0.0
C1981 C 0.40581 0.32747 0.14787 0.0
C1982 C 0.39672 0.3183 0.11632 0.0
C1983 C 0.36788 0.28985 0.02692 0.0
C1984 C 0.37799 0.29996 0.05747 0.0
H1985 H 0.43179 0.37481 0.1823 0.0
H1986 H 0.41722 0.35988 0.13031 0.0
H1987 H 0.41 0.28565 0.12377 0.0
H1988 H 0.34713 0.23914 0.99693 0.0
H1989 H 0.35842 0.25776 0.04748 0.0
C1990 C 0.38792 0.63172 0.04692 0.0
C1991 C 0.38522 0.65359 0.05753 0.0
C1992 C 0.38199 0.62576 1.01529 0.0
C1993 C 0.38385 0.6538 0.94102 0.0
H1994 H 0.3629 0.596 0.90397 0.0
C1995 C 0.41655 0.61966 0.83068 0.0
C1996 C 0.40154 0.62249 0.80393 0.0
C1997 C 0.40914 0.61996 0.86095 0.0
C1998 C 0.36851 0.61224 0.91414 0.0
H1999 H 0.37183 0.68552 0.04474 0.0
H2000 H 0.36171 0.67517 0.98933 0.0
H2001 H 0.35686 0.60421 0.95964 0.0
H2002 H 0.36678 0.62615 0.78764 0.0
H2003 H 0.35382 0.62649 0.84108 0.0
H2004 H 0.39651 0.66141 0.89628 0.0
C2005 C 0.36867 0.66277 1.00531 0.0
C2006 C 0.36511 0.61693 0.94573 0.0
C2007 C 0.37459 0.66872 0.03687 0.0
C2008 C 0.37868 0.62388 0.80787 0.0
C2009 C 0.37124 0.62404 0.83826 0.0
C2010 C 0.3874 0.64904 0.90977 0.0
C2011 C 0.3733 0.64162 0.99394 0.0
C2012 C 0.37314 0.63762 0.95953 0.0
C2013 C 0.3866 0.6228 0.86485 0.0
C2014 C 0.38017 0.62813 0.89643 0.0
H2015 H 0.39607 0.61975 0.06241 0.0
H2016 H 0.38588 0.6094 1.00703 0.0
H2017 H 0.39062 0.6697 0.95121 0.0
H2018 H 0.43417 0.61805 0.82828 0.0
H2019 H 0.42116 0.61904 0.8814 0.0
C2020 C 0.14742 0.69762 0.49707 0.0
C2021 C 0.15304 0.72081 0.49824 0.0
C2022 C 0.14079 0.68639 0.52415 0.0
C2023 C 0.11586 0.69888 0.59852 0.0
H2024 H 0.13108 0.63895 0.62327 0.0
C2025 C 0.09606 0.66192 0.7192 0.0
C2026 C 0.08851 0.63922 0.72027 0.0
C2027 C 0.10378 0.67104 0.69146 0.0
C2028 C 0.12647 0.6556 0.61643 0.0
H2029 H 0.15766 0.7501 0.52891 0.0
H2030 H 0.14687 0.73051 0.57618 0.0
H2031 H 0.14619 0.65599 0.57641 0.0
H2032 H 0.08274 0.60841 0.69276 0.0
H2033 H 0.09617 0.6244 0.64422 0.0
H2034 H 0.09618 0.6986 0.63835 0.0
C2035 C 0.1469 0.72105 0.5543 0.0
C2036 C 0.13516 0.66537 0.58962 0.0
C2037 C 0.15332 0.73224 0.52731 0.0
C2038 C 0.0887 0.6259 0.69282 0.0
C2039 C 0.09643 0.63504 0.66503 0.0
C2040 C 0.10721 0.68916 0.62522 0.0
C2041 C 0.13979 0.69819 0.55281 0.0
C2042 C 0.13019 0.68725 0.58063 0.0
C2043 C 0.10412 0.65771 0.66406 0.0
C2044 C 0.1126 0.66751 0.63474 0.0
H2045 H 0.14668 0.68848 0.47481 0.0
H2046 H 0.13533 0.66879 0.52217 0.0
H2047 H 0.11117 0.71553 0.59176 0.0
H2048 H 0.09653 0.67254 0.74007 0.0
H2049 H 0.10993 0.68848 0.6917 0.0
C2050 C 0.07441 0.36969 0.22628 0.0
C2051 C 0.0678 0.35424 0.2018 0.0
C2052 C 0.09344 0.36666 0.24645 0.0
C2053 C 0.13464 0.3567 0.2881 0.0
H2054 H 0.11792 0.29919 0.32432 0.0
C2055 C 0.13576 0.30561 0.41486 0.0
C2056 C 0.12973 0.32353 0.43319 0.0
C2057 C 0.13925 0.30866 0.38291 0.0
C2058 C 0.12355 0.31503 0.31438 0.0
H2059 H 0.07679 0.32481 0.17695 0.0
H2060 H 0.10988 0.31895 0.21322 0.0
H2061 H 0.10554 0.30688 0.26986 0.0
H2062 H 0.12361 0.35885 0.43325 0.0
H2063 H 0.12879 0.3641 0.37727 0.0
H2064 H 0.15144 0.36533 0.3335 0.0
C2065 C 0.10047 0.33354 0.21651 0.0
C2066 C 0.11645 0.31942 0.28294 0.0
C2067 C 0.08157 0.33685 0.19588 0.0
C2068 C 0.12831 0.3448 0.41956 0.0
C2069 C 0.13152 0.34781 0.38753 0.0
C2070 C 0.14195 0.35223 0.31954 0.0
C2071 C 0.10594 0.34786 0.24282 0.0
C2072 C 0.12065 0.3408 0.27024 0.0
C2073 C 0.13646 0.32963 0.36861 0.0
C2074 C 0.13517 0.33189 0.33359 0.0
H2075 H 0.06419 0.38344 0.23091 0.0
H2076 H 0.09707 0.37788 0.26664 0.0
H2077 H 0.13833 0.37323 0.27866 0.0
H2078 H 0.13736 0.28912 0.42511 0.0
H2079 H 0.14335 0.2944 0.36914 0.0
loop_
_geom_bond_atom_site_label_1
_geom_bond_atom_site_label_2
_geom_bond_distance
_geom_bond_site_symmetry_2
_ccdc_geom_bond_type
Ho0 C3 2.811 . S
Ho0 O20 2.322 . S
Ho0 O22 2.378 . S
Ho0 O23 2.524 . S
Ho0 O24 2.381 . S
Ho0 O25 2.669 . S
Ho0 O27 2.346 . S
Ho0 O31 2.305 . S
Ho1 C12 2.811 . S
Ho1 O21 2.346 . S
Ho1 O25 2.305 1_655 S
Ho1 O26 2.322 1_655 S
Ho1 O28 2.378 . S
Ho1 O29 2.524 . S
Ho1 O30 2.381 . S
Ho1 O31 2.669 1_655 S
C2 O20 1.259 1_655 S
C2 O21 1.268 . S
C3 Ho0 2.811 . S
C3 C4 1.488 . S
C3 O22 1.215 . S
C3 O23 1.289 . S
C4 C3 1.488 . S
C4 C5 1.348 1_554 S
C4 C9 1.413 1_554 S
C5 C4 1.348 1_556 S
C5 C6 1.442 . S
C5 H32 0.930 . S
C6 C5 1.442 . S
C6 C7 1.381 . S
C6 H33 0.931 . S
C7 C6 1.381 . S
C7 C8 1.321 . S
C8 C7 1.321 . S
C8 C9 1.403 . S
C8 H34 0.934 . S
C9 C4 1.413 1_556 S
C9 C8 1.403 . S
C9 H35 0.930 1_556 S
C10 O24 1.275 . S
C10 O25 1.256 . S
C11 O26 1.259 . S
C11 O27 1.268 . S
C12 Ho1 2.811 . S
C12 C13 1.488 . S
C12 O28 1.215 . S
C12 O29 1.289 . S
C13 C12 1.488 . S
C13 C14 1.348 . S
C13 C18 1.413 . S
C14 C13 1.348 . S
C14 C15 1.442 . S
C14 H36 0.930 . S
C15 C14 1.442 . S
C15 C16 1.381 . S
C15 H37 0.931 . S
C16 C15 1.381 . S
C16 C17 1.321 . S
C17 C16 1.321 . S
C17 C18 1.403 . S
C17 H38 0.934 . S
C18 C13 1.413 . S
C18 C17 1.403 . S
C18 H39 0.930 . S
C19 O30 1.247 1_455 S
C19 O31 1.269 . S
O20 Ho0 2.322 . S
O20 C2 1.259 1_455 S
O21 Ho1 2.346 . S
O21 C2 1.268 . S
O22 Ho0 2.378 . S
O22 C3 1.215 . S
O23 Ho0 2.524 . S
O23 C3 1.289 . S
O24 Ho0 2.381 . S
O24 C10 1.275 . S
O25 Ho0 2.669 . S
O25 Ho1 2.305 1_455 S
O25 C10 1.256 . S
O26 Ho1 2.322 1_455 S
O26 C11 1.259 . S
O27 Ho0 2.346 . S
O27 C11 1.268 . S
O28 Ho1 2.378 . S
O28 C12 1.215 . S
O29 Ho1 2.524 . S
O29 C12 1.289 . S
O30 Ho1 2.381 . S
O30 C19 1.247 1_655 S
O31 Ho0 2.305 . S
O31 Ho1 2.669 1_455 S
O31 C19 1.269 . S
H32 C5 0.930 . S
H33 C6 0.931 . S
H34 C8 0.934 . S
H35 C9 0.930 1_554 S
H36 C14 0.930 . S
H37 C15 0.931 . S
H38 C17 0.934 . S
H39 C18 0.930 . S
Ho40 C43 2.811 . S
Ho40 O60 2.322 . S
Ho40 O62 2.378 . S
Ho40 O63 2.524 . S
Ho40 O64 2.381 . S
Ho40 O65 2.669 . S
Ho40 O67 2.346 . S
Ho40 O71 2.305 . S
Ho41 C52 2.811 . S
Ho41 O61 2.346 . S
Ho41 O65 2.305 . S
Ho41 O66 2.322 . S
Ho41 O68 2.378 . S
Ho41 O69 2.524 . S
Ho41 O70 2.381 . S
Ho41 O71 2.669 . S
C42 O60 1.259 . S
C42 O61 1.268 . S
C43 Ho40 2.811 . S
C43 C44 1.488 . S
C43 O62 1.215 . S
C43 O63 1.289 . S
C44 C43 1.488 . S
C44 C45 1.348 . S
C44 C49 1.413 . S
C45 C44 1.348 . S
C45 C46 1.442 . S
C45 H72 0.930 . S
C46 C45 1.442 . S
C46 C47 1.381 . S
C46 H73 0.931 . S
C47 C46 1.381 . S
C47 C48 1.321 . S
C48 C47 1.321 . S
C48 C49 1.403 . S
C48 H74 0.934 . S
C49 C44 1.413 . S
C49 C48 1.403 . S
C49 H75 0.930 . S
C50 O64 1.275 . S
C50 O65 1.256 . S
C51 O66 1.259 . S
C51 O67 1.268 . S
C52 Ho41 2.811 . S
C52 C53 1.488 . S
C52 O68 1.215 . S
C52 O69 1.289 . S
C53 C52 1.488 . S
C53 C54 1.348 . S
C53 C58 1.413 . S
C54 C53 1.348 . S
C54 C55 1.442 . S
C54 H76 0.930 . S
C55 C54 1.442 . S
C55 C56 1.381 . S
C55 H77 0.931 . S
C56 C55 1.381 . S
C56 C57 1.321 . S
C57 C56 1.321 . S
C57 C58 1.403 . S
C57 H78 0.934 . S
C58 C53 1.413 . S
C58 C57 1.403 . S
C58 H79 0.930 . S
C59 O70 1.275 . S
C59 O71 1.256 . S
O60 Ho40 2.322 . S
O60 C42 1.259 . S
O61 Ho41 2.346 . S
O61 C42 1.268 . S
O62 Ho40 2.378 . S
O62 C43 1.215 . S
O63 Ho40 2.524 . S
O63 C43 1.289 . S
O64 Ho40 2.381 . S
O64 C50 1.275 . S
O65 Ho40 2.669 . S
O65 Ho41 2.305 . S
O65 C50 1.256 . S
O66 Ho41 2.322 . S
O66 C51 1.259 . S
O67 Ho40 2.346 . S
O67 C51 1.268 . S
O68 Ho41 2.378 . S
O68 C52 1.215 . S
O69 Ho41 2.524 . S
O69 C52 1.289 . S
O70 Ho41 2.381 . S
O70 C59 1.275 . S
O71 Ho40 2.305 . S
O71 Ho41 2.669 . S
O71 C59 1.256 . S
H72 C45 0.930 . S
H73 C46 0.931 . S
H74 C48 0.934 . S
H75 C49 0.930 . S
H76 C54 0.930 . S
H77 C55 0.931 . S
H78 C57 0.934 . S
H79 C58 0.930 . S
Ho80 C83 2.811 . S
Ho80 O100 2.322 . S
Ho80 O102 2.378 . S
Ho80 O103 2.524 . S
Ho80 O104 2.381 . S
Ho80 O105 2.669 . S
Ho80 O107 2.346 . S
Ho80 O111 2.305 . S
Ho81 C92 2.811 . S
Ho81 O101 2.346 . S
Ho81 O105 2.305 . S
Ho81 O106 2.322 . S
Ho81 O108 2.378 . S
Ho81 O109 2.524 . S
Ho81 O110 2.381 . S
Ho81 O111 2.669 . S
C82 O100 1.259 . S
C82 O101 1.268 . S
C83 Ho80 2.811 . S
C83 C84 1.488 . S
C83 O102 1.215 . S
C83 O103 1.289 . S
C84 C83 1.488 . S
C84 C85 1.348 . S
C84 C89 1.413 . S
C85 C84 1.348 . S
C85 C86 1.442 . S
C85 H112 0.930 . S
C86 C85 1.442 . S
C86 C87 1.381 . S
C86 H113 0.931 . S
C87 C86 1.381 . S
C87 C88 1.321 . S
C88 C87 1.321 . S
C88 C89 1.403 . S
C88 H114 0.934 . S
C89 C84 1.413 . S
C89 C88 1.403 . S
C89 H115 0.930 . S
C90 O104 1.275 . S
C90 O105 1.256 . S
C91 O106 1.259 . S
C91 O107 1.268 . S
C92 Ho81 2.811 . S
C92 C93 1.488 . S
C92 O108 1.215 . S
C92 O109 1.289 . S
C93 C92 1.488 . S
C93 C94 1.348 . S
C93 C98 1.413 . S
C94 C93 1.348 . S
C94 C95 1.442 . S
C94 H116 0.930 . S
C95 C94 1.442 . S
C95 C96 1.381 . S
C95 H117 0.931 . S
C96 C95 1.381 . S
C96 C97 1.321 . S
C97 C96 1.321 . S
C97 C98 1.403 . S
C97 H118 0.934 . S
C98 C93 1.413 . S
C98 C97 1.403 . S
C98 H119 0.930 . S
C99 O110 1.275 . S
C99 O111 1.256 . S
O100 Ho80 2.322 . S
O100 C82 1.259 . S
O101 Ho81 2.346 . S
O101 C82 1.268 . S
O102 Ho80 2.378 . S
O102 C83 1.215 . S
O103 Ho80 2.524 . S
O103 C83 1.289 . S
O104 Ho80 2.381 . S
O104 C90 1.275 . S
O105 Ho80 2.669 . S
O105 Ho81 2.305 . S
O105 C90 1.256 . S
O106 Ho81 2.322 . S
O106 C91 1.259 . S
O107 Ho80 2.346 . S
O107 C91 1.268 . S
O108 Ho81 2.378 . S
O108 C92 1.215 . S
O109 Ho81 2.524 . S
O109 C92 1.289 . S
O110 Ho81 2.381 . S
O110 C99 1.275 . S
O111 Ho80 2.305 . S
O111 Ho81 2.669 . S
O111 C99 1.256 . S
H112 C85 0.930 . S
H113 C86 0.931 . S
H114 C88 0.934 . S
H115 C89 0.930 . S
H116 C94 0.930 . S
H117 C95 0.931 . S
H118 C97 0.934 . S
H119 C98 0.930 . S
Ho120 C123 2.811 . S
Ho120 O140 2.322 . S
Ho120 O142 2.378 . S
Ho120 O143 2.524 . S
Ho120 O144 2.381 . S
Ho120 O145 2.669 . S
Ho120 O147 2.346 . S
Ho120 O151 2.305 . S
Ho121 C132 2.811 . S
Ho121 O141 2.346 . S
Ho121 O145 2.305 . S
Ho121 O146 2.322 . S
Ho121 O148 2.378 . S
Ho121 O149 2.524 . S
Ho121 O150 2.381 . S
Ho121 O151 2.669 . S
C122 O140 1.259 . S
C122 O141 1.268 . S
C123 Ho120 2.811 . S
C123 C124 1.488 . S
C123 O142 1.215 . S
C123 O143 1.289 . S
C124 C123 1.488 . S
C124 C125 1.348 . S
C124 C129 1.413 . S
C125 C124 1.348 . S
C125 C126 1.442 1_556 S
C125 H152 0.930 . S
C126 C125 1.442 1_554 S
C126 C127 1.381 . S
C126 H153 0.931 . S
C127 C126 1.381 . S
C127 C128 1.321 . S
C128 C127 1.321 . S
C128 C129 1.403 1_554 S
C128 H154 0.934 . S
C129 C124 1.413 . S
C129 C128 1.403 1_556 S
C129 H155 0.930 . S
C130 O144 1.275 . S
C130 O145 1.256 . S
C131 O146 1.259 . S
C131 O147 1.268 . S
C132 Ho121 2.811 . S
C132 C133 1.488 . S
C132 O148 1.215 . S
C132 O149 1.289 . S
C133 C132 1.488 . S
C133 C134 1.348 . S
C133 C138 1.413 . S
C134 C133 1.348 . S
C134 C135 1.442 . S
C134 H156 0.930 . S
C135 C134 1.442 . S
C135 C136 1.381 . S
C135 H157 0.931 . S
C136 C135 1.381 . S
C136 C137 1.321 . S
C137 C136 1.321 . S
C137 C138 1.403 . S
C137 H158 0.934 . S
C138 C133 1.413 . S
C138 C137 1.403 . S
C138 H159 0.930 . S
C139 O150 1.275 . S
C139 O151 1.256 . S
O140 Ho120 2.322 . S
O140 C122 1.259 . S
O141 Ho121 2.346 . S
O141 C122 1.268 . S
O142 Ho120 2.378 . S
O142 C123 1.215 . S
O143 Ho120 2.524 . S
O143 C123 1.289 . S
O144 Ho120 2.381 . S
O144 C130 1.275 . S
O145 Ho120 2.669 . S
O145 Ho121 2.305 . S
O145 C130 1.256 . S
O146 Ho121 2.322 . S
O146 C131 1.259 . S
O147 Ho120 2.346 . S
O147 C131 1.268 . S
O148 Ho121 2.378 . S
O148 C132 1.215 . S
O149 Ho121 2.524 . S
O149 C132 1.289 . S
O150 Ho121 2.381 . S
O150 C139 1.275 . S
O151 Ho120 2.305 . S
O151 Ho121 2.669 . S
O151 C139 1.256 . S
H152 C125 0.930 . S
H153 C126 0.931 . S
H154 C128 0.934 . S
H155 C129 0.930 . S
H156 C134 0.930 . S
H157 C135 0.931 . S
H158 C137 0.934 . S
H159 C138 0.930 . S
Ho160 C163 2.811 . S
Ho160 O180 2.322 . S
Ho160 O182 2.378 . S
Ho160 O183 2.524 . S
Ho160 O184 2.381 . S
Ho160 O185 2.669 . S
Ho160 O187 2.346 . S
Ho160 O191 2.305 . S
Ho161 C172 2.811 . S
Ho161 O181 2.346 . S
Ho161 O185 2.305 1_655 S
Ho161 O186 2.322 1_655 S
Ho161 O188 2.378 . S
Ho161 O189 2.524 . S
Ho161 O190 2.381 . S
Ho161 O191 2.669 1_655 S
C162 O180 1.259 1_655 S
C162 O181 1.268 . S
C163 Ho160 2.811 . S
C163 C164 1.488 1_556 S
C163 O182 1.215 . S
C163 O183 1.289 . S
C164 C163 1.488 1_554 S
C164 C165 1.348 . S
C164 C169 1.413 . S
C165 C164 1.348 . S
C165 C166 1.442 . S
C165 H192 0.930 . S
C166 C165 1.442 . S
C166 C167 1.381 . S
C166 H193 0.931 . S
C167 C166 1.381 . S
C167 C168 1.321 . S
C168 C167 1.321 . S
C168 C169 1.403 . S
C168 H194 0.934 . S
C169 C164 1.413 . S
C169 C168 1.403 . S
C169 H195 0.930 . S
C170 O184 1.275 . S
C170 O185 1.256 . S
C171 O186 1.259 . S
C171 O187 1.268 . S
C172 Ho161 2.811 . S
C172 C173 1.488 . S
C172 O188 1.215 . S
C172 O189 1.289 . S
C173 C172 1.488 . S
C173 C174 1.348 . S
C173 C178 1.413 . S
C174 C173 1.348 . S
C174 C175 1.442 . S
C174 H196 0.930 . S
C175 C174 1.442 . S
C175 C176 1.381 . S
C175 H197 0.931 . S
C176 C175 1.381 . S
C176 C177 1.321 . S
C177 C176 1.321 . S
C177 C178 1.403 . S
C177 H198 0.934 . S
C178 C173 1.413 . S
C178 C177 1.403 . S
C178 H199 0.930 . S
C179 O190 1.275 1_455 S
C179 O191 1.256 . S
O180 Ho160 2.322 . S
O180 C162 1.259 1_455 S
O181 Ho161 2.346 . S
O181 C162 1.268 . S
O182 Ho160 2.378 . S
O182 C163 1.215 . S
O183 Ho160 2.524 . S
O183 C163 1.289 . S
O184 Ho160 2.381 . S
O184 C170 1.275 . S
O185 Ho160 2.669 . S
O185 Ho161 2.305 1_455 S
O185 C170 1.256 . S
O186 Ho161 2.322 1_455 S
O186 C171 1.259 . S
O187 Ho160 2.346 . S
O187 C171 1.268 . S
O188 Ho161 2.378 . S
O188 C172 1.215 . S
O189 Ho161 2.524 . S
O189 C172 1.289 . S
O190 Ho161 2.381 . S
O190 C179 1.275 1_655 S
O191 Ho160 2.305 . S
O191 Ho161 2.669 1_455 S
O191 C179 1.256 . S
H192 C165 0.930 . S
H193 C166 0.931 . S
H194 C168 0.934 . S
H195 C169 0.930 . S
H196 C174 0.930 . S
H197 C175 0.931 . S
H198 C177 0.934 . S
H199 C178 0.930 . S
Ho200 C203 2.811 . S
Ho200 O220 2.322 . S
Ho200 O222 2.378 . S
Ho200 O223 2.524 . S
Ho200 O224 2.381 . S
Ho200 O225 2.669 . S
Ho200 O227 2.346 . S
Ho200 O231 2.305 . S
Ho201 C212 2.811 . S
Ho201 O221 2.346 . S
Ho201 O225 2.305 . S
Ho201 O226 2.322 . S
Ho201 O228 2.378 . S
Ho201 O229 2.524 . S
Ho201 O230 2.381 . S
Ho201 O231 2.669 . S
C202 O220 1.259 . S
C202 O221 1.268 . S
C203 Ho200 2.811 . S
C203 C204 1.488 . S
C203 O222 1.215 . S
C203 O223 1.289 . S
C204 C203 1.488 . S
C204 C205 1.348 . S
C204 C209 1.413 . S
C205 C204 1.348 . S
C205 C206 1.442 . S
C205 H232 0.930 . S
C206 C205 1.442 . S
C206 C207 1.381 . S
C206 H233 0.931 . S
C207 C206 1.381 . S
C207 C208 1.321 . S
C208 C207 1.321 . S
C208 C209 1.403 . S
C208 H234 0.934 . S
C209 C204 1.413 . S
C209 C208 1.403 . S
C209 H235 0.930 . S
C210 O224 1.275 . S
C210 O225 1.256 . S
C211 O226 1.259 . S
C211 O227 1.268 . S
C212 Ho201 2.811 . S
C212 C213 1.488 . S
C212 O228 1.215 . S
C212 O229 1.289 . S
C213 C212 1.488 . S
C213 C214 1.348 . S
C213 C218 1.413 . S
C214 C213 1.348 . S
C214 C215 1.442 . S
C214 H236 0.930 . S
C215 C214 1.442 . S
C215 C216 1.381 . S
C215 H237 0.931 1_554 S
C216 C215 1.381 . S
C216 C217 1.321 . S
C217 C216 1.321 . S
C217 C218 1.403 . S
C217 H238 0.934 . S
C218 C213 1.413 . S
C218 C217 1.403 . S
C218 H239 0.930 . S
C219 O230 1.275 . S
C219 O231 1.256 . S
O220 Ho200 2.322 . S
O220 C202 1.259 . S
O221 Ho201 2.346 . S
O221 C202 1.268 . S
O222 Ho200 2.378 . S
O222 C203 1.215 . S
O223 Ho200 2.524 . S
O223 C203 1.289 . S
O224 Ho200 2.381 . S
O224 C210 1.275 . S
O225 Ho200 2.669 . S
O225 Ho201 2.305 . S
O225 C210 1.256 . S
O226 Ho201 2.322 . S
O226 C211 1.259 . S
O227 Ho200 2.346 . S
O227 C211 1.268 . S
O228 Ho201 2.378 . S
O228 C212 1.215 . S
O229 Ho201 2.524 . S
O229 C212 1.289 . S
O230 Ho201 2.381 . S
O230 C219 1.275 . S
O231 Ho200 2.305 . S
O231 Ho201 2.669 . S
O231 C219 1.256 . S
H232 C205 0.930 . S
H233 C206 0.931 . S
H234 C208 0.934 . S
H235 C209 0.930 . S
H236 C214 0.930 . S
H237 C215 0.931 1_556 S
H238 C217 0.934 . S
H239 C218 0.930 . S
Ho240 C243 2.811 . S
Ho240 O260 2.322 . S
Ho240 O262 2.378 . S
Ho240 O263 2.524 . S
Ho240 O264 2.381 . S
Ho240 O265 2.669 . S
Ho240 O267 2.346 . S
Ho240 O271 2.305 . S
Ho241 C252 2.811 . S
Ho241 O261 2.346 . S
Ho241 O265 2.305 . S
Ho241 O266 2.322 . S
Ho241 O268 2.378 . S
Ho241 O269 2.524 . S
Ho241 O270 2.381 . S
Ho241 O271 2.669 . S
C242 O260 1.259 . S
C242 O261 1.268 . S
C243 Ho240 2.811 . S
C243 C244 1.488 . S
C243 O262 1.215 . S
C243 O263 1.289 . S
C244 C243 1.488 . S
C244 C245 1.348 . S
C244 C249 1.413 . S
C245 C244 1.348 . S
C245 C246 1.442 . S
C245 H272 0.930 . S
C246 C245 1.442 . S
C246 C247 1.381 . S
C246 H273 0.931 . S
C247 C246 1.381 . S
C247 C248 1.321 . S
C248 C247 1.321 . S
C248 C249 1.403 . S
C248 H274 0.934 . S
C249 C244 1.413 . S
C249 C248 1.403 . S
C249 H275 0.930 . S
C250 O264 1.275 . S
C250 O265 1.256 . S
C251 O266 1.259 . S
C251 O267 1.268 . S
C252 Ho241 2.811 . S
C252 C253 1.488 . S
C252 O268 1.215 . S
C252 O269 1.289 . S
C253 C252 1.488 . S
C253 C254 1.348 . S
C253 C258 1.413 . S
C254 C253 1.348 . S
C254 C255 1.442 . S
C254 H276 0.930 . S
C255 C254 1.442 . S
C255 C256 1.381 . S
C255 H277 0.931 . S
C256 C255 1.381 . S
C256 C257 1.321 . S
C257 C256 1.321 . S
C257 C258 1.403 . S
C257 H278 0.934 . S
C258 C253 1.413 . S
C258 C257 1.403 . S
C258 H279 0.930 . S
C259 O270 1.275 . S
C259 O271 1.256 . S
O260 Ho240 2.322 . S
O260 C242 1.259 . S
O261 Ho241 2.346 . S
O261 C242 1.268 . S
O262 Ho240 2.378 . S
O262 C243 1.215 . S
O263 Ho240 2.524 . S
O263 C243 1.289 . S
O264 Ho240 2.381 . S
O264 C250 1.275 . S
O265 Ho240 2.669 . S
O265 Ho241 2.305 . S
O265 C250 1.256 . S
O266 Ho241 2.322 . S
O266 C251 1.259 . S
O267 Ho240 2.346 . S
O267 C251 1.268 . S
O268 Ho241 2.378 . S
O268 C252 1.215 . S
O269 Ho241 2.524 . S
O269 C252 1.289 . S
O270 Ho241 2.381 . S
O270 C259 1.275 . S
O271 Ho240 2.305 . S
O271 Ho241 2.669 . S
O271 C259 1.256 . S
H272 C245 0.930 . S
H273 C246 0.931 . S
H274 C248 0.934 . S
H275 C249 0.930 . S
H276 C254 0.930 . S
H277 C255 0.931 . S
H278 C257 0.934 . S
H279 C258 0.930 . S
Ho280 C283 2.811 . S
Ho280 O300 2.322 . S
Ho280 O302 2.378 . S
Ho280 O303 2.524 . S
Ho280 O304 2.381 . S
Ho280 O305 2.669 . S
Ho280 O307 2.346 . S
Ho280 O311 2.305 . S
Ho281 C292 2.811 . S
Ho281 O301 2.346 . S
Ho281 O305 2.305 . S
Ho281 O306 2.322 . S
Ho281 O308 2.378 . S
Ho281 O309 2.524 . S
Ho281 O310 2.381 . S
Ho281 O311 2.669 . S
C282 O300 1.259 . S
C282 O301 1.268 . S
C283 Ho280 2.811 . S
C283 C284 1.488 . S
C283 O302 1.215 . S
C283 O303 1.289 . S
C284 C283 1.488 . S
C284 C285 1.348 . S
C284 C289 1.413 . S
C285 C284 1.348 . S
C285 C286 1.442 . S
C285 H312 0.930 . S
C286 C285 1.442 . S
C286 C287 1.381 . S
C286 H313 0.931 . S
C287 C286 1.381 . S
C287 C288 1.321 . S
C288 C287 1.321 . S
C288 C289 1.403 . S
C288 H314 0.934 . S
C289 C284 1.413 . S
C289 C288 1.403 . S
C289 H315 0.930 . S
C290 O304 1.275 . S
C290 O305 1.256 . S
C291 O306 1.259 . S
C291 O307 1.268 . S
C292 Ho281 2.811 . S
C292 C293 1.488 . S
C292 O308 1.215 . S
C292 O309 1.289 . S
C293 C292 1.488 . S
C293 C294 1.348 . S
C293 C298 1.413 . S
C294 C293 1.348 . S
C294 C295 1.442 . S
C294 H316 0.930 . S
C295 C294 1.442 . S
C295 C296 1.381 . S
C295 H317 0.931 . S
C296 C295 1.381 . S
C296 C297 1.321 . S
C297 C296 1.321 . S
C297 C298 1.403 . S
C297 H318 0.934 . S
C298 C293 1.413 . S
C298 C297 1.403 . S
C298 H319 0.930 . S
C299 O310 1.275 . S
C299 O311 1.256 . S
O300 Ho280 2.322 . S
O300 C282 1.259 . S
O301 Ho281 2.346 . S
O301 C282 1.268 . S
O302 Ho280 2.378 . S
O302 C283 1.215 . S
O303 Ho280 2.524 . S
O303 C283 1.289 . S
O304 Ho280 2.381 . S
O304 C290 1.275 . S
O305 Ho280 2.669 . S
O305 Ho281 2.305 . S
O305 C290 1.256 . S
O306 Ho281 2.322 . S
O306 C291 1.259 . S
O307 Ho280 2.346 . S
O307 C291 1.268 . S
O308 Ho281 2.378 . S
O308 C292 1.215 . S
O309 Ho281 2.524 . S
O309 C292 1.289 . S
O310 Ho281 2.381 . S
O310 C299 1.275 . S
O311 Ho280 2.305 . S
O311 Ho281 2.669 . S
O311 C299 1.256 . S
H312 C285 0.930 . S
H313 C286 0.931 . S
H314 C288 0.934 . S
H315 C289 0.930 . S
H316 C294 0.930 . S
H317 C295 0.931 . S
H318 C297 0.934 . S
H319 C298 0.930 . S
Ho320 C323 2.811 . S
Ho320 O340 2.322 . S
Ho320 O342 2.378 . S
Ho320 O343 2.524 . S
Ho320 O344 2.381 . S
Ho320 O345 2.669 . S
Ho320 O347 2.346 . S
Ho320 O351 2.305 . S
Ho321 C332 2.811 . S
Ho321 O341 2.346 . S
Ho321 O345 2.305 . S
Ho321 O346 2.322 . S
Ho321 O348 2.378 . S
Ho321 O349 2.524 . S
Ho321 O350 2.381 . S
Ho321 O351 2.669 . S
C322 O340 1.259 . S
C322 O341 1.268 . S
C323 Ho320 2.811 . S
C323 C324 1.488 . S
C323 O342 1.215 . S
C323 O343 1.289 . S
C324 C323 1.488 . S
C324 C325 1.348 . S
C324 C329 1.413 . S
C325 C324 1.348 . S
C325 C326 1.442 . S
C325 H352 0.930 . S
C326 C325 1.442 . S
C326 C327 1.381 . S
C326 H353 0.931 . S
C327 C326 1.381 . S
C327 C328 1.321 . S
C328 C327 1.321 . S
C328 C329 1.403 . S
C328 H354 0.934 . S
C329 C324 1.413 . S
C329 C328 1.403 . S
C329 H355 0.930 . S
C330 O344 1.275 . S
C330 O345 1.256 . S
C331 O346 1.259 . S
C331 O347 1.268 . S
C332 Ho321 2.811 . S
C332 C333 1.488 . S
C332 O348 1.215 . S
C332 O349 1.289 . S
C333 C332 1.488 . S
C333 C334 1.348 . S
C333 C338 1.413 . S
C334 C333 1.348 . S
C334 C335 1.442 . S
C334 H356 0.930 . S
C335 C334 1.442 . S
C335 C336 1.381 . S
C335 H357 0.931 . S
C336 C335 1.381 . S
C336 C337 1.321 . S
C337 C336 1.321 . S
C337 C338 1.403 . S
C337 H358 0.934 . S
C338 C333 1.413 . S
C338 C337 1.403 . S
C338 H359 0.930 . S
C339 O350 1.275 . S
C339 O351 1.256 . S
O340 Ho320 2.322 . S
O340 C322 1.259 . S
O341 Ho321 2.346 . S
O341 C322 1.268 . S
O342 Ho320 2.378 . S
O342 C323 1.215 . S
O343 Ho320 2.524 . S
O343 C323 1.289 . S
O344 Ho320 2.381 . S
O344 C330 1.275 . S
O345 Ho320 2.669 . S
O345 Ho321 2.305 . S
O345 C330 1.256 . S
O346 Ho321 2.322 . S
O346 C331 1.259 . S
O347 Ho320 2.346 . S
O347 C331 1.268 . S
O348 Ho321 2.378 . S
O348 C332 1.215 . S
O349 Ho321 2.524 . S
O349 C332 1.289 . S
O350 Ho321 2.381 . S
O350 C339 1.275 . S
O351 Ho320 2.305 . S
O351 Ho321 2.669 . S
O351 C339 1.256 . S
H352 C325 0.930 . S
H353 C326 0.931 . S
H354 C328 0.934 . S
H355 C329 0.930 . S
H356 C334 0.930 . S
H357 C335 0.931 . S
H358 C337 0.934 . S
H359 C338 0.930 . S
Ho360 C363 2.811 . S
Ho360 O380 2.322 . S
Ho360 O382 2.378 . S
Ho360 O383 2.524 . S
Ho360 O384 2.381 . S
Ho360 O385 2.669 . S
Ho360 O387 2.346 . S
Ho360 O391 2.305 . S
Ho361 C372 2.811 . S
Ho361 O381 2.346 . S
Ho361 O385 2.305 . S
Ho361 O386 2.322 . S
Ho361 O388 2.378 . S
Ho361 O389 2.524 . S
Ho361 O390 2.381 . S
Ho361 O391 2.669 . S
C362 O380 1.259 . S
C362 O381 1.268 . S
C363 Ho360 2.811 . S
C363 C364 1.488 . S
C363 O382 1.215 . S
C363 O383 1.289 . S
C364 C363 1.488 . S
C364 C365 1.348 . S
C364 C369 1.413 . S
C365 C364 1.348 . S
C365 C366 1.442 . S
C365 H392 0.930 . S
C366 C365 1.442 . S
C366 C367 1.381 . S
C366 H393 0.931 . S
C367 C366 1.381 . S
C367 C368 1.321 . S
C368 C367 1.321 . S
C368 C369 1.403 . S
C368 H394 0.934 . S
C369 C364 1.413 . S
C369 C368 1.403 . S
C369 H395 0.930 . S
C370 O384 1.275 . S
C370 O385 1.256 . S
C371 O386 1.259 . S
C371 O387 1.268 . S
C372 Ho361 2.811 . S
C372 C373 1.488 1_554 S
C372 O388 1.215 . S
C372 O389 1.289 . S
C373 C372 1.488 1_556 S
C373 C374 1.348 . S
C373 C378 1.413 . S
C374 C373 1.348 . S
C374 C375 1.442 . S
C374 H396 0.930 . S
C375 C374 1.442 . S
C375 C376 1.381 . S
C375 H397 0.931 . S
C376 C375 1.381 . S
C376 C377 1.321 . S
C377 C376 1.321 . S
C377 C378 1.403 . S
C377 H398 0.934 . S
C378 C373 1.413 . S
C378 C377 1.403 . S
C378 H399 0.930 . S
C379 O390 1.275 . S
C379 O391 1.256 . S
O380 Ho360 2.322 . S
O380 C362 1.259 . S
O381 Ho361 2.346 . S
O381 C362 1.268 . S
O382 Ho360 2.378 . S
O382 C363 1.215 . S
O383 Ho360 2.524 . S
O383 C363 1.289 . S
O384 Ho360 2.381 . S
O384 C370 1.275 . S
O385 Ho360 2.669 . S
O385 Ho361 2.305 . S
O385 C370 1.256 . S
O386 Ho361 2.322 . S
O386 C371 1.259 . S
O387 Ho360 2.346 . S
O387 C371 1.268 . S
O388 Ho361 2.378 . S
O388 C372 1.215 . S
O389 Ho361 2.524 . S
O389 C372 1.289 . S
O390 Ho361 2.381 . S
O390 C379 1.275 . S
O391 Ho360 2.305 . S
O391 Ho361 2.669 . S
O391 C379 1.256 . S
H392 C365 0.930 . S
H393 C366 0.931 . S
H394 C368 0.934 . S
H395 C369 0.930 . S
H396 C374 0.930 . S
H397 C375 0.931 . S
H398 C377 0.934 . S
H399 C378 0.930 . S
Ho400 C403 2.811 . S
Ho400 O420 2.322 . S
Ho400 O422 2.378 . S
Ho400 O423 2.524 . S
Ho400 O424 2.381 . S
Ho400 O425 2.669 . S
Ho400 O427 2.346 . S
Ho400 O431 2.305 . S
Ho401 C412 2.811 . S
Ho401 O421 2.346 . S
Ho401 O425 2.305 . S
Ho401 O426 2.322 . S
Ho401 O428 2.378 . S
Ho401 O429 2.524 . S
Ho401 O430 2.381 . S
Ho401 O431 2.669 . S
C402 O420 1.259 . S
C402 O421 1.268 . S
C403 Ho400 2.811 . S
C403 C404 1.488 . S
C403 O422 1.215 . S
C403 O423 1.289 . S
C404 C403 1.488 . S
C404 C405 1.348 1_556 S
C404 C409 1.413 1_556 S
C405 C404 1.348 1_554 S
C405 C406 1.442 . S
C405 H432 0.930 . S
C406 C405 1.442 . S
C406 C407 1.381 . S
C406 H433 0.931 . S
C407 C406 1.381 . S
C407 C408 1.321 . S
C408 C407 1.321 . S
C408 C409 1.403 . S
C408 H434 0.934 . S
C409 C404 1.413 1_554 S
C409 C408 1.403 . S
C409 H435 0.930 1_554 S
C410 O424 1.275 . S
C410 O425 1.256 . S
C411 O426 1.259 . S
C411 O427 1.268 . S
C412 Ho401 2.811 . S
C412 C413 1.488 . S
C412 O428 1.215 . S
C412 O429 1.289 . S
C413 C412 1.488 . S
C413 C414 1.348 . S
C413 C418 1.413 . S
C414 C413 1.348 . S
C414 C415 1.442 . S
C414 H436 0.930 . S
C415 C414 1.442 . S
C415 C416 1.381 . S
C415 H437 0.931 . S
C416 C415 1.381 . S
C416 C417 1.321 . S
C417 C416 1.321 . S
C417 C418 1.403 . S
C417 H438 0.934 . S
C418 C413 1.413 . S
C418 C417 1.403 . S
C418 H439 0.930 . S
C419 O430 1.275 . S
C419 O431 1.256 . S
O420 Ho400 2.322 . S
O420 C402 1.259 . S
O421 Ho401 2.346 . S
O421 C402 1.268 . S
O422 Ho400 2.378 . S
O422 C403 1.215 . S
O423 Ho400 2.524 . S
O423 C403 1.289 . S
O424 Ho400 2.381 . S
O424 C410 1.275 . S
O425 Ho400 2.669 . S
O425 Ho401 2.305 . S
O425 C410 1.256 . S
O426 Ho401 2.322 . S
O426 C411 1.259 . S
O427 Ho400 2.346 . S
O427 C411 1.268 . S
O428 Ho401 2.378 . S
O428 C412 1.215 . S
O429 Ho401 2.524 . S
O429 C412 1.289 . S
O430 Ho401 2.381 . S
O430 C419 1.275 . S
O431 Ho400 2.305 . S
O431 Ho401 2.669 . S
O431 C419 1.256 . S
H432 C405 0.930 . S
H433 C406 0.931 . S
H434 C408 0.934 . S
H435 C409 0.930 1_556 S
H436 C414 0.930 . S
H437 C415 0.931 . S
H438 C417 0.934 . S
H439 C418 0.930 . S
Ho440 C443 2.811 . S
Ho440 O460 2.322 . S
Ho440 O462 2.378 . S
Ho440 O463 2.524 . S
Ho440 O464 2.381 . S
Ho440 O465 2.669 . S
Ho440 O467 2.346 . S
Ho440 O471 2.305 . S
Ho441 C452 2.811 . S
Ho441 O461 2.346 . S
Ho441 O465 2.305 . S
Ho441 O466 2.322 . S
Ho441 O468 2.378 . S
Ho441 O469 2.524 . S
Ho441 O470 2.381 . S
Ho441 O471 2.669 . S
C442 O460 1.259 . S
C442 O461 1.268 . S
C443 Ho440 2.811 . S
C443 C444 1.488 . S
C443 O462 1.215 . S
C443 O463 1.289 . S
C444 C443 1.488 . S
C444 C445 1.348 . S
C444 C449 1.413 . S
C445 C444 1.348 . S
C445 C446 1.442 . S
C445 H472 0.930 . S
C446 C445 1.442 . S
C446 C447 1.381 . S
C446 H473 0.931 . S
C447 C446 1.381 . S
C447 C448 1.321 . S
C448 C447 1.321 . S
C448 C449 1.403 . S
C448 H474 0.934 . S
C449 C444 1.413 . S
C449 C448 1.403 . S
C449 H475 0.930 . S
C450 O464 1.275 . S
C450 O465 1.256 . S
C451 O466 1.259 . S
C451 O467 1.268 . S
C452 Ho441 2.811 . S
C452 C453 1.488 . S
C452 O468 1.215 . S
C452 O469 1.289 . S
C453 C452 1.488 . S
C453 C454 1.348 . S
C453 C458 1.413 . S
C454 C453 1.348 . S
C454 C455 1.442 . S
C454 H476 0.930 . S
C455 C454 1.442 . S
C455 C456 1.381 . S
C455 H477 0.931 . S
C456 C455 1.381 . S
C456 C457 1.321 . S
C457 C456 1.321 . S
C457 C458 1.403 . S
C457 H478 0.934 . S
C458 C453 1.413 . S
C458 C457 1.403 . S
C458 H479 0.930 . S
C459 O470 1.275 . S
C459 O471 1.256 . S
O460 Ho440 2.322 . S
O460 C442 1.259 . S
O461 Ho441 2.346 . S
O461 C442 1.268 . S
O462 Ho440 2.378 . S
O462 C443 1.215 . S
O463 Ho440 2.524 . S
O463 C443 1.289 . S
O464 Ho440 2.381 . S
O464 C450 1.275 . S
O465 Ho440 2.669 . S
O465 Ho441 2.305 . S
O465 C450 1.256 . S
O466 Ho441 2.322 . S
O466 C451 1.259 . S
O467 Ho440 2.346 . S
O467 C451 1.268 . S
O468 Ho441 2.378 . S
O468 C452 1.215 . S
O469 Ho441 2.524 . S
O469 C452 1.289 . S
O470 Ho441 2.381 . S
O470 C459 1.275 . S
O471 Ho440 2.305 . S
O471 Ho441 2.669 . S
O471 C459 1.256 . S
H472 C445 0.930 . S
H473 C446 0.931 . S
H474 C448 0.934 . S
H475 C449 0.930 . S
H476 C454 0.930 . S
H477 C455 0.931 . S
H478 C457 0.934 . S
H479 C458 0.930 . S
Ho480 C483 2.811 . S
Ho480 O500 2.322 . S
Ho480 O502 2.378 . S
Ho480 O503 2.524 . S
Ho480 O504 2.381 . S
Ho480 O505 2.669 . S
Ho480 O507 2.346 . S
Ho480 O511 2.305 . S
Ho481 C492 2.811 . S
Ho481 O501 2.346 . S
Ho481 O505 2.305 . S
Ho481 O506 2.322 . S
Ho481 O508 2.378 . S
Ho481 O509 2.524 . S
Ho481 O510 2.381 . S
Ho481 O511 2.669 . S
C482 O500 1.259 . S
C482 O501 1.268 . S
C483 Ho480 2.811 . S
C483 C484 1.488 . S
C483 O502 1.215 . S
C483 O503 1.289 . S
C484 C483 1.488 . S
C484 C485 1.348 . S
C484 C489 1.413 . S
C485 C484 1.348 . S
C485 C486 1.442 . S
C485 H512 0.930 . S
C486 C485 1.442 . S
C486 C487 1.381 . S
C486 H513 0.931 . S
C487 C486 1.381 . S
C487 C488 1.321 . S
C488 C487 1.321 . S
C488 C489 1.403 . S
C488 H514 0.934 . S
C489 C484 1.413 . S
C489 C488 1.403 . S
C489 H515 0.930 . S
C490 O504 1.275 . S
C490 O505 1.256 . S
C491 O506 1.259 . S
C491 O507 1.268 . S
C492 Ho481 2.811 . S
C492 C493 1.488 . S
C492 O508 1.215 . S
C492 O509 1.289 . S
C493 C492 1.488 . S
C493 C494 1.348 . S
C493 C498 1.413 . S
C494 C493 1.348 . S
C494 C495 1.442 . S
C494 H516 0.930 . S
C495 C494 1.442 . S
C495 C496 1.381 . S
C495 H517 0.931 . S
C496 C495 1.381 . S
C496 C497 1.321 . S
C497 C496 1.321 . S
C497 C498 1.403 . S
C497 H518 0.934 . S
C498 C493 1.413 . S
C498 C497 1.403 . S
C498 H519 0.930 . S
C499 O510 1.275 . S
C499 O511 1.256 . S
O500 Ho480 2.322 . S
O500 C482 1.259 . S
O501 Ho481 2.346 . S
O501 C482 1.268 . S
O502 Ho480 2.378 . S
O502 C483 1.215 . S
O503 Ho480 2.524 . S
O503 C483 1.289 . S
O504 Ho480 2.381 . S
O504 C490 1.275 . S
O505 Ho480 2.669 . S
O505 Ho481 2.305 . S
O505 C490 1.256 . S
O506 Ho481 2.322 . S
O506 C491 1.259 . S
O507 Ho480 2.346 . S
O507 C491 1.268 . S
O508 Ho481 2.378 . S
O508 C492 1.215 . S
O509 Ho481 2.524 . S
O509 C492 1.289 . S
O510 Ho481 2.381 . S
O510 C499 1.275 . S
O511 Ho480 2.305 . S
O511 Ho481 2.669 . S
O511 C499 1.256 . S
H512 C485 0.930 . S
H513 C486 0.931 . S
H514 C488 0.934 . S
H515 C489 0.930 . S
H516 C494 0.930 . S
H517 C495 0.931 . S
H518 C497 0.934 . S
H519 C498 0.930 . S
Ho520 C523 2.811 . S
Ho520 O540 2.322 1_655 S
Ho520 O542 2.378 . S
Ho520 O543 2.524 . S
Ho520 O544 2.381 . S
Ho520 O545 2.669 1_655 S
Ho520 O547 2.346 . S
Ho520 O551 2.305 1_655 S
Ho521 C532 2.811 . S
Ho521 O541 2.346 . S
Ho521 O545 2.305 . S
Ho521 O546 2.322 . S
Ho521 O548 2.378 . S
Ho521 O549 2.524 . S
Ho521 O550 2.381 . S
Ho521 O551 2.669 . S
C522 O540 1.259 . S
C522 O541 1.268 . S
C523 Ho520 2.811 . S
C523 C524 1.488 . S
C523 O542 1.215 . S
C523 O543 1.289 . S
C524 C523 1.488 . S
C524 C525 1.348 . S
C524 C529 1.413 . S
C525 C524 1.348 . S
C525 C526 1.442 . S
C525 H552 0.930 . S
C526 C525 1.442 . S
C526 C527 1.381 . S
C526 H553 0.931 . S
C527 C526 1.381 . S
C527 C528 1.321 . S
C528 C527 1.321 . S
C528 C529 1.403 . S
C528 H554 0.934 . S
C529 C524 1.413 . S
C529 C528 1.403 . S
C529 H555 0.930 . S
C530 O544 1.275 1_455 S
C530 O545 1.256 . S
C531 O546 1.259 1_655 S
C531 O547 1.268 . S
C532 Ho521 2.811 . S
C532 C533 1.488 . S
C532 O548 1.215 . S
C532 O549 1.289 . S
C533 C532 1.488 . S
C533 C534 1.348 1_554 S
C533 C538 1.413 1_554 S
C534 C533 1.348 1_556 S
C534 C535 1.442 . S
C534 H556 0.930 . S
C535 C534 1.442 . S
C535 C536 1.381 . S
C535 H557 0.931 . S
C536 C535 1.381 . S
C536 C537 1.321 . S
C537 C536 1.321 . S
C537 C538 1.403 . S
C537 H558 0.934 . S
C538 C533 1.413 1_556 S
C538 C537 1.403 . S
C538 H559 0.930 1_556 S
C539 O550 1.275 . S
C539 O551 1.256 . S
O540 Ho520 2.322 1_455 S
O540 C522 1.259 . S
O541 Ho521 2.346 . S
O541 C522 1.268 . S
O542 Ho520 2.378 . S
O542 C523 1.215 . S
O543 Ho520 2.524 . S
O543 C523 1.289 . S
O544 Ho520 2.381 . S
O544 C530 1.275 1_655 S
O545 Ho520 2.669 1_455 S
O545 Ho521 2.305 . S
O545 C530 1.256 . S
O546 Ho521 2.322 . S
O546 C531 1.259 1_455 S
O547 Ho520 2.346 . S
O547 C531 1.268 . S
O548 Ho521 2.378 . S
O548 C532 1.215 . S
O549 Ho521 2.524 . S
O549 C532 1.289 . S
O550 Ho521 2.381 . S
O550 C539 1.275 . S
O551 Ho520 2.305 1_455 S
O551 Ho521 2.669 . S
O551 C539 1.256 . S
H552 C525 0.930 . S
H553 C526 0.931 . S
H554 C528 0.934 . S
H555 C529 0.930 . S
H556 C534 0.930 . S
H557 C535 0.931 . S
H558 C537 0.934 . S
H559 C538 0.930 1_554 S
Ho560 C563 2.811 . S
Ho560 O580 2.322 . S
Ho560 O582 2.378 . S
Ho560 O583 2.524 . S
Ho560 O584 2.381 . S
Ho560 O585 2.669 . S
Ho560 O587 2.346 . S
Ho560 O591 2.305 . S
Ho561 C572 2.811 . S
Ho561 O581 2.346 . S
Ho561 O585 2.305 . S
Ho561 O586 2.322 . S
Ho561 O588 2.378 . S
Ho561 O589 2.524 . S
Ho561 O590 2.381 . S
Ho561 O591 2.669 . S
C562 O580 1.259 . S
C562 O581 1.268 . S
C563 Ho560 2.811 . S
C563 C564 1.488 . S
C563 O582 1.215 . S
C563 O583 1.289 . S
C564 C563 1.488 . S
C564 C565 1.348 . S
C564 C569 1.413 . S
C565 C564 1.348 . S
C565 C566 1.442 . S
C565 H592 0.930 . S
C566 C565 1.442 . S
C566 C567 1.381 . S
C566 H593 0.931 . S
C567 C566 1.381 . S
C567 C568 1.321 . S
C568 C567 1.321 . S
C568 C569 1.403 . S
C568 H594 0.934 . S
C569 C564 1.413 . S
C569 C568 1.403 . S
C569 H595 0.930 . S
C570 O584 1.275 . S
C570 O585 1.256 . S
C571 O586 1.259 . S
C571 O587 1.268 . S
C572 Ho561 2.811 . S
C572 C573 1.488 . S
C572 O588 1.215 . S
C572 O589 1.289 . S
C573 C572 1.488 . S
C573 C574 1.348 . S
C573 C578 1.413 . S
C574 C573 1.348 . S
C574 C575 1.442 . S
C574 H596 0.930 . S
C575 C574 1.442 . S
C575 C576 1.381 . S
C575 H597 0.931 . S
C576 C575 1.381 . S
C576 C577 1.321 . S
C577 C576 1.321 . S
C577 C578 1.403 . S
C577 H598 0.934 . S
C578 C573 1.413 . S
C578 C577 1.403 . S
C578 H599 0.930 . S
C579 O590 1.275 . S
C579 O591 1.256 . S
O580 Ho560 2.322 . S
O580 C562 1.259 . S
O581 Ho561 2.346 . S
O581 C562 1.268 . S
O582 Ho560 2.378 . S
O582 C563 1.215 . S
O583 Ho560 2.524 . S
O583 C563 1.289 . S
O584 Ho560 2.381 . S
O584 C570 1.275 . S
O585 Ho560 2.669 . S
O585 Ho561 2.305 . S
O585 C570 1.256 . S
O586 Ho561 2.322 . S
O586 C571 1.259 . S
O587 Ho560 2.346 . S
O587 C571 1.268 . S
O588 Ho561 2.378 . S
O588 C572 1.215 . S
O589 Ho561 2.524 . S
O589 C572 1.289 . S
O590 Ho561 2.381 . S
O590 C579 1.275 . S
O591 Ho560 2.305 . S
O591 Ho561 2.669 . S
O591 C579 1.256 . S
H592 C565 0.930 . S
H593 C566 0.931 . S
H594 C568 0.934 . S
H595 C569 0.930 . S
H596 C574 0.930 . S
H597 C575 0.931 . S
H598 C577 0.934 . S
H599 C578 0.930 . S
Ho600 C603 2.811 . S
Ho600 O620 2.322 1_655 S
Ho600 O622 2.378 . S
Ho600 O623 2.524 . S
Ho600 O624 2.381 . S
Ho600 O625 2.669 1_655 S
Ho600 O627 2.346 . S
Ho600 O631 2.305 1_655 S
Ho601 C612 2.811 . S
Ho601 O621 2.346 . S
Ho601 O625 2.305 . S
Ho601 O626 2.322 . S
Ho601 O628 2.378 . S
Ho601 O629 2.524 . S
Ho601 O630 2.381 . S
Ho601 O631 2.669 . S
C602 O620 1.259 . S
C602 O621 1.268 . S
C603 Ho600 2.811 . S
C603 C604 1.488 . S
C603 O622 1.215 . S
C603 O623 1.289 . S
C604 C603 1.488 . S
C604 C605 1.348 1_556 S
C604 C609 1.413 1_556 S
C605 C604 1.348 1_554 S
C605 C606 1.442 . S
C605 H632 0.930 . S
C606 C605 1.442 . S
C606 C607 1.381 . S
C606 H633 0.931 . S
C607 C606 1.381 . S
C607 C608 1.321 . S
C608 C607 1.321 . S
C608 C609 1.403 . S
C608 H634 0.934 . S
C609 C604 1.413 1_554 S
C609 C608 1.403 . S
C609 H635 0.930 1_554 S
C610 O624 1.275 1_455 S
C610 O625 1.256 . S
C611 O626 1.259 1_655 S
C611 O627 1.268 . S
C612 Ho601 2.811 . S
C612 C613 1.488 . S
C612 O628 1.215 . S
C612 O629 1.289 . S
C613 C612 1.488 . S
C613 C614 1.348 . S
C613 C618 1.413 . S
C614 C613 1.348 . S
C614 C615 1.442 . S
C614 H636 0.930 . S
C615 C614 1.442 . S
C615 C616 1.381 . S
C615 H637 0.931 . S
C616 C615 1.381 . S
C616 C617 1.321 . S
C617 C616 1.321 . S
C617 C618 1.403 . S
C617 H638 0.934 . S
C618 C613 1.413 . S
C618 C617 1.403 . S
C618 H639 0.930 . S
C619 O630 1.275 . S
C619 O631 1.256 . S
O620 Ho600 2.322 1_455 S
O620 C602 1.259 . S
O621 Ho601 2.346 . S
O621 C602 1.268 . S
O622 Ho600 2.378 . S
O622 C603 1.215 . S
O623 Ho600 2.524 . S
O623 C603 1.289 . S
O624 Ho600 2.381 . S
O624 C610 1.275 1_655 S
O625 Ho600 2.669 1_455 S
O625 Ho601 2.305 . S
O625 C610 1.256 . S
O626 Ho601 2.322 . S
O626 C611 1.259 1_455 S
O627 Ho600 2.346 . S
O627 C611 1.268 . S
O628 Ho601 2.378 . S
O628 C612 1.215 . S
O629 Ho601 2.524 . S
O629 C612 1.289 . S
O630 Ho601 2.381 . S
O630 C619 1.275 . S
O631 Ho600 2.305 1_455 S
O631 Ho601 2.669 . S
O631 C619 1.256 . S
H632 C605 0.930 . S
H633 C606 0.931 . S
H634 C608 0.934 . S
H635 C609 0.930 1_556 S
H636 C614 0.930 . S
H637 C615 0.931 . S
H638 C617 0.934 . S
H639 C618 0.930 . S
C640 C641 1.349 . S
C640 C642 1.327 . S
C640 H665 0.950 . S
C641 C640 1.349 . S
C641 C657 1.349 . S
C642 C640 1.327 . S
C642 C661 1.429 . S
C642 H666 0.950 . S
C643 C660 1.574 . S
C643 C662 1.368 . S
C643 H667 0.949 . S
H644 C648 0.949 . S
C645 C646 1.349 . S
C645 C647 1.327 . S
C645 H668 0.950 . S
C646 C645 1.349 . S
C646 C658 1.349 . S
C647 C645 1.327 . S
C647 C663 1.429 . S
C647 H669 0.950 . S
C648 H644 0.949 . S
C648 C656 1.574 . S
C648 C664 1.368 . S
H649 C657 0.950 . S
H650 C655 0.950 . S
H651 C656 0.949 . S
H652 C658 0.950 . S
H653 C659 0.950 . S
H654 C660 0.949 . S
C655 H650 0.950 . S
C655 C657 1.327 . S
C655 C661 1.429 . S
C656 C648 1.574 . S
C656 H651 0.949 . S
C656 C662 1.368 . S
C657 C641 1.349 . S
C657 H649 0.950 . S
C657 C655 1.327 . S
C658 C646 1.349 . S
C658 H652 0.950 . S
C658 C659 1.327 . S
C659 H653 0.950 . S
C659 C658 1.327 . S
C659 C663 1.429 . S
C660 C643 1.574 . S
C660 H654 0.949 . S
C660 C664 1.368 . S
C661 C642 1.429 . S
C661 C655 1.429 . S
C661 C662 1.523 . S
C662 C643 1.368 . S
C662 C656 1.368 . S
C662 C661 1.523 . S
C663 C647 1.429 . S
C663 C659 1.429 . S
C663 C664 1.523 . S
C664 C648 1.368 . S
C664 C660 1.368 . S
C664 C663 1.523 . S
H665 C640 0.950 . S
H666 C642 0.950 . S
H667 C643 0.949 . S
H668 C645 0.950 . S
H669 C647 0.950 . S
C670 C671 1.349 . S
C670 C672 1.327 . S
C670 H695 0.950 . S
C671 C670 1.349 . S
C671 C687 1.349 . S
C672 C670 1.327 . S
C672 C691 1.429 . S
C672 H696 0.950 . S
C673 C690 1.574 . S
C673 C692 1.368 . S
C673 H697 0.949 . S
H674 C678 0.949 . S
C675 C676 1.349 . S
C675 C677 1.327 . S
C675 H698 0.950 . S
C676 C675 1.349 . S
C676 C688 1.349 . S
C677 C675 1.327 . S
C677 C693 1.429 . S
C677 H699 0.950 . S
C678 H674 0.949 . S
C678 C686 1.574 . S
C678 C694 1.368 . S
H679 C687 0.950 . S
H680 C685 0.950 . S
H681 C686 0.949 . S
H682 C688 0.950 . S
H683 C689 0.950 . S
H684 C690 0.949 . S
C685 H680 0.950 . S
C685 C687 1.327 . S
C685 C691 1.429 . S
C686 C678 1.574 . S
C686 H681 0.949 . S
C686 C692 1.368 . S
C687 C671 1.349 . S
C687 H679 0.950 . S
C687 C685 1.327 . S
C688 C676 1.349 . S
C688 H682 0.950 . S
C688 C689 1.327 . S
C689 H683 0.950 . S
C689 C688 1.327 . S
C689 C693 1.429 . S
C690 C673 1.574 . S
C690 H684 0.949 . S
C690 C694 1.368 . S
C691 C672 1.429 . S
C691 C685 1.429 . S
C691 C692 1.523 . S
C692 C673 1.368 . S
C692 C686 1.368 . S
C692 C691 1.523 . S
C693 C677 1.429 . S
C693 C689 1.429 . S
C693 C694 1.523 . S
C694 C678 1.368 . S
C694 C690 1.368 . S
C694 C693 1.523 . S
H695 C670 0.950 . S
H696 C672 0.950 . S
H697 C673 0.949 . S
H698 C675 0.950 . S
H699 C677 0.950 . S
C700 C701 1.349 . S
C700 C702 1.327 . S
C700 H725 0.950 . S
C701 C700 1.349 . S
C701 C717 1.349 . S
C702 C700 1.327 . S
C702 C721 1.429 . S
C702 H726 0.950 . S
C703 C720 1.574 . S
C703 C722 1.368 . S
C703 H727 0.949 . S
H704 C708 0.949 . S
C705 C706 1.349 . S
C705 C707 1.327 . S
C705 H728 0.950 . S
C706 C705 1.349 . S
C706 C718 1.349 . S
C707 C705 1.327 . S
C707 C723 1.429 . S
C707 H729 0.950 . S
C708 H704 0.949 . S
C708 C716 1.574 . S
C708 C724 1.368 . S
H709 C717 0.950 . S
H710 C715 0.950 . S
H711 C716 0.949 . S
H712 C718 0.950 . S
H713 C719 0.950 . S
H714 C720 0.949 . S
C715 H710 0.950 . S
C715 C717 1.327 . S
C715 C721 1.429 . S
C716 C708 1.574 . S
C716 H711 0.949 . S
C716 C722 1.368 . S
C717 C701 1.349 . S
C717 H709 0.950 . S
C717 C715 1.327 . S
C718 C706 1.349 . S
C718 H712 0.950 . S
C718 C719 1.327 . S
C719 H713 0.950 . S
C719 C718 1.327 . S
C719 C723 1.429 . S
C720 C703 1.574 . S
C720 H714 0.949 . S
C720 C724 1.368 . S
C721 C702 1.429 . S
C721 C715 1.429 . S
C721 C722 1.523 . S
C722 C703 1.368 . S
C722 C716 1.368 . S
C722 C721 1.523 . S
C723 C707 1.429 . S
C723 C719 1.429 . S
C723 C724 1.523 . S
C724 C708 1.368 . S
C724 C720 1.368 . S
C724 C723 1.523 . S
H725 C700 0.950 . S
H726 C702 0.950 . S
H727 C703 0.949 . S
H728 C705 0.950 . S
H729 C707 0.950 . S
C730 C731 1.349 . S
C730 C732 1.327 . S
C730 H755 0.950 . S
C731 C730 1.349 . S
C731 C747 1.349 . S
C732 C730 1.327 . S
C732 C751 1.429 . S
C732 H756 0.950 . S
C733 C750 1.574 . S
C733 C752 1.368 . S
C733 H757 0.949 . S
H734 C738 0.949 . S
C735 C736 1.349 . S
C735 C737 1.327 . S
C735 H758 0.950 . S
C736 C735 1.349 . S
C736 C748 1.349 . S
C737 C735 1.327 . S
C737 C753 1.429 . S
C737 H759 0.950 . S
C738 H734 0.949 . S
C738 C746 1.574 . S
C738 C754 1.368 . S
H739 C747 0.950 . S
H740 C745 0.950 . S
H741 C746 0.949 . S
H742 C748 0.950 . S
H743 C749 0.950 . S
H744 C750 0.949 . S
C745 H740 0.950 . S
C745 C747 1.327 . S
C745 C751 1.429 . S
C746 C738 1.574 . S
C746 H741 0.949 . S
C746 C752 1.368 . S
C747 C731 1.349 . S
C747 H739 0.950 . S
C747 C745 1.327 . S
C748 C736 1.349 . S
C748 H742 0.950 . S
C748 C749 1.327 . S
C749 H743 0.950 . S
C749 C748 1.327 . S
C749 C753 1.429 . S
C750 C733 1.574 . S
C750 H744 0.949 . S
C750 C754 1.368 . S
C751 C732 1.429 . S
C751 C745 1.429 . S
C751 C752 1.523 . S
C752 C733 1.368 . S
C752 C746 1.368 . S
C752 C751 1.523 . S
C753 C737 1.429 . S
C753 C749 1.429 . S
C753 C754 1.523 . S
C754 C738 1.368 . S
C754 C750 1.368 . S
C754 C753 1.523 . S
H755 C730 0.950 . S
H756 C732 0.950 . S
H757 C733 0.949 . S
H758 C735 0.950 . S
H759 C737 0.950 . S
C760 C761 1.349 . S
C760 C762 1.327 . S
C760 H785 0.950 . S
C761 C760 1.349 . S
C761 C777 1.349 . S
C762 C760 1.327 . S
C762 C781 1.429 . S
C762 H786 0.950 . S
C763 C780 1.574 . S
C763 C782 1.368 . S
C763 H787 0.949 . S
H764 C768 0.949 . S
C765 C766 1.349 . S
C765 C767 1.327 1_556 S
C765 H788 0.950 1_655 S
C766 C765 1.349 . S
C766 C778 1.349 . S
C767 C765 1.327 1_554 S
C767 C783 1.429 . S
C767 H789 0.950 . S
C768 H764 0.949 . S
C768 C776 1.574 . S
C768 C784 1.368 . S
H769 C777 0.950 . S
H770 C775 0.950 . S
H771 C776 0.949 . S
H772 C778 0.950 . S
H773 C779 0.950 . S
H774 C780 0.949 . S
C775 H770 0.950 . S
C775 C777 1.327 . S
C775 C781 1.429 . S
C776 C768 1.574 . S
C776 H771 0.949 . S
C776 C782 1.368 . S
C777 C761 1.349 . S
C777 H769 0.950 . S
C777 C775 1.327 . S
C778 C766 1.349 . S
C778 H772 0.950 . S
C778 C779 1.327 . S
C779 H773 0.950 . S
C779 C778 1.327 . S
C779 C783 1.429 1_556 S
C780 C763 1.574 . S
C780 H774 0.949 . S
C780 C784 1.368 . S
C781 C762 1.429 . S
C781 C775 1.429 . S
C781 C782 1.523 . S
C782 C763 1.368 . S
C782 C776 1.368 . S
C782 C781 1.523 . S
C783 C767 1.429 . S
C783 C779 1.429 1_554 S
C783 C784 1.523 . S
C784 C768 1.368 . S
C784 C780 1.368 . S
C784 C783 1.523 . S
H785 C760 0.950 . S
H786 C762 0.950 . S
H787 C763 0.949 . S
H788 C765 0.950 1_455 S
H789 C767 0.950 . S
C790 C791 1.349 . S
C790 C792 1.327 . S
C790 H815 0.950 . S
C791 C790 1.349 . S
C791 C807 1.349 . S
C792 C790 1.327 . S
C792 C811 1.429 . S
C792 H816 0.950 . S
C793 C810 1.574 . S
C793 C812 1.368 . S
C793 H817 0.949 . S
H794 C798 0.949 . S
C795 C796 1.349 1_556 S
C795 C797 1.327 . S
C795 H818 0.950 1_556 S
C796 C795 1.349 1_554 S
C796 C808 1.349 1_554 S
C797 C795 1.327 . S
C797 C813 1.429 . S
C797 H819 0.950 . S
C798 H794 0.949 . S
C798 C806 1.574 . S
C798 C814 1.368 . S
H799 C807 0.950 . S
H800 C805 0.950 . S
H801 C806 0.949 . S
H802 C808 0.950 . S
H803 C809 0.950 . S
H804 C810 0.949 . S
C805 H800 0.950 . S
C805 C807 1.327 . S
C805 C811 1.429 . S
C806 C798 1.574 . S
C806 H801 0.949 . S
C806 C812 1.368 . S
C807 C791 1.349 . S
C807 H799 0.950 . S
C807 C805 1.327 . S
C808 C796 1.349 1_556 S
C808 H802 0.950 . S
C808 C809 1.327 . S
C809 H803 0.950 . S
C809 C808 1.327 . S
C809 C813 1.429 . S
C810 C793 1.574 . S
C810 H804 0.949 . S
C810 C814 1.368 . S
C811 C792 1.429 . S
C811 C805 1.429 . S
C811 C812 1.523 . S
C812 C793 1.368 . S
C812 C806 1.368 . S
C812 C811 1.523 . S
C813 C797 1.429 . S
C813 C809 1.429 . S
C813 C814 1.523 . S
C814 C798 1.368 . S
C814 C810 1.368 . S
C814 C813 1.523 . S
H815 C790 0.950 . S
H816 C792 0.950 . S
H817 C793 0.949 . S
H818 C795 0.950 1_554 S
H819 C797 0.950 . S
C820 C821 1.349 . S
C820 C822 1.327 . S
C820 H845 0.950 . S
C821 C820 1.349 . S
C821 C837 1.349 . S
C822 C820 1.327 . S
C822 C841 1.429 . S
C822 H846 0.950 . S
C823 C840 1.574 . S
C823 C842 1.368 . S
C823 H847 0.949 . S
H824 C828 0.949 . S
C825 C826 1.349 . S
C825 C827 1.327 . S
C825 H848 0.950 . S
C826 C825 1.349 . S
C826 C838 1.349 . S
C827 C825 1.327 . S
C827 C843 1.429 . S
C827 H849 0.950 . S
C828 H824 0.949 . S
C828 C836 1.574 . S
C828 C844 1.368 . S
H829 C837 0.950 . S
H830 C835 0.950 . S
H831 C836 0.949 . S
H832 C838 0.950 . S
H833 C839 0.950 . S
H834 C840 0.949 . S
C835 H830 0.950 . S
C835 C837 1.327 . S
C835 C841 1.429 . S
C836 C828 1.574 . S
C836 H831 0.949 . S
C836 C842 1.368 . S
C837 C821 1.349 . S
C837 H829 0.950 . S
C837 C835 1.327 . S
C838 C826 1.349 . S
C838 H832 0.950 . S
C838 C839 1.327 . S
C839 H833 0.950 . S
C839 C838 1.327 . S
C839 C843 1.429 . S
C840 C823 1.574 . S
C840 H834 0.949 . S
C840 C844 1.368 . S
C841 C822 1.429 . S
C841 C835 1.429 . S
C841 C842 1.523 . S
C842 C823 1.368 . S
C842 C836 1.368 . S
C842 C841 1.523 . S
C843 C827 1.429 . S
C843 C839 1.429 . S
C843 C844 1.523 . S
C844 C828 1.368 . S
C844 C840 1.368 . S
C844 C843 1.523 . S
H845 C820 0.950 . S
H846 C822 0.950 . S
H847 C823 0.949 . S
H848 C825 0.950 . S
H849 C827 0.950 . S
C850 C851 1.349 . S
C850 C852 1.327 . S
C850 H875 0.950 . S
C851 C850 1.349 . S
C851 C867 1.349 . S
C852 C850 1.327 . S
C852 C871 1.429 . S
C852 H876 0.950 . S
C853 C870 1.574 . S
C853 C872 1.368 . S
C853 H877 0.949 . S
H854 C858 0.949 . S
C855 C856 1.349 . S
C855 C857 1.327 . S
C855 H878 0.950 . S
C856 C855 1.349 . S
C856 C868 1.349 . S
C857 C855 1.327 . S
C857 C873 1.429 . S
C857 H879 0.950 . S
C858 H854 0.949 . S
C858 C866 1.574 . S
C858 C874 1.368 . S
H859 C867 0.950 . S
H860 C865 0.950 . S
H861 C866 0.949 . S
H862 C868 0.950 . S
H863 C869 0.950 . S
H864 C870 0.949 . S
C865 H860 0.950 . S
C865 C867 1.327 . S
C865 C871 1.429 . S
C866 C858 1.574 . S
C866 H861 0.949 . S
C866 C872 1.368 . S
C867 C851 1.349 . S
C867 H859 0.950 . S
C867 C865 1.327 . S
C868 C856 1.349 . S
C868 H862 0.950 . S
C868 C869 1.327 . S
C869 H863 0.950 . S
C869 C868 1.327 . S
C869 C873 1.429 . S
C870 C853 1.574 . S
C870 H864 0.949 . S
C870 C874 1.368 . S
C871 C852 1.429 . S
C871 C865 1.429 . S
C871 C872 1.523 . S
C872 C853 1.368 . S
C872 C866 1.368 . S
C872 C871 1.523 . S
C873 C857 1.429 . S
C873 C869 1.429 . S
C873 C874 1.523 . S
C874 C858 1.368 . S
C874 C870 1.368 . S
C874 C873 1.523 . S
H875 C850 0.950 . S
H876 C852 0.950 . S
H877 C853 0.949 . S
H878 C855 0.950 . S
H879 C857 0.950 . S
C880 C881 1.349 . S
C880 C882 1.327 . S
C880 H905 0.950 . S
C881 C880 1.349 . S
C881 C897 1.349 . S
C882 C880 1.327 . S
C882 C901 1.429 . S
C882 H906 0.950 . S
C883 C900 1.574 . S
C883 C902 1.368 . S
C883 H907 0.949 . S
H884 C888 0.949 . S
C885 C886 1.349 . S
C885 C887 1.327 . S
C885 H908 0.950 . S
C886 C885 1.349 . S
C886 C898 1.349 . S
C887 C885 1.327 . S
C887 C903 1.429 . S
C887 H909 0.950 . S
C888 H884 0.949 . S
C888 C896 1.574 . S
C888 C904 1.368 . S
H889 C897 0.950 . S
H890 C895 0.950 . S
H891 C896 0.949 . S
H892 C898 0.950 . S
H893 C899 0.950 . S
H894 C900 0.949 . S
C895 H890 0.950 . S
C895 C897 1.327 . S
C895 C901 1.429 . S
C896 C888 1.574 . S
C896 H891 0.949 . S
C896 C902 1.368 . S
C897 C881 1.349 . S
C897 H889 0.950 . S
C897 C895 1.327 . S
C898 C886 1.349 . S
C898 H892 0.950 . S
C898 C899 1.327 . S
C899 H893 0.950 . S
C899 C898 1.327 . S
C899 C903 1.429 . S
C900 C883 1.574 . S
C900 H894 0.949 . S
C900 C904 1.368 . S
C901 C882 1.429 . S
C901 C895 1.429 . S
C901 C902 1.523 . S
C902 C883 1.368 . S
C902 C896 1.368 . S
C902 C901 1.523 . S
C903 C887 1.429 . S
C903 C899 1.429 . S
C903 C904 1.523 . S
C904 C888 1.368 . S
C904 C900 1.368 . S
C904 C903 1.523 . S
H905 C880 0.950 . S
H906 C882 0.950 . S
H907 C883 0.949 . S
H908 C885 0.950 . S
H909 C887 0.950 . S
C910 C911 1.349 . S
C910 C912 1.327 . S
C910 H935 0.950 . S
C911 C910 1.349 . S
C911 C927 1.349 . S
C912 C910 1.327 . S
C912 C931 1.429 . S
C912 H936 0.950 . S
C913 C930 1.574 . S
C913 C932 1.368 . S
C913 H937 0.949 . S
H914 C918 0.949 . S
C915 C916 1.349 . S
C915 C917 1.327 . S
C915 H938 0.950 . S
C916 C915 1.349 . S
C916 C928 1.349 . S
C917 C915 1.327 . S
C917 C933 1.429 . S
C917 H939 0.950 . S
C918 H914 0.949 . S
C918 C926 1.574 . S
C918 C934 1.368 . S
H919 C927 0.950 . S
H920 C925 0.950 . S
H921 C926 0.949 . S
H922 C928 0.950 . S
H923 C929 0.950 . S
H924 C930 0.949 . S
C925 H920 0.950 . S
C925 C927 1.327 . S
C925 C931 1.429 . S
C926 C918 1.574 . S
C926 H921 0.949 . S
C926 C932 1.368 . S
C927 C911 1.349 . S
C927 H919 0.950 . S
C927 C925 1.327 . S
C928 C916 1.349 . S
C928 H922 0.950 . S
C928 C929 1.327 . S
C929 H923 0.950 . S
C929 C928 1.327 . S
C929 C933 1.429 . S
C930 C913 1.574 . S
C930 H924 0.949 . S
C930 C934 1.368 . S
C931 C912 1.429 . S
C931 C925 1.429 . S
C931 C932 1.523 . S
C932 C913 1.368 . S
C932 C926 1.368 . S
C932 C931 1.523 . S
C933 C917 1.429 . S
C933 C929 1.429 . S
C933 C934 1.523 . S
C934 C918 1.368 . S
C934 C930 1.368 . S
C934 C933 1.523 . S
H935 C910 0.950 . S
H936 C912 0.950 . S
H937 C913 0.949 . S
H938 C915 0.950 . S
H939 C917 0.950 . S
C940 C941 1.349 . S
C940 C942 1.327 . S
C940 H965 0.950 1_655 S
C941 C940 1.349 . S
C941 C957 1.349 . S
C942 C940 1.327 . S
C942 C961 1.429 . S
C942 H966 0.950 1_554 S
C943 C960 1.574 . S
C943 C962 1.368 . S
C943 H967 0.949 1_556 S
H944 C948 0.949 . S
C945 C946 1.349 . S
C945 C947 1.327 . S
C945 H968 0.950 . S
C946 C945 1.349 . S
C946 C958 1.349 . S
C947 C945 1.327 . S
C947 C963 1.429 . S
C947 H969 0.950 . S
C948 H944 0.949 . S
C948 C956 1.574 . S
C948 C964 1.368 . S
H949 C957 0.950 . S
H950 C955 0.950 . S
H951 C956 0.949 . S
H952 C958 0.950 . S
H953 C959 0.950 . S
H954 C960 0.949 . S
C955 H950 0.950 . S
C955 C957 1.327 . S
C955 C961 1.429 . S
C956 C948 1.574 . S
C956 H951 0.949 . S
C956 C962 1.368 . S
C957 C941 1.349 . S
C957 H949 0.950 . S
C957 C955 1.327 . S
C958 C946 1.349 . S
C958 H952 0.950 . S
C958 C959 1.327 . S
C959 H953 0.950 . S
C959 C958 1.327 . S
C959 C963 1.429 . S
C960 C943 1.574 . S
C960 H954 0.949 . S
C960 C964 1.368 . S
C961 C942 1.429 . S
C961 C955 1.429 . S
C961 C962 1.523 1_554 S
C962 C943 1.368 . S
C962 C956 1.368 . S
C962 C961 1.523 1_556 S
C963 C947 1.429 . S
C963 C959 1.429 . S
C963 C964 1.523 . S
C964 C948 1.368 . S
C964 C960 1.368 . S
C964 C963 1.523 . S
H965 C940 0.950 1_455 S
H966 C942 0.950 1_556 S
H967 C943 0.949 1_554 S
H968 C945 0.950 . S
H969 C947 0.950 . S
C970 C971 1.349 . S
C970 C972 1.327 . S
C970 H995 0.950 . S
C971 C970 1.349 . S
C971 C987 1.349 . S
C972 C970 1.327 . S
C972 C991 1.429 . S
C972 H996 0.950 . S
C973 C990 1.574 . S
C973 C992 1.368 . S
C973 H997 0.949 . S
H974 C978 0.949 . S
C975 C976 1.349 . S
C975 C977 1.327 . S
C975 H998 0.950 . S
C976 C975 1.349 . S
C976 C988 1.349 . S
C977 C975 1.327 . S
C977 C993 1.429 . S
C977 H999 0.950 . S
C978 H974 0.949 . S
C978 C986 1.574 . S
C978 C994 1.368 . S
H979 C987 0.950 . S
H980 C985 0.950 . S
H981 C986 0.949 . S
H982 C988 0.950 . S
H983 C989 0.950 . S
H984 C990 0.949 . S
C985 H980 0.950 . S
C985 C987 1.327 . S
C985 C991 1.429 . S
C986 C978 1.574 . S
C986 H981 0.949 . S
C986 C992 1.368 . S
C987 C971 1.349 . S
C987 H979 0.950 . S
C987 C985 1.327 . S
C988 C976 1.349 . S
C988 H982 0.950 . S
C988 C989 1.327 . S
C989 H983 0.950 . S
C989 C988 1.327 . S
C989 C993 1.429 . S
C990 C973 1.574 . S
C990 H984 0.949 . S
C990 C994 1.368 . S
C991 C972 1.429 . S
C991 C985 1.429 . S
C991 C992 1.523 . S
C992 C973 1.368 . S
C992 C986 1.368 . S
C992 C991 1.523 . S
C993 C977 1.429 . S
C993 C989 1.429 . S
C993 C994 1.523 . S
C994 C978 1.368 . S
C994 C990 1.368 . S
C994 C993 1.523 . S
H995 C970 0.950 . S
H996 C972 0.950 . S
H997 C973 0.949 . S
H998 C975 0.950 . S
H999 C977 0.950 . S
C1000 C1001 1.349 . S
C1000 C1002 1.327 . S
C1000 H1025 0.950 . S
C1001 C1000 1.349 . S
C1001 C1017 1.349 . S
C1002 C1000 1.327 . S
C1002 C1021 1.429 . S
C1002 H1026 0.950 . S
C1003 C1020 1.574 . S
C1003 C1022 1.368 . S
C1003 H1027 0.949 . S
H1004 C1008 0.949 . S
C1005 C1006 1.349 . S
C1005 C1007 1.327 . S
C1005 H1028 0.950 . S
C1006 C1005 1.349 . S
C1006 C1018 1.349 . S
C1007 C1005 1.327 . S
C1007 C1023 1.429 . S
C1007 H1029 0.950 . S
C1008 H1004 0.949 . S
C1008 C1016 1.574 . S
C1008 C1024 1.368 . S
H1009 C1017 0.950 . S
H1010 C1015 0.950 . S
H1011 C1016 0.949 . S
H1012 C1018 0.950 . S
H1013 C1019 0.950 . S
H1014 C1020 0.949 . S
C1015 H1010 0.950 . S
C1015 C1017 1.327 . S
C1015 C1021 1.429 . S
C1016 C1008 1.574 . S
C1016 H1011 0.949 . S
C1016 C1022 1.368 . S
C1017 C1001 1.349 . S
C1017 H1009 0.950 . S
C1017 C1015 1.327 . S
C1018 C1006 1.349 . S
C1018 H1012 0.950 . S
C1018 C1019 1.327 . S
C1019 H1013 0.950 . S
C1019 C1018 1.327 . S
C1019 C1023 1.429 . S
C1020 C1003 1.574 . S
C1020 H1014 0.949 . S
C1020 C1024 1.368 . S
C1021 C1002 1.429 . S
C1021 C1015 1.429 . S
C1021 C1022 1.523 . S
C1022 C1003 1.368 . S
C1022 C1016 1.368 . S
C1022 C1021 1.523 . S
C1023 C1007 1.429 . S
C1023 C1019 1.429 . S
C1023 C1024 1.523 . S
C1024 C1008 1.368 . S
C1024 C1020 1.368 . S
C1024 C1023 1.523 . S
H1025 C1000 0.950 . S
H1026 C1002 0.950 . S
H1027 C1003 0.949 . S
H1028 C1005 0.950 . S
H1029 C1007 0.950 . S
C1030 C1031 1.349 . S
C1030 C1032 1.327 . S
C1030 H1055 0.950 . S
C1031 C1030 1.349 . S
C1031 C1047 1.349 . S
C1032 C1030 1.327 . S
C1032 C1051 1.429 . S
C1032 H1056 0.950 . S
C1033 C1050 1.574 . S
C1033 C1052 1.368 . S
C1033 H1057 0.949 . S
H1034 C1038 0.949 . S
C1035 C1036 1.349 . S
C1035 C1037 1.327 . S
C1035 H1058 0.950 . S
C1036 C1035 1.349 . S
C1036 C1048 1.349 . S
C1037 C1035 1.327 . S
C1037 C1053 1.429 . S
C1037 H1059 0.950 . S
C1038 H1034 0.949 . S
C1038 C1046 1.574 . S
C1038 C1054 1.368 . S
H1039 C1047 0.950 . S
H1040 C1045 0.950 . S
H1041 C1046 0.949 . S
H1042 C1048 0.950 . S
H1043 C1049 0.950 . S
H1044 C1050 0.949 . S
C1045 H1040 0.950 . S
C1045 C1047 1.327 . S
C1045 C1051 1.429 . S
C1046 C1038 1.574 . S
C1046 H1041 0.949 . S
C1046 C1052 1.368 . S
C1047 C1031 1.349 . S
C1047 H1039 0.950 . S
C1047 C1045 1.327 . S
C1048 C1036 1.349 . S
C1048 H1042 0.950 . S
C1048 C1049 1.327 . S
C1049 H1043 0.950 . S
C1049 C1048 1.327 . S
C1049 C1053 1.429 . S
C1050 C1033 1.574 . S
C1050 H1044 0.949 . S
C1050 C1054 1.368 . S
C1051 C1032 1.429 . S
C1051 C1045 1.429 . S
C1051 C1052 1.523 . S
C1052 C1033 1.368 . S
C1052 C1046 1.368 . S
C1052 C1051 1.523 . S
C1053 C1037 1.429 . S
C1053 C1049 1.429 . S
C1053 C1054 1.523 . S
C1054 C1038 1.368 . S
C1054 C1050 1.368 . S
C1054 C1053 1.523 . S
H1055 C1030 0.950 . S
H1056 C1032 0.950 . S
H1057 C1033 0.949 . S
H1058 C1035 0.950 . S
H1059 C1037 0.950 . S
C1060 C1061 1.349 . S
C1060 C1062 1.327 . S
C1060 H1085 0.950 . S
C1061 C1060 1.349 . S
C1061 C1077 1.349 . S
C1062 C1060 1.327 . S
C1062 C1081 1.429 . S
C1062 H1086 0.950 . S
C1063 C1080 1.574 . S
C1063 C1082 1.368 . S
C1063 H1087 0.949 . S
H1064 C1068 0.949 . S
C1065 C1066 1.349 . S
C1065 C1067 1.327 . S
C1065 H1088 0.950 . S
C1066 C1065 1.349 . S
C1066 C1078 1.349 . S
C1067 C1065 1.327 . S
C1067 C1083 1.429 1_556 S
C1067 H1089 0.950 . S
C1068 H1064 0.949 . S
C1068 C1076 1.574 . S
C1068 C1084 1.368 . S
H1069 C1077 0.950 . S
H1070 C1075 0.950 . S
H1071 C1076 0.949 . S
H1072 C1078 0.950 . S
H1073 C1079 0.950 . S
H1074 C1080 0.949 . S
C1075 H1070 0.950 . S
C1075 C1077 1.327 . S
C1075 C1081 1.429 . S
C1076 C1068 1.574 . S
C1076 H1071 0.949 . S
C1076 C1082 1.368 . S
C1077 C1061 1.349 . S
C1077 H1069 0.950 . S
C1077 C1075 1.327 . S
C1078 C1066 1.349 . S
C1078 H1072 0.950 . S
C1078 C1079 1.327 1_556 S
C1079 H1073 0.950 . S
C1079 C1078 1.327 1_554 S
C1079 C1083 1.429 . S
C1080 C1063 1.574 . S
C1080 H1074 0.949 . S
C1080 C1084 1.368 . S
C1081 C1062 1.429 . S
C1081 C1075 1.429 . S
C1081 C1082 1.523 . S
C1082 C1063 1.368 . S
C1082 C1076 1.368 . S
C1082 C1081 1.523 . S
C1083 C1067 1.429 1_554 S
C1083 C1079 1.429 . S
C1083 C1084 1.523 . S
C1084 C1068 1.368 . S
C1084 C1080 1.368 . S
C1084 C1083 1.523 . S
H1085 C1060 0.950 . S
H1086 C1062 0.950 . S
H1087 C1063 0.949 . S
H1088 C1065 0.950 . S
H1089 C1067 0.950 . S
C1090 C1091 1.349 . S
C1090 C1092 1.327 . S
C1090 H1115 0.950 . S
C1091 C1090 1.349 . S
C1091 C1107 1.349 . S
C1092 C1090 1.327 . S
C1092 C1111 1.429 . S
C1092 H1116 0.950 . S
C1093 C1110 1.574 . S
C1093 C1112 1.368 . S
C1093 H1117 0.949 . S
H1094 C1098 0.949 . S
C1095 C1096 1.349 . S
C1095 C1097 1.327 . S
C1095 H1118 0.950 . S
C1096 C1095 1.349 . S
C1096 C1108 1.349 . S
C1097 C1095 1.327 . S
C1097 C1113 1.429 . S
C1097 H1119 0.950 . S
C1098 H1094 0.949 . S
C1098 C1106 1.574 . S
C1098 C1114 1.368 . S
H1099 C1107 0.950 . S
H1100 C1105 0.950 . S
H1101 C1106 0.949 . S
H1102 C1108 0.950 . S
H1103 C1109 0.950 . S
H1104 C1110 0.949 . S
C1105 H1100 0.950 . S
C1105 C1107 1.327 . S
C1105 C1111 1.429 . S
C1106 C1098 1.574 . S
C1106 H1101 0.949 . S
C1106 C1112 1.368 . S
C1107 C1091 1.349 . S
C1107 H1099 0.950 . S
C1107 C1105 1.327 . S
C1108 C1096 1.349 . S
C1108 H1102 0.950 . S
C1108 C1109 1.327 . S
C1109 H1103 0.950 . S
C1109 C1108 1.327 . S
C1109 C1113 1.429 . S
C1110 C1093 1.574 . S
C1110 H1104 0.949 . S
C1110 C1114 1.368 . S
C1111 C1092 1.429 . S
C1111 C1105 1.429 . S
C1111 C1112 1.523 . S
C1112 C1093 1.368 . S
C1112 C1106 1.368 . S
C1112 C1111 1.523 . S
C1113 C1097 1.429 . S
C1113 C1109 1.429 . S
C1113 C1114 1.523 . S
C1114 C1098 1.368 . S
C1114 C1110 1.368 . S
C1114 C1113 1.523 . S
H1115 C1090 0.950 . S
H1116 C1092 0.950 . S
H1117 C1093 0.949 . S
H1118 C1095 0.950 . S
H1119 C1097 0.950 . S
C1120 C1121 1.349 1_655 S
C1120 C1122 1.327 . S
C1120 H1145 0.950 . S
C1121 C1120 1.349 1_455 S
C1121 C1137 1.349 . S
C1122 C1120 1.327 . S
C1122 C1141 1.429 1_655 S
C1122 H1146 0.950 . S
C1123 C1140 1.574 . S
C1123 C1142 1.368 . S
C1123 H1147 0.949 . S
H1124 C1128 0.949 . S
C1125 C1126 1.349 . S
C1125 C1127 1.327 . S
C1125 H1148 0.950 . S
C1126 C1125 1.349 . S
C1126 C1138 1.349 1_455 S
C1127 C1125 1.327 . S
C1127 C1143 1.429 . S
C1127 H1149 0.950 . S
C1128 H1124 0.949 . S
C1128 C1136 1.574 . S
C1128 C1144 1.368 1_655 S
H1129 C1137 0.950 . S
H1130 C1135 0.950 . S
H1131 C1136 0.949 . S
H1132 C1138 0.950 . S
H1133 C1139 0.950 . S
H1134 C1140 0.949 . S
C1135 H1130 0.950 . S
C1135 C1137 1.327 . S
C1135 C1141 1.429 . S
C1136 C1128 1.574 . S
C1136 H1131 0.949 . S
C1136 C1142 1.368 1_655 S
C1137 C1121 1.349 . S
C1137 H1129 0.950 . S
C1137 C1135 1.327 . S
C1138 C1126 1.349 1_655 S
C1138 H1132 0.950 . S
C1138 C1139 1.327 . S
C1139 H1133 0.950 . S
C1139 C1138 1.327 . S
C1139 C1143 1.429 1_655 S
C1140 C1123 1.574 . S
C1140 H1134 0.949 . S
C1140 C1144 1.368 . S
C1141 C1122 1.429 1_455 S
C1141 C1135 1.429 . S
C1141 C1142 1.523 . S
C1142 C1123 1.368 . S
C1142 C1136 1.368 1_455 S
C1142 C1141 1.523 . S
C1143 C1127 1.429 . S
C1143 C1139 1.429 1_455 S
C1143 C1144 1.523 . S
C1144 C1128 1.368 1_455 S
C1144 C1140 1.368 . S
C1144 C1143 1.523 . S
H1145 C1120 0.950 . S
H1146 C1122 0.950 . S
H1147 C1123 0.949 . S
H1148 C1125 0.950 . S
H1149 C1127 0.950 . S
C1150 C1151 1.349 . S
C1150 C1152 1.327 . S
C1150 H1175 0.950 . S
C1151 C1150 1.349 . S
C1151 C1167 1.349 . S
C1152 C1150 1.327 . S
C1152 C1171 1.429 . S
C1152 H1176 0.950 . S
C1153 C1170 1.576 1_655 S
C1153 C1172 1.367 . S
C1153 H1177 0.947 . S
H1154 C1158 0.949 . S
C1155 C1156 1.349 . S
C1155 C1157 1.327 . S
C1155 H1178 0.950 . S
C1156 C1155 1.349 . S
C1156 C1168 1.349 . S
C1157 C1155 1.327 . S
C1157 C1173 1.429 . S
C1157 H1179 0.950 . S
C1158 H1154 0.949 . S
C1158 C1166 1.574 . S
C1158 C1174 1.368 . S
H1159 C1167 0.950 . S
H1160 C1165 0.950 . S
H1161 C1166 0.949 1_655 S
H1162 C1168 0.950 . S
H1163 C1169 0.950 . S
H1164 C1170 0.949 . S
C1165 H1160 0.950 . S
C1165 C1167 1.327 . S
C1165 C1171 1.429 . S
C1166 C1158 1.574 . S
C1166 H1161 0.949 1_455 S
C1166 C1172 1.368 1_455 S
C1167 C1151 1.349 . S
C1167 H1159 0.950 . S
C1167 C1165 1.327 . S
C1168 C1156 1.349 . S
C1168 H1162 0.950 . S
C1168 C1169 1.327 . S
C1169 H1163 0.950 . S
C1169 C1168 1.327 . S
C1169 C1173 1.429 . S
C1170 C1153 1.576 1_455 S
C1170 H1164 0.949 . S
C1170 C1174 1.368 . S
C1171 C1152 1.429 . S
C1171 C1165 1.429 . S
C1171 C1172 1.523 . S
C1172 C1153 1.367 . S
C1172 C1166 1.368 1_655 S
C1172 C1171 1.523 . S
C1173 C1157 1.429 . S
C1173 C1169 1.429 . S
C1173 C1174 1.523 . S
C1174 C1158 1.368 . S
C1174 C1170 1.368 . S
C1174 C1173 1.523 . S
H1175 C1150 0.950 . S
H1176 C1152 0.950 . S
H1177 C1153 0.947 . S
H1178 C1155 0.950 . S
H1179 C1157 0.950 . S
C1180 C1181 1.349 . S
C1180 C1182 1.327 . S
C1180 H1205 0.950 . S
C1181 C1180 1.349 . S
C1181 C1197 1.349 . S
C1182 C1180 1.327 . S
C1182 C1201 1.429 . S
C1182 H1206 0.950 . S
C1183 C1200 1.574 . S
C1183 C1202 1.368 . S
C1183 H1207 0.949 . S
H1184 C1188 0.949 . S
C1185 C1186 1.349 . S
C1185 C1187 1.327 . S
C1185 H1208 0.950 . S
C1186 C1185 1.349 . S
C1186 C1198 1.349 . S
C1187 C1185 1.327 . S
C1187 C1203 1.429 . S
C1187 H1209 0.950 . S
C1188 H1184 0.949 . S
C1188 C1196 1.574 . S
C1188 C1204 1.368 . S
H1189 C1197 0.950 . S
H1190 C1195 0.950 . S
H1191 C1196 0.949 . S
H1192 C1198 0.950 . S
H1193 C1199 0.950 . S
H1194 C1200 0.949 . S
C1195 H1190 0.950 . S
C1195 C1197 1.327 . S
C1195 C1201 1.429 . S
C1196 C1188 1.574 . S
C1196 H1191 0.949 . S
C1196 C1202 1.368 . S
C1197 C1181 1.349 . S
C1197 H1189 0.950 . S
C1197 C1195 1.327 . S
C1198 C1186 1.349 . S
C1198 H1192 0.950 . S
C1198 C1199 1.327 . S
C1199 H1193 0.950 . S
C1199 C1198 1.327 . S
C1199 C1203 1.429 . S
C1200 C1183 1.574 . S
C1200 H1194 0.949 . S
C1200 C1204 1.368 . S
C1201 C1182 1.429 . S
C1201 C1195 1.429 . S
C1201 C1202 1.523 . S
C1202 C1183 1.368 . S
C1202 C1196 1.368 . S
C1202 C1201 1.523 . S
C1203 C1187 1.429 . S
C1203 C1199 1.429 . S
C1203 C1204 1.523 . S
C1204 C1188 1.368 . S
C1204 C1200 1.368 . S
C1204 C1203 1.523 . S
H1205 C1180 0.950 . S
H1206 C1182 0.950 . S
H1207 C1183 0.949 . S
H1208 C1185 0.950 . S
H1209 C1187 0.950 . S
C1210 C1211 1.349 . S
C1210 C1212 1.327 . S
C1210 H1235 0.950 . S
C1211 C1210 1.349 . S
C1211 C1227 1.349 . S
C1212 C1210 1.327 . S
C1212 C1231 1.429 . S
C1212 H1236 0.950 . S
C1213 C1230 1.574 . S
C1213 C1232 1.368 . S
C1213 H1237 0.949 . S
H1214 C1218 0.949 . S
C1215 C1216 1.349 . S
C1215 C1217 1.327 . S
C1215 H1238 0.950 . S
C1216 C1215 1.349 . S
C1216 C1228 1.349 . S
C1217 C1215 1.327 . S
C1217 C1233 1.429 . S
C1217 H1239 0.950 . S
C1218 H1214 0.949 . S
C1218 C1226 1.574 . S
C1218 C1234 1.368 . S
H1219 C1227 0.950 . S
H1220 C1225 0.950 . S
H1221 C1226 0.949 . S
H1222 C1228 0.950 . S
H1223 C1229 0.950 . S
H1224 C1230 0.949 . S
C1225 H1220 0.950 . S
C1225 C1227 1.327 . S
C1225 C1231 1.429 . S
C1226 C1218 1.574 . S
C1226 H1221 0.949 . S
C1226 C1232 1.368 . S
C1227 C1211 1.349 . S
C1227 H1219 0.950 . S
C1227 C1225 1.327 . S
C1228 C1216 1.349 . S
C1228 H1222 0.950 . S
C1228 C1229 1.327 . S
C1229 H1223 0.950 . S
C1229 C1228 1.327 . S
C1229 C1233 1.429 . S
C1230 C1213 1.574 . S
C1230 H1224 0.949 . S
C1230 C1234 1.368 . S
C1231 C1212 1.429 . S
C1231 C1225 1.429 . S
C1231 C1232 1.523 . S
C1232 C1213 1.368 . S
C1232 C1226 1.368 . S
C1232 C1231 1.523 . S
C1233 C1217 1.429 . S
C1233 C1229 1.429 . S
C1233 C1234 1.523 . S
C1234 C1218 1.368 . S
C1234 C1230 1.368 . S
C1234 C1233 1.523 . S
H1235 C1210 0.950 . S
H1236 C1212 0.950 . S
H1237 C1213 0.949 . S
H1238 C1215 0.950 . S
H1239 C1217 0.950 . S
C1240 C1241 1.352 . S
C1240 C1242 1.324 . S
C1240 H1265 0.946 1_455 S
C1241 C1240 1.352 . S
C1241 C1257 1.349 . S
C1242 C1240 1.324 . S
C1242 C1261 1.455 . S
C1242 H1266 0.928 1_455 S
C1243 C1260 1.574 . S
C1243 C1262 1.368 . S
C1243 H1267 0.949 . S
H1244 C1248 0.949 1_655 S
C1245 C1246 1.349 . S
C1245 C1247 1.327 . S
C1245 H1268 0.950 . S
C1246 C1245 1.349 . S
C1246 C1258 1.349 . S
C1247 C1245 1.327 . S
C1247 C1263 1.429 . S
C1247 H1269 0.950 . S
C1248 H1244 0.949 1_455 S
C1248 C1256 1.574 . S
C1248 C1264 1.368 . S
H1249 C1257 0.950 . S
H1250 C1255 0.950 . S
H1251 C1256 0.949 1_655 S
H1252 C1258 0.955 . S
H1253 C1259 0.950 1_655 S
H1254 C1260 0.949 . S
C1255 H1250 0.950 . S
C1255 C1257 1.327 . S
C1255 C1261 1.429 . S
C1256 C1248 1.574 . S
C1256 H1251 0.949 1_455 S
C1256 C1262 1.368 . S
C1257 C1241 1.349 . S
C1257 H1249 0.950 . S
C1257 C1255 1.327 . S
C1258 C1246 1.349 . S
C1258 H1252 0.955 . S
C1258 C1259 1.327 . S
C1259 H1253 0.950 1_455 S
C1259 C1258 1.327 . S
C1259 C1263 1.429 . S
C1260 C1243 1.574 . S
C1260 H1254 0.949 . S
C1260 C1264 1.368 . S
C1261 C1242 1.455 . S
C1261 C1255 1.429 . S
C1261 C1262 1.523 . S
C1262 C1243 1.368 . S
C1262 C1256 1.368 . S
C1262 C1261 1.523 . S
C1263 C1247 1.429 . S
C1263 C1259 1.429 . S
C1263 C1264 1.523 . S
C1264 C1248 1.368 . S
C1264 C1260 1.368 . S
C1264 C1263 1.523 . S
H1265 C1240 0.946 1_655 S
H1266 C1242 0.928 1_655 S
H1267 C1243 0.949 . S
H1268 C1245 0.950 . S
H1269 C1247 0.950 . S
C1270 C1271 1.349 . S
C1270 C1272 1.327 . S
C1270 H1295 0.950 . S
C1271 C1270 1.349 . S
C1271 C1287 1.349 . S
C1272 C1270 1.327 . S
C1272 C1291 1.429 . S
C1272 H1296 0.950 . S
C1273 C1290 1.574 . S
C1273 C1292 1.368 . S
C1273 H1297 0.949 . S
H1274 C1278 0.949 . S
C1275 C1276 1.349 . S
C1275 C1277 1.327 . S
C1275 H1298 0.950 . S
C1276 C1275 1.349 . S
C1276 C1288 1.349 . S
C1277 C1275 1.327 . S
C1277 C1293 1.429 . S
C1277 H1299 0.950 . S
C1278 H1274 0.949 . S
C1278 C1286 1.574 . S
C1278 C1294 1.368 . S
H1279 C1287 0.950 . S
H1280 C1285 0.950 . S
H1281 C1286 0.949 . S
H1282 C1288 0.950 . S
H1283 C1289 0.950 . S
H1284 C1290 0.949 . S
C1285 H1280 0.950 . S
C1285 C1287 1.327 . S
C1285 C1291 1.429 . S
C1286 C1278 1.574 . S
C1286 H1281 0.949 . S
C1286 C1292 1.368 . S
C1287 C1271 1.349 . S
C1287 H1279 0.950 . S
C1287 C1285 1.327 . S
C1288 C1276 1.349 . S
C1288 H1282 0.950 . S
C1288 C1289 1.327 . S
C1289 H1283 0.950 . S
C1289 C1288 1.327 . S
C1289 C1293 1.429 . S
C1290 C1273 1.574 . S
C1290 H1284 0.949 . S
C1290 C1294 1.368 . S
C1291 C1272 1.429 . S
C1291 C1285 1.429 . S
C1291 C1292 1.523 . S
C1292 C1273 1.368 . S
C1292 C1286 1.368 . S
C1292 C1291 1.523 . S
C1293 C1277 1.429 . S
C1293 C1289 1.429 . S
C1293 C1294 1.523 . S
C1294 C1278 1.368 . S
C1294 C1290 1.368 . S
C1294 C1293 1.523 . S
H1295 C1270 0.950 . S
H1296 C1272 0.950 . S
H1297 C1273 0.949 . S
H1298 C1275 0.950 . S
H1299 C1277 0.950 . S
C1300 C1301 1.349 . S
C1300 C1302 1.327 . S
C1300 H1325 0.950 . S
C1301 C1300 1.349 . S
C1301 C1317 1.349 . S
C1302 C1300 1.327 . S
C1302 C1321 1.429 . S
C1302 H1326 0.950 . S
C1303 C1320 1.574 . S
C1303 C1322 1.368 . S
C1303 H1327 0.949 . S
H1304 C1308 0.949 . S
C1305 C1306 1.349 . S
C1305 C1307 1.327 . S
C1305 H1328 0.950 . S
C1306 C1305 1.349 . S
C1306 C1318 1.349 . S
C1307 C1305 1.327 . S
C1307 C1323 1.429 . S
C1307 H1329 0.950 . S
C1308 H1304 0.949 . S
C1308 C1316 1.574 . S
C1308 C1324 1.368 . S
H1309 C1317 0.950 . S
H1310 C1315 0.950 . S
H1311 C1316 0.949 . S
H1312 C1318 0.950 . S
H1313 C1319 0.950 . S
H1314 C1320 0.949 . S
C1315 H1310 0.950 . S
C1315 C1317 1.327 . S
C1315 C1321 1.429 . S
C1316 C1308 1.574 . S
C1316 H1311 0.949 . S
C1316 C1322 1.368 . S
C1317 C1301 1.349 . S
C1317 H1309 0.950 . S
C1317 C1315 1.327 . S
C1318 C1306 1.349 . S
C1318 H1312 0.950 . S
C1318 C1319 1.327 . S
C1319 H1313 0.950 . S
C1319 C1318 1.327 . S
C1319 C1323 1.429 . S
C1320 C1303 1.574 . S
C1320 H1314 0.949 . S
C1320 C1324 1.368 . S
C1321 C1302 1.429 . S
C1321 C1315 1.429 . S
C1321 C1322 1.523 . S
C1322 C1303 1.368 . S
C1322 C1316 1.368 . S
C1322 C1321 1.523 . S
C1323 C1307 1.429 . S
C1323 C1319 1.429 . S
C1323 C1324 1.523 . S
C1324 C1308 1.368 . S
C1324 C1320 1.368 . S
C1324 C1323 1.523 . S
H1325 C1300 0.950 . S
H1326 C1302 0.950 . S
H1327 C1303 0.949 . S
H1328 C1305 0.950 . S
H1329 C1307 0.950 . S
C1330 C1331 1.349 . S
C1330 C1332 1.327 . S
C1330 H1355 0.950 . S
C1331 C1330 1.349 . S
C1331 C1347 1.349 . S
C1332 C1330 1.327 . S
C1332 C1351 1.429 . S
C1332 H1356 0.950 . S
C1333 C1350 1.574 1_455 S
C1333 C1352 1.368 . S
C1333 H1357 0.949 . S
H1334 C1338 0.937 1_655 S
C1335 C1336 1.349 . S
C1335 C1337 1.327 . S
C1335 H1358 0.950 . S
C1336 C1335 1.349 . S
C1336 C1348 1.349 . S
C1337 C1335 1.327 . S
C1337 C1353 1.429 . S
C1337 H1359 0.950 . S
C1338 H1334 0.937 1_455 S
C1338 C1346 1.574 . S
C1338 C1354 1.368 1_455 S
H1339 C1347 0.950 . S
H1340 C1345 0.950 . S
H1341 C1346 0.949 . S
H1342 C1348 0.950 . S
H1343 C1349 0.950 . S
H1344 C1350 0.949 . S
C1345 H1340 0.950 . S
C1345 C1347 1.327 . S
C1345 C1351 1.429 . S
C1346 C1338 1.574 . S
C1346 H1341 0.949 . S
C1346 C1352 1.368 . S
C1347 C1331 1.349 . S
C1347 H1339 0.950 . S
C1347 C1345 1.327 . S
C1348 C1336 1.349 . S
C1348 H1342 0.950 . S
C1348 C1349 1.327 . S
C1349 H1343 0.950 . S
C1349 C1348 1.327 . S
C1349 C1353 1.429 . S
C1350 C1333 1.574 1_655 S
C1350 H1344 0.949 . S
C1350 C1354 1.368 . S
C1351 C1332 1.429 . S
C1351 C1345 1.429 . S
C1351 C1352 1.523 . S
C1352 C1333 1.368 . S
C1352 C1346 1.368 . S
C1352 C1351 1.523 . S
C1353 C1337 1.429 . S
C1353 C1349 1.429 . S
C1353 C1354 1.523 . S
C1354 C1338 1.368 1_655 S
C1354 C1350 1.368 . S
C1354 C1353 1.523 . S
H1355 C1330 0.950 . S
H1356 C1332 0.950 . S
H1357 C1333 0.949 . S
H1358 C1335 0.950 . S
H1359 C1337 0.950 . S
C1360 C1361 1.349 . S
C1360 C1362 1.327 . S
C1360 H1385 0.950 . S
C1361 C1360 1.349 . S
C1361 C1377 1.349 1_455 S
C1362 C1360 1.327 . S
C1362 C1381 1.429 . S
C1362 H1386 0.950 . S
C1363 C1380 1.574 1_554 S
C1363 C1382 1.368 1_665 S
C1363 H1387 0.949 . S
H1364 C1368 0.949 . S
C1365 C1366 1.349 1_655 S
C1365 C1367 1.327 . S
C1365 H1388 0.950 . S
C1366 C1365 1.349 1_455 S
C1366 C1378 1.349 . S
C1367 C1365 1.327 . S
C1367 C1383 1.429 1_655 S
C1367 H1389 0.950 . S
C1368 H1364 0.949 . S
C1368 C1376 1.574 1_566 S
C1368 C1384 1.368 . S
H1369 C1377 0.950 . S
H1370 C1375 0.950 . S
H1371 C1376 0.949 . S
H1372 C1378 0.950 . S
H1373 C1379 0.950 . S
H1374 C1380 0.949 . S
C1375 H1370 0.950 . S
C1375 C1377 1.327 . S
C1375 C1381 1.429 1_655 S
C1376 C1368 1.574 1_544 S
C1376 H1371 0.949 . S
C1376 C1382 1.368 . S
C1377 C1361 1.349 1_655 S
C1377 H1369 0.950 . S
C1377 C1375 1.327 . S
C1378 C1366 1.349 . S
C1378 H1372 0.950 . S
C1378 C1379 1.327 . S
C1379 H1373 0.950 . S
C1379 C1378 1.327 . S
C1379 C1383 1.429 . S
C1380 C1363 1.574 1_556 S
C1380 H1374 0.949 . S
C1380 C1384 1.368 1_655 S
C1381 C1362 1.429 . S
C1381 C1375 1.429 1_455 S
C1381 C1382 1.523 . S
C1382 C1363 1.368 1_445 S
C1382 C1376 1.368 . S
C1382 C1381 1.523 . S
C1383 C1367 1.429 1_455 S
C1383 C1379 1.429 . S
C1383 C1384 1.523 . S
C1384 C1368 1.368 . S
C1384 C1380 1.368 1_455 S
C1384 C1383 1.523 . S
H1385 C1360 0.950 . S
H1386 C1362 0.950 . S
H1387 C1363 0.949 . S
H1388 C1365 0.950 . S
H1389 C1367 0.950 . S
C1390 C1391 1.349 . S
C1390 C1392 1.327 . S
C1390 H1415 0.950 . S
C1391 C1390 1.349 . S
C1391 C1407 1.349 . S
C1392 C1390 1.327 . S
C1392 C1411 1.429 . S
C1392 H1416 0.950 . S
C1393 C1410 1.574 . S
C1393 C1412 1.368 . S
C1393 H1417 0.949 . S
H1394 C1398 0.949 . S
C1395 C1396 1.349 . S
C1395 C1397 1.327 . S
C1395 H1418 0.950 . S
C1396 C1395 1.349 . S
C1396 C1408 1.349 . S
C1397 C1395 1.327 . S
C1397 C1413 1.429 . S
C1397 H1419 0.950 . S
C1398 H1394 0.949 . S
C1398 C1406 1.574 . S
C1398 C1414 1.368 . S
H1399 C1407 0.950 . S
H1400 C1405 0.950 . S
H1401 C1406 0.949 . S
H1402 C1408 0.950 . S
H1403 C1409 0.950 . S
H1404 C1410 0.949 . S
C1405 H1400 0.950 . S
C1405 C1407 1.327 . S
C1405 C1411 1.429 . S
C1406 C1398 1.574 . S
C1406 H1401 0.949 . S
C1406 C1412 1.368 . S
C1407 C1391 1.349 . S
C1407 H1399 0.950 . S
C1407 C1405 1.327 . S
C1408 C1396 1.349 . S
C1408 H1402 0.950 . S
C1408 C1409 1.327 . S
C1409 H1403 0.950 . S
C1409 C1408 1.327 . S
C1409 C1413 1.429 . S
C1410 C1393 1.574 . S
C1410 H1404 0.949 . S
C1410 C1414 1.368 . S
C1411 C1392 1.429 . S
C1411 C1405 1.429 . S
C1411 C1412 1.523 . S
C1412 C1393 1.368 . S
C1412 C1406 1.368 . S
C1412 C1411 1.523 . S
C1413 C1397 1.429 . S
C1413 C1409 1.429 . S
C1413 C1414 1.523 . S
C1414 C1398 1.368 . S
C1414 C1410 1.368 . S
C1414 C1413 1.523 . S
H1415 C1390 0.950 . S
H1416 C1392 0.950 . S
H1417 C1393 0.949 . S
H1418 C1395 0.950 . S
H1419 C1397 0.950 . S
C1420 C1421 1.349 . S
C1420 C1422 1.327 . S
C1420 H1445 0.950 . S
C1421 C1420 1.349 . S
C1421 C1437 1.349 . S
C1422 C1420 1.327 . S
C1422 C1441 1.429 . S
C1422 H1446 0.950 . S
C1423 C1440 1.574 1_545 S
C1423 C1442 1.368 . S
C1423 H1447 0.949 . S
H1424 C1428 0.949 . S
C1425 C1426 1.349 . S
C1425 C1427 1.327 . S
C1425 H1448 0.950 . S
C1426 C1425 1.349 . S
C1426 C1438 1.349 . S
C1427 C1425 1.327 . S
C1427 C1443 1.429 . S
C1427 H1449 0.950 . S
C1428 H1424 0.949 . S
C1428 C1436 1.574 1_565 S
C1428 C1444 1.368 . S
H1429 C1437 0.950 . S
H1430 C1435 0.950 . S
H1431 C1436 0.949 . S
H1432 C1438 0.950 . S
H1433 C1439 0.950 . S
H1434 C1440 0.949 . S
C1435 H1430 0.950 . S
C1435 C1437 1.327 . S
C1435 C1441 1.429 . S
C1436 C1428 1.574 1_545 S
C1436 H1431 0.949 . S
C1436 C1442 1.368 . S
C1437 C1421 1.349 . S
C1437 H1429 0.950 . S
C1437 C1435 1.327 . S
C1438 C1426 1.349 . S
C1438 H1432 0.950 . S
C1438 C1439 1.327 . S
C1439 H1433 0.950 . S
C1439 C1438 1.327 . S
C1439 C1443 1.429 . S
C1440 C1423 1.574 1_565 S
C1440 H1434 0.949 . S
C1440 C1444 1.368 . S
C1441 C1422 1.429 . S
C1441 C1435 1.429 . S
C1441 C1442 1.523 . S
C1442 C1423 1.368 . S
C1442 C1436 1.368 . S
C1442 C1441 1.523 . S
C1443 C1427 1.429 . S
C1443 C1439 1.429 . S
C1443 C1444 1.523 . S
C1444 C1428 1.368 . S
C1444 C1440 1.368 . S
C1444 C1443 1.523 . S
H1445 C1420 0.950 . S
H1446 C1422 0.950 . S
H1447 C1423 0.949 . S
H1448 C1425 0.950 . S
H1449 C1427 0.950 . S
C1450 C1451 1.349 . S
C1450 C1452 1.327 . S
C1450 H1475 0.950 . S
C1451 C1450 1.349 . S
C1451 C1467 1.349 . S
C1452 C1450 1.327 . S
C1452 C1471 1.429 . S
C1452 H1476 0.950 . S
C1453 C1470 1.574 . S
C1453 C1472 1.368 . S
C1453 H1477 0.949 . S
H1454 C1458 0.949 . S
C1455 C1456 1.349 . S
C1455 C1457 1.327 . S
C1455 H1478 0.950 . S
C1456 C1455 1.349 . S
C1456 C1468 1.349 . S
C1457 C1455 1.327 . S
C1457 C1473 1.429 . S
C1457 H1479 0.950 . S
C1458 H1454 0.949 . S
C1458 C1466 1.574 . S
C1458 C1474 1.368 . S
H1459 C1467 0.950 . S
H1460 C1465 0.950 . S
H1461 C1466 0.949 . S
H1462 C1468 0.950 . S
H1463 C1469 0.950 . S
H1464 C1470 0.949 . S
C1465 H1460 0.950 . S
C1465 C1467 1.327 . S
C1465 C1471 1.429 . S
C1466 C1458 1.574 . S
C1466 H1461 0.949 . S
C1466 C1472 1.368 . S
C1467 C1451 1.349 . S
C1467 H1459 0.950 . S
C1467 C1465 1.327 . S
C1468 C1456 1.349 . S
C1468 H1462 0.950 . S
C1468 C1469 1.327 . S
C1469 H1463 0.950 . S
C1469 C1468 1.327 . S
C1469 C1473 1.429 . S
C1470 C1453 1.574 . S
C1470 H1464 0.949 . S
C1470 C1474 1.368 . S
C1471 C1452 1.429 . S
C1471 C1465 1.429 . S
C1471 C1472 1.523 . S
C1472 C1453 1.368 . S
C1472 C1466 1.368 . S
C1472 C1471 1.523 . S
C1473 C1457 1.429 . S
C1473 C1469 1.429 . S
C1473 C1474 1.523 . S
C1474 C1458 1.368 . S
C1474 C1470 1.368 . S
C1474 C1473 1.523 . S
H1475 C1450 0.950 . S
H1476 C1452 0.950 . S
H1477 C1453 0.949 . S
H1478 C1455 0.950 . S
H1479 C1457 0.950 . S
C1480 C1481 1.349 . S
C1480 C1482 1.327 . S
C1480 H1505 0.950 . S
C1481 C1480 1.349 . S
C1481 C1497 1.349 . S
C1482 C1480 1.327 . S
C1482 C1501 1.429 . S
C1482 H1506 0.950 . S
C1483 C1500 1.574 . S
C1483 C1502 1.368 . S
C1483 H1507 0.949 . S
H1484 C1488 0.949 . S
C1485 C1486 1.349 . S
C1485 C1487 1.327 . S
C1485 H1508 0.950 . S
C1486 C1485 1.349 . S
C1486 C1498 1.349 . S
C1487 C1485 1.327 . S
C1487 C1503 1.429 . S
C1487 H1509 0.950 . S
C1488 H1484 0.949 . S
C1488 C1496 1.574 . S
C1488 C1504 1.368 . S
H1489 C1497 0.950 . S
H1490 C1495 0.950 . S
H1491 C1496 0.949 . S
H1492 C1498 0.950 . S
H1493 C1499 0.950 . S
H1494 C1500 0.949 . S
C1495 H1490 0.950 . S
C1495 C1497 1.327 . S
C1495 C1501 1.429 . S
C1496 C1488 1.574 . S
C1496 H1491 0.949 . S
C1496 C1502 1.368 . S
C1497 C1481 1.349 . S
C1497 H1489 0.950 . S
C1497 C1495 1.327 . S
C1498 C1486 1.349 . S
C1498 H1492 0.950 . S
C1498 C1499 1.327 . S
C1499 H1493 0.950 . S
C1499 C1498 1.327 . S
C1499 C1503 1.429 . S
C1500 C1483 1.574 . S
C1500 H1494 0.949 . S
C1500 C1504 1.368 . S
C1501 C1482 1.429 . S
C1501 C1495 1.429 . S
C1501 C1502 1.523 . S
C1502 C1483 1.368 . S
C1502 C1496 1.368 . S
C1502 C1501 1.523 . S
C1503 C1487 1.429 . S
C1503 C1499 1.429 . S
C1503 C1504 1.523 . S
C1504 C1488 1.368 . S
C1504 C1500 1.368 . S
C1504 C1503 1.523 . S
H1505 C1480 0.950 . S
H1506 C1482 0.950 . S
H1507 C1483 0.949 . S
H1508 C1485 0.950 . S
H1509 C1487 0.950 . S
C1510 C1511 1.349 . S
C1510 C1512 1.327 . S
C1510 H1535 0.950 . S
C1511 C1510 1.349 . S
C1511 C1527 1.349 . S
C1512 C1510 1.327 . S
C1512 C1531 1.429 . S
C1512 H1536 0.950 . S
C1513 C1530 1.574 . S
C1513 C1532 1.368 . S
C1513 H1537 0.949 . S
H1514 C1518 0.949 . S
C1515 C1516 1.349 . S
C1515 C1517 1.327 . S
C1515 H1538 0.950 . S
C1516 C1515 1.349 . S
C1516 C1528 1.349 . S
C1517 C1515 1.327 . S
C1517 C1533 1.429 . S
C1517 H1539 0.950 . S
C1518 H1514 0.949 . S
C1518 C1526 1.574 . S
C1518 C1534 1.368 . S
H1519 C1527 0.950 . S
H1520 C1525 0.950 . S
H1521 C1526 0.949 . S
H1522 C1528 0.950 . S
H1523 C1529 0.950 . S
H1524 C1530 0.949 . S
C1525 H1520 0.950 . S
C1525 C1527 1.327 . S
C1525 C1531 1.429 . S
C1526 C1518 1.574 . S
C1526 H1521 0.949 . S
C1526 C1532 1.368 . S
C1527 C1511 1.349 . S
C1527 H1519 0.950 . S
C1527 C1525 1.327 . S
C1528 C1516 1.349 . S
C1528 H1522 0.950 . S
C1528 C1529 1.327 . S
C1529 H1523 0.950 . S
C1529 C1528 1.327 . S
C1529 C1533 1.429 . S
C1530 C1513 1.574 . S
C1530 H1524 0.949 . S
C1530 C1534 1.368 . S
C1531 C1512 1.429 . S
C1531 C1525 1.429 . S
C1531 C1532 1.523 . S
C1532 C1513 1.368 . S
C1532 C1526 1.368 . S
C1532 C1531 1.523 . S
C1533 C1517 1.429 . S
C1533 C1529 1.429 . S
C1533 C1534 1.523 . S
C1534 C1518 1.368 . S
C1534 C1530 1.368 . S
C1534 C1533 1.523 . S
H1535 C1510 0.950 . S
H1536 C1512 0.950 . S
H1537 C1513 0.949 . S
H1538 C1515 0.950 . S
H1539 C1517 0.950 . S
C1540 C1541 1.349 . S
C1540 C1542 1.327 . S
C1540 H1565 0.950 . S
C1541 C1540 1.349 . S
C1541 C1557 1.349 . S
C1542 C1540 1.327 . S
C1542 C1561 1.429 . S
C1542 H1566 0.950 . S
C1543 C1560 1.574 . S
C1543 C1562 1.368 . S
C1543 H1567 0.949 . S
H1544 C1548 0.949 . S
C1545 C1546 1.349 . S
C1545 C1547 1.327 . S
C1545 H1568 0.950 . S
C1546 C1545 1.349 . S
C1546 C1558 1.349 . S
C1547 C1545 1.327 . S
C1547 C1563 1.429 . S
C1547 H1569 0.950 . S
C1548 H1544 0.949 . S
C1548 C1556 1.574 . S
C1548 C1564 1.368 . S
H1549 C1557 0.950 . S
H1550 C1555 0.950 . S
H1551 C1556 0.949 . S
H1552 C1558 0.950 . S
H1553 C1559 0.950 . S
H1554 C1560 0.949 . S
C1555 H1550 0.950 . S
C1555 C1557 1.327 . S
C1555 C1561 1.429 . S
C1556 C1548 1.574 . S
C1556 H1551 0.949 . S
C1556 C1562 1.368 . S
C1557 C1541 1.349 . S
C1557 H1549 0.950 . S
C1557 C1555 1.327 . S
C1558 C1546 1.349 . S
C1558 H1552 0.950 . S
C1558 C1559 1.327 . S
C1559 H1553 0.950 . S
C1559 C1558 1.327 . S
C1559 C1563 1.429 . S
C1560 C1543 1.574 . S
C1560 H1554 0.949 . S
C1560 C1564 1.368 . S
C1561 C1542 1.429 . S
C1561 C1555 1.429 . S
C1561 C1562 1.523 . S
C1562 C1543 1.368 . S
C1562 C1556 1.368 . S
C1562 C1561 1.523 . S
C1563 C1547 1.429 . S
C1563 C1559 1.429 . S
C1563 C1564 1.523 . S
C1564 C1548 1.368 . S
C1564 C1560 1.368 . S
C1564 C1563 1.523 . S
H1565 C1540 0.950 . S
H1566 C1542 0.950 . S
H1567 C1543 0.949 . S
H1568 C1545 0.950 . S
H1569 C1547 0.950 . S
C1570 C1571 1.349 . S
C1570 C1572 1.327 1_455 S
C1570 H1595 0.950 1_455 S
C1571 C1570 1.349 . S
C1571 C1587 1.349 . S
C1572 C1570 1.327 1_655 S
C1572 C1591 1.430 1_655 S
C1572 H1596 0.948 . S
C1573 C1590 1.574 1_556 S
C1573 C1592 1.368 . S
C1573 H1597 0.949 . S
H1574 C1578 0.949 . S
C1575 C1576 1.349 . S
C1575 C1577 1.327 . S
C1575 H1598 0.950 . S
C1576 C1575 1.349 . S
C1576 C1588 1.349 1_455 S
C1577 C1575 1.327 . S
C1577 C1593 1.429 . S
C1577 H1599 0.950 . S
C1578 H1574 0.949 . S
C1578 C1586 1.574 1_554 S
C1578 C1594 1.368 1_655 S
H1579 C1587 0.950 . S
H1580 C1585 0.950 . S
H1581 C1586 0.949 . S
H1582 C1588 0.950 . S
H1583 C1589 0.950 . S
H1584 C1590 0.949 . S
C1585 H1580 0.950 . S
C1585 C1587 1.327 . S
C1585 C1591 1.429 . S
C1586 C1578 1.574 1_556 S
C1586 H1581 0.949 . S
C1586 C1592 1.368 1_655 S
C1587 C1571 1.349 . S
C1587 H1579 0.950 . S
C1587 C1585 1.327 . S
C1588 C1576 1.349 1_655 S
C1588 H1582 0.950 . S
C1588 C1589 1.327 . S
C1589 H1583 0.950 . S
C1589 C1588 1.327 . S
C1589 C1593 1.429 1_655 S
C1590 C1573 1.574 1_554 S
C1590 H1584 0.949 . S
C1590 C1594 1.368 . S
C1591 C1572 1.430 1_455 S
C1591 C1585 1.429 . S
C1591 C1592 1.523 . S
C1592 C1573 1.368 . S
C1592 C1586 1.368 1_455 S
C1592 C1591 1.523 . S
C1593 C1577 1.429 . S
C1593 C1589 1.429 1_455 S
C1593 C1594 1.523 . S
C1594 C1578 1.368 1_455 S
C1594 C1590 1.368 . S
C1594 C1593 1.523 . S
H1595 C1570 0.950 1_655 S
H1596 C1572 0.948 . S
H1597 C1573 0.949 . S
H1598 C1575 0.950 . S
H1599 C1577 0.950 . S
C1600 C1601 1.349 . S
C1600 C1602 1.327 . S
C1600 H1625 0.950 . S
C1601 C1600 1.349 . S
C1601 C1617 1.349 . S
C1602 C1600 1.327 . S
C1602 C1621 1.429 . S
C1602 H1626 0.950 . S
C1603 C1620 1.574 . S
C1603 C1622 1.368 . S
C1603 H1627 0.949 . S
H1604 C1608 0.949 . S
C1605 C1606 1.349 . S
C1605 C1607 1.327 . S
C1605 H1628 0.950 . S
C1606 C1605 1.349 . S
C1606 C1618 1.349 . S
C1607 C1605 1.327 . S
C1607 C1623 1.429 . S
C1607 H1629 0.950 . S
C1608 H1604 0.949 . S
C1608 C1616 1.574 . S
C1608 C1624 1.368 . S
H1609 C1617 0.950 . S
H1610 C1615 0.950 . S
H1611 C1616 0.949 . S
H1612 C1618 0.950 . S
H1613 C1619 0.950 . S
H1614 C1620 0.949 . S
C1615 H1610 0.950 . S
C1615 C1617 1.327 . S
C1615 C1621 1.429 . S
C1616 C1608 1.574 . S
C1616 H1611 0.949 . S
C1616 C1622 1.368 . S
C1617 C1601 1.349 . S
C1617 H1609 0.950 . S
C1617 C1615 1.327 . S
C1618 C1606 1.349 . S
C1618 H1612 0.950 . S
C1618 C1619 1.327 . S
C1619 H1613 0.950 . S
C1619 C1618 1.327 . S
C1619 C1623 1.429 . S
C1620 C1603 1.574 . S
C1620 H1614 0.949 . S
C1620 C1624 1.368 . S
C1621 C1602 1.429 . S
C1621 C1615 1.429 . S
C1621 C1622 1.523 . S
C1622 C1603 1.368 . S
C1622 C1616 1.368 . S
C1622 C1621 1.523 . S
C1623 C1607 1.429 . S
C1623 C1619 1.429 . S
C1623 C1624 1.523 . S
C1624 C1608 1.368 . S
C1624 C1620 1.368 . S
C1624 C1623 1.523 . S
H1625 C1600 0.950 . S
H1626 C1602 0.950 . S
H1627 C1603 0.949 . S
H1628 C1605 0.950 . S
H1629 C1607 0.950 . S
C1630 C1631 1.349 . S
C1630 C1632 1.327 . S
C1630 H1655 0.950 . S
C1631 C1630 1.349 . S
C1631 C1647 1.349 . S
C1632 C1630 1.327 . S
C1632 C1651 1.429 . S
C1632 H1656 0.950 . S
C1633 C1650 1.574 . S
C1633 C1652 1.368 . S
C1633 H1657 0.949 . S
H1634 C1638 0.949 . S
C1635 C1636 1.349 . S
C1635 C1637 1.327 . S
C1635 H1658 0.950 . S
C1636 C1635 1.349 . S
C1636 C1648 1.349 . S
C1637 C1635 1.327 . S
C1637 C1653 1.429 . S
C1637 H1659 0.950 . S
C1638 H1634 0.949 . S
C1638 C1646 1.574 . S
C1638 C1654 1.368 . S
H1639 C1647 0.950 . S
H1640 C1645 0.950 . S
H1641 C1646 0.949 . S
H1642 C1648 0.950 . S
H1643 C1649 0.950 . S
H1644 C1650 0.949 . S
C1645 H1640 0.950 . S
C1645 C1647 1.327 . S
C1645 C1651 1.429 . S
C1646 C1638 1.574 . S
C1646 H1641 0.949 . S
C1646 C1652 1.368 . S
C1647 C1631 1.349 . S
C1647 H1639 0.950 . S
C1647 C1645 1.327 . S
C1648 C1636 1.349 . S
C1648 H1642 0.950 . S
C1648 C1649 1.327 . S
C1649 H1643 0.950 . S
C1649 C1648 1.327 . S
C1649 C1653 1.429 . S
C1650 C1633 1.574 . S
C1650 H1644 0.949 . S
C1650 C1654 1.368 . S
C1651 C1632 1.429 . S
C1651 C1645 1.429 . S
C1651 C1652 1.523 . S
C1652 C1633 1.368 . S
C1652 C1646 1.368 . S
C1652 C1651 1.523 . S
C1653 C1637 1.429 . S
C1653 C1649 1.429 . S
C1653 C1654 1.523 . S
C1654 C1638 1.368 . S
C1654 C1650 1.368 . S
C1654 C1653 1.523 . S
H1655 C1630 0.950 . S
H1656 C1632 0.950 . S
H1657 C1633 0.949 . S
H1658 C1635 0.950 . S
H1659 C1637 0.950 . S
C1660 C1661 1.349 . S
C1660 C1662 1.327 . S
C1660 H1685 0.950 . S
C1661 C1660 1.349 . S
C1661 C1677 1.349 . S
C1662 C1660 1.327 . S
C1662 C1681 1.429 . S
C1662 H1686 0.950 . S
C1663 C1680 1.574 . S
C1663 C1682 1.368 . S
C1663 H1687 0.949 . S
H1664 C1668 0.949 . S
C1665 C1666 1.349 . S
C1665 C1667 1.327 . S
C1665 H1688 0.950 . S
C1666 C1665 1.349 . S
C1666 C1678 1.349 . S
C1667 C1665 1.327 . S
C1667 C1683 1.429 . S
C1667 H1689 0.950 . S
C1668 H1664 0.949 . S
C1668 C1676 1.574 . S
C1668 C1684 1.368 . S
H1669 C1677 0.950 . S
H1670 C1675 0.950 1_556 S
H1671 C1676 0.949 1_554 S
H1672 C1678 0.950 . S
H1673 C1679 0.950 . S
H1674 C1680 0.949 . S
C1675 H1670 0.950 1_554 S
C1675 C1677 1.327 . S
C1675 C1681 1.429 . S
C1676 C1668 1.574 . S
C1676 H1671 0.949 1_556 S
C1676 C1682 1.368 . S
C1677 C1661 1.349 . S
C1677 H1669 0.950 . S
C1677 C1675 1.327 . S
C1678 C1666 1.349 . S
C1678 H1672 0.950 . S
C1678 C1679 1.327 . S
C1679 H1673 0.950 . S
C1679 C1678 1.327 . S
C1679 C1683 1.429 . S
C1680 C1663 1.574 . S
C1680 H1674 0.949 . S
C1680 C1684 1.368 . S
C1681 C1662 1.429 . S
C1681 C1675 1.429 . S
C1681 C1682 1.523 1_554 S
C1682 C1663 1.368 . S
C1682 C1676 1.368 . S
C1682 C1681 1.523 1_556 S
C1683 C1667 1.429 . S
C1683 C1679 1.429 . S
C1683 C1684 1.523 . S
C1684 C1668 1.368 . S
C1684 C1680 1.368 . S
C1684 C1683 1.523 . S
H1685 C1660 0.950 . S
H1686 C1662 0.950 . S
H1687 C1663 0.949 . S
H1688 C1665 0.950 . S
H1689 C1667 0.950 . S
C1690 C1691 1.349 . S
C1690 C1692 1.327 . S
C1690 H1715 0.950 . S
C1691 C1690 1.349 . S
C1691 C1707 1.349 . S
C1692 C1690 1.327 . S
C1692 C1711 1.429 . S
C1692 H1716 0.950 . S
C1693 C1710 1.574 . S
C1693 C1712 1.368 . S
C1693 H1717 0.949 . S
H1694 C1698 0.949 . S
C1695 C1696 1.349 . S
C1695 C1697 1.327 . S
C1695 H1718 0.950 . S
C1696 C1695 1.349 . S
C1696 C1708 1.349 . S
C1697 C1695 1.327 . S
C1697 C1713 1.429 . S
C1697 H1719 0.950 . S
C1698 H1694 0.949 . S
C1698 C1706 1.574 . S
C1698 C1714 1.368 . S
H1699 C1707 0.950 . S
H1700 C1705 0.950 . S
H1701 C1706 0.949 . S
H1702 C1708 0.950 . S
H1703 C1709 0.950 . S
H1704 C1710 0.949 . S
C1705 H1700 0.950 . S
C1705 C1707 1.327 . S
C1705 C1711 1.429 . S
C1706 C1698 1.574 . S
C1706 H1701 0.949 . S
C1706 C1712 1.368 . S
C1707 C1691 1.349 . S
C1707 H1699 0.950 . S
C1707 C1705 1.327 . S
C1708 C1696 1.349 . S
C1708 H1702 0.950 . S
C1708 C1709 1.327 . S
C1709 H1703 0.950 . S
C1709 C1708 1.327 . S
C1709 C1713 1.429 . S
C1710 C1693 1.574 . S
C1710 H1704 0.949 . S
C1710 C1714 1.368 . S
C1711 C1692 1.429 . S
C1711 C1705 1.429 . S
C1711 C1712 1.523 . S
C1712 C1693 1.368 . S
C1712 C1706 1.368 . S
C1712 C1711 1.523 . S
C1713 C1697 1.429 . S
C1713 C1709 1.429 . S
C1713 C1714 1.523 . S
C1714 C1698 1.368 . S
C1714 C1710 1.368 . S
C1714 C1713 1.523 . S
H1715 C1690 0.950 . S
H1716 C1692 0.950 . S
H1717 C1693 0.949 . S
H1718 C1695 0.950 . S
H1719 C1697 0.950 . S
C1720 C1721 1.349 . S
C1720 C1722 1.327 . S
C1720 H1745 0.950 . S
C1721 C1720 1.349 . S
C1721 C1737 1.349 . S
C1722 C1720 1.327 . S
C1722 C1741 1.429 . S
C1722 H1746 0.950 . S
C1723 C1740 1.574 . S
C1723 C1742 1.368 . S
C1723 H1747 0.949 . S
H1724 C1728 0.949 . S
C1725 C1726 1.349 . S
C1725 C1727 1.327 . S
C1725 H1748 0.950 . S
C1726 C1725 1.349 . S
C1726 C1738 1.349 . S
C1727 C1725 1.327 . S
C1727 C1743 1.429 . S
C1727 H1749 0.950 . S
C1728 H1724 0.949 . S
C1728 C1736 1.574 . S
C1728 C1744 1.368 . S
H1729 C1737 0.950 . S
H1730 C1735 0.950 . S
H1731 C1736 0.949 . S
H1732 C1738 0.950 . S
H1733 C1739 0.950 . S
H1734 C1740 0.949 . S
C1735 H1730 0.950 . S
C1735 C1737 1.327 . S
C1735 C1741 1.429 . S
C1736 C1728 1.574 . S
C1736 H1731 0.949 . S
C1736 C1742 1.368 . S
C1737 C1721 1.349 . S
C1737 H1729 0.950 . S
C1737 C1735 1.327 . S
C1738 C1726 1.349 . S
C1738 H1732 0.950 . S
C1738 C1739 1.327 . S
C1739 H1733 0.950 . S
C1739 C1738 1.327 . S
C1739 C1743 1.429 . S
C1740 C1723 1.574 . S
C1740 H1734 0.949 . S
C1740 C1744 1.368 . S
C1741 C1722 1.429 . S
C1741 C1735 1.429 . S
C1741 C1742 1.523 . S
C1742 C1723 1.368 . S
C1742 C1736 1.368 . S
C1742 C1741 1.523 . S
C1743 C1727 1.429 . S
C1743 C1739 1.429 . S
C1743 C1744 1.523 . S
C1744 C1728 1.368 . S
C1744 C1740 1.368 . S
C1744 C1743 1.523 . S
H1745 C1720 0.950 . S
H1746 C1722 0.950 . S
H1747 C1723 0.949 . S
H1748 C1725 0.950 . S
H1749 C1727 0.950 . S
C1750 C1751 1.349 . S
C1750 C1752 1.327 . S
C1750 H1775 0.950 . S
C1751 C1750 1.349 . S
C1751 C1767 1.349 . S
C1752 C1750 1.327 . S
C1752 C1771 1.429 . S
C1752 H1776 0.950 . S
C1753 C1770 1.574 . S
C1753 C1772 1.368 . S
C1753 H1777 0.949 . S
H1754 C1758 0.949 . S
C1755 C1756 1.349 . S
C1755 C1757 1.327 . S
C1755 H1778 0.950 . S
C1756 C1755 1.349 . S
C1756 C1768 1.349 . S
C1757 C1755 1.327 . S
C1757 C1773 1.429 . S
C1757 H1779 0.950 . S
C1758 H1754 0.949 . S
C1758 C1766 1.574 . S
C1758 C1774 1.368 . S
H1759 C1767 0.950 . S
H1760 C1765 0.950 . S
H1761 C1766 0.949 . S
H1762 C1768 0.950 . S
H1763 C1769 0.950 . S
H1764 C1770 0.949 . S
C1765 H1760 0.950 . S
C1765 C1767 1.327 . S
C1765 C1771 1.429 . S
C1766 C1758 1.574 . S
C1766 H1761 0.949 . S
C1766 C1772 1.368 . S
C1767 C1751 1.349 . S
C1767 H1759 0.950 . S
C1767 C1765 1.327 . S
C1768 C1756 1.349 . S
C1768 H1762 0.950 . S
C1768 C1769 1.327 . S
C1769 H1763 0.950 . S
C1769 C1768 1.327 . S
C1769 C1773 1.429 . S
C1770 C1753 1.574 . S
C1770 H1764 0.949 . S
C1770 C1774 1.368 . S
C1771 C1752 1.429 . S
C1771 C1765 1.429 . S
C1771 C1772 1.523 . S
C1772 C1753 1.368 . S
C1772 C1766 1.368 . S
C1772 C1771 1.523 . S
C1773 C1757 1.429 . S
C1773 C1769 1.429 . S
C1773 C1774 1.523 . S
C1774 C1758 1.368 . S
C1774 C1770 1.368 . S
C1774 C1773 1.523 . S
H1775 C1750 0.950 . S
H1776 C1752 0.950 . S
H1777 C1753 0.949 . S
H1778 C1755 0.950 . S
H1779 C1757 0.950 . S
C1780 C1781 1.349 . S
C1780 C1782 1.327 1_556 S
C1780 H1805 0.950 . S
C1781 C1780 1.349 . S
C1781 C1797 1.349 . S
C1782 C1780 1.327 1_554 S
C1782 C1801 1.429 . S
C1782 H1806 0.950 . S
C1783 C1800 1.574 . S
C1783 C1802 1.368 . S
C1783 H1807 0.949 . S
H1784 C1788 0.949 . S
C1785 C1786 1.349 . S
C1785 C1787 1.327 . S
C1785 H1808 0.950 . S
C1786 C1785 1.349 . S
C1786 C1798 1.349 . S
C1787 C1785 1.327 . S
C1787 C1803 1.429 . S
C1787 H1809 0.950 . S
C1788 H1784 0.949 . S
C1788 C1796 1.574 . S
C1788 C1804 1.368 . S
H1789 C1797 0.950 . S
H1790 C1795 0.950 . S
H1791 C1796 0.949 . S
H1792 C1798 0.950 . S
H1793 C1799 0.950 . S
H1794 C1800 0.949 . S
C1795 H1790 0.950 . S
C1795 C1797 1.327 1_554 S
C1795 C1801 1.429 . S
C1796 C1788 1.574 . S
C1796 H1791 0.949 . S
C1796 C1802 1.368 . S
C1797 C1781 1.349 . S
C1797 H1789 0.950 . S
C1797 C1795 1.327 1_556 S
C1798 C1786 1.349 . S
C1798 H1792 0.950 . S
C1798 C1799 1.327 . S
C1799 H1793 0.950 . S
C1799 C1798 1.327 . S
C1799 C1803 1.429 . S
C1800 C1783 1.574 . S
C1800 H1794 0.949 . S
C1800 C1804 1.368 . S
C1801 C1782 1.429 . S
C1801 C1795 1.429 . S
C1801 C1802 1.523 . S
C1802 C1783 1.368 . S
C1802 C1796 1.368 . S
C1802 C1801 1.523 . S
C1803 C1787 1.429 . S
C1803 C1799 1.429 . S
C1803 C1804 1.523 . S
C1804 C1788 1.368 . S
C1804 C1800 1.368 . S
C1804 C1803 1.523 . S
H1805 C1780 0.950 . S
H1806 C1782 0.950 . S
H1807 C1783 0.949 . S
H1808 C1785 0.950 . S
H1809 C1787 0.950 . S
C1810 C1811 1.349 . S
C1810 C1812 1.327 . S
C1810 H1835 0.950 . S
C1811 C1810 1.349 . S
C1811 C1827 1.349 . S
C1812 C1810 1.327 . S
C1812 C1831 1.429 . S
C1812 H1836 0.950 . S
C1813 C1830 1.574 . S
C1813 C1832 1.368 . S
C1813 H1837 0.949 . S
H1814 C1818 0.949 . S
C1815 C1816 1.349 . S
C1815 C1817 1.327 . S
C1815 H1838 0.950 . S
C1816 C1815 1.349 . S
C1816 C1828 1.349 . S
C1817 C1815 1.327 . S
C1817 C1833 1.429 . S
C1817 H1839 0.950 . S
C1818 H1814 0.949 . S
C1818 C1826 1.574 . S
C1818 C1834 1.368 . S
H1819 C1827 0.950 . S
H1820 C1825 0.950 . S
H1821 C1826 0.949 . S
H1822 C1828 0.950 . S
H1823 C1829 0.950 . S
H1824 C1830 0.949 . S
C1825 H1820 0.950 . S
C1825 C1827 1.327 . S
C1825 C1831 1.429 . S
C1826 C1818 1.574 . S
C1826 H1821 0.949 . S
C1826 C1832 1.368 . S
C1827 C1811 1.349 . S
C1827 H1819 0.950 . S
C1827 C1825 1.327 . S
C1828 C1816 1.349 . S
C1828 H1822 0.950 . S
C1828 C1829 1.327 . S
C1829 H1823 0.950 . S
C1829 C1828 1.327 . S
C1829 C1833 1.429 . S
C1830 C1813 1.574 . S
C1830 H1824 0.949 . S
C1830 C1834 1.368 . S
C1831 C1812 1.429 . S
C1831 C1825 1.429 . S
C1831 C1832 1.523 . S
C1832 C1813 1.368 . S
C1832 C1826 1.368 . S
C1832 C1831 1.523 . S
C1833 C1817 1.429 . S
C1833 C1829 1.429 . S
C1833 C1834 1.523 . S
C1834 C1818 1.368 . S
C1834 C1830 1.368 . S
C1834 C1833 1.523 . S
H1835 C1810 0.950 . S
H1836 C1812 0.950 . S
H1837 C1813 0.949 . S
H1838 C1815 0.950 . S
H1839 C1817 0.950 . S
C1840 C1841 1.349 . S
C1840 C1842 1.327 . S
C1840 H1865 0.950 . S
C1841 C1840 1.349 . S
C1841 C1857 1.349 . S
C1842 C1840 1.327 . S
C1842 C1861 1.429 . S
C1842 H1866 0.950 . S
C1843 C1860 1.574 . S
C1843 C1862 1.368 . S
C1843 H1867 0.949 . S
H1844 C1848 0.949 . S
C1845 C1846 1.349 . S
C1845 C1847 1.327 . S
C1845 H1868 0.950 . S
C1846 C1845 1.349 . S
C1846 C1858 1.349 . S
C1847 C1845 1.327 . S
C1847 C1863 1.429 . S
C1847 H1869 0.950 . S
C1848 H1844 0.949 . S
C1848 C1856 1.574 . S
C1848 C1864 1.368 . S
H1849 C1857 0.950 . S
H1850 C1855 0.950 . S
H1851 C1856 0.949 . S
H1852 C1858 0.950 . S
H1853 C1859 0.950 . S
H1854 C1860 0.949 . S
C1855 H1850 0.950 . S
C1855 C1857 1.327 . S
C1855 C1861 1.429 . S
C1856 C1848 1.574 . S
C1856 H1851 0.949 . S
C1856 C1862 1.368 . S
C1857 C1841 1.349 . S
C1857 H1849 0.950 . S
C1857 C1855 1.327 . S
C1858 C1846 1.349 . S
C1858 H1852 0.950 . S
C1858 C1859 1.327 . S
C1859 H1853 0.950 . S
C1859 C1858 1.327 . S
C1859 C1863 1.429 . S
C1860 C1843 1.574 . S
C1860 H1854 0.949 . S
C1860 C1864 1.368 . S
C1861 C1842 1.429 . S
C1861 C1855 1.429 . S
C1861 C1862 1.523 . S
C1862 C1843 1.368 . S
C1862 C1856 1.368 . S
C1862 C1861 1.523 . S
C1863 C1847 1.429 . S
C1863 C1859 1.429 . S
C1863 C1864 1.523 . S
C1864 C1848 1.368 . S
C1864 C1860 1.368 . S
C1864 C1863 1.523 . S
H1865 C1840 0.950 . S
H1866 C1842 0.950 . S
H1867 C1843 0.949 . S
H1868 C1845 0.950 . S
H1869 C1847 0.950 . S
C1870 C1871 1.349 . S
C1870 C1872 1.327 . S
C1870 H1895 0.950 . S
C1871 C1870 1.349 . S
C1871 C1887 1.349 . S
C1872 C1870 1.327 . S
C1872 C1891 1.429 . S
C1872 H1896 0.950 . S
C1873 C1890 1.574 . S
C1873 C1892 1.368 . S
C1873 H1897 0.949 . S
H1874 C1878 0.949 . S
C1875 C1876 1.349 . S
C1875 C1877 1.327 . S
C1875 H1898 0.950 . S
C1876 C1875 1.349 . S
C1876 C1888 1.349 . S
C1877 C1875 1.327 . S
C1877 C1893 1.429 . S
C1877 H1899 0.950 . S
C1878 H1874 0.949 . S
C1878 C1886 1.574 . S
C1878 C1894 1.368 . S
H1879 C1887 0.950 . S
H1880 C1885 0.950 . S
H1881 C1886 0.949 . S
H1882 C1888 0.950 . S
H1883 C1889 0.950 . S
H1884 C1890 0.949 . S
C1885 H1880 0.950 . S
C1885 C1887 1.327 . S
C1885 C1891 1.429 . S
C1886 C1878 1.574 . S
C1886 H1881 0.949 . S
C1886 C1892 1.368 . S
C1887 C1871 1.349 . S
C1887 H1879 0.950 . S
C1887 C1885 1.327 . S
C1888 C1876 1.349 . S
C1888 H1882 0.950 . S
C1888 C1889 1.327 . S
C1889 H1883 0.950 . S
C1889 C1888 1.327 . S
C1889 C1893 1.429 . S
C1890 C1873 1.574 . S
C1890 H1884 0.949 . S
C1890 C1894 1.368 . S
C1891 C1872 1.429 . S
C1891 C1885 1.429 . S
C1891 C1892 1.523 . S
C1892 C1873 1.368 . S
C1892 C1886 1.368 . S
C1892 C1891 1.523 . S
C1893 C1877 1.429 . S
C1893 C1889 1.429 . S
C1893 C1894 1.523 . S
C1894 C1878 1.368 . S
C1894 C1890 1.368 . S
C1894 C1893 1.523 . S
H1895 C1870 0.950 . S
H1896 C1872 0.950 . S
H1897 C1873 0.949 . S
H1898 C1875 0.950 . S
H1899 C1877 0.950 . S
C1900 C1901 1.349 . S
C1900 C1902 1.327 . S
C1900 H1925 0.950 . S
C1901 C1900 1.349 . S
C1901 C1917 1.349 . S
C1902 C1900 1.327 . S
C1902 C1921 1.429 . S
C1902 H1926 0.950 . S
C1903 C1920 1.574 . S
C1903 C1922 1.368 . S
C1903 H1927 0.949 . S
H1904 C1908 0.949 . S
C1905 C1906 1.349 . S
C1905 C1907 1.327 . S
C1905 H1928 0.950 . S
C1906 C1905 1.349 . S
C1906 C1918 1.349 . S
C1907 C1905 1.327 . S
C1907 C1923 1.429 . S
C1907 H1929 0.950 . S
C1908 H1904 0.949 . S
C1908 C1916 1.574 . S
C1908 C1924 1.368 . S
H1909 C1917 0.950 . S
H1910 C1915 0.950 . S
H1911 C1916 0.949 . S
H1912 C1918 0.950 . S
H1913 C1919 0.950 . S
H1914 C1920 0.949 . S
C1915 H1910 0.950 . S
C1915 C1917 1.327 . S
C1915 C1921 1.429 . S
C1916 C1908 1.574 . S
C1916 H1911 0.949 . S
C1916 C1922 1.368 . S
C1917 C1901 1.349 . S
C1917 H1909 0.950 . S
C1917 C1915 1.327 . S
C1918 C1906 1.349 . S
C1918 H1912 0.950 . S
C1918 C1919 1.327 . S
C1919 H1913 0.950 . S
C1919 C1918 1.327 . S
C1919 C1923 1.429 . S
C1920 C1903 1.574 . S
C1920 H1914 0.949 . S
C1920 C1924 1.368 . S
C1921 C1902 1.429 . S
C1921 C1915 1.429 . S
C1921 C1922 1.523 . S
C1922 C1903 1.368 . S
C1922 C1916 1.368 . S
C1922 C1921 1.523 . S
C1923 C1907 1.429 . S
C1923 C1919 1.429 . S
C1923 C1924 1.523 . S
C1924 C1908 1.368 . S
C1924 C1920 1.368 . S
C1924 C1923 1.523 . S
H1925 C1900 0.950 . S
H1926 C1902 0.950 . S
H1927 C1903 0.949 . S
H1928 C1905 0.950 . S
H1929 C1907 0.950 . S
C1930 C1931 1.349 . S
C1930 C1932 1.327 . S
C1930 H1955 0.950 1_655 S
C1931 C1930 1.349 . S
C1931 C1947 1.349 . S
C1932 C1930 1.327 . S
C1932 C1951 1.429 . S
C1932 H1956 0.950 . S
C1933 C1950 1.574 . S
C1933 C1952 1.368 . S
C1933 H1957 0.949 . S
H1934 C1938 0.949 . S
C1935 C1936 1.349 . S
C1935 C1937 1.327 . S
C1935 H1958 0.950 . S
C1936 C1935 1.349 . S
C1936 C1948 1.349 . S
C1937 C1935 1.327 . S
C1937 C1953 1.429 . S
C1937 H1959 0.950 . S
C1938 H1934 0.949 . S
C1938 C1946 1.574 . S
C1938 C1954 1.368 . S
H1939 C1947 0.950 . S
H1940 C1945 0.950 . S
H1941 C1946 0.949 . S
H1942 C1948 0.950 . S
H1943 C1949 0.950 . S
H1944 C1950 0.949 . S
C1945 H1940 0.950 . S
C1945 C1947 1.327 . S
C1945 C1951 1.429 . S
C1946 C1938 1.574 . S
C1946 H1941 0.949 . S
C1946 C1952 1.368 . S
C1947 C1931 1.349 . S
C1947 H1939 0.950 . S
C1947 C1945 1.327 . S
C1948 C1936 1.349 . S
C1948 H1942 0.950 . S
C1948 C1949 1.327 . S
C1949 H1943 0.950 . S
C1949 C1948 1.327 . S
C1949 C1953 1.429 . S
C1950 C1933 1.574 . S
C1950 H1944 0.949 . S
C1950 C1954 1.368 . S
C1951 C1932 1.429 . S
C1951 C1945 1.429 . S
C1951 C1952 1.523 . S
C1952 C1933 1.368 . S
C1952 C1946 1.368 . S
C1952 C1951 1.523 . S
C1953 C1937 1.429 . S
C1953 C1949 1.429 . S
C1953 C1954 1.523 . S
C1954 C1938 1.368 . S
C1954 C1950 1.368 . S
C1954 C1953 1.523 . S
H1955 C1930 0.950 1_455 S
H1956 C1932 0.950 . S
H1957 C1933 0.949 . S
H1958 C1935 0.950 . S
H1959 C1937 0.950 . S
C1960 C1961 1.349 . S
C1960 C1962 1.327 . S
C1960 H1985 0.950 . S
C1961 C1960 1.349 . S
C1961 C1977 1.349 . S
C1962 C1960 1.327 . S
C1962 C1981 1.429 . S
C1962 H1986 0.950 . S
C1963 C1980 1.574 . S
C1963 C1982 1.368 . S
C1963 H1987 0.949 . S
H1964 C1968 0.949 . S
C1965 C1966 1.349 . S
C1965 C1967 1.327 . S
C1965 H1988 0.950 . S
C1966 C1965 1.349 . S
C1966 C1978 1.349 . S
C1967 C1965 1.327 . S
C1967 C1983 1.429 . S
C1967 H1989 0.950 1_556 S
C1968 H1964 0.949 . S
C1968 C1976 1.574 . S
C1968 C1984 1.368 . S
H1969 C1977 0.950 . S
H1970 C1975 0.950 . S
H1971 C1976 0.949 . S
H1972 C1978 0.950 . S
H1973 C1979 0.950 . S
H1974 C1980 0.949 . S
C1975 H1970 0.950 . S
C1975 C1977 1.327 . S
C1975 C1981 1.429 . S
C1976 C1968 1.574 . S
C1976 H1971 0.949 . S
C1976 C1982 1.368 . S
C1977 C1961 1.349 . S
C1977 H1969 0.950 . S
C1977 C1975 1.327 . S
C1978 C1966 1.349 . S
C1978 H1972 0.950 . S
C1978 C1979 1.327 . S
C1979 H1973 0.950 . S
C1979 C1978 1.327 . S
C1979 C1983 1.429 . S
C1980 C1963 1.574 . S
C1980 H1974 0.949 . S
C1980 C1984 1.368 . S
C1981 C1962 1.429 . S
C1981 C1975 1.429 . S
C1981 C1982 1.523 . S
C1982 C1963 1.368 . S
C1982 C1976 1.368 . S
C1982 C1981 1.523 . S
C1983 C1967 1.429 . S
C1983 C1979 1.429 . S
C1983 C1984 1.523 1_556 S
C1984 C1968 1.368 . S
C1984 C1980 1.368 . S
C1984 C1983 1.523 1_554 S
H1985 C1960 0.950 . S
H1986 C1962 0.950 . S
H1987 C1963 0.949 . S
H1988 C1965 0.950 . S
H1989 C1967 0.950 1_554 S
C1990 C1991 1.349 . S
C1990 C1992 1.327 . S
C1990 H2015 0.950 . S
C1991 C1990 1.349 . S
C1991 C2007 1.349 . S
C1992 C1990 1.327 . S
C1992 C2011 1.429 . S
C1992 H2016 0.950 . S
C1993 C2010 1.574 . S
C1993 C2012 1.368 . S
C1993 H2017 0.949 . S
H1994 C1998 0.949 . S
C1995 C1996 1.349 . S
C1995 C1997 1.327 . S
C1995 H2018 0.950 . S
C1996 C1995 1.349 . S
C1996 C2008 1.349 . S
C1997 C1995 1.327 . S
C1997 C2013 1.429 . S
C1997 H2019 0.950 . S
C1998 H1994 0.949 . S
C1998 C2006 1.574 . S
C1998 C2014 1.368 . S
H1999 C2007 0.950 . S
H2000 C2005 0.950 . S
H2001 C2006 0.949 . S
H2002 C2008 0.950 . S
H2003 C2009 0.950 . S
H2004 C2010 0.949 . S
C2005 H2000 0.950 . S
C2005 C2007 1.327 . S
C2005 C2011 1.429 . S
C2006 C1998 1.574 . S
C2006 H2001 0.949 . S
C2006 C2012 1.368 . S
C2007 C1991 1.349 . S
C2007 H1999 0.950 . S
C2007 C2005 1.327 . S
C2008 C1996 1.349 . S
C2008 H2002 0.950 . S
C2008 C2009 1.327 . S
C2009 H2003 0.950 . S
C2009 C2008 1.327 . S
C2009 C2013 1.429 . S
C2010 C1993 1.574 . S
C2010 H2004 0.949 . S
C2010 C2014 1.368 . S
C2011 C1992 1.429 . S
C2011 C2005 1.429 . S
C2011 C2012 1.523 . S
C2012 C1993 1.368 . S
C2012 C2006 1.368 . S
C2012 C2011 1.523 . S
C2013 C1997 1.429 . S
C2013 C2009 1.429 . S
C2013 C2014 1.523 . S
C2014 C1998 1.368 . S
C2014 C2010 1.368 . S
C2014 C2013 1.523 . S
H2015 C1990 0.950 . S
H2016 C1992 0.950 . S
H2017 C1993 0.949 . S
H2018 C1995 0.950 . S
H2019 C1997 0.950 . S
C2020 C2021 1.349 . S
C2020 C2022 1.327 . S
C2020 H2045 0.950 . S
C2021 C2020 1.349 . S
C2021 C2037 1.349 . S
C2022 C2020 1.327 . S
C2022 C2041 1.429 . S
C2022 H2046 0.950 . S
C2023 C2040 1.574 . S
C2023 C2042 1.368 . S
C2023 H2047 0.949 . S
H2024 C2028 0.949 . S
C2025 C2026 1.349 . S
C2025 C2027 1.327 . S
C2025 H2048 0.950 . S
C2026 C2025 1.349 . S
C2026 C2038 1.349 . S
C2027 C2025 1.327 . S
C2027 C2043 1.429 . S
C2027 H2049 0.950 . S
C2028 H2024 0.949 . S
C2028 C2036 1.574 . S
C2028 C2044 1.368 . S
H2029 C2037 0.950 . S
H2030 C2035 0.950 . S
H2031 C2036 0.949 . S
H2032 C2038 0.950 . S
H2033 C2039 0.950 . S
H2034 C2040 0.949 . S
C2035 H2030 0.950 . S
C2035 C2037 1.327 . S
C2035 C2041 1.429 . S
C2036 C2028 1.574 . S
C2036 H2031 0.949 . S
C2036 C2042 1.368 . S
C2037 C2021 1.349 . S
C2037 H2029 0.950 . S
C2037 C2035 1.327 . S
C2038 C2026 1.349 . S
C2038 H2032 0.950 . S
C2038 C2039 1.327 . S
C2039 H2033 0.950 . S
C2039 C2038 1.327 . S
C2039 C2043 1.429 . S
C2040 C2023 1.574 . S
C2040 H2034 0.949 . S
C2040 C2044 1.368 . S
C2041 C2022 1.429 . S
C2041 C2035 1.429 . S
C2041 C2042 1.523 . S
C2042 C2023 1.368 . S
C2042 C2036 1.368 . S
C2042 C2041 1.523 . S
C2043 C2027 1.429 . S
C2043 C2039 1.429 . S
C2043 C2044 1.523 . S
C2044 C2028 1.368 . S
C2044 C2040 1.368 . S
C2044 C2043 1.523 . S
H2045 C2020 0.950 . S
H2046 C2022 0.950 . S
H2047 C2023 0.949 . S
H2048 C2025 0.950 . S
H2049 C2027 0.950 . S
C2050 C2051 1.349 . S
C2050 C2052 1.327 . S
C2050 H2075 0.950 . S
C2051 C2050 1.349 . S
C2051 C2067 1.349 . S
C2052 C2050 1.327 . S
C2052 C2071 1.429 . S
C2052 H2076 0.950 . S
C2053 C2070 1.574 . S
C2053 C2072 1.368 . S
C2053 H2077 0.949 . S
H2054 C2058 0.949 . S
C2055 C2056 1.349 . S
C2055 C2057 1.327 . S
C2055 H2078 0.950 . S
C2056 C2055 1.349 . S
C2056 C2068 1.349 . S
C2057 C2055 1.327 . S
C2057 C2073 1.429 . S
C2057 H2079 0.950 . S
C2058 H2054 0.949 . S
C2058 C2066 1.574 . S
C2058 C2074 1.368 . S
H2059 C2067 0.950 . S
H2060 C2065 0.950 . S
H2061 C2066 0.949 . S
H2062 C2068 0.950 . S
H2063 C2069 0.950 . S
H2064 C2070 0.949 . S
C2065 H2060 0.950 . S
C2065 C2067 1.327 . S
C2065 C2071 1.429 . S
C2066 C2058 1.574 . S
C2066 H2061 0.949 . S
C2066 C2072 1.368 . S
C2067 C2051 1.349 . S
C2067 H2059 0.950 . S
C2067 C2065 1.327 . S
C2068 C2056 1.349 . S
C2068 H2062 0.950 . S
C2068 C2069 1.327 . S
C2069 H2063 0.950 . S
C2069 C2068 1.327 . S
C2069 C2073 1.429 . S
C2070 C2053 1.574 . S
C2070 H2064 0.949 . S
C2070 C2074 1.368 . S
C2071 C2052 1.429 . S
C2071 C2065 1.429 . S
C2071 C2072 1.523 . S
C2072 C2053 1.368 . S
C2072 C2066 1.368 . S
C2072 C2071 1.523 . S
C2073 C2057 1.429 . S
C2073 C2069 1.429 . S
C2073 C2074 1.523 . S
C2074 C2058 1.368 . S
C2074 C2070 1.368 . S
C2074 C2073 1.523 . S
H2075 C2050 0.950 . S
H2076 C2052 0.950 . S
H2077 C2053 0.949 . S
H2078 C2055 0.950 . S
H2079 C2057 0.950 . S
C641 C7 0.904 . S
C646 C287 0.958 . S
C671 C51 0.897 . S
C676 C167 0.894 . S
C701 C207 0.493 . S
C706 C91 0.516 . S
C731 C131 0.851 . S
C736 C247 0.850 . S
C761 C456 0.865 . S
C766 C162 0.866 . S
C791 C322 2.647 . S
C796 C2 2.614 . S
C821 C416 0.890 . S
C826 C242 0.892 . S
C851 C96 1.922 . S
C856 C362 1.901 . S
C881 C367 0.958 . S
C886 C487 0.904 . S
C911 C411 0.897 . S
C916 C567 0.895 . S
C941 C531 0.515 . S
C946 C327 0.493 . S
C971 C451 0.851 . S
C976 C607 0.850 . S
C1001 C562 0.866 . S
C1006 C136 0.865 . S
C1031 C482 2.614 . S
C1036 C202 2.647 . S
C1061 C56 0.890 . S
C1066 C602 0.892 . S
C1091 C282 1.902 . S
C1096 C536 1.922 . S
C1121 C539 0.836 . S
C1126 C10 0.824 . S
C1151 C459 0.975 . S
C1156 C59 0.970 . S
C1181 C490 0.824 . S
C1186 C99 0.837 . S
C1211 C419 0.970 . S
C1216 C139 0.975 . S
C1241 C170 0.945 . S
C1246 C610 0.953 . S
C1271 C370 0.820 . S
C1276 C210 0.448 . S
C1301 C250 0.953 . S
C1306 C570 0.944 . S
C1331 C290 0.820 . S
C1336 C330 0.447 . S
C1361 C19 1.296 . S
C1366 C179 1.281 . S
C1391 C50 1.204 . S
C1396 C219 1.208 . S
C1421 C259 1.348 . S
C1426 C90 1.347 . S
C1451 C130 1.520 . S
C1456 C299 1.507 . S
C1481 C410 1.204 . S
C1486 C339 1.208 . S
C1511 C450 1.520 . S
C1516 C379 1.507 . S
C1541 C499 1.285 . S
C1546 C579 1.280 . S
C1571 C619 1.348 . S
C1576 C530 1.347 . S
C1601 C11 3.582 . S
C1606 C291 3.594 . S
C1631 C47 1.923 . S
C1636 C171 1.984 . S
C1661 C211 2.859 . S
C1666 C87 2.810 . S
C1691 C251 1.951 . S
C1696 C127 1.889 . S
C1721 C442 1.963 . S
C1726 C176 1.903 . S
C1751 C336 0.469 . S
C1756 C16 0.458 . S
C1781 C402 1.967 . S
C1786 C256 1.908 . S
C1811 C82 0.930 . S
C1816 C376 0.913 . S
C1841 C491 3.582 . S
C1846 C371 3.594 1_556 S
C1871 C571 1.983 . S
C1876 C407 1.922 . S
C1901 C527 2.810 . S
C1906 C331 2.859 . S
C1931 C611 1.951 . S
C1936 C447 1.889 . S
C1961 C576 1.903 . S
C1966 C122 1.962 . S
C1991 C216 0.469 1_556 S
C1996 C496 0.458 . S
C2021 C42 1.967 . S
C2026 C616 1.908 . S
C2051 C522 0.930 . S
C2056 C296 0.913 . S
