# Generated by pormake.
# Topology sml, (6)-cn, num edge types: 1
# Building blocks:
#     Node 0, Type 0, BuildingBlock: BETFEN_clean_sbu_0, # of connection points: 6
#     Node 1, Type 0, BuildingBlock: BETFEN_clean_sbu_0, # of connection points: 6
#     Node 2, Type 0, BuildingBlock: BETFEN_clean_sbu_0, # of connection points: 6
#     Node 3, Type 0, BuildingBlock: BETFEN_clean_sbu_0, # of connection points: 6
#     Node 4, Type 0, BuildingBlock: BETFEN_clean_sbu_0, # of connection points: 6
#     Node 5, Type 0, BuildingBlock: BETFEN_clean_sbu_0, # of connection points: 6
#     Edge 6, Type (0, 0), BuildingBlock: FUNLAD_clean_linker_0, # of connection points: 2
#     Edge 7, Type (0, 0), BuildingBlock: FUNLAD_clean_linker_0, # of connection points: 2
#     Edge 8, Type (0, 0), BuildingBlock: FUNLAD_clean_linker_0, # of connection points: 2
#     Edge 9, Type (0, 0), BuildingBlock: FUNLAD_clean_linker_0, # of connection points: 2
#     Edge 10, Type (0, 0), BuildingBlock: FUNLAD_clean_linker_0, # of connection points: 2
#     Edge 11, Type (0, 0), BuildingBlock: FUNLAD_clean_linker_0, # of connection points: 2
#     Edge 12, Type (0, 0), BuildingBlock: FUNLAD_clean_linker_0, # of connection points: 2
#     Edge 13, Type (0, 0), BuildingBlock: FUNLAD_clean_linker_0, # of connection points: 2
#     Edge 14, Type (0, 0), BuildingBlock: FUNLAD_clean_linker_0, # of connection points: 2
#     Edge 15, Type (0, 0), BuildingBlock: FUNLAD_clean_linker_0, # of connection points: 2
#     Edge 16, Type (0, 0), BuildingBlock: FUNLAD_clean_linker_0, # of connection points: 2
#     Edge 17, Type (0, 0), BuildingBlock: FUNLAD_clean_linker_0, # of connection points: 2
#     Edge 18, Type (0, 0), BuildingBlock: FUNLAD_clean_linker_0, # of connection points: 2
#     Edge 19, Type (0, 0), BuildingBlock: FUNLAD_clean_linker_0, # of connection points: 2
#     Edge 20, Type (0, 0), BuildingBlock: FUNLAD_clean_linker_0, # of connection points: 2
#     Edge 21, Type (0, 0), BuildingBlock: FUNLAD_clean_linker_0, # of connection points: 2
#     Edge 22, Type (0, 0), BuildingBlock: FUNLAD_clean_linker_0, # of connection points: 2
#     Edge 23, Type (0, 0), BuildingBlock: FUNLAD_clean_linker_0, # of connection points: 2
# Relax obj value: 0.169
# Max RMSD: 0.206
# Mean RMSD: 0.206
data_MOF--net-sml--node1-BETFEN_clean_sbu_0--edge1-FUNLAD_clean_linker_0
_symmetry_space_group_name_H-M    P1
_symmetry_Int_Tables_number       1
_symmetry_cell_setting            triclinic
loop_
_symmetry_equiv_pos_as_xyz
'x, y, z'
_cell_length_a     38.775344
_cell_length_b     38.674746
_cell_length_c     27.826969
_cell_angle_alpha  89.701264
_cell_angle_beta   90.073683
_cell_angle_gamma 120.07427
loop_
_atom_site_label
_atom_site_type_symbol
_atom_site_fract_x
_atom_site_fract_y
_atom_site_fract_z
_atom_type_partial_charge
Pr0 Pr 0.22294 0.4147 0.15163 0.0
Pr1 Pr 0.17 0.39484 0.05166 0.0
C2 C 0.25757 0.44605 0.23638 0.0
C3 C 0.24417 0.44777 0.28516 0.0
C4 C 0.272 0.46344 0.32251 0.0
C5 C 0.25921 0.46032 0.37011 0.0
C6 C 0.21828 0.44128 0.38113 0.0
C7 C 0.19056 0.42697 0.34321 0.0
C8 C 0.20341 0.43013 0.29562 0.0
C9 C 0.22605 0.35556 0.09714 0.0
C10 C 0.12618 0.34713 0.15457 0.0
C11 C 0.1272 0.36637 0.97063 0.0
C12 C 0.13392 0.37421 0.9184 0.0
C13 C 0.11221 0.38842 0.8929 0.0
C14 C 0.11898 0.39717 0.84382 0.0
C15 C 0.14739 0.39156 0.8191 0.0
C16 C 0.16876 0.37686 0.84453 0.0
C17 C 0.1622 0.36838 0.89367 0.0
C18 C 0.1831 0.46123 0.1042 0.0
C19 C 0.26719 0.45677 0.04738 0.0
O20 O 0.25222 0.46697 0.20296 0.0
O21 O 0.24885 0.41032 0.22226 0.0
O22 O 0.20827 0.37429 0.08789 0.0
O23 O 0.24432 0.36761 0.13809 0.0
O24 O 0.12346 0.3496 0.10728 0.0
O25 O 0.15912 0.36994 0.17911 0.0
O26 O 0.14521 0.34947 0.99192 0.0
O27 O 0.12682 0.39441 0.99643 0.0
O28 O 0.17564 0.42803 0.12162 0.0
O29 O 0.18204 0.46052 0.05742 0.0
O30 O 0.26799 0.45993 0.09491 0.0
O31 O 0.23525 0.43062 0.02326 0.0
H32 H 0.30356 0.47679 0.31503 0.0
H33 H 0.28134 0.4712 0.39839 0.0
H34 H 0.15888 0.41261 0.3504 0.0
H35 H 0.18148 0.41763 0.26717 0.0
H36 H 0.09013 0.393 0.91106 0.0
H37 H 0.10173 0.40803 0.82511 0.0
H38 H 0.19115 0.37262 0.82662 0.0
H39 H 0.17958 0.35761 0.91226 0.0
Pr40 Pr 0.74802 0.18139 0.44495 0.0
Pr41 Pr 0.80931 0.21928 0.53857 0.0
C42 C 0.71135 0.17671 0.36096 0.0
C43 C 0.72089 0.17748 0.30963 0.0
C44 C 0.69022 0.15956 0.2757 0.0
C45 C 0.69918 0.16247 0.22658 0.0
C46 C 0.73901 0.18357 0.21067 0.0
C47 C 0.76966 0.20067 0.24501 0.0
C48 C 0.76068 0.1976 0.29398 0.0
C49 C 0.75928 0.12402 0.49352 0.0
C50 C 0.84607 0.2133 0.43485 0.0
C51 C 0.8464 0.23558 0.62418 0.0
C52 C 0.83612 0.22456 0.67489 0.0
C53 C 0.86492 0.24462 0.71034 0.0
C54 C 0.85496 0.23643 0.75894 0.0
C55 C 0.81585 0.20818 0.77302 0.0
C56 C 0.78725 0.18749 0.73712 0.0
C57 C 0.79735 0.19559 0.68845 0.0
C58 C 0.80297 0.2723 0.47643 0.0
C59 C 0.70939 0.17699 0.55188 0.0
O60 O 0.73311 0.21012 0.38408 0.0
O61 O 0.70461 0.14501 0.3857 0.0
O62 O 0.77493 0.16063 0.50134 0.0
O63 O 0.73586 0.11498 0.45642 0.0
O64 O 0.85068 0.21427 0.48209 0.0
O65 O 0.81258 0.20666 0.41378 0.0
O66 O 0.84398 0.20761 0.59558 0.0
O67 O 0.83265 0.25729 0.60503 0.0
O68 O 0.77469 0.23883 0.48979 0.0
O69 O 0.83624 0.28066 0.49755 0.0
O70 O 0.70302 0.17496 0.50486 0.0
O71 O 0.74485 0.18864 0.57115 0.0
H72 H 0.65934 0.14399 0.28712 0.0
H73 H 0.67491 0.14926 0.20102 0.0
H74 H 0.80063 0.21661 0.23399 0.0
H75 H 0.78482 0.21158 0.31961 0.0
H76 H 0.89503 0.267 0.70043 0.0
H77 H 0.87795 0.25236 0.7855 0.0
H78 H 0.75679 0.16583 0.74656 0.0
H79 H 0.77477 0.17976 0.66142 0.0
Pr80 Pr 0.55802 0.80624 0.82531 0.0
Pr81 Pr 0.58362 0.77738 0.73286 0.0
C82 C 0.52449 0.81314 0.90673 0.0
C83 C 0.53515 0.81779 0.95801 0.0
C84 C 0.50812 0.81629 0.99249 0.0
C85 C 0.51616 0.81616 0.04156 0.0
C86 C 0.55132 0.81727 0.05698 0.0
C87 C 0.57883 0.8199 0.02209 0.0
C88 C 0.57079 0.82014 0.97309 0.0
C89 C 0.62694 0.86421 0.7792 0.0
C90 C 0.62884 0.78341 0.83374 0.0
C91 C 0.60417 0.76431 0.64518 0.0
C92 C 0.60252 0.77496 0.59471 0.0
C93 C 0.60967 0.75465 0.55807 0.0
C94 C 0.60605 0.76265 0.50984 0.0
C95 C 0.59502 0.7911 0.49726 0.0
C96 C 0.58843 0.81186 0.53428 0.0
C97 C 0.59212 0.80382 0.5826 0.0
C98 C 0.5296 0.71764 0.79444 0.0
C99 C 0.5162 0.80699 0.72222 0.0
O100 O 0.51633 0.77877 0.8883 0.0
O101 O 0.54635 0.8436 0.87838 0.0
O102 O 0.5957 0.83816 0.75902 0.0
O103 O 0.62267 0.86285 0.82566 0.0
O104 O 0.63445 0.78884 0.78682 0.0
O105 O 0.5974 0.78117 0.85519 0.0
O106 O 0.62909 0.79307 0.67347 0.0
O107 O 0.5698 0.74037 0.66552 0.0
O108 O 0.52906 0.74859 0.78192 0.0
O109 O 0.5586 0.71568 0.77381 0.0
O110 O 0.51522 0.81037 0.76938 0.0
O111 O 0.54063 0.79746 0.70063 0.0
H112 H 0.48027 0.81406 0.98147 0.0
H113 H 0.49413 0.81365 0.06736 0.0
H114 H 0.6064 0.82132 0.03264 0.0
H115 H 0.59195 0.82116 0.94691 0.0
H116 H 0.61771 0.73225 0.56678 0.0
H117 H 0.61198 0.74657 0.48238 0.0
H118 H 0.5795 0.83364 0.526 0.0
H119 H 0.58633 0.81969 0.61049 0.0
Pr120 Pr 0.7961 0.57168 0.11397 0.0
Pr121 Pr 0.75403 0.58728 0.20961 0.0
C122 C 0.81334 0.54593 0.03276 0.0
C123 C 0.80804 0.55057 0.98126 0.0
C124 C 0.82622 0.53856 0.9469 0.0
C125 C 0.82304 0.54495 0.89793 0.0
C126 C 0.80167 0.56359 0.88253 0.0
C127 C 0.78303 0.57506 0.91728 0.0
C128 C 0.78624 0.56866 0.96618 0.0
C129 C 0.84605 0.63023 0.17864 0.0
C130 C 0.76672 0.63845 0.10845 0.0
C131 C 0.74234 0.61242 0.29465 0.0
C132 C 0.75363 0.6118 0.34496 0.0
C133 C 0.74108 0.62837 0.38078 0.0
C134 C 0.74816 0.62435 0.42925 0.0
C135 C 0.76792 0.6036 0.44273 0.0
C136 C 0.78145 0.58804 0.40641 0.0
C137 C 0.77424 0.59199 0.358 0.0
C138 C 0.69791 0.53696 0.14139 0.0
C139 C 0.78213 0.51823 0.21484 0.0
O140 O 0.78071 0.52413 0.05764 0.0
O141 O 0.83907 0.57861 0.05489 0.0
O142 O 0.81573 0.59741 0.18928 0.0
O143 O 0.8536 0.63254 0.13277 0.0
O144 O 0.7655 0.63917 0.15611 0.0
O145 O 0.77183 0.61185 0.08445 0.0
O146 O 0.77092 0.63603 0.26491 0.0
O147 O 0.71758 0.57733 0.27648 0.0
O148 O 0.73504 0.55438 0.14002 0.0
O149 O 0.68712 0.54513 0.18204 0.0
O150 O 0.79068 0.52211 0.16822 0.0
O151 O 0.77057 0.54053 0.23803 0.0
H152 H 0.84339 0.52481 0.95797 0.0
H153 H 0.83817 0.5362 0.87223 0.0
H154 H 0.76592 0.58899 0.90672 0.0
H155 H 0.77208 0.57824 0.99227 0.0
H156 H 0.7248 0.64344 0.37134 0.0
H157 H 0.73687 0.63627 0.45619 0.0
H158 H 0.79723 0.57238 0.41539 0.0
H159 H 0.78387 0.57871 0.33083 0.0
Pr160 Pr 0.20314 0.76438 0.47725 0.0
Pr161 Pr 0.21975 0.81776 0.38604 0.0
C162 C 0.20365 0.73336 0.56397 0.0
C163 C 0.20783 0.7455 0.61455 0.0
C164 C 0.18817 0.71643 0.65019 0.0
C165 C 0.19139 0.72743 0.69844 0.0
C166 C 0.2144 0.76778 0.7119 0.0
C167 C 0.23403 0.79687 0.67591 0.0
C168 C 0.23074 0.78583 0.62764 0.0
C169 C 0.13592 0.75556 0.43062 0.0
C170 C 0.21974 0.85737 0.48851 0.0
C171 C 0.21833 0.8497 0.30024 0.0
C172 C 0.22284 0.84346 0.24925 0.0
C173 C 0.21948 0.86796 0.21459 0.0
C174 C 0.22253 0.86162 0.16578 0.0
C175 C 0.22893 0.83056 0.15086 0.0
C176 C 0.23269 0.80631 0.18596 0.0
C177 C 0.22968 0.81274 0.23479 0.0
C178 C 0.28708 0.82659 0.43277 0.0
C179 C 0.20348 0.72392 0.37526 0.0
O180 O 0.23538 0.75258 0.53698 0.0
O181 O 0.17088 0.72665 0.54247 0.0
O182 O 0.16723 0.78842 0.43803 0.0
O183 O 0.13784 0.72567 0.44925 0.0
O184 O 0.21245 0.85794 0.44226 0.0
O185 O 0.22295 0.82794 0.50818 0.0
O186 O 0.1864 0.82149 0.32143 0.0
O187 O 0.2504 0.8633 0.32669 0.0
O188 O 0.25561 0.79397 0.42513 0.0
O189 O 0.2856 0.85652 0.41353 0.0
O190 O 0.20753 0.72214 0.42212 0.0
O191 O 0.20363 0.75484 0.35428 0.0
H192 H 0.17014 0.68521 0.64066 0.0
H193 H 0.17534 0.70435 0.72512 0.0
H194 H 0.25228 0.82814 0.68506 0.0
H195 H 0.24614 0.80876 0.60057 0.0
H196 H 0.2143 0.89189 0.22527 0.0
H197 H 0.22007 0.88117 0.13972 0.0
H198 H 0.23715 0.78185 0.1757 0.0
H199 H 0.23234 0.79357 0.26125 0.0
Pr200 Pr 0.42107 0.21431 0.78518 0.0
Pr201 Pr 0.39174 0.15908 0.87776 0.0
C202 C 0.457 0.25304 0.70335 0.0
C203 C 0.44717 0.24903 0.6517 0.0
C204 C 0.4077 0.2331 0.6359 0.0
C205 C 0.3986 0.22651 0.58687 0.0
C206 C 0.42873 0.23533 0.55265 0.0
C207 C 0.46827 0.25158 0.56887 0.0
C208 C 0.47733 0.25837 0.61782 0.0
C209 C 0.35379 0.20779 0.82974 0.0
C210 C 0.34407 0.12303 0.77766 0.0
C211 C 0.37079 0.12613 0.96609 0.0
C212 C 0.37598 0.1382 0.01719 0.0
C213 C 0.39194 0.1217 0.04914 0.0
C214 C 0.3983 0.13315 0.09737 0.0
C215 C 0.38857 0.16123 0.11493 0.0
C216 C 0.37203 0.17738 0.08308 0.0
C217 C 0.36596 0.16613 0.03459 0.0
C218 C 0.44109 0.14785 0.81488 0.0
C219 C 0.46406 0.25501 0.88832 0.0
O220 O 0.46142 0.22431 0.72182 0.0
O221 O 0.43781 0.26473 0.73171 0.0
O222 O 0.38381 0.21062 0.85091 0.0
O223 O 0.35879 0.21085 0.78335 0.0
O224 O 0.33924 0.12251 0.82473 0.0
O225 O 0.37636 0.15101 0.75577 0.0
O226 O 0.34752 0.13382 0.9393 0.0
O227 O 0.4028 0.13157 0.94362 0.0
O228 O 0.44544 0.18084 0.82796 0.0
O229 O 0.41038 0.11818 0.83544 0.0
O230 O 0.46403 0.26054 0.84139 0.0
O231 O 0.4396 0.22053 0.90942 0.0
H232 H 0.38382 0.22519 0.66151 0.0
H233 H 0.36791 0.21444 0.57583 0.0
H234 H 0.49219 0.25808 0.54391 0.0
H235 H 0.50789 0.2701 0.62935 0.0
H236 H 0.39975 0.1 0.03666 0.0
H237 H 0.41061 0.11977 0.12106 0.0
H238 H 0.36453 0.19933 0.09542 0.0
H239 H 0.35377 0.17954 0.01076 0.0
C240 C 0.32143 0.21017 0.90552 0.0
C241 C 0.32296 0.21215 0.85519 0.0
C242 C 0.29666 0.22014 0.93076 0.0
C243 C 0.27269 0.23221 0.90607 0.0
C244 C 0.27291 0.23238 0.85558 0.0
C245 C 0.29762 0.22211 0.83027 0.0
C246 C 0.25198 0.25014 0.93183 0.0
C247 C 0.24156 0.24266 0.9785 0.0
C248 C 0.23277 0.2689 0.00852 0.0
C249 C 0.24157 0.27137 0.05776 0.0
C250 C 0.23873 0.29919 0.08664 0.0
C251 C 0.22635 0.32463 0.067 0.0
H252 H 0.21076 0.29172 0.95174 0.0
C253 C 0.21575 0.3211 0.01832 0.0
C254 C 0.21882 0.29338 0.98923 0.0
H255 H 0.20644 0.34065 1.00237 0.0
H256 H 0.34081 0.20274 0.9256 0.0
H257 H 0.29849 0.22072 0.96956 0.0
H258 H 0.25504 0.24189 0.83571 0.0
H259 H 0.29831 0.22389 0.79139 0.0
H260 H 0.24891 0.27293 0.91261 0.0
H261 H 0.24416 0.21931 0.99708 0.0
H262 H 0.25224 0.25282 0.07361 0.0
H263 H 0.24682 0.3012 0.12423 0.0
C264 C 0.09364 0.31128 0.23074 0.0
C265 C 0.09024 0.31924 0.18216 0.0
C266 C 0.05972 0.28817 0.25849 0.0
C267 C 0.02152 0.27298 0.23845 0.0
C268 C 0.01816 0.27898 0.18925 0.0
C269 C 0.05218 0.30194 0.16131 0.0
C270 C 0.98475 0.2523 0.26805 0.0
C271 C 0.98428 0.25955 0.31531 0.0
C272 C 0.94748 0.24372 0.34469 0.0
C273 C 0.95094 0.24413 0.39493 0.0
C274 C 0.91783 0.23317 0.42427 0.0
C275 C 0.88049 0.22187 0.40393 0.0
H276 H 0.90595 0.23176 0.28583 0.0
C277 C 0.87679 0.22059 0.35361 0.0
C278 C 0.90989 0.23151 0.32427 0.0
H279 H 0.84849 0.21204 0.33668 0.0
H280 H 0.12256 0.32341 0.24769 0.0
H281 H 0.06372 0.28268 0.29567 0.0
H282 H 0.98909 0.26716 0.17276 0.0
H283 H 0.04855 0.30726 0.12389 0.0
H284 H 0.95713 0.23277 0.24947 0.0
H285 H 0.01199 0.27937 0.33357 0.0
H286 H 0.97957 0.25366 0.41162 0.0
H287 H 0.92182 0.23451 0.46287 0.0
C288 C 0.77474 0.10457 0.57289 0.0
C289 C 0.76163 0.09477 0.52525 0.0
C290 C 0.77202 0.07518 0.60467 0.0
C291 C 0.75606 0.03546 0.58913 0.0
C292 C 0.74541 0.02647 0.54064 0.0
C293 C 0.74781 0.05575 0.50909 0.0
C294 C 0.74641 0.00181 0.62261 0.0
C295 C 0.73635 0.00175 0.66897 0.0
C296 C 0.71337 0.9644 0.69742 0.0
C297 C 0.71339 0.96634 0.74785 0.0
C298 C 0.68681 0.933 0.77516 0.0
C299 C 0.65933 0.89747 0.75226 0.0
H300 H 0.68492 0.92538 0.6362 0.0
C301 C 0.6604 0.89502 0.70207 0.0
C302 C 0.68705 0.92802 0.67491 0.0
H303 H 0.63933 0.86807 0.68345 0.0
H304 H 0.78531 0.13445 0.58619 0.0
H305 H 0.78155 0.08353 0.64144 0.0
H306 H 0.73322 -0.00381 0.52764 0.0
H307 H 0.73774 0.04756 0.47239 0.0
H308 H 0.74212 0.97433 0.60678 0.0
H309 H 0.74108 0.02913 0.68553 0.0
H310 H 0.733 0.99411 0.76604 0.0
H311 H 0.68645 0.93566 0.81386 0.0
C312 C 0.65781 0.78262 0.91346 0.0
C313 C 0.65735 0.77796 0.86341 0.0
C314 C 0.68208 0.77423 0.94247 0.0
C315 C 0.70595 0.76017 0.92208 0.0
C316 C 0.70702 0.75758 0.87178 0.0
C317 C 0.68301 0.76644 0.84266 0.0
C318 C 0.72848 0.74605 0.95175 0.0
C319 C 0.71982 0.73479 0.99818 0.0
C320 C 0.73708 0.71407 0.02565 0.0
C321 C 0.73548 0.714 0.07606 0.0
C322 C 0.74668 0.69076 0.10323 0.0
C323 C 0.75931 0.66667 0.08041 0.0
H324 H 0.75177 0.68929 0.96415 0.0
C325 C 0.76215 0.66773 0.02999 0.0
C326 C 0.75108 0.69106 1.00287 0.0
H327 H 0.77173 0.64954 0.01117 0.0
H328 H 0.63904 0.79238 0.93043 0.0
H329 H 0.68153 0.77854 0.98073 0.0
H330 H 0.72544 0.74729 0.85499 0.0
H331 H 0.68349 0.76284 0.80413 0.0
H332 H 0.75107 0.74223 0.93354 0.0
H333 H 0.6976 0.73882 0.01691 0.0
H334 H 0.72453 0.73122 0.09451 0.0
H335 H 0.74409 0.69063 0.14198 0.0
C336 C 0.06777 0.71356 0.39757 0.0
C337 C 0.10153 0.7514 0.40338 0.0
C338 C 0.03569 0.70901 0.37013 0.0
C339 C 0.03671 0.74231 0.34794 0.0
C340 C 0.07049 0.78019 0.35383 0.0
C341 C 0.1025 0.78481 0.38181 0.0
C342 C 0.00436 0.73736 0.31527 0.0
C343 C 0.9664 0.7081 0.32181 0.0
C344 C 0.93465 0.6951 0.28493 0.0
C345 C 0.89551 0.66706 0.29853 0.0
C346 C 0.86604 0.64769 0.26391 0.0
C347 C 0.87508 0.65601 0.21493 0.0
H348 H 0.97279 0.72633 0.22357 0.0
C349 C 0.91337 0.68603 0.20128 0.0
C350 C 0.94304 0.70535 0.23592 0.0
H351 H 0.92106 0.693 0.16368 0.0
H352 H 0.06638 0.68729 0.41357 0.0
H353 H 0.01075 0.67913 0.36502 0.0
H354 H 0.07218 0.80619 0.3366 0.0
H355 H 0.12822 0.81437 0.38589 0.0
H356 H 0.0125 0.75756 0.28478 0.0
H357 H 0.95854 0.69089 0.35504 0.0
H358 H 0.88813 0.65852 0.3359 0.0
H359 H 0.8367 0.6247 0.27538 0.0
C360 C 0.31072 0.09715 0.69912 0.0
C361 C 0.31391 0.09042 0.74809 0.0
C362 C 0.28635 0.0655 0.66904 0.0
C363 C 0.26536 0.02618 0.68719 0.0
C364 C 0.26641 0.01999 0.73689 0.0
C365 C 0.29041 0.05187 0.76718 0.0
C366 C 0.24482 0.99072 0.65545 0.0
C367 C 0.2529 0.99173 0.60817 0.0
C368 C 0.23962 0.95541 0.57874 0.0
C369 C 0.23748 0.95833 0.52864 0.0
C370 C 0.22983 0.92609 0.49923 0.0
C371 C 0.22483 0.8905 0.51942 0.0
H372 H 0.23616 0.91627 0.6373 0.0
C373 C 0.22617 0.88729 0.56964 0.0
C374 C 0.23352 0.91937 0.59901 0.0
H375 H 0.22234 0.86023 0.58637 0.0
H376 H 0.32781 0.12686 0.68374 0.0
H377 H 0.285 0.0722 0.63158 0.0
H378 H 0.25016 0.99013 0.75202 0.0
H379 H 0.29217 0.04596 0.80493 0.0
H380 H 0.22509 0.96219 0.67259 0.0
H381 H 0.27199 0.01991 0.59016 0.0
H382 H 0.24254 0.98593 0.51213 0.0
H383 H 0.22904 0.92953 0.46066 0.0
C384 C 0.1596 0.37565 0.73562 0.0
C385 C 0.15501 0.40137 0.76709 0.0
C386 C 0.1674 0.38517 0.68683 0.0
C387 C 0.17072 0.42069 0.66834 0.0
C388 C 0.16648 0.44653 0.69991 0.0
C389 C 0.15844 0.43688 0.74867 0.0
C390 C 0.1804 0.43255 0.61699 0.0
C391 C 0.17136 0.40596 0.58126 0.0
C392 C 0.18225 0.41725 0.52995 0.0
C393 C 0.16164 0.38845 0.49448 0.0
C394 C 0.17256 0.3967 0.44614 0.0
C395 C 0.20466 0.43396 0.43206 0.0
H396 H 0.23138 0.47759 0.542 0.0
C397 C 0.225 0.46306 0.46743 0.0
C398 C 0.21402 0.45483 0.51584 0.0
H399 H 0.24977 0.49211 0.45776 0.0
H400 H 0.15704 0.34803 0.74871 0.0
H401 H 0.17165 0.36501 0.66407 0.0
H402 H 0.16938 0.4743 0.68682 0.0
H403 H 0.15566 0.45762 0.77213 0.0
H404 H 0.19413 0.46415 0.6085 0.0
H405 H 0.15425 0.37424 0.5895 0.0
H406 H 0.1373 0.35915 0.50427 0.0
H407 H 0.15666 0.37333 0.42001 0.0
C408 C 0.72875 0.15732 0.1261 0.0
C409 C 0.74865 0.18908 0.1585 0.0
C410 C 0.73785 0.16291 0.07697 0.0
C411 C 0.76704 0.20053 0.05923 0.0
C412 C 0.78645 0.23228 0.09162 0.0
C413 C 0.77758 0.22662 0.14064 0.0
C414 C 0.77729 0.20847 1.00728 0.0
C415 C 0.77243 0.18017 0.97543 0.0
C416 C 0.78387 0.18845 0.92365 0.0
C417 C 0.76846 0.15631 0.89135 0.0
C418 C 0.77869 0.16256 0.84258 0.0
C419 C 0.80485 0.20119 0.8249 0.0
H420 H 0.82412 0.25272 0.92934 0.0
C421 C 0.82051 0.23332 0.85725 0.0
C422 C 0.81041 0.22708 0.90597 0.0
H423 H 0.84045 0.26354 0.84491 0.0
H424 H 0.7063 0.12804 0.13878 0.0
H425 H 0.72138 0.13792 0.05312 0.0
H426 H 0.80875 0.26167 0.07898 0.0
H427 H 0.79295 0.2519 0.1645 0.0
H428 H 0.7902 0.23928 0.99563 0.0
H429 H 0.75955 0.1494 0.98747 0.0
H430 H 0.74832 0.12617 0.90386 0.0
H431 H 0.76651 0.13702 0.81887 0.0
C432 C 0.57189 0.76649 0.41325 0.0
C433 C 0.58985 0.79847 0.44576 0.0
C434 C 0.56728 0.77318 0.36482 0.0
C435 C 0.58076 0.81217 0.34749 0.0
C436 C 0.59799 0.84404 0.38013 0.0
C437 C 0.60264 0.83734 0.42861 0.0
C438 C 0.57622 0.82052 0.29614 0.0
C439 C 0.57369 0.79645 0.25968 0.0
C440 C 0.56913 0.80405 0.20806 0.0
C441 C 0.57875 0.78437 0.17283 0.0
C442 C 0.5736 0.78921 0.12401 0.0
C443 C 0.55833 0.81368 0.10902 0.0
H444 H 0.54516 0.84366 0.21898 0.0
C445 C 0.54863 0.83343 0.1442 0.0
C446 C 0.55392 0.82868 0.19315 0.0
H447 H 0.53689 0.85258 0.13392 0.0
H448 H 0.56073 0.73605 0.42539 0.0
H449 H 0.55244 0.74757 0.34144 0.0
H450 H 0.60834 0.87434 0.36798 0.0
H451 H 0.61681 0.86272 0.4525 0.0
H452 H 0.57692 0.84837 0.28826 0.0
H453 H 0.57666 0.77053 0.26748 0.0
H454 H 0.59012 0.76488 0.1831 0.0
H455 H 0.5807 0.77293 0.09805 0.0
C456 C 0.79473 0.54384 0.79539 0.0
C457 C 0.79962 0.57191 0.83058 0.0
C458 C 0.7934 0.55199 0.74657 0.0
C459 C 0.79674 0.58846 0.73176 0.0
C460 C 0.80199 0.61658 0.76695 0.0
C461 C 0.80325 0.6084 0.81572 0.0
C462 C 0.79618 0.59895 0.68021 0.0
C463 C 0.77973 0.5717 0.64483 0.0
C464 C 0.7785 0.58175 0.5932 0.0
C465 C 0.76959 0.55208 0.55867 0.0
C466 C 0.7668 0.55938 0.50998 0.0
C467 C 0.77269 0.59661 0.49443 0.0
H468 H 0.79048 0.6427 0.60277 0.0
C469 C 0.78172 0.62643 0.52887 0.0
C470 C 0.78449 0.61913 0.57766 0.0
H471 H 0.78661 0.65552 0.51816 0.0
H472 H 0.79173 0.51539 0.80558 0.0
H473 H 0.79051 0.52987 0.7208 0.0
H474 H 0.80508 0.64507 0.75671 0.0
H475 H 0.80778 0.63102 0.84174 0.0
H476 H 0.80939 0.63047 0.67179 0.0
H477 H 0.76629 0.5402 0.65364 0.0
H478 H 0.76448 0.5229 0.56941 0.0
H479 H 0.75907 0.53542 0.48465 0.0
C480 C 0.22125 0.75579 0.79927 0.0
C481 C 0.21757 0.77936 0.76326 0.0
C482 C 0.223 0.76589 0.8477 0.0
C483 C 0.22148 0.80013 0.86126 0.0
C484 C 0.21787 0.82369 0.82524 0.0
C485 C 0.21608 0.81355 0.7768 0.0
C486 C 0.22145 0.81105 0.91244 0.0
C487 C 0.23566 0.79851 0.9487 0.0
C488 C 0.23403 0.80809 1.00006 0.0
C489 C 0.26031 0.8056 0.0328 0.0
C490 C 0.25891 0.81315 0.08162 0.0
C491 C 0.23096 0.8231 0.09889 0.0
H492 H 0.18403 0.81856 0.99385 0.0
C493 C 0.20445 0.82531 0.0662 0.0
C494 C 0.20582 0.81776 0.01741 0.0
H495 H 0.18195 0.832 0.0785 0.0
H496 H 0.22276 0.7294 0.79007 0.0
H497 H 0.2246 0.74619 0.87418 0.0
H498 H 0.21618 0.84997 0.83461 0.0
H499 H 0.21265 0.83204 0.75005 0.0
H500 H 0.21026 0.83117 0.92004 0.0
H501 H 0.2503 0.78154 0.9407 0.0
H502 H 0.28212 0.79791 0.02054 0.0
H503 H 0.27996 0.81149 0.10578 0.0
C504 C 0.44525 0.25224 0.46484 0.0
C505 C 0.41899 0.22668 0.50052 0.0
C506 C 0.43688 0.24335 0.41602 0.0
C507 C 0.40195 0.20862 0.40156 0.0
C508 C 0.37522 0.18366 0.43706 0.0
C509 C 0.38372 0.19237 0.48589 0.0
C510 C 0.39214 0.19789 0.34995 0.0
C511 C 0.42014 0.20849 0.31544 0.0
C512 C 0.41089 0.19625 0.26417 0.0
C513 C 0.43971 0.19377 0.23624 0.0
C514 C 0.43241 0.18243 0.188 0.0
C515 C 0.39628 0.17385 0.16617 0.0
H516 H 0.35229 0.19071 0.26218 0.0
C517 C 0.36768 0.17714 0.19374 0.0
C518 C 0.37483 0.18811 0.24226 0.0
H519 H 0.33954 0.17072 0.17797 0.0
H520 H 0.47221 0.27943 0.47456 0.0
H521 H 0.45758 0.2641 0.38979 0.0
H522 H 0.34797 0.15684 0.42703 0.0
H523 H 0.36295 0.17167 0.51214 0.0
H524 H 0.36099 0.17842 0.34088 0.0
H525 H 0.4514 0.2247 0.32549 0.0
H526 H 0.46791 0.20028 0.25193 0.0
H527 H 0.45531 0.18077 0.1676 0.0
C528 C 0.18574 0.49217 0.18354 0.0
C529 C 0.18922 0.49554 0.13334 0.0
C530 C 0.19044 0.52427 0.21121 0.0
C531 C 0.19814 0.56031 0.18904 0.0
C532 C 0.2024 0.56379 0.13884 0.0
C533 C 0.19786 0.53169 0.11121 0.0
C534 C 0.2025 0.59505 0.21681 0.0
C535 C 0.18756 0.59189 0.26135 0.0
C536 C 0.19208 0.62654 0.28922 0.0
C537 C 0.19113 0.62402 0.33953 0.0
C538 C 0.19496 0.65567 0.36734 0.0
C539 C 0.1993 0.69046 0.34541 0.0
H540 H 0.1956 0.66373 0.22839 0.0
C541 C 0.19956 0.69279 0.29496 0.0
C542 C 0.19601 0.66116 0.2671 0.0
H543 H 0.20248 0.71899 0.2769 0.0
H544 H 0.17918 0.46463 0.20151 0.0
H545 H 0.18837 0.5206 0.24982 0.0
H546 H 0.20874 0.59127 0.12082 0.0
H547 H 0.20086 0.53512 0.07252 0.0
H548 H 0.21814 0.62412 0.19938 0.0
H549 H 0.17193 0.56298 0.27905 0.0
H550 H 0.18775 0.59756 0.35748 0.0
H551 H 0.19435 0.65269 0.4061 0.0
C552 C 0.63731 0.15467 0.56832 0.0
C553 C 0.67611 0.16784 0.58528 0.0
C554 C 0.60701 0.14929 0.60014 0.0
C555 C 0.6151 0.15709 0.64947 0.0
C556 C 0.65354 0.16923 0.66639 0.0
C557 C 0.6836 0.17431 0.63484 0.0
C558 C 0.58572 0.15669 0.68378 0.0
C559 C 0.54594 0.13506 0.67821 0.0
C560 C 0.51866 0.13833 0.71278 0.0
C561 C 0.48213 0.10447 0.72485 0.0
C562 C 0.45677 0.10723 0.7585 0.0
C563 C 0.46735 0.1441 0.77973 0.0
H564 H 0.55609 0.20222 0.72391 0.0
C565 C 0.50338 0.17808 0.7667 0.0
C566 C 0.52874 0.17528 0.73355 0.0
H567 H 0.51212 0.20694 0.78228 0.0
H568 H 0.63053 0.14946 0.53038 0.0
H569 H 0.57789 0.14067 0.58569 0.0
H570 H 0.66063 0.17561 0.70416 0.0
H571 H 0.71303 0.18451 0.6494 0.0
H572 H 0.59766 0.17483 0.71585 0.0
H573 H 0.53312 0.11365 0.64916 0.0
H574 H 0.47355 0.07579 0.70888 0.0
H575 H 0.4289 0.08068 0.76768 0.0
C576 C 0.30107 0.48783 0.96958 0.0
C577 C 0.30328 0.48435 0.01965 0.0
C578 C 0.33448 0.51521 0.94347 0.0
C579 C 0.37089 0.53961 0.96685 0.0
C580 C 0.37362 0.53505 0.01649 0.0
C581 C 0.34003 0.50794 0.0428 0.0
C582 C 0.40606 0.57044 0.94014 0.0
C583 C 0.40219 0.59184 0.90445 0.0
C584 C 0.43639 0.62446 0.87841 0.0
C585 C 0.43249 0.65623 0.86036 0.0
C586 C 0.46325 0.68686 0.83399 0.0
C587 C 0.49826 0.68589 0.82421 0.0
H588 H 0.47524 0.59912 0.88192 0.0
C589 C 0.50235 0.65414 0.84211 0.0
C590 C 0.47169 0.62368 0.86928 0.0
H591 H 0.52907 0.65275 0.83492 0.0
H592 H 0.27335 0.46993 0.95049 0.0
H593 H 0.33172 0.51725 0.90497 0.0
H594 H 0.4015 0.55328 0.03517 0.0
H595 H 0.34284 0.50568 0.08125 0.0
H596 H 0.43552 0.57775 0.95252 0.0
H597 H 0.37276 0.58708 0.89589 0.0
H598 H 0.40552 0.65739 0.86672 0.0
H599 H 0.45926 0.71096 0.82049 0.0
C600 C 0.83325 0.33065 0.42018 0.0
C601 C 0.79913 0.29814 0.44025 0.0
C602 C 0.82962 0.3549 0.38549 0.0
C603 C 0.79174 0.34695 0.37022 0.0
C604 C 0.75771 0.31425 0.39002 0.0
C605 C 0.76135 0.29044 0.42529 0.0
C606 C 0.78689 0.37252 0.33416 0.0
C607 C 0.81095 0.41239 0.33321 0.0
C608 C 0.80348 0.4388 0.30157 0.0
C609 C 0.81004 0.47527 0.31986 0.0
C610 C 0.80254 0.50064 0.29163 0.0
C611 C 0.78941 0.49057 0.24397 0.0
H612 H 0.78586 0.40088 0.23859 0.0
C613 C 0.7839 0.45458 0.225 0.0
C614 C 0.79045 0.42859 0.25381 0.0
H615 H 0.774 0.44629 0.18828 0.0
H616 H 0.86275 0.33718 0.43102 0.0
H617 H 0.85644 0.37952 0.37024 0.0
H618 H 0.72822 0.30762 0.37892 0.0
H619 H 0.73456 0.26598 0.44087 0.0
H620 H 0.76079 0.35877 0.31108 0.0
H621 H 0.83442 0.42654 0.35989 0.0
H622 H 0.82034 0.48386 0.35643 0.0
H623 H 0.80762 0.5285 0.30697 0.0
C624 C 0.31784 0.79626 0.48379 0.0
C625 C 0.31983 0.83044 0.46332 0.0
C626 C 0.34725 0.7998 0.51557 0.0
C627 C 0.37962 0.8376 0.52674 0.0
C628 C 0.3826 0.87166 0.5046 0.0
C629 C 0.35266 0.86818 0.47351 0.0
C630 C 0.41111 0.84168 0.56014 0.0
C631 C 0.40254 0.81893 0.59995 0.0
C632 C 0.43356 0.81978 0.63175 0.0
C633 C 0.4252 0.81077 0.68076 0.0
C634 C 0.45272 0.8081 0.71078 0.0
C635 C 0.48864 0.8134 0.69191 0.0
H636 H 0.47698 0.83225 0.57532 0.0
C637 C 0.49717 0.82286 0.64294 0.0
C638 C 0.47001 0.8262 0.61318 0.0
H639 H 0.52465 0.82716 0.62738 0.0
H640 H 0.29338 0.76674 0.47554 0.0
H641 H 0.34489 0.77289 0.53091 0.0
H642 H 0.40764 0.90103 0.5122 0.0
H643 H 0.35503 0.89499 0.45784 0.0
H644 H 0.44168 0.86453 0.55245 0.0
H645 H 0.37157 0.79911 0.60992 0.0
H646 H 0.39713 0.80535 0.69574 0.0
H647 H 0.44525 0.80051 0.74832 0.0
C648 C 0.63052 0.48402 0.11508 0.0
C649 C 0.67101 0.50937 0.10471 0.0
C650 C 0.60548 0.45609 0.0813 0.0
C651 C 0.62063 0.45293 0.03655 0.0
C652 C 0.66072 0.47975 0.02546 0.0
C653 C 0.68571 0.50767 0.05929 0.0
C654 C 0.59561 0.42191 1.00094 0.0
C655 C 0.56449 0.38633 0.014 0.0
C656 C 0.54016 0.35345 0.98003 0.0
C657 C 0.51652 0.31484 0.9989 0.0
C658 C 0.49241 0.28293 0.96899 0.0
C659 C 0.49117 0.28885 0.91927 0.0
H660 H 0.55592 0.38892 0.91423 0.0
C661 C 0.51487 0.32746 0.90015 0.0
C662 C 0.53902 0.35952 0.93021 0.0
H663 H 0.51432 0.33312 0.86208 0.0
H664 H 0.61834 0.4853 0.14961 0.0
H665 H 0.57436 0.43711 0.09045 0.0
H666 H 0.67299 0.47853 0.99096 0.0
H667 H 0.71653 0.52784 0.04997 0.0
H668 H 0.60515 0.42759 0.96368 0.0
H669 H 0.55762 0.37981 0.05193 0.0
H670 H 0.51661 0.30925 0.0371 0.0
H671 H 0.47451 0.25364 0.98512 0.0
loop_
_geom_bond_atom_site_label_1
_geom_bond_atom_site_label_2
_geom_bond_distance
_geom_bond_site_symmetry_2
_ccdc_geom_bond_type
Pr0 C2 2.880 . S
Pr0 O20 2.562 . S
Pr0 O21 2.490 . S
Pr0 O22 2.695 . S
Pr0 O23 2.512 . S
Pr0 O25 2.437 . S
Pr0 O28 2.436 . S
Pr0 O30 2.438 . S
Pr1 C11 2.880 . S
Pr1 O22 2.436 1_556 S
Pr1 O24 2.438 1_556 S
Pr1 O26 2.562 . S
Pr1 O27 2.490 . S
Pr1 O28 2.695 1_556 S
Pr1 O29 2.512 1_556 S
Pr1 O31 2.437 . S
C2 Pr0 2.880 . S
C2 C3 1.491 . S
C2 O20 1.254 . S
C2 O21 1.225 . S
C3 C2 1.491 . S
C3 C4 1.392 . S
C3 C8 1.356 . S
C4 C3 1.392 . S
C4 C5 1.368 . S
C4 H32 0.929 . S
C5 C4 1.368 . S
C5 C6 1.386 . S
C5 H33 0.929 . S
C6 C5 1.386 . S
C6 C7 1.373 . S
C7 C6 1.373 . S
C7 C8 1.409 . S
C7 H34 0.931 . S
C8 C3 1.356 . S
C8 C7 1.409 . S
C8 H35 0.930 . S
C9 O22 1.270 . S
C9 O23 1.248 . S
C10 O24 1.267 . S
C10 O25 1.278 . S
C11 Pr1 2.880 . S
C11 C12 1.491 . S
C11 O26 1.254 . S
C11 O27 1.225 . S
C12 C11 1.491 . S
C12 C13 1.392 . S
C12 C17 1.356 . S
C13 C12 1.392 . S
C13 C14 1.368 . S
C13 H36 0.929 . S
C14 C13 1.368 . S
C14 C15 1.386 . S
C14 H37 0.929 . S
C15 C14 1.386 . S
C15 C16 1.373 . S
C16 C15 1.373 . S
C16 C17 1.409 . S
C16 H38 0.931 . S
C17 C12 1.356 . S
C17 C16 1.409 . S
C17 H39 0.930 . S
C18 O28 1.270 . S
C18 O29 1.248 . S
C19 O30 1.267 1_556 S
C19 O31 1.278 . S
O20 Pr0 2.562 . S
O20 C2 1.254 . S
O21 Pr0 2.490 . S
O21 C2 1.225 . S
O22 Pr0 2.695 . S
O22 Pr1 2.436 1_554 S
O22 C9 1.270 . S
O23 Pr0 2.512 . S
O23 C9 1.248 . S
O24 Pr1 2.438 1_554 S
O24 C10 1.267 . S
O25 Pr0 2.437 . S
O25 C10 1.278 . S
O26 Pr1 2.562 . S
O26 C11 1.254 . S
O27 Pr1 2.490 . S
O27 C11 1.225 . S
O28 Pr0 2.436 . S
O28 Pr1 2.695 1_554 S
O28 C18 1.270 . S
O29 Pr1 2.512 1_554 S
O29 C18 1.248 . S
O30 Pr0 2.438 . S
O30 C19 1.267 1_554 S
O31 Pr1 2.437 . S
O31 C19 1.278 . S
H32 C4 0.929 . S
H33 C5 0.929 . S
H34 C7 0.931 . S
H35 C8 0.930 . S
H36 C13 0.929 . S
H37 C14 0.929 . S
H38 C16 0.931 . S
H39 C17 0.930 . S
Pr40 C42 2.880 . S
Pr40 O60 2.562 . S
Pr40 O61 2.490 . S
Pr40 O62 2.695 . S
Pr40 O63 2.512 . S
Pr40 O65 2.437 . S
Pr40 O68 2.436 . S
Pr40 O70 2.438 . S
Pr41 C51 2.880 . S
Pr41 O62 2.436 . S
Pr41 O64 2.438 . S
Pr41 O66 2.562 . S
Pr41 O67 2.490 . S
Pr41 O68 2.695 . S
Pr41 O69 2.512 . S
Pr41 O71 2.437 . S
C42 Pr40 2.880 . S
C42 C43 1.491 . S
C42 O60 1.254 . S
C42 O61 1.225 . S
C43 C42 1.491 . S
C43 C44 1.392 . S
C43 C48 1.356 . S
C44 C43 1.392 . S
C44 C45 1.368 . S
C44 H72 0.929 . S
C45 C44 1.368 . S
C45 C46 1.386 . S
C45 H73 0.929 . S
C46 C45 1.386 . S
C46 C47 1.373 . S
C47 C46 1.373 . S
C47 C48 1.409 . S
C47 H74 0.931 . S
C48 C43 1.356 . S
C48 C47 1.409 . S
C48 H75 0.930 . S
C49 O62 1.270 . S
C49 O63 1.248 . S
C50 O64 1.267 . S
C50 O65 1.278 . S
C51 Pr41 2.880 . S
C51 C52 1.491 . S
C51 O66 1.254 . S
C51 O67 1.225 . S
C52 C51 1.491 . S
C52 C53 1.392 . S
C52 C57 1.356 . S
C53 C52 1.392 . S
C53 C54 1.368 . S
C53 H76 0.929 . S
C54 C53 1.368 . S
C54 C55 1.386 . S
C54 H77 0.929 . S
C55 C54 1.386 . S
C55 C56 1.373 . S
C56 C55 1.373 . S
C56 C57 1.409 . S
C56 H78 0.931 . S
C57 C52 1.356 . S
C57 C56 1.409 . S
C57 H79 0.930 . S
C58 O68 1.270 . S
C58 O69 1.248 . S
C59 O70 1.267 . S
C59 O71 1.278 . S
O60 Pr40 2.562 . S
O60 C42 1.254 . S
O61 Pr40 2.490 . S
O61 C42 1.225 . S
O62 Pr40 2.695 . S
O62 Pr41 2.436 . S
O62 C49 1.270 . S
O63 Pr40 2.512 . S
O63 C49 1.248 . S
O64 Pr41 2.438 . S
O64 C50 1.267 . S
O65 Pr40 2.437 . S
O65 C50 1.278 . S
O66 Pr41 2.562 . S
O66 C51 1.254 . S
O67 Pr41 2.490 . S
O67 C51 1.225 . S
O68 Pr40 2.436 . S
O68 Pr41 2.695 . S
O68 C58 1.270 . S
O69 Pr41 2.512 . S
O69 C58 1.248 . S
O70 Pr40 2.438 . S
O70 C59 1.267 . S
O71 Pr41 2.437 . S
O71 C59 1.278 . S
H72 C44 0.929 . S
H73 C45 0.929 . S
H74 C47 0.931 . S
H75 C48 0.930 . S
H76 C53 0.929 . S
H77 C54 0.929 . S
H78 C56 0.931 . S
H79 C57 0.930 . S
Pr80 C82 2.880 . S
Pr80 O100 2.562 . S
Pr80 O101 2.490 . S
Pr80 O102 2.695 . S
Pr80 O103 2.512 . S
Pr80 O105 2.437 . S
Pr80 O108 2.436 . S
Pr80 O110 2.438 . S
Pr81 C91 2.880 . S
Pr81 O102 2.436 . S
Pr81 O104 2.438 . S
Pr81 O106 2.562 . S
Pr81 O107 2.490 . S
Pr81 O108 2.695 . S
Pr81 O109 2.512 . S
Pr81 O111 2.437 . S
C82 Pr80 2.880 . S
C82 C83 1.491 . S
C82 O100 1.254 . S
C82 O101 1.225 . S
C83 C82 1.491 . S
C83 C84 1.392 . S
C83 C88 1.356 . S
C84 C83 1.392 . S
C84 C85 1.368 . S
C84 H112 0.929 . S
C85 C84 1.368 . S
C85 C86 1.386 1_556 S
C85 H113 0.929 . S
C86 C85 1.386 1_554 S
C86 C87 1.373 1_554 S
C87 C86 1.373 1_556 S
C87 C88 1.409 . S
C87 H114 0.931 1_556 S
C88 C83 1.356 . S
C88 C87 1.409 . S
C88 H115 0.930 . S
C89 O102 1.270 . S
C89 O103 1.248 . S
C90 O104 1.267 . S
C90 O105 1.278 . S
C91 Pr81 2.880 . S
C91 C92 1.491 . S
C91 O106 1.254 . S
C91 O107 1.225 . S
C92 C91 1.491 . S
C92 C93 1.392 . S
C92 C97 1.356 . S
C93 C92 1.392 . S
C93 C94 1.368 . S
C93 H116 0.929 . S
C94 C93 1.368 . S
C94 C95 1.386 . S
C94 H117 0.929 . S
C95 C94 1.386 . S
C95 C96 1.373 . S
C96 C95 1.373 . S
C96 C97 1.409 . S
C96 H118 0.931 . S
C97 C92 1.356 . S
C97 C96 1.409 . S
C97 H119 0.930 . S
C98 O108 1.270 . S
C98 O109 1.248 . S
C99 O110 1.267 . S
C99 O111 1.278 . S
O100 Pr80 2.562 . S
O100 C82 1.254 . S
O101 Pr80 2.490 . S
O101 C82 1.225 . S
O102 Pr80 2.695 . S
O102 Pr81 2.436 . S
O102 C89 1.270 . S
O103 Pr80 2.512 . S
O103 C89 1.248 . S
O104 Pr81 2.438 . S
O104 C90 1.267 . S
O105 Pr80 2.437 . S
O105 C90 1.278 . S
O106 Pr81 2.562 . S
O106 C91 1.254 . S
O107 Pr81 2.490 . S
O107 C91 1.225 . S
O108 Pr80 2.436 . S
O108 Pr81 2.695 . S
O108 C98 1.270 . S
O109 Pr81 2.512 . S
O109 C98 1.248 . S
O110 Pr80 2.438 . S
O110 C99 1.267 . S
O111 Pr81 2.437 . S
O111 C99 1.278 . S
H112 C84 0.929 . S
H113 C85 0.929 . S
H114 C87 0.931 1_554 S
H115 C88 0.930 . S
H116 C93 0.929 . S
H117 C94 0.929 . S
H118 C96 0.931 . S
H119 C97 0.930 . S
Pr120 C122 2.880 . S
Pr120 O140 2.562 . S
Pr120 O141 2.490 . S
Pr120 O142 2.695 . S
Pr120 O143 2.512 . S
Pr120 O145 2.437 . S
Pr120 O148 2.436 . S
Pr120 O150 2.438 . S
Pr121 C131 2.880 . S
Pr121 O142 2.436 . S
Pr121 O144 2.438 . S
Pr121 O146 2.562 . S
Pr121 O147 2.490 . S
Pr121 O148 2.695 . S
Pr121 O149 2.512 . S
Pr121 O151 2.437 . S
C122 Pr120 2.880 . S
C122 C123 1.491 . S
C122 O140 1.254 . S
C122 O141 1.225 . S
C123 C122 1.491 . S
C123 C124 1.392 1_554 S
C123 C128 1.356 1_554 S
C124 C123 1.392 1_556 S
C124 C125 1.368 . S
C124 H152 0.929 1_556 S
C125 C124 1.368 . S
C125 C126 1.386 . S
C125 H153 0.929 . S
C126 C125 1.386 . S
C126 C127 1.373 . S
C127 C126 1.373 . S
C127 C128 1.409 . S
C127 H154 0.931 . S
C128 C123 1.356 1_556 S
C128 C127 1.409 . S
C128 H155 0.930 . S
C129 O142 1.270 . S
C129 O143 1.248 . S
C130 O144 1.267 . S
C130 O145 1.278 . S
C131 Pr121 2.880 . S
C131 C132 1.491 . S
C131 O146 1.254 . S
C131 O147 1.225 . S
C132 C131 1.491 . S
C132 C133 1.392 . S
C132 C137 1.356 . S
C133 C132 1.392 . S
C133 C134 1.368 . S
C133 H156 0.929 . S
C134 C133 1.368 . S
C134 C135 1.386 . S
C134 H157 0.929 . S
C135 C134 1.386 . S
C135 C136 1.373 . S
C136 C135 1.373 . S
C136 C137 1.409 . S
C136 H158 0.931 . S
C137 C132 1.356 . S
C137 C136 1.409 . S
C137 H159 0.930 . S
C138 O148 1.270 . S
C138 O149 1.248 . S
C139 O150 1.267 . S
C139 O151 1.278 . S
O140 Pr120 2.562 . S
O140 C122 1.254 . S
O141 Pr120 2.490 . S
O141 C122 1.225 . S
O142 Pr120 2.695 . S
O142 Pr121 2.436 . S
O142 C129 1.270 . S
O143 Pr120 2.512 . S
O143 C129 1.248 . S
O144 Pr121 2.438 . S
O144 C130 1.267 . S
O145 Pr120 2.437 . S
O145 C130 1.278 . S
O146 Pr121 2.562 . S
O146 C131 1.254 . S
O147 Pr121 2.490 . S
O147 C131 1.225 . S
O148 Pr120 2.436 . S
O148 Pr121 2.695 . S
O148 C138 1.270 . S
O149 Pr121 2.512 . S
O149 C138 1.248 . S
O150 Pr120 2.438 . S
O150 C139 1.267 . S
O151 Pr121 2.437 . S
O151 C139 1.278 . S
H152 C124 0.929 1_554 S
H153 C125 0.929 . S
H154 C127 0.931 . S
H155 C128 0.930 . S
H156 C133 0.929 . S
H157 C134 0.929 . S
H158 C136 0.931 . S
H159 C137 0.930 . S
Pr160 C162 2.880 . S
Pr160 O180 2.562 . S
Pr160 O181 2.490 . S
Pr160 O182 2.695 . S
Pr160 O183 2.512 . S
Pr160 O185 2.437 . S
Pr160 O188 2.436 . S
Pr160 O190 2.438 . S
Pr161 C171 2.880 . S
Pr161 O182 2.436 . S
Pr161 O184 2.438 . S
Pr161 O186 2.562 . S
Pr161 O187 2.490 . S
Pr161 O188 2.695 . S
Pr161 O189 2.512 . S
Pr161 O191 2.437 . S
C162 Pr160 2.880 . S
C162 C163 1.491 . S
C162 O180 1.254 . S
C162 O181 1.225 . S
C163 C162 1.491 . S
C163 C164 1.392 . S
C163 C168 1.356 . S
C164 C163 1.392 . S
C164 C165 1.368 . S
C164 H192 0.929 . S
C165 C164 1.368 . S
C165 C166 1.386 . S
C165 H193 0.929 . S
C166 C165 1.386 . S
C166 C167 1.373 . S
C167 C166 1.373 . S
C167 C168 1.409 . S
C167 H194 0.931 . S
C168 C163 1.356 . S
C168 C167 1.409 . S
C168 H195 0.930 . S
C169 O182 1.270 . S
C169 O183 1.248 . S
C170 O184 1.267 . S
C170 O185 1.278 . S
C171 Pr161 2.880 . S
C171 C172 1.491 . S
C171 O186 1.254 . S
C171 O187 1.225 . S
C172 C171 1.491 . S
C172 C173 1.392 . S
C172 C177 1.356 . S
C173 C172 1.392 . S
C173 C174 1.368 . S
C173 H196 0.929 . S
C174 C173 1.368 . S
C174 C175 1.386 . S
C174 H197 0.929 . S
C175 C174 1.386 . S
C175 C176 1.373 . S
C176 C175 1.373 . S
C176 C177 1.409 . S
C176 H198 0.931 . S
C177 C172 1.356 . S
C177 C176 1.409 . S
C177 H199 0.930 . S
C178 O188 1.270 . S
C178 O189 1.248 . S
C179 O190 1.267 . S
C179 O191 1.278 . S
O180 Pr160 2.562 . S
O180 C162 1.254 . S
O181 Pr160 2.490 . S
O181 C162 1.225 . S
O182 Pr160 2.695 . S
O182 Pr161 2.436 . S
O182 C169 1.270 . S
O183 Pr160 2.512 . S
O183 C169 1.248 . S
O184 Pr161 2.438 . S
O184 C170 1.267 . S
O185 Pr160 2.437 . S
O185 C170 1.278 . S
O186 Pr161 2.562 . S
O186 C171 1.254 . S
O187 Pr161 2.490 . S
O187 C171 1.225 . S
O188 Pr160 2.436 . S
O188 Pr161 2.695 . S
O188 C178 1.270 . S
O189 Pr161 2.512 . S
O189 C178 1.248 . S
O190 Pr160 2.438 . S
O190 C179 1.267 . S
O191 Pr161 2.437 . S
O191 C179 1.278 . S
H192 C164 0.929 . S
H193 C165 0.929 . S
H194 C167 0.931 . S
H195 C168 0.930 . S
H196 C173 0.929 . S
H197 C174 0.929 . S
H198 C176 0.931 . S
H199 C177 0.930 . S
Pr200 C202 2.880 . S
Pr200 O220 2.562 . S
Pr200 O221 2.490 . S
Pr200 O222 2.695 . S
Pr200 O223 2.512 . S
Pr200 O225 2.437 . S
Pr200 O228 2.436 . S
Pr200 O230 2.438 . S
Pr201 C211 2.880 1_556 S
Pr201 O222 2.436 . S
Pr201 O224 2.438 . S
Pr201 O226 2.562 1_556 S
Pr201 O227 2.490 1_556 S
Pr201 O228 2.695 . S
Pr201 O229 2.512 . S
Pr201 O231 2.437 . S
C202 Pr200 2.880 . S
C202 C203 1.491 . S
C202 O220 1.254 . S
C202 O221 1.225 . S
C203 C202 1.491 . S
C203 C204 1.392 . S
C203 C208 1.356 . S
C204 C203 1.392 . S
C204 C205 1.368 . S
C204 H232 0.929 . S
C205 C204 1.368 . S
C205 C206 1.386 . S
C205 H233 0.929 . S
C206 C205 1.386 . S
C206 C207 1.373 . S
C207 C206 1.373 . S
C207 C208 1.409 . S
C207 H234 0.931 . S
C208 C203 1.356 . S
C208 C207 1.409 . S
C208 H235 0.930 . S
C209 O222 1.270 . S
C209 O223 1.248 . S
C210 O224 1.267 . S
C210 O225 1.278 . S
C211 Pr201 2.880 1_554 S
C211 C212 1.491 . S
C211 O226 1.254 . S
C211 O227 1.225 . S
C212 C211 1.491 . S
C212 C213 1.392 . S
C212 C217 1.356 . S
C213 C212 1.392 . S
C213 C214 1.368 . S
C213 H236 0.929 . S
C214 C213 1.368 . S
C214 C215 1.386 . S
C214 H237 0.929 . S
C215 C214 1.386 . S
C215 C216 1.373 . S
C216 C215 1.373 . S
C216 C217 1.409 . S
C216 H238 0.931 . S
C217 C212 1.356 . S
C217 C216 1.409 . S
C217 H239 0.930 . S
C218 O228 1.270 . S
C218 O229 1.248 . S
C219 O230 1.267 . S
C219 O231 1.278 . S
O220 Pr200 2.562 . S
O220 C202 1.254 . S
O221 Pr200 2.490 . S
O221 C202 1.225 . S
O222 Pr200 2.695 . S
O222 Pr201 2.436 . S
O222 C209 1.270 . S
O223 Pr200 2.512 . S
O223 C209 1.248 . S
O224 Pr201 2.438 . S
O224 C210 1.267 . S
O225 Pr200 2.437 . S
O225 C210 1.278 . S
O226 Pr201 2.562 1_554 S
O226 C211 1.254 . S
O227 Pr201 2.490 1_554 S
O227 C211 1.225 . S
O228 Pr200 2.436 . S
O228 Pr201 2.695 . S
O228 C218 1.270 . S
O229 Pr201 2.512 . S
O229 C218 1.248 . S
O230 Pr200 2.438 . S
O230 C219 1.267 . S
O231 Pr201 2.437 . S
O231 C219 1.278 . S
H232 C204 0.929 . S
H233 C205 0.929 . S
H234 C207 0.931 . S
H235 C208 0.930 . S
H236 C213 0.929 . S
H237 C214 0.929 . S
H238 C216 0.931 . S
H239 C217 0.930 . S
C240 C241 1.386 . S
C240 C242 1.383 . S
C240 H256 0.951 . S
C241 C240 1.386 . S
C241 C245 1.383 . S
C242 C240 1.383 . S
C242 C243 1.402 . S
C242 H257 0.951 . S
C243 C242 1.402 . S
C243 C244 1.375 . S
C243 C246 1.481 . S
C244 C243 1.375 . S
C244 C245 1.367 . S
C244 H258 0.951 . S
C245 C241 1.383 . S
C245 C244 1.367 . S
C245 H259 0.950 . S
C246 C243 1.481 . S
C246 C247 1.297 . S
C246 H260 0.950 . S
C247 C246 1.297 . S
C247 C248 1.479 . S
C247 H261 0.950 1_556 S
C248 C247 1.479 . S
C248 C249 1.375 1_556 S
C248 C254 1.404 . S
C249 C248 1.375 1_554 S
C249 C250 1.369 . S
C249 H262 0.950 . S
C250 C249 1.369 . S
C250 C251 1.392 . S
C250 H263 0.951 . S
C251 C250 1.392 . S
C251 C253 1.384 1_554 S
H252 C254 0.949 . S
C253 C251 1.384 1_556 S
C253 C254 1.385 . S
C253 H255 0.950 . S
C254 C248 1.404 . S
C254 H252 0.949 . S
C254 C253 1.385 . S
H255 C253 0.950 . S
H256 C240 0.951 . S
H257 C242 0.951 . S
H258 C244 0.951 . S
H259 C245 0.950 . S
H260 C246 0.950 . S
H261 C247 0.950 1_554 S
H262 C249 0.950 . S
H263 C250 0.951 . S
C264 C265 1.386 . S
C264 C266 1.383 . S
C264 H280 0.951 . S
C265 C264 1.386 . S
C265 C269 1.383 . S
C266 C264 1.383 . S
C266 C267 1.402 . S
C266 H281 0.951 . S
C267 C266 1.402 . S
C267 C268 1.377 . S
C267 C270 1.481 1_455 S
C268 C267 1.377 . S
C268 C269 1.369 . S
C268 H282 0.947 1_455 S
C269 C265 1.383 . S
C269 C268 1.369 . S
C269 H283 0.950 . S
C270 C267 1.481 1_655 S
C270 C271 1.297 1_655 S
C270 H284 0.950 . S
C271 C270 1.297 1_455 S
C271 C272 1.479 1_455 S
C271 H285 0.950 . S
C272 C271 1.479 1_655 S
C272 C273 1.375 . S
C272 C278 1.404 . S
C273 C272 1.375 . S
C273 C274 1.369 . S
C273 H286 0.950 1_655 S
C274 C273 1.369 . S
C274 C275 1.392 . S
C274 H287 0.951 . S
C275 C274 1.392 . S
C275 C277 1.384 . S
H276 C278 0.949 . S
C277 C275 1.384 . S
C277 C278 1.385 . S
C277 H279 0.950 . S
C278 C272 1.404 . S
C278 H276 0.949 . S
C278 C277 1.385 . S
H279 C277 0.950 . S
H280 C264 0.951 . S
H281 C266 0.951 . S
H282 C268 0.947 1_655 S
H283 C269 0.950 . S
H284 C270 0.950 . S
H285 C271 0.950 . S
H286 C273 0.950 1_455 S
H287 C274 0.951 . S
C288 C289 1.386 . S
C288 C290 1.383 . S
C288 H304 0.951 . S
C289 C288 1.386 . S
C289 C293 1.383 . S
C290 C288 1.383 . S
C290 C291 1.402 . S
C290 H305 0.951 . S
C291 C290 1.402 . S
C291 C292 1.375 . S
C291 C294 1.481 . S
C292 C291 1.375 . S
C292 C293 1.367 . S
C292 H306 0.951 . S
C293 C289 1.383 . S
C293 C292 1.367 . S
C293 H307 0.950 . S
C294 C291 1.481 . S
C294 C295 1.297 1_545 S
C294 H308 0.950 1_545 S
C295 C294 1.297 1_565 S
C295 C296 1.479 . S
C295 H309 0.950 1_565 S
C296 C295 1.479 . S
C296 C297 1.375 . S
C296 C302 1.404 . S
C297 C296 1.375 . S
C297 C298 1.369 . S
C297 H310 0.950 . S
C298 C297 1.369 . S
C298 C299 1.392 . S
C298 H311 0.951 . S
C299 C298 1.392 . S
C299 C301 1.384 . S
H300 C302 0.949 . S
C301 C299 1.384 . S
C301 C302 1.385 . S
C301 H303 0.950 . S
C302 C296 1.404 . S
C302 H300 0.949 . S
C302 C301 1.385 . S
H303 C301 0.950 . S
H304 C288 0.951 . S
H305 C290 0.951 . S
H306 C292 0.951 . S
H307 C293 0.950 . S
H308 C294 0.950 1_565 S
H309 C295 0.950 1_545 S
H310 C297 0.950 . S
H311 C298 0.951 . S
C312 C313 1.386 . S
C312 C314 1.383 . S
C312 H328 0.951 . S
C313 C312 1.386 . S
C313 C317 1.383 . S
C314 C312 1.383 . S
C314 C315 1.402 . S
C314 H329 0.951 . S
C315 C314 1.402 . S
C315 C316 1.375 . S
C315 C318 1.481 . S
C316 C315 1.375 . S
C316 C317 1.367 . S
C316 H330 0.951 . S
C317 C313 1.383 . S
C317 C316 1.367 . S
C317 H331 0.950 . S
C318 C315 1.481 . S
C318 C319 1.297 . S
C318 H332 0.950 . S
C319 C318 1.297 . S
C319 C320 1.479 1_556 S
C319 H333 0.950 . S
C320 C319 1.479 1_554 S
C320 C321 1.375 . S
C320 C326 1.404 . S
C321 C320 1.375 . S
C321 C322 1.369 . S
C321 H334 0.950 . S
C322 C321 1.369 . S
C322 C323 1.392 . S
C322 H335 0.951 . S
C323 C322 1.392 . S
C323 C325 1.384 . S
H324 C326 0.949 . S
C325 C323 1.384 . S
C325 C326 1.385 . S
C325 H327 0.950 . S
C326 C320 1.404 . S
C326 H324 0.949 . S
C326 C325 1.385 . S
H327 C325 0.950 . S
H328 C312 0.951 . S
H329 C314 0.951 . S
H330 C316 0.951 . S
H331 C317 0.950 . S
H332 C318 0.950 . S
H333 C319 0.950 . S
H334 C321 0.950 . S
H335 C322 0.951 . S
C336 C337 1.386 . S
C336 C338 1.383 . S
C336 H352 0.951 . S
C337 C336 1.386 . S
C337 C341 1.383 . S
C338 C336 1.383 . S
C338 C339 1.402 . S
C338 H353 0.951 . S
C339 C338 1.402 . S
C339 C340 1.375 . S
C339 C342 1.481 . S
C340 C339 1.375 . S
C340 C341 1.367 . S
C340 H354 0.951 . S
C341 C337 1.383 . S
C341 C340 1.367 . S
C341 H355 0.950 . S
C342 C339 1.481 . S
C342 C343 1.297 1_455 S
C342 H356 0.950 1_455 S
C343 C342 1.297 1_655 S
C343 C344 1.479 . S
C343 H357 0.950 . S
C344 C343 1.479 . S
C344 C345 1.375 . S
C344 C350 1.404 . S
C345 C344 1.375 . S
C345 C346 1.369 . S
C345 H358 0.950 . S
C346 C345 1.369 . S
C346 C347 1.392 . S
C346 H359 0.951 . S
C347 C346 1.392 . S
C347 C349 1.384 . S
H348 C350 0.949 . S
C349 C347 1.384 . S
C349 C350 1.385 . S
C349 H351 0.950 . S
C350 C344 1.404 . S
C350 H348 0.949 . S
C350 C349 1.385 . S
H351 C349 0.950 . S
H352 C336 0.951 . S
H353 C338 0.951 . S
H354 C340 0.951 . S
H355 C341 0.950 . S
H356 C342 0.950 1_655 S
H357 C343 0.950 . S
H358 C345 0.950 . S
H359 C346 0.951 . S
C360 C361 1.386 . S
C360 C362 1.383 . S
C360 H376 0.951 . S
C361 C360 1.386 . S
C361 C365 1.383 . S
C362 C360 1.383 . S
C362 C363 1.402 . S
C362 H377 0.951 1_545 S
C363 C362 1.402 . S
C363 C364 1.375 . S
C363 C366 1.481 . S
C364 C363 1.375 . S
C364 C365 1.367 . S
C364 H378 0.951 . S
C365 C361 1.383 . S
C365 C364 1.367 . S
C365 H379 0.950 . S
C366 C363 1.481 . S
C366 C367 1.297 1_545 S
C366 H380 0.950 . S
C367 C366 1.297 1_565 S
C367 C368 1.479 . S
C367 H381 0.950 . S
C368 C367 1.479 . S
C368 C369 1.375 . S
C368 C374 1.404 . S
C369 C368 1.375 . S
C369 C370 1.369 . S
C369 H382 0.950 . S
C370 C369 1.369 . S
C370 C371 1.392 . S
C370 H383 0.951 . S
C371 C370 1.392 . S
C371 C373 1.384 . S
H372 C374 0.949 1_545 S
C373 C371 1.384 . S
C373 C374 1.385 . S
C373 H375 0.950 . S
C374 C368 1.404 . S
C374 H372 0.949 1_565 S
C374 C373 1.385 . S
H375 C373 0.950 . S
H376 C360 0.951 . S
H377 C362 0.951 1_565 S
H378 C364 0.951 . S
H379 C365 0.950 . S
H380 C366 0.950 . S
H381 C367 0.950 . S
H382 C369 0.950 . S
H383 C370 0.951 . S
C384 C385 1.386 . S
C384 C386 1.383 . S
C384 H400 0.951 . S
C385 C384 1.386 . S
C385 C389 1.383 . S
C386 C384 1.383 . S
C386 C387 1.402 . S
C386 H401 0.951 . S
C387 C386 1.402 . S
C387 C388 1.375 . S
C387 C390 1.481 . S
C388 C387 1.375 . S
C388 C389 1.367 . S
C388 H402 0.951 . S
C389 C385 1.383 . S
C389 C388 1.367 . S
C389 H403 0.950 . S
C390 C387 1.481 . S
C390 C391 1.297 . S
C390 H404 0.950 . S
C391 C390 1.297 . S
C391 C392 1.479 . S
C391 H405 0.950 . S
C392 C391 1.479 . S
C392 C393 1.375 . S
C392 C398 1.404 . S
C393 C392 1.375 . S
C393 C394 1.369 . S
C393 H406 0.950 . S
C394 C393 1.369 . S
C394 C395 1.392 . S
C394 H407 0.951 . S
C395 C394 1.392 . S
C395 C397 1.384 . S
H396 C398 0.949 . S
C397 C395 1.384 . S
C397 C398 1.385 . S
C397 H399 0.950 . S
C398 C392 1.404 . S
C398 H396 0.949 . S
C398 C397 1.385 . S
H399 C397 0.950 . S
H400 C384 0.951 . S
H401 C386 0.951 . S
H402 C388 0.951 . S
H403 C389 0.950 . S
H404 C390 0.950 . S
H405 C391 0.950 . S
H406 C393 0.950 . S
H407 C394 0.951 . S
C408 C409 1.386 . S
C408 C410 1.383 . S
C408 H424 0.951 . S
C409 C408 1.386 . S
C409 C413 1.383 . S
C410 C408 1.383 . S
C410 C411 1.402 . S
C410 H425 0.951 . S
C411 C410 1.402 . S
C411 C412 1.375 . S
C411 C414 1.481 . S
C412 C411 1.375 . S
C412 C413 1.367 . S
C412 H426 0.951 . S
C413 C409 1.383 . S
C413 C412 1.367 . S
C413 H427 0.950 . S
C414 C411 1.481 . S
C414 C415 1.297 . S
C414 H428 0.950 . S
C415 C414 1.297 . S
C415 C416 1.479 1_554 S
C415 H429 0.950 . S
C416 C415 1.479 1_556 S
C416 C417 1.375 . S
C416 C422 1.404 . S
C417 C416 1.375 . S
C417 C418 1.369 . S
C417 H430 0.950 . S
C418 C417 1.369 . S
C418 C419 1.392 . S
C418 H431 0.951 . S
C419 C418 1.392 . S
C419 C421 1.384 . S
H420 C422 0.949 . S
C421 C419 1.384 . S
C421 C422 1.385 . S
C421 H423 0.950 . S
C422 C416 1.404 . S
C422 H420 0.949 . S
C422 C421 1.385 . S
H423 C421 0.950 . S
H424 C408 0.951 . S
H425 C410 0.951 . S
H426 C412 0.951 . S
H427 C413 0.950 . S
H428 C414 0.950 . S
H429 C415 0.950 . S
H430 C417 0.950 . S
H431 C418 0.951 . S
C432 C433 1.386 . S
C432 C434 1.383 . S
C432 H448 0.951 . S
C433 C432 1.386 . S
C433 C437 1.383 . S
C434 C432 1.383 . S
C434 C435 1.402 . S
C434 H449 0.951 . S
C435 C434 1.402 . S
C435 C436 1.375 . S
C435 C438 1.481 . S
C436 C435 1.375 . S
C436 C437 1.367 . S
C436 H450 0.951 . S
C437 C433 1.383 . S
C437 C436 1.367 . S
C437 H451 0.950 . S
C438 C435 1.481 . S
C438 C439 1.297 . S
C438 H452 0.950 . S
C439 C438 1.297 . S
C439 C440 1.479 . S
C439 H453 0.950 . S
C440 C439 1.479 . S
C440 C441 1.375 . S
C440 C446 1.404 . S
C441 C440 1.375 . S
C441 C442 1.369 . S
C441 H454 0.950 . S
C442 C441 1.369 . S
C442 C443 1.392 . S
C442 H455 0.951 . S
C443 C442 1.392 . S
C443 C445 1.384 . S
H444 C446 0.949 . S
C445 C443 1.384 . S
C445 C446 1.385 . S
C445 H447 0.950 . S
C446 C440 1.404 . S
C446 H444 0.949 . S
C446 C445 1.385 . S
H447 C445 0.950 . S
H448 C432 0.951 . S
H449 C434 0.951 . S
H450 C436 0.951 . S
H451 C437 0.950 . S
H452 C438 0.950 . S
H453 C439 0.950 . S
H454 C441 0.950 . S
H455 C442 0.951 . S
C456 C457 1.386 . S
C456 C458 1.383 . S
C456 H472 0.951 . S
C457 C456 1.386 . S
C457 C461 1.383 . S
C458 C456 1.383 . S
C458 C459 1.402 . S
C458 H473 0.951 . S
C459 C458 1.402 . S
C459 C460 1.375 . S
C459 C462 1.481 . S
C460 C459 1.375 . S
C460 C461 1.367 . S
C460 H474 0.951 . S
C461 C457 1.383 . S
C461 C460 1.367 . S
C461 H475 0.950 . S
C462 C459 1.481 . S
C462 C463 1.297 . S
C462 H476 0.950 . S
C463 C462 1.297 . S
C463 C464 1.479 . S
C463 H477 0.950 . S
C464 C463 1.479 . S
C464 C465 1.375 . S
C464 C470 1.404 . S
C465 C464 1.375 . S
C465 C466 1.369 . S
C465 H478 0.950 . S
C466 C465 1.369 . S
C466 C467 1.392 . S
C466 H479 0.951 . S
C467 C466 1.392 . S
C467 C469 1.384 . S
H468 C470 0.949 . S
C469 C467 1.384 . S
C469 C470 1.385 . S
C469 H471 0.950 . S
C470 C464 1.404 . S
C470 H468 0.949 . S
C470 C469 1.385 . S
H471 C469 0.950 . S
H472 C456 0.951 . S
H473 C458 0.951 . S
H474 C460 0.951 . S
H475 C461 0.950 . S
H476 C462 0.950 . S
H477 C463 0.950 . S
H478 C465 0.950 . S
H479 C466 0.951 . S
C480 C481 1.386 . S
C480 C482 1.383 . S
C480 H496 0.951 . S
C481 C480 1.386 . S
C481 C485 1.383 . S
C482 C480 1.383 . S
C482 C483 1.402 . S
C482 H497 0.951 . S
C483 C482 1.402 . S
C483 C484 1.375 . S
C483 C486 1.481 . S
C484 C483 1.375 . S
C484 C485 1.367 . S
C484 H498 0.951 . S
C485 C481 1.383 . S
C485 C484 1.367 . S
C485 H499 0.950 . S
C486 C483 1.481 . S
C486 C487 1.297 . S
C486 H500 0.950 . S
C487 C486 1.297 . S
C487 C488 1.479 . S
C487 H501 0.950 . S
C488 C487 1.479 . S
C488 C489 1.375 . S
C488 C494 1.404 . S
C489 C488 1.375 . S
C489 C490 1.369 1_556 S
C489 H502 0.950 . S
C490 C489 1.369 1_554 S
C490 C491 1.392 . S
C490 H503 0.951 . S
C491 C490 1.392 . S
C491 C493 1.384 1_554 S
H492 C494 0.949 . S
C493 C491 1.384 1_556 S
C493 C494 1.385 . S
C493 H495 0.944 1_556 S
C494 C488 1.404 . S
C494 H492 0.949 . S
C494 C493 1.385 . S
H495 C493 0.944 1_554 S
H496 C480 0.951 . S
H497 C482 0.951 . S
H498 C484 0.951 . S
H499 C485 0.950 . S
H500 C486 0.950 . S
H501 C487 0.950 . S
H502 C489 0.950 . S
H503 C490 0.951 . S
C504 C505 1.386 . S
C504 C506 1.383 . S
C504 H520 0.951 . S
C505 C504 1.386 . S
C505 C509 1.383 . S
C506 C504 1.383 . S
C506 C507 1.402 . S
C506 H521 0.951 . S
C507 C506 1.402 . S
C507 C508 1.375 . S
C507 C510 1.481 . S
C508 C507 1.375 . S
C508 C509 1.367 . S
C508 H522 0.951 . S
C509 C505 1.383 . S
C509 C508 1.367 . S
C509 H523 0.950 . S
C510 C507 1.481 . S
C510 C511 1.297 . S
C510 H524 0.950 . S
C511 C510 1.297 . S
C511 C512 1.479 . S
C511 H525 0.950 . S
C512 C511 1.479 . S
C512 C513 1.375 . S
C512 C518 1.404 . S
C513 C512 1.375 . S
C513 C514 1.369 . S
C513 H526 0.950 . S
C514 C513 1.369 . S
C514 C515 1.392 . S
C514 H527 0.951 . S
C515 C514 1.392 . S
C515 C517 1.384 . S
H516 C518 0.949 . S
C517 C515 1.384 . S
C517 C518 1.385 . S
C517 H519 0.950 . S
C518 C512 1.404 . S
C518 H516 0.949 . S
C518 C517 1.385 . S
H519 C517 0.950 . S
H520 C504 0.951 . S
H521 C506 0.951 . S
H522 C508 0.951 . S
H523 C509 0.950 . S
H524 C510 0.950 . S
H525 C511 0.950 . S
H526 C513 0.950 . S
H527 C514 0.951 . S
C528 C529 1.386 . S
C528 C530 1.383 . S
C528 H544 0.951 . S
C529 C528 1.386 . S
C529 C533 1.383 . S
C530 C528 1.383 . S
C530 C531 1.402 . S
C530 H545 0.951 . S
C531 C530 1.402 . S
C531 C532 1.375 . S
C531 C534 1.481 . S
C532 C531 1.375 . S
C532 C533 1.367 . S
C532 H546 0.951 . S
C533 C529 1.383 . S
C533 C532 1.367 . S
C533 H547 0.950 . S
C534 C531 1.481 . S
C534 C535 1.297 . S
C534 H548 0.950 . S
C535 C534 1.297 . S
C535 C536 1.479 . S
C535 H549 0.950 . S
C536 C535 1.479 . S
C536 C537 1.375 . S
C536 C542 1.404 . S
C537 C536 1.375 . S
C537 C538 1.369 . S
C537 H550 0.950 . S
C538 C537 1.369 . S
C538 C539 1.392 . S
C538 H551 0.951 . S
C539 C538 1.392 . S
C539 C541 1.384 . S
H540 C542 0.949 . S
C541 C539 1.384 . S
C541 C542 1.385 . S
C541 H543 0.950 . S
C542 C536 1.404 . S
C542 H540 0.949 . S
C542 C541 1.385 . S
H543 C541 0.950 . S
H544 C528 0.951 . S
H545 C530 0.951 . S
H546 C532 0.951 . S
H547 C533 0.950 . S
H548 C534 0.950 . S
H549 C535 0.950 . S
H550 C537 0.950 . S
H551 C538 0.951 . S
C552 C553 1.386 . S
C552 C554 1.383 . S
C552 H568 0.951 . S
C553 C552 1.386 . S
C553 C557 1.383 . S
C554 C552 1.383 . S
C554 C555 1.402 . S
C554 H569 0.951 . S
C555 C554 1.402 . S
C555 C556 1.375 . S
C555 C558 1.481 . S
C556 C555 1.375 . S
C556 C557 1.367 . S
C556 H570 0.951 . S
C557 C553 1.383 . S
C557 C556 1.367 . S
C557 H571 0.950 . S
C558 C555 1.481 . S
C558 C559 1.297 . S
C558 H572 0.950 . S
C559 C558 1.297 . S
C559 C560 1.479 . S
C559 H573 0.950 . S
C560 C559 1.479 . S
C560 C561 1.375 . S
C560 C566 1.404 . S
C561 C560 1.375 . S
C561 C562 1.369 . S
C561 H574 0.950 . S
C562 C561 1.369 . S
C562 C563 1.392 . S
C562 H575 0.951 . S
C563 C562 1.392 . S
C563 C565 1.384 . S
H564 C566 0.949 . S
C565 C563 1.384 . S
C565 C566 1.385 . S
C565 H567 0.950 . S
C566 C560 1.404 . S
C566 H564 0.949 . S
C566 C565 1.385 . S
H567 C565 0.950 . S
H568 C552 0.951 . S
H569 C554 0.951 . S
H570 C556 0.951 . S
H571 C557 0.950 . S
H572 C558 0.950 . S
H573 C559 0.950 . S
H574 C561 0.950 . S
H575 C562 0.951 . S
C576 C577 1.386 . S
C576 C578 1.383 . S
C576 H592 0.951 . S
C577 C576 1.386 . S
C577 C581 1.383 . S
C578 C576 1.383 . S
C578 C579 1.402 . S
C578 H593 0.951 . S
C579 C578 1.402 . S
C579 C580 1.375 . S
C579 C582 1.481 . S
C580 C579 1.375 . S
C580 C581 1.367 . S
C580 H594 0.951 . S
C581 C577 1.383 . S
C581 C580 1.367 . S
C581 H595 0.950 . S
C582 C579 1.481 . S
C582 C583 1.297 . S
C582 H596 0.950 . S
C583 C582 1.297 . S
C583 C584 1.479 . S
C583 H597 0.950 . S
C584 C583 1.479 . S
C584 C585 1.375 . S
C584 C590 1.404 . S
C585 C584 1.375 . S
C585 C586 1.369 . S
C585 H598 0.950 . S
C586 C585 1.369 . S
C586 C587 1.392 . S
C586 H599 0.951 . S
C587 C586 1.392 . S
C587 C589 1.384 . S
H588 C590 0.949 . S
C589 C587 1.384 . S
C589 C590 1.385 . S
C589 H591 0.950 . S
C590 C584 1.404 . S
C590 H588 0.949 . S
C590 C589 1.385 . S
H591 C589 0.950 . S
H592 C576 0.951 . S
H593 C578 0.951 . S
H594 C580 0.951 . S
H595 C581 0.950 . S
H596 C582 0.950 . S
H597 C583 0.950 . S
H598 C585 0.950 . S
H599 C586 0.951 . S
C600 C601 1.386 . S
C600 C602 1.383 . S
C600 H616 0.951 . S
C601 C600 1.386 . S
C601 C605 1.383 . S
C602 C600 1.383 . S
C602 C603 1.402 . S
C602 H617 0.951 . S
C603 C602 1.402 . S
C603 C604 1.375 . S
C603 C606 1.481 . S
C604 C603 1.375 . S
C604 C605 1.367 . S
C604 H618 0.951 . S
C605 C601 1.383 . S
C605 C604 1.367 . S
C605 H619 0.950 . S
C606 C603 1.481 . S
C606 C607 1.297 . S
C606 H620 0.950 . S
C607 C606 1.297 . S
C607 C608 1.479 . S
C607 H621 0.950 . S
C608 C607 1.479 . S
C608 C609 1.375 . S
C608 C614 1.404 . S
C609 C608 1.375 . S
C609 C610 1.369 . S
C609 H622 0.950 . S
C610 C609 1.369 . S
C610 C611 1.392 . S
C610 H623 0.951 . S
C611 C610 1.392 . S
C611 C613 1.384 . S
H612 C614 0.949 . S
C613 C611 1.384 . S
C613 C614 1.385 . S
C613 H615 0.950 . S
C614 C608 1.404 . S
C614 H612 0.949 . S
C614 C613 1.385 . S
H615 C613 0.950 . S
H616 C600 0.951 . S
H617 C602 0.951 . S
H618 C604 0.951 . S
H619 C605 0.950 . S
H620 C606 0.950 . S
H621 C607 0.950 . S
H622 C609 0.950 . S
H623 C610 0.951 . S
C624 C625 1.386 . S
C624 C626 1.383 . S
C624 H640 0.951 . S
C625 C624 1.386 . S
C625 C629 1.383 . S
C626 C624 1.383 . S
C626 C627 1.402 . S
C626 H641 0.951 . S
C627 C626 1.402 . S
C627 C628 1.375 . S
C627 C630 1.481 . S
C628 C627 1.375 . S
C628 C629 1.367 . S
C628 H642 0.951 . S
C629 C625 1.383 . S
C629 C628 1.367 . S
C629 H643 0.950 . S
C630 C627 1.481 . S
C630 C631 1.297 . S
C630 H644 0.950 . S
C631 C630 1.297 . S
C631 C632 1.479 . S
C631 H645 0.950 . S
C632 C631 1.479 . S
C632 C633 1.375 . S
C632 C638 1.404 . S
C633 C632 1.375 . S
C633 C634 1.369 . S
C633 H646 0.950 . S
C634 C633 1.369 . S
C634 C635 1.392 . S
C634 H647 0.951 . S
C635 C634 1.392 . S
C635 C637 1.384 . S
H636 C638 0.949 . S
C637 C635 1.384 . S
C637 C638 1.385 . S
C637 H639 0.950 . S
C638 C632 1.404 . S
C638 H636 0.949 . S
C638 C637 1.385 . S
H639 C637 0.950 . S
H640 C624 0.951 . S
H641 C626 0.951 . S
H642 C628 0.951 . S
H643 C629 0.950 . S
H644 C630 0.950 . S
H645 C631 0.950 . S
H646 C633 0.950 . S
H647 C634 0.951 . S
C648 C649 1.386 . S
C648 C650 1.383 . S
C648 H664 0.951 . S
C649 C648 1.386 . S
C649 C653 1.383 . S
C650 C648 1.383 . S
C650 C651 1.402 . S
C650 H665 0.951 . S
C651 C650 1.402 . S
C651 C652 1.375 . S
C651 C654 1.481 . S
C652 C651 1.375 . S
C652 C653 1.367 . S
C652 H666 0.951 . S
C653 C649 1.383 . S
C653 C652 1.367 . S
C653 H667 0.950 . S
C654 C651 1.481 . S
C654 C655 1.297 . S
C654 H668 0.950 . S
C655 C654 1.297 . S
C655 C656 1.479 . S
C655 H669 0.950 . S
C656 C655 1.479 . S
C656 C657 1.375 . S
C656 C662 1.404 1_554 S
C657 C656 1.375 . S
C657 C658 1.369 . S
C657 H670 0.950 . S
C658 C657 1.369 . S
C658 C659 1.392 1_554 S
C658 H671 0.951 . S
C659 C658 1.392 1_556 S
C659 C661 1.384 . S
H660 C662 0.949 . S
C661 C659 1.384 . S
C661 C662 1.385 . S
C661 H663 0.950 . S
C662 C656 1.404 1_556 S
C662 H660 0.949 . S
C662 C661 1.385 . S
H663 C661 0.950 . S
H664 C648 0.951 . S
H665 C650 0.951 . S
H666 C652 0.951 . S
H667 C653 0.950 . S
H668 C654 0.950 . S
H669 C655 0.950 . S
H670 C657 0.950 . S
H671 C658 0.951 . S
C241 C209 1.343 . S
C251 C9 1.306 . S
C265 C10 1.709 . S
C275 C50 1.694 . S
C289 C49 1.354 . S
C299 C89 1.341 . S
C313 C90 1.704 . S
C323 C130 1.703 . S
C337 C169 1.367 . S
C347 C129 1.366 . S
C361 C210 1.688 . S
C371 C170 1.698 . S
C385 C15 1.153 . S
C395 C6 1.071 . S
C409 C46 1.120 . S
C419 C55 1.083 . S
C433 C95 1.094 . S
C443 C86 1.153 . S
C457 C126 1.096 . S
C467 C135 1.132 . S
C481 C166 1.095 . S
C491 C175 1.160 . S
C505 C206 1.125 . S
C515 C215 1.167 . S
C529 C18 1.815 . S
C539 C179 1.769 . S
C553 C59 1.799 . S
C563 C218 1.804 . S
C577 C19 1.794 . S
C587 C98 1.809 . S
C601 C58 1.818 . S
C611 C139 1.793 . S
C625 C178 1.815 . S
C635 C99 1.787 . S
C649 C138 1.818 . S
C659 C219 1.800 . S
