# Generated by pormake.
# Topology wlq, (5)-cn, num edge types: 1
# Building blocks:
#     Node 0, Type 0, BuildingBlock: XOMCOT_clean_sbu_1, # of connection points: 5
#     Node 1, Type 0, BuildingBlock: XOMCOT_clean_sbu_1, # of connection points: 5
#     Node 2, Type 0, BuildingBlock: XOMCOT_clean_sbu_1, # of connection points: 5
#     Node 3, Type 0, BuildingBlock: XOMCOT_clean_sbu_1, # of connection points: 5
#     Node 4, Type 0, BuildingBlock: XOMCOT_clean_sbu_1, # of connection points: 5
#     Node 5, Type 0, BuildingBlock: XOMCOT_clean_sbu_1, # of connection points: 5
#     Node 6, Type 0, BuildingBlock: XOMCOT_clean_sbu_1, # of connection points: 5
#     Node 7, Type 0, BuildingBlock: XOMCOT_clean_sbu_1, # of connection points: 5
#     Node 8, Type 0, BuildingBlock: XOMCOT_clean_sbu_1, # of connection points: 5
#     Node 9, Type 0, BuildingBlock: XOMCOT_clean_sbu_1, # of connection points: 5
#     Node 10, Type 0, BuildingBlock: XOMCOT_clean_sbu_1, # of connection points: 5
#     Node 11, Type 0, BuildingBlock: XOMCOT_clean_sbu_1, # of connection points: 5
#     Node 12, Type 0, BuildingBlock: XOMCOT_clean_sbu_1, # of connection points: 5
#     Node 13, Type 0, BuildingBlock: XOMCOT_clean_sbu_1, # of connection points: 5
#     Node 14, Type 0, BuildingBlock: XOMCOT_clean_sbu_1, # of connection points: 5
#     Node 15, Type 0, BuildingBlock: XOMCOT_clean_sbu_1, # of connection points: 5
#     Node 16, Type 0, BuildingBlock: XOMCOT_clean_sbu_1, # of connection points: 5
#     Node 17, Type 0, BuildingBlock: XOMCOT_clean_sbu_1, # of connection points: 5
#     Node 18, Type 0, BuildingBlock: XOMCOT_clean_sbu_1, # of connection points: 5
#     Node 19, Type 0, BuildingBlock: XOMCOT_clean_sbu_1, # of connection points: 5
#     Node 20, Type 0, BuildingBlock: XOMCOT_clean_sbu_1, # of connection points: 5
#     Node 21, Type 0, BuildingBlock: XOMCOT_clean_sbu_1, # of connection points: 5
#     Node 22, Type 0, BuildingBlock: XOMCOT_clean_sbu_1, # of connection points: 5
#     Node 23, Type 0, BuildingBlock: XOMCOT_clean_sbu_1, # of connection points: 5
#     Node 24, Type 0, BuildingBlock: XOMCOT_clean_sbu_1, # of connection points: 5
#     Node 25, Type 0, BuildingBlock: XOMCOT_clean_sbu_1, # of connection points: 5
#     Node 26, Type 0, BuildingBlock: XOMCOT_clean_sbu_1, # of connection points: 5
#     Node 27, Type 0, BuildingBlock: XOMCOT_clean_sbu_1, # of connection points: 5
#     Node 28, Type 0, BuildingBlock: XOMCOT_clean_sbu_1, # of connection points: 5
#     Node 29, Type 0, BuildingBlock: XOMCOT_clean_sbu_1, # of connection points: 5
#     Node 30, Type 0, BuildingBlock: XOMCOT_clean_sbu_1, # of connection points: 5
#     Node 31, Type 0, BuildingBlock: XOMCOT_clean_sbu_1, # of connection points: 5
#     Node 32, Type 0, BuildingBlock: XOMCOT_clean_sbu_1, # of connection points: 5
#     Node 33, Type 0, BuildingBlock: XOMCOT_clean_sbu_1, # of connection points: 5
#     Node 34, Type 0, BuildingBlock: XOMCOT_clean_sbu_1, # of connection points: 5
#     Node 35, Type 0, BuildingBlock: XOMCOT_clean_sbu_1, # of connection points: 5
#     Edge 36, Type (0, 0), BuildingBlock: OJICUG_clean_linker_0, # of connection points: 2
#     Edge 37, Type (0, 0), BuildingBlock: OJICUG_clean_linker_0, # of connection points: 2
#     Edge 38, Type (0, 0), BuildingBlock: OJICUG_clean_linker_0, # of connection points: 2
#     Edge 39, Type (0, 0), BuildingBlock: OJICUG_clean_linker_0, # of connection points: 2
#     Edge 40, Type (0, 0), BuildingBlock: OJICUG_clean_linker_0, # of connection points: 2
#     Edge 41, Type (0, 0), BuildingBlock: OJICUG_clean_linker_0, # of connection points: 2
#     Edge 42, Type (0, 0), BuildingBlock: OJICUG_clean_linker_0, # of connection points: 2
#     Edge 43, Type (0, 0), BuildingBlock: OJICUG_clean_linker_0, # of connection points: 2
#     Edge 44, Type (0, 0), BuildingBlock: OJICUG_clean_linker_0, # of connection points: 2
#     Edge 45, Type (0, 0), BuildingBlock: OJICUG_clean_linker_0, # of connection points: 2
#     Edge 46, Type (0, 0), BuildingBlock: OJICUG_clean_linker_0, # of connection points: 2
#     Edge 47, Type (0, 0), BuildingBlock: OJICUG_clean_linker_0, # of connection points: 2
#     Edge 48, Type (0, 0), BuildingBlock: OJICUG_clean_linker_0, # of connection points: 2
#     Edge 49, Type (0, 0), BuildingBlock: OJICUG_clean_linker_0, # of connection points: 2
#     Edge 50, Type (0, 0), BuildingBlock: OJICUG_clean_linker_0, # of connection points: 2
#     Edge 51, Type (0, 0), BuildingBlock: OJICUG_clean_linker_0, # of connection points: 2
#     Edge 52, Type (0, 0), BuildingBlock: OJICUG_clean_linker_0, # of connection points: 2
#     Edge 53, Type (0, 0), BuildingBlock: OJICUG_clean_linker_0, # of connection points: 2
#     Edge 54, Type (0, 0), BuildingBlock: OJICUG_clean_linker_0, # of connection points: 2
#     Edge 55, Type (0, 0), BuildingBlock: OJICUG_clean_linker_0, # of connection points: 2
#     Edge 56, Type (0, 0), BuildingBlock: OJICUG_clean_linker_0, # of connection points: 2
#     Edge 57, Type (0, 0), BuildingBlock: OJICUG_clean_linker_0, # of connection points: 2
#     Edge 58, Type (0, 0), BuildingBlock: OJICUG_clean_linker_0, # of connection points: 2
#     Edge 59, Type (0, 0), BuildingBlock: OJICUG_clean_linker_0, # of connection points: 2
#     Edge 60, Type (0, 0), BuildingBlock: OJICUG_clean_linker_0, # of connection points: 2
#     Edge 61, Type (0, 0), BuildingBlock: OJICUG_clean_linker_0, # of connection points: 2
#     Edge 62, Type (0, 0), BuildingBlock: OJICUG_clean_linker_0, # of connection points: 2
#     Edge 63, Type (0, 0), BuildingBlock: OJICUG_clean_linker_0, # of connection points: 2
#     Edge 64, Type (0, 0), BuildingBlock: OJICUG_clean_linker_0, # of connection points: 2
#     Edge 65, Type (0, 0), BuildingBlock: OJICUG_clean_linker_0, # of connection points: 2
#     Edge 66, Type (0, 0), BuildingBlock: OJICUG_clean_linker_0, # of connection points: 2
#     Edge 67, Type (0, 0), BuildingBlock: OJICUG_clean_linker_0, # of connection points: 2
#     Edge 68, Type (0, 0), BuildingBlock: OJICUG_clean_linker_0, # of connection points: 2
#     Edge 69, Type (0, 0), BuildingBlock: OJICUG_clean_linker_0, # of connection points: 2
#     Edge 70, Type (0, 0), BuildingBlock: OJICUG_clean_linker_0, # of connection points: 2
#     Edge 71, Type (0, 0), BuildingBlock: OJICUG_clean_linker_0, # of connection points: 2
#     Edge 72, Type (0, 0), BuildingBlock: OJICUG_clean_linker_0, # of connection points: 2
#     Edge 73, Type (0, 0), BuildingBlock: OJICUG_clean_linker_0, # of connection points: 2
#     Edge 74, Type (0, 0), BuildingBlock: OJICUG_clean_linker_0, # of connection points: 2
#     Edge 75, Type (0, 0), BuildingBlock: OJICUG_clean_linker_0, # of connection points: 2
#     Edge 76, Type (0, 0), BuildingBlock: OJICUG_clean_linker_0, # of connection points: 2
#     Edge 77, Type (0, 0), BuildingBlock: OJICUG_clean_linker_0, # of connection points: 2
#     Edge 78, Type (0, 0), BuildingBlock: OJICUG_clean_linker_0, # of connection points: 2
#     Edge 79, Type (0, 0), BuildingBlock: OJICUG_clean_linker_0, # of connection points: 2
#     Edge 80, Type (0, 0), BuildingBlock: OJICUG_clean_linker_0, # of connection points: 2
#     Edge 81, Type (0, 0), BuildingBlock: OJICUG_clean_linker_0, # of connection points: 2
#     Edge 82, Type (0, 0), BuildingBlock: OJICUG_clean_linker_0, # of connection points: 2
#     Edge 83, Type (0, 0), BuildingBlock: OJICUG_clean_linker_0, # of connection points: 2
#     Edge 84, Type (0, 0), BuildingBlock: OJICUG_clean_linker_0, # of connection points: 2
#     Edge 85, Type (0, 0), BuildingBlock: OJICUG_clean_linker_0, # of connection points: 2
#     Edge 86, Type (0, 0), BuildingBlock: OJICUG_clean_linker_0, # of connection points: 2
#     Edge 87, Type (0, 0), BuildingBlock: OJICUG_clean_linker_0, # of connection points: 2
#     Edge 88, Type (0, 0), BuildingBlock: OJICUG_clean_linker_0, # of connection points: 2
#     Edge 89, Type (0, 0), BuildingBlock: OJICUG_clean_linker_0, # of connection points: 2
#     Edge 90, Type (0, 0), BuildingBlock: OJICUG_clean_linker_0, # of connection points: 2
#     Edge 91, Type (0, 0), BuildingBlock: OJICUG_clean_linker_0, # of connection points: 2
#     Edge 92, Type (0, 0), BuildingBlock: OJICUG_clean_linker_0, # of connection points: 2
#     Edge 93, Type (0, 0), BuildingBlock: OJICUG_clean_linker_0, # of connection points: 2
#     Edge 94, Type (0, 0), BuildingBlock: OJICUG_clean_linker_0, # of connection points: 2
#     Edge 95, Type (0, 0), BuildingBlock: OJICUG_clean_linker_0, # of connection points: 2
#     Edge 96, Type (0, 0), BuildingBlock: OJICUG_clean_linker_0, # of connection points: 2
#     Edge 97, Type (0, 0), BuildingBlock: OJICUG_clean_linker_0, # of connection points: 2
#     Edge 98, Type (0, 0), BuildingBlock: OJICUG_clean_linker_0, # of connection points: 2
#     Edge 99, Type (0, 0), BuildingBlock: OJICUG_clean_linker_0, # of connection points: 2
#     Edge 100, Type (0, 0), BuildingBlock: OJICUG_clean_linker_0, # of connection points: 2
#     Edge 101, Type (0, 0), BuildingBlock: OJICUG_clean_linker_0, # of connection points: 2
#     Edge 102, Type (0, 0), BuildingBlock: OJICUG_clean_linker_0, # of connection points: 2
#     Edge 103, Type (0, 0), BuildingBlock: OJICUG_clean_linker_0, # of connection points: 2
#     Edge 104, Type (0, 0), BuildingBlock: OJICUG_clean_linker_0, # of connection points: 2
#     Edge 105, Type (0, 0), BuildingBlock: OJICUG_clean_linker_0, # of connection points: 2
#     Edge 106, Type (0, 0), BuildingBlock: OJICUG_clean_linker_0, # of connection points: 2
#     Edge 107, Type (0, 0), BuildingBlock: OJICUG_clean_linker_0, # of connection points: 2
#     Edge 108, Type (0, 0), BuildingBlock: OJICUG_clean_linker_0, # of connection points: 2
#     Edge 109, Type (0, 0), BuildingBlock: OJICUG_clean_linker_0, # of connection points: 2
#     Edge 110, Type (0, 0), BuildingBlock: OJICUG_clean_linker_0, # of connection points: 2
#     Edge 111, Type (0, 0), BuildingBlock: OJICUG_clean_linker_0, # of connection points: 2
#     Edge 112, Type (0, 0), BuildingBlock: OJICUG_clean_linker_0, # of connection points: 2
#     Edge 113, Type (0, 0), BuildingBlock: OJICUG_clean_linker_0, # of connection points: 2
#     Edge 114, Type (0, 0), BuildingBlock: OJICUG_clean_linker_0, # of connection points: 2
#     Edge 115, Type (0, 0), BuildingBlock: OJICUG_clean_linker_0, # of connection points: 2
#     Edge 116, Type (0, 0), BuildingBlock: OJICUG_clean_linker_0, # of connection points: 2
#     Edge 117, Type (0, 0), BuildingBlock: OJICUG_clean_linker_0, # of connection points: 2
#     Edge 118, Type (0, 0), BuildingBlock: OJICUG_clean_linker_0, # of connection points: 2
#     Edge 119, Type (0, 0), BuildingBlock: OJICUG_clean_linker_0, # of connection points: 2
#     Edge 120, Type (0, 0), BuildingBlock: OJICUG_clean_linker_0, # of connection points: 2
#     Edge 121, Type (0, 0), BuildingBlock: OJICUG_clean_linker_0, # of connection points: 2
#     Edge 122, Type (0, 0), BuildingBlock: OJICUG_clean_linker_0, # of connection points: 2
#     Edge 123, Type (0, 0), BuildingBlock: OJICUG_clean_linker_0, # of connection points: 2
#     Edge 124, Type (0, 0), BuildingBlock: OJICUG_clean_linker_0, # of connection points: 2
#     Edge 125, Type (0, 0), BuildingBlock: OJICUG_clean_linker_0, # of connection points: 2
# Relax obj value: 0.111
# Max RMSD: 0.158
# Mean RMSD: 0.158
data_MOF--net-wlq--node1-XOMCOT_clean_sbu_1--edge1-OJICUG_clean_linker_0
_symmetry_space_group_name_H-M    P1
_symmetry_Int_Tables_number       1
_symmetry_cell_setting            triclinic
loop_
_symmetry_equiv_pos_as_xyz
'x, y, z'
_cell_length_a     56.795304
_cell_length_b     56.880208
_cell_length_c     26.50381
_cell_angle_alpha  89.843566
_cell_angle_beta   89.94919
_cell_angle_gamma 119.94549
loop_
_atom_site_label
_atom_site_type_symbol
_atom_site_fract_x
_atom_site_fract_y
_atom_site_fract_z
_atom_type_partial_charge
C0 C 0.21394 0.17838 0.98142 0.0
C1 C 0.20746 0.17318 0.93116 0.0
N2 N 0.21886 0.197 0.90588 0.0
N3 N 0.22963 0.20534 0.98796 0.0
C4 C 0.23223 0.21617 0.94138 0.0
H5 H 0.20724 0.16348 1.01142 0.0
Co6 Co 0.24204 0.22332 0.04918 0.0
C7 C 0.30014 0.26295 0.0323 0.0
O8 O 0.30513 0.25757 0.07803 0.0
N9 N 0.25383 0.24224 0.11135 0.0
C10 C 0.26826 0.27755 0.16329 0.0
C11 C 0.26406 0.26938 0.11396 0.0
C12 C 0.25115 0.2343 0.16039 0.0
N13 N 0.26007 0.25548 0.19256 0.0
O14 O 0.22384 0.24333 0.03443 0.0
H15 H 0.26769 0.28249 0.08174 0.0
H16 H 0.24238 0.21354 0.17282 0.0
O17 O 0.27565 0.25095 1.01584 0.0
C18 C 0.20189 0.2343 0.0597 0.0
O19 O 0.19553 0.21441 0.09196 0.0
N20 N 0.2575 0.20112 0.06355 0.0
C21 C 0.26595 0.15662 0.06864 0.0
C22 C 0.28095 0.17811 0.03508 0.0
C23 C 0.27609 0.19986 0.03242 0.0
C24 C 0.24328 0.1807 0.09738 0.0
C25 C 0.24755 0.15855 0.10129 0.0
H26 H 0.28541 0.21404 1.00175 0.0
H27 H 0.22646 0.18 0.11774 0.0
H28 H 0.24283 0.23778 0.93409 0.0
H29 H 0.19508 0.15332 0.91474 0.0
H30 H 0.27584 0.29804 0.1767 0.0
H31 H 0.29489 0.17715 1.00837 0.0
H32 H 0.23471 0.14191 0.12628 0.0
C33 C 0.8373 0.02981 0.99205 0.0
C34 C 0.8434 0.02874 0.94227 0.0
N35 N 0.8216 0.02352 0.91385 0.0
N36 N 0.8118 0.02542 0.99554 0.0
C37 C 0.8026 0.02147 0.94741 0.0
H38 H 0.85042 0.03307 1.02398 0.0
Co39 Co 0.79495 0.02323 0.05709 0.0
C40 C 0.75944 0.04611 0.03975 0.0
O41 O 0.76909 0.05896 0.08259 0.0
N42 N 0.77726 0.01939 0.12043 0.0
C43 C 0.74224 1.00154 0.17393 0.0
C44 C 0.74987 1.00496 0.12429 0.0
C45 C 0.78577 0.02364 0.16923 0.0
N46 N 0.76477 0.0132 0.20252 0.0
O47 O 0.773 0.98466 0.04792 0.0
H48 H 0.73614 0.99616 0.09278 0.0
H49 H 0.80673 0.03286 0.18054 0.0
O50 O 0.76765 0.03017 1.02337 0.0
C51 C 0.78192 0.97237 0.07541 0.0
O52 O 0.80256 0.98684 0.10543 0.0
N53 N 0.81929 0.06103 0.06589 0.0
C54 C 0.86521 0.11317 0.06485 0.0
C55 C 0.84426 0.10587 0.02978 0.0
C56 C 0.82186 0.07965 0.03021 0.0
C57 C 0.83938 0.06796 0.10068 0.0
C58 C 0.86221 0.09405 0.10155 0.0
H59 H 0.80788 0.07385 0.99902 0.0
H60 H 0.83921 0.05254 0.12467 0.0
H61 H 0.78231 0.01694 0.93737 0.0
H62 H 0.86228 0.0308 0.92851 0.0
H63 H 0.72161 0.98975 0.1878 0.0
H64 H 0.84601 0.11976 1.00003 0.0
H65 H 0.87844 0.09839 0.12791 0.0
C66 C 0.99206 0.81398 0.969 0.0
C67 C 0.9941 0.82131 0.91901 0.0
N68 N 1.00245 0.80662 0.89241 0.0
N69 N 0.99893 0.79461 0.97413 0.0
C70 C 1.00517 0.79049 0.92681 0.0
H71 H 0.98657 0.82267 0.99994 0.0
Co72 Co 1.00249 0.78098 0.03599 0.0
C73 C 0.98006 0.72261 1.02109 0.0
O74 O 0.96764 0.7196 0.06452 0.0
N75 N 1.00779 0.76794 0.09938 0.0
C76 C 0.0269 0.7511 0.15066 0.0
C77 C 0.02314 0.7559 0.10157 0.0
C78 C 1.00322 0.77097 0.14877 0.0
N79 N 1.01441 0.76056 0.18072 0.0
O80 O 0.041 0.79779 1.02356 0.0
H81 H 0.03205 0.75171 0.06921 0.0
H82 H 0.99286 0.78139 0.16154 0.0
O83 O 0.99532 0.7466 1.00335 0.0
C84 C 0.05402 0.81935 0.04959 0.0
O85 O 0.04038 0.82592 0.08112 0.0
N86 N 0.96473 0.76732 0.04789 0.0
C87 C 0.91233 0.76066 0.05211 0.0
C88 C 0.91904 0.74715 1.01568 0.0
C89 C 0.94536 0.751 1.01376 0.0
C90 C 0.95846 0.78057 0.08359 0.0
C91 C 0.93226 0.77702 0.08719 0.0
H92 H 0.95059 0.74259 0.9821 0.0
H93 H 0.97438 0.79601 0.10633 0.0
H94 H 1.01275 0.77688 0.91811 0.0
H95 H 0.99006 0.83658 0.90354 0.0
H96 H 0.03921 0.74259 0.16319 0.0
H97 H 0.90451 0.73493 0.98699 0.0
H98 H 0.92835 0.78883 0.11444 0.0
C99 C 0.18637 0.20774 0.62107 0.0
C100 C 0.18118 0.20032 0.671 0.0
N101 N 0.20491 0.2124 0.69639 0.0
N102 N 0.21321 0.22474 0.61481 0.0
C103 C 0.22403 0.22719 0.66129 0.0
H104 H 0.17157 0.20074 0.59101 0.0
Co105 Co 0.23044 0.23803 0.55301 0.0
C106 C 0.26841 0.29638 0.56786 0.0
O107 O 0.26094 0.30043 0.52325 0.0
N108 N 0.24851 0.2505 0.48985 0.0
C109 C 0.28341 0.26617 0.43611 0.0
C110 C 0.27582 0.26189 0.48583 0.0
C111 C 0.23994 0.24717 0.44122 0.0
N112 N 0.26085 0.25682 0.40797 0.0
O113 O 0.25178 0.22087 0.56546 0.0
H114 H 0.28945 0.26616 0.51733 0.0
H115 H 0.21895 0.23726 0.42981 0.0
O116 O 0.25795 0.27212 0.58539 0.0
C117 C 0.24384 0.19942 0.5394 0.0
O118 O 0.22383 0.19252 0.5073 0.0
N119 N 0.20701 0.25249 0.5413 0.0
C120 C 0.16146 0.25948 0.54091 0.0
C121 C 0.18286 0.27387 0.57469 0.0
C122 C 0.2052 0.26985 0.57477 0.0
C123 C 0.18651 0.23869 0.50759 0.0
C124 C 0.16388 0.24234 0.50595 0.0
H125 H 0.21952 0.27872 0.60526 0.0
H126 H 0.18611 0.22259 0.48553 0.0
H127 H 0.24562 0.23867 0.66871 0.0
H128 H 0.1614 0.18681 0.68711 0.0
H129 H 0.30389 0.2745 0.42165 0.0
H130 H 0.18146 0.28672 0.60323 0.0
H131 H 0.14727 0.22993 0.48073 0.0
C132 C 0.82315 0.99202 0.62641 0.0
C133 C 0.8313 0.99714 0.67595 0.0
N134 N 0.81393 1.00248 0.70134 0.0
N135 N 0.80076 0.99414 0.62036 0.0
C136 C 0.79554 1.0005 0.66671 0.0
H137 H 0.83302 0.98727 0.59645 0.0
Co138 Co 0.78389 0.99048 0.55821 0.0
C139 C 0.73766 0.99752 0.58913 0.0
O140 O 0.74731 0.02004 0.56269 0.0
N141 N 0.76704 0.98693 0.49516 0.0
C142 C 0.73535 0.97271 0.43556 0.0
C143 C 0.74054 0.96982 0.48509 0.0
C144 C 0.77768 0.99958 0.45056 0.0
N145 N 0.75872 0.99144 0.41383 0.0
O146 O 0.79932 0.02917 0.55627 0.0
H147 H 0.72586 0.95585 0.51201 0.0
H148 H 0.7988 0.0146 0.44494 0.0
O149 O 0.75097 0.98491 0.59153 0.0
C150 C 0.82291 0.04049 0.53633 0.0
O151 O 0.8321 0.02504 0.51852 0.0
N152 N 0.77119 0.95296 0.55959 0.0
C153 C 0.76358 0.90054 0.56548 0.0
C154 C 0.7534 0.91035 0.60328 0.0
C155 C 0.75736 0.93665 0.59958 0.0
C156 C 0.78039 0.94345 0.52171 0.0
C157 C 0.77648 0.91718 0.52356 0.0
H158 H 0.75087 0.94448 0.63042 0.0
H159 H 0.79208 0.95681 0.49106 0.0
H160 H 0.77904 1.00429 0.6747 0.0
H161 H 0.84863 0.99682 0.69212 0.0
H162 H 0.71596 0.96148 0.41667 0.0
H163 H 0.74352 0.89823 0.63646 0.0
H164 H 0.78517 0.91066 0.4941 0.0
C165 C 0.03311 0.83524 0.60161 0.0
C166 C 0.02939 0.84009 0.6509 0.0
N167 N 0.02466 0.81839 0.67934 0.0
N168 N 0.03076 0.81058 0.59831 0.0
C169 C 0.02543 0.80067 0.64609 0.0
H170 H 0.03716 0.84877 0.56993 0.0
Co171 Co 0.03401 0.79584 0.53753 0.0
C172 C 0.03275 0.74495 0.57218 0.0
O173 O 1.01551 0.72971 0.53725 0.0
N174 N 0.03725 0.78149 0.47545 0.0
C175 C 0.05233 0.76552 0.41453 0.0
C176 C 0.0549 0.77286 0.46447 0.0
C177 C 0.02471 0.77989 0.43101 0.0
N178 N 0.03337 0.77001 0.39341 0.0
O179 O 0.99554 0.77169 0.53849 0.0
H180 H 0.0693 0.77257 0.4908 0.0
H181 H 1.00974 0.78611 0.4259 0.0
O182 O 0.0404 0.77015 0.57462 0.0
C183 C 0.98304 0.78283 0.5189 0.0
O184 O 0.99737 0.80711 0.49877 0.0
N185 N 0.07134 0.82107 0.53638 0.0
C186 C 0.12384 0.86578 0.5386 0.0
C187 C 0.11506 0.8455 0.57583 0.0
C188 C 0.08867 0.82334 0.5742 0.0
C189 C 0.07985 0.83993 0.49871 0.0
C190 C 0.10613 0.86236 0.49882 0.0
H191 H 0.08178 0.80894 0.605 0.0
H192 H 0.0657 0.83826 0.46973 0.0
H193 H 0.02224 0.78087 0.65614 0.0
H194 H 0.0298 0.85824 0.66418 0.0
H195 H 0.06423 0.75834 0.3948 0.0
H196 H 0.12807 0.84737 0.60723 0.0
H197 H 0.11185 0.87774 0.46985 0.0
C198 C 0.82492 0.83269 0.12553 0.0
C199 C 0.83191 0.83777 0.17552 0.0
N200 N 0.81319 0.81684 0.20333 0.0
N201 N 0.80191 0.80863 0.12129 0.0
C202 C 0.79525 0.79928 0.16931 0.0
H203 H 0.83583 0.84578 0.09405 0.0
Co204 Co 0.78551 0.79511 0.05893 0.0
C205 C 0.73657 0.74288 0.08232 0.0
O206 O 0.74207 0.73145 0.0446 0.0
N207 N 0.76933 0.78211 0.99497 0.0
C208 C 0.74067 0.77116 0.93038 0.0
C209 C 0.74447 0.77739 0.98089 0.0
C210 C 0.78017 0.77845 0.95213 0.0
N211 N 0.76315 0.77184 0.91231 0.0
O212 O 0.80072 0.77146 0.0591 0.0
H213 H 0.73021 0.77906 1.00559 0.0
H214 H 0.80053 0.78164 0.94934 0.0
O215 O 0.75247 0.76786 0.09244 0.0
C216 C 0.82466 0.78332 0.04049 0.0
O217 O 0.8344 0.8078 1.02145 0.0
N218 N 0.77306 0.82011 0.05849 0.0
C219 C 0.76391 0.86402 0.05926 0.0
C220 C 0.75182 0.84331 0.09569 0.0
C221 C 0.75666 0.82147 0.09468 0.0
C222 C 0.78443 0.83965 1.02215 0.0
C223 C 0.77986 0.86161 1.02146 0.0
H224 H 0.74829 0.80642 0.12438 0.0
H225 H 0.79797 0.83869 0.99456 0.0
H226 H 0.77738 0.78029 0.17922 0.0
H227 H 0.84965 0.85552 0.19008 0.0
H228 H 0.72283 0.76668 0.90851 0.0
H229 H 0.73949 0.84447 0.1257 0.0
H230 H 0.79009 0.87737 0.99331 0.0
C231 C 0.18928 0.98006 0.12156 0.0
C232 C 0.18448 0.98164 0.17193 0.0
N233 N 0.2085 0.99385 0.19636 0.0
N234 N 0.21619 0.99088 0.11409 0.0
C235 C 0.2274 0.99916 0.16026 0.0
H236 H 0.17415 0.9721 0.09207 0.0
Co237 Co 0.2335 0.99647 0.05197 0.0
C238 C 0.2704 0.97468 0.06221 0.0
O239 O 0.26146 0.9637 1.01768 0.0
N240 N 0.25194 1.00376 0.9888 0.0
C241 C 0.28763 0.02408 0.93706 0.0
C242 C 0.27923 0.02005 0.9863 0.0
C243 C 0.24419 0.99885 0.9397 0.0
N244 N 0.26562 0.01079 0.90765 0.0
O245 O 0.25459 0.03453 0.06751 0.0
H246 H 0.29234 0.02895 1.01859 0.0
H247 H 0.22344 0.98718 0.92711 0.0
O248 O 0.26111 0.98897 0.08225 0.0
C249 C 0.24545 0.04771 0.04341 0.0
O250 O 0.22516 0.03447 1.01198 0.0
N251 N 0.20996 0.95912 0.0369 0.0
C252 C 0.1642 0.90702 0.03053 0.0
C253 C 0.18512 0.91256 0.06479 0.0
C254 C 0.20752 0.93875 0.06803 0.0
C255 C 0.18995 0.95391 1.00282 0.0
C256 C 0.16723 0.92792 0.99821 0.0
H257 H 0.22147 0.943 0.09884 0.0
H258 H 0.19007 0.97049 0.9827 0.0
H259 H 0.2491 1.01 0.16672 0.0
H260 H 0.16474 0.97462 0.18896 0.0
H261 H 0.30832 0.03654 0.92383 0.0
H262 H 0.18331 0.89722 0.09133 0.0
H263 H 0.15104 0.92489 0.97278 0.0
C264 C 0.03569 0.2053 0.11324 0.0
C265 C 0.03423 0.1975 0.16277 0.0
N266 N 0.02705 0.21254 0.19119 0.0
N267 N 0.02965 0.22534 0.11013 0.0
C268 C 0.02446 0.22939 0.15828 0.0
H269 H 0.04022 0.19648 0.08122 0.0
Co270 Co 0.02605 0.23939 0.04885 0.0
C271 C 0.04839 0.29778 0.06448 0.0
O272 O 0.06037 0.30097 1.0205 0.0
N273 N 0.02086 0.25258 0.98575 0.0
C274 C 1.00221 0.26916 0.93282 0.0
C275 C 1.00547 0.26454 0.98238 0.0
C276 C 0.02603 0.24951 0.9368 0.0
N277 N 1.0151 0.25969 0.90383 0.0
O278 O 0.98772 0.22283 0.06166 0.0
H279 H 0.99627 0.2688 1.01419 0.0
H280 H 0.0367 0.23924 0.92504 0.0
O281 O 0.03335 0.27371 0.08209 0.0
C282 C 0.97468 0.20104 0.03632 0.0
O283 O 0.98824 0.19438 1.00477 0.0
N284 N 0.0636 0.25286 0.03673 0.0
C285 C 0.1154 0.25823 0.03428 0.0
C286 C 0.10923 0.27298 0.06883 0.0
C287 C 0.08315 0.26962 0.07014 0.0
C288 C 0.06946 0.23867 1.00238 0.0
C289 C 0.09538 0.24152 0.9997 0.0
H290 H 0.07822 0.27861 0.10121 0.0
H291 H 0.05331 0.22289 0.98054 0.0
H292 H 0.01777 0.24351 0.16868 0.0
H293 H 0.0379 0.18171 0.1767 0.0
H294 H 0.99 0.27758 0.91924 0.0
H295 H 0.12387 0.28554 0.0971 0.0
H296 H 0.09888 0.22881 0.97398 0.0
C297 C 0.83921 0.81847 0.49359 0.0
C298 C 0.84273 0.82689 0.44414 0.0
N299 N 0.82063 0.8093 0.41773 0.0
N300 N 0.81501 0.79563 0.49871 0.0
C301 C 0.80406 0.79047 0.4518 0.0
H302 H 0.85345 0.82826 0.52405 0.0
Co303 Co 0.80254 0.7779 0.56063 0.0
C304 C 0.75172 0.72657 0.53433 0.0
O305 O 0.73833 0.72754 0.57396 0.0
N306 N 0.79053 0.76055 0.62405 0.0
C307 C 0.7815 0.73204 0.68859 0.0
C308 C 0.78713 0.73612 0.6377 0.0
C309 C 0.78671 0.7708 0.66738 0.0
N310 N 0.78123 0.7539 0.70715 0.0
O311 O 0.77769 0.79156 0.56395 0.0
H312 H 0.78935 0.72242 0.61248 0.0
H313 H 0.78898 0.79074 0.67055 0.0
O314 O 0.77612 0.74536 0.52637 0.0
C315 C 0.7891 0.81537 0.58265 0.0
O316 O 0.81404 0.82585 0.59976 0.0
N317 N 0.82847 0.76661 0.55708 0.0
C318 C 0.87356 0.75962 0.54767 0.0
C319 C 0.85254 0.7485 0.51203 0.0
C320 C 0.83012 0.7522 0.5174 0.0
C321 C 0.8483 0.77689 0.59287 0.0
C322 C 0.87088 0.77333 0.58925 0.0
H323 H 0.81494 0.74482 0.48805 0.0
H324 H 0.84715 0.78892 0.62329 0.0
H325 H 0.78425 0.77353 0.44289 0.0
H326 H 0.86045 0.84444 0.42867 0.0
H327 H 0.77805 0.71445 0.71031 0.0
H328 H 0.85396 0.73797 0.47919 0.0
H329 H 0.88691 0.78271 0.61702 0.0
C330 C 0.22108 0.03949 0.47955 0.0
C331 C 0.21355 0.03708 0.42976 0.0
N332 N 0.22544 0.02519 0.40448 0.0
N333 N 0.23799 0.02952 0.48582 0.0
C334 C 0.24024 0.0209 0.4395 0.0
H335 H 0.21417 0.04744 0.50953 0.0
Co336 Co 0.25125 0.02549 0.54747 0.0
C337 C 0.30973 0.04709 0.53223 0.0
O338 O 0.31303 0.05937 0.57578 0.0
N339 N 0.26375 0.01979 0.61046 0.0
C340 C 0.27967 1.0007 0.66385 0.0
C341 C 0.27587 1.00455 0.61416 0.0
C342 C 0.25955 0.0241 0.65919 0.0
N343 N 0.26931 0.01291 0.69225 0.0
O344 O 0.23433 0.98725 0.53511 0.0
H345 H 0.28082 0.99585 0.58248 0.0
H346 H 0.24888 0.0344 0.67079 0.0
O347 O 0.28563 0.03235 0.51475 0.0
C348 C 0.21238 0.9749 0.56057 0.0
O349 O 0.20586 0.98918 0.59046 0.0
N350 N 0.26509 0.06305 0.55976 0.0
C351 C 0.27044 0.11479 0.56275 0.0
C352 C 0.28556 0.10891 0.52838 0.0
C353 C 0.28229 0.08287 0.52691 0.0
C354 C 0.25059 0.06866 0.5939 0.0
C355 C 0.25342 0.09451 0.59688 0.0
H356 H 0.29166 0.07816 0.49611 0.0
H357 H 0.23445 0.05237 0.61509 0.0
H358 H 0.25154 0.01057 0.43219 0.0
H359 H 0.20004 0.04337 0.4137 0.0
H360 H 0.28832 0.98879 0.67802 0.0
H361 H 0.29838 0.12376 0.50044 0.0
H362 H 0.24041 0.09775 0.6224 0.0
C363 C 1.00237 0.18282 0.48287 0.0
C364 C 1.00583 0.17835 0.43314 0.0
N365 N 1.00951 0.1999 0.40538 0.0
N366 N 1.00384 0.20707 0.48693 0.0
C367 C 1.00844 0.21713 0.43929 0.0
H368 H 0.99892 0.16925 0.51421 0.0
Co369 Co 0.99996 0.22155 0.54749 0.0
C370 C 1.00112 0.27208 0.51228 0.0
O371 O 0.01872 0.28729 0.54677 0.0
N372 N 0.99605 0.23591 0.60911 0.0
C373 C 0.9798 0.25183 0.66803 0.0
C374 C 0.97774 0.24391 0.61857 0.0
C375 C 1.00852 0.23851 0.65406 0.0
N376 N 0.99913 0.24839 0.69046 0.0
O377 O 0.03845 0.24625 0.54683 0.0
H378 H 0.96325 0.24339 0.59148 0.0
H379 H 0.02395 0.23301 0.66034 0.0
O380 O 0.9931 0.24679 0.51003 0.0
C381 C 0.05144 0.23574 0.56693 0.0
O382 O 0.03762 0.21173 0.58829 0.0
N383 N 0.96266 0.19571 0.54818 0.0
C384 C 0.91038 0.15053 0.54644 0.0
C385 C 0.91944 0.16981 0.50736 0.0
C386 C 0.94567 0.19234 0.50895 0.0
C387 C 0.95394 0.17763 0.58722 0.0
C388 C 0.92773 0.15507 0.58743 0.0
H389 H 0.95277 0.20617 0.47724 0.0
H390 H 0.96782 0.18008 0.61734 0.0
H391 H 1.0107 0.23661 0.42967 0.0
H392 H 1.00585 0.16055 0.41896 0.0
H393 H 0.9673 0.25866 0.68659 0.0
H394 H 0.90672 0.16695 0.47488 0.0
H395 H 0.92177 0.14041 0.61785 0.0
C396 C 0.87058 0.51818 0.31329 0.0
C397 C 0.86355 0.51319 0.26325 0.0
N398 N 0.88188 0.53448 0.2356 0.0
N399 N 0.89326 0.5425 0.31769 0.0
C400 C 0.89956 0.55214 0.26978 0.0
H401 H 0.86003 0.50478 0.34463 0.0
Co402 Co 0.91041 0.5562 0.37959 0.0
C403 C 0.96195 0.60676 0.35126 0.0
O404 O 0.9608 0.6209 0.38934 0.0
N405 N 0.9274 0.56948 0.44276 0.0
C406 C 0.9564 0.58001 0.50667 0.0
C407 C 0.95213 0.57363 0.45625 0.0
C408 C 0.9171 0.5736 0.48586 0.0
N409 N 0.93433 0.57996 0.52529 0.0
O410 O 0.89619 0.58061 0.37944 0.0
H411 H 0.96594 0.57137 0.43127 0.0
H412 H 0.89691 0.57083 0.48915 0.0
O413 O 0.94314 0.58227 0.3448 0.0
C414 C 0.87233 0.56916 0.39831 0.0
O415 O 0.8623 0.54471 0.41765 0.0
N416 N 0.92217 0.5306 0.37973 0.0
C417 C 0.93109 0.48655 0.37762 0.0
C418 C 0.94281 0.50718 0.34106 0.0
C419 C 0.93802 0.52901 0.34263 0.0
C420 C 0.91122 0.51117 0.41636 0.0
C421 C 0.91565 0.4891 0.41634 0.0
H422 H 0.94601 0.54385 0.31258 0.0
H423 H 0.89814 0.51232 0.44476 0.0
H424 H 0.91706 0.57143 0.26003 0.0
H425 H 0.84611 0.49521 0.24856 0.0
H426 H 0.97424 0.58406 0.52814 0.0
H427 H 0.95478 0.50597 0.31042 0.0
H428 H 0.90575 0.4734 0.4447 0.0
C429 C 0.50769 0.37092 0.307 0.0
C430 C 0.51269 0.36839 0.25715 0.0
N431 N 0.48886 0.35649 0.23207 0.0
N432 N 0.48085 0.36102 0.3136 0.0
C433 C 0.46986 0.35232 0.26734 0.0
H434 H 0.52262 0.37892 0.33682 0.0
Co435 Co 0.46364 0.35705 0.37561 0.0
C436 C 0.42792 0.38 0.36155 0.0
O437 O 0.437 0.39173 0.4055 0.0
N438 N 0.44538 0.35133 0.43883 0.0
C439 C 0.40993 0.3323 0.49139 0.0
C440 C 0.41797 0.33643 0.44192 0.0
C441 C 0.45351 0.35514 0.48781 0.0
N442 N 0.43227 0.34399 0.5204 0.0
O443 O 0.44174 0.31886 0.36279 0.0
H444 H 0.40451 0.32815 0.4099 0.0
H445 H 0.47439 0.36503 0.49988 0.0
O446 O 0.43665 0.36484 0.3434 0.0
C447 C 0.45079 0.30614 0.38859 0.0
O448 O 0.47164 0.32011 0.4185 0.0
N449 N 0.48786 0.39452 0.38846 0.0
C450 C 0.53368 0.4466 0.39462 0.0
C451 C 0.51326 0.44076 0.35898 0.0
C452 C 0.49083 0.41457 0.35589 0.0
C453 C 0.50752 0.39996 0.42346 0.0
C454 C 0.53022 0.42595 0.42801 0.0
H455 H 0.47718 0.41005 0.32446 0.0
H456 H 0.50715 0.38356 0.4446 0.0
H457 H 0.44822 0.34204 0.26025 0.0
H458 H 0.53243 0.37462 0.24089 0.0
H459 H 0.38923 0.32055 0.50498 0.0
H460 H 0.51544 0.45588 0.33155 0.0
H461 H 0.54608 0.42915 0.45446 0.0
C462 C 0.66125 0.15018 0.31397 0.0
C463 C 0.6628 0.15765 0.26413 0.0
N464 N 0.67055 0.1428 0.23647 0.0
N465 N 0.6678 0.13053 0.31801 0.0
C466 C 0.67341 0.12645 0.27015 0.0
H467 H 0.65627 0.15895 0.34548 0.0
Co468 Co 0.67158 0.11614 0.37899 0.0
C469 C 0.64859 0.05753 0.35932 0.0
O470 O 0.63727 0.05233 0.40428 0.0
N471 N 0.67694 0.10239 0.44136 0.0
C472 C 0.69654 0.08594 0.49234 0.0
C473 C 0.691 0.08899 0.44327 0.0
C474 C 0.67484 0.10783 0.49067 0.0
N475 N 0.68663 0.098 0.52237 0.0
O476 O 0.70966 0.1317 0.3647 0.0
H477 H 0.69824 0.08308 0.41063 0.0
H478 H 0.66697 0.12061 0.50322 0.0
O479 O 0.663 0.08218 0.3444 0.0
C480 C 0.72341 0.15337 0.39004 0.0
O481 O 0.71055 0.16065 0.42202 0.0
N482 N 0.63445 0.10361 0.39303 0.0
C483 C 0.58444 0.10212 0.39852 0.0
C484 C 0.5882 0.08534 0.3648 0.0
C485 C 0.61354 0.08678 0.36189 0.0
C486 C 0.63062 0.11917 0.4274 0.0
C487 C 0.60574 0.11841 0.43137 0.0
H488 H 0.61688 0.07643 0.33109 0.0
H489 H 0.64776 0.13458 0.44791 0.0
H490 H 0.68063 0.11266 0.2605 0.0
H491 H 0.65877 0.17308 0.24949 0.0
H492 H 0.70807 0.07655 0.5048 0.0
H493 H 0.57264 0.07321 0.33756 0.0
H494 H 0.60391 0.13214 0.45721 0.0
C495 C 0.85971 0.53315 0.94357 0.0
C496 C 0.85554 0.52461 0.99295 0.0
N497 N 0.87704 0.54241 1.02044 0.0
N498 N 0.88374 0.55626 0.93946 0.0
C499 C 0.89392 0.5615 0.98699 0.0
H500 H 0.84599 0.52327 0.91245 0.0
Co501 Co 0.8965 0.57417 0.87766 0.0
C502 C 0.9472 0.62546 0.90419 0.0
O503 O 0.96066 0.6243 0.86485 0.0
N504 N 0.9087 0.59165 0.81433 0.0
C505 C 0.9178 0.62028 0.74998 0.0
C506 C 0.91228 0.61617 0.80089 0.0
C507 C 0.91228 0.58136 0.77081 0.0
N508 N 0.9178 0.59833 0.73115 0.0
O509 O 0.92138 0.56053 0.87448 0.0
H510 H 0.9102 0.62989 0.82626 0.0
H511 H 0.90975 0.56132 0.76741 0.0
O512 O 0.9228 0.60667 0.91219 0.0
C513 C 0.91009 0.53685 0.85524 0.0
O514 O 0.88516 0.52637 0.83809 0.0
N515 N 0.87061 0.58547 0.8809 0.0
C516 C 0.82583 0.59301 0.88903 0.0
C517 C 0.84663 0.60395 0.92509 0.0
C518 C 0.8689 0.59996 0.92037 0.0
C519 C 0.85096 0.57531 0.84477 0.0
C520 C 0.82854 0.57915 0.84775 0.0
H521 H 0.88393 0.60725 0.94998 0.0
H522 H 0.85216 0.56322 0.81451 0.0
H523 H 0.91337 0.57873 0.99683 0.0
H524 H 0.83773 0.50686 1.00763 0.0
H525 H 0.92131 0.63793 0.7284 0.0
H526 H 0.84516 0.61457 0.95773 0.0
H527 H 0.81266 0.56988 0.81969 0.0
C528 C 0.47916 0.31087 0.94877 0.0
C529 C 0.48596 0.31285 0.999 0.0
N530 N 0.47424 0.32513 1.02362 0.0
N531 N 0.46293 0.32154 0.94154 0.0
C532 C 0.46034 0.33012 0.98773 0.0
H533 H 0.486 0.30259 0.91925 0.0
Co534 Co 0.4499 0.32613 0.87985 0.0
C535 C 0.39158 0.30622 0.89715 0.0
O536 O 0.38668 0.29496 0.85228 0.0
N537 N 0.4374 0.33236 0.81726 0.0
C538 C 0.42193 0.35248 0.76534 0.0
C539 C 0.4262 0.34847 0.81464 0.0
C540 C 0.44055 0.32764 0.76816 0.0
N541 N 0.43102 0.33946 0.73597 0.0
O542 O 0.46723 0.36428 0.89303 0.0
H543 H 0.42211 0.35755 0.84683 0.0
H544 H 0.45023 0.31649 0.75573 0.0
O545 O 0.4161 0.31955 0.91322 0.0
C546 C 0.48912 0.37678 0.86747 0.0
O547 O 0.49551 0.36272 0.83674 0.0
N548 N 0.43548 0.28861 0.86677 0.0
C549 C 0.42977 0.23675 0.86356 0.0
C550 C 0.41437 0.24258 0.89733 0.0
C551 C 0.41777 0.26868 0.89886 0.0
C552 C 0.45003 0.28299 0.83278 0.0
C553 C 0.44708 0.25709 0.82978 0.0
H554 H 0.40818 0.27328 0.92939 0.0
H555 H 0.46623 0.29931 0.81167 0.0
H556 H 0.44935 0.34082 0.9944 0.0
H557 H 0.49879 0.30593 1.01584 0.0
H558 H 0.41381 0.36502 0.75206 0.0
H559 H 0.40124 0.22765 0.92487 0.0
H560 H 0.46019 0.25383 0.80456 0.0
C561 C 0.69642 0.17017 0.94419 0.0
C562 C 0.69247 0.17482 0.99353 0.0
N563 N 0.68951 0.15384 1.02226 0.0
N564 N 0.69595 0.14636 0.94121 0.0
C565 C 0.6915 0.13673 0.98921 0.0
H566 H 0.69943 0.18331 0.91232 0.0
Co567 Co 0.70056 0.1322 0.88069 0.0
C568 C 0.69906 0.08158 0.91616 0.0
O569 O 0.68146 0.06651 0.88155 0.0
N570 N 0.70525 0.11834 0.81893 0.0
C571 C 0.72342 0.10437 0.76024 0.0
C572 C 0.72343 0.11011 0.81047 0.0
C573 C 0.69474 0.11784 0.77265 0.0
N574 N 0.70555 0.10946 0.73602 0.0
O575 O 0.66225 0.10723 0.88012 0.0
H576 H 0.73673 0.1093 0.83874 0.0
H577 H 0.6805 0.1248 0.76545 0.0
O578 O 0.70729 0.10692 0.91843 0.0
C579 C 0.64914 0.11738 0.8592 0.0
O580 O 0.66282 0.14142 0.83792 0.0
N581 N 0.73775 0.15823 0.88111 0.0
C582 C 0.7902 0.20312 0.88313 0.0
C583 C 0.78093 0.18382 0.9222 0.0
C584 C 0.75461 0.16144 0.92047 0.0
C585 C 0.74662 0.17643 0.84226 0.0
C586 C 0.7729 0.19883 0.84217 0.0
H587 H 0.74738 0.14752 0.95204 0.0
H588 H 0.73283 0.17413 0.81207 0.0
H589 H 0.68998 0.11766 0.99971 0.0
H590 H 0.69157 0.19232 1.00674 0.0
H591 H 0.73609 0.0974 0.74296 0.0
H592 H 0.79359 0.18652 0.95469 0.0
H593 H 0.77901 0.21353 0.81181 0.0
C594 C 0.48767 0.17328 0.44448 0.0
C595 C 0.49545 0.17787 0.49424 0.0
N596 N 0.48327 0.15395 0.51921 0.0
N597 N 0.47046 0.1466 0.43773 0.0
C598 C 0.46821 0.13529 0.48385 0.0
H599 H 0.49398 0.18846 0.41503 0.0
Co600 Co 0.45424 0.13053 0.37616 0.0
C601 C 0.40577 0.07837 0.41153 0.0
O602 O 0.40813 0.06301 0.37731 0.0
N603 N 0.43803 0.11468 0.31405 0.0
C604 C 0.40736 0.09653 0.25297 0.0
C605 C 0.41158 0.1046 0.30244 0.0
C606 C 0.44965 0.11318 0.27032 0.0
N607 N 0.43128 0.10194 0.23259 0.0
O608 O 0.47167 0.10897 0.37978 0.0
H609 H 0.39637 0.10391 0.32797 0.0
H610 H 0.47116 0.12055 0.26598 0.0
O611 O 0.4227 0.10375 0.41289 0.0
C612 C 0.49635 0.12428 0.3664 0.0
O613 O 0.50339 0.14856 0.34881 0.0
N614 N 0.43944 0.1535 0.37187 0.0
C615 C 0.42935 0.19676 0.37052 0.0
C616 C 0.41774 0.17652 0.40785 0.0
C617 C 0.4231 0.15505 0.408 0.0
C618 C 0.44967 0.17212 0.33379 0.0
C619 C 0.44469 0.19381 0.33213 0.0
H620 H 0.41563 0.14082 0.43908 0.0
H621 H 0.46314 0.17104 0.30619 0.0
H622 H 0.45609 0.11373 0.49109 0.0
H623 H 0.50882 0.1975 0.51071 0.0
H624 H 0.38828 0.08829 0.2329 0.0
H625 H 0.40579 0.17803 0.43821 0.0
H626 H 0.45448 0.20917 0.30315 0.0
C627 C 0.86069 0.3201 0.43849 0.0
C628 C 0.85478 0.32123 0.48839 0.0
N629 N 0.87707 0.32765 0.51633 0.0
N630 N 0.88655 0.32563 0.43441 0.0
C631 C 0.89614 0.33031 0.4823 0.0
H632 H 0.84719 0.31614 0.40689 0.0
Co633 Co 0.9037 0.32878 0.37264 0.0
C634 C 0.93991 0.30663 0.38896 0.0
O635 O 0.93071 0.29415 0.34565 0.0
N636 N 0.92177 0.33362 0.30924 0.0
C637 C 0.95713 0.35232 0.25651 0.0
C638 C 0.94915 0.3486 0.30598 0.0
C639 C 0.91359 0.32933 0.26022 0.0
N640 N 0.93481 0.34028 0.2274 0.0
O641 O 0.92507 0.36718 0.38342 0.0
H642 H 0.96262 0.35742 0.33782 0.0
H643 H 0.89266 0.31952 0.24838 0.0
O644 O 0.93116 0.32201 0.40586 0.0
C645 C 0.91533 0.37912 0.35712 0.0
O646 O 0.89469 0.36442 0.32724 0.0
N647 N 0.87983 0.29109 0.36223 0.0
C648 C 0.83376 0.23909 0.36174 0.0
C649 C 0.85477 0.24584 0.39644 0.0
C650 C 0.87726 0.27201 0.3968 0.0
C651 C 0.85978 0.28465 0.32758 0.0
C652 C 0.83686 0.25865 0.32597 0.0
H653 H 0.89125 0.27739 0.4279 0.0
H654 H 0.86 0.30041 0.3045 0.0
H655 H 0.91682 0.33595 0.49175 0.0
H656 H 0.83567 0.31844 0.50244 0.0
H657 H 0.97781 0.36444 0.24307 0.0
H658 H 0.85296 0.23158 0.42547 0.0
H659 H 0.82062 0.25474 0.29994 0.0
C660 C 0.70439 0.53829 0.46181 0.0
C661 C 0.70247 0.53072 0.51164 0.0
N662 N 0.6949 0.5458 0.53902 0.0
N663 N 0.69821 0.55818 0.45752 0.0
C664 C 0.6925 0.56238 0.50521 0.0
H665 H 0.70943 0.52948 0.43042 0.0
Co666 Co 0.69528 0.57249 0.39594 0.0
C667 C 0.71767 0.63071 0.41284 0.0
O668 O 0.73039 0.63411 0.36961 0.0
N669 N 0.69063 0.58615 0.33269 0.0
C670 C 0.672 0.60331 0.281 0.0
C671 C 0.67558 0.59851 0.3302 0.0
C672 C 0.69514 0.5829 0.28338 0.0
N673 N 0.68424 0.5935 0.25117 0.0
O674 O 0.65668 0.55564 0.40701 0.0
H675 H 0.66664 0.6028 0.36239 0.0
H676 H 0.70512 0.57206 0.27088 0.0
O677 O 0.70217 0.60655 0.42962 0.0
C678 C 0.64401 0.53434 0.38016 0.0
O679 O 0.65808 0.52806 0.34915 0.0
N680 N 0.73313 0.58624 0.38532 0.0
C681 C 0.78552 0.59283 0.38303 0.0
C682 C 0.7784 0.60602 0.41943 0.0
C683 C 0.75209 0.60217 0.42041 0.0
C684 C 0.73983 0.57337 0.34954 0.0
C685 C 0.76604 0.57689 0.34692 0.0
H686 H 0.74648 0.61023 0.45213 0.0
H687 H 0.7242 0.55818 0.32599 0.0
H688 H 0.68565 0.57649 0.51464 0.0
H689 H 0.70616 0.5151 0.52649 0.0
H690 H 0.65987 0.61198 0.26825 0.0
H691 H 0.79256 0.61791 0.44886 0.0
H692 H 0.77027 0.56533 0.31962 0.0
C693 C 0.51383 0.14424 0.80624 0.0
C694 C 0.51928 0.1514 0.75625 0.0
N695 N 0.49572 0.13918 0.73028 0.0
N696 N 0.48699 0.12722 0.81219 0.0
C697 C 0.47642 0.12455 0.76533 0.0
H698 H 0.52852 0.15124 0.83651 0.0
Co699 Co 0.46976 0.1135 0.87424 0.0
C700 C 0.43207 0.05521 0.85743 0.0
O701 O 0.43908 0.05065 0.90207 0.0
N702 N 0.45171 0.10046 0.93773 0.0
C703 C 0.41664 0.08401 0.99112 0.0
C704 C 0.42441 0.08889 0.94153 0.0
C705 C 0.46009 0.10322 0.98658 0.0
N706 N 0.43904 0.09302 1.01972 0.0
O707 O 0.44824 0.13054 0.86247 0.0
H708 H 0.41088 0.08495 0.90999 0.0
H709 H 0.48105 0.11321 0.99819 0.0
O710 O 0.44249 0.07966 0.84103 0.0
C711 C 0.45577 0.15175 0.88906 0.0
O712 O 0.47546 0.15851 0.92184 0.0
N713 N 0.49326 0.09914 0.8852 0.0
C714 C 0.53885 0.09231 0.88525 0.0
C715 C 0.5176 0.07815 0.8511 0.0
C716 C 0.49523 0.0821 0.85118 0.0
C717 C 0.51359 0.11267 0.91933 0.0
C718 C 0.53626 0.1091 0.92078 0.0
H719 H 0.48106 0.07349 0.82042 0.0
H720 H 0.5138 0.12852 0.94194 0.0
H721 H 0.45488 0.11283 0.75749 0.0
H722 H 0.53919 0.16471 0.74048 0.0
H723 H 0.39608 0.07566 1.00513 0.0
H724 H 0.51917 0.06559 0.82213 0.0
H725 H 0.55276 0.12134 0.94632 0.0
C726 C 0.87782 0.3619 0.8033 0.0
C727 C 0.86942 0.3567 0.75388 0.0
N728 N 0.88641 0.35088 0.72832 0.0
N729 N 0.89999 0.35937 0.80912 0.0
C730 C 0.90482 0.35267 0.76273 0.0
H731 H 0.86822 0.36693 0.83338 0.0
Co732 Co 0.91705 0.36265 0.87104 0.0
C733 C 0.96271 0.35551 0.83561 0.0
O734 O 0.9529 0.33219 0.85944 0.0
N735 N 0.93407 0.36573 0.93383 0.0
C736 C 0.96577 0.37914 0.99328 0.0
C737 C 0.96074 0.38206 0.94364 0.0
C738 C 0.92321 0.35348 0.97864 0.0
N739 N 0.94216 0.36114 1.01535 0.0
O740 O 0.90169 0.324 0.87205 0.0
H741 H 0.97564 0.39563 0.91658 0.0
H742 H 0.9019 0.33917 0.98447 0.0
O743 O 0.94984 0.36857 0.8367 0.0
C744 C 0.87819 0.31276 0.89237 0.0
O745 O 0.86915 0.3283 0.91042 0.0
N746 N 0.92966 0.40013 0.87087 0.0
C747 C 0.93693 0.45246 0.86724 0.0
C748 C 0.94707 0.44308 0.8286 0.0
C749 C 0.9433 0.41681 0.83118 0.0
C750 C 0.92051 0.40922 0.90954 0.0
C751 C 0.92426 0.43544 0.90882 0.0
H752 H 0.94975 0.40932 0.79974 0.0
H753 H 0.90895 0.39557 0.93993 0.0
H754 H 0.92098 0.3484 0.75459 0.0
H755 H 0.85215 0.35721 0.73793 0.0
H756 H 0.98525 0.38994 1.01202 0.0
H757 H 0.95678 0.45551 0.79565 0.0
H758 H 0.9156 0.4416 0.93889 0.0
C759 C 0.66725 0.51779 0.83074 0.0
C760 C 0.67083 0.51293 0.78134 0.0
N761 N 0.67526 0.53455 0.75294 0.0
N762 N 0.66941 0.54236 0.8341 0.0
C763 C 0.67451 0.55223 0.78628 0.0
H764 H 0.6633 0.50426 0.86239 0.0
Co765 Co 0.66575 0.55711 0.89464 0.0
C766 C 0.66677 0.60765 0.85788 0.0
O767 O 0.68399 0.62347 0.89229 0.0
N768 N 0.66211 0.57152 0.95634 0.0
C769 C 0.64685 0.58781 1.0164 0.0
C770 C 0.64453 0.58035 0.96654 0.0
C771 C 0.67435 0.57314 1.00116 0.0
N772 N 0.66558 0.58321 0.03825 0.0
O773 O 0.70411 0.58145 0.89421 0.0
H774 H 0.63036 0.58071 0.93974 0.0
H775 H 0.68921 0.56683 1.00688 0.0
O776 O 0.65926 0.58247 0.85686 0.0
C777 C 0.71648 0.57036 0.91453 0.0
O778 O 0.70202 0.54607 0.93454 0.0
N779 N 0.62851 0.53167 0.89533 0.0
C780 C 0.57645 0.48639 0.89202 0.0
C781 C 0.58514 0.5067 0.8549 0.0
C782 C 0.61132 0.52916 0.85707 0.0
C783 C 0.62003 0.51281 0.933 0.0
C784 C 0.59395 0.49008 0.93234 0.0
H785 H 0.6182 0.54355 0.82628 0.0
H786 H 0.63409 0.51469 0.96234 0.0
H787 H 0.67746 0.57192 0.77619 0.0
H788 H 0.67042 0.49481 0.76789 0.0
H789 H 0.63495 0.59517 0.03556 0.0
H790 H 0.57227 0.50461 0.82311 0.0
H791 H 0.58827 0.47468 0.96127 0.0
C792 C 0.54989 0.84759 0.62745 0.0
C793 C 0.54247 0.84327 0.57754 0.0
N794 N 0.55423 0.86741 0.55329 0.0
N795 N 0.5665 0.87431 0.63508 0.0
C796 C 0.56877 0.88594 0.58927 0.0
H797 H 0.54361 0.83221 0.6565 0.0
Co798 Co 0.58122 0.8897 0.69795 0.0
C799 C 0.62605 0.943 0.66027 0.0
O800 O 0.61457 0.9566 0.67699 0.0
N801 N 0.59603 0.90515 0.7611 0.0
C802 C 0.62635 0.9257 0.82195 0.0
C803 C 0.62266 0.91713 0.77282 0.0
C804 C 0.5838 0.90617 0.80441 0.0
N805 N 0.60195 0.91886 0.84196 0.0
O806 O 0.56323 0.91076 0.69349 0.0
H807 H 0.63849 0.91905 0.74756 0.0
H808 H 0.56211 0.89781 0.80839 0.0
O809 O 0.61396 0.91728 0.66522 0.0
C810 C 0.53856 0.89495 0.70646 0.0
O811 O 0.5319 0.87056 0.72284 0.0
N812 N 0.59635 0.86699 0.70333 0.0
C813 C 0.60676 0.8239 0.70503 0.0
C814 C 0.61804 0.84395 0.66731 0.0
C815 C 0.61248 0.8653 0.66696 0.0
C816 C 0.58643 0.84857 0.74178 0.0
C817 C 0.59158 0.82698 0.74362 0.0
H818 H 0.61947 0.87921 0.63538 0.0
H819 H 0.57302 0.84965 0.7695 0.0
H820 H 0.58038 0.9076 0.58277 0.0
H821 H 0.52953 0.8237 0.56051 0.0
H822 H 0.6455 0.93554 0.84195 0.0
H823 H 0.62983 0.84236 0.63675 0.0
H824 H 0.58203 0.81177 0.77291 0.0
C825 C 0.17606 0.70453 0.64459 0.0
C826 C 0.18134 0.70257 0.59465 0.0
N827 N 0.1576 0.69046 0.56926 0.0
N828 N 0.14913 0.69409 0.65091 0.0
C829 C 0.13837 0.68558 0.60448 0.0
H830 H 0.19088 0.71269 0.67457 0.0
Co831 Co 0.13157 0.68994 0.71247 0.0
C832 C 0.09471 0.71149 0.69621 0.0
O833 O 0.10327 0.72354 0.74006 0.0
N834 N 0.11301 0.68406 0.77528 0.0
C835 C 0.07739 0.66419 0.82727 0.0
C836 C 0.08562 0.6688 0.77794 0.0
C837 C 0.12096 0.68759 0.82437 0.0
N838 N 0.09959 0.67592 0.85665 0.0
O839 O 0.11049 0.65161 0.70018 0.0
H840 H 0.07233 0.66045 0.74573 0.0
H841 H 0.14181 0.69753 0.83664 0.0
O842 O 0.10408 0.69666 0.67914 0.0
C843 C 0.11988 0.63928 0.72628 0.0
O844 O 0.14056 0.65363 0.75632 0.0
N845 N 0.15501 0.72766 0.72472 0.0
C846 C 0.20083 0.77988 0.72739 0.0
C847 C 0.17991 0.7734 0.69257 0.0
C848 C 0.15753 0.74715 0.69115 0.0
C849 C 0.17491 0.73387 0.75964 0.0
C850 C 0.19768 0.75994 0.76232 0.0
H851 H 0.14371 0.74205 0.65986 0.0
H852 H 0.17479 0.71792 0.7819 0.0
H853 H 0.11675 0.67509 0.5972 0.0
H854 H 0.20125 0.70944 0.57858 0.0
H855 H 0.05666 0.65199 0.84044 0.0
H856 H 0.18174 0.78796 0.66417 0.0
H857 H 0.21383 0.76365 0.78841 0.0
C858 C 0.32256 0.4799 0.64199 0.0
C859 C 0.3241 0.48716 0.59206 0.0
N860 N 0.33417 0.47398 0.56536 0.0
N861 N 0.33139 0.46202 0.64704 0.0
C862 C 0.33835 0.45876 0.5997 0.0
H863 H 0.31601 0.48764 0.67291 0.0
Co864 Co 0.33591 0.44899 0.70892 0.0
C865 C 0.31625 0.39081 0.69399 0.0
O866 O 0.30504 0.3867 0.73894 0.0
N867 N 0.34214 0.43673 0.77215 0.0
C868 C 0.36285 0.42183 0.82384 0.0
C869 C 0.35868 0.42603 0.77463 0.0
C870 C 0.33727 0.43962 0.8214 0.0
N871 N 0.34944 0.43037 0.8536 0.0
O872 O 0.37446 0.46693 0.69583 0.0
H873 H 0.36805 0.42233 0.74238 0.0
H874 H 0.32596 0.44913 0.83384 0.0
O875 O 0.32978 0.41507 0.67636 0.0
C876 C 0.38725 0.48877 0.72117 0.0
O877 O 0.37343 0.4952 0.75253 0.0
N878 N 0.29799 0.43389 0.72129 0.0
C879 C 0.24508 0.42596 0.72282 0.0
C880 C 0.25239 0.41209 0.68832 0.0
C881 C 0.27894 0.41659 0.68766 0.0
C882 C 0.291 0.44711 0.75585 0.0
C883 C 0.26454 0.44301 0.75799 0.0
H884 H 0.28457 0.40812 0.65672 0.0
H885 H 0.30655 0.46304 0.77841 0.0
H886 H 0.34742 0.44645 0.59097 0.0
H887 H 0.31852 0.50136 0.57674 0.0
H888 H 0.37603 0.41438 0.83666 0.0
H889 H 0.23821 0.39926 0.6597 0.0
H890 H 0.2601 0.45499 0.7839 0.0
C891 C 0.52207 0.87812 0.26755 0.0
C892 C 0.51697 0.87051 0.3174 0.0
N893 N 0.54063 0.88292 0.34303 0.0
N894 N 0.54879 0.89559 0.26136 0.0
C895 C 0.55965 0.89808 0.30793 0.0
H896 H 0.50723 0.87125 0.23756 0.0
Co897 Co 0.56543 0.91047 0.19939 0.0
C898 C 0.60315 0.96837 0.22023 0.0
O899 O 0.59576 0.97407 0.17701 0.0
N900 N 0.58286 0.92464 0.13587 0.0
C901 C 0.61734 0.94207 0.08111 0.0
C902 C 0.6102 0.93739 0.131 0.0
C903 C 0.57387 0.92079 0.08734 0.0
N904 N 0.59452 0.93158 0.05338 0.0
O905 O 0.58701 0.89327 0.20717 0.0
H906 H 0.62423 0.94194 0.16192 0.0
H907 H 0.55281 0.90923 0.07656 0.0
O908 O 0.59297 0.94353 0.2341 0.0
C909 C 0.57898 0.8725 0.17905 0.0
O910 O 0.5587 0.86628 0.14796 0.0
N911 N 0.54189 0.92506 0.19211 0.0
C912 C 0.49638 0.93197 0.19656 0.0
C913 C 0.51782 0.94526 0.23071 0.0
C914 C 0.54013 0.94125 0.22837 0.0
C915 C 0.5214 0.91245 0.15792 0.0
C916 C 0.49876 0.91609 0.15875 0.0
H917 H 0.55446 0.94906 0.25905 0.0
H918 H 0.52098 0.89718 0.13338 0.0
H919 H 0.58118 0.91017 0.31554 0.0
H920 H 0.4972 0.85683 0.33335 0.0
H921 H 0.63781 0.95104 0.06628 0.0
H922 H 0.51646 0.95712 0.26131 0.0
H923 H 0.48213 0.9045 0.13304 0.0
C924 C 0.14855 0.64648 0.28527 0.0
C925 C 0.15609 0.64924 0.33514 0.0
N926 N 0.14336 0.66034 0.36024 0.0
N927 N 0.13088 0.65547 0.27879 0.0
C928 C 0.12813 0.66388 0.32502 0.0
H929 H 0.15581 0.63878 0.2554 0.0
Co930 Co 0.11689 0.65822 0.217 0.0
C931 C 0.05877 0.63697 0.23374 0.0
O932 O 0.05539 0.62374 0.1913 0.0
N933 N 0.10362 0.66281 0.15368 0.0
C934 C 0.08708 0.6817 0.10117 0.0
C935 C 0.09149 0.67807 0.15052 0.0
C936 C 0.10731 0.65836 0.10466 0.0
N937 N 0.09707 0.6694 0.07212 0.0
O938 O 0.13446 0.69681 0.22615 0.0
H939 H 0.08708 0.68711 0.18236 0.0
H940 H 0.11813 0.64828 0.09255 0.0
O941 O 0.08295 0.65235 0.25043 0.0
C942 C 0.15588 0.70839 0.19904 0.0
O943 O 0.1617 0.69325 0.17007 0.0
N944 N 0.10232 0.62016 0.20809 0.0
C945 C 0.0954 0.56772 0.21 0.0
C946 C 0.08235 0.57555 0.24545 0.0
C947 C 0.08634 0.60187 0.24432 0.0
C948 C 0.11483 0.61266 0.17286 0.0
C949 C 0.11117 0.5864 0.1724 0.0
H950 H 0.07852 0.6081 0.27553 0.0
H951 H 0.12999 0.62776 0.14826 0.0
H952 H 0.11602 0.67336 0.33218 0.0
H953 H 0.17005 0.64362 0.35142 0.0
H954 H 0.07839 0.69369 0.08762 0.0
H955 H 0.07056 0.56201 0.27591 0.0
H956 H 0.12258 0.58162 0.14565 0.0
C957 C 0.36672 0.50587 0.27532 0.0
C958 C 0.3626 0.51021 0.32469 0.0
N959 N 0.35745 0.48814 0.35245 0.0
N960 N 0.36425 0.4812 0.27122 0.0
C961 C 0.35844 0.47076 0.31861 0.0
H962 H 0.37126 0.51983 0.24417 0.0
Co963 Co 0.3683 0.46721 0.21014 0.0
C964 C 0.36644 0.416 0.24269 0.0
O965 O 0.34929 0.40149 0.20704 0.0
N966 N 0.37233 0.45349 0.14788 0.0
C967 C 0.38824 0.43808 0.08743 0.0
C968 C 0.39054 0.44552 0.13727 0.0
C969 C 0.35968 0.45136 0.10331 0.0
N970 N 0.36885 0.4418 0.06601 0.0
O971 O 0.32984 0.44294 0.2093 0.0
H972 H 0.40501 0.44562 0.16389 0.0
H973 H 0.34419 0.45685 0.09795 0.0
O974 O 0.37442 0.44122 0.24662 0.0
C975 C 0.31755 0.45416 0.18915 0.0
O976 O 0.33207 0.47869 0.17015 0.0
N977 N 0.40566 0.49257 0.21071 0.0
C978 C 0.45828 0.53706 0.21427 0.0
C979 C 0.4487 0.51733 0.25259 0.0
C980 C 0.42229 0.49516 0.25009 0.0
C981 C 0.41489 0.51109 0.1724 0.0
C982 C 0.44126 0.53333 0.17311 0.0
H983 H 0.41478 0.48098 0.28126 0.0
H984 H 0.40128 0.50925 0.14218 0.0
H985 H 0.35504 0.45079 0.32788 0.0
H986 H 0.36328 0.52839 0.33844 0.0
H987 H 0.40053 0.43126 0.06803 0.0
H988 H 0.46114 0.51959 0.28519 0.0
H989 H 0.44764 0.54837 0.1433 0.0
C990 C 0.15698 0.49876 0.77919 0.0
C991 C 0.16406 0.50433 0.82907 0.0
N992 N 0.14586 0.48329 0.85735 0.0
N993 N 0.13441 0.4743 0.77554 0.0
C994 C 0.12813 0.4652 0.82373 0.0
H995 H 0.16756 0.51174 0.74737 0.0
Co996 Co 0.11804 0.45958 0.71373 0.0
C997 C 0.07125 0.40765 0.74964 0.0
O998 O 0.08086 0.39335 0.72826 0.0
N999 N 0.10177 0.4451 0.65079 0.0
C1000 C 0.07216 0.4317 0.58744 0.0
C1001 C 0.07595 0.43768 0.63806 0.0
C1002 C 0.11319 0.44322 0.60716 0.0
N1003 N 0.0956 0.4352 0.56805 0.0
O1004 O 0.13309 0.43589 0.71712 0.0
H1005 H 0.06108 0.43772 0.66354 0.0
H1006 H 0.13431 0.44887 0.60332 0.0
O1007 O 0.08469 0.4335 0.74734 0.0
C1008 C 0.15706 0.44736 0.69876 0.0
O1009 O 0.16689 0.47145 0.67795 0.0
N1010 N 0.10578 0.48469 0.71016 0.0
C1011 C 0.09812 0.52952 0.7095 0.0
C1012 C 0.0863 0.50956 0.74726 0.0
C1013 C 0.09048 0.48734 0.74708 0.0
C1014 C 0.11649 0.50325 0.67203 0.0
C1015 C 0.11267 0.5257 0.67067 0.0
H1016 H 0.08285 0.47325 0.77836 0.0
H1017 H 0.12923 0.50135 0.64387 0.0
H1018 H 0.11071 0.44593 0.834 0.0
H1019 H 0.18156 0.52245 0.8432 0.0
H1020 H 0.0537 0.42563 0.56632 0.0
H1021 H 0.07499 0.51176 0.77802 0.0
H1022 H 0.12261 0.54083 0.64138 0.0
C1023 C 0.52861 0.65723 0.77257 0.0
C1024 C 0.52336 0.66011 0.82214 0.0
N1025 N 0.54588 0.66695 0.84951 0.0
N1026 N 0.55428 0.66208 0.76844 0.0
C1027 C 0.56436 0.66795 0.81596 0.0
H1028 H 0.51479 0.65245 0.74121 0.0
Co1029 Co 0.57112 0.66339 0.7072 0.0
C1030 C 0.60517 0.6391 0.72824 0.0
O1031 O 0.59562 0.62554 0.68602 0.0
N1032 N 0.58904 0.66635 0.64426 0.0
C1033 C 0.62445 0.68315 0.59163 0.0
C1034 C 0.61645 0.67951 0.64109 0.0
C1035 C 0.58096 0.66309 0.59519 0.0
N1036 N 0.60218 0.67293 0.56233 0.0
O1037 O 0.5941 0.7018 0.71605 0.0
H1038 H 0.63005 0.68757 0.67294 0.0
H1039 H 0.56021 0.65521 0.58346 0.0
O1040 O 0.59733 0.65564 0.74246 0.0
C1041 C 0.58584 0.71458 0.68835 0.0
O1042 O 0.56512 0.70056 0.65822 0.0
N1043 N 0.54582 0.62578 0.69849 0.0
C1044 C 0.4985 0.57461 0.6983 0.0
C1045 C 0.51881 0.58114 0.73453 0.0
C1046 C 0.54201 0.60689 0.73453 0.0
C1047 C 0.52634 0.61961 0.66272 0.0
C1048 C 0.50286 0.594 0.6612 0.0
H1049 H 0.55564 0.61221 0.76621 0.0
H1050 H 0.52749 0.63534 0.63835 0.0
H1051 H 0.58513 0.67392 0.82542 0.0
H1052 H 0.50444 0.65757 0.83683 0.0
H1053 H 0.64527 0.69429 0.57854 0.0
H1054 H 0.516 0.56704 0.76463 0.0
H1055 H 0.4872 0.5903 0.63393 0.0
C1056 C 0.37437 0.87051 0.77624 0.0
C1057 C 0.37297 0.86345 0.82629 0.0
N1058 N 0.36499 0.8783 0.85337 0.0
N1059 N 0.36749 0.8899 0.77151 0.0
C1060 C 0.36187 0.89425 0.81916 0.0
H1061 H 0.37936 0.86155 0.74507 0.0
Co1062 Co 0.36292 0.90348 0.7103 0.0
C1063 C 0.38658 0.96236 0.72653 0.0
O1064 O 0.39726 0.96646 0.6811 0.0
N1065 N 0.35676 0.91652 0.64793 0.0
C1066 C 0.33654 0.93256 0.59761 0.0
C1067 C 0.34225 0.92947 0.64652 0.0
C1068 C 0.35906 0.91148 0.59851 0.0
N1069 N 0.34689 0.92106 0.56724 0.0
O1070 O 0.32494 0.88808 0.72622 0.0
H1071 H 0.33501 0.9352 0.6794 0.0
H1072 H 0.36753 0.8993 0.58548 0.0
O1073 O 0.37224 0.93807 0.74338 0.0
C1074 C 0.31124 0.86608 0.70167 0.0
O1075 O 0.32417 0.85865 0.67011 0.0
N1076 N 0.39977 0.91556 0.69442 0.0
C1077 C 0.44953 0.91677 0.68509 0.0
C1078 C 0.44662 0.93403 0.71899 0.0
C1079 C 0.4214 0.93276 0.72381 0.0
C1080 C 0.4027 0.89939 0.66016 0.0
C1081 C 0.42742 0.90004 0.65416 0.0
H1082 H 0.4188 0.94367 0.75452 0.0
H1083 H 0.38504 0.88371 0.6412 0.0
H1084 H 0.35437 0.90788 0.82825 0.0
H1085 H 0.37716 0.84823 0.84147 0.0
H1086 H 0.32471 0.94168 0.58545 0.0
H1087 H 0.46285 0.94654 0.7448 0.0
H1088 H 0.42858 0.88597 0.62821 0.0
C1089 C 0.17166 0.48606 0.14818 0.0
C1090 C 0.17539 0.49444 0.09867 0.0
N1091 N 0.15355 0.47662 0.07193 0.0
N1092 N 0.14759 0.46305 0.15295 0.0
C1093 C 0.13694 0.45773 0.10583 0.0
H1094 H 0.18564 0.49603 0.17892 0.0
Co1095 Co 0.13455 0.44519 0.21455 0.0
C1096 C 0.0843 0.39395 0.18641 0.0
O1097 O 0.07037 0.39543 0.22464 0.0
N1098 N 0.12193 0.42761 0.27762 0.0
C1099 C 0.11304 0.39875 0.34146 0.0
C1100 C 0.11843 0.40306 0.29058 0.0
C1101 C 0.11832 0.4377 0.32138 0.0
N1102 N 0.11299 0.42058 0.36076 0.0
O1103 O 0.10921 0.45827 0.2159 0.0
H1104 H 0.12067 0.38953 0.26496 0.0
H1105 H 0.12082 0.45773 0.32512 0.0
O1106 O 0.10894 0.41246 0.1795 0.0
C1107 C 0.12008 0.4821 0.23439 0.0
O1108 O 0.14466 0.49279 0.25335 0.0
N1109 N 0.16102 0.43459 0.21296 0.0
C1110 C 0.20682 0.42858 0.2075 0.0
C1111 C 0.1866 0.41738 0.17036 0.0
C1112 C 0.16376 0.42055 0.17381 0.0
C1113 C 0.18012 0.44502 0.25005 0.0
C1114 C 0.20301 0.44192 0.24844 0.0
H1115 H 0.14913 0.41305 0.1435 0.0
H1116 H 0.17812 0.45678 0.28002 0.0
H1117 H 0.11726 0.44065 0.09666 0.0
H1118 H 0.19307 0.51211 0.08341 0.0
H1119 H 0.10975 0.3811 0.36277 0.0
H1120 H 0.18894 0.40717 0.13792 0.0
H1121 H 0.21842 0.45137 0.2773 0.0
C1122 C 0.54374 0.6938 0.14 0.0
C1123 C 0.53587 0.69032 0.09033 0.0
N1124 N 0.55419 0.68737 0.06263 0.0
N1125 N 0.56692 0.69301 0.14423 0.0
C1126 C 0.5728 0.68893 0.09655 0.0
H1127 H 0.53321 0.69666 0.17129 0.0
Co1128 Co 0.5842 0.69678 0.20613 0.0
C1129 C 0.63179 0.6917 0.17981 0.0
O1130 O 0.62562 0.67396 0.21643 0.0
N1131 N 0.60123 0.70066 0.26942 0.0
C1132 C 0.63243 0.71624 0.33008 0.0
C1133 C 0.62731 0.71896 0.28038 0.0
C1134 C 0.59072 0.68756 0.31377 0.0
N1135 N 0.60939 0.69652 0.35111 0.0
O1136 O 0.56928 0.65821 0.20791 0.0
H1137 H 0.64173 0.73356 0.25387 0.0
H1138 H 0.56988 0.67172 0.31889 0.0
O1139 O 0.61685 0.70217 0.1714 0.0
C1140 C 0.54577 0.64662 0.22819 0.0
O1141 O 0.5364 0.6618 0.24661 0.0
N1142 N 0.59642 0.73406 0.20494 0.0
C1143 C 0.60308 0.78609 0.2003 0.0
C1144 C 0.6149 0.77733 0.16365 0.0
C1145 C 0.61135 0.75116 0.16667 0.0
C1146 C 0.58562 0.74253 0.24174 0.0
C1147 C 0.58898 0.76856 0.2405 0.0
H1148 H 0.61923 0.74416 0.13671 0.0
H1149 H 0.57315 0.72848 0.27096 0.0
H1150 H 0.5905 0.68743 0.08688 0.0
H1151 H 0.51768 0.68962 0.07612 0.0
H1152 H 0.65151 0.72827 0.3496 0.0
H1153 H 0.62584 0.79019 0.13186 0.0
H1154 H 0.57903 0.77421 0.26898 0.0
C1155 C 0.33931 0.85217 0.14562 0.0
C1156 C 0.34331 0.84744 0.09639 0.0
N1157 N 0.34537 0.86792 0.06726 0.0
N1158 N 0.33886 0.87554 0.14814 0.0
C1159 C 0.34275 0.88481 0.09992 0.0
H1160 H 0.337 0.83944 0.1778 0.0
Co1161 Co 0.33429 0.8896 0.20869 0.0
C1162 C 0.33477 0.93968 0.17444 0.0
O1163 O 0.35277 0.95462 0.20862 0.0
N1164 N 0.32956 0.90325 0.27052 0.0
C1165 C 0.31084 0.91634 0.3297 0.0
C1166 C 0.311 0.91097 0.27934 0.0
C1167 C 0.34009 0.90365 0.31669 0.0
N1168 N 0.32894 0.91148 0.35358 0.0
O1169 O 0.37245 0.91517 0.20836 0.0
H1170 H 0.29748 0.91154 0.2513 0.0
H1171 H 0.3545 0.89688 0.32364 0.0
O1172 O 0.32666 0.91439 0.17138 0.0
C1173 C 0.38612 0.90556 0.229 0.0
O1174 O 0.37301 0.8816 0.25075 0.0
N1175 N 0.29737 0.86303 0.20926 0.0
C1176 C 0.24515 0.81778 0.20975 0.0
C1177 C 0.25338 0.83735 0.17123 0.0
C1178 C 0.27964 0.85986 0.17159 0.0
C1179 C 0.28955 0.8446 0.2476 0.0
C1180 C 0.26343 0.82198 0.2489 0.0
H1181 H 0.28603 0.87397 0.14035 0.0
H1182 H 0.30403 0.84696 0.27643 0.0
H1183 H 0.34349 0.90349 0.08902 0.0
H1184 H 0.34497 0.83031 0.08352 0.0
H1185 H 0.29782 0.92279 0.34733 0.0
H1186 H 0.23994 0.83482 0.14016 0.0
H1187 H 0.25818 0.80713 0.27875 0.0
C1188 C 0.3723 0.30323 0.98363 0.0
C1189 C 0.3684 0.29947 0.93133 0.0
H1190 H 0.35366 0.29478 0.05662 0.0
C1191 C 0.34173 0.28665 0.91228 0.0
H1192 H 0.39256 0.31308 0.99952 0.0
C1193 C 0.3194 0.27627 0.94498 0.0
C1194 C 0.3233 0.27831 0.99744 0.0
H1195 H 0.33803 0.28366 0.87209 0.0
H1196 H 0.29915 0.26539 0.92916 0.0
C1197 C 0.34997 0.29266 1.01635 0.0
C1198 C 0.71417 0.04762 0.93504 0.0
C1199 C 0.71204 0.07032 0.94927 0.0
H1200 H 0.73125 0.02218 0.95209 0.0
C1201 C 0.72428 0.08372 0.99429 0.0
H1202 H 0.70505 0.03697 0.9003 0.0
C1203 C 0.73882 0.07514 1.02392 0.0
C1204 C 0.74198 0.05314 1.00904 0.0
H1205 H 0.72299 0.10121 1.00644 0.0
H1206 H 0.74825 0.0864 0.05798 0.0
C1207 C 0.72925 0.03923 0.9645 0.0
C1208 C 0.94709 0.64883 0.98343 0.0
C1209 C 0.95843 0.65019 0.93572 0.0
H1210 H 0.94522 0.6703 0.04755 0.0
C1211 C 0.97855 0.67562 0.91721 0.0
H1212 H 0.93166 0.6296 0.99893 0.0
C1213 C 0.98621 0.69935 0.94508 0.0
C1214 C 0.97409 0.69794 0.99214 0.0
H1215 H 0.98756 0.67732 0.88038 0.0
H1216 H 1.00112 0.71875 0.92934 0.0
C1217 C 0.95491 0.67231 1.01132 0.0
C1218 C 0.29885 0.34641 0.5784 0.0
C1219 C 0.28511 0.32027 0.60001 0.0
H1220 H 0.31989 0.38934 0.59108 0.0
C1221 C 0.28508 0.31768 0.65267 0.0
H1222 H 0.29946 0.34908 0.53784 0.0
C1223 C 0.29672 0.3408 0.68314 0.0
C1224 C 0.30883 0.36695 0.66158 0.0
H1225 H 0.27474 0.29787 0.67048 0.0
H1226 H 0.29519 0.33814 0.72373 0.0
C1227 C 0.31069 0.36953 0.60886 0.0
C1228 C 0.66958 0.94386 0.64098 0.0
C1229 C 0.6546 0.95745 0.642 0.0
H1230 H 0.70728 0.9458 0.62454 0.0
C1231 C 0.66754 0.98486 0.62716 0.0
H1232 H 0.66052 0.92291 0.65293 0.0
C1233 C 0.69468 0.99815 0.61066 0.0
C1234 C 0.70952 0.98438 0.60944 0.0
H1235 H 0.65662 0.99596 0.62778 0.0
H1236 H 0.70398 0.01914 0.59868 0.0
C1237 C 0.69664 0.95715 0.62519 0.0
C1238 C 0.07267 0.73931 0.68067 0.0
C1239 C 0.07695 0.71806 0.66534 0.0
H1240 H 0.05551 0.76429 0.66346 0.0
C1241 C 0.06495 0.70437 0.6202 0.0
H1242 H 0.08154 0.75037 0.71517 0.0
C1243 C 0.04944 0.7122 0.59067 0.0
C1244 C 0.04614 0.73415 0.6054 0.0
H1245 H 0.06782 0.6879 0.60741 0.0
H1246 H 0.04092 0.70176 0.55549 0.0
C1247 C 0.05769 0.74736 0.65096 0.0
C1248 C 0.68597 0.71613 0.07844 0.0
C1249 C 0.70984 0.72828 0.10742 0.0
H1250 H 0.64228 0.69559 0.07893 0.0
C1251 C 0.70784 0.72763 0.16022 0.0
H1252 H 0.68708 0.71673 0.0376 0.0
C1253 C 0.68232 0.71473 0.18373 0.0
C1254 C 0.65846 0.70326 0.15473 0.0
H1255 H 0.72601 0.73703 0.18323 0.0
H1256 H 0.6812 0.7145 0.22456 0.0
C1257 C 0.66045 0.70416 0.10193 0.0
C1258 C 0.31801 0.97275 0.16129 0.0
C1259 C 0.32071 0.95082 0.14406 0.0
H1260 H 0.29952 0.99739 0.14941 0.0
C1261 C 0.30789 0.93794 0.09902 0.0
H1262 H 0.32752 0.98293 0.19617 0.0
C1263 C 0.29227 0.94634 0.07223 0.0
C1264 C 0.28862 0.96758 0.09013 0.0
H1265 H 0.30959 0.92103 0.08471 0.0
H1266 H 0.28243 0.93555 0.03801 0.0
C1267 C 0.30186 0.98091 0.13476 0.0
C1268 C 0.07593 0.34778 0.07748 0.0
C1269 C 0.05542 0.3223 0.09489 0.0
H1270 H 0.10096 0.39006 0.09248 0.0
C1271 C 0.04301 0.32082 0.14166 0.0
H1272 H 0.08595 0.34984 0.04162 0.0
C1273 C 0.0515 0.34431 0.17079 0.0
C1274 C 0.0728 0.36953 0.15396 0.0
H1275 H 0.02712 0.30153 0.15607 0.0
H1276 H 0.04207 0.34254 0.20721 0.0
C1277 C 0.08461 0.37098 0.10671 0.0
C1278 C 0.71182 0.65325 0.49031 0.0
C1279 C 0.72385 0.65509 0.44296 0.0
H1280 H 0.71088 0.67463 0.55638 0.0
C1281 C 0.74328 0.68085 0.42472 0.0
H1282 H 0.69674 0.63372 0.50536 0.0
C1283 C 0.75145 0.704 0.4538 0.0
C1284 C 0.74022 0.7022 0.50179 0.0
H1285 H 0.75291 0.6832 0.38831 0.0
H1286 H 0.76706 0.72332 0.43895 0.0
C1287 C 0.71983 0.67667 0.51938 0.0
C1288 C 0.3599 0.07333 0.51893 0.0
C1289 C 0.33422 0.05289 0.50249 0.0
H1290 H 0.40241 0.09716 0.50329 0.0
C1291 C 0.33255 0.03917 0.45735 0.0
H1292 H 0.36209 0.08431 0.55355 0.0
C1293 C 0.35605 0.04636 0.42871 0.0
C1294 C 0.38146 0.06765 0.4444 0.0
H1295 H 0.3131 0.02327 0.44376 0.0
H1296 H 0.35416 0.03608 0.39333 0.0
C1297 C 0.38312 0.08073 0.49013 0.0
C1298 C 0.96113 0.2781 0.40447 0.0
C1299 C 0.95754 0.2998 0.41959 0.0
H1300 H 0.9775 0.25247 0.42174 0.0
C1301 C 0.97002 0.31365 0.46433 0.0
H1302 H 0.95188 0.2669 0.37027 0.0
C1303 C 0.98532 0.30551 0.49372 0.0
C1304 C 0.98791 0.28311 0.47924 0.0
H1305 H 0.96767 0.33047 0.47693 0.0
H1306 H 0.99423 0.31609 0.52861 0.0
C1307 C 0.97588 0.26975 0.43405 0.0
C1308 C 0.98512 0.60533 0.27259 0.0
C1309 C 0.98667 0.61739 0.31946 0.0
H1310 H 1.00629 0.60226 0.20903 0.0
C1311 C 1.01225 0.6376 0.33698 0.0
H1312 H 0.96581 0.58979 0.25785 0.0
C1313 C 0.03592 0.64463 0.30898 0.0
C1314 C 0.03427 0.63177 0.26279 0.0
H1315 H 1.0141 0.64715 0.37319 0.0
H1316 H 0.05545 0.6596 0.32397 0.0
C1317 C 1.0085 0.61251 0.24456 0.0
C1318 C 0.39114 0.41685 0.32076 0.0
C1319 C 0.37953 0.40442 0.27469 0.0
H1320 H 0.415 0.4187 0.38414 0.0
C1321 C 0.3826 0.38259 0.25821 0.0
H1322 H 0.38909 0.43365 0.33461 0.0
C1323 C 0.398 0.37415 0.28648 0.0
C1324 C 0.41016 0.38714 0.33205 0.0
H1325 H 0.374 0.37274 0.2226 0.0
H1326 H 0.40073 0.35782 0.27234 0.0
C1327 C 0.40605 0.40821 0.3492 0.0
C1328 C 0.63341 0.0177 0.23799 0.0
C1329 C 0.61899 0.9908 0.25583 0.0
H1330 H 0.65445 0.05993 0.25663 0.0
C1331 C 0.61726 0.98606 0.30808 0.0
H1332 H 0.63524 0.022 0.19788 0.0
C1333 C 0.62807 1.00786 0.34178 0.0
C1334 C 0.64109 0.03478 0.3239 0.0
H1335 H 0.60625 0.96559 0.323 0.0
H1336 H 0.62533 1.00357 0.38188 0.0
C1337 C 0.64449 0.03947 0.27166 0.0
C1338 C 0.40724 0.01245 0.73942 0.0
C1339 C 0.39433 0.98602 0.75976 0.0
H1340 H 0.42893 0.05518 0.75428 0.0
C1341 C 0.39108 0.98271 0.81227 0.0
H1342 H 0.40985 0.01568 0.69902 0.0
C1343 C 0.40212 1.00537 0.84388 0.0
C1344 C 0.41639 0.03179 0.82365 0.0
H1345 H 0.38118 0.96266 0.82915 0.0
H1346 H 0.40034 1.00214 0.88433 0.0
C1347 C 0.41804 0.03512 0.77103 0.0
C1348 C 1.0036 0.39595 0.79922 0.0
C1349 C 0.99018 0.3683 0.81238 0.0
H1350 H 0.03949 0.42992 0.76968 0.0
C1351 C 1.00373 0.35355 0.80489 0.0
H1352 H 0.99393 0.40803 0.80472 0.0
C1353 C 0.03008 0.36621 0.78451 0.0
C1354 C 0.04355 0.39397 0.77196 0.0
H1355 H 0.99399 0.33222 0.81469 0.0
H1356 H 0.03996 0.35431 0.77899 0.0
C1357 C 0.02994 0.40862 0.77953 0.0
C1358 C 0.63525 0.64778 0.80435 0.0
C1359 C 0.62279 0.63293 0.76042 0.0
H1360 H 0.65951 0.65176 0.86952 0.0
C1361 C 0.62652 0.61103 0.74764 0.0
H1362 H 0.63281 0.6648 0.81516 0.0
C1363 C 0.64143 0.6035 0.77869 0.0
C1364 C 0.65341 0.61784 0.82315 0.0
H1365 H 0.61732 0.59911 0.7141 0.0
H1366 H 0.64321 0.58608 0.76808 0.0
C1367 C 0.65064 0.64042 0.83529 0.0
C1368 C 0.23892 0.23452 0.32741 0.0
C1369 C 0.25993 0.25639 0.35362 0.0
H1370 H 0.22273 0.21683 0.25506 0.0
C1371 C 0.28092 0.27759 0.32593 0.0
H1372 H 0.22265 0.21778 0.34784 0.0
C1373 C 0.28095 0.27707 0.27333 0.0
C1374 C 0.26015 0.25518 0.24695 0.0
H1375 H 0.29728 0.29476 0.34508 0.0
H1376 H 0.29746 0.29373 0.25318 0.0
C1377 C 0.23916 0.2338 0.27447 0.0
C1378 C 0.7411 1.00179 0.33715 0.0
C1379 C 0.76211 1.00021 0.36187 0.0
H1380 H 0.72596 1.00818 0.26792 0.0
C1381 C 0.78548 1.00571 0.33422 0.0
H1382 H 0.72313 0.99825 0.35769 0.0
C1383 C 0.78702 0.0111 0.28215 0.0
C1384 C 0.76529 0.0113 0.25695 0.0
H1385 H 0.80196 1.00458 0.35236 0.0
H1386 H 0.80465 0.01388 0.2614 0.0
C1387 C 0.74274 1.00743 0.28559 0.0
C1388 C 0.02025 0.74246 0.26178 0.0
C1389 C 1.01573 0.76135 0.23535 0.0
H1390 H 0.02922 0.73037 0.33239 0.0
C1391 C 1.01463 0.78189 0.26303 0.0
H1392 H 0.02049 0.72591 0.2422 0.0
C1393 C 0.01935 0.7842 0.31538 0.0
C1394 C 0.02544 0.76615 0.34093 0.0
H1395 H 1.01131 0.79684 0.24405 0.0
H1396 H 0.01945 0.80081 0.33543 0.0
C1397 C 0.02521 0.74494 0.31363 0.0
C1398 C 0.78684 0.74965 0.79888 0.0
C1399 C 0.77702 0.75871 0.75897 0.0
H1400 H 0.79048 0.74716 0.87917 0.0
C1401 C 0.76296 0.77252 0.77045 0.0
H1402 H 0.79796 0.73918 0.79113 0.0
C1403 C 0.75839 0.77673 0.82068 0.0
C1404 C 0.76825 0.76775 0.86061 0.0
H1405 H 0.75509 0.77962 0.74051 0.0
H1406 H 0.74734 0.78729 0.82835 0.0
C1407 C 0.78276 0.75439 0.84917 0.0
C1408 C 0.28775 0.01136 0.82737 0.0
C1409 C 0.26571 0.01045 0.85326 0.0
H1410 H 0.30624 0.01316 0.75616 0.0
C1411 C 0.24469 0.01044 0.82525 0.0
H1412 H 0.30414 0.01119 0.84788 0.0
C1413 C 0.24597 0.01171 0.77233 0.0
C1414 C 0.26809 0.0126 0.74662 0.0
H1415 H 0.22759 1.00999 0.84425 0.0
H1416 H 0.22951 0.01159 0.75156 0.0
C1417 C 0.28887 0.01233 0.77482 0.0
C1418 C 1.01278 0.2355 0.77035 0.0
C1419 C 1.00648 0.25293 0.74318 0.0
H1420 H 0.02014 0.22367 0.84298 0.0
C1421 C 1.00562 0.27398 0.76913 0.0
H1422 H 1.01347 0.21903 0.75138 0.0
C1423 C 1.00968 0.27684 0.82123 0.0
C1424 C 1.01442 0.25853 0.84919 0.0
H1425 H 1.00139 0.28808 0.74912 0.0
H1426 H 1.00862 0.29321 0.83974 0.0
C1427 C 0.01662 0.2382 0.82287 0.0
C1428 C 0.93949 0.57497 0.61676 0.0
C1429 C 0.92967 0.58422 0.57718 0.0
H1430 H 0.94312 0.57197 0.6968 0.0
C1431 C 0.9156 0.59796 0.58915 0.0
H1432 H 0.95019 0.56411 0.6087 0.0
C1433 C 0.9119 0.60279 0.6396 0.0
C1434 C 0.92166 0.59346 0.67916 0.0
H1435 H 0.90792 0.60539 0.55943 0.0
H1436 H 0.9011 0.61355 0.64773 0.0
C1437 C 0.93529 0.57929 0.66715 0.0
C1438 C 0.41127 0.34281 0.60243 0.0
C1439 C 0.43261 0.34323 0.57483 0.0
H1440 H 0.3939 0.34086 0.67491 0.0
C1441 C 0.45341 0.34188 0.60119 0.0
H1442 H 0.39506 0.344 0.58335 0.0
C1443 C 0.45268 0.33997 0.6541 0.0
C1444 C 0.43135 0.33977 0.68151 0.0
H1445 H 0.46995 0.34188 0.58091 0.0
H1446 H 0.46902 0.33919 0.67357 0.0
C1447 C 0.41069 0.34117 0.65496 0.0
C1448 C 0.67685 0.1055 0.66135 0.0
C1449 C 0.7009 0.10798 0.68194 0.0
H1450 H 0.65341 0.1004 0.59412 0.0
C1451 C 0.72047 0.10862 0.64847 0.0
H1452 H 0.66128 0.1049 0.68577 0.0
C1453 C 0.71585 0.10586 0.59657 0.0
C1454 C 0.69159 0.10256 0.576 0.0
H1455 H 0.7396 0.11137 0.66214 0.0
H1456 H 0.73149 0.10644 0.57237 0.0
C1457 C 0.6723 0.10292 0.60886 0.0
C1458 C 0.41698 0.07374 0.1016 0.0
C1459 C 0.43946 0.09351 0.07435 0.0
H1460 H 0.39705 0.06073 0.17309 0.0
C1461 C 0.46091 0.11469 0.10128 0.0
H1462 H 0.40042 0.05679 0.08236 0.0
C1463 C 0.459 0.11685 0.15386 0.0
C1464 C 0.4356 0.09792 0.1803 0.0
H1465 H 0.47847 0.1303 0.08149 0.0
H1466 H 0.47513 0.13404 0.17335 0.0
C1467 C 0.41505 0.07595 0.15367 0.0
C1468 C 0.95938 0.35129 0.09328 0.0
C1469 C 0.93851 0.35272 0.06763 0.0
H1470 H 0.97412 0.34527 0.16336 0.0
C1471 C 0.91496 0.3473 0.09464 0.0
H1472 H 0.97748 0.35472 0.07336 0.0
C1473 C 0.91308 0.34209 0.14684 0.0
C1474 C 0.93466 0.34203 0.17288 0.0
H1475 H 0.89856 0.34831 0.0759 0.0
H1476 H 0.8953 0.33931 0.16704 0.0
C1477 C 0.95743 0.34589 0.14498 0.0
C1478 C 0.6793 0.56924 0.11691 0.0
C1479 C 0.67327 0.5872 0.09086 0.0
H1480 H 0.68725 0.55688 0.18858 0.0
C1481 C 0.67342 0.6085 0.11774 0.0
H1482 H 0.67926 0.55257 0.09722 0.0
C1483 C 0.67831 0.61118 0.16962 0.0
C1484 C 0.68283 0.59242 0.19653 0.0
H1485 H 0.66945 0.62301 0.09861 0.0
H1486 H 0.67806 0.62782 0.18883 0.0
C1487 C 0.68394 0.57176 0.16928 0.0
C1488 C 0.57478 0.90408 0.92129 0.0
C1489 C 0.59726 0.9236 0.89358 0.0
H1490 H 0.55626 0.89117 0.99455 0.0
C1491 C 0.61679 0.94703 0.91846 0.0
H1492 H 0.55946 0.88578 0.90311 0.0
C1493 C 0.61493 0.95018 0.97024 0.0
C1494 C 0.59354 0.92992 0.99888 0.0
H1495 H 0.63403 0.96269 0.89797 0.0
H1496 H 0.63077 0.96822 0.98824 0.0
C1497 C 0.57295 0.90719 0.97359 0.0
C1498 C 0.07674 0.67068 0.99091 0.0
C1499 C 0.09772 0.66996 1.01766 0.0
H1500 H 0.06122 0.67369 0.91939 0.0
C1501 C 0.11967 0.67135 0.99047 0.0
H1502 H 0.05946 0.66944 1.01065 0.0
C1503 C 0.1207 0.67382 0.9376 0.0
C1504 C 0.09962 0.67458 0.91107 0.0
H1505 H 0.13626 0.67112 1.01009 0.0
H1506 H 0.13774 0.67473 0.91748 0.0
C1507 C 0.07767 0.67294 0.9385 0.0
C1508 C 0.35636 0.41344 0.93504 0.0
C1509 C 0.35082 0.43151 0.90819 0.0
H1510 H 0.36623 0.40248 1.00592 0.0
C1511 C 0.34882 0.4517 0.93536 0.0
H1512 H 0.35732 0.39719 0.91581 0.0
C1513 C 0.35368 0.45452 0.98765 0.0
C1514 C 0.3608 0.43734 1.01362 0.0
H1515 H 0.3447 0.46602 0.91601 0.0
H1516 H 0.35309 0.47087 1.00729 0.0
C1517 C 0.36144 0.41642 0.98682 0.0
C1518 C 0.11662 0.42061 0.50253 0.0
C1519 C 0.10091 0.43244 0.51578 0.0
H1520 H 0.13243 0.40719 0.44248 0.0
C1521 C 0.08985 0.44095 0.47713 0.0
H1522 H 0.12528 0.41382 0.53155 0.0
C1523 C 0.09433 0.43764 0.42631 0.0
C1524 C 0.1094 0.42512 0.41305 0.0
H1525 H 0.07784 0.45033 0.48632 0.0
H1526 H 0.08548 0.44424 0.39732 0.0
C1527 C 0.12053 0.41668 0.45169 0.0
C1528 C 0.58042 0.67559 0.48222 0.0
C1529 C 0.60222 0.6757 0.50786 0.0
H1530 H 0.56559 0.68207 0.4118 0.0
C1531 C 0.6252 0.68043 0.47955 0.0
H1532 H 0.56242 0.67213 0.50245 0.0
C1533 C 0.62713 0.68656 0.42813 0.0
C1534 C 0.60594 0.68762 0.40304 0.0
H1535 H 0.64208 0.67989 0.49724 0.0
H1536 H 0.6454 0.69075 0.4079 0.0
C1537 C 0.58222 0.68134 0.43024 0.0
C1538 C 0.35767 0.91553 0.4281 0.0
C1539 C 0.33336 0.91243 0.40762 0.0
H1540 H 0.38107 0.92068 0.49538 0.0
C1541 C 0.31329 0.91064 0.44111 0.0
H1542 H 0.3736 0.917 0.4036 0.0
C1543 C 0.31767 0.91293 0.49306 0.0
C1544 C 0.34218 0.9169 0.51356 0.0
H1545 H 0.29397 0.90737 0.42741 0.0
H1546 H 0.30168 0.91152 0.51737 0.0
C1547 C 0.36199 0.91764 0.48063 0.0
C1548 C 0.26251 0.1192 1.01449 0.0
C1549 C 0.26556 0.1304 0.06288 0.0
H1550 H 0.25389 0.08425 0.9708 0.0
C1551 C 0.26522 0.11504 0.10497 0.0
H1552 H 0.26224 0.13024 0.98133 0.0
C1553 C 0.26083 0.08862 0.09871 0.0
C1554 C 0.25611 0.07704 0.05041 0.0
H1555 H 0.26747 0.12315 0.1427 0.0
H1556 H 0.25941 0.0767 0.13172 0.0
C1557 C 0.2576 0.09279 1.00841 0.0
C1558 C 0.93005 0.16637 1.00235 0.0
C1559 C 0.94531 0.18208 0.04342 0.0
H1560 H 0.89291 0.13262 0.97696 0.0
C1561 C 0.93318 0.17671 0.09146 0.0
H1562 H 0.93895 0.17002 0.96495 0.0
C1563 C 0.90669 0.15485 0.0986 0.0
C1564 C 0.8918 0.13848 0.0576 0.0
H1565 H 0.94468 0.18835 0.12383 0.0
H1566 H 0.89812 0.15031 0.13627 0.0
C1567 C 0.90359 0.145 1.00925 0.0
C1568 C 0.85764 0.77309 0.99895 0.0
C1569 C 0.84258 0.77146 0.04213 0.0
H1570 H 0.89107 0.77044 0.9682 0.0
C1571 C 0.84872 0.7634 0.0881 0.0
H1572 H 0.85352 0.77963 0.96324 0.0
C1573 C 0.87076 0.75873 0.09131 0.0
C1574 C 0.88654 0.76145 0.04833 0.0
H1575 H 0.83772 0.76255 0.12212 0.0
H1576 H 0.87603 0.7539 0.12763 0.0
C1577 C 0.87914 0.76782 1.00185 0.0
C1578 C 0.12284 0.25243 0.59631 0.0
C1579 C 0.13495 0.25841 0.54821 0.0
H1580 H 0.08676 0.24064 0.63968 0.0
C1581 C 0.1203 0.2604 0.5072 0.0
H1582 H 0.13342 0.25037 0.62851 0.0
C1583 C 0.09366 0.25545 0.51398 0.0
C1584 C 0.08112 0.24779 0.56159 0.0
H1585 H 0.12911 0.26487 0.46971 0.0
H1586 H 0.08227 0.25575 0.48146 0.0
C1587 C 0.09613 0.24686 0.60277 0.0
C1588 C 0.76422 0.83525 0.53776 0.0
C1589 C 0.77643 0.83257 0.58179 0.0
H1590 H 0.75063 0.85922 0.49776 0.0
C1591 C 0.78093 0.85012 0.62238 0.0
H1592 H 0.76093 0.82219 0.5057 0.0
C1593 C 0.77475 0.87094 0.6182 0.0
C1594 C 0.76449 0.87505 0.57287 0.0
H1595 H 0.79049 0.84855 0.65661 0.0
H1596 H 0.77982 0.88497 0.64929 0.0
C1597 C 0.75857 0.85654 0.53312 0.0
C1598 C 0.18866 0.93216 0.50937 0.0
C1599 C 0.19332 0.9455 0.55591 0.0
H1600 H 0.1627 0.89616 0.4671 0.0
C1601 C 0.17695 0.93138 0.59745 0.0
H1602 H 0.2009 0.94272 0.47669 0.0
C1603 C 0.15544 0.90492 0.59221 0.0
C1604 C 0.14953 0.89202 0.54505 0.0
H1605 H 0.18014 0.94121 0.63378 0.0
H1606 H 0.14247 0.89519 0.62455 0.0
C1607 C 0.16672 0.90566 0.50386 0.0
C1608 C 0.76844 0.90267 0.11125 0.0
C1609 C 0.76307 0.88967 0.06424 0.0
H1610 H 0.77841 0.93905 0.15133 0.0
C1611 C 0.7602 0.90294 1.02169 0.0
H1612 H 0.77106 0.89321 0.14464 0.0
C1613 C 0.76411 0.92927 0.02571 0.0
C1614 C 0.77146 0.94286 0.07215 0.0
H1615 H 0.75593 0.89335 0.985 0.0
H1616 H 0.76318 0.93959 0.992 0.0
C1617 C 0.77278 0.92902 0.11504 0.0
C1618 C 0.09609 0.84534 0.99654 0.0
C1619 C 0.08358 0.83792 0.04419 0.0
H1620 H 0.13163 0.87344 0.95454 0.0
C1621 C 0.09868 0.85148 0.08708 0.0
H1622 H 0.08472 0.8354 0.96284 0.0
C1623 C 0.12537 0.8728 0.08252 0.0
C1624 C 0.13752 0.88147 0.03478 0.0
H1625 H 0.08945 0.84624 0.12424 0.0
H1626 H 0.13593 0.88354 0.11632 0.0
C1627 C 0.12279 0.86719 0.99181 0.0
C1628 C 0.17763 0.25175 1.0053 0.0
C1629 C 0.18304 0.24485 0.05314 0.0
H1630 H 0.15151 0.26118 0.96145 0.0
C1631 C 0.16783 0.24495 0.09479 0.0
H1632 H 0.18893 0.25153 0.97253 0.0
C1633 C 0.14692 0.25081 0.08868 0.0
C1634 C 0.14036 0.25626 0.04058 0.0
H1635 H 0.17158 0.23968 0.13207 0.0
H1636 H 0.13491 0.24961 0.1214 0.0
C1637 C 0.15618 0.25709 0.99895 0.0
C1638 C 0.93993 0.76 0.56921 0.0
C1639 C 0.95339 0.77105 0.52334 0.0
H1640 H 0.90382 0.74786 0.61326 0.0
C1641 C 0.93928 0.77514 0.48401 0.0
H1642 H 0.95057 0.75706 0.60032 0.0
C1643 C 0.91263 0.7696 0.49108 0.0
C1644 C 0.89971 0.76038 0.53804 0.0
H1645 H 0.94932 0.78382 0.44841 0.0
H1646 H 0.9028 0.77423 0.46075 0.0
C1647 C 0.91335 0.75499 0.57671 0.0
C1648 C 0.25667 0.16715 0.50325 0.0
C1649 C 0.25552 0.18147 0.54534 0.0
H1650 H 0.26272 0.13528 0.4758 0.0
C1651 C 0.26227 0.17578 0.59306 0.0
H1652 H 0.25153 0.17114 0.46604 0.0
C1653 C 0.26832 0.1548 0.59886 0.0
C1654 C 0.26837 0.13972 0.55683 0.0
H1655 H 0.26126 0.18638 0.62616 0.0
H1656 H 0.27215 0.14981 0.6363 0.0
C1657 C 0.26325 0.14671 0.50883 0.0
C1658 C 0.86664 0.11242 0.5823 0.0
C1659 C 0.88473 0.12411 0.54142 0.0
H1660 H 0.83195 0.07666 0.61215 0.0
C1661 C 0.87982 0.10904 0.49689 0.0
H1662 H 0.86996 0.12361 0.61706 0.0
C1663 C 0.85847 0.08228 0.49443 0.0
C1664 C 0.84118 0.07016 0.53598 0.0
H1665 H 0.89352 0.11732 0.46497 0.0
H1666 H 0.85617 0.07063 0.46065 0.0
C1667 C 0.8448 0.08571 0.57938 0.0
C1668 C 0.93536 0.44762 0.41356 0.0
C1669 C 0.93189 0.46095 0.37175 0.0
H1670 H 0.93358 0.4112 0.44153 0.0
C1671 C 0.92643 0.44827 0.3244 0.0
H1672 H 0.93971 0.45696 0.45048 0.0
C1673 C 0.92278 0.42226 0.31948 0.0
C1674 C 0.92487 0.40838 0.36157 0.0
H1675 H 0.92334 0.45777 0.29154 0.0
H1676 H 0.91717 0.4125 0.28293 0.0
C1677 C 0.93212 0.4216 0.40841 0.0
C1678 C 0.57323 0.48081 0.34405 0.0
C1679 C 0.56033 0.47221 0.3912 0.0
H1680 H 0.60978 0.50734 0.30397 0.0
C1681 C 0.57435 0.48658 0.43466 0.0
H1682 H 0.56323 0.47001 0.30993 0.0
C1683 C 0.60111 0.50842 0.43105 0.0
C1684 C 0.61439 0.51575 0.38408 0.0
H1685 H 0.56492 0.48039 0.47149 0.0
H1686 H 0.61192 0.51841 0.46517 0.0
C1687 C 0.59997 0.50214 0.34062 0.0
C1688 C 0.53396 0.08523 0.38961 0.0
C1689 C 0.56099 0.10673 0.39287 0.0
H1690 H 0.49187 0.07375 0.37961 0.0
C1691 C 0.56611 0.13343 0.38774 0.0
H1692 H 0.52947 0.06442 0.39314 0.0
C1693 C 0.54498 0.13866 0.37922 0.0
C1694 C 0.51794 0.11739 0.37602 0.0
H1695 H 0.58669 0.15043 0.38906 0.0
H1696 H 0.54998 0.15962 0.37524 0.0
C1697 C 0.51251 0.09054 0.38191 0.0
C1698 C 0.75992 0.57805 0.95089 0.0
C1699 C 0.74614 0.58217 0.91098 0.0
H1700 H 0.79612 0.57876 0.97535 0.0
C1701 C 0.75994 0.59318 0.86539 0.0
H1702 H 0.7496 0.56941 0.9863 0.0
C1703 C 0.78652 0.59807 0.85869 0.0
C1704 C 0.7998 0.59257 0.8979 0.0
H1705 H 0.74957 0.59615 0.83385 0.0
H1706 H 0.79631 0.60514 0.82233 0.0
C1707 C 0.78656 0.58346 0.94462 0.0
C1708 C 0.43211 0.19672 0.82806 0.0
C1709 C 0.43174 0.21177 0.86987 0.0
H1710 H 0.43925 0.16508 0.80147 0.0
C1711 C 0.43637 0.20465 0.91816 0.0
H1712 H 0.42867 0.2018 0.79041 0.0
C1713 C 0.44278 0.18411 0.92428 0.0
C1714 C 0.44424 0.1698 0.88245 0.0
H1715 H 0.43664 0.21604 0.95105 0.0
H1716 H 0.44754 0.18003 0.96174 0.0
C1717 C 0.43799 0.17564 0.83439 0.0
C1718 C 0.82124 0.24446 0.93255 0.0
C1719 C 0.81605 0.22933 0.88804 0.0
H1720 H 0.84523 0.28288 0.96853 0.0
C1721 C 0.83404 0.24084 0.84697 0.0
H1722 H 0.80762 0.2363 0.96461 0.0
C1723 C 0.85601 0.26748 0.84963 0.0
C1724 C 0.85986 0.28312 0.89298 0.0
H1725 H 0.83052 0.22959 0.81222 0.0
H1726 H 0.86876 0.27643 0.8167 0.0
C1727 C 0.84273 0.27115 0.93477 0.0
C1728 C 0.42669 0.23645 0.33377 0.0
C1729 C 0.42932 0.22278 0.37593 0.0
H1730 H 0.43078 0.27372 0.30486 0.0
C1731 C 0.43543 0.23576 0.42302 0.0
H1732 H 0.4219 0.22691 0.29702 0.0
C1733 C 0.44069 0.26238 0.42727 0.0
C1734 C 0.43962 0.27657 0.38476 0.0
H1735 H 0.43796 0.22604 0.45613 0.0
H1736 H 0.44681 0.2723 0.46361 0.0
C1737 C 0.43156 0.26311 0.33826 0.0
C1738 C 0.76866 0.18638 0.4241 0.0
C1739 C 0.75292 0.17146 0.38279 0.0
H1740 H 0.80642 0.21909 0.44981 0.0
C1741 C 0.76482 0.17696 0.33455 0.0
H1742 H 0.75994 0.18259 0.46167 0.0
C1743 C 0.79159 0.1983 0.32752 0.0
C1744 C 0.80696 0.21399 0.36879 0.0
H1745 H 0.75296 0.16592 0.30202 0.0
H1746 H 0.79999 0.20305 0.28972 0.0
C1747 C 0.79538 0.20722 0.41729 0.0
C1748 C 0.82746 0.59478 0.34567 0.0
C1749 C 0.81113 0.59182 0.38791 0.0
H1750 H 0.8607 0.59088 0.31629 0.0
C1751 C 0.81779 0.58496 0.43467 0.0
H1752 H 0.82275 0.59999 0.30916 0.0
C1753 C 0.83909 0.57945 0.43849 0.0
C1754 C 0.85466 0.58129 0.39598 0.0
H1755 H 0.80543 0.58215 0.46777 0.0
H1756 H 0.84264 0.57254 0.47432 0.0
C1757 C 0.84929 0.58985 0.34981 0.0
C1758 C 0.58003 0.09139 0.91848 0.0
C1759 C 0.56543 0.09366 0.87771 0.0
H1760 H 0.61813 0.09618 0.94406 0.0
C1761 C 0.57768 0.10028 0.82974 0.0
H1762 H 0.57109 0.08642 0.95586 0.0
C1763 C 0.60449 0.10621 0.82326 0.0
C1764 C 0.61945 0.10503 0.86427 0.0
H1765 H 0.56712 0.10257 0.79775 0.0
H1766 H 0.61397 0.1129 0.78653 0.0
C1767 C 0.60678 0.09671 0.91166 0.0
C1768 C 0.92516 0.4822 0.81639 0.0
C1769 C 0.93574 0.47786 0.86111 0.0
H1770 H 0.90885 0.50453 0.77974 0.0
C1771 C 0.9416 0.49597 0.90155 0.0
H1772 H 0.92013 0.46847 0.7848 0.0
C1773 C 0.93557 0.51705 0.89823 0.0
C1774 C 0.92304 0.51991 0.85483 0.0
H1775 H 0.94977 0.4931 0.93646 0.0
H1776 H 0.93884 0.52977 0.93081 0.0
C1777 C 0.91862 0.5028 0.81352 0.0
C1778 C 0.54605 0.44708 0.83767 0.0
C1779 C 0.5512 0.45988 0.88486 0.0
H1780 H 0.52225 0.41083 0.79546 0.0
C1781 C 0.53366 0.44595 0.92548 0.0
H1782 H 0.55933 0.45705 0.80579 0.0
C1783 C 0.51207 0.41933 0.91933 0.0
C1784 C 0.50813 0.40615 0.87277 0.0
H1785 H 0.53711 0.45536 0.96224 0.0
H1786 H 0.4995 0.4086 0.95157 0.0
C1787 C 0.5249 0.4205 0.83181 0.0
C1788 C 0.60969 0.78443 0.74228 0.0
C1789 C 0.60698 0.79793 0.69993 0.0
H1790 H 0.60579 0.74733 0.77168 0.0
C1791 C 0.60101 0.78482 0.65295 0.0
H1792 H 0.6144 0.79405 0.77895 0.0
C1793 C 0.59596 0.75826 0.64899 0.0
C1794 C 0.59707 0.7442 0.69171 0.0
H1795 H 0.59843 0.79439 0.61967 0.0
H1796 H 0.58992 0.74823 0.61273 0.0
C1797 C 0.605 0.75781 0.7381 0.0
C1798 C 0.26965 0.84188 0.75667 0.0
C1799 C 0.28169 0.84802 0.70854 0.0
H1800 H 0.23438 0.81514 0.80072 0.0
C1801 C 0.26606 0.83356 0.66675 0.0
H1802 H 0.28142 0.85253 0.78956 0.0
C1803 C 0.23934 0.81257 0.67292 0.0
C1804 C 0.22762 0.80516 0.72123 0.0
H1805 H 0.27491 0.83781 0.62926 0.0
H1806 H 0.22843 0.80109 0.63996 0.0
C1807 C 0.24287 0.82039 0.76304 0.0
C1808 C 0.21263 0.43207 0.66827 0.0
C1809 C 0.21931 0.42652 0.71622 0.0
H1810 H 0.18745 0.44289 0.62545 0.0
C1811 C 0.20277 0.42433 0.75763 0.0
H1812 H 0.22515 0.43429 0.63574 0.0
C1813 C 0.18064 0.42866 0.75136 0.0
C1814 C 0.17518 0.43585 0.70384 0.0
H1815 H 0.20749 0.42016 0.79501 0.0
H1816 H 0.16902 0.42822 0.78414 0.0
C1817 C 0.19104 0.437 0.6623 0.0
C1818 C 0.45473 0.93309 0.1667 0.0
C1819 C 0.46983 0.93041 0.2061 0.0
H1820 H 0.41623 0.92821 0.14363 0.0
C1821 C 0.45808 0.92308 0.25441 0.0
H1822 H 0.46329 0.93863 0.1291 0.0
C1823 C 0.43127 0.91681 0.26244 0.0
C1824 C 0.41579 0.9183 0.22269 0.0
H1825 H 0.46901 0.92045 0.28537 0.0
H1826 H 0.42221 0.90957 0.29931 0.0
C1827 C 0.42797 0.92739 0.1751 0.0
C1828 C 0.09357 0.52518 0.17685 0.0
C1829 C 0.0966 0.54236 0.21747 0.0
H1830 H 0.09768 0.49156 0.15091 0.0
C1831 C 0.10375 0.53685 0.26501 0.0
H1832 H 0.08815 0.529 0.13978 0.0
C1833 C 0.1095 0.51582 0.27109 0.0
C1834 C 0.1076 0.49939 0.23015 0.0
H1835 H 0.10664 0.5499 0.29688 0.0
H1836 H 0.11666 0.51318 0.30739 0.0
C1837 C 0.09874 0.50363 0.1833 0.0
C1838 C 0.48888 0.57775 0.26556 0.0
C1839 C 0.48408 0.56318 0.22042 0.0
H1840 H 0.51244 0.61575 0.30315 0.0
C1841 C 0.50237 0.57522 0.17994 0.0
H1842 H 0.47502 0.56918 0.29719 0.0
C1843 C 0.52422 0.60186 0.18377 0.0
C1844 C 0.52766 0.61696 0.22773 0.0
H1845 H 0.49914 0.56441 0.14473 0.0
H1846 H 0.53719 0.61123 0.15126 0.0
C1847 C 0.51026 0.60444 0.26895 0.0
C1848 C 0.10069 0.59601 0.6766 0.0
C1849 C 0.10918 0.60977 0.72277 0.0
H1850 H 0.09051 0.55951 0.63592 0.0
C1851 C 0.11085 0.59588 0.76525 0.0
H1852 H 0.09944 0.60637 0.64323 0.0
C1853 C 0.10555 0.56924 0.7613 0.0
C1854 C 0.09881 0.55591 0.71455 0.0
H1855 H 0.1173 0.60602 0.80134 0.0
H1856 H 0.10838 0.5597 0.79438 0.0
C1857 C 0.0958 0.56933 0.6724 0.0
C1858 C 0.42989 0.51246 0.66851 0.0
C1859 C 0.41682 0.50753 0.71559 0.0
H1860 H 0.46617 0.53793 0.62576 0.0
C1861 C 0.43156 0.52313 0.75722 0.0
H1862 H 0.41887 0.50089 0.63571 0.0
C1863 C 0.45846 0.54388 0.75178 0.0
C1864 C 0.47126 0.54992 0.70433 0.0
H1865 H 0.42199 0.5198 0.79396 0.0
H1866 H 0.46879 0.55614 0.78441 0.0
C1867 C 0.45683 0.53373 0.66279 0.0
C1868 C 0.48964 0.88047 0.6983 0.0
C1869 C 0.51673 0.90178 0.69943 0.0
H1870 H 0.44771 0.86856 0.69292 0.0
C1871 C 0.52194 0.9286 0.69448 0.0
H1872 H 0.48477 0.85953 0.70176 0.0
C1873 C 0.50026 0.93384 0.68959 0.0
C1874 C 0.47318 0.91228 0.68835 0.0
H1875 H 0.5426 0.94544 0.69531 0.0
H1876 H 0.50461 0.95462 0.68658 0.0
C1877 C 0.46828 0.88561 0.69269 0.0
C1878 C 0.27315 0.42999 0.23531 0.0
C1879 C 0.28776 0.44187 0.19079 0.0
H1880 H 0.23575 0.41658 0.27584 0.0
C1881 C 0.27449 0.44611 0.15011 0.0
H1882 H 0.28309 0.42688 0.26741 0.0
C1883 C 0.2475 0.43989 0.15458 0.0
C1884 C 0.23338 0.42987 0.20026 0.0
H1885 H 0.28542 0.45538 0.1155 0.0
H1886 H 0.23828 0.44465 0.12333 0.0
C1887 C 0.24621 0.42432 0.24023 0.0
C1888 C 0.60541 0.82862 0.23434 0.0
C1889 C 0.60201 0.81151 0.19332 0.0
H1890 H 0.60138 0.86199 0.26179 0.0
C1891 C 0.59424 0.81699 0.14643 0.0
H1892 H 0.61148 0.82494 0.2709 0.0
C1893 C 0.58822 0.83787 0.14145 0.0
C1894 C 0.59019 0.85404 0.18301 0.0
H1895 H 0.59115 0.80408 0.11423 0.0
H1896 H 0.58097 0.84068 0.10539 0.0
C1897 C 0.59979 0.84989 0.2291 0.0
C1898 C 0.21236 0.77735 0.16004 0.0
C1899 C 0.21924 0.79153 0.2059 0.0
H1900 H 0.18675 0.73996 0.12221 0.0
C1901 C 0.20278 0.77911 0.24857 0.0
H1902 H 0.22472 0.78616 0.12663 0.0
C1903 C 0.18068 0.75254 0.24585 0.0
C1904 C 0.1751 0.73789 0.20067 0.0
H1905 H 0.20754 0.78962 0.28437 0.0
H1906 H 0.16907 0.74295 0.27967 0.0
C1907 C 0.19068 0.7508 0.15758 0.0
C1908 C 0.23152 0.22835 0.77588 0.0
C1909 C 0.20884 0.20866 0.74912 0.0
H1910 H 0.25261 0.24008 0.84657 0.0
C1911 C 0.18984 0.18508 0.7749 0.0
H1912 H 0.24648 0.24682 0.75739 0.0
C1913 C 0.19321 0.18134 0.82591 0.0
C1914 C 0.21573 0.20101 0.85289 0.0
H1915 H 0.17234 0.16925 0.75562 0.0
H1916 H 0.17783 0.16308 0.84428 0.0
C1917 C 0.23489 0.2246 0.8272 0.0
C1918 C 0.79375 1.00587 0.83559 0.0
C1919 C 0.81928 0.01975 0.85956 0.0
H1920 H 0.77203 0.9895 0.76627 0.0
C1921 C 0.84277 0.0292 0.82948 0.0
H1922 H 0.77517 0.99818 0.85718 0.0
C1923 C 0.84088 0.02392 0.77776 0.0
C1924 C 0.81548 1.00935 0.75415 0.0
H1925 H 0.86281 0.04064 0.84575 0.0
H1926 H 0.85943 0.03128 0.75611 0.0
C1927 C 0.7919 1.00085 0.78341 0.0
C1928 C 1.01019 0.78991 0.75779 0.0
C1929 C 0.01981 0.81522 0.73351 0.0
H1930 H 0.99718 0.76732 0.82737 0.0
C1931 C 0.02445 0.83758 0.76343 0.0
H1932 H 1.00624 0.7721 0.73661 0.0
C1933 C 0.01896 0.83467 0.81517 0.0
C1934 C 1.00894 0.8094 0.83914 0.0
H1935 H 0.03246 0.8576 0.7473 0.0
H1936 H 0.02285 0.85242 0.83661 0.0
C1937 C 1.00497 0.78709 0.81 0.0
C1938 C 0.80173 0.78723 0.335 0.0
C1939 C 0.8164 0.81079 0.36426 0.0
H1940 H 0.78942 0.77057 0.26063 0.0
C1941 C 0.82823 0.83613 0.33992 0.0
H1942 H 0.79244 0.76739 0.3526 0.0
C1943 C 0.82644 0.83798 0.28769 0.0
C1944 C 0.81287 0.81452 0.25785 0.0
H1945 H 0.83909 0.85469 0.36136 0.0
H1946 H 0.83588 0.85796 0.2707 0.0
C1947 C 0.80002 0.78907 0.28229 0.0
C1948 C 0.19769 0.01256 0.32679 0.0
C1949 C 0.22135 0.01709 0.35206 0.0
H1950 H 0.17527 1.00214 0.25814 0.0
C1951 C 0.24076 0.01359 0.32515 0.0
H1952 H 0.18207 0.01462 0.3462 0.0
C1953 C 0.23663 1.00597 0.27416 0.0
C1954 C 0.21294 1.00154 0.24899 0.0
H1955 H 0.25929 0.01705 0.34326 0.0
H1956 H 0.2519 1.00333 0.25465 0.0
C1957 C 0.19358 1.00496 0.27612 0.0
C1958 C 0.02692 0.23187 0.27519 0.0
C1959 C 0.02164 0.20954 0.24485 0.0
H1960 H 0.02787 0.24664 0.34982 0.0
C1961 C 1.01157 0.18404 0.268 0.0
H1962 H 0.03481 0.2518 0.25849 0.0
C1963 C 1.00733 0.18093 0.32009 0.0
C1964 C 1.01326 0.20329 0.35106 0.0
H1965 H 1.00671 0.16628 0.24568 0.0
H1966 H 0.99922 0.16079 0.33577 0.0
C1967 C 0.02291 0.22883 0.3277 0.0
C1968 C 0.86828 0.51546 0.09854 0.0
C1969 C 0.8804 0.54085 0.07428 0.0
H1970 H 0.85977 0.4935 0.16775 0.0
C1971 C 0.89451 0.56435 0.10389 0.0
H1972 H 0.85783 0.49693 0.07692 0.0
C1973 C 0.8955 0.56241 0.15674 0.0
C1974 C 0.88246 0.53691 0.18104 0.0
H1975 H 0.90398 0.58423 0.08642 0.0
H1976 H 0.90578 0.58088 0.17856 0.0
C1977 C 0.86934 0.51351 0.15093 0.0
C1978 C 0.46179 0.34477 0.15283 0.0
C1979 C 0.48475 0.34834 0.17959 0.0
H1980 H 0.44032 0.3345 0.08244 0.0
C1981 C 0.50389 0.34388 0.15403 0.0
H1982 H 0.4467 0.34816 0.17111 0.0
C1983 C 0.50037 0.33631 0.1033 0.0
C1984 C 0.47755 0.33284 0.07631 0.0
H1985 H 0.52162 0.34598 0.17326 0.0
H1986 H 0.51586 0.33352 0.08515 0.0
C1987 C 0.45827 0.33718 0.10178 0.0
C1988 C 0.67649 0.12573 0.10108 0.0
C1989 C 0.6854 0.15087 0.07661 0.0
H1990 H 0.66478 0.10342 0.17104 0.0
C1991 C 0.69013 0.17325 0.10652 0.0
H1992 H 0.67247 0.10791 0.07982 0.0
C1993 C 0.68546 0.17053 0.15855 0.0
C1994 C 0.67616 0.14542 0.1828 0.0
H1995 H 0.69764 0.19314 0.09006 0.0
H1996 H 0.68944 0.18831 0.17997 0.0
C1997 C 0.67206 0.12309 0.15355 0.0
C1998 C 0.51208 0.16534 0.65049 0.0
C1999 C 0.49224 0.14252 0.67699 0.0
H2000 H 0.52518 0.18652 0.58044 0.0
C2001 C 0.46924 0.12324 0.65027 0.0
H2002 H 0.5299 0.18089 0.66943 0.0
C2003 C 0.46629 0.12675 0.59854 0.0
C2004 C 0.48623 0.14968 0.57228 0.0
H2005 H 0.45361 0.10531 0.66914 0.0
H2006 H 0.44823 0.11168 0.57937 0.0
C2007 C 0.50917 0.1688 0.59912 0.0
C2008 C 0.90775 0.35165 0.64589 0.0
C2009 C 0.88442 0.34359 0.67564 0.0
H2010 H 0.92394 0.35345 0.57198 0.0
C2011 C 0.85884 0.32898 0.65269 0.0
H2012 H 0.92776 0.36302 0.66252 0.0
C2013 C 0.85655 0.32314 0.60115 0.0
C2014 C 0.8798 0.33209 0.57051 0.0
H2015 H 0.84047 0.32196 0.67475 0.0
H2016 H 0.83636 0.31163 0.58553 0.0
C2017 C 0.9055 0.34611 0.59387 0.0
C2018 C 0.67899 0.51787 0.61652 0.0
C2019 C 0.68906 0.54315 0.59256 0.0
H2020 H 0.66609 0.49507 0.68468 0.0
C2021 C 0.69378 0.56563 0.62199 0.0
H2022 H 0.67454 0.5 0.59492 0.0
C2023 C 0.68922 0.56293 0.67441 0.0
C2024 C 0.67954 0.5376 0.69863 0.0
H2025 H 0.70165 0.58542 0.60468 0.0
H2026 H 0.69374 0.58085 0.69579 0.0
C2027 C 0.67418 0.51509 0.6685 0.0
C2028 C 0.52509 0.85618 0.42227 0.0
C2029 C 0.54444 0.87942 0.3961 0.0
H2030 H 0.51259 0.83448 0.49184 0.0
C2031 C 0.56723 0.89897 0.42295 0.0
H2032 H 0.50745 0.84043 0.40321 0.0
C2033 C 0.57043 0.89529 0.47452 0.0
C2034 C 0.55099 0.87191 0.50044 0.0
H2035 H 0.58247 0.91723 0.40432 0.0
H2036 H 0.5883 0.91058 0.49384 0.0
C2037 C 0.52825 0.85255 0.47344 0.0
C2038 C 0.17389 0.68057 0.48967 0.0
C2039 C 0.15378 0.68296 0.51643 0.0
H2040 H 0.18666 0.67213 0.41971 0.0
C2041 C 0.13002 0.67783 0.49055 0.0
H2042 H 0.19231 0.68396 0.50802 0.0
C2043 C 0.12658 0.67054 0.43937 0.0
C2044 C 0.14675 0.66812 0.41286 0.0
H2045 H 0.11416 0.67965 0.50962 0.0
H2046 H 0.10797 0.66649 0.4208 0.0
C2047 C 0.17046 0.67335 0.43878 0.0
C2048 C 0.34505 0.45957 0.43084 0.0
C2049 C 0.35214 0.48438 0.40652 0.0
H2050 H 0.33381 0.43678 0.5003 0.0
C2051 C 0.35388 0.50567 0.43643 0.0
H2052 H 0.34343 0.44256 0.40986 0.0
C2053 C 0.34824 0.50219 0.48808 0.0
C2054 C 0.3408 0.4774 0.51209 0.0
H2055 H 0.35966 0.52529 0.42045 0.0
H2056 H 0.34998 0.51919 0.5094 0.0
C2057 C 0.33958 0.45619 0.48298 0.0
C2058 C 0.15929 0.5048 0.94143 0.0
C2059 C 0.14584 0.48121 0.91189 0.0
H2060 H 0.17189 0.52182 1.01494 0.0
C2061 C 0.13327 0.45586 0.93665 0.0
H2062 H 0.16854 0.52472 0.92422 0.0
C2063 C 0.13504 0.45423 0.98936 0.0
C2064 C 0.14951 0.47792 1.01834 0.0
H2065 H 0.1228 0.43725 0.91526 0.0
H2066 H 0.12591 0.43446 1.00719 0.0
C2067 C 0.16117 0.50317 0.99371 0.0
C2068 C 0.53523 0.68478 0.92577 0.0
C2069 C 0.54943 0.67332 0.90276 0.0
H2070 H 0.5262 0.69897 0.99321 0.0
C2071 C 0.5664 0.66767 0.9329 0.0
H2072 H 0.52251 0.69001 0.90356 0.0
C2073 C 0.56834 0.67254 0.98519 0.0
C2074 C 0.5535 0.68339 1.00842 0.0
H2075 H 0.57755 0.65877 0.91631 0.0
H2076 H 0.58095 0.66719 1.0074 0.0
C2077 C 0.53734 0.68986 0.97757 0.0
C2078 C 0.363 0.89823 0.93572 0.0
C2079 C 0.35915 0.87584 0.90693 0.0
H2080 H 0.36222 0.91358 1.00913 0.0
C2081 C 0.34983 0.85081 0.93151 0.0
H2082 H 0.37027 0.91782 0.91793 0.0
C2083 C 0.34494 0.84824 0.98347 0.0
C2084 C 0.34947 0.8707 1.01293 0.0
H2085 H 0.34602 0.83299 0.91042 0.0
H2086 H 0.33743 0.82843 1.00026 0.0
C2087 C 0.35834 0.89574 0.98813 0.0
loop_
_geom_bond_atom_site_label_1
_geom_bond_atom_site_label_2
_geom_bond_distance
_geom_bond_site_symmetry_2
_ccdc_geom_bond_type
C0 C1 1.351 . S
C0 N3 1.368 . S
C0 H5 0.931 . S
C1 C0 1.351 . S
C1 N2 1.373 . S
C1 H29 0.930 . S
N2 C1 1.373 . S
N2 C4 1.340 . S
N3 C0 1.368 . S
N3 C4 1.321 . S
N3 Co6 2.135 1_556 S
C4 N2 1.340 . S
C4 N3 1.321 . S
C4 H28 0.930 . S
H5 C0 0.931 . S
Co6 N3 2.135 1_554 S
Co6 N9 2.121 . S
Co6 O14 2.055 . S
Co6 O17 2.039 1_554 S
Co6 N20 2.140 . S
C7 O8 1.227 . S
C7 O17 1.265 . S
O8 C7 1.227 . S
N9 Co6 2.121 . S
N9 C11 1.375 . S
N9 C12 1.313 . S
C10 C11 1.338 . S
C10 N13 1.377 . S
C10 H30 0.930 . S
C11 N9 1.375 . S
C11 C10 1.338 . S
C11 H15 0.931 . S
C12 N9 1.313 . S
C12 N13 1.344 . S
C12 H16 0.930 . S
N13 C10 1.377 . S
N13 C12 1.344 . S
O14 Co6 2.055 . S
O14 C18 1.253 . S
H15 C11 0.931 . S
H16 C12 0.930 . S
O17 Co6 2.039 1_556 S
O17 C7 1.265 . S
C18 O14 1.253 . S
C18 O19 1.227 . S
O19 C18 1.227 . S
N20 Co6 2.140 . S
N20 C23 1.346 1_554 S
N20 C24 1.345 . S
C21 C22 1.387 1_554 S
C21 C25 1.391 . S
C22 C21 1.387 1_556 S
C22 C23 1.369 . S
C22 H31 0.929 . S
C23 N20 1.346 1_556 S
C23 C22 1.369 . S
C23 H26 0.928 . S
C24 N20 1.345 . S
C24 C25 1.371 . S
C24 H27 0.931 . S
C25 C21 1.391 . S
C25 C24 1.371 . S
C25 H32 0.930 . S
H26 C23 0.928 . S
H27 C24 0.931 . S
H28 C4 0.930 . S
H29 C1 0.930 . S
H30 C10 0.930 . S
H31 C22 0.929 . S
H32 C25 0.930 . S
C33 C34 1.351 . S
C33 N36 1.368 1_565 S
C33 H38 0.931 . S
C34 C33 1.351 . S
C34 N35 1.373 1_565 S
C34 H62 0.930 . S
N35 C34 1.373 1_545 S
N35 C37 1.340 . S
N36 C33 1.368 1_545 S
N36 C37 1.321 . S
N36 Co39 2.135 1_556 S
C37 N35 1.340 . S
C37 N36 1.321 . S
C37 H61 0.930 . S
H38 C33 0.931 . S
Co39 N36 2.135 1_554 S
Co39 N42 2.121 . S
Co39 O47 2.055 1_545 S
Co39 O50 2.039 1_554 S
Co39 N53 2.140 . S
C40 O41 1.227 . S
C40 O50 1.265 . S
O41 C40 1.227 . S
N42 Co39 2.121 . S
N42 C44 1.375 . S
N42 C45 1.287 1_545 S
C43 C44 1.338 . S
C43 N46 1.377 . S
C43 H63 0.930 . S
C44 N42 1.375 . S
C44 C43 1.338 . S
C44 H48 0.931 . S
C45 N42 1.287 1_565 S
C45 N46 1.322 1_565 S
C45 H49 0.974 . S
N46 C43 1.377 . S
N46 C45 1.322 1_545 S
O47 Co39 2.055 1_565 S
O47 C51 1.253 . S
H48 C44 0.931 . S
H49 C45 0.974 . S
O50 Co39 2.039 1_556 S
O50 C40 1.265 . S
C51 O47 1.253 . S
C51 O52 1.227 . S
O52 C51 1.227 . S
N53 Co39 2.140 . S
N53 C56 1.346 1_554 S
N53 C57 1.345 . S
C54 C55 1.387 1_554 S
C54 C58 1.391 . S
C55 C54 1.387 1_556 S
C55 C56 1.369 . S
C55 H64 0.929 . S
C56 N53 1.346 1_556 S
C56 C55 1.369 . S
C56 H59 0.928 . S
C57 N53 1.345 . S
C57 C58 1.371 . S
C57 H60 0.931 . S
C58 C54 1.391 . S
C58 C57 1.371 . S
C58 H65 0.930 . S
H59 C56 0.928 . S
H60 C57 0.931 . S
H61 C37 0.930 . S
H62 C34 0.930 . S
H63 C43 0.930 . S
H64 C55 0.929 . S
H65 C58 0.930 . S
C66 C67 1.351 . S
C66 N69 1.368 1_455 S
C66 H71 0.931 . S
C67 C66 1.351 . S
C67 N68 1.373 1_455 S
C67 H95 0.930 . S
N68 C67 1.373 1_655 S
N68 C70 1.340 . S
N69 C66 1.368 1_655 S
N69 C70 1.321 . S
N69 Co72 2.135 1_556 S
C70 N68 1.340 . S
C70 N69 1.321 . S
C70 H94 0.930 . S
H71 C66 0.931 . S
Co72 N69 2.135 1_554 S
Co72 N75 2.121 . S
Co72 O80 2.055 1_655 S
Co72 O83 2.039 1_554 S
Co72 N86 2.140 . S
C73 O74 1.227 . S
C73 O83 1.265 . S
O74 C73 1.227 . S
N75 Co72 2.121 . S
N75 C77 1.375 . S
N75 C78 1.300 1_655 S
C76 C77 1.338 . S
C76 N79 1.377 . S
C76 H96 0.930 . S
C77 N75 1.375 . S
C77 C76 1.338 . S
C77 H81 0.931 . S
C78 N75 1.300 1_455 S
C78 N79 1.334 1_455 S
C78 H82 0.954 . S
N79 C76 1.377 . S
N79 C78 1.334 1_655 S
O80 Co72 2.055 1_455 S
O80 C84 1.253 . S
H81 C77 0.931 . S
H82 C78 0.954 . S
O83 Co72 2.039 1_556 S
O83 C73 1.265 . S
C84 O80 1.253 . S
C84 O85 1.227 . S
O85 C84 1.227 . S
N86 Co72 2.140 . S
N86 C89 1.346 1_554 S
N86 C90 1.345 . S
C87 C88 1.387 1_554 S
C87 C91 1.391 . S
C88 C87 1.387 1_556 S
C88 C89 1.369 . S
C88 H97 0.929 . S
C89 N86 1.346 1_556 S
C89 C88 1.369 . S
C89 H92 0.928 . S
C90 N86 1.345 . S
C90 C91 1.371 . S
C90 H93 0.931 . S
C91 C87 1.391 . S
C91 C90 1.371 . S
C91 H98 0.930 . S
H92 C89 0.928 . S
H93 C90 0.931 . S
H94 C70 0.930 . S
H95 C67 0.930 . S
H96 C76 0.930 . S
H97 C88 0.929 . S
H98 C91 0.930 . S
C99 C100 1.351 . S
C99 N102 1.368 . S
C99 H104 0.931 . S
C100 C99 1.351 . S
C100 N101 1.373 . S
C100 H128 0.930 . S
N101 C100 1.373 . S
N101 C103 1.340 . S
N102 C99 1.368 . S
N102 C103 1.321 . S
N102 Co105 2.135 . S
C103 N101 1.340 . S
C103 N102 1.321 . S
C103 H127 0.930 . S
H104 C99 0.931 . S
Co105 N102 2.135 . S
Co105 N108 2.121 . S
Co105 O113 2.055 . S
Co105 O116 2.039 . S
Co105 N119 2.140 . S
C106 O107 1.227 . S
C106 O116 1.265 . S
O107 C106 1.227 . S
N108 Co105 2.121 . S
N108 C110 1.375 . S
N108 C111 1.313 . S
C109 C110 1.338 . S
C109 N112 1.377 . S
C109 H129 0.930 . S
C110 N108 1.375 . S
C110 C109 1.338 . S
C110 H114 0.931 . S
C111 N108 1.313 . S
C111 N112 1.344 . S
C111 H115 0.930 . S
N112 C109 1.377 . S
N112 C111 1.344 . S
O113 Co105 2.055 . S
O113 C117 1.253 . S
H114 C110 0.931 . S
H115 C111 0.930 . S
O116 Co105 2.039 . S
O116 C106 1.265 . S
C117 O113 1.253 . S
C117 O118 1.227 . S
O118 C117 1.227 . S
N119 Co105 2.140 . S
N119 C122 1.346 . S
N119 C123 1.345 . S
C120 C121 1.387 . S
C120 C124 1.391 . S
C121 C120 1.387 . S
C121 C122 1.369 . S
C121 H130 0.929 . S
C122 N119 1.346 . S
C122 C121 1.369 . S
C122 H125 0.928 . S
C123 N119 1.345 . S
C123 C124 1.371 . S
C123 H126 0.931 . S
C124 C120 1.391 . S
C124 C123 1.371 . S
C124 H131 0.930 . S
H125 C122 0.928 . S
H126 C123 0.931 . S
H127 C103 0.930 . S
H128 C100 0.930 . S
H129 C109 0.930 . S
H130 C121 0.929 . S
H131 C124 0.930 . S
C132 C133 1.351 . S
C132 N135 1.368 1_545 S
C132 H137 0.931 . S
C133 C132 1.351 . S
C133 N134 1.373 1_545 S
C133 H161 0.930 . S
N134 C133 1.373 1_565 S
N134 C136 1.340 . S
N135 C132 1.368 1_565 S
N135 C136 1.321 . S
N135 Co138 2.135 . S
C136 N134 1.340 . S
C136 N135 1.321 . S
C136 H160 0.930 . S
H137 C132 0.931 . S
Co138 N135 2.135 . S
Co138 N141 2.121 . S
Co138 O146 2.055 1_565 S
Co138 O149 2.039 . S
Co138 N152 2.140 . S
C139 O140 1.227 . S
C139 O149 1.265 . S
O140 C139 1.227 . S
N141 Co138 2.121 . S
N141 C143 1.375 . S
N141 C144 1.305 1_565 S
C142 C143 1.338 . S
C142 N145 1.377 . S
C142 H162 0.930 . S
C143 N141 1.375 . S
C143 C142 1.338 . S
C143 H147 0.931 . S
C144 N141 1.305 1_545 S
C144 N145 1.338 1_545 S
C144 H148 0.944 . S
N145 C142 1.377 . S
N145 C144 1.338 1_565 S
O146 Co138 2.055 1_545 S
O146 C150 1.253 . S
H147 C143 0.931 . S
H148 C144 0.944 . S
O149 Co138 2.039 . S
O149 C139 1.265 . S
C150 O146 1.253 . S
C150 O151 1.227 . S
O151 C150 1.227 . S
N152 Co138 2.140 . S
N152 C155 1.346 . S
N152 C156 1.345 . S
C153 C154 1.387 . S
C153 C157 1.391 . S
C154 C153 1.387 . S
C154 C155 1.369 . S
C154 H163 0.929 . S
C155 N152 1.346 . S
C155 C154 1.369 . S
C155 H158 0.928 . S
C156 N152 1.345 . S
C156 C157 1.371 . S
C156 H159 0.931 . S
C157 C153 1.391 . S
C157 C156 1.371 . S
C157 H164 0.930 . S
H158 C155 0.928 . S
H159 C156 0.931 . S
H160 C136 0.930 . S
H161 C133 0.930 . S
H162 C142 0.930 . S
H163 C154 0.929 . S
H164 C157 0.930 . S
C165 C166 1.351 . S
C165 N168 1.368 1_655 S
C165 H170 0.931 . S
C166 C165 1.351 . S
C166 N167 1.373 1_655 S
C166 H194 0.930 . S
N167 C166 1.373 1_455 S
N167 C169 1.340 . S
N168 C165 1.368 1_455 S
N168 C169 1.321 . S
N168 Co171 2.135 . S
C169 N167 1.340 . S
C169 N168 1.321 . S
C169 H193 0.930 . S
H170 C165 0.931 . S
Co171 N168 2.135 . S
Co171 N174 2.121 . S
Co171 O179 2.055 1_455 S
Co171 O182 2.039 . S
Co171 N185 2.140 . S
C172 O173 1.227 . S
C172 O182 1.265 . S
O173 C172 1.227 . S
N174 Co171 2.121 . S
N174 C176 1.375 . S
N174 C177 1.299 1_455 S
C175 C176 1.338 . S
C175 N178 1.377 . S
C175 H195 0.930 . S
C176 N174 1.375 . S
C176 C175 1.338 . S
C176 H180 0.931 . S
C177 N174 1.299 1_655 S
C177 N178 1.332 1_655 S
C177 H181 0.955 . S
N178 C175 1.377 . S
N178 C177 1.332 1_455 S
O179 Co171 2.055 1_655 S
O179 C183 1.253 . S
H180 C176 0.931 . S
H181 C177 0.955 . S
O182 Co171 2.039 . S
O182 C172 1.265 . S
C183 O179 1.253 . S
C183 O184 1.227 . S
O184 C183 1.227 . S
N185 Co171 2.140 . S
N185 C188 1.346 . S
N185 C189 1.345 . S
C186 C187 1.387 . S
C186 C190 1.391 . S
C187 C186 1.387 . S
C187 C188 1.369 . S
C187 H196 0.929 . S
C188 N185 1.346 . S
C188 C187 1.369 . S
C188 H191 0.928 . S
C189 N185 1.345 . S
C189 C190 1.371 . S
C189 H192 0.931 . S
C190 C186 1.391 . S
C190 C189 1.371 . S
C190 H197 0.930 . S
H191 C188 0.928 . S
H192 C189 0.931 . S
H193 C169 0.930 . S
H194 C166 0.930 . S
H195 C175 0.930 . S
H196 C187 0.929 . S
H197 C190 0.930 . S
C198 C199 1.351 . S
C198 N201 1.368 . S
C198 H203 0.931 . S
C199 C198 1.351 . S
C199 N200 1.373 . S
C199 H227 0.930 . S
N200 C199 1.373 . S
N200 C202 1.340 . S
N201 C198 1.368 . S
N201 C202 1.321 . S
N201 Co204 2.135 . S
C202 N200 1.340 . S
C202 N201 1.321 . S
C202 H226 0.930 . S
H203 C198 0.931 . S
Co204 N201 2.135 . S
Co204 N207 2.121 1_554 S
Co204 O212 2.055 . S
Co204 O215 2.039 . S
Co204 N218 2.140 . S
C205 O206 1.227 . S
C205 O215 1.265 . S
O206 C205 1.227 . S
N207 Co204 2.121 1_556 S
N207 C209 1.375 . S
N207 C210 1.313 . S
C208 C209 1.338 . S
C208 N211 1.377 . S
C208 H228 0.930 . S
C209 N207 1.375 . S
C209 C208 1.338 . S
C209 H213 0.931 . S
C210 N207 1.313 . S
C210 N211 1.344 . S
C210 H214 0.930 . S
N211 C208 1.377 . S
N211 C210 1.344 . S
O212 Co204 2.055 . S
O212 C216 1.253 . S
H213 C209 0.931 . S
H214 C210 0.930 . S
O215 Co204 2.039 . S
O215 C205 1.265 . S
C216 O212 1.253 . S
C216 O217 1.227 . S
O217 C216 1.227 . S
N218 Co204 2.140 . S
N218 C221 1.346 . S
N218 C222 1.345 1_554 S
C219 C220 1.387 . S
C219 C223 1.391 1_554 S
C220 C219 1.387 . S
C220 C221 1.369 . S
C220 H229 0.929 . S
C221 N218 1.346 . S
C221 C220 1.369 . S
C221 H224 0.928 . S
C222 N218 1.345 1_556 S
C222 C223 1.371 . S
C222 H225 0.931 . S
C223 C219 1.391 1_556 S
C223 C222 1.371 . S
C223 H230 0.930 . S
H224 C221 0.928 . S
H225 C222 0.931 . S
H226 C202 0.930 . S
H227 C199 0.930 . S
H228 C208 0.930 . S
H229 C220 0.929 . S
H230 C223 0.930 . S
C231 C232 1.351 . S
C231 N234 1.368 1_545 S
C231 H236 0.931 . S
C232 C231 1.351 . S
C232 N233 1.373 1_545 S
C232 H260 0.930 . S
N233 C232 1.373 1_565 S
N233 C235 1.340 . S
N234 C231 1.368 1_565 S
N234 C235 1.321 . S
N234 Co237 2.135 . S
C235 N233 1.340 . S
C235 N234 1.321 . S
C235 H259 0.930 . S
H236 C231 0.931 . S
Co237 N234 2.135 . S
Co237 N240 2.121 1_554 S
Co237 O245 2.055 1_565 S
Co237 O248 2.039 . S
Co237 N251 2.140 . S
C238 O239 1.227 . S
C238 O248 1.265 . S
O239 C238 1.227 . S
N240 Co237 2.121 1_556 S
N240 C242 1.375 . S
N240 C243 1.298 1_565 S
C241 C242 1.338 . S
C241 N244 1.377 . S
C241 H261 0.930 . S
C242 N240 1.375 . S
C242 C241 1.338 . S
C242 H246 0.931 . S
C243 N240 1.298 1_545 S
C243 N244 1.331 1_545 S
C243 H247 0.956 . S
N244 C241 1.377 . S
N244 C243 1.331 1_565 S
O245 Co237 2.055 1_545 S
O245 C249 1.253 . S
H246 C242 0.931 . S
H247 C243 0.956 . S
O248 Co237 2.039 . S
O248 C238 1.265 . S
C249 O245 1.253 . S
C249 O250 1.227 . S
O250 C249 1.227 . S
N251 Co237 2.140 . S
N251 C254 1.346 . S
N251 C255 1.345 1_554 S
C252 C253 1.387 . S
C252 C256 1.391 1_554 S
C253 C252 1.387 . S
C253 C254 1.369 . S
C253 H262 0.929 . S
C254 N251 1.346 . S
C254 C253 1.369 . S
C254 H257 0.928 . S
C255 N251 1.345 1_556 S
C255 C256 1.371 . S
C255 H258 0.931 . S
C256 C252 1.391 1_556 S
C256 C255 1.371 . S
C256 H263 0.930 . S
H257 C254 0.928 . S
H258 C255 0.931 . S
H259 C235 0.930 . S
H260 C232 0.930 . S
H261 C241 0.930 . S
H262 C253 0.929 . S
H263 C256 0.930 . S
C264 C265 1.351 . S
C264 N267 1.368 1_655 S
C264 H269 0.931 . S
C265 C264 1.351 . S
C265 N266 1.373 1_655 S
C265 H293 0.930 . S
N266 C265 1.373 1_455 S
N266 C268 1.340 . S
N267 C264 1.368 1_455 S
N267 C268 1.321 . S
N267 Co270 2.135 . S
C268 N266 1.340 . S
C268 N267 1.321 . S
C268 H292 0.930 . S
H269 C264 0.931 . S
Co270 N267 2.135 . S
Co270 N273 2.121 1_554 S
Co270 O278 2.055 1_455 S
Co270 O281 2.039 . S
Co270 N284 2.140 . S
C271 O272 1.227 . S
C271 O281 1.265 . S
O272 C271 1.227 . S
N273 Co270 2.121 1_556 S
N273 C275 1.375 . S
N273 C276 1.306 1_455 S
C274 C275 1.338 . S
C274 N277 1.377 . S
C274 H294 0.930 . S
C275 N273 1.375 . S
C275 C274 1.338 . S
C275 H279 0.931 . S
C276 N273 1.306 1_655 S
C276 N277 1.338 1_655 S
C276 H280 0.943 . S
N277 C274 1.377 . S
N277 C276 1.338 1_455 S
O278 Co270 2.055 1_655 S
O278 C282 1.253 . S
H279 C275 0.931 . S
H280 C276 0.943 . S
O281 Co270 2.039 . S
O281 C271 1.265 . S
C282 O278 1.253 . S
C282 O283 1.227 . S
O283 C282 1.227 . S
N284 Co270 2.140 . S
N284 C287 1.346 . S
N284 C288 1.345 1_554 S
C285 C286 1.387 . S
C285 C289 1.391 1_554 S
C286 C285 1.387 . S
C286 C287 1.369 . S
C286 H295 0.929 . S
C287 N284 1.346 . S
C287 C286 1.369 . S
C287 H290 0.928 . S
C288 N284 1.345 1_556 S
C288 C289 1.371 . S
C288 H291 0.931 . S
C289 C285 1.391 1_556 S
C289 C288 1.371 . S
C289 H296 0.930 . S
H290 C287 0.928 . S
H291 C288 0.931 . S
H292 C268 0.930 . S
H293 C265 0.930 . S
H294 C274 0.930 . S
H295 C286 0.929 . S
H296 C289 0.930 . S
C297 C298 1.351 . S
C297 N300 1.368 . S
C297 H302 0.931 . S
C298 C297 1.351 . S
C298 N299 1.373 . S
C298 H326 0.930 . S
N299 C298 1.373 . S
N299 C301 1.340 . S
N300 C297 1.368 . S
N300 C301 1.321 . S
N300 Co303 2.135 . S
C301 N299 1.340 . S
C301 N300 1.321 . S
C301 H325 0.930 . S
H302 C297 0.931 . S
Co303 N300 2.135 . S
Co303 N306 2.121 . S
Co303 O311 2.055 . S
Co303 O314 2.039 . S
Co303 N317 2.140 . S
C304 O305 1.227 . S
C304 O314 1.265 . S
O305 C304 1.227 . S
N306 Co303 2.121 . S
N306 C308 1.375 . S
N306 C309 1.313 . S
C307 C308 1.338 . S
C307 N310 1.377 . S
C307 H327 0.930 . S
C308 N306 1.375 . S
C308 C307 1.338 . S
C308 H312 0.931 . S
C309 N306 1.313 . S
C309 N310 1.344 . S
C309 H313 0.930 . S
N310 C307 1.377 . S
N310 C309 1.344 . S
O311 Co303 2.055 . S
O311 C315 1.253 . S
H312 C308 0.931 . S
H313 C309 0.930 . S
O314 Co303 2.039 . S
O314 C304 1.265 . S
C315 O311 1.253 . S
C315 O316 1.227 . S
O316 C315 1.227 . S
N317 Co303 2.140 . S
N317 C320 1.346 . S
N317 C321 1.345 . S
C318 C319 1.387 . S
C318 C322 1.391 . S
C319 C318 1.387 . S
C319 C320 1.369 . S
C319 H328 0.929 . S
C320 N317 1.346 . S
C320 C319 1.369 . S
C320 H323 0.928 . S
C321 N317 1.345 . S
C321 C322 1.371 . S
C321 H324 0.931 . S
C322 C318 1.391 . S
C322 C321 1.371 . S
C322 H329 0.930 . S
H323 C320 0.928 . S
H324 C321 0.931 . S
H325 C301 0.930 . S
H326 C298 0.930 . S
H327 C307 0.930 . S
H328 C319 0.929 . S
H329 C322 0.930 . S
C330 C331 1.351 . S
C330 N333 1.368 1_565 S
C330 H335 0.931 . S
C331 C330 1.351 . S
C331 N332 1.373 1_565 S
C331 H359 0.930 . S
N332 C331 1.373 1_545 S
N332 C334 1.340 . S
N333 C330 1.368 1_545 S
N333 C334 1.321 . S
N333 Co336 2.135 . S
C334 N332 1.340 . S
C334 N333 1.321 . S
C334 H358 0.930 . S
H335 C330 0.931 . S
Co336 N333 2.135 . S
Co336 N339 2.121 . S
Co336 O344 2.055 1_545 S
Co336 O347 2.039 . S
Co336 N350 2.140 . S
C337 O338 1.227 . S
C337 O347 1.265 . S
O338 C337 1.227 . S
N339 Co336 2.121 . S
N339 C341 1.375 . S
N339 C342 1.300 1_545 S
C340 C341 1.338 . S
C340 N343 1.377 . S
C340 H360 0.930 . S
C341 N339 1.375 . S
C341 C340 1.338 . S
C341 H345 0.931 . S
C342 N339 1.300 1_565 S
C342 N343 1.334 1_565 S
C342 H346 0.953 . S
N343 C340 1.377 . S
N343 C342 1.334 1_545 S
O344 Co336 2.055 1_565 S
O344 C348 1.253 . S
H345 C341 0.931 . S
H346 C342 0.953 . S
O347 Co336 2.039 . S
O347 C337 1.265 . S
C348 O344 1.253 . S
C348 O349 1.227 . S
O349 C348 1.227 . S
N350 Co336 2.140 . S
N350 C353 1.346 . S
N350 C354 1.345 . S
C351 C352 1.387 . S
C351 C355 1.391 . S
C352 C351 1.387 . S
C352 C353 1.369 . S
C352 H361 0.929 . S
C353 N350 1.346 . S
C353 C352 1.369 . S
C353 H356 0.928 . S
C354 N350 1.345 . S
C354 C355 1.371 . S
C354 H357 0.931 . S
C355 C351 1.391 . S
C355 C354 1.371 . S
C355 H362 0.930 . S
H356 C353 0.928 . S
H357 C354 0.931 . S
H358 C334 0.930 . S
H359 C331 0.930 . S
H360 C340 0.930 . S
H361 C352 0.929 . S
H362 C355 0.930 . S
C363 C364 1.351 . S
C363 N366 1.368 1_455 S
C363 H368 0.931 . S
C364 C363 1.351 . S
C364 N365 1.373 1_455 S
C364 H392 0.930 . S
N365 C364 1.373 1_655 S
N365 C367 1.340 . S
N366 C363 1.368 1_655 S
N366 C367 1.321 . S
N366 Co369 2.135 . S
C367 N365 1.340 . S
C367 N366 1.321 . S
C367 H391 0.930 . S
H368 C363 0.931 . S
Co369 N366 2.135 . S
Co369 N372 2.121 . S
Co369 O377 2.055 1_655 S
Co369 O380 2.039 . S
Co369 N383 2.140 . S
C370 O371 1.227 . S
C370 O380 1.265 . S
O371 C370 1.227 . S
N372 Co369 2.121 . S
N372 C374 1.375 . S
N372 C375 1.286 1_655 S
C373 C374 1.338 . S
C373 N376 1.377 . S
C373 H393 0.930 . S
C374 N372 1.375 . S
C374 C373 1.338 . S
C374 H378 0.931 . S
C375 N372 1.286 1_455 S
C375 N376 1.322 1_455 S
C375 H379 0.975 . S
N376 C373 1.377 . S
N376 C375 1.322 1_655 S
O377 Co369 2.055 1_455 S
O377 C381 1.253 . S
H378 C374 0.931 . S
H379 C375 0.975 . S
O380 Co369 2.039 . S
O380 C370 1.265 . S
C381 O377 1.253 . S
C381 O382 1.227 . S
O382 C381 1.227 . S
N383 Co369 2.140 . S
N383 C386 1.346 . S
N383 C387 1.345 . S
C384 C385 1.387 . S
C384 C388 1.391 . S
C385 C384 1.387 . S
C385 C386 1.369 . S
C385 H394 0.929 . S
C386 N383 1.346 . S
C386 C385 1.369 . S
C386 H389 0.928 . S
C387 N383 1.345 . S
C387 C388 1.371 . S
C387 H390 0.931 . S
C388 C384 1.391 . S
C388 C387 1.371 . S
C388 H395 0.930 . S
H389 C386 0.928 . S
H390 C387 0.931 . S
H391 C367 0.930 . S
H392 C364 0.930 . S
H393 C373 0.930 . S
H394 C385 0.929 . S
H395 C388 0.930 . S
C396 C397 1.351 . S
C396 N399 1.368 . S
C396 H401 0.931 . S
C397 C396 1.351 . S
C397 N398 1.373 . S
C397 H425 0.930 . S
N398 C397 1.373 . S
N398 C400 1.340 . S
N399 C396 1.368 . S
N399 C400 1.321 . S
N399 Co402 2.135 . S
C400 N398 1.340 . S
C400 N399 1.321 . S
C400 H424 0.930 . S
H401 C396 0.931 . S
Co402 N399 2.135 . S
Co402 N405 2.121 . S
Co402 O410 2.055 . S
Co402 O413 2.039 . S
Co402 N416 2.140 . S
C403 O404 1.227 . S
C403 O413 1.265 . S
O404 C403 1.227 . S
N405 Co402 2.121 . S
N405 C407 1.375 . S
N405 C408 1.313 . S
C406 C407 1.338 . S
C406 N409 1.377 . S
C406 H426 0.930 . S
C407 N405 1.375 . S
C407 C406 1.338 . S
C407 H411 0.931 . S
C408 N405 1.313 . S
C408 N409 1.344 . S
C408 H412 0.930 . S
N409 C406 1.377 . S
N409 C408 1.344 . S
O410 Co402 2.055 . S
O410 C414 1.253 . S
H411 C407 0.931 . S
H412 C408 0.930 . S
O413 Co402 2.039 . S
O413 C403 1.265 . S
C414 O410 1.253 . S
C414 O415 1.227 . S
O415 C414 1.227 . S
N416 Co402 2.140 . S
N416 C419 1.346 . S
N416 C420 1.345 . S
C417 C418 1.387 . S
C417 C421 1.391 . S
C418 C417 1.387 . S
C418 C419 1.369 . S
C418 H427 0.929 . S
C419 N416 1.346 . S
C419 C418 1.369 . S
C419 H422 0.928 . S
C420 N416 1.345 . S
C420 C421 1.371 . S
C420 H423 0.931 . S
C421 C417 1.391 . S
C421 C420 1.371 . S
C421 H428 0.930 . S
H422 C419 0.928 . S
H423 C420 0.931 . S
H424 C400 0.930 . S
H425 C397 0.930 . S
H426 C406 0.930 . S
H427 C418 0.929 . S
H428 C421 0.930 . S
C429 C430 1.351 . S
C429 N432 1.368 . S
C429 H434 0.931 . S
C430 C429 1.351 . S
C430 N431 1.373 . S
C430 H458 0.930 . S
N431 C430 1.373 . S
N431 C433 1.340 . S
N432 C429 1.368 . S
N432 C433 1.321 . S
N432 Co435 2.135 . S
C433 N431 1.340 . S
C433 N432 1.321 . S
C433 H457 0.930 . S
H434 C429 0.931 . S
Co435 N432 2.135 . S
Co435 N438 2.121 . S
Co435 O443 2.055 . S
Co435 O446 2.039 . S
Co435 N449 2.140 . S
C436 O437 1.227 . S
C436 O446 1.265 . S
O437 C436 1.227 . S
N438 Co435 2.121 . S
N438 C440 1.375 . S
N438 C441 1.313 . S
C439 C440 1.338 . S
C439 N442 1.377 . S
C439 H459 0.930 . S
C440 N438 1.375 . S
C440 C439 1.338 . S
C440 H444 0.931 . S
C441 N438 1.313 . S
C441 N442 1.344 . S
C441 H445 0.930 . S
N442 C439 1.377 . S
N442 C441 1.344 . S
O443 Co435 2.055 . S
O443 C447 1.253 . S
H444 C440 0.931 . S
H445 C441 0.930 . S
O446 Co435 2.039 . S
O446 C436 1.265 . S
C447 O443 1.253 . S
C447 O448 1.227 . S
O448 C447 1.227 . S
N449 Co435 2.140 . S
N449 C452 1.346 . S
N449 C453 1.345 . S
C450 C451 1.387 . S
C450 C454 1.391 . S
C451 C450 1.387 . S
C451 C452 1.369 . S
C451 H460 0.929 . S
C452 N449 1.346 . S
C452 C451 1.369 . S
C452 H455 0.928 . S
C453 N449 1.345 . S
C453 C454 1.371 . S
C453 H456 0.931 . S
C454 C450 1.391 . S
C454 C453 1.371 . S
C454 H461 0.930 . S
H455 C452 0.928 . S
H456 C453 0.931 . S
H457 C433 0.930 . S
H458 C430 0.930 . S
H459 C439 0.930 . S
H460 C451 0.929 . S
H461 C454 0.930 . S
C462 C463 1.351 . S
C462 N465 1.368 . S
C462 H467 0.931 . S
C463 C462 1.351 . S
C463 N464 1.373 . S
C463 H491 0.930 . S
N464 C463 1.373 . S
N464 C466 1.340 . S
N465 C462 1.368 . S
N465 C466 1.321 . S
N465 Co468 2.135 . S
C466 N464 1.340 . S
C466 N465 1.321 . S
C466 H490 0.930 . S
H467 C462 0.931 . S
Co468 N465 2.135 . S
Co468 N471 2.121 . S
Co468 O476 2.055 . S
Co468 O479 2.039 . S
Co468 N482 2.140 . S
C469 O470 1.227 . S
C469 O479 1.265 . S
O470 C469 1.227 . S
N471 Co468 2.121 . S
N471 C473 1.375 . S
N471 C474 1.313 . S
C472 C473 1.338 . S
C472 N475 1.377 . S
C472 H492 0.930 . S
C473 N471 1.375 . S
C473 C472 1.338 . S
C473 H477 0.931 . S
C474 N471 1.313 . S
C474 N475 1.344 . S
C474 H478 0.930 . S
N475 C472 1.377 . S
N475 C474 1.344 . S
O476 Co468 2.055 . S
O476 C480 1.253 . S
H477 C473 0.931 . S
H478 C474 0.930 . S
O479 Co468 2.039 . S
O479 C469 1.265 . S
C480 O476 1.253 . S
C480 O481 1.227 . S
O481 C480 1.227 . S
N482 Co468 2.140 . S
N482 C485 1.346 . S
N482 C486 1.345 . S
C483 C484 1.387 . S
C483 C487 1.391 . S
C484 C483 1.387 . S
C484 C485 1.369 . S
C484 H493 0.929 . S
C485 N482 1.346 . S
C485 C484 1.369 . S
C485 H488 0.928 . S
C486 N482 1.345 . S
C486 C487 1.371 . S
C486 H489 0.931 . S
C487 C483 1.391 . S
C487 C486 1.371 . S
C487 H494 0.930 . S
H488 C485 0.928 . S
H489 C486 0.931 . S
H490 C466 0.930 . S
H491 C463 0.930 . S
H492 C472 0.930 . S
H493 C484 0.929 . S
H494 C487 0.930 . S
C495 C496 1.351 1_556 S
C495 N498 1.368 . S
C495 H500 0.931 . S
C496 C495 1.351 1_554 S
C496 N497 1.373 . S
C496 H524 0.930 . S
N497 C496 1.373 . S
N497 C499 1.340 1_554 S
N498 C495 1.368 . S
N498 C499 1.321 . S
N498 Co501 2.135 . S
C499 N497 1.340 1_556 S
C499 N498 1.321 . S
C499 H523 0.930 . S
H500 C495 0.931 . S
Co501 N498 2.135 . S
Co501 N504 2.121 . S
Co501 O509 2.055 . S
Co501 O512 2.039 . S
Co501 N515 2.140 . S
C502 O503 1.227 . S
C502 O512 1.265 . S
O503 C502 1.227 . S
N504 Co501 2.121 . S
N504 C506 1.375 . S
N504 C507 1.313 . S
C505 C506 1.338 . S
C505 N508 1.377 . S
C505 H525 0.930 . S
C506 N504 1.375 . S
C506 C505 1.338 . S
C506 H510 0.931 . S
C507 N504 1.313 . S
C507 N508 1.344 . S
C507 H511 0.930 . S
N508 C505 1.377 . S
N508 C507 1.344 . S
O509 Co501 2.055 . S
O509 C513 1.253 . S
H510 C506 0.931 . S
H511 C507 0.930 . S
O512 Co501 2.039 . S
O512 C502 1.265 . S
C513 O509 1.253 . S
C513 O514 1.227 . S
O514 C513 1.227 . S
N515 Co501 2.140 . S
N515 C518 1.346 . S
N515 C519 1.345 . S
C516 C517 1.387 . S
C516 C520 1.391 . S
C517 C516 1.387 . S
C517 C518 1.369 . S
C517 H526 0.929 . S
C518 N515 1.346 . S
C518 C517 1.369 . S
C518 H521 0.928 . S
C519 N515 1.345 . S
C519 C520 1.371 . S
C519 H522 0.931 . S
C520 C516 1.391 . S
C520 C519 1.371 . S
C520 H527 0.930 . S
H521 C518 0.928 . S
H522 C519 0.931 . S
H523 C499 0.930 . S
H524 C496 0.930 . S
H525 C505 0.930 . S
H526 C517 0.929 . S
H527 C520 0.930 . S
C528 C529 1.351 1_556 S
C528 N531 1.368 . S
C528 H533 0.931 . S
C529 C528 1.351 1_554 S
C529 N530 1.373 . S
C529 H557 0.930 . S
N530 C529 1.373 . S
N530 C532 1.340 1_554 S
N531 C528 1.368 . S
N531 C532 1.321 . S
N531 Co534 2.135 . S
C532 N530 1.340 1_556 S
C532 N531 1.321 . S
C532 H556 0.930 . S
H533 C528 0.931 . S
Co534 N531 2.135 . S
Co534 N537 2.121 . S
Co534 O542 2.055 . S
Co534 O545 2.039 . S
Co534 N548 2.140 . S
C535 O536 1.227 . S
C535 O545 1.265 . S
O536 C535 1.227 . S
N537 Co534 2.121 . S
N537 C539 1.375 . S
N537 C540 1.313 . S
C538 C539 1.338 . S
C538 N541 1.377 . S
C538 H558 0.930 . S
C539 N537 1.375 . S
C539 C538 1.338 . S
C539 H543 0.931 . S
C540 N537 1.313 . S
C540 N541 1.344 . S
C540 H544 0.930 . S
N541 C538 1.377 . S
N541 C540 1.344 . S
O542 Co534 2.055 . S
O542 C546 1.253 . S
H543 C539 0.931 . S
H544 C540 0.930 . S
O545 Co534 2.039 . S
O545 C535 1.265 . S
C546 O542 1.253 . S
C546 O547 1.227 . S
O547 C546 1.227 . S
N548 Co534 2.140 . S
N548 C551 1.346 . S
N548 C552 1.345 . S
C549 C550 1.387 . S
C549 C553 1.391 . S
C550 C549 1.387 . S
C550 C551 1.369 . S
C550 H559 0.929 . S
C551 N548 1.346 . S
C551 C550 1.369 . S
C551 H554 0.928 . S
C552 N548 1.345 . S
C552 C553 1.371 . S
C552 H555 0.931 . S
C553 C549 1.391 . S
C553 C552 1.371 . S
C553 H560 0.930 . S
H554 C551 0.928 . S
H555 C552 0.931 . S
H556 C532 0.930 . S
H557 C529 0.930 . S
H558 C538 0.930 . S
H559 C550 0.929 . S
H560 C553 0.930 . S
C561 C562 1.351 1_556 S
C561 N564 1.368 . S
C561 H566 0.931 . S
C562 C561 1.351 1_554 S
C562 N563 1.373 . S
C562 H590 0.930 . S
N563 C562 1.373 . S
N563 C565 1.340 1_554 S
N564 C561 1.368 . S
N564 C565 1.321 . S
N564 Co567 2.135 . S
C565 N563 1.340 1_556 S
C565 N564 1.321 . S
C565 H589 0.930 . S
H566 C561 0.931 . S
Co567 N564 2.135 . S
Co567 N570 2.121 . S
Co567 O575 2.055 . S
Co567 O578 2.039 . S
Co567 N581 2.140 . S
C568 O569 1.227 . S
C568 O578 1.265 . S
O569 C568 1.227 . S
N570 Co567 2.121 . S
N570 C572 1.375 . S
N570 C573 1.313 . S
C571 C572 1.338 . S
C571 N574 1.377 . S
C571 H591 0.930 . S
C572 N570 1.375 . S
C572 C571 1.338 . S
C572 H576 0.931 . S
C573 N570 1.313 . S
C573 N574 1.344 . S
C573 H577 0.930 . S
N574 C571 1.377 . S
N574 C573 1.344 . S
O575 Co567 2.055 . S
O575 C579 1.253 . S
H576 C572 0.931 . S
H577 C573 0.930 . S
O578 Co567 2.039 . S
O578 C568 1.265 . S
C579 O575 1.253 . S
C579 O580 1.227 . S
O580 C579 1.227 . S
N581 Co567 2.140 . S
N581 C584 1.346 . S
N581 C585 1.345 . S
C582 C583 1.387 . S
C582 C586 1.391 . S
C583 C582 1.387 . S
C583 C584 1.369 . S
C583 H592 0.929 . S
C584 N581 1.346 . S
C584 C583 1.369 . S
C584 H587 0.928 . S
C585 N581 1.345 . S
C585 C586 1.371 . S
C585 H588 0.931 . S
C586 C582 1.391 . S
C586 C585 1.371 . S
C586 H593 0.930 . S
H587 C584 0.928 . S
H588 C585 0.931 . S
H589 C565 0.930 . S
H590 C562 0.930 . S
H591 C571 0.930 . S
H592 C583 0.929 . S
H593 C586 0.930 . S
C594 C595 1.351 . S
C594 N597 1.368 . S
C594 H599 0.931 . S
C595 C594 1.351 . S
C595 N596 1.373 . S
C595 H623 0.930 . S
N596 C595 1.373 . S
N596 C598 1.340 . S
N597 C594 1.368 . S
N597 C598 1.321 . S
N597 Co600 2.135 . S
C598 N596 1.340 . S
C598 N597 1.321 . S
C598 H622 0.930 . S
H599 C594 0.931 . S
Co600 N597 2.135 . S
Co600 N603 2.121 . S
Co600 O608 2.055 . S
Co600 O611 2.039 . S
Co600 N614 2.140 . S
C601 O602 1.227 . S
C601 O611 1.265 . S
O602 C601 1.227 . S
N603 Co600 2.121 . S
N603 C605 1.375 . S
N603 C606 1.313 . S
C604 C605 1.338 . S
C604 N607 1.377 . S
C604 H624 0.930 . S
C605 N603 1.375 . S
C605 C604 1.338 . S
C605 H609 0.931 . S
C606 N603 1.313 . S
C606 N607 1.344 . S
C606 H610 0.930 . S
N607 C604 1.377 . S
N607 C606 1.344 . S
O608 Co600 2.055 . S
O608 C612 1.253 . S
H609 C605 0.931 . S
H610 C606 0.930 . S
O611 Co600 2.039 . S
O611 C601 1.265 . S
C612 O608 1.253 . S
C612 O613 1.227 . S
O613 C612 1.227 . S
N614 Co600 2.140 . S
N614 C617 1.346 . S
N614 C618 1.345 . S
C615 C616 1.387 . S
C615 C619 1.391 . S
C616 C615 1.387 . S
C616 C617 1.369 . S
C616 H625 0.929 . S
C617 N614 1.346 . S
C617 C616 1.369 . S
C617 H620 0.928 . S
C618 N614 1.345 . S
C618 C619 1.371 . S
C618 H621 0.931 . S
C619 C615 1.391 . S
C619 C618 1.371 . S
C619 H626 0.930 . S
H620 C617 0.928 . S
H621 C618 0.931 . S
H622 C598 0.930 . S
H623 C595 0.930 . S
H624 C604 0.930 . S
H625 C616 0.929 . S
H626 C619 0.930 . S
C627 C628 1.351 . S
C627 N630 1.368 . S
C627 H632 0.931 . S
C628 C627 1.351 . S
C628 N629 1.373 . S
C628 H656 0.930 . S
N629 C628 1.373 . S
N629 C631 1.340 . S
N630 C627 1.368 . S
N630 C631 1.321 . S
N630 Co633 2.135 . S
C631 N629 1.340 . S
C631 N630 1.321 . S
C631 H655 0.930 . S
H632 C627 0.931 . S
Co633 N630 2.135 . S
Co633 N636 2.121 . S
Co633 O641 2.055 . S
Co633 O644 2.039 . S
Co633 N647 2.140 . S
C634 O635 1.227 . S
C634 O644 1.265 . S
O635 C634 1.227 . S
N636 Co633 2.121 . S
N636 C638 1.375 . S
N636 C639 1.313 . S
C637 C638 1.338 . S
C637 N640 1.377 . S
C637 H657 0.930 . S
C638 N636 1.375 . S
C638 C637 1.338 . S
C638 H642 0.931 . S
C639 N636 1.313 . S
C639 N640 1.344 . S
C639 H643 0.930 . S
N640 C637 1.377 . S
N640 C639 1.344 . S
O641 Co633 2.055 . S
O641 C645 1.253 . S
H642 C638 0.931 . S
H643 C639 0.930 . S
O644 Co633 2.039 . S
O644 C634 1.265 . S
C645 O641 1.253 . S
C645 O646 1.227 . S
O646 C645 1.227 . S
N647 Co633 2.140 . S
N647 C650 1.346 . S
N647 C651 1.345 . S
C648 C649 1.387 . S
C648 C652 1.391 . S
C649 C648 1.387 . S
C649 C650 1.369 . S
C649 H658 0.929 . S
C650 N647 1.346 . S
C650 C649 1.369 . S
C650 H653 0.928 . S
C651 N647 1.345 . S
C651 C652 1.371 . S
C651 H654 0.931 . S
C652 C648 1.391 . S
C652 C651 1.371 . S
C652 H659 0.930 . S
H653 C650 0.928 . S
H654 C651 0.931 . S
H655 C631 0.930 . S
H656 C628 0.930 . S
H657 C637 0.930 . S
H658 C649 0.929 . S
H659 C652 0.930 . S
C660 C661 1.351 . S
C660 N663 1.368 . S
C660 H665 0.931 . S
C661 C660 1.351 . S
C661 N662 1.373 . S
C661 H689 0.930 . S
N662 C661 1.373 . S
N662 C664 1.340 . S
N663 C660 1.368 . S
N663 C664 1.321 . S
N663 Co666 2.135 . S
C664 N662 1.340 . S
C664 N663 1.321 . S
C664 H688 0.930 . S
H665 C660 0.931 . S
Co666 N663 2.135 . S
Co666 N669 2.121 . S
Co666 O674 2.055 . S
Co666 O677 2.039 . S
Co666 N680 2.140 . S
C667 O668 1.227 . S
C667 O677 1.265 . S
O668 C667 1.227 . S
N669 Co666 2.121 . S
N669 C671 1.375 . S
N669 C672 1.313 . S
C670 C671 1.338 . S
C670 N673 1.377 . S
C670 H690 0.930 . S
C671 N669 1.375 . S
C671 C670 1.338 . S
C671 H675 0.931 . S
C672 N669 1.313 . S
C672 N673 1.344 . S
C672 H676 0.930 . S
N673 C670 1.377 . S
N673 C672 1.344 . S
O674 Co666 2.055 . S
O674 C678 1.253 . S
H675 C671 0.931 . S
H676 C672 0.930 . S
O677 Co666 2.039 . S
O677 C667 1.265 . S
C678 O674 1.253 . S
C678 O679 1.227 . S
O679 C678 1.227 . S
N680 Co666 2.140 . S
N680 C683 1.346 . S
N680 C684 1.345 . S
C681 C682 1.387 . S
C681 C685 1.391 . S
C682 C681 1.387 . S
C682 C683 1.369 . S
C682 H691 0.929 . S
C683 N680 1.346 . S
C683 C682 1.369 . S
C683 H686 0.928 . S
C684 N680 1.345 . S
C684 C685 1.371 . S
C684 H687 0.931 . S
C685 C681 1.391 . S
C685 C684 1.371 . S
C685 H692 0.930 . S
H686 C683 0.928 . S
H687 C684 0.931 . S
H688 C664 0.930 . S
H689 C661 0.930 . S
H690 C670 0.930 . S
H691 C682 0.929 . S
H692 C685 0.930 . S
C693 C694 1.351 . S
C693 N696 1.368 . S
C693 H698 0.931 . S
C694 C693 1.351 . S
C694 N695 1.373 . S
C694 H722 0.930 . S
N695 C694 1.373 . S
N695 C697 1.340 . S
N696 C693 1.368 . S
N696 C697 1.321 . S
N696 Co699 2.135 . S
C697 N695 1.340 . S
C697 N696 1.321 . S
C697 H721 0.930 . S
H698 C693 0.931 . S
Co699 N696 2.135 . S
Co699 N702 2.121 . S
Co699 O707 2.055 . S
Co699 O710 2.039 . S
Co699 N713 2.140 . S
C700 O701 1.227 . S
C700 O710 1.265 . S
O701 C700 1.227 . S
N702 Co699 2.121 . S
N702 C704 1.375 . S
N702 C705 1.313 . S
C703 C704 1.338 . S
C703 N706 1.377 . S
C703 H723 0.930 1_556 S
C704 N702 1.375 . S
C704 C703 1.338 . S
C704 H708 0.931 . S
C705 N702 1.313 . S
C705 N706 1.344 . S
C705 H709 0.930 . S
N706 C703 1.377 . S
N706 C705 1.344 . S
O707 Co699 2.055 . S
O707 C711 1.253 . S
H708 C704 0.931 . S
H709 C705 0.930 . S
O710 Co699 2.039 . S
O710 C700 1.265 . S
C711 O707 1.253 . S
C711 O712 1.227 . S
O712 C711 1.227 . S
N713 Co699 2.140 . S
N713 C716 1.346 . S
N713 C717 1.345 . S
C714 C715 1.387 . S
C714 C718 1.391 . S
C715 C714 1.387 . S
C715 C716 1.369 . S
C715 H724 0.929 . S
C716 N713 1.346 . S
C716 C715 1.369 . S
C716 H719 0.928 . S
C717 N713 1.345 . S
C717 C718 1.371 . S
C717 H720 0.931 . S
C718 C714 1.391 . S
C718 C717 1.371 . S
C718 H725 0.930 . S
H719 C716 0.928 . S
H720 C717 0.931 . S
H721 C697 0.930 . S
H722 C694 0.930 . S
H723 C703 0.930 1_554 S
H724 C715 0.929 . S
H725 C718 0.930 . S
C726 C727 1.351 . S
C726 N729 1.368 . S
C726 H731 0.931 . S
C727 C726 1.351 . S
C727 N728 1.373 . S
C727 H755 0.930 . S
N728 C727 1.373 . S
N728 C730 1.340 . S
N729 C726 1.368 . S
N729 C730 1.321 . S
N729 Co732 2.135 . S
C730 N728 1.340 . S
C730 N729 1.321 . S
C730 H754 0.930 . S
H731 C726 0.931 . S
Co732 N729 2.135 . S
Co732 N735 2.121 . S
Co732 O740 2.055 . S
Co732 O743 2.039 . S
Co732 N746 2.140 . S
C733 O734 1.227 . S
C733 O743 1.265 . S
O734 C733 1.227 . S
N735 Co732 2.121 . S
N735 C737 1.375 . S
N735 C738 1.313 . S
C736 C737 1.338 . S
C736 N739 1.377 . S
C736 H756 0.930 1_556 S
C737 N735 1.375 . S
C737 C736 1.338 . S
C737 H741 0.931 . S
C738 N735 1.313 . S
C738 N739 1.344 . S
C738 H742 0.930 . S
N739 C736 1.377 . S
N739 C738 1.344 . S
O740 Co732 2.055 . S
O740 C744 1.253 . S
H741 C737 0.931 . S
H742 C738 0.930 . S
O743 Co732 2.039 . S
O743 C733 1.265 . S
C744 O740 1.253 . S
C744 O745 1.227 . S
O745 C744 1.227 . S
N746 Co732 2.140 . S
N746 C749 1.346 . S
N746 C750 1.345 . S
C747 C748 1.387 . S
C747 C751 1.391 . S
C748 C747 1.387 . S
C748 C749 1.369 . S
C748 H757 0.929 . S
C749 N746 1.346 . S
C749 C748 1.369 . S
C749 H752 0.928 . S
C750 N746 1.345 . S
C750 C751 1.371 . S
C750 H753 0.931 . S
C751 C747 1.391 . S
C751 C750 1.371 . S
C751 H758 0.930 . S
H752 C749 0.928 . S
H753 C750 0.931 . S
H754 C730 0.930 . S
H755 C727 0.930 . S
H756 C736 0.930 1_554 S
H757 C748 0.929 . S
H758 C751 0.930 . S
C759 C760 1.351 . S
C759 N762 1.368 . S
C759 H764 0.931 . S
C760 C759 1.351 . S
C760 N761 1.373 . S
C760 H788 0.930 . S
N761 C760 1.373 . S
N761 C763 1.340 . S
N762 C759 1.368 . S
N762 C763 1.321 . S
N762 Co765 2.135 . S
C763 N761 1.340 . S
C763 N762 1.321 . S
C763 H787 0.930 . S
H764 C759 0.931 . S
Co765 N762 2.135 . S
Co765 N768 2.121 . S
Co765 O773 2.055 . S
Co765 O776 2.039 . S
Co765 N779 2.140 . S
C766 O767 1.227 . S
C766 O776 1.265 . S
O767 C766 1.227 . S
N768 Co765 2.121 . S
N768 C770 1.375 . S
N768 C771 1.313 . S
C769 C770 1.338 . S
C769 N772 1.377 . S
C769 H789 0.930 1_556 S
C770 N768 1.375 . S
C770 C769 1.338 . S
C770 H774 0.931 . S
C771 N768 1.313 . S
C771 N772 1.344 . S
C771 H775 0.930 . S
N772 C769 1.377 . S
N772 C771 1.344 . S
O773 Co765 2.055 . S
O773 C777 1.253 . S
H774 C770 0.931 . S
H775 C771 0.930 . S
O776 Co765 2.039 . S
O776 C766 1.265 . S
C777 O773 1.253 . S
C777 O778 1.227 . S
O778 C777 1.227 . S
N779 Co765 2.140 . S
N779 C782 1.346 . S
N779 C783 1.345 . S
C780 C781 1.387 . S
C780 C784 1.391 . S
C781 C780 1.387 . S
C781 C782 1.369 . S
C781 H790 0.929 . S
C782 N779 1.346 . S
C782 C781 1.369 . S
C782 H785 0.928 . S
C783 N779 1.345 . S
C783 C784 1.371 . S
C783 H786 0.931 . S
C784 C780 1.391 . S
C784 C783 1.371 . S
C784 H791 0.930 . S
H785 C782 0.928 . S
H786 C783 0.931 . S
H787 C763 0.930 . S
H788 C760 0.930 . S
H789 C769 0.930 1_554 S
H790 C781 0.929 . S
H791 C784 0.930 . S
C792 C793 1.351 . S
C792 N795 1.368 . S
C792 H797 0.931 . S
C793 C792 1.351 . S
C793 N794 1.373 . S
C793 H821 0.930 . S
N794 C793 1.373 . S
N794 C796 1.340 . S
N795 C792 1.368 . S
N795 C796 1.321 . S
N795 Co798 2.135 . S
C796 N794 1.340 . S
C796 N795 1.321 . S
C796 H820 0.930 . S
H797 C792 0.931 . S
Co798 N795 2.135 . S
Co798 N801 2.121 . S
Co798 O806 2.055 . S
Co798 O809 2.039 . S
Co798 N812 2.140 . S
C799 O800 1.227 . S
C799 O809 1.265 . S
O800 C799 1.227 . S
N801 Co798 2.121 . S
N801 C803 1.375 . S
N801 C804 1.313 . S
C802 C803 1.338 . S
C802 N805 1.377 . S
C802 H822 0.930 . S
C803 N801 1.375 . S
C803 C802 1.338 . S
C803 H807 0.931 . S
C804 N801 1.313 . S
C804 N805 1.344 . S
C804 H808 0.930 . S
N805 C802 1.377 . S
N805 C804 1.344 . S
O806 Co798 2.055 . S
O806 C810 1.253 . S
H807 C803 0.931 . S
H808 C804 0.930 . S
O809 Co798 2.039 . S
O809 C799 1.265 . S
C810 O806 1.253 . S
C810 O811 1.227 . S
O811 C810 1.227 . S
N812 Co798 2.140 . S
N812 C815 1.346 . S
N812 C816 1.345 . S
C813 C814 1.387 . S
C813 C817 1.391 . S
C814 C813 1.387 . S
C814 C815 1.369 . S
C814 H823 0.929 . S
C815 N812 1.346 . S
C815 C814 1.369 . S
C815 H818 0.928 . S
C816 N812 1.345 . S
C816 C817 1.371 . S
C816 H819 0.931 . S
C817 C813 1.391 . S
C817 C816 1.371 . S
C817 H824 0.930 . S
H818 C815 0.928 . S
H819 C816 0.931 . S
H820 C796 0.930 . S
H821 C793 0.930 . S
H822 C802 0.930 . S
H823 C814 0.929 . S
H824 C817 0.930 . S
C825 C826 1.351 . S
C825 N828 1.368 . S
C825 H830 0.931 . S
C826 C825 1.351 . S
C826 N827 1.373 . S
C826 H854 0.930 . S
N827 C826 1.373 . S
N827 C829 1.340 . S
N828 C825 1.368 . S
N828 C829 1.321 . S
N828 Co831 2.135 . S
C829 N827 1.340 . S
C829 N828 1.321 . S
C829 H853 0.930 . S
H830 C825 0.931 . S
Co831 N828 2.135 . S
Co831 N834 2.121 . S
Co831 O839 2.055 . S
Co831 O842 2.039 . S
Co831 N845 2.140 . S
C832 O833 1.227 . S
C832 O842 1.265 . S
O833 C832 1.227 . S
N834 Co831 2.121 . S
N834 C836 1.375 . S
N834 C837 1.313 . S
C835 C836 1.338 . S
C835 N838 1.377 . S
C835 H855 0.930 . S
C836 N834 1.375 . S
C836 C835 1.338 . S
C836 H840 0.931 . S
C837 N834 1.313 . S
C837 N838 1.344 . S
C837 H841 0.930 . S
N838 C835 1.377 . S
N838 C837 1.344 . S
O839 Co831 2.055 . S
O839 C843 1.253 . S
H840 C836 0.931 . S
H841 C837 0.930 . S
O842 Co831 2.039 . S
O842 C832 1.265 . S
C843 O839 1.253 . S
C843 O844 1.227 . S
O844 C843 1.227 . S
N845 Co831 2.140 . S
N845 C848 1.346 . S
N845 C849 1.345 . S
C846 C847 1.387 . S
C846 C850 1.391 . S
C847 C846 1.387 . S
C847 C848 1.369 . S
C847 H856 0.929 . S
C848 N845 1.346 . S
C848 C847 1.369 . S
C848 H851 0.928 . S
C849 N845 1.345 . S
C849 C850 1.371 . S
C849 H852 0.931 . S
C850 C846 1.391 . S
C850 C849 1.371 . S
C850 H857 0.930 . S
H851 C848 0.928 . S
H852 C849 0.931 . S
H853 C829 0.930 . S
H854 C826 0.930 . S
H855 C835 0.930 . S
H856 C847 0.929 . S
H857 C850 0.930 . S
C858 C859 1.351 . S
C858 N861 1.368 . S
C858 H863 0.931 . S
C859 C858 1.351 . S
C859 N860 1.373 . S
C859 H887 0.930 . S
N860 C859 1.373 . S
N860 C862 1.340 . S
N861 C858 1.368 . S
N861 C862 1.321 . S
N861 Co864 2.135 . S
C862 N860 1.340 . S
C862 N861 1.321 . S
C862 H886 0.930 . S
H863 C858 0.931 . S
Co864 N861 2.135 . S
Co864 N867 2.121 . S
Co864 O872 2.055 . S
Co864 O875 2.039 . S
Co864 N878 2.140 . S
C865 O866 1.227 . S
C865 O875 1.265 . S
O866 C865 1.227 . S
N867 Co864 2.121 . S
N867 C869 1.375 . S
N867 C870 1.313 . S
C868 C869 1.338 . S
C868 N871 1.377 . S
C868 H888 0.930 . S
C869 N867 1.375 . S
C869 C868 1.338 . S
C869 H873 0.931 . S
C870 N867 1.313 . S
C870 N871 1.344 . S
C870 H874 0.930 . S
N871 C868 1.377 . S
N871 C870 1.344 . S
O872 Co864 2.055 . S
O872 C876 1.253 . S
H873 C869 0.931 . S
H874 C870 0.930 . S
O875 Co864 2.039 . S
O875 C865 1.265 . S
C876 O872 1.253 . S
C876 O877 1.227 . S
O877 C876 1.227 . S
N878 Co864 2.140 . S
N878 C881 1.346 . S
N878 C882 1.345 . S
C879 C880 1.387 . S
C879 C883 1.391 . S
C880 C879 1.387 . S
C880 C881 1.369 . S
C880 H889 0.929 . S
C881 N878 1.346 . S
C881 C880 1.369 . S
C881 H884 0.928 . S
C882 N878 1.345 . S
C882 C883 1.371 . S
C882 H885 0.931 . S
C883 C879 1.391 . S
C883 C882 1.371 . S
C883 H890 0.930 . S
H884 C881 0.928 . S
H885 C882 0.931 . S
H886 C862 0.930 . S
H887 C859 0.930 . S
H888 C868 0.930 . S
H889 C880 0.929 . S
H890 C883 0.930 . S
C891 C892 1.351 . S
C891 N894 1.368 . S
C891 H896 0.931 . S
C892 C891 1.351 . S
C892 N893 1.373 . S
C892 H920 0.930 . S
N893 C892 1.373 . S
N893 C895 1.340 . S
N894 C891 1.368 . S
N894 C895 1.321 . S
N894 Co897 2.135 . S
C895 N893 1.340 . S
C895 N894 1.321 . S
C895 H919 0.930 . S
H896 C891 0.931 . S
Co897 N894 2.135 . S
Co897 N900 2.121 . S
Co897 O905 2.055 . S
Co897 O908 2.039 . S
Co897 N911 2.140 . S
C898 O899 1.227 . S
C898 O908 1.265 . S
O899 C898 1.227 . S
N900 Co897 2.121 . S
N900 C902 1.375 . S
N900 C903 1.313 . S
C901 C902 1.338 . S
C901 N904 1.377 . S
C901 H921 0.930 . S
C902 N900 1.375 . S
C902 C901 1.338 . S
C902 H906 0.931 . S
C903 N900 1.313 . S
C903 N904 1.344 . S
C903 H907 0.930 . S
N904 C901 1.377 . S
N904 C903 1.344 . S
O905 Co897 2.055 . S
O905 C909 1.253 . S
H906 C902 0.931 . S
H907 C903 0.930 . S
O908 Co897 2.039 . S
O908 C898 1.265 . S
C909 O905 1.253 . S
C909 O910 1.227 . S
O910 C909 1.227 . S
N911 Co897 2.140 . S
N911 C914 1.346 . S
N911 C915 1.345 . S
C912 C913 1.387 . S
C912 C916 1.391 . S
C913 C912 1.387 . S
C913 C914 1.369 . S
C913 H922 0.929 . S
C914 N911 1.346 . S
C914 C913 1.369 . S
C914 H917 0.928 . S
C915 N911 1.345 . S
C915 C916 1.371 . S
C915 H918 0.931 . S
C916 C912 1.391 . S
C916 C915 1.371 . S
C916 H923 0.930 . S
H917 C914 0.928 . S
H918 C915 0.931 . S
H919 C895 0.930 . S
H920 C892 0.930 . S
H921 C901 0.930 . S
H922 C913 0.929 . S
H923 C916 0.930 . S
C924 C925 1.351 . S
C924 N927 1.368 . S
C924 H929 0.931 . S
C925 C924 1.351 . S
C925 N926 1.373 . S
C925 H953 0.930 . S
N926 C925 1.373 . S
N926 C928 1.340 . S
N927 C924 1.368 . S
N927 C928 1.321 . S
N927 Co930 2.135 . S
C928 N926 1.340 . S
C928 N927 1.321 . S
C928 H952 0.930 . S
H929 C924 0.931 . S
Co930 N927 2.135 . S
Co930 N933 2.121 . S
Co930 O938 2.055 . S
Co930 O941 2.039 . S
Co930 N944 2.140 . S
C931 O932 1.227 . S
C931 O941 1.265 . S
O932 C931 1.227 . S
N933 Co930 2.121 . S
N933 C935 1.375 . S
N933 C936 1.313 . S
C934 C935 1.338 . S
C934 N937 1.377 . S
C934 H954 0.930 . S
C935 N933 1.375 . S
C935 C934 1.338 . S
C935 H939 0.931 . S
C936 N933 1.313 . S
C936 N937 1.344 . S
C936 H940 0.930 . S
N937 C934 1.377 . S
N937 C936 1.344 . S
O938 Co930 2.055 . S
O938 C942 1.253 . S
H939 C935 0.931 . S
H940 C936 0.930 . S
O941 Co930 2.039 . S
O941 C931 1.265 . S
C942 O938 1.253 . S
C942 O943 1.227 . S
O943 C942 1.227 . S
N944 Co930 2.140 . S
N944 C947 1.346 . S
N944 C948 1.345 . S
C945 C946 1.387 . S
C945 C949 1.391 . S
C946 C945 1.387 . S
C946 C947 1.369 . S
C946 H955 0.929 . S
C947 N944 1.346 . S
C947 C946 1.369 . S
C947 H950 0.928 . S
C948 N944 1.345 . S
C948 C949 1.371 . S
C948 H951 0.931 . S
C949 C945 1.391 . S
C949 C948 1.371 . S
C949 H956 0.930 . S
H950 C947 0.928 . S
H951 C948 0.931 . S
H952 C928 0.930 . S
H953 C925 0.930 . S
H954 C934 0.930 . S
H955 C946 0.929 . S
H956 C949 0.930 . S
C957 C958 1.351 . S
C957 N960 1.368 . S
C957 H962 0.931 . S
C958 C957 1.351 . S
C958 N959 1.373 . S
C958 H986 0.930 . S
N959 C958 1.373 . S
N959 C961 1.340 . S
N960 C957 1.368 . S
N960 C961 1.321 . S
N960 Co963 2.135 . S
C961 N959 1.340 . S
C961 N960 1.321 . S
C961 H985 0.930 . S
H962 C957 0.931 . S
Co963 N960 2.135 . S
Co963 N966 2.121 . S
Co963 O971 2.055 . S
Co963 O974 2.039 . S
Co963 N977 2.140 . S
C964 O965 1.227 . S
C964 O974 1.265 . S
O965 C964 1.227 . S
N966 Co963 2.121 . S
N966 C968 1.375 . S
N966 C969 1.313 . S
C967 C968 1.338 . S
C967 N970 1.377 . S
C967 H987 0.930 . S
C968 N966 1.375 . S
C968 C967 1.338 . S
C968 H972 0.931 . S
C969 N966 1.313 . S
C969 N970 1.344 . S
C969 H973 0.930 . S
N970 C967 1.377 . S
N970 C969 1.344 . S
O971 Co963 2.055 . S
O971 C975 1.253 . S
H972 C968 0.931 . S
H973 C969 0.930 . S
O974 Co963 2.039 . S
O974 C964 1.265 . S
C975 O971 1.253 . S
C975 O976 1.227 . S
O976 C975 1.227 . S
N977 Co963 2.140 . S
N977 C980 1.346 . S
N977 C981 1.345 . S
C978 C979 1.387 . S
C978 C982 1.391 . S
C979 C978 1.387 . S
C979 C980 1.369 . S
C979 H988 0.929 . S
C980 N977 1.346 . S
C980 C979 1.369 . S
C980 H983 0.928 . S
C981 N977 1.345 . S
C981 C982 1.371 . S
C981 H984 0.931 . S
C982 C978 1.391 . S
C982 C981 1.371 . S
C982 H989 0.930 . S
H983 C980 0.928 . S
H984 C981 0.931 . S
H985 C961 0.930 . S
H986 C958 0.930 . S
H987 C967 0.930 . S
H988 C979 0.929 . S
H989 C982 0.930 . S
C990 C991 1.351 . S
C990 N993 1.368 . S
C990 H995 0.931 . S
C991 C990 1.351 . S
C991 N992 1.373 . S
C991 H1019 0.930 . S
N992 C991 1.373 . S
N992 C994 1.340 . S
N993 C990 1.368 . S
N993 C994 1.321 . S
N993 Co996 2.135 . S
C994 N992 1.340 . S
C994 N993 1.321 . S
C994 H1018 0.930 . S
H995 C990 0.931 . S
Co996 N993 2.135 . S
Co996 N999 2.121 . S
Co996 O1004 2.055 . S
Co996 O1007 2.039 . S
Co996 N1010 2.140 . S
C997 O998 1.227 . S
C997 O1007 1.265 . S
O998 C997 1.227 . S
N999 Co996 2.121 . S
N999 C1001 1.375 . S
N999 C1002 1.313 . S
C1000 C1001 1.338 . S
C1000 N1003 1.377 . S
C1000 H1020 0.930 . S
C1001 N999 1.375 . S
C1001 C1000 1.338 . S
C1001 H1005 0.931 . S
C1002 N999 1.313 . S
C1002 N1003 1.344 . S
C1002 H1006 0.930 . S
N1003 C1000 1.377 . S
N1003 C1002 1.344 . S
O1004 Co996 2.055 . S
O1004 C1008 1.253 . S
H1005 C1001 0.931 . S
H1006 C1002 0.930 . S
O1007 Co996 2.039 . S
O1007 C997 1.265 . S
C1008 O1004 1.253 . S
C1008 O1009 1.227 . S
O1009 C1008 1.227 . S
N1010 Co996 2.140 . S
N1010 C1013 1.346 . S
N1010 C1014 1.345 . S
C1011 C1012 1.387 . S
C1011 C1015 1.391 . S
C1012 C1011 1.387 . S
C1012 C1013 1.369 . S
C1012 H1021 0.929 . S
C1013 N1010 1.346 . S
C1013 C1012 1.369 . S
C1013 H1016 0.928 . S
C1014 N1010 1.345 . S
C1014 C1015 1.371 . S
C1014 H1017 0.931 . S
C1015 C1011 1.391 . S
C1015 C1014 1.371 . S
C1015 H1022 0.930 . S
H1016 C1013 0.928 . S
H1017 C1014 0.931 . S
H1018 C994 0.930 . S
H1019 C991 0.930 . S
H1020 C1000 0.930 . S
H1021 C1012 0.929 . S
H1022 C1015 0.930 . S
C1023 C1024 1.351 . S
C1023 N1026 1.368 . S
C1023 H1028 0.931 . S
C1024 C1023 1.351 . S
C1024 N1025 1.373 . S
C1024 H1052 0.930 . S
N1025 C1024 1.373 . S
N1025 C1027 1.340 . S
N1026 C1023 1.368 . S
N1026 C1027 1.321 . S
N1026 Co1029 2.135 . S
C1027 N1025 1.340 . S
C1027 N1026 1.321 . S
C1027 H1051 0.930 . S
H1028 C1023 0.931 . S
Co1029 N1026 2.135 . S
Co1029 N1032 2.121 . S
Co1029 O1037 2.055 . S
Co1029 O1040 2.039 . S
Co1029 N1043 2.140 . S
C1030 O1031 1.227 . S
C1030 O1040 1.265 . S
O1031 C1030 1.227 . S
N1032 Co1029 2.121 . S
N1032 C1034 1.375 . S
N1032 C1035 1.313 . S
C1033 C1034 1.338 . S
C1033 N1036 1.377 . S
C1033 H1053 0.930 . S
C1034 N1032 1.375 . S
C1034 C1033 1.338 . S
C1034 H1038 0.931 . S
C1035 N1032 1.313 . S
C1035 N1036 1.344 . S
C1035 H1039 0.930 . S
N1036 C1033 1.377 . S
N1036 C1035 1.344 . S
O1037 Co1029 2.055 . S
O1037 C1041 1.253 . S
H1038 C1034 0.931 . S
H1039 C1035 0.930 . S
O1040 Co1029 2.039 . S
O1040 C1030 1.265 . S
C1041 O1037 1.253 . S
C1041 O1042 1.227 . S
O1042 C1041 1.227 . S
N1043 Co1029 2.140 . S
N1043 C1046 1.346 . S
N1043 C1047 1.345 . S
C1044 C1045 1.387 . S
C1044 C1048 1.391 . S
C1045 C1044 1.387 . S
C1045 C1046 1.369 . S
C1045 H1054 0.929 . S
C1046 N1043 1.346 . S
C1046 C1045 1.369 . S
C1046 H1049 0.928 . S
C1047 N1043 1.345 . S
C1047 C1048 1.371 . S
C1047 H1050 0.931 . S
C1048 C1044 1.391 . S
C1048 C1047 1.371 . S
C1048 H1055 0.930 . S
H1049 C1046 0.928 . S
H1050 C1047 0.931 . S
H1051 C1027 0.930 . S
H1052 C1024 0.930 . S
H1053 C1033 0.930 . S
H1054 C1045 0.929 . S
H1055 C1048 0.930 . S
C1056 C1057 1.351 . S
C1056 N1059 1.368 . S
C1056 H1061 0.931 . S
C1057 C1056 1.351 . S
C1057 N1058 1.373 . S
C1057 H1085 0.930 . S
N1058 C1057 1.373 . S
N1058 C1060 1.340 . S
N1059 C1056 1.368 . S
N1059 C1060 1.321 . S
N1059 Co1062 2.135 . S
C1060 N1058 1.340 . S
C1060 N1059 1.321 . S
C1060 H1084 0.930 . S
H1061 C1056 0.931 . S
Co1062 N1059 2.135 . S
Co1062 N1065 2.121 . S
Co1062 O1070 2.055 . S
Co1062 O1073 2.039 . S
Co1062 N1076 2.140 . S
C1063 O1064 1.227 . S
C1063 O1073 1.265 . S
O1064 C1063 1.227 . S
N1065 Co1062 2.121 . S
N1065 C1067 1.375 . S
N1065 C1068 1.313 . S
C1066 C1067 1.338 . S
C1066 N1069 1.377 . S
C1066 H1086 0.930 . S
C1067 N1065 1.375 . S
C1067 C1066 1.338 . S
C1067 H1071 0.931 . S
C1068 N1065 1.313 . S
C1068 N1069 1.344 . S
C1068 H1072 0.930 . S
N1069 C1066 1.377 . S
N1069 C1068 1.344 . S
O1070 Co1062 2.055 . S
O1070 C1074 1.253 . S
H1071 C1067 0.931 . S
H1072 C1068 0.930 . S
O1073 Co1062 2.039 . S
O1073 C1063 1.265 . S
C1074 O1070 1.253 . S
C1074 O1075 1.227 . S
O1075 C1074 1.227 . S
N1076 Co1062 2.140 . S
N1076 C1079 1.346 . S
N1076 C1080 1.345 . S
C1077 C1078 1.387 . S
C1077 C1081 1.391 . S
C1078 C1077 1.387 . S
C1078 C1079 1.369 . S
C1078 H1087 0.929 . S
C1079 N1076 1.346 . S
C1079 C1078 1.369 . S
C1079 H1082 0.928 . S
C1080 N1076 1.345 . S
C1080 C1081 1.371 . S
C1080 H1083 0.931 . S
C1081 C1077 1.391 . S
C1081 C1080 1.371 . S
C1081 H1088 0.930 . S
H1082 C1079 0.928 . S
H1083 C1080 0.931 . S
H1084 C1060 0.930 . S
H1085 C1057 0.930 . S
H1086 C1066 0.930 . S
H1087 C1078 0.929 . S
H1088 C1081 0.930 . S
C1089 C1090 1.351 . S
C1089 N1092 1.368 . S
C1089 H1094 0.931 . S
C1090 C1089 1.351 . S
C1090 N1091 1.373 . S
C1090 H1118 0.930 . S
N1091 C1090 1.373 . S
N1091 C1093 1.340 . S
N1092 C1089 1.368 . S
N1092 C1093 1.321 . S
N1092 Co1095 2.135 . S
C1093 N1091 1.340 . S
C1093 N1092 1.321 . S
C1093 H1117 0.930 . S
H1094 C1089 0.931 . S
Co1095 N1092 2.135 . S
Co1095 N1098 2.121 . S
Co1095 O1103 2.055 . S
Co1095 O1106 2.039 . S
Co1095 N1109 2.140 . S
C1096 O1097 1.227 . S
C1096 O1106 1.265 . S
O1097 C1096 1.227 . S
N1098 Co1095 2.121 . S
N1098 C1100 1.375 . S
N1098 C1101 1.313 . S
C1099 C1100 1.338 . S
C1099 N1102 1.377 . S
C1099 H1119 0.930 . S
C1100 N1098 1.375 . S
C1100 C1099 1.338 . S
C1100 H1104 0.931 . S
C1101 N1098 1.313 . S
C1101 N1102 1.344 . S
C1101 H1105 0.930 . S
N1102 C1099 1.377 . S
N1102 C1101 1.344 . S
O1103 Co1095 2.055 . S
O1103 C1107 1.253 . S
H1104 C1100 0.931 . S
H1105 C1101 0.930 . S
O1106 Co1095 2.039 . S
O1106 C1096 1.265 . S
C1107 O1103 1.253 . S
C1107 O1108 1.227 . S
O1108 C1107 1.227 . S
N1109 Co1095 2.140 . S
N1109 C1112 1.346 . S
N1109 C1113 1.345 . S
C1110 C1111 1.387 . S
C1110 C1114 1.391 . S
C1111 C1110 1.387 . S
C1111 C1112 1.369 . S
C1111 H1120 0.929 . S
C1112 N1109 1.346 . S
C1112 C1111 1.369 . S
C1112 H1115 0.928 . S
C1113 N1109 1.345 . S
C1113 C1114 1.371 . S
C1113 H1116 0.931 . S
C1114 C1110 1.391 . S
C1114 C1113 1.371 . S
C1114 H1121 0.930 . S
H1115 C1112 0.928 . S
H1116 C1113 0.931 . S
H1117 C1093 0.930 . S
H1118 C1090 0.930 . S
H1119 C1099 0.930 . S
H1120 C1111 0.929 . S
H1121 C1114 0.930 . S
C1122 C1123 1.351 . S
C1122 N1125 1.368 . S
C1122 H1127 0.931 . S
C1123 C1122 1.351 . S
C1123 N1124 1.373 . S
C1123 H1151 0.930 . S
N1124 C1123 1.373 . S
N1124 C1126 1.340 . S
N1125 C1122 1.368 . S
N1125 C1126 1.321 . S
N1125 Co1128 2.135 . S
C1126 N1124 1.340 . S
C1126 N1125 1.321 . S
C1126 H1150 0.930 . S
H1127 C1122 0.931 . S
Co1128 N1125 2.135 . S
Co1128 N1131 2.121 . S
Co1128 O1136 2.055 . S
Co1128 O1139 2.039 . S
Co1128 N1142 2.140 . S
C1129 O1130 1.227 . S
C1129 O1139 1.265 . S
O1130 C1129 1.227 . S
N1131 Co1128 2.121 . S
N1131 C1133 1.375 . S
N1131 C1134 1.313 . S
C1132 C1133 1.338 . S
C1132 N1135 1.377 . S
C1132 H1152 0.930 . S
C1133 N1131 1.375 . S
C1133 C1132 1.338 . S
C1133 H1137 0.931 . S
C1134 N1131 1.313 . S
C1134 N1135 1.344 . S
C1134 H1138 0.930 . S
N1135 C1132 1.377 . S
N1135 C1134 1.344 . S
O1136 Co1128 2.055 . S
O1136 C1140 1.253 . S
H1137 C1133 0.931 . S
H1138 C1134 0.930 . S
O1139 Co1128 2.039 . S
O1139 C1129 1.265 . S
C1140 O1136 1.253 . S
C1140 O1141 1.227 . S
O1141 C1140 1.227 . S
N1142 Co1128 2.140 . S
N1142 C1145 1.346 . S
N1142 C1146 1.345 . S
C1143 C1144 1.387 . S
C1143 C1147 1.391 . S
C1144 C1143 1.387 . S
C1144 C1145 1.369 . S
C1144 H1153 0.929 . S
C1145 N1142 1.346 . S
C1145 C1144 1.369 . S
C1145 H1148 0.928 . S
C1146 N1142 1.345 . S
C1146 C1147 1.371 . S
C1146 H1149 0.931 . S
C1147 C1143 1.391 . S
C1147 C1146 1.371 . S
C1147 H1154 0.930 . S
H1148 C1145 0.928 . S
H1149 C1146 0.931 . S
H1150 C1126 0.930 . S
H1151 C1123 0.930 . S
H1152 C1132 0.930 . S
H1153 C1144 0.929 . S
H1154 C1147 0.930 . S
C1155 C1156 1.351 . S
C1155 N1158 1.368 . S
C1155 H1160 0.931 . S
C1156 C1155 1.351 . S
C1156 N1157 1.373 . S
C1156 H1184 0.930 . S
N1157 C1156 1.373 . S
N1157 C1159 1.340 . S
N1158 C1155 1.368 . S
N1158 C1159 1.321 . S
N1158 Co1161 2.135 . S
C1159 N1157 1.340 . S
C1159 N1158 1.321 . S
C1159 H1183 0.930 . S
H1160 C1155 0.931 . S
Co1161 N1158 2.135 . S
Co1161 N1164 2.121 . S
Co1161 O1169 2.055 . S
Co1161 O1172 2.039 . S
Co1161 N1175 2.140 . S
C1162 O1163 1.227 . S
C1162 O1172 1.265 . S
O1163 C1162 1.227 . S
N1164 Co1161 2.121 . S
N1164 C1166 1.375 . S
N1164 C1167 1.313 . S
C1165 C1166 1.338 . S
C1165 N1168 1.377 . S
C1165 H1185 0.930 . S
C1166 N1164 1.375 . S
C1166 C1165 1.338 . S
C1166 H1170 0.931 . S
C1167 N1164 1.313 . S
C1167 N1168 1.344 . S
C1167 H1171 0.930 . S
N1168 C1165 1.377 . S
N1168 C1167 1.344 . S
O1169 Co1161 2.055 . S
O1169 C1173 1.253 . S
H1170 C1166 0.931 . S
H1171 C1167 0.930 . S
O1172 Co1161 2.039 . S
O1172 C1162 1.265 . S
C1173 O1169 1.253 . S
C1173 O1174 1.227 . S
O1174 C1173 1.227 . S
N1175 Co1161 2.140 . S
N1175 C1178 1.346 . S
N1175 C1179 1.345 . S
C1176 C1177 1.387 . S
C1176 C1180 1.391 . S
C1177 C1176 1.387 . S
C1177 C1178 1.369 . S
C1177 H1186 0.929 . S
C1178 N1175 1.346 . S
C1178 C1177 1.369 . S
C1178 H1181 0.928 . S
C1179 N1175 1.345 . S
C1179 C1180 1.371 . S
C1179 H1182 0.931 . S
C1180 C1176 1.391 . S
C1180 C1179 1.371 . S
C1180 H1187 0.930 . S
H1181 C1178 0.928 . S
H1182 C1179 0.931 . S
H1183 C1159 0.930 . S
H1184 C1156 0.930 . S
H1185 C1165 0.930 . S
H1186 C1177 0.929 . S
H1187 C1180 0.930 . S
C1188 C1189 1.387 . S
C1188 H1192 0.950 . S
C1188 C1197 1.390 . S
C1189 C1188 1.387 . S
C1189 C1191 1.387 . S
H1190 C1197 0.950 . S
C1191 C1189 1.387 . S
C1191 C1193 1.390 . S
C1191 H1195 0.950 . S
H1192 C1188 0.950 . S
C1193 C1191 1.390 . S
C1193 C1194 1.387 . S
C1193 H1196 0.950 . S
C1194 C1193 1.387 . S
C1194 C1197 1.387 . S
H1195 C1191 0.950 . S
H1196 C1193 0.950 . S
C1197 C1188 1.390 . S
C1197 H1190 0.950 . S
C1197 C1194 1.387 . S
C1198 C1199 1.387 . S
C1198 H1202 0.950 . S
C1198 C1207 1.390 . S
C1199 C1198 1.387 . S
C1199 C1201 1.387 . S
H1200 C1207 0.950 . S
C1201 C1199 1.387 . S
C1201 C1203 1.390 . S
C1201 H1205 0.950 . S
H1202 C1198 0.950 . S
C1203 C1201 1.390 . S
C1203 C1204 1.387 . S
C1203 H1206 0.950 . S
C1204 C1203 1.387 . S
C1204 C1207 1.387 . S
H1205 C1201 0.950 . S
H1206 C1203 0.950 . S
C1207 C1198 1.390 . S
C1207 H1200 0.950 . S
C1207 C1204 1.387 . S
C1208 C1209 1.387 . S
C1208 H1212 0.950 . S
C1208 C1217 1.390 . S
C1209 C1208 1.387 . S
C1209 C1211 1.387 . S
H1210 C1217 0.950 . S
C1211 C1209 1.387 . S
C1211 C1213 1.390 . S
C1211 H1215 0.950 . S
H1212 C1208 0.950 . S
C1213 C1211 1.390 . S
C1213 C1214 1.387 . S
C1213 H1216 0.950 . S
C1214 C1213 1.387 . S
C1214 C1217 1.387 . S
H1215 C1211 0.950 . S
H1216 C1213 0.950 . S
C1217 C1208 1.390 . S
C1217 H1210 0.950 . S
C1217 C1214 1.387 . S
C1218 C1219 1.387 . S
C1218 H1222 0.950 . S
C1218 C1227 1.390 . S
C1219 C1218 1.387 . S
C1219 C1221 1.387 . S
H1220 C1227 0.950 . S
C1221 C1219 1.387 . S
C1221 C1223 1.390 . S
C1221 H1225 0.950 . S
H1222 C1218 0.950 . S
C1223 C1221 1.390 . S
C1223 C1224 1.387 . S
C1223 H1226 0.950 . S
C1224 C1223 1.387 . S
C1224 C1227 1.387 . S
H1225 C1221 0.950 . S
H1226 C1223 0.950 . S
C1227 C1218 1.390 . S
C1227 H1220 0.950 . S
C1227 C1224 1.387 . S
C1228 C1229 1.387 . S
C1228 H1232 0.950 . S
C1228 C1237 1.390 . S
C1229 C1228 1.387 . S
C1229 C1231 1.387 . S
H1230 C1237 0.950 . S
C1231 C1229 1.387 . S
C1231 C1233 1.390 . S
C1231 H1235 0.950 . S
H1232 C1228 0.950 . S
C1233 C1231 1.390 . S
C1233 C1234 1.387 . S
C1233 H1236 0.950 . S
C1234 C1233 1.387 . S
C1234 C1237 1.387 . S
H1235 C1231 0.950 . S
H1236 C1233 0.950 . S
C1237 C1228 1.390 . S
C1237 H1230 0.950 . S
C1237 C1234 1.387 . S
C1238 C1239 1.387 . S
C1238 H1242 0.950 . S
C1238 C1247 1.390 . S
C1239 C1238 1.387 . S
C1239 C1241 1.387 . S
H1240 C1247 0.950 . S
C1241 C1239 1.387 . S
C1241 C1243 1.390 . S
C1241 H1245 0.950 . S
H1242 C1238 0.950 . S
C1243 C1241 1.390 . S
C1243 C1244 1.387 . S
C1243 H1246 0.950 . S
C1244 C1243 1.387 . S
C1244 C1247 1.387 . S
H1245 C1241 0.950 . S
H1246 C1243 0.950 . S
C1247 C1238 1.390 . S
C1247 H1240 0.950 . S
C1247 C1244 1.387 . S
C1248 C1249 1.387 . S
C1248 H1252 0.950 . S
C1248 C1257 1.390 . S
C1249 C1248 1.387 . S
C1249 C1251 1.387 . S
H1250 C1257 0.950 . S
C1251 C1249 1.387 . S
C1251 C1253 1.390 . S
C1251 H1255 0.950 . S
H1252 C1248 0.950 . S
C1253 C1251 1.390 . S
C1253 C1254 1.387 . S
C1253 H1256 0.950 . S
C1254 C1253 1.387 . S
C1254 C1257 1.387 . S
H1255 C1251 0.950 . S
H1256 C1253 0.950 . S
C1257 C1248 1.390 . S
C1257 H1250 0.950 . S
C1257 C1254 1.387 . S
C1258 C1259 1.387 . S
C1258 H1262 0.950 . S
C1258 C1267 1.390 . S
C1259 C1258 1.387 . S
C1259 C1261 1.387 . S
H1260 C1267 0.950 . S
C1261 C1259 1.387 . S
C1261 C1263 1.390 . S
C1261 H1265 0.950 . S
H1262 C1258 0.950 . S
C1263 C1261 1.390 . S
C1263 C1264 1.387 . S
C1263 H1266 0.950 . S
C1264 C1263 1.387 . S
C1264 C1267 1.387 . S
H1265 C1261 0.950 . S
H1266 C1263 0.950 . S
C1267 C1258 1.390 . S
C1267 H1260 0.950 . S
C1267 C1264 1.387 . S
C1268 C1269 1.387 . S
C1268 H1272 0.950 . S
C1268 C1277 1.390 . S
C1269 C1268 1.387 . S
C1269 C1271 1.387 . S
H1270 C1277 0.950 . S
C1271 C1269 1.387 . S
C1271 C1273 1.390 . S
C1271 H1275 0.950 . S
H1272 C1268 0.950 . S
C1273 C1271 1.390 . S
C1273 C1274 1.387 . S
C1273 H1276 0.950 . S
C1274 C1273 1.387 . S
C1274 C1277 1.387 . S
H1275 C1271 0.950 . S
H1276 C1273 0.950 . S
C1277 C1268 1.390 . S
C1277 H1270 0.950 . S
C1277 C1274 1.387 . S
C1278 C1279 1.387 . S
C1278 H1282 0.950 . S
C1278 C1287 1.390 . S
C1279 C1278 1.387 . S
C1279 C1281 1.387 . S
H1280 C1287 0.950 . S
C1281 C1279 1.387 . S
C1281 C1283 1.390 . S
C1281 H1285 0.950 . S
H1282 C1278 0.950 . S
C1283 C1281 1.390 . S
C1283 C1284 1.387 . S
C1283 H1286 0.950 . S
C1284 C1283 1.387 . S
C1284 C1287 1.387 . S
H1285 C1281 0.950 . S
H1286 C1283 0.950 . S
C1287 C1278 1.390 . S
C1287 H1280 0.950 . S
C1287 C1284 1.387 . S
C1288 C1289 1.387 . S
C1288 H1292 0.950 . S
C1288 C1297 1.390 . S
C1289 C1288 1.387 . S
C1289 C1291 1.387 . S
H1290 C1297 0.950 . S
C1291 C1289 1.387 . S
C1291 C1293 1.390 . S
C1291 H1295 0.950 . S
H1292 C1288 0.950 . S
C1293 C1291 1.390 . S
C1293 C1294 1.387 . S
C1293 H1296 0.950 . S
C1294 C1293 1.387 . S
C1294 C1297 1.387 . S
H1295 C1291 0.950 . S
H1296 C1293 0.950 . S
C1297 C1288 1.390 . S
C1297 H1290 0.950 . S
C1297 C1294 1.387 . S
C1298 C1299 1.387 . S
C1298 H1302 0.950 . S
C1298 C1307 1.390 . S
C1299 C1298 1.387 . S
C1299 C1301 1.387 . S
H1300 C1307 0.950 . S
C1301 C1299 1.387 . S
C1301 C1303 1.390 . S
C1301 H1305 0.950 . S
H1302 C1298 0.950 . S
C1303 C1301 1.390 . S
C1303 C1304 1.387 . S
C1303 H1306 0.950 . S
C1304 C1303 1.387 . S
C1304 C1307 1.387 . S
H1305 C1301 0.950 . S
H1306 C1303 0.950 . S
C1307 C1298 1.390 . S
C1307 H1300 0.950 . S
C1307 C1304 1.387 . S
C1308 C1309 1.387 . S
C1308 H1312 0.950 . S
C1308 C1317 1.392 . S
C1309 C1308 1.387 . S
C1309 C1311 1.379 1_655 S
H1310 C1317 0.954 . S
C1311 C1309 1.379 1_455 S
C1311 C1313 1.405 . S
C1311 H1315 0.954 . S
H1312 C1308 0.950 . S
C1313 C1311 1.405 . S
C1313 C1314 1.387 . S
C1313 H1316 0.950 . S
C1314 C1313 1.387 . S
C1314 C1317 1.387 1_455 S
H1315 C1311 0.954 . S
H1316 C1313 0.950 . S
C1317 C1308 1.392 . S
C1317 H1310 0.954 . S
C1317 C1314 1.387 1_655 S
C1318 C1319 1.387 . S
C1318 H1322 0.950 . S
C1318 C1327 1.390 . S
C1319 C1318 1.387 . S
C1319 C1321 1.387 . S
H1320 C1327 0.950 . S
C1321 C1319 1.387 . S
C1321 C1323 1.390 . S
C1321 H1325 0.950 . S
H1322 C1318 0.950 . S
C1323 C1321 1.390 . S
C1323 C1324 1.387 . S
C1323 H1326 0.950 . S
C1324 C1323 1.387 . S
C1324 C1327 1.387 . S
H1325 C1321 0.950 . S
H1326 C1323 0.950 . S
C1327 C1318 1.390 . S
C1327 H1320 0.950 . S
C1327 C1324 1.387 . S
C1328 C1329 1.387 . S
C1328 H1332 0.950 . S
C1328 C1337 1.390 1_565 S
C1329 C1328 1.387 . S
C1329 C1331 1.387 . S
H1330 C1337 0.950 . S
C1331 C1329 1.387 . S
C1331 C1333 1.390 1_565 S
C1331 H1335 0.950 . S
H1332 C1328 0.950 . S
C1333 C1331 1.390 1_545 S
C1333 C1334 1.387 . S
C1333 H1336 0.950 . S
C1334 C1333 1.387 . S
C1334 C1337 1.387 . S
H1335 C1331 0.950 . S
H1336 C1333 0.950 . S
C1337 C1328 1.390 1_545 S
C1337 H1330 0.950 . S
C1337 C1334 1.387 . S
C1338 C1339 1.387 . S
C1338 H1342 0.950 . S
C1338 C1347 1.390 1_565 S
C1339 C1338 1.387 . S
C1339 C1341 1.387 . S
H1340 C1347 0.950 . S
C1341 C1339 1.387 . S
C1341 C1343 1.390 1_565 S
C1341 H1345 0.950 . S
H1342 C1338 0.950 . S
C1343 C1341 1.390 1_545 S
C1343 C1344 1.387 . S
C1343 H1346 0.950 . S
C1344 C1343 1.387 . S
C1344 C1347 1.387 . S
H1345 C1341 0.950 . S
H1346 C1343 0.950 . S
C1347 C1338 1.390 1_545 S
C1347 H1340 0.950 . S
C1347 C1344 1.387 . S
C1348 C1349 1.387 . S
C1348 H1352 0.950 . S
C1348 C1357 1.368 1_655 S
C1349 C1348 1.387 . S
C1349 C1351 1.400 . S
H1350 C1357 0.940 . S
C1351 C1349 1.400 . S
C1351 C1353 1.381 1_655 S
C1351 H1355 0.956 . S
H1352 C1348 0.950 . S
C1353 C1351 1.381 1_455 S
C1353 C1354 1.387 . S
C1353 H1356 0.950 . S
C1354 C1353 1.387 . S
C1354 C1357 1.420 . S
H1355 C1351 0.956 . S
H1356 C1353 0.950 . S
C1357 C1348 1.368 1_455 S
C1357 H1350 0.940 . S
C1357 C1354 1.420 . S
C1358 C1359 1.387 . S
C1358 H1362 0.950 . S
C1358 C1367 1.390 . S
C1359 C1358 1.387 . S
C1359 C1361 1.387 . S
H1360 C1367 0.950 . S
C1361 C1359 1.387 . S
C1361 C1363 1.390 . S
C1361 H1365 0.950 . S
H1362 C1358 0.950 . S
C1363 C1361 1.390 . S
C1363 C1364 1.387 . S
C1363 H1366 0.950 . S
C1364 C1363 1.387 . S
C1364 C1367 1.387 . S
H1365 C1361 0.950 . S
H1366 C1363 0.950 . S
C1367 C1358 1.390 . S
C1367 H1360 0.950 . S
C1367 C1364 1.387 . S
C1368 C1369 1.387 . S
C1368 H1372 0.950 . S
C1368 C1377 1.390 . S
C1369 C1368 1.387 . S
C1369 C1371 1.387 . S
H1370 C1377 0.950 . S
C1371 C1369 1.387 . S
C1371 C1373 1.390 . S
C1371 H1375 0.950 . S
H1372 C1368 0.950 . S
C1373 C1371 1.390 . S
C1373 C1374 1.387 . S
C1373 H1376 0.950 . S
C1374 C1373 1.387 . S
C1374 C1377 1.387 . S
H1375 C1371 0.950 . S
H1376 C1373 0.950 . S
C1377 C1368 1.390 . S
C1377 H1370 0.950 . S
C1377 C1374 1.387 . S
C1378 C1379 1.387 . S
C1378 H1382 0.950 . S
C1378 C1387 1.390 1_565 S
C1379 C1378 1.387 . S
C1379 C1381 1.387 . S
H1380 C1387 0.950 . S
C1381 C1379 1.387 . S
C1381 C1383 1.390 1_565 S
C1381 H1385 0.950 . S
H1382 C1378 0.950 . S
C1383 C1381 1.390 1_545 S
C1383 C1384 1.387 . S
C1383 H1386 0.950 . S
C1384 C1383 1.387 . S
C1384 C1387 1.387 . S
H1385 C1381 0.950 . S
H1386 C1383 0.950 . S
C1387 C1378 1.390 1_545 S
C1387 H1380 0.950 . S
C1387 C1384 1.387 . S
C1388 C1389 1.387 . S
C1388 H1392 0.950 . S
C1388 C1397 1.390 . S
C1389 C1388 1.387 . S
C1389 C1391 1.387 1_655 S
H1390 C1397 0.950 . S
C1391 C1389 1.387 1_455 S
C1391 C1393 1.390 . S
C1391 H1395 0.950 . S
H1392 C1388 0.950 . S
C1393 C1391 1.390 . S
C1393 C1394 1.387 . S
C1393 H1396 0.950 . S
C1394 C1393 1.387 . S
C1394 C1397 1.387 1_455 S
H1395 C1391 0.950 . S
H1396 C1393 0.950 . S
C1397 C1388 1.390 . S
C1397 H1390 0.950 . S
C1397 C1394 1.387 1_655 S
C1398 C1399 1.387 . S
C1398 H1402 0.950 . S
C1398 C1407 1.390 . S
C1399 C1398 1.387 . S
C1399 C1401 1.387 . S
H1400 C1407 0.950 . S
C1401 C1399 1.387 . S
C1401 C1403 1.390 . S
C1401 H1405 0.950 . S
H1402 C1398 0.950 . S
C1403 C1401 1.390 . S
C1403 C1404 1.387 . S
C1403 H1406 0.950 . S
C1404 C1403 1.387 . S
C1404 C1407 1.387 . S
H1405 C1401 0.950 . S
H1406 C1403 0.950 . S
C1407 C1398 1.390 . S
C1407 H1400 0.950 . S
C1407 C1404 1.387 . S
C1408 C1409 1.387 . S
C1408 H1412 0.950 . S
C1408 C1417 1.391 . S
C1409 C1408 1.387 . S
C1409 C1411 1.386 . S
H1410 C1417 0.946 . S
C1411 C1409 1.386 . S
C1411 C1413 1.390 1_565 S
C1411 H1415 0.951 1_565 S
H1412 C1408 0.950 . S
C1413 C1411 1.390 1_545 S
C1413 C1414 1.387 . S
C1413 H1416 0.950 . S
C1414 C1413 1.387 . S
C1414 C1417 1.383 1_545 S
H1415 C1411 0.951 1_545 S
H1416 C1413 0.950 . S
C1417 C1408 1.391 . S
C1417 H1410 0.946 . S
C1417 C1414 1.383 1_565 S
C1418 C1419 1.380 1_455 S
C1418 H1422 0.948 . S
C1418 C1427 1.392 . S
C1419 C1418 1.380 1_655 S
C1419 C1421 1.387 . S
H1420 C1427 0.950 . S
C1421 C1419 1.387 . S
C1421 C1423 1.390 . S
C1421 H1425 0.950 . S
H1422 C1418 0.948 . S
C1423 C1421 1.390 . S
C1423 C1424 1.391 1_655 S
C1423 H1426 0.948 . S
C1424 C1423 1.391 1_455 S
C1424 C1427 1.387 . S
H1425 C1421 0.950 . S
H1426 C1423 0.948 . S
C1427 C1418 1.392 . S
C1427 H1420 0.950 . S
C1427 C1424 1.387 . S
C1428 C1429 1.387 . S
C1428 H1432 0.950 . S
C1428 C1437 1.390 . S
C1429 C1428 1.387 . S
C1429 C1431 1.387 . S
H1430 C1437 0.950 . S
C1431 C1429 1.387 . S
C1431 C1433 1.390 . S
C1431 H1435 0.950 . S
H1432 C1428 0.950 . S
C1433 C1431 1.390 . S
C1433 C1434 1.387 . S
C1433 H1436 0.950 . S
C1434 C1433 1.387 . S
C1434 C1437 1.387 . S
H1435 C1431 0.950 . S
H1436 C1433 0.950 . S
C1437 C1428 1.390 . S
C1437 H1430 0.950 . S
C1437 C1434 1.387 . S
C1438 C1439 1.387 . S
C1438 H1442 0.950 . S
C1438 C1447 1.390 . S
C1439 C1438 1.387 . S
C1439 C1441 1.387 . S
H1440 C1447 0.950 . S
C1441 C1439 1.387 . S
C1441 C1443 1.390 . S
C1441 H1445 0.950 . S
H1442 C1438 0.950 . S
C1443 C1441 1.390 . S
C1443 C1444 1.387 . S
C1443 H1446 0.950 . S
C1444 C1443 1.387 . S
C1444 C1447 1.387 . S
H1445 C1441 0.950 . S
H1446 C1443 0.950 . S
C1447 C1438 1.390 . S
C1447 H1440 0.950 . S
C1447 C1444 1.387 . S
C1448 C1449 1.387 . S
C1448 H1452 0.950 . S
C1448 C1457 1.390 . S
C1449 C1448 1.387 . S
C1449 C1451 1.387 . S
H1450 C1457 0.950 . S
C1451 C1449 1.387 . S
C1451 C1453 1.390 . S
C1451 H1455 0.950 . S
H1452 C1448 0.950 . S
C1453 C1451 1.390 . S
C1453 C1454 1.387 . S
C1453 H1456 0.950 . S
C1454 C1453 1.387 . S
C1454 C1457 1.387 . S
H1455 C1451 0.950 . S
H1456 C1453 0.950 . S
C1457 C1448 1.390 . S
C1457 H1450 0.950 . S
C1457 C1454 1.387 . S
C1458 C1459 1.387 . S
C1458 H1462 0.950 . S
C1458 C1467 1.390 . S
C1459 C1458 1.387 . S
C1459 C1461 1.387 . S
H1460 C1467 0.950 . S
C1461 C1459 1.387 . S
C1461 C1463 1.390 . S
C1461 H1465 0.950 . S
H1462 C1458 0.950 . S
C1463 C1461 1.390 . S
C1463 C1464 1.387 . S
C1463 H1466 0.950 . S
C1464 C1463 1.387 . S
C1464 C1467 1.387 . S
H1465 C1461 0.950 . S
H1466 C1463 0.950 . S
C1467 C1458 1.390 . S
C1467 H1460 0.950 . S
C1467 C1464 1.387 . S
C1468 C1469 1.387 . S
C1468 H1472 0.950 . S
C1468 C1477 1.390 . S
C1469 C1468 1.387 . S
C1469 C1471 1.387 . S
H1470 C1477 0.950 . S
C1471 C1469 1.387 . S
C1471 C1473 1.390 . S
C1471 H1475 0.950 . S
H1472 C1468 0.950 . S
C1473 C1471 1.390 . S
C1473 C1474 1.387 . S
C1473 H1476 0.950 . S
C1474 C1473 1.387 . S
C1474 C1477 1.387 . S
H1475 C1471 0.950 . S
H1476 C1473 0.950 . S
C1477 C1468 1.390 . S
C1477 H1470 0.950 . S
C1477 C1474 1.387 . S
C1478 C1479 1.387 . S
C1478 H1482 0.950 . S
C1478 C1487 1.390 . S
C1479 C1478 1.387 . S
C1479 C1481 1.387 . S
H1480 C1487 0.950 . S
C1481 C1479 1.387 . S
C1481 C1483 1.390 . S
C1481 H1485 0.950 . S
H1482 C1478 0.950 . S
C1483 C1481 1.390 . S
C1483 C1484 1.387 . S
C1483 H1486 0.950 . S
C1484 C1483 1.387 . S
C1484 C1487 1.387 . S
H1485 C1481 0.950 . S
H1486 C1483 0.950 . S
C1487 C1478 1.390 . S
C1487 H1480 0.950 . S
C1487 C1484 1.387 . S
C1488 C1489 1.387 . S
C1488 H1492 0.950 . S
C1488 C1497 1.390 . S
C1489 C1488 1.387 . S
C1489 C1491 1.387 . S
H1490 C1497 0.950 . S
C1491 C1489 1.387 . S
C1491 C1493 1.390 . S
C1491 H1495 0.950 . S
H1492 C1488 0.950 . S
C1493 C1491 1.390 . S
C1493 C1494 1.387 . S
C1493 H1496 0.950 . S
C1494 C1493 1.387 . S
C1494 C1497 1.387 . S
H1495 C1491 0.950 . S
H1496 C1493 0.950 . S
C1497 C1488 1.390 . S
C1497 H1490 0.950 . S
C1497 C1494 1.387 . S
C1498 C1499 1.387 . S
C1498 H1502 0.950 . S
C1498 C1507 1.390 . S
C1499 C1498 1.387 . S
C1499 C1501 1.387 . S
H1500 C1507 0.950 . S
C1501 C1499 1.387 . S
C1501 C1503 1.390 . S
C1501 H1505 0.950 . S
H1502 C1498 0.950 . S
C1503 C1501 1.390 . S
C1503 C1504 1.387 . S
C1503 H1506 0.950 . S
C1504 C1503 1.387 . S
C1504 C1507 1.387 . S
H1505 C1501 0.950 . S
H1506 C1503 0.950 . S
C1507 C1498 1.390 . S
C1507 H1500 0.950 . S
C1507 C1504 1.387 . S
C1508 C1509 1.387 . S
C1508 H1512 0.950 . S
C1508 C1517 1.390 . S
C1509 C1508 1.387 . S
C1509 C1511 1.387 . S
H1510 C1517 0.950 . S
C1511 C1509 1.387 . S
C1511 C1513 1.390 . S
C1511 H1515 0.950 . S
H1512 C1508 0.950 . S
C1513 C1511 1.390 . S
C1513 C1514 1.387 . S
C1513 H1516 0.950 . S
C1514 C1513 1.387 . S
C1514 C1517 1.387 . S
H1515 C1511 0.950 . S
H1516 C1513 0.950 . S
C1517 C1508 1.390 . S
C1517 H1510 0.950 . S
C1517 C1514 1.387 . S
C1518 C1519 1.387 . S
C1518 H1522 0.950 . S
C1518 C1527 1.390 . S
C1519 C1518 1.387 . S
C1519 C1521 1.387 . S
H1520 C1527 0.950 . S
C1521 C1519 1.387 . S
C1521 C1523 1.390 . S
C1521 H1525 0.950 . S
H1522 C1518 0.950 . S
C1523 C1521 1.390 . S
C1523 C1524 1.387 . S
C1523 H1526 0.950 . S
C1524 C1523 1.387 . S
C1524 C1527 1.387 . S
H1525 C1521 0.950 . S
H1526 C1523 0.950 . S
C1527 C1518 1.390 . S
C1527 H1520 0.950 . S
C1527 C1524 1.387 . S
C1528 C1529 1.387 . S
C1528 H1532 0.950 . S
C1528 C1537 1.390 . S
C1529 C1528 1.387 . S
C1529 C1531 1.387 . S
H1530 C1537 0.950 . S
C1531 C1529 1.387 . S
C1531 C1533 1.390 . S
C1531 H1535 0.950 . S
H1532 C1528 0.950 . S
C1533 C1531 1.390 . S
C1533 C1534 1.387 . S
C1533 H1536 0.950 . S
C1534 C1533 1.387 . S
C1534 C1537 1.387 . S
H1535 C1531 0.950 . S
H1536 C1533 0.950 . S
C1537 C1528 1.390 . S
C1537 H1530 0.950 . S
C1537 C1534 1.387 . S
C1538 C1539 1.387 . S
C1538 H1542 0.950 . S
C1538 C1547 1.390 . S
C1539 C1538 1.387 . S
C1539 C1541 1.387 . S
H1540 C1547 0.950 . S
C1541 C1539 1.387 . S
C1541 C1543 1.390 . S
C1541 H1545 0.950 . S
H1542 C1538 0.950 . S
C1543 C1541 1.390 . S
C1543 C1544 1.387 . S
C1543 H1546 0.950 . S
C1544 C1543 1.387 . S
C1544 C1547 1.387 . S
H1545 C1541 0.950 . S
H1546 C1543 0.950 . S
C1547 C1538 1.390 . S
C1547 H1540 0.950 . S
C1547 C1544 1.387 . S
C1548 C1549 1.387 1_556 S
C1548 H1552 0.950 . S
C1548 C1557 1.390 . S
C1549 C1548 1.387 1_554 S
C1549 C1551 1.387 . S
H1550 C1557 0.950 . S
C1551 C1549 1.387 . S
C1551 C1553 1.390 . S
C1551 H1555 0.950 . S
H1552 C1548 0.950 . S
C1553 C1551 1.390 . S
C1553 C1554 1.387 . S
C1553 H1556 0.950 . S
C1554 C1553 1.387 . S
C1554 C1557 1.387 1_554 S
H1555 C1551 0.950 . S
H1556 C1553 0.950 . S
C1557 C1548 1.390 . S
C1557 H1550 0.950 . S
C1557 C1554 1.387 1_556 S
C1558 C1559 1.387 1_556 S
C1558 H1562 0.950 . S
C1558 C1567 1.390 . S
C1559 C1558 1.387 1_554 S
C1559 C1561 1.387 . S
H1560 C1567 0.950 . S
C1561 C1559 1.387 . S
C1561 C1563 1.390 . S
C1561 H1565 0.950 . S
H1562 C1558 0.950 . S
C1563 C1561 1.390 . S
C1563 C1564 1.387 . S
C1563 H1566 0.950 . S
C1564 C1563 1.387 . S
C1564 C1567 1.387 1_554 S
H1565 C1561 0.950 . S
H1566 C1563 0.950 . S
C1567 C1558 1.390 . S
C1567 H1560 0.950 . S
C1567 C1564 1.387 1_556 S
C1568 C1569 1.387 1_556 S
C1568 H1572 0.950 . S
C1568 C1577 1.390 . S
C1569 C1568 1.387 1_554 S
C1569 C1571 1.387 . S
H1570 C1577 0.950 . S
C1571 C1569 1.387 . S
C1571 C1573 1.390 . S
C1571 H1575 0.950 . S
H1572 C1568 0.950 . S
C1573 C1571 1.390 . S
C1573 C1574 1.387 . S
C1573 H1576 0.950 . S
C1574 C1573 1.387 . S
C1574 C1577 1.387 1_554 S
H1575 C1571 0.950 . S
H1576 C1573 0.950 . S
C1577 C1568 1.390 . S
C1577 H1570 0.950 . S
C1577 C1574 1.387 1_556 S
C1578 C1579 1.387 . S
C1578 H1582 0.950 . S
C1578 C1587 1.390 . S
C1579 C1578 1.387 . S
C1579 C1581 1.387 . S
H1580 C1587 0.950 . S
C1581 C1579 1.387 . S
C1581 C1583 1.390 . S
C1581 H1585 0.950 . S
H1582 C1578 0.950 . S
C1583 C1581 1.390 . S
C1583 C1584 1.387 . S
C1583 H1586 0.950 . S
C1584 C1583 1.387 . S
C1584 C1587 1.387 . S
H1585 C1581 0.950 . S
H1586 C1583 0.950 . S
C1587 C1578 1.390 . S
C1587 H1580 0.950 . S
C1587 C1584 1.387 . S
C1588 C1589 1.387 . S
C1588 H1592 0.950 . S
C1588 C1597 1.390 . S
C1589 C1588 1.387 . S
C1589 C1591 1.387 . S
H1590 C1597 0.950 . S
C1591 C1589 1.387 . S
C1591 C1593 1.390 . S
C1591 H1595 0.950 . S
H1592 C1588 0.950 . S
C1593 C1591 1.390 . S
C1593 C1594 1.387 . S
C1593 H1596 0.950 . S
C1594 C1593 1.387 . S
C1594 C1597 1.387 . S
H1595 C1591 0.950 . S
H1596 C1593 0.950 . S
C1597 C1588 1.390 . S
C1597 H1590 0.950 . S
C1597 C1594 1.387 . S
C1598 C1599 1.387 . S
C1598 H1602 0.950 . S
C1598 C1607 1.390 . S
C1599 C1598 1.387 . S
C1599 C1601 1.387 . S
H1600 C1607 0.950 . S
C1601 C1599 1.387 . S
C1601 C1603 1.390 . S
C1601 H1605 0.950 . S
H1602 C1598 0.950 . S
C1603 C1601 1.390 . S
C1603 C1604 1.387 . S
C1603 H1606 0.950 . S
C1604 C1603 1.387 . S
C1604 C1607 1.387 . S
H1605 C1601 0.950 . S
H1606 C1603 0.950 . S
C1607 C1598 1.390 . S
C1607 H1600 0.950 . S
C1607 C1604 1.387 . S
C1608 C1609 1.387 . S
C1608 H1612 0.950 . S
C1608 C1617 1.390 . S
C1609 C1608 1.387 . S
C1609 C1611 1.387 1_554 S
H1610 C1617 0.950 . S
C1611 C1609 1.387 1_556 S
C1611 C1613 1.390 . S
C1611 H1615 0.950 . S
H1612 C1608 0.950 . S
C1613 C1611 1.390 . S
C1613 C1614 1.387 1_556 S
C1613 H1616 0.950 . S
C1614 C1613 1.387 1_554 S
C1614 C1617 1.387 . S
H1615 C1611 0.950 . S
H1616 C1613 0.950 . S
C1617 C1608 1.390 . S
C1617 H1610 0.950 . S
C1617 C1614 1.387 . S
C1618 C1619 1.387 1_556 S
C1618 H1622 0.950 . S
C1618 C1627 1.390 . S
C1619 C1618 1.387 1_554 S
C1619 C1621 1.387 . S
H1620 C1627 0.950 . S
C1621 C1619 1.387 . S
C1621 C1623 1.390 . S
C1621 H1625 0.950 . S
H1622 C1618 0.950 . S
C1623 C1621 1.390 . S
C1623 C1624 1.387 . S
C1623 H1626 0.950 . S
C1624 C1623 1.387 . S
C1624 C1627 1.387 1_554 S
H1625 C1621 0.950 . S
H1626 C1623 0.950 . S
C1627 C1618 1.390 . S
C1627 H1620 0.950 . S
C1627 C1624 1.387 1_556 S
C1628 C1629 1.387 1_556 S
C1628 H1632 0.950 . S
C1628 C1637 1.390 . S
C1629 C1628 1.387 1_554 S
C1629 C1631 1.387 . S
H1630 C1637 0.950 . S
C1631 C1629 1.387 . S
C1631 C1633 1.390 . S
C1631 H1635 0.950 . S
H1632 C1628 0.950 . S
C1633 C1631 1.390 . S
C1633 C1634 1.387 . S
C1633 H1636 0.950 . S
C1634 C1633 1.387 . S
C1634 C1637 1.387 1_554 S
H1635 C1631 0.950 . S
H1636 C1633 0.950 . S
C1637 C1628 1.390 . S
C1637 H1630 0.950 . S
C1637 C1634 1.387 1_556 S
C1638 C1639 1.387 . S
C1638 H1642 0.950 . S
C1638 C1647 1.390 . S
C1639 C1638 1.387 . S
C1639 C1641 1.387 . S
H1640 C1647 0.950 . S
C1641 C1639 1.387 . S
C1641 C1643 1.390 . S
C1641 H1645 0.950 . S
H1642 C1638 0.950 . S
C1643 C1641 1.390 . S
C1643 C1644 1.387 . S
C1643 H1646 0.950 . S
C1644 C1643 1.387 . S
C1644 C1647 1.387 . S
H1645 C1641 0.950 . S
H1646 C1643 0.950 . S
C1647 C1638 1.390 . S
C1647 H1640 0.950 . S
C1647 C1644 1.387 . S
C1648 C1649 1.387 . S
C1648 H1652 0.950 . S
C1648 C1657 1.390 . S
C1649 C1648 1.387 . S
C1649 C1651 1.387 . S
H1650 C1657 0.950 . S
C1651 C1649 1.387 . S
C1651 C1653 1.390 . S
C1651 H1655 0.950 . S
H1652 C1648 0.950 . S
C1653 C1651 1.390 . S
C1653 C1654 1.387 . S
C1653 H1656 0.950 . S
C1654 C1653 1.387 . S
C1654 C1657 1.387 . S
H1655 C1651 0.950 . S
H1656 C1653 0.950 . S
C1657 C1648 1.390 . S
C1657 H1650 0.950 . S
C1657 C1654 1.387 . S
C1658 C1659 1.387 . S
C1658 H1662 0.950 . S
C1658 C1667 1.390 . S
C1659 C1658 1.387 . S
C1659 C1661 1.387 . S
H1660 C1667 0.950 . S
C1661 C1659 1.387 . S
C1661 C1663 1.390 . S
C1661 H1665 0.950 . S
H1662 C1658 0.950 . S
C1663 C1661 1.390 . S
C1663 C1664 1.387 . S
C1663 H1666 0.950 . S
C1664 C1663 1.387 . S
C1664 C1667 1.387 . S
H1665 C1661 0.950 . S
H1666 C1663 0.950 . S
C1667 C1658 1.390 . S
C1667 H1660 0.950 . S
C1667 C1664 1.387 . S
C1668 C1669 1.387 . S
C1668 H1672 0.950 . S
C1668 C1677 1.390 . S
C1669 C1668 1.387 . S
C1669 C1671 1.387 . S
H1670 C1677 0.950 . S
C1671 C1669 1.387 . S
C1671 C1673 1.390 . S
C1671 H1675 0.950 . S
H1672 C1668 0.950 . S
C1673 C1671 1.390 . S
C1673 C1674 1.387 . S
C1673 H1676 0.950 . S
C1674 C1673 1.387 . S
C1674 C1677 1.387 . S
H1675 C1671 0.950 . S
H1676 C1673 0.950 . S
C1677 C1668 1.390 . S
C1677 H1670 0.950 . S
C1677 C1674 1.387 . S
C1678 C1679 1.387 . S
C1678 H1682 0.950 . S
C1678 C1687 1.390 . S
C1679 C1678 1.387 . S
C1679 C1681 1.387 . S
H1680 C1687 0.950 . S
C1681 C1679 1.387 . S
C1681 C1683 1.390 . S
C1681 H1685 0.950 . S
H1682 C1678 0.950 . S
C1683 C1681 1.390 . S
C1683 C1684 1.387 . S
C1683 H1686 0.950 . S
C1684 C1683 1.387 . S
C1684 C1687 1.387 . S
H1685 C1681 0.950 . S
H1686 C1683 0.950 . S
C1687 C1678 1.390 . S
C1687 H1680 0.950 . S
C1687 C1684 1.387 . S
C1688 C1689 1.387 . S
C1688 H1692 0.950 . S
C1688 C1697 1.390 . S
C1689 C1688 1.387 . S
C1689 C1691 1.387 . S
H1690 C1697 0.950 . S
C1691 C1689 1.387 . S
C1691 C1693 1.390 . S
C1691 H1695 0.950 . S
H1692 C1688 0.950 . S
C1693 C1691 1.390 . S
C1693 C1694 1.387 . S
C1693 H1696 0.950 . S
C1694 C1693 1.387 . S
C1694 C1697 1.387 . S
H1695 C1691 0.950 . S
H1696 C1693 0.950 . S
C1697 C1688 1.390 . S
C1697 H1690 0.950 . S
C1697 C1694 1.387 . S
C1698 C1699 1.387 . S
C1698 H1702 0.950 . S
C1698 C1707 1.390 . S
C1699 C1698 1.387 . S
C1699 C1701 1.387 . S
H1700 C1707 0.950 . S
C1701 C1699 1.387 . S
C1701 C1703 1.390 . S
C1701 H1705 0.950 . S
H1702 C1698 0.950 . S
C1703 C1701 1.390 . S
C1703 C1704 1.387 . S
C1703 H1706 0.950 . S
C1704 C1703 1.387 . S
C1704 C1707 1.387 . S
H1705 C1701 0.950 . S
H1706 C1703 0.950 . S
C1707 C1698 1.390 . S
C1707 H1700 0.950 . S
C1707 C1704 1.387 . S
C1708 C1709 1.387 . S
C1708 H1712 0.950 . S
C1708 C1717 1.390 . S
C1709 C1708 1.387 . S
C1709 C1711 1.387 . S
H1710 C1717 0.950 . S
C1711 C1709 1.387 . S
C1711 C1713 1.390 . S
C1711 H1715 0.950 . S
H1712 C1708 0.950 . S
C1713 C1711 1.390 . S
C1713 C1714 1.387 . S
C1713 H1716 0.950 . S
C1714 C1713 1.387 . S
C1714 C1717 1.387 . S
H1715 C1711 0.950 . S
H1716 C1713 0.950 . S
C1717 C1708 1.390 . S
C1717 H1710 0.950 . S
C1717 C1714 1.387 . S
C1718 C1719 1.387 . S
C1718 H1722 0.950 . S
C1718 C1727 1.390 . S
C1719 C1718 1.387 . S
C1719 C1721 1.387 . S
H1720 C1727 0.950 . S
C1721 C1719 1.387 . S
C1721 C1723 1.390 . S
C1721 H1725 0.950 . S
H1722 C1718 0.950 . S
C1723 C1721 1.390 . S
C1723 C1724 1.387 . S
C1723 H1726 0.950 . S
C1724 C1723 1.387 . S
C1724 C1727 1.387 . S
H1725 C1721 0.950 . S
H1726 C1723 0.950 . S
C1727 C1718 1.390 . S
C1727 H1720 0.950 . S
C1727 C1724 1.387 . S
C1728 C1729 1.387 . S
C1728 H1732 0.950 . S
C1728 C1737 1.390 . S
C1729 C1728 1.387 . S
C1729 C1731 1.387 . S
H1730 C1737 0.950 . S
C1731 C1729 1.387 . S
C1731 C1733 1.390 . S
C1731 H1735 0.950 . S
H1732 C1728 0.950 . S
C1733 C1731 1.390 . S
C1733 C1734 1.387 . S
C1733 H1736 0.950 . S
C1734 C1733 1.387 . S
C1734 C1737 1.387 . S
H1735 C1731 0.950 . S
H1736 C1733 0.950 . S
C1737 C1728 1.390 . S
C1737 H1730 0.950 . S
C1737 C1734 1.387 . S
C1738 C1739 1.387 . S
C1738 H1742 0.950 . S
C1738 C1747 1.390 . S
C1739 C1738 1.387 . S
C1739 C1741 1.387 . S
H1740 C1747 0.950 . S
C1741 C1739 1.387 . S
C1741 C1743 1.390 . S
C1741 H1745 0.950 . S
H1742 C1738 0.950 . S
C1743 C1741 1.390 . S
C1743 C1744 1.387 . S
C1743 H1746 0.950 . S
C1744 C1743 1.387 . S
C1744 C1747 1.387 . S
H1745 C1741 0.950 . S
H1746 C1743 0.950 . S
C1747 C1738 1.390 . S
C1747 H1740 0.950 . S
C1747 C1744 1.387 . S
C1748 C1749 1.387 . S
C1748 H1752 0.950 . S
C1748 C1757 1.390 . S
C1749 C1748 1.387 . S
C1749 C1751 1.387 . S
H1750 C1757 0.950 . S
C1751 C1749 1.387 . S
C1751 C1753 1.390 . S
C1751 H1755 0.950 . S
H1752 C1748 0.950 . S
C1753 C1751 1.390 . S
C1753 C1754 1.387 . S
C1753 H1756 0.950 . S
C1754 C1753 1.387 . S
C1754 C1757 1.387 . S
H1755 C1751 0.950 . S
H1756 C1753 0.950 . S
C1757 C1748 1.390 . S
C1757 H1750 0.950 . S
C1757 C1754 1.387 . S
C1758 C1759 1.387 . S
C1758 H1762 0.950 . S
C1758 C1767 1.390 . S
C1759 C1758 1.387 . S
C1759 C1761 1.387 . S
H1760 C1767 0.950 . S
C1761 C1759 1.387 . S
C1761 C1763 1.390 . S
C1761 H1765 0.950 . S
H1762 C1758 0.950 . S
C1763 C1761 1.390 . S
C1763 C1764 1.387 . S
C1763 H1766 0.950 . S
C1764 C1763 1.387 . S
C1764 C1767 1.387 . S
H1765 C1761 0.950 . S
H1766 C1763 0.950 . S
C1767 C1758 1.390 . S
C1767 H1760 0.950 . S
C1767 C1764 1.387 . S
C1768 C1769 1.387 . S
C1768 H1772 0.950 . S
C1768 C1777 1.390 . S
C1769 C1768 1.387 . S
C1769 C1771 1.387 . S
H1770 C1777 0.950 . S
C1771 C1769 1.387 . S
C1771 C1773 1.390 . S
C1771 H1775 0.950 . S
H1772 C1768 0.950 . S
C1773 C1771 1.390 . S
C1773 C1774 1.387 . S
C1773 H1776 0.950 . S
C1774 C1773 1.387 . S
C1774 C1777 1.387 . S
H1775 C1771 0.950 . S
H1776 C1773 0.950 . S
C1777 C1768 1.390 . S
C1777 H1770 0.950 . S
C1777 C1774 1.387 . S
C1778 C1779 1.387 . S
C1778 H1782 0.950 . S
C1778 C1787 1.390 . S
C1779 C1778 1.387 . S
C1779 C1781 1.387 . S
H1780 C1787 0.950 . S
C1781 C1779 1.387 . S
C1781 C1783 1.390 . S
C1781 H1785 0.950 . S
H1782 C1778 0.950 . S
C1783 C1781 1.390 . S
C1783 C1784 1.387 . S
C1783 H1786 0.950 . S
C1784 C1783 1.387 . S
C1784 C1787 1.387 . S
H1785 C1781 0.950 . S
H1786 C1783 0.950 . S
C1787 C1778 1.390 . S
C1787 H1780 0.950 . S
C1787 C1784 1.387 . S
C1788 C1789 1.387 . S
C1788 H1792 0.950 . S
C1788 C1797 1.390 . S
C1789 C1788 1.387 . S
C1789 C1791 1.387 . S
H1790 C1797 0.950 . S
C1791 C1789 1.387 . S
C1791 C1793 1.390 . S
C1791 H1795 0.950 . S
H1792 C1788 0.950 . S
C1793 C1791 1.390 . S
C1793 C1794 1.387 . S
C1793 H1796 0.950 . S
C1794 C1793 1.387 . S
C1794 C1797 1.387 . S
H1795 C1791 0.950 . S
H1796 C1793 0.950 . S
C1797 C1788 1.390 . S
C1797 H1790 0.950 . S
C1797 C1794 1.387 . S
C1798 C1799 1.387 . S
C1798 H1802 0.950 . S
C1798 C1807 1.390 . S
C1799 C1798 1.387 . S
C1799 C1801 1.387 . S
H1800 C1807 0.950 . S
C1801 C1799 1.387 . S
C1801 C1803 1.390 . S
C1801 H1805 0.950 . S
H1802 C1798 0.950 . S
C1803 C1801 1.390 . S
C1803 C1804 1.387 . S
C1803 H1806 0.950 . S
C1804 C1803 1.387 . S
C1804 C1807 1.387 . S
H1805 C1801 0.950 . S
H1806 C1803 0.950 . S
C1807 C1798 1.390 . S
C1807 H1800 0.950 . S
C1807 C1804 1.387 . S
C1808 C1809 1.387 . S
C1808 H1812 0.950 . S
C1808 C1817 1.390 . S
C1809 C1808 1.387 . S
C1809 C1811 1.387 . S
H1810 C1817 0.950 . S
C1811 C1809 1.387 . S
C1811 C1813 1.390 . S
C1811 H1815 0.950 . S
H1812 C1808 0.950 . S
C1813 C1811 1.390 . S
C1813 C1814 1.387 . S
C1813 H1816 0.950 . S
C1814 C1813 1.387 . S
C1814 C1817 1.387 . S
H1815 C1811 0.950 . S
H1816 C1813 0.950 . S
C1817 C1808 1.390 . S
C1817 H1810 0.950 . S
C1817 C1814 1.387 . S
C1818 C1819 1.387 . S
C1818 H1822 0.950 . S
C1818 C1827 1.390 . S
C1819 C1818 1.387 . S
C1819 C1821 1.387 . S
H1820 C1827 0.950 . S
C1821 C1819 1.387 . S
C1821 C1823 1.390 . S
C1821 H1825 0.950 . S
H1822 C1818 0.950 . S
C1823 C1821 1.390 . S
C1823 C1824 1.387 . S
C1823 H1826 0.950 . S
C1824 C1823 1.387 . S
C1824 C1827 1.387 . S
H1825 C1821 0.950 . S
H1826 C1823 0.950 . S
C1827 C1818 1.390 . S
C1827 H1820 0.950 . S
C1827 C1824 1.387 . S
C1828 C1829 1.387 . S
C1828 H1832 0.950 . S
C1828 C1837 1.390 . S
C1829 C1828 1.387 . S
C1829 C1831 1.387 . S
H1830 C1837 0.950 . S
C1831 C1829 1.387 . S
C1831 C1833 1.390 . S
C1831 H1835 0.950 . S
H1832 C1828 0.950 . S
C1833 C1831 1.390 . S
C1833 C1834 1.387 . S
C1833 H1836 0.950 . S
C1834 C1833 1.387 . S
C1834 C1837 1.387 . S
H1835 C1831 0.950 . S
H1836 C1833 0.950 . S
C1837 C1828 1.390 . S
C1837 H1830 0.950 . S
C1837 C1834 1.387 . S
C1838 C1839 1.387 . S
C1838 H1842 0.950 . S
C1838 C1847 1.390 . S
C1839 C1838 1.387 . S
C1839 C1841 1.387 . S
H1840 C1847 0.950 . S
C1841 C1839 1.387 . S
C1841 C1843 1.390 . S
C1841 H1845 0.950 . S
H1842 C1838 0.950 . S
C1843 C1841 1.390 . S
C1843 C1844 1.387 . S
C1843 H1846 0.950 . S
C1844 C1843 1.387 . S
C1844 C1847 1.387 . S
H1845 C1841 0.950 . S
H1846 C1843 0.950 . S
C1847 C1838 1.390 . S
C1847 H1840 0.950 . S
C1847 C1844 1.387 . S
C1848 C1849 1.387 . S
C1848 H1852 0.950 . S
C1848 C1857 1.390 . S
C1849 C1848 1.387 . S
C1849 C1851 1.387 . S
H1850 C1857 0.950 . S
C1851 C1849 1.387 . S
C1851 C1853 1.390 . S
C1851 H1855 0.950 . S
H1852 C1848 0.950 . S
C1853 C1851 1.390 . S
C1853 C1854 1.387 . S
C1853 H1856 0.950 . S
C1854 C1853 1.387 . S
C1854 C1857 1.387 . S
H1855 C1851 0.950 . S
H1856 C1853 0.950 . S
C1857 C1848 1.390 . S
C1857 H1850 0.950 . S
C1857 C1854 1.387 . S
C1858 C1859 1.387 . S
C1858 H1862 0.950 . S
C1858 C1867 1.390 . S
C1859 C1858 1.387 . S
C1859 C1861 1.387 . S
H1860 C1867 0.950 . S
C1861 C1859 1.387 . S
C1861 C1863 1.390 . S
C1861 H1865 0.950 . S
H1862 C1858 0.950 . S
C1863 C1861 1.390 . S
C1863 C1864 1.387 . S
C1863 H1866 0.950 . S
C1864 C1863 1.387 . S
C1864 C1867 1.387 . S
H1865 C1861 0.950 . S
H1866 C1863 0.950 . S
C1867 C1858 1.390 . S
C1867 H1860 0.950 . S
C1867 C1864 1.387 . S
C1868 C1869 1.387 . S
C1868 H1872 0.950 . S
C1868 C1877 1.390 . S
C1869 C1868 1.387 . S
C1869 C1871 1.387 . S
H1870 C1877 0.950 . S
C1871 C1869 1.387 . S
C1871 C1873 1.390 . S
C1871 H1875 0.950 . S
H1872 C1868 0.950 . S
C1873 C1871 1.390 . S
C1873 C1874 1.387 . S
C1873 H1876 0.950 . S
C1874 C1873 1.387 . S
C1874 C1877 1.387 . S
H1875 C1871 0.950 . S
H1876 C1873 0.950 . S
C1877 C1868 1.390 . S
C1877 H1870 0.950 . S
C1877 C1874 1.387 . S
C1878 C1879 1.387 . S
C1878 H1882 0.950 . S
C1878 C1887 1.390 . S
C1879 C1878 1.387 . S
C1879 C1881 1.387 . S
H1880 C1887 0.950 . S
C1881 C1879 1.387 . S
C1881 C1883 1.390 . S
C1881 H1885 0.950 . S
H1882 C1878 0.950 . S
C1883 C1881 1.390 . S
C1883 C1884 1.387 . S
C1883 H1886 0.950 . S
C1884 C1883 1.387 . S
C1884 C1887 1.387 . S
H1885 C1881 0.950 . S
H1886 C1883 0.950 . S
C1887 C1878 1.390 . S
C1887 H1880 0.950 . S
C1887 C1884 1.387 . S
C1888 C1889 1.387 . S
C1888 H1892 0.950 . S
C1888 C1897 1.390 . S
C1889 C1888 1.387 . S
C1889 C1891 1.387 . S
H1890 C1897 0.950 . S
C1891 C1889 1.387 . S
C1891 C1893 1.390 . S
C1891 H1895 0.950 . S
H1892 C1888 0.950 . S
C1893 C1891 1.390 . S
C1893 C1894 1.387 . S
C1893 H1896 0.950 . S
C1894 C1893 1.387 . S
C1894 C1897 1.387 . S
H1895 C1891 0.950 . S
H1896 C1893 0.950 . S
C1897 C1888 1.390 . S
C1897 H1890 0.950 . S
C1897 C1894 1.387 . S
C1898 C1899 1.387 . S
C1898 H1902 0.950 . S
C1898 C1907 1.390 . S
C1899 C1898 1.387 . S
C1899 C1901 1.387 . S
H1900 C1907 0.950 . S
C1901 C1899 1.387 . S
C1901 C1903 1.390 . S
C1901 H1905 0.950 . S
H1902 C1898 0.950 . S
C1903 C1901 1.390 . S
C1903 C1904 1.387 . S
C1903 H1906 0.950 . S
C1904 C1903 1.387 . S
C1904 C1907 1.387 . S
H1905 C1901 0.950 . S
H1906 C1903 0.950 . S
C1907 C1898 1.390 . S
C1907 H1900 0.950 . S
C1907 C1904 1.387 . S
C1908 C1909 1.387 . S
C1908 H1912 0.950 . S
C1908 C1917 1.390 . S
C1909 C1908 1.387 . S
C1909 C1911 1.387 . S
H1910 C1917 0.950 . S
C1911 C1909 1.387 . S
C1911 C1913 1.390 . S
C1911 H1915 0.950 . S
H1912 C1908 0.950 . S
C1913 C1911 1.390 . S
C1913 C1914 1.387 . S
C1913 H1916 0.950 . S
C1914 C1913 1.387 . S
C1914 C1917 1.387 . S
H1915 C1911 0.950 . S
H1916 C1913 0.950 . S
C1917 C1908 1.390 . S
C1917 H1910 0.950 . S
C1917 C1914 1.387 . S
C1918 C1919 1.387 . S
C1918 H1922 0.950 . S
C1918 C1927 1.390 1_545 S
C1919 C1918 1.387 . S
C1919 C1921 1.387 . S
H1920 C1927 0.950 . S
C1921 C1919 1.387 . S
C1921 C1923 1.390 1_545 S
C1921 H1925 0.950 . S
H1922 C1918 0.950 . S
C1923 C1921 1.390 1_565 S
C1923 C1924 1.387 . S
C1923 H1926 0.950 . S
C1924 C1923 1.387 . S
C1924 C1927 1.387 . S
H1925 C1921 0.950 . S
H1926 C1923 0.950 . S
C1927 C1918 1.390 1_565 S
C1927 H1920 0.950 . S
C1927 C1924 1.387 . S
C1928 C1929 1.387 1_655 S
C1928 H1932 0.950 . S
C1928 C1937 1.390 . S
C1929 C1928 1.387 1_455 S
C1929 C1931 1.387 . S
H1930 C1937 0.950 . S
C1931 C1929 1.387 . S
C1931 C1933 1.390 . S
C1931 H1935 0.950 . S
H1932 C1928 0.950 . S
C1933 C1931 1.390 . S
C1933 C1934 1.387 1_455 S
C1933 H1936 0.950 . S
C1934 C1933 1.387 1_655 S
C1934 C1937 1.387 . S
H1935 C1931 0.950 . S
H1936 C1933 0.950 . S
C1937 C1928 1.390 . S
C1937 H1930 0.950 . S
C1937 C1934 1.387 . S
C1938 C1939 1.387 . S
C1938 H1942 0.950 . S
C1938 C1947 1.390 . S
C1939 C1938 1.387 . S
C1939 C1941 1.387 . S
H1940 C1947 0.950 . S
C1941 C1939 1.387 . S
C1941 C1943 1.390 . S
C1941 H1945 0.950 . S
H1942 C1938 0.950 . S
C1943 C1941 1.390 . S
C1943 C1944 1.387 . S
C1943 H1946 0.950 . S
C1944 C1943 1.387 . S
C1944 C1947 1.387 . S
H1945 C1941 0.950 . S
H1946 C1943 0.950 . S
C1947 C1938 1.390 . S
C1947 H1940 0.950 . S
C1947 C1944 1.387 . S
C1948 C1949 1.387 . S
C1948 H1952 0.950 . S
C1948 C1957 1.390 1_545 S
C1949 C1948 1.387 . S
C1949 C1951 1.387 . S
H1950 C1957 0.950 . S
C1951 C1949 1.387 . S
C1951 C1953 1.390 1_545 S
C1951 H1955 0.950 . S
H1952 C1948 0.950 . S
C1953 C1951 1.390 1_565 S
C1953 C1954 1.387 . S
C1953 H1956 0.950 . S
C1954 C1953 1.387 . S
C1954 C1957 1.387 . S
H1955 C1951 0.950 . S
H1956 C1953 0.950 . S
C1957 C1948 1.390 1_565 S
C1957 H1950 0.950 . S
C1957 C1954 1.387 . S
C1958 C1959 1.387 . S
C1958 H1962 0.950 . S
C1958 C1967 1.390 . S
C1959 C1958 1.387 . S
C1959 C1961 1.387 1_455 S
H1960 C1967 0.950 . S
C1961 C1959 1.387 1_655 S
C1961 C1963 1.390 . S
C1961 H1965 0.950 . S
H1962 C1958 0.950 . S
C1963 C1961 1.390 . S
C1963 C1964 1.387 . S
C1963 H1966 0.950 . S
C1964 C1963 1.387 . S
C1964 C1967 1.387 1_655 S
H1965 C1961 0.950 . S
H1966 C1963 0.950 . S
C1967 C1958 1.390 . S
C1967 H1960 0.950 . S
C1967 C1964 1.387 1_455 S
C1968 C1969 1.387 . S
C1968 H1972 0.950 . S
C1968 C1977 1.390 . S
C1969 C1968 1.387 . S
C1969 C1971 1.387 . S
H1970 C1977 0.950 . S
C1971 C1969 1.387 . S
C1971 C1973 1.390 . S
C1971 H1975 0.950 . S
H1972 C1968 0.950 . S
C1973 C1971 1.390 . S
C1973 C1974 1.387 . S
C1973 H1976 0.950 . S
C1974 C1973 1.387 . S
C1974 C1977 1.387 . S
H1975 C1971 0.950 . S
H1976 C1973 0.950 . S
C1977 C1968 1.390 . S
C1977 H1970 0.950 . S
C1977 C1974 1.387 . S
C1978 C1979 1.387 . S
C1978 H1982 0.950 . S
C1978 C1987 1.390 . S
C1979 C1978 1.387 . S
C1979 C1981 1.387 . S
H1980 C1987 0.950 . S
C1981 C1979 1.387 . S
C1981 C1983 1.390 . S
C1981 H1985 0.950 . S
H1982 C1978 0.950 . S
C1983 C1981 1.390 . S
C1983 C1984 1.387 . S
C1983 H1986 0.950 . S
C1984 C1983 1.387 . S
C1984 C1987 1.387 . S
H1985 C1981 0.950 . S
H1986 C1983 0.950 . S
C1987 C1978 1.390 . S
C1987 H1980 0.950 . S
C1987 C1984 1.387 . S
C1988 C1989 1.387 . S
C1988 H1992 0.950 . S
C1988 C1997 1.390 . S
C1989 C1988 1.387 . S
C1989 C1991 1.387 . S
H1990 C1997 0.950 . S
C1991 C1989 1.387 . S
C1991 C1993 1.390 . S
C1991 H1995 0.950 . S
H1992 C1988 0.950 . S
C1993 C1991 1.390 . S
C1993 C1994 1.387 . S
C1993 H1996 0.950 . S
C1994 C1993 1.387 . S
C1994 C1997 1.387 . S
H1995 C1991 0.950 . S
H1996 C1993 0.950 . S
C1997 C1988 1.390 . S
C1997 H1990 0.950 . S
C1997 C1994 1.387 . S
C1998 C1999 1.387 . S
C1998 H2002 0.950 . S
C1998 C2007 1.390 . S
C1999 C1998 1.387 . S
C1999 C2001 1.387 . S
H2000 C2007 0.950 . S
C2001 C1999 1.387 . S
C2001 C2003 1.390 . S
C2001 H2005 0.950 . S
H2002 C1998 0.950 . S
C2003 C2001 1.390 . S
C2003 C2004 1.387 . S
C2003 H2006 0.950 . S
C2004 C2003 1.387 . S
C2004 C2007 1.387 . S
H2005 C2001 0.950 . S
H2006 C2003 0.950 . S
C2007 C1998 1.390 . S
C2007 H2000 0.950 . S
C2007 C2004 1.387 . S
C2008 C2009 1.387 . S
C2008 H2012 0.950 . S
C2008 C2017 1.390 . S
C2009 C2008 1.387 . S
C2009 C2011 1.387 . S
H2010 C2017 0.950 . S
C2011 C2009 1.387 . S
C2011 C2013 1.390 . S
C2011 H2015 0.950 . S
H2012 C2008 0.950 . S
C2013 C2011 1.390 . S
C2013 C2014 1.387 . S
C2013 H2016 0.950 . S
C2014 C2013 1.387 . S
C2014 C2017 1.387 . S
H2015 C2011 0.950 . S
H2016 C2013 0.950 . S
C2017 C2008 1.390 . S
C2017 H2010 0.950 . S
C2017 C2014 1.387 . S
C2018 C2019 1.387 . S
C2018 H2022 0.950 . S
C2018 C2027 1.390 . S
C2019 C2018 1.387 . S
C2019 C2021 1.387 . S
H2020 C2027 0.950 . S
C2021 C2019 1.387 . S
C2021 C2023 1.390 . S
C2021 H2025 0.950 . S
H2022 C2018 0.950 . S
C2023 C2021 1.390 . S
C2023 C2024 1.387 . S
C2023 H2026 0.950 . S
C2024 C2023 1.387 . S
C2024 C2027 1.387 . S
H2025 C2021 0.950 . S
H2026 C2023 0.950 . S
C2027 C2018 1.390 . S
C2027 H2020 0.950 . S
C2027 C2024 1.387 . S
C2028 C2029 1.387 . S
C2028 H2032 0.950 . S
C2028 C2037 1.390 . S
C2029 C2028 1.387 . S
C2029 C2031 1.387 . S
H2030 C2037 0.950 . S
C2031 C2029 1.387 . S
C2031 C2033 1.390 . S
C2031 H2035 0.950 . S
H2032 C2028 0.950 . S
C2033 C2031 1.390 . S
C2033 C2034 1.387 . S
C2033 H2036 0.950 . S
C2034 C2033 1.387 . S
C2034 C2037 1.387 . S
H2035 C2031 0.950 . S
H2036 C2033 0.950 . S
C2037 C2028 1.390 . S
C2037 H2030 0.950 . S
C2037 C2034 1.387 . S
C2038 C2039 1.387 . S
C2038 H2042 0.950 . S
C2038 C2047 1.390 . S
C2039 C2038 1.387 . S
C2039 C2041 1.387 . S
H2040 C2047 0.950 . S
C2041 C2039 1.387 . S
C2041 C2043 1.390 . S
C2041 H2045 0.950 . S
H2042 C2038 0.950 . S
C2043 C2041 1.390 . S
C2043 C2044 1.387 . S
C2043 H2046 0.950 . S
C2044 C2043 1.387 . S
C2044 C2047 1.387 . S
H2045 C2041 0.950 . S
H2046 C2043 0.950 . S
C2047 C2038 1.390 . S
C2047 H2040 0.950 . S
C2047 C2044 1.387 . S
C2048 C2049 1.387 . S
C2048 H2052 0.950 . S
C2048 C2057 1.390 . S
C2049 C2048 1.387 . S
C2049 C2051 1.387 . S
H2050 C2057 0.950 . S
C2051 C2049 1.387 . S
C2051 C2053 1.390 . S
C2051 H2055 0.950 . S
H2052 C2048 0.950 . S
C2053 C2051 1.390 . S
C2053 C2054 1.387 . S
C2053 H2056 0.950 . S
C2054 C2053 1.387 . S
C2054 C2057 1.387 . S
H2055 C2051 0.950 . S
H2056 C2053 0.950 . S
C2057 C2048 1.390 . S
C2057 H2050 0.950 . S
C2057 C2054 1.387 . S
C2058 C2059 1.387 . S
C2058 H2062 0.950 . S
C2058 C2067 1.390 . S
C2059 C2058 1.387 . S
C2059 C2061 1.387 . S
H2060 C2067 0.950 . S
C2061 C2059 1.387 . S
C2061 C2063 1.390 . S
C2061 H2065 0.950 . S
H2062 C2058 0.950 . S
C2063 C2061 1.390 . S
C2063 C2064 1.387 . S
C2063 H2066 0.950 . S
C2064 C2063 1.387 . S
C2064 C2067 1.387 . S
H2065 C2061 0.950 . S
H2066 C2063 0.950 . S
C2067 C2058 1.390 . S
C2067 H2060 0.950 . S
C2067 C2064 1.387 . S
C2068 C2069 1.387 . S
C2068 H2072 0.950 . S
C2068 C2077 1.390 . S
C2069 C2068 1.387 . S
C2069 C2071 1.387 . S
H2070 C2077 0.950 . S
C2071 C2069 1.387 . S
C2071 C2073 1.390 . S
C2071 H2075 0.950 . S
H2072 C2068 0.950 . S
C2073 C2071 1.390 . S
C2073 C2074 1.387 . S
C2073 H2076 0.950 . S
C2074 C2073 1.387 . S
C2074 C2077 1.387 . S
H2075 C2071 0.950 . S
H2076 C2073 0.950 . S
C2077 C2068 1.390 . S
C2077 H2070 0.950 . S
C2077 C2074 1.387 . S
C2078 C2079 1.387 . S
C2078 H2082 0.950 . S
C2078 C2087 1.390 . S
C2079 C2078 1.387 . S
C2079 C2081 1.387 . S
H2080 C2087 0.950 . S
C2081 C2079 1.387 . S
C2081 C2083 1.390 . S
C2081 H2085 0.950 . S
H2082 C2078 0.950 . S
C2083 C2081 1.390 . S
C2083 C2084 1.387 . S
C2083 H2086 0.950 . S
C2084 C2083 1.387 . S
C2084 C2087 1.387 . S
H2085 C2081 0.950 . S
H2086 C2083 0.950 . S
C2087 C2078 1.390 . S
C2087 H2080 0.950 . S
C2087 C2084 1.387 . S
C1189 C535 1.368 . S
C1194 C7 1.368 . S
C1199 C568 1.369 . S
C1204 C40 1.367 . S
C1209 C502 1.371 . S
C1214 C73 1.371 . S
C1219 C106 1.371 . S
C1224 C865 1.371 . S
C1229 C799 1.372 . S
C1234 C139 1.371 . S
C1239 C832 1.372 . S
C1244 C172 1.371 . S
C1249 C205 1.368 . S
C1254 C1129 1.369 . S
C1259 C1162 1.370 . S
C1264 C238 1.372 . S
C1269 C271 1.368 . S
C1274 C1096 1.368 . S
C1279 C667 1.371 . S
C1284 C304 1.371 . S
C1289 C337 1.368 . S
C1294 C601 1.369 . S
C1299 C634 1.367 . S
C1304 C370 1.368 . S
C1309 C403 1.370 . S
C1314 C931 1.372 . S
C1319 C964 1.369 . S
C1324 C436 1.371 . S
C1329 C898 1.368 . S
C1334 C469 1.368 . S
C1339 C1063 1.368 . S
C1344 C700 1.368 . S
C1349 C733 1.369 . S
C1354 C997 1.368 . S
C1359 C1030 1.371 . S
C1364 C766 1.368 . S
C1369 N112 1.712 . S
C1374 N13 1.711 . S
C1379 N145 1.711 . S
C1384 N46 1.711 . S
C1389 N79 1.711 . S
C1394 N178 1.711 . S
C1399 N310 1.712 . S
C1404 N211 1.712 . S
C1409 N244 1.712 . S
C1414 N343 1.712 . S
C1419 N376 1.711 . S
C1424 N277 1.711 . S
C1429 N409 1.712 . S
C1434 N508 1.712 . S
C1439 N442 1.711 . S
C1444 N541 1.711 . S
C1449 N574 1.711 . S
C1454 N475 1.712 . S
C1459 N706 1.712 1_554 S
C1464 N607 1.712 . S
C1469 N739 1.712 1_554 S
C1474 N640 1.712 . S
C1479 N772 1.711 1_554 S
C1484 N673 1.711 . S
C1489 N805 1.712 . S
C1494 N904 1.712 1_556 S
C1499 N937 1.711 1_556 S
C1504 N838 1.711 . S
C1509 N871 1.711 . S
C1514 N970 1.711 1_556 S
C1519 N1003 1.712 . S
C1524 N1102 1.712 . S
C1529 N1036 1.711 . S
C1534 N1135 1.711 . S
C1539 N1168 1.712 . S
C1544 N1069 1.712 . S
C1549 C21 1.504 . S
C1554 C249 1.496 . S
C1559 C282 1.497 . S
C1564 C54 1.504 . S
C1569 C216 1.497 . S
C1574 C87 1.504 . S
C1579 C120 1.504 . S
C1584 C381 1.497 . S
C1589 C315 1.494 . S
C1594 C153 1.502 . S
C1599 C348 1.495 . S
C1604 C186 1.502 . S
C1609 C219 1.502 . S
C1614 C51 1.495 . S
C1619 C84 1.497 . S
C1624 C252 1.504 . S
C1629 C18 1.497 . S
C1634 C285 1.504 . S
C1639 C183 1.497 . S
C1644 C318 1.504 . S
C1649 C117 1.495 . S
C1654 C351 1.502 . S
C1659 C384 1.504 . S
C1664 C150 1.497 . S
C1669 C417 1.502 . S
C1674 C645 1.494 . S
C1679 C450 1.504 . S
C1684 C678 1.497 . S
C1689 C483 1.503 . S
C1694 C612 1.495 . S
C1699 C777 1.497 . S
C1704 C516 1.504 . S
C1709 C549 1.502 . S
C1714 C711 1.495 . S
C1719 C582 1.504 . S
C1724 C744 1.497 . S
C1729 C615 1.504 . S
C1734 C447 1.496 . S
C1739 C480 1.495 . S
C1744 C648 1.502 . S
C1749 C681 1.504 . S
C1754 C414 1.497 . S
C1759 C714 1.504 . S
C1764 C579 1.497 . S
C1769 C747 1.502 . S
C1774 C513 1.494 . S
C1779 C780 1.503 . S
C1784 C546 1.495 . S
C1789 C813 1.502 . S
C1794 C1041 1.494 . S
C1799 C1074 1.495 . S
C1804 C846 1.502 . S
C1809 C879 1.504 . S
C1814 C1008 1.497 . S
C1819 C912 1.502 . S
C1824 C1173 1.495 . S
C1829 C945 1.502 . S
C1834 C1107 1.494 . S
C1839 C978 1.504 . S
C1844 C1140 1.497 . S
C1849 C843 1.497 . S
C1854 C1011 1.504 . S
C1859 C876 1.497 . S
C1864 C1044 1.504 . S
C1869 C810 1.495 . S
C1874 C1077 1.503 . S
C1879 C975 1.497 . S
C1884 C1110 1.504 . S
C1889 C1143 1.504 . S
C1894 C909 1.496 . S
C1899 C1176 1.503 . S
C1904 C942 1.495 . S
C1909 N101 1.071 . S
C1914 N2 1.070 . S
C1919 N35 1.070 . S
C1924 N134 1.070 . S
C1929 N167 1.070 . S
C1934 N68 1.071 . S
C1939 N299 1.075 . S
C1944 N200 1.076 . S
C1949 N332 1.070 . S
C1954 N233 1.070 . S
C1959 N266 1.073 . S
C1964 N365 1.074 . S
C1969 N497 1.075 . S
C1974 N398 1.076 . S
C1979 N431 1.070 . S
C1984 N530 1.070 . S
C1989 N563 1.070 . S
C1994 N464 1.071 . S
C1999 N695 1.071 . S
C2004 N596 1.070 . S
C2009 N728 1.076 . S
C2014 N629 1.076 . S
C2019 N662 1.071 . S
C2024 N761 1.070 . S
C2029 N893 1.075 . S
C2034 N794 1.076 . S
C2039 N827 1.076 . S
C2044 N926 1.076 . S
C2049 N959 1.070 . S
C2054 N860 1.071 . S
C2059 N992 1.070 . S
C2064 N1091 1.071 1_556 S
C2069 N1025 1.070 . S
C2074 N1124 1.070 1_556 S
C2079 N1058 1.075 . S
C2084 N1157 1.076 1_556 S
