# Generated by pormake.
# Topology ull, (4)-cn, num edge types: 1
# Building blocks:
#     Node 0, Type 0, BuildingBlock: AZAVOO_clean_sbu_0, # of connection points: 4
#     Node 1, Type 0, BuildingBlock: AZAVOO_clean_sbu_0, # of connection points: 4
#     Node 2, Type 0, BuildingBlock: AZAVOO_clean_sbu_0, # of connection points: 4
#     Node 3, Type 0, BuildingBlock: AZAVOO_clean_sbu_0, # of connection points: 4
#     Node 4, Type 0, BuildingBlock: AZAVOO_clean_sbu_0, # of connection points: 4
#     Node 5, Type 0, BuildingBlock: AZAVOO_clean_sbu_0, # of connection points: 4
#     Node 6, Type 0, BuildingBlock: AZAVOO_clean_sbu_0, # of connection points: 4
#     Node 7, Type 0, BuildingBlock: AZAVOO_clean_sbu_0, # of connection points: 4
#     Node 8, Type 0, BuildingBlock: AZAVOO_clean_sbu_0, # of connection points: 4
#     Node 9, Type 0, BuildingBlock: AZAVOO_clean_sbu_0, # of connection points: 4
#     Node 10, Type 0, BuildingBlock: AZAVOO_clean_sbu_0, # of connection points: 4
#     Node 11, Type 0, BuildingBlock: AZAVOO_clean_sbu_0, # of connection points: 4
#     Node 12, Type 0, BuildingBlock: AZAVOO_clean_sbu_0, # of connection points: 4
#     Node 13, Type 0, BuildingBlock: AZAVOO_clean_sbu_0, # of connection points: 4
#     Node 14, Type 0, BuildingBlock: AZAVOO_clean_sbu_0, # of connection points: 4
#     Node 15, Type 0, BuildingBlock: AZAVOO_clean_sbu_0, # of connection points: 4
#     Node 16, Type 0, BuildingBlock: AZAVOO_clean_sbu_0, # of connection points: 4
#     Node 17, Type 0, BuildingBlock: AZAVOO_clean_sbu_0, # of connection points: 4
#     Node 18, Type 0, BuildingBlock: AZAVOO_clean_sbu_0, # of connection points: 4
#     Node 19, Type 0, BuildingBlock: AZAVOO_clean_sbu_0, # of connection points: 4
#     Node 20, Type 0, BuildingBlock: AZAVOO_clean_sbu_0, # of connection points: 4
#     Node 21, Type 0, BuildingBlock: AZAVOO_clean_sbu_0, # of connection points: 4
#     Node 22, Type 0, BuildingBlock: AZAVOO_clean_sbu_0, # of connection points: 4
#     Node 23, Type 0, BuildingBlock: AZAVOO_clean_sbu_0, # of connection points: 4
#     Node 24, Type 0, BuildingBlock: AZAVOO_clean_sbu_0, # of connection points: 4
#     Node 25, Type 0, BuildingBlock: AZAVOO_clean_sbu_0, # of connection points: 4
#     Node 26, Type 0, BuildingBlock: AZAVOO_clean_sbu_0, # of connection points: 4
#     Node 27, Type 0, BuildingBlock: AZAVOO_clean_sbu_0, # of connection points: 4
#     Node 28, Type 0, BuildingBlock: AZAVOO_clean_sbu_0, # of connection points: 4
#     Node 29, Type 0, BuildingBlock: AZAVOO_clean_sbu_0, # of connection points: 4
#     Node 30, Type 0, BuildingBlock: AZAVOO_clean_sbu_0, # of connection points: 4
#     Node 31, Type 0, BuildingBlock: AZAVOO_clean_sbu_0, # of connection points: 4
#     Node 32, Type 0, BuildingBlock: AZAVOO_clean_sbu_0, # of connection points: 4
#     Node 33, Type 0, BuildingBlock: AZAVOO_clean_sbu_0, # of connection points: 4
#     Node 34, Type 0, BuildingBlock: AZAVOO_clean_sbu_0, # of connection points: 4
#     Node 35, Type 0, BuildingBlock: AZAVOO_clean_sbu_0, # of connection points: 4
#     Node 36, Type 0, BuildingBlock: AZAVOO_clean_sbu_0, # of connection points: 4
#     Node 37, Type 0, BuildingBlock: AZAVOO_clean_sbu_0, # of connection points: 4
#     Node 38, Type 0, BuildingBlock: AZAVOO_clean_sbu_0, # of connection points: 4
#     Node 39, Type 0, BuildingBlock: AZAVOO_clean_sbu_0, # of connection points: 4
#     Node 40, Type 0, BuildingBlock: AZAVOO_clean_sbu_0, # of connection points: 4
#     Node 41, Type 0, BuildingBlock: AZAVOO_clean_sbu_0, # of connection points: 4
#     Node 42, Type 0, BuildingBlock: AZAVOO_clean_sbu_0, # of connection points: 4
#     Node 43, Type 0, BuildingBlock: AZAVOO_clean_sbu_0, # of connection points: 4
#     Node 44, Type 0, BuildingBlock: AZAVOO_clean_sbu_0, # of connection points: 4
#     Node 45, Type 0, BuildingBlock: AZAVOO_clean_sbu_0, # of connection points: 4
#     Node 46, Type 0, BuildingBlock: AZAVOO_clean_sbu_0, # of connection points: 4
#     Node 47, Type 0, BuildingBlock: AZAVOO_clean_sbu_0, # of connection points: 4
#     Edge 48, Type (0, 0), None
#     Edge 49, Type (0, 0), None
#     Edge 50, Type (0, 0), None
#     Edge 51, Type (0, 0), None
#     Edge 52, Type (0, 0), None
#     Edge 53, Type (0, 0), None
#     Edge 54, Type (0, 0), None
#     Edge 55, Type (0, 0), None
#     Edge 56, Type (0, 0), None
#     Edge 57, Type (0, 0), None
#     Edge 58, Type (0, 0), None
#     Edge 59, Type (0, 0), None
#     Edge 60, Type (0, 0), None
#     Edge 61, Type (0, 0), None
#     Edge 62, Type (0, 0), None
#     Edge 63, Type (0, 0), None
#     Edge 64, Type (0, 0), None
#     Edge 65, Type (0, 0), None
#     Edge 66, Type (0, 0), None
#     Edge 67, Type (0, 0), None
#     Edge 68, Type (0, 0), None
#     Edge 69, Type (0, 0), None
#     Edge 70, Type (0, 0), None
#     Edge 71, Type (0, 0), None
#     Edge 72, Type (0, 0), None
#     Edge 73, Type (0, 0), None
#     Edge 74, Type (0, 0), None
#     Edge 75, Type (0, 0), None
#     Edge 76, Type (0, 0), None
#     Edge 77, Type (0, 0), None
#     Edge 78, Type (0, 0), None
#     Edge 79, Type (0, 0), None
#     Edge 80, Type (0, 0), None
#     Edge 81, Type (0, 0), None
#     Edge 82, Type (0, 0), None
#     Edge 83, Type (0, 0), None
#     Edge 84, Type (0, 0), None
#     Edge 85, Type (0, 0), None
#     Edge 86, Type (0, 0), None
#     Edge 87, Type (0, 0), None
#     Edge 88, Type (0, 0), None
#     Edge 89, Type (0, 0), None
#     Edge 90, Type (0, 0), None
#     Edge 91, Type (0, 0), None
#     Edge 92, Type (0, 0), None
#     Edge 93, Type (0, 0), None
#     Edge 94, Type (0, 0), None
#     Edge 95, Type (0, 0), None
#     Edge 96, Type (0, 0), None
#     Edge 97, Type (0, 0), None
#     Edge 98, Type (0, 0), None
#     Edge 99, Type (0, 0), None
#     Edge 100, Type (0, 0), None
#     Edge 101, Type (0, 0), None
#     Edge 102, Type (0, 0), None
#     Edge 103, Type (0, 0), None
#     Edge 104, Type (0, 0), None
#     Edge 105, Type (0, 0), None
#     Edge 106, Type (0, 0), None
#     Edge 107, Type (0, 0), None
#     Edge 108, Type (0, 0), None
#     Edge 109, Type (0, 0), None
#     Edge 110, Type (0, 0), None
#     Edge 111, Type (0, 0), None
#     Edge 112, Type (0, 0), None
#     Edge 113, Type (0, 0), None
#     Edge 114, Type (0, 0), None
#     Edge 115, Type (0, 0), None
#     Edge 116, Type (0, 0), None
#     Edge 117, Type (0, 0), None
#     Edge 118, Type (0, 0), None
#     Edge 119, Type (0, 0), None
#     Edge 120, Type (0, 0), None
#     Edge 121, Type (0, 0), None
#     Edge 122, Type (0, 0), None
#     Edge 123, Type (0, 0), None
#     Edge 124, Type (0, 0), None
#     Edge 125, Type (0, 0), None
#     Edge 126, Type (0, 0), None
#     Edge 127, Type (0, 0), None
#     Edge 128, Type (0, 0), None
#     Edge 129, Type (0, 0), None
#     Edge 130, Type (0, 0), None
#     Edge 131, Type (0, 0), None
#     Edge 132, Type (0, 0), None
#     Edge 133, Type (0, 0), None
#     Edge 134, Type (0, 0), None
#     Edge 135, Type (0, 0), None
#     Edge 136, Type (0, 0), None
#     Edge 137, Type (0, 0), None
#     Edge 138, Type (0, 0), None
#     Edge 139, Type (0, 0), None
#     Edge 140, Type (0, 0), None
#     Edge 141, Type (0, 0), None
#     Edge 142, Type (0, 0), None
#     Edge 143, Type (0, 0), None
# Relax obj value: 0.233
# Max RMSD: 0.268
# Mean RMSD: 0.257
data_MOF--net-ull--node1-AZAVOO_clean_sbu_0--edge1-none
_symmetry_space_group_name_H-M    P1
_symmetry_Int_Tables_number       1
_symmetry_cell_setting            triclinic
loop_
_symmetry_equiv_pos_as_xyz
'x, y, z'
_cell_length_a     27.693517
_cell_length_b     26.352765
_cell_length_c     28.52463
_cell_angle_alpha  90.001836
_cell_angle_beta   90.000682
_cell_angle_gamma 89.999858
loop_
_atom_site_label
_atom_site_type_symbol
_atom_site_fract_x
_atom_site_fract_y
_atom_site_fract_z
_atom_type_partial_charge
Mg0 Mg 0.02416 0.36005 0.15198 0.0
O1 O 0.94739 0.37007 0.12078 0.0
O2 O 0.89386 0.37481 0.17997 0.0
Mg3 Mg 0.93847 0.39609 0.24438 0.0
C4 C 0.90401 0.37085 0.13633 0.0
C5 C 0.10151 0.37459 0.07905 0.0
O6 O 0.12253 0.38795 0.11844 0.0
O7 O 0.0395 0.44551 0.15948 0.0
O8 O -0.03026 0.45053 0.1922 0.0
O9 O 0.00409 0.27889 0.16809 0.0
O10 O -0.00575 0.34218 0.21823 0.0
C11 C 0.01342 0.46444 0.19151 0.0
C12 C -0.01134 0.29494 0.20827 0.0
O13 O 0.05764 0.36058 0.07975 0.0
Mg14 Mg 0.62635 0.0378 0.14327 0.0
O15 O 0.69384 0.02097 0.18728 0.0
O16 O 0.7611 0.01362 0.14401 0.0
Mg17 Mg 0.73887 0.04682 0.07358 0.0
C18 C 0.7388 1.01117 0.18309 0.0
C19 C 0.53755 0.04946 0.21146 0.0
O20 O 0.51298 0.04807 0.17211 0.0
O21 O 0.63941 0.12419 0.14305 0.0
O22 O 0.71133 0.11209 0.11704 0.0
O23 O 0.62341 0.95573 0.11863 0.0
O24 O 0.66489 0.01562 0.08276 0.0
C25 C 0.6712 0.13486 0.11259 0.0
C26 C 0.65214 0.96892 0.08498 0.0
O27 O 0.58313 0.04462 0.2106 0.0
Mg28 Mg 0.91473 0.66555 0.152 0.0
O29 O -0.0085 0.6555 0.1208 0.0
O30 O 0.04503 0.65076 0.18 0.0
Mg31 Mg 0.0004 0.62952 0.24441 0.0
C32 C 0.03489 0.65472 0.13635 0.0
C33 C 0.83739 0.651 0.07906 0.0
O34 O 0.81636 0.63765 0.11846 0.0
O35 O 0.89936 0.5801 0.15952 0.0
O36 O 0.96913 0.57508 0.19224 0.0
O37 O 0.93482 0.74671 0.16809 0.0
O38 O 0.94464 0.68344 0.21824 0.0
C39 C 0.92545 0.56116 0.19155 0.0
C40 C 0.95024 0.73067 0.20827 0.0
O41 O 0.88126 0.66501 0.07976 0.0
Mg42 Mg 0.31248 0.98773 0.14326 0.0
O43 O 0.245 1.00461 0.18726 0.0
O44 O 0.17774 1.01197 0.14399 0.0
Mg45 Mg 0.19995 0.97874 0.07356 0.0
C46 C 0.20005 0.01442 0.18307 0.0
C47 C 0.40129 0.97607 0.21145 0.0
O48 O 0.42586 0.97747 0.17211 0.0
O49 O 0.29938 0.90136 0.14307 0.0
O50 O 0.22747 0.91346 0.11702 0.0
O51 O 0.31545 0.0698 0.11861 0.0
O52 O 0.27395 1.00992 0.08274 0.0
C53 C 0.2676 0.89068 0.11259 0.0
C54 C 0.28671 0.05661 0.08496 0.0
O55 O 0.35571 0.98091 0.21059 0.0
Mg56 Mg 0.02416 0.66549 0.79548 0.0
O57 O 0.94739 0.65548 0.82668 0.0
O58 O 0.89385 0.65075 0.76748 0.0
Mg59 Mg 0.93847 0.62946 0.70308 0.0
C60 C 0.904 0.65472 0.81113 0.0
C61 C 0.1015 0.65095 0.86842 0.0
O62 O 0.12253 0.63758 0.82902 0.0
O63 O 0.03949 0.58003 0.78799 0.0
O64 O -0.03027 0.57502 0.75526 0.0
O65 O 0.00411 0.74665 0.77936 0.0
O66 O -0.00575 0.68336 0.72923 0.0
C67 C 0.01341 0.5611 0.75595 0.0
C68 C -0.01133 0.7306 0.73919 0.0
O69 O 0.05764 0.66496 0.86771 0.0
Mg70 Mg 0.31249 0.03781 0.8042 0.0
O71 O 0.24501 0.02093 0.7602 0.0
O72 O 0.17774 0.01357 0.80346 0.0
Mg73 Mg 0.19996 0.0468 0.8739 0.0
C74 C 0.20005 1.01112 0.76439 0.0
C75 C 0.40129 0.04948 0.73601 0.0
O76 O 0.42587 0.04808 0.77536 0.0
O77 O 0.29939 0.12418 0.80439 0.0
O78 O 0.22747 0.11208 0.83043 0.0
O79 O 0.31545 0.95574 0.82885 0.0
O80 O 0.27395 0.01562 0.86472 0.0
C81 C 0.2676 0.13486 0.83487 0.0
C82 C 0.28671 0.96893 0.8625 0.0
O83 O 0.35571 0.04463 0.73688 0.0
Mg84 Mg 0.91473 0.35999 0.79546 0.0
O85 O -0.0085 0.37005 0.82666 0.0
O86 O 0.04503 0.37479 0.76746 0.0
Mg87 Mg 0.0004 0.39603 0.70305 0.0
C88 C 0.03488 0.37083 0.81111 0.0
C89 C 0.83739 0.37453 0.8684 0.0
O90 O 0.81636 0.38788 0.829 0.0
O91 O 0.89936 0.44544 0.78794 0.0
O92 O 0.96912 0.45047 0.75522 0.0
O93 O 0.93482 0.27883 0.77937 0.0
O94 O 0.94464 0.34211 0.72922 0.0
C95 C 0.92544 0.46438 0.75591 0.0
C96 C 0.95025 0.29487 0.73919 0.0
O97 O 0.88126 0.36053 0.8677 0.0
Mg98 Mg 0.62636 0.98774 0.8042 0.0
O99 O 0.69385 1.00457 0.76019 0.0
O100 O 0.76112 1.01192 0.80346 0.0
Mg101 Mg 0.73889 0.97872 0.87389 0.0
C102 C 0.73881 0.01436 0.76438 0.0
C103 C 0.53756 0.97609 0.736 0.0
O104 O 0.51299 0.97748 0.77535 0.0
O105 O 0.63942 0.90135 0.80442 0.0
O106 O 0.71135 0.91345 0.83044 0.0
O107 O 0.62343 0.06981 0.82883 0.0
O108 O 0.6649 1.00992 0.86471 0.0
C109 C 0.67122 0.89067 0.83488 0.0
C110 C 0.65216 0.05662 0.86249 0.0
O111 O 0.58314 0.98092 0.73687 0.0
Mg112 Mg 0.13631 0.06074 0.30024 0.0
O113 O 0.10837 0.97941 0.31399 0.0
O114 O 0.17572 0.93278 0.32156 0.0
Mg115 Mg 0.24308 0.97901 0.30172 0.0
C116 C 0.12976 0.93725 0.32219 0.0
C117 C 0.07368 0.14654 0.33524 0.0
O118 O 0.11843 0.1616 0.34155 0.0
O119 O 0.16588 0.06642 0.37437 0.0
O120 O 0.23918 0.03209 0.36556 0.0
O121 O 0.1307 0.04964 0.22241 0.0
O122 O 0.19505 0.03145 0.26489 0.0
C123 C 0.20895 0.05883 0.38865 0.0
C124 C 0.17429 0.03209 0.22467 0.0
O125 O 0.06617 0.10143 0.32085 0.0
Mg126 Mg 0.92115 0.21259 0.30612 0.0
O127 O -0.00774 0.17159 0.32338 0.0
O128 O 0.04713 0.23138 0.3387 0.0
Mg129 Mg 0.01309 0.31003 0.32967 0.0
C130 C 0.03502 0.1849 0.33439 0.0
C131 C 0.83777 0.13518 0.32712 0.0
O132 O 0.81608 0.17794 0.33792 0.0
O133 O 0.90639 0.23749 0.38225 0.0
O134 O 0.96081 0.2998 0.39078 0.0
O135 O 0.94468 0.21867 0.23001 0.0
O136 O 0.95753 0.27737 0.28367 0.0
C137 C 0.92515 0.27386 0.40586 0.0
C138 C 0.96265 0.26234 0.24131 0.0
O139 O 0.88157 0.13631 0.31388 0.0
Mg140 Mg 0.80258 0.9649 0.30026 0.0
O141 O 0.83052 0.04622 0.314 0.0
O142 O 0.76317 0.09285 0.3216 0.0
Mg143 Mg 0.6958 0.04662 0.30176 0.0
C144 C 0.80913 0.08839 0.32221 0.0
C145 C 0.86521 0.8791 0.33524 0.0
O146 O 0.82046 0.86404 0.34156 0.0
O147 O 0.77302 0.95921 0.3744 0.0
O148 O 0.69971 0.99354 0.3656 0.0
O149 O 0.80816 0.97598 0.22243 0.0
O150 O 0.74382 0.99418 0.26492 0.0
C151 C 0.72995 0.9668 0.38868 0.0
C152 C 0.76457 0.99353 0.2247 0.0
O153 O 0.87272 0.92421 0.32086 0.0
Mg154 Mg 0.01775 0.81304 0.30612 0.0
O155 O 0.94663 0.85404 0.32338 0.0
O156 O 0.89176 0.79425 0.3387 0.0
Mg157 Mg 0.92581 0.71561 0.32968 0.0
C158 C 0.90387 0.84074 0.33439 0.0
C159 C 0.10112 0.89046 0.32711 0.0
O160 O 0.12282 0.8477 0.33792 0.0
O161 O 0.03251 0.78815 0.38225 0.0
O162 O -0.02192 0.72585 0.39079 0.0
O163 O -0.00579 0.80695 0.23001 0.0
O164 O -0.01864 0.74826 0.28368 0.0
C165 C 0.01374 0.75179 0.40587 0.0
C166 C -0.02375 0.76328 0.24131 0.0
O167 O 0.05732 0.88933 0.31387 0.0
Mg168 Mg 0.13631 0.96481 0.64722 0.0
O169 O 0.10837 0.04614 0.63347 0.0
O170 O 0.17572 0.09277 0.6259 0.0
Mg171 Mg 0.24308 0.04654 0.64574 0.0
C172 C 0.12976 0.0883 0.62527 0.0
C173 C 0.07368 0.87901 0.61221 0.0
O174 O 0.11844 0.86395 0.6059 0.0
O175 O 0.16588 0.95913 0.57308 0.0
O176 O 0.23918 0.99347 0.58189 0.0
O177 O 0.13071 0.9759 0.72504 0.0
O178 O 0.19505 0.9941 0.68257 0.0
C179 C 0.20895 0.96673 0.55881 0.0
C180 C 0.1743 0.99346 0.72278 0.0
O181 O 0.06617 0.92412 0.6266 0.0
Mg182 Mg 0.01775 0.21251 0.64134 0.0
O183 O 0.94663 0.17151 0.62409 0.0
O184 O 0.89176 0.23129 0.60877 0.0
Mg185 Mg 0.92581 0.30994 0.61779 0.0
C186 C 0.90387 0.18481 0.61309 0.0
C187 C 0.10112 0.13509 0.62035 0.0
O188 O 0.12282 0.17785 0.60954 0.0
O189 O 0.03251 0.23739 0.56521 0.0
O190 O -0.02192 0.2997 0.55667 0.0
O191 O -0.00578 0.2186 0.71745 0.0
O192 O -0.01864 0.27729 0.66379 0.0
C193 C 0.01374 0.27375 0.54159 0.0
C194 C -0.02375 0.26227 0.70615 0.0
O195 O 0.05732 0.13622 0.63359 0.0
Mg196 Mg 0.80258 0.06065 0.64721 0.0
O197 O 0.83053 0.97932 0.63347 0.0
O198 O 0.76318 0.93269 0.62587 0.0
Mg199 Mg 0.69581 0.97892 0.64571 0.0
C200 C 0.80913 0.93715 0.62526 0.0
C201 C 0.86521 0.14645 0.61223 0.0
O202 O 0.82046 0.16151 0.60589 0.0
O203 O 0.77302 0.06633 0.57307 0.0
O204 O 0.69972 0.032 0.58187 0.0
O205 O 0.80817 0.04956 0.72504 0.0
O206 O 0.74383 0.03136 0.68255 0.0
C207 C 0.72995 0.05874 0.55879 0.0
C208 C 0.76458 0.03201 0.72277 0.0
O209 O 0.87272 0.10134 0.62661 0.0
Mg210 Mg 0.92115 0.81295 0.64134 0.0
O211 O -0.00774 0.85395 0.62408 0.0
O212 O 0.04714 0.79417 0.60875 0.0
Mg213 Mg 0.01309 0.71552 0.61779 0.0
C214 C 0.03503 0.84065 0.61306 0.0
C215 C 0.83778 0.89037 0.62034 0.0
O216 O 0.81608 0.84761 0.60953 0.0
O217 O 0.90639 0.78806 0.56521 0.0
O218 O 0.96082 0.72575 0.55667 0.0
O219 O 0.94469 0.80687 0.71744 0.0
O220 O 0.95755 0.74818 0.66379 0.0
C221 C 0.92516 0.75169 0.5416 0.0
C222 C 0.96266 0.7632 0.70615 0.0
O223 O 0.88158 0.88924 0.63359 0.0
Mg224 Mg 0.31262 0.16728 0.9652 0.0
O225 O 0.24524 0.21479 0.97105 0.0
O226 O 0.18014 0.1667 0.95885 0.0
Mg227 Mg 0.20747 0.08658 0.94553 0.0
C228 C 0.19984 0.20949 0.96675 0.0
C229 C 0.3987 0.23009 0.00171 0.0
O230 O 0.41972 0.19554 -0.02439 0.0
O231 O 0.30153 0.12768 0.03603 0.0
O232 O 0.24249 0.07397 0.01706 0.0
O233 O 0.31453 0.18469 0.88853 0.0
O234 O 0.27603 0.1185 0.91793 0.0
C235 C 0.27415 0.09027 0.04577 0.0
C236 C 0.28632 0.14617 0.88203 0.0
O237 O 0.353 0.23118 0.00255 0.0
Mg238 Mg 0.31262 0.85826 -0.01774 0.0
O239 O 0.24524 0.81075 -0.02359 0.0
O240 O 0.18014 0.85884 -0.01139 0.0
Mg241 Mg 0.20747 0.93896 0.00193 0.0
C242 C 0.19984 0.81605 -0.01929 0.0
C243 C 0.39869 0.79546 0.94575 0.0
O244 O 0.41972 0.83001 0.97184 0.0
O245 O 0.30153 0.89786 0.91143 0.0
O246 O 0.24249 0.95157 0.9304 0.0
O247 O 0.31453 0.84085 0.05893 0.0
O248 O 0.27603 0.90704 0.02952 0.0
C249 C 0.27415 0.93527 0.90169 0.0
C250 C 0.28632 0.87937 0.06543 0.0
O251 O 0.353 0.79436 0.94491 0.0
Mg252 Mg 0.13673 0.33566 0.92572 0.0
O253 O 0.10943 0.35622 -0.00149 0.0
O254 O 0.17656 0.36537 0.04186 0.0
Mg255 Mg 0.24358 0.3401 0.00082 0.0
C256 C 0.1307 0.36683 0.037 0.0
C257 C 0.07494 0.36392 0.84418 0.0
O258 O 0.11919 0.35985 0.82802 0.0
O259 O 0.16806 0.41447 0.91571 0.0
O260 O 0.24086 0.40691 0.94895 0.0
O261 O 0.1284 0.25302 0.94138 0.0
O262 O 0.1939 0.29829 0.95554 0.0
C263 C 0.21089 0.43056 0.92286 0.0
C264 C 0.17205 0.25538 0.95753 0.0
O265 O 0.06749 0.35783 0.88785 0.0
Mg266 Mg 0.62623 0.16731 -0.01776 0.0
O267 O 0.69363 0.21478 -0.02359 0.0
O268 O 0.75872 0.16667 -0.01137 0.0
Mg269 Mg 0.73136 0.08657 0.00194 0.0
C270 C 0.73904 0.20947 -0.01928 0.0
C271 C 0.54019 0.23014 0.94573 0.0
O272 O 0.51915 0.1956 0.97182 0.0
O273 O 0.63733 0.12769 0.91142 0.0
O274 O 0.69636 0.07397 0.9304 0.0
O275 O 0.62431 0.18471 0.05891 0.0
O276 O 0.6628 0.11851 0.02952 0.0
C277 C 0.66472 0.09028 0.90168 0.0
C278 C 0.65251 0.14618 0.06542 0.0
O279 O 0.58589 0.23121 0.94488 0.0
Mg280 Mg 0.80216 0.68994 0.92574 0.0
O281 O 0.82947 0.66937 -0.00148 0.0
O282 O 0.76234 0.66021 0.04187 0.0
Mg283 Mg 0.69531 0.68548 0.00083 0.0
C284 C 0.8082 0.65876 0.03701 0.0
C285 C 0.86395 0.66166 0.8442 0.0
O286 O 0.8197 0.66573 0.82804 0.0
O287 O 0.77084 0.61112 0.91571 0.0
O288 O 0.69804 0.61868 0.94895 0.0
O289 O 0.81048 0.77257 0.9414 0.0
O290 O 0.74499 0.72729 0.95556 0.0
C291 C 0.72801 0.59503 0.92285 0.0
C292 C 0.76684 0.77022 0.95756 0.0
O293 O 0.8714 0.66777 0.88787 0.0
Mg294 Mg 0.62623 0.85823 0.96522 0.0
O295 O 0.69364 0.81077 0.97108 0.0
O296 O 0.75873 0.85888 0.95887 0.0
Mg297 Mg 0.73136 0.93898 0.94553 0.0
C298 C 0.73904 0.81609 0.9668 0.0
C299 C 0.54019 0.7954 0.00173 0.0
O300 O 0.51915 0.82994 -0.02436 0.0
O301 O 0.63732 0.89785 0.03605 0.0
O302 O 0.69635 0.95157 0.01707 0.0
O303 O 0.62433 0.84082 0.88855 0.0
O304 O 0.66281 0.90702 0.91795 0.0
C305 C 0.6647 0.93527 0.04579 0.0
C306 C 0.65252 0.87935 0.88205 0.0
O307 O 0.58589 0.79432 0.00258 0.0
Mg308 Mg 0.13673 0.68989 0.02174 0.0
O309 O 0.10943 0.66932 0.94896 0.0
O310 O 0.17656 0.66016 0.9056 0.0
Mg311 Mg 0.24358 0.68544 0.94664 0.0
C312 C 0.1307 0.65871 0.91046 0.0
C313 C 0.07495 0.66163 0.10328 0.0
O314 O 0.1192 0.6657 0.11945 0.0
O315 O 0.16806 0.61107 0.03176 0.0
O316 O 0.24086 0.61863 -0.00149 0.0
O317 O 0.1284 0.77252 0.00608 0.0
O318 O 0.1939 0.72725 -0.00808 0.0
C319 C 0.21089 0.59498 0.02461 0.0
C320 C 0.17205 0.77017 -0.01007 0.0
O321 O 0.06749 0.66772 0.05961 0.0
Mg322 Mg 0.80217 0.33563 0.02173 0.0
O323 O 0.82946 0.35618 0.94894 0.0
O324 O 0.76233 0.36533 0.90559 0.0
Mg325 Mg 0.69531 0.34007 0.94663 0.0
C326 C 0.8082 0.36678 0.91045 0.0
C327 C 0.86395 0.36391 0.10325 0.0
O328 O 0.8197 0.35984 0.11942 0.0
O329 O 0.77085 0.41445 0.03173 0.0
O330 O 0.69804 0.40688 -0.0015 0.0
O331 O 0.81048 0.25299 0.00608 0.0
O332 O 0.74499 0.29827 -0.00809 0.0
C333 C 0.72801 0.43053 0.02459 0.0
C334 C 0.76684 0.25535 -0.01007 0.0
O335 O 0.87141 0.3578 0.05959 0.0
Mg336 Mg 0.52419 0.86001 0.652 0.0
O337 O 0.44742 0.87004 0.6208 0.0
O338 O 0.39389 0.87478 0.68 0.0
Mg339 Mg 0.4385 0.89606 0.74441 0.0
C340 C 0.40403 0.87081 0.63635 0.0
C341 C 0.60152 0.87457 0.57905 0.0
O342 O 0.62256 0.88793 0.61844 0.0
O343 O 0.53953 0.94547 0.65951 0.0
O344 O 0.46973 0.95055 0.69224 0.0
O345 O 0.50412 0.77886 0.66812 0.0
O346 O 0.49428 0.84215 0.71825 0.0
C347 C 0.51343 0.96442 0.69152 0.0
C348 C 0.48869 0.79492 0.70829 0.0
O349 O 0.55766 0.86055 0.57977 0.0
Mg350 Mg 0.12635 0.5378 0.64328 0.0
O351 O 0.19384 0.52097 0.6873 0.0
O352 O 0.26111 0.51363 0.64403 0.0
Mg353 Mg 0.23889 0.54683 0.5736 0.0
C354 C 0.2388 0.51118 0.68311 0.0
C355 C 0.03754 0.54946 0.71146 0.0
O356 O 0.01297 0.5481 0.67211 0.0
O357 O 0.1394 0.62419 0.64306 0.0
O358 O 0.21133 0.61209 0.61705 0.0
O359 O 0.12343 0.45573 0.61863 0.0
O360 O 0.1649 0.51562 0.58277 0.0
C361 C 0.1712 0.63486 0.61259 0.0
C362 C 0.15216 0.46892 0.58498 0.0
O363 O 0.08312 0.54461 0.7106 0.0
Mg364 Mg 0.41471 0.16558 0.65198 0.0
O365 O 0.49148 0.15549 0.62079 0.0
O366 O 0.54501 0.15076 0.68 0.0
Mg367 Mg 0.50037 0.12953 0.74441 0.0
C368 C 0.53486 0.15471 0.63635 0.0
C369 C 0.33738 0.15103 0.57904 0.0
O370 O 0.31635 0.13767 0.61843 0.0
O371 O 0.39932 0.08014 0.65953 0.0
O372 O 0.46912 0.07504 0.69226 0.0
O373 O 0.43482 0.24673 0.66808 0.0
O374 O 0.44462 0.18345 0.71823 0.0
C375 C 0.42542 0.06117 0.69153 0.0
C376 C 0.45023 0.23069 0.70826 0.0
O377 O 0.38125 0.16503 0.57975 0.0
Mg378 Mg 0.81249 0.48775 0.64326 0.0
O379 O 0.74502 0.50461 0.68728 0.0
O380 O 0.67774 0.51196 0.64402 0.0
Mg381 Mg 0.69994 0.47873 0.57359 0.0
C382 C 0.70006 0.51441 0.6831 0.0
C383 C 0.90131 0.47606 0.71143 0.0
O384 O 0.92588 0.4774 0.67208 0.0
O385 O 0.7994 0.40137 0.64307 0.0
O386 O 0.72748 0.41346 0.61704 0.0
O387 O 0.81544 0.56981 0.6186 0.0
O388 O 0.77393 0.50992 0.58275 0.0
C389 C 0.76761 0.39069 0.6126 0.0
C390 C 0.78669 0.55662 0.58495 0.0
O391 O 0.85573 0.48093 0.71057 0.0
Mg392 Mg 0.52419 0.16553 0.29546 0.0
O393 O 0.44741 0.15552 0.32666 0.0
O394 O 0.39388 0.15078 0.26746 0.0
Mg395 Mg 0.4385 0.12949 0.20305 0.0
C396 C 0.40403 0.15475 0.31111 0.0
C397 C 0.60152 0.15097 0.36841 0.0
O398 O 0.62255 0.1376 0.32902 0.0
O399 O 0.53952 0.08007 0.28796 0.0
O400 O 0.46972 0.075 0.25522 0.0
O401 O 0.50414 0.24668 0.27934 0.0
O402 O 0.49429 0.18339 0.22921 0.0
C403 C 0.51341 0.06112 0.25595 0.0
C404 C 0.4887 0.23063 0.23917 0.0
O405 O 0.55765 0.16499 0.3677 0.0
Mg406 Mg 0.8125 0.5378 0.3042 0.0
O407 O 0.74503 0.52093 0.26018 0.0
O408 O 0.67775 0.51359 0.30343 0.0
Mg409 Mg 0.69995 0.54681 0.37387 0.0
C410 C 0.70007 0.51113 0.26436 0.0
C411 C 0.90131 0.54949 0.23603 0.0
O412 O 0.92588 0.54814 0.27538 0.0
O413 O 0.79941 0.62417 0.30439 0.0
O414 O 0.72748 0.61208 0.33041 0.0
O415 O 0.81544 0.45573 0.32886 0.0
O416 O 0.77394 0.51562 0.36471 0.0
C417 C 0.76762 0.63485 0.33486 0.0
C418 C 0.78669 0.46892 0.3625 0.0
O419 O 0.85574 0.54461 0.23689 0.0
Mg420 Mg 0.41471 0.85996 0.29548 0.0
O421 O 0.49148 0.87005 0.32667 0.0
O422 O 0.545 0.87479 0.26747 0.0
Mg423 Mg 0.50037 0.89602 0.20306 0.0
C424 C 0.53486 0.87084 0.31112 0.0
C425 C 0.33738 0.87451 0.36842 0.0
O426 O 0.31634 0.88785 0.32902 0.0
O427 O 0.39931 0.9454 0.28793 0.0
O428 O 0.46912 0.95051 0.25521 0.0
O429 O 0.43482 0.77882 0.27938 0.0
O430 O 0.44462 0.84209 0.22923 0.0
C431 C 0.42542 0.96438 0.25593 0.0
C432 C 0.45024 0.79486 0.2392 0.0
O433 O 0.38125 0.86051 0.36771 0.0
Mg434 Mg 0.12637 0.48774 0.30419 0.0
O435 O 0.19385 0.50456 0.26017 0.0
O436 O 0.26112 0.51191 0.30343 0.0
Mg437 Mg 0.2389 0.47871 0.37387 0.0
C438 C 0.23881 0.51436 0.26436 0.0
C439 C 0.03756 0.47609 0.236 0.0
O440 O 0.01298 0.47746 0.27535 0.0
O441 O 0.13941 0.40135 0.30441 0.0
O442 O 0.21135 0.41344 0.33042 0.0
O443 O 0.12344 0.56981 0.32883 0.0
O444 O 0.16492 0.50992 0.3647 0.0
C445 C 0.17121 0.39067 0.33487 0.0
C446 C 0.15218 0.55662 0.36248 0.0
O447 O 0.08313 0.48093 0.23687 0.0
Mg448 Mg 0.63632 0.56071 0.80027 0.0
O449 O 0.60837 0.47938 0.814 0.0
O450 O 0.67572 0.43275 0.82159 0.0
Mg451 Mg 0.74309 0.47898 0.80176 0.0
C452 C 0.62977 0.43721 0.8222 0.0
C453 C 0.5737 0.64651 0.83528 0.0
O454 O 0.61845 0.66156 0.8416 0.0
O455 O 0.66587 0.56636 0.87442 0.0
O456 O 0.73919 0.53204 0.86561 0.0
O457 O 0.63072 0.54963 0.72245 0.0
O458 O 0.69506 0.53142 0.76492 0.0
C459 C 0.70893 0.55875 0.8887 0.0
C460 C 0.67431 0.53207 0.72471 0.0
O461 O 0.56618 0.6014 0.82088 0.0
Mg462 Mg 0.42117 0.71258 0.80615 0.0
O463 O 0.49228 0.67157 0.82341 0.0
O464 O 0.54716 0.73135 0.83873 0.0
Mg465 Mg 0.51313 0.81 0.8297 0.0
C466 C 0.53504 0.68487 0.83442 0.0
C467 C 0.33779 0.63518 0.82714 0.0
O468 O 0.3161 0.67794 0.83794 0.0
O469 O 0.40642 0.73748 0.88227 0.0
O470 O 0.46085 0.79978 0.89082 0.0
O471 O 0.44471 0.71865 0.73004 0.0
O472 O 0.45757 0.77735 0.7837 0.0
C473 C 0.4252 0.77383 0.90589 0.0
C474 C 0.46268 0.76232 0.74133 0.0
O475 O 0.38159 0.6363 0.8139 0.0
Mg476 Mg 0.30258 0.4649 0.80028 0.0
O477 O 0.33053 0.54623 0.81401 0.0
O478 O 0.26318 0.59286 0.82162 0.0
Mg479 Mg 0.19581 0.54664 0.80179 0.0
C480 C 0.30914 0.58839 0.82223 0.0
C481 C 0.3652 0.3791 0.83524 0.0
O482 O 0.32045 0.36404 0.84156 0.0
O483 O 0.27304 0.45924 0.87443 0.0
O484 O 0.19972 0.49356 0.86563 0.0
O485 O 0.30815 0.47598 0.72245 0.0
O486 O 0.24382 0.49419 0.76494 0.0
C487 C 0.22997 0.46685 0.88871 0.0
C488 C 0.26456 0.49354 0.72472 0.0
O489 O 0.37272 0.42421 0.82087 0.0
Mg490 Mg 0.51773 0.31302 0.80613 0.0
O491 O 0.44663 0.35403 0.82338 0.0
O492 O 0.39174 0.29425 0.83869 0.0
Mg493 Mg 0.42578 0.2156 0.82965 0.0
C494 C 0.40386 0.34073 0.83439 0.0
C495 C 0.60112 0.39043 0.82712 0.0
O496 O 0.62282 0.34767 0.83791 0.0
O497 O 0.53248 0.28812 0.88225 0.0
O498 O 0.47804 0.22582 0.89078 0.0
O499 O 0.49421 0.30695 0.73001 0.0
O500 O 0.48134 0.24826 0.78367 0.0
C501 C 0.51369 0.25177 0.90587 0.0
C502 C 0.47624 0.26328 0.7413 0.0
O503 O 0.55731 0.3893 0.81389 0.0
Mg504 Mg 0.63632 0.46484 0.14718 0.0
O505 O 0.60837 0.54617 0.13346 0.0
O506 O 0.67572 0.59281 0.12587 0.0
Mg507 Mg 0.74309 0.54657 0.1457 0.0
C508 C 0.62977 0.58834 0.12526 0.0
C509 C 0.5737 0.37904 0.11218 0.0
O510 O 0.61845 0.36399 0.10585 0.0
O511 O 0.66587 0.45919 0.07303 0.0
O512 O 0.73919 0.49352 0.08184 0.0
O513 O 0.63073 0.47591 0.22501 0.0
O514 O 0.69507 0.49412 0.18253 0.0
C515 C 0.70893 0.46681 0.05875 0.0
C516 C 0.67432 0.49347 0.22275 0.0
O517 O 0.56618 0.42415 0.12657 0.0
Mg518 Mg 0.51774 0.71252 0.14134 0.0
O519 O 0.44662 0.67151 0.12409 0.0
O520 O 0.39174 0.7313 0.10878 0.0
Mg521 Mg 0.42578 0.80995 0.11781 0.0
C522 C 0.40385 0.68481 0.11309 0.0
C523 C 0.60112 0.63512 0.12034 0.0
O524 O 0.62282 0.67788 0.10955 0.0
O525 O 0.53248 0.73742 0.06521 0.0
O526 O 0.47804 0.79972 0.05668 0.0
O527 O 0.49422 0.7186 0.21745 0.0
O528 O 0.48135 0.77729 0.16379 0.0
C529 C 0.51369 0.77377 0.04159 0.0
C530 C 0.47625 0.76227 0.20616 0.0
O531 O 0.55731 0.63624 0.13357 0.0
Mg532 Mg 0.30258 0.56064 0.14719 0.0
O533 O 0.33053 0.47931 0.13345 0.0
O534 O 0.26319 0.43268 0.12585 0.0
Mg535 Mg 0.19581 0.4789 0.14568 0.0
C536 C 0.30914 0.43715 0.12524 0.0
C537 C 0.3652 0.64645 0.11223 0.0
O538 O 0.32045 0.66151 0.10589 0.0
O539 O 0.27304 0.5663 0.07304 0.0
O540 O 0.19972 0.53198 0.08184 0.0
O541 O 0.30816 0.54956 0.22502 0.0
O542 O 0.24383 0.53135 0.18253 0.0
C543 C 0.22997 0.55869 0.05875 0.0
C544 C 0.26457 0.532 0.22275 0.0
O545 O 0.37272 0.60134 0.1266 0.0
Mg546 Mg 0.42118 0.31296 0.14131 0.0
O547 O 0.49228 0.35397 0.12405 0.0
O548 O 0.54717 0.29419 0.10872 0.0
Mg549 Mg 0.51313 0.21554 0.11776 0.0
C550 C 0.53505 0.34068 0.11303 0.0
C551 C 0.33779 0.39036 0.12032 0.0
O552 O 0.3161 0.3476 0.10952 0.0
O553 O 0.40642 0.28807 0.06518 0.0
O554 O 0.46086 0.22576 0.05664 0.0
O555 O 0.44472 0.30689 0.21742 0.0
O556 O 0.45758 0.24819 0.16376 0.0
C557 C 0.42521 0.25171 0.04157 0.0
C558 C 0.46269 0.26322 0.20612 0.0
O559 O 0.3816 0.38924 0.13356 0.0
Mg560 Mg 0.81261 0.66729 0.46519 0.0
O561 O 0.74523 0.71479 0.47103 0.0
O562 O 0.68013 0.6667 0.45882 0.0
Mg563 Mg 0.70747 0.58658 0.44551 0.0
C564 C 0.69983 0.70949 0.46672 0.0
C565 C 0.89867 0.73009 0.50171 0.0
O566 O 0.91973 0.69557 0.47561 0.0
O567 O 0.80151 0.62768 0.53602 0.0
O568 O 0.74247 0.57397 0.51705 0.0
O569 O 0.81453 0.68469 0.38853 0.0
O570 O 0.77603 0.6185 0.41792 0.0
C571 C 0.77413 0.59027 0.54577 0.0
C572 C 0.78632 0.64617 0.38202 0.0
O573 O 0.85297 0.73118 0.50256 0.0
Mg574 Mg 0.81261 0.35826 0.48227 0.0
O575 O 0.74523 0.31076 0.47643 0.0
O576 O 0.68013 0.35885 0.48863 0.0
Mg577 Mg 0.70747 0.43897 0.50194 0.0
C578 C 0.69982 0.31605 0.48073 0.0
C579 C 0.89867 0.29545 0.44575 0.0
O580 O 0.91973 0.32998 0.47184 0.0
O581 O 0.80151 0.39786 0.41144 0.0
O582 O 0.74247 0.45157 0.43041 0.0
O583 O 0.81453 0.34085 0.55893 0.0
O584 O 0.77603 0.40704 0.52953 0.0
C585 C 0.77413 0.43527 0.40169 0.0
C586 C 0.78632 0.37937 0.56544 0.0
O587 O 0.85297 0.29436 0.4449 0.0
Mg588 Mg 0.63672 0.83566 0.42572 0.0
O589 O 0.60943 0.85621 0.49851 0.0
O590 O 0.67657 0.86536 0.54185 0.0
Mg591 Mg 0.74359 0.84009 0.50079 0.0
C592 C 0.63071 0.86681 0.537 0.0
C593 C 0.57492 0.86394 0.34419 0.0
O594 O 0.61917 0.85987 0.32802 0.0
O595 O 0.66804 0.91448 0.41572 0.0
O596 O 0.74086 0.90691 0.44893 0.0
O597 O 0.62839 0.75302 0.44135 0.0
O598 O 0.69389 0.79829 0.45553 0.0
C599 C 0.71087 0.93057 0.42287 0.0
C600 C 0.67204 0.75537 0.4575 0.0
O601 O 0.56747 0.85783 0.38785 0.0
Mg602 Mg 0.12625 0.6673 0.48224 0.0
O603 O 0.19365 0.71476 0.47642 0.0
O604 O 0.25874 0.66665 0.48865 0.0
Mg605 Mg 0.23135 0.58654 0.50195 0.0
C606 C 0.23906 0.70945 0.48074 0.0
C607 C 0.04023 0.73019 0.44575 0.0
O608 O 0.01915 0.69572 0.47188 0.0
O609 O 0.13735 0.62769 0.41142 0.0
O610 O 0.19637 0.57396 0.4304 0.0
O611 O 0.12432 0.68471 0.55891 0.0
O612 O 0.1628 0.6185 0.52953 0.0
C613 C 0.16473 0.59027 0.40168 0.0
C614 C 0.15251 0.64618 0.56542 0.0
O615 O 0.08593 0.73122 0.44487 0.0
Mg616 Mg 0.30219 0.18996 0.42571 0.0
O617 O 0.32947 0.1694 0.4985 0.0
O618 O 0.26233 0.16024 0.54183 0.0
Mg619 Mg 0.19532 0.18552 0.50079 0.0
C620 C 0.3082 0.15878 0.53698 0.0
C621 C 0.36397 0.16169 0.34418 0.0
O622 O 0.31972 0.16577 0.32801 0.0
O623 O 0.27087 0.11114 0.41569 0.0
O624 O 0.19805 0.11871 0.44891 0.0
O625 O 0.3105 0.2726 0.44137 0.0
O626 O 0.24502 0.22732 0.45553 0.0
C627 C 0.22803 0.09506 0.42285 0.0
C628 C 0.26686 0.27024 0.45753 0.0
O629 O 0.37143 0.16779 0.38784 0.0
Mg630 Mg 0.12625 0.35823 0.46522 0.0
O631 O 0.19366 0.31078 0.47107 0.0
O632 O 0.25874 0.35891 0.45884 0.0
Mg633 Mg 0.23135 0.439 0.44552 0.0
C634 C 0.23906 0.31611 0.46678 0.0
C635 C 0.04023 0.29535 0.50171 0.0
O636 O 0.01914 0.32982 0.47558 0.0
O637 O 0.13734 0.39785 0.53605 0.0
O638 O 0.19636 0.45159 0.51706 0.0
O639 O 0.12434 0.34081 0.38856 0.0
O640 O 0.16281 0.40703 0.41794 0.0
C641 C 0.16471 0.43527 0.54579 0.0
C642 C 0.15252 0.37935 0.38204 0.0
O643 O 0.08592 0.29432 0.50259 0.0
Mg644 Mg 0.63672 0.18988 0.52175 0.0
O645 O 0.60943 0.16933 0.44895 0.0
O646 O 0.67657 0.16018 0.40562 0.0
Mg647 Mg 0.74358 0.18545 0.44667 0.0
C648 C 0.63071 0.15872 0.41047 0.0
C649 C 0.57492 0.16161 0.60328 0.0
O650 O 0.61917 0.16568 0.61945 0.0
O651 O 0.66804 0.11106 0.53175 0.0
O652 O 0.74086 0.11863 0.49853 0.0
O653 O 0.62839 0.27252 0.5061 0.0
O654 O 0.69389 0.22725 0.49194 0.0
C655 C 0.71087 0.09498 0.52459 0.0
C656 C 0.67204 0.27017 0.48996 0.0
O657 O 0.56747 0.16771 0.55961 0.0
Mg658 Mg 0.30219 0.8356 0.52175 0.0
O659 O 0.32947 0.85615 0.44896 0.0
O660 O 0.26233 0.8653 0.40562 0.0
Mg661 Mg 0.19532 0.84003 0.44667 0.0
C662 C 0.30819 0.86676 0.41047 0.0
C663 C 0.36398 0.86388 0.60328 0.0
O664 O 0.31973 0.8598 0.61945 0.0
O665 O 0.27087 0.91442 0.53175 0.0
O666 O 0.19805 0.90684 0.49854 0.0
O667 O 0.3105 0.75296 0.50611 0.0
O668 O 0.24501 0.79824 0.49194 0.0
C669 C 0.22803 0.9305 0.5246 0.0
C670 C 0.26686 0.75532 0.48996 0.0
O671 O 0.37143 0.85778 0.55961 0.0
loop_
_geom_bond_atom_site_label_1
_geom_bond_atom_site_label_2
_geom_bond_distance
_geom_bond_site_symmetry_2
_ccdc_geom_bond_type
Mg0 O1 2.028 . S
Mg0 O7 1.986 . S
Mg0 O9 2.114 . S
Mg0 O10 2.251 . S
Mg0 O13 2.010 . S
O1 Mg0 2.028 . S
O1 C4 1.250 1_455 S
O2 Mg3 2.028 . S
O2 C4 1.248 . S
Mg3 O2 2.028 . S
Mg3 O8 2.032 1_655 S
Mg3 O10 2.079 1_655 S
C4 O1 1.250 1_655 S
C4 O2 1.248 . S
C5 O6 1.264 . S
C5 O13 1.249 . S
O6 C5 1.264 . S
O7 Mg0 1.986 . S
O7 C11 1.246 . S
O8 Mg3 2.032 1_455 S
O8 C11 1.259 . S
O9 Mg0 2.114 . S
O9 C12 1.252 . S
O10 Mg0 2.251 . S
O10 Mg3 2.079 1_455 S
O10 C12 1.273 . S
C11 O7 1.246 . S
C11 O8 1.259 . S
C12 O9 1.252 . S
C12 O10 1.273 . S
O13 Mg0 2.010 . S
O13 C5 1.249 . S
Mg14 O15 2.028 . S
Mg14 O21 1.986 . S
Mg14 O23 2.114 1_545 S
Mg14 O24 2.251 1_545 S
Mg14 O27 2.010 . S
O15 Mg14 2.028 . S
O15 C18 1.250 . S
O16 Mg17 2.028 . S
O16 C18 1.248 1_565 S
Mg17 O16 2.028 . S
Mg17 O22 2.032 1_565 S
Mg17 O24 2.079 . S
C18 O15 1.250 . S
C18 O16 1.248 1_545 S
C19 O20 1.264 . S
C19 O27 1.249 . S
O20 C19 1.264 . S
O21 Mg14 1.986 . S
O21 C25 1.246 . S
O22 Mg17 2.032 1_545 S
O22 C25 1.259 . S
O23 Mg14 2.114 1_565 S
O23 C26 1.252 . S
O24 Mg14 2.251 1_565 S
O24 Mg17 2.079 . S
O24 C26 1.273 . S
C25 O21 1.246 . S
C25 O22 1.259 . S
C26 O23 1.252 . S
C26 O24 1.273 . S
O27 Mg14 2.010 . S
O27 C19 1.249 . S
Mg28 O29 2.028 . S
Mg28 O35 1.986 . S
Mg28 O37 2.114 . S
Mg28 O38 2.251 . S
Mg28 O41 2.010 . S
O29 Mg28 2.028 . S
O29 C32 1.250 1_655 S
O30 Mg31 2.028 . S
O30 C32 1.248 . S
Mg31 O30 2.028 . S
Mg31 O36 2.032 1_455 S
Mg31 O38 2.079 1_455 S
C32 O29 1.250 1_455 S
C32 O30 1.248 . S
C33 O34 1.264 . S
C33 O41 1.249 . S
O34 C33 1.264 . S
O35 Mg28 1.986 . S
O35 C39 1.246 . S
O36 Mg31 2.032 1_655 S
O36 C39 1.259 . S
O37 Mg28 2.114 . S
O37 C40 1.252 . S
O38 Mg28 2.251 . S
O38 Mg31 2.079 1_655 S
O38 C40 1.273 . S
C39 O35 1.246 . S
C39 O36 1.259 . S
C40 O37 1.252 . S
C40 O38 1.273 . S
O41 Mg28 2.010 . S
O41 C33 1.249 . S
Mg42 O43 2.028 . S
Mg42 O49 1.986 . S
Mg42 O51 2.114 1_565 S
Mg42 O52 2.251 1_565 S
Mg42 O55 2.010 . S
O43 Mg42 2.028 . S
O43 C46 1.250 . S
O44 Mg45 2.028 . S
O44 C46 1.248 1_545 S
Mg45 O44 2.028 . S
Mg45 O50 2.032 1_545 S
Mg45 O52 2.079 . S
C46 O43 1.250 . S
C46 O44 1.248 1_565 S
C47 O48 1.264 . S
C47 O55 1.249 . S
O48 C47 1.264 . S
O49 Mg42 1.986 . S
O49 C53 1.246 . S
O50 Mg45 2.032 1_565 S
O50 C53 1.259 . S
O51 Mg42 2.114 1_545 S
O51 C54 1.252 . S
O52 Mg42 2.251 1_545 S
O52 Mg45 2.079 . S
O52 C54 1.273 . S
C53 O49 1.246 . S
C53 O50 1.259 . S
C54 O51 1.252 . S
C54 O52 1.273 . S
O55 Mg42 2.010 . S
O55 C47 1.249 . S
Mg56 O57 2.028 . S
Mg56 O63 1.986 . S
Mg56 O65 2.114 . S
Mg56 O66 2.251 . S
Mg56 O69 2.010 . S
O57 Mg56 2.028 . S
O57 C60 1.250 1_455 S
O58 Mg59 2.028 . S
O58 C60 1.248 . S
Mg59 O58 2.028 . S
Mg59 O64 2.032 1_655 S
Mg59 O66 2.079 1_655 S
C60 O57 1.250 1_655 S
C60 O58 1.248 . S
C61 O62 1.264 . S
C61 O69 1.249 . S
O62 C61 1.264 . S
O63 Mg56 1.986 . S
O63 C67 1.246 . S
O64 Mg59 2.032 1_455 S
O64 C67 1.259 . S
O65 Mg56 2.114 . S
O65 C68 1.252 . S
O66 Mg56 2.251 . S
O66 Mg59 2.079 1_455 S
O66 C68 1.273 . S
C67 O63 1.246 . S
C67 O64 1.259 . S
C68 O65 1.252 . S
C68 O66 1.273 . S
O69 Mg56 2.010 . S
O69 C61 1.249 . S
Mg70 O71 2.028 . S
Mg70 O77 1.986 . S
Mg70 O79 2.114 1_545 S
Mg70 O80 2.251 1_545 S
Mg70 O83 2.010 . S
O71 Mg70 2.028 . S
O71 C74 1.250 . S
O72 Mg73 2.028 . S
O72 C74 1.248 1_565 S
Mg73 O72 2.028 . S
Mg73 O78 2.032 1_565 S
Mg73 O80 2.079 . S
C74 O71 1.250 . S
C74 O72 1.248 1_545 S
C75 O76 1.264 . S
C75 O83 1.249 . S
O76 C75 1.264 . S
O77 Mg70 1.986 . S
O77 C81 1.246 . S
O78 Mg73 2.032 1_545 S
O78 C81 1.259 . S
O79 Mg70 2.114 1_565 S
O79 C82 1.252 . S
O80 Mg70 2.251 1_565 S
O80 Mg73 2.079 . S
O80 C82 1.273 . S
C81 O77 1.246 . S
C81 O78 1.259 . S
C82 O79 1.252 . S
C82 O80 1.273 . S
O83 Mg70 2.010 . S
O83 C75 1.249 . S
Mg84 O85 2.028 . S
Mg84 O91 1.986 . S
Mg84 O93 2.114 . S
Mg84 O94 2.251 . S
Mg84 O97 2.010 . S
O85 Mg84 2.028 . S
O85 C88 1.250 1_655 S
O86 Mg87 2.028 . S
O86 C88 1.248 . S
Mg87 O86 2.028 . S
Mg87 O92 2.032 1_455 S
Mg87 O94 2.079 1_455 S
C88 O85 1.250 1_455 S
C88 O86 1.248 . S
C89 O90 1.264 . S
C89 O97 1.249 . S
O90 C89 1.264 . S
O91 Mg84 1.986 . S
O91 C95 1.246 . S
O92 Mg87 2.032 1_655 S
O92 C95 1.259 . S
O93 Mg84 2.114 . S
O93 C96 1.252 . S
O94 Mg84 2.251 . S
O94 Mg87 2.079 1_655 S
O94 C96 1.273 . S
C95 O91 1.246 . S
C95 O92 1.259 . S
C96 O93 1.252 . S
C96 O94 1.273 . S
O97 Mg84 2.010 . S
O97 C89 1.249 . S
Mg98 O99 2.028 . S
Mg98 O105 1.986 . S
Mg98 O107 2.114 1_565 S
Mg98 O108 2.251 1_565 S
Mg98 O111 2.010 . S
O99 Mg98 2.028 . S
O99 C102 1.250 . S
O100 Mg101 2.028 . S
O100 C102 1.248 1_545 S
Mg101 O100 2.028 . S
Mg101 O106 2.032 1_545 S
Mg101 O108 2.079 . S
C102 O99 1.250 . S
C102 O100 1.248 1_565 S
C103 O104 1.264 . S
C103 O111 1.249 . S
O104 C103 1.264 . S
O105 Mg98 1.986 . S
O105 C109 1.246 . S
O106 Mg101 2.032 1_565 S
O106 C109 1.259 . S
O107 Mg98 2.114 1_545 S
O107 C110 1.252 . S
O108 Mg98 2.251 1_545 S
O108 Mg101 2.079 . S
O108 C110 1.273 . S
C109 O105 1.246 . S
C109 O106 1.259 . S
C110 O107 1.252 . S
C110 O108 1.273 . S
O111 Mg98 2.010 . S
O111 C103 1.249 . S
Mg112 O113 2.028 . S
Mg112 O119 1.986 . S
Mg112 O121 2.114 . S
Mg112 O122 2.251 . S
Mg112 O125 2.010 . S
O113 Mg112 2.028 . S
O113 C116 1.250 1_545 S
O114 Mg115 2.028 . S
O114 C116 1.248 . S
Mg115 O114 2.028 . S
Mg115 O120 2.032 1_565 S
Mg115 O122 2.079 1_565 S
C116 O113 1.250 1_565 S
C116 O114 1.248 . S
C117 O118 1.264 . S
C117 O125 1.249 . S
O118 C117 1.264 . S
O119 Mg112 1.986 . S
O119 C123 1.246 . S
O120 Mg115 2.032 1_545 S
O120 C123 1.259 . S
O121 Mg112 2.114 . S
O121 C124 1.252 . S
O122 Mg112 2.251 . S
O122 Mg115 2.079 1_545 S
O122 C124 1.273 . S
C123 O119 1.246 . S
C123 O120 1.259 . S
C124 O121 1.252 . S
C124 O122 1.273 . S
O125 Mg112 2.010 . S
O125 C117 1.249 . S
Mg126 O127 2.028 . S
Mg126 O133 1.986 . S
Mg126 O135 2.114 . S
Mg126 O136 2.251 . S
Mg126 O139 2.010 . S
O127 Mg126 2.028 . S
O127 C130 1.250 1_655 S
O128 Mg129 2.028 . S
O128 C130 1.248 . S
Mg129 O128 2.028 . S
Mg129 O134 2.032 1_455 S
Mg129 O136 2.079 1_455 S
C130 O127 1.250 1_455 S
C130 O128 1.248 . S
C131 O132 1.264 . S
C131 O139 1.249 . S
O132 C131 1.264 . S
O133 Mg126 1.986 . S
O133 C137 1.246 . S
O134 Mg129 2.032 1_655 S
O134 C137 1.259 . S
O135 Mg126 2.114 . S
O135 C138 1.252 . S
O136 Mg126 2.251 . S
O136 Mg129 2.079 1_655 S
O136 C138 1.273 . S
C137 O133 1.246 . S
C137 O134 1.259 . S
C138 O135 1.252 . S
C138 O136 1.273 . S
O139 Mg126 2.010 . S
O139 C131 1.249 . S
Mg140 O141 2.028 . S
Mg140 O147 1.986 . S
Mg140 O149 2.114 . S
Mg140 O150 2.251 . S
Mg140 O153 2.010 . S
O141 Mg140 2.028 . S
O141 C144 1.250 1_565 S
O142 Mg143 2.028 . S
O142 C144 1.248 . S
Mg143 O142 2.028 . S
Mg143 O148 2.032 1_545 S
Mg143 O150 2.079 1_545 S
C144 O141 1.250 1_545 S
C144 O142 1.248 . S
C145 O146 1.264 . S
C145 O153 1.249 . S
O146 C145 1.264 . S
O147 Mg140 1.986 . S
O147 C151 1.246 . S
O148 Mg143 2.032 1_565 S
O148 C151 1.259 . S
O149 Mg140 2.114 . S
O149 C152 1.252 . S
O150 Mg140 2.251 . S
O150 Mg143 2.079 1_565 S
O150 C152 1.273 . S
C151 O147 1.246 . S
C151 O148 1.259 . S
C152 O149 1.252 . S
C152 O150 1.273 . S
O153 Mg140 2.010 . S
O153 C145 1.249 . S
Mg154 O155 2.028 . S
Mg154 O161 1.986 . S
Mg154 O163 2.114 . S
Mg154 O164 2.251 . S
Mg154 O167 2.010 . S
O155 Mg154 2.028 . S
O155 C158 1.250 1_455 S
O156 Mg157 2.028 . S
O156 C158 1.248 . S
Mg157 O156 2.028 . S
Mg157 O162 2.032 1_655 S
Mg157 O164 2.079 1_655 S
C158 O155 1.250 1_655 S
C158 O156 1.248 . S
C159 O160 1.264 . S
C159 O167 1.249 . S
O160 C159 1.264 . S
O161 Mg154 1.986 . S
O161 C165 1.246 . S
O162 Mg157 2.032 1_455 S
O162 C165 1.259 . S
O163 Mg154 2.114 . S
O163 C166 1.252 . S
O164 Mg154 2.251 . S
O164 Mg157 2.079 1_455 S
O164 C166 1.273 . S
C165 O161 1.246 . S
C165 O162 1.259 . S
C166 O163 1.252 . S
C166 O164 1.273 . S
O167 Mg154 2.010 . S
O167 C159 1.249 . S
Mg168 O169 2.028 . S
Mg168 O175 1.986 . S
Mg168 O177 2.114 . S
Mg168 O178 2.251 . S
Mg168 O181 2.010 . S
O169 Mg168 2.028 . S
O169 C172 1.250 1_565 S
O170 Mg171 2.028 . S
O170 C172 1.248 . S
Mg171 O170 2.028 . S
Mg171 O176 2.032 1_545 S
Mg171 O178 2.079 1_545 S
C172 O169 1.250 1_545 S
C172 O170 1.248 . S
C173 O174 1.264 . S
C173 O181 1.249 . S
O174 C173 1.264 . S
O175 Mg168 1.986 . S
O175 C179 1.246 . S
O176 Mg171 2.032 1_565 S
O176 C179 1.259 . S
O177 Mg168 2.114 . S
O177 C180 1.252 . S
O178 Mg168 2.251 . S
O178 Mg171 2.079 1_565 S
O178 C180 1.273 . S
C179 O175 1.246 . S
C179 O176 1.259 . S
C180 O177 1.252 . S
C180 O178 1.273 . S
O181 Mg168 2.010 . S
O181 C173 1.249 . S
Mg182 O183 2.028 . S
Mg182 O189 1.986 . S
Mg182 O191 2.114 . S
Mg182 O192 2.251 . S
Mg182 O195 2.010 . S
O183 Mg182 2.028 . S
O183 C186 1.250 1_455 S
O184 Mg185 2.028 . S
O184 C186 1.248 . S
Mg185 O184 2.028 . S
Mg185 O190 2.032 1_655 S
Mg185 O192 2.079 1_655 S
C186 O183 1.250 1_655 S
C186 O184 1.248 . S
C187 O188 1.264 . S
C187 O195 1.249 . S
O188 C187 1.264 . S
O189 Mg182 1.986 . S
O189 C193 1.246 . S
O190 Mg185 2.032 1_455 S
O190 C193 1.259 . S
O191 Mg182 2.114 . S
O191 C194 1.252 . S
O192 Mg182 2.251 . S
O192 Mg185 2.079 1_455 S
O192 C194 1.273 . S
C193 O189 1.246 . S
C193 O190 1.259 . S
C194 O191 1.252 . S
C194 O192 1.273 . S
O195 Mg182 2.010 . S
O195 C187 1.249 . S
Mg196 O197 2.028 . S
Mg196 O203 1.986 . S
Mg196 O205 2.114 . S
Mg196 O206 2.251 . S
Mg196 O209 2.010 . S
O197 Mg196 2.028 . S
O197 C200 1.250 1_545 S
O198 Mg199 2.028 . S
O198 C200 1.248 . S
Mg199 O198 2.028 . S
Mg199 O204 2.032 1_565 S
Mg199 O206 2.079 1_565 S
C200 O197 1.250 1_565 S
C200 O198 1.248 . S
C201 O202 1.264 . S
C201 O209 1.249 . S
O202 C201 1.264 . S
O203 Mg196 1.986 . S
O203 C207 1.246 . S
O204 Mg199 2.032 1_545 S
O204 C207 1.259 . S
O205 Mg196 2.114 . S
O205 C208 1.252 . S
O206 Mg196 2.251 . S
O206 Mg199 2.079 1_545 S
O206 C208 1.273 . S
C207 O203 1.246 . S
C207 O204 1.259 . S
C208 O205 1.252 . S
C208 O206 1.273 . S
O209 Mg196 2.010 . S
O209 C201 1.249 . S
Mg210 O211 2.028 . S
Mg210 O217 1.986 . S
Mg210 O219 2.114 . S
Mg210 O220 2.251 . S
Mg210 O223 2.010 . S
O211 Mg210 2.028 . S
O211 C214 1.250 1_655 S
O212 Mg213 2.028 . S
O212 C214 1.248 . S
Mg213 O212 2.028 . S
Mg213 O218 2.032 1_455 S
Mg213 O220 2.079 1_455 S
C214 O211 1.250 1_455 S
C214 O212 1.248 . S
C215 O216 1.264 . S
C215 O223 1.249 . S
O216 C215 1.264 . S
O217 Mg210 1.986 . S
O217 C221 1.246 . S
O218 Mg213 2.032 1_655 S
O218 C221 1.259 . S
O219 Mg210 2.114 . S
O219 C222 1.252 . S
O220 Mg210 2.251 . S
O220 Mg213 2.079 1_655 S
O220 C222 1.273 . S
C221 O217 1.246 . S
C221 O218 1.259 . S
C222 O219 1.252 . S
C222 O220 1.273 . S
O223 Mg210 2.010 . S
O223 C215 1.249 . S
Mg224 O225 2.028 . S
Mg224 O231 1.986 . S
Mg224 O233 2.114 1_554 S
Mg224 O234 2.251 1_554 S
Mg224 O237 2.010 . S
O225 Mg224 2.028 . S
O225 C228 1.250 . S
O226 Mg227 2.028 . S
O226 C228 1.248 1_556 S
Mg227 O226 2.028 . S
Mg227 O232 2.032 1_556 S
Mg227 O234 2.079 . S
C228 O225 1.250 . S
C228 O226 1.248 1_554 S
C229 O230 1.264 . S
C229 O237 1.249 . S
O230 C229 1.264 . S
O231 Mg224 1.986 . S
O231 C235 1.246 . S
O232 Mg227 2.032 1_554 S
O232 C235 1.259 . S
O233 Mg224 2.114 1_556 S
O233 C236 1.252 . S
O234 Mg224 2.251 1_556 S
O234 Mg227 2.079 . S
O234 C236 1.273 . S
C235 O231 1.246 . S
C235 O232 1.259 . S
C236 O233 1.252 . S
C236 O234 1.273 . S
O237 Mg224 2.010 . S
O237 C229 1.249 . S
Mg238 O239 2.028 . S
Mg238 O245 1.986 . S
Mg238 O247 2.114 1_556 S
Mg238 O248 2.251 1_556 S
Mg238 O251 2.010 . S
O239 Mg238 2.028 . S
O239 C242 1.250 . S
O240 Mg241 2.028 . S
O240 C242 1.248 1_554 S
Mg241 O240 2.028 . S
Mg241 O246 2.032 1_554 S
Mg241 O248 2.079 . S
C242 O239 1.250 . S
C242 O240 1.248 1_556 S
C243 O244 1.264 . S
C243 O251 1.249 . S
O244 C243 1.264 . S
O245 Mg238 1.986 . S
O245 C249 1.246 . S
O246 Mg241 2.032 1_556 S
O246 C249 1.259 . S
O247 Mg238 2.114 1_554 S
O247 C250 1.252 . S
O248 Mg238 2.251 1_554 S
O248 Mg241 2.079 . S
O248 C250 1.273 . S
C249 O245 1.246 . S
C249 O246 1.259 . S
C250 O247 1.252 . S
C250 O248 1.273 . S
O251 Mg238 2.010 . S
O251 C243 1.249 . S
Mg252 O253 2.028 . S
Mg252 O259 1.986 . S
Mg252 O261 2.114 . S
Mg252 O262 2.251 . S
Mg252 O265 2.010 . S
O253 Mg252 2.028 . S
O253 C256 1.250 1_556 S
O254 Mg255 2.028 . S
O254 C256 1.248 . S
Mg255 O254 2.028 . S
Mg255 O260 2.032 1_554 S
Mg255 O262 2.079 1_554 S
C256 O253 1.250 1_554 S
C256 O254 1.248 . S
C257 O258 1.264 . S
C257 O265 1.249 . S
O258 C257 1.264 . S
O259 Mg252 1.986 . S
O259 C263 1.246 . S
O260 Mg255 2.032 1_556 S
O260 C263 1.259 . S
O261 Mg252 2.114 . S
O261 C264 1.252 . S
O262 Mg252 2.251 . S
O262 Mg255 2.079 1_556 S
O262 C264 1.273 . S
C263 O259 1.246 . S
C263 O260 1.259 . S
C264 O261 1.252 . S
C264 O262 1.273 . S
O265 Mg252 2.010 . S
O265 C257 1.249 . S
Mg266 O267 2.028 . S
Mg266 O273 1.986 . S
Mg266 O275 2.114 1_556 S
Mg266 O276 2.251 1_556 S
Mg266 O279 2.010 . S
O267 Mg266 2.028 . S
O267 C270 1.250 . S
O268 Mg269 2.028 . S
O268 C270 1.248 1_554 S
Mg269 O268 2.028 . S
Mg269 O274 2.032 1_554 S
Mg269 O276 2.079 . S
C270 O267 1.250 . S
C270 O268 1.248 1_556 S
C271 O272 1.264 . S
C271 O279 1.249 . S
O272 C271 1.264 . S
O273 Mg266 1.986 . S
O273 C277 1.246 . S
O274 Mg269 2.032 1_556 S
O274 C277 1.259 . S
O275 Mg266 2.114 1_554 S
O275 C278 1.252 . S
O276 Mg266 2.251 1_554 S
O276 Mg269 2.079 . S
O276 C278 1.273 . S
C277 O273 1.246 . S
C277 O274 1.259 . S
C278 O275 1.252 . S
C278 O276 1.273 . S
O279 Mg266 2.010 . S
O279 C271 1.249 . S
Mg280 O281 2.028 . S
Mg280 O287 1.986 . S
Mg280 O289 2.114 . S
Mg280 O290 2.251 . S
Mg280 O293 2.010 . S
O281 Mg280 2.028 . S
O281 C284 1.250 1_556 S
O282 Mg283 2.028 . S
O282 C284 1.248 . S
Mg283 O282 2.028 . S
Mg283 O288 2.032 1_554 S
Mg283 O290 2.079 1_554 S
C284 O281 1.250 1_554 S
C284 O282 1.248 . S
C285 O286 1.264 . S
C285 O293 1.249 . S
O286 C285 1.264 . S
O287 Mg280 1.986 . S
O287 C291 1.246 . S
O288 Mg283 2.032 1_556 S
O288 C291 1.259 . S
O289 Mg280 2.114 . S
O289 C292 1.252 . S
O290 Mg280 2.251 . S
O290 Mg283 2.079 1_556 S
O290 C292 1.273 . S
C291 O287 1.246 . S
C291 O288 1.259 . S
C292 O289 1.252 . S
C292 O290 1.273 . S
O293 Mg280 2.010 . S
O293 C285 1.249 . S
Mg294 O295 2.028 . S
Mg294 O301 1.986 . S
Mg294 O303 2.114 1_554 S
Mg294 O304 2.251 1_554 S
Mg294 O307 2.010 . S
O295 Mg294 2.028 . S
O295 C298 1.250 . S
O296 Mg297 2.028 . S
O296 C298 1.248 1_556 S
Mg297 O296 2.028 . S
Mg297 O302 2.032 1_556 S
Mg297 O304 2.079 . S
C298 O295 1.250 . S
C298 O296 1.248 1_554 S
C299 O300 1.264 . S
C299 O307 1.249 . S
O300 C299 1.264 . S
O301 Mg294 1.986 . S
O301 C305 1.246 . S
O302 Mg297 2.032 1_554 S
O302 C305 1.259 . S
O303 Mg294 2.114 1_556 S
O303 C306 1.252 . S
O304 Mg294 2.251 1_556 S
O304 Mg297 2.079 . S
O304 C306 1.273 . S
C305 O301 1.246 . S
C305 O302 1.259 . S
C306 O303 1.252 . S
C306 O304 1.273 . S
O307 Mg294 2.010 . S
O307 C299 1.249 . S
Mg308 O309 2.028 . S
Mg308 O315 1.986 . S
Mg308 O317 2.114 . S
Mg308 O318 2.251 . S
Mg308 O321 2.010 . S
O309 Mg308 2.028 . S
O309 C312 1.250 1_554 S
O310 Mg311 2.028 . S
O310 C312 1.248 . S
Mg311 O310 2.028 . S
Mg311 O316 2.032 1_556 S
Mg311 O318 2.079 1_556 S
C312 O309 1.250 1_556 S
C312 O310 1.248 . S
C313 O314 1.264 . S
C313 O321 1.249 . S
O314 C313 1.264 . S
O315 Mg308 1.986 . S
O315 C319 1.246 . S
O316 Mg311 2.032 1_554 S
O316 C319 1.259 . S
O317 Mg308 2.114 . S
O317 C320 1.252 . S
O318 Mg308 2.251 . S
O318 Mg311 2.079 1_554 S
O318 C320 1.273 . S
C319 O315 1.246 . S
C319 O316 1.259 . S
C320 O317 1.252 . S
C320 O318 1.273 . S
O321 Mg308 2.010 . S
O321 C313 1.249 . S
Mg322 O323 2.028 . S
Mg322 O329 1.986 . S
Mg322 O331 2.114 . S
Mg322 O332 2.251 . S
Mg322 O335 2.010 . S
O323 Mg322 2.028 . S
O323 C326 1.250 1_554 S
O324 Mg325 2.028 . S
O324 C326 1.248 . S
Mg325 O324 2.028 . S
Mg325 O330 2.032 1_556 S
Mg325 O332 2.079 1_556 S
C326 O323 1.250 1_556 S
C326 O324 1.248 . S
C327 O328 1.264 . S
C327 O335 1.249 . S
O328 C327 1.264 . S
O329 Mg322 1.986 . S
O329 C333 1.246 . S
O330 Mg325 2.032 1_554 S
O330 C333 1.259 . S
O331 Mg322 2.114 . S
O331 C334 1.252 . S
O332 Mg322 2.251 . S
O332 Mg325 2.079 1_554 S
O332 C334 1.273 . S
C333 O329 1.246 . S
C333 O330 1.259 . S
C334 O331 1.252 . S
C334 O332 1.273 . S
O335 Mg322 2.010 . S
O335 C327 1.249 . S
Mg336 O337 2.028 . S
Mg336 O343 1.986 . S
Mg336 O345 2.114 . S
Mg336 O346 2.251 . S
Mg336 O349 2.010 . S
O337 Mg336 2.028 . S
O337 C340 1.250 . S
O338 Mg339 2.028 . S
O338 C340 1.248 . S
Mg339 O338 2.028 . S
Mg339 O344 2.032 . S
Mg339 O346 2.079 . S
C340 O337 1.250 . S
C340 O338 1.248 . S
C341 O342 1.264 . S
C341 O349 1.249 . S
O342 C341 1.264 . S
O343 Mg336 1.986 . S
O343 C347 1.246 . S
O344 Mg339 2.032 . S
O344 C347 1.259 . S
O345 Mg336 2.114 . S
O345 C348 1.252 . S
O346 Mg336 2.251 . S
O346 Mg339 2.079 . S
O346 C348 1.273 . S
C347 O343 1.246 . S
C347 O344 1.259 . S
C348 O345 1.252 . S
C348 O346 1.273 . S
O349 Mg336 2.010 . S
O349 C341 1.249 . S
Mg350 O351 2.028 . S
Mg350 O357 1.986 . S
Mg350 O359 2.114 . S
Mg350 O360 2.251 . S
Mg350 O363 2.010 . S
O351 Mg350 2.028 . S
O351 C354 1.250 . S
O352 Mg353 2.028 . S
O352 C354 1.248 . S
Mg353 O352 2.028 . S
Mg353 O358 2.032 . S
Mg353 O360 2.079 . S
C354 O351 1.250 . S
C354 O352 1.248 . S
C355 O356 1.264 . S
C355 O363 1.249 . S
O356 C355 1.264 . S
O357 Mg350 1.986 . S
O357 C361 1.246 . S
O358 Mg353 2.032 . S
O358 C361 1.259 . S
O359 Mg350 2.114 . S
O359 C362 1.252 . S
O360 Mg350 2.251 . S
O360 Mg353 2.079 . S
O360 C362 1.273 . S
C361 O357 1.246 . S
C361 O358 1.259 . S
C362 O359 1.252 . S
C362 O360 1.273 . S
O363 Mg350 2.010 . S
O363 C355 1.249 . S
Mg364 O365 2.028 . S
Mg364 O371 1.986 . S
Mg364 O373 2.114 . S
Mg364 O374 2.251 . S
Mg364 O377 2.010 . S
O365 Mg364 2.028 . S
O365 C368 1.250 . S
O366 Mg367 2.028 . S
O366 C368 1.248 . S
Mg367 O366 2.028 . S
Mg367 O372 2.032 . S
Mg367 O374 2.079 . S
C368 O365 1.250 . S
C368 O366 1.248 . S
C369 O370 1.264 . S
C369 O377 1.249 . S
O370 C369 1.264 . S
O371 Mg364 1.986 . S
O371 C375 1.246 . S
O372 Mg367 2.032 . S
O372 C375 1.259 . S
O373 Mg364 2.114 . S
O373 C376 1.252 . S
O374 Mg364 2.251 . S
O374 Mg367 2.079 . S
O374 C376 1.273 . S
C375 O371 1.246 . S
C375 O372 1.259 . S
C376 O373 1.252 . S
C376 O374 1.273 . S
O377 Mg364 2.010 . S
O377 C369 1.249 . S
Mg378 O379 2.028 . S
Mg378 O385 1.986 . S
Mg378 O387 2.114 . S
Mg378 O388 2.251 . S
Mg378 O391 2.010 . S
O379 Mg378 2.028 . S
O379 C382 1.250 . S
O380 Mg381 2.028 . S
O380 C382 1.248 . S
Mg381 O380 2.028 . S
Mg381 O386 2.032 . S
Mg381 O388 2.079 . S
C382 O379 1.250 . S
C382 O380 1.248 . S
C383 O384 1.264 . S
C383 O391 1.249 . S
O384 C383 1.264 . S
O385 Mg378 1.986 . S
O385 C389 1.246 . S
O386 Mg381 2.032 . S
O386 C389 1.259 . S
O387 Mg378 2.114 . S
O387 C390 1.252 . S
O388 Mg378 2.251 . S
O388 Mg381 2.079 . S
O388 C390 1.273 . S
C389 O385 1.246 . S
C389 O386 1.259 . S
C390 O387 1.252 . S
C390 O388 1.273 . S
O391 Mg378 2.010 . S
O391 C383 1.249 . S
Mg392 O393 2.028 . S
Mg392 O399 1.986 . S
Mg392 O401 2.114 . S
Mg392 O402 2.251 . S
Mg392 O405 2.010 . S
O393 Mg392 2.028 . S
O393 C396 1.250 . S
O394 Mg395 2.028 . S
O394 C396 1.248 . S
Mg395 O394 2.028 . S
Mg395 O400 2.032 . S
Mg395 O402 2.079 . S
C396 O393 1.250 . S
C396 O394 1.248 . S
C397 O398 1.264 . S
C397 O405 1.249 . S
O398 C397 1.264 . S
O399 Mg392 1.986 . S
O399 C403 1.246 . S
O400 Mg395 2.032 . S
O400 C403 1.259 . S
O401 Mg392 2.114 . S
O401 C404 1.252 . S
O402 Mg392 2.251 . S
O402 Mg395 2.079 . S
O402 C404 1.273 . S
C403 O399 1.246 . S
C403 O400 1.259 . S
C404 O401 1.252 . S
C404 O402 1.273 . S
O405 Mg392 2.010 . S
O405 C397 1.249 . S
Mg406 O407 2.028 . S
Mg406 O413 1.986 . S
Mg406 O415 2.114 . S
Mg406 O416 2.251 . S
Mg406 O419 2.010 . S
O407 Mg406 2.028 . S
O407 C410 1.250 . S
O408 Mg409 2.028 . S
O408 C410 1.248 . S
Mg409 O408 2.028 . S
Mg409 O414 2.032 . S
Mg409 O416 2.079 . S
C410 O407 1.250 . S
C410 O408 1.248 . S
C411 O412 1.264 . S
C411 O419 1.249 . S
O412 C411 1.264 . S
O413 Mg406 1.986 . S
O413 C417 1.246 . S
O414 Mg409 2.032 . S
O414 C417 1.259 . S
O415 Mg406 2.114 . S
O415 C418 1.252 . S
O416 Mg406 2.251 . S
O416 Mg409 2.079 . S
O416 C418 1.273 . S
C417 O413 1.246 . S
C417 O414 1.259 . S
C418 O415 1.252 . S
C418 O416 1.273 . S
O419 Mg406 2.010 . S
O419 C411 1.249 . S
Mg420 O421 2.028 . S
Mg420 O427 1.986 . S
Mg420 O429 2.114 . S
Mg420 O430 2.251 . S
Mg420 O433 2.010 . S
O421 Mg420 2.028 . S
O421 C424 1.250 . S
O422 Mg423 2.028 . S
O422 C424 1.248 . S
Mg423 O422 2.028 . S
Mg423 O428 2.032 . S
Mg423 O430 2.079 . S
C424 O421 1.250 . S
C424 O422 1.248 . S
C425 O426 1.264 . S
C425 O433 1.249 . S
O426 C425 1.264 . S
O427 Mg420 1.986 . S
O427 C431 1.246 . S
O428 Mg423 2.032 . S
O428 C431 1.259 . S
O429 Mg420 2.114 . S
O429 C432 1.252 . S
O430 Mg420 2.251 . S
O430 Mg423 2.079 . S
O430 C432 1.273 . S
C431 O427 1.246 . S
C431 O428 1.259 . S
C432 O429 1.252 . S
C432 O430 1.273 . S
O433 Mg420 2.010 . S
O433 C425 1.249 . S
Mg434 O435 2.028 . S
Mg434 O441 1.986 . S
Mg434 O443 2.114 . S
Mg434 O444 2.251 . S
Mg434 O447 2.010 . S
O435 Mg434 2.028 . S
O435 C438 1.250 . S
O436 Mg437 2.028 . S
O436 C438 1.248 . S
Mg437 O436 2.028 . S
Mg437 O442 2.032 . S
Mg437 O444 2.079 . S
C438 O435 1.250 . S
C438 O436 1.248 . S
C439 O440 1.264 . S
C439 O447 1.249 . S
O440 C439 1.264 . S
O441 Mg434 1.986 . S
O441 C445 1.246 . S
O442 Mg437 2.032 . S
O442 C445 1.259 . S
O443 Mg434 2.114 . S
O443 C446 1.252 . S
O444 Mg434 2.251 . S
O444 Mg437 2.079 . S
O444 C446 1.273 . S
C445 O441 1.246 . S
C445 O442 1.259 . S
C446 O443 1.252 . S
C446 O444 1.273 . S
O447 Mg434 2.010 . S
O447 C439 1.249 . S
Mg448 O449 2.028 . S
Mg448 O455 1.986 . S
Mg448 O457 2.114 . S
Mg448 O458 2.251 . S
Mg448 O461 2.010 . S
O449 Mg448 2.028 . S
O449 C452 1.250 . S
O450 Mg451 2.028 . S
O450 C452 1.248 . S
Mg451 O450 2.028 . S
Mg451 O456 2.032 . S
Mg451 O458 2.079 . S
C452 O449 1.250 . S
C452 O450 1.248 . S
C453 O454 1.264 . S
C453 O461 1.249 . S
O454 C453 1.264 . S
O455 Mg448 1.986 . S
O455 C459 1.246 . S
O456 Mg451 2.032 . S
O456 C459 1.259 . S
O457 Mg448 2.114 . S
O457 C460 1.252 . S
O458 Mg448 2.251 . S
O458 Mg451 2.079 . S
O458 C460 1.273 . S
C459 O455 1.246 . S
C459 O456 1.259 . S
C460 O457 1.252 . S
C460 O458 1.273 . S
O461 Mg448 2.010 . S
O461 C453 1.249 . S
Mg462 O463 2.028 . S
Mg462 O469 1.986 . S
Mg462 O471 2.114 . S
Mg462 O472 2.251 . S
Mg462 O475 2.010 . S
O463 Mg462 2.028 . S
O463 C466 1.250 . S
O464 Mg465 2.028 . S
O464 C466 1.248 . S
Mg465 O464 2.028 . S
Mg465 O470 2.032 . S
Mg465 O472 2.079 . S
C466 O463 1.250 . S
C466 O464 1.248 . S
C467 O468 1.264 . S
C467 O475 1.249 . S
O468 C467 1.264 . S
O469 Mg462 1.986 . S
O469 C473 1.246 . S
O470 Mg465 2.032 . S
O470 C473 1.259 . S
O471 Mg462 2.114 . S
O471 C474 1.252 . S
O472 Mg462 2.251 . S
O472 Mg465 2.079 . S
O472 C474 1.273 . S
C473 O469 1.246 . S
C473 O470 1.259 . S
C474 O471 1.252 . S
C474 O472 1.273 . S
O475 Mg462 2.010 . S
O475 C467 1.249 . S
Mg476 O477 2.028 . S
Mg476 O483 1.986 . S
Mg476 O485 2.114 . S
Mg476 O486 2.251 . S
Mg476 O489 2.010 . S
O477 Mg476 2.028 . S
O477 C480 1.250 . S
O478 Mg479 2.028 . S
O478 C480 1.248 . S
Mg479 O478 2.028 . S
Mg479 O484 2.032 . S
Mg479 O486 2.079 . S
C480 O477 1.250 . S
C480 O478 1.248 . S
C481 O482 1.264 . S
C481 O489 1.249 . S
O482 C481 1.264 . S
O483 Mg476 1.986 . S
O483 C487 1.246 . S
O484 Mg479 2.032 . S
O484 C487 1.259 . S
O485 Mg476 2.114 . S
O485 C488 1.252 . S
O486 Mg476 2.251 . S
O486 Mg479 2.079 . S
O486 C488 1.273 . S
C487 O483 1.246 . S
C487 O484 1.259 . S
C488 O485 1.252 . S
C488 O486 1.273 . S
O489 Mg476 2.010 . S
O489 C481 1.249 . S
Mg490 O491 2.028 . S
Mg490 O497 1.986 . S
Mg490 O499 2.114 . S
Mg490 O500 2.251 . S
Mg490 O503 2.010 . S
O491 Mg490 2.028 . S
O491 C494 1.250 . S
O492 Mg493 2.028 . S
O492 C494 1.248 . S
Mg493 O492 2.028 . S
Mg493 O498 2.032 . S
Mg493 O500 2.079 . S
C494 O491 1.250 . S
C494 O492 1.248 . S
C495 O496 1.264 . S
C495 O503 1.249 . S
O496 C495 1.264 . S
O497 Mg490 1.986 . S
O497 C501 1.246 . S
O498 Mg493 2.032 . S
O498 C501 1.259 . S
O499 Mg490 2.114 . S
O499 C502 1.252 . S
O500 Mg490 2.251 . S
O500 Mg493 2.079 . S
O500 C502 1.273 . S
C501 O497 1.246 . S
C501 O498 1.259 . S
C502 O499 1.252 . S
C502 O500 1.273 . S
O503 Mg490 2.010 . S
O503 C495 1.249 . S
Mg504 O505 2.028 . S
Mg504 O511 1.986 . S
Mg504 O513 2.114 . S
Mg504 O514 2.251 . S
Mg504 O517 2.010 . S
O505 Mg504 2.028 . S
O505 C508 1.250 . S
O506 Mg507 2.028 . S
O506 C508 1.248 . S
Mg507 O506 2.028 . S
Mg507 O512 2.032 . S
Mg507 O514 2.079 . S
C508 O505 1.250 . S
C508 O506 1.248 . S
C509 O510 1.264 . S
C509 O517 1.249 . S
O510 C509 1.264 . S
O511 Mg504 1.986 . S
O511 C515 1.246 . S
O512 Mg507 2.032 . S
O512 C515 1.259 . S
O513 Mg504 2.114 . S
O513 C516 1.252 . S
O514 Mg504 2.251 . S
O514 Mg507 2.079 . S
O514 C516 1.273 . S
C515 O511 1.246 . S
C515 O512 1.259 . S
C516 O513 1.252 . S
C516 O514 1.273 . S
O517 Mg504 2.010 . S
O517 C509 1.249 . S
Mg518 O519 2.028 . S
Mg518 O525 1.986 . S
Mg518 O527 2.114 . S
Mg518 O528 2.251 . S
Mg518 O531 2.010 . S
O519 Mg518 2.028 . S
O519 C522 1.250 . S
O520 Mg521 2.028 . S
O520 C522 1.248 . S
Mg521 O520 2.028 . S
Mg521 O526 2.032 . S
Mg521 O528 2.079 . S
C522 O519 1.250 . S
C522 O520 1.248 . S
C523 O524 1.264 . S
C523 O531 1.249 . S
O524 C523 1.264 . S
O525 Mg518 1.986 . S
O525 C529 1.246 . S
O526 Mg521 2.032 . S
O526 C529 1.259 . S
O527 Mg518 2.114 . S
O527 C530 1.252 . S
O528 Mg518 2.251 . S
O528 Mg521 2.079 . S
O528 C530 1.273 . S
C529 O525 1.246 . S
C529 O526 1.259 . S
C530 O527 1.252 . S
C530 O528 1.273 . S
O531 Mg518 2.010 . S
O531 C523 1.249 . S
Mg532 O533 2.028 . S
Mg532 O539 1.986 . S
Mg532 O541 2.114 . S
Mg532 O542 2.251 . S
Mg532 O545 2.010 . S
O533 Mg532 2.028 . S
O533 C536 1.250 . S
O534 Mg535 2.028 . S
O534 C536 1.248 . S
Mg535 O534 2.028 . S
Mg535 O540 2.032 . S
Mg535 O542 2.079 . S
C536 O533 1.250 . S
C536 O534 1.248 . S
C537 O538 1.264 . S
C537 O545 1.249 . S
O538 C537 1.264 . S
O539 Mg532 1.986 . S
O539 C543 1.246 . S
O540 Mg535 2.032 . S
O540 C543 1.259 . S
O541 Mg532 2.114 . S
O541 C544 1.252 . S
O542 Mg532 2.251 . S
O542 Mg535 2.079 . S
O542 C544 1.273 . S
C543 O539 1.246 . S
C543 O540 1.259 . S
C544 O541 1.252 . S
C544 O542 1.273 . S
O545 Mg532 2.010 . S
O545 C537 1.249 . S
Mg546 O547 2.028 . S
Mg546 O553 1.986 . S
Mg546 O555 2.114 . S
Mg546 O556 2.251 . S
Mg546 O559 2.010 . S
O547 Mg546 2.028 . S
O547 C550 1.250 . S
O548 Mg549 2.028 . S
O548 C550 1.248 . S
Mg549 O548 2.028 . S
Mg549 O554 2.032 . S
Mg549 O556 2.079 . S
C550 O547 1.250 . S
C550 O548 1.248 . S
C551 O552 1.264 . S
C551 O559 1.249 . S
O552 C551 1.264 . S
O553 Mg546 1.986 . S
O553 C557 1.246 . S
O554 Mg549 2.032 . S
O554 C557 1.259 . S
O555 Mg546 2.114 . S
O555 C558 1.252 . S
O556 Mg546 2.251 . S
O556 Mg549 2.079 . S
O556 C558 1.273 . S
C557 O553 1.246 . S
C557 O554 1.259 . S
C558 O555 1.252 . S
C558 O556 1.273 . S
O559 Mg546 2.010 . S
O559 C551 1.249 . S
Mg560 O561 2.028 . S
Mg560 O567 1.986 . S
Mg560 O569 2.114 . S
Mg560 O570 2.251 . S
Mg560 O573 2.010 . S
O561 Mg560 2.028 . S
O561 C564 1.250 . S
O562 Mg563 2.028 . S
O562 C564 1.248 . S
Mg563 O562 2.028 . S
Mg563 O568 2.032 . S
Mg563 O570 2.079 . S
C564 O561 1.250 . S
C564 O562 1.248 . S
C565 O566 1.264 . S
C565 O573 1.249 . S
O566 C565 1.264 . S
O567 Mg560 1.986 . S
O567 C571 1.246 . S
O568 Mg563 2.032 . S
O568 C571 1.259 . S
O569 Mg560 2.114 . S
O569 C572 1.252 . S
O570 Mg560 2.251 . S
O570 Mg563 2.079 . S
O570 C572 1.273 . S
C571 O567 1.246 . S
C571 O568 1.259 . S
C572 O569 1.252 . S
C572 O570 1.273 . S
O573 Mg560 2.010 . S
O573 C565 1.249 . S
Mg574 O575 2.028 . S
Mg574 O581 1.986 . S
Mg574 O583 2.114 . S
Mg574 O584 2.251 . S
Mg574 O587 2.010 . S
O575 Mg574 2.028 . S
O575 C578 1.250 . S
O576 Mg577 2.028 . S
O576 C578 1.248 . S
Mg577 O576 2.028 . S
Mg577 O582 2.032 . S
Mg577 O584 2.079 . S
C578 O575 1.250 . S
C578 O576 1.248 . S
C579 O580 1.264 . S
C579 O587 1.249 . S
O580 C579 1.264 . S
O581 Mg574 1.986 . S
O581 C585 1.246 . S
O582 Mg577 2.032 . S
O582 C585 1.259 . S
O583 Mg574 2.114 . S
O583 C586 1.252 . S
O584 Mg574 2.251 . S
O584 Mg577 2.079 . S
O584 C586 1.273 . S
C585 O581 1.246 . S
C585 O582 1.259 . S
C586 O583 1.252 . S
C586 O584 1.273 . S
O587 Mg574 2.010 . S
O587 C579 1.249 . S
Mg588 O589 2.028 . S
Mg588 O595 1.986 . S
Mg588 O597 2.114 . S
Mg588 O598 2.251 . S
Mg588 O601 2.010 . S
O589 Mg588 2.028 . S
O589 C592 1.250 . S
O590 Mg591 2.028 . S
O590 C592 1.248 . S
Mg591 O590 2.028 . S
Mg591 O596 2.032 . S
Mg591 O598 2.079 . S
C592 O589 1.250 . S
C592 O590 1.248 . S
C593 O594 1.264 . S
C593 O601 1.249 . S
O594 C593 1.264 . S
O595 Mg588 1.986 . S
O595 C599 1.246 . S
O596 Mg591 2.032 . S
O596 C599 1.259 . S
O597 Mg588 2.114 . S
O597 C600 1.252 . S
O598 Mg588 2.251 . S
O598 Mg591 2.079 . S
O598 C600 1.273 . S
C599 O595 1.246 . S
C599 O596 1.259 . S
C600 O597 1.252 . S
C600 O598 1.273 . S
O601 Mg588 2.010 . S
O601 C593 1.249 . S
Mg602 O603 2.028 . S
Mg602 O609 1.986 . S
Mg602 O611 2.114 . S
Mg602 O612 2.251 . S
Mg602 O615 2.010 . S
O603 Mg602 2.028 . S
O603 C606 1.250 . S
O604 Mg605 2.028 . S
O604 C606 1.248 . S
Mg605 O604 2.028 . S
Mg605 O610 2.032 . S
Mg605 O612 2.079 . S
C606 O603 1.250 . S
C606 O604 1.248 . S
C607 O608 1.264 . S
C607 O615 1.249 . S
O608 C607 1.264 . S
O609 Mg602 1.986 . S
O609 C613 1.246 . S
O610 Mg605 2.032 . S
O610 C613 1.259 . S
O611 Mg602 2.114 . S
O611 C614 1.252 . S
O612 Mg602 2.251 . S
O612 Mg605 2.079 . S
O612 C614 1.273 . S
C613 O609 1.246 . S
C613 O610 1.259 . S
C614 O611 1.252 . S
C614 O612 1.273 . S
O615 Mg602 2.010 . S
O615 C607 1.249 . S
Mg616 O617 2.028 . S
Mg616 O623 1.986 . S
Mg616 O625 2.114 . S
Mg616 O626 2.251 . S
Mg616 O629 2.010 . S
O617 Mg616 2.028 . S
O617 C620 1.250 . S
O618 Mg619 2.028 . S
O618 C620 1.248 . S
Mg619 O618 2.028 . S
Mg619 O624 2.032 . S
Mg619 O626 2.079 . S
C620 O617 1.250 . S
C620 O618 1.248 . S
C621 O622 1.264 . S
C621 O629 1.249 . S
O622 C621 1.264 . S
O623 Mg616 1.986 . S
O623 C627 1.246 . S
O624 Mg619 2.032 . S
O624 C627 1.259 . S
O625 Mg616 2.114 . S
O625 C628 1.252 . S
O626 Mg616 2.251 . S
O626 Mg619 2.079 . S
O626 C628 1.273 . S
C627 O623 1.246 . S
C627 O624 1.259 . S
C628 O625 1.252 . S
C628 O626 1.273 . S
O629 Mg616 2.010 . S
O629 C621 1.249 . S
Mg630 O631 2.028 . S
Mg630 O637 1.986 . S
Mg630 O639 2.114 . S
Mg630 O640 2.251 . S
Mg630 O643 2.010 . S
O631 Mg630 2.028 . S
O631 C634 1.250 . S
O632 Mg633 2.028 . S
O632 C634 1.248 . S
Mg633 O632 2.028 . S
Mg633 O638 2.032 . S
Mg633 O640 2.079 . S
C634 O631 1.250 . S
C634 O632 1.248 . S
C635 O636 1.264 . S
C635 O643 1.249 . S
O636 C635 1.264 . S
O637 Mg630 1.986 . S
O637 C641 1.246 . S
O638 Mg633 2.032 . S
O638 C641 1.259 . S
O639 Mg630 2.114 . S
O639 C642 1.252 . S
O640 Mg630 2.251 . S
O640 Mg633 2.079 . S
O640 C642 1.273 . S
C641 O637 1.246 . S
C641 O638 1.259 . S
C642 O639 1.252 . S
C642 O640 1.273 . S
O643 Mg630 2.010 . S
O643 C635 1.249 . S
Mg644 O645 2.028 . S
Mg644 O651 1.986 . S
Mg644 O653 2.114 . S
Mg644 O654 2.251 . S
Mg644 O657 2.010 . S
O645 Mg644 2.028 . S
O645 C648 1.250 . S
O646 Mg647 2.028 . S
O646 C648 1.248 . S
Mg647 O646 2.028 . S
Mg647 O652 2.032 . S
Mg647 O654 2.079 . S
C648 O645 1.250 . S
C648 O646 1.248 . S
C649 O650 1.264 . S
C649 O657 1.249 . S
O650 C649 1.264 . S
O651 Mg644 1.986 . S
O651 C655 1.246 . S
O652 Mg647 2.032 . S
O652 C655 1.259 . S
O653 Mg644 2.114 . S
O653 C656 1.252 . S
O654 Mg644 2.251 . S
O654 Mg647 2.079 . S
O654 C656 1.273 . S
C655 O651 1.246 . S
C655 O652 1.259 . S
C656 O653 1.252 . S
C656 O654 1.273 . S
O657 Mg644 2.010 . S
O657 C649 1.249 . S
Mg658 O659 2.028 . S
Mg658 O665 1.986 . S
Mg658 O667 2.114 . S
Mg658 O668 2.251 . S
Mg658 O671 2.010 . S
O659 Mg658 2.028 . S
O659 C662 1.250 . S
O660 Mg661 2.028 . S
O660 C662 1.248 . S
Mg661 O660 2.028 . S
Mg661 O666 2.032 . S
Mg661 O668 2.079 . S
C662 O659 1.250 . S
C662 O660 1.248 . S
C663 O664 1.264 . S
C663 O671 1.249 . S
O664 C663 1.264 . S
O665 Mg658 1.986 . S
O665 C669 1.246 . S
O666 Mg661 2.032 . S
O666 C669 1.259 . S
O667 Mg658 2.114 . S
O667 C670 1.252 . S
O668 Mg658 2.251 . S
O668 Mg661 2.079 . S
O668 C670 1.273 . S
C669 O665 1.246 . S
C669 O666 1.259 . S
C670 O667 1.252 . S
C670 O668 1.273 . S
O671 Mg658 2.010 . S
O671 C663 1.249 . S
C439 C11 1.150 . S
C19 C403 1.150 . S
C39 C411 1.150 . S
C431 C47 1.150 . S
C355 C67 1.150 . S
C75 C375 1.150 . S
C383 C95 1.150 . S
C103 C347 1.150 . S
C123 C627 1.438 . S
C579 C137 1.150 . S
C599 C151 1.438 . S
C165 C607 1.150 . S
C179 C669 1.438 . S
C193 C635 1.150 . S
C207 C655 1.438 . S
C565 C221 1.150 . S
C557 C229 1.150 . S
C243 C473 1.150 . S
C487 C263 1.438 . S
C271 C501 1.150 . S
C459 C291 1.438 . S
C529 C299 1.150 . S
C319 C543 1.438 . S
C515 C333 1.438 . S
C138 C12 1.480 1_655 S
C152 C18 1.399 1_565 S
C40 C166 1.480 1_655 S
C124 C46 1.399 1_545 S
C68 C222 1.480 1_455 S
C180 C74 1.399 1_565 S
C194 C96 1.479 1_455 S
C208 C102 1.399 1_545 S
C264 C228 1.399 1_556 S
C320 C242 1.399 1_554 S
C334 C270 1.399 1_554 S
C292 C298 1.399 1_556 S
C474 C348 1.480 . S
C488 C354 1.399 . S
C502 C376 1.480 . S
C382 C460 1.399 . S
C404 C558 1.480 . S
C410 C516 1.399 . S
C530 C432 1.479 . S
C544 C438 1.399 . S
C564 C600 1.399 . S
C656 C578 1.399 . S
C670 C606 1.399 . S
C634 C628 1.399 . S
C5 C256 1.690 . S
C25 C278 2.075 . S
C33 C284 1.690 . S
C250 C53 2.075 . S
C61 C312 1.690 . S
C81 C236 2.075 . S
C326 C89 1.690 . S
C306 C109 2.075 . S
C117 C130 1.775 . S
C131 C144 1.690 . S
C145 C158 1.775 . S
C116 C159 1.690 . S
C214 C173 1.775 . S
C172 C187 1.690 . S
C186 C201 1.775 . S
C215 C200 1.690 . S
C54 C235 2.075 . S
C82 C249 2.075 . S
C88 C257 1.775 . S
C277 C110 2.075 . S
C60 C285 1.775 . S
C26 C305 2.075 . S
C32 C313 1.775 . S
C4 C327 1.775 . S
C592 C341 1.690 . S
C361 C614 2.075 . S
C620 C369 1.690 . S
C586 C389 2.075 . S
C397 C648 1.690 . S
C417 C572 2.075 . S
C662 C425 1.690 . S
C445 C642 2.075 . S
C453 C466 1.775 . S
C467 C480 1.690 . S
C481 C494 1.775 . S
C495 C452 1.690 . S
C550 C509 1.775 . S
C508 C523 1.690 . S
C522 C537 1.775 . S
C551 C536 1.690 . S
C390 C571 2.075 . S
C418 C585 2.075 . S
C424 C593 1.775 . S
C613 C446 2.075 . S
C396 C621 1.775 . S
C362 C641 2.075 . S
C649 C368 1.775 . S
C340 C663 1.775 . S
