# Generated by pormake.
# Topology rob, (6)-cn, num edge types: 1
# Building blocks:
#     Node 0, Type 0, BuildingBlock: PAMTOO_clean_sbu_0, # of connection points: 6
#     Node 1, Type 0, BuildingBlock: PAMTOO_clean_sbu_0, # of connection points: 6
#     Node 2, Type 0, BuildingBlock: PAMTOO_clean_sbu_0, # of connection points: 6
#     Node 3, Type 0, BuildingBlock: PAMTOO_clean_sbu_0, # of connection points: 6
#     Edge 4, Type (0, 0), BuildingBlock: ZUJKAS_clean_linker_0, # of connection points: 2
#     Edge 5, Type (0, 0), BuildingBlock: ZUJKAS_clean_linker_0, # of connection points: 2
#     Edge 6, Type (0, 0), BuildingBlock: ZUJKAS_clean_linker_0, # of connection points: 2
#     Edge 7, Type (0, 0), BuildingBlock: ZUJKAS_clean_linker_0, # of connection points: 2
#     Edge 8, Type (0, 0), BuildingBlock: ZUJKAS_clean_linker_0, # of connection points: 2
#     Edge 9, Type (0, 0), BuildingBlock: ZUJKAS_clean_linker_0, # of connection points: 2
#     Edge 10, Type (0, 0), BuildingBlock: ZUJKAS_clean_linker_0, # of connection points: 2
#     Edge 11, Type (0, 0), BuildingBlock: ZUJKAS_clean_linker_0, # of connection points: 2
#     Edge 12, Type (0, 0), BuildingBlock: ZUJKAS_clean_linker_0, # of connection points: 2
#     Edge 13, Type (0, 0), BuildingBlock: ZUJKAS_clean_linker_0, # of connection points: 2
#     Edge 14, Type (0, 0), BuildingBlock: ZUJKAS_clean_linker_0, # of connection points: 2
#     Edge 15, Type (0, 0), BuildingBlock: ZUJKAS_clean_linker_0, # of connection points: 2
# Relax obj value: 0.074
# Max RMSD: 0.185
# Mean RMSD: 0.185
data_MOF--net-rob--node1-PAMTOO_clean_sbu_0--edge1-ZUJKAS_clean_linker_0
_symmetry_space_group_name_H-M    P1
_symmetry_Int_Tables_number       1
_symmetry_cell_setting            triclinic
loop_
_symmetry_equiv_pos_as_xyz
'x, y, z'
_cell_length_a     19.572595
_cell_length_b     34.049791
_cell_length_c     44.399098
_cell_angle_alpha  101.3067
_cell_angle_beta   90.061459
_cell_angle_gamma 90.177741
loop_
_atom_site_label
_atom_site_type_symbol
_atom_site_fract_x
_atom_site_fract_y
_atom_site_fract_z
_atom_type_partial_charge
Dy0 Dy 0.30148 0.22222 0.97628 0.0
Dy1 Dy 0.18317 0.27666 0.01828 0.0
C2 C 0.31211 0.31643 0.99267 0.0
O3 O 0.34166 0.23396 0.02464 0.0
O4 O 0.23951 0.2456 0.05027 0.0
O5 O 0.40593 0.21381 0.96068 0.0
O6 O 0.32848 0.16994 0.94249 0.0
O7 O 0.14158 0.21449 1.00472 0.0
O8 O 0.24209 0.17946 0.99801 0.0
O9 O 0.16812 0.28755 0.97074 0.0
O10 O 0.21337 0.22822 0.94544 0.0
O11 O 0.07766 0.29053 0.03028 0.0
O12 O 0.15905 0.32599 0.05518 0.0
C13 C 0.30502 0.23735 0.0499 0.0
O14 O 0.3168 0.28506 0.97042 0.0
O15 O 0.27424 0.31571 0.01688 0.0
C16 C 0.41191 0.18421 0.90827 0.0
C17 C 0.45144 0.18735 0.84767 0.0
C18 C 0.40011 0.21287 0.86254 0.0
C19 C 0.38055 0.2113 0.89255 0.0
C20 C 0.46293 0.15867 0.89365 0.0
C21 C 0.4826 0.16022 0.8636 0.0
C22 C 0.39081 0.18242 0.93972 0.0
C23 C 0.17595 0.18101 1.00283 0.0
C24 C 0.1764 0.2604 0.94557 0.0
C25 C 0.06392 0.31354 0.0837 0.0
C26 C 0.01751 0.30746 0.14273 0.0
C27 C 0.04327 0.27366 0.12258 0.0
C28 C 0.06661 0.27672 0.09338 0.0
C29 C 0.03739 0.34716 0.10349 0.0
C30 C 0.01439 0.34419 0.13278 0.0
C31 C 0.09397 0.31782 0.05419 0.0
H32 H 0.37569 0.23447 0.85115 0.0
H33 H 0.341 0.23129 0.90355 0.0
H34 H 0.48739 0.13746 0.90542 0.0
H35 H 0.52165 0.13982 0.85271 0.0
H36 H 0.0472 0.24509 0.12971 0.0
H37 H 0.08804 0.25055 0.07858 0.0
H38 H 0.03558 0.37588 0.09648 0.0
H39 H 0.99427 0.37065 0.14767 0.0
Dy40 Dy 0.82592 0.72739 1.00106 0.0
Dy41 Dy 0.69287 0.77036 0.03941 0.0
C42 C 0.82207 0.81976 0.02802 0.0
O43 O 0.83411 0.71009 0.04689 0.0
O44 O 0.77028 0.76136 0.07438 0.0
O45 O 0.92464 0.73413 0.98113 0.0
O46 O 0.87991 0.67516 0.9771 0.0
O47 O 0.68426 0.70451 0.03623 0.0
O48 O 0.73647 0.68642 0.98981 0.0
O49 O 0.663 0.76409 0.98995 0.0
O50 O 0.77031 0.75793 0.96837 0.0
O51 O 0.58608 0.77057 0.05184 0.0
O52 O 0.65249 0.81921 0.07302 0.0
C53 C 0.81376 0.73175 0.07315 0.0
O54 O 0.85714 0.78704 0.02807 0.0
O55 O 0.75543 0.81828 0.02524 0.0
C56 C 0.94218 0.68912 0.93492 0.0
C57 C 0.97179 0.68458 0.87224 0.0
C58 C 0.90408 0.68951 0.88287 0.0
C59 C 0.88945 0.69192 0.91399 0.0
C60 C 0.00937 0.68296 0.92431 0.0
C61 C 0.02411 0.68067 0.89321 0.0
C62 C 0.92842 0.69648 0.96804 0.0
C63 C 0.69401 0.67853 0.01065 0.0
C64 C 0.70427 0.76395 0.96651 0.0
C65 C 0.57088 0.79713 0.10446 0.0
C66 C 0.53336 0.79022 0.16455 0.0
C67 C 0.58452 0.76556 0.14865 0.0
C68 C 0.60312 0.76901 0.1189 0.0
C69 C 0.51964 0.82163 0.12002 0.0
C70 C 0.50091 0.81818 0.14982 0.0
C71 C 0.59309 0.80199 0.0738 0.0
H72 H 0.86281 0.6931 0.86737 0.0
H73 H 0.83728 0.69716 0.92188 0.0
H74 H 0.05069 0.68099 0.9402 0.0
H75 H 0.07663 0.67642 0.88564 0.0
H76 H 0.60992 0.74336 0.1591 0.0
H77 H 0.64303 0.7499 0.10721 0.0
H78 H 0.49469 0.84372 0.10929 0.0
H79 H 0.46194 0.83797 0.16153 0.0
Dy80 Dy 0.3093 0.76433 0.53853 0.0
Dy81 Dy 0.18339 0.7139 0.49865 0.0
C82 C 0.31492 0.67096 0.51777 0.0
O83 O 0.34351 0.75331 0.48934 0.0
O84 O 0.2377 0.74579 0.46647 0.0
O85 O 0.41553 0.76968 0.55212 0.0
O86 O 0.34334 0.8157 0.57173 0.0
O87 O 0.14571 0.77538 0.51828 0.0
O88 O 0.24734 0.80896 0.51998 0.0
O89 O 0.17096 0.70125 0.54576 0.0
O90 O 0.22704 0.75707 0.5719 0.0
O91 O 0.07847 0.70933 0.48299 0.0
O92 O 0.14832 0.66075 0.46745 0.0
C93 C 0.30372 0.75221 0.46525 0.0
O94 O 0.32149 0.70029 0.54152 0.0
O95 O 0.27541 0.67472 0.49467 0.0
C96 C 0.42754 0.79876 0.60445 0.0
C97 C 0.4689 0.79479 0.66467 0.0
C98 C 0.41547 0.77033 0.65027 0.0
C99 C 0.39505 0.77228 0.62043 0.0
C100 C 0.48084 0.82315 0.61857 0.0
C101 C 0.50149 0.82116 0.64843 0.0
C102 C 0.40466 0.80138 0.57339 0.0
C103 C 0.18039 0.80854 0.51874 0.0
C104 C 0.18593 0.72632 0.5714 0.0
C105 C 0.06904 0.67546 0.43171 0.0
C106 C 0.03393 0.67447 0.36996 0.0
C107 C 0.08451 0.70082 0.38473 0.0
C108 C 0.10177 0.70132 0.4153 0.0
C109 C 0.01867 0.64905 0.4172 0.0
C110 C 0.00106 0.6486 0.38655 0.0
C111 C 0.08857 0.67577 0.46371 0.0
H112 H 0.38992 0.74932 0.66193 0.0
H113 H 0.35378 0.75315 0.60981 0.0
H114 H 0.5062 0.84389 0.60658 0.0
H115 H 0.54226 0.84072 0.65897 0.0
H116 H 0.11004 0.72158 0.37282 0.0
H117 H 0.14054 0.72201 0.42619 0.0
H118 H 0.99311 0.62876 0.42953 0.0
H119 H 0.9623 0.62773 0.37575 0.0
Dy120 Dy 0.81586 0.25812 0.51413 0.0
Dy121 Dy 0.6873 0.21095 0.47429 0.0
C122 C 0.8166 0.16479 0.49024 0.0
O123 O 0.82676 0.27339 0.46762 0.0
O124 O 0.76813 0.21919 0.44066 0.0
O125 O 0.91601 0.25573 0.53407 0.0
O126 O 0.86186 0.3119 0.5406 0.0
O127 O 0.67675 0.27613 0.4748 0.0
O128 O 0.72421 0.29754 0.52199 0.0
O129 O 0.65377 0.21897 0.52339 0.0
O130 O 0.75978 0.22684 0.54629 0.0
O131 O 0.58145 0.20783 0.46006 0.0
O132 O 0.65161 0.16069 0.44041 0.0
C133 C 0.80945 0.24988 0.44154 0.0
O134 O 0.85101 0.19785 0.49007 0.0
O135 O 0.74966 0.16506 0.49108 0.0
C136 C 0.92728 0.29844 0.582 0.0
C137 C 0.95784 0.30303 0.64476 0.0
C138 C 0.89504 0.28709 0.63246 0.0
C139 C 0.87991 0.2849 0.6014 0.0
C140 C 0.98916 0.31523 0.59419 0.0
C141 C 0.00427 0.31765 0.62532 0.0
C142 C 0.91399 0.29273 0.54884 0.0
C143 C 0.68397 0.3036 0.49975 0.0
C144 C 0.69379 0.22007 0.54742 0.0
C145 C 0.57193 0.1808 0.40717 0.0
C146 C 0.5403 0.18691 0.34624 0.0
C147 C 0.58392 0.21501 0.36427 0.0
C148 C 0.59976 0.2119 0.39441 0.0
C149 C 0.52824 0.15279 0.38941 0.0
C150 C 0.51254 0.15578 0.35916 0.0
C151 C 0.59165 0.17653 0.43833 0.0
H152 H 0.85837 0.27509 0.64655 0.0
H153 H 0.83185 0.27181 0.59236 0.0
H154 H 0.02628 0.32586 0.57953 0.0
H155 H 0.05259 0.33071 0.63409 0.0
H156 H 0.60689 0.23898 0.35489 0.0
H157 H 0.63442 0.23351 0.40768 0.0
H158 H 0.50671 0.12845 0.39884 0.0
H159 H 0.47828 0.1339 0.34597 0.0
H160 H 0.60194 0.653 0.04877 0.0
H161 H 0.53836 0.59001 0.03984 0.0
H162 H 0.63511 0.55461 0.95151 0.0
H163 H 0.69973 0.61754 0.9603 0.0
H164 H 0.44754 0.56076 0.98993 0.0
H165 H 0.6677 0.45892 0.99478 0.0
H166 H 0.67284 0.51223 0.00935 0.0
H167 H 0.67529 0.49301 0.96872 0.0
C168 C 0.61004 0.63182 0.02747 0.0
C169 C 0.65612 0.64021 1.00528 0.0
C170 C 0.57354 0.59589 0.02241 0.0
C171 C 0.58263 0.56763 0.99518 0.0
C172 C 0.62825 0.57587 0.97288 0.0
H173 H 0.39722 0.32913 0.94655 0.0
H174 H 0.461 0.39028 0.94372 0.0
C175 C 0.66488 0.61188 0.9779 0.0
C176 C 0.54328 0.52985 0.99023 0.0
H177 H 0.55897 0.42911 0.98575 0.0
C178 C 0.47183 0.53191 0.98882 0.0
C179 C 0.57538 0.49236 0.98858 0.0
C180 C 0.65199 0.48874 0.99063 0.0
C181 C 0.43133 0.49742 0.98636 0.0
C182 C 0.46326 0.46013 0.98587 0.0
C183 C 0.53481 0.45784 0.98621 0.0
C184 C 0.42325 0.4236 0.98699 0.0
C185 C 0.35473 0.50122 0.98443 0.0
C186 C 0.38165 0.4221 0.01244 0.0
C187 C 0.34526 0.38735 0.01417 0.0
C188 C 0.35018 0.35332 0.99055 0.0
C189 C 0.39219 0.35486 0.9651 0.0
C190 C 0.42866 0.38971 0.96342 0.0
H191 H 0.33996 0.52864 0.97597 0.0
H192 H 0.33204 0.47475 0.96901 0.0
H193 H 0.3325 0.5033 0.00766 0.0
H194 H 0.37802 0.4477 0.03118 0.0
H195 H 0.31366 0.38714 0.03415 0.0
H196 H 0.39952 0.65198 0.56185 0.0
H197 H 0.46445 0.59019 0.55959 0.0
H198 H 0.38189 0.54333 0.4696 0.0
H199 H 0.31721 0.605 0.47144 0.0
H200 H 0.41364 0.5103 0.55126 0.0
H201 H 0.59046 0.53124 0.45789 0.0
H202 H 0.54014 0.5716 0.4793 0.0
H203 H 0.50147 0.53543 0.44913 0.0
C204 C 0.39526 0.62859 0.54152 0.0
C205 C 0.35347 0.63349 0.51673 0.0
C206 C 0.43234 0.59333 0.54032 0.0
C207 C 0.42863 0.56257 0.51426 0.0
C208 C 0.38634 0.5671 0.48967 0.0
H209 H 0.59812 0.32649 0.45786 0.0
H210 H 0.53618 0.3896 0.46273 0.0
C211 C 0.34917 0.60229 0.49085 0.0
C212 C 0.46807 0.52536 0.51295 0.0
H213 H 0.5922 0.46776 0.47246 0.0
C214 C 0.45303 0.50105 0.5342 0.0
C215 C 0.51932 0.51356 0.49063 0.0
C216 C 0.53941 0.53944 0.46808 0.0
C217 C 0.48681 0.46454 0.5332 0.0
C218 C 0.53758 0.45255 0.51068 0.0
C219 C 0.55306 0.47708 0.48963 0.0
C220 C 0.57465 0.41432 0.50821 0.0
C221 C 0.46665 0.43859 0.55569 0.0
C222 C 0.61725 0.4076 0.5321 0.0
C223 C 0.65276 0.37156 0.52942 0.0
C224 C 0.64644 0.34175 0.50272 0.0
C225 C 0.60401 0.34877 0.47876 0.0
C226 C 0.56861 0.3848 0.48147 0.0
H227 H 0.41656 0.44755 0.56662 0.0
H228 H 0.46384 0.40659 0.54416 0.0
H229 H 0.50576 0.4415 0.57411 0.0
H230 H 0.62347 0.43037 0.55269 0.0
H231 H 0.68526 0.36716 0.54823 0.0
H232 H 0.23084 0.10779 1.00461 0.0
H233 H 0.17056 0.04719 0.01119 0.0
H234 H 0.97867 0.11005 0.01635 0.0
H235 H 0.03856 0.17117 0.01032 0.0
H236 H 0.99416 0.0641 0.06152 0.0
H237 H 0.05479 0.97574 0.94581 0.0
H238 H 0.12845 -0.00363 0.96747 0.0
H239 H 0.06656 0.02932 0.95575 0.0
C240 C 0.17578 0.10878 0.00703 0.0
C241 C 0.13944 0.14426 0.00668 0.0
C242 C 0.14143 0.07405 0.01066 0.0
C243 C 0.07013 0.07403 0.01371 0.0
C244 C 0.03374 0.10947 0.01384 0.0
H245 H 0.76632 0.89365 0.02951 0.0
H246 H 0.82685 0.95622 0.02824 0.0
C247 C 0.06806 0.14431 0.01032 0.0
C248 C 0.0336 0.03707 0.01703 0.0
H249 H 0.00342 0.94051 0.98104 0.0
C250 C 0.99586 0.0371 0.0439 0.0
C251 C 0.03601 0.00199 0.99394 0.0
C252 C 0.07308 0.0008 0.96398 0.0
C253 C 0.96133 0.00261 0.04854 0.0
C254 C 0.96418 0.96751 0.02554 0.0
C255 C 0.00179 0.96751 0.99868 0.0
C256 C 0.9277 0.93046 0.02855 0.0
C257 C 0.9231 0.00372 0.07818 0.0
C258 C 0.96451 0.89532 0.02894 0.0
C259 C 0.93017 0.8595 0.02958 0.0
C260 C 0.85835 0.8582 0.02955 0.0
C261 C 0.82165 0.89366 0.02962 0.0
C262 C 0.8561 0.92949 0.02906 0.0
H263 H 0.93897 0.02958 0.09622 0.0
H264 H 0.86759 0.00648 0.07398 0.0
H265 H 0.93126 0.97567 0.0869 0.0
H266 H 0.01985 0.89553 0.02839 0.0
H267 H 0.95998 0.83273 0.02945 0.0
H268 H 0.76273 0.09079 0.49103 0.0
H269 H 0.82465 0.02985 0.49522 0.0
H270 H 0.01611 0.09302 0.4959 0.0
H271 H 0.95487 0.15404 0.49135 0.0
H272 H 0.0142 0.01665 0.45707 0.0
H273 H 0.91916 0.01163 0.57415 0.0
H274 H 0.85351 0.01441 0.54635 0.0
H275 H 0.91176 0.05564 0.55738 0.0
C276 C 0.81802 0.09173 0.49195 0.0
C277 C 0.85386 0.12734 0.49104 0.0
C278 C 0.85325 0.05694 0.49453 0.0
C279 C 0.92478 0.05723 0.49641 0.0
C280 C 0.96081 0.09235 0.49467 0.0
H281 H 0.23441 0.88231 0.51707 0.0
H282 H 0.17272 0.94284 0.51158 0.0
C283 C 0.92569 0.12716 0.49207 0.0
C284 C 0.96217 0.02091 0.50028 0.0
H285 H 0.98337 0.95586 0.54902 0.0
C286 C 0.00774 0.00338 0.4772 0.0
C287 C 0.9535 0.00384 0.52661 0.0
C288 C 0.90732 0.02247 0.5527 0.0
C289 C 0.04413 0.96867 0.4795 0.0
C290 C 0.03535 0.95157 0.50581 0.0
C291 C 0.98981 0.96911 0.52889 0.0
C292 C 0.07267 0.91527 0.50974 0.0
C293 C 0.09056 0.95009 0.4535 0.0
C294 C 0.03657 0.88014 0.51138 0.0
C295 C 0.07153 0.84556 0.51468 0.0
C296 C 0.14328 0.84563 0.51658 0.0
C297 C 0.17919 0.88118 0.51554 0.0
C298 C 0.14411 0.91574 0.51222 0.0
H299 H 0.07926 0.96115 0.4321 0.0
H300 H 0.14435 0.95792 0.46007 0.0
H301 H 0.08581 0.91694 0.44869 0.0
H302 H 0.98133 0.87935 0.50969 0.0
H303 H 0.04227 0.81873 0.51546 0.0
H304 H 0.53493 0.12657 0.29541 0.0
H305 H 0.50703 0.13187 0.24259 0.0
H306 H 0.48018 0.25936 0.27159 0.0
H307 H 0.50856 0.25433 0.32432 0.0
H308 H 0.39081 0.1563 0.22043 0.0
H309 H 0.60174 0.25491 0.19761 0.0
H310 H 0.60204 0.23038 0.23016 0.0
H311 H 0.55518 0.27614 0.23166 0.0
C312 C 0.5231 0.15573 0.29052 0.0
C313 C 0.52411 0.19005 0.31405 0.0
C314 C 0.50755 0.15875 0.26029 0.0
C315 C 0.49278 0.19612 0.25297 0.0
C316 C 0.49338 0.23038 0.27646 0.0
H317 H 0.2468 0.24805 0.10669 0.0
H318 H 0.29684 0.2357 0.15413 0.0
C319 C 0.50931 0.22743 0.30664 0.0
C320 C 0.47258 0.19898 0.22119 0.0
H321 H 0.5056 0.24919 0.16324 0.0
C322 C 0.41645 0.17628 0.20781 0.0
C323 C 0.50672 0.22449 0.20442 0.0
C324 C 0.57021 0.24753 0.21656 0.0
C325 C 0.39175 0.17965 0.17874 0.0
C326 C 0.42305 0.20714 0.16288 0.0
C327 C 0.48105 0.22854 0.1756 0.0
C328 C 0.39411 0.21543 0.13384 0.0
C329 C 0.33218 0.15374 0.16534 0.0
C330 C 0.43304 0.20953 0.10677 0.0
C331 C 0.40466 0.21693 0.07941 0.0
C332 C 0.33694 0.23051 0.07876 0.0
C333 C 0.29884 0.23718 0.10615 0.0
C334 C 0.32723 0.22992 0.13336 0.0
H335 H 0.32843 0.12627 0.17525 0.0
H336 H 0.28407 0.1708 0.17078 0.0
H337 H 0.33649 0.14475 0.13999 0.0
H338 H 0.48502 0.19868 0.10672 0.0
H339 H 0.43549 0.21162 0.05878 0.0
H340 H 0.40518 0.79281 0.18958 0.0
H341 H 0.37382 0.78725 0.24189 0.0
H342 H 0.58594 0.77283 0.26354 0.0
H343 H 0.61805 0.77966 0.21157 0.0
H344 H 0.39847 0.72271 0.27093 0.0
H345 H 0.52279 0.86176 0.33404 0.0
H346 H 0.50785 0.85273 0.29312 0.0
H347 H 0.57761 0.82857 0.30843 0.0
C348 C 0.4453 0.78905 0.20558 0.0
C349 C 0.51417 0.78686 0.19639 0.0
C350 C 0.42724 0.78562 0.23541 0.0
C351 C 0.47761 0.78016 0.25672 0.0
C352 C 0.54635 0.77773 0.24763 0.0
H353 H 0.43896 0.75211 0.44837 0.0
H354 H 0.48486 0.75778 0.39793 0.0
C355 C 0.5645 0.78116 0.21779 0.0
C356 C 0.45765 0.77578 0.28812 0.0
H357 H 0.47258 0.81918 0.36406 0.0
C358 C 0.41468 0.74379 0.29129 0.0
C359 C 0.47936 0.80314 0.31466 0.0
C360 C 0.524 0.8387 0.31254 0.0
C361 C 0.39252 0.73848 0.32028 0.0
C362 C 0.41287 0.76637 0.34678 0.0
C363 C 0.45706 0.79788 0.3437 0.0
C364 C 0.38597 0.76432 0.37766 0.0
C365 C 0.34785 0.70285 0.32224 0.0
C366 C 0.31549 0.76723 0.38317 0.0
C367 C 0.28926 0.76396 0.41177 0.0
C368 C 0.33298 0.75803 0.43565 0.0
C369 C 0.4039 0.75653 0.43045 0.0
C370 C 0.43018 0.75971 0.40166 0.0
H371 H 0.35382 0.67855 0.3017 0.0
H372 H 0.35987 0.69065 0.34306 0.0
H373 H 0.29351 0.71224 0.32347 0.0
H374 H 0.28059 0.77189 0.36526 0.0
H375 H 0.2345 0.76601 0.41506 0.0
H376 H 0.77538 0.77026 0.91475 0.0
H377 H 0.73001 0.77714 0.86496 0.0
H378 H 0.52468 0.77656 0.9 0.0
H379 H 0.56971 0.77036 0.95035 0.0
H380 H 0.64615 0.72494 0.82709 0.0
H381 H 0.52225 0.87381 0.85935 0.0
H382 H 0.58213 0.85539 0.88421 0.0
H383 H 0.49525 0.83778 0.88154 0.0
C384 C 0.72051 0.77198 0.9121 0.0
C385 C 0.67618 0.76993 0.9367 0.0
C386 C 0.69469 0.77586 0.88352 0.0
C387 C 0.62402 0.77787 0.87882 0.0
C388 C 0.57947 0.77593 0.90328 0.0
H389 H 0.38775 0.78921 0.71395 0.0
H390 H 0.42393 0.78398 0.76583 0.0
C391 C 0.60531 0.77219 0.93202 0.0
C392 C 0.59753 0.78027 0.8479 0.0
H393 H 0.50446 0.83837 0.80843 0.0
C394 C 0.61525 0.74978 0.82301 0.0
C395 C 0.55699 0.81262 0.84264 0.0
C396 C 0.53842 0.84697 0.86827 0.0
C397 C 0.5935 0.7507 0.79303 0.0
C398 C 0.55374 0.78328 0.78771 0.0
C399 C 0.53506 0.81348 0.81261 0.0
C400 C 0.532 0.78679 0.75635 0.0
C401 C 0.61262 0.71654 0.76734 0.0
C402 C 0.58079 0.79065 0.73396 0.0
C403 C 0.56036 0.79346 0.70428 0.0
C404 C 0.49064 0.79261 0.69642 0.0
C405 C 0.44187 0.78934 0.71909 0.0
C406 C 0.46238 0.78662 0.7488 0.0
H407 H 0.62758 0.68943 0.77616 0.0
H408 H 0.56962 0.70862 0.75091 0.0
H409 H 0.65678 0.72569 0.75462 0.0
H410 H 0.63477 0.79148 0.73946 0.0
H411 H 0.59924 0.79567 0.68735 0.0
H412 H 0.55847 0.21828 0.56376 0.0
H413 H 0.51221 0.21278 0.61412 0.0
H414 H 0.71658 0.20228 0.64798 0.0
H415 H 0.76313 0.20826 0.59824 0.0
H416 H 0.52466 0.15297 0.64848 0.0
H417 H 0.64027 0.29462 0.71077 0.0
H418 H 0.63616 0.28193 0.66939 0.0
H419 H 0.70171 0.26095 0.68983 0.0
C420 C 0.59352 0.21468 0.58191 0.0
C421 C 0.66454 0.21417 0.57702 0.0
C422 C 0.56701 0.21159 0.61067 0.0
C423 C 0.61104 0.20803 0.63499 0.0
C424 C 0.68172 0.20612 0.62982 0.0
H425 H 0.58113 0.1834 0.82416 0.0
H426 H 0.61616 0.18726 0.77196 0.0
C427 C 0.70821 0.20937 0.60124 0.0
C428 C 0.58357 0.2061 0.66582 0.0
H429 H 0.59423 0.25097 0.74157 0.0
C430 C 0.53929 0.17458 0.66882 0.0
C431 C 0.60271 0.23439 0.69232 0.0
C432 C 0.64728 0.2701 0.69046 0.0
C433 C 0.51547 0.16981 0.69776 0.0
C434 C 0.53576 0.19765 0.72429 0.0
C435 C 0.57909 0.22953 0.72121 0.0
C436 C 0.51356 0.19403 0.75558 0.0
C437 C 0.47056 0.13434 0.69979 0.0
C438 C 0.44425 0.1968 0.76375 0.0
C439 C 0.424 0.19436 0.79354 0.0
C440 C 0.47274 0.18931 0.8158 0.0
C441 C 0.54217 0.18667 0.8075 0.0
C442 C 0.56234 0.18914 0.77772 0.0
H443 H 0.47303 0.11088 0.67855 0.0
H444 H 0.48542 0.12083 0.71966 0.0
H445 H 0.41676 0.14442 0.70311 0.0
H446 H 0.40586 0.20128 0.74718 0.0
H447 H 0.37008 0.19621 0.79907 0.0
H448 H 0.9068 0.67444 0.08128 0.0
H449 H 0.94906 0.66029 0.13001 0.0
H450 H 0.82216 0.75435 0.17974 0.0
H451 H 0.77999 0.76893 0.13144 0.0
H452 H 0.95986 0.75644 0.20013 0.0
H453 H 0.84108 0.60594 0.19123 0.0
H454 H 0.89148 0.61319 0.1589 0.0
H455 H 0.81383 0.6409 0.16789 0.0
C456 C 0.8878 0.69209 0.10257 0.0
C457 C 0.84006 0.72287 0.1024 0.0
C458 C 0.91175 0.68381 0.13038 0.0
C459 C 0.88818 0.70603 0.15842 0.0
C460 C 0.84087 0.73682 0.15831 0.0
H461 H 0.90565 0.67046 0.34486 0.0
H462 H 0.87403 0.67564 0.29244 0.0
C463 C 0.81688 0.7451 0.13062 0.0
C464 C 0.91359 0.69805 0.18806 0.0
H465 H 0.91144 0.62897 0.2344 0.0
C466 C 0.94964 0.72851 0.2076 0.0
C467 C 0.89949 0.66171 0.19776 0.0
C468 C 0.85891 0.62857 0.17804 0.0
C469 C 0.97171 0.72374 0.23674 0.0
C470 C 0.95806 0.6873 0.24638 0.0
C471 C 0.92222 0.65674 0.2268 0.0
C472 C 0.97803 0.68117 0.27731 0.0
C473 C 0.00767 0.75819 0.25731 0.0
C474 C 0.04705 0.68159 0.2859 0.0
C475 C 0.06529 0.67856 0.31579 0.0
C476 C 0.01479 0.67482 0.33761 0.0
C477 C 0.94578 0.67299 0.32857 0.0
C478 C 0.92761 0.67608 0.29867 0.0
H479 H 0.00073 0.78682 0.24924 0.0
H480 H 0.98864 0.76206 0.28126 0.0
H481 H 0.06322 0.75184 0.2575 0.0
H482 H 0.08679 0.6847 0.26956 0.0
H483 H 0.11896 0.6793 0.32186 0.0
H484 H 0.78268 0.20757 0.3839 0.0
H485 H 0.82143 0.22172 0.33505 0.0
H486 H 0.93141 0.32547 0.38267 0.0
H487 H 0.89369 0.31115 0.43205 0.0
H488 H 0.79679 0.28906 0.31118 0.0
H489 H 0.07581 0.26708 0.32426 0.0
H490 H 0.01337 0.25048 0.34898 0.0
H491 H 0.03694 0.30246 0.35471 0.0
C492 C 0.8157 0.23323 0.38417 0.0
C493 C 0.83547 0.25809 0.41202 0.0
C494 C 0.83762 0.24132 0.35612 0.0
C495 C 0.87994 0.27435 0.35519 0.0
C496 C 0.89985 0.29935 0.38287 0.0
H497 H 0.04535 0.35961 0.19656 0.0
H498 H 0.01043 0.35417 0.24859 0.0
C499 C 0.87798 0.29122 0.41108 0.0
C500 C 0.90108 0.28291 0.32504 0.0
H501 H 0.03978 0.28911 0.27953 0.0
C502 C 0.84993 0.28914 0.30428 0.0
C503 C 0.97046 0.2831 0.31613 0.0
C504 C 0.02742 0.2751 0.33703 0.0
C505 C 0.86622 0.29531 0.27479 0.0
C506 C 0.93544 0.29479 0.2657 0.0
C507 C 0.98674 0.28946 0.28663 0.0
C508 C 0.95547 0.29844 0.23419 0.0
C509 C 0.80924 0.30247 0.2536 0.0
C510 C 0.93655 0.26872 0.20895 0.0
C511 C 0.95636 0.27173 0.17925 0.0
C512 C 0.99545 0.30457 0.17424 0.0
C513 C 0.0144 0.33427 0.19962 0.0
C514 C 0.9949 0.3311 0.22935 0.0
H515 H 0.76136 0.31186 0.26639 0.0
H516 H 0.82393 0.32578 0.24046 0.0
H517 H 0.79855 0.27431 0.23692 0.0
H518 H 0.90691 0.24299 0.21227 0.0
H519 H 0.94069 0.24848 0.16017 0.0
H520 H 0.08214 0.28668 0.66782 0.0
H521 H 0.11099 0.28359 0.72082 0.0
H522 H 0.90386 0.31441 0.74851 0.0
H523 H 0.87457 0.3184 0.69555 0.0
H524 H 0.09782 0.34403 0.77569 0.0
H525 H 0.94134 0.20805 0.77845 0.0
H526 H 0.96433 0.2232 0.74303 0.0
H527 H 0.89781 0.24902 0.76672 0.0
C528 C 0.04282 0.29344 0.68519 0.0
C529 C 0.97594 0.30277 0.67733 0.0
C530 C 0.05938 0.29141 0.71546 0.0
C531 C 0.0094 0.29833 0.73848 0.0
C532 C 0.9429 0.30834 0.73095 0.0
H533 H 0.10127 0.32444 0.93514 0.0
H534 H 0.05617 0.33539 0.88594 0.0
C535 C 0.92628 0.31052 0.70066 0.0
C536 C 0.0272 0.29457 0.77025 0.0
H537 H -0.00022 0.23687 0.82396 0.0
C538 C 0.07609 0.32082 0.78638 0.0
C539 C -0.00088 0.26399 0.78393 0.0
C540 C 0.9481 0.23418 0.76717 0.0
C541 C 0.0981 0.3171 0.81581 0.0
C542 C 0.07 0.28654 0.8295 0.0
C543 C 0.02074 0.26047 0.81346 0.0
C544 C 0.09435 0.27953 0.85962 0.0
C545 C 0.15285 0.34504 0.83164 0.0
C546 C 0.12929 0.24411 0.86119 0.0
C547 C 0.15497 0.23771 0.88918 0.0
C548 C 0.14581 0.26653 0.91627 0.0
C549 C 0.10937 0.30166 0.91473 0.0
C550 C 0.08383 0.30807 0.88663 0.0
H551 H 0.17803 0.36199 0.81572 0.0
H552 H 0.12959 0.36692 0.85066 0.0
H553 H 0.19242 0.32811 0.84168 0.0
H554 H 0.13785 0.2217 0.84059 0.0
H555 H 0.18276 0.21031 0.88943 0.0
H556 H 0.22116 0.76443 0.62928 0.0
H557 H 0.17516 0.75339 0.67792 0.0
H558 H 0.03788 0.66343 0.6293 0.0
H559 H 0.0848 0.67366 0.58027 0.0
H560 H 0.04411 0.76265 0.69973 0.0
H561 H 0.12828 0.60483 0.69019 0.0
H562 H 0.16002 0.63652 0.66512 0.0
H563 H 0.07658 0.61421 0.65892 0.0
C564 C 0.18121 0.74223 0.62881 0.0
C565 C 0.15677 0.71984 0.60082 0.0
C566 C 0.15497 0.73597 0.65669 0.0
C567 C 0.10372 0.70724 0.65727 0.0
C568 C 0.07845 0.68516 0.62941 0.0
H569 H 0.90457 0.64738 0.82006 0.0
H570 H 0.93059 0.65195 0.76673 0.0
C571 C 0.10506 0.69121 0.60141 0.0
C572 C 0.07653 0.70122 0.68721 0.0
H573 H 0.06447 0.63309 0.73419 0.0
C574 C 0.04829 0.73426 0.70719 0.0
C575 C 0.0818 0.66409 0.69686 0.0
C576 C 0.11379 0.62792 0.67682 0.0
C577 C 0.02631 0.7314 0.73673 0.0
C578 C 0.03324 0.69464 0.74663 0.0
C579 C 0.05933 0.66121 0.72641 0.0
C580 C 0.0177 0.69118 0.7786 0.0
C581 C 0.99638 0.76781 0.75731 0.0
C582 C 0.05872 0.71127 0.8027 0.0
C583 C 0.04422 0.70863 0.83301 0.0
C584 C 0.98833 0.68584 0.83981 0.0
C585 C 0.94764 0.6654 0.81554 0.0
C586 C 0.96253 0.66784 0.78512 0.0
H587 H 0.98001 0.7907 0.7441 0.0
H588 H 0.95184 0.75939 0.7702 0.0
H589 H 0.03554 0.78157 0.77426 0.0
H590 H 0.1019 0.72914 0.79803 0.0
H591 H 0.07602 0.72512 0.85119 0.0
loop_
_geom_bond_atom_site_label_1
_geom_bond_atom_site_label_2
_geom_bond_distance
_geom_bond_site_symmetry_2
_ccdc_geom_bond_type
Dy0 O3 2.307 1_556 S
Dy0 O5 2.395 . S
Dy0 O6 2.379 . S
Dy0 O8 2.339 . S
Dy0 O10 2.298 . S
Dy0 O14 2.275 . S
Dy0 C22 2.738 . S
Dy1 O4 2.298 . S
Dy1 O7 2.275 . S
Dy1 O9 2.307 1_554 S
Dy1 O11 2.395 . S
Dy1 O12 2.379 . S
Dy1 O15 2.339 . S
Dy1 C31 2.738 . S
C2 O14 1.254 1_554 S
C2 O15 1.257 . S
O3 Dy0 2.307 1_554 S
O3 C13 1.266 . S
O4 Dy1 2.298 . S
O4 C13 1.236 . S
O5 Dy0 2.395 . S
O5 C22 1.255 . S
O6 Dy0 2.379 . S
O6 C22 1.249 . S
O7 Dy1 2.275 . S
O7 C23 1.254 1_554 S
O8 Dy0 2.339 . S
O8 C23 1.257 . S
O9 Dy1 2.307 1_556 S
O9 C24 1.266 . S
O10 Dy0 2.298 . S
O10 C24 1.236 . S
O11 Dy1 2.395 . S
O11 C31 1.255 . S
O12 Dy1 2.379 . S
O12 C31 1.249 . S
C13 O3 1.266 . S
C13 O4 1.236 . S
O14 Dy0 2.275 . S
O14 C2 1.254 1_556 S
O15 Dy1 2.339 . S
O15 C2 1.257 . S
C16 C19 1.344 . S
C16 C20 1.328 . S
C16 C22 1.516 . S
C17 C18 1.304 . S
C17 C21 1.323 . S
C18 C17 1.304 . S
C18 C19 1.371 . S
C18 H32 0.930 . S
C19 C16 1.344 . S
C19 C18 1.371 . S
C19 H33 0.931 . S
C20 C16 1.328 . S
C20 C21 1.433 . S
C20 H34 0.931 . S
C21 C17 1.323 . S
C21 C20 1.433 . S
C21 H35 0.933 . S
C22 Dy0 2.738 . S
C22 O5 1.255 . S
C22 O6 1.249 . S
C22 C16 1.516 . S
C23 O7 1.254 1_556 S
C23 O8 1.257 . S
C24 O9 1.266 . S
C24 O10 1.236 . S
C25 C28 1.344 . S
C25 C29 1.328 . S
C25 C31 1.516 . S
C26 C27 1.304 . S
C26 C30 1.323 . S
C27 C26 1.304 . S
C27 C28 1.371 . S
C27 H36 0.930 . S
C28 C25 1.344 . S
C28 C27 1.371 . S
C28 H37 0.931 . S
C29 C25 1.328 . S
C29 C30 1.433 . S
C29 H38 0.931 . S
C30 C26 1.323 . S
C30 C29 1.433 . S
C30 H39 0.933 . S
C31 Dy1 2.738 . S
C31 O11 1.255 . S
C31 O12 1.249 . S
C31 C25 1.516 . S
H32 C18 0.930 . S
H33 C19 0.931 . S
H34 C20 0.931 . S
H35 C21 0.933 . S
H36 C27 0.930 . S
H37 C28 0.931 . S
H38 C29 0.931 . S
H39 C30 0.933 . S
Dy40 O43 2.307 1_556 S
Dy40 O45 2.395 . S
Dy40 O46 2.379 . S
Dy40 O48 2.339 . S
Dy40 O50 2.298 . S
Dy40 O54 2.275 . S
Dy40 C62 2.738 . S
Dy41 O44 2.298 . S
Dy41 O47 2.275 . S
Dy41 O49 2.307 1_554 S
Dy41 O51 2.395 . S
Dy41 O52 2.379 . S
Dy41 O55 2.339 . S
Dy41 C71 2.738 . S
C42 O54 1.254 1_554 S
C42 O55 1.257 . S
O43 Dy40 2.307 1_554 S
O43 C53 1.266 . S
O44 Dy41 2.298 . S
O44 C53 1.236 . S
O45 Dy40 2.395 . S
O45 C62 1.255 . S
O46 Dy40 2.379 . S
O46 C62 1.249 . S
O47 Dy41 2.275 . S
O47 C63 1.254 1_554 S
O48 Dy40 2.339 . S
O48 C63 1.257 . S
O49 Dy41 2.307 1_556 S
O49 C64 1.266 . S
O50 Dy40 2.298 . S
O50 C64 1.236 . S
O51 Dy41 2.395 . S
O51 C71 1.255 . S
O52 Dy41 2.379 . S
O52 C71 1.249 . S
C53 O43 1.266 . S
C53 O44 1.236 . S
O54 Dy40 2.275 . S
O54 C42 1.254 1_556 S
O55 Dy41 2.339 . S
O55 C42 1.257 . S
C56 C59 1.344 . S
C56 C60 1.328 . S
C56 C62 1.516 . S
C57 C58 1.304 . S
C57 C61 1.323 . S
C58 C57 1.304 . S
C58 C59 1.371 . S
C58 H72 0.930 . S
C59 C56 1.344 . S
C59 C58 1.371 . S
C59 H73 0.931 . S
C60 C56 1.328 . S
C60 C61 1.433 . S
C60 H74 0.931 . S
C61 C57 1.323 . S
C61 C60 1.433 . S
C61 H75 0.933 . S
C62 Dy40 2.738 . S
C62 O45 1.255 . S
C62 O46 1.249 . S
C62 C56 1.516 . S
C63 O47 1.254 1_556 S
C63 O48 1.257 . S
C64 O49 1.266 . S
C64 O50 1.236 . S
C65 C68 1.344 . S
C65 C69 1.328 . S
C65 C71 1.516 . S
C66 C67 1.304 . S
C66 C70 1.323 . S
C67 C66 1.304 . S
C67 C68 1.371 . S
C67 H76 0.930 . S
C68 C65 1.344 . S
C68 C67 1.371 . S
C68 H77 0.931 . S
C69 C65 1.328 . S
C69 C70 1.433 . S
C69 H78 0.931 . S
C70 C66 1.323 . S
C70 C69 1.433 . S
C70 H79 0.933 . S
C71 Dy41 2.738 . S
C71 O51 1.255 . S
C71 O52 1.249 . S
C71 C65 1.516 . S
H72 C58 0.930 . S
H73 C59 0.931 . S
H74 C60 0.931 . S
H75 C61 0.933 . S
H76 C67 0.930 . S
H77 C68 0.931 . S
H78 C69 0.931 . S
H79 C70 0.933 . S
Dy80 O83 2.307 . S
Dy80 O85 2.395 . S
Dy80 O86 2.379 . S
Dy80 O88 2.339 . S
Dy80 O90 2.298 . S
Dy80 O94 2.275 . S
Dy80 C102 2.738 . S
Dy81 O84 2.298 . S
Dy81 O87 2.275 . S
Dy81 O89 2.307 . S
Dy81 O91 2.395 . S
Dy81 O92 2.379 . S
Dy81 O95 2.339 . S
Dy81 C111 2.738 . S
C82 O94 1.254 . S
C82 O95 1.257 . S
O83 Dy80 2.307 . S
O83 C93 1.266 . S
O84 Dy81 2.298 . S
O84 C93 1.236 . S
O85 Dy80 2.395 . S
O85 C102 1.255 . S
O86 Dy80 2.379 . S
O86 C102 1.249 . S
O87 Dy81 2.275 . S
O87 C103 1.254 . S
O88 Dy80 2.339 . S
O88 C103 1.257 . S
O89 Dy81 2.307 . S
O89 C104 1.266 . S
O90 Dy80 2.298 . S
O90 C104 1.236 . S
O91 Dy81 2.395 . S
O91 C111 1.255 . S
O92 Dy81 2.379 . S
O92 C111 1.249 . S
C93 O83 1.266 . S
C93 O84 1.236 . S
O94 Dy80 2.275 . S
O94 C82 1.254 . S
O95 Dy81 2.339 . S
O95 C82 1.257 . S
C96 C99 1.344 . S
C96 C100 1.328 . S
C96 C102 1.516 . S
C97 C98 1.304 . S
C97 C101 1.323 . S
C98 C97 1.304 . S
C98 C99 1.371 . S
C98 H112 0.930 . S
C99 C96 1.344 . S
C99 C98 1.371 . S
C99 H113 0.931 . S
C100 C96 1.328 . S
C100 C101 1.433 . S
C100 H114 0.931 . S
C101 C97 1.323 . S
C101 C100 1.433 . S
C101 H115 0.933 . S
C102 Dy80 2.738 . S
C102 O85 1.255 . S
C102 O86 1.249 . S
C102 C96 1.516 . S
C103 O87 1.254 . S
C103 O88 1.257 . S
C104 O89 1.266 . S
C104 O90 1.236 . S
C105 C108 1.344 . S
C105 C109 1.328 . S
C105 C111 1.516 . S
C106 C107 1.304 . S
C106 C110 1.323 . S
C107 C106 1.304 . S
C107 C108 1.371 . S
C107 H116 0.930 . S
C108 C105 1.344 . S
C108 C107 1.371 . S
C108 H117 0.931 . S
C109 C105 1.328 . S
C109 C110 1.433 . S
C109 H118 0.931 . S
C110 C106 1.323 . S
C110 C109 1.433 . S
C110 H119 0.933 . S
C111 Dy81 2.738 . S
C111 O91 1.255 . S
C111 O92 1.249 . S
C111 C105 1.516 . S
H112 C98 0.930 . S
H113 C99 0.931 . S
H114 C100 0.931 . S
H115 C101 0.933 . S
H116 C107 0.930 . S
H117 C108 0.931 . S
H118 C109 0.931 . S
H119 C110 0.933 . S
Dy120 O123 2.307 . S
Dy120 O125 2.395 . S
Dy120 O126 2.379 . S
Dy120 O128 2.339 . S
Dy120 O130 2.298 . S
Dy120 O134 2.275 . S
Dy120 C142 2.738 . S
Dy121 O124 2.298 . S
Dy121 O127 2.275 . S
Dy121 O129 2.307 . S
Dy121 O131 2.395 . S
Dy121 O132 2.379 . S
Dy121 O135 2.339 . S
Dy121 C151 2.738 . S
C122 O134 1.254 . S
C122 O135 1.257 . S
O123 Dy120 2.307 . S
O123 C133 1.266 . S
O124 Dy121 2.298 . S
O124 C133 1.236 . S
O125 Dy120 2.395 . S
O125 C142 1.255 . S
O126 Dy120 2.379 . S
O126 C142 1.249 . S
O127 Dy121 2.275 . S
O127 C143 1.254 . S
O128 Dy120 2.339 . S
O128 C143 1.257 . S
O129 Dy121 2.307 . S
O129 C144 1.266 . S
O130 Dy120 2.298 . S
O130 C144 1.236 . S
O131 Dy121 2.395 . S
O131 C151 1.255 . S
O132 Dy121 2.379 . S
O132 C151 1.249 . S
C133 O123 1.266 . S
C133 O124 1.236 . S
O134 Dy120 2.275 . S
O134 C122 1.254 . S
O135 Dy121 2.339 . S
O135 C122 1.257 . S
C136 C139 1.344 . S
C136 C140 1.328 . S
C136 C142 1.516 . S
C137 C138 1.304 . S
C137 C141 1.323 . S
C138 C137 1.304 . S
C138 C139 1.371 . S
C138 H152 0.930 . S
C139 C136 1.344 . S
C139 C138 1.371 . S
C139 H153 0.931 . S
C140 C136 1.328 . S
C140 C141 1.433 . S
C140 H154 0.931 . S
C141 C137 1.323 . S
C141 C140 1.433 . S
C141 H155 0.933 . S
C142 Dy120 2.738 . S
C142 O125 1.255 . S
C142 O126 1.249 . S
C142 C136 1.516 . S
C143 O127 1.254 . S
C143 O128 1.257 . S
C144 O129 1.266 . S
C144 O130 1.236 . S
C145 C148 1.344 . S
C145 C149 1.328 . S
C145 C151 1.516 . S
C146 C147 1.304 . S
C146 C150 1.323 . S
C147 C146 1.304 . S
C147 C148 1.371 . S
C147 H156 0.930 . S
C148 C145 1.344 . S
C148 C147 1.371 . S
C148 H157 0.931 . S
C149 C145 1.328 . S
C149 C150 1.433 . S
C149 H158 0.931 . S
C150 C146 1.323 . S
C150 C149 1.433 . S
C150 H159 0.933 . S
C151 Dy121 2.738 . S
C151 O131 1.255 . S
C151 O132 1.249 . S
C151 C145 1.516 . S
H152 C138 0.930 . S
H153 C139 0.931 . S
H154 C140 0.931 . S
H155 C141 0.933 . S
H156 C147 0.930 . S
H157 C148 0.931 . S
H158 C149 0.931 . S
H159 C150 0.933 . S
H160 C168 0.929 . S
H161 C170 0.930 . S
H162 C172 0.930 . S
H163 C175 0.929 . S
H164 C178 0.930 . S
H165 C180 0.960 . S
H166 C180 0.960 1_554 S
H167 C180 0.960 . S
C168 H160 0.929 . S
C168 C169 1.374 . S
C168 C170 1.384 . S
C169 C168 1.374 . S
C169 C175 1.392 1_554 S
C170 H161 0.930 . S
C170 C168 1.384 . S
C170 C171 1.372 . S
C171 C170 1.372 . S
C171 C172 1.400 1_554 S
C171 C176 1.490 . S
C172 H162 0.930 . S
C172 C171 1.400 1_556 S
C172 C175 1.386 . S
H173 C189 0.930 . S
H174 C190 0.931 . S
C175 H163 0.929 . S
C175 C169 1.392 1_556 S
C175 C172 1.386 . S
C176 C171 1.490 . S
C176 C178 1.395 . S
C176 C179 1.403 1_554 S
H177 C183 0.930 . S
C178 H164 0.930 . S
C178 C176 1.395 . S
C178 C181 1.403 . S
C179 C176 1.403 1_556 S
C179 C180 1.524 . S
C179 C183 1.400 . S
C180 H165 0.960 . S
C180 H166 0.960 1_556 S
C180 H167 0.960 . S
C180 C179 1.524 . S
C181 C178 1.403 . S
C181 C182 1.392 . S
C181 C185 1.495 . S
C182 C181 1.392 . S
C182 C183 1.385 1_554 S
C182 C184 1.478 . S
C183 H177 0.930 . S
C183 C179 1.400 . S
C183 C182 1.385 1_556 S
C184 C182 1.478 . S
C184 C186 1.381 . S
C184 C190 1.383 1_554 S
C185 C181 1.495 . S
C185 H191 0.959 . S
C185 H192 0.961 . S
C185 H193 0.960 . S
C186 C184 1.381 . S
C186 C187 1.394 . S
C186 H194 0.930 . S
C187 C186 1.394 . S
C187 C188 1.383 . S
C187 H195 0.929 . S
C188 C187 1.383 . S
C188 C189 1.377 1_554 S
C189 H173 0.930 . S
C189 C188 1.377 1_556 S
C189 C190 1.379 . S
C190 H174 0.931 . S
C190 C184 1.383 1_556 S
C190 C189 1.379 . S
H191 C185 0.959 . S
H192 C185 0.961 . S
H193 C185 0.960 . S
H194 C186 0.930 . S
H195 C187 0.929 . S
H196 C204 0.929 . S
H197 C206 0.930 . S
H198 C208 0.930 . S
H199 C211 0.929 . S
H200 C214 0.930 . S
H201 C216 0.960 . S
H202 C216 0.960 . S
H203 C216 0.960 . S
C204 H196 0.929 . S
C204 C205 1.377 . S
C204 C206 1.384 . S
C205 C204 1.377 . S
C205 C211 1.390 . S
C206 H197 0.930 . S
C206 C204 1.384 . S
C206 C207 1.372 . S
C207 C206 1.372 . S
C207 C208 1.400 . S
C207 C212 1.490 . S
C208 H198 0.930 . S
C208 C207 1.400 . S
C208 C211 1.386 . S
H209 C225 0.930 . S
H210 C226 0.931 . S
C211 H199 0.929 . S
C211 C205 1.390 . S
C211 C208 1.386 . S
C212 C207 1.490 . S
C212 C214 1.395 . S
C212 C215 1.403 . S
H213 C219 0.930 . S
C214 H200 0.930 . S
C214 C212 1.395 . S
C214 C217 1.403 . S
C215 C212 1.403 . S
C215 C216 1.524 . S
C215 C219 1.400 . S
C216 H201 0.960 . S
C216 H202 0.960 . S
C216 H203 0.960 . S
C216 C215 1.524 . S
C217 C214 1.403 . S
C217 C218 1.392 . S
C217 C221 1.495 . S
C218 C217 1.392 . S
C218 C219 1.385 . S
C218 C220 1.478 . S
C219 H213 0.930 . S
C219 C215 1.400 . S
C219 C218 1.385 . S
C220 C218 1.478 . S
C220 C222 1.381 . S
C220 C226 1.383 . S
C221 C217 1.495 . S
C221 H227 0.959 . S
C221 H228 0.961 . S
C221 H229 0.960 . S
C222 C220 1.381 . S
C222 C223 1.394 . S
C222 H230 0.930 . S
C223 C222 1.394 . S
C223 C224 1.383 . S
C223 H231 0.929 . S
C224 C223 1.383 . S
C224 C225 1.377 . S
C225 H209 0.930 . S
C225 C224 1.377 . S
C225 C226 1.379 . S
C226 H210 0.931 . S
C226 C220 1.383 . S
C226 C225 1.379 . S
H227 C221 0.959 . S
H228 C221 0.961 . S
H229 C221 0.960 . S
H230 C222 0.930 . S
H231 C223 0.929 . S
H232 C240 0.929 . S
H233 C242 0.930 . S
H234 C244 0.930 . S
H235 C247 0.929 . S
H236 C250 0.930 . S
H237 C252 0.960 . S
H238 C252 0.960 . S
H239 C252 0.960 1_545 S
C240 H232 0.929 . S
C240 C241 1.370 1_554 S
C240 C242 1.384 . S
C241 C240 1.370 1_556 S
C241 C247 1.395 . S
C242 H233 0.930 . S
C242 C240 1.384 . S
C242 C243 1.372 . S
C243 C242 1.372 . S
C243 C244 1.400 1_554 S
C243 C248 1.490 . S
C244 H234 0.930 . S
C244 C243 1.400 1_556 S
C244 C247 1.386 . S
H245 C261 0.930 . S
H246 C262 0.931 . S
C247 H235 0.929 . S
C247 C241 1.395 . S
C247 C244 1.386 . S
C248 C243 1.490 . S
C248 C250 1.395 1_455 S
C248 C251 1.388 1_544 S
H249 C255 0.930 . S
C250 H236 0.930 . S
C250 C248 1.395 1_655 S
C250 C253 1.403 . S
C251 C248 1.388 1_566 S
C251 C252 1.523 . S
C251 C255 1.406 1_455 S
C252 H237 0.960 . S
C252 H238 0.960 . S
C252 H239 0.960 1_565 S
C252 C251 1.523 . S
C253 C250 1.403 . S
C253 C254 1.392 1_545 S
C253 C257 1.495 . S
C254 C253 1.392 1_565 S
C254 C255 1.396 1_554 S
C254 C256 1.478 . S
C255 H249 0.930 . S
C255 C251 1.406 1_655 S
C255 C254 1.396 1_556 S
C256 C254 1.478 . S
C256 C258 1.381 . S
C256 C262 1.383 1_554 S
C257 C253 1.495 . S
C257 H263 0.959 . S
C257 H264 0.961 . S
C257 H265 0.960 1_545 S
C258 C256 1.381 . S
C258 C259 1.394 . S
C258 H266 0.930 . S
C259 C258 1.394 . S
C259 C260 1.383 . S
C259 H267 0.929 . S
C260 C259 1.383 . S
C260 C261 1.377 1_554 S
C261 H245 0.930 . S
C261 C260 1.377 1_556 S
C261 C262 1.379 . S
C262 H246 0.931 . S
C262 C256 1.383 1_556 S
C262 C261 1.379 . S
H263 C257 0.959 . S
H264 C257 0.961 . S
H265 C257 0.960 1_565 S
H266 C258 0.930 . S
H267 C259 0.929 . S
H268 C276 0.929 . S
H269 C278 0.930 . S
H270 C280 0.930 . S
H271 C283 0.929 . S
H272 C286 0.930 . S
H273 C288 0.960 . S
H274 C288 0.960 . S
H275 C288 0.960 1_545 S
C276 H268 0.929 . S
C276 C277 1.377 . S
C276 C278 1.384 . S
C277 C276 1.377 . S
C277 C283 1.390 . S
C278 H269 0.930 . S
C278 C276 1.384 . S
C278 C279 1.372 . S
C279 C278 1.372 . S
C279 C280 1.400 . S
C279 C284 1.490 . S
C280 H270 0.930 . S
C280 C279 1.400 . S
C280 C283 1.386 . S
H281 C297 0.930 . S
H282 C298 0.931 . S
C283 H271 0.929 . S
C283 C277 1.390 . S
C283 C280 1.386 . S
C284 C279 1.490 . S
C284 C286 1.395 1_655 S
C284 C287 1.379 1_545 S
H285 C291 0.930 . S
C286 H272 0.930 . S
C286 C284 1.395 1_455 S
C286 C289 1.403 . S
C287 C284 1.379 1_565 S
C287 C288 1.528 . S
C287 C291 1.420 . S
C288 H273 0.960 . S
C288 H274 0.960 . S
C288 H275 0.960 1_565 S
C288 C287 1.528 . S
C289 C286 1.403 . S
C289 C290 1.392 1_545 S
C289 C293 1.495 . S
C290 C289 1.392 1_565 S
C290 C291 1.385 1_455 S
C290 C292 1.478 . S
C291 H285 0.930 . S
C291 C287 1.420 . S
C291 C290 1.385 1_655 S
C292 C290 1.478 . S
C292 C294 1.381 . S
C292 C298 1.383 . S
C293 C289 1.495 . S
C293 H299 0.959 . S
C293 H300 0.961 . S
C293 H301 0.960 1_545 S
C294 C292 1.381 . S
C294 C295 1.394 . S
C294 H302 0.930 . S
C295 C294 1.394 . S
C295 C296 1.383 . S
C295 H303 0.929 . S
C296 C295 1.383 . S
C296 C297 1.377 . S
C297 H281 0.930 . S
C297 C296 1.377 . S
C297 C298 1.379 . S
C298 H282 0.931 . S
C298 C292 1.383 . S
C298 C297 1.379 . S
H299 C293 0.959 . S
H300 C293 0.961 . S
H301 C293 0.960 1_565 S
H302 C294 0.930 . S
H303 C295 0.929 . S
H304 C312 0.929 . S
H305 C314 0.930 . S
H306 C316 0.930 . S
H307 C319 0.929 . S
H308 C322 0.930 . S
H309 C324 0.960 . S
H310 C324 0.960 . S
H311 C324 0.960 . S
C312 H304 0.929 . S
C312 C313 1.377 . S
C312 C314 1.384 . S
C313 C312 1.377 . S
C313 C319 1.390 . S
C314 H305 0.930 . S
C314 C312 1.384 . S
C314 C315 1.372 . S
C315 C314 1.372 . S
C315 C316 1.400 . S
C315 C320 1.490 . S
C316 H306 0.930 . S
C316 C315 1.400 . S
C316 C319 1.386 . S
H317 C333 0.930 . S
H318 C334 0.931 . S
C319 H307 0.929 . S
C319 C313 1.390 . S
C319 C316 1.386 . S
C320 C315 1.490 . S
C320 C322 1.395 . S
C320 C323 1.403 . S
H321 C327 0.930 . S
C322 H308 0.930 . S
C322 C320 1.395 . S
C322 C325 1.403 . S
C323 C320 1.403 . S
C323 C324 1.524 . S
C323 C327 1.400 . S
C324 H309 0.960 . S
C324 H310 0.960 . S
C324 H311 0.960 . S
C324 C323 1.524 . S
C325 C322 1.403 . S
C325 C326 1.392 . S
C325 C329 1.495 . S
C326 C325 1.392 . S
C326 C327 1.385 . S
C326 C328 1.478 . S
C327 H321 0.930 . S
C327 C323 1.400 . S
C327 C326 1.385 . S
C328 C326 1.478 . S
C328 C330 1.381 . S
C328 C334 1.383 . S
C329 C325 1.495 . S
C329 H335 0.959 . S
C329 H336 0.961 . S
C329 H337 0.960 . S
C330 C328 1.381 . S
C330 C331 1.394 . S
C330 H338 0.930 . S
C331 C330 1.394 . S
C331 C332 1.383 . S
C331 H339 0.929 . S
C332 C331 1.383 . S
C332 C333 1.377 . S
C333 H317 0.930 . S
C333 C332 1.377 . S
C333 C334 1.379 . S
C334 H318 0.931 . S
C334 C328 1.383 . S
C334 C333 1.379 . S
H335 C329 0.959 . S
H336 C329 0.961 . S
H337 C329 0.960 . S
H338 C330 0.930 . S
H339 C331 0.929 . S
H340 C348 0.929 . S
H341 C350 0.930 . S
H342 C352 0.930 . S
H343 C355 0.929 . S
H344 C358 0.930 . S
H345 C360 0.960 . S
H346 C360 0.960 . S
H347 C360 0.960 . S
C348 H340 0.929 . S
C348 C349 1.377 . S
C348 C350 1.384 . S
C349 C348 1.377 . S
C349 C355 1.390 . S
C350 H341 0.930 . S
C350 C348 1.384 . S
C350 C351 1.372 . S
C351 C350 1.372 . S
C351 C352 1.400 . S
C351 C356 1.490 . S
C352 H342 0.930 . S
C352 C351 1.400 . S
C352 C355 1.386 . S
H353 C369 0.930 . S
H354 C370 0.931 . S
C355 H343 0.929 . S
C355 C349 1.390 . S
C355 C352 1.386 . S
C356 C351 1.490 . S
C356 C358 1.395 . S
C356 C359 1.403 . S
H357 C363 0.930 . S
C358 H344 0.930 . S
C358 C356 1.395 . S
C358 C361 1.403 . S
C359 C356 1.403 . S
C359 C360 1.524 . S
C359 C363 1.400 . S
C360 H345 0.960 . S
C360 H346 0.960 . S
C360 H347 0.960 . S
C360 C359 1.524 . S
C361 C358 1.403 . S
C361 C362 1.392 . S
C361 C365 1.495 . S
C362 C361 1.392 . S
C362 C363 1.385 . S
C362 C364 1.478 . S
C363 H357 0.930 . S
C363 C359 1.400 . S
C363 C362 1.385 . S
C364 C362 1.478 . S
C364 C366 1.381 . S
C364 C370 1.383 . S
C365 C361 1.495 . S
C365 H371 0.959 . S
C365 H372 0.961 . S
C365 H373 0.960 . S
C366 C364 1.381 . S
C366 C367 1.394 . S
C366 H374 0.930 . S
C367 C366 1.394 . S
C367 C368 1.383 . S
C367 H375 0.929 . S
C368 C367 1.383 . S
C368 C369 1.377 . S
C369 H353 0.930 . S
C369 C368 1.377 . S
C369 C370 1.379 . S
C370 H354 0.931 . S
C370 C364 1.383 . S
C370 C369 1.379 . S
H371 C365 0.959 . S
H372 C365 0.961 . S
H373 C365 0.960 . S
H374 C366 0.930 . S
H375 C367 0.929 . S
H376 C384 0.929 . S
H377 C386 0.930 . S
H378 C388 0.930 . S
H379 C391 0.929 . S
H380 C394 0.930 . S
H381 C396 0.960 . S
H382 C396 0.960 . S
H383 C396 0.960 . S
C384 H376 0.929 . S
C384 C385 1.377 . S
C384 C386 1.384 . S
C385 C384 1.377 . S
C385 C391 1.390 . S
C386 H377 0.930 . S
C386 C384 1.384 . S
C386 C387 1.372 . S
C387 C386 1.372 . S
C387 C388 1.400 . S
C387 C392 1.490 . S
C388 H378 0.930 . S
C388 C387 1.400 . S
C388 C391 1.386 . S
H389 C405 0.930 . S
H390 C406 0.931 . S
C391 H379 0.929 . S
C391 C385 1.390 . S
C391 C388 1.386 . S
C392 C387 1.490 . S
C392 C394 1.395 . S
C392 C395 1.403 . S
H393 C399 0.930 . S
C394 H380 0.930 . S
C394 C392 1.395 . S
C394 C397 1.403 . S
C395 C392 1.403 . S
C395 C396 1.524 . S
C395 C399 1.400 . S
C396 H381 0.960 . S
C396 H382 0.960 . S
C396 H383 0.960 . S
C396 C395 1.524 . S
C397 C394 1.403 . S
C397 C398 1.392 . S
C397 C401 1.495 . S
C398 C397 1.392 . S
C398 C399 1.385 . S
C398 C400 1.478 . S
C399 H393 0.930 . S
C399 C395 1.400 . S
C399 C398 1.385 . S
C400 C398 1.478 . S
C400 C402 1.381 . S
C400 C406 1.383 . S
C401 C397 1.495 . S
C401 H407 0.959 . S
C401 H408 0.961 . S
C401 H409 0.960 . S
C402 C400 1.381 . S
C402 C403 1.394 . S
C402 H410 0.930 . S
C403 C402 1.394 . S
C403 C404 1.383 . S
C403 H411 0.929 . S
C404 C403 1.383 . S
C404 C405 1.377 . S
C405 H389 0.930 . S
C405 C404 1.377 . S
C405 C406 1.379 . S
C406 H390 0.931 . S
C406 C400 1.383 . S
C406 C405 1.379 . S
H407 C401 0.959 . S
H408 C401 0.961 . S
H409 C401 0.960 . S
H410 C402 0.930 . S
H411 C403 0.929 . S
H412 C420 0.929 . S
H413 C422 0.930 . S
H414 C424 0.930 . S
H415 C427 0.929 . S
H416 C430 0.930 . S
H417 C432 0.960 . S
H418 C432 0.960 . S
H419 C432 0.960 . S
C420 H412 0.929 . S
C420 C421 1.377 . S
C420 C422 1.384 . S
C421 C420 1.377 . S
C421 C427 1.390 . S
C422 H413 0.930 . S
C422 C420 1.384 . S
C422 C423 1.372 . S
C423 C422 1.372 . S
C423 C424 1.400 . S
C423 C428 1.490 . S
C424 H414 0.930 . S
C424 C423 1.400 . S
C424 C427 1.386 . S
H425 C441 0.930 . S
H426 C442 0.931 . S
C427 H415 0.929 . S
C427 C421 1.390 . S
C427 C424 1.386 . S
C428 C423 1.490 . S
C428 C430 1.395 . S
C428 C431 1.403 . S
H429 C435 0.930 . S
C430 H416 0.930 . S
C430 C428 1.395 . S
C430 C433 1.403 . S
C431 C428 1.403 . S
C431 C432 1.524 . S
C431 C435 1.400 . S
C432 H417 0.960 . S
C432 H418 0.960 . S
C432 H419 0.960 . S
C432 C431 1.524 . S
C433 C430 1.403 . S
C433 C434 1.392 . S
C433 C437 1.495 . S
C434 C433 1.392 . S
C434 C435 1.385 . S
C434 C436 1.478 . S
C435 H429 0.930 . S
C435 C431 1.400 . S
C435 C434 1.385 . S
C436 C434 1.478 . S
C436 C438 1.381 . S
C436 C442 1.383 . S
C437 C433 1.495 . S
C437 H443 0.959 . S
C437 H444 0.961 . S
C437 H445 0.960 . S
C438 C436 1.381 . S
C438 C439 1.394 . S
C438 H446 0.930 . S
C439 C438 1.394 . S
C439 C440 1.383 . S
C439 H447 0.929 . S
C440 C439 1.383 . S
C440 C441 1.377 . S
C441 H425 0.930 . S
C441 C440 1.377 . S
C441 C442 1.379 . S
C442 H426 0.931 . S
C442 C436 1.383 . S
C442 C441 1.379 . S
H443 C437 0.959 . S
H444 C437 0.961 . S
H445 C437 0.960 . S
H446 C438 0.930 . S
H447 C439 0.929 . S
H448 C456 0.929 . S
H449 C458 0.930 . S
H450 C460 0.930 . S
H451 C463 0.929 . S
H452 C466 0.930 . S
H453 C468 0.960 . S
H454 C468 0.960 . S
H455 C468 0.960 . S
C456 H448 0.929 . S
C456 C457 1.377 . S
C456 C458 1.384 . S
C457 C456 1.377 . S
C457 C463 1.390 . S
C458 H449 0.930 . S
C458 C456 1.384 . S
C458 C459 1.372 . S
C459 C458 1.372 . S
C459 C460 1.400 . S
C459 C464 1.490 . S
C460 H450 0.930 . S
C460 C459 1.400 . S
C460 C463 1.386 . S
H461 C477 0.930 . S
H462 C478 0.931 . S
C463 H451 0.929 . S
C463 C457 1.390 . S
C463 C460 1.386 . S
C464 C459 1.490 . S
C464 C466 1.395 . S
C464 C467 1.403 . S
H465 C471 0.930 . S
C466 H452 0.930 . S
C466 C464 1.395 . S
C466 C469 1.403 . S
C467 C464 1.403 . S
C467 C468 1.524 . S
C467 C471 1.400 . S
C468 H453 0.960 . S
C468 H454 0.960 . S
C468 H455 0.960 . S
C468 C467 1.524 . S
C469 C466 1.403 . S
C469 C470 1.392 . S
C469 C473 1.495 1_655 S
C470 C469 1.392 . S
C470 C471 1.385 . S
C470 C472 1.478 . S
C471 H465 0.930 . S
C471 C467 1.400 . S
C471 C470 1.385 . S
C472 C470 1.478 . S
C472 C474 1.381 1_655 S
C472 C478 1.383 . S
C473 C469 1.495 1_455 S
C473 H479 0.959 . S
C473 H480 0.961 1_455 S
C473 H481 0.960 . S
C474 C472 1.381 1_455 S
C474 C475 1.394 . S
C474 H482 0.930 . S
C475 C474 1.394 . S
C475 C476 1.383 . S
C475 H483 0.929 . S
C476 C475 1.383 . S
C476 C477 1.377 1_455 S
C477 H461 0.930 . S
C477 C476 1.377 1_655 S
C477 C478 1.379 . S
C478 H462 0.931 . S
C478 C472 1.383 . S
C478 C477 1.379 . S
H479 C473 0.959 . S
H480 C473 0.961 1_655 S
H481 C473 0.960 . S
H482 C474 0.930 . S
H483 C475 0.929 . S
H484 C492 0.929 . S
H485 C494 0.930 . S
H486 C496 0.930 . S
H487 C499 0.929 . S
H488 C502 0.930 . S
H489 C504 0.960 1_455 S
H490 C504 0.960 . S
H491 C504 0.960 . S
C492 H484 0.929 . S
C492 C493 1.377 . S
C492 C494 1.384 . S
C493 C492 1.377 . S
C493 C499 1.390 . S
C494 H485 0.930 . S
C494 C492 1.384 . S
C494 C495 1.372 . S
C495 C494 1.372 . S
C495 C496 1.400 . S
C495 C500 1.490 . S
C496 H486 0.930 . S
C496 C495 1.400 . S
C496 C499 1.386 . S
H497 C513 0.930 . S
H498 C514 0.931 . S
C499 H487 0.929 . S
C499 C493 1.390 . S
C499 C496 1.386 . S
C500 C495 1.490 . S
C500 C502 1.395 . S
C500 C503 1.403 . S
H501 C507 0.930 . S
C502 H488 0.930 . S
C502 C500 1.395 . S
C502 C505 1.403 . S
C503 C500 1.403 . S
C503 C504 1.524 . S
C503 C507 1.400 . S
C504 H489 0.960 1_655 S
C504 H490 0.960 . S
C504 H491 0.960 . S
C504 C503 1.524 . S
C505 C502 1.403 . S
C505 C506 1.392 . S
C505 C509 1.495 . S
C506 C505 1.392 . S
C506 C507 1.385 . S
C506 C508 1.478 . S
C507 H501 0.930 . S
C507 C503 1.400 . S
C507 C506 1.385 . S
C508 C506 1.478 . S
C508 C510 1.381 . S
C508 C514 1.383 1_655 S
C509 C505 1.495 . S
C509 H515 0.959 . S
C509 H516 0.961 . S
C509 H517 0.960 . S
C510 C508 1.381 . S
C510 C511 1.394 . S
C510 H518 0.930 . S
C511 C510 1.394 . S
C511 C512 1.383 1_655 S
C511 H519 0.929 . S
C512 C511 1.383 1_455 S
C512 C513 1.377 . S
C513 H497 0.930 . S
C513 C512 1.377 . S
C513 C514 1.379 . S
C514 H498 0.931 . S
C514 C508 1.383 1_455 S
C514 C513 1.379 . S
H515 C509 0.959 . S
H516 C509 0.961 . S
H517 C509 0.960 . S
H518 C510 0.930 . S
H519 C511 0.929 . S
H520 C528 0.929 . S
H521 C530 0.930 . S
H522 C532 0.930 . S
H523 C535 0.929 . S
H524 C538 0.930 . S
H525 C540 0.960 . S
H526 C540 0.960 . S
H527 C540 0.960 1_655 S
C528 H520 0.929 . S
C528 C529 1.377 1_455 S
C528 C530 1.384 . S
C529 C528 1.377 1_655 S
C529 C535 1.390 . S
C530 H521 0.930 . S
C530 C528 1.384 . S
C530 C531 1.372 . S
C531 C530 1.372 . S
C531 C532 1.400 1_455 S
C531 C536 1.490 . S
C532 H522 0.930 . S
C532 C531 1.400 1_655 S
C532 C535 1.386 . S
H533 C549 0.930 . S
H534 C550 0.931 . S
C535 H523 0.929 . S
C535 C529 1.390 . S
C535 C532 1.386 . S
C536 C531 1.490 . S
C536 C538 1.395 . S
C536 C539 1.403 . S
H537 C543 0.930 . S
C538 H524 0.930 . S
C538 C536 1.395 . S
C538 C541 1.403 . S
C539 C536 1.403 . S
C539 C540 1.524 . S
C539 C543 1.400 . S
C540 H525 0.960 . S
C540 H526 0.960 . S
C540 H527 0.960 1_455 S
C540 C539 1.524 . S
C541 C538 1.403 . S
C541 C542 1.392 . S
C541 C545 1.495 . S
C542 C541 1.392 . S
C542 C543 1.385 . S
C542 C544 1.478 . S
C543 H537 0.930 . S
C543 C539 1.400 . S
C543 C542 1.385 . S
C544 C542 1.478 . S
C544 C546 1.381 . S
C544 C550 1.383 . S
C545 C541 1.495 . S
C545 H551 0.959 . S
C545 H552 0.961 . S
C545 H553 0.960 . S
C546 C544 1.381 . S
C546 C547 1.394 . S
C546 H554 0.930 . S
C547 C546 1.394 . S
C547 C548 1.383 . S
C547 H555 0.929 . S
C548 C547 1.383 . S
C548 C549 1.377 . S
C549 H533 0.930 . S
C549 C548 1.377 . S
C549 C550 1.379 . S
C550 H534 0.931 . S
C550 C544 1.383 . S
C550 C549 1.379 . S
H551 C545 0.959 . S
H552 C545 0.961 . S
H553 C545 0.960 . S
H554 C546 0.930 . S
H555 C547 0.929 . S
H556 C564 0.929 . S
H557 C566 0.930 . S
H558 C568 0.930 . S
H559 C571 0.929 . S
H560 C574 0.930 . S
H561 C576 0.960 . S
H562 C576 0.960 . S
H563 C576 0.960 . S
C564 H556 0.929 . S
C564 C565 1.377 . S
C564 C566 1.384 . S
C565 C564 1.377 . S
C565 C571 1.390 . S
C566 H557 0.930 . S
C566 C564 1.384 . S
C566 C567 1.372 . S
C567 C566 1.372 . S
C567 C568 1.400 . S
C567 C572 1.490 . S
C568 H558 0.930 . S
C568 C567 1.400 . S
C568 C571 1.386 . S
H569 C585 0.930 . S
H570 C586 0.931 . S
C571 H559 0.929 . S
C571 C565 1.390 . S
C571 C568 1.386 . S
C572 C567 1.490 . S
C572 C574 1.395 . S
C572 C575 1.403 . S
H573 C579 0.930 . S
C574 H560 0.930 . S
C574 C572 1.395 . S
C574 C577 1.403 . S
C575 C572 1.403 . S
C575 C576 1.524 . S
C575 C579 1.400 . S
C576 H561 0.960 . S
C576 H562 0.960 . S
C576 H563 0.960 . S
C576 C575 1.524 . S
C577 C574 1.403 . S
C577 C578 1.392 . S
C577 C581 1.495 . S
C578 C577 1.392 . S
C578 C579 1.385 . S
C578 C580 1.478 . S
C579 H573 0.930 . S
C579 C575 1.400 . S
C579 C578 1.385 . S
C580 C578 1.478 . S
C580 C582 1.381 . S
C580 C586 1.383 1_455 S
C581 C577 1.495 . S
C581 H587 0.959 . S
C581 H588 0.961 . S
C581 H589 0.960 . S
C582 C580 1.381 . S
C582 C583 1.394 . S
C582 H590 0.930 . S
C583 C582 1.394 . S
C583 C584 1.383 1_455 S
C583 H591 0.929 . S
C584 C583 1.383 1_655 S
C584 C585 1.377 . S
C585 H569 0.930 . S
C585 C584 1.377 . S
C585 C586 1.379 . S
C586 H570 0.931 . S
C586 C580 1.383 1_655 S
C586 C585 1.379 . S
H587 C581 0.959 . S
H588 C581 0.961 . S
H589 C581 0.960 . S
H590 C582 0.930 . S
H591 C583 0.929 . S
C169 C63 1.535 1_554 S
C188 C2 1.523 . S
C205 C82 1.535 . S
C224 C143 1.528 . S
C241 C23 1.535 . S
C260 C42 1.515 . S
C277 C122 1.530 . S
C296 C103 1.530 . S
C313 C146 1.086 . S
C332 C13 1.097 . S
C349 C66 1.091 . S
C368 C93 1.087 . S
C385 C64 1.105 . S
C404 C97 1.088 . S
C421 C144 1.100 . S
C440 C17 1.084 . S
C457 C53 1.106 . S
C476 C106 1.054 . S
C493 C133 1.099 . S
C512 C26 1.112 . S
C529 C137 1.083 . S
C548 C24 1.109 . S
C565 C104 1.103 . S
C584 C57 1.063 . S
