# Generated by pormake.
# Topology snl, (6)-cn, num edge types: 1
# Building blocks:
#     Node 0, Type 0, BuildingBlock: UKALOJ_clean_sbu_0, # of connection points: 6
#     Node 1, Type 0, BuildingBlock: UKALOJ_clean_sbu_0, # of connection points: 6
#     Node 2, Type 0, BuildingBlock: UKALOJ_clean_sbu_0, # of connection points: 6
#     Node 3, Type 0, BuildingBlock: UKALOJ_clean_sbu_0, # of connection points: 6
#     Node 4, Type 0, BuildingBlock: UKALOJ_clean_sbu_0, # of connection points: 6
#     Node 5, Type 0, BuildingBlock: UKALOJ_clean_sbu_0, # of connection points: 6
#     Node 6, Type 0, BuildingBlock: UKALOJ_clean_sbu_0, # of connection points: 6
#     Node 7, Type 0, BuildingBlock: UKALOJ_clean_sbu_0, # of connection points: 6
#     Node 8, Type 0, BuildingBlock: UKALOJ_clean_sbu_0, # of connection points: 6
#     Node 9, Type 0, BuildingBlock: UKALOJ_clean_sbu_0, # of connection points: 6
#     Node 10, Type 0, BuildingBlock: UKALOJ_clean_sbu_0, # of connection points: 6
#     Node 11, Type 0, BuildingBlock: UKALOJ_clean_sbu_0, # of connection points: 6
#     Node 12, Type 0, BuildingBlock: UKALOJ_clean_sbu_0, # of connection points: 6
#     Node 13, Type 0, BuildingBlock: UKALOJ_clean_sbu_0, # of connection points: 6
#     Node 14, Type 0, BuildingBlock: UKALOJ_clean_sbu_0, # of connection points: 6
#     Node 15, Type 0, BuildingBlock: UKALOJ_clean_sbu_0, # of connection points: 6
#     Edge 16, Type (0, 0), BuildingBlock: KIFKEQ_clean_linker_1, # of connection points: 2
#     Edge 17, Type (0, 0), BuildingBlock: KIFKEQ_clean_linker_1, # of connection points: 2
#     Edge 18, Type (0, 0), BuildingBlock: KIFKEQ_clean_linker_1, # of connection points: 2
#     Edge 19, Type (0, 0), BuildingBlock: KIFKEQ_clean_linker_1, # of connection points: 2
#     Edge 20, Type (0, 0), BuildingBlock: KIFKEQ_clean_linker_1, # of connection points: 2
#     Edge 21, Type (0, 0), BuildingBlock: KIFKEQ_clean_linker_1, # of connection points: 2
#     Edge 22, Type (0, 0), BuildingBlock: KIFKEQ_clean_linker_1, # of connection points: 2
#     Edge 23, Type (0, 0), BuildingBlock: KIFKEQ_clean_linker_1, # of connection points: 2
#     Edge 24, Type (0, 0), BuildingBlock: KIFKEQ_clean_linker_1, # of connection points: 2
#     Edge 25, Type (0, 0), BuildingBlock: KIFKEQ_clean_linker_1, # of connection points: 2
#     Edge 26, Type (0, 0), BuildingBlock: KIFKEQ_clean_linker_1, # of connection points: 2
#     Edge 27, Type (0, 0), BuildingBlock: KIFKEQ_clean_linker_1, # of connection points: 2
#     Edge 28, Type (0, 0), BuildingBlock: KIFKEQ_clean_linker_1, # of connection points: 2
#     Edge 29, Type (0, 0), BuildingBlock: KIFKEQ_clean_linker_1, # of connection points: 2
#     Edge 30, Type (0, 0), BuildingBlock: KIFKEQ_clean_linker_1, # of connection points: 2
#     Edge 31, Type (0, 0), BuildingBlock: KIFKEQ_clean_linker_1, # of connection points: 2
#     Edge 32, Type (0, 0), BuildingBlock: KIFKEQ_clean_linker_1, # of connection points: 2
#     Edge 33, Type (0, 0), BuildingBlock: KIFKEQ_clean_linker_1, # of connection points: 2
#     Edge 34, Type (0, 0), BuildingBlock: KIFKEQ_clean_linker_1, # of connection points: 2
#     Edge 35, Type (0, 0), BuildingBlock: KIFKEQ_clean_linker_1, # of connection points: 2
#     Edge 36, Type (0, 0), BuildingBlock: KIFKEQ_clean_linker_1, # of connection points: 2
#     Edge 37, Type (0, 0), BuildingBlock: KIFKEQ_clean_linker_1, # of connection points: 2
#     Edge 38, Type (0, 0), BuildingBlock: KIFKEQ_clean_linker_1, # of connection points: 2
#     Edge 39, Type (0, 0), BuildingBlock: KIFKEQ_clean_linker_1, # of connection points: 2
#     Edge 40, Type (0, 0), BuildingBlock: KIFKEQ_clean_linker_1, # of connection points: 2
#     Edge 41, Type (0, 0), BuildingBlock: KIFKEQ_clean_linker_1, # of connection points: 2
#     Edge 42, Type (0, 0), BuildingBlock: KIFKEQ_clean_linker_1, # of connection points: 2
#     Edge 43, Type (0, 0), BuildingBlock: KIFKEQ_clean_linker_1, # of connection points: 2
#     Edge 44, Type (0, 0), BuildingBlock: KIFKEQ_clean_linker_1, # of connection points: 2
#     Edge 45, Type (0, 0), BuildingBlock: KIFKEQ_clean_linker_1, # of connection points: 2
#     Edge 46, Type (0, 0), BuildingBlock: KIFKEQ_clean_linker_1, # of connection points: 2
#     Edge 47, Type (0, 0), BuildingBlock: KIFKEQ_clean_linker_1, # of connection points: 2
#     Edge 48, Type (0, 0), BuildingBlock: KIFKEQ_clean_linker_1, # of connection points: 2
#     Edge 49, Type (0, 0), BuildingBlock: KIFKEQ_clean_linker_1, # of connection points: 2
#     Edge 50, Type (0, 0), BuildingBlock: KIFKEQ_clean_linker_1, # of connection points: 2
#     Edge 51, Type (0, 0), BuildingBlock: KIFKEQ_clean_linker_1, # of connection points: 2
#     Edge 52, Type (0, 0), BuildingBlock: KIFKEQ_clean_linker_1, # of connection points: 2
#     Edge 53, Type (0, 0), BuildingBlock: KIFKEQ_clean_linker_1, # of connection points: 2
#     Edge 54, Type (0, 0), BuildingBlock: KIFKEQ_clean_linker_1, # of connection points: 2
#     Edge 55, Type (0, 0), BuildingBlock: KIFKEQ_clean_linker_1, # of connection points: 2
#     Edge 56, Type (0, 0), BuildingBlock: KIFKEQ_clean_linker_1, # of connection points: 2
#     Edge 57, Type (0, 0), BuildingBlock: KIFKEQ_clean_linker_1, # of connection points: 2
#     Edge 58, Type (0, 0), BuildingBlock: KIFKEQ_clean_linker_1, # of connection points: 2
#     Edge 59, Type (0, 0), BuildingBlock: KIFKEQ_clean_linker_1, # of connection points: 2
#     Edge 60, Type (0, 0), BuildingBlock: KIFKEQ_clean_linker_1, # of connection points: 2
#     Edge 61, Type (0, 0), BuildingBlock: KIFKEQ_clean_linker_1, # of connection points: 2
#     Edge 62, Type (0, 0), BuildingBlock: KIFKEQ_clean_linker_1, # of connection points: 2
#     Edge 63, Type (0, 0), BuildingBlock: KIFKEQ_clean_linker_1, # of connection points: 2
# Relax obj value: 0.072
# Max RMSD: 0.105
# Mean RMSD: 0.095
data_MOF--net-snl--node1-UKALOJ_clean_sbu_0--edge1-KIFKEQ_clean_linker_1
_symmetry_space_group_name_H-M    P1
_symmetry_Int_Tables_number       1
_symmetry_cell_setting            triclinic
loop_
_symmetry_equiv_pos_as_xyz
'x, y, z'
_cell_length_a     72.749875
_cell_length_b     67.42602
_cell_length_c     15.614911
_cell_angle_alpha  89.055675
_cell_angle_beta   89.46184
_cell_angle_gamma 90.413172
loop_
_atom_site_label
_atom_site_type_symbol
_atom_site_fract_x
_atom_site_fract_y
_atom_site_fract_z
_atom_type_partial_charge
Zn0 Zn 0.12631 0.65755 0.00772 0.0
O1 O 0.12621 0.65757 0.87221 0.0
C2 C 0.13749 0.61512 0.00991 0.0
Zn3 Zn 0.15669 0.65469 0.00617 0.0
C4 C 0.14124 0.65643 0.83038 0.0
O5 O 0.15632 0.65522 0.87064 0.0
C6 C 0.14142 0.65565 0.1836 0.0
O7 O 0.16038 0.68582 0.00471 0.0
O8 O 0.13046 0.68932 0.00665 0.0
N9 N 0.18434 0.65065 0.00412 0.0
C10 C 0.19734 0.65654 0.05909 0.0
C11 C 0.20987 0.63613 0.97437 0.0
N12 N 0.1922 0.63815 0.95069 0.0
N13 N 0.21344 0.64775 0.04156 0.0
C14 C 0.08385 0.65094 -0.00983 0.0
C15 C 0.07388 0.67643 0.05447 0.0
N16 N 0.09859 0.66192 0.01239 0.0
N17 N 0.09232 0.6778 0.0516 0.0
N18 N 0.06819 0.65974 0.01628 0.0
H19 H 0.0967 0.63054 0.90436 0.0
H20 H 0.07222 0.6269 0.91696 0.0
H21 H 0.08729 0.61962 0.00165 0.0
C22 C 0.08502 0.63091 0.95042 0.0
C23 C 0.19415 0.66956 0.13466 0.0
H24 H 0.18241 0.67961 0.12422 0.0
H25 H 0.20667 0.6785 0.14741 0.0
H26 H 0.19135 0.6601 0.19216 0.0
O27 O 0.15639 0.65391 0.14201 0.0
O28 O 0.1265 0.65755 0.14299 0.0
C29 C 0.14648 0.69708 0.00605 0.0
O30 O 0.1231 0.62574 0.01022 0.0
O31 O 0.15314 0.62358 0.00772 0.0
Zn32 Zn 0.62826 0.90458 0.1857 0.0
O33 O 0.59871 0.90294 0.18809 0.0
C34 C 0.62943 0.88578 0.36319 0.0
Zn35 Zn 0.62885 0.87158 0.18756 0.0
C36 C 0.59003 0.88646 0.18995 0.0
O37 O 0.5992 0.87043 0.19067 0.0
C38 C 0.66702 0.88976 0.17968 0.0
O39 O 0.62859 0.87401 0.05237 0.0
O40 O 0.62752 0.90657 0.04977 0.0
N41 N 0.62989 0.84144 0.17796 0.0
C42 C 0.63834 0.82745 0.22579 0.0
C43 C 0.62562 0.81278 0.12169 0.0
N44 N 0.62201 0.83228 0.11333 0.0
N45 N 0.6358 0.80937 0.19189 0.0
C46 C 0.62079 0.94564 0.26247 0.0
C47 C 0.63751 0.9651 0.18582 0.0
N48 N 0.62772 0.93485 0.19782 0.0
N49 N 0.63799 0.94704 0.14977 0.0
N50 N 0.62689 0.96453 0.25693 0.0
H51 H 0.59999 0.92489 0.30967 0.0
H52 H 0.59806 0.94978 0.34934 0.0
H53 H 0.61564 0.93374 0.38881 0.0
C54 C 0.60782 0.93797 0.33092 0.0
C55 C 0.64993 0.83163 0.30243 0.0
H56 H 0.66078 0.82027 0.31019 0.0
H57 H 0.64106 0.83127 0.36065 0.0
H58 H 0.65648 0.84646 0.29692 0.0
O59 O 0.65846 0.87322 0.18263 0.0
O60 O 0.65776 0.9057 0.18095 0.0
C61 C 0.62802 0.89025 0.00997 0.0
O62 O 0.62946 0.902 0.32089 0.0
O63 O 0.62892 0.86956 0.32324 0.0
Zn64 Zn 0.36093 0.40218 0.61954 0.0
O65 O 0.36167 0.37041 0.62718 0.0
C66 C 0.37639 0.40412 0.79494 0.0
Zn67 Zn 0.39146 0.40267 0.61692 0.0
C68 C 0.37708 0.36158 0.62905 0.0
O69 O 0.39186 0.3717 0.6258 0.0
C70 C 0.37615 0.44325 0.60598 0.0
O71 O 0.39121 0.40076 0.48207 0.0
O72 O 0.36107 0.40117 0.48372 0.0
N73 N 0.41936 0.40348 0.61717 0.0
C74 C 0.43177 0.41153 0.56187 0.0
C75 C 0.44662 0.39881 0.66596 0.0
N76 N 0.42862 0.39562 0.68183 0.0
N77 N 0.44895 0.40875 0.59108 0.0
C78 C 0.32035 0.39445 0.67604 0.0
C79 C 0.30542 0.40912 0.57711 0.0
N80 N 0.33279 0.40189 0.61939 0.0
N81 N 0.32346 0.4109 0.5577 0.0
N82 N 0.30317 0.39892 0.65133 0.0
H83 H 0.33836 0.37494 0.74708 0.0
H84 H 0.31407 0.37065 0.76514 0.0
H85 H 0.32499 0.39192 0.81006 0.0
C86 C 0.32483 0.38217 0.7537 0.0
C87 C 0.42707 0.42299 0.48194 0.0
H88 H 0.42636 0.41263 0.42762 0.0
H89 H 0.43776 0.43438 0.46697 0.0
H90 H 0.4136 0.43033 0.48817 0.0
O91 O 0.39099 0.43352 0.60763 0.0
O92 O 0.36086 0.43399 0.61165 0.0
C93 C 0.37612 0.40068 0.44183 0.0
O94 O 0.36128 0.4034 0.75496 0.0
O95 O 0.39141 0.40437 0.75278 0.0
Zn96 Zn 0.85919 0.14187 0.93301 0.0
O97 O 0.85838 0.17377 0.9291 0.0
C98 C 0.87418 0.14081 0.7563 0.0
Zn99 Zn 0.89035 0.14092 0.93244 0.0
C100 C 0.87396 0.18254 0.93072 0.0
O101 O 0.88853 0.17224 0.93141 0.0
C102 C 0.87596 0.10025 0.9394 0.0
O103 O 0.89068 0.14118 0.06779 0.0
O104 O 0.86043 0.14232 0.0686 0.0
N105 N 0.91883 0.14404 0.92486 0.0
C106 C 0.93358 0.13374 0.9529 0.0
C107 C 0.94382 0.15983 0.88963 0.0
N108 N 0.92537 0.16018 0.88551 0.0
N109 N 0.94946 0.14339 0.93151 0.0
C110 C 0.81601 0.14665 0.89579 0.0
C111 C 0.80528 0.12594 -0.01206 0.0
N112 N 0.83049 0.13932 0.94011 0.0
N113 N 0.82363 0.12658 -0.00252 0.0
N114 N 0.79991 0.13834 0.92439 0.0
H115 H 0.8323 0.16301 0.80167 0.0
H116 H 0.8132 0.17604 0.845 0.0
H117 H 0.80914 0.15676 0.76883 0.0
C118 C 0.81785 0.16133 0.82316 0.0
C119 C 0.93224 0.11496 0.00503 0.0
H120 H 0.94427 0.1134 0.04775 0.0
H121 H 0.93194 0.10217 0.96122 0.0
H122 H 0.91938 0.11468 0.04375 0.0
O123 O 0.89128 0.10951 0.93512 0.0
O124 O 0.86103 0.11006 0.93877 0.0
C125 C 0.87553 0.14179 0.10914 0.0
O126 O 0.85905 0.14115 0.79773 0.0
O127 O 0.88927 0.14068 0.79682 0.0
Zn128 Zn 0.14201 0.37071 0.94876 0.0
O129 O 0.13913 0.36903 0.81365 0.0
C130 C 0.17936 0.38618 0.92758 0.0
Zn131 Zn 0.14152 0.40398 0.94729 0.0
C132 C 0.13887 0.38541 0.772 0.0
O133 O 0.13945 0.40162 0.81249 0.0
C134 C 0.14487 0.38941 0.12404 0.0
O135 O 0.11242 0.40479 0.95936 0.0
O136 O 0.11334 0.37218 0.96296 0.0
N137 N 0.14345 0.43438 0.93143 0.0
C138 C 0.13628 0.45048 0.96971 0.0
C139 C 0.15488 0.46095 0.87269 0.0
N140 N 0.15488 0.44104 0.87098 0.0
N141 N 0.14332 0.46742 0.93395 0.0
C142 C 0.1465 0.3246 0.92033 0.0
C143 C 0.13501 0.31334 0.03762 0.0
N144 N 0.14064 0.34033 0.96535 0.0
N145 N 0.13346 0.33321 0.0379 0.0
N146 N 0.14311 0.3075 0.96451 0.0
H147 H 0.14606 0.32555 0.78381 0.0
H148 H 0.16595 0.31355 0.82794 0.0
H149 H 0.16398 0.34034 0.82971 0.0
C150 C 0.15634 0.3261 0.83581 0.0
C151 C 0.12301 0.44948 0.04358 0.0
H152 H 0.12264 0.4345 0.07354 0.0
H153 H 0.10902 0.45281 0.02003 0.0
H154 H 0.12671 0.46066 0.09199 0.0
O155 O 0.14377 0.40565 0.08192 0.0
O156 O 0.1449 0.37312 0.0841 0.0
C157 C 0.10412 0.38812 0.96539 0.0
O158 O 0.17064 0.36981 0.93312 0.0
O159 O 0.17065 0.40238 0.93445 0.0
Zn160 Zn 0.86146 0.90857 0.0401 0.0
O161 O 0.86395 0.87685 0.05046 0.0
C162 C 0.87566 0.91056 0.21559 0.0
Zn163 Zn 0.89247 0.91088 0.03827 0.0
C164 C 0.87972 0.8687 0.04665 0.0
O165 O 0.89409 0.87956 0.03975 0.0
C166 C 0.87467 0.9508 0.02972 0.0
O167 O 0.89337 0.91142 0.90278 0.0
O168 O 0.86342 0.90678 0.9047 0.0
N169 N 0.92087 0.91403 0.04719 0.0
C170 C 0.93578 0.90532 0.0117 0.0
C171 C 0.94561 0.92739 0.09606 0.0
N172 N 0.92714 0.92768 0.09952 0.0
N173 N 0.95161 0.91348 0.04153 0.0
C174 C 0.81898 0.90064 0.08467 0.0
C175 C 0.80683 0.90913 0.9662 0.0
N176 N 0.83285 0.90654 0.0313 0.0
N177 N 0.82513 0.9118 0.95794 0.0
N178 N 0.8025 0.90219 0.04525 0.0
H179 H 0.80998 0.88267 0.19305 0.0
H180 H 0.823 0.90461 0.21845 0.0
H181 H 0.83461 0.88349 0.17496 0.0
C182 C 0.82176 0.89224 0.17285 0.0
C183 C 0.93455 0.88948 0.94585 0.0
H184 H 0.93644 0.8748 0.97751 0.0
H185 H 0.94541 0.89166 0.89614 0.0
H186 H 0.92089 0.8894 0.91527 0.0
O187 O 0.89009 0.94217 0.0364 0.0
O188 O 0.86 0.94036 0.02849 0.0
C189 C 0.8784 0.9089 0.86272 0.0
O190 O 0.86052 0.91053 0.17545 0.0
O191 O 0.89074 0.91039 0.17367 0.0
Zn192 Zn 0.37089 0.63311 0.5028 0.0
O193 O 0.37114 0.66432 0.48662 0.0
C194 C 0.38657 0.62965 0.32648 0.0
Zn195 Zn 0.40129 0.63186 0.50279 0.0
C196 C 0.38656 0.67323 0.48402 0.0
O197 O 0.40114 0.66324 0.49296 0.0
C198 C 0.38535 0.59173 0.51919 0.0
O199 O 0.40094 0.63318 0.63744 0.0
O200 O 0.37089 0.63607 0.6385 0.0
N201 N 0.4292 0.63339 0.50105 0.0
C202 C 0.44282 0.62178 0.53076 0.0
C203 C 0.4553 0.64748 0.47306 0.0
N204 N 0.43703 0.64931 0.46532 0.0
N205 N 0.4593 0.63038 0.51409 0.0
C206 C 0.33079 0.64128 0.44932 0.0
C207 C 0.31573 0.6215 0.53207 0.0
N208 N 0.34294 0.63267 0.50262 0.0
N209 N 0.33354 0.62055 0.55456 0.0
N210 N 0.31364 0.63455 0.46673 0.0
H211 H 0.35063 0.65708 0.36713 0.0
H212 H 0.32952 0.66966 0.38606 0.0
H213 H 0.3299 0.64901 0.31535 0.0
C214 C 0.3357 0.65492 0.37536 0.0
C215 C 0.43993 0.60272 0.57959 0.0
H216 H 0.42755 0.60368 0.62132 0.0
H217 H 0.45207 0.59912 0.61927 0.0
H218 H 0.43778 0.59059 0.5335 0.0
O219 O 0.40089 0.60042 0.51203 0.0
O220 O 0.37076 0.60197 0.51803 0.0
C221 C 0.38596 0.63498 0.67901 0.0
O222 O 0.37148 0.62967 0.36789 0.0
O223 O 0.40157 0.63055 0.36727 0.0
Zn224 Zn 0.62562 0.16059 0.77562 0.0
O225 O 0.62542 0.1591 0.91055 0.0
C226 C 0.6641 0.14392 0.78272 0.0
Zn227 Zn 0.62558 0.12759 0.77618 0.0
C228 C 0.62467 0.14279 0.9526 0.0
O229 O 0.62414 0.12648 0.91249 0.0
C230 C 0.62675 0.14546 0.59924 0.0
O231 O 0.59596 0.12813 0.77194 0.0
O232 O 0.59601 0.16061 0.77571 0.0
N233 N 0.62563 0.09721 0.7678 0.0
C234 C 0.61916 0.08579 0.70444 0.0
C235 C 0.63592 0.06739 0.78309 0.0
N236 N 0.63591 0.08568 0.81714 0.0
N237 N 0.62555 0.06716 0.71209 0.0
C238 C 0.63356 0.20426 0.72325 0.0
C239 C 0.61994 0.22044 0.821 0.0
N240 N 0.62602 0.19088 0.77846 0.0
N241 N 0.61762 0.20096 0.8394 0.0
N242 N 0.62982 0.22284 0.74819 0.0
H243 H 0.65274 0.18521 0.65807 0.0
H244 H 0.65553 0.2113 0.63374 0.0
H245 H 0.63652 0.19777 0.59022 0.0
C246 C 0.64535 0.1993 0.64731 0.0
C247 C 0.60654 0.09259 0.63446 0.0
H248 H 0.59848 0.10564 0.65332 0.0
H249 H 0.59698 0.0804 0.61749 0.0
H250 H 0.61468 0.09653 0.57628 0.0
O251 O 0.62748 0.12926 0.64117 0.0
O252 O 0.62549 0.16156 0.63965 0.0
C253 C 0.58706 0.14432 0.77322 0.0
O254 O 0.6553 0.16016 0.77851 0.0
O255 O 0.65509 0.12766 0.7822 0.0
Zn256 Zn 0.91066 0.37136 0.97268 0.0
O257 O 0.90974 0.37118 0.10855 0.0
C258 C 0.89965 0.41365 0.97674 0.0
Zn259 Zn 0.88032 0.374 0.97579 0.0
C260 C 0.89474 0.3718 0.15092 0.0
O261 O 0.87959 0.37267 0.1111 0.0
C262 C 0.89664 0.37381 0.79755 0.0
O263 O 0.87638 0.34302 0.97309 0.0
O264 O 0.90629 0.33956 0.97228 0.0
N265 N 0.85273 0.3785 0.97156 0.0
C266 C 0.84066 0.37373 0.91027 0.0
C267 C 0.82707 0.39338 -0.0049 0.0
N268 N 0.84422 0.39055 0.02482 0.0
N269 N 0.8246 0.38305 0.92305 0.0
C270 C 0.95273 0.37722 0.00229 0.0
C271 C 0.96319 0.35034 0.9515 0.0
N272 N 0.93826 0.36664 0.97417 0.0
N273 N 0.94481 0.34996 0.94276 0.0
N274 N 0.96849 0.3673 -0.01145 0.0
H275 H 0.93866 0.39687 0.08754 0.0
H276 H 0.96347 0.39907 0.08858 0.0
H277 H 0.95069 0.40879 -0.00077 0.0
C278 C 0.95133 0.39657 0.04753 0.0
C279 C 0.84432 0.35977 0.83825 0.0
H280 H 0.855 0.34885 0.85521 0.0
H281 H 0.8315 0.35177 0.82135 0.0
H282 H 0.84901 0.36827 0.78075 0.0
O283 O 0.88173 0.37564 0.83953 0.0
O284 O 0.91154 0.37147 0.83784 0.0
C285 C 0.89028 0.33179 0.97145 0.0
O286 O 0.91415 0.40327 0.97112 0.0
O287 O 0.88414 0.40491 0.98012 0.0
Zn288 Zn 0.40783 0.15758 0.77907 0.0
O289 O 0.4091 0.15546 0.91447 0.0
C290 C 0.36961 0.14015 0.78652 0.0
Zn291 Zn 0.40837 0.12459 0.78121 0.0
C292 C 0.40866 0.13917 0.95665 0.0
O293 O 0.40795 0.12288 0.91673 0.0
C294 C 0.40766 0.14276 0.60349 0.0
O295 O 0.4379 0.12571 0.78272 0.0
O296 O 0.43747 0.15817 0.77181 0.0
N297 N 0.40787 0.09431 0.77068 0.0
C298 C 0.41735 0.08266 0.71671 0.0
C299 C 0.39419 0.06595 0.76212 0.0
N300 N 0.3936 0.08381 0.79951 0.0
N301 N 0.40883 0.06489 0.70886 0.0
C302 C 0.39873 0.20193 0.74094 0.0
C303 C 0.41237 0.21642 0.84296 0.0
N304 N 0.40736 0.18782 0.78737 0.0
N305 N 0.41582 0.19687 0.85068 0.0
N306 N 0.40171 0.21998 0.77447 0.0
H307 H 0.37557 0.20925 0.66131 0.0
H308 H 0.39494 0.1987 0.60653 0.0
H309 H 0.38016 0.18303 0.67152 0.0
C310 C 0.38654 0.19795 0.66617 0.0
C311 C 0.43567 0.08816 0.67772 0.0
H312 H 0.44517 0.09258 0.7291 0.0
H313 H 0.44209 0.07555 0.64445 0.0
H314 H 0.43424 0.10089 0.63259 0.0
O315 O 0.40864 0.12662 0.64608 0.0
O316 O 0.40676 0.15903 0.64317 0.0
C317 C 0.44661 0.14214 0.77649 0.0
O318 O 0.37827 0.1566 0.7879 0.0
O319 O 0.37878 0.12422 0.78127 0.0
Zn320 Zn 0.67613 0.62762 0.35742 0.0
O321 O 0.67526 0.65931 0.34539 0.0
C322 C 0.66053 0.6257 0.1825 0.0
Zn323 Zn 0.64561 0.62735 0.36027 0.0
C324 C 0.65994 0.66829 0.34794 0.0
O325 O 0.64516 0.6583 0.35584 0.0
C326 C 0.66094 0.58671 0.37099 0.0
O327 O 0.64608 0.62802 0.49547 0.0
O328 O 0.67622 0.62987 0.49324 0.0
N329 N 0.61765 0.62663 0.35961 0.0
C330 C 0.60502 0.61795 0.41201 0.0
C331 C 0.59054 0.63223 0.31052 0.0
N332 N 0.60861 0.63546 0.29656 0.0
N333 N 0.58794 0.62129 0.38258 0.0
C334 C 0.71617 0.63543 0.29463 0.0
C335 C 0.73206 0.62255 0.39482 0.0
N336 N 0.70427 0.62829 0.35453 0.0
N337 N 0.71418 0.62036 0.41689 0.0
N338 N 0.73363 0.63187 0.31815 0.0
H339 H 0.69778 0.65476 0.22496 0.0
H340 H 0.72175 0.65764 0.1966 0.0
H341 H 0.70911 0.6363 0.16204 0.0
C342 C 0.71085 0.64678 0.21535 0.0
C343 C 0.60937 0.60539 0.48915 0.0
H344 H 0.62333 0.5991 0.48486 0.0
H345 H 0.60859 0.6147 0.54682 0.0
H346 H 0.59917 0.59316 0.49688 0.0
O347 O 0.64614 0.59645 0.36502 0.0
O348 O 0.67628 0.59594 0.36984 0.0
C349 C 0.66118 0.62922 0.53544 0.0
O350 O 0.67559 0.62504 0.22273 0.0
O351 O 0.64556 0.62694 0.22443 0.0
Zn352 Zn 0.17789 0.88742 0.03152 0.0
O353 O 0.17831 0.85542 0.03298 0.0
C354 C 0.16333 0.88847 0.20765 0.0
Zn355 Zn 0.14679 0.8881 0.03095 0.0
C356 C 0.16273 0.84658 0.03447 0.0
O357 O 0.14813 0.85682 0.03598 0.0
C358 C 0.16126 0.9289 0.02348 0.0
O359 O 0.14623 0.88686 0.896 0.0
O360 O 0.1765 0.8875 0.89569 0.0
N361 N 0.11832 0.88585 0.04236 0.0
C362 C 0.1035 0.89437 0.00529 0.0
C363 C 0.09347 0.87338 0.098 0.0
N364 N 0.11192 0.87288 0.09988 0.0
N365 N 0.08759 0.88674 0.0393 0.0
C366 C 0.2206 0.8822 0.07078 0.0
C367 C 0.23221 0.9029 0.98067 0.0
N368 N 0.20652 0.88973 0.02454 0.0
N369 N 0.2139 0.90249 0.96845 0.0
N370 N 0.23685 0.89026 0.04439 0.0
H371 H 0.22943 0.85713 0.14601 0.0
H372 H 0.21937 0.87685 0.20565 0.0
H373 H 0.20474 0.86071 0.14464 0.0
C374 C 0.2183 0.86829 0.14579 0.0
C375 C 0.10487 0.90947 0.93411 0.0
H376 H 0.11854 0.90906 0.90244 0.0
H377 H 0.09398 0.9069 0.88618 0.0
H378 H 0.10311 0.92448 0.96092 0.0
O379 O 0.14608 0.91938 0.02355 0.0
O380 O 0.1763 0.91936 0.02868 0.0
C381 C 0.16142 0.88711 0.85487 0.0
O382 O 0.17844 0.88744 0.16651 0.0
O383 O 0.14829 0.88923 0.16679 0.0
Zn384 Zn 0.89481 0.62462 0.03319 0.0
O385 O 0.92383 0.62216 0.02452 0.0
C386 C 0.89373 0.64062 0.85645 0.0
Zn387 Zn 0.89533 0.6579 0.03245 0.0
C388 C 0.93275 0.63843 0.02584 0.0
O389 O 0.92411 0.6547 0.02961 0.0
C390 C 0.8574 0.64434 0.04462 0.0
O391 O 0.89587 0.6583 0.16733 0.0
O392 O 0.89655 0.62569 0.16899 0.0
N393 N 0.89909 0.68824 0.02454 0.0
C394 C 0.88985 0.70413 0.05368 0.0
C395 C 0.91382 0.71509 -0.01131 0.0
N396 N 0.91394 0.69518 0.98413 0.0
N397 N 0.89882 0.72114 0.03179 0.0
C398 C 0.90017 0.57859 0.00767 0.0
C399 C 0.87689 0.56723 0.07688 0.0
N400 N 0.89128 0.59427 0.04097 0.0
N401 N 0.87688 0.58709 0.08413 0.0
N402 N 0.89139 0.56146 0.02952 0.0
H403 H 0.92924 0.58053 -0.00922 0.0
H404 H 0.91767 0.56721 0.90778 0.0
H405 H 0.9164 0.59404 0.91153 0.0
C406 C 0.91676 0.58016 0.95052 0.0
C407 C 0.8727 0.70286 0.10726 0.0
H408 H 0.87256 0.68907 0.14694 0.0
H409 H 0.87153 0.71591 0.14931 0.0
H410 H 0.86064 0.7026 0.06436 0.0
O411 O 0.86654 0.66043 0.03761 0.0
O412 O 0.86579 0.62786 0.04305 0.0
C413 C 0.89643 0.64197 0.20916 0.0
O414 O 0.89304 0.62427 0.89817 0.0
O415 O 0.89481 0.65683 0.89679 0.0
Zn416 Zn 0.175 0.12017 0.91903 0.0
O417 O 0.17262 0.1518 0.91338 0.0
C418 C 0.16069 0.11774 0.74378 0.0
Zn419 Zn 0.1439 0.11878 0.9212 0.0
C420 C 0.15713 0.1605 0.90843 0.0
O421 O 0.14238 0.15017 0.90858 0.0
C422 C 0.16166 0.07843 0.93426 0.0
O423 O 0.14291 0.12084 0.05647 0.0
O424 O 0.17313 0.12077 0.05457 0.0
N425 N 0.11551 0.11504 0.91532 0.0
C426 C 0.10064 0.12537 0.94144 0.0
C427 C 0.09071 0.09865 0.88693 0.0
N428 N 0.10918 0.09849 0.88139 0.0
N429 N 0.08487 0.11536 0.92429 0.0
C430 C 0.21753 0.12847 0.87594 0.0
C431 C 0.22959 0.11893 -0.0068 0.0
N432 N 0.20363 0.12208 0.92804 0.0
N433 N 0.21129 0.11618 0.00064 0.0
N434 N 0.23398 0.12659 0.91542 0.0
H435 H 0.20186 0.14616 0.78772 0.0
H436 H 0.22653 0.14752 0.77107 0.0
H437 H 0.2139 0.12563 0.74142 0.0
C438 C 0.21483 0.13761 0.78907 0.0
C439 C 0.10175 0.14458 -0.01216 0.0
H440 H 0.10144 0.15701 0.94039 0.0
H441 H 0.08991 0.14611 0.03251 0.0
H442 H 0.11478 0.1456 0.02377 0.0
O443 O 0.14639 0.08748 0.9346 0.0
O444 O 0.1765 0.08843 0.92568 0.0
C445 C 0.15806 0.12105 0.09653 0.0
O446 O 0.17578 0.11941 0.78376 0.0
O447 O 0.14561 0.11668 0.78574 0.0
Zn448 Zn 0.63493 0.39831 0.4682 0.0
O449 O 0.6353 0.39624 0.3335 0.0
C450 C 0.65066 0.4383 0.45489 0.0
Zn451 Zn 0.66536 0.39677 0.46777 0.0
C452 C 0.65035 0.39565 0.29163 0.0
O453 O 0.66547 0.39563 0.33192 0.0
C454 C 0.64946 0.3995 0.64471 0.0
O455 O 0.66544 0.36552 0.47661 0.0
O456 O 0.63539 0.36699 0.48052 0.0
N457 N 0.69335 0.3977 0.46803 0.0
C458 C 0.70527 0.39095 0.52684 0.0
C459 C 0.7207 0.40826 0.4358 0.0
N460 N 0.70298 0.40831 0.41089 0.0
N461 N 0.72239 0.39746 0.50847 0.0
C462 C 0.59349 0.4078 0.43756 0.0
C463 C 0.58104 0.38241 0.49792 0.0
N464 N 0.6071 0.39652 0.46946 0.0
N465 N 0.59931 0.38077 0.50681 0.0
N466 N 0.57703 0.39919 0.45446 0.0
H467 H 0.58432 0.42976 0.34558 0.0
H468 H 0.59836 0.43902 0.43083 0.0
H469 H 0.60886 0.42538 0.34541 0.0
C470 C 0.59638 0.42654 0.38635 0.0
C471 C 0.70039 0.37821 0.60337 0.0
H472 H 0.71161 0.36755 0.6167 0.0
H473 H 0.69899 0.38781 0.65988 0.0
H474 H 0.68742 0.36993 0.5943 0.0
O475 O 0.66451 0.39807 0.60351 0.0
O476 O 0.63449 0.40045 0.60378 0.0
C477 C 0.64997 0.3568 0.48361 0.0
O478 O 0.6351 0.4296 0.45656 0.0
O479 O 0.66522 0.42807 0.45989 0.0
Zn480 Zn 0.41087 0.86928 0.18517 0.0
O481 O 0.41069 0.87051 0.04969 0.0
C482 C 0.37256 0.8857 0.17753 0.0
Zn483 Zn 0.41127 0.90228 0.18309 0.0
C484 C 0.41194 0.88679 0.00754 0.0
O485 O 0.41296 0.90308 0.04748 0.0
C486 C 0.41027 0.88504 0.36073 0.0
O487 O 0.44086 0.90183 0.18943 0.0
O488 O 0.44051 0.86937 0.18329 0.0
N489 N 0.41031 0.93266 0.19037 0.0
C490 C 0.4191 0.94466 0.24509 0.0
C491 C 0.39616 0.96061 0.19698 0.0
N492 N 0.39615 0.94269 0.15992 0.0
N493 N 0.41031 0.96216 0.25169 0.0
C494 C 0.40327 0.82562 0.2401 0.0
C495 C 0.41667 0.80931 0.14213 0.0
N496 N 0.41063 0.83894 0.184 0.0
N497 N 0.41889 0.82878 0.12298 0.0
N498 N 0.407 0.807 0.21559 0.0
H499 H 0.38428 0.84481 0.3058 0.0
H500 H 0.38143 0.81874 0.33049 0.0
H501 H 0.40057 0.83222 0.37306 0.0
C502 C 0.39163 0.8307 0.31637 0.0
C503 C 0.43713 0.93979 0.28594 0.0
H504 H 0.44714 0.93613 0.23491 0.0
H505 H 0.44296 0.95249 0.32093 0.0
H506 H 0.43561 0.92678 0.32975 0.0
O507 O 0.4094 0.90119 0.3183 0.0
O508 O 0.41139 0.86884 0.32086 0.0
C509 C 0.44961 0.88554 0.18713 0.0
O510 O 0.38119 0.86943 0.18494 0.0
O511 O 0.38176 0.90183 0.17497 0.0
H512 H 0.17034 0.66286 0.7216 0.0
H513 H 0.1121 0.64988 0.72538 0.0
H514 H 0.17031 0.66303 0.56574 0.0
H515 H 0.11217 0.64915 0.56954 0.0
H516 H 0.11438 0.66881 0.29009 0.0
H517 H 0.11445 0.66943 0.44587 0.0
H518 H 0.16811 0.64223 0.44666 0.0
H519 H 0.1683 0.64242 0.29071 0.0
C520 C 0.15755 0.65988 0.68905 0.0
C521 C 0.14121 0.6564 0.73573 0.0
C522 C 0.15755 0.65984 0.59959 0.0
C523 C 0.14125 0.65605 0.55465 0.0
C524 C 0.12492 0.65247 0.60168 0.0
C525 C 0.12488 0.65278 0.69115 0.0
C526 C 0.12619 0.66297 0.32365 0.0
C527 C 0.14137 0.65563 0.2782 0.0
C528 C 0.12619 0.66321 0.41309 0.0
C529 C 0.14128 0.65586 0.45926 0.0
C530 C 0.1564 0.64836 0.41347 0.0
C531 C 0.15649 0.64837 0.32397 0.0
H532 H 0.6362 0.8589 0.90917 0.0
H533 H 0.62047 0.92053 0.89645 0.0
H534 H 0.63702 0.8578 0.7539 0.0
H535 H 0.62053 0.91924 0.74031 0.0
H536 H 0.64051 0.9161 0.46405 0.0
H537 H 0.64025 0.91728 0.6196 0.0
H538 H 0.61827 0.85752 0.63193 0.0
H539 H 0.61915 0.85619 0.47594 0.0
C540 C 0.63274 0.8722 0.87312 0.0
C541 C 0.62826 0.88982 0.91521 0.0
C542 C 0.63309 0.87152 0.78384 0.0
C543 C 0.62877 0.88839 0.73412 0.0
C544 C 0.62421 0.90603 0.77634 0.0
C545 C 0.62407 0.90677 0.8659 0.0
C546 C 0.63558 0.90323 0.50003 0.0
C547 C 0.62974 0.88609 0.45779 0.0
C548 C 0.63534 0.90394 0.58936 0.0
C549 C 0.62912 0.88756 0.63876 0.0
C550 C 0.62339 0.87034 0.59623 0.0
C551 C 0.62382 0.86957 0.50676 0.0
H552 H 0.40481 0.3926 0.334 0.0
H553 H 0.34754 0.4091 0.3357 0.0
H554 H 0.40501 0.39345 0.17797 0.0
H555 H 0.34787 0.41066 0.17992 0.0
H556 H 0.3491 0.39142 0.90343 0.0
H557 H 0.34917 0.39024 0.05869 0.0
H558 H 0.40403 0.41538 0.057 0.0
H559 H 0.40405 0.41594 0.90056 0.0
C560 C 0.39229 0.39652 0.30101 0.0
C561 C 0.37614 0.40074 0.34716 0.0
C562 C 0.39243 0.39715 0.2115 0.0
C563 C 0.37647 0.40217 0.16609 0.0
C564 C 0.36034 0.40641 0.21255 0.0
C565 C 0.36015 0.40559 0.30198 0.0
C566 C 0.36108 0.3969 0.93601 0.0
C567 C 0.37646 0.40397 0.88963 0.0
C568 C 0.36114 0.39625 0.02533 0.0
C569 C 0.37656 0.40283 0.07074 0.0
C570 C 0.39199 0.40994 0.02424 0.0
C571 C 0.39198 0.41039 0.9346 0.0
H572 H 0.90235 0.13044 0.64997 0.0
H573 H 0.84629 0.1511 0.64894 0.0
H574 H 0.90259 0.13022 0.49417 0.0
H575 H 0.84677 0.1519 0.49306 0.0
H576 H 0.84676 0.13282 0.21628 0.0
H577 H 0.84649 0.132 0.37201 0.0
H578 H 0.90352 0.15065 0.37168 0.0
H579 H 0.90396 0.15044 0.21572 0.0
C580 C 0.89012 0.1351 0.61631 0.0
C581 C 0.87429 0.14075 0.66167 0.0
C582 C 0.89029 0.13513 0.52683 0.0
C583 C 0.87472 0.1411 0.48048 0.0
C584 C 0.85891 0.14684 0.52624 0.0
C585 C 0.85865 0.14651 0.61575 0.0
C586 C 0.85924 0.13674 0.24957 0.0
C587 C 0.87538 0.14169 0.20379 0.0
C588 C 0.85907 0.1364 0.33903 0.0
C589 C 0.87497 0.14132 0.38498 0.0
C590 C 0.89109 0.14641 0.33882 0.0
C591 C 0.89133 0.14644 0.24929 0.0
H592 H 0.15463 0.35901 0.23166 0.0
H593 H 0.13477 0.41921 0.23075 0.0
H594 H 0.1532 0.35803 0.38753 0.0
H595 H 0.13242 0.41798 0.38625 0.0
H596 H 0.14688 0.41702 0.66734 0.0
H597 H 0.14911 0.41797 0.51235 0.0
H598 H 0.13311 0.35611 0.50567 0.0
H599 H 0.13181 0.35498 0.66198 0.0
C600 C 0.14991 0.37203 0.26486 0.0
C601 C 0.14491 0.38922 0.21888 0.0
C602 C 0.14891 0.37141 0.35437 0.0
C603 C 0.1426 0.38788 0.40017 0.0
C604 C 0.13766 0.4051 0.35377 0.0
C605 C 0.13895 0.40582 0.26434 0.0
C606 C 0.14374 0.40362 0.63288 0.0
C607 C 0.1391 0.38593 0.67709 0.0
C608 C 0.14493 0.40419 0.54359 0.0
C609 C 0.14125 0.38715 0.49572 0.0
C610 C 0.13637 0.36947 0.5401 0.0
C611 C 0.13545 0.36883 0.62978 0.0
H612 H 0.85047 0.89698 0.75968 0.0
H613 H 0.90581 0.92065 0.75169 0.0
H614 H 0.84985 0.89712 0.60396 0.0
H615 H 0.90494 0.92165 0.59579 0.0
H616 H 0.90471 0.9024 0.31888 0.0
H617 H 0.90535 0.90148 0.4744 0.0
H618 H 0.8481 0.91827 0.48252 0.0
H619 H 0.84731 0.91833 0.32644 0.0
C620 C 0.86248 0.90234 0.72458 0.0
C621 C 0.87821 0.90877 0.76802 0.0
C622 C 0.86207 0.90257 0.63515 0.0
C623 C 0.8773 0.90947 0.58687 0.0
C624 C 0.89304 0.91592 0.63058 0.0
C625 C 0.89353 0.91546 0.72009 0.0
C626 C 0.89225 0.9059 0.35385 0.0
C627 C 0.87595 0.91043 0.31031 0.0
C628 C 0.89264 0.9055 0.44322 0.0
C629 C 0.8768 0.90986 0.49146 0.0
C630 C 0.8605 0.9145 0.4477 0.0
C631 C 0.86005 0.91466 0.35814 0.0
H632 H 0.35839 0.64579 0.78901 0.0
H633 H 0.41383 0.62334 0.78314 0.0
H634 H 0.35864 0.64461 0.9452 0.0
H635 H 0.41384 0.62124 0.93853 0.0
H636 H 0.41536 0.638 0.21819 0.0
H637 H 0.41509 0.64007 0.06264 0.0
H638 H 0.35771 0.62281 0.06452 0.0
H639 H 0.35783 0.62169 0.22052 0.0
C640 C 0.3706 0.64053 0.82113 0.0
C641 C 0.38611 0.63477 0.77376 0.0
C642 C 0.37071 0.63968 0.91073 0.0
C643 C 0.38626 0.63278 0.95499 0.0
C644 C 0.40174 0.627 0.90714 0.0
C645 C 0.40172 0.62811 0.81777 0.0
C646 C 0.40271 0.63456 0.18536 0.0
C647 C 0.38663 0.62964 0.23171 0.0
C648 C 0.40256 0.63566 0.09593 0.0
C649 C 0.38637 0.6316 0.05046 0.0
C650 C 0.37035 0.6264 0.09709 0.0
C651 C 0.37045 0.62557 0.18663 0.0
H652 H 0.61756 0.112 0.06527 0.0
H653 H 0.63229 0.17418 0.05423 0.0
H654 H 0.61782 0.1128 0.22145 0.0
H655 H 0.63329 0.17483 0.20953 0.0
H656 H 0.61557 0.17482 0.48938 0.0
H657 H 0.61451 0.17393 0.33353 0.0
H658 H 0.63791 0.11515 0.3397 0.0
H659 H 0.63838 0.11587 0.49542 0.0
C660 C 0.62095 0.1258 0.09617 0.0
C661 C 0.62483 0.14303 0.04735 0.0
C662 C 0.62123 0.12625 0.18573 0.0
C663 C 0.62558 0.1439 0.22841 0.0
C664 C 0.62954 0.16107 0.1792 0.0
C665 C 0.62907 0.16067 0.08992 0.0
C666 C 0.62054 0.16176 0.45729 0.0
C667 C 0.62694 0.14538 0.50462 0.0
C668 C 0.62 0.16124 0.36788 0.0
C669 C 0.62608 0.14443 0.32371 0.0
C670 C 0.63275 0.12817 0.37137 0.0
C671 C 0.63311 0.12862 0.46074 0.0
H672 H 0.92432 0.37769 0.25378 0.0
H673 H 0.86581 0.36633 0.2621 0.0
H674 H 0.9248 0.37879 0.40937 0.0
H675 H 0.86637 0.36664 0.41808 0.0
H676 H 0.87015 0.38843 0.69157 0.0
H677 H 0.86975 0.38811 0.53565 0.0
H678 H 0.92233 0.35862 0.53405 0.0
H679 H 0.92295 0.35956 0.68982 0.0
C680 C 0.91158 0.37522 0.28894 0.0
C681 C 0.89502 0.37192 0.24561 0.0
C682 C 0.91186 0.37575 0.3783 0.0
C683 C 0.89563 0.37278 0.42663 0.0
C684 C 0.87908 0.36933 0.38308 0.0
C685 C 0.87877 0.36901 0.29361 0.0
C686 C 0.88159 0.38184 0.65782 0.0
C687 C 0.89654 0.37395 0.70292 0.0
C688 C 0.88134 0.38158 0.56837 0.0
C689 C 0.89597 0.37326 0.52194 0.0
C690 C 0.91095 0.36543 0.56738 0.0
C691 C 0.91128 0.36588 0.65679 0.0
H692 H 0.41632 0.11165 0.50183 0.0
H693 H 0.3991 0.17281 0.49097 0.0
H694 H 0.41699 0.11077 0.34651 0.0
H695 H 0.39889 0.1717 0.33507 0.0
H696 H 0.41827 0.1699 0.05846 0.0
H697 H 0.41826 0.17071 0.21402 0.0
H698 H 0.3984 0.11009 0.22463 0.0
H699 H 0.39925 0.10907 0.06868 0.0
C700 C 0.41253 0.12489 0.46622 0.0
C701 C 0.40774 0.14235 0.5088 0.0
C702 C 0.41277 0.12434 0.37689 0.0
C703 C 0.40797 0.14114 0.32774 0.0
C704 C 0.403 0.15857 0.37056 0.0
C705 C 0.40301 0.1592 0.46005 0.0
C706 C 0.41395 0.15672 0.09406 0.0
C707 C 0.40878 0.1394 0.05131 0.0
C708 C 0.4138 0.15723 0.18342 0.0
C709 C 0.40824 0.14051 0.23236 0.0
C710 C 0.40305 0.12317 0.18933 0.0
C711 C 0.40345 0.12258 0.09983 0.0
H712 H 0.63281 0.63707 0.07655 0.0
H713 H 0.68831 0.61473 0.07472 0.0
H714 H 0.63325 0.63877 0.92076 0.0
H715 H 0.68857 0.61571 0.91869 0.0
H716 H 0.68973 0.63811 0.64172 0.0
H717 H 0.68957 0.6376 0.79801 0.0
H718 H 0.63265 0.61871 0.79895 0.0
H719 H 0.63267 0.62003 0.64369 0.0
C720 C 0.64504 0.6323 0.04275 0.0
C721 C 0.66053 0.6258 0.08787 0.0
C722 C 0.64528 0.6332 0.95332 0.0
C723 C 0.66095 0.62737 0.9068 0.0
C724 C 0.67639 0.62067 0.95221 0.0
C725 C 0.67621 0.61999 0.04172 0.0
C726 C 0.67718 0.63394 0.67548 0.0
C727 C 0.66118 0.6292 0.63021 0.0
C728 C 0.67711 0.63351 0.76511 0.0
C729 C 0.66109 0.62811 0.81142 0.0
C730 C 0.64514 0.62331 0.76578 0.0
C731 C 0.64517 0.62397 0.67643 0.0
H732 H 0.19101 0.87779 0.31552 0.0
H733 H 0.13518 0.89916 0.31364 0.0
H734 H 0.1904 0.87693 0.47141 0.0
H735 H 0.13479 0.89922 0.46951 0.0
H736 H 0.13311 0.8784 0.74756 0.0
H737 H 0.13367 0.87835 0.59156 0.0
H738 H 0.19066 0.89708 0.59248 0.0
H739 H 0.19027 0.89619 0.74819 0.0
C740 C 0.17867 0.88252 0.3485 0.0
C741 C 0.16315 0.88853 0.30232 0.0
C742 C 0.17833 0.88214 0.43801 0.0
C743 C 0.16254 0.88803 0.48351 0.0
C744 C 0.14708 0.89422 0.43695 0.0
C745 C 0.14734 0.89433 0.34746 0.0
C746 C 0.14576 0.88245 0.7143 0.0
C747 C 0.16166 0.88722 0.76017 0.0
C748 C 0.14607 0.88256 0.62476 0.0
C749 C 0.16222 0.88773 0.57897 0.0
C750 C 0.17807 0.89264 0.62524 0.0
C751 C 0.17783 0.89226 0.71469 0.0
H752 H 0.90307 0.67141 0.74887 0.0
H753 H 0.88475 0.61032 0.74995 0.0
H754 H 0.90428 0.67162 0.59324 0.0
H755 H 0.8851 0.61075 0.59388 0.0
H756 H 0.90526 0.61137 0.31762 0.0
H757 H 0.90484 0.61112 0.47361 0.0
H758 H 0.88603 0.67183 0.47034 0.0
H759 H 0.8873 0.6723 0.31458 0.0
C760 C 0.89908 0.65808 0.71575 0.0
C761 C 0.8938 0.64085 0.76172 0.0
C762 C 0.89967 0.65823 0.62631 0.0
C763 C 0.89476 0.64122 0.5805 0.0
C764 C 0.8893 0.62403 0.62675 0.0
C765 C 0.88895 0.62381 0.71632 0.0
C766 C 0.90112 0.62468 0.35037 0.0
C767 C 0.89639 0.64188 0.30385 0.0
C768 C 0.90073 0.6245 0.4399 0.0
C769 C 0.89535 0.64144 0.48504 0.0
C770 C 0.89057 0.65862 0.43812 0.0
C771 C 0.89121 0.65887 0.34865 0.0
H772 H 0.18807 0.12972 0.63333 0.0
H773 H 0.13274 0.10605 0.64013 0.0
H774 H 0.18721 0.13125 0.47767 0.0
H775 H 0.1321 0.10675 0.48422 0.0
H776 H 0.12969 0.12874 0.2075 0.0
H777 H 0.13041 0.12824 0.3637 0.0
H778 H 0.18769 0.11157 0.35516 0.0
H779 H 0.18712 0.11294 0.19973 0.0
C780 C 0.17581 0.12457 0.60149 0.0
C781 C 0.1605 0.11773 0.64906 0.0
C782 C 0.17532 0.12538 0.51205 0.0
C783 C 0.15958 0.11911 0.46791 0.0
C784 C 0.14433 0.11205 0.51578 0.0
C785 C 0.14475 0.11149 0.60526 0.0
C786 C 0.14243 0.12505 0.23918 0.0
C787 C 0.15835 0.12095 0.19127 0.0
C788 C 0.14284 0.12462 0.32879 0.0
C789 C 0.15911 0.11984 0.37247 0.0
C790 C 0.17499 0.11569 0.32411 0.0
C791 C 0.17464 0.11636 0.23475 0.0
H792 H 0.67963 0.39989 0.18173 0.0
H793 H 0.62062 0.392 0.18714 0.0
H794 H 0.67917 0.40151 0.02592 0.0
H795 H 0.62022 0.39294 0.03117 0.0
H796 H 0.62401 0.41547 0.7532 0.0
H797 H 0.6242 0.4148 0.90986 0.0
H798 H 0.67449 0.38105 0.90536 0.0
H799 H 0.67435 0.38207 0.74996 0.0
C800 C 0.66658 0.39828 0.14964 0.0
C801 C 0.65018 0.39576 0.19686 0.0
C802 C 0.66631 0.39914 0.06019 0.0
C803 C 0.64965 0.39733 0.01576 0.0
C804 C 0.63326 0.3947 0.06316 0.0
C805 C 0.63351 0.39398 0.15265 0.0
C806 C 0.63511 0.408 0.786 0.0
C807 C 0.6494 0.3992 0.73935 0.0
C808 C 0.63519 0.40751 0.87568 0.0
C809 C 0.64945 0.39799 0.92043 0.0
C810 C 0.66355 0.38896 0.8733 0.0
C811 C 0.66353 0.38959 0.78397 0.0
H812 H 0.40217 0.85626 0.90484 0.0
H813 H 0.42145 0.91701 0.89622 0.0
H814 H 0.40136 0.85599 0.74933 0.0
H815 H 0.42145 0.91652 0.74014 0.0
H816 H 0.40175 0.91587 0.46463 0.0
H817 H 0.40194 0.91632 0.62043 0.0
H818 H 0.42018 0.85541 0.62633 0.0
H819 H 0.41921 0.85477 0.47068 0.0
C820 C 0.40643 0.86951 0.86962 0.0
C821 C 0.41187 0.88666 0.91284 0.0
C822 C 0.40607 0.86932 0.78025 0.0
C823 C 0.4114 0.88621 0.73175 0.0
C824 C 0.41696 0.90334 0.7752 0.0
C825 C 0.41709 0.9036 0.86474 0.0
C826 C 0.40572 0.90255 0.4993 0.0
C827 C 0.41033 0.88523 0.45538 0.0
C828 C 0.40597 0.90285 0.58873 0.0
C829 C 0.41108 0.88591 0.63638 0.0
C830 C 0.41582 0.86863 0.59209 0.0
C831 C 0.41535 0.86826 0.50269 0.0
H832 H 0.17777 0.71862 0.971 0.0
H833 H 0.12114 0.725 0.05019 0.0
H834 H 0.18214 0.75443 0.97746 0.0
H835 H 0.12567 0.76065 0.06113 0.0
H836 H 0.13265 0.82518 -0.00994 0.0
H837 H 0.12918 0.78957 0.98139 0.0
H838 H 0.18525 0.78216 0.06494 0.0
H839 H 0.18897 0.81826 0.0693 0.0
C840 C 0.16626 0.72768 -0.0097 0.0
C841 C 0.14905 0.71894 0.00937 0.0
C842 C 0.16881 0.74826 -0.00518 0.0
C843 C 0.15429 0.76066 0.01969 0.0
C844 C 0.13712 0.75179 0.03977 0.0
C845 C 0.13451 0.73126 0.03395 0.0
C846 C 0.14429 0.816 0.00677 0.0
C847 C 0.16109 0.82462 0.03078 0.0
C848 C 0.14224 0.79544 0.0024 0.0
C849 C 0.15683 0.78273 0.02333 0.0
C850 C 0.17372 0.79137 0.04728 0.0
C851 C 0.17586 0.81208 0.05036 0.0
H852 H 0.56657 0.91735 0.15963 0.0
H853 H 0.56679 0.85471 0.22086 0.0
H854 H 0.53316 0.91686 0.15737 0.0
H855 H 0.53326 0.8543 0.22275 0.0
H856 H 0.4729 0.85538 0.14327 0.0
H857 H 0.50643 0.85546 0.14271 0.0
H858 H 0.50643 0.91524 0.23855 0.0
H859 H 0.47306 0.91534 0.2353 0.0
C860 C 0.55948 0.90346 0.17347 0.0
C861 C 0.56948 0.88607 0.19036 0.0
C862 C 0.54019 0.90319 0.17285 0.0
C863 C 0.53019 0.88555 0.19025 0.0
C864 C 0.54027 0.86815 0.20756 0.0
C865 C 0.55959 0.86839 0.20713 0.0
C866 C 0.48008 0.86856 0.16411 0.0
C867 C 0.47017 0.88542 0.1887 0.0
C868 C 0.49941 0.86858 0.16438 0.0
C869 C 0.50945 0.88538 0.19035 0.0
C870 C 0.49943 0.90213 0.2161 0.0
C871 C 0.48014 0.90218 0.21474 0.0
H872 H 0.40545 0.33812 0.58192 0.0
H873 H 0.3513 0.33593 0.69775 0.0
H874 H 0.40896 0.30268 0.60949 0.0
H875 H 0.35495 0.30028 0.72636 0.0
H876 H 0.38585 0.24763 0.87178 0.0
H877 H 0.37716 0.28128 0.82708 0.0
H878 H 0.39517 0.26915 0.56901 0.0
H879 H 0.40382 0.23551 0.61428 0.0
C880 C 0.39421 0.32999 0.61249 0.0
C881 C 0.37813 0.33978 0.63806 0.0
C882 C 0.39618 0.30969 0.62775 0.0
C883 C 0.38224 0.29877 0.67011 0.0
C884 C 0.36593 0.30841 0.69384 0.0
C885 C 0.36381 0.32874 0.67713 0.0
C886 C 0.38767 0.25217 0.80538 0.0
C887 C 0.39531 0.23906 0.74619 0.0
C888 C 0.3826 0.27129 0.77965 0.0
C889 C 0.38543 0.27776 0.69453 0.0
C890 C 0.39282 0.2645 0.63498 0.0
C891 C 0.39765 0.24528 0.66056 0.0
H892 H 0.97605 0.16822 0.98325 0.0
H893 H 0.96616 0.10789 0.90895 0.0
H894 H 1.00893 0.16174 -0.00769 0.0
H895 H 0.99914 0.10132 0.91506 0.0
H896 H 0.0585 0.09055 0.98465 0.0
H897 H 0.02562 0.09694 -0.00237 0.0
H898 H 0.03488 0.15701 0.90526 0.0
H899 H 0.06783 0.15056 0.89506 0.0
C900 C 0.98097 0.15347 0.96963 0.0
C901 C 0.96849 0.1385 0.94657 0.0
C902 C 0.99986 0.14977 0.97388 0.0
C903 C 1.00695 0.13101 0.95379 0.0
C904 C 0.99434 0.11587 0.93247 0.0
C905 C 0.97536 0.11957 0.92911 0.0
C906 C 0.05347 0.1052 0.96839 0.0
C907 C 0.06579 0.12013 0.94009 0.0
C908 C 0.03457 0.10885 0.97499 0.0
C909 C 0.02735 0.12749 0.95215 0.0
C910 C 0.03981 0.14256 0.92509 0.0
C911 C 0.05877 0.13893 0.91934 0.0
H912 H 0.16105 0.28189 0.06584 0.0
H913 H 0.13455 0.28743 0.82122 0.0
H914 H 0.16571 0.24648 0.04264 0.0
H915 H 0.13897 0.25174 0.79771 0.0
H916 H 0.12753 0.18388 0.87022 0.0
H917 H 0.1258 0.22008 0.87307 0.0
H918 H 0.18296 0.22318 0.94341 0.0
H919 H 0.18481 0.18703 0.93979 0.0
C920 C 0.15649 0.27548 0.00647 0.0
C921 C 0.14763 0.28732 0.94493 0.0
C922 C 0.15918 0.25527 -0.00698 0.0
C923 C 0.15271 0.24632 0.91834 0.0
C924 C 0.14406 0.25824 0.85595 0.0
C925 C 0.14168 0.27862 0.86886 0.0
C926 C 0.13978 0.19228 0.88554 0.0
C927 C 0.15629 0.18252 0.90523 0.0
C928 C 0.13881 0.21302 0.88657 0.0
C929 C 0.15424 0.22447 0.90854 0.0
C930 C 0.17082 0.21474 0.92669 0.0
C931 C 0.17187 0.19403 0.92442 0.0
H932 H 0.05949 0.86085 0.05989 0.0
H933 H 0.07132 0.92152 0.98487 0.0
H934 H 0.02692 0.86725 0.05111 0.0
H935 H 0.03873 0.92751 0.96732 0.0
H936 H 0.97966 0.93964 0.05142 0.0
H937 H 1.01228 0.93326 0.0412 0.0
H938 H 1.00057 0.87228 0.97791 0.0
H939 H 0.96803 0.87829 -0.00276 0.0
C940 C 0.05518 0.87548 0.03923 0.0
C941 C 0.06832 0.89051 0.02201 0.0
C942 C 0.03632 0.87914 0.03305 0.0
C943 C 0.02979 0.89795 0.00813 0.0
C944 C 0.04297 0.91286 -0.01198 0.0
C945 C 0.06191 0.90929 -0.00401 0.0
C946 C 0.98402 0.92485 0.03502 0.0
C947 C 0.97092 0.90963 0.02394 0.0
C948 C 1.00289 0.9212 0.02801 0.0
C949 C 1.00946 0.90219 0.00844 0.0
C950 C 0.99631 0.88709 -0.00555 0.0
C951 C 0.97738 0.89066 0.00335 0.0
H952 H 0.36028 0.69614 0.40832 0.0
H953 H 0.41596 0.69804 0.50217 0.0
H954 H 0.36425 0.72956 0.34739 0.0
H955 H 0.4198 0.73144 0.44185 0.0
H956 H 0.39134 0.77457 0.14889 0.0
H957 H 0.38474 0.74293 0.22356 0.0
H958 H 0.40742 0.76651 0.45572 0.0
H959 H 0.414 0.79798 0.38059 0.0
C960 C 0.37321 0.70384 0.41753 0.0
C961 C 0.38783 0.69447 0.4599 0.0
C962 C 0.37552 0.72287 0.382 0.0
C963 C 0.39237 0.73298 0.38943 0.0
C964 C 0.40665 0.72401 0.43556 0.0
C965 C 0.40444 0.70489 0.46996 0.0
C966 C 0.39477 0.77289 0.21594 0.0
C967 C 0.40291 0.78863 0.2596 0.0
C968 C 0.3909 0.75495 0.25878 0.0
C969 C 0.39545 0.75237 0.34558 0.0
C970 C 0.40374 0.76812 0.38892 0.0
C971 C 0.40738 0.78612 0.34633 0.0
H972 H 0.56393 0.11333 0.73667 0.0
H973 H 0.5635 0.1749 0.80771 0.0
H974 H 0.53046 0.11296 0.73463 0.0
H975 H 0.53 0.17438 0.80972 0.0
H976 H 0.46968 0.1733 0.73394 0.0
H977 H 0.50317 0.17384 0.73025 0.0
H978 H 0.50372 0.11259 0.81648 0.0
H979 H 0.47027 0.11191 0.81624 0.0
C980 C 0.55668 0.12678 0.75258 0.0
C981 C 0.5665 0.14415 0.77231 0.0
C982 C 0.53738 0.12655 0.75207 0.0
C983 C 0.52721 0.14362 0.77234 0.0
C984 C 0.53712 0.16099 0.79221 0.0
C985 C 0.55644 0.16127 0.79167 0.0
C986 C 0.47695 0.15993 0.75194 0.0
C987 C 0.46717 0.14255 0.77514 0.0
C988 C 0.49627 0.16025 0.75045 0.0
C989 C 0.50647 0.14326 0.77314 0.0
C990 C 0.49658 0.12591 0.79683 0.0
C991 C 0.47728 0.12553 0.79731 0.0
H992 H 0.90389 0.2037 0.97902 0.0
H993 H 0.84795 0.21106 0.89486 0.0
H994 H 0.9074 0.23925 -0.00975 0.0
H995 H 0.85172 0.24711 0.90193 0.0
H996 H 0.85888 0.31015 0.00232 0.0
H997 H 0.85451 0.27441 -0.00758 0.0
H998 H 0.91125 0.26848 0.91257 0.0
H999 H 0.91577 0.30405 0.92687 0.0
C1000 C 0.89235 0.21296 0.96177 0.0
C1001 C 0.87564 0.20448 0.93565 0.0
C1002 C 0.89442 0.23349 0.96762 0.0
C1003 C 0.87995 0.24631 0.9462 0.0
C1004 C 0.86315 0.23781 0.92004 0.0
C1005 C 0.86099 0.21712 0.9154 0.0
C1006 C 0.87045 0.30117 0.98311 0.0
C1007 C 0.88773 0.30996 0.9661 0.0
C1008 C 0.86789 0.28063 0.97661 0.0
C1009 C 0.8825 0.26833 0.95178 0.0
C1010 C 0.89973 0.27726 0.93378 0.0
C1011 C 0.90235 0.29775 0.94155 0.0
H1012 H 0.63298 0.79429 0.35267 0.0
H1013 H 0.65201 0.78141 0.09751 0.0
H1014 H 0.64158 0.76088 0.40078 0.0
H1015 H 0.66052 0.7479 0.1449 0.0
H1016 H 0.6857 0.69357 0.27664 0.0
H1017 H 0.68214 0.72911 0.2457 0.0
H1018 H 0.62831 0.72737 0.3646 0.0
H1019 H 0.63177 0.69208 0.39497 0.0
C1020 C 0.63937 0.7844 0.30751 0.0
C1021 C 0.64205 0.79036 0.22176 0.0
C1022 C 0.64415 0.76529 0.33469 0.0
C1023 C 0.65178 0.75186 0.2766 0.0
C1024 C 0.6549 0.75804 0.1913 0.0
C1025 C 0.64992 0.77708 0.164 0.0
C1026 C 0.67325 0.70089 0.29726 0.0
C1027 C 0.65897 0.69006 0.33774 0.0
C1028 C 0.67118 0.72115 0.27918 0.0
C1029 C 0.65494 0.73095 0.30267 0.0
C1030 C 0.64104 0.72026 0.34647 0.0
C1031 C 0.64298 0.70002 0.36335 0.0
H1032 H 0.86654 0.73978 0.00256 0.0
H1033 H 0.92152 0.74859 0.09487 0.0
H1034 H 0.86098 0.77554 0.01048 0.0
H1035 H 0.91599 0.78405 0.10653 0.0
H1036 H 0.91023 0.84709 0.01051 0.0
H1037 H 0.91365 0.81136 0.01343 0.0
H1038 H 0.85695 0.80453 0.09452 0.0
H1039 H 0.85336 0.84058 0.08829 0.0
C1040 C 0.87723 0.74936 0.02685 0.0
C1041 C 0.89443 0.74152 0.04839 0.0
C1042 C 0.8741 0.76985 0.03137 0.0
C1043 C 0.88812 0.78286 0.058 0.0
C1044 C 0.90501 0.77469 0.08344 0.0
C1045 C 0.90817 0.75434 0.07773 0.0
C1046 C 0.89847 0.83802 0.02917 0.0
C1047 C 0.88153 0.84676 0.04943 0.0
C1048 C 0.90046 0.81743 0.03154 0.0
C1049 C 0.88565 0.80489 0.05531 0.0
C1050 C 0.86864 0.81363 0.07527 0.0
C1051 C 0.86659 0.83432 0.07209 0.0
H1052 H 0.64582 0.25509 0.81475 0.0
H1053 H 0.62251 0.232 0.58382 0.0
H1054 H 0.65246 0.28674 0.74014 0.0
H1055 H 0.62907 0.2635 0.50885 0.0
H1056 H 0.67663 0.33348 0.55369 0.0
H1057 H 0.67279 0.29992 0.61349 0.0
H1058 H 0.61665 0.29873 0.52647 0.0
H1059 H 0.62035 0.33229 0.46756 0.0
C1060 C 0.64225 0.25685 0.7479 0.0
C1061 C 0.63391 0.24122 0.70439 0.0
C1062 C 0.64615 0.27479 0.70511 0.0
C1063 C 0.6414 0.27745 0.6186 0.0
C1064 C 0.63291 0.2618 0.57542 0.0
C1065 C 0.62927 0.24381 0.61792 0.0
C1066 C 0.66359 0.32589 0.54581 0.0
C1067 C 0.64877 0.3355 0.50614 0.0
C1068 C 0.66137 0.30679 0.58067 0.0
C1069 C 0.64439 0.29686 0.57505 0.0
C1070 C 0.6299 0.30604 0.53132 0.0
C1071 C 0.63202 0.32524 0.49773 0.0
H1072 H 0.99374 0.34585 0.07081 0.0
H1073 H 0.98524 0.40132 0.93694 0.0
H1074 H 0.02667 0.35282 0.07715 0.0
H1075 H 1.01837 0.40818 0.93954 0.0
H1076 H 0.07971 0.41806 -0.00023 0.0
H1077 H 0.04632 0.41491 0.01938 0.0
H1078 H 0.0499 0.35216 0.96976 0.0
H1079 H 0.08285 0.35516 0.95297 0.0
C1080 C 0.99902 0.35967 0.04382 0.0
C1081 C 0.98715 0.37307 0.00361 0.0
C1082 C 1.01783 0.36364 0.04665 0.0
C1083 C 0.02522 0.38088 0.00727 0.0
C1084 C 1.01314 0.39483 0.97094 0.0
C1085 C 0.99422 0.39095 0.96935 0.0
C1086 C 0.07328 0.40362 -0.00668 0.0
C1087 C 0.08392 0.38685 0.9753 0.0
C1088 C 0.05419 0.40182 0.0044 0.0
C1089 C 0.04546 0.38323 -0.00258 0.0
C1090 C 0.05617 0.3666 0.97814 0.0
C1091 C 0.07512 0.36837 0.96769 0.0
H1092 H 0.48711 0.65028 0.58353 0.0
H1093 H 0.47258 0.59481 0.46819 0.0
H1094 H 0.5196 0.64221 0.57086 0.0
H1095 H 0.50525 0.58642 0.4556 0.0
H1096 H 0.559 0.60647 0.29955 0.0
H1097 H 0.52766 0.60277 0.35515 0.0
H1098 H 0.54601 0.62088 0.60459 0.0
H1099 H 0.57721 0.62509 0.54768 0.0
C1100 C 0.49097 0.63601 0.55843 0.0
C1101 C 0.47753 0.62315 0.52692 0.0
C1102 C 0.50953 0.6313 0.55147 0.0
C1103 C 0.51497 0.61372 0.51166 0.0
C1104 C 0.50142 0.60011 0.48613 0.0
C1105 C 0.48278 0.60479 0.49398 0.0
C1106 C 0.55632 0.60917 0.36668 0.0
C1107 C 0.57044 0.61592 0.41949 0.0
C1108 C 0.53847 0.60686 0.39886 0.0
C1109 C 0.53439 0.61151 0.48437 0.0
C1110 C 0.54877 0.61718 0.53848 0.0
C1111 C 0.56664 0.61942 0.50621 0.0
H1112 H 0.4591 0.40322 0.42629 0.0
H1113 H 0.47809 0.42466 0.66872 0.0
H1114 H 0.49005 0.40717 0.36603 0.0
H1115 H 0.50917 0.42809 0.60994 0.0
H1116 H 0.56371 0.43517 0.49367 0.0
H1117 H 0.53105 0.44355 0.50544 0.0
H1118 H 0.51676 0.38656 0.401 0.0
H1119 H 0.54925 0.37854 0.38876 0.0
C1120 C 0.46978 0.40941 0.4657 0.0
C1121 C 0.46629 0.4138 0.55186 0.0
C1122 C 0.48751 0.41152 0.43153 0.0
C1123 C 0.50203 0.41793 0.48322 0.0
C1124 C 0.49824 0.42343 0.568 0.0
C1125 C 0.48054 0.42126 0.60206 0.0
C1126 C 0.55353 0.42491 0.46986 0.0
C1127 C 0.5588 0.40625 0.44028 0.0
C1128 C 0.53489 0.42958 0.47728 0.0
C1129 C 0.52136 0.41564 0.45488 0.0
C1130 C 0.52681 0.39772 0.41799 0.0
C1131 C 0.54537 0.39304 0.41131 0.0
H1132 H 0.0478 0.64802 0.88156 0.0
H1133 H 0.04655 0.65607 0.15481 0.0
H1134 H 1.01493 0.63922 0.88513 0.0
H1135 H 1.01373 0.64791 0.15832 0.0
H1136 H 0.95455 0.66772 0.08475 0.0
H1137 H 0.98794 0.66954 0.08299 0.0
H1138 H 0.99048 0.61243 0.96277 0.0
H1139 H 0.95666 0.61033 0.96586 0.0
C1140 C 0.0406 0.64728 0.94252 0.0
C1141 C 0.04964 0.65237 0.01819 0.0
C1142 C 0.02186 0.64235 0.94455 0.0
C1143 C 1.01192 0.64288 0.02204 0.0
C1144 C 0.02114 0.64741 0.09786 0.0
C1145 C 0.03981 0.6521 0.0959 0.0
C1146 C 0.96217 0.65548 0.05812 0.0
C1147 C 0.95302 0.63887 0.02544 0.0
C1148 C 0.98127 0.6565 0.05755 0.0
C1149 C 0.99169 0.64109 0.02311 0.0
C1150 C 0.98266 0.62448 -0.01034 0.0
C1151 C 0.9634 0.62325 -0.00822 0.0
H1152 H 0.10939 0.59087 0.95583 0.0
H1153 H 0.16337 0.58963 0.06801 0.0
H1154 H 0.10973 0.55463 0.94573 0.0
H1155 H 0.16343 0.5537 0.06191 0.0
H1156 H 0.16997 0.49503 0.93087 0.0
H1157 H 0.1672 0.53024 0.9554 0.0
H1158 H 0.10939 0.52231 0.01369 0.0
H1159 H 0.11208 0.48691 0.98358 0.0
C1160 C 0.12116 0.58283 0.97975 0.0
C1161 C 0.13646 0.59313 0.01154 0.0
C1162 C 0.12135 0.56204 0.97437 0.0
C1163 C 0.13675 0.55113 0.00165 0.0
C1164 C 0.15155 0.56152 0.03774 0.0
C1165 C 0.15149 0.58218 0.04176 0.0
C1166 C 0.15667 0.50075 0.94939 0.0
C1167 C 0.14136 0.488 0.95678 0.0
C1168 C 0.15509 0.521 0.9644 0.0
C1169 C 0.13811 0.52926 -0.01209 0.0
C1170 C 0.1227 0.51653 -0.0043 0.0
C1171 C 0.12429 0.49612 0.98002 0.0
H1172 H 0.69035 0.85936 0.14065 0.0
H1173 H 0.69015 0.92178 0.19817 0.0
H1174 H 0.7236 0.86096 0.11681 0.0
H1175 H 0.72345 0.92329 0.1751 0.0
H1176 H 0.78641 0.91443 0.19277 0.0
H1177 H 0.75384 0.91055 0.23413 0.0
H1178 H 0.74417 0.87725 0.00496 0.0
H1179 H 0.77655 0.88133 0.96401 0.0
C1180 C 0.6974 0.87339 0.14906 0.0
C1181 C 0.68749 0.89046 0.17099 0.0
C1182 C 0.71648 0.87432 0.13505 0.0
C1183 C 0.72624 0.89226 0.14388 0.0
C1184 C 0.71642 0.90919 0.16845 0.0
C1185 C 0.69729 0.90834 0.18119 0.0
C1186 C 0.77735 0.90594 0.15246 0.0
C1187 C 0.78404 0.89795 0.07574 0.0
C1188 C 0.75868 0.90389 0.17551 0.0
C1189 C 0.74636 0.89356 0.12291 0.0
C1190 C 0.75326 0.8851 0.04749 0.0
C1191 C 0.77178 0.88745 0.02386 0.0
H1192 H 0.34898 0.4705 0.63435 0.0
H1193 H 0.40542 0.46516 0.54994 0.0
H1194 H 0.35118 0.50651 0.61558 0.0
H1195 H 0.40738 0.50072 0.52718 0.0
H1196 H 0.41201 0.56638 0.57435 0.0
H1197 H 0.40934 0.53074 0.59899 0.0
H1198 H 0.3531 0.53226 0.51181 0.0
H1199 H 0.3556 0.56804 0.49118 0.0
C1200 C 0.36179 0.47701 0.61126 0.0
C1201 C 0.37704 0.46502 0.59421 0.0
C1202 C 0.36305 0.49763 0.59992 0.0
C1203 C 0.37951 0.50662 0.57011 0.0
C1204 C 0.39463 0.49447 0.55214 0.0
C1205 C 0.39346 0.474 0.56466 0.0
C1206 C 0.39913 0.55906 0.56016 0.0
C1207 C 0.38405 0.56999 0.53062 0.0
C1208 C 0.39758 0.53859 0.57399 0.0
C1209 C 0.38099 0.52851 0.55722 0.0
C1210 C 0.36597 0.5395 0.52696 0.0
C1211 C 0.36745 0.56002 0.5144 0.0
H1212 H 0.78199 0.17085 0.85612 0.0
H1213 H 0.77434 0.10928 0.92807 0.0
H1214 H 0.75007 0.17247 0.81097 0.0
H1215 H 0.74225 0.11121 0.88968 0.0
H1216 H 0.68786 0.11309 0.75912 0.0
H1217 H 0.72086 0.1124 0.78267 0.0
H1218 H 0.71958 0.17382 0.85765 0.0
H1219 H 0.68668 0.17468 0.82941 0.0
C1220 C 0.77371 0.15753 0.86098 0.0
C1221 C 0.78111 0.13976 0.89392 0.0
C1222 C 0.75513 0.15856 0.83668 0.0
C1223 C 0.74328 0.14194 0.8458 0.0
C1224 C 0.75077 0.12426 0.87918 0.0
C1225 C 0.76928 0.1232 0.90238 0.0
C1226 C 0.69465 0.12651 0.77993 0.0
C1227 C 0.68452 0.14391 0.79261 0.0
C1228 C 0.71366 0.12609 0.79431 0.0
C1229 C 0.72316 0.14298 0.82351 0.0
C1230 C 0.71302 0.16053 0.83434 0.0
C1231 C 0.69403 0.16101 0.81858 0.0
H1232 H 0.86813 0.53698 0.95155 0.0
H1233 H 0.9225 0.5405 0.05666 0.0
H1234 H 0.87182 0.50152 0.92976 0.0
H1235 H 0.92615 0.50455 0.03887 0.0
H1236 H 0.92902 0.43922 0.94528 0.0
H1237 H 0.92871 0.47565 0.94737 0.0
H1238 H 0.8714 0.47381 0.02266 0.0
H1239 H 0.87157 0.43805 0.01781 0.0
C1240 C 0.88097 0.53006 0.96916 0.0
C1241 C 0.89502 0.54134 0.00566 0.0
C1242 C 0.88307 0.50971 0.95765 0.0
C1243 C 0.89913 0.49996 0.98446 0.0
C1244 C 0.91362 0.5115 0.01724 0.0
C1245 C 0.91158 0.53205 0.0275 0.0
C1246 C 0.91639 0.44669 0.96203 0.0
C1247 C 0.90028 0.43568 0.9804 0.0
C1248 C 0.91621 0.46756 0.96351 0.0
C1249 C 0.89994 0.47779 0.98366 0.0
C1250 C 0.88406 0.46661 0.00412 0.0
C1251 C 0.88419 0.44596 0.00201 0.0
H1252 H 0.25024 0.11591 0.76588 0.0
H1253 H 0.25983 0.1466 0.00115 0.0
H1254 H 0.28284 0.12022 0.72597 0.0
H1255 H 0.29224 0.15109 0.96174 0.0
H1256 H 0.34631 0.17016 0.83157 0.0
H1257 H 0.31303 0.16842 0.85423 0.0
H1258 H 0.31309 0.10688 0.78266 0.0
H1259 H 0.34641 0.10853 0.76067 0.0
C1260 C 0.25924 0.12397 0.808 0.0
C1261 C 0.25247 0.13116 0.8861 0.0
C1262 C 0.27793 0.12626 0.78575 0.0
C1263 C 0.2902 0.13603 0.84061 0.0
C1264 C 0.28321 0.1437 0.91748 0.0
C1265 C 0.26466 0.14111 0.94024 0.0
C1266 C 0.33924 0.15628 0.82 0.0
C1267 C 0.34913 0.13946 0.79463 0.0
C1268 C 0.32014 0.15527 0.83333 0.0
C1269 C 0.31034 0.1375 0.82042 0.0
C1270 C 0.32015 0.12085 0.79248 0.0
C1271 C 0.33929 0.12178 0.78036 0.0
H1272 H 0.63099 0.56488 0.41884 0.0
H1273 H 0.68841 0.55942 0.35066 0.0
H1274 H 0.62874 0.52934 0.44159 0.0
H1275 H 0.68596 0.52343 0.36933 0.0
H1276 H 0.67991 0.46195 0.49252 0.0
H1277 H 0.68265 0.49775 0.47293 0.0
H1278 H 0.62773 0.49934 0.36929 0.0
H1279 H 0.62476 0.46369 0.39286 0.0
C1280 C 0.64312 0.55602 0.40768 0.0
C1281 C 0.65989 0.56495 0.38269 0.0
C1282 C 0.64179 0.53556 0.42019 0.0
C1283 C 0.65711 0.5234 0.40671 0.0
C1284 C 0.67392 0.53234 0.38147 0.0
C1285 C 0.67533 0.55294 0.37018 0.0
C1286 C 0.66839 0.47001 0.46596 0.0
C1287 C 0.65206 0.46006 0.4447 0.0
C1288 C 0.67002 0.49052 0.454 0.0
C1289 C 0.65544 0.50152 0.41934 0.0
C1290 C 0.63913 0.49147 0.39771 0.0
C1291 C 0.63741 0.471 0.41093 0.0
H1292 H 0.35097 0.91685 0.12833 0.0
H1293 H 0.34779 0.85499 0.20259 0.0
H1294 H 0.31811 0.91708 0.10325 0.0
H1295 H 0.31456 0.85535 0.1814 0.0
H1296 H 0.25837 0.8577 0.04294 0.0
H1297 H 0.29098 0.85605 0.08065 0.0
H1298 H 0.28896 0.91706 0.16151 0.0
H1299 H 0.25677 0.91863 0.1193 0.0
C1300 C 0.3432 0.90333 0.14069 0.0
C1301 C 0.35213 0.88591 0.1676 0.0
C1302 C 0.32418 0.90347 0.12683 0.0
C1303 C 0.31333 0.88625 0.14057 0.0
C1304 C 0.32229 0.86887 0.16873 0.0
C1305 C 0.34141 0.86868 0.18161 0.0
C1306 C 0.26495 0.87056 0.07023 0.0
C1307 C 0.25509 0.88824 0.07893 0.0
C1308 C 0.28366 0.86969 0.09199 0.0
C1309 C 0.29295 0.8865 0.1236 0.0
C1310 C 0.28266 0.90392 0.13541 0.0
C1311 C 0.2641 0.90482 0.11239 0.0
H1312 H 0.63639 0.95967 0.42191 0.0
H1313 H 0.61694 1.00275 0.23797 0.0
H1314 H 0.63547 0.98441 0.5339 0.0
H1315 H 0.61587 0.02782 0.35017 0.0
H1316 H 0.63704 0.07159 0.54897 0.0
H1317 H 0.63673 0.04669 0.43753 0.0
H1318 H 0.61447 1.0037 0.61974 0.0
H1319 H 0.61498 0.02893 0.73144 0.0
C1320 C 0.63152 0.9744 0.40616 0.0
C1321 C 0.62626 0.97928 0.32217 0.0
C1322 C 0.63104 0.98859 0.47014 0.0
C1323 C 0.62542 1.00806 0.45135 0.0
C1324 C 0.62037 1.01298 0.36671 0.0
C1325 C 0.6209 0.99872 0.30259 0.0
C1326 C 0.63182 0.05688 0.5645 0.0
C1327 C 0.62563 0.05218 0.64783 0.0
C1328 C 0.63164 0.04262 0.50085 0.0
C1329 C 0.62536 0.02325 0.51931 0.0
C1330 C 0.61947 0.01846 0.60346 0.0
C1331 C 0.61969 0.03281 0.66731 0.0
H1332 H 0.19949 0.3559 0.86186 0.0
H1333 H 0.20339 0.41741 0.93388 0.0
H1334 H 0.23039 0.35795 0.79972 0.0
H1335 H 0.23435 0.41933 0.87228 0.0
H1336 H 0.29568 0.40927 0.81352 0.0
H1337 H 0.26649 0.4047 0.89109 0.0
H1338 H 0.24304 0.37754 0.66816 0.0
H1339 H 0.27239 0.38215 0.59103 0.0
C1340 C 0.20707 0.36974 0.86599 0.0
C1341 C 0.19899 0.38653 0.90256 0.0
C1342 C 0.22468 0.37093 0.82978 0.0
C1343 C 0.23465 0.38883 0.83068 0.0
C1344 C 0.22697 0.40533 0.87108 0.0
C1345 C 0.20925 0.40423 0.9062 0.0
C1346 C 0.28434 0.40203 0.78198 0.0
C1347 C 0.2862 0.39574 0.69713 0.0
C1348 C 0.26765 0.39958 0.82587 0.0
C1349 C 0.25259 0.39064 0.78575 0.0
C1350 C 0.25453 0.38422 0.70092 0.0
C1351 C 0.27117 0.38694 0.65668 0.0
H1352 H 0.90192 0.97738 0.06477 0.0
H1353 H 0.84633 0.9739 0.97153 0.0
H1354 H 0.90187 1.01315 0.04315 0.0
H1355 H 0.8465 1.0097 0.94596 0.0
H1356 H 0.8465 0.07673 0.98419 0.0
H1357 H 0.84584 0.041 0.00853 0.0
H1358 H 0.90337 0.03812 0.93801 0.0
H1359 H 0.90416 0.07401 0.91764 0.0
C1360 C 0.88968 0.98427 0.03926 0.0
C1361 C 0.87412 0.97275 0.01995 0.0
C1362 C 0.8897 1.00484 0.026 0.0
C1363 C 0.87425 1.0145 -0.00815 0.0
C1364 C 0.8586 1.00294 0.97337 0.0
C1365 C 0.8585 0.98235 -0.01225 0.0
C1366 C 0.859 0.06846 0.97358 0.0
C1367 C 0.8754 0.07828 0.94908 0.0
C1368 C 0.85861 0.04788 -0.01286 0.0
C1369 C 0.87455 0.03647 0.97566 0.0
C1370 C 0.89087 0.04633 0.94944 0.0
C1371 C 0.89132 0.06695 0.93694 0.0
H1372 H 0.24489 0.66876 0.04628 0.0
H1373 H 0.2143 0.62136 0.17001 0.0
H1374 H 0.269 0.66567 0.15494 0.0
H1375 H 0.23794 0.61834 0.27993 0.0
H1376 H 0.29414 0.60486 0.39974 0.0
H1377 H 0.26963 0.6078 0.29452 0.0
H1378 H 0.27301 0.6717 0.30887 0.0
H1379 H 0.29756 0.66854 0.41434 0.0
C1380 C 0.24355 0.65759 0.09663 0.0
C1381 C 0.22816 0.64507 0.10022 0.0
C1382 C 0.25711 0.65594 0.15912 0.0
C1383 C 0.25532 0.64177 0.22602 0.0
C1384 C 0.23984 0.62919 0.22863 0.0
C1385 C 0.22637 0.63085 0.16617 0.0
C1386 C 0.28936 0.61947 0.38118 0.0
C1387 C 0.29777 0.63649 0.41378 0.0
C1388 C 0.27541 0.6212 0.32097 0.0
C1389 C 0.26956 0.64 0.29269 0.0
C1390 C 0.27754 0.65703 0.328 0.0
C1391 C 0.2915 0.65527 0.3883 0.0
H1392 H 0.41826 0.95642 0.41955 0.0
H1393 H 0.40444 1.00136 0.23197 0.0
H1394 H 0.42037 0.98133 0.52901 0.0
H1395 H 0.4045 0.02628 0.34341 0.0
H1396 H 0.4187 0.07068 0.54207 0.0
H1397 H 0.42132 0.04579 0.43259 0.0
H1398 H 0.40322 1.00085 0.61641 0.0
H1399 H 0.40262 0.02569 0.72785 0.0
C1400 C 0.41606 0.97176 0.40131 0.0
C1401 C 0.41207 0.9771 0.31613 0.0
C1402 C 0.41675 0.98606 0.46484 0.0
C1403 C 0.41267 1.00601 0.44585 0.0
C1404 C 0.40825 1.01124 0.36068 0.0
C1405 C 0.40803 0.99696 0.29666 0.0
C1406 C 0.41615 0.05534 0.56005 0.0
C1407 C 0.41131 0.04998 0.64474 0.0
C1408 C 0.41712 0.04106 0.49643 0.0
C1409 C 0.41254 0.02112 0.51486 0.0
C1410 C 0.40737 0.01587 0.59957 0.0
C1411 C 0.40686 0.03011 0.66363 0.0
H1412 H 0.83746 0.67515 0.10749 0.0
H1413 H 0.83274 0.61387 0.03331 0.0
H1414 H 0.80628 0.67366 0.16693 0.0
H1415 H 0.80157 0.61248 0.09227 0.0
H1416 H 0.74069 0.62204 0.15461 0.0
H1417 H 0.7696 0.62709 0.07532 0.0
H1418 H 0.79341 0.65424 0.29741 0.0
H1419 H 0.76436 0.6492 0.3762 0.0
C1420 C 0.82963 0.66152 0.10201 0.0
C1421 C 0.83758 0.6446 0.066 0.0
C1422 C 0.81186 0.66063 0.13672 0.0
C1423 C 0.80161 0.64291 0.1348 0.0
C1424 C 0.80914 0.62636 0.09426 0.0
C1425 C 0.82699 0.62715 0.06067 0.0
C1426 C 0.75203 0.6294 0.1856 0.0
C1427 C 0.75035 0.63552 0.2708 0.0
C1428 C 0.76857 0.63215 0.14066 0.0
C1429 C 0.78367 0.64119 0.18006 0.0
C1430 C 0.78189 0.64751 0.26509 0.0
C1431 C 0.7654 0.64452 0.31032 0.0
H1432 H 0.19034 0.05283 0.90756 0.0
H1433 H 0.13362 0.05447 -0.00911 0.0
H1434 H 0.19038 0.01686 0.92864 0.0
H1435 H 0.13384 0.01887 0.01591 0.0
H1436 H 0.1331 0.95278 0.97244 0.0
H1437 H 0.13361 0.98847 0.94852 0.0
H1438 H 0.19023 0.99068 0.02992 0.0
H1439 H 0.1899 0.95472 0.04986 0.0
C1440 C 0.17792 0.04553 0.93087 0.0
C1441 C 0.16195 0.05654 0.94691 0.0
C1442 C 0.17795 0.02488 0.94367 0.0
C1443 C 0.16209 0.01475 0.97391 0.0
C1444 C 0.14622 0.02591 -0.00925 0.0
C1445 C 0.14612 0.04645 0.97686 0.0
C1446 C 0.14565 0.96088 -0.01441 0.0
C1447 C 0.16144 0.95086 0.01334 0.0
C1448 C 0.14594 0.98145 0.97226 0.0
C1449 C 0.16195 0.99269 -0.01251 0.0
C1450 C 0.17772 0.98262 0.01603 0.0
C1451 C 0.1775 0.96197 0.02826 0.0
H1452 H 0.72378 0.41251 0.66569 0.0
H1453 H 0.75556 0.38182 0.47604 0.0
H1454 H 0.74889 0.40936 0.76767 0.0
H1455 H 0.78094 0.37843 0.57796 0.0
H1456 H 0.82807 0.39466 0.75837 0.0
H1457 H 0.80351 0.39879 0.65452 0.0
H1458 H 0.76352 0.38257 0.85042 0.0
H1459 H 0.7884 0.37841 0.95424 0.0
C1460 C 0.73624 0.40504 0.64639 0.0
C1461 C 0.73785 0.39712 0.56424 0.0
C1462 C 0.75053 0.40316 0.7045 0.0
C1463 C 0.76675 0.39341 0.68115 0.0
C1464 C 0.76859 0.38609 0.59755 0.0
C1465 C 0.75421 0.38799 0.53934 0.0
C1466 C 0.81404 0.39162 0.77845 0.0
C1467 C 0.81001 0.38568 0.86317 0.0
C1468 C 0.80001 0.39405 0.71931 0.0
C1469 C 0.78163 0.39082 0.74413 0.0
C1470 C 0.77758 0.38527 0.82964 0.0
C1471 C 0.79169 0.38282 0.88886 0.0
loop_
_geom_bond_atom_site_label_1
_geom_bond_atom_site_label_2
_geom_bond_distance
_geom_bond_site_symmetry_2
_ccdc_geom_bond_type
Zn0 O1 2.055 1_554 S
Zn0 O8 2.046 . S
Zn0 N16 2.036 . S
Zn0 O28 2.053 . S
Zn0 O30 2.066 . S
O1 Zn0 2.055 1_556 S
O1 C4 1.259 . S
C2 O30 1.256 . S
C2 O31 1.244 . S
Zn3 O5 2.046 1_554 S
Zn3 O7 2.055 . S
Zn3 N9 2.036 . S
Zn3 O27 2.066 . S
Zn3 O31 2.053 . S
C4 O1 1.259 . S
C4 O5 1.254 . S
O5 Zn3 2.046 1_556 S
O5 C4 1.254 . S
C6 O27 1.256 . S
C6 O28 1.244 . S
O7 Zn3 2.055 . S
O7 C29 1.259 . S
O8 Zn0 2.046 . S
O8 C29 1.254 . S
N9 Zn3 2.036 . S
N9 C10 1.298 . S
N9 N12 1.398 . S
C10 N9 1.298 . S
C10 N13 1.367 . S
C10 C23 1.481 . S
C11 N12 1.299 . S
C11 N13 1.379 . S
N12 N9 1.398 . S
N12 C11 1.299 . S
N13 C10 1.367 . S
N13 C11 1.379 . S
C14 N16 1.298 . S
C14 N18 1.367 . S
C14 C22 1.481 1_554 S
C15 N17 1.299 . S
C15 N18 1.379 . S
N16 Zn0 2.036 . S
N16 C14 1.298 . S
N16 N17 1.398 . S
N17 C15 1.299 . S
N17 N16 1.398 . S
N18 C14 1.367 . S
N18 C15 1.379 . S
H19 C22 0.980 . S
H20 C22 0.981 . S
H21 C22 0.981 . S
C22 C14 1.481 1_556 S
C22 H19 0.980 . S
C22 H20 0.981 . S
C22 H21 0.981 . S
C23 C10 1.481 . S
C23 H24 0.980 . S
C23 H25 0.981 . S
C23 H26 0.981 . S
H24 C23 0.980 . S
H25 C23 0.981 . S
H26 C23 0.981 . S
O27 Zn3 2.066 . S
O27 C6 1.256 . S
O28 Zn0 2.053 . S
O28 C6 1.244 . S
C29 O7 1.259 . S
C29 O8 1.254 . S
O30 Zn0 2.066 . S
O30 C2 1.256 . S
O31 C2 1.244 . S
O31 Zn3 2.053 . S
Zn32 O33 2.055 . S
Zn32 O40 2.046 . S
Zn32 N48 2.036 . S
Zn32 O60 2.053 . S
Zn32 O62 2.066 . S
O33 Zn32 2.055 . S
O33 C36 1.259 . S
C34 O62 1.256 . S
C34 O63 1.244 . S
Zn35 O37 2.046 . S
Zn35 O39 2.055 . S
Zn35 N41 2.036 . S
Zn35 O59 2.066 . S
Zn35 O63 2.053 . S
C36 O33 1.259 . S
C36 O37 1.254 . S
O37 Zn35 2.046 . S
O37 C36 1.254 . S
C38 O59 1.256 . S
C38 O60 1.244 . S
O39 Zn35 2.055 . S
O39 C61 1.259 . S
O40 Zn32 2.046 . S
O40 C61 1.254 . S
N41 Zn35 2.036 . S
N41 C42 1.298 . S
N41 N44 1.398 . S
C42 N41 1.298 . S
C42 N45 1.367 . S
C42 C55 1.481 . S
C43 N44 1.299 . S
C43 N45 1.379 . S
N44 N41 1.398 . S
N44 C43 1.299 . S
N45 C42 1.367 . S
N45 C43 1.379 . S
C46 N48 1.298 . S
C46 N50 1.367 . S
C46 C54 1.481 . S
C47 N49 1.299 . S
C47 N50 1.379 . S
N48 Zn32 2.036 . S
N48 C46 1.298 . S
N48 N49 1.398 . S
N49 C47 1.299 . S
N49 N48 1.398 . S
N50 C46 1.367 . S
N50 C47 1.379 . S
H51 C54 0.980 . S
H52 C54 0.981 . S
H53 C54 0.981 . S
C54 C46 1.481 . S
C54 H51 0.980 . S
C54 H52 0.981 . S
C54 H53 0.981 . S
C55 C42 1.481 . S
C55 H56 0.980 . S
C55 H57 0.981 . S
C55 H58 0.981 . S
H56 C55 0.980 . S
H57 C55 0.981 . S
H58 C55 0.981 . S
O59 Zn35 2.066 . S
O59 C38 1.256 . S
O60 Zn32 2.053 . S
O60 C38 1.244 . S
C61 O39 1.259 . S
C61 O40 1.254 . S
O62 Zn32 2.066 . S
O62 C34 1.256 . S
O63 C34 1.244 . S
O63 Zn35 2.053 . S
Zn64 O65 2.055 . S
Zn64 O72 2.046 . S
Zn64 N80 2.036 . S
Zn64 O92 2.053 . S
Zn64 O94 2.066 . S
O65 Zn64 2.055 . S
O65 C68 1.259 . S
C66 O94 1.256 . S
C66 O95 1.244 . S
Zn67 O69 2.046 . S
Zn67 O71 2.055 . S
Zn67 N73 2.036 . S
Zn67 O91 2.066 . S
Zn67 O95 2.053 . S
C68 O65 1.259 . S
C68 O69 1.254 . S
O69 Zn67 2.046 . S
O69 C68 1.254 . S
C70 O91 1.256 . S
C70 O92 1.244 . S
O71 Zn67 2.055 . S
O71 C93 1.259 . S
O72 Zn64 2.046 . S
O72 C93 1.254 . S
N73 Zn67 2.036 . S
N73 C74 1.298 . S
N73 N76 1.398 . S
C74 N73 1.298 . S
C74 N77 1.367 . S
C74 C87 1.481 . S
C75 N76 1.299 . S
C75 N77 1.379 . S
N76 N73 1.398 . S
N76 C75 1.299 . S
N77 C74 1.367 . S
N77 C75 1.379 . S
C78 N80 1.298 . S
C78 N82 1.367 . S
C78 C86 1.481 . S
C79 N81 1.299 . S
C79 N82 1.379 . S
N80 Zn64 2.036 . S
N80 C78 1.298 . S
N80 N81 1.398 . S
N81 C79 1.299 . S
N81 N80 1.398 . S
N82 C78 1.367 . S
N82 C79 1.379 . S
H83 C86 0.980 . S
H84 C86 0.981 . S
H85 C86 0.981 . S
C86 C78 1.481 . S
C86 H83 0.980 . S
C86 H84 0.981 . S
C86 H85 0.981 . S
C87 C74 1.481 . S
C87 H88 0.980 . S
C87 H89 0.981 . S
C87 H90 0.981 . S
H88 C87 0.980 . S
H89 C87 0.981 . S
H90 C87 0.981 . S
O91 Zn67 2.066 . S
O91 C70 1.256 . S
O92 Zn64 2.053 . S
O92 C70 1.244 . S
C93 O71 1.259 . S
C93 O72 1.254 . S
O94 Zn64 2.066 . S
O94 C66 1.256 . S
O95 C66 1.244 . S
O95 Zn67 2.053 . S
Zn96 O97 2.055 . S
Zn96 O104 2.046 1_556 S
Zn96 N112 2.036 . S
Zn96 O124 2.053 . S
Zn96 O126 2.066 . S
O97 Zn96 2.055 . S
O97 C100 1.259 . S
C98 O126 1.256 . S
C98 O127 1.244 . S
Zn99 O101 2.046 . S
Zn99 O103 2.055 1_556 S
Zn99 N105 2.036 . S
Zn99 O123 2.066 . S
Zn99 O127 2.053 . S
C100 O97 1.259 . S
C100 O101 1.254 . S
O101 Zn99 2.046 . S
O101 C100 1.254 . S
C102 O123 1.256 . S
C102 O124 1.244 . S
O103 Zn99 2.055 1_554 S
O103 C125 1.259 . S
O104 Zn96 2.046 1_554 S
O104 C125 1.254 . S
N105 Zn99 2.036 . S
N105 C106 1.298 . S
N105 N108 1.398 . S
C106 N105 1.298 . S
C106 N109 1.367 . S
C106 C119 1.481 1_556 S
C107 N108 1.299 . S
C107 N109 1.379 . S
N108 N105 1.398 . S
N108 C107 1.299 . S
N109 C106 1.367 . S
N109 C107 1.379 . S
C110 N112 1.298 . S
C110 N114 1.367 . S
C110 C118 1.481 . S
C111 N113 1.299 . S
C111 N114 1.379 . S
N112 Zn96 2.036 . S
N112 C110 1.298 . S
N112 N113 1.398 . S
N113 C111 1.299 . S
N113 N112 1.398 . S
N114 C110 1.367 . S
N114 C111 1.379 . S
H115 C118 0.980 . S
H116 C118 0.981 . S
H117 C118 0.981 . S
C118 C110 1.481 . S
C118 H115 0.980 . S
C118 H116 0.981 . S
C118 H117 0.981 . S
C119 C106 1.481 1_554 S
C119 H120 0.980 . S
C119 H121 0.981 . S
C119 H122 0.981 . S
H120 C119 0.980 . S
H121 C119 0.981 . S
H122 C119 0.981 . S
O123 Zn99 2.066 . S
O123 C102 1.256 . S
O124 Zn96 2.053 . S
O124 C102 1.244 . S
C125 O103 1.259 . S
C125 O104 1.254 . S
O126 Zn96 2.066 . S
O126 C98 1.256 . S
O127 C98 1.244 . S
O127 Zn99 2.053 . S
Zn128 O129 2.055 . S
Zn128 O136 2.046 . S
Zn128 N144 2.036 . S
Zn128 O156 2.053 . S
Zn128 O158 2.066 . S
O129 Zn128 2.055 . S
O129 C132 1.259 . S
C130 O158 1.256 . S
C130 O159 1.244 . S
Zn131 O133 2.046 . S
Zn131 O135 2.055 . S
Zn131 N137 2.036 . S
Zn131 O155 2.066 . S
Zn131 O159 2.053 . S
C132 O129 1.259 . S
C132 O133 1.254 . S
O133 Zn131 2.046 . S
O133 C132 1.254 . S
C134 O155 1.256 1_554 S
C134 O156 1.244 1_554 S
O135 Zn131 2.055 . S
O135 C157 1.259 . S
O136 Zn128 2.046 . S
O136 C157 1.254 . S
N137 Zn131 2.036 . S
N137 C138 1.298 . S
N137 N140 1.398 . S
C138 N137 1.298 . S
C138 N141 1.367 . S
C138 C151 1.481 . S
C139 N140 1.299 . S
C139 N141 1.379 . S
N140 N137 1.398 . S
N140 C139 1.299 . S
N141 C138 1.367 . S
N141 C139 1.379 . S
C142 N144 1.298 . S
C142 N146 1.367 . S
C142 C150 1.481 . S
C143 N145 1.299 . S
C143 N146 1.379 . S
N144 Zn128 2.036 . S
N144 C142 1.298 . S
N144 N145 1.398 . S
N145 C143 1.299 . S
N145 N144 1.398 . S
N146 C142 1.367 . S
N146 C143 1.379 . S
H147 C150 0.980 . S
H148 C150 0.981 . S
H149 C150 0.981 . S
C150 C142 1.481 . S
C150 H147 0.980 . S
C150 H148 0.981 . S
C150 H149 0.981 . S
C151 C138 1.481 . S
C151 H152 0.980 . S
C151 H153 0.981 . S
C151 H154 0.981 1_556 S
H152 C151 0.980 . S
H153 C151 0.981 . S
H154 C151 0.981 1_554 S
O155 Zn131 2.066 . S
O155 C134 1.256 1_556 S
O156 Zn128 2.053 . S
O156 C134 1.244 1_556 S
C157 O135 1.259 . S
C157 O136 1.254 . S
O158 Zn128 2.066 . S
O158 C130 1.256 . S
O159 C130 1.244 . S
O159 Zn131 2.053 . S
Zn160 O161 2.055 . S
Zn160 O168 2.046 1_554 S
Zn160 N176 2.036 . S
Zn160 O188 2.053 . S
Zn160 O190 2.066 . S
O161 Zn160 2.055 . S
O161 C164 1.259 . S
C162 O190 1.256 . S
C162 O191 1.244 . S
Zn163 O165 2.046 . S
Zn163 O167 2.055 1_554 S
Zn163 N169 2.036 . S
Zn163 O187 2.066 . S
Zn163 O191 2.053 . S
C164 O161 1.259 . S
C164 O165 1.254 . S
O165 Zn163 2.046 . S
O165 C164 1.254 . S
C166 O187 1.256 . S
C166 O188 1.244 . S
O167 Zn163 2.055 1_556 S
O167 C189 1.259 . S
O168 Zn160 2.046 1_556 S
O168 C189 1.254 . S
N169 Zn163 2.036 . S
N169 C170 1.298 . S
N169 N172 1.398 . S
C170 N169 1.298 . S
C170 N173 1.367 . S
C170 C183 1.481 1_554 S
C171 N172 1.299 . S
C171 N173 1.379 . S
N172 N169 1.398 . S
N172 C171 1.299 . S
N173 C170 1.367 . S
N173 C171 1.379 . S
C174 N176 1.298 . S
C174 N178 1.367 . S
C174 C182 1.481 . S
C175 N177 1.299 . S
C175 N178 1.379 . S
N176 Zn160 2.036 . S
N176 C174 1.298 . S
N176 N177 1.398 . S
N177 C175 1.299 . S
N177 N176 1.398 . S
N178 C174 1.367 . S
N178 C175 1.379 . S
H179 C182 0.980 . S
H180 C182 0.981 . S
H181 C182 0.981 . S
C182 C174 1.481 . S
C182 H179 0.980 . S
C182 H180 0.981 . S
C182 H181 0.981 . S
C183 C170 1.481 1_556 S
C183 H184 0.980 . S
C183 H185 0.981 . S
C183 H186 0.981 . S
H184 C183 0.980 . S
H185 C183 0.981 . S
H186 C183 0.981 . S
O187 Zn163 2.066 . S
O187 C166 1.256 . S
O188 Zn160 2.053 . S
O188 C166 1.244 . S
C189 O167 1.259 . S
C189 O168 1.254 . S
O190 Zn160 2.066 . S
O190 C162 1.256 . S
O191 C162 1.244 . S
O191 Zn163 2.053 . S
Zn192 O193 2.055 . S
Zn192 O200 2.046 . S
Zn192 N208 2.036 . S
Zn192 O220 2.053 . S
Zn192 O222 2.066 . S
O193 Zn192 2.055 . S
O193 C196 1.259 . S
C194 O222 1.256 . S
C194 O223 1.244 . S
Zn195 O197 2.046 . S
Zn195 O199 2.055 . S
Zn195 N201 2.036 . S
Zn195 O219 2.066 . S
Zn195 O223 2.053 . S
C196 O193 1.259 . S
C196 O197 1.254 . S
O197 Zn195 2.046 . S
O197 C196 1.254 . S
C198 O219 1.256 . S
C198 O220 1.244 . S
O199 Zn195 2.055 . S
O199 C221 1.259 . S
O200 Zn192 2.046 . S
O200 C221 1.254 . S
N201 Zn195 2.036 . S
N201 C202 1.298 . S
N201 N204 1.398 . S
C202 N201 1.298 . S
C202 N205 1.367 . S
C202 C215 1.481 . S
C203 N204 1.299 . S
C203 N205 1.379 . S
N204 N201 1.398 . S
N204 C203 1.299 . S
N205 C202 1.367 . S
N205 C203 1.379 . S
C206 N208 1.298 . S
C206 N210 1.367 . S
C206 C214 1.481 . S
C207 N209 1.299 . S
C207 N210 1.379 . S
N208 Zn192 2.036 . S
N208 C206 1.298 . S
N208 N209 1.398 . S
N209 C207 1.299 . S
N209 N208 1.398 . S
N210 C206 1.367 . S
N210 C207 1.379 . S
H211 C214 0.980 . S
H212 C214 0.981 . S
H213 C214 0.981 . S
C214 C206 1.481 . S
C214 H211 0.980 . S
C214 H212 0.981 . S
C214 H213 0.981 . S
C215 C202 1.481 . S
C215 H216 0.980 . S
C215 H217 0.981 . S
C215 H218 0.981 . S
H216 C215 0.980 . S
H217 C215 0.981 . S
H218 C215 0.981 . S
O219 Zn195 2.066 . S
O219 C198 1.256 . S
O220 Zn192 2.053 . S
O220 C198 1.244 . S
C221 O199 1.259 . S
C221 O200 1.254 . S
O222 Zn192 2.066 . S
O222 C194 1.256 . S
O223 C194 1.244 . S
O223 Zn195 2.053 . S
Zn224 O225 2.055 . S
Zn224 O232 2.046 . S
Zn224 N240 2.036 . S
Zn224 O252 2.053 . S
Zn224 O254 2.066 . S
O225 Zn224 2.055 . S
O225 C228 1.259 . S
C226 O254 1.256 . S
C226 O255 1.244 . S
Zn227 O229 2.046 . S
Zn227 O231 2.055 . S
Zn227 N233 2.036 . S
Zn227 O251 2.066 . S
Zn227 O255 2.053 . S
C228 O225 1.259 . S
C228 O229 1.254 . S
O229 Zn227 2.046 . S
O229 C228 1.254 . S
C230 O251 1.256 . S
C230 O252 1.244 . S
O231 Zn227 2.055 . S
O231 C253 1.259 . S
O232 Zn224 2.046 . S
O232 C253 1.254 . S
N233 Zn227 2.036 . S
N233 C234 1.298 . S
N233 N236 1.398 . S
C234 N233 1.298 . S
C234 N237 1.367 . S
C234 C247 1.481 . S
C235 N236 1.299 . S
C235 N237 1.379 . S
N236 N233 1.398 . S
N236 C235 1.299 . S
N237 C234 1.367 . S
N237 C235 1.379 . S
C238 N240 1.298 . S
C238 N242 1.367 . S
C238 C246 1.481 . S
C239 N241 1.299 . S
C239 N242 1.379 . S
N240 Zn224 2.036 . S
N240 C238 1.298 . S
N240 N241 1.398 . S
N241 C239 1.299 . S
N241 N240 1.398 . S
N242 C238 1.367 . S
N242 C239 1.379 . S
H243 C246 0.980 . S
H244 C246 0.981 . S
H245 C246 0.981 . S
C246 C238 1.481 . S
C246 H243 0.980 . S
C246 H244 0.981 . S
C246 H245 0.981 . S
C247 C234 1.481 . S
C247 H248 0.980 . S
C247 H249 0.981 . S
C247 H250 0.981 . S
H248 C247 0.980 . S
H249 C247 0.981 . S
H250 C247 0.981 . S
O251 Zn227 2.066 . S
O251 C230 1.256 . S
O252 Zn224 2.053 . S
O252 C230 1.244 . S
C253 O231 1.259 . S
C253 O232 1.254 . S
O254 Zn224 2.066 . S
O254 C226 1.256 . S
O255 C226 1.244 . S
O255 Zn227 2.053 . S
Zn256 O257 2.055 1_556 S
Zn256 O264 2.046 . S
Zn256 N272 2.036 . S
Zn256 O284 2.053 . S
Zn256 O286 2.066 . S
O257 Zn256 2.055 1_554 S
O257 C260 1.259 . S
C258 O286 1.256 . S
C258 O287 1.244 . S
Zn259 O261 2.046 1_556 S
Zn259 O263 2.055 . S
Zn259 N265 2.036 . S
Zn259 O283 2.066 . S
Zn259 O287 2.053 . S
C260 O257 1.259 . S
C260 O261 1.254 . S
O261 Zn259 2.046 1_554 S
O261 C260 1.254 . S
C262 O283 1.256 . S
C262 O284 1.244 . S
O263 Zn259 2.055 . S
O263 C285 1.259 . S
O264 Zn256 2.046 . S
O264 C285 1.254 . S
N265 Zn259 2.036 . S
N265 C266 1.298 . S
N265 N268 1.398 . S
C266 N265 1.298 . S
C266 N269 1.367 . S
C266 C279 1.481 . S
C267 N268 1.299 . S
C267 N269 1.379 . S
N268 N265 1.398 . S
N268 C267 1.299 . S
N269 C266 1.367 . S
N269 C267 1.379 . S
C270 N272 1.298 . S
C270 N274 1.367 . S
C270 C278 1.481 1_556 S
C271 N273 1.299 . S
C271 N274 1.379 . S
N272 Zn256 2.036 . S
N272 C270 1.298 . S
N272 N273 1.398 . S
N273 C271 1.299 . S
N273 N272 1.398 . S
N274 C270 1.367 . S
N274 C271 1.379 . S
H275 C278 0.980 . S
H276 C278 0.981 . S
H277 C278 0.981 . S
C278 C270 1.481 1_554 S
C278 H275 0.980 . S
C278 H276 0.981 . S
C278 H277 0.981 . S
C279 C266 1.481 . S
C279 H280 0.980 . S
C279 H281 0.981 . S
C279 H282 0.981 . S
H280 C279 0.980 . S
H281 C279 0.981 . S
H282 C279 0.981 . S
O283 Zn259 2.066 . S
O283 C262 1.256 . S
O284 Zn256 2.053 . S
O284 C262 1.244 . S
C285 O263 1.259 . S
C285 O264 1.254 . S
O286 Zn256 2.066 . S
O286 C258 1.256 . S
O287 C258 1.244 . S
O287 Zn259 2.053 . S
Zn288 O289 2.055 . S
Zn288 O296 2.046 . S
Zn288 N304 2.036 . S
Zn288 O316 2.053 . S
Zn288 O318 2.066 . S
O289 Zn288 2.055 . S
O289 C292 1.259 . S
C290 O318 1.256 . S
C290 O319 1.244 . S
Zn291 O293 2.046 . S
Zn291 O295 2.055 . S
Zn291 N297 2.036 . S
Zn291 O315 2.066 . S
Zn291 O319 2.053 . S
C292 O289 1.259 . S
C292 O293 1.254 . S
O293 Zn291 2.046 . S
O293 C292 1.254 . S
C294 O315 1.256 . S
C294 O316 1.244 . S
O295 Zn291 2.055 . S
O295 C317 1.259 . S
O296 Zn288 2.046 . S
O296 C317 1.254 . S
N297 Zn291 2.036 . S
N297 C298 1.298 . S
N297 N300 1.398 . S
C298 N297 1.298 . S
C298 N301 1.367 . S
C298 C311 1.481 . S
C299 N300 1.299 . S
C299 N301 1.379 . S
N300 N297 1.398 . S
N300 C299 1.299 . S
N301 C298 1.367 . S
N301 C299 1.379 . S
C302 N304 1.298 . S
C302 N306 1.367 . S
C302 C310 1.481 . S
C303 N305 1.299 . S
C303 N306 1.379 . S
N304 Zn288 2.036 . S
N304 C302 1.298 . S
N304 N305 1.398 . S
N305 C303 1.299 . S
N305 N304 1.398 . S
N306 C302 1.367 . S
N306 C303 1.379 . S
H307 C310 0.980 . S
H308 C310 0.981 . S
H309 C310 0.981 . S
C310 C302 1.481 . S
C310 H307 0.980 . S
C310 H308 0.981 . S
C310 H309 0.981 . S
C311 C298 1.481 . S
C311 H312 0.980 . S
C311 H313 0.981 . S
C311 H314 0.981 . S
H312 C311 0.980 . S
H313 C311 0.981 . S
H314 C311 0.981 . S
O315 Zn291 2.066 . S
O315 C294 1.256 . S
O316 Zn288 2.053 . S
O316 C294 1.244 . S
C317 O295 1.259 . S
C317 O296 1.254 . S
O318 Zn288 2.066 . S
O318 C290 1.256 . S
O319 C290 1.244 . S
O319 Zn291 2.053 . S
Zn320 O321 2.055 . S
Zn320 O328 2.046 . S
Zn320 N336 2.036 . S
Zn320 O348 2.053 . S
Zn320 O350 2.066 . S
O321 Zn320 2.055 . S
O321 C324 1.259 . S
C322 O350 1.256 . S
C322 O351 1.244 . S
Zn323 O325 2.046 . S
Zn323 O327 2.055 . S
Zn323 N329 2.036 . S
Zn323 O347 2.066 . S
Zn323 O351 2.053 . S
C324 O321 1.259 . S
C324 O325 1.254 . S
O325 Zn323 2.046 . S
O325 C324 1.254 . S
C326 O347 1.256 . S
C326 O348 1.244 . S
O327 Zn323 2.055 . S
O327 C349 1.259 . S
O328 Zn320 2.046 . S
O328 C349 1.254 . S
N329 Zn323 2.036 . S
N329 C330 1.298 . S
N329 N332 1.398 . S
C330 N329 1.298 . S
C330 N333 1.367 . S
C330 C343 1.481 . S
C331 N332 1.299 . S
C331 N333 1.379 . S
N332 N329 1.398 . S
N332 C331 1.299 . S
N333 C330 1.367 . S
N333 C331 1.379 . S
C334 N336 1.298 . S
C334 N338 1.367 . S
C334 C342 1.481 . S
C335 N337 1.299 . S
C335 N338 1.379 . S
N336 Zn320 2.036 . S
N336 C334 1.298 . S
N336 N337 1.398 . S
N337 C335 1.299 . S
N337 N336 1.398 . S
N338 C334 1.367 . S
N338 C335 1.379 . S
H339 C342 0.980 . S
H340 C342 0.981 . S
H341 C342 0.981 . S
C342 C334 1.481 . S
C342 H339 0.980 . S
C342 H340 0.981 . S
C342 H341 0.981 . S
C343 C330 1.481 . S
C343 H344 0.980 . S
C343 H345 0.981 . S
C343 H346 0.981 . S
H344 C343 0.980 . S
H345 C343 0.981 . S
H346 C343 0.981 . S
O347 Zn323 2.066 . S
O347 C326 1.256 . S
O348 Zn320 2.053 . S
O348 C326 1.244 . S
C349 O327 1.259 . S
C349 O328 1.254 . S
O350 Zn320 2.066 . S
O350 C322 1.256 . S
O351 C322 1.244 . S
O351 Zn323 2.053 . S
Zn352 O353 2.055 . S
Zn352 O360 2.046 1_554 S
Zn352 N368 2.036 . S
Zn352 O380 2.053 . S
Zn352 O382 2.066 . S
O353 Zn352 2.055 . S
O353 C356 1.259 . S
C354 O382 1.256 . S
C354 O383 1.244 . S
Zn355 O357 2.046 . S
Zn355 O359 2.055 1_554 S
Zn355 N361 2.036 . S
Zn355 O379 2.066 . S
Zn355 O383 2.053 . S
C356 O353 1.259 . S
C356 O357 1.254 . S
O357 Zn355 2.046 . S
O357 C356 1.254 . S
C358 O379 1.256 . S
C358 O380 1.244 . S
O359 Zn355 2.055 1_556 S
O359 C381 1.259 . S
O360 Zn352 2.046 1_556 S
O360 C381 1.254 . S
N361 Zn355 2.036 . S
N361 C362 1.298 . S
N361 N364 1.398 . S
C362 N361 1.298 . S
C362 N365 1.367 . S
C362 C375 1.481 1_554 S
C363 N364 1.299 . S
C363 N365 1.379 . S
N364 N361 1.398 . S
N364 C363 1.299 . S
N365 C362 1.367 . S
N365 C363 1.379 . S
C366 N368 1.298 . S
C366 N370 1.367 . S
C366 C374 1.481 . S
C367 N369 1.299 . S
C367 N370 1.379 . S
N368 Zn352 2.036 . S
N368 C366 1.298 . S
N368 N369 1.398 . S
N369 C367 1.299 . S
N369 N368 1.398 . S
N370 C366 1.367 . S
N370 C367 1.379 . S
H371 C374 0.980 . S
H372 C374 0.981 . S
H373 C374 0.981 . S
C374 C366 1.481 . S
C374 H371 0.980 . S
C374 H372 0.981 . S
C374 H373 0.981 . S
C375 C362 1.481 1_556 S
C375 H376 0.980 . S
C375 H377 0.981 . S
C375 H378 0.981 . S
H376 C375 0.980 . S
H377 C375 0.981 . S
H378 C375 0.981 . S
O379 Zn355 2.066 . S
O379 C358 1.256 . S
O380 Zn352 2.053 . S
O380 C358 1.244 . S
C381 O359 1.259 . S
C381 O360 1.254 . S
O382 Zn352 2.066 . S
O382 C354 1.256 . S
O383 C354 1.244 . S
O383 Zn355 2.053 . S
Zn384 O385 2.055 . S
Zn384 O392 2.046 . S
Zn384 N400 2.036 . S
Zn384 O412 2.053 . S
Zn384 O414 2.066 . S
O385 Zn384 2.055 . S
O385 C388 1.259 . S
C386 O414 1.256 1_556 S
C386 O415 1.244 1_556 S
Zn387 O389 2.046 . S
Zn387 O391 2.055 . S
Zn387 N393 2.036 . S
Zn387 O411 2.066 . S
Zn387 O415 2.053 . S
C388 O385 1.259 . S
C388 O389 1.254 . S
O389 Zn387 2.046 . S
O389 C388 1.254 . S
C390 O411 1.256 . S
C390 O412 1.244 . S
O391 Zn387 2.055 . S
O391 C413 1.259 . S
O392 Zn384 2.046 . S
O392 C413 1.254 . S
N393 Zn387 2.036 . S
N393 C394 1.298 . S
N393 N396 1.398 . S
C394 N393 1.298 . S
C394 N397 1.367 . S
C394 C407 1.481 . S
C395 N396 1.299 . S
C395 N397 1.379 . S
N396 N393 1.398 . S
N396 C395 1.299 . S
N397 C394 1.367 . S
N397 C395 1.379 . S
C398 N400 1.298 . S
C398 N402 1.367 . S
C398 C406 1.481 . S
C399 N401 1.299 . S
C399 N402 1.379 . S
N400 Zn384 2.036 . S
N400 C398 1.298 . S
N400 N401 1.398 . S
N401 C399 1.299 . S
N401 N400 1.398 . S
N402 C398 1.367 . S
N402 C399 1.379 . S
H403 C406 0.980 . S
H404 C406 0.981 . S
H405 C406 0.981 1_556 S
C406 C398 1.481 . S
C406 H403 0.980 . S
C406 H404 0.981 . S
C406 H405 0.981 1_554 S
C407 C394 1.481 . S
C407 H408 0.980 . S
C407 H409 0.981 . S
C407 H410 0.981 . S
H408 C407 0.980 . S
H409 C407 0.981 . S
H410 C407 0.981 . S
O411 Zn387 2.066 . S
O411 C390 1.256 . S
O412 Zn384 2.053 . S
O412 C390 1.244 . S
C413 O391 1.259 . S
C413 O392 1.254 . S
O414 Zn384 2.066 . S
O414 C386 1.256 1_554 S
O415 C386 1.244 1_554 S
O415 Zn387 2.053 . S
Zn416 O417 2.055 . S
Zn416 O424 2.046 1_556 S
Zn416 N432 2.036 . S
Zn416 O444 2.053 . S
Zn416 O446 2.066 . S
O417 Zn416 2.055 . S
O417 C420 1.259 . S
C418 O446 1.256 . S
C418 O447 1.244 . S
Zn419 O421 2.046 . S
Zn419 O423 2.055 1_556 S
Zn419 N425 2.036 . S
Zn419 O443 2.066 . S
Zn419 O447 2.053 . S
C420 O417 1.259 . S
C420 O421 1.254 . S
O421 Zn419 2.046 . S
O421 C420 1.254 . S
C422 O443 1.256 . S
C422 O444 1.244 . S
O423 Zn419 2.055 1_554 S
O423 C445 1.259 . S
O424 Zn416 2.046 1_554 S
O424 C445 1.254 . S
N425 Zn419 2.036 . S
N425 C426 1.298 . S
N425 N428 1.398 . S
C426 N425 1.298 . S
C426 N429 1.367 . S
C426 C439 1.481 1_556 S
C427 N428 1.299 . S
C427 N429 1.379 . S
N428 N425 1.398 . S
N428 C427 1.299 . S
N429 C426 1.367 . S
N429 C427 1.379 . S
C430 N432 1.298 . S
C430 N434 1.367 . S
C430 C438 1.481 . S
C431 N433 1.299 . S
C431 N434 1.379 . S
N432 Zn416 2.036 . S
N432 C430 1.298 . S
N432 N433 1.398 . S
N433 C431 1.299 . S
N433 N432 1.398 . S
N434 C430 1.367 . S
N434 C431 1.379 . S
H435 C438 0.980 . S
H436 C438 0.981 . S
H437 C438 0.981 . S
C438 C430 1.481 . S
C438 H435 0.980 . S
C438 H436 0.981 . S
C438 H437 0.981 . S
C439 C426 1.481 1_554 S
C439 H440 0.980 . S
C439 H441 0.981 . S
C439 H442 0.981 . S
H440 C439 0.980 . S
H441 C439 0.981 . S
H442 C439 0.981 . S
O443 Zn419 2.066 . S
O443 C422 1.256 . S
O444 Zn416 2.053 . S
O444 C422 1.244 . S
C445 O423 1.259 . S
C445 O424 1.254 . S
O446 Zn416 2.066 . S
O446 C418 1.256 . S
O447 C418 1.244 . S
O447 Zn419 2.053 . S
Zn448 O449 2.055 . S
Zn448 O456 2.046 . S
Zn448 N464 2.036 . S
Zn448 O476 2.053 . S
Zn448 O478 2.066 . S
O449 Zn448 2.055 . S
O449 C452 1.259 . S
C450 O478 1.256 . S
C450 O479 1.244 . S
Zn451 O453 2.046 . S
Zn451 O455 2.055 . S
Zn451 N457 2.036 . S
Zn451 O475 2.066 . S
Zn451 O479 2.053 . S
C452 O449 1.259 . S
C452 O453 1.254 . S
O453 Zn451 2.046 . S
O453 C452 1.254 . S
C454 O475 1.256 . S
C454 O476 1.244 . S
O455 Zn451 2.055 . S
O455 C477 1.259 . S
O456 Zn448 2.046 . S
O456 C477 1.254 . S
N457 Zn451 2.036 . S
N457 C458 1.298 . S
N457 N460 1.398 . S
C458 N457 1.298 . S
C458 N461 1.367 . S
C458 C471 1.481 . S
C459 N460 1.299 . S
C459 N461 1.379 . S
N460 N457 1.398 . S
N460 C459 1.299 . S
N461 C458 1.367 . S
N461 C459 1.379 . S
C462 N464 1.298 . S
C462 N466 1.367 . S
C462 C470 1.481 . S
C463 N465 1.299 . S
C463 N466 1.379 . S
N464 Zn448 2.036 . S
N464 C462 1.298 . S
N464 N465 1.398 . S
N465 C463 1.299 . S
N465 N464 1.398 . S
N466 C462 1.367 . S
N466 C463 1.379 . S
H467 C470 0.980 . S
H468 C470 0.981 . S
H469 C470 0.981 . S
C470 C462 1.481 . S
C470 H467 0.980 . S
C470 H468 0.981 . S
C470 H469 0.981 . S
C471 C458 1.481 . S
C471 H472 0.980 . S
C471 H473 0.981 . S
C471 H474 0.981 . S
H472 C471 0.980 . S
H473 C471 0.981 . S
H474 C471 0.981 . S
O475 Zn451 2.066 . S
O475 C454 1.256 . S
O476 Zn448 2.053 . S
O476 C454 1.244 . S
C477 O455 1.259 . S
C477 O456 1.254 . S
O478 Zn448 2.066 . S
O478 C450 1.256 . S
O479 C450 1.244 . S
O479 Zn451 2.053 . S
Zn480 O481 2.055 . S
Zn480 O488 2.046 . S
Zn480 N496 2.036 . S
Zn480 O508 2.053 . S
Zn480 O510 2.066 . S
O481 Zn480 2.055 . S
O481 C484 1.259 . S
C482 O510 1.256 . S
C482 O511 1.244 . S
Zn483 O485 2.046 . S
Zn483 O487 2.055 . S
Zn483 N489 2.036 . S
Zn483 O507 2.066 . S
Zn483 O511 2.053 . S
C484 O481 1.259 . S
C484 O485 1.254 . S
O485 Zn483 2.046 . S
O485 C484 1.254 . S
C486 O507 1.256 . S
C486 O508 1.244 . S
O487 Zn483 2.055 . S
O487 C509 1.259 . S
O488 Zn480 2.046 . S
O488 C509 1.254 . S
N489 Zn483 2.036 . S
N489 C490 1.298 . S
N489 N492 1.398 . S
C490 N489 1.298 . S
C490 N493 1.367 . S
C490 C503 1.481 . S
C491 N492 1.299 . S
C491 N493 1.379 . S
N492 N489 1.398 . S
N492 C491 1.299 . S
N493 C490 1.367 . S
N493 C491 1.379 . S
C494 N496 1.298 . S
C494 N498 1.367 . S
C494 C502 1.481 . S
C495 N497 1.299 . S
C495 N498 1.379 . S
N496 Zn480 2.036 . S
N496 C494 1.298 . S
N496 N497 1.398 . S
N497 C495 1.299 . S
N497 N496 1.398 . S
N498 C494 1.367 . S
N498 C495 1.379 . S
H499 C502 0.980 . S
H500 C502 0.981 . S
H501 C502 0.981 . S
C502 C494 1.481 . S
C502 H499 0.980 . S
C502 H500 0.981 . S
C502 H501 0.981 . S
C503 C490 1.481 . S
C503 H504 0.980 . S
C503 H505 0.981 . S
C503 H506 0.981 . S
H504 C503 0.980 . S
H505 C503 0.981 . S
H506 C503 0.981 . S
O507 Zn483 2.066 . S
O507 C486 1.256 . S
O508 Zn480 2.053 . S
O508 C486 1.244 . S
C509 O487 1.259 . S
C509 O488 1.254 . S
O510 Zn480 2.066 . S
O510 C482 1.256 . S
O511 C482 1.244 . S
O511 Zn483 2.053 . S
H512 C520 0.950 . S
H513 C525 0.950 . S
H514 C522 0.950 . S
H515 C524 0.950 . S
H516 C526 0.950 . S
H517 C528 0.950 . S
H518 C530 0.950 . S
H519 C531 0.950 . S
C520 H512 0.950 . S
C520 C521 1.386 . S
C520 C522 1.391 . S
C521 C520 1.386 . S
C521 C525 1.393 . S
C522 H514 0.950 . S
C522 C520 1.391 . S
C522 C523 1.400 . S
C523 C522 1.400 . S
C523 C524 1.398 . S
C523 C529 1.491 . S
C524 H515 0.950 . S
C524 C523 1.398 . S
C524 C525 1.391 . S
C525 H513 0.950 . S
C525 C521 1.393 . S
C525 C524 1.391 . S
C526 H516 0.950 . S
C526 C527 1.386 . S
C526 C528 1.391 . S
C527 C526 1.386 . S
C527 C531 1.393 . S
C528 H517 0.950 . S
C528 C526 1.391 . S
C528 C529 1.400 . S
C529 C523 1.491 . S
C529 C528 1.400 . S
C529 C530 1.398 . S
C530 H518 0.950 . S
C530 C529 1.398 . S
C530 C531 1.391 . S
C531 H519 0.950 . S
C531 C527 1.393 . S
C531 C530 1.391 . S
H532 C540 0.950 . S
H533 C545 0.950 . S
H534 C542 0.950 . S
H535 C544 0.950 . S
H536 C546 0.950 . S
H537 C548 0.950 . S
H538 C550 0.950 . S
H539 C551 0.950 . S
C540 H532 0.950 . S
C540 C541 1.386 . S
C540 C542 1.391 1_554 S
C541 C540 1.386 . S
C541 C545 1.393 . S
C542 H534 0.950 . S
C542 C540 1.391 1_556 S
C542 C543 1.400 . S
C543 C542 1.400 . S
C543 C544 1.398 . S
C543 C549 1.491 . S
C544 H535 0.950 . S
C544 C543 1.398 . S
C544 C545 1.391 1_556 S
C545 H533 0.950 . S
C545 C541 1.393 . S
C545 C544 1.391 1_554 S
C546 H536 0.950 . S
C546 C547 1.386 . S
C546 C548 1.391 . S
C547 C546 1.386 . S
C547 C551 1.393 . S
C548 H537 0.950 . S
C548 C546 1.391 . S
C548 C549 1.400 . S
C549 C543 1.491 . S
C549 C548 1.400 . S
C549 C550 1.398 . S
C550 H538 0.950 . S
C550 C549 1.398 . S
C550 C551 1.391 . S
C551 H539 0.950 . S
C551 C547 1.393 . S
C551 C550 1.391 . S
H552 C560 0.950 . S
H553 C565 0.950 . S
H554 C562 0.950 . S
H555 C564 0.950 . S
H556 C566 0.950 . S
H557 C568 0.950 . S
H558 C570 0.950 . S
H559 C571 0.950 . S
C560 H552 0.950 . S
C560 C561 1.386 . S
C560 C562 1.391 . S
C561 C560 1.386 . S
C561 C565 1.393 . S
C562 H554 0.950 . S
C562 C560 1.391 . S
C562 C563 1.400 . S
C563 C562 1.400 . S
C563 C564 1.398 . S
C563 C569 1.491 . S
C564 H555 0.950 . S
C564 C563 1.398 . S
C564 C565 1.391 . S
C565 H553 0.950 . S
C565 C561 1.393 . S
C565 C564 1.391 . S
C566 H556 0.950 . S
C566 C567 1.386 . S
C566 C568 1.391 1_556 S
C567 C566 1.386 . S
C567 C571 1.393 . S
C568 H557 0.950 . S
C568 C566 1.391 1_554 S
C568 C569 1.400 . S
C569 C563 1.491 . S
C569 C568 1.400 . S
C569 C570 1.398 . S
C570 H558 0.950 . S
C570 C569 1.398 . S
C570 C571 1.391 1_554 S
C571 H559 0.950 . S
C571 C567 1.393 . S
C571 C570 1.391 1_556 S
H572 C580 0.950 . S
H573 C585 0.950 . S
H574 C582 0.950 . S
H575 C584 0.950 . S
H576 C586 0.950 . S
H577 C588 0.950 . S
H578 C590 0.950 . S
H579 C591 0.950 . S
C580 H572 0.950 . S
C580 C581 1.386 . S
C580 C582 1.391 . S
C581 C580 1.386 . S
C581 C585 1.393 . S
C582 H574 0.950 . S
C582 C580 1.391 . S
C582 C583 1.400 . S
C583 C582 1.400 . S
C583 C584 1.398 . S
C583 C589 1.491 . S
C584 H575 0.950 . S
C584 C583 1.398 . S
C584 C585 1.391 . S
C585 H573 0.950 . S
C585 C581 1.393 . S
C585 C584 1.391 . S
C586 H576 0.950 . S
C586 C587 1.386 . S
C586 C588 1.391 . S
C587 C586 1.386 . S
C587 C591 1.393 . S
C588 H577 0.950 . S
C588 C586 1.391 . S
C588 C589 1.400 . S
C589 C583 1.491 . S
C589 C588 1.400 . S
C589 C590 1.398 . S
C590 H578 0.950 . S
C590 C589 1.398 . S
C590 C591 1.391 . S
C591 H579 0.950 . S
C591 C587 1.393 . S
C591 C590 1.391 . S
H592 C600 0.950 . S
H593 C605 0.950 . S
H594 C602 0.950 . S
H595 C604 0.950 . S
H596 C606 0.950 . S
H597 C608 0.950 . S
H598 C610 0.950 . S
H599 C611 0.950 . S
C600 H592 0.950 . S
C600 C601 1.386 . S
C600 C602 1.391 . S
C601 C600 1.386 . S
C601 C605 1.393 . S
C602 H594 0.950 . S
C602 C600 1.391 . S
C602 C603 1.400 . S
C603 C602 1.400 . S
C603 C604 1.398 . S
C603 C609 1.491 . S
C604 H595 0.950 . S
C604 C603 1.398 . S
C604 C605 1.391 . S
C605 H593 0.950 . S
C605 C601 1.393 . S
C605 C604 1.391 . S
C606 H596 0.950 . S
C606 C607 1.386 . S
C606 C608 1.391 . S
C607 C606 1.386 . S
C607 C611 1.393 . S
C608 H597 0.950 . S
C608 C606 1.391 . S
C608 C609 1.400 . S
C609 C603 1.491 . S
C609 C608 1.400 . S
C609 C610 1.398 . S
C610 H598 0.950 . S
C610 C609 1.398 . S
C610 C611 1.391 . S
C611 H599 0.950 . S
C611 C607 1.393 . S
C611 C610 1.391 . S
H612 C620 0.950 . S
H613 C625 0.950 . S
H614 C622 0.950 . S
H615 C624 0.950 . S
H616 C626 0.950 . S
H617 C628 0.950 . S
H618 C630 0.950 . S
H619 C631 0.950 . S
C620 H612 0.950 . S
C620 C621 1.386 . S
C620 C622 1.391 . S
C621 C620 1.386 . S
C621 C625 1.393 . S
C622 H614 0.950 . S
C622 C620 1.391 . S
C622 C623 1.400 . S
C623 C622 1.400 . S
C623 C624 1.398 . S
C623 C629 1.491 . S
C624 H615 0.950 . S
C624 C623 1.398 . S
C624 C625 1.391 . S
C625 H613 0.950 . S
C625 C621 1.393 . S
C625 C624 1.391 . S
C626 H616 0.950 . S
C626 C627 1.386 . S
C626 C628 1.391 . S
C627 C626 1.386 . S
C627 C631 1.393 . S
C628 H617 0.950 . S
C628 C626 1.391 . S
C628 C629 1.400 . S
C629 C623 1.491 . S
C629 C628 1.400 . S
C629 C630 1.398 . S
C630 H618 0.950 . S
C630 C629 1.398 . S
C630 C631 1.391 . S
C631 H619 0.950 . S
C631 C627 1.393 . S
C631 C630 1.391 . S
H632 C640 0.950 . S
H633 C645 0.950 . S
H634 C642 0.950 . S
H635 C644 0.950 . S
H636 C646 0.950 . S
H637 C648 0.950 . S
H638 C650 0.950 . S
H639 C651 0.950 . S
C640 H632 0.950 . S
C640 C641 1.386 . S
C640 C642 1.391 . S
C641 C640 1.386 . S
C641 C645 1.393 . S
C642 H634 0.950 . S
C642 C640 1.391 . S
C642 C643 1.400 . S
C643 C642 1.400 . S
C643 C644 1.398 . S
C643 C649 1.491 . S
C644 H635 0.950 . S
C644 C643 1.398 . S
C644 C645 1.391 . S
C645 H633 0.950 . S
C645 C641 1.393 . S
C645 C644 1.391 . S
C646 H636 0.950 . S
C646 C647 1.386 . S
C646 C648 1.391 1_554 S
C647 C646 1.386 . S
C647 C651 1.393 . S
C648 H637 0.950 . S
C648 C646 1.391 1_556 S
C648 C649 1.400 . S
C649 C643 1.491 . S
C649 C648 1.400 . S
C649 C650 1.398 . S
C650 H638 0.950 . S
C650 C649 1.398 . S
C650 C651 1.391 1_556 S
C651 H639 0.950 . S
C651 C647 1.393 . S
C651 C650 1.391 1_554 S
H652 C660 0.950 . S
H653 C665 0.950 . S
H654 C662 0.950 . S
H655 C664 0.950 . S
H656 C666 0.950 . S
H657 C668 0.950 . S
H658 C670 0.950 . S
H659 C671 0.950 . S
C660 H652 0.950 . S
C660 C661 1.386 . S
C660 C662 1.391 1_556 S
C661 C660 1.386 . S
C661 C665 1.393 . S
C662 H654 0.950 . S
C662 C660 1.391 1_554 S
C662 C663 1.400 . S
C663 C662 1.400 . S
C663 C664 1.398 . S
C663 C669 1.491 . S
C664 H655 0.950 . S
C664 C663 1.398 . S
C664 C665 1.391 1_554 S
C665 H653 0.950 . S
C665 C661 1.393 . S
C665 C664 1.391 1_556 S
C666 H656 0.950 . S
C666 C667 1.386 . S
C666 C668 1.391 . S
C667 C666 1.386 . S
C667 C671 1.393 . S
C668 H657 0.950 . S
C668 C666 1.391 . S
C668 C669 1.400 . S
C669 C663 1.491 . S
C669 C668 1.400 . S
C669 C670 1.398 . S
C670 H658 0.950 . S
C670 C669 1.398 . S
C670 C671 1.391 . S
C671 H659 0.950 . S
C671 C667 1.393 . S
C671 C670 1.391 . S
H672 C680 0.950 . S
H673 C685 0.950 . S
H674 C682 0.950 . S
H675 C684 0.950 . S
H676 C686 0.950 . S
H677 C688 0.950 . S
H678 C690 0.950 . S
H679 C691 0.950 . S
C680 H672 0.950 . S
C680 C681 1.386 . S
C680 C682 1.391 . S
C681 C680 1.386 . S
C681 C685 1.393 . S
C682 H674 0.950 . S
C682 C680 1.391 . S
C682 C683 1.400 . S
C683 C682 1.400 . S
C683 C684 1.398 . S
C683 C689 1.491 . S
C684 H675 0.950 . S
C684 C683 1.398 . S
C684 C685 1.391 . S
C685 H673 0.950 . S
C685 C681 1.393 . S
C685 C684 1.391 . S
C686 H676 0.950 . S
C686 C687 1.386 . S
C686 C688 1.391 . S
C687 C686 1.386 . S
C687 C691 1.393 . S
C688 H677 0.950 . S
C688 C686 1.391 . S
C688 C689 1.400 . S
C689 C683 1.491 . S
C689 C688 1.400 . S
C689 C690 1.398 . S
C690 H678 0.950 . S
C690 C689 1.398 . S
C690 C691 1.391 . S
C691 H679 0.950 . S
C691 C687 1.393 . S
C691 C690 1.391 . S
H692 C700 0.950 . S
H693 C705 0.950 . S
H694 C702 0.950 . S
H695 C704 0.950 . S
H696 C706 0.950 . S
H697 C708 0.950 . S
H698 C710 0.950 . S
H699 C711 0.950 . S
C700 H692 0.950 . S
C700 C701 1.386 . S
C700 C702 1.391 . S
C701 C700 1.386 . S
C701 C705 1.393 . S
C702 H694 0.950 . S
C702 C700 1.391 . S
C702 C703 1.400 . S
C703 C702 1.400 . S
C703 C704 1.398 . S
C703 C709 1.491 . S
C704 H695 0.950 . S
C704 C703 1.398 . S
C704 C705 1.391 . S
C705 H693 0.950 . S
C705 C701 1.393 . S
C705 C704 1.391 . S
C706 H696 0.950 . S
C706 C707 1.386 . S
C706 C708 1.391 1_556 S
C707 C706 1.386 . S
C707 C711 1.393 . S
C708 H697 0.950 . S
C708 C706 1.391 1_554 S
C708 C709 1.400 . S
C709 C703 1.491 . S
C709 C708 1.400 . S
C709 C710 1.398 . S
C710 H698 0.950 . S
C710 C709 1.398 . S
C710 C711 1.391 1_554 S
C711 H699 0.950 . S
C711 C707 1.393 . S
C711 C710 1.391 1_556 S
H712 C720 0.950 . S
H713 C725 0.950 . S
H714 C722 0.950 . S
H715 C724 0.950 . S
H716 C726 0.950 . S
H717 C728 0.950 . S
H718 C730 0.950 . S
H719 C731 0.950 . S
C720 H712 0.950 . S
C720 C721 1.386 . S
C720 C722 1.391 1_554 S
C721 C720 1.386 . S
C721 C725 1.393 . S
C722 H714 0.950 . S
C722 C720 1.391 1_556 S
C722 C723 1.400 . S
C723 C722 1.400 . S
C723 C724 1.398 . S
C723 C729 1.491 . S
C724 H715 0.950 . S
C724 C723 1.398 . S
C724 C725 1.391 1_556 S
C725 H713 0.950 . S
C725 C721 1.393 . S
C725 C724 1.391 1_554 S
C726 H716 0.950 . S
C726 C727 1.386 . S
C726 C728 1.391 . S
C727 C726 1.386 . S
C727 C731 1.393 . S
C728 H717 0.950 . S
C728 C726 1.391 . S
C728 C729 1.400 . S
C729 C723 1.491 . S
C729 C728 1.400 . S
C729 C730 1.398 . S
C730 H718 0.950 . S
C730 C729 1.398 . S
C730 C731 1.391 . S
C731 H719 0.950 . S
C731 C727 1.393 . S
C731 C730 1.391 . S
H732 C740 0.950 . S
H733 C745 0.950 . S
H734 C742 0.950 . S
H735 C744 0.950 . S
H736 C746 0.950 . S
H737 C748 0.950 . S
H738 C750 0.950 . S
H739 C751 0.950 . S
C740 H732 0.950 . S
C740 C741 1.386 . S
C740 C742 1.391 . S
C741 C740 1.386 . S
C741 C745 1.393 . S
C742 H734 0.950 . S
C742 C740 1.391 . S
C742 C743 1.400 . S
C743 C742 1.400 . S
C743 C744 1.398 . S
C743 C749 1.491 . S
C744 H735 0.950 . S
C744 C743 1.398 . S
C744 C745 1.391 . S
C745 H733 0.950 . S
C745 C741 1.393 . S
C745 C744 1.391 . S
C746 H736 0.950 . S
C746 C747 1.386 . S
C746 C748 1.391 . S
C747 C746 1.386 . S
C747 C751 1.393 . S
C748 H737 0.950 . S
C748 C746 1.391 . S
C748 C749 1.400 . S
C749 C743 1.491 . S
C749 C748 1.400 . S
C749 C750 1.398 . S
C750 H738 0.950 . S
C750 C749 1.398 . S
C750 C751 1.391 . S
C751 H739 0.950 . S
C751 C747 1.393 . S
C751 C750 1.391 . S
H752 C760 0.950 . S
H753 C765 0.950 . S
H754 C762 0.950 . S
H755 C764 0.950 . S
H756 C766 0.950 . S
H757 C768 0.950 . S
H758 C770 0.950 . S
H759 C771 0.950 . S
C760 H752 0.950 . S
C760 C761 1.386 . S
C760 C762 1.391 . S
C761 C760 1.386 . S
C761 C765 1.393 . S
C762 H754 0.950 . S
C762 C760 1.391 . S
C762 C763 1.400 . S
C763 C762 1.400 . S
C763 C764 1.398 . S
C763 C769 1.491 . S
C764 H755 0.950 . S
C764 C763 1.398 . S
C764 C765 1.391 . S
C765 H753 0.950 . S
C765 C761 1.393 . S
C765 C764 1.391 . S
C766 H756 0.950 . S
C766 C767 1.386 . S
C766 C768 1.391 . S
C767 C766 1.386 . S
C767 C771 1.393 . S
C768 H757 0.950 . S
C768 C766 1.391 . S
C768 C769 1.400 . S
C769 C763 1.491 . S
C769 C768 1.400 . S
C769 C770 1.398 . S
C770 H758 0.950 . S
C770 C769 1.398 . S
C770 C771 1.391 . S
C771 H759 0.950 . S
C771 C767 1.393 . S
C771 C770 1.391 . S
H772 C780 0.950 . S
H773 C785 0.950 . S
H774 C782 0.950 . S
H775 C784 0.950 . S
H776 C786 0.950 . S
H777 C788 0.950 . S
H778 C790 0.950 . S
H779 C791 0.950 . S
C780 H772 0.950 . S
C780 C781 1.386 . S
C780 C782 1.391 . S
C781 C780 1.386 . S
C781 C785 1.393 . S
C782 H774 0.950 . S
C782 C780 1.391 . S
C782 C783 1.400 . S
C783 C782 1.400 . S
C783 C784 1.398 . S
C783 C789 1.491 . S
C784 H775 0.950 . S
C784 C783 1.398 . S
C784 C785 1.391 . S
C785 H773 0.950 . S
C785 C781 1.393 . S
C785 C784 1.391 . S
C786 H776 0.950 . S
C786 C787 1.386 . S
C786 C788 1.391 . S
C787 C786 1.386 . S
C787 C791 1.393 . S
C788 H777 0.950 . S
C788 C786 1.391 . S
C788 C789 1.400 . S
C789 C783 1.491 . S
C789 C788 1.400 . S
C789 C790 1.398 . S
C790 H778 0.950 . S
C790 C789 1.398 . S
C790 C791 1.391 . S
C791 H779 0.950 . S
C791 C787 1.393 . S
C791 C790 1.391 . S
H792 C800 0.950 . S
H793 C805 0.950 . S
H794 C802 0.950 . S
H795 C804 0.950 . S
H796 C806 0.950 . S
H797 C808 0.950 . S
H798 C810 0.950 . S
H799 C811 0.950 . S
C800 H792 0.950 . S
C800 C801 1.386 . S
C800 C802 1.391 . S
C801 C800 1.386 . S
C801 C805 1.393 . S
C802 H794 0.950 . S
C802 C800 1.391 . S
C802 C803 1.400 . S
C803 C802 1.400 . S
C803 C804 1.398 . S
C803 C809 1.491 . S
C804 H795 0.950 . S
C804 C803 1.398 . S
C804 C805 1.391 . S
C805 H793 0.950 . S
C805 C801 1.393 . S
C805 C804 1.391 . S
C806 H796 0.950 . S
C806 C807 1.386 . S
C806 C808 1.391 1_556 S
C807 C806 1.386 . S
C807 C811 1.393 . S
C808 H797 0.950 . S
C808 C806 1.391 1_554 S
C808 C809 1.400 . S
C809 C803 1.491 . S
C809 C808 1.400 . S
C809 C810 1.398 . S
C810 H798 0.950 . S
C810 C809 1.398 . S
C810 C811 1.391 1_554 S
C811 H799 0.950 . S
C811 C807 1.393 . S
C811 C810 1.391 1_556 S
H812 C820 0.950 . S
H813 C825 0.950 . S
H814 C822 0.950 . S
H815 C824 0.950 . S
H816 C826 0.950 . S
H817 C828 0.950 . S
H818 C830 0.950 . S
H819 C831 0.950 . S
C820 H812 0.950 . S
C820 C821 1.386 . S
C820 C822 1.391 1_554 S
C821 C820 1.386 . S
C821 C825 1.393 . S
C822 H814 0.950 . S
C822 C820 1.391 1_556 S
C822 C823 1.400 . S
C823 C822 1.400 . S
C823 C824 1.398 . S
C823 C829 1.491 . S
C824 H815 0.950 . S
C824 C823 1.398 . S
C824 C825 1.391 1_556 S
C825 H813 0.950 . S
C825 C821 1.393 . S
C825 C824 1.391 1_554 S
C826 H816 0.950 . S
C826 C827 1.386 . S
C826 C828 1.391 . S
C827 C826 1.386 . S
C827 C831 1.393 . S
C828 H817 0.950 . S
C828 C826 1.391 . S
C828 C829 1.400 . S
C829 C823 1.491 . S
C829 C828 1.400 . S
C829 C830 1.398 . S
C830 H818 0.950 . S
C830 C829 1.398 . S
C830 C831 1.391 . S
C831 H819 0.950 . S
C831 C827 1.393 . S
C831 C830 1.391 . S
H832 C840 0.950 . S
H833 C845 0.950 1_556 S
H834 C842 0.950 . S
H835 C844 0.950 1_556 S
H836 C846 0.950 1_556 S
H837 C848 0.950 1_556 S
H838 C850 0.950 . S
H839 C851 0.950 . S
C840 H832 0.950 . S
C840 C841 1.386 . S
C840 C842 1.391 . S
C841 C840 1.386 . S
C841 C845 1.393 . S
C842 H834 0.950 . S
C842 C840 1.391 . S
C842 C843 1.400 . S
C843 C842 1.400 . S
C843 C844 1.398 . S
C843 C849 1.491 . S
C844 H835 0.950 1_554 S
C844 C843 1.398 . S
C844 C845 1.391 . S
C845 H833 0.950 1_554 S
C845 C841 1.393 . S
C845 C844 1.391 . S
C846 H836 0.950 1_554 S
C846 C847 1.386 . S
C846 C848 1.391 . S
C847 C846 1.386 . S
C847 C851 1.393 . S
C848 H837 0.950 1_554 S
C848 C846 1.391 . S
C848 C849 1.400 . S
C849 C843 1.491 . S
C849 C848 1.400 . S
C849 C850 1.398 . S
C850 H838 0.950 . S
C850 C849 1.398 . S
C850 C851 1.391 . S
C851 H839 0.950 . S
C851 C847 1.393 . S
C851 C850 1.391 . S
H852 C860 0.950 . S
H853 C865 0.950 . S
H854 C862 0.950 . S
H855 C864 0.950 . S
H856 C866 0.950 . S
H857 C868 0.950 . S
H858 C870 0.950 . S
H859 C871 0.950 . S
C860 H852 0.950 . S
C860 C861 1.386 . S
C860 C862 1.391 . S
C861 C860 1.386 . S
C861 C865 1.393 . S
C862 H854 0.950 . S
C862 C860 1.391 . S
C862 C863 1.400 . S
C863 C862 1.400 . S
C863 C864 1.398 . S
C863 C869 1.491 . S
C864 H855 0.950 . S
C864 C863 1.398 . S
C864 C865 1.391 . S
C865 H853 0.950 . S
C865 C861 1.393 . S
C865 C864 1.391 . S
C866 H856 0.950 . S
C866 C867 1.386 . S
C866 C868 1.391 . S
C867 C866 1.386 . S
C867 C871 1.393 . S
C868 H857 0.950 . S
C868 C866 1.391 . S
C868 C869 1.400 . S
C869 C863 1.491 . S
C869 C868 1.400 . S
C869 C870 1.398 . S
C870 H858 0.950 . S
C870 C869 1.398 . S
C870 C871 1.391 . S
C871 H859 0.950 . S
C871 C867 1.393 . S
C871 C870 1.391 . S
H872 C880 0.950 . S
H873 C885 0.950 . S
H874 C882 0.950 . S
H875 C884 0.950 . S
H876 C886 0.950 . S
H877 C888 0.950 . S
H878 C890 0.950 . S
H879 C891 0.950 . S
C880 H872 0.950 . S
C880 C881 1.386 . S
C880 C882 1.391 . S
C881 C880 1.386 . S
C881 C885 1.393 . S
C882 H874 0.950 . S
C882 C880 1.391 . S
C882 C883 1.400 . S
C883 C882 1.400 . S
C883 C884 1.398 . S
C883 C889 1.491 . S
C884 H875 0.950 . S
C884 C883 1.398 . S
C884 C885 1.391 . S
C885 H873 0.950 . S
C885 C881 1.393 . S
C885 C884 1.391 . S
C886 H876 0.950 . S
C886 C887 1.386 . S
C886 C888 1.391 . S
C887 C886 1.386 . S
C887 C891 1.393 . S
C888 H877 0.950 . S
C888 C886 1.391 . S
C888 C889 1.400 . S
C889 C883 1.491 . S
C889 C888 1.400 . S
C889 C890 1.398 . S
C890 H878 0.950 . S
C890 C889 1.398 . S
C890 C891 1.391 . S
C891 H879 0.950 . S
C891 C887 1.393 . S
C891 C890 1.391 . S
H892 C900 0.950 1_554 S
H893 C905 0.950 . S
H894 C902 0.950 1_554 S
H895 C904 0.950 . S
H896 C906 0.950 . S
H897 C908 0.950 . S
H898 C910 0.950 1_554 S
H899 C911 0.950 1_554 S
C900 H892 0.950 1_556 S
C900 C901 1.386 . S
C900 C902 1.391 . S
C901 C900 1.386 . S
C901 C905 1.393 . S
C902 H894 0.950 1_556 S
C902 C900 1.391 . S
C902 C903 1.400 . S
C903 C902 1.400 . S
C903 C904 1.398 . S
C903 C909 1.491 1_655 S
C904 H895 0.950 . S
C904 C903 1.398 . S
C904 C905 1.391 . S
C905 H893 0.950 . S
C905 C901 1.393 . S
C905 C904 1.391 . S
C906 H896 0.950 . S
C906 C907 1.386 . S
C906 C908 1.391 . S
C907 C906 1.386 . S
C907 C911 1.393 . S
C908 H897 0.950 . S
C908 C906 1.391 . S
C908 C909 1.400 . S
C909 C903 1.491 1_455 S
C909 C908 1.400 . S
C909 C910 1.398 . S
C910 H898 0.950 1_556 S
C910 C909 1.398 . S
C910 C911 1.391 . S
C911 H899 0.950 1_556 S
C911 C907 1.393 . S
C911 C910 1.391 . S
H912 C920 0.950 . S
H913 C925 0.950 . S
H914 C922 0.950 . S
H915 C924 0.950 . S
H916 C926 0.950 . S
H917 C928 0.950 . S
H918 C930 0.950 . S
H919 C931 0.950 . S
C920 H912 0.950 . S
C920 C921 1.386 . S
C920 C922 1.391 . S
C921 C920 1.386 . S
C921 C925 1.393 . S
C922 H914 0.950 . S
C922 C920 1.391 . S
C922 C923 1.400 . S
C923 C922 1.400 . S
C923 C924 1.398 . S
C923 C929 1.491 . S
C924 H915 0.950 . S
C924 C923 1.398 . S
C924 C925 1.391 . S
C925 H913 0.950 . S
C925 C921 1.393 . S
C925 C924 1.391 . S
C926 H916 0.950 . S
C926 C927 1.386 . S
C926 C928 1.391 . S
C927 C926 1.386 . S
C927 C931 1.393 . S
C928 H917 0.950 . S
C928 C926 1.391 . S
C928 C929 1.400 . S
C929 C923 1.491 . S
C929 C928 1.400 . S
C929 C930 1.398 . S
C930 H918 0.950 . S
C930 C929 1.398 . S
C930 C931 1.391 . S
C931 H919 0.950 . S
C931 C927 1.393 . S
C931 C930 1.391 . S
H932 C940 0.950 . S
H933 C945 0.950 . S
H934 C942 0.950 . S
H935 C944 0.950 . S
H936 C946 0.950 . S
H937 C948 0.950 . S
H938 C950 0.950 . S
H939 C951 0.950 . S
C940 H932 0.950 . S
C940 C941 1.386 . S
C940 C942 1.391 . S
C941 C940 1.386 . S
C941 C945 1.393 . S
C942 H934 0.950 . S
C942 C940 1.391 . S
C942 C943 1.400 . S
C943 C942 1.400 . S
C943 C944 1.398 . S
C943 C949 1.491 1_455 S
C944 H935 0.950 . S
C944 C943 1.398 . S
C944 C945 1.391 . S
C945 H933 0.950 . S
C945 C941 1.393 . S
C945 C944 1.391 . S
C946 H936 0.950 . S
C946 C947 1.386 . S
C946 C948 1.391 . S
C947 C946 1.386 . S
C947 C951 1.393 . S
C948 H937 0.950 . S
C948 C946 1.391 . S
C948 C949 1.400 . S
C949 C943 1.491 1_655 S
C949 C948 1.400 . S
C949 C950 1.398 . S
C950 H938 0.950 . S
C950 C949 1.398 . S
C950 C951 1.391 . S
C951 H939 0.950 . S
C951 C947 1.393 . S
C951 C950 1.391 . S
H952 C960 0.950 . S
H953 C965 0.950 . S
H954 C962 0.950 . S
H955 C964 0.950 . S
H956 C966 0.950 . S
H957 C968 0.950 . S
H958 C970 0.950 . S
H959 C971 0.950 . S
C960 H952 0.950 . S
C960 C961 1.386 . S
C960 C962 1.391 . S
C961 C960 1.386 . S
C961 C965 1.393 . S
C962 H954 0.950 . S
C962 C960 1.391 . S
C962 C963 1.400 . S
C963 C962 1.400 . S
C963 C964 1.398 . S
C963 C969 1.491 . S
C964 H955 0.950 . S
C964 C963 1.398 . S
C964 C965 1.391 . S
C965 H953 0.950 . S
C965 C961 1.393 . S
C965 C964 1.391 . S
C966 H956 0.950 . S
C966 C967 1.386 . S
C966 C968 1.391 . S
C967 C966 1.386 . S
C967 C971 1.393 . S
C968 H957 0.950 . S
C968 C966 1.391 . S
C968 C969 1.400 . S
C969 C963 1.491 . S
C969 C968 1.400 . S
C969 C970 1.398 . S
C970 H958 0.950 . S
C970 C969 1.398 . S
C970 C971 1.391 . S
C971 H959 0.950 . S
C971 C967 1.393 . S
C971 C970 1.391 . S
H972 C980 0.950 . S
H973 C985 0.950 . S
H974 C982 0.950 . S
H975 C984 0.950 . S
H976 C986 0.950 . S
H977 C988 0.950 . S
H978 C990 0.950 . S
H979 C991 0.950 . S
C980 H972 0.950 . S
C980 C981 1.386 . S
C980 C982 1.391 . S
C981 C980 1.386 . S
C981 C985 1.393 . S
C982 H974 0.950 . S
C982 C980 1.391 . S
C982 C983 1.400 . S
C983 C982 1.400 . S
C983 C984 1.398 . S
C983 C989 1.491 . S
C984 H975 0.950 . S
C984 C983 1.398 . S
C984 C985 1.391 . S
C985 H973 0.950 . S
C985 C981 1.393 . S
C985 C984 1.391 . S
C986 H976 0.950 . S
C986 C987 1.386 . S
C986 C988 1.391 . S
C987 C986 1.386 . S
C987 C991 1.393 . S
C988 H977 0.950 . S
C988 C986 1.391 . S
C988 C989 1.400 . S
C989 C983 1.491 . S
C989 C988 1.400 . S
C989 C990 1.398 . S
C990 H978 0.950 . S
C990 C989 1.398 . S
C990 C991 1.391 . S
C991 H979 0.950 . S
C991 C987 1.393 . S
C991 C990 1.391 . S
H992 C1000 0.950 . S
H993 C1005 0.950 . S
H994 C1002 0.950 . S
H995 C1004 0.950 . S
H996 C1006 0.950 . S
H997 C1008 0.950 . S
H998 C1010 0.950 . S
H999 C1011 0.950 . S
C1000 H992 0.950 . S
C1000 C1001 1.386 . S
C1000 C1002 1.391 . S
C1001 C1000 1.386 . S
C1001 C1005 1.393 . S
C1002 H994 0.950 . S
C1002 C1000 1.391 . S
C1002 C1003 1.400 . S
C1003 C1002 1.400 . S
C1003 C1004 1.398 . S
C1003 C1009 1.491 . S
C1004 H995 0.950 . S
C1004 C1003 1.398 . S
C1004 C1005 1.391 . S
C1005 H993 0.950 . S
C1005 C1001 1.393 . S
C1005 C1004 1.391 . S
C1006 H996 0.950 . S
C1006 C1007 1.386 . S
C1006 C1008 1.391 . S
C1007 C1006 1.386 . S
C1007 C1011 1.393 . S
C1008 H997 0.950 . S
C1008 C1006 1.391 . S
C1008 C1009 1.400 . S
C1009 C1003 1.491 . S
C1009 C1008 1.400 . S
C1009 C1010 1.398 . S
C1010 H998 0.950 . S
C1010 C1009 1.398 . S
C1010 C1011 1.391 . S
C1011 H999 0.950 . S
C1011 C1007 1.393 . S
C1011 C1010 1.391 . S
H1012 C1020 0.950 . S
H1013 C1025 0.950 . S
H1014 C1022 0.950 . S
H1015 C1024 0.950 . S
H1016 C1026 0.950 . S
H1017 C1028 0.950 . S
H1018 C1030 0.950 . S
H1019 C1031 0.950 . S
C1020 H1012 0.950 . S
C1020 C1021 1.386 . S
C1020 C1022 1.391 . S
C1021 C1020 1.386 . S
C1021 C1025 1.393 . S
C1022 H1014 0.950 . S
C1022 C1020 1.391 . S
C1022 C1023 1.400 . S
C1023 C1022 1.400 . S
C1023 C1024 1.398 . S
C1023 C1029 1.491 . S
C1024 H1015 0.950 . S
C1024 C1023 1.398 . S
C1024 C1025 1.391 . S
C1025 H1013 0.950 . S
C1025 C1021 1.393 . S
C1025 C1024 1.391 . S
C1026 H1016 0.950 . S
C1026 C1027 1.386 . S
C1026 C1028 1.391 . S
C1027 C1026 1.386 . S
C1027 C1031 1.393 . S
C1028 H1017 0.950 . S
C1028 C1026 1.391 . S
C1028 C1029 1.400 . S
C1029 C1023 1.491 . S
C1029 C1028 1.400 . S
C1029 C1030 1.398 . S
C1030 H1018 0.950 . S
C1030 C1029 1.398 . S
C1030 C1031 1.391 . S
C1031 H1019 0.950 . S
C1031 C1027 1.393 . S
C1031 C1030 1.391 . S
H1032 C1040 0.950 . S
H1033 C1045 0.950 . S
H1034 C1042 0.950 . S
H1035 C1044 0.950 . S
H1036 C1046 0.950 . S
H1037 C1048 0.950 . S
H1038 C1050 0.950 . S
H1039 C1051 0.950 . S
C1040 H1032 0.950 . S
C1040 C1041 1.386 . S
C1040 C1042 1.391 . S
C1041 C1040 1.386 . S
C1041 C1045 1.393 . S
C1042 H1034 0.950 . S
C1042 C1040 1.391 . S
C1042 C1043 1.400 . S
C1043 C1042 1.400 . S
C1043 C1044 1.398 . S
C1043 C1049 1.491 . S
C1044 H1035 0.950 . S
C1044 C1043 1.398 . S
C1044 C1045 1.391 . S
C1045 H1033 0.950 . S
C1045 C1041 1.393 . S
C1045 C1044 1.391 . S
C1046 H1036 0.950 . S
C1046 C1047 1.386 . S
C1046 C1048 1.391 . S
C1047 C1046 1.386 . S
C1047 C1051 1.393 . S
C1048 H1037 0.950 . S
C1048 C1046 1.391 . S
C1048 C1049 1.400 . S
C1049 C1043 1.491 . S
C1049 C1048 1.400 . S
C1049 C1050 1.398 . S
C1050 H1038 0.950 . S
C1050 C1049 1.398 . S
C1050 C1051 1.391 . S
C1051 H1039 0.950 . S
C1051 C1047 1.393 . S
C1051 C1050 1.391 . S
H1052 C1060 0.950 . S
H1053 C1065 0.950 . S
H1054 C1062 0.950 . S
H1055 C1064 0.950 . S
H1056 C1066 0.950 . S
H1057 C1068 0.950 . S
H1058 C1070 0.950 . S
H1059 C1071 0.950 . S
C1060 H1052 0.950 . S
C1060 C1061 1.386 . S
C1060 C1062 1.391 . S
C1061 C1060 1.386 . S
C1061 C1065 1.393 . S
C1062 H1054 0.950 . S
C1062 C1060 1.391 . S
C1062 C1063 1.400 . S
C1063 C1062 1.400 . S
C1063 C1064 1.398 . S
C1063 C1069 1.491 . S
C1064 H1055 0.950 . S
C1064 C1063 1.398 . S
C1064 C1065 1.391 . S
C1065 H1053 0.950 . S
C1065 C1061 1.393 . S
C1065 C1064 1.391 . S
C1066 H1056 0.950 . S
C1066 C1067 1.386 . S
C1066 C1068 1.391 . S
C1067 C1066 1.386 . S
C1067 C1071 1.393 . S
C1068 H1057 0.950 . S
C1068 C1066 1.391 . S
C1068 C1069 1.400 . S
C1069 C1063 1.491 . S
C1069 C1068 1.400 . S
C1069 C1070 1.398 . S
C1070 H1058 0.950 . S
C1070 C1069 1.398 . S
C1070 C1071 1.391 . S
C1071 H1059 0.950 . S
C1071 C1067 1.393 . S
C1071 C1070 1.391 . S
H1072 C1080 0.950 . S
H1073 C1085 0.950 . S
H1074 C1082 0.950 . S
H1075 C1084 0.950 . S
H1076 C1086 0.950 . S
H1077 C1088 0.950 . S
H1078 C1090 0.950 . S
H1079 C1091 0.950 . S
C1080 H1072 0.950 . S
C1080 C1081 1.386 . S
C1080 C1082 1.391 1_655 S
C1081 C1080 1.386 . S
C1081 C1085 1.393 . S
C1082 H1074 0.950 . S
C1082 C1080 1.391 1_455 S
C1082 C1083 1.400 . S
C1083 C1082 1.400 . S
C1083 C1084 1.398 . S
C1083 C1089 1.491 . S
C1084 H1075 0.950 . S
C1084 C1083 1.398 . S
C1084 C1085 1.391 1_455 S
C1085 H1073 0.950 . S
C1085 C1081 1.393 . S
C1085 C1084 1.391 1_655 S
C1086 H1076 0.950 . S
C1086 C1087 1.386 . S
C1086 C1088 1.391 . S
C1087 C1086 1.386 . S
C1087 C1091 1.393 . S
C1088 H1077 0.950 . S
C1088 C1086 1.391 . S
C1088 C1089 1.400 . S
C1089 C1083 1.491 . S
C1089 C1088 1.400 . S
C1089 C1090 1.398 . S
C1090 H1078 0.950 . S
C1090 C1089 1.398 . S
C1090 C1091 1.391 . S
C1091 H1079 0.950 . S
C1091 C1087 1.393 . S
C1091 C1090 1.391 . S
H1092 C1100 0.950 . S
H1093 C1105 0.950 . S
H1094 C1102 0.950 . S
H1095 C1104 0.950 . S
H1096 C1106 0.950 . S
H1097 C1108 0.950 . S
H1098 C1110 0.950 . S
H1099 C1111 0.950 . S
C1100 H1092 0.950 . S
C1100 C1101 1.386 . S
C1100 C1102 1.391 . S
C1101 C1100 1.386 . S
C1101 C1105 1.393 . S
C1102 H1094 0.950 . S
C1102 C1100 1.391 . S
C1102 C1103 1.400 . S
C1103 C1102 1.400 . S
C1103 C1104 1.398 . S
C1103 C1109 1.491 . S
C1104 H1095 0.950 . S
C1104 C1103 1.398 . S
C1104 C1105 1.391 . S
C1105 H1093 0.950 . S
C1105 C1101 1.393 . S
C1105 C1104 1.391 . S
C1106 H1096 0.950 . S
C1106 C1107 1.386 . S
C1106 C1108 1.391 . S
C1107 C1106 1.386 . S
C1107 C1111 1.393 . S
C1108 H1097 0.950 . S
C1108 C1106 1.391 . S
C1108 C1109 1.400 . S
C1109 C1103 1.491 . S
C1109 C1108 1.400 . S
C1109 C1110 1.398 . S
C1110 H1098 0.950 . S
C1110 C1109 1.398 . S
C1110 C1111 1.391 . S
C1111 H1099 0.950 . S
C1111 C1107 1.393 . S
C1111 C1110 1.391 . S
H1112 C1120 0.950 . S
H1113 C1125 0.950 . S
H1114 C1122 0.950 . S
H1115 C1124 0.950 . S
H1116 C1126 0.950 . S
H1117 C1128 0.950 . S
H1118 C1130 0.950 . S
H1119 C1131 0.950 . S
C1120 H1112 0.950 . S
C1120 C1121 1.386 . S
C1120 C1122 1.391 . S
C1121 C1120 1.386 . S
C1121 C1125 1.393 . S
C1122 H1114 0.950 . S
C1122 C1120 1.391 . S
C1122 C1123 1.400 . S
C1123 C1122 1.400 . S
C1123 C1124 1.398 . S
C1123 C1129 1.491 . S
C1124 H1115 0.950 . S
C1124 C1123 1.398 . S
C1124 C1125 1.391 . S
C1125 H1113 0.950 . S
C1125 C1121 1.393 . S
C1125 C1124 1.391 . S
C1126 H1116 0.950 . S
C1126 C1127 1.386 . S
C1126 C1128 1.391 . S
C1127 C1126 1.386 . S
C1127 C1131 1.393 . S
C1128 H1117 0.950 . S
C1128 C1126 1.391 . S
C1128 C1129 1.400 . S
C1129 C1123 1.491 . S
C1129 C1128 1.400 . S
C1129 C1130 1.398 . S
C1130 H1118 0.950 . S
C1130 C1129 1.398 . S
C1130 C1131 1.391 . S
C1131 H1119 0.950 . S
C1131 C1127 1.393 . S
C1131 C1130 1.391 . S
H1132 C1140 0.950 1_556 S
H1133 C1145 0.950 . S
H1134 C1142 0.950 1_556 S
H1135 C1144 0.950 . S
H1136 C1146 0.950 . S
H1137 C1148 0.950 . S
H1138 C1150 0.950 1_556 S
H1139 C1151 0.950 1_556 S
C1140 H1132 0.950 1_554 S
C1140 C1141 1.386 . S
C1140 C1142 1.391 1_455 S
C1141 C1140 1.386 . S
C1141 C1145 1.393 . S
C1142 H1134 0.950 1_554 S
C1142 C1140 1.391 1_655 S
C1142 C1143 1.400 . S
C1143 C1142 1.400 . S
C1143 C1144 1.398 . S
C1143 C1149 1.491 . S
C1144 H1135 0.950 . S
C1144 C1143 1.398 . S
C1144 C1145 1.391 1_655 S
C1145 H1133 0.950 . S
C1145 C1141 1.393 . S
C1145 C1144 1.391 1_455 S
C1146 H1136 0.950 . S
C1146 C1147 1.386 . S
C1146 C1148 1.391 . S
C1147 C1146 1.386 . S
C1147 C1151 1.393 . S
C1148 H1137 0.950 . S
C1148 C1146 1.391 . S
C1148 C1149 1.400 . S
C1149 C1143 1.491 . S
C1149 C1148 1.400 . S
C1149 C1150 1.398 . S
C1150 H1138 0.950 1_554 S
C1150 C1149 1.398 . S
C1150 C1151 1.391 . S
C1151 H1139 0.950 1_554 S
C1151 C1147 1.393 . S
C1151 C1150 1.391 . S
H1152 C1160 0.950 . S
H1153 C1165 0.950 . S
H1154 C1162 0.950 . S
H1155 C1164 0.950 . S
H1156 C1166 0.950 . S
H1157 C1168 0.950 . S
H1158 C1170 0.950 . S
H1159 C1171 0.950 1_554 S
C1160 H1152 0.950 . S
C1160 C1161 1.386 . S
C1160 C1162 1.391 . S
C1161 C1160 1.386 . S
C1161 C1165 1.393 1_554 S
C1162 H1154 0.950 . S
C1162 C1160 1.391 . S
C1162 C1163 1.400 . S
C1163 C1162 1.400 . S
C1163 C1164 1.398 1_554 S
C1163 C1169 1.491 1_554 S
C1164 H1155 0.950 . S
C1164 C1163 1.398 1_556 S
C1164 C1165 1.391 . S
C1165 H1153 0.950 . S
C1165 C1161 1.393 1_556 S
C1165 C1164 1.391 . S
C1166 H1156 0.950 . S
C1166 C1167 1.386 . S
C1166 C1168 1.391 . S
C1167 C1166 1.386 . S
C1167 C1171 1.393 . S
C1168 H1157 0.950 . S
C1168 C1166 1.391 . S
C1168 C1169 1.400 . S
C1169 C1163 1.491 1_556 S
C1169 C1168 1.400 . S
C1169 C1170 1.398 1_556 S
C1170 H1158 0.950 . S
C1170 C1169 1.398 1_554 S
C1170 C1171 1.391 1_554 S
C1171 H1159 0.950 1_556 S
C1171 C1167 1.393 . S
C1171 C1170 1.391 1_556 S
H1172 C1180 0.950 . S
H1173 C1185 0.950 . S
H1174 C1182 0.950 . S
H1175 C1184 0.950 . S
H1176 C1186 0.950 . S
H1177 C1188 0.950 . S
H1178 C1190 0.950 . S
H1179 C1191 0.950 . S
C1180 H1172 0.950 . S
C1180 C1181 1.386 . S
C1180 C1182 1.391 . S
C1181 C1180 1.386 . S
C1181 C1185 1.393 . S
C1182 H1174 0.950 . S
C1182 C1180 1.391 . S
C1182 C1183 1.400 . S
C1183 C1182 1.400 . S
C1183 C1184 1.398 . S
C1183 C1189 1.491 . S
C1184 H1175 0.950 . S
C1184 C1183 1.398 . S
C1184 C1185 1.391 . S
C1185 H1173 0.950 . S
C1185 C1181 1.393 . S
C1185 C1184 1.391 . S
C1186 H1176 0.950 . S
C1186 C1187 1.386 . S
C1186 C1188 1.391 . S
C1187 C1186 1.386 . S
C1187 C1191 1.393 . S
C1188 H1177 0.950 . S
C1188 C1186 1.391 . S
C1188 C1189 1.400 . S
C1189 C1183 1.491 . S
C1189 C1188 1.400 . S
C1189 C1190 1.398 . S
C1190 H1178 0.950 . S
C1190 C1189 1.398 . S
C1190 C1191 1.391 . S
C1191 H1179 0.950 . S
C1191 C1187 1.393 . S
C1191 C1190 1.391 . S
H1192 C1200 0.950 . S
H1193 C1205 0.950 . S
H1194 C1202 0.950 . S
H1195 C1204 0.950 . S
H1196 C1206 0.950 . S
H1197 C1208 0.950 . S
H1198 C1210 0.950 . S
H1199 C1211 0.950 . S
C1200 H1192 0.950 . S
C1200 C1201 1.386 . S
C1200 C1202 1.391 . S
C1201 C1200 1.386 . S
C1201 C1205 1.393 . S
C1202 H1194 0.950 . S
C1202 C1200 1.391 . S
C1202 C1203 1.400 . S
C1203 C1202 1.400 . S
C1203 C1204 1.398 . S
C1203 C1209 1.491 . S
C1204 H1195 0.950 . S
C1204 C1203 1.398 . S
C1204 C1205 1.391 . S
C1205 H1193 0.950 . S
C1205 C1201 1.393 . S
C1205 C1204 1.391 . S
C1206 H1196 0.950 . S
C1206 C1207 1.386 . S
C1206 C1208 1.391 . S
C1207 C1206 1.386 . S
C1207 C1211 1.393 . S
C1208 H1197 0.950 . S
C1208 C1206 1.391 . S
C1208 C1209 1.400 . S
C1209 C1203 1.491 . S
C1209 C1208 1.400 . S
C1209 C1210 1.398 . S
C1210 H1198 0.950 . S
C1210 C1209 1.398 . S
C1210 C1211 1.391 . S
C1211 H1199 0.950 . S
C1211 C1207 1.393 . S
C1211 C1210 1.391 . S
H1212 C1220 0.950 . S
H1213 C1225 0.950 . S
H1214 C1222 0.950 . S
H1215 C1224 0.950 . S
H1216 C1226 0.950 . S
H1217 C1228 0.950 . S
H1218 C1230 0.950 . S
H1219 C1231 0.950 . S
C1220 H1212 0.950 . S
C1220 C1221 1.386 . S
C1220 C1222 1.391 . S
C1221 C1220 1.386 . S
C1221 C1225 1.393 . S
C1222 H1214 0.950 . S
C1222 C1220 1.391 . S
C1222 C1223 1.400 . S
C1223 C1222 1.400 . S
C1223 C1224 1.398 . S
C1223 C1229 1.491 . S
C1224 H1215 0.950 . S
C1224 C1223 1.398 . S
C1224 C1225 1.391 . S
C1225 H1213 0.950 . S
C1225 C1221 1.393 . S
C1225 C1224 1.391 . S
C1226 H1216 0.950 . S
C1226 C1227 1.386 . S
C1226 C1228 1.391 . S
C1227 C1226 1.386 . S
C1227 C1231 1.393 . S
C1228 H1217 0.950 . S
C1228 C1226 1.391 . S
C1228 C1229 1.400 . S
C1229 C1223 1.491 . S
C1229 C1228 1.400 . S
C1229 C1230 1.398 . S
C1230 H1218 0.950 . S
C1230 C1229 1.398 . S
C1230 C1231 1.391 . S
C1231 H1219 0.950 . S
C1231 C1227 1.393 . S
C1231 C1230 1.391 . S
H1232 C1240 0.950 1_556 S
H1233 C1245 0.950 . S
H1234 C1242 0.950 . S
H1235 C1244 0.950 . S
H1236 C1246 0.950 1_554 S
H1237 C1248 0.950 . S
H1238 C1250 0.950 . S
H1239 C1251 0.950 . S
C1240 H1232 0.950 1_554 S
C1240 C1241 1.386 . S
C1240 C1242 1.391 1_554 S
C1241 C1240 1.386 . S
C1241 C1245 1.393 . S
C1242 H1234 0.950 . S
C1242 C1240 1.391 1_556 S
C1242 C1243 1.400 1_556 S
C1243 C1242 1.400 1_554 S
C1243 C1244 1.398 . S
C1243 C1249 1.491 1_554 S
C1244 H1235 0.950 . S
C1244 C1243 1.398 . S
C1244 C1245 1.391 . S
C1245 H1233 0.950 . S
C1245 C1241 1.393 . S
C1245 C1244 1.391 . S
C1246 H1236 0.950 1_556 S
C1246 C1247 1.386 . S
C1246 C1248 1.391 1_556 S
C1247 C1246 1.386 . S
C1247 C1251 1.393 . S
C1248 H1237 0.950 . S
C1248 C1246 1.391 1_554 S
C1248 C1249 1.400 1_554 S
C1249 C1243 1.491 1_556 S
C1249 C1248 1.400 1_556 S
C1249 C1250 1.398 . S
C1250 H1238 0.950 . S
C1250 C1249 1.398 . S
C1250 C1251 1.391 . S
C1251 H1239 0.950 . S
C1251 C1247 1.393 . S
C1251 C1250 1.391 . S
H1252 C1260 0.950 . S
H1253 C1265 0.950 . S
H1254 C1262 0.950 . S
H1255 C1264 0.950 . S
H1256 C1266 0.950 . S
H1257 C1268 0.950 . S
H1258 C1270 0.950 . S
H1259 C1271 0.950 . S
C1260 H1252 0.950 . S
C1260 C1261 1.386 . S
C1260 C1262 1.391 . S
C1261 C1260 1.386 . S
C1261 C1265 1.393 . S
C1262 H1254 0.950 . S
C1262 C1260 1.391 . S
C1262 C1263 1.400 . S
C1263 C1262 1.400 . S
C1263 C1264 1.398 . S
C1263 C1269 1.491 . S
C1264 H1255 0.950 . S
C1264 C1263 1.398 . S
C1264 C1265 1.391 . S
C1265 H1253 0.950 . S
C1265 C1261 1.393 . S
C1265 C1264 1.391 . S
C1266 H1256 0.950 . S
C1266 C1267 1.386 . S
C1266 C1268 1.391 . S
C1267 C1266 1.386 . S
C1267 C1271 1.393 . S
C1268 H1257 0.950 . S
C1268 C1266 1.391 . S
C1268 C1269 1.400 . S
C1269 C1263 1.491 . S
C1269 C1268 1.400 . S
C1269 C1270 1.398 . S
C1270 H1258 0.950 . S
C1270 C1269 1.398 . S
C1270 C1271 1.391 . S
C1271 H1259 0.950 . S
C1271 C1267 1.393 . S
C1271 C1270 1.391 . S
H1272 C1280 0.950 . S
H1273 C1285 0.950 . S
H1274 C1282 0.950 . S
H1275 C1284 0.950 . S
H1276 C1286 0.950 . S
H1277 C1288 0.950 . S
H1278 C1290 0.950 . S
H1279 C1291 0.950 . S
C1280 H1272 0.950 . S
C1280 C1281 1.386 . S
C1280 C1282 1.391 . S
C1281 C1280 1.386 . S
C1281 C1285 1.393 . S
C1282 H1274 0.950 . S
C1282 C1280 1.391 . S
C1282 C1283 1.400 . S
C1283 C1282 1.400 . S
C1283 C1284 1.398 . S
C1283 C1289 1.491 . S
C1284 H1275 0.950 . S
C1284 C1283 1.398 . S
C1284 C1285 1.391 . S
C1285 H1273 0.950 . S
C1285 C1281 1.393 . S
C1285 C1284 1.391 . S
C1286 H1276 0.950 . S
C1286 C1287 1.386 . S
C1286 C1288 1.391 . S
C1287 C1286 1.386 . S
C1287 C1291 1.393 . S
C1288 H1277 0.950 . S
C1288 C1286 1.391 . S
C1288 C1289 1.400 . S
C1289 C1283 1.491 . S
C1289 C1288 1.400 . S
C1289 C1290 1.398 . S
C1290 H1278 0.950 . S
C1290 C1289 1.398 . S
C1290 C1291 1.391 . S
C1291 H1279 0.950 . S
C1291 C1287 1.393 . S
C1291 C1290 1.391 . S
H1292 C1300 0.950 . S
H1293 C1305 0.950 . S
H1294 C1302 0.950 . S
H1295 C1304 0.950 . S
H1296 C1306 0.950 . S
H1297 C1308 0.950 . S
H1298 C1310 0.950 . S
H1299 C1311 0.950 . S
C1300 H1292 0.950 . S
C1300 C1301 1.386 . S
C1300 C1302 1.391 . S
C1301 C1300 1.386 . S
C1301 C1305 1.393 . S
C1302 H1294 0.950 . S
C1302 C1300 1.391 . S
C1302 C1303 1.400 . S
C1303 C1302 1.400 . S
C1303 C1304 1.398 . S
C1303 C1309 1.491 . S
C1304 H1295 0.950 . S
C1304 C1303 1.398 . S
C1304 C1305 1.391 . S
C1305 H1293 0.950 . S
C1305 C1301 1.393 . S
C1305 C1304 1.391 . S
C1306 H1296 0.950 . S
C1306 C1307 1.386 . S
C1306 C1308 1.391 . S
C1307 C1306 1.386 . S
C1307 C1311 1.393 . S
C1308 H1297 0.950 . S
C1308 C1306 1.391 . S
C1308 C1309 1.400 . S
C1309 C1303 1.491 . S
C1309 C1308 1.400 . S
C1309 C1310 1.398 . S
C1310 H1298 0.950 . S
C1310 C1309 1.398 . S
C1310 C1311 1.391 . S
C1311 H1299 0.950 . S
C1311 C1307 1.393 . S
C1311 C1310 1.391 . S
H1312 C1320 0.950 . S
H1313 C1325 0.950 . S
H1314 C1322 0.950 . S
H1315 C1324 0.950 . S
H1316 C1326 0.950 . S
H1317 C1328 0.950 . S
H1318 C1330 0.950 . S
H1319 C1331 0.950 . S
C1320 H1312 0.950 . S
C1320 C1321 1.386 . S
C1320 C1322 1.391 . S
C1321 C1320 1.386 . S
C1321 C1325 1.393 . S
C1322 H1314 0.950 . S
C1322 C1320 1.391 . S
C1322 C1323 1.400 . S
C1323 C1322 1.400 . S
C1323 C1324 1.398 . S
C1323 C1329 1.491 1_565 S
C1324 H1315 0.950 . S
C1324 C1323 1.398 . S
C1324 C1325 1.391 . S
C1325 H1313 0.950 . S
C1325 C1321 1.393 . S
C1325 C1324 1.391 . S
C1326 H1316 0.950 . S
C1326 C1327 1.386 . S
C1326 C1328 1.391 . S
C1327 C1326 1.386 . S
C1327 C1331 1.393 . S
C1328 H1317 0.950 . S
C1328 C1326 1.391 . S
C1328 C1329 1.400 . S
C1329 C1323 1.491 1_545 S
C1329 C1328 1.400 . S
C1329 C1330 1.398 . S
C1330 H1318 0.950 . S
C1330 C1329 1.398 . S
C1330 C1331 1.391 . S
C1331 H1319 0.950 . S
C1331 C1327 1.393 . S
C1331 C1330 1.391 . S
H1332 C1340 0.950 . S
H1333 C1345 0.950 . S
H1334 C1342 0.950 . S
H1335 C1344 0.950 . S
H1336 C1346 0.950 . S
H1337 C1348 0.950 . S
H1338 C1350 0.950 . S
H1339 C1351 0.950 . S
C1340 H1332 0.950 . S
C1340 C1341 1.386 . S
C1340 C1342 1.391 . S
C1341 C1340 1.386 . S
C1341 C1345 1.393 . S
C1342 H1334 0.950 . S
C1342 C1340 1.391 . S
C1342 C1343 1.400 . S
C1343 C1342 1.400 . S
C1343 C1344 1.398 . S
C1343 C1349 1.491 . S
C1344 H1335 0.950 . S
C1344 C1343 1.398 . S
C1344 C1345 1.391 . S
C1345 H1333 0.950 . S
C1345 C1341 1.393 . S
C1345 C1344 1.391 . S
C1346 H1336 0.950 . S
C1346 C1347 1.386 . S
C1346 C1348 1.391 . S
C1347 C1346 1.386 . S
C1347 C1351 1.393 . S
C1348 H1337 0.950 . S
C1348 C1346 1.391 . S
C1348 C1349 1.400 . S
C1349 C1343 1.491 . S
C1349 C1348 1.400 . S
C1349 C1350 1.398 . S
C1350 H1338 0.950 . S
C1350 C1349 1.398 . S
C1350 C1351 1.391 . S
C1351 H1339 0.950 . S
C1351 C1347 1.393 . S
C1351 C1350 1.391 . S
H1352 C1360 0.950 . S
H1353 C1365 0.950 . S
H1354 C1362 0.950 . S
H1355 C1364 0.950 . S
H1356 C1366 0.950 . S
H1357 C1368 0.950 . S
H1358 C1370 0.950 . S
H1359 C1371 0.950 . S
C1360 H1352 0.950 . S
C1360 C1361 1.386 1_556 S
C1360 C1362 1.391 . S
C1361 C1360 1.386 1_554 S
C1361 C1365 1.393 . S
C1362 H1354 0.950 . S
C1362 C1360 1.391 . S
C1362 C1363 1.400 1_556 S
C1363 C1362 1.400 1_554 S
C1363 C1364 1.398 . S
C1363 C1369 1.491 1_564 S
C1364 H1355 0.950 . S
C1364 C1363 1.398 . S
C1364 C1365 1.391 . S
C1365 H1353 0.950 . S
C1365 C1361 1.393 . S
C1365 C1364 1.391 . S
C1366 H1356 0.950 . S
C1366 C1367 1.386 1_554 S
C1366 C1368 1.391 . S
C1367 C1366 1.386 1_556 S
C1367 C1371 1.393 . S
C1368 H1357 0.950 . S
C1368 C1366 1.391 . S
C1368 C1369 1.400 1_554 S
C1369 C1363 1.491 1_546 S
C1369 C1368 1.400 1_556 S
C1369 C1370 1.398 . S
C1370 H1358 0.950 . S
C1370 C1369 1.398 . S
C1370 C1371 1.391 . S
C1371 H1359 0.950 . S
C1371 C1367 1.393 . S
C1371 C1370 1.391 . S
H1372 C1380 0.950 . S
H1373 C1385 0.950 . S
H1374 C1382 0.950 . S
H1375 C1384 0.950 . S
H1376 C1386 0.950 . S
H1377 C1388 0.950 . S
H1378 C1390 0.950 . S
H1379 C1391 0.950 . S
C1380 H1372 0.950 . S
C1380 C1381 1.386 . S
C1380 C1382 1.391 . S
C1381 C1380 1.386 . S
C1381 C1385 1.393 . S
C1382 H1374 0.950 . S
C1382 C1380 1.391 . S
C1382 C1383 1.400 . S
C1383 C1382 1.400 . S
C1383 C1384 1.398 . S
C1383 C1389 1.491 . S
C1384 H1375 0.950 . S
C1384 C1383 1.398 . S
C1384 C1385 1.391 . S
C1385 H1373 0.950 . S
C1385 C1381 1.393 . S
C1385 C1384 1.391 . S
C1386 H1376 0.950 . S
C1386 C1387 1.386 . S
C1386 C1388 1.391 . S
C1387 C1386 1.386 . S
C1387 C1391 1.393 . S
C1388 H1377 0.950 . S
C1388 C1386 1.391 . S
C1388 C1389 1.400 . S
C1389 C1383 1.491 . S
C1389 C1388 1.400 . S
C1389 C1390 1.398 . S
C1390 H1378 0.950 . S
C1390 C1389 1.398 . S
C1390 C1391 1.391 . S
C1391 H1379 0.950 . S
C1391 C1387 1.393 . S
C1391 C1390 1.391 . S
H1392 C1400 0.950 . S
H1393 C1405 0.950 . S
H1394 C1402 0.950 . S
H1395 C1404 0.950 . S
H1396 C1406 0.950 . S
H1397 C1408 0.950 . S
H1398 C1410 0.995 . S
H1399 C1411 0.950 . S
C1400 H1392 0.950 . S
C1400 C1401 1.386 . S
C1400 C1402 1.391 . S
C1401 C1400 1.386 . S
C1401 C1405 1.393 . S
C1402 H1394 0.950 . S
C1402 C1400 1.391 . S
C1402 C1403 1.400 . S
C1403 C1402 1.400 . S
C1403 C1404 1.398 . S
C1403 C1409 1.491 1_565 S
C1404 H1395 0.950 . S
C1404 C1403 1.398 . S
C1404 C1405 1.391 . S
C1405 H1393 0.950 . S
C1405 C1401 1.393 . S
C1405 C1404 1.391 . S
C1406 H1396 0.950 . S
C1406 C1407 1.386 . S
C1406 C1408 1.391 . S
C1407 C1406 1.386 . S
C1407 C1411 1.393 . S
C1408 H1397 0.950 . S
C1408 C1406 1.391 . S
C1408 C1409 1.400 . S
C1409 C1403 1.491 1_545 S
C1409 C1408 1.400 . S
C1409 C1410 1.398 . S
C1410 H1398 0.995 . S
C1410 C1409 1.398 . S
C1410 C1411 1.391 . S
C1411 H1399 0.950 . S
C1411 C1407 1.393 . S
C1411 C1410 1.391 . S
H1412 C1420 0.950 . S
H1413 C1425 0.950 . S
H1414 C1422 0.950 . S
H1415 C1424 0.950 . S
H1416 C1426 0.950 . S
H1417 C1428 0.950 . S
H1418 C1430 0.950 . S
H1419 C1431 0.950 . S
C1420 H1412 0.950 . S
C1420 C1421 1.386 . S
C1420 C1422 1.391 . S
C1421 C1420 1.386 . S
C1421 C1425 1.393 . S
C1422 H1414 0.950 . S
C1422 C1420 1.391 . S
C1422 C1423 1.400 . S
C1423 C1422 1.400 . S
C1423 C1424 1.398 . S
C1423 C1429 1.491 . S
C1424 H1415 0.950 . S
C1424 C1423 1.398 . S
C1424 C1425 1.391 . S
C1425 H1413 0.950 . S
C1425 C1421 1.393 . S
C1425 C1424 1.391 . S
C1426 H1416 0.950 . S
C1426 C1427 1.386 . S
C1426 C1428 1.391 . S
C1427 C1426 1.386 . S
C1427 C1431 1.393 . S
C1428 H1417 0.950 . S
C1428 C1426 1.391 . S
C1428 C1429 1.400 . S
C1429 C1423 1.491 . S
C1429 C1428 1.400 . S
C1429 C1430 1.398 . S
C1430 H1418 0.950 . S
C1430 C1429 1.398 . S
C1430 C1431 1.391 . S
C1431 H1419 0.950 . S
C1431 C1427 1.393 . S
C1431 C1430 1.391 . S
H1432 C1440 0.950 . S
H1433 C1445 0.950 . S
H1434 C1442 0.950 . S
H1435 C1444 0.950 . S
H1436 C1446 0.950 . S
H1437 C1448 0.950 . S
H1438 C1450 0.950 . S
H1439 C1451 0.950 . S
C1440 H1432 0.950 . S
C1440 C1441 1.386 1_554 S
C1440 C1442 1.391 . S
C1441 C1440 1.386 1_556 S
C1441 C1445 1.393 . S
C1442 H1434 0.950 . S
C1442 C1440 1.391 . S
C1442 C1443 1.400 1_554 S
C1443 C1442 1.400 1_556 S
C1443 C1444 1.398 . S
C1443 C1449 1.491 1_546 S
C1444 H1435 0.950 . S
C1444 C1443 1.398 . S
C1444 C1445 1.391 . S
C1445 H1433 0.950 . S
C1445 C1441 1.393 . S
C1445 C1444 1.391 . S
C1446 H1436 0.950 . S
C1446 C1447 1.386 1_556 S
C1446 C1448 1.391 . S
C1447 C1446 1.386 1_554 S
C1447 C1451 1.393 . S
C1448 H1437 0.950 . S
C1448 C1446 1.391 . S
C1448 C1449 1.400 1_556 S
C1449 C1443 1.491 1_564 S
C1449 C1448 1.400 1_554 S
C1449 C1450 1.398 . S
C1450 H1438 0.950 . S
C1450 C1449 1.398 . S
C1450 C1451 1.391 . S
C1451 H1439 0.950 . S
C1451 C1447 1.393 . S
C1451 C1450 1.391 . S
H1452 C1460 0.950 . S
H1453 C1465 0.950 . S
H1454 C1462 0.950 . S
H1455 C1464 0.950 . S
H1456 C1466 0.950 . S
H1457 C1468 0.950 . S
H1458 C1470 0.950 . S
H1459 C1471 0.950 . S
C1460 H1452 0.950 . S
C1460 C1461 1.386 . S
C1460 C1462 1.391 . S
C1461 C1460 1.386 . S
C1461 C1465 1.393 . S
C1462 H1454 0.950 . S
C1462 C1460 1.391 . S
C1462 C1463 1.400 . S
C1463 C1462 1.400 . S
C1463 C1464 1.398 . S
C1463 C1469 1.491 . S
C1464 H1455 0.950 . S
C1464 C1463 1.398 . S
C1464 C1465 1.391 . S
C1465 H1453 0.950 . S
C1465 C1461 1.393 . S
C1465 C1464 1.391 . S
C1466 H1456 0.950 . S
C1466 C1467 1.386 . S
C1466 C1468 1.391 . S
C1467 C1466 1.386 . S
C1467 C1471 1.393 . S
C1468 H1457 0.950 . S
C1468 C1466 1.391 . S
C1468 C1469 1.400 . S
C1469 C1463 1.491 . S
C1469 C1468 1.400 . S
C1469 C1470 1.398 . S
C1470 H1458 0.950 . S
C1470 C1469 1.398 . S
C1470 C1471 1.391 . S
C1471 H1459 0.950 . S
C1471 C1467 1.393 . S
C1471 C1470 1.391 . S
C521 C4 1.460 . S
C527 C6 1.462 . S
C541 C61 1.451 . S
C547 C34 1.459 . S
C561 C93 1.452 . S
C567 C66 1.459 . S
C581 C98 1.461 . S
C587 C125 1.454 . S
C601 C134 1.459 . S
C607 C132 1.453 . S
C621 C189 1.462 . S
C627 C162 1.466 . S
C641 C221 1.460 . S
C647 C194 1.463 . S
C661 C228 1.461 . S
C667 C230 1.463 . S
C681 C260 1.460 . S
C687 C262 1.463 . S
C701 C294 1.462 . S
C707 C292 1.454 . S
C721 C322 1.463 . S
C727 C349 1.460 . S
C741 C354 1.460 . S
C747 C381 1.451 . S
C761 C386 1.463 . S
C767 C413 1.460 . S
C781 C418 1.462 . S
C787 C445 1.455 . S
C801 C452 1.451 . S
C807 C454 1.458 . S
C821 C484 1.458 . S
C827 C486 1.461 . S
C841 C29 2.052 . S
C847 C356 2.047 . S
C861 C36 2.124 . S
C867 C509 2.130 . S
C881 C68 1.331 . S
C887 N306 1.308 . S
C901 N109 1.652 . S
C907 N429 1.610 . S
C921 N146 1.587 . S
C927 C420 1.665 . S
C941 N365 1.630 . S
C947 N173 1.633 . S
C961 C196 1.186 . S
C967 N498 1.161 . S
C981 C253 2.124 . S
C987 C317 2.130 . S
C1001 C100 2.053 . S
C1007 C285 2.051 . S
C1021 N45 1.294 . S
C1027 C324 1.338 . S
C1041 N397 1.608 . S
C1047 C164 1.655 . S
C1061 N242 1.163 . S
C1067 C477 1.186 . S
C1081 N274 1.323 . S
C1087 C157 1.369 . S
C1101 N205 1.117 . S
C1107 N333 1.114 . S
C1121 N77 1.132 . S
C1127 N466 1.097 . S
C1141 N18 1.331 . S
C1147 C388 1.366 . S
C1161 C2 1.630 . S
C1167 N141 1.606 . S
C1181 C38 1.856 . S
C1187 N178 1.845 . S
C1201 C70 1.399 . S
C1207 C198 1.401 . S
C1221 N114 2.050 . S
C1227 C226 2.074 . S
C1241 N402 1.612 . S
C1247 C258 1.628 . S
C1261 N434 1.842 . S
C1267 C290 1.856 . S
C1281 C326 1.395 . S
C1287 C450 1.399 . S
C1301 C482 2.072 . S
C1307 N370 2.054 . S
C1321 N50 1.049 . S
C1327 N237 1.066 . S
C1341 C130 1.471 . S
C1347 N82 1.460 . S
C1361 C166 2.320 . S
C1367 C102 2.319 . S
C1381 N13 0.970 . S
C1387 N210 0.990 . S
C1401 N493 1.065 . S
C1407 N301 1.043 . S
C1421 C390 1.474 . S
C1427 N338 1.447 . S
C1441 C422 2.319 . S
C1447 C358 2.320 . S
C1461 N461 0.990 . S
C1467 N269 0.954 . S
