# Generated by pormake.
# Topology uks, (4)-cn, num edge types: 1
# Building blocks:
#     Node 0, Type 0, BuildingBlock: NAWXER_clean_sbu_0, # of connection points: 4
#     Node 1, Type 0, BuildingBlock: NAWXER_clean_sbu_0, # of connection points: 4
#     Node 2, Type 0, BuildingBlock: NAWXER_clean_sbu_0, # of connection points: 4
#     Node 3, Type 0, BuildingBlock: NAWXER_clean_sbu_0, # of connection points: 4
#     Node 4, Type 0, BuildingBlock: NAWXER_clean_sbu_0, # of connection points: 4
#     Node 5, Type 0, BuildingBlock: NAWXER_clean_sbu_0, # of connection points: 4
#     Node 6, Type 0, BuildingBlock: NAWXER_clean_sbu_0, # of connection points: 4
#     Node 7, Type 0, BuildingBlock: NAWXER_clean_sbu_0, # of connection points: 4
#     Node 8, Type 0, BuildingBlock: NAWXER_clean_sbu_0, # of connection points: 4
#     Node 9, Type 0, BuildingBlock: NAWXER_clean_sbu_0, # of connection points: 4
#     Node 10, Type 0, BuildingBlock: NAWXER_clean_sbu_0, # of connection points: 4
#     Node 11, Type 0, BuildingBlock: NAWXER_clean_sbu_0, # of connection points: 4
#     Node 12, Type 0, BuildingBlock: NAWXER_clean_sbu_0, # of connection points: 4
#     Node 13, Type 0, BuildingBlock: NAWXER_clean_sbu_0, # of connection points: 4
#     Node 14, Type 0, BuildingBlock: NAWXER_clean_sbu_0, # of connection points: 4
#     Node 15, Type 0, BuildingBlock: NAWXER_clean_sbu_0, # of connection points: 4
#     Node 16, Type 0, BuildingBlock: NAWXER_clean_sbu_0, # of connection points: 4
#     Node 17, Type 0, BuildingBlock: NAWXER_clean_sbu_0, # of connection points: 4
#     Node 18, Type 0, BuildingBlock: NAWXER_clean_sbu_0, # of connection points: 4
#     Node 19, Type 0, BuildingBlock: NAWXER_clean_sbu_0, # of connection points: 4
#     Node 20, Type 0, BuildingBlock: NAWXER_clean_sbu_0, # of connection points: 4
#     Node 21, Type 0, BuildingBlock: NAWXER_clean_sbu_0, # of connection points: 4
#     Node 22, Type 0, BuildingBlock: NAWXER_clean_sbu_0, # of connection points: 4
#     Node 23, Type 0, BuildingBlock: NAWXER_clean_sbu_0, # of connection points: 4
#     Edge 24, Type (0, 0), BuildingBlock: MIFKUJ_clean_linker_0, # of connection points: 2
#     Edge 25, Type (0, 0), BuildingBlock: MIFKUJ_clean_linker_0, # of connection points: 2
#     Edge 26, Type (0, 0), BuildingBlock: MIFKUJ_clean_linker_0, # of connection points: 2
#     Edge 27, Type (0, 0), BuildingBlock: MIFKUJ_clean_linker_0, # of connection points: 2
#     Edge 28, Type (0, 0), BuildingBlock: MIFKUJ_clean_linker_0, # of connection points: 2
#     Edge 29, Type (0, 0), BuildingBlock: MIFKUJ_clean_linker_0, # of connection points: 2
#     Edge 30, Type (0, 0), BuildingBlock: MIFKUJ_clean_linker_0, # of connection points: 2
#     Edge 31, Type (0, 0), BuildingBlock: MIFKUJ_clean_linker_0, # of connection points: 2
#     Edge 32, Type (0, 0), BuildingBlock: MIFKUJ_clean_linker_0, # of connection points: 2
#     Edge 33, Type (0, 0), BuildingBlock: MIFKUJ_clean_linker_0, # of connection points: 2
#     Edge 34, Type (0, 0), BuildingBlock: MIFKUJ_clean_linker_0, # of connection points: 2
#     Edge 35, Type (0, 0), BuildingBlock: MIFKUJ_clean_linker_0, # of connection points: 2
#     Edge 36, Type (0, 0), BuildingBlock: MIFKUJ_clean_linker_0, # of connection points: 2
#     Edge 37, Type (0, 0), BuildingBlock: MIFKUJ_clean_linker_0, # of connection points: 2
#     Edge 38, Type (0, 0), BuildingBlock: MIFKUJ_clean_linker_0, # of connection points: 2
#     Edge 39, Type (0, 0), BuildingBlock: MIFKUJ_clean_linker_0, # of connection points: 2
#     Edge 40, Type (0, 0), BuildingBlock: MIFKUJ_clean_linker_0, # of connection points: 2
#     Edge 41, Type (0, 0), BuildingBlock: MIFKUJ_clean_linker_0, # of connection points: 2
#     Edge 42, Type (0, 0), BuildingBlock: MIFKUJ_clean_linker_0, # of connection points: 2
#     Edge 43, Type (0, 0), BuildingBlock: MIFKUJ_clean_linker_0, # of connection points: 2
#     Edge 44, Type (0, 0), BuildingBlock: MIFKUJ_clean_linker_0, # of connection points: 2
#     Edge 45, Type (0, 0), BuildingBlock: MIFKUJ_clean_linker_0, # of connection points: 2
#     Edge 46, Type (0, 0), BuildingBlock: MIFKUJ_clean_linker_0, # of connection points: 2
#     Edge 47, Type (0, 0), BuildingBlock: MIFKUJ_clean_linker_0, # of connection points: 2
#     Edge 48, Type (0, 0), BuildingBlock: MIFKUJ_clean_linker_0, # of connection points: 2
#     Edge 49, Type (0, 0), BuildingBlock: MIFKUJ_clean_linker_0, # of connection points: 2
#     Edge 50, Type (0, 0), BuildingBlock: MIFKUJ_clean_linker_0, # of connection points: 2
#     Edge 51, Type (0, 0), BuildingBlock: MIFKUJ_clean_linker_0, # of connection points: 2
#     Edge 52, Type (0, 0), BuildingBlock: MIFKUJ_clean_linker_0, # of connection points: 2
#     Edge 53, Type (0, 0), BuildingBlock: MIFKUJ_clean_linker_0, # of connection points: 2
#     Edge 54, Type (0, 0), BuildingBlock: MIFKUJ_clean_linker_0, # of connection points: 2
#     Edge 55, Type (0, 0), BuildingBlock: MIFKUJ_clean_linker_0, # of connection points: 2
#     Edge 56, Type (0, 0), BuildingBlock: MIFKUJ_clean_linker_0, # of connection points: 2
#     Edge 57, Type (0, 0), BuildingBlock: MIFKUJ_clean_linker_0, # of connection points: 2
#     Edge 58, Type (0, 0), BuildingBlock: MIFKUJ_clean_linker_0, # of connection points: 2
#     Edge 59, Type (0, 0), BuildingBlock: MIFKUJ_clean_linker_0, # of connection points: 2
#     Edge 60, Type (0, 0), BuildingBlock: MIFKUJ_clean_linker_0, # of connection points: 2
#     Edge 61, Type (0, 0), BuildingBlock: MIFKUJ_clean_linker_0, # of connection points: 2
#     Edge 62, Type (0, 0), BuildingBlock: MIFKUJ_clean_linker_0, # of connection points: 2
#     Edge 63, Type (0, 0), BuildingBlock: MIFKUJ_clean_linker_0, # of connection points: 2
#     Edge 64, Type (0, 0), BuildingBlock: MIFKUJ_clean_linker_0, # of connection points: 2
#     Edge 65, Type (0, 0), BuildingBlock: MIFKUJ_clean_linker_0, # of connection points: 2
#     Edge 66, Type (0, 0), BuildingBlock: MIFKUJ_clean_linker_0, # of connection points: 2
#     Edge 67, Type (0, 0), BuildingBlock: MIFKUJ_clean_linker_0, # of connection points: 2
#     Edge 68, Type (0, 0), BuildingBlock: MIFKUJ_clean_linker_0, # of connection points: 2
#     Edge 69, Type (0, 0), BuildingBlock: MIFKUJ_clean_linker_0, # of connection points: 2
#     Edge 70, Type (0, 0), BuildingBlock: MIFKUJ_clean_linker_0, # of connection points: 2
#     Edge 71, Type (0, 0), BuildingBlock: MIFKUJ_clean_linker_0, # of connection points: 2
# Relax obj value: 0.065
# Max RMSD: 0.064
# Mean RMSD: 0.064
data_MOF--net-uks--node1-NAWXER_clean_sbu_0--edge1-MIFKUJ_clean_linker_0
_symmetry_space_group_name_H-M    P1
_symmetry_Int_Tables_number       1
_symmetry_cell_setting            triclinic
loop_
_symmetry_equiv_pos_as_xyz
'x, y, z'
_cell_length_a     70.726549
_cell_length_b     70.760668
_cell_length_c     70.748995
_cell_angle_alpha  90.149126
_cell_angle_beta   90.035691
_cell_angle_gamma 90.022181
loop_
_atom_site_label
_atom_site_type_symbol
_atom_site_fract_x
_atom_site_fract_y
_atom_site_fract_z
_atom_type_partial_charge
C0 C 0.11049 0.35856 0.67332 0.0
C1 C 0.17553 0.36641 0.69579 0.0
O2 O 0.12567 0.35359 0.66509 0.0
Zn3 Zn 0.1433 0.36283 0.68389 0.0
O4 O 0.11142 0.36715 0.6893 0.0
Zn5 Zn 0.13296 0.37627 0.70878 0.0
O6 O 0.13053 0.40348 0.7096 0.0
O7 O 0.14104 0.39304 0.68213 0.0
O8 O 0.16306 0.37298 0.70718 0.0
O9 O 0.17034 0.35919 0.68014 0.0
O10 O 0.1378 0.34448 0.70746 0.0
O11 O 0.12732 0.36172 0.73128 0.0
C12 C 0.1363 0.40683 0.69293 0.0
C13 C 0.1319 0.34568 0.72456 0.0
C14 C 0.59475 0.63797 0.19495 0.0
C15 C 0.65937 0.6295 0.21853 0.0
O16 O 0.59962 0.63165 0.21105 0.0
Zn17 Zn 0.62692 0.63316 0.20739 0.0
O18 O 0.60751 0.6421 0.18281 0.0
Zn19 Zn 0.63751 0.64217 0.18048 0.0
O20 O 0.64241 0.62311 0.16094 0.0
O21 O 0.63295 0.61083 0.18795 0.0
O22 O 0.65855 0.63519 0.20134 0.0
O23 O 0.64413 0.62679 0.22772 0.0
O24 O 0.6319 0.66291 0.20486 0.0
O25 O 0.64233 0.66902 0.17611 0.0
C26 C 0.6388 0.60863 0.17096 0.0
C27 C 0.63762 0.67483 0.1925 0.0
C28 C 0.35238 0.12289 0.71265 0.0
C29 C 0.41914 0.13006 0.69537 0.0
O30 O 0.35882 0.12859 0.69686 0.0
Zn31 Zn 0.38545 0.12574 0.70316 0.0
O32 O 0.36392 0.11762 0.72561 0.0
Zn33 Zn 0.39396 0.11517 0.73006 0.0
O34 O 0.39715 0.13205 0.75153 0.0
O35 O 0.38841 0.14654 0.72533 0.0
O36 O 0.41685 0.12367 0.71215 0.0
O37 O 0.40477 0.13285 0.68495 0.0
O38 O 0.3878 0.09568 0.70457 0.0
O39 O 0.39749 0.08797 0.73311 0.0
C40 C 0.39272 0.14722 0.74296 0.0
C41 C 0.3924 0.08298 0.7166 0.0
C42 C 0.92021 0.89137 0.22405 0.0
C43 C 0.85751 0.9059 0.25057 0.0
O44 O 0.91688 0.8994 0.23982 0.0
Zn45 Zn 0.88924 0.89949 0.23812 0.0
O46 O 0.90634 0.88667 0.21338 0.0
Zn47 Zn 0.87624 0.88782 0.21316 0.0
O48 O 0.87077 0.9043 0.19193 0.0
O49 O 0.88381 0.91938 0.21597 0.0
O50 O 0.85717 0.89848 0.23404 0.0
O51 O 0.87329 0.90896 0.25872 0.0
O52 O 0.88228 0.87019 0.23955 0.0
O53 O 0.86938 0.8611 0.21261 0.0
C54 C 0.87679 0.91961 0.19925 0.0
C55 C 0.87476 0.85724 0.22934 0.0
C56 C 0.14408 0.09755 0.82912 0.0
C57 C 0.13745 0.1628 0.80757 0.0
O58 O 0.1372 0.0986 0.81236 0.0
Zn59 Zn 0.12952 0.12044 0.79259 0.0
O60 O 0.14767 0.11266 0.83818 0.0
Zn61 Zn 0.14005 0.13038 0.81888 0.0
O62 O 0.10981 0.12747 0.81755 0.0
O63 O 0.10255 0.11713 0.78906 0.0
O64 O 0.14288 0.15723 0.82375 0.0
O65 O 0.13226 0.15061 0.79515 0.0
O66 O 0.14637 0.11553 0.77154 0.0
O67 O 0.16102 0.12551 0.79725 0.0
C68 C 0.09729 0.12248 0.80539 0.0
C69 C 0.16163 0.11999 0.77996 0.0
C70 C 0.90639 0.64288 0.32535 0.0
C71 C 0.844 0.62576 0.30009 0.0
O72 O 0.90295 0.63332 0.3105 0.0
Zn73 Zn 0.87544 0.63333 0.31218 0.0
O74 O 0.89265 0.64821 0.33589 0.0
Zn75 Zn 0.86254 0.64629 0.33645 0.0
O76 O 0.85658 0.63073 0.35835 0.0
O77 O 0.86932 0.61453 0.33492 0.0
O78 O 0.84359 0.63439 0.31604 0.0
O79 O 0.85982 0.62238 0.29216 0.0
O80 O 0.86822 0.66252 0.3091 0.0
O81 O 0.85536 0.67281 0.33566 0.0
C82 C 0.86195 0.61499 0.35146 0.0
C83 C 0.86065 0.67588 0.31874 0.0
C84 C 0.41817 0.37235 0.81339 0.0
C85 C 0.35764 0.37862 0.78066 0.0
O86 O 0.404 0.3689 0.82415 0.0
Zn87 Zn 0.37375 0.36891 0.82226 0.0
O88 O 0.41528 0.3777 0.7965 0.0
Zn89 Zn 0.38793 0.37658 0.79693 0.0
O90 O 0.38003 0.40001 0.81461 0.0
O91 O 0.36586 0.38852 0.83982 0.0
O92 O 0.37404 0.38153 0.7739 0.0
O93 O 0.35585 0.37405 0.79812 0.0
O94 O 0.36831 0.34257 0.82787 0.0
O95 O 0.38253 0.34685 0.80041 0.0
C96 C 0.37165 0.40271 0.83047 0.0
C97 C 0.3751 0.33577 0.81266 0.0
C98 C 0.59635 0.87936 0.31522 0.0
C99 C 0.66324 0.89198 0.30202 0.0
O100 O 0.59892 0.8864 0.29871 0.0
Zn101 Zn 0.62254 0.89509 0.28145 0.0
O102 O 0.61059 0.87605 0.32565 0.0
Zn103 Zn 0.63 0.885 0.30856 0.0
O104 O 0.62451 0.91508 0.30684 0.0
O105 O 0.61734 0.92161 0.27721 0.0
O106 O 0.65621 0.88474 0.31688 0.0
O107 O 0.6523 0.89619 0.28818 0.0
O108 O 0.62175 0.87776 0.26007 0.0
O109 O 0.63004 0.86382 0.28659 0.0
C110 C 0.62001 0.92718 0.29411 0.0
C111 C 0.62669 0.86288 0.26878 0.0
C112 C 0.70256 0.14029 0.33321 0.0
C113 C 0.67674 0.14519 0.39732 0.0
O114 O 0.71109 0.13594 0.34844 0.0
Zn115 Zn 0.69023 0.14166 0.36561 0.0
O116 O 0.68555 0.14642 0.33396 0.0
Zn117 Zn 0.66406 0.15228 0.35418 0.0
O118 O 0.66079 0.17945 0.35044 0.0
O119 O 0.68809 0.17182 0.36365 0.0
O120 O 0.66529 0.15068 0.38439 0.0
O121 O 0.69262 0.13806 0.39277 0.0
O122 O 0.67048 0.12048 0.35765 0.0
O123 O 0.64454 0.13388 0.34688 0.0
C124 C 0.67649 0.18442 0.35776 0.0
C125 C 0.65387 0.11897 0.3506 0.0
C126 C 0.87867 0.18642 0.90373 0.0
C127 C 0.88815 0.22016 0.84431 0.0
O128 O 0.88649 0.20242 0.90134 0.0
Zn129 Zn 0.88528 0.20294 0.87401 0.0
O130 O 0.87379 0.17663 0.88923 0.0
Zn131 Zn 0.874 0.1795 0.85894 0.0
O132 O 0.89119 0.16024 0.84965 0.0
O133 O 0.906 0.18276 0.86532 0.0
O134 O 0.88093 0.20371 0.84193 0.0
O135 O 0.89323 0.22555 0.86069 0.0
O136 O 0.85513 0.20321 0.86915 0.0
O137 O 0.84723 0.17716 0.85371 0.0
C138 C 0.90648 0.16725 0.85595 0.0
C139 C 0.84247 0.19273 0.86142 0.0
C140 C 0.81657 0.37755 0.40726 0.0
C141 C 0.80301 0.3898 0.34049 0.0
O142 O 0.80048 0.38555 0.4049 0.0
Zn143 Zn 0.78358 0.39534 0.38166 0.0
O144 O 0.82661 0.37371 0.39289 0.0
Zn145 Zn 0.80982 0.38351 0.37357 0.0
O146 O 0.80996 0.41371 0.37799 0.0
O147 O 0.78129 0.42214 0.3869 0.0
O148 O 0.81764 0.38202 0.34746 0.0
O149 O 0.78964 0.39524 0.35153 0.0
O150 O 0.76114 0.37955 0.38313 0.0
O151 O 0.7864 0.36408 0.37343 0.0
C152 C 0.79823 0.42664 0.38293 0.0
C153 C 0.76868 0.36432 0.37729 0.0
C154 C 0.64511 0.31893 0.83104 0.0
C155 C 0.65827 0.33953 0.89589 0.0
O156 O 0.63786 0.30809 0.84361 0.0
Zn157 Zn 0.63653 0.30611 0.87401 0.0
O158 O 0.65448 0.33345 0.8361 0.0
Zn159 Zn 0.6509 0.33009 0.86312 0.0
O160 O 0.66795 0.3053 0.86758 0.0
O161 O 0.64951 0.28236 0.87797 0.0
O162 O 0.66154 0.34845 0.88068 0.0
O163 O 0.6492 0.32384 0.89521 0.0
O164 O 0.6096 0.30747 0.87869 0.0
O165 O 0.62081 0.33336 0.86555 0.0
C166 C 0.6658 0.28814 0.87303 0.0
C167 C 0.60672 0.32368 0.87158 0.0
C168 C 0.74794 0.39868 0.14617 0.0
C169 C 0.7247 0.39357 0.08078 0.0
O170 O 0.75708 0.40334 0.13138 0.0
Zn171 Zn 0.7371 0.3971 0.1133 0.0
O172 O 0.73089 0.3927 0.14461 0.0
Zn173 Zn 0.71027 0.38667 0.12318 0.0
O174 O 0.70696 0.35941 0.12695 0.0
O175 O 0.73556 0.36728 0.11738 0.0
O176 O 0.71249 0.38886 0.09327 0.0
O177 O 0.74104 0.39905 0.08598 0.0
O178 O 0.71662 0.41846 0.11964 0.0
O179 O 0.69022 0.4047 0.12898 0.0
C180 C 0.72378 0.3546 0.12266 0.0
C181 C 0.69949 0.41971 0.12547 0.0
C182 C 0.63674 0.22912 0.64951 0.0
C183 C 0.63302 0.19687 0.58845 0.0
O184 O 0.6317 0.23611 0.63375 0.0
Zn185 Zn 0.63392 0.21313 0.61904 0.0
O186 O 0.6409 0.21149 0.65052 0.0
Zn187 Zn 0.64228 0.18736 0.6319 0.0
O188 O 0.6688 0.18055 0.63392 0.0
O189 O 0.66398 0.20788 0.61974 0.0
O190 O 0.63797 0.18584 0.60192 0.0
O191 O 0.62896 0.21399 0.59214 0.0
O192 O 0.61102 0.19655 0.62997 0.0
O193 O 0.62304 0.17038 0.64177 0.0
C194 C 0.67539 0.1951 0.62569 0.0
C195 C 0.60871 0.1806 0.63821 0.0
C196 C 0.80228 0.16754 0.134 0.0
C197 C 0.83127 0.10453 0.13227 0.0
O198 O 0.81877 0.1633 0.13985 0.0
Zn199 Zn 0.81818 0.13674 0.13229 0.0
O200 O 0.79218 0.15497 0.12572 0.0
Zn201 Zn 0.79373 0.12582 0.11792 0.0
O202 O 0.77229 0.11619 0.13223 0.0
O203 O 0.79617 0.12597 0.14996 0.0
O204 O 0.81502 0.10533 0.12427 0.0
O205 O 0.83874 0.11961 0.1387 0.0
O206 O 0.81938 0.13875 0.10225 0.0
O207 O 0.7933 0.1264 0.0904 0.0
C208 C 0.77965 0.11868 0.14848 0.0
C209 C 0.80918 0.13445 0.08789 0.0
C210 C 0.88418 0.30131 0.66009 0.0
C211 C 0.87402 0.32102 0.59448 0.0
O212 O 0.89078 0.28954 0.64795 0.0
Zn213 Zn 0.89206 0.28638 0.6176 0.0
O214 O 0.87566 0.31611 0.65448 0.0
Zn215 Zn 0.87889 0.31148 0.62763 0.0
O216 O 0.86031 0.28791 0.6239 0.0
O217 O 0.87693 0.26377 0.61334 0.0
O218 O 0.86932 0.3297 0.6095 0.0
O219 O 0.88254 0.30508 0.59574 0.0
O220 O 0.91907 0.28547 0.61355 0.0
O221 O 0.90924 0.31291 0.62473 0.0
C222 C 0.86114 0.27062 0.61853 0.0
C223 C 0.9228 0.30208 0.61938 0.0
C224 C 0.34489 0.72042 0.13331 0.0
C225 C 0.40446 0.68692 0.1426 0.0
O226 O 0.36146 0.72647 0.12986 0.0
Zn227 Zn 0.3746 0.70357 0.13681 0.0
O228 O 0.3426 0.70355 0.13954 0.0
Zn229 Zn 0.35986 0.67957 0.14706 0.0
O230 O 0.35427 0.67683 0.1738 0.0
O231 O 0.36938 0.70321 0.16679 0.0
O232 O 0.39011 0.6769 0.14727 0.0
O233 O 0.40188 0.70313 0.13538 0.0
O234 O 0.36556 0.6841 0.11525 0.0
O235 O 0.35107 0.66047 0.12939 0.0
C236 C 0.36161 0.6924 0.17905 0.0
C237 C 0.35661 0.66836 0.11425 0.0
C238 C 0.37883 0.81169 0.42127 0.0
C239 C 0.38184 0.78009 0.35966 0.0
O240 O 0.37457 0.82264 0.4075 0.0
Zn241 Zn 0.37329 0.82138 0.37723 0.0
O242 O 0.3845 0.795 0.41777 0.0
Zn243 Zn 0.38212 0.79585 0.39044 0.0
O244 O 0.40495 0.81373 0.38151 0.0
O245 O 0.39242 0.83907 0.36854 0.0
O246 O 0.3862 0.77304 0.37561 0.0
O247 O 0.37713 0.79757 0.35866 0.0
O248 O 0.3466 0.82676 0.37308 0.0
O249 O 0.35208 0.79926 0.38672 0.0
C250 C 0.40701 0.82972 0.37325 0.0
C251 C 0.34038 0.81137 0.38 0.0
C252 C 0.22739 0.84807 0.88707 0.0
C253 C 0.19665 0.91004 0.88656 0.0
O254 O 0.23423 0.86357 0.89311 0.0
Zn255 Zn 0.21187 0.8791 0.88857 0.0
O256 O 0.21023 0.84751 0.88131 0.0
Zn257 Zn 0.18679 0.86625 0.87802 0.0
O258 O 0.18227 0.86332 0.85116 0.0
O259 O 0.20897 0.87817 0.85811 0.0
O260 O 0.18574 0.89661 0.881 0.0
O261 O 0.21307 0.90612 0.89276 0.0
O262 O 0.19266 0.86995 0.91007 0.0
O263 O 0.16824 0.85676 0.89592 0.0
C264 C 0.19719 0.87181 0.84583 0.0
C265 C 0.17662 0.86155 0.91107 0.0
C266 C 0.1552 0.73181 0.38835 0.0
C267 C 0.09316 0.7013 0.38237 0.0
O268 O 0.13921 0.73922 0.39199 0.0
Zn269 Zn 0.12399 0.71677 0.38709 0.0
O270 O 0.15604 0.71436 0.38348 0.0
Zn271 Zn 0.13732 0.691 0.37848 0.0
O272 O 0.14216 0.68589 0.35174 0.0
O273 O 0.12846 0.71337 0.35733 0.0
O274 O 0.10703 0.69021 0.37872 0.0
O275 O 0.09653 0.71798 0.38821 0.0
O276 O 0.13146 0.69841 0.40994 0.0
O277 O 0.14486 0.67301 0.39784 0.0
C278 C 0.13533 0.70136 0.34561 0.0
C279 C 0.13939 0.68228 0.41225 0.0
C280 C 0.30007 0.62098 0.92477 0.0
C281 C 0.27239 0.62218 0.86112 0.0
O282 O 0.312 0.6253 0.91181 0.0
Zn283 Zn 0.31266 0.6281 0.8815 0.0
O284 O 0.28326 0.61651 0.92015 0.0
Zn285 Zn 0.286 0.62016 0.89309 0.0
O286 O 0.30362 0.59682 0.88489 0.0
O287 O 0.33003 0.6085 0.87325 0.0
O288 O 0.26406 0.61782 0.87643 0.0
O289 O 0.2901 0.62599 0.86146 0.0
O290 O 0.31949 0.65458 0.87866 0.0
O291 O 0.29156 0.65007 0.89187 0.0
C292 C 0.31997 0.59424 0.87748 0.0
C293 C 0.30457 0.66131 0.88613 0.0
C294 C 0.10115 0.83366 0.15126 0.0
C295 C 0.16461 0.80899 0.13956 0.0
O296 O 0.10074 0.81757 0.14285 0.0
Zn297 Zn 0.12103 0.79756 0.13188 0.0
O298 O 0.11699 0.84149 0.15449 0.0
Zn299 Zn 0.13309 0.82186 0.14441 0.0
O300 O 0.12984 0.82342 0.11412 0.0
O301 O 0.11637 0.79687 0.10493 0.0
O302 O 0.16019 0.82471 0.1471 0.0
O303 O 0.15152 0.798 0.13344 0.0
O304 O 0.11571 0.77507 0.14645 0.0
O305 O 0.12759 0.79854 0.16334 0.0
C306 C 0.12341 0.81285 0.10081 0.0
C307 C 0.12116 0.7816 0.16231 0.0
C308 C 0.20261 0.6349 0.67247 0.0
C309 C 0.18657 0.63596 0.60493 0.0
O310 O 0.18757 0.6414 0.66506 0.0
Zn311 Zn 0.19377 0.63494 0.63893 0.0
O312 O 0.21501 0.62692 0.66194 0.0
Zn313 Zn 0.21915 0.62017 0.63265 0.0
O314 O 0.24253 0.63347 0.62787 0.0
O315 O 0.2183 0.6523 0.63371 0.0
O316 O 0.20219 0.62736 0.60832 0.0
O317 O 0.17699 0.64252 0.61866 0.0
O318 O 0.19124 0.60473 0.63923 0.0
O319 O 0.21936 0.59284 0.63294 0.0
C320 C 0.23588 0.65005 0.6298 0.0
C321 C 0.20204 0.59035 0.63696 0.0
C322 C 0.32095 0.83083 0.65116 0.0
C323 C 0.34711 0.8945 0.65853 0.0
O324 O 0.31064 0.84374 0.64369 0.0
Zn325 Zn 0.31098 0.874 0.64008 0.0
O326 O 0.33624 0.83541 0.65947 0.0
Zn327 Zn 0.33435 0.86233 0.65481 0.0
O328 O 0.3105 0.86994 0.67216 0.0
O329 O 0.28832 0.88151 0.65357 0.0
O330 O 0.35416 0.87895 0.66405 0.0
O331 O 0.33138 0.89439 0.6495 0.0
O332 O 0.31163 0.87631 0.61281 0.0
O333 O 0.33718 0.86281 0.62449 0.0
C334 C 0.29392 0.87701 0.67004 0.0
C335 C 0.32751 0.86832 0.61017 0.0
H336 H 0.13741 0.19368 0.83132 0.0
H337 H 0.13698 0.22722 0.82213 0.0
H338 H 0.13753 0.21096 0.76336 0.0
H339 H 0.13761 0.17773 0.7723 0.0
H340 H 0.1648 0.23951 0.77405 0.0
H341 H 0.09794 0.22352 0.78077 0.0
H342 H 0.07022 0.21266 0.79888 0.0
H343 H 0.07827 0.25777 0.8388 0.0
H344 H 0.10622 0.26873 0.82104 0.0
H345 H 0.1365 0.3094 0.71273 0.0
H346 H 0.13802 0.28096 0.73185 0.0
H347 H 0.12783 0.31389 0.7822 0.0
H348 H 0.126 0.34272 0.76295 0.0
H349 H 0.10827 0.28019 0.78257 0.0
H350 H 0.17166 0.29953 0.77359 0.0
H351 H 0.1996 0.31086 0.75615 0.0
H352 H 0.19945 0.26035 0.7224 0.0
H353 H 0.17131 0.24883 0.73941 0.0
C354 C 0.13746 0.19731 0.81646 0.0
C355 C 0.13749 0.18308 0.80253 0.0
C356 C 0.13717 0.21643 0.81126 0.0
C357 C 0.13722 0.2215 0.79208 0.0
C358 C 0.13751 0.20731 0.77823 0.0
C359 C 0.13748 0.18832 0.78338 0.0
C360 C 0.13693 0.24153 0.78606 0.0
C361 C 0.15246 0.24844 0.7759 0.0
C362 C 0.12111 0.25335 0.78912 0.0
C363 C 0.10431 0.24678 0.79974 0.0
C364 C 0.09391 0.231 0.79352 0.0
C365 C 0.07814 0.22485 0.80369 0.0
C366 C 0.07253 0.23447 0.82003 0.0
C367 C 0.08266 0.2503 0.82618 0.0
C368 C 0.09846 0.25649 0.81606 0.0
C369 C 0.13448 0.31069 0.72786 0.0
C370 C 0.13131 0.32839 0.73633 0.0
C371 C 0.13543 0.29437 0.73879 0.0
C372 C 0.13345 0.29535 0.75849 0.0
C373 C 0.12954 0.31286 0.76702 0.0
C374 C 0.12851 0.3293 0.75601 0.0
C375 C 0.13588 0.27793 0.76989 0.0
C376 C 0.12081 0.27149 0.78107 0.0
C377 C 0.15226 0.26657 0.76798 0.0
C378 C 0.16929 0.27335 0.75774 0.0
C379 C 0.1775 0.29088 0.76237 0.0
C380 C 0.19338 0.29734 0.75256 0.0
C381 C 0.20128 0.28634 0.73818 0.0
C382 C 0.19332 0.26885 0.73356 0.0
C383 C 0.17741 0.26234 0.7433 0.0
H384 H 0.21359 0.29134 0.73064 0.0
H385 H 0.06031 0.2297 0.82788 0.0
H386 H 0.66769 0.62199 0.25573 0.0
H387 H 0.6991 0.61729 0.2697 0.0
H388 H 0.7247 0.62426 0.21485 0.0
H389 H 0.69355 0.62889 0.20082 0.0
H390 H 0.741 0.59505 0.23488 0.0
H391 H 0.72412 0.66044 0.24464 0.0
H392 H 0.70381 0.68652 0.25575 0.0
H393 H 0.70797 0.66603 0.31268 0.0
H394 H 0.7281 0.63966 0.30185 0.0
H395 H 0.8358 0.62066 0.26237 0.0
H396 H 0.80418 0.61697 0.24839 0.0
H397 H 0.77975 0.61505 0.30423 0.0
H398 H 0.81098 0.61916 0.31812 0.0
H399 H 0.76243 0.64044 0.28394 0.0
H400 H 0.78073 0.57589 0.27483 0.0
H401 H 0.80082 0.54959 0.26387 0.0
H402 H 0.79431 0.56799 0.20645 0.0
H403 H 0.77427 0.5945 0.21707 0.0
C404 C 0.68 0.62242 0.24665 0.0
C405 C 0.67812 0.62599 0.2272 0.0
C406 C 0.69793 0.61974 0.25463 0.0
C407 C 0.71423 0.62055 0.2433 0.0
C408 C 0.71232 0.62355 0.22383 0.0
C409 C 0.69448 0.62633 0.21588 0.0
C410 C 0.73338 0.61923 0.25179 0.0
C411 C 0.74578 0.60503 0.24552 0.0
C412 C 0.73947 0.63207 0.26587 0.0
C413 C 0.72743 0.64796 0.2724 0.0
C414 C 0.72057 0.66141 0.2595 0.0
C415 C 0.70912 0.67626 0.26575 0.0
C416 C 0.70455 0.6779 0.2849 0.0
C417 C 0.71149 0.66472 0.29784 0.0
C418 C 0.72292 0.64982 0.29166 0.0
C419 C 0.82369 0.61908 0.2716 0.0
C420 C 0.8258 0.62045 0.2913 0.0
C421 C 0.80564 0.61694 0.26363 0.0
C422 C 0.78955 0.61583 0.27528 0.0
C423 C 0.79189 0.61609 0.29495 0.0
C424 C 0.80977 0.61844 0.30286 0.0
C425 C 0.77015 0.61612 0.26721 0.0
C426 C 0.75768 0.63028 0.27345 0.0
C427 C 0.76404 0.60318 0.25319 0.0
C428 C 0.77613 0.58729 0.24677 0.0
C429 C 0.7837 0.57442 0.25988 0.0
C430 C 0.79505 0.55946 0.25373 0.0
C431 C 0.7989 0.55717 0.23449 0.0
C432 C 0.79134 0.5698 0.22135 0.0
C433 C 0.77995 0.58477 0.22743 0.0
H434 H 0.8077 0.54557 0.22976 0.0
H435 H 0.69569 0.6894 0.28971 0.0
H436 H 0.37638 0.3064 0.83796 0.0
H437 H 0.37833 0.27243 0.8305 0.0
H438 H 0.3745 0.28512 0.77105 0.0
H439 H 0.37311 0.31887 0.77832 0.0
H440 H 0.35021 0.25403 0.78505 0.0
H441 H 0.41492 0.2777 0.78554 0.0
H442 H 0.44218 0.29339 0.80062 0.0
H443 H 0.4424 0.25154 0.84446 0.0
H444 H 0.41487 0.23581 0.8298 0.0
H445 H 0.38335 0.18143 0.72814 0.0
H446 H 0.37931 0.21135 0.74461 0.0
H447 H 0.39504 0.18503 0.79722 0.0
H448 H 0.39926 0.15471 0.7807 0.0
H449 H 0.4114 0.22056 0.79276 0.0
H450 H 0.35007 0.19398 0.79026 0.0
H451 H 0.32243 0.1781 0.77612 0.0
H452 H 0.31487 0.22454 0.73792 0.0
H453 H 0.34268 0.24059 0.75163 0.0
C454 C 0.37578 0.30187 0.82334 0.0
C455 C 0.37466 0.31524 0.80871 0.0
C456 C 0.37695 0.28253 0.8191 0.0
C457 C 0.37658 0.27633 0.80023 0.0
C458 C 0.37478 0.28963 0.7857 0.0
C459 C 0.37406 0.3089 0.78988 0.0
C460 C 0.37878 0.25608 0.79528 0.0
C461 C 0.36357 0.24668 0.78671 0.0
C462 C 0.39605 0.24638 0.79801 0.0
C463 C 0.41268 0.25574 0.80673 0.0
C464 C 0.42065 0.27196 0.7985 0.0
C465 C 0.43618 0.28084 0.80695 0.0
C466 C 0.44399 0.27351 0.82352 0.0
C467 C 0.43631 0.25724 0.83165 0.0
C468 C 0.42074 0.24834 0.82328 0.0
C469 C 0.38606 0.1819 0.74321 0.0
C470 C 0.39152 0.16557 0.75311 0.0
C471 C 0.38365 0.19907 0.75263 0.0
C472 C 0.38656 0.20037 0.7722 0.0
C473 C 0.39262 0.1843 0.78212 0.0
C474 C 0.395 0.167 0.77266 0.0
C475 C 0.38295 0.21862 0.78202 0.0
C476 C 0.39789 0.22769 0.79146 0.0
C477 C 0.36533 0.22798 0.78026 0.0
C478 C 0.34855 0.21845 0.77192 0.0
C479 C 0.34261 0.20075 0.77875 0.0
C480 C 0.3269 0.19173 0.77082 0.0
C481 C 0.31691 0.2003 0.75613 0.0
C482 C 0.32263 0.21792 0.74931 0.0
C483 C 0.33835 0.227 0.75718 0.0
H484 H 0.30471 0.19331 0.75008 0.0
H485 H 0.45602 0.2804 0.83003 0.0
H486 H 0.68133 0.91136 0.27416 0.0
H487 H 0.71519 0.91589 0.26994 0.0
H488 H 0.72606 0.88554 0.32158 0.0
H489 H 0.69189 0.8811 0.32611 0.0
H490 H 0.75043 0.91763 0.31607 0.0
H491 H 0.72946 0.86257 0.28242 0.0
H492 H 0.70778 0.84564 0.2611 0.0
H493 H 0.72397 0.8819 0.21527 0.0
H494 H 0.74529 0.89952 0.23656 0.0
H495 H 0.84769 0.89974 0.2876 0.0
H496 H 0.81541 0.89931 0.30048 0.0
H497 H 0.79397 0.91985 0.24722 0.0
H498 H 0.82589 0.91955 0.23425 0.0
H499 H 0.77549 0.89008 0.25661 0.0
H500 H 0.79435 0.94669 0.28978 0.0
H501 H 0.81426 0.96583 0.31112 0.0
H502 H 0.80213 0.928 0.3569 0.0
H503 H 0.78233 0.90849 0.33575 0.0
C504 C 0.69084 0.90571 0.28474 0.0
C505 C 0.68387 0.8956 0.30035 0.0
C506 C 0.71023 0.90839 0.28232 0.0
C507 C 0.72318 0.90086 0.29532 0.0
C508 C 0.71631 0.89147 0.31138 0.0
C509 C 0.6968 0.88884 0.31388 0.0
C510 C 0.74376 0.90155 0.29107 0.0
C511 C 0.75603 0.91139 0.30322 0.0
C512 C 0.751 0.89359 0.2742 0.0
C513 C 0.73887 0.88245 0.26114 0.0
C514 C 0.72834 0.86699 0.26782 0.0
C515 C 0.71609 0.85728 0.25573 0.0
C516 C 0.71449 0.86266 0.23681 0.0
C517 C 0.72521 0.87774 0.22993 0.0
C518 C 0.73736 0.88762 0.24202 0.0
C519 C 0.8361 0.90464 0.27889 0.0
C520 C 0.83923 0.90965 0.25994 0.0
C521 C 0.81765 0.90437 0.28623 0.0
C522 C 0.80215 0.90946 0.27481 0.0
C523 C 0.80559 0.91565 0.25628 0.0
C524 C 0.82386 0.9156 0.24889 0.0
C525 C 0.78224 0.9068 0.28123 0.0
C526 C 0.77005 0.89633 0.26952 0.0
C527 C 0.77516 0.9143 0.29842 0.0
C528 C 0.78703 0.92602 0.31113 0.0
C529 C 0.79606 0.94237 0.30436 0.0
C530 C 0.8073 0.9533 0.31642 0.0
C531 C 0.80951 0.9481 0.33534 0.0
C532 C 0.80044 0.93199 0.34224 0.0
C533 C 0.78919 0.921 0.33022 0.0
H534 H 0.81822 0.95658 0.34466 0.0
H535 H 0.70494 0.85519 0.22746 0.0
H536 H 0.74224 0.12486 0.15595 0.0
H537 H 0.72754 0.12534 0.18744 0.0
H538 H 0.77926 0.10437 0.21195 0.0
H539 H 0.79405 0.10423 0.18072 0.0
H540 H 0.74468 0.0896 0.22887 0.0
H541 H 0.77521 0.14836 0.21082 0.0
H542 H 0.7804 0.17509 0.18913 0.0
H543 H 0.72219 0.19134 0.19477 0.0
H544 H 0.71655 0.16442 0.21617 0.0
H545 H 0.73563 0.12168 0.32421 0.0
H546 H 0.74817 0.11552 0.2924 0.0
H547 H 0.70155 0.14634 0.26806 0.0
H548 H 0.68921 0.15275 0.29947 0.0
H549 H 0.73311 0.15534 0.25062 0.0
H550 H 0.70178 0.0982 0.26863 0.0
H551 H 0.69466 0.07058 0.28858 0.0
H552 H 0.75172 0.05088 0.28216 0.0
H553 H 0.75925 0.07854 0.26236 0.0
C554 C 0.75021 0.11977 0.16799 0.0
C555 C 0.76926 0.11459 0.16601 0.0
C556 C 0.74186 0.12013 0.18593 0.0
C557 C 0.75242 0.11505 0.20198 0.0
C558 C 0.7709 0.10832 0.19974 0.0
C559 C 0.77933 0.1083 0.18192 0.0
C560 C 0.74524 0.11901 0.22123 0.0
C561 C 0.74225 0.10396 0.23373 0.0
C562 C 0.74189 0.13775 0.22739 0.0
C563 C 0.7454 0.15424 0.21493 0.0
C564 C 0.76348 0.15754 0.20732 0.0
C565 C 0.76651 0.17273 0.19508 0.0
C566 C 0.75162 0.18487 0.19053 0.0
C567 C 0.7337 0.18189 0.19827 0.0
C568 C 0.73057 0.16667 0.21045 0.0
C569 C 0.7282 0.12729 0.31207 0.0
C570 C 0.71138 0.13762 0.31439 0.0
C571 C 0.73528 0.12365 0.29391 0.0
C572 C 0.72565 0.13027 0.27782 0.0
C573 C 0.70921 0.14106 0.28021 0.0
C574 C 0.70215 0.14466 0.29824 0.0
C575 C 0.7324 0.1259 0.25842 0.0
C576 C 0.73544 0.14094 0.24585 0.0
C577 C 0.73557 0.10713 0.25217 0.0
C578 C 0.73114 0.09056 0.26419 0.0
C579 C 0.71286 0.08808 0.27162 0.0
C580 C 0.70874 0.07239 0.28287 0.0
C581 C 0.72274 0.05901 0.28668 0.0
C582 C 0.7409 0.06127 0.27923 0.0
C583 C 0.7451 0.07695 0.26798 0.0
H584 H 0.71952 0.04686 0.29537 0.0
H585 H 0.75399 0.19662 0.18104 0.0
H586 H 0.85911 0.30832 0.68868 0.0
H587 H 0.86146 0.29774 0.72154 0.0
H588 H 0.91701 0.27505 0.71019 0.0
H589 H 0.9141 0.28455 0.67716 0.0
H590 H 0.89925 0.25049 0.72815 0.0
H591 H 0.9076 0.31669 0.73877 0.0
H592 H 0.90009 0.35065 0.7367 0.0
H593 H 0.84758 0.34119 0.76561 0.0
H594 H 0.85466 0.30712 0.76764 0.0
H595 H 0.91978 0.23021 0.82487 0.0
H596 H 0.92098 0.24756 0.79476 0.0
H597 H 0.86053 0.25538 0.79686 0.0
H598 H 0.85929 0.23768 0.82664 0.0
H599 H 0.88225 0.28843 0.78467 0.0
H600 H 0.87543 0.2213 0.77313 0.0
H601 H 0.88481 0.18785 0.77556 0.0
H602 H 0.9374 0.2002 0.74793 0.0
H603 H 0.92863 0.23386 0.74594 0.0
C604 C 0.87189 0.30129 0.69334 0.0
C605 C 0.88639 0.29718 0.68042 0.0
C606 C 0.8733 0.29532 0.71216 0.0
C607 C 0.88951 0.2857 0.71854 0.0
C608 C 0.90429 0.2823 0.7057 0.0
C609 C 0.90266 0.28779 0.68682 0.0
C610 C 0.89063 0.278 0.73815 0.0
C611 C 0.8959 0.25899 0.74048 0.0
C612 C 0.88589 0.28884 0.75436 0.0
C613 C 0.8816 0.30932 0.75321 0.0
C614 C 0.89439 0.32183 0.74457 0.0
C615 C 0.89022 0.3411 0.74342 0.0
C616 C 0.87334 0.34807 0.75097 0.0
C617 C 0.86063 0.33577 0.75974 0.0
C618 C 0.86473 0.31649 0.76092 0.0
C619 C 0.90687 0.23602 0.81903 0.0
C620 C 0.88947 0.23287 0.82799 0.0
C621 C 0.90754 0.24583 0.80187 0.0
C622 C 0.89083 0.25273 0.79361 0.0
C623 C 0.87357 0.25028 0.80306 0.0
C624 C 0.87286 0.24019 0.82 0.0
C625 C 0.89105 0.26117 0.77444 0.0
C626 C 0.88587 0.28018 0.77225 0.0
C627 C 0.8962 0.25045 0.75836 0.0
C628 C 0.90149 0.23019 0.75967 0.0
C629 C 0.88912 0.21696 0.76784 0.0
C630 C 0.89433 0.19794 0.76913 0.0
C631 C 0.91175 0.19192 0.76202 0.0
C632 C 0.92396 0.20489 0.75353 0.0
C633 C 0.91891 0.22396 0.75238 0.0
H634 H 0.91575 0.1772 0.76301 0.0
H635 H 0.87014 0.36299 0.75007 0.0
H636 H 0.77579 0.40969 0.3218 0.0
H637 H 0.77121 0.41251 0.28775 0.0
H638 H 0.821 0.3787 0.27801 0.0
H639 H 0.82568 0.37573 0.31223 0.0
H640 H 0.79233 0.4266 0.25864 0.0
H641 H 0.8107 0.34973 0.2396 0.0
H642 H 0.81182 0.31824 0.25451 0.0
H643 H 0.76847 0.33495 0.29361 0.0
H644 H 0.76691 0.36641 0.27876 0.0
H645 H 0.7823 0.4139 0.15712 0.0
H646 H 0.79624 0.4135 0.18902 0.0
H647 H 0.7474 0.3836 0.20985 0.0
H648 H 0.7335 0.38396 0.17848 0.0
H649 H 0.7801 0.36775 0.22236 0.0
H650 H 0.75156 0.42975 0.21747 0.0
H651 H 0.74703 0.46131 0.20348 0.0
H652 H 0.80542 0.47454 0.21365 0.0
H653 H 0.81035 0.44292 0.22748 0.0
C654 C 0.78586 0.40293 0.31246 0.0
C655 C 0.80103 0.39235 0.31977 0.0
C656 C 0.78329 0.40467 0.29297 0.0
C657 C 0.7957 0.39575 0.28033 0.0
C658 C 0.81118 0.3856 0.28752 0.0
C659 C 0.81383 0.38393 0.30708 0.0
C660 C 0.7916 0.39618 0.25973 0.0
C661 C 0.7899 0.41372 0.25064 0.0
C662 C 0.78823 0.37941 0.24931 0.0
C663 C 0.78889 0.36048 0.25823 0.0
C664 C 0.80139 0.34665 0.25136 0.0
C665 C 0.80209 0.32882 0.25979 0.0
C666 C 0.79028 0.32463 0.27505 0.0
C667 C 0.77767 0.33824 0.28184 0.0
C668 C 0.77689 0.35608 0.27344 0.0
C669 C 0.77457 0.40727 0.16853 0.0
C670 C 0.75675 0.39903 0.16522 0.0
C671 C 0.78253 0.40706 0.18672 0.0
C672 C 0.77286 0.39848 0.2018 0.0
C673 C 0.75518 0.39019 0.19843 0.0
C674 C 0.74719 0.39054 0.18044 0.0
C675 C 0.78069 0.39817 0.22129 0.0
C676 C 0.78306 0.38062 0.2302 0.0
C677 C 0.78432 0.41494 0.23161 0.0
C678 C 0.78138 0.4339 0.22327 0.0
C679 C 0.76347 0.43932 0.21655 0.0
C680 C 0.76082 0.45723 0.20869 0.0
C681 C 0.77594 0.4699 0.20761 0.0
C682 C 0.79373 0.4647 0.21444 0.0
C683 C 0.79646 0.44679 0.2223 0.0
H684 H 0.77386 0.48376 0.20153 0.0
H685 H 0.79086 0.31082 0.28157 0.0
H686 H 0.65639 0.22173 0.68169 0.0
H687 H 0.65708 0.24011 0.71086 0.0
H688 H 0.61982 0.28141 0.68595 0.0
H689 H 0.61967 0.26333 0.6563 0.0
H690 H 0.64474 0.29886 0.70719 0.0
H691 H 0.60295 0.24704 0.71632 0.0
H692 H 0.59269 0.21373 0.71595 0.0
H693 H 0.63645 0.19962 0.75556 0.0
H694 H 0.64715 0.23281 0.75597 0.0
H695 H 0.61521 0.30099 0.81518 0.0
H696 H 0.61204 0.28959 0.78278 0.0
H697 H 0.66683 0.31289 0.76931 0.0
H698 H 0.66954 0.32522 0.80163 0.0
H699 H 0.63013 0.26435 0.76634 0.0
H700 H 0.6718 0.31981 0.72223 0.0
H701 H 0.67751 0.35421 0.72201 0.0
H702 H 0.62544 0.36341 0.75183 0.0
H703 H 0.6193 0.32911 0.752 0.0
C704 C 0.6484 0.23477 0.68236 0.0
C705 C 0.63779 0.24097 0.66676 0.0
C706 C 0.64877 0.24525 0.69908 0.0
C707 C 0.63816 0.26194 0.70079 0.0
C708 C 0.62806 0.26854 0.68501 0.0
C709 C 0.62793 0.25817 0.6681 0.0
C710 C 0.63716 0.272 0.71927 0.0
C711 C 0.64151 0.29136 0.72014 0.0
C712 C 0.63241 0.26236 0.73613 0.0
C713 C 0.62595 0.24239 0.73605 0.0
C714 C 0.61046 0.23681 0.72487 0.0
C715 C 0.60456 0.21795 0.72466 0.0
C716 C 0.61393 0.20456 0.7357 0.0
C717 C 0.62921 0.21001 0.74701 0.0
C718 C 0.63519 0.22884 0.74724 0.0
C719 C 0.62644 0.30396 0.8052 0.0
C720 C 0.64264 0.31395 0.8109 0.0
C721 C 0.62465 0.29738 0.78668 0.0
C722 C 0.63917 0.30032 0.77347 0.0
C723 C 0.65523 0.31071 0.77905 0.0
C724 C 0.65683 0.3177 0.79754 0.0
C725 C 0.63798 0.29127 0.75444 0.0
C726 C 0.63327 0.272 0.75345 0.0
C727 C 0.6417 0.30119 0.73746 0.0
C728 C 0.6452 0.32186 0.73729 0.0
C729 C 0.66154 0.32918 0.72867 0.0
C730 C 0.66485 0.34866 0.72857 0.0
C731 C 0.65188 0.36098 0.73695 0.0
C732 C 0.63552 0.35385 0.7454 0.0
C733 C 0.63213 0.33438 0.74553 0.0
H734 H 0.65448 0.37605 0.73687 0.0
H735 H 0.60935 0.18996 0.73551 0.0
H736 H 0.34332 0.75918 0.13324 0.0
H737 H 0.31476 0.77894 0.13184 0.0
H738 H 0.28037 0.72891 0.12615 0.0
H739 H 0.30862 0.70917 0.12783 0.0
H740 H 0.27039 0.75929 0.10118 0.0
H741 H 0.28495 0.74705 0.16747 0.0
H742 H 0.30636 0.74832 0.19496 0.0
H743 H 0.30831 0.80885 0.19119 0.0
H744 H 0.28726 0.80789 0.16336 0.0
H745 H 0.17775 0.77441 0.12907 0.0
H746 H 0.21039 0.76417 0.12596 0.0
H747 H 0.22972 0.81954 0.14283 0.0
H748 H 0.19676 0.82988 0.14645 0.0
H749 H 0.25034 0.79267 0.15962 0.0
H750 H 0.23227 0.80585 0.09652 0.0
H751 H 0.21204 0.80534 0.06813 0.0
H752 H 0.21763 0.74501 0.06467 0.0
H753 H 0.23765 0.74511 0.09322 0.0
C754 C 0.32968 0.75245 0.13146 0.0
C755 C 0.32816 0.73264 0.13075 0.0
C756 C 0.31342 0.76373 0.13071 0.0
C757 C 0.2955 0.75534 0.12896 0.0
C758 C 0.29408 0.73564 0.12748 0.0
C759 C 0.31022 0.72439 0.12853 0.0
C760 C 0.27798 0.76677 0.12967 0.0
C761 C 0.26596 0.7666 0.11392 0.0
C762 C 0.27257 0.7768 0.14612 0.0
C763 C 0.28474 0.77739 0.16319 0.0
C764 C 0.29005 0.76062 0.17242 0.0
C765 C 0.30211 0.76128 0.18807 0.0
C766 C 0.30873 0.77865 0.19479 0.0
C767 C 0.30321 0.7954 0.18594 0.0
C768 C 0.29123 0.79481 0.17021 0.0
C769 C 0.18888 0.7845 0.13209 0.0
C770 C 0.18462 0.80303 0.13787 0.0
C771 C 0.20759 0.77862 0.13021 0.0
C772 C 0.22254 0.79119 0.13376 0.0
C773 C 0.2184 0.80964 0.13988 0.0
C774 C 0.19958 0.81553 0.14191 0.0
C775 C 0.24236 0.7847 0.13127 0.0
C776 C 0.25486 0.78576 0.14668 0.0
C777 C 0.24832 0.77564 0.1144 0.0
C778 C 0.2364 0.77549 0.09709 0.0
C779 C 0.22909 0.79246 0.08978 0.0
C780 C 0.21767 0.79224 0.07365 0.0
C781 C 0.21354 0.77515 0.06462 0.0
C782 C 0.22085 0.75824 0.07168 0.0
C783 C 0.23226 0.75837 0.08782 0.0
H784 H 0.20469 0.77502 0.05213 0.0
H785 H 0.31815 0.77915 0.20684 0.0
H786 H 0.32452 0.77686 0.3852 0.0
H787 H 0.29115 0.76848 0.38508 0.0
H788 H 0.27621 0.82663 0.37491 0.0
H789 H 0.30998 0.83525 0.37476 0.0
H790 H 0.25455 0.80619 0.40515 0.0
H791 H 0.27124 0.80115 0.33979 0.0
H792 H 0.29125 0.7916 0.31288 0.0
H793 H 0.28372 0.73323 0.32746 0.0
H794 H 0.2639 0.74243 0.35465 0.0
H795 H 0.15932 0.77053 0.39052 0.0
H796 H 0.18886 0.78864 0.38803 0.0
H797 H 0.22042 0.73659 0.38437 0.0
H798 H 0.19122 0.71858 0.38654 0.0
H799 H 0.23143 0.75996 0.35762 0.0
H800 H 0.21959 0.76421 0.42481 0.0
H801 H 0.20114 0.77242 0.45323 0.0
H802 H 0.20058 0.83072 0.43653 0.0
H803 H 0.21885 0.8228 0.40786 0.0
C804 C 0.31421 0.78796 0.38297 0.0
C805 C 0.31993 0.80675 0.37997 0.0
C806 C 0.29512 0.7831 0.38287 0.0
C807 C 0.28125 0.79691 0.37991 0.0
C808 C 0.28676 0.81578 0.37721 0.0
C809 C 0.30601 0.82065 0.37704 0.0
C810 C 0.26109 0.79114 0.3795 0.0
C811 C 0.24927 0.79646 0.39451 0.0
C812 C 0.25442 0.77814 0.36583 0.0
C813 C 0.26616 0.77251 0.34934 0.0
C814 C 0.27396 0.78628 0.33735 0.0
C815 C 0.28525 0.78093 0.32203 0.0
C816 C 0.28878 0.76182 0.31848 0.0
C817 C 0.28097 0.74802 0.33023 0.0
C818 C 0.26969 0.7533 0.34558 0.0
C819 C 0.17259 0.76298 0.38938 0.0
C820 C 0.17289 0.74311 0.38865 0.0
C821 C 0.18946 0.77334 0.38795 0.0
C822 C 0.20689 0.76398 0.38595 0.0
C823 C 0.20717 0.74416 0.38571 0.0
C824 C 0.19041 0.73386 0.38703 0.0
C825 C 0.22497 0.77451 0.38363 0.0
C826 C 0.23646 0.77005 0.36805 0.0
C827 C 0.23136 0.78812 0.3969 0.0
C828 C 0.22035 0.79288 0.41408 0.0
C829 C 0.21538 0.77875 0.42711 0.0
C830 C 0.20499 0.78336 0.44328 0.0
C831 C 0.19963 0.80207 0.44665 0.0
C832 C 0.2047 0.81623 0.43388 0.0
C833 C 0.21508 0.81169 0.41767 0.0
H834 H 0.1916 0.80561 0.45918 0.0
H835 H 0.29753 0.7577 0.30662 0.0
H836 H 0.25733 0.8376 0.9096 0.0
H837 H 0.27399 0.80716 0.90929 0.0
H838 H 0.24043 0.7893 0.86147 0.0
H839 H 0.22327 0.8191 0.86238 0.0
H840 H 0.24039 0.7628 0.88455 0.0
H841 H 0.28959 0.8013 0.85902 0.0
H842 H 0.31194 0.82802 0.85777 0.0
H843 H 0.33799 0.80925 0.90923 0.0
H844 H 0.31563 0.78254 0.91093 0.0
H845 H 0.31901 0.6897 0.86396 0.0
H846 H 0.30951 0.72311 0.86424 0.0
H847 H 0.27415 0.71272 0.91279 0.0
H848 H 0.28304 0.67943 0.91216 0.0
H849 H 0.30982 0.75335 0.88765 0.0
H850 H 0.23258 0.73412 0.90768 0.0
H851 H 0.21058 0.70724 0.90437 0.0
H852 H 0.2409 0.68791 0.85544 0.0
H853 H 0.26288 0.71482 0.85829 0.0
C854 C 0.25368 0.82719 0.89896 0.0
C855 C 0.2389 0.83063 0.88614 0.0
C856 C 0.26327 0.80983 0.8987 0.0
C857 C 0.25856 0.79584 0.8853 0.0
C858 C 0.24425 0.79968 0.87208 0.0
C859 C 0.23445 0.81677 0.8726 0.0
C860 C 0.2675 0.77674 0.8856 0.0
C861 C 0.25559 0.76085 0.88521 0.0
C862 C 0.28736 0.77398 0.88616 0.0
C863 C 0.30081 0.79003 0.8852 0.0
C864 C 0.29999 0.80295 0.87015 0.0
C865 C 0.31268 0.81808 0.86935 0.0
C866 C 0.32634 0.82036 0.88344 0.0
C867 C 0.32738 0.80748 0.89834 0.0
C868 C 0.31472 0.79233 0.89922 0.0
C869 C 0.30944 0.69466 0.87484 0.0
C870 C 0.30149 0.68192 0.88782 0.0
C871 C 0.30405 0.71374 0.87502 0.0
C872 C 0.29079 0.72034 0.88828 0.0
C873 C 0.28405 0.70788 0.90214 0.0
C874 C 0.28915 0.68885 0.90177 0.0
C875 C 0.28265 0.73966 0.88676 0.0
C876 C 0.29465 0.75547 0.88698 0.0
C877 C 0.26287 0.74244 0.88536 0.0
C878 C 0.24948 0.72639 0.88333 0.0
C879 C 0.23449 0.72418 0.89617 0.0
C880 C 0.22203 0.70893 0.89437 0.0
C881 C 0.22437 0.69584 0.87974 0.0
C882 C 0.23913 0.69802 0.86681 0.0
C883 C 0.2516 0.71326 0.86851 0.0
H884 H 0.21473 0.68403 0.8784 0.0
H885 H 0.33615 0.83209 0.88279 0.0
H886 H 0.27426 0.652 0.63509 0.0
H887 H 0.29372 0.68073 0.63677 0.0
H888 H 0.24481 0.71458 0.62352 0.0
H889 H 0.22531 0.68612 0.62208 0.0
H890 H 0.27888 0.72568 0.60433 0.0
H891 H 0.25581 0.70923 0.66724 0.0
H892 H 0.25274 0.68676 0.69365 0.0
H893 H 0.31312 0.68532 0.69982 0.0
H894 H 0.31656 0.70743 0.6731 0.0
H895 H 0.28775 0.81749 0.63701 0.0
H896 H 0.27838 0.7848 0.63203 0.0
H897 H 0.33126 0.76579 0.65567 0.0
H898 H 0.34077 0.79879 0.66099 0.0
H899 H 0.30172 0.7444 0.66806 0.0
H900 H 0.32525 0.76419 0.60872 0.0
H901 H 0.32947 0.78509 0.58121 0.0
H902 H 0.27065 0.77925 0.56734 0.0
H903 H 0.26599 0.75855 0.59494 0.0
C904 C 0.26775 0.66555 0.63224 0.0
C905 C 0.24825 0.66685 0.62858 0.0
C906 C 0.27886 0.68192 0.63325 0.0
C907 C 0.27065 0.69975 0.63035 0.0
C908 C 0.2514 0.70095 0.62576 0.0
C909 C 0.24027 0.68468 0.62504 0.0
C910 C 0.28154 0.71737 0.63343 0.0
C911 C 0.28388 0.72982 0.61823 0.0
C912 C 0.28859 0.72243 0.65147 0.0
C913 C 0.28645 0.70978 0.66802 0.0
C914 C 0.26843 0.70403 0.67415 0.0
C915 C 0.26662 0.69135 0.68917 0.0
C916 C 0.28273 0.68456 0.69835 0.0
C917 C 0.30066 0.69055 0.69264 0.0
C918 C 0.30255 0.70313 0.67755 0.0
C919 C 0.29744 0.80642 0.64122 0.0
C920 C 0.3151 0.81079 0.64928 0.0
C921 C 0.29207 0.7877 0.63828 0.0
C922 C 0.30427 0.77285 0.64311 0.0
C923 C 0.32169 0.77705 0.6517 0.0
C924 C 0.3271 0.7959 0.65473 0.0
C925 C 0.29855 0.75305 0.63903 0.0
C926 C 0.29713 0.74018 0.65403 0.0
C927 C 0.29254 0.7475 0.62072 0.0
C928 C 0.29526 0.75988 0.60399 0.0
C929 C 0.31318 0.76746 0.59988 0.0
C930 C 0.31566 0.77926 0.58426 0.0
C931 C 0.30034 0.78351 0.57255 0.0
C932 C 0.28251 0.77594 0.57642 0.0
C933 C 0.27995 0.76415 0.59205 0.0
H934 H 0.30229 0.79265 0.56046 0.0
H935 H 0.28131 0.67467 0.70991 0.0
H936 H 0.86619 0.82364 0.21141 0.0
H937 H 0.86195 0.79255 0.22617 0.0
H938 H 0.87177 0.81741 0.28108 0.0
H939 H 0.87663 0.84806 0.2665 0.0
H940 H 0.89019 0.78639 0.27925 0.0
H941 H 0.82647 0.80453 0.26437 0.0
H942 H 0.8002 0.81478 0.24388 0.0
H943 H 0.80642 0.76463 0.21015 0.0
H944 H 0.8329 0.75419 0.23031 0.0
H945 H 0.85704 0.7105 0.33604 0.0
H946 H 0.85677 0.74157 0.32058 0.0
H947 H 0.85892 0.71445 0.26597 0.0
H948 H 0.85937 0.68355 0.2812 0.0
H949 H 0.83395 0.74608 0.26758 0.0
H950 H 0.89779 0.72824 0.28415 0.0
H951 H 0.92191 0.7177 0.30693 0.0
H952 H 0.91415 0.76852 0.3393 0.0
H953 H 0.88945 0.77907 0.31705 0.0
C954 C 0.86743 0.82242 0.22662 0.0
C955 C 0.87182 0.8383 0.23775 0.0
C956 C 0.86491 0.80468 0.23507 0.0
C957 C 0.86637 0.80263 0.25481 0.0
C958 C 0.87066 0.81854 0.26585 0.0
C959 C 0.87342 0.83611 0.25745 0.0
C960 C 0.86377 0.78398 0.26415 0.0
C961 C 0.87775 0.77774 0.27683 0.0
C962 C 0.8477 0.77245 0.26087 0.0
C963 C 0.8318 0.77869 0.24872 0.0
C964 C 0.82233 0.79576 0.25249 0.0
C965 C 0.80739 0.80159 0.24096 0.0
C966 C 0.80168 0.79039 0.22569 0.0
C967 C 0.81088 0.77331 0.22196 0.0
C968 C 0.82585 0.76742 0.23344 0.0
C969 C 0.85718 0.7112 0.32075 0.0
C970 C 0.85844 0.69463 0.30984 0.0
C971 C 0.85704 0.72891 0.31195 0.0
C972 C 0.85795 0.73026 0.29214 0.0
C973 C 0.8582 0.71371 0.28125 0.0
C974 C 0.8586 0.69608 0.29001 0.0
C975 C 0.86021 0.7488 0.28272 0.0
C976 C 0.84629 0.75488 0.26998 0.0
C977 C 0.8762 0.76032 0.28611 0.0
C978 C 0.8916 0.75434 0.29905 0.0
C979 C 0.90112 0.73711 0.2962 0.0
C980 C 0.91489 0.73113 0.30902 0.0
C981 C 0.91955 0.74242 0.32457 0.0
C982 C 0.9105 0.75977 0.32727 0.0
C983 C 0.89657 0.76574 0.31458 0.0
H984 H 0.93017 0.73774 0.33453 0.0
H985 H 0.7901 0.79492 0.21678 0.0
H986 H 0.2071 0.36237 0.67325 0.0
H987 H 0.24029 0.36632 0.68283 0.0
H988 H 0.22246 0.37653 0.74028 0.0
H989 H 0.18962 0.37311 0.73081 0.0
H990 H 0.24734 0.40201 0.73027 0.0
H991 H 0.24203 0.33361 0.72441 0.0
H992 H 0.2361 0.30388 0.70709 0.0
H993 H 0.28025 0.3175 0.66782 0.0
H994 H 0.28626 0.34746 0.68473 0.0
H995 H 0.32108 0.38083 0.79232 0.0
H996 H 0.29261 0.38112 0.77293 0.0
H997 H 0.32665 0.37926 0.7224 0.0
H998 H 0.35547 0.37904 0.74185 0.0
H999 H 0.29673 0.35288 0.72245 0.0
H1000 H 0.30513 0.41893 0.73184 0.0
H1001 H 0.31106 0.44839 0.74955 0.0
H1002 H 0.2611 0.439 0.78265 0.0
H1003 H 0.25499 0.40933 0.76533 0.0
C1004 C 0.21033 0.36535 0.68792 0.0
C1005 C 0.19573 0.36753 0.70124 0.0
C1006 C 0.22929 0.36758 0.69339 0.0
C1007 C 0.2339 0.37174 0.7123 0.0
C1008 C 0.21929 0.37352 0.72558 0.0
C1009 C 0.20048 0.3715 0.72014 0.0
C1010 C 0.25376 0.3746 0.71858 0.0
C1011 C 0.2581 0.39121 0.72861 0.0
C1012 C 0.26807 0.36088 0.7158 0.0
C1013 C 0.26443 0.34288 0.70568 0.0
C1014 C 0.25036 0.33034 0.71199 0.0
C1015 C 0.24701 0.31344 0.70227 0.0
C1016 C 0.25775 0.30883 0.68635 0.0
C1017 C 0.27191 0.3211 0.68013 0.0
C1018 C 0.2753 0.33804 0.68977 0.0
C1019 C 0.32259 0.38061 0.77708 0.0
C1020 C 0.34055 0.37992 0.76862 0.0
C1021 C 0.30627 0.38084 0.76601 0.0
C1022 C 0.30752 0.38035 0.74623 0.0
C1023 C 0.32541 0.37971 0.73766 0.0
C1024 C 0.34183 0.37967 0.74877 0.0
C1025 C 0.28993 0.37987 0.73481 0.0
C1026 C 0.28605 0.3638 0.72379 0.0
C1027 C 0.27597 0.39404 0.73674 0.0
C1028 C 0.27965 0.41184 0.74732 0.0
C1029 C 0.29548 0.42306 0.743 0.0
C1030 C 0.29886 0.43982 0.75295 0.0
C1031 C 0.28646 0.44557 0.76721 0.0
C1032 C 0.27068 0.43454 0.77158 0.0
C1033 C 0.26723 0.41776 0.76168 0.0
H1034 H 0.28906 0.45858 0.77486 0.0
H1035 H 0.25513 0.29574 0.67885 0.0
H1036 H 0.63651 0.82871 0.28374 0.0
H1037 H 0.63998 0.79853 0.26749 0.0
H1038 H 0.62545 0.82494 0.21457 0.0
H1039 H 0.6216 0.85534 0.23089 0.0
H1040 H 0.60767 0.79207 0.21747 0.0
H1041 H 0.67277 0.8099 0.22193 0.0
H1042 H 0.70233 0.82126 0.23647 0.0
H1043 H 0.69918 0.77735 0.27812 0.0
H1044 H 0.66982 0.76537 0.26344 0.0
H1045 H 0.63651 0.70598 0.1692 0.0
H1046 H 0.63576 0.73942 0.17891 0.0
H1047 H 0.63992 0.72268 0.23732 0.0
H1048 H 0.64039 0.68953 0.22784 0.0
H1049 H 0.6646 0.75234 0.22736 0.0
H1050 H 0.59871 0.7346 0.221 0.0
H1051 H 0.57097 0.72261 0.20358 0.0
H1052 H 0.57656 0.76749 0.16322 0.0
H1053 H 0.60454 0.77957 0.18027 0.0
C1054 C 0.63408 0.82819 0.26863 0.0
C1055 C 0.62881 0.84453 0.25864 0.0
C1056 C 0.63622 0.81088 0.2593 0.0
C1057 C 0.63332 0.80944 0.2397 0.0
C1058 C 0.62787 0.82568 0.22967 0.0
C1059 C 0.62569 0.84306 0.23903 0.0
C1060 C 0.63544 0.7908 0.23 0.0
C1061 C 0.62029 0.78356 0.21932 0.0
C1062 C 0.65177 0.77949 0.23247 0.0
C1063 C 0.66904 0.78689 0.24173 0.0
C1064 C 0.67831 0.80277 0.23428 0.0
C1065 C 0.69506 0.80928 0.24251 0.0
C1066 C 0.70253 0.8002 0.25836 0.0
C1067 C 0.69335 0.78442 0.26589 0.0
C1068 C 0.67673 0.77768 0.25754 0.0
C1069 C 0.6374 0.70949 0.18408 0.0
C1070 C 0.63845 0.69512 0.19775 0.0
C1071 C 0.63687 0.72856 0.18961 0.0
C1072 C 0.63768 0.73352 0.20886 0.0
C1073 C 0.63925 0.71919 0.22242 0.0
C1074 C 0.63947 0.70023 0.21695 0.0
C1075 C 0.63675 0.75355 0.21518 0.0
C1076 C 0.65211 0.76099 0.22528 0.0
C1077 C 0.62071 0.76506 0.21195 0.0
C1078 C 0.60386 0.75784 0.20176 0.0
C1079 C 0.59414 0.7418 0.20831 0.0
C1080 C 0.57835 0.73501 0.19852 0.0
C1081 C 0.57204 0.74424 0.18227 0.0
C1082 C 0.58149 0.76032 0.17579 0.0
C1083 C 0.59731 0.76715 0.18551 0.0
H1084 H 0.55981 0.73897 0.17471 0.0
H1085 H 0.71547 0.80532 0.26474 0.0
H1086 H 0.32266 0.12651 0.68763 0.0
H1087 H 0.28874 0.12483 0.69491 0.0
H1088 H 0.30192 0.11727 0.75397 0.0
H1089 H 0.33548 0.11841 0.7468 0.0
H1090 H 0.27611 0.09308 0.74407 0.0
H1091 H 0.28611 0.1601 0.73443 0.0
H1092 H 0.29536 0.18832 0.71621 0.0
H1093 H 0.25357 0.17518 0.67416 0.0
H1094 H 0.2443 0.14668 0.69193 0.0
H1095 H 0.19661 0.12118 0.79595 0.0
H1096 H 0.22723 0.12032 0.78019 0.0
H1097 H 0.19954 0.11631 0.72602 0.0
H1098 H 0.16856 0.117 0.74179 0.0
H1099 H 0.23032 0.14371 0.7282 0.0
H1100 H 0.21822 0.07837 0.74077 0.0
H1101 H 0.20881 0.05117 0.76033 0.0
H1102 H 0.25482 0.06231 0.79839 0.0
H1103 H 0.26435 0.08976 0.77921 0.0
C1104 C 0.31828 0.12452 0.70215 0.0
C1105 C 0.33179 0.1225 0.71661 0.0
C1106 C 0.29889 0.12363 0.70631 0.0
C1107 C 0.29273 0.12098 0.72503 0.0
C1108 C 0.30626 0.11917 0.73942 0.0
C1109 C 0.32551 0.11987 0.73527 0.0
C1110 C 0.2723 0.11977 0.72995 0.0
C1111 C 0.26616 0.10422 0.74064 0.0
C1112 C 0.25908 0.13399 0.72503 0.0
C1113 C 0.26467 0.15113 0.71438 0.0
C1114 C 0.27901 0.16313 0.72121 0.0
C1115 C 0.28423 0.17919 0.71099 0.0
C1116 C 0.27509 0.18351 0.69403 0.0
C1117 C 0.26067 0.1718 0.68727 0.0
C1118 C 0.25543 0.15569 0.6974 0.0
C1119 C 0.19695 0.12009 0.78068 0.0
C1120 C 0.18012 0.1191 0.77013 0.0
C1121 C 0.21449 0.11958 0.7717 0.0
C1122 C 0.21565 0.11816 0.75196 0.0
C1123 C 0.19892 0.11739 0.74128 0.0
C1124 C 0.18127 0.11768 0.75031 0.0
C1125 C 0.23448 0.11737 0.74277 0.0
C1126 C 0.24026 0.13246 0.73131 0.0
C1127 C 0.24748 0.10285 0.74712 0.0
C1128 C 0.24192 0.08621 0.7586 0.0
C1129 C 0.22626 0.0751 0.75338 0.0
C1130 C 0.22091 0.05963 0.76439 0.0
C1131 C 0.23119 0.05503 0.78061 0.0
C1132 C 0.24687 0.06588 0.78583 0.0
C1133 C 0.25226 0.08139 0.77487 0.0
H1134 H 0.22702 0.04305 0.78913 0.0
H1135 H 0.27914 0.19596 0.68615 0.0
H1136 H 0.25671 0.88834 0.67108 0.0
H1137 H 0.23634 0.8913 0.69899 0.0
H1138 H 0.28264 0.87378 0.73458 0.0
H1139 H 0.30301 0.87101 0.707 0.0
H1140 H 0.2243 0.86614 0.72385 0.0
H1141 H 0.28113 0.8957 0.77664 0.0
H1142 H 0.30707 0.919 0.77728 0.0
H1143 H 0.28402 0.94633 0.72831 0.0
H1144 H 0.2578 0.92337 0.72751 0.0
H1145 H 0.19999 0.84474 0.81861 0.0
H1146 H 0.21233 0.84876 0.78653 0.0
H1147 H 0.21556 0.9091 0.79561 0.0
H1148 H 0.20464 0.90477 0.8281 0.0
H1149 H 0.24546 0.90021 0.78142 0.0
H1150 H 0.18282 0.88543 0.76302 0.0
H1151 H 0.15274 0.86783 0.76205 0.0
H1152 H 0.18152 0.81912 0.74001 0.0
H1153 H 0.21183 0.83634 0.74108 0.0
C1154 C 0.26257 0.88526 0.68487 0.0
C1155 C 0.28151 0.87946 0.68678 0.0
C1156 C 0.25089 0.88689 0.7008 0.0
C1157 C 0.25799 0.88295 0.71893 0.0
C1158 C 0.2769 0.87722 0.72081 0.0
C1159 C 0.28852 0.87554 0.70496 0.0
C1160 C 0.24568 0.88417 0.73594 0.0
C1161 C 0.22882 0.87368 0.73643 0.0
C1162 C 0.25124 0.89449 0.75217 0.0
C1163 C 0.26754 0.90771 0.75196 0.0
C1164 C 0.2816 0.90666 0.76599 0.0
C1165 C 0.29634 0.91983 0.7664 0.0
C1166 C 0.29712 0.93418 0.7529 0.0
C1167 C 0.28336 0.93522 0.73878 0.0
C1168 C 0.26859 0.92209 0.7383 0.0
C1169 C 0.20303 0.85885 0.81353 0.0
C1170 C 0.20139 0.87446 0.82566 0.0
C1171 C 0.20997 0.8612 0.79515 0.0
C1172 C 0.21476 0.8793 0.7884 0.0
C1173 C 0.21213 0.89498 0.80038 0.0
C1174 C 0.20579 0.89254 0.81891 0.0
C1175 C 0.22421 0.88172 0.76967 0.0
C1176 C 0.24067 0.89282 0.76885 0.0
C1177 C 0.21784 0.87257 0.75298 0.0
C1178 C 0.19963 0.86215 0.75226 0.0
C1179 C 0.18276 0.87092 0.75808 0.0
C1180 C 0.16566 0.86102 0.7575 0.0
C1181 C 0.16523 0.84236 0.75101 0.0
C1182 C 0.18188 0.83358 0.74504 0.0
C1183 C 0.19903 0.84341 0.74561 0.0
H1184 H 0.15197 0.83472 0.75057 0.0
H1185 H 0.30837 0.94453 0.75343 0.0
H1186 H 0.12831 0.73555 0.32997 0.0
H1187 H 0.12476 0.7434 0.29682 0.0
H1188 H 0.13709 0.68573 0.28131 0.0
H1189 H 0.14098 0.67766 0.31496 0.0
H1190 H 0.1544 0.7117 0.25746 0.0
H1191 H 0.09242 0.69983 0.27962 0.0
H1192 H 0.06536 0.70148 0.3015 0.0
H1193 H 0.06192 0.76149 0.29337 0.0
H1194 H 0.08917 0.76027 0.27168 0.0
H1195 H 0.12144 0.74289 0.16493 0.0
H1196 H 0.12268 0.72389 0.19398 0.0
H1197 H 0.12067 0.77484 0.22747 0.0
H1198 H 0.11984 0.79384 0.1987 0.0
H1199 H 0.09529 0.74486 0.23931 0.0
H1200 H 0.16101 0.75613 0.22155 0.0
H1201 H 0.18813 0.75406 0.19975 0.0
H1202 H 0.18345 0.69355 0.19908 0.0
H1203 H 0.15609 0.6953 0.22066 0.0
C1204 C 0.13034 0.72445 0.3196 0.0
C1205 C 0.13471 0.70589 0.32517 0.0
C1206 C 0.12823 0.72898 0.30059 0.0
C1207 C 0.13021 0.71507 0.2866 0.0
C1208 C 0.13533 0.69664 0.29193 0.0
C1209 C 0.13755 0.69206 0.31112 0.0
C1210 C 0.12659 0.72019 0.26656 0.0
C1211 C 0.14129 0.7185 0.25334 0.0
C1212 C 0.1095 0.72912 0.26117 0.0
C1213 C 0.09292 0.72995 0.27406 0.0
C1214 C 0.08597 0.7134 0.28258 0.0
C1215 C 0.07059 0.71426 0.29494 0.0
C1216 C 0.06193 0.73158 0.29884 0.0
C1217 C 0.06863 0.74808 0.29034 0.0
C1218 C 0.08403 0.7473 0.27798 0.0
C1219 C 0.12112 0.74999 0.17851 0.0
C1220 C 0.12059 0.76985 0.17956 0.0
C1221 C 0.12189 0.73914 0.19504 0.0
C1222 C 0.1218 0.748 0.21283 0.0
C1223 C 0.12072 0.76776 0.21387 0.0
C1224 C 0.12031 0.77858 0.19742 0.0
C1225 C 0.12331 0.73696 0.23054 0.0
C1226 C 0.10818 0.73757 0.2433 0.0
C1227 C 0.13989 0.72689 0.23539 0.0
C1228 C 0.15635 0.72586 0.2225 0.0
C1229 C 0.16564 0.7424 0.2166 0.0
C1230 C 0.18108 0.74128 0.20432 0.0
C1231 C 0.18747 0.72369 0.19798 0.0
C1232 C 0.17846 0.70717 0.20396 0.0
C1233 C 0.16299 0.70822 0.21622 0.0
H1234 H 0.19943 0.72286 0.18848 0.0
H1235 H 0.05003 0.73221 0.30842 0.0
H1236 H 0.234 0.61907 0.85455 0.0
H1237 H 0.21742 0.62331 0.82431 0.0
H1238 H 0.27082 0.63285 0.79649 0.0
H1239 H 0.2873 0.6289 0.82635 0.0
H1240 H 0.24584 0.65877 0.78602 0.0
H1241 H 0.2466 0.59064 0.79274 0.0
H1242 H 0.23953 0.56046 0.80862 0.0
H1243 H 0.18013 0.57279 0.80635 0.0
H1244 H 0.18688 0.60317 0.79066 0.0
H1245 H 0.23679 0.6361 0.68976 0.0
H1246 H 0.24356 0.63678 0.72357 0.0
H1247 H 0.18383 0.63735 0.73573 0.0
H1248 H 0.17688 0.63703 0.70159 0.0
H1249 H 0.2056 0.60949 0.75639 0.0
H1250 H 0.20573 0.67532 0.74375 0.0
H1251 H 0.21374 0.70489 0.72728 0.0
H1252 H 0.27243 0.69681 0.74044 0.0
H1253 H 0.26489 0.66687 0.75649 0.0
C1254 C 0.24218 0.62196 0.84195 0.0
C1255 C 0.26199 0.62365 0.84292 0.0
C1256 C 0.23269 0.62438 0.82467 0.0
C1257 C 0.24287 0.62841 0.80808 0.0
C1258 C 0.26262 0.6299 0.80907 0.0
C1259 C 0.27205 0.62754 0.82622 0.0
C1260 C 0.23328 0.63129 0.78956 0.0
C1261 C 0.2371 0.64796 0.77952 0.0
C1262 C 0.22131 0.61749 0.78131 0.0
C1263 C 0.21726 0.59927 0.79077 0.0
C1264 C 0.23205 0.58699 0.79579 0.0
C1265 C 0.2281 0.56983 0.80472 0.0
C1266 C 0.2094 0.56474 0.80855 0.0
C1267 C 0.19461 0.57678 0.80341 0.0
C1268 C 0.19849 0.59396 0.7945 0.0
C1269 C 0.22505 0.63649 0.6996 0.0
C1270 C 0.20629 0.63646 0.69303 0.0
C1271 C 0.22896 0.63695 0.71892 0.0
C1272 C 0.21421 0.63716 0.73216 0.0
C1273 C 0.19541 0.63722 0.72571 0.0
C1274 C 0.19147 0.63712 0.70626 0.0
C1275 C 0.21879 0.63666 0.75265 0.0
C1276 C 0.21402 0.62047 0.76305 0.0
C1277 C 0.23005 0.65084 0.76119 0.0
C1278 C 0.23473 0.66872 0.75123 0.0
C1279 C 0.22038 0.67969 0.74293 0.0
C1280 C 0.22484 0.69655 0.73369 0.0
C1281 C 0.24358 0.70272 0.73281 0.0
C1282 C 0.25791 0.69202 0.74114 0.0
C1283 C 0.25356 0.67507 0.75028 0.0
H1284 H 0.247 0.71578 0.72565 0.0
H1285 H 0.20637 0.55145 0.81546 0.0
H1286 H 0.3848 0.74135 0.35637 0.0
H1287 H 0.38012 0.72227 0.32768 0.0
H1288 H 0.37199 0.77318 0.29526 0.0
H1289 H 0.37639 0.79216 0.32361 0.0
H1290 H 0.34468 0.74836 0.288 0.0
H1291 H 0.41291 0.74717 0.29282 0.0
H1292 H 0.44348 0.74052 0.30822 0.0
H1293 H 0.42925 0.68162 0.31149 0.0
H1294 H 0.39847 0.68797 0.29633 0.0
H1295 H 0.36331 0.72826 0.19252 0.0
H1296 H 0.36456 0.73866 0.2254 0.0
H1297 H 0.36119 0.68076 0.24396 0.0
H1298 H 0.35956 0.67017 0.21081 0.0
H1299 H 0.39126 0.70339 0.26103 0.0
H1300 H 0.32484 0.70497 0.25073 0.0
H1301 H 0.29497 0.71255 0.23447 0.0
H1302 H 0.30615 0.77183 0.24102 0.0
H1303 H 0.33637 0.76466 0.25683 0.0
C1304 C 0.38222 0.74845 0.34308 0.0
C1305 C 0.3809 0.76828 0.34232 0.0
C1306 C 0.37955 0.73753 0.3267 0.0
C1307 C 0.37564 0.7463 0.30931 0.0
C1308 C 0.37481 0.76608 0.30852 0.0
C1309 C 0.37742 0.77693 0.32478 0.0
C1310 C 0.37183 0.73514 0.29188 0.0
C1311 C 0.35492 0.7386 0.28206 0.0
C1312 C 0.38486 0.72188 0.28446 0.0
C1313 C 0.40329 0.71808 0.29369 0.0
C1314 C 0.41622 0.73283 0.297 0.0
C1315 C 0.4336 0.72911 0.30564 0.0
C1316 C 0.43827 0.71067 0.31089 0.0
C1317 C 0.42559 0.6959 0.30746 0.0
C1318 C 0.40818 0.69955 0.29885 0.0
C1319 C 0.36272 0.71771 0.20357 0.0
C1320 C 0.36135 0.69839 0.1991 0.0
C1321 C 0.36337 0.72369 0.22236 0.0
C1322 C 0.3629 0.71049 0.23709 0.0
C1323 C 0.36153 0.69115 0.23275 0.0
C1324 C 0.36051 0.68515 0.21386 0.0
C1325 C 0.36445 0.71718 0.2569 0.0
C1326 C 0.38088 0.71288 0.26716 0.0
C1327 C 0.35105 0.72984 0.26467 0.0
C1328 C 0.333 0.73425 0.25485 0.0
C1329 C 0.32107 0.71963 0.24849 0.0
C1330 C 0.30405 0.72386 0.23937 0.0
C1331 C 0.29869 0.74266 0.23669 0.0
C1332 C 0.31035 0.75727 0.24309 0.0
C1333 C 0.32744 0.75313 0.25211 0.0
H1334 H 0.28549 0.7459 0.22966 0.0
H1335 H 0.45174 0.70781 0.31757 0.0
H1336 H 0.66616 0.24927 0.87358 0.0
H1337 H 0.69382 0.22857 0.87021 0.0
H1338 H 0.7302 0.27753 0.8688 0.0
H1339 H 0.70281 0.29811 0.87164 0.0
H1340 H 0.73918 0.2547 0.84133 0.0
H1341 H 0.72614 0.24787 0.90814 0.0
H1342 H 0.70666 0.23982 0.93588 0.0
H1343 H 0.70085 0.18287 0.91555 0.0
H1344 H 0.72012 0.19067 0.88756 0.0
H1345 H 0.82977 0.22814 0.86885 0.0
H1346 H 0.79726 0.23939 0.86912 0.0
H1347 H 0.7774 0.18358 0.85466 0.0
H1348 H 0.81025 0.17206 0.85417 0.0
H1349 H 0.75726 0.20402 0.88618 0.0
H1350 H 0.77544 0.21134 0.82131 0.0
H1351 H 0.79704 0.22065 0.79562 0.0
H1352 H 0.79467 0.2784 0.81424 0.0
H1353 H 0.77328 0.26939 0.84023 0.0
C1354 C 0.68009 0.25555 0.87272 0.0
C1355 C 0.6823 0.27531 0.87277 0.0
C1356 C 0.69588 0.24373 0.87081 0.0
C1357 C 0.71411 0.25149 0.86922 0.0
C1358 C 0.71629 0.2712 0.86981 0.0
C1359 C 0.70059 0.28296 0.8715 0.0
C1360 C 0.73107 0.23943 0.86639 0.0
C1361 C 0.7431 0.24364 0.85118 0.0
C1362 C 0.73596 0.22458 0.87887 0.0
C1363 C 0.72435 0.21991 0.89564 0.0
C1364 C 0.72056 0.23368 0.90951 0.0
C1365 C 0.70959 0.22915 0.92529 0.0
C1366 C 0.70246 0.21086 0.92745 0.0
C1367 C 0.70634 0.19705 0.91384 0.0
C1368 C 0.71729 0.20151 0.89802 0.0
C1369 C 0.81855 0.21817 0.86575 0.0
C1370 C 0.82259 0.19919 0.86145 0.0
C1371 C 0.79997 0.22466 0.86589 0.0
C1372 C 0.785 0.21232 0.86185 0.0
C1373 C 0.78883 0.19328 0.85782 0.0
C1374 C 0.80756 0.18677 0.85744 0.0
C1375 C 0.76549 0.21983 0.86157 0.0
C1376 C 0.75303 0.21477 0.87612 0.0
C1377 C 0.76027 0.2341 0.84865 0.0
C1378 C 0.77282 0.23966 0.83278 0.0
C1379 C 0.7796 0.22601 0.82 0.0
C1380 C 0.79181 0.23123 0.80537 0.0
C1381 C 0.79725 0.2501 0.80332 0.0
C1382 C 0.79044 0.26379 0.81585 0.0
C1383 C 0.77825 0.25863 0.83051 0.0
H1384 H 0.80672 0.25412 0.79201 0.0
H1385 H 0.69398 0.20739 0.93968 0.0
H1386 H 0.82701 0.28027 0.63344 0.0
H1387 H 0.79811 0.26161 0.63423 0.0
H1388 H 0.82644 0.21594 0.60539 0.0
H1389 H 0.8557 0.23467 0.6045 0.0
H1390 H 0.79135 0.22369 0.59019 0.0
H1391 H 0.81706 0.21111 0.65106 0.0
H1392 H 0.83146 0.21894 0.68185 0.0
H1393 H 0.78226 0.25105 0.69711 0.0
H1394 H 0.76767 0.24366 0.6663 0.0
H1395 H 0.70455 0.17488 0.64161 0.0
H1396 H 0.73856 0.18131 0.63895 0.0
H1397 H 0.72677 0.22797 0.60165 0.0
H1398 H 0.69304 0.22159 0.60408 0.0
H1399 H 0.75681 0.21244 0.65017 0.0
H1400 H 0.75809 0.23574 0.57268 0.0
H1401 H 0.74578 0.22599 0.54146 0.0
H1402 H 0.74459 0.16815 0.55961 0.0
H1403 H 0.75611 0.17768 0.59116 0.0
C1404 C 0.8272 0.26624 0.62726 0.0
C1405 C 0.84372 0.25896 0.61889 0.0
C1406 C 0.81065 0.25555 0.62784 0.0
C1407 C 0.81017 0.2373 0.62008 0.0
C1408 C 0.82655 0.22997 0.61154 0.0
C1409 C 0.84324 0.24067 0.61107 0.0
C1410 C 0.79229 0.2263 0.62051 0.0
C1411 C 0.78389 0.22106 0.60332 0.0
C1412 C 0.78268 0.22256 0.63765 0.0
C1413 C 0.79131 0.22691 0.6563 0.0
C1414 C 0.80935 0.21994 0.66093 0.0
C1415 C 0.81755 0.22429 0.6784 0.0
C1416 C 0.80779 0.2355 0.69142 0.0
C1417 C 0.7898 0.24236 0.68701 0.0
C1418 C 0.78155 0.23808 0.66955 0.0
C1419 C 0.70925 0.18633 0.63263 0.0
C1420 C 0.69605 0.19778 0.62315 0.0
C1421 C 0.72868 0.18999 0.63113 0.0
C1422 C 0.73527 0.20499 0.61992 0.0
C1423 C 0.72212 0.21608 0.61007 0.0
C1424 C 0.70277 0.21252 0.61164 0.0
C1425 C 0.75562 0.21034 0.6198 0.0
C1426 C 0.76443 0.21469 0.63706 0.0
C1427 C 0.76574 0.21306 0.60278 0.0
C1428 C 0.75783 0.20743 0.58424 0.0
C1429 C 0.75501 0.22097 0.57002 0.0
C1430 C 0.74805 0.2155 0.55233 0.0
C1431 C 0.74421 0.19648 0.54861 0.0
C1432 C 0.74722 0.18291 0.56262 0.0
C1433 C 0.7538 0.18836 0.58045 0.0
H1434 H 0.73898 0.19223 0.53486 0.0
H1435 H 0.81416 0.23886 0.70493 0.0
H1436 H 0.70328 0.32222 0.13042 0.0
H1437 H 0.71566 0.28997 0.13402 0.0
H1438 H 0.77216 0.31051 0.12366 0.0
H1439 H 0.75998 0.34225 0.11953 0.0
H1440 H 0.76747 0.27986 0.10483 0.0
H1441 H 0.75507 0.29892 0.16894 0.0
H1442 H 0.73573 0.3103 0.19563 0.0
H1443 H 0.69909 0.26222 0.18989 0.0
H1444 H 0.71808 0.25068 0.16298 0.0
H1445 H 0.82124 0.20135 0.13651 0.0
H1446 H 0.80721 0.23314 0.13677 0.0
H1447 H 0.75139 0.2086 0.13744 0.0
H1448 H 0.76524 0.17698 0.13698 0.0
H1449 H 0.75489 0.24042 0.16131 0.0
H1450 H 0.76817 0.22175 0.09702 0.0
H1451 H 0.78856 0.21039 0.07111 0.0
H1452 H 0.82486 0.25854 0.07828 0.0
H1453 H 0.80484 0.27003 0.10445 0.0
C1454 C 0.71831 0.3198 0.12885 0.0
C1455 C 0.73059 0.33484 0.12462 0.0
C1456 C 0.72541 0.30139 0.13103 0.0
C1457 C 0.74492 0.29778 0.12928 0.0
C1458 C 0.75707 0.31283 0.12501 0.0
C1459 C 0.75003 0.33105 0.12266 0.0
C1460 C 0.75293 0.27844 0.13158 0.0
C1461 C 0.76486 0.27139 0.11732 0.0
C1462 C 0.74932 0.26711 0.14768 0.0
C1463 C 0.73786 0.27406 0.1638 0.0
C1464 C 0.74279 0.29086 0.17326 0.0
C1465 C 0.73191 0.29733 0.18845 0.0
C1466 C 0.71616 0.28703 0.19441 0.0
C1467 C 0.71128 0.27021 0.18523 0.0
C1468 C 0.72209 0.26369 0.17001 0.0
C1469 C 0.80601 0.20278 0.13698 0.0
C1470 C 0.79434 0.18672 0.13646 0.0
C1471 C 0.798 0.2209 0.13708 0.0
C1472 C 0.77825 0.2232 0.13691 0.0
C1473 C 0.76664 0.20716 0.1375 0.0
C1474 C 0.77459 0.18911 0.13711 0.0
C1475 C 0.76959 0.24218 0.13475 0.0
C1476 C 0.75749 0.24903 0.14891 0.0
C1477 C 0.77316 0.25344 0.11866 0.0
C1478 C 0.78512 0.24664 0.10282 0.0
C1479 C 0.78059 0.22983 0.09317 0.0
C1480 C 0.79207 0.22338 0.07843 0.0
C1481 C 0.80803 0.23371 0.07309 0.0
C1482 C 0.81251 0.25054 0.08245 0.0
C1483 C 0.8011 0.25703 0.09724 0.0
H1484 H 0.8169 0.22869 0.06167 0.0
H1485 H 0.70776 0.29205 0.20618 0.0
H1486 H 0.77722 0.33433 0.35477 0.0
H1487 H 0.75894 0.30558 0.34972 0.0
H1488 H 0.71639 0.32579 0.38854 0.0
H1489 H 0.73433 0.35513 0.39295 0.0
H1490 H 0.75092 0.27878 0.37109 0.0
H1491 H 0.6737 0.3057 0.37943 0.0
H1492 H 0.65506 0.33442 0.37291 0.0
H1493 H 0.69436 0.35035 0.32953 0.0
H1494 H 0.71309 0.32161 0.33562 0.0
H1495 H 0.69538 0.19998 0.38707 0.0
H1496 H 0.70793 0.23197 0.38971 0.0
H1497 H 0.68318 0.24607 0.33579 0.0
H1498 H 0.66971 0.21405 0.33357 0.0
H1499 H 0.68206 0.27601 0.35794 0.0
H1500 H 0.73031 0.23275 0.33972 0.0
H1501 H 0.74978 0.20391 0.34157 0.0
H1502 H 0.77032 0.22101 0.39613 0.0
H1503 H 0.75075 0.24983 0.39472 0.0
C1504 C 0.76392 0.33272 0.36218 0.0
C1505 C 0.75725 0.34699 0.37431 0.0
C1506 C 0.75346 0.31622 0.35928 0.0
C1507 C 0.73616 0.31343 0.36863 0.0
C1508 C 0.72946 0.32769 0.38082 0.0
C1509 C 0.7398 0.34442 0.38345 0.0
C1510 C 0.72574 0.29522 0.36619 0.0
C1511 C 0.73586 0.27827 0.36819 0.0
C1512 C 0.70614 0.29435 0.362 0.0
C1513 C 0.69489 0.3116 0.35813 0.0
C1514 C 0.67832 0.3153 0.36846 0.0
C1515 C 0.66775 0.33159 0.36484 0.0
C1516 C 0.67355 0.34423 0.35086 0.0
C1517 C 0.68991 0.34058 0.34041 0.0
C1518 C 0.70053 0.32431 0.34396 0.0
C1519 C 0.69238 0.20998 0.37589 0.0
C1520 C 0.68178 0.20451 0.36 0.0
C1521 C 0.69964 0.22825 0.37737 0.0
C1522 C 0.69701 0.24131 0.36269 0.0
C1523 C 0.68553 0.23621 0.34724 0.0
C1524 C 0.67785 0.21794 0.34596 0.0
C1525 C 0.70725 0.25974 0.36313 0.0
C1526 C 0.69712 0.27664 0.3608 0.0
C1527 C 0.72702 0.26062 0.36632 0.0
C1528 C 0.73894 0.24338 0.36717 0.0
C1529 C 0.73889 0.23031 0.35216 0.0
C1530 C 0.74995 0.21397 0.35313 0.0
C1531 C 0.76125 0.21061 0.36897 0.0
C1532 C 0.76154 0.22362 0.38387 0.0
C1533 C 0.75048 0.23997 0.38299 0.0
H1534 H 0.7698 0.19795 0.3697 0.0
H1535 H 0.66535 0.35684 0.34809 0.0
H1536 H 0.22152 0.55821 0.64597 0.0
H1537 H 0.20839 0.5273 0.65402 0.0
H1538 H 0.15215 0.5481 0.64268 0.0
H1539 H 0.16516 0.57924 0.63551 0.0
H1540 H 0.15062 0.52921 0.67282 0.0
H1541 H 0.17687 0.51647 0.61209 0.0
H1542 H 0.20131 0.51567 0.58726 0.0
H1543 H 0.23592 0.47991 0.62192 0.0
H1544 H 0.21178 0.4807 0.64707 0.0
H1545 H 0.13758 0.41929 0.65656 0.0
H1546 H 0.14583 0.45089 0.64545 0.0
H1547 H 0.1515 0.46983 0.70325 0.0
H1548 H 0.14231 0.43847 0.71437 0.0
H1549 H 0.17631 0.46898 0.64774 0.0
H1550 H 0.14579 0.51659 0.70752 0.0
H1551 H 0.11828 0.5175 0.72892 0.0
H1552 H 0.08636 0.48369 0.68979 0.0
H1553 H 0.11359 0.48278 0.66805 0.0
C1554 C 0.20638 0.55612 0.645 0.0
C1555 C 0.19438 0.57114 0.64008 0.0
C1556 C 0.19886 0.53841 0.64956 0.0
C1557 C 0.17924 0.53522 0.64878 0.0
C1558 C 0.16731 0.55016 0.64348 0.0
C1559 C 0.17477 0.56795 0.63929 0.0
C1560 C 0.17108 0.51655 0.6541 0.0
C1561 C 0.15621 0.51605 0.66726 0.0
C1562 C 0.17803 0.49932 0.64663 0.0
C1563 C 0.19258 0.49878 0.63153 0.0
C1564 C 0.18975 0.50854 0.61447 0.0
C1565 C 0.20354 0.50807 0.60033 0.0
C1566 C 0.22018 0.49778 0.60303 0.0
C1567 C 0.22303 0.4879 0.61986 0.0
C1568 C 0.20929 0.48833 0.63405 0.0
C1569 C 0.14024 0.43031 0.66689 0.0
C1570 C 0.1392 0.42644 0.68633 0.0
C1571 C 0.14507 0.44835 0.66053 0.0
C1572 C 0.14924 0.46288 0.67346 0.0
C1573 C 0.14795 0.45907 0.69293 0.0
C1574 C 0.14273 0.4411 0.6993 0.0
C1575 C 0.15591 0.48162 0.66655 0.0
C1576 C 0.1706 0.48214 0.65319 0.0
C1577 C 0.14832 0.49888 0.67333 0.0
C1578 C 0.13181 0.49947 0.68625 0.0
C1579 C 0.13288 0.50941 0.70345 0.0
C1580 C 0.11734 0.50991 0.71564 0.0
C1581 C 0.1006 0.50061 0.71074 0.0
C1582 C 0.09935 0.49083 0.6936 0.0
C1583 C 0.11485 0.4903 0.68135 0.0
H1584 H 0.08859 0.501 0.7202 0.0
H1585 H 0.23084 0.49744 0.59206 0.0
H1586 H 0.41441 0.65743 0.16532 0.0
H1587 H 0.44624 0.64748 0.17437 0.0
H1588 H 0.47012 0.69085 0.13896 0.0
H1589 H 0.43825 0.7011 0.12996 0.0
H1590 H 0.4877 0.65432 0.13558 0.0
H1591 H 0.4685 0.69905 0.18367 0.0
H1592 H 0.44711 0.71149 0.20823 0.0
H1593 H 0.45317 0.66014 0.23988 0.0
H1594 H 0.4744 0.64728 0.21534 0.0
H1595 H 0.58126 0.65989 0.16657 0.0
H1596 H 0.54855 0.66618 0.1582 0.0
H1597 H 0.52974 0.63016 0.20359 0.0
H1598 H 0.5628 0.62432 0.21256 0.0
H1599 H 0.50847 0.66038 0.20235 0.0
H1600 H 0.52836 0.61566 0.15616 0.0
H1601 H 0.54899 0.60177 0.13173 0.0
H1602 H 0.54071 0.65048 0.09663 0.0
H1603 H 0.52022 0.6648 0.12097 0.0
C1604 C 0.42642 0.66478 0.15931 0.0
C1605 C 0.42379 0.6801 0.14692 0.0
C1606 C 0.44459 0.65911 0.16458 0.0
C1607 C 0.4605 0.66852 0.15744 0.0
C1608 C 0.45799 0.68343 0.14464 0.0
C1609 C 0.43979 0.68929 0.13954 0.0
C1610 C 0.47975 0.66301 0.16361 0.0
C1611 C 0.49235 0.65582 0.15012 0.0
C1612 C 0.48551 0.66434 0.18273 0.0
C1613 C 0.47287 0.67212 0.19756 0.0
C1614 C 0.46514 0.69034 0.19578 0.0
C1615 C 0.45307 0.69748 0.20972 0.0
C1616 C 0.44873 0.68659 0.22558 0.0
C1617 C 0.45652 0.66855 0.22757 0.0
C1618 C 0.46858 0.66134 0.21366 0.0
C1619 C 0.57021 0.65319 0.17477 0.0
C1620 C 0.57465 0.64143 0.19013 0.0
C1621 C 0.55145 0.65675 0.16989 0.0
C1622 C 0.53661 0.64829 0.17995 0.0
C1623 C 0.54095 0.63675 0.19552 0.0
C1624 C 0.55982 0.63338 0.20061 0.0
C1625 C 0.51667 0.65189 0.17424 0.0
C1626 C 0.50387 0.65871 0.18781 0.0
C1627 C 0.51062 0.64996 0.15521 0.0
C1628 C 0.52286 0.64136 0.14047 0.0
C1629 C 0.53103 0.62347 0.14329 0.0
C1630 C 0.54269 0.61551 0.12945 0.0
C1631 C 0.54619 0.62525 0.11266 0.0
C1632 C 0.53799 0.64296 0.10965 0.0
C1633 C 0.52634 0.65099 0.12346 0.0
H1634 H 0.55522 0.61907 0.10196 0.0
H1635 H 0.43938 0.69214 0.23635 0.0
H1636 H 0.37563 0.90133 0.68404 0.0
H1637 H 0.38807 0.93216 0.694 0.0
H1638 H 0.35145 0.95982 0.65395 0.0
H1639 H 0.33897 0.92921 0.64396 0.0
H1640 H 0.38768 0.97555 0.65517 0.0
H1641 H 0.33848 0.95556 0.69832 0.0
H1642 H 0.32454 0.93273 0.72052 0.0
H1643 H 0.37251 0.9388 0.75729 0.0
H1644 H 0.38708 0.9612 0.73491 0.0
H1645 H 0.37479 0.0684 0.68566 0.0
H1646 H 0.37143 0.03545 0.67653 0.0
H1647 H 0.40336 0.01847 0.72562 0.0
H1648 H 0.40622 0.05173 0.73529 0.0
H1649 H 0.37451 0.99561 0.72113 0.0
H1650 H 0.42281 0.01761 0.6799 0.0
H1651 H 0.43814 0.039 0.65711 0.0
H1652 H 0.39361 0.02874 0.61711 0.0
H1653 H 0.37785 0.00749 0.63975 0.0
C1654 C 0.37042 0.91396 0.67718 0.0
C1655 C 0.3562 0.91281 0.6633 0.0
C1656 C 0.37751 0.93156 0.68292 0.0
C1657 C 0.37057 0.94829 0.67482 0.0
C1658 C 0.35702 0.9471 0.66038 0.0
C1659 C 0.34983 0.92957 0.65476 0.0
C1660 C 0.37639 0.96715 0.68208 0.0
C1661 C 0.38476 0.98 0.66956 0.0
C1662 C 0.37307 0.97273 0.70103 0.0
C1663 C 0.36398 0.95986 0.71482 0.0
C1664 C 0.34613 0.95192 0.71106 0.0
C1665 C 0.33812 0.93904 0.72367 0.0
C1666 C 0.34764 0.93429 0.74031 0.0
C1667 C 0.36517 0.94246 0.74438 0.0
C1668 C 0.37334 0.95521 0.73171 0.0
C1669 C 0.38123 0.05772 0.69452 0.0
C1670 C 0.39093 0.06275 0.71115 0.0
C1671 C 0.37937 0.03881 0.6892 0.0
C1672 C 0.38751 0.0244 0.70011 0.0
C1673 C 0.39706 0.02932 0.71687 0.0
C1674 C 0.39873 0.04833 0.72236 0.0
C1675 C 0.38551 1.00428 0.69409 0.0
C1676 C 0.37779 0.99117 0.70682 0.0
C1677 C 0.38958 0.99839 0.67534 0.0
C1678 C 0.39909 0.01104 0.66159 0.0
C1679 C 0.41623 0.02 0.66628 0.0
C1680 C 0.425 0.03209 0.65338 0.0
C1681 C 0.41684 0.03525 0.63568 0.0
C1682 C 0.39991 0.02628 0.63083 0.0
C1683 C 0.39107 0.01419 0.64368 0.0
H1684 H 0.42365 0.04462 0.62572 0.0
H1685 H 0.34141 0.92431 0.75006 0.0
H1686 H 0.06491 0.82371 0.14215 0.0
H1687 H 0.03554 0.83664 0.155 0.0
H1688 H 0.06747 0.87585 0.18915 0.0
H1689 H 0.097 0.86306 0.17626 0.0
H1690 H 0.0391 0.85659 0.2094 0.0
H1691 H 0.04496 0.89251 0.15235 0.0
H1692 H 0.04976 0.89706 0.11815 0.0
H1693 H 1.00016 0.86406 0.10636 0.0
H1694 H 0.99521 0.85908 0.1405 0.0
H1695 H 0.95405 0.90392 0.23903 0.0
H1696 H 0.98601 0.89713 0.22729 0.0
H1697 H 0.96237 0.86206 0.18324 0.0
H1698 H 0.93069 0.86915 0.19445 0.0
H1699 H 0.98847 0.8829 0.1687 0.0
H1700 H 0.98402 0.84385 0.22422 0.0
H1701 H 0.9791 0.83721 0.25807 0.0
H1702 H 0.02546 0.87375 0.2724 0.0
H1703 H 0.0305 0.88079 0.23863 0.0
C1704 C 0.06572 0.83519 0.15228 0.0
C1705 C 0.08333 0.84238 0.15813 0.0
C1706 C 0.0489 0.84259 0.15959 0.0
C1707 C 0.04931 0.85727 0.17299 0.0
C1708 C 0.06684 0.86454 0.17883 0.0
C1709 C 0.08369 0.85728 0.17136 0.0
C1710 C 0.03138 0.86466 0.18111 0.0
C1711 C 0.02813 0.86267 0.20058 0.0
C1712 C 0.01695 0.87221 0.16954 0.0
C1713 C 0.0198 0.87531 0.14899 0.0
C1714 C 0.03515 0.88611 0.14247 0.0
C1715 C 0.03789 0.88878 0.12309 0.0
C1716 C 0.0253 0.88082 0.11009 0.0
C1717 C 0.00991 0.87021 0.11645 0.0
C1718 C 0.00712 0.86747 0.13581 0.0
C1719 C 0.95571 0.89474 0.22687 0.0
C1720 C 0.93978 0.88712 0.21768 0.0
C1721 C 0.97399 0.89081 0.2202 0.0
C1722 C 0.97668 0.87896 0.2044 0.0
C1723 C 0.96075 0.87132 0.19535 0.0
C1724 C 0.94258 0.87537 0.20186 0.0
C1725 C 0.99592 0.87447 0.19701 0.0
C1726 C 0.99946 0.87702 0.17762 0.0
C1727 C 0.01052 0.86721 0.20863 0.0
C1728 C 0.00748 0.86303 0.22893 0.0
C1729 C 0.99306 0.85059 0.2346 0.0
C1730 C 0.99027 0.84673 0.25377 0.0
C1731 C 1.00192 0.8551 0.26738 0.0
C1732 C 0.01642 0.86731 0.26185 0.0
C1733 C 0.01925 0.87124 0.2427 0.0
H1734 H 0.99974 0.85209 0.28221 0.0
H1735 H 0.02744 0.88291 0.09509 0.0
H1736 H 0.16531 0.92272 0.86809 0.0
H1737 H 0.15684 0.95529 0.86078 0.0
H1738 H 0.20552 0.97522 0.89163 0.0
H1739 H 0.21433 0.94246 0.89892 0.0
H1740 H 0.16998 0.99648 0.89763 0.0
H1741 H 0.21036 0.97352 0.84764 0.0
H1742 H 0.22004 0.95031 0.82345 0.0
H1743 H 0.16709 0.95764 0.7947 0.0
H1744 H 0.15693 0.98063 0.81892 0.0
H1745 H 0.16737 0.0896 0.85904 0.0
H1746 H 0.17656 0.05846 0.8708 0.0
H1747 H 0.13987 0.03203 0.82974 0.0
H1748 H 0.13125 0.06306 0.81747 0.0
H1749 H 0.17124 0.01421 0.82983 0.0
H1750 H 0.12942 0.03502 0.8789 0.0
H1751 H 0.11716 0.0565 0.90351 0.0
H1752 H 0.16948 0.05205 0.934 0.0
H1753 H 0.18215 0.03072 0.90944 0.0
C1754 C 0.17414 0.93398 0.87356 0.0
C1755 C 0.19058 0.92995 0.88403 0.0
C1756 C 0.16927 0.9526 0.86932 0.0
C1757 C 0.18064 0.96762 0.87553 0.0
C1758 C 0.19659 0.96379 0.8867 0.0
C1759 C 0.20161 0.94508 0.89081 0.0
C1760 C 0.1763 0.98717 0.86938 0.0
C1761 C 0.17052 1.00052 0.88286 0.0
C1762 C 0.17655 0.99218 0.85004 0.0
C1763 C 0.18282 0.97868 0.8352 0.0
C1764 C 0.20072 0.97008 0.83624 0.0
C1765 C 0.2063 0.95697 0.82251 0.0
C1766 C 0.19417 0.95247 0.80757 0.0
C1767 C 0.17646 0.96112 0.80629 0.0
C1768 C 0.17079 0.97421 0.82001 0.0
C1769 C 0.16114 0.07715 0.85264 0.0
C1770 C 0.14856 0.07882 0.83732 0.0
C1771 C 0.16636 0.05932 0.85942 0.0
C1772 C 0.15879 0.04279 0.85132 0.0
C1773 C 0.14599 0.0445 0.83622 0.0
C1774 C 0.141 0.06229 0.82925 0.0
C1775 C 0.1646 0.0237 0.85806 0.0
C1776 C 0.17073 0.01035 0.84465 0.0
C1777 C 0.16438 0.01862 0.87744 0.0
C1778 C 0.1568 0.03144 0.89223 0.0
C1779 C 0.13837 0.03874 0.89078 0.0
C1780 C 0.13133 0.05087 0.90473 0.0
C1781 C 0.14255 0.05568 0.92028 0.0
C1782 C 0.16082 0.04833 0.92193 0.0
C1783 C 0.16793 0.03622 0.90801 0.0
H1784 H 0.13708 0.06506 0.93107 0.0
H1785 H 0.1985 0.94231 0.79697 0.0
H1786 H 0.91694 0.67313 0.34664 0.0
H1787 H 0.9489 0.68297 0.35539 0.0
H1788 H 0.97201 0.63572 0.32453 0.0
H1789 H 0.9399 0.62597 0.31527 0.0
H1790 H 0.98588 0.64071 0.36314 0.0
H1791 H 0.97737 0.67524 0.30581 0.0
H1792 H 0.96211 0.69686 0.28322 0.0
H1793 H 0.96663 0.74235 0.32324 0.0
H1794 H 0.98149 0.72088 0.34629 0.0
H1795 H 0.0822 0.66744 0.36744 0.0
H1796 H 0.0506 0.65759 0.35803 0.0
H1797 H 0.02792 0.71047 0.37831 0.0
H1798 H 0.05979 0.7207 0.38739 0.0
H1799 H 0.01372 0.70232 0.34465 0.0
H1800 H 0.0211 0.66816 0.40242 0.0
H1801 H 0.03685 0.64705 0.42519 0.0
H1802 H 0.03436 0.60147 0.38508 0.0
H1803 H 0.01881 0.62239 0.36196 0.0
C1804 C 0.92881 0.66481 0.34166 0.0
C1805 C 0.92591 0.6487 0.33032 0.0
C1806 C 0.94707 0.67053 0.34661 0.0
C1807 C 0.9628 0.66011 0.34057 0.0
C1808 C 0.96001 0.64396 0.32931 0.0
C1809 C 0.94171 0.63843 0.324 0.0
C1810 C 0.98208 0.66589 0.34658 0.0
C1811 C 0.99212 0.65405 0.35888 0.0
C1812 C 0.9899 0.68357 0.34148 0.0
C1813 C 0.98036 0.69637 0.32788 0.0
C1814 C 0.97485 0.68977 0.30993 0.0
C1815 C 0.96633 0.70203 0.29701 0.0
C1816 C 0.96342 0.72097 0.30179 0.0
C1817 C 0.96892 0.72767 0.31955 0.0
C1818 C 0.97735 0.71546 0.33256 0.0
C1819 C 0.0705 0.67697 0.37012 0.0
C1820 C 0.07357 0.69488 0.37827 0.0
C1821 C 0.05238 0.67124 0.36476 0.0
C1822 C 0.03678 0.68316 0.36765 0.0
C1823 C 0.03972 0.70099 0.37596 0.0
C1824 C 0.05794 0.7068 0.38125 0.0
C1825 C 0.01757 0.67719 0.36134 0.0
C1826 C 0.0075 0.68899 0.34897 0.0
C1827 C 0.00965 0.65954 0.3665 0.0
C1828 C 0.01895 0.6469 0.38039 0.0
C1829 C 0.02404 0.65368 0.3984 0.0
C1830 C 0.03291 0.64174 0.41138 0.0
C1831 C 0.03665 0.62294 0.40656 0.0
C1832 C 0.03147 0.61604 0.38878 0.0
C1833 C 0.02261 0.62793 0.37574 0.0
H1834 H 0.04351 0.61372 0.41663 0.0
H1835 H 0.95687 0.73045 0.29174 0.0
H1836 H 0.30544 0.56124 0.89119 0.0
H1837 H 0.31576 0.52899 0.88432 0.0
H1838 H 0.35976 0.55052 0.84814 0.0
H1839 H 0.34962 0.58297 0.85508 0.0
H1840 H 0.33816 0.52086 0.83181 0.0
H1841 H 0.37189 0.53398 0.88949 0.0
H1842 H 0.37491 0.54411 0.92273 0.0
H1843 H 0.33745 0.4996 0.93991 0.0
H1844 H 0.33399 0.48936 0.90672 0.0
H1845 H 0.38661 0.4354 0.81653 0.0
H1846 H 0.37918 0.46778 0.8258 0.0
H1847 H 0.34079 0.44705 0.86834 0.0
H1848 H 0.34857 0.41447 0.85944 0.0
H1849 H 0.35964 0.47656 0.88166 0.0
H1850 H 0.32522 0.46309 0.82534 0.0
H1851 H 0.32083 0.45236 0.79248 0.0
H1852 H 0.35669 0.49716 0.77282 0.0
H1853 H 0.36176 0.50785 0.80566 0.0
C1854 C 0.31738 0.55916 0.88182 0.0
C1855 C 0.32672 0.57472 0.8737 0.0
C1856 C 0.32329 0.5407 0.87796 0.0
C1857 C 0.33859 0.53734 0.86579 0.0
C1858 C 0.34793 0.5528 0.85759 0.0
C1859 C 0.34217 0.57133 0.86163 0.0
C1860 C 0.34453 0.51766 0.86137 0.0
C1861 C 0.34316 0.51125 0.84263 0.0
C1862 C 0.3504 0.50494 0.87562 0.0
C1863 C 0.35254 0.51102 0.8956 0.0
C1864 C 0.36417 0.52645 0.90034 0.0
C1865 C 0.36599 0.53219 0.91917 0.0
C1866 C 0.35634 0.52253 0.93342 0.0
C1867 C 0.34489 0.50708 0.92886 0.0
C1868 C 0.34302 0.50129 0.91004 0.0
C1869 C 0.37667 0.43768 0.82796 0.0
C1870 C 0.36807 0.4223 0.83714 0.0
C1871 C 0.37237 0.45625 0.83319 0.0
C1872 C 0.35912 0.45992 0.84752 0.0
C1873 C 0.351 0.4446 0.85718 0.0
C1874 C 0.35543 0.42597 0.85206 0.0
C1875 C 0.35343 0.47972 0.85202 0.0
C1876 C 0.35474 0.48615 0.87077 0.0
C1877 C 0.34722 0.4924 0.83781 0.0
C1878 C 0.34403 0.48616 0.818 0.0
C1879 C 0.3323 0.47057 0.81403 0.0
C1880 C 0.32967 0.46451 0.7954 0.0
C1881 C 0.33846 0.47408 0.78056 0.0
C1882 C 0.3499 0.48975 0.78434 0.0
C1883 C 0.35268 0.4958 0.80296 0.0
H1884 H 0.3364 0.46937 0.76614 0.0
H1885 H 0.35776 0.527 0.94799 0.0
H1886 H 0.4408 0.81582 0.38583 0.0
H1887 H 0.47261 0.82575 0.37677 0.0
H1888 H 0.449 0.86878 0.34076 0.0
H1889 H 0.41702 0.85896 0.34982 0.0
H1890 H 0.47688 0.84718 0.32299 0.0
H1891 H 0.46924 0.8814 0.38135 0.0
H1892 H 0.46196 0.8848 0.41527 0.0
H1893 H 0.50705 0.84661 0.42903 0.0
H1894 H 0.51444 0.84278 0.39516 0.0
H1895 H 0.56303 0.89253 0.30082 0.0
H1896 H 0.53098 0.88551 0.31148 0.0
H1897 H 0.55338 0.84915 0.35494 0.0
H1898 H 0.58557 0.8568 0.3448 0.0
H1899 H 0.52562 0.8679 0.36906 0.0
H1900 H 0.53299 0.83204 0.31215 0.0
H1901 H 0.54042 0.82655 0.27853 0.0
H1902 H 0.49627 0.86484 0.26225 0.0
H1903 H 0.48873 0.87075 0.2958 0.0
C1904 C 0.44233 0.8275 0.37609 0.0
C1905 C 0.42631 0.83661 0.36858 0.0
C1906 C 0.46056 0.83319 0.37096 0.0
C1907 C 0.46322 0.84808 0.35816 0.0
C1908 C 0.44729 0.85728 0.35068 0.0
C1909 C 0.42901 0.8517 0.35595 0.0
C1910 C 0.48262 0.85362 0.35217 0.0
C1911 C 0.48747 0.85201 0.333 0.0
C1912 C 0.49662 0.85929 0.36532 0.0
C1913 C 0.49228 0.86168 0.3857 0.0
C1914 C 0.47751 0.87362 0.3916 0.0
C1915 C 0.47338 0.87564 0.41082 0.0
C1916 C 0.484 0.86589 0.4243 0.0
C1917 C 0.49882 0.85414 0.41858 0.0
C1918 C 0.503 0.85205 0.39937 0.0
C1919 C 0.56115 0.88303 0.31266 0.0
C1920 C 0.57688 0.87514 0.32189 0.0
C1921 C 0.54277 0.87893 0.31869 0.0
C1922 C 0.53962 0.86646 0.3338 0.0
C1923 C 0.55535 0.85877 0.34322 0.0
C1924 C 0.57377 0.86312 0.33738 0.0
C1925 C 0.51998 0.86148 0.33979 0.0
C1926 C 0.51507 0.86314 0.35897 0.0
C1927 C 0.50598 0.85555 0.32668 0.0
C1928 C 0.51043 0.85198 0.30649 0.0
C1929 C 0.52496 0.83939 0.3014 0.0
C1930 C 0.52917 0.83619 0.28236 0.0
C1931 C 0.51886 0.84538 0.26826 0.0
C1932 C 0.50426 0.85775 0.27319 0.0
C1933 C 0.5 0.86102 0.29221 0.0
H1934 H 0.52214 0.84288 0.25353 0.0
H1935 H 0.48078 0.86747 0.43917 0.0
H1936 H 0.63996 0.16085 0.57645 0.0
H1937 H 0.64484 0.14992 0.54409 0.0
H1938 H 0.63263 0.20581 0.52326 0.0
H1939 H 0.62755 0.21693 0.5557 0.0
H1940 H 0.61697 0.17524 0.50096 0.0
H1941 H 0.67736 0.19399 0.52969 0.0
H1942 H 0.69901 0.19137 0.55693 0.0
H1943 H 0.70438 0.13171 0.54713 0.0
H1944 H 0.68254 0.13393 0.52 0.0
H1945 H 0.65652 0.17456 0.41091 0.0
H1946 H 0.64797 0.18134 0.44351 0.0
H1947 H 0.67646 0.13053 0.46157 0.0
H1948 H 0.68615 0.12436 0.42875 0.0
H1949 H 0.68276 0.15559 0.48632 0.0
H1950 H 0.62584 0.13469 0.45777 0.0
H1951 H 0.60036 0.13289 0.43404 0.0
H1952 H 0.58544 0.19064 0.44535 0.0
H1953 H 0.61101 0.19287 0.46898 0.0
C1954 C 0.63805 0.17081 0.56501 0.0
C1955 C 0.63357 0.18985 0.5687 0.0
C1956 C 0.64085 0.16451 0.54651 0.0
C1957 C 0.63936 0.17712 0.53133 0.0
C1958 C 0.63389 0.19587 0.53482 0.0
C1959 C 0.63104 0.20221 0.55336 0.0
C1960 C 0.64496 0.17112 0.51202 0.0
C1961 C 0.63138 0.17115 0.49763 0.0
C1962 C 0.66358 0.16502 0.50796 0.0
C1963 C 0.67823 0.1641 0.52293 0.0
C1964 C 0.68325 0.18033 0.5333 0.0
C1965 C 0.69548 0.17891 0.54875 0.0
C1966 C 0.70292 0.16135 0.55384 0.0
C1967 C 0.69853 0.14527 0.54321 0.0
C1968 C 0.68626 0.14661 0.52777 0.0
C1969 C 0.66092 0.16478 0.42182 0.0
C1970 C 0.67178 0.14879 0.41729 0.0
C1971 C 0.65591 0.16861 0.44049 0.0
C1972 C 0.661 0.15616 0.45506 0.0
C1973 C 0.67219 0.14029 0.45061 0.0
C1974 C 0.67769 0.13673 0.43188 0.0
C1975 C 0.65481 0.16003 0.47485 0.0
C1976 C 0.6683 0.15961 0.48945 0.0
C1977 C 0.63591 0.16527 0.47921 0.0
C1978 C 0.62045 0.16399 0.46505 0.0
C1979 C 0.61721 0.14705 0.45511 0.0
C1980 C 0.60273 0.14594 0.44169 0.0
C1981 C 0.59131 0.16165 0.43816 0.0
C1982 C 0.59431 0.17848 0.44809 0.0
C1983 C 0.60877 0.17967 0.46152 0.0
H1984 H 0.58012 0.16077 0.42776 0.0
H1985 H 0.71201 0.16018 0.56608 0.0
H1986 H 0.79732 0.12025 0.05364 0.0
H1987 H 0.80955 0.12834 0.02217 0.0
H1988 H 0.84837 0.16803 0.04745 0.0
H1989 H 0.83649 0.15991 0.07878 0.0
H1990 H 0.82855 0.18249 0.01589 0.0
H1991 H 0.86513 0.12776 0.03376 0.0
H1992 H 0.86938 0.09483 0.04424 0.0
H1993 H 0.83975 0.07492 0.99508 0.0
H1994 H 0.83508 0.10778 0.98444 0.0
H1995 H 0.88775 0.20243 0.93799 0.0
H1996 H 0.87656 0.19285 0.96926 0.0
H1997 H 0.84605 0.14634 0.9441 0.0
H1998 H 0.8576 0.15546 0.91298 0.0
H1999 H 0.86098 0.13503 0.97563 0.0
H2000 H 0.82401 0.1885 0.95722 0.0
H2001 H 0.81806 0.22106 0.9464 0.0
H2002 H 0.84593 0.24299 0.99574 0.0
H2003 H 0.85229 0.21054 0.00673 0.0
C2004 C 0.80843 0.13071 0.05246 0.0
C2005 C 0.816 0.13936 0.06871 0.0
C2006 C 0.81544 0.13527 0.03451 0.0
C2007 C 0.82992 0.14873 0.03252 0.0
C2008 C 0.8372 0.15761 0.04868 0.0
C2009 C 0.83044 0.15287 0.06658 0.0
C2010 C 0.83766 0.15356 0.01364 0.0
C2011 C 0.83582 0.17218 0.00714 0.0
C2012 C 0.84671 0.13998 1.00207 0.0
C2013 C 0.84957 0.12023 0.00842 0.0
C2014 C 0.85937 0.11637 0.02527 0.0
C2015 C 0.86189 0.09772 0.03123 0.0
C2016 C 0.85479 0.08279 0.02036 0.0
C2017 C 0.84521 0.0865 1.0035 0.0
C2018 C 0.84263 0.10513 0.99749 0.0
C2019 C 0.87882 0.19004 0.93914 0.0
C2020 C 0.87351 0.17978 0.92294 0.0
C2021 C 0.87232 0.18465 0.95703 0.0
C2022 C 0.86012 0.16907 0.95904 0.0
C2023 C 0.85537 0.15843 0.94296 0.0
C2024 C 0.862 0.1637 0.92512 0.0
C2025 C 0.85196 0.16406 0.97779 0.0
C2026 C 0.85369 0.14538 0.98429 0.0
C2027 C 0.84257 0.17755 0.98927 0.0
C2028 C 0.83881 0.19708 0.98269 0.0
C2029 C 0.82901 0.20026 0.96569 0.0
C2030 C 0.82554 0.2187 0.95954 0.0
C2031 C 0.83166 0.23408 0.97035 0.0
C2032 C 0.84123 0.23106 0.98736 0.0
C2033 C 0.84476 0.21265 0.99356 0.0
H2034 H 0.82895 0.24834 0.96557 0.0
H2035 H 0.85676 0.06836 0.02499 0.0
H2036 H 0.84885 0.34922 0.58573 0.0
H2037 H 0.8397 0.36021 0.55416 0.0
H2038 H 0.87924 0.32126 0.52894 0.0
H2039 H 0.88833 0.31009 0.56033 0.0
H2040 H 0.88011 0.35746 0.51248 0.0
H2041 H 0.83468 0.3096 0.5295 0.0
H2042 H 0.81064 0.29481 0.54991 0.0
H2043 H 0.77575 0.34423 0.5453 0.0
H2044 H 0.79973 0.35944 0.52508 0.0
H2045 H 0.84735 0.35629 0.41753 0.0
H2046 H 0.85763 0.34808 0.44948 0.0
H2047 H 0.81131 0.38022 0.47279 0.0
H2048 H 0.80067 0.38801 0.44091 0.0
H2049 H 0.81396 0.34849 0.49085 0.0
H2050 H 0.85827 0.39643 0.47345 0.0
H2051 H 0.88221 0.41211 0.45361 0.0
H2052 H 0.91902 0.36424 0.45948 0.0
H2053 H 0.89518 0.34816 0.47917 0.0
C2054 C 0.8557 0.3431 0.57347 0.0
C2055 C 0.86926 0.32871 0.57556 0.0
C2056 C 0.85041 0.34935 0.55544 0.0
C2057 C 0.8587 0.34146 0.53919 0.0
C2058 C 0.87266 0.32754 0.54127 0.0
C2059 C 0.87778 0.32112 0.55924 0.0
C2060 C 0.85246 0.34724 0.51998 0.0
C2061 C 0.86569 0.35535 0.50765 0.0
C2062 C 0.83356 0.34489 0.51386 0.0
C2063 C 0.81909 0.33574 0.52595 0.0
C2064 C 0.82196 0.31738 0.53297 0.0
C2065 C 0.80833 0.30891 0.54448 0.0
C2066 C 0.79171 0.3186 0.54894 0.0
C2067 C 0.78865 0.33676 0.54186 0.0
C2068 C 0.80225 0.34531 0.53037 0.0
C2069 C 0.83939 0.36166 0.42946 0.0
C2070 C 0.82319 0.37284 0.42662 0.0
C2071 C 0.84534 0.35703 0.44776 0.0
C2072 C 0.83541 0.36372 0.46365 0.0
C2073 C 0.81923 0.37486 0.46082 0.0
C2074 C 0.81318 0.37935 0.44254 0.0
C2075 C 0.8416 0.35878 0.48319 0.0
C2076 C 0.82836 0.35076 0.49562 0.0
C2077 C 0.86048 0.36138 0.48945 0.0
C2078 C 0.87486 0.37102 0.47763 0.0
C2079 C 0.87141 0.38919 0.47039 0.0
C2080 C 0.88497 0.39816 0.45919 0.0
C2081 C 0.90211 0.38916 0.45525 0.0
C2082 C 0.90573 0.37119 0.46253 0.0
C2083 C 0.89221 0.36214 0.47372 0.0
H2084 H 0.91259 0.39613 0.44658 0.0
H2085 H 0.78117 0.31201 0.55785 0.0
H2086 H 0.66633 0.376 0.90665 0.0
H2087 H 0.6786 0.38678 0.93725 0.0
H2088 H 0.68072 0.32895 0.95651 0.0
H2089 H 0.6674 0.31839 0.92654 0.0
H2090 H 0.66882 0.34755 0.9833 0.0
H2091 H 0.72159 0.35697 0.94237 0.0
H2092 H 0.73881 0.36898 0.91457 0.0
H2093 H 0.7278 0.42605 0.93214 0.0
H2094 H 0.71031 0.41438 0.95993 0.0
H2095 H 0.74784 0.38557 0.05059 0.0
H2096 H 0.73788 0.37778 0.0182 0.0
H2097 H 0.68005 0.3903 0.03305 0.0
H2098 H 0.68978 0.39717 0.0654 0.0
H2099 H 0.72155 0.39343 0.98922 0.0
H2100 H 0.6498 0.36069 0.01278 0.0
H2101 H 0.63631 0.34449 0.04052 0.0
H2102 H 0.69178 0.32643 0.05729 0.0
H2103 H 0.70557 0.34228 0.02952 0.0
C2104 C 0.66939 0.36565 0.91748 0.0
C2105 C 0.66581 0.34637 0.91423 0.0
C2106 C 0.67657 0.37178 0.93494 0.0
C2107 C 0.68092 0.3587 0.94927 0.0
C2108 C 0.67744 0.33942 0.94586 0.0
C2109 C 0.66981 0.33337 0.92866 0.0
C2110 C 0.6886 0.36492 0.96799 0.0
C2111 C 0.68036 0.35758 0.98449 0.0
C2112 C 0.70396 0.37772 0.96979 0.0
C2113 C 0.71448 0.38479 0.95312 0.0
C2114 C 0.72273 0.37208 0.94023 0.0
C2115 C 0.73255 0.37883 0.92449 0.0
C2116 C 0.73435 0.39827 0.92157 0.0
C2117 C 0.72637 0.411 0.93441 0.0
C2118 C 0.71652 0.40433 0.95016 0.0
C2119 C 0.73305 0.38686 0.04682 0.0
C2120 C 0.71955 0.39172 0.06057 0.0
C2121 C 0.72736 0.38241 0.02832 0.0
C2122 C 0.70812 0.38297 0.02324 0.0
C2123 C 0.69488 0.38918 0.03669 0.0
C2124 C 0.70048 0.39322 0.05518 0.0
C2125 C 0.70162 0.37614 1.00434 0.0
C2126 C 0.71002 0.38339 0.98791 0.0
C2127 C 0.68693 0.36261 1.00253 0.0
C2128 C 0.67872 0.35285 0.01917 0.0
C2129 C 0.65911 0.3532 0.02235 0.0
C2130 C 0.65141 0.34409 0.03808 0.0
C2131 C 0.66319 0.33449 0.05069 0.0
C2132 C 0.68268 0.33392 0.04755 0.0
C2133 C 0.69044 0.34298 0.03182 0.0
H2134 H 0.6572 0.32747 0.06287 0.0
H2135 H 0.74196 0.40346 0.90937 0.0
H2136 H 0.87728 0.58063 0.34387 0.0
H2137 H 0.86521 0.54988 0.35344 0.0
H2138 H 0.82386 0.57696 0.38912 0.0
H2139 H 0.83597 0.60807 0.37958 0.0
H2140 H 0.83894 0.54251 0.40453 0.0
H2141 H 0.8088 0.56444 0.34872 0.0
H2142 H 0.80712 0.5788 0.31707 0.0
H2143 H 0.84011 0.53326 0.29421 0.0
H2144 H 0.84216 0.51869 0.32581 0.0
H2145 H 0.78085 0.45721 0.39959 0.0
H2146 H 0.79079 0.49047 0.39815 0.0
H2147 H 0.83887 0.47461 0.36423 0.0
H2148 H 0.82933 0.44149 0.36588 0.0
H2149 H 0.81614 0.50527 0.34945 0.0
H2150 H 0.84704 0.48477 0.40719 0.0
H2151 H 0.84756 0.47127 0.43928 0.0
H2152 H 0.81041 0.51518 0.45876 0.0
H2153 H 0.80946 0.52878 0.42668 0.0
C2154 C 0.86589 0.58011 0.35408 0.0
C2155 C 0.85744 0.59682 0.36079 0.0
C2156 C 0.85898 0.5625 0.35951 0.0
C2157 C 0.84339 0.56116 0.37168 0.0
C2158 C 0.83585 0.57772 0.37964 0.0
C2159 C 0.84282 0.59547 0.37421 0.0
C2160 C 0.83415 0.54253 0.37447 0.0
C2161 C 0.83364 0.53448 0.39256 0.0
C2162 C 0.82721 0.53208 0.35883 0.0
C2163 C 0.82578 0.54056 0.33969 0.0
C2164 C 0.81581 0.55755 0.33697 0.0
C2165 C 0.81478 0.56572 0.31904 0.0
C2166 C 0.82359 0.55701 0.30365 0.0
C2167 C 0.83333 0.54002 0.30615 0.0
C2168 C 0.8344 0.53177 0.32408 0.0
C2169 C 0.7936 0.46082 0.39194 0.0
C2170 C 0.80432 0.4467 0.38288 0.0
C2171 C 0.79926 0.4798 0.39115 0.0
C2172 C 0.81555 0.48496 0.38107 0.0
C2173 C 0.82624 0.47091 0.37206 0.0
C2174 C 0.8208 0.45197 0.3731 0.0
C2175 C 0.8214 0.50503 0.37943 0.0
C2176 C 0.82122 0.51337 0.36147 0.0
C2177 C 0.82737 0.5158 0.39523 0.0
C2178 C 0.82799 0.50765 0.41449 0.0
C2179 C 0.83883 0.49144 0.41827 0.0
C2180 C 0.83924 0.48379 0.43646 0.0
C2181 C 0.82897 0.49232 0.45104 0.0
C2182 C 0.81833 0.50856 0.44745 0.0
C2183 C 0.81785 0.51625 0.42927 0.0
H2184 H 0.82931 0.48639 0.46512 0.0
H2185 H 0.82285 0.56343 0.2898 0.0
H2186 H 0.4518 0.38268 0.79706 0.0
H2187 H 0.48374 0.37566 0.80837 0.0
H2188 H 0.46034 0.34667 0.85658 0.0
H2189 H 0.4285 0.3542 0.84574 0.0
H2190 H 0.48924 0.36587 0.86773 0.0
H2191 H 0.47811 0.3225 0.81721 0.0
H2192 H 0.46939 0.31225 0.78502 0.0
H2193 H 0.51532 0.34453 0.76204 0.0
H2194 H 0.52418 0.35519 0.79408 0.0
H2195 H 0.57354 0.31056 0.88693 0.0
H2196 H 0.54126 0.3203 0.87864 0.0
H2197 H 0.56362 0.36146 0.83979 0.0
H2198 H 0.59578 0.35216 0.84819 0.0
H2199 H 0.5354 0.33557 0.82446 0.0
H2200 H 0.54608 0.3778 0.87737 0.0
H2201 H 0.55432 0.38526 0.91042 0.0
H2202 H 0.5082 0.35098 0.92989 0.0
H2203 H 0.49984 0.34309 0.89693 0.0
C2204 C 0.45348 0.37491 0.81012 0.0
C2205 C 0.4376 0.36897 0.82046 0.0
C2206 C 0.47174 0.3708 0.81653 0.0
C2207 C 0.47449 0.36034 0.83319 0.0
C2208 C 0.45864 0.35474 0.8437 0.0
C2209 C 0.44041 0.35905 0.83745 0.0
C2210 C 0.49382 0.35502 0.83958 0.0
C2211 C 0.49922 0.35905 0.85829 0.0
C2212 C 0.50697 0.34617 0.82732 0.0
C2213 C 0.50168 0.33981 0.80803 0.0
C2214 C 0.48626 0.32754 0.80528 0.0
C2215 C 0.48131 0.32163 0.78706 0.0
C2216 C 0.49175 0.32778 0.77149 0.0
C2217 C 0.50722 0.33981 0.77411 0.0
C2218 C 0.51222 0.34577 0.79229 0.0
C2219 C 0.57157 0.32186 0.87683 0.0
C2220 C 0.58723 0.3306 0.86826 0.0
C2221 C 0.55315 0.32739 0.87211 0.0
C2222 C 0.55012 0.34156 0.85857 0.0
C2223 C 0.56569 0.35049 0.85024 0.0
C2224 C 0.58406 0.34521 0.85516 0.0
C2225 C 0.53073 0.34659 0.85245 0.0
C2226 C 0.52535 0.34242 0.83382 0.0
C2227 C 0.51749 0.35489 0.86489 0.0
C2228 C 0.52247 0.35969 0.88469 0.0
C2229 C 0.5378 0.37171 0.8887 0.0
C2230 C 0.54247 0.37605 0.90742 0.0
C2231 C 0.53183 0.36855 0.92225 0.0
C2232 C 0.51645 0.35675 0.91839 0.0
C2233 C 0.51173 0.35235 0.89969 0.0
H2234 H 0.53547 0.37193 0.93673 0.0
H2235 H 0.4879 0.32319 0.75741 0.0
H2236 H 0.62022 0.1089 0.33327 0.0
H2237 H 0.61074 0.0771 0.32272 0.0
H2238 H 0.66232 0.05419 0.34568 0.0
H2239 H 0.67178 0.08547 0.35625 0.0
H2240 H 0.65649 0.04239 0.30962 0.0
H2241 H 0.6217 0.04713 0.36803 0.0
H2242 H 0.59889 0.0614 0.3902 0.0
H2243 H 0.55437 0.05407 0.34953 0.0
H2244 H 0.577 0.03997 0.32701 0.0
H2245 H 0.61935 0.94298 0.32937 0.0
H2246 H 0.62116 0.97647 0.33768 0.0
H2247 H 0.62084 0.99117 0.27858 0.0
H2248 H 0.61897 0.9576 0.2701 0.0
H2249 H 0.59914 0.00803 0.33072 0.0
H2250 H 0.65413 0.02782 0.27383 0.0
H2251 H 0.6789 0.01273 0.25442 0.0
H2252 H 0.68589 0.96952 0.29636 0.0
H2253 H 0.66143 0.98454 0.31615 0.0
C2254 C 0.62941 0.09704 0.33625 0.0
C2255 C 0.64678 0.09981 0.34558 0.0
C2256 C 0.62399 0.07889 0.33019 0.0
C2257 C 0.6359 0.06328 0.33331 0.0
C2258 C 0.65299 0.06601 0.34296 0.0
C2259 C 0.65832 0.08398 0.34909 0.0
C2260 C 0.63106 0.04404 0.32628 0.0
C2261 C 0.64382 0.03497 0.31406 0.0
C2262 C 0.61468 0.03424 0.33225 0.0
C2263 C 0.60108 0.04272 0.34575 0.0
C2264 C 0.60708 0.04873 0.36375 0.0
C2265 C 0.59418 0.05675 0.37639 0.0
C2266 C 0.5752 0.0587 0.37125 0.0
C2267 C 0.56908 0.05258 0.35348 0.0
C2268 C 0.58194 0.04457 0.34077 0.0
C2269 C 0.61944 0.95332 0.31811 0.0
C2270 C 0.61914 0.94758 0.29905 0.0
C2271 C 0.62037 0.97249 0.3229 0.0
C2272 C 0.62126 0.98633 0.30877 0.0
C2273 C 0.62028 0.98072 0.28972 0.0
C2274 C 0.61917 0.96152 0.2849 0.0
C2275 C 0.62457 0.00643 0.31404 0.0
C2276 C 0.61157 0.01562 0.32594 0.0
C2277 C 0.64092 0.01627 0.30805 0.0
C2278 C 0.65573 0.00715 0.29631 0.0
C2279 C 0.66097 0.01511 0.27891 0.0
C2280 C 0.67497 0.00658 0.26785 0.0
C2281 C 0.68389 0.99012 0.27411 0.0
C2282 C 0.6789 0.98221 0.29148 0.0
C2283 C 0.66495 0.99072 0.30261 0.0
H2284 H 0.69471 0.98353 0.26552 0.0
H2285 H 0.56523 0.0649 0.38107 0.0
H2286 H 0.08185 0.13213 0.83943 0.0
H2287 H 0.04852 0.13613 0.84722 0.0
H2288 H 0.03305 0.12012 0.79042 0.0
H2289 H 0.06655 0.11625 0.78239 0.0
H2290 H 0.0141 0.15154 0.80199 0.0
H2291 H 0.02582 0.08981 0.82688 0.0
H2292 H 0.04279 0.06571 0.84542 0.0
H2293 H 0.03214 0.09699 0.8964 0.0
H2294 H 0.01533 0.12143 0.87813 0.0
H2295 H 0.91576 0.1453 0.82545 0.0
H2296 H 0.94743 0.13432 0.8164 0.0
H2297 H 0.9705 0.15849 0.86744 0.0
H2298 H 0.93905 0.16994 0.87632 0.0
H2299 H 0.98433 0.12039 0.85728 0.0
H2300 H 0.97673 0.18329 0.83302 0.0
H2301 H 0.96024 0.20852 0.81561 0.0
H2302 H 0.96358 0.17582 0.76451 0.0
H2303 H 0.97987 0.15021 0.78173 0.0
C2304 C 0.07139 0.1293 0.82858 0.0
C2305 C 0.07691 0.12381 0.81027 0.0
C2306 C 0.0523 0.13154 0.83311 0.0
C2307 C 0.03824 0.12823 0.81948 0.0
C2308 C 0.04365 0.1227 0.80118 0.0
C2309 C 0.06281 0.12042 0.79664 0.0
C2310 C 0.01797 0.13119 0.82429 0.0
C2311 C 0.0075 0.1444 0.81382 0.0
C2312 C 0.00944 0.12226 0.84004 0.0
C2313 C 0.01943 0.10752 0.8511 0.0
C2314 C 0.02721 0.09162 0.84203 0.0
C2315 C 0.03678 0.07789 0.85249 0.0
C2316 C 0.03857 0.07984 0.87207 0.0
C2317 C 0.03075 0.0955 0.88123 0.0
C2318 C 0.02117 0.10929 0.87083 0.0
C2319 C 0.92754 0.148 0.83487 0.0
C2320 C 0.92496 0.1585 0.85157 0.0
C2321 C 0.9456 0.14179 0.82966 0.0
C2322 C 0.96126 0.14565 0.84125 0.0
C2323 C 0.95857 0.15534 0.85835 0.0
C2324 C 0.94062 0.16191 0.86336 0.0
C2325 C 0.98065 0.14069 0.83501 0.0
C2326 C 0.99092 0.12722 0.84525 0.0
C2327 C 0.98905 0.14944 0.81915 0.0
C2328 C 0.9793 0.16475 0.8087 0.0
C2329 C 0.97377 0.18139 0.81811 0.0
C2330 C 0.9645 0.19577 0.80828 0.0
C2331 C 0.96084 0.19376 0.78898 0.0
C2332 C 0.96642 0.17734 0.77947 0.0
C2333 C 0.97568 0.16289 0.78926 0.0
H2334 H 0.95378 0.20498 0.78141 0.0
H2335 H 0.04599 0.06919 0.88015 0.0
H2336 H 0.85966 0.09503 0.15706 0.0
H2337 H 0.87024 0.06312 0.16529 0.0
H2338 H 0.83311 0.03972 0.12285 0.0
H2339 H 0.82226 0.07139 0.11485 0.0
H2340 H 0.82793 0.0223 0.15506 0.0
H2341 H 0.88209 0.03935 0.11808 0.0
H2342 H 0.90913 0.05913 0.10851 0.0
H2343 H 0.93405 0.05241 0.16344 0.0
H2344 H 0.90703 0.03279 0.17343 0.0
H2345 H 0.85775 0.92722 0.16622 0.0
H2346 H 0.85282 0.9582 0.15158 0.0
H2347 H 0.88666 0.98435 0.19513 0.0
H2348 H 0.89178 0.95358 0.20969 0.0
H2349 H 0.89407 0.99975 0.16077 0.0
H2350 H 0.83938 0.98473 0.19831 0.0
H2351 H 0.81237 0.96518 0.20844 0.0
H2352 H 0.78845 0.96859 0.15276 0.0
H2353 H 0.81549 0.98794 0.14221 0.0
C2354 C 0.85404 0.08311 0.14923 0.0
C2355 C 0.84005 0.08576 0.13537 0.0
C2356 C 0.86011 0.06485 0.15394 0.0
C2357 C 0.85248 0.04896 0.14468 0.0
C2358 C 0.83913 0.05171 0.13027 0.0
C2359 C 0.83298 0.06987 0.12568 0.0
C2360 C 0.85727 0.02943 0.15085 0.0
C2361 C 0.8424 0.01729 0.15595 0.0
C2362 C 0.87615 0.02298 0.15253 0.0
C2363 C 0.89244 0.03473 0.14655 0.0
C2364 C 0.89326 0.04221 0.12817 0.0
C2365 C 0.9086 0.05337 0.12266 0.0
C2366 C 0.92328 0.05706 0.13538 0.0
C2367 C 0.92267 0.04956 0.15361 0.0
C2368 C 0.90735 0.03839 0.1592 0.0
C2369 C 0.86432 0.93953 0.17254 0.0
C2370 C 0.87502 0.93792 0.18922 0.0
C2371 C 0.86145 0.95724 0.1642 0.0
C2372 C 0.86921 0.97363 0.17239 0.0
C2373 C 0.88053 0.97192 0.18856 0.0
C2374 C 0.88335 0.95429 0.19693 0.0
C2375 C 0.86473 0.9927 0.16482 0.0
C2376 C 0.87962 1.00475 0.15961 0.0
C2377 C 0.84588 0.99913 0.16307 0.0
C2378 C 0.82956 0.9876 0.16941 0.0
C2379 C 0.82844 0.98118 0.18818 0.0
C2380 C 0.81311 0.97016 0.19401 0.0
C2381 C 0.79873 0.9656 0.18124 0.0
C2382 C 0.79962 0.9721 0.16262 0.0
C2383 C 0.81494 0.9831 0.15671 0.0
H2384 H 0.78688 0.95707 0.18577 0.0
H2385 H 0.93514 0.06571 0.13109 0.0
H2386 H 0.10236 0.33287 0.64537 0.0
H2387 H 0.07111 0.32321 0.63406 0.0
H2388 H 0.04506 0.36389 0.67139 0.0
H2389 H 0.07616 0.37309 0.6832 0.0
H2390 H 0.02701 0.33256 0.67412 0.0
H2391 H 0.04823 0.36979 0.62171 0.0
H2392 H 0.06984 0.3796 0.59621 0.0
H2393 H 0.0647 0.3249 0.5703 0.0
H2394 H 0.04323 0.31468 0.59579 0.0
H2395 H 0.93521 0.33463 0.636 0.0
H2396 H 0.96775 0.34395 0.64261 0.0
H2397 H 0.98805 0.29374 0.6146 0.0
H2398 H 0.95535 0.28414 0.60797 0.0
H2399 H 0.00915 0.32817 0.60641 0.0
H2400 H 0.98631 0.29214 0.65939 0.0
H2401 H 0.96314 0.28437 0.68422 0.0
H2402 H 0.97041 0.33945 0.70877 0.0
H2403 H 0.99337 0.34768 0.68387 0.0
C2404 C 0.08998 0.33988 0.65102 0.0
C2405 C 0.09176 0.35375 0.66519 0.0
C2406 C 0.07209 0.33439 0.6445 0.0
C2407 C 0.05564 0.34291 0.65173 0.0
C2408 C 0.05748 0.35702 0.66562 0.0
C2409 C 0.0753 0.36233 0.67232 0.0
C2410 C 0.03648 0.33672 0.64545 0.0
C2411 C 0.02311 0.33185 0.6593 0.0
C2412 C 0.03138 0.33531 0.6261 0.0
C2413 C 0.04429 0.34141 0.61077 0.0
C2414 C 0.05183 0.35981 0.61066 0.0
C2415 C 0.06403 0.36545 0.59619 0.0
C2416 C 0.06868 0.35286 0.58167 0.0
C2417 C 0.0611 0.33462 0.58157 0.0
C2418 C 0.04891 0.3289 0.59601 0.0
C2419 C 0.94655 0.32562 0.63101 0.0
C2420 C 0.94264 0.30854 0.62154 0.0
C2421 C 0.96515 0.33098 0.63486 0.0
C2422 C 0.98028 0.31945 0.62926 0.0
C2423 C 0.97655 0.30282 0.61905 0.0
C2424 C 0.95787 0.29733 0.61533 0.0
C2425 C 0.99983 0.32434 0.63507 0.0
C2426 C 0.01321 0.32887 0.62118 0.0
C2427 C 1.0049 0.32568 0.65438 0.0
C2428 C 0.99145 0.32058 0.66966 0.0
C2429 C 0.98288 0.30264 0.67001 0.0
C2430 C 0.96979 0.29815 0.68411 0.0
C2431 C 0.96527 0.31142 0.69804 0.0
C2432 C 0.97391 0.32919 0.69796 0.0
C2433 C 0.98697 0.33377 0.68386 0.0
H2434 H 0.95511 0.30792 0.70892 0.0
H2435 H 0.07812 0.35726 0.57048 0.0
H2436 H 0.71839 0.45253 0.13164 0.0
H2437 H 0.70544 0.4839 0.13717 0.0
H2438 H 0.64889 0.46174 0.13081 0.0
H2439 H 0.66192 0.42991 0.12624 0.0
H2440 H 0.68751 0.50754 0.11813 0.0
H2441 H 0.61746 0.48816 0.15556 0.0
H2442 H 0.60429 0.46296 0.17572 0.0
H2443 H 0.66003 0.44944 0.19562 0.0
H2444 H 0.67348 0.47469 0.17576 0.0
H2445 H 0.64052 0.59551 0.1342 0.0
H2446 H 0.64744 0.56309 0.12376 0.0
H2447 H 0.65403 0.54603 0.18195 0.0
H2448 H 0.64611 0.57778 0.1923 0.0
H2449 H 0.63764 0.51956 0.16586 0.0
H2450 H 0.69266 0.5562 0.14965 0.0
H2451 H 0.71036 0.58188 0.13413 0.0
H2452 H 0.69248 0.5616 0.07972 0.0
H2453 H 0.6745 0.53591 0.09495 0.0
C2454 C 0.70317 0.45429 0.13145 0.0
C2455 C 0.69117 0.4387 0.12858 0.0
C2456 C 0.69576 0.47232 0.13453 0.0
C2457 C 0.67613 0.47535 0.13455 0.0
C2458 C 0.66407 0.45982 0.13128 0.0
C2459 C 0.67151 0.44162 0.12859 0.0
C2460 C 0.66859 0.49474 0.13827 0.0
C2461 C 0.67654 0.51012 0.12854 0.0
C2462 C 0.65442 0.49832 0.15197 0.0
C2463 C 0.64647 0.48313 0.16398 0.0
C2464 C 0.62688 0.47982 0.16426 0.0
C2465 C 0.61938 0.46553 0.17563 0.0
C2466 C 0.63132 0.45456 0.18688 0.0
C2467 C 0.6508 0.45789 0.18684 0.0
C2468 C 0.65837 0.47217 0.17551 0.0
C2469 C 0.64333 0.58475 0.14469 0.0
C2470 C 0.64271 0.5892 0.16406 0.0
C2471 C 0.64739 0.56624 0.13874 0.0
C2472 C 0.65151 0.552 0.15203 0.0
C2473 C 0.65077 0.55656 0.17134 0.0
C2474 C 0.64629 0.57483 0.17726 0.0
C2475 C 0.65699 0.53243 0.14617 0.0
C2476 C 0.6485 0.51698 0.15534 0.0
C2477 C 0.67131 0.52885 0.13262 0.0
C2478 C 0.68205 0.5443 0.12344 0.0
C2479 C 0.69239 0.55731 0.13438 0.0
C2480 C 0.70249 0.57185 0.12564 0.0
C2481 C 0.70249 0.57341 0.10596 0.0
C2482 C 0.69243 0.5604 0.09497 0.0
C2483 C 0.68229 0.54584 0.10364 0.0
H2484 H 0.71033 0.58467 0.09921 0.0
H2485 H 0.62549 0.4435 0.19567 0.0
H2486 H 0.44959 0.13953 0.71682 0.0
H2487 H 0.48135 0.14773 0.70628 0.0
H2488 H 0.46459 0.13797 0.64837 0.0
H2489 H 0.43236 0.13088 0.65889 0.0
H2490 H 0.50802 0.13085 0.6912 0.0
H2491 H 0.49075 0.16327 0.61792 0.0
H2492 H 0.46504 0.18088 0.60227 0.0
H2493 H 0.44624 0.2019 0.65605 0.0
H2494 H 0.47196 0.18461 0.67199 0.0
H2495 H 0.5956 0.1446 0.64421 0.0
H2496 H 0.56339 0.13504 0.65261 0.0
H2497 H 0.54639 0.19363 0.65399 0.0
H2498 H 0.57817 0.20307 0.6446 0.0
H2499 H 0.51988 0.17588 0.63897 0.0
H2500 H 0.55545 0.16554 0.69535 0.0
H2501 H 0.58118 0.15284 0.71513 0.0
H2502 H 0.56327 0.09622 0.7024 0.0
H2503 H 0.53756 0.1086 0.68234 0.0
C2504 C 0.45265 0.1392 0.70182 0.0
C2505 C 0.43845 0.13466 0.68867 0.0
C2506 C 0.47088 0.14383 0.69579 0.0
C2507 C 0.4755 0.1437 0.67647 0.0
C2508 C 0.46139 0.13869 0.66331 0.0
C2509 C 0.44297 0.13452 0.66933 0.0
C2510 C 0.49507 0.14881 0.6703 0.0
C2511 C 0.51055 0.1407 0.67975 0.0
C2512 C 0.49859 0.16193 0.65561 0.0
C2513 C 0.48314 0.17246 0.64615 0.0
C2514 C 0.48115 0.17169 0.62639 0.0
C2515 C 0.46658 0.18161 0.61747 0.0
C2516 C 0.45397 0.19245 0.62817 0.0
C2517 C 0.45596 0.19344 0.6478 0.0
C2518 C 0.47052 0.18357 0.65678 0.0
C2519 C 0.58496 0.1554 0.64632 0.0
C2520 C 0.58943 0.17457 0.64376 0.0
C2521 C 0.56654 0.14995 0.65122 0.0
C2522 C 0.55237 0.1636 0.65423 0.0
C2523 C 0.55692 0.18276 0.65168 0.0
C2524 C 0.57516 0.18816 0.64637 0.0
C2525 C 0.53281 0.15809 0.66002 0.0
C2526 C 0.51733 0.16601 0.6504 0.0
C2527 C 0.52928 0.1455 0.67516 0.0
C2528 C 0.54472 0.13799 0.68719 0.0
C2529 C 0.55709 0.15038 0.69666 0.0
C2530 C 0.57165 0.14324 0.70794 0.0
C2531 C 0.57389 0.12373 0.70998 0.0
C2532 C 0.56154 0.11133 0.70078 0.0
C2533 C 0.54696 0.1184 0.68946 0.0
H2534 H 0.58517 0.11823 0.71872 0.0
H2535 H 0.4427 0.2001 0.62124 0.0
H2536 H 0.38887 0.79404 0.45439 0.0
H2537 H 0.38168 0.80426 0.4867 0.0
H2538 H 0.35373 0.85385 0.46493 0.0
H2539 H 0.36141 0.8441 0.43281 0.0
H2540 H 0.37258 0.86362 0.49432 0.0
H2541 H 0.32931 0.81356 0.48064 0.0
H2542 H 0.31905 0.78162 0.4711 0.0
H2543 H 0.34961 0.75768 0.51772 0.0
H2544 H 0.36029 0.78947 0.52738 0.0
H2545 H 0.31556 0.88354 0.57653 0.0
H2546 H 0.32587 0.87468 0.54457 0.0
H2547 H 0.36438 0.83382 0.56814 0.0
H2548 H 0.35448 0.84277 0.60001 0.0
H2549 H 0.34046 0.81972 0.53843 0.0
H2550 H 0.38261 0.87178 0.55185 0.0
H2551 H 0.39025 0.90452 0.56113 0.0
H2552 H 0.35813 0.92552 0.51414 0.0
H2553 H 0.35006 0.89289 0.50474 0.0
C2554 C 0.38133 0.8072 0.45652 0.0
C2555 C 0.37569 0.81821 0.44099 0.0
C2556 C 0.3771 0.81297 0.475 0.0
C2557 C 0.36685 0.8297 0.47831 0.0
C2558 C 0.36163 0.8409 0.46282 0.0
C2559 C 0.36603 0.83527 0.44441 0.0
C2560 C 0.36133 0.83552 0.49782 0.0
C2561 C 0.36538 0.85404 0.50384 0.0
C2562 C 0.35207 0.82303 0.51044 0.0
C2563 C 0.3458 0.80388 0.50459 0.0
C2564 C 0.33399 0.80147 0.48875 0.0
C2565 C 0.32808 0.78339 0.48334 0.0
C2566 C 0.33373 0.76762 0.49376 0.0
C2567 C 0.34528 0.7699 0.50964 0.0
C2568 C 0.35127 0.78794 0.51509 0.0
C2569 C 0.32634 0.87279 0.5749 0.0
C2570 C 0.33426 0.86394 0.59082 0.0
C2571 C 0.33221 0.86776 0.55665 0.0
C2572 C 0.3459 0.85361 0.55403 0.0
C2573 C 0.35381 0.84477 0.56987 0.0
C2574 C 0.3482 0.85 0.58808 0.0
C2575 C 0.35174 0.8477 0.53476 0.0
C2576 C 0.34772 0.8292 0.52883 0.0
C2577 C 0.36068 0.86029 0.52211 0.0
C2578 C 0.36557 0.8799 0.52771 0.0
C2579 C 0.37703 0.88338 0.5436 0.0
C2580 C 0.38147 0.90192 0.54886 0.0
C2581 C 0.37464 0.91709 0.53826 0.0
C2582 C 0.36339 0.91376 0.52235 0.0
C2583 C 0.35889 0.89525 0.51704 0.0
H2584 H 0.37809 0.93143 0.54235 0.0
H2585 H 0.32912 0.75364 0.48956 0.0
H2586 H 0.14273 0.84333 0.08712 0.0
H2587 H 0.14845 0.85167 0.05423 0.0
H2588 H 0.11463 0.80424 0.03601 0.0
H2589 H 0.10929 0.79544 0.06904 0.0
H2590 H 0.14558 0.80543 0.01601 0.0
H2591 H 0.09881 0.85111 0.03235 0.0
H2592 H 0.0838 0.87621 0.05135 0.0
H2593 H 0.13173 0.91229 0.04221 0.0
H2594 H 0.14715 0.88731 0.02336 0.0
H2595 H 0.14786 0.83688 0.91956 0.0
H2596 H 0.13569 0.82878 0.95099 0.0
H2597 H 0.17451 0.86839 0.97641 0.0
H2598 H 0.18684 0.87641 0.94519 0.0
H2599 H 0.13783 0.87058 0.99145 0.0
H2600 H 0.1852 0.82346 0.9772 0.0
H2601 H 0.1998 0.79826 0.958 0.0
H2602 H 0.14937 0.76483 0.96289 0.0
H2603 H 0.13436 0.78998 0.9819 0.0
C2604 C 0.13631 0.83476 0.07616 0.0
C2605 C 0.12548 0.81874 0.08077 0.0
C2606 C 0.13954 0.8396 0.05729 0.0
C2607 C 0.13176 0.82876 0.04254 0.0
C2608 C 0.12076 0.81287 0.0471 0.0
C2609 C 0.11765 0.8079 0.06601 0.0
C2610 C 0.13583 0.83359 0.02244 0.0
C2611 C 0.1435 0.8196 0.01057 0.0
C2612 C 0.13347 0.85215 0.0153 0.0
C2613 C 0.1242 0.86727 0.02655 0.0
C2614 C 0.10621 0.86435 0.03449 0.0
C2615 C 0.09762 0.87856 0.04522 0.0
C2616 C 0.10682 0.89582 0.04802 0.0
C2617 C 0.12462 0.89891 0.04004 0.0
C2618 C 0.13328 0.88474 0.02931 0.0
C2619 C 0.15371 0.84394 0.93183 0.0
C2620 C 0.16838 0.85723 0.92986 0.0
C2621 C 0.14678 0.83926 0.94978 0.0
C2622 C 0.15426 0.84792 0.96605 0.0
C2623 C 0.16852 0.86155 0.96406 0.0
C2624 C 0.17561 0.86605 0.94619 0.0
C2625 C 0.14769 0.84249 0.98524 0.0
C2626 C 0.13962 0.85638 0.9969 0.0
C2627 C 0.14955 0.82383 0.99214 0.0
C2628 C 0.15858 0.80869 0.98077 0.0
C2629 C 0.17716 0.81081 0.97403 0.0
C2630 C 0.18552 0.79652 0.96322 0.0
C2631 C 0.1755 0.77998 0.95918 0.0
C2632 C 0.1571 0.77767 0.966 0.0
C2633 C 0.14866 0.79193 0.9768 0.0
H2634 H 0.182 0.76893 0.95081 0.0
H2635 H 0.10015 0.90681 0.05633 0.0
H2636 H 0.1577 0.65834 0.59186 0.0
H2637 H 0.14877 0.6642 0.55899 0.0
H2638 H 0.19211 0.62562 0.54017 0.0
H2639 H 0.20144 0.62012 0.57293 0.0
H2640 H 0.19329 0.65584 0.51947 0.0
H2641 H 0.14362 0.61434 0.53914 0.0
H2642 H 0.11758 0.60311 0.55938 0.0
H2643 H 0.08637 0.65389 0.54813 0.0
H2644 H 0.11234 0.66555 0.52802 0.0
H2645 H 0.16202 0.65278 0.42352 0.0
H2646 H 0.16902 0.64286 0.45597 0.0
H2647 H 0.13144 0.68581 0.47741 0.0
H2648 H 0.1244 0.69581 0.44516 0.0
H2649 H 0.12722 0.6519 0.4962 0.0
H2650 H 0.1777 0.69362 0.47755 0.0
H2651 H 0.2037 0.70454 0.4571 0.0
H2652 H 0.23335 0.65242 0.46629 0.0
H2653 H 0.20737 0.64107 0.48659 0.0
C2654 C 0.16524 0.65099 0.58073 0.0
C2655 C 0.18028 0.63874 0.58507 0.0
C2656 C 0.16007 0.65429 0.56191 0.0
C2657 C 0.16961 0.6452 0.547 0.0
C2658 C 0.18451 0.63283 0.55135 0.0
C2659 C 0.1898 0.62966 0.57014 0.0
C2660 C 0.16452 0.64903 0.52689 0.0
C2661 C 0.17887 0.65464 0.51435 0.0
C2662 C 0.14567 0.64788 0.52016 0.0
C2663 C 0.13 0.64089 0.53221 0.0
C2664 C 0.13126 0.62318 0.5411 0.0
C2665 C 0.1165 0.61672 0.55253 0.0
C2666 C 0.10035 0.6278 0.55508 0.0
C2667 C 0.0989 0.64534 0.54616 0.0
C2668 C 0.11363 0.65187 0.53473 0.0
C2669 C 0.15511 0.66 0.43513 0.0
C2670 C 0.14272 0.67516 0.43172 0.0
C2671 C 0.15919 0.65436 0.45368 0.0
C2672 C 0.15087 0.66371 0.46915 0.0
C2673 C 0.13803 0.6784 0.46573 0.0
C2674 C 0.13408 0.68415 0.44725 0.0
C2675 C 0.15597 0.65866 0.48892 0.0
C2676 C 0.14164 0.6529 0.50136 0.0
C2677 C 0.17484 0.65959 0.49555 0.0
C2678 C 0.1905 0.66641 0.48342 0.0
C2679 C 0.18969 0.68442 0.47508 0.0
C2680 C 0.20443 0.6907 0.46354 0.0
C2681 C 0.22014 0.67916 0.46035 0.0
C2682 C 0.22116 0.66133 0.46875 0.0
C2683 C 0.20643 0.65497 0.48028 0.0
H2684 H 0.23155 0.68405 0.45142 0.0
H2685 H 0.08894 0.62278 0.56393 0.0
H2686 H 0.33004 0.64133 0.10577 0.0
H2687 H 0.31984 0.63091 0.07436 0.0
H2688 H 0.36203 0.66677 0.04885 0.0
H2689 H 0.37181 0.67767 0.0801 0.0
H2690 H 0.33062 0.6716 0.03132 0.0
H2691 H 0.36548 0.6168 0.05065 0.0
H2692 H 0.37415 0.59023 0.0714 0.0
H2693 H 0.31821 0.56727 0.0658 0.0
H2694 H 0.30914 0.59386 0.0452 0.0
H2695 H 0.33291 0.63558 0.93873 0.0
H2696 H 0.34148 0.64097 0.97167 0.0
H2697 H 0.28904 0.61574 0.98966 0.0
H2698 H 0.28014 0.61039 0.95648 0.0
H2699 H 0.32313 0.60475 0.01132 0.0
H2700 H 0.28959 0.65998 0.99012 0.0
H2701 H 0.28292 0.68596 0.96794 0.0
H2702 H 0.33899 0.70776 0.9762 0.0
H2703 H 0.34612 0.6817 0.99818 0.0
C2704 C 0.3373 0.6468 0.09347 0.0
C2705 C 0.35173 0.66035 0.09546 0.0
C2706 C 0.33148 0.6408 0.07549 0.0
C2707 C 0.34021 0.64795 0.05914 0.0
C2708 C 0.35497 0.66109 0.06118 0.0
C2709 C 0.36062 0.66727 0.0791 0.0
C2710 C 0.33352 0.6425 0.03987 0.0
C2711 C 0.32921 0.65696 0.02697 0.0
C2712 C 0.33117 0.62341 0.03417 0.0
C2713 C 0.33657 0.60743 0.04656 0.0
C2714 C 0.35498 0.60617 0.05398 0.0
C2715 C 0.35998 0.59109 0.06568 0.0
C2716 C 0.34672 0.5771 0.06997 0.0
C2717 C 0.32845 0.57813 0.0625 0.0
C2718 C 0.32338 0.5932 0.0508 0.0
C2719 C 0.32321 0.63096 0.94963 0.0
C2720 C 0.30576 0.62262 0.94492 0.0
C2721 C 0.32816 0.6341 0.96848 0.0
C2722 C 0.31585 0.62888 0.98308 0.0
C2723 C 0.29873 0.61987 0.97856 0.0
C2724 C 0.29365 0.61688 0.95961 0.0
C2725 C 0.3206 0.63384 1.00293 0.0
C2726 C 0.32448 0.61935 0.01586 0.0
C2727 C 0.3228 0.65288 0.00863 0.0
C2728 C 0.31844 0.66878 0.99568 0.0
C2729 C 0.30055 0.67023 0.98711 0.0
C2730 C 0.29668 0.68498 0.97458 0.0
C2731 C 0.31054 0.69848 0.97063 0.0
C2732 C 0.32828 0.69728 0.97925 0.0
C2733 C 0.33223 0.68253 0.99176 0.0
H2734 H 0.30752 0.70988 0.96091 0.0
H2735 H 0.35062 0.56543 0.07903 0.0
loop_
_geom_bond_atom_site_label_1
_geom_bond_atom_site_label_2
_geom_bond_distance
_geom_bond_site_symmetry_2
_ccdc_geom_bond_type
C0 O2 1.247 . S
C0 O4 1.258 . S
C1 O8 1.247 . S
C1 O9 1.258 . S
O2 C0 1.247 . S
O2 Zn3 2.028 . S
Zn3 O2 2.028 . S
Zn3 O7 2.035 . S
Zn3 O9 2.035 . S
Zn3 O10 2.028 . S
O4 C0 1.258 . S
O4 Zn5 2.035 . S
Zn5 O4 2.035 . S
Zn5 O6 2.028 . S
Zn5 O8 2.028 . S
Zn5 O11 2.035 . S
O6 Zn5 2.028 . S
O6 C12 1.247 . S
O7 Zn3 2.035 . S
O7 C12 1.258 . S
O8 C1 1.247 . S
O8 Zn5 2.028 . S
O9 C1 1.258 . S
O9 Zn3 2.035 . S
O10 Zn3 2.028 . S
O10 C13 1.247 . S
O11 Zn5 2.035 . S
O11 C13 1.258 . S
C12 O6 1.247 . S
C12 O7 1.258 . S
C13 O10 1.247 . S
C13 O11 1.258 . S
C14 O16 1.247 . S
C14 O18 1.258 . S
C15 O22 1.247 . S
C15 O23 1.258 . S
O16 C14 1.247 . S
O16 Zn17 2.028 . S
Zn17 O16 2.028 . S
Zn17 O21 2.035 . S
Zn17 O23 2.035 . S
Zn17 O24 2.028 . S
O18 C14 1.258 . S
O18 Zn19 2.035 . S
Zn19 O18 2.035 . S
Zn19 O20 2.028 . S
Zn19 O22 2.028 . S
Zn19 O25 2.035 . S
O20 Zn19 2.028 . S
O20 C26 1.247 . S
O21 Zn17 2.035 . S
O21 C26 1.258 . S
O22 C15 1.247 . S
O22 Zn19 2.028 . S
O23 C15 1.258 . S
O23 Zn17 2.035 . S
O24 Zn17 2.028 . S
O24 C27 1.247 . S
O25 Zn19 2.035 . S
O25 C27 1.258 . S
C26 O20 1.247 . S
C26 O21 1.258 . S
C27 O24 1.247 . S
C27 O25 1.258 . S
C28 O30 1.247 . S
C28 O32 1.258 . S
C29 O36 1.247 . S
C29 O37 1.258 . S
O30 C28 1.247 . S
O30 Zn31 2.028 . S
Zn31 O30 2.028 . S
Zn31 O35 2.035 . S
Zn31 O37 2.035 . S
Zn31 O38 2.028 . S
O32 C28 1.258 . S
O32 Zn33 2.035 . S
Zn33 O32 2.035 . S
Zn33 O34 2.028 . S
Zn33 O36 2.028 . S
Zn33 O39 2.035 . S
O34 Zn33 2.028 . S
O34 C40 1.247 . S
O35 Zn31 2.035 . S
O35 C40 1.258 . S
O36 C29 1.247 . S
O36 Zn33 2.028 . S
O37 C29 1.258 . S
O37 Zn31 2.035 . S
O38 Zn31 2.028 . S
O38 C41 1.247 . S
O39 Zn33 2.035 . S
O39 C41 1.258 . S
C40 O34 1.247 . S
C40 O35 1.258 . S
C41 O38 1.247 . S
C41 O39 1.258 . S
C42 O44 1.247 . S
C42 O46 1.258 . S
C43 O50 1.247 . S
C43 O51 1.258 . S
O44 C42 1.247 . S
O44 Zn45 2.028 . S
Zn45 O44 2.028 . S
Zn45 O49 2.035 . S
Zn45 O51 2.035 . S
Zn45 O52 2.028 . S
O46 C42 1.258 . S
O46 Zn47 2.035 . S
Zn47 O46 2.035 . S
Zn47 O48 2.028 . S
Zn47 O50 2.028 . S
Zn47 O53 2.035 . S
O48 Zn47 2.028 . S
O48 C54 1.247 . S
O49 Zn45 2.035 . S
O49 C54 1.258 . S
O50 C43 1.247 . S
O50 Zn47 2.028 . S
O51 C43 1.258 . S
O51 Zn45 2.035 . S
O52 Zn45 2.028 . S
O52 C55 1.247 . S
O53 Zn47 2.035 . S
O53 C55 1.258 . S
C54 O48 1.247 . S
C54 O49 1.258 . S
C55 O52 1.247 . S
C55 O53 1.258 . S
C56 O58 1.247 . S
C56 O60 1.258 . S
C57 O64 1.247 . S
C57 O65 1.258 . S
O58 C56 1.247 . S
O58 Zn59 2.028 . S
Zn59 O58 2.028 . S
Zn59 O63 2.035 . S
Zn59 O65 2.035 . S
Zn59 O66 2.028 . S
O60 C56 1.258 . S
O60 Zn61 2.035 . S
Zn61 O60 2.035 . S
Zn61 O62 2.028 . S
Zn61 O64 2.028 . S
Zn61 O67 2.035 . S
O62 Zn61 2.028 . S
O62 C68 1.247 . S
O63 Zn59 2.035 . S
O63 C68 1.258 . S
O64 C57 1.247 . S
O64 Zn61 2.028 . S
O65 C57 1.258 . S
O65 Zn59 2.035 . S
O66 Zn59 2.028 . S
O66 C69 1.247 . S
O67 Zn61 2.035 . S
O67 C69 1.258 . S
C68 O62 1.247 . S
C68 O63 1.258 . S
C69 O66 1.247 . S
C69 O67 1.258 . S
C70 O72 1.247 . S
C70 O74 1.258 . S
C71 O78 1.247 . S
C71 O79 1.258 . S
O72 C70 1.247 . S
O72 Zn73 2.028 . S
Zn73 O72 2.028 . S
Zn73 O77 2.035 . S
Zn73 O79 2.035 . S
Zn73 O80 2.028 . S
O74 C70 1.258 . S
O74 Zn75 2.035 . S
Zn75 O74 2.035 . S
Zn75 O76 2.028 . S
Zn75 O78 2.028 . S
Zn75 O81 2.035 . S
O76 Zn75 2.028 . S
O76 C82 1.247 . S
O77 Zn73 2.035 . S
O77 C82 1.258 . S
O78 C71 1.247 . S
O78 Zn75 2.028 . S
O79 C71 1.258 . S
O79 Zn73 2.035 . S
O80 Zn73 2.028 . S
O80 C83 1.247 . S
O81 Zn75 2.035 . S
O81 C83 1.258 . S
C82 O76 1.247 . S
C82 O77 1.258 . S
C83 O80 1.247 . S
C83 O81 1.258 . S
C84 O86 1.247 . S
C84 O88 1.258 . S
C85 O92 1.247 . S
C85 O93 1.258 . S
O86 C84 1.247 . S
O86 Zn87 2.028 . S
Zn87 O86 2.028 . S
Zn87 O91 2.035 . S
Zn87 O93 2.035 . S
Zn87 O94 2.028 . S
O88 C84 1.258 . S
O88 Zn89 2.035 . S
Zn89 O88 2.035 . S
Zn89 O90 2.028 . S
Zn89 O92 2.028 . S
Zn89 O95 2.035 . S
O90 Zn89 2.028 . S
O90 C96 1.247 . S
O91 Zn87 2.035 . S
O91 C96 1.258 . S
O92 C85 1.247 . S
O92 Zn89 2.028 . S
O93 C85 1.258 . S
O93 Zn87 2.035 . S
O94 Zn87 2.028 . S
O94 C97 1.247 . S
O95 Zn89 2.035 . S
O95 C97 1.258 . S
C96 O90 1.247 . S
C96 O91 1.258 . S
C97 O94 1.247 . S
C97 O95 1.258 . S
C98 O100 1.247 . S
C98 O102 1.258 . S
C99 O106 1.247 . S
C99 O107 1.258 . S
O100 C98 1.247 . S
O100 Zn101 2.028 . S
Zn101 O100 2.028 . S
Zn101 O105 2.035 . S
Zn101 O107 2.035 . S
Zn101 O108 2.028 . S
O102 C98 1.258 . S
O102 Zn103 2.035 . S
Zn103 O102 2.035 . S
Zn103 O104 2.028 . S
Zn103 O106 2.028 . S
Zn103 O109 2.035 . S
O104 Zn103 2.028 . S
O104 C110 1.247 . S
O105 Zn101 2.035 . S
O105 C110 1.258 . S
O106 C99 1.247 . S
O106 Zn103 2.028 . S
O107 C99 1.258 . S
O107 Zn101 2.035 . S
O108 Zn101 2.028 . S
O108 C111 1.247 . S
O109 Zn103 2.035 . S
O109 C111 1.258 . S
C110 O104 1.247 . S
C110 O105 1.258 . S
C111 O108 1.247 . S
C111 O109 1.258 . S
C112 O114 1.247 . S
C112 O116 1.258 . S
C113 O120 1.247 . S
C113 O121 1.258 . S
O114 C112 1.247 . S
O114 Zn115 2.028 . S
Zn115 O114 2.028 . S
Zn115 O119 2.035 . S
Zn115 O121 2.035 . S
Zn115 O122 2.028 . S
O116 C112 1.258 . S
O116 Zn117 2.035 . S
Zn117 O116 2.035 . S
Zn117 O118 2.028 . S
Zn117 O120 2.028 . S
Zn117 O123 2.035 . S
O118 Zn117 2.028 . S
O118 C124 1.247 . S
O119 Zn115 2.035 . S
O119 C124 1.258 . S
O120 C113 1.247 . S
O120 Zn117 2.028 . S
O121 C113 1.258 . S
O121 Zn115 2.035 . S
O122 Zn115 2.028 . S
O122 C125 1.247 . S
O123 Zn117 2.035 . S
O123 C125 1.258 . S
C124 O118 1.247 . S
C124 O119 1.258 . S
C125 O122 1.247 . S
C125 O123 1.258 . S
C126 O128 1.247 . S
C126 O130 1.258 . S
C127 O134 1.247 . S
C127 O135 1.258 . S
O128 C126 1.247 . S
O128 Zn129 2.028 . S
Zn129 O128 2.028 . S
Zn129 O133 2.035 . S
Zn129 O135 2.035 . S
Zn129 O136 2.028 . S
O130 C126 1.258 . S
O130 Zn131 2.035 . S
Zn131 O130 2.035 . S
Zn131 O132 2.028 . S
Zn131 O134 2.028 . S
Zn131 O137 2.035 . S
O132 Zn131 2.028 . S
O132 C138 1.247 . S
O133 Zn129 2.035 . S
O133 C138 1.258 . S
O134 C127 1.247 . S
O134 Zn131 2.028 . S
O135 C127 1.258 . S
O135 Zn129 2.035 . S
O136 Zn129 2.028 . S
O136 C139 1.247 . S
O137 Zn131 2.035 . S
O137 C139 1.258 . S
C138 O132 1.247 . S
C138 O133 1.258 . S
C139 O136 1.247 . S
C139 O137 1.258 . S
C140 O142 1.247 . S
C140 O144 1.258 . S
C141 O148 1.247 . S
C141 O149 1.258 . S
O142 C140 1.247 . S
O142 Zn143 2.028 . S
Zn143 O142 2.028 . S
Zn143 O147 2.035 . S
Zn143 O149 2.035 . S
Zn143 O150 2.028 . S
O144 C140 1.258 . S
O144 Zn145 2.035 . S
Zn145 O144 2.035 . S
Zn145 O146 2.028 . S
Zn145 O148 2.028 . S
Zn145 O151 2.035 . S
O146 Zn145 2.028 . S
O146 C152 1.247 . S
O147 Zn143 2.035 . S
O147 C152 1.258 . S
O148 C141 1.247 . S
O148 Zn145 2.028 . S
O149 C141 1.258 . S
O149 Zn143 2.035 . S
O150 Zn143 2.028 . S
O150 C153 1.247 . S
O151 Zn145 2.035 . S
O151 C153 1.258 . S
C152 O146 1.247 . S
C152 O147 1.258 . S
C153 O150 1.247 . S
C153 O151 1.258 . S
C154 O156 1.247 . S
C154 O158 1.258 . S
C155 O162 1.247 . S
C155 O163 1.258 . S
O156 C154 1.247 . S
O156 Zn157 2.028 . S
Zn157 O156 2.028 . S
Zn157 O161 2.035 . S
Zn157 O163 2.035 . S
Zn157 O164 2.028 . S
O158 C154 1.258 . S
O158 Zn159 2.035 . S
Zn159 O158 2.035 . S
Zn159 O160 2.028 . S
Zn159 O162 2.028 . S
Zn159 O165 2.035 . S
O160 Zn159 2.028 . S
O160 C166 1.247 . S
O161 Zn157 2.035 . S
O161 C166 1.258 . S
O162 C155 1.247 . S
O162 Zn159 2.028 . S
O163 C155 1.258 . S
O163 Zn157 2.035 . S
O164 Zn157 2.028 . S
O164 C167 1.247 . S
O165 Zn159 2.035 . S
O165 C167 1.258 . S
C166 O160 1.247 . S
C166 O161 1.258 . S
C167 O164 1.247 . S
C167 O165 1.258 . S
C168 O170 1.247 . S
C168 O172 1.258 . S
C169 O176 1.247 . S
C169 O177 1.258 . S
O170 C168 1.247 . S
O170 Zn171 2.028 . S
Zn171 O170 2.028 . S
Zn171 O175 2.035 . S
Zn171 O177 2.035 . S
Zn171 O178 2.028 . S
O172 C168 1.258 . S
O172 Zn173 2.035 . S
Zn173 O172 2.035 . S
Zn173 O174 2.028 . S
Zn173 O176 2.028 . S
Zn173 O179 2.035 . S
O174 Zn173 2.028 . S
O174 C180 1.247 . S
O175 Zn171 2.035 . S
O175 C180 1.258 . S
O176 C169 1.247 . S
O176 Zn173 2.028 . S
O177 C169 1.258 . S
O177 Zn171 2.035 . S
O178 Zn171 2.028 . S
O178 C181 1.247 . S
O179 Zn173 2.035 . S
O179 C181 1.258 . S
C180 O174 1.247 . S
C180 O175 1.258 . S
C181 O178 1.247 . S
C181 O179 1.258 . S
C182 O184 1.247 . S
C182 O186 1.258 . S
C183 O190 1.247 . S
C183 O191 1.258 . S
O184 C182 1.247 . S
O184 Zn185 2.028 . S
Zn185 O184 2.028 . S
Zn185 O189 2.035 . S
Zn185 O191 2.035 . S
Zn185 O192 2.028 . S
O186 C182 1.258 . S
O186 Zn187 2.035 . S
Zn187 O186 2.035 . S
Zn187 O188 2.028 . S
Zn187 O190 2.028 . S
Zn187 O193 2.035 . S
O188 Zn187 2.028 . S
O188 C194 1.247 . S
O189 Zn185 2.035 . S
O189 C194 1.258 . S
O190 C183 1.247 . S
O190 Zn187 2.028 . S
O191 C183 1.258 . S
O191 Zn185 2.035 . S
O192 Zn185 2.028 . S
O192 C195 1.247 . S
O193 Zn187 2.035 . S
O193 C195 1.258 . S
C194 O188 1.247 . S
C194 O189 1.258 . S
C195 O192 1.247 . S
C195 O193 1.258 . S
C196 O198 1.247 . S
C196 O200 1.258 . S
C197 O204 1.247 . S
C197 O205 1.258 . S
O198 C196 1.247 . S
O198 Zn199 2.028 . S
Zn199 O198 2.028 . S
Zn199 O203 2.035 . S
Zn199 O205 2.035 . S
Zn199 O206 2.028 . S
O200 C196 1.258 . S
O200 Zn201 2.035 . S
Zn201 O200 2.035 . S
Zn201 O202 2.028 . S
Zn201 O204 2.028 . S
Zn201 O207 2.035 . S
O202 Zn201 2.028 . S
O202 C208 1.247 . S
O203 Zn199 2.035 . S
O203 C208 1.258 . S
O204 C197 1.247 . S
O204 Zn201 2.028 . S
O205 C197 1.258 . S
O205 Zn199 2.035 . S
O206 Zn199 2.028 . S
O206 C209 1.247 . S
O207 Zn201 2.035 . S
O207 C209 1.258 . S
C208 O202 1.247 . S
C208 O203 1.258 . S
C209 O206 1.247 . S
C209 O207 1.258 . S
C210 O212 1.247 . S
C210 O214 1.258 . S
C211 O218 1.247 . S
C211 O219 1.258 . S
O212 C210 1.247 . S
O212 Zn213 2.028 . S
Zn213 O212 2.028 . S
Zn213 O217 2.035 . S
Zn213 O219 2.035 . S
Zn213 O220 2.028 . S
O214 C210 1.258 . S
O214 Zn215 2.035 . S
Zn215 O214 2.035 . S
Zn215 O216 2.028 . S
Zn215 O218 2.028 . S
Zn215 O221 2.035 . S
O216 Zn215 2.028 . S
O216 C222 1.247 . S
O217 Zn213 2.035 . S
O217 C222 1.258 . S
O218 C211 1.247 . S
O218 Zn215 2.028 . S
O219 C211 1.258 . S
O219 Zn213 2.035 . S
O220 Zn213 2.028 . S
O220 C223 1.247 . S
O221 Zn215 2.035 . S
O221 C223 1.258 . S
C222 O216 1.247 . S
C222 O217 1.258 . S
C223 O220 1.247 . S
C223 O221 1.258 . S
C224 O226 1.247 . S
C224 O228 1.258 . S
C225 O232 1.247 . S
C225 O233 1.258 . S
O226 C224 1.247 . S
O226 Zn227 2.028 . S
Zn227 O226 2.028 . S
Zn227 O231 2.035 . S
Zn227 O233 2.035 . S
Zn227 O234 2.028 . S
O228 C224 1.258 . S
O228 Zn229 2.035 . S
Zn229 O228 2.035 . S
Zn229 O230 2.028 . S
Zn229 O232 2.028 . S
Zn229 O235 2.035 . S
O230 Zn229 2.028 . S
O230 C236 1.247 . S
O231 Zn227 2.035 . S
O231 C236 1.258 . S
O232 C225 1.247 . S
O232 Zn229 2.028 . S
O233 C225 1.258 . S
O233 Zn227 2.035 . S
O234 Zn227 2.028 . S
O234 C237 1.247 . S
O235 Zn229 2.035 . S
O235 C237 1.258 . S
C236 O230 1.247 . S
C236 O231 1.258 . S
C237 O234 1.247 . S
C237 O235 1.258 . S
C238 O240 1.247 . S
C238 O242 1.258 . S
C239 O246 1.247 . S
C239 O247 1.258 . S
O240 C238 1.247 . S
O240 Zn241 2.028 . S
Zn241 O240 2.028 . S
Zn241 O245 2.035 . S
Zn241 O247 2.035 . S
Zn241 O248 2.028 . S
O242 C238 1.258 . S
O242 Zn243 2.035 . S
Zn243 O242 2.035 . S
Zn243 O244 2.028 . S
Zn243 O246 2.028 . S
Zn243 O249 2.035 . S
O244 Zn243 2.028 . S
O244 C250 1.247 . S
O245 Zn241 2.035 . S
O245 C250 1.258 . S
O246 C239 1.247 . S
O246 Zn243 2.028 . S
O247 C239 1.258 . S
O247 Zn241 2.035 . S
O248 Zn241 2.028 . S
O248 C251 1.247 . S
O249 Zn243 2.035 . S
O249 C251 1.258 . S
C250 O244 1.247 . S
C250 O245 1.258 . S
C251 O248 1.247 . S
C251 O249 1.258 . S
C252 O254 1.247 . S
C252 O256 1.258 . S
C253 O260 1.247 . S
C253 O261 1.258 . S
O254 C252 1.247 . S
O254 Zn255 2.028 . S
Zn255 O254 2.028 . S
Zn255 O259 2.035 . S
Zn255 O261 2.035 . S
Zn255 O262 2.028 . S
O256 C252 1.258 . S
O256 Zn257 2.035 . S
Zn257 O256 2.035 . S
Zn257 O258 2.028 . S
Zn257 O260 2.028 . S
Zn257 O263 2.035 . S
O258 Zn257 2.028 . S
O258 C264 1.247 . S
O259 Zn255 2.035 . S
O259 C264 1.258 . S
O260 C253 1.247 . S
O260 Zn257 2.028 . S
O261 C253 1.258 . S
O261 Zn255 2.035 . S
O262 Zn255 2.028 . S
O262 C265 1.247 . S
O263 Zn257 2.035 . S
O263 C265 1.258 . S
C264 O258 1.247 . S
C264 O259 1.258 . S
C265 O262 1.247 . S
C265 O263 1.258 . S
C266 O268 1.247 . S
C266 O270 1.258 . S
C267 O274 1.247 . S
C267 O275 1.258 . S
O268 C266 1.247 . S
O268 Zn269 2.028 . S
Zn269 O268 2.028 . S
Zn269 O273 2.035 . S
Zn269 O275 2.035 . S
Zn269 O276 2.028 . S
O270 C266 1.258 . S
O270 Zn271 2.035 . S
Zn271 O270 2.035 . S
Zn271 O272 2.028 . S
Zn271 O274 2.028 . S
Zn271 O277 2.035 . S
O272 Zn271 2.028 . S
O272 C278 1.247 . S
O273 Zn269 2.035 . S
O273 C278 1.258 . S
O274 C267 1.247 . S
O274 Zn271 2.028 . S
O275 C267 1.258 . S
O275 Zn269 2.035 . S
O276 Zn269 2.028 . S
O276 C279 1.247 . S
O277 Zn271 2.035 . S
O277 C279 1.258 . S
C278 O272 1.247 . S
C278 O273 1.258 . S
C279 O276 1.247 . S
C279 O277 1.258 . S
C280 O282 1.247 . S
C280 O284 1.258 . S
C281 O288 1.247 . S
C281 O289 1.258 . S
O282 C280 1.247 . S
O282 Zn283 2.028 . S
Zn283 O282 2.028 . S
Zn283 O287 2.035 . S
Zn283 O289 2.035 . S
Zn283 O290 2.028 . S
O284 C280 1.258 . S
O284 Zn285 2.035 . S
Zn285 O284 2.035 . S
Zn285 O286 2.028 . S
Zn285 O288 2.028 . S
Zn285 O291 2.035 . S
O286 Zn285 2.028 . S
O286 C292 1.247 . S
O287 Zn283 2.035 . S
O287 C292 1.258 . S
O288 C281 1.247 . S
O288 Zn285 2.028 . S
O289 C281 1.258 . S
O289 Zn283 2.035 . S
O290 Zn283 2.028 . S
O290 C293 1.247 . S
O291 Zn285 2.035 . S
O291 C293 1.258 . S
C292 O286 1.247 . S
C292 O287 1.258 . S
C293 O290 1.247 . S
C293 O291 1.258 . S
C294 O296 1.247 . S
C294 O298 1.258 . S
C295 O302 1.247 . S
C295 O303 1.258 . S
O296 C294 1.247 . S
O296 Zn297 2.028 . S
Zn297 O296 2.028 . S
Zn297 O301 2.035 . S
Zn297 O303 2.035 . S
Zn297 O304 2.028 . S
O298 C294 1.258 . S
O298 Zn299 2.035 . S
Zn299 O298 2.035 . S
Zn299 O300 2.028 . S
Zn299 O302 2.028 . S
Zn299 O305 2.035 . S
O300 Zn299 2.028 . S
O300 C306 1.247 . S
O301 Zn297 2.035 . S
O301 C306 1.258 . S
O302 C295 1.247 . S
O302 Zn299 2.028 . S
O303 C295 1.258 . S
O303 Zn297 2.035 . S
O304 Zn297 2.028 . S
O304 C307 1.247 . S
O305 Zn299 2.035 . S
O305 C307 1.258 . S
C306 O300 1.247 . S
C306 O301 1.258 . S
C307 O304 1.247 . S
C307 O305 1.258 . S
C308 O310 1.247 . S
C308 O312 1.258 . S
C309 O316 1.247 . S
C309 O317 1.258 . S
O310 C308 1.247 . S
O310 Zn311 2.028 . S
Zn311 O310 2.028 . S
Zn311 O315 2.035 . S
Zn311 O317 2.035 . S
Zn311 O318 2.028 . S
O312 C308 1.258 . S
O312 Zn313 2.035 . S
Zn313 O312 2.035 . S
Zn313 O314 2.028 . S
Zn313 O316 2.028 . S
Zn313 O319 2.035 . S
O314 Zn313 2.028 . S
O314 C320 1.247 . S
O315 Zn311 2.035 . S
O315 C320 1.258 . S
O316 C309 1.247 . S
O316 Zn313 2.028 . S
O317 C309 1.258 . S
O317 Zn311 2.035 . S
O318 Zn311 2.028 . S
O318 C321 1.247 . S
O319 Zn313 2.035 . S
O319 C321 1.258 . S
C320 O314 1.247 . S
C320 O315 1.258 . S
C321 O318 1.247 . S
C321 O319 1.258 . S
C322 O324 1.247 . S
C322 O326 1.258 . S
C323 O330 1.247 . S
C323 O331 1.258 . S
O324 C322 1.247 . S
O324 Zn325 2.028 . S
Zn325 O324 2.028 . S
Zn325 O329 2.035 . S
Zn325 O331 2.035 . S
Zn325 O332 2.028 . S
O326 C322 1.258 . S
O326 Zn327 2.035 . S
Zn327 O326 2.035 . S
Zn327 O328 2.028 . S
Zn327 O330 2.028 . S
Zn327 O333 2.035 . S
O328 Zn327 2.028 . S
O328 C334 1.247 . S
O329 Zn325 2.035 . S
O329 C334 1.258 . S
O330 C323 1.247 . S
O330 Zn327 2.028 . S
O331 C323 1.258 . S
O331 Zn325 2.035 . S
O332 Zn325 2.028 . S
O332 C335 1.247 . S
O333 Zn327 2.035 . S
O333 C335 1.258 . S
C334 O328 1.247 . S
C334 O329 1.258 . S
C335 O332 1.247 . S
C335 O333 1.258 . S
H336 C354 0.951 . S
H337 C356 0.951 . S
H338 C358 0.950 . S
H339 C359 0.950 . S
H340 C361 0.950 . S
H341 C364 0.950 . S
H342 C365 0.950 . S
H343 C367 0.950 . S
H344 C368 0.950 . S
H345 C369 0.951 . S
H346 C371 0.951 . S
H347 C373 0.950 . S
H348 C374 0.950 . S
H349 C376 0.950 . S
H350 C379 0.950 . S
H351 C380 0.950 . S
H352 C382 0.950 . S
H353 C383 0.950 . S
C354 H336 0.951 . S
C354 C355 1.366 . S
C354 C356 1.388 . S
C355 C354 1.366 . S
C355 C359 1.385 . S
C356 H337 0.951 . S
C356 C354 1.388 . S
C356 C357 1.366 . S
C357 C356 1.366 . S
C357 C358 1.414 . S
C357 C360 1.499 . S
C358 H338 0.950 . S
C358 C357 1.414 . S
C358 C359 1.374 . S
C359 H339 0.950 . S
C359 C355 1.385 . S
C359 C358 1.374 . S
C360 C357 1.499 . S
C360 C361 1.373 . S
C360 C362 1.389 . S
C361 H340 0.950 . S
C361 C360 1.373 . S
C361 C377 1.377 . S
C362 C360 1.389 . S
C362 C363 1.524 . S
C362 C376 1.377 . S
C363 C362 1.524 . S
C363 C364 1.397 . S
C363 C368 1.363 . S
C364 H341 0.950 . S
C364 C363 1.397 . S
C364 C365 1.334 . S
C365 H342 0.950 . S
C365 C364 1.334 . S
C365 C366 1.287 . S
C366 C365 1.287 . S
C366 C367 1.524 . S
C366 H385 0.913 . S
C367 H343 0.950 . S
C367 C366 1.524 . S
C367 C368 1.415 . S
C368 H344 0.950 . S
C368 C363 1.363 . S
C368 C367 1.415 . S
C369 H345 0.951 . S
C369 C370 1.366 . S
C369 C371 1.388 . S
C370 C369 1.366 . S
C370 C374 1.385 . S
C371 H346 0.951 . S
C371 C369 1.388 . S
C371 C372 1.366 . S
C372 C371 1.366 . S
C372 C373 1.414 . S
C372 C375 1.499 . S
C373 H347 0.950 . S
C373 C372 1.414 . S
C373 C374 1.374 . S
C374 H348 0.950 . S
C374 C370 1.385 . S
C374 C373 1.374 . S
C375 C372 1.499 . S
C375 C376 1.373 . S
C375 C377 1.389 . S
C376 H349 0.950 . S
C376 C362 1.377 . S
C376 C375 1.373 . S
C377 C361 1.377 . S
C377 C375 1.389 . S
C377 C378 1.524 . S
C378 C377 1.524 . S
C378 C379 1.397 . S
C378 C383 1.363 . S
C379 H350 0.950 . S
C379 C378 1.397 . S
C379 C380 1.334 . S
C380 H351 0.950 . S
C380 C379 1.334 . S
C380 C381 1.287 . S
C381 C380 1.287 . S
C381 C382 1.524 . S
C381 H384 0.999 . S
C382 H352 0.950 . S
C382 C381 1.524 . S
C382 C383 1.415 . S
C383 H353 0.950 . S
C383 C378 1.363 . S
C383 C382 1.415 . S
H384 C381 0.999 . S
H385 C366 0.913 . S
H386 C404 0.951 . S
H387 C406 0.951 . S
H388 C408 0.950 . S
H389 C409 0.950 . S
H390 C411 0.950 . S
H391 C414 0.950 . S
H392 C415 0.950 . S
H393 C417 0.950 . S
H394 C418 0.950 . S
H395 C419 0.951 . S
H396 C421 0.951 . S
H397 C423 0.950 . S
H398 C424 0.950 . S
H399 C426 0.950 . S
H400 C429 0.950 . S
H401 C430 0.950 . S
H402 C432 0.950 . S
H403 C433 0.950 . S
C404 H386 0.951 . S
C404 C405 1.366 . S
C404 C406 1.388 . S
C405 C404 1.366 . S
C405 C409 1.385 . S
C406 H387 0.951 . S
C406 C404 1.388 . S
C406 C407 1.366 . S
C407 C406 1.366 . S
C407 C408 1.414 . S
C407 C410 1.499 . S
C408 H388 0.950 . S
C408 C407 1.414 . S
C408 C409 1.374 . S
C409 H389 0.950 . S
C409 C405 1.385 . S
C409 C408 1.374 . S
C410 C407 1.499 . S
C410 C411 1.373 . S
C410 C412 1.389 . S
C411 H390 0.950 . S
C411 C410 1.373 . S
C411 C427 1.377 . S
C412 C410 1.389 . S
C412 C413 1.524 . S
C412 C426 1.377 . S
C413 C412 1.524 . S
C413 C414 1.397 . S
C413 C418 1.363 . S
C414 H391 0.950 . S
C414 C413 1.397 . S
C414 C415 1.334 . S
C415 H392 0.950 . S
C415 C414 1.334 . S
C415 C416 1.287 . S
C416 C415 1.287 . S
C416 C417 1.524 . S
C416 H435 0.913 . S
C417 H393 0.950 . S
C417 C416 1.524 . S
C417 C418 1.415 . S
C418 H394 0.950 . S
C418 C413 1.363 . S
C418 C417 1.415 . S
C419 H395 0.951 . S
C419 C420 1.366 . S
C419 C421 1.388 . S
C420 C419 1.366 . S
C420 C424 1.385 . S
C421 H396 0.951 . S
C421 C419 1.388 . S
C421 C422 1.366 . S
C422 C421 1.366 . S
C422 C423 1.414 . S
C422 C425 1.499 . S
C423 H397 0.950 . S
C423 C422 1.414 . S
C423 C424 1.374 . S
C424 H398 0.950 . S
C424 C420 1.385 . S
C424 C423 1.374 . S
C425 C422 1.499 . S
C425 C426 1.373 . S
C425 C427 1.389 . S
C426 H399 0.950 . S
C426 C412 1.377 . S
C426 C425 1.373 . S
C427 C411 1.377 . S
C427 C425 1.389 . S
C427 C428 1.524 . S
C428 C427 1.524 . S
C428 C429 1.397 . S
C428 C433 1.363 . S
C429 H400 0.950 . S
C429 C428 1.397 . S
C429 C430 1.334 . S
C430 H401 0.950 . S
C430 C429 1.334 . S
C430 C431 1.287 . S
C431 C430 1.287 . S
C431 C432 1.524 . S
C431 H434 0.999 . S
C432 H402 0.950 . S
C432 C431 1.524 . S
C432 C433 1.415 . S
C433 H403 0.950 . S
C433 C428 1.363 . S
C433 C432 1.415 . S
H434 C431 0.999 . S
H435 C416 0.913 . S
H436 C454 0.951 . S
H437 C456 0.951 . S
H438 C458 0.950 . S
H439 C459 0.950 . S
H440 C461 0.950 . S
H441 C464 0.950 . S
H442 C465 0.950 . S
H443 C467 0.950 . S
H444 C468 0.950 . S
H445 C469 0.951 . S
H446 C471 0.951 . S
H447 C473 0.950 . S
H448 C474 0.950 . S
H449 C476 0.950 . S
H450 C479 0.950 . S
H451 C480 0.950 . S
H452 C482 0.950 . S
H453 C483 0.950 . S
C454 H436 0.951 . S
C454 C455 1.366 . S
C454 C456 1.388 . S
C455 C454 1.366 . S
C455 C459 1.385 . S
C456 H437 0.951 . S
C456 C454 1.388 . S
C456 C457 1.366 . S
C457 C456 1.366 . S
C457 C458 1.414 . S
C457 C460 1.499 . S
C458 H438 0.950 . S
C458 C457 1.414 . S
C458 C459 1.374 . S
C459 H439 0.950 . S
C459 C455 1.385 . S
C459 C458 1.374 . S
C460 C457 1.499 . S
C460 C461 1.373 . S
C460 C462 1.389 . S
C461 H440 0.950 . S
C461 C460 1.373 . S
C461 C477 1.377 . S
C462 C460 1.389 . S
C462 C463 1.524 . S
C462 C476 1.377 . S
C463 C462 1.524 . S
C463 C464 1.397 . S
C463 C468 1.363 . S
C464 H441 0.950 . S
C464 C463 1.397 . S
C464 C465 1.334 . S
C465 H442 0.950 . S
C465 C464 1.334 . S
C465 C466 1.287 . S
C466 C465 1.287 . S
C466 C467 1.524 . S
C466 H485 0.913 . S
C467 H443 0.950 . S
C467 C466 1.524 . S
C467 C468 1.415 . S
C468 H444 0.950 . S
C468 C463 1.363 . S
C468 C467 1.415 . S
C469 H445 0.951 . S
C469 C470 1.366 . S
C469 C471 1.388 . S
C470 C469 1.366 . S
C470 C474 1.385 . S
C471 H446 0.951 . S
C471 C469 1.388 . S
C471 C472 1.366 . S
C472 C471 1.366 . S
C472 C473 1.414 . S
C472 C475 1.499 . S
C473 H447 0.950 . S
C473 C472 1.414 . S
C473 C474 1.374 . S
C474 H448 0.950 . S
C474 C470 1.385 . S
C474 C473 1.374 . S
C475 C472 1.499 . S
C475 C476 1.373 . S
C475 C477 1.389 . S
C476 H449 0.950 . S
C476 C462 1.377 . S
C476 C475 1.373 . S
C477 C461 1.377 . S
C477 C475 1.389 . S
C477 C478 1.524 . S
C478 C477 1.524 . S
C478 C479 1.397 . S
C478 C483 1.363 . S
C479 H450 0.950 . S
C479 C478 1.397 . S
C479 C480 1.334 . S
C480 H451 0.950 . S
C480 C479 1.334 . S
C480 C481 1.287 . S
C481 C480 1.287 . S
C481 C482 1.524 . S
C481 H484 0.999 . S
C482 H452 0.950 . S
C482 C481 1.524 . S
C482 C483 1.415 . S
C483 H453 0.950 . S
C483 C478 1.363 . S
C483 C482 1.415 . S
H484 C481 0.999 . S
H485 C466 0.913 . S
H486 C504 0.951 . S
H487 C506 0.951 . S
H488 C508 0.950 . S
H489 C509 0.950 . S
H490 C511 0.950 . S
H491 C514 0.950 . S
H492 C515 0.950 . S
H493 C517 0.950 . S
H494 C518 0.950 . S
H495 C519 0.951 . S
H496 C521 0.951 . S
H497 C523 0.950 . S
H498 C524 0.950 . S
H499 C526 0.950 . S
H500 C529 0.950 . S
H501 C530 0.950 . S
H502 C532 0.950 . S
H503 C533 0.950 . S
C504 H486 0.951 . S
C504 C505 1.366 . S
C504 C506 1.388 . S
C505 C504 1.366 . S
C505 C509 1.385 . S
C506 H487 0.951 . S
C506 C504 1.388 . S
C506 C507 1.366 . S
C507 C506 1.366 . S
C507 C508 1.414 . S
C507 C510 1.499 . S
C508 H488 0.950 . S
C508 C507 1.414 . S
C508 C509 1.374 . S
C509 H489 0.950 . S
C509 C505 1.385 . S
C509 C508 1.374 . S
C510 C507 1.499 . S
C510 C511 1.373 . S
C510 C512 1.389 . S
C511 H490 0.950 . S
C511 C510 1.373 . S
C511 C527 1.377 . S
C512 C510 1.389 . S
C512 C513 1.524 . S
C512 C526 1.377 . S
C513 C512 1.524 . S
C513 C514 1.397 . S
C513 C518 1.363 . S
C514 H491 0.950 . S
C514 C513 1.397 . S
C514 C515 1.334 . S
C515 H492 0.950 . S
C515 C514 1.334 . S
C515 C516 1.287 . S
C516 C515 1.287 . S
C516 C517 1.524 . S
C516 H535 0.913 . S
C517 H493 0.950 . S
C517 C516 1.524 . S
C517 C518 1.415 . S
C518 H494 0.950 . S
C518 C513 1.363 . S
C518 C517 1.415 . S
C519 H495 0.951 . S
C519 C520 1.366 . S
C519 C521 1.388 . S
C520 C519 1.366 . S
C520 C524 1.385 . S
C521 H496 0.951 . S
C521 C519 1.388 . S
C521 C522 1.366 . S
C522 C521 1.366 . S
C522 C523 1.414 . S
C522 C525 1.499 . S
C523 H497 0.950 . S
C523 C522 1.414 . S
C523 C524 1.374 . S
C524 H498 0.950 . S
C524 C520 1.385 . S
C524 C523 1.374 . S
C525 C522 1.499 . S
C525 C526 1.373 . S
C525 C527 1.389 . S
C526 H499 0.950 . S
C526 C512 1.377 . S
C526 C525 1.373 . S
C527 C511 1.377 . S
C527 C525 1.389 . S
C527 C528 1.524 . S
C528 C527 1.524 . S
C528 C529 1.397 . S
C528 C533 1.363 . S
C529 H500 0.950 . S
C529 C528 1.397 . S
C529 C530 1.334 . S
C530 H501 0.950 . S
C530 C529 1.334 . S
C530 C531 1.287 . S
C531 C530 1.287 . S
C531 C532 1.524 . S
C531 H534 0.999 . S
C532 H502 0.950 . S
C532 C531 1.524 . S
C532 C533 1.415 . S
C533 H503 0.950 . S
C533 C528 1.363 . S
C533 C532 1.415 . S
H534 C531 0.999 . S
H535 C516 0.913 . S
H536 C554 0.951 . S
H537 C556 0.951 . S
H538 C558 0.950 . S
H539 C559 0.950 . S
H540 C561 0.950 . S
H541 C564 0.950 . S
H542 C565 0.950 . S
H543 C567 0.950 . S
H544 C568 0.950 . S
H545 C569 0.951 . S
H546 C571 0.951 . S
H547 C573 0.950 . S
H548 C574 0.950 . S
H549 C576 0.950 . S
H550 C579 0.950 . S
H551 C580 0.950 . S
H552 C582 0.950 . S
H553 C583 0.950 . S
C554 H536 0.951 . S
C554 C555 1.366 . S
C554 C556 1.388 . S
C555 C554 1.366 . S
C555 C559 1.385 . S
C556 H537 0.951 . S
C556 C554 1.388 . S
C556 C557 1.366 . S
C557 C556 1.366 . S
C557 C558 1.414 . S
C557 C560 1.499 . S
C558 H538 0.950 . S
C558 C557 1.414 . S
C558 C559 1.374 . S
C559 H539 0.950 . S
C559 C555 1.385 . S
C559 C558 1.374 . S
C560 C557 1.499 . S
C560 C561 1.373 . S
C560 C562 1.389 . S
C561 H540 0.950 . S
C561 C560 1.373 . S
C561 C577 1.377 . S
C562 C560 1.389 . S
C562 C563 1.524 . S
C562 C576 1.377 . S
C563 C562 1.524 . S
C563 C564 1.397 . S
C563 C568 1.363 . S
C564 H541 0.950 . S
C564 C563 1.397 . S
C564 C565 1.334 . S
C565 H542 0.950 . S
C565 C564 1.334 . S
C565 C566 1.287 . S
C566 C565 1.287 . S
C566 C567 1.524 . S
C566 H585 0.913 . S
C567 H543 0.950 . S
C567 C566 1.524 . S
C567 C568 1.415 . S
C568 H544 0.950 . S
C568 C563 1.363 . S
C568 C567 1.415 . S
C569 H545 0.951 . S
C569 C570 1.366 . S
C569 C571 1.388 . S
C570 C569 1.366 . S
C570 C574 1.385 . S
C571 H546 0.951 . S
C571 C569 1.388 . S
C571 C572 1.366 . S
C572 C571 1.366 . S
C572 C573 1.414 . S
C572 C575 1.499 . S
C573 H547 0.950 . S
C573 C572 1.414 . S
C573 C574 1.374 . S
C574 H548 0.950 . S
C574 C570 1.385 . S
C574 C573 1.374 . S
C575 C572 1.499 . S
C575 C576 1.373 . S
C575 C577 1.389 . S
C576 H549 0.950 . S
C576 C562 1.377 . S
C576 C575 1.373 . S
C577 C561 1.377 . S
C577 C575 1.389 . S
C577 C578 1.524 . S
C578 C577 1.524 . S
C578 C579 1.397 . S
C578 C583 1.363 . S
C579 H550 0.950 . S
C579 C578 1.397 . S
C579 C580 1.334 . S
C580 H551 0.950 . S
C580 C579 1.334 . S
C580 C581 1.287 . S
C581 C580 1.287 . S
C581 C582 1.524 . S
C581 H584 0.999 . S
C582 H552 0.950 . S
C582 C581 1.524 . S
C582 C583 1.415 . S
C583 H553 0.950 . S
C583 C578 1.363 . S
C583 C582 1.415 . S
H584 C581 0.999 . S
H585 C566 0.913 . S
H586 C604 0.951 . S
H587 C606 0.951 . S
H588 C608 0.950 . S
H589 C609 0.950 . S
H590 C611 0.950 . S
H591 C614 0.950 . S
H592 C615 0.950 . S
H593 C617 0.950 . S
H594 C618 0.950 . S
H595 C619 0.951 . S
H596 C621 0.951 . S
H597 C623 0.950 . S
H598 C624 0.950 . S
H599 C626 0.950 . S
H600 C629 0.950 . S
H601 C630 0.950 . S
H602 C632 0.950 . S
H603 C633 0.950 . S
C604 H586 0.951 . S
C604 C605 1.366 . S
C604 C606 1.388 . S
C605 C604 1.366 . S
C605 C609 1.385 . S
C606 H587 0.951 . S
C606 C604 1.388 . S
C606 C607 1.366 . S
C607 C606 1.366 . S
C607 C608 1.414 . S
C607 C610 1.499 . S
C608 H588 0.950 . S
C608 C607 1.414 . S
C608 C609 1.374 . S
C609 H589 0.950 . S
C609 C605 1.385 . S
C609 C608 1.374 . S
C610 C607 1.499 . S
C610 C611 1.373 . S
C610 C612 1.389 . S
C611 H590 0.950 . S
C611 C610 1.373 . S
C611 C627 1.377 . S
C612 C610 1.389 . S
C612 C613 1.524 . S
C612 C626 1.377 . S
C613 C612 1.524 . S
C613 C614 1.397 . S
C613 C618 1.363 . S
C614 H591 0.950 . S
C614 C613 1.397 . S
C614 C615 1.334 . S
C615 H592 0.950 . S
C615 C614 1.334 . S
C615 C616 1.287 . S
C616 C615 1.287 . S
C616 C617 1.524 . S
C616 H635 0.913 . S
C617 H593 0.950 . S
C617 C616 1.524 . S
C617 C618 1.415 . S
C618 H594 0.950 . S
C618 C613 1.363 . S
C618 C617 1.415 . S
C619 H595 0.951 . S
C619 C620 1.366 . S
C619 C621 1.388 . S
C620 C619 1.366 . S
C620 C624 1.385 . S
C621 H596 0.951 . S
C621 C619 1.388 . S
C621 C622 1.366 . S
C622 C621 1.366 . S
C622 C623 1.414 . S
C622 C625 1.499 . S
C623 H597 0.950 . S
C623 C622 1.414 . S
C623 C624 1.374 . S
C624 H598 0.950 . S
C624 C620 1.385 . S
C624 C623 1.374 . S
C625 C622 1.499 . S
C625 C626 1.373 . S
C625 C627 1.389 . S
C626 H599 0.950 . S
C626 C612 1.377 . S
C626 C625 1.373 . S
C627 C611 1.377 . S
C627 C625 1.389 . S
C627 C628 1.524 . S
C628 C627 1.524 . S
C628 C629 1.397 . S
C628 C633 1.363 . S
C629 H600 0.950 . S
C629 C628 1.397 . S
C629 C630 1.334 . S
C630 H601 0.950 . S
C630 C629 1.334 . S
C630 C631 1.287 . S
C631 C630 1.287 . S
C631 C632 1.524 . S
C631 H634 0.999 . S
C632 H602 0.950 . S
C632 C631 1.524 . S
C632 C633 1.415 . S
C633 H603 0.950 . S
C633 C628 1.363 . S
C633 C632 1.415 . S
H634 C631 0.999 . S
H635 C616 0.913 . S
H636 C654 0.951 . S
H637 C656 0.951 . S
H638 C658 0.950 . S
H639 C659 0.950 . S
H640 C661 0.950 . S
H641 C664 0.950 . S
H642 C665 0.950 . S
H643 C667 0.950 . S
H644 C668 0.950 . S
H645 C669 0.951 . S
H646 C671 0.951 . S
H647 C673 0.950 . S
H648 C674 0.950 . S
H649 C676 0.950 . S
H650 C679 0.950 . S
H651 C680 0.950 . S
H652 C682 0.950 . S
H653 C683 0.950 . S
C654 H636 0.951 . S
C654 C655 1.366 . S
C654 C656 1.388 . S
C655 C654 1.366 . S
C655 C659 1.385 . S
C656 H637 0.951 . S
C656 C654 1.388 . S
C656 C657 1.366 . S
C657 C656 1.366 . S
C657 C658 1.414 . S
C657 C660 1.499 . S
C658 H638 0.950 . S
C658 C657 1.414 . S
C658 C659 1.374 . S
C659 H639 0.950 . S
C659 C655 1.385 . S
C659 C658 1.374 . S
C660 C657 1.499 . S
C660 C661 1.373 . S
C660 C662 1.389 . S
C661 H640 0.950 . S
C661 C660 1.373 . S
C661 C677 1.377 . S
C662 C660 1.389 . S
C662 C663 1.524 . S
C662 C676 1.377 . S
C663 C662 1.524 . S
C663 C664 1.397 . S
C663 C668 1.363 . S
C664 H641 0.950 . S
C664 C663 1.397 . S
C664 C665 1.334 . S
C665 H642 0.950 . S
C665 C664 1.334 . S
C665 C666 1.287 . S
C666 C665 1.287 . S
C666 C667 1.524 . S
C666 H685 0.913 . S
C667 H643 0.950 . S
C667 C666 1.524 . S
C667 C668 1.415 . S
C668 H644 0.950 . S
C668 C663 1.363 . S
C668 C667 1.415 . S
C669 H645 0.951 . S
C669 C670 1.366 . S
C669 C671 1.388 . S
C670 C669 1.366 . S
C670 C674 1.385 . S
C671 H646 0.951 . S
C671 C669 1.388 . S
C671 C672 1.366 . S
C672 C671 1.366 . S
C672 C673 1.414 . S
C672 C675 1.499 . S
C673 H647 0.950 . S
C673 C672 1.414 . S
C673 C674 1.374 . S
C674 H648 0.950 . S
C674 C670 1.385 . S
C674 C673 1.374 . S
C675 C672 1.499 . S
C675 C676 1.373 . S
C675 C677 1.389 . S
C676 H649 0.950 . S
C676 C662 1.377 . S
C676 C675 1.373 . S
C677 C661 1.377 . S
C677 C675 1.389 . S
C677 C678 1.524 . S
C678 C677 1.524 . S
C678 C679 1.397 . S
C678 C683 1.363 . S
C679 H650 0.950 . S
C679 C678 1.397 . S
C679 C680 1.334 . S
C680 H651 0.950 . S
C680 C679 1.334 . S
C680 C681 1.287 . S
C681 C680 1.287 . S
C681 C682 1.524 . S
C681 H684 0.999 . S
C682 H652 0.950 . S
C682 C681 1.524 . S
C682 C683 1.415 . S
C683 H653 0.950 . S
C683 C678 1.363 . S
C683 C682 1.415 . S
H684 C681 0.999 . S
H685 C666 0.913 . S
H686 C704 0.951 . S
H687 C706 0.951 . S
H688 C708 0.950 . S
H689 C709 0.950 . S
H690 C711 0.950 . S
H691 C714 0.950 . S
H692 C715 0.950 . S
H693 C717 0.950 . S
H694 C718 0.950 . S
H695 C719 0.951 . S
H696 C721 0.951 . S
H697 C723 0.950 . S
H698 C724 0.950 . S
H699 C726 0.950 . S
H700 C729 0.950 . S
H701 C730 0.950 . S
H702 C732 0.950 . S
H703 C733 0.950 . S
C704 H686 0.951 . S
C704 C705 1.366 . S
C704 C706 1.388 . S
C705 C704 1.366 . S
C705 C709 1.385 . S
C706 H687 0.951 . S
C706 C704 1.388 . S
C706 C707 1.366 . S
C707 C706 1.366 . S
C707 C708 1.414 . S
C707 C710 1.499 . S
C708 H688 0.950 . S
C708 C707 1.414 . S
C708 C709 1.374 . S
C709 H689 0.950 . S
C709 C705 1.385 . S
C709 C708 1.374 . S
C710 C707 1.499 . S
C710 C711 1.373 . S
C710 C712 1.389 . S
C711 H690 0.950 . S
C711 C710 1.373 . S
C711 C727 1.377 . S
C712 C710 1.389 . S
C712 C713 1.524 . S
C712 C726 1.377 . S
C713 C712 1.524 . S
C713 C714 1.397 . S
C713 C718 1.363 . S
C714 H691 0.950 . S
C714 C713 1.397 . S
C714 C715 1.334 . S
C715 H692 0.950 . S
C715 C714 1.334 . S
C715 C716 1.287 . S
C716 C715 1.287 . S
C716 C717 1.524 . S
C716 H735 0.913 . S
C717 H693 0.950 . S
C717 C716 1.524 . S
C717 C718 1.415 . S
C718 H694 0.950 . S
C718 C713 1.363 . S
C718 C717 1.415 . S
C719 H695 0.951 . S
C719 C720 1.366 . S
C719 C721 1.388 . S
C720 C719 1.366 . S
C720 C724 1.385 . S
C721 H696 0.951 . S
C721 C719 1.388 . S
C721 C722 1.366 . S
C722 C721 1.366 . S
C722 C723 1.414 . S
C722 C725 1.499 . S
C723 H697 0.950 . S
C723 C722 1.414 . S
C723 C724 1.374 . S
C724 H698 0.950 . S
C724 C720 1.385 . S
C724 C723 1.374 . S
C725 C722 1.499 . S
C725 C726 1.373 . S
C725 C727 1.389 . S
C726 H699 0.950 . S
C726 C712 1.377 . S
C726 C725 1.373 . S
C727 C711 1.377 . S
C727 C725 1.389 . S
C727 C728 1.524 . S
C728 C727 1.524 . S
C728 C729 1.397 . S
C728 C733 1.363 . S
C729 H700 0.950 . S
C729 C728 1.397 . S
C729 C730 1.334 . S
C730 H701 0.950 . S
C730 C729 1.334 . S
C730 C731 1.287 . S
C731 C730 1.287 . S
C731 C732 1.524 . S
C731 H734 0.999 . S
C732 H702 0.950 . S
C732 C731 1.524 . S
C732 C733 1.415 . S
C733 H703 0.950 . S
C733 C728 1.363 . S
C733 C732 1.415 . S
H734 C731 0.999 . S
H735 C716 0.913 . S
H736 C754 0.951 . S
H737 C756 0.951 . S
H738 C758 0.950 . S
H739 C759 0.950 . S
H740 C761 0.950 . S
H741 C764 0.950 . S
H742 C765 0.950 . S
H743 C767 0.950 . S
H744 C768 0.950 . S
H745 C769 0.951 . S
H746 C771 0.951 . S
H747 C773 0.950 . S
H748 C774 0.950 . S
H749 C776 0.950 . S
H750 C779 0.950 . S
H751 C780 0.950 . S
H752 C782 0.950 . S
H753 C783 0.950 . S
C754 H736 0.951 . S
C754 C755 1.366 . S
C754 C756 1.388 . S
C755 C754 1.366 . S
C755 C759 1.385 . S
C756 H737 0.951 . S
C756 C754 1.388 . S
C756 C757 1.366 . S
C757 C756 1.366 . S
C757 C758 1.414 . S
C757 C760 1.499 . S
C758 H738 0.950 . S
C758 C757 1.414 . S
C758 C759 1.374 . S
C759 H739 0.950 . S
C759 C755 1.385 . S
C759 C758 1.374 . S
C760 C757 1.499 . S
C760 C761 1.373 . S
C760 C762 1.389 . S
C761 H740 0.950 . S
C761 C760 1.373 . S
C761 C777 1.377 . S
C762 C760 1.389 . S
C762 C763 1.524 . S
C762 C776 1.377 . S
C763 C762 1.524 . S
C763 C764 1.397 . S
C763 C768 1.363 . S
C764 H741 0.950 . S
C764 C763 1.397 . S
C764 C765 1.334 . S
C765 H742 0.950 . S
C765 C764 1.334 . S
C765 C766 1.287 . S
C766 C765 1.287 . S
C766 C767 1.524 . S
C766 H785 0.913 . S
C767 H743 0.950 . S
C767 C766 1.524 . S
C767 C768 1.415 . S
C768 H744 0.950 . S
C768 C763 1.363 . S
C768 C767 1.415 . S
C769 H745 0.951 . S
C769 C770 1.366 . S
C769 C771 1.388 . S
C770 C769 1.366 . S
C770 C774 1.385 . S
C771 H746 0.951 . S
C771 C769 1.388 . S
C771 C772 1.366 . S
C772 C771 1.366 . S
C772 C773 1.414 . S
C772 C775 1.499 . S
C773 H747 0.950 . S
C773 C772 1.414 . S
C773 C774 1.374 . S
C774 H748 0.950 . S
C774 C770 1.385 . S
C774 C773 1.374 . S
C775 C772 1.499 . S
C775 C776 1.373 . S
C775 C777 1.389 . S
C776 H749 0.950 . S
C776 C762 1.377 . S
C776 C775 1.373 . S
C777 C761 1.377 . S
C777 C775 1.389 . S
C777 C778 1.524 . S
C778 C777 1.524 . S
C778 C779 1.397 . S
C778 C783 1.363 . S
C779 H750 0.950 . S
C779 C778 1.397 . S
C779 C780 1.334 . S
C780 H751 0.950 . S
C780 C779 1.334 . S
C780 C781 1.287 . S
C781 C780 1.287 . S
C781 C782 1.524 . S
C781 H784 0.999 . S
C782 H752 0.950 . S
C782 C781 1.524 . S
C782 C783 1.415 . S
C783 H753 0.950 . S
C783 C778 1.363 . S
C783 C782 1.415 . S
H784 C781 0.999 . S
H785 C766 0.913 . S
H786 C804 0.951 . S
H787 C806 0.951 . S
H788 C808 0.950 . S
H789 C809 0.950 . S
H790 C811 0.950 . S
H791 C814 0.950 . S
H792 C815 0.950 . S
H793 C817 0.950 . S
H794 C818 0.950 . S
H795 C819 0.951 . S
H796 C821 0.951 . S
H797 C823 0.950 . S
H798 C824 0.950 . S
H799 C826 0.950 . S
H800 C829 0.950 . S
H801 C830 0.950 . S
H802 C832 0.950 . S
H803 C833 0.950 . S
C804 H786 0.951 . S
C804 C805 1.366 . S
C804 C806 1.388 . S
C805 C804 1.366 . S
C805 C809 1.385 . S
C806 H787 0.951 . S
C806 C804 1.388 . S
C806 C807 1.366 . S
C807 C806 1.366 . S
C807 C808 1.414 . S
C807 C810 1.499 . S
C808 H788 0.950 . S
C808 C807 1.414 . S
C808 C809 1.374 . S
C809 H789 0.950 . S
C809 C805 1.385 . S
C809 C808 1.374 . S
C810 C807 1.499 . S
C810 C811 1.373 . S
C810 C812 1.389 . S
C811 H790 0.950 . S
C811 C810 1.373 . S
C811 C827 1.377 . S
C812 C810 1.389 . S
C812 C813 1.524 . S
C812 C826 1.377 . S
C813 C812 1.524 . S
C813 C814 1.397 . S
C813 C818 1.363 . S
C814 H791 0.950 . S
C814 C813 1.397 . S
C814 C815 1.334 . S
C815 H792 0.950 . S
C815 C814 1.334 . S
C815 C816 1.287 . S
C816 C815 1.287 . S
C816 C817 1.524 . S
C816 H835 0.913 . S
C817 H793 0.950 . S
C817 C816 1.524 . S
C817 C818 1.415 . S
C818 H794 0.950 . S
C818 C813 1.363 . S
C818 C817 1.415 . S
C819 H795 0.951 . S
C819 C820 1.366 . S
C819 C821 1.388 . S
C820 C819 1.366 . S
C820 C824 1.385 . S
C821 H796 0.951 . S
C821 C819 1.388 . S
C821 C822 1.366 . S
C822 C821 1.366 . S
C822 C823 1.414 . S
C822 C825 1.499 . S
C823 H797 0.950 . S
C823 C822 1.414 . S
C823 C824 1.374 . S
C824 H798 0.950 . S
C824 C820 1.385 . S
C824 C823 1.374 . S
C825 C822 1.499 . S
C825 C826 1.373 . S
C825 C827 1.389 . S
C826 H799 0.950 . S
C826 C812 1.377 . S
C826 C825 1.373 . S
C827 C811 1.377 . S
C827 C825 1.389 . S
C827 C828 1.524 . S
C828 C827 1.524 . S
C828 C829 1.397 . S
C828 C833 1.363 . S
C829 H800 0.950 . S
C829 C828 1.397 . S
C829 C830 1.334 . S
C830 H801 0.950 . S
C830 C829 1.334 . S
C830 C831 1.287 . S
C831 C830 1.287 . S
C831 C832 1.524 . S
C831 H834 0.999 . S
C832 H802 0.950 . S
C832 C831 1.524 . S
C832 C833 1.415 . S
C833 H803 0.950 . S
C833 C828 1.363 . S
C833 C832 1.415 . S
H834 C831 0.999 . S
H835 C816 0.913 . S
H836 C854 0.951 . S
H837 C856 0.951 . S
H838 C858 0.950 . S
H839 C859 0.950 . S
H840 C861 0.950 . S
H841 C864 0.950 . S
H842 C865 0.950 . S
H843 C867 0.950 . S
H844 C868 0.950 . S
H845 C869 0.951 . S
H846 C871 0.951 . S
H847 C873 0.950 . S
H848 C874 0.950 . S
H849 C876 0.950 . S
H850 C879 0.950 . S
H851 C880 0.950 . S
H852 C882 0.950 . S
H853 C883 0.950 . S
C854 H836 0.951 . S
C854 C855 1.366 . S
C854 C856 1.388 . S
C855 C854 1.366 . S
C855 C859 1.385 . S
C856 H837 0.951 . S
C856 C854 1.388 . S
C856 C857 1.366 . S
C857 C856 1.366 . S
C857 C858 1.414 . S
C857 C860 1.499 . S
C858 H838 0.950 . S
C858 C857 1.414 . S
C858 C859 1.374 . S
C859 H839 0.950 . S
C859 C855 1.385 . S
C859 C858 1.374 . S
C860 C857 1.499 . S
C860 C861 1.373 . S
C860 C862 1.389 . S
C861 H840 0.950 . S
C861 C860 1.373 . S
C861 C877 1.377 . S
C862 C860 1.389 . S
C862 C863 1.524 . S
C862 C876 1.377 . S
C863 C862 1.524 . S
C863 C864 1.397 . S
C863 C868 1.363 . S
C864 H841 0.950 . S
C864 C863 1.397 . S
C864 C865 1.334 . S
C865 H842 0.950 . S
C865 C864 1.334 . S
C865 C866 1.287 . S
C866 C865 1.287 . S
C866 C867 1.524 . S
C866 H885 0.913 . S
C867 H843 0.950 . S
C867 C866 1.524 . S
C867 C868 1.415 . S
C868 H844 0.950 . S
C868 C863 1.363 . S
C868 C867 1.415 . S
C869 H845 0.951 . S
C869 C870 1.366 . S
C869 C871 1.388 . S
C870 C869 1.366 . S
C870 C874 1.385 . S
C871 H846 0.951 . S
C871 C869 1.388 . S
C871 C872 1.366 . S
C872 C871 1.366 . S
C872 C873 1.414 . S
C872 C875 1.499 . S
C873 H847 0.950 . S
C873 C872 1.414 . S
C873 C874 1.374 . S
C874 H848 0.950 . S
C874 C870 1.385 . S
C874 C873 1.374 . S
C875 C872 1.499 . S
C875 C876 1.373 . S
C875 C877 1.389 . S
C876 H849 0.950 . S
C876 C862 1.377 . S
C876 C875 1.373 . S
C877 C861 1.377 . S
C877 C875 1.389 . S
C877 C878 1.524 . S
C878 C877 1.524 . S
C878 C879 1.397 . S
C878 C883 1.363 . S
C879 H850 0.950 . S
C879 C878 1.397 . S
C879 C880 1.334 . S
C880 H851 0.950 . S
C880 C879 1.334 . S
C880 C881 1.287 . S
C881 C880 1.287 . S
C881 C882 1.524 . S
C881 H884 0.999 . S
C882 H852 0.950 . S
C882 C881 1.524 . S
C882 C883 1.415 . S
C883 H853 0.950 . S
C883 C878 1.363 . S
C883 C882 1.415 . S
H884 C881 0.999 . S
H885 C866 0.913 . S
H886 C904 0.951 . S
H887 C906 0.951 . S
H888 C908 0.950 . S
H889 C909 0.950 . S
H890 C911 0.950 . S
H891 C914 0.950 . S
H892 C915 0.950 . S
H893 C917 0.950 . S
H894 C918 0.950 . S
H895 C919 0.951 . S
H896 C921 0.951 . S
H897 C923 0.950 . S
H898 C924 0.950 . S
H899 C926 0.950 . S
H900 C929 0.950 . S
H901 C930 0.950 . S
H902 C932 0.950 . S
H903 C933 0.950 . S
C904 H886 0.951 . S
C904 C905 1.366 . S
C904 C906 1.388 . S
C905 C904 1.366 . S
C905 C909 1.385 . S
C906 H887 0.951 . S
C906 C904 1.388 . S
C906 C907 1.366 . S
C907 C906 1.366 . S
C907 C908 1.414 . S
C907 C910 1.499 . S
C908 H888 0.950 . S
C908 C907 1.414 . S
C908 C909 1.374 . S
C909 H889 0.950 . S
C909 C905 1.385 . S
C909 C908 1.374 . S
C910 C907 1.499 . S
C910 C911 1.373 . S
C910 C912 1.389 . S
C911 H890 0.950 . S
C911 C910 1.373 . S
C911 C927 1.377 . S
C912 C910 1.389 . S
C912 C913 1.524 . S
C912 C926 1.377 . S
C913 C912 1.524 . S
C913 C914 1.397 . S
C913 C918 1.363 . S
C914 H891 0.950 . S
C914 C913 1.397 . S
C914 C915 1.334 . S
C915 H892 0.950 . S
C915 C914 1.334 . S
C915 C916 1.287 . S
C916 C915 1.287 . S
C916 C917 1.524 . S
C916 H935 0.913 . S
C917 H893 0.950 . S
C917 C916 1.524 . S
C917 C918 1.415 . S
C918 H894 0.950 . S
C918 C913 1.363 . S
C918 C917 1.415 . S
C919 H895 0.951 . S
C919 C920 1.366 . S
C919 C921 1.388 . S
C920 C919 1.366 . S
C920 C924 1.385 . S
C921 H896 0.951 . S
C921 C919 1.388 . S
C921 C922 1.366 . S
C922 C921 1.366 . S
C922 C923 1.414 . S
C922 C925 1.499 . S
C923 H897 0.950 . S
C923 C922 1.414 . S
C923 C924 1.374 . S
C924 H898 0.950 . S
C924 C920 1.385 . S
C924 C923 1.374 . S
C925 C922 1.499 . S
C925 C926 1.373 . S
C925 C927 1.389 . S
C926 H899 0.950 . S
C926 C912 1.377 . S
C926 C925 1.373 . S
C927 C911 1.377 . S
C927 C925 1.389 . S
C927 C928 1.524 . S
C928 C927 1.524 . S
C928 C929 1.397 . S
C928 C933 1.363 . S
C929 H900 0.950 . S
C929 C928 1.397 . S
C929 C930 1.334 . S
C930 H901 0.950 . S
C930 C929 1.334 . S
C930 C931 1.287 . S
C931 C930 1.287 . S
C931 C932 1.524 . S
C931 H934 0.999 . S
C932 H902 0.950 . S
C932 C931 1.524 . S
C932 C933 1.415 . S
C933 H903 0.950 . S
C933 C928 1.363 . S
C933 C932 1.415 . S
H934 C931 0.999 . S
H935 C916 0.913 . S
H936 C954 0.951 . S
H937 C956 0.951 . S
H938 C958 0.950 . S
H939 C959 0.950 . S
H940 C961 0.950 . S
H941 C964 0.950 . S
H942 C965 0.950 . S
H943 C967 0.950 . S
H944 C968 0.950 . S
H945 C969 0.951 . S
H946 C971 0.951 . S
H947 C973 0.950 . S
H948 C974 0.950 . S
H949 C976 0.950 . S
H950 C979 0.950 . S
H951 C980 0.950 . S
H952 C982 0.950 . S
H953 C983 0.950 . S
C954 H936 0.951 . S
C954 C955 1.366 . S
C954 C956 1.388 . S
C955 C954 1.366 . S
C955 C959 1.385 . S
C956 H937 0.951 . S
C956 C954 1.388 . S
C956 C957 1.366 . S
C957 C956 1.366 . S
C957 C958 1.414 . S
C957 C960 1.499 . S
C958 H938 0.950 . S
C958 C957 1.414 . S
C958 C959 1.374 . S
C959 H939 0.950 . S
C959 C955 1.385 . S
C959 C958 1.374 . S
C960 C957 1.499 . S
C960 C961 1.373 . S
C960 C962 1.389 . S
C961 H940 0.950 . S
C961 C960 1.373 . S
C961 C977 1.377 . S
C962 C960 1.389 . S
C962 C963 1.524 . S
C962 C976 1.377 . S
C963 C962 1.524 . S
C963 C964 1.397 . S
C963 C968 1.363 . S
C964 H941 0.950 . S
C964 C963 1.397 . S
C964 C965 1.334 . S
C965 H942 0.950 . S
C965 C964 1.334 . S
C965 C966 1.287 . S
C966 C965 1.287 . S
C966 C967 1.524 . S
C966 H985 0.913 . S
C967 H943 0.950 . S
C967 C966 1.524 . S
C967 C968 1.415 . S
C968 H944 0.950 . S
C968 C963 1.363 . S
C968 C967 1.415 . S
C969 H945 0.951 . S
C969 C970 1.366 . S
C969 C971 1.388 . S
C970 C969 1.366 . S
C970 C974 1.385 . S
C971 H946 0.951 . S
C971 C969 1.388 . S
C971 C972 1.366 . S
C972 C971 1.366 . S
C972 C973 1.414 . S
C972 C975 1.499 . S
C973 H947 0.950 . S
C973 C972 1.414 . S
C973 C974 1.374 . S
C974 H948 0.950 . S
C974 C970 1.385 . S
C974 C973 1.374 . S
C975 C972 1.499 . S
C975 C976 1.373 . S
C975 C977 1.389 . S
C976 H949 0.950 . S
C976 C962 1.377 . S
C976 C975 1.373 . S
C977 C961 1.377 . S
C977 C975 1.389 . S
C977 C978 1.524 . S
C978 C977 1.524 . S
C978 C979 1.397 . S
C978 C983 1.363 . S
C979 H950 0.950 . S
C979 C978 1.397 . S
C979 C980 1.334 . S
C980 H951 0.950 . S
C980 C979 1.334 . S
C980 C981 1.287 . S
C981 C980 1.287 . S
C981 C982 1.524 . S
C981 H984 0.999 . S
C982 H952 0.950 . S
C982 C981 1.524 . S
C982 C983 1.415 . S
C983 H953 0.950 . S
C983 C978 1.363 . S
C983 C982 1.415 . S
H984 C981 0.999 . S
H985 C966 0.913 . S
H986 C1004 0.951 . S
H987 C1006 0.951 . S
H988 C1008 0.950 . S
H989 C1009 0.950 . S
H990 C1011 0.950 . S
H991 C1014 0.950 . S
H992 C1015 0.950 . S
H993 C1017 0.950 . S
H994 C1018 0.950 . S
H995 C1019 0.951 . S
H996 C1021 0.951 . S
H997 C1023 0.950 . S
H998 C1024 0.950 . S
H999 C1026 0.950 . S
H1000 C1029 0.950 . S
H1001 C1030 0.950 . S
H1002 C1032 0.950 . S
H1003 C1033 0.950 . S
C1004 H986 0.951 . S
C1004 C1005 1.366 . S
C1004 C1006 1.388 . S
C1005 C1004 1.366 . S
C1005 C1009 1.385 . S
C1006 H987 0.951 . S
C1006 C1004 1.388 . S
C1006 C1007 1.366 . S
C1007 C1006 1.366 . S
C1007 C1008 1.414 . S
C1007 C1010 1.499 . S
C1008 H988 0.950 . S
C1008 C1007 1.414 . S
C1008 C1009 1.374 . S
C1009 H989 0.950 . S
C1009 C1005 1.385 . S
C1009 C1008 1.374 . S
C1010 C1007 1.499 . S
C1010 C1011 1.373 . S
C1010 C1012 1.389 . S
C1011 H990 0.950 . S
C1011 C1010 1.373 . S
C1011 C1027 1.377 . S
C1012 C1010 1.389 . S
C1012 C1013 1.524 . S
C1012 C1026 1.377 . S
C1013 C1012 1.524 . S
C1013 C1014 1.397 . S
C1013 C1018 1.363 . S
C1014 H991 0.950 . S
C1014 C1013 1.397 . S
C1014 C1015 1.334 . S
C1015 H992 0.950 . S
C1015 C1014 1.334 . S
C1015 C1016 1.287 . S
C1016 C1015 1.287 . S
C1016 C1017 1.524 . S
C1016 H1035 0.913 . S
C1017 H993 0.950 . S
C1017 C1016 1.524 . S
C1017 C1018 1.415 . S
C1018 H994 0.950 . S
C1018 C1013 1.363 . S
C1018 C1017 1.415 . S
C1019 H995 0.951 . S
C1019 C1020 1.366 . S
C1019 C1021 1.388 . S
C1020 C1019 1.366 . S
C1020 C1024 1.385 . S
C1021 H996 0.951 . S
C1021 C1019 1.388 . S
C1021 C1022 1.366 . S
C1022 C1021 1.366 . S
C1022 C1023 1.414 . S
C1022 C1025 1.499 . S
C1023 H997 0.950 . S
C1023 C1022 1.414 . S
C1023 C1024 1.374 . S
C1024 H998 0.950 . S
C1024 C1020 1.385 . S
C1024 C1023 1.374 . S
C1025 C1022 1.499 . S
C1025 C1026 1.373 . S
C1025 C1027 1.389 . S
C1026 H999 0.950 . S
C1026 C1012 1.377 . S
C1026 C1025 1.373 . S
C1027 C1011 1.377 . S
C1027 C1025 1.389 . S
C1027 C1028 1.524 . S
C1028 C1027 1.524 . S
C1028 C1029 1.397 . S
C1028 C1033 1.363 . S
C1029 H1000 0.950 . S
C1029 C1028 1.397 . S
C1029 C1030 1.334 . S
C1030 H1001 0.950 . S
C1030 C1029 1.334 . S
C1030 C1031 1.287 . S
C1031 C1030 1.287 . S
C1031 C1032 1.524 . S
C1031 H1034 0.999 . S
C1032 H1002 0.950 . S
C1032 C1031 1.524 . S
C1032 C1033 1.415 . S
C1033 H1003 0.950 . S
C1033 C1028 1.363 . S
C1033 C1032 1.415 . S
H1034 C1031 0.999 . S
H1035 C1016 0.913 . S
H1036 C1054 0.951 . S
H1037 C1056 0.951 . S
H1038 C1058 0.950 . S
H1039 C1059 0.950 . S
H1040 C1061 0.950 . S
H1041 C1064 0.950 . S
H1042 C1065 0.950 . S
H1043 C1067 0.950 . S
H1044 C1068 0.950 . S
H1045 C1069 0.951 . S
H1046 C1071 0.951 . S
H1047 C1073 0.950 . S
H1048 C1074 0.950 . S
H1049 C1076 0.950 . S
H1050 C1079 0.950 . S
H1051 C1080 0.950 . S
H1052 C1082 0.950 . S
H1053 C1083 0.950 . S
C1054 H1036 0.951 . S
C1054 C1055 1.366 . S
C1054 C1056 1.388 . S
C1055 C1054 1.366 . S
C1055 C1059 1.385 . S
C1056 H1037 0.951 . S
C1056 C1054 1.388 . S
C1056 C1057 1.366 . S
C1057 C1056 1.366 . S
C1057 C1058 1.414 . S
C1057 C1060 1.499 . S
C1058 H1038 0.950 . S
C1058 C1057 1.414 . S
C1058 C1059 1.374 . S
C1059 H1039 0.950 . S
C1059 C1055 1.385 . S
C1059 C1058 1.374 . S
C1060 C1057 1.499 . S
C1060 C1061 1.373 . S
C1060 C1062 1.389 . S
C1061 H1040 0.950 . S
C1061 C1060 1.373 . S
C1061 C1077 1.377 . S
C1062 C1060 1.389 . S
C1062 C1063 1.524 . S
C1062 C1076 1.377 . S
C1063 C1062 1.524 . S
C1063 C1064 1.397 . S
C1063 C1068 1.363 . S
C1064 H1041 0.950 . S
C1064 C1063 1.397 . S
C1064 C1065 1.334 . S
C1065 H1042 0.950 . S
C1065 C1064 1.334 . S
C1065 C1066 1.287 . S
C1066 C1065 1.287 . S
C1066 C1067 1.524 . S
C1066 H1085 0.913 . S
C1067 H1043 0.950 . S
C1067 C1066 1.524 . S
C1067 C1068 1.415 . S
C1068 H1044 0.950 . S
C1068 C1063 1.363 . S
C1068 C1067 1.415 . S
C1069 H1045 0.951 . S
C1069 C1070 1.366 . S
C1069 C1071 1.388 . S
C1070 C1069 1.366 . S
C1070 C1074 1.385 . S
C1071 H1046 0.951 . S
C1071 C1069 1.388 . S
C1071 C1072 1.366 . S
C1072 C1071 1.366 . S
C1072 C1073 1.414 . S
C1072 C1075 1.499 . S
C1073 H1047 0.950 . S
C1073 C1072 1.414 . S
C1073 C1074 1.374 . S
C1074 H1048 0.950 . S
C1074 C1070 1.385 . S
C1074 C1073 1.374 . S
C1075 C1072 1.499 . S
C1075 C1076 1.373 . S
C1075 C1077 1.389 . S
C1076 H1049 0.950 . S
C1076 C1062 1.377 . S
C1076 C1075 1.373 . S
C1077 C1061 1.377 . S
C1077 C1075 1.389 . S
C1077 C1078 1.524 . S
C1078 C1077 1.524 . S
C1078 C1079 1.397 . S
C1078 C1083 1.363 . S
C1079 H1050 0.950 . S
C1079 C1078 1.397 . S
C1079 C1080 1.334 . S
C1080 H1051 0.950 . S
C1080 C1079 1.334 . S
C1080 C1081 1.287 . S
C1081 C1080 1.287 . S
C1081 C1082 1.524 . S
C1081 H1084 0.999 . S
C1082 H1052 0.950 . S
C1082 C1081 1.524 . S
C1082 C1083 1.415 . S
C1083 H1053 0.950 . S
C1083 C1078 1.363 . S
C1083 C1082 1.415 . S
H1084 C1081 0.999 . S
H1085 C1066 0.913 . S
H1086 C1104 0.951 . S
H1087 C1106 0.951 . S
H1088 C1108 0.950 . S
H1089 C1109 0.950 . S
H1090 C1111 0.950 . S
H1091 C1114 0.950 . S
H1092 C1115 0.950 . S
H1093 C1117 0.950 . S
H1094 C1118 0.950 . S
H1095 C1119 0.951 . S
H1096 C1121 0.951 . S
H1097 C1123 0.950 . S
H1098 C1124 0.950 . S
H1099 C1126 0.950 . S
H1100 C1129 0.950 . S
H1101 C1130 0.950 . S
H1102 C1132 0.950 . S
H1103 C1133 0.950 . S
C1104 H1086 0.951 . S
C1104 C1105 1.366 . S
C1104 C1106 1.388 . S
C1105 C1104 1.366 . S
C1105 C1109 1.385 . S
C1106 H1087 0.951 . S
C1106 C1104 1.388 . S
C1106 C1107 1.366 . S
C1107 C1106 1.366 . S
C1107 C1108 1.414 . S
C1107 C1110 1.499 . S
C1108 H1088 0.950 . S
C1108 C1107 1.414 . S
C1108 C1109 1.374 . S
C1109 H1089 0.950 . S
C1109 C1105 1.385 . S
C1109 C1108 1.374 . S
C1110 C1107 1.499 . S
C1110 C1111 1.373 . S
C1110 C1112 1.389 . S
C1111 H1090 0.950 . S
C1111 C1110 1.373 . S
C1111 C1127 1.377 . S
C1112 C1110 1.389 . S
C1112 C1113 1.524 . S
C1112 C1126 1.377 . S
C1113 C1112 1.524 . S
C1113 C1114 1.397 . S
C1113 C1118 1.363 . S
C1114 H1091 0.950 . S
C1114 C1113 1.397 . S
C1114 C1115 1.334 . S
C1115 H1092 0.950 . S
C1115 C1114 1.334 . S
C1115 C1116 1.287 . S
C1116 C1115 1.287 . S
C1116 C1117 1.524 . S
C1116 H1135 0.913 . S
C1117 H1093 0.950 . S
C1117 C1116 1.524 . S
C1117 C1118 1.415 . S
C1118 H1094 0.950 . S
C1118 C1113 1.363 . S
C1118 C1117 1.415 . S
C1119 H1095 0.951 . S
C1119 C1120 1.366 . S
C1119 C1121 1.388 . S
C1120 C1119 1.366 . S
C1120 C1124 1.385 . S
C1121 H1096 0.951 . S
C1121 C1119 1.388 . S
C1121 C1122 1.366 . S
C1122 C1121 1.366 . S
C1122 C1123 1.414 . S
C1122 C1125 1.499 . S
C1123 H1097 0.950 . S
C1123 C1122 1.414 . S
C1123 C1124 1.374 . S
C1124 H1098 0.950 . S
C1124 C1120 1.385 . S
C1124 C1123 1.374 . S
C1125 C1122 1.499 . S
C1125 C1126 1.373 . S
C1125 C1127 1.389 . S
C1126 H1099 0.950 . S
C1126 C1112 1.377 . S
C1126 C1125 1.373 . S
C1127 C1111 1.377 . S
C1127 C1125 1.389 . S
C1127 C1128 1.524 . S
C1128 C1127 1.524 . S
C1128 C1129 1.397 . S
C1128 C1133 1.363 . S
C1129 H1100 0.950 . S
C1129 C1128 1.397 . S
C1129 C1130 1.334 . S
C1130 H1101 0.950 . S
C1130 C1129 1.334 . S
C1130 C1131 1.287 . S
C1131 C1130 1.287 . S
C1131 C1132 1.524 . S
C1131 H1134 0.999 . S
C1132 H1102 0.950 . S
C1132 C1131 1.524 . S
C1132 C1133 1.415 . S
C1133 H1103 0.950 . S
C1133 C1128 1.363 . S
C1133 C1132 1.415 . S
H1134 C1131 0.999 . S
H1135 C1116 0.913 . S
H1136 C1154 0.951 . S
H1137 C1156 0.951 . S
H1138 C1158 0.950 . S
H1139 C1159 0.950 . S
H1140 C1161 0.950 . S
H1141 C1164 0.950 . S
H1142 C1165 0.950 . S
H1143 C1167 0.950 . S
H1144 C1168 0.950 . S
H1145 C1169 0.951 . S
H1146 C1171 0.951 . S
H1147 C1173 0.950 . S
H1148 C1174 0.950 . S
H1149 C1176 0.950 . S
H1150 C1179 0.950 . S
H1151 C1180 0.950 . S
H1152 C1182 0.950 . S
H1153 C1183 0.950 . S
C1154 H1136 0.951 . S
C1154 C1155 1.366 . S
C1154 C1156 1.388 . S
C1155 C1154 1.366 . S
C1155 C1159 1.385 . S
C1156 H1137 0.951 . S
C1156 C1154 1.388 . S
C1156 C1157 1.366 . S
C1157 C1156 1.366 . S
C1157 C1158 1.414 . S
C1157 C1160 1.499 . S
C1158 H1138 0.950 . S
C1158 C1157 1.414 . S
C1158 C1159 1.374 . S
C1159 H1139 0.950 . S
C1159 C1155 1.385 . S
C1159 C1158 1.374 . S
C1160 C1157 1.499 . S
C1160 C1161 1.373 . S
C1160 C1162 1.389 . S
C1161 H1140 0.950 . S
C1161 C1160 1.373 . S
C1161 C1177 1.377 . S
C1162 C1160 1.389 . S
C1162 C1163 1.524 . S
C1162 C1176 1.377 . S
C1163 C1162 1.524 . S
C1163 C1164 1.397 . S
C1163 C1168 1.363 . S
C1164 H1141 0.950 . S
C1164 C1163 1.397 . S
C1164 C1165 1.334 . S
C1165 H1142 0.950 . S
C1165 C1164 1.334 . S
C1165 C1166 1.287 . S
C1166 C1165 1.287 . S
C1166 C1167 1.524 . S
C1166 H1185 0.913 . S
C1167 H1143 0.950 . S
C1167 C1166 1.524 . S
C1167 C1168 1.415 . S
C1168 H1144 0.950 . S
C1168 C1163 1.363 . S
C1168 C1167 1.415 . S
C1169 H1145 0.951 . S
C1169 C1170 1.366 . S
C1169 C1171 1.388 . S
C1170 C1169 1.366 . S
C1170 C1174 1.385 . S
C1171 H1146 0.951 . S
C1171 C1169 1.388 . S
C1171 C1172 1.366 . S
C1172 C1171 1.366 . S
C1172 C1173 1.414 . S
C1172 C1175 1.499 . S
C1173 H1147 0.950 . S
C1173 C1172 1.414 . S
C1173 C1174 1.374 . S
C1174 H1148 0.950 . S
C1174 C1170 1.385 . S
C1174 C1173 1.374 . S
C1175 C1172 1.499 . S
C1175 C1176 1.373 . S
C1175 C1177 1.389 . S
C1176 H1149 0.950 . S
C1176 C1162 1.377 . S
C1176 C1175 1.373 . S
C1177 C1161 1.377 . S
C1177 C1175 1.389 . S
C1177 C1178 1.524 . S
C1178 C1177 1.524 . S
C1178 C1179 1.397 . S
C1178 C1183 1.363 . S
C1179 H1150 0.950 . S
C1179 C1178 1.397 . S
C1179 C1180 1.334 . S
C1180 H1151 0.950 . S
C1180 C1179 1.334 . S
C1180 C1181 1.287 . S
C1181 C1180 1.287 . S
C1181 C1182 1.524 . S
C1181 H1184 0.999 . S
C1182 H1152 0.950 . S
C1182 C1181 1.524 . S
C1182 C1183 1.415 . S
C1183 H1153 0.950 . S
C1183 C1178 1.363 . S
C1183 C1182 1.415 . S
H1184 C1181 0.999 . S
H1185 C1166 0.913 . S
H1186 C1204 0.951 . S
H1187 C1206 0.951 . S
H1188 C1208 0.950 . S
H1189 C1209 0.950 . S
H1190 C1211 0.950 . S
H1191 C1214 0.950 . S
H1192 C1215 0.950 . S
H1193 C1217 0.950 . S
H1194 C1218 0.950 . S
H1195 C1219 0.951 . S
H1196 C1221 0.951 . S
H1197 C1223 0.950 . S
H1198 C1224 0.950 . S
H1199 C1226 0.950 . S
H1200 C1229 0.950 . S
H1201 C1230 0.950 . S
H1202 C1232 0.950 . S
H1203 C1233 0.950 . S
C1204 H1186 0.951 . S
C1204 C1205 1.366 . S
C1204 C1206 1.388 . S
C1205 C1204 1.366 . S
C1205 C1209 1.385 . S
C1206 H1187 0.951 . S
C1206 C1204 1.388 . S
C1206 C1207 1.366 . S
C1207 C1206 1.366 . S
C1207 C1208 1.414 . S
C1207 C1210 1.499 . S
C1208 H1188 0.950 . S
C1208 C1207 1.414 . S
C1208 C1209 1.374 . S
C1209 H1189 0.950 . S
C1209 C1205 1.385 . S
C1209 C1208 1.374 . S
C1210 C1207 1.499 . S
C1210 C1211 1.373 . S
C1210 C1212 1.389 . S
C1211 H1190 0.950 . S
C1211 C1210 1.373 . S
C1211 C1227 1.377 . S
C1212 C1210 1.389 . S
C1212 C1213 1.524 . S
C1212 C1226 1.377 . S
C1213 C1212 1.524 . S
C1213 C1214 1.397 . S
C1213 C1218 1.363 . S
C1214 H1191 0.950 . S
C1214 C1213 1.397 . S
C1214 C1215 1.334 . S
C1215 H1192 0.950 . S
C1215 C1214 1.334 . S
C1215 C1216 1.287 . S
C1216 C1215 1.287 . S
C1216 C1217 1.524 . S
C1216 H1235 0.913 . S
C1217 H1193 0.950 . S
C1217 C1216 1.524 . S
C1217 C1218 1.415 . S
C1218 H1194 0.950 . S
C1218 C1213 1.363 . S
C1218 C1217 1.415 . S
C1219 H1195 0.951 . S
C1219 C1220 1.366 . S
C1219 C1221 1.388 . S
C1220 C1219 1.366 . S
C1220 C1224 1.385 . S
C1221 H1196 0.951 . S
C1221 C1219 1.388 . S
C1221 C1222 1.366 . S
C1222 C1221 1.366 . S
C1222 C1223 1.414 . S
C1222 C1225 1.499 . S
C1223 H1197 0.950 . S
C1223 C1222 1.414 . S
C1223 C1224 1.374 . S
C1224 H1198 0.950 . S
C1224 C1220 1.385 . S
C1224 C1223 1.374 . S
C1225 C1222 1.499 . S
C1225 C1226 1.373 . S
C1225 C1227 1.389 . S
C1226 H1199 0.950 . S
C1226 C1212 1.377 . S
C1226 C1225 1.373 . S
C1227 C1211 1.377 . S
C1227 C1225 1.389 . S
C1227 C1228 1.524 . S
C1228 C1227 1.524 . S
C1228 C1229 1.397 . S
C1228 C1233 1.363 . S
C1229 H1200 0.950 . S
C1229 C1228 1.397 . S
C1229 C1230 1.334 . S
C1230 H1201 0.950 . S
C1230 C1229 1.334 . S
C1230 C1231 1.287 . S
C1231 C1230 1.287 . S
C1231 C1232 1.524 . S
C1231 H1234 0.999 . S
C1232 H1202 0.950 . S
C1232 C1231 1.524 . S
C1232 C1233 1.415 . S
C1233 H1203 0.950 . S
C1233 C1228 1.363 . S
C1233 C1232 1.415 . S
H1234 C1231 0.999 . S
H1235 C1216 0.913 . S
H1236 C1254 0.951 . S
H1237 C1256 0.951 . S
H1238 C1258 0.950 . S
H1239 C1259 0.950 . S
H1240 C1261 0.950 . S
H1241 C1264 0.950 . S
H1242 C1265 0.950 . S
H1243 C1267 0.950 . S
H1244 C1268 0.950 . S
H1245 C1269 0.951 . S
H1246 C1271 0.951 . S
H1247 C1273 0.950 . S
H1248 C1274 0.950 . S
H1249 C1276 0.950 . S
H1250 C1279 0.950 . S
H1251 C1280 0.950 . S
H1252 C1282 0.950 . S
H1253 C1283 0.950 . S
C1254 H1236 0.951 . S
C1254 C1255 1.366 . S
C1254 C1256 1.388 . S
C1255 C1254 1.366 . S
C1255 C1259 1.385 . S
C1256 H1237 0.951 . S
C1256 C1254 1.388 . S
C1256 C1257 1.366 . S
C1257 C1256 1.366 . S
C1257 C1258 1.414 . S
C1257 C1260 1.499 . S
C1258 H1238 0.950 . S
C1258 C1257 1.414 . S
C1258 C1259 1.374 . S
C1259 H1239 0.950 . S
C1259 C1255 1.385 . S
C1259 C1258 1.374 . S
C1260 C1257 1.499 . S
C1260 C1261 1.373 . S
C1260 C1262 1.389 . S
C1261 H1240 0.950 . S
C1261 C1260 1.373 . S
C1261 C1277 1.377 . S
C1262 C1260 1.389 . S
C1262 C1263 1.524 . S
C1262 C1276 1.377 . S
C1263 C1262 1.524 . S
C1263 C1264 1.397 . S
C1263 C1268 1.363 . S
C1264 H1241 0.950 . S
C1264 C1263 1.397 . S
C1264 C1265 1.334 . S
C1265 H1242 0.950 . S
C1265 C1264 1.334 . S
C1265 C1266 1.287 . S
C1266 C1265 1.287 . S
C1266 C1267 1.524 . S
C1266 H1285 0.913 . S
C1267 H1243 0.950 . S
C1267 C1266 1.524 . S
C1267 C1268 1.415 . S
C1268 H1244 0.950 . S
C1268 C1263 1.363 . S
C1268 C1267 1.415 . S
C1269 H1245 0.951 . S
C1269 C1270 1.366 . S
C1269 C1271 1.388 . S
C1270 C1269 1.366 . S
C1270 C1274 1.385 . S
C1271 H1246 0.951 . S
C1271 C1269 1.388 . S
C1271 C1272 1.366 . S
C1272 C1271 1.366 . S
C1272 C1273 1.414 . S
C1272 C1275 1.499 . S
C1273 H1247 0.950 . S
C1273 C1272 1.414 . S
C1273 C1274 1.374 . S
C1274 H1248 0.950 . S
C1274 C1270 1.385 . S
C1274 C1273 1.374 . S
C1275 C1272 1.499 . S
C1275 C1276 1.373 . S
C1275 C1277 1.389 . S
C1276 H1249 0.950 . S
C1276 C1262 1.377 . S
C1276 C1275 1.373 . S
C1277 C1261 1.377 . S
C1277 C1275 1.389 . S
C1277 C1278 1.524 . S
C1278 C1277 1.524 . S
C1278 C1279 1.397 . S
C1278 C1283 1.363 . S
C1279 H1250 0.950 . S
C1279 C1278 1.397 . S
C1279 C1280 1.334 . S
C1280 H1251 0.950 . S
C1280 C1279 1.334 . S
C1280 C1281 1.287 . S
C1281 C1280 1.287 . S
C1281 C1282 1.524 . S
C1281 H1284 0.999 . S
C1282 H1252 0.950 . S
C1282 C1281 1.524 . S
C1282 C1283 1.415 . S
C1283 H1253 0.950 . S
C1283 C1278 1.363 . S
C1283 C1282 1.415 . S
H1284 C1281 0.999 . S
H1285 C1266 0.913 . S
H1286 C1304 0.951 . S
H1287 C1306 0.951 . S
H1288 C1308 0.950 . S
H1289 C1309 0.950 . S
H1290 C1311 0.950 . S
H1291 C1314 0.950 . S
H1292 C1315 0.950 . S
H1293 C1317 0.950 . S
H1294 C1318 0.950 . S
H1295 C1319 0.951 . S
H1296 C1321 0.951 . S
H1297 C1323 0.950 . S
H1298 C1324 0.950 . S
H1299 C1326 0.950 . S
H1300 C1329 0.950 . S
H1301 C1330 0.950 . S
H1302 C1332 0.950 . S
H1303 C1333 0.950 . S
C1304 H1286 0.951 . S
C1304 C1305 1.366 . S
C1304 C1306 1.388 . S
C1305 C1304 1.366 . S
C1305 C1309 1.385 . S
C1306 H1287 0.951 . S
C1306 C1304 1.388 . S
C1306 C1307 1.366 . S
C1307 C1306 1.366 . S
C1307 C1308 1.414 . S
C1307 C1310 1.499 . S
C1308 H1288 0.950 . S
C1308 C1307 1.414 . S
C1308 C1309 1.374 . S
C1309 H1289 0.950 . S
C1309 C1305 1.385 . S
C1309 C1308 1.374 . S
C1310 C1307 1.499 . S
C1310 C1311 1.373 . S
C1310 C1312 1.389 . S
C1311 H1290 0.950 . S
C1311 C1310 1.373 . S
C1311 C1327 1.377 . S
C1312 C1310 1.389 . S
C1312 C1313 1.524 . S
C1312 C1326 1.377 . S
C1313 C1312 1.524 . S
C1313 C1314 1.397 . S
C1313 C1318 1.363 . S
C1314 H1291 0.950 . S
C1314 C1313 1.397 . S
C1314 C1315 1.334 . S
C1315 H1292 0.950 . S
C1315 C1314 1.334 . S
C1315 C1316 1.287 . S
C1316 C1315 1.287 . S
C1316 C1317 1.524 . S
C1316 H1335 0.913 . S
C1317 H1293 0.950 . S
C1317 C1316 1.524 . S
C1317 C1318 1.415 . S
C1318 H1294 0.950 . S
C1318 C1313 1.363 . S
C1318 C1317 1.415 . S
C1319 H1295 0.951 . S
C1319 C1320 1.366 . S
C1319 C1321 1.388 . S
C1320 C1319 1.366 . S
C1320 C1324 1.385 . S
C1321 H1296 0.951 . S
C1321 C1319 1.388 . S
C1321 C1322 1.366 . S
C1322 C1321 1.366 . S
C1322 C1323 1.414 . S
C1322 C1325 1.499 . S
C1323 H1297 0.950 . S
C1323 C1322 1.414 . S
C1323 C1324 1.374 . S
C1324 H1298 0.950 . S
C1324 C1320 1.385 . S
C1324 C1323 1.374 . S
C1325 C1322 1.499 . S
C1325 C1326 1.373 . S
C1325 C1327 1.389 . S
C1326 H1299 0.950 . S
C1326 C1312 1.377 . S
C1326 C1325 1.373 . S
C1327 C1311 1.377 . S
C1327 C1325 1.389 . S
C1327 C1328 1.524 . S
C1328 C1327 1.524 . S
C1328 C1329 1.397 . S
C1328 C1333 1.363 . S
C1329 H1300 0.950 . S
C1329 C1328 1.397 . S
C1329 C1330 1.334 . S
C1330 H1301 0.950 . S
C1330 C1329 1.334 . S
C1330 C1331 1.287 . S
C1331 C1330 1.287 . S
C1331 C1332 1.524 . S
C1331 H1334 0.999 . S
C1332 H1302 0.950 . S
C1332 C1331 1.524 . S
C1332 C1333 1.415 . S
C1333 H1303 0.950 . S
C1333 C1328 1.363 . S
C1333 C1332 1.415 . S
H1334 C1331 0.999 . S
H1335 C1316 0.913 . S
H1336 C1354 0.951 . S
H1337 C1356 0.951 . S
H1338 C1358 0.950 . S
H1339 C1359 0.950 . S
H1340 C1361 0.950 . S
H1341 C1364 0.950 . S
H1342 C1365 0.950 . S
H1343 C1367 0.950 . S
H1344 C1368 0.950 . S
H1345 C1369 0.951 . S
H1346 C1371 0.951 . S
H1347 C1373 0.950 . S
H1348 C1374 0.950 . S
H1349 C1376 0.950 . S
H1350 C1379 0.950 . S
H1351 C1380 0.950 . S
H1352 C1382 0.950 . S
H1353 C1383 0.950 . S
C1354 H1336 0.951 . S
C1354 C1355 1.366 . S
C1354 C1356 1.388 . S
C1355 C1354 1.366 . S
C1355 C1359 1.385 . S
C1356 H1337 0.951 . S
C1356 C1354 1.388 . S
C1356 C1357 1.366 . S
C1357 C1356 1.366 . S
C1357 C1358 1.414 . S
C1357 C1360 1.499 . S
C1358 H1338 0.950 . S
C1358 C1357 1.414 . S
C1358 C1359 1.374 . S
C1359 H1339 0.950 . S
C1359 C1355 1.385 . S
C1359 C1358 1.374 . S
C1360 C1357 1.499 . S
C1360 C1361 1.373 . S
C1360 C1362 1.389 . S
C1361 H1340 0.950 . S
C1361 C1360 1.373 . S
C1361 C1377 1.377 . S
C1362 C1360 1.389 . S
C1362 C1363 1.524 . S
C1362 C1376 1.377 . S
C1363 C1362 1.524 . S
C1363 C1364 1.397 . S
C1363 C1368 1.363 . S
C1364 H1341 0.950 . S
C1364 C1363 1.397 . S
C1364 C1365 1.334 . S
C1365 H1342 0.950 . S
C1365 C1364 1.334 . S
C1365 C1366 1.287 . S
C1366 C1365 1.287 . S
C1366 C1367 1.524 . S
C1366 H1385 0.913 . S
C1367 H1343 0.950 . S
C1367 C1366 1.524 . S
C1367 C1368 1.415 . S
C1368 H1344 0.950 . S
C1368 C1363 1.363 . S
C1368 C1367 1.415 . S
C1369 H1345 0.951 . S
C1369 C1370 1.366 . S
C1369 C1371 1.388 . S
C1370 C1369 1.366 . S
C1370 C1374 1.385 . S
C1371 H1346 0.951 . S
C1371 C1369 1.388 . S
C1371 C1372 1.366 . S
C1372 C1371 1.366 . S
C1372 C1373 1.414 . S
C1372 C1375 1.499 . S
C1373 H1347 0.950 . S
C1373 C1372 1.414 . S
C1373 C1374 1.374 . S
C1374 H1348 0.950 . S
C1374 C1370 1.385 . S
C1374 C1373 1.374 . S
C1375 C1372 1.499 . S
C1375 C1376 1.373 . S
C1375 C1377 1.389 . S
C1376 H1349 0.950 . S
C1376 C1362 1.377 . S
C1376 C1375 1.373 . S
C1377 C1361 1.377 . S
C1377 C1375 1.389 . S
C1377 C1378 1.524 . S
C1378 C1377 1.524 . S
C1378 C1379 1.397 . S
C1378 C1383 1.363 . S
C1379 H1350 0.950 . S
C1379 C1378 1.397 . S
C1379 C1380 1.334 . S
C1380 H1351 0.950 . S
C1380 C1379 1.334 . S
C1380 C1381 1.287 . S
C1381 C1380 1.287 . S
C1381 C1382 1.524 . S
C1381 H1384 0.999 . S
C1382 H1352 0.950 . S
C1382 C1381 1.524 . S
C1382 C1383 1.415 . S
C1383 H1353 0.950 . S
C1383 C1378 1.363 . S
C1383 C1382 1.415 . S
H1384 C1381 0.999 . S
H1385 C1366 0.913 . S
H1386 C1404 0.951 . S
H1387 C1406 0.951 . S
H1388 C1408 0.950 . S
H1389 C1409 0.950 . S
H1390 C1411 0.950 . S
H1391 C1414 0.950 . S
H1392 C1415 0.950 . S
H1393 C1417 0.950 . S
H1394 C1418 0.950 . S
H1395 C1419 0.951 . S
H1396 C1421 0.951 . S
H1397 C1423 0.950 . S
H1398 C1424 0.950 . S
H1399 C1426 0.950 . S
H1400 C1429 0.950 . S
H1401 C1430 0.950 . S
H1402 C1432 0.950 . S
H1403 C1433 0.950 . S
C1404 H1386 0.951 . S
C1404 C1405 1.366 . S
C1404 C1406 1.388 . S
C1405 C1404 1.366 . S
C1405 C1409 1.385 . S
C1406 H1387 0.951 . S
C1406 C1404 1.388 . S
C1406 C1407 1.366 . S
C1407 C1406 1.366 . S
C1407 C1408 1.414 . S
C1407 C1410 1.499 . S
C1408 H1388 0.950 . S
C1408 C1407 1.414 . S
C1408 C1409 1.374 . S
C1409 H1389 0.950 . S
C1409 C1405 1.385 . S
C1409 C1408 1.374 . S
C1410 C1407 1.499 . S
C1410 C1411 1.373 . S
C1410 C1412 1.389 . S
C1411 H1390 0.950 . S
C1411 C1410 1.373 . S
C1411 C1427 1.377 . S
C1412 C1410 1.389 . S
C1412 C1413 1.524 . S
C1412 C1426 1.377 . S
C1413 C1412 1.524 . S
C1413 C1414 1.397 . S
C1413 C1418 1.363 . S
C1414 H1391 0.950 . S
C1414 C1413 1.397 . S
C1414 C1415 1.334 . S
C1415 H1392 0.950 . S
C1415 C1414 1.334 . S
C1415 C1416 1.287 . S
C1416 C1415 1.287 . S
C1416 C1417 1.524 . S
C1416 H1435 0.913 . S
C1417 H1393 0.950 . S
C1417 C1416 1.524 . S
C1417 C1418 1.415 . S
C1418 H1394 0.950 . S
C1418 C1413 1.363 . S
C1418 C1417 1.415 . S
C1419 H1395 0.951 . S
C1419 C1420 1.366 . S
C1419 C1421 1.388 . S
C1420 C1419 1.366 . S
C1420 C1424 1.385 . S
C1421 H1396 0.951 . S
C1421 C1419 1.388 . S
C1421 C1422 1.366 . S
C1422 C1421 1.366 . S
C1422 C1423 1.414 . S
C1422 C1425 1.499 . S
C1423 H1397 0.950 . S
C1423 C1422 1.414 . S
C1423 C1424 1.374 . S
C1424 H1398 0.950 . S
C1424 C1420 1.385 . S
C1424 C1423 1.374 . S
C1425 C1422 1.499 . S
C1425 C1426 1.373 . S
C1425 C1427 1.389 . S
C1426 H1399 0.950 . S
C1426 C1412 1.377 . S
C1426 C1425 1.373 . S
C1427 C1411 1.377 . S
C1427 C1425 1.389 . S
C1427 C1428 1.524 . S
C1428 C1427 1.524 . S
C1428 C1429 1.397 . S
C1428 C1433 1.363 . S
C1429 H1400 0.950 . S
C1429 C1428 1.397 . S
C1429 C1430 1.334 . S
C1430 H1401 0.950 . S
C1430 C1429 1.334 . S
C1430 C1431 1.287 . S
C1431 C1430 1.287 . S
C1431 C1432 1.524 . S
C1431 H1434 0.999 . S
C1432 H1402 0.950 . S
C1432 C1431 1.524 . S
C1432 C1433 1.415 . S
C1433 H1403 0.950 . S
C1433 C1428 1.363 . S
C1433 C1432 1.415 . S
H1434 C1431 0.999 . S
H1435 C1416 0.913 . S
H1436 C1454 0.951 . S
H1437 C1456 0.951 . S
H1438 C1458 0.950 . S
H1439 C1459 0.950 . S
H1440 C1461 0.950 . S
H1441 C1464 0.950 . S
H1442 C1465 0.950 . S
H1443 C1467 0.950 . S
H1444 C1468 0.950 . S
H1445 C1469 0.951 . S
H1446 C1471 0.951 . S
H1447 C1473 0.950 . S
H1448 C1474 0.950 . S
H1449 C1476 0.950 . S
H1450 C1479 0.950 . S
H1451 C1480 0.950 . S
H1452 C1482 0.950 . S
H1453 C1483 0.950 . S
C1454 H1436 0.951 . S
C1454 C1455 1.366 . S
C1454 C1456 1.388 . S
C1455 C1454 1.366 . S
C1455 C1459 1.385 . S
C1456 H1437 0.951 . S
C1456 C1454 1.388 . S
C1456 C1457 1.366 . S
C1457 C1456 1.366 . S
C1457 C1458 1.414 . S
C1457 C1460 1.499 . S
C1458 H1438 0.950 . S
C1458 C1457 1.414 . S
C1458 C1459 1.374 . S
C1459 H1439 0.950 . S
C1459 C1455 1.385 . S
C1459 C1458 1.374 . S
C1460 C1457 1.499 . S
C1460 C1461 1.373 . S
C1460 C1462 1.389 . S
C1461 H1440 0.950 . S
C1461 C1460 1.373 . S
C1461 C1477 1.377 . S
C1462 C1460 1.389 . S
C1462 C1463 1.524 . S
C1462 C1476 1.377 . S
C1463 C1462 1.524 . S
C1463 C1464 1.397 . S
C1463 C1468 1.363 . S
C1464 H1441 0.950 . S
C1464 C1463 1.397 . S
C1464 C1465 1.334 . S
C1465 H1442 0.950 . S
C1465 C1464 1.334 . S
C1465 C1466 1.287 . S
C1466 C1465 1.287 . S
C1466 C1467 1.524 . S
C1466 H1485 0.913 . S
C1467 H1443 0.950 . S
C1467 C1466 1.524 . S
C1467 C1468 1.415 . S
C1468 H1444 0.950 . S
C1468 C1463 1.363 . S
C1468 C1467 1.415 . S
C1469 H1445 0.951 . S
C1469 C1470 1.366 . S
C1469 C1471 1.388 . S
C1470 C1469 1.366 . S
C1470 C1474 1.385 . S
C1471 H1446 0.951 . S
C1471 C1469 1.388 . S
C1471 C1472 1.366 . S
C1472 C1471 1.366 . S
C1472 C1473 1.414 . S
C1472 C1475 1.499 . S
C1473 H1447 0.950 . S
C1473 C1472 1.414 . S
C1473 C1474 1.374 . S
C1474 H1448 0.950 . S
C1474 C1470 1.385 . S
C1474 C1473 1.374 . S
C1475 C1472 1.499 . S
C1475 C1476 1.373 . S
C1475 C1477 1.389 . S
C1476 H1449 0.950 . S
C1476 C1462 1.377 . S
C1476 C1475 1.373 . S
C1477 C1461 1.377 . S
C1477 C1475 1.389 . S
C1477 C1478 1.524 . S
C1478 C1477 1.524 . S
C1478 C1479 1.397 . S
C1478 C1483 1.363 . S
C1479 H1450 0.950 . S
C1479 C1478 1.397 . S
C1479 C1480 1.334 . S
C1480 H1451 0.950 . S
C1480 C1479 1.334 . S
C1480 C1481 1.287 . S
C1481 C1480 1.287 . S
C1481 C1482 1.524 . S
C1481 H1484 0.999 . S
C1482 H1452 0.950 . S
C1482 C1481 1.524 . S
C1482 C1483 1.415 . S
C1483 H1453 0.950 . S
C1483 C1478 1.363 . S
C1483 C1482 1.415 . S
H1484 C1481 0.999 . S
H1485 C1466 0.913 . S
H1486 C1504 0.951 . S
H1487 C1506 0.951 . S
H1488 C1508 0.950 . S
H1489 C1509 0.950 . S
H1490 C1511 0.950 . S
H1491 C1514 0.950 . S
H1492 C1515 0.950 . S
H1493 C1517 0.950 . S
H1494 C1518 0.950 . S
H1495 C1519 0.951 . S
H1496 C1521 0.951 . S
H1497 C1523 0.950 . S
H1498 C1524 0.950 . S
H1499 C1526 0.950 . S
H1500 C1529 0.950 . S
H1501 C1530 0.950 . S
H1502 C1532 0.950 . S
H1503 C1533 0.950 . S
C1504 H1486 0.951 . S
C1504 C1505 1.366 . S
C1504 C1506 1.388 . S
C1505 C1504 1.366 . S
C1505 C1509 1.385 . S
C1506 H1487 0.951 . S
C1506 C1504 1.388 . S
C1506 C1507 1.366 . S
C1507 C1506 1.366 . S
C1507 C1508 1.414 . S
C1507 C1510 1.499 . S
C1508 H1488 0.950 . S
C1508 C1507 1.414 . S
C1508 C1509 1.374 . S
C1509 H1489 0.950 . S
C1509 C1505 1.385 . S
C1509 C1508 1.374 . S
C1510 C1507 1.499 . S
C1510 C1511 1.373 . S
C1510 C1512 1.389 . S
C1511 H1490 0.950 . S
C1511 C1510 1.373 . S
C1511 C1527 1.377 . S
C1512 C1510 1.389 . S
C1512 C1513 1.524 . S
C1512 C1526 1.377 . S
C1513 C1512 1.524 . S
C1513 C1514 1.397 . S
C1513 C1518 1.363 . S
C1514 H1491 0.950 . S
C1514 C1513 1.397 . S
C1514 C1515 1.334 . S
C1515 H1492 0.950 . S
C1515 C1514 1.334 . S
C1515 C1516 1.287 . S
C1516 C1515 1.287 . S
C1516 C1517 1.524 . S
C1516 H1535 0.913 . S
C1517 H1493 0.950 . S
C1517 C1516 1.524 . S
C1517 C1518 1.415 . S
C1518 H1494 0.950 . S
C1518 C1513 1.363 . S
C1518 C1517 1.415 . S
C1519 H1495 0.951 . S
C1519 C1520 1.366 . S
C1519 C1521 1.388 . S
C1520 C1519 1.366 . S
C1520 C1524 1.385 . S
C1521 H1496 0.951 . S
C1521 C1519 1.388 . S
C1521 C1522 1.366 . S
C1522 C1521 1.366 . S
C1522 C1523 1.414 . S
C1522 C1525 1.499 . S
C1523 H1497 0.950 . S
C1523 C1522 1.414 . S
C1523 C1524 1.374 . S
C1524 H1498 0.950 . S
C1524 C1520 1.385 . S
C1524 C1523 1.374 . S
C1525 C1522 1.499 . S
C1525 C1526 1.373 . S
C1525 C1527 1.389 . S
C1526 H1499 0.950 . S
C1526 C1512 1.377 . S
C1526 C1525 1.373 . S
C1527 C1511 1.377 . S
C1527 C1525 1.389 . S
C1527 C1528 1.524 . S
C1528 C1527 1.524 . S
C1528 C1529 1.397 . S
C1528 C1533 1.363 . S
C1529 H1500 0.950 . S
C1529 C1528 1.397 . S
C1529 C1530 1.334 . S
C1530 H1501 0.950 . S
C1530 C1529 1.334 . S
C1530 C1531 1.287 . S
C1531 C1530 1.287 . S
C1531 C1532 1.524 . S
C1531 H1534 0.999 . S
C1532 H1502 0.950 . S
C1532 C1531 1.524 . S
C1532 C1533 1.415 . S
C1533 H1503 0.950 . S
C1533 C1528 1.363 . S
C1533 C1532 1.415 . S
H1534 C1531 0.999 . S
H1535 C1516 0.913 . S
H1536 C1554 0.951 . S
H1537 C1556 0.951 . S
H1538 C1558 0.950 . S
H1539 C1559 0.950 . S
H1540 C1561 0.950 . S
H1541 C1564 0.950 . S
H1542 C1565 0.950 . S
H1543 C1567 0.950 . S
H1544 C1568 0.950 . S
H1545 C1569 0.951 . S
H1546 C1571 0.951 . S
H1547 C1573 0.950 . S
H1548 C1574 0.950 . S
H1549 C1576 0.950 . S
H1550 C1579 0.950 . S
H1551 C1580 0.950 . S
H1552 C1582 0.950 . S
H1553 C1583 0.950 . S
C1554 H1536 0.951 . S
C1554 C1555 1.366 . S
C1554 C1556 1.388 . S
C1555 C1554 1.366 . S
C1555 C1559 1.385 . S
C1556 H1537 0.951 . S
C1556 C1554 1.388 . S
C1556 C1557 1.366 . S
C1557 C1556 1.366 . S
C1557 C1558 1.414 . S
C1557 C1560 1.499 . S
C1558 H1538 0.950 . S
C1558 C1557 1.414 . S
C1558 C1559 1.374 . S
C1559 H1539 0.950 . S
C1559 C1555 1.385 . S
C1559 C1558 1.374 . S
C1560 C1557 1.499 . S
C1560 C1561 1.373 . S
C1560 C1562 1.389 . S
C1561 H1540 0.950 . S
C1561 C1560 1.373 . S
C1561 C1577 1.377 . S
C1562 C1560 1.389 . S
C1562 C1563 1.524 . S
C1562 C1576 1.377 . S
C1563 C1562 1.524 . S
C1563 C1564 1.397 . S
C1563 C1568 1.363 . S
C1564 H1541 0.950 . S
C1564 C1563 1.397 . S
C1564 C1565 1.334 . S
C1565 H1542 0.950 . S
C1565 C1564 1.334 . S
C1565 C1566 1.287 . S
C1566 C1565 1.287 . S
C1566 C1567 1.524 . S
C1566 H1585 0.913 . S
C1567 H1543 0.950 . S
C1567 C1566 1.524 . S
C1567 C1568 1.415 . S
C1568 H1544 0.950 . S
C1568 C1563 1.363 . S
C1568 C1567 1.415 . S
C1569 H1545 0.951 . S
C1569 C1570 1.366 . S
C1569 C1571 1.388 . S
C1570 C1569 1.366 . S
C1570 C1574 1.385 . S
C1571 H1546 0.951 . S
C1571 C1569 1.388 . S
C1571 C1572 1.366 . S
C1572 C1571 1.366 . S
C1572 C1573 1.414 . S
C1572 C1575 1.499 . S
C1573 H1547 0.950 . S
C1573 C1572 1.414 . S
C1573 C1574 1.374 . S
C1574 H1548 0.950 . S
C1574 C1570 1.385 . S
C1574 C1573 1.374 . S
C1575 C1572 1.499 . S
C1575 C1576 1.373 . S
C1575 C1577 1.389 . S
C1576 H1549 0.950 . S
C1576 C1562 1.377 . S
C1576 C1575 1.373 . S
C1577 C1561 1.377 . S
C1577 C1575 1.389 . S
C1577 C1578 1.524 . S
C1578 C1577 1.524 . S
C1578 C1579 1.397 . S
C1578 C1583 1.363 . S
C1579 H1550 0.950 . S
C1579 C1578 1.397 . S
C1579 C1580 1.334 . S
C1580 H1551 0.950 . S
C1580 C1579 1.334 . S
C1580 C1581 1.287 . S
C1581 C1580 1.287 . S
C1581 C1582 1.524 . S
C1581 H1584 0.999 . S
C1582 H1552 0.950 . S
C1582 C1581 1.524 . S
C1582 C1583 1.415 . S
C1583 H1553 0.950 . S
C1583 C1578 1.363 . S
C1583 C1582 1.415 . S
H1584 C1581 0.999 . S
H1585 C1566 0.913 . S
H1586 C1604 0.951 . S
H1587 C1606 0.951 . S
H1588 C1608 0.950 . S
H1589 C1609 0.950 . S
H1590 C1611 0.950 . S
H1591 C1614 0.950 . S
H1592 C1615 0.950 . S
H1593 C1617 0.950 . S
H1594 C1618 0.950 . S
H1595 C1619 0.951 . S
H1596 C1621 0.951 . S
H1597 C1623 0.950 . S
H1598 C1624 0.950 . S
H1599 C1626 0.950 . S
H1600 C1629 0.950 . S
H1601 C1630 0.950 . S
H1602 C1632 0.950 . S
H1603 C1633 0.950 . S
C1604 H1586 0.951 . S
C1604 C1605 1.366 . S
C1604 C1606 1.388 . S
C1605 C1604 1.366 . S
C1605 C1609 1.385 . S
C1606 H1587 0.951 . S
C1606 C1604 1.388 . S
C1606 C1607 1.366 . S
C1607 C1606 1.366 . S
C1607 C1608 1.414 . S
C1607 C1610 1.499 . S
C1608 H1588 0.950 . S
C1608 C1607 1.414 . S
C1608 C1609 1.374 . S
C1609 H1589 0.950 . S
C1609 C1605 1.385 . S
C1609 C1608 1.374 . S
C1610 C1607 1.499 . S
C1610 C1611 1.373 . S
C1610 C1612 1.389 . S
C1611 H1590 0.950 . S
C1611 C1610 1.373 . S
C1611 C1627 1.377 . S
C1612 C1610 1.389 . S
C1612 C1613 1.524 . S
C1612 C1626 1.377 . S
C1613 C1612 1.524 . S
C1613 C1614 1.397 . S
C1613 C1618 1.363 . S
C1614 H1591 0.950 . S
C1614 C1613 1.397 . S
C1614 C1615 1.334 . S
C1615 H1592 0.950 . S
C1615 C1614 1.334 . S
C1615 C1616 1.287 . S
C1616 C1615 1.287 . S
C1616 C1617 1.524 . S
C1616 H1635 0.913 . S
C1617 H1593 0.950 . S
C1617 C1616 1.524 . S
C1617 C1618 1.415 . S
C1618 H1594 0.950 . S
C1618 C1613 1.363 . S
C1618 C1617 1.415 . S
C1619 H1595 0.951 . S
C1619 C1620 1.366 . S
C1619 C1621 1.388 . S
C1620 C1619 1.366 . S
C1620 C1624 1.385 . S
C1621 H1596 0.951 . S
C1621 C1619 1.388 . S
C1621 C1622 1.366 . S
C1622 C1621 1.366 . S
C1622 C1623 1.414 . S
C1622 C1625 1.499 . S
C1623 H1597 0.950 . S
C1623 C1622 1.414 . S
C1623 C1624 1.374 . S
C1624 H1598 0.950 . S
C1624 C1620 1.385 . S
C1624 C1623 1.374 . S
C1625 C1622 1.499 . S
C1625 C1626 1.373 . S
C1625 C1627 1.389 . S
C1626 H1599 0.950 . S
C1626 C1612 1.377 . S
C1626 C1625 1.373 . S
C1627 C1611 1.377 . S
C1627 C1625 1.389 . S
C1627 C1628 1.524 . S
C1628 C1627 1.524 . S
C1628 C1629 1.397 . S
C1628 C1633 1.363 . S
C1629 H1600 0.950 . S
C1629 C1628 1.397 . S
C1629 C1630 1.334 . S
C1630 H1601 0.950 . S
C1630 C1629 1.334 . S
C1630 C1631 1.287 . S
C1631 C1630 1.287 . S
C1631 C1632 1.524 . S
C1631 H1634 0.999 . S
C1632 H1602 0.950 . S
C1632 C1631 1.524 . S
C1632 C1633 1.415 . S
C1633 H1603 0.950 . S
C1633 C1628 1.363 . S
C1633 C1632 1.415 . S
H1634 C1631 0.999 . S
H1635 C1616 0.913 . S
H1636 C1654 0.951 . S
H1637 C1656 0.951 . S
H1638 C1658 0.950 . S
H1639 C1659 0.950 . S
H1640 C1661 0.950 . S
H1641 C1664 0.950 . S
H1642 C1665 0.950 . S
H1643 C1667 0.950 . S
H1644 C1668 0.950 . S
H1645 C1669 0.951 . S
H1646 C1671 0.951 . S
H1647 C1673 0.950 . S
H1648 C1674 0.950 . S
H1649 C1676 0.950 . S
H1650 C1679 0.950 . S
H1651 C1680 0.950 . S
H1652 C1682 0.950 . S
H1653 C1683 0.950 . S
C1654 H1636 0.951 . S
C1654 C1655 1.366 . S
C1654 C1656 1.388 . S
C1655 C1654 1.366 . S
C1655 C1659 1.385 . S
C1656 H1637 0.951 . S
C1656 C1654 1.388 . S
C1656 C1657 1.366 . S
C1657 C1656 1.366 . S
C1657 C1658 1.414 . S
C1657 C1660 1.499 . S
C1658 H1638 0.950 . S
C1658 C1657 1.414 . S
C1658 C1659 1.374 . S
C1659 H1639 0.950 . S
C1659 C1655 1.385 . S
C1659 C1658 1.374 . S
C1660 C1657 1.499 . S
C1660 C1661 1.373 . S
C1660 C1662 1.389 . S
C1661 H1640 0.950 . S
C1661 C1660 1.373 . S
C1661 C1677 1.377 1_565 S
C1662 C1660 1.389 . S
C1662 C1663 1.524 . S
C1662 C1676 1.377 1_565 S
C1663 C1662 1.524 . S
C1663 C1664 1.397 . S
C1663 C1668 1.363 . S
C1664 H1641 0.950 . S
C1664 C1663 1.397 . S
C1664 C1665 1.334 . S
C1665 H1642 0.950 . S
C1665 C1664 1.334 . S
C1665 C1666 1.287 . S
C1666 C1665 1.287 . S
C1666 C1667 1.524 . S
C1666 H1685 0.913 . S
C1667 H1643 0.950 . S
C1667 C1666 1.524 . S
C1667 C1668 1.415 . S
C1668 H1644 0.950 . S
C1668 C1663 1.363 . S
C1668 C1667 1.415 . S
C1669 H1645 0.951 . S
C1669 C1670 1.366 . S
C1669 C1671 1.388 . S
C1670 C1669 1.366 . S
C1670 C1674 1.385 . S
C1671 H1646 0.951 . S
C1671 C1669 1.388 . S
C1671 C1672 1.366 . S
C1672 C1671 1.366 . S
C1672 C1673 1.414 . S
C1672 C1675 1.499 . S
C1673 H1647 0.950 . S
C1673 C1672 1.414 . S
C1673 C1674 1.374 . S
C1674 H1648 0.950 . S
C1674 C1670 1.385 . S
C1674 C1673 1.374 . S
C1675 C1672 1.499 . S
C1675 C1676 1.373 . S
C1675 C1677 1.389 . S
C1676 H1649 0.950 . S
C1676 C1662 1.377 1_545 S
C1676 C1675 1.373 . S
C1677 C1661 1.377 1_545 S
C1677 C1675 1.389 . S
C1677 C1678 1.524 . S
C1678 C1677 1.524 . S
C1678 C1679 1.397 . S
C1678 C1683 1.363 . S
C1679 H1650 0.950 . S
C1679 C1678 1.397 . S
C1679 C1680 1.334 . S
C1680 H1651 0.950 . S
C1680 C1679 1.334 . S
C1680 C1681 1.287 . S
C1681 C1680 1.287 . S
C1681 C1682 1.524 . S
C1681 H1684 0.999 . S
C1682 H1652 0.950 . S
C1682 C1681 1.524 . S
C1682 C1683 1.415 . S
C1683 H1653 0.950 . S
C1683 C1678 1.363 . S
C1683 C1682 1.415 . S
H1684 C1681 0.999 . S
H1685 C1666 0.913 . S
H1686 C1704 0.951 . S
H1687 C1706 0.951 . S
H1688 C1708 0.950 . S
H1689 C1709 0.950 . S
H1690 C1711 0.950 . S
H1691 C1714 0.950 . S
H1692 C1715 0.950 . S
H1693 C1717 0.950 . S
H1694 C1718 0.950 . S
H1695 C1719 0.951 . S
H1696 C1721 0.951 . S
H1697 C1723 0.950 . S
H1698 C1724 0.950 . S
H1699 C1726 0.950 . S
H1700 C1729 0.950 . S
H1701 C1730 0.950 . S
H1702 C1732 0.950 . S
H1703 C1733 0.950 . S
C1704 H1686 0.951 . S
C1704 C1705 1.366 . S
C1704 C1706 1.388 . S
C1705 C1704 1.366 . S
C1705 C1709 1.385 . S
C1706 H1687 0.951 . S
C1706 C1704 1.388 . S
C1706 C1707 1.366 . S
C1707 C1706 1.366 . S
C1707 C1708 1.414 . S
C1707 C1710 1.499 . S
C1708 H1688 0.950 . S
C1708 C1707 1.414 . S
C1708 C1709 1.374 . S
C1709 H1689 0.950 . S
C1709 C1705 1.385 . S
C1709 C1708 1.374 . S
C1710 C1707 1.499 . S
C1710 C1711 1.373 . S
C1710 C1712 1.389 . S
C1711 H1690 0.950 . S
C1711 C1710 1.373 . S
C1711 C1727 1.377 1_455 S
C1712 C1710 1.389 . S
C1712 C1713 1.524 . S
C1712 C1726 1.377 1_455 S
C1713 C1712 1.524 . S
C1713 C1714 1.397 . S
C1713 C1718 1.363 1_455 S
C1714 H1691 0.950 . S
C1714 C1713 1.397 . S
C1714 C1715 1.334 . S
C1715 H1692 0.950 . S
C1715 C1714 1.334 . S
C1715 C1716 1.287 . S
C1716 C1715 1.287 . S
C1716 C1717 1.524 1_455 S
C1716 H1735 0.913 . S
C1717 H1693 0.950 . S
C1717 C1716 1.524 1_655 S
C1717 C1718 1.415 . S
C1718 H1694 0.950 . S
C1718 C1713 1.363 1_655 S
C1718 C1717 1.415 . S
C1719 H1695 0.951 . S
C1719 C1720 1.366 . S
C1719 C1721 1.388 . S
C1720 C1719 1.366 . S
C1720 C1724 1.385 . S
C1721 H1696 0.951 . S
C1721 C1719 1.388 . S
C1721 C1722 1.366 . S
C1722 C1721 1.366 . S
C1722 C1723 1.414 . S
C1722 C1725 1.499 . S
C1723 H1697 0.950 . S
C1723 C1722 1.414 . S
C1723 C1724 1.374 . S
C1724 H1698 0.950 . S
C1724 C1720 1.385 . S
C1724 C1723 1.374 . S
C1725 C1722 1.499 . S
C1725 C1726 1.373 . S
C1725 C1727 1.389 . S
C1726 H1699 0.950 . S
C1726 C1712 1.377 1_655 S
C1726 C1725 1.373 . S
C1727 C1711 1.377 1_655 S
C1727 C1725 1.389 . S
C1727 C1728 1.524 . S
C1728 C1727 1.524 . S
C1728 C1729 1.397 . S
C1728 C1733 1.363 1_655 S
C1729 H1700 0.950 . S
C1729 C1728 1.397 . S
C1729 C1730 1.334 . S
C1730 H1701 0.950 . S
C1730 C1729 1.334 . S
C1730 C1731 1.287 . S
C1731 C1730 1.287 . S
C1731 C1732 1.524 1_655 S
C1731 H1734 0.999 . S
C1732 H1702 0.950 . S
C1732 C1731 1.524 1_455 S
C1732 C1733 1.415 . S
C1733 H1703 0.950 . S
C1733 C1728 1.363 1_455 S
C1733 C1732 1.415 . S
H1734 C1731 0.999 . S
H1735 C1716 0.913 . S
H1736 C1754 0.951 . S
H1737 C1756 0.951 . S
H1738 C1758 0.950 . S
H1739 C1759 0.950 . S
H1740 C1761 0.950 . S
H1741 C1764 0.950 . S
H1742 C1765 0.950 . S
H1743 C1767 0.950 . S
H1744 C1768 0.950 . S
H1745 C1769 0.951 . S
H1746 C1771 0.951 . S
H1747 C1773 0.950 . S
H1748 C1774 0.950 . S
H1749 C1776 0.950 . S
H1750 C1779 0.950 . S
H1751 C1780 0.950 . S
H1752 C1782 0.950 . S
H1753 C1783 0.950 . S
C1754 H1736 0.951 . S
C1754 C1755 1.366 . S
C1754 C1756 1.388 . S
C1755 C1754 1.366 . S
C1755 C1759 1.385 . S
C1756 H1737 0.951 . S
C1756 C1754 1.388 . S
C1756 C1757 1.366 . S
C1757 C1756 1.366 . S
C1757 C1758 1.414 . S
C1757 C1760 1.499 . S
C1758 H1738 0.950 . S
C1758 C1757 1.414 . S
C1758 C1759 1.374 . S
C1759 H1739 0.950 . S
C1759 C1755 1.385 . S
C1759 C1758 1.374 . S
C1760 C1757 1.499 . S
C1760 C1761 1.373 . S
C1760 C1762 1.389 . S
C1761 H1740 0.950 . S
C1761 C1760 1.373 . S
C1761 C1777 1.377 1_565 S
C1762 C1760 1.389 . S
C1762 C1763 1.524 . S
C1762 C1776 1.377 1_565 S
C1763 C1762 1.524 . S
C1763 C1764 1.397 . S
C1763 C1768 1.363 . S
C1764 H1741 0.950 . S
C1764 C1763 1.397 . S
C1764 C1765 1.334 . S
C1765 H1742 0.950 . S
C1765 C1764 1.334 . S
C1765 C1766 1.287 . S
C1766 C1765 1.287 . S
C1766 C1767 1.524 . S
C1766 H1785 0.913 . S
C1767 H1743 0.950 . S
C1767 C1766 1.524 . S
C1767 C1768 1.415 . S
C1768 H1744 0.950 . S
C1768 C1763 1.363 . S
C1768 C1767 1.415 . S
C1769 H1745 0.951 . S
C1769 C1770 1.366 . S
C1769 C1771 1.388 . S
C1770 C1769 1.366 . S
C1770 C1774 1.385 . S
C1771 H1746 0.951 . S
C1771 C1769 1.388 . S
C1771 C1772 1.366 . S
C1772 C1771 1.366 . S
C1772 C1773 1.414 . S
C1772 C1775 1.499 . S
C1773 H1747 0.950 . S
C1773 C1772 1.414 . S
C1773 C1774 1.374 . S
C1774 H1748 0.950 . S
C1774 C1770 1.385 . S
C1774 C1773 1.374 . S
C1775 C1772 1.499 . S
C1775 C1776 1.373 . S
C1775 C1777 1.389 . S
C1776 H1749 0.950 . S
C1776 C1762 1.377 1_545 S
C1776 C1775 1.373 . S
C1777 C1761 1.377 1_545 S
C1777 C1775 1.389 . S
C1777 C1778 1.524 . S
C1778 C1777 1.524 . S
C1778 C1779 1.397 . S
C1778 C1783 1.363 . S
C1779 H1750 0.950 . S
C1779 C1778 1.397 . S
C1779 C1780 1.334 . S
C1780 H1751 0.950 . S
C1780 C1779 1.334 . S
C1780 C1781 1.287 . S
C1781 C1780 1.287 . S
C1781 C1782 1.524 . S
C1781 H1784 0.999 . S
C1782 H1752 0.950 . S
C1782 C1781 1.524 . S
C1782 C1783 1.415 . S
C1783 H1753 0.950 . S
C1783 C1778 1.363 . S
C1783 C1782 1.415 . S
H1784 C1781 0.999 . S
H1785 C1766 0.913 . S
H1786 C1804 0.951 . S
H1787 C1806 0.951 . S
H1788 C1808 0.950 . S
H1789 C1809 0.950 . S
H1790 C1811 0.950 . S
H1791 C1814 0.950 . S
H1792 C1815 0.950 . S
H1793 C1817 0.950 . S
H1794 C1818 0.950 . S
H1795 C1819 0.951 . S
H1796 C1821 0.951 . S
H1797 C1823 0.950 . S
H1798 C1824 0.950 . S
H1799 C1826 0.950 . S
H1800 C1829 0.950 . S
H1801 C1830 0.950 . S
H1802 C1832 0.950 . S
H1803 C1833 0.950 . S
C1804 H1786 0.951 . S
C1804 C1805 1.366 . S
C1804 C1806 1.388 . S
C1805 C1804 1.366 . S
C1805 C1809 1.385 . S
C1806 H1787 0.951 . S
C1806 C1804 1.388 . S
C1806 C1807 1.366 . S
C1807 C1806 1.366 . S
C1807 C1808 1.414 . S
C1807 C1810 1.499 . S
C1808 H1788 0.950 . S
C1808 C1807 1.414 . S
C1808 C1809 1.374 . S
C1809 H1789 0.950 . S
C1809 C1805 1.385 . S
C1809 C1808 1.374 . S
C1810 C1807 1.499 . S
C1810 C1811 1.373 . S
C1810 C1812 1.389 . S
C1811 H1790 0.950 . S
C1811 C1810 1.373 . S
C1811 C1827 1.377 1_655 S
C1812 C1810 1.389 . S
C1812 C1813 1.524 . S
C1812 C1826 1.377 1_655 S
C1813 C1812 1.524 . S
C1813 C1814 1.397 . S
C1813 C1818 1.363 . S
C1814 H1791 0.950 . S
C1814 C1813 1.397 . S
C1814 C1815 1.334 . S
C1815 H1792 0.950 . S
C1815 C1814 1.334 . S
C1815 C1816 1.287 . S
C1816 C1815 1.287 . S
C1816 C1817 1.524 . S
C1816 H1835 0.913 . S
C1817 H1793 0.950 . S
C1817 C1816 1.524 . S
C1817 C1818 1.415 . S
C1818 H1794 0.950 . S
C1818 C1813 1.363 . S
C1818 C1817 1.415 . S
C1819 H1795 0.951 . S
C1819 C1820 1.366 . S
C1819 C1821 1.388 . S
C1820 C1819 1.366 . S
C1820 C1824 1.385 . S
C1821 H1796 0.951 . S
C1821 C1819 1.388 . S
C1821 C1822 1.366 . S
C1822 C1821 1.366 . S
C1822 C1823 1.414 . S
C1822 C1825 1.499 . S
C1823 H1797 0.950 . S
C1823 C1822 1.414 . S
C1823 C1824 1.374 . S
C1824 H1798 0.950 . S
C1824 C1820 1.385 . S
C1824 C1823 1.374 . S
C1825 C1822 1.499 . S
C1825 C1826 1.373 . S
C1825 C1827 1.389 . S
C1826 H1799 0.950 . S
C1826 C1812 1.377 1_455 S
C1826 C1825 1.373 . S
C1827 C1811 1.377 1_455 S
C1827 C1825 1.389 . S
C1827 C1828 1.524 . S
C1828 C1827 1.524 . S
C1828 C1829 1.397 . S
C1828 C1833 1.363 . S
C1829 H1800 0.950 . S
C1829 C1828 1.397 . S
C1829 C1830 1.334 . S
C1830 H1801 0.950 . S
C1830 C1829 1.334 . S
C1830 C1831 1.287 . S
C1831 C1830 1.287 . S
C1831 C1832 1.524 . S
C1831 H1834 0.999 . S
C1832 H1802 0.950 . S
C1832 C1831 1.524 . S
C1832 C1833 1.415 . S
C1833 H1803 0.950 . S
C1833 C1828 1.363 . S
C1833 C1832 1.415 . S
H1834 C1831 0.999 . S
H1835 C1816 0.913 . S
H1836 C1854 0.951 . S
H1837 C1856 0.951 . S
H1838 C1858 0.950 . S
H1839 C1859 0.950 . S
H1840 C1861 0.950 . S
H1841 C1864 0.950 . S
H1842 C1865 0.950 . S
H1843 C1867 0.950 . S
H1844 C1868 0.950 . S
H1845 C1869 0.951 . S
H1846 C1871 0.951 . S
H1847 C1873 0.950 . S
H1848 C1874 0.950 . S
H1849 C1876 0.950 . S
H1850 C1879 0.950 . S
H1851 C1880 0.950 . S
H1852 C1882 0.950 . S
H1853 C1883 0.950 . S
C1854 H1836 0.951 . S
C1854 C1855 1.366 . S
C1854 C1856 1.388 . S
C1855 C1854 1.366 . S
C1855 C1859 1.385 . S
C1856 H1837 0.951 . S
C1856 C1854 1.388 . S
C1856 C1857 1.366 . S
C1857 C1856 1.366 . S
C1857 C1858 1.414 . S
C1857 C1860 1.499 . S
C1858 H1838 0.950 . S
C1858 C1857 1.414 . S
C1858 C1859 1.374 . S
C1859 H1839 0.950 . S
C1859 C1855 1.385 . S
C1859 C1858 1.374 . S
C1860 C1857 1.499 . S
C1860 C1861 1.373 . S
C1860 C1862 1.389 . S
C1861 H1840 0.950 . S
C1861 C1860 1.373 . S
C1861 C1877 1.377 . S
C1862 C1860 1.389 . S
C1862 C1863 1.524 . S
C1862 C1876 1.377 . S
C1863 C1862 1.524 . S
C1863 C1864 1.397 . S
C1863 C1868 1.363 . S
C1864 H1841 0.950 . S
C1864 C1863 1.397 . S
C1864 C1865 1.334 . S
C1865 H1842 0.950 . S
C1865 C1864 1.334 . S
C1865 C1866 1.287 . S
C1866 C1865 1.287 . S
C1866 C1867 1.524 . S
C1866 H1885 0.913 . S
C1867 H1843 0.950 . S
C1867 C1866 1.524 . S
C1867 C1868 1.415 . S
C1868 H1844 0.950 . S
C1868 C1863 1.363 . S
C1868 C1867 1.415 . S
C1869 H1845 0.951 . S
C1869 C1870 1.366 . S
C1869 C1871 1.388 . S
C1870 C1869 1.366 . S
C1870 C1874 1.385 . S
C1871 H1846 0.951 . S
C1871 C1869 1.388 . S
C1871 C1872 1.366 . S
C1872 C1871 1.366 . S
C1872 C1873 1.414 . S
C1872 C1875 1.499 . S
C1873 H1847 0.950 . S
C1873 C1872 1.414 . S
C1873 C1874 1.374 . S
C1874 H1848 0.950 . S
C1874 C1870 1.385 . S
C1874 C1873 1.374 . S
C1875 C1872 1.499 . S
C1875 C1876 1.373 . S
C1875 C1877 1.389 . S
C1876 H1849 0.950 . S
C1876 C1862 1.377 . S
C1876 C1875 1.373 . S
C1877 C1861 1.377 . S
C1877 C1875 1.389 . S
C1877 C1878 1.524 . S
C1878 C1877 1.524 . S
C1878 C1879 1.397 . S
C1878 C1883 1.363 . S
C1879 H1850 0.950 . S
C1879 C1878 1.397 . S
C1879 C1880 1.334 . S
C1880 H1851 0.950 . S
C1880 C1879 1.334 . S
C1880 C1881 1.287 . S
C1881 C1880 1.287 . S
C1881 C1882 1.524 . S
C1881 H1884 0.999 . S
C1882 H1852 0.950 . S
C1882 C1881 1.524 . S
C1882 C1883 1.415 . S
C1883 H1853 0.950 . S
C1883 C1878 1.363 . S
C1883 C1882 1.415 . S
H1884 C1881 0.999 . S
H1885 C1866 0.913 . S
H1886 C1904 0.951 . S
H1887 C1906 0.951 . S
H1888 C1908 0.950 . S
H1889 C1909 0.950 . S
H1890 C1911 0.950 . S
H1891 C1914 0.950 . S
H1892 C1915 0.950 . S
H1893 C1917 0.950 . S
H1894 C1918 0.950 . S
H1895 C1919 0.951 . S
H1896 C1921 0.951 . S
H1897 C1923 0.950 . S
H1898 C1924 0.950 . S
H1899 C1926 0.950 . S
H1900 C1929 0.950 . S
H1901 C1930 0.950 . S
H1902 C1932 0.950 . S
H1903 C1933 0.950 . S
C1904 H1886 0.951 . S
C1904 C1905 1.366 . S
C1904 C1906 1.388 . S
C1905 C1904 1.366 . S
C1905 C1909 1.385 . S
C1906 H1887 0.951 . S
C1906 C1904 1.388 . S
C1906 C1907 1.366 . S
C1907 C1906 1.366 . S
C1907 C1908 1.414 . S
C1907 C1910 1.499 . S
C1908 H1888 0.950 . S
C1908 C1907 1.414 . S
C1908 C1909 1.374 . S
C1909 H1889 0.950 . S
C1909 C1905 1.385 . S
C1909 C1908 1.374 . S
C1910 C1907 1.499 . S
C1910 C1911 1.373 . S
C1910 C1912 1.389 . S
C1911 H1890 0.950 . S
C1911 C1910 1.373 . S
C1911 C1927 1.377 . S
C1912 C1910 1.389 . S
C1912 C1913 1.524 . S
C1912 C1926 1.377 . S
C1913 C1912 1.524 . S
C1913 C1914 1.397 . S
C1913 C1918 1.363 . S
C1914 H1891 0.950 . S
C1914 C1913 1.397 . S
C1914 C1915 1.334 . S
C1915 H1892 0.950 . S
C1915 C1914 1.334 . S
C1915 C1916 1.287 . S
C1916 C1915 1.287 . S
C1916 C1917 1.524 . S
C1916 H1935 0.913 . S
C1917 H1893 0.950 . S
C1917 C1916 1.524 . S
C1917 C1918 1.415 . S
C1918 H1894 0.950 . S
C1918 C1913 1.363 . S
C1918 C1917 1.415 . S
C1919 H1895 0.951 . S
C1919 C1920 1.366 . S
C1919 C1921 1.388 . S
C1920 C1919 1.366 . S
C1920 C1924 1.385 . S
C1921 H1896 0.951 . S
C1921 C1919 1.388 . S
C1921 C1922 1.366 . S
C1922 C1921 1.366 . S
C1922 C1923 1.414 . S
C1922 C1925 1.499 . S
C1923 H1897 0.950 . S
C1923 C1922 1.414 . S
C1923 C1924 1.374 . S
C1924 H1898 0.950 . S
C1924 C1920 1.385 . S
C1924 C1923 1.374 . S
C1925 C1922 1.499 . S
C1925 C1926 1.373 . S
C1925 C1927 1.389 . S
C1926 H1899 0.950 . S
C1926 C1912 1.377 . S
C1926 C1925 1.373 . S
C1927 C1911 1.377 . S
C1927 C1925 1.389 . S
C1927 C1928 1.524 . S
C1928 C1927 1.524 . S
C1928 C1929 1.397 . S
C1928 C1933 1.363 . S
C1929 H1900 0.950 . S
C1929 C1928 1.397 . S
C1929 C1930 1.334 . S
C1930 H1901 0.950 . S
C1930 C1929 1.334 . S
C1930 C1931 1.287 . S
C1931 C1930 1.287 . S
C1931 C1932 1.524 . S
C1931 H1934 0.999 . S
C1932 H1902 0.950 . S
C1932 C1931 1.524 . S
C1932 C1933 1.415 . S
C1933 H1903 0.950 . S
C1933 C1928 1.363 . S
C1933 C1932 1.415 . S
H1934 C1931 0.999 . S
H1935 C1916 0.913 . S
H1936 C1954 0.951 . S
H1937 C1956 0.951 . S
H1938 C1958 0.950 . S
H1939 C1959 0.950 . S
H1940 C1961 0.950 . S
H1941 C1964 0.950 . S
H1942 C1965 0.950 . S
H1943 C1967 0.950 . S
H1944 C1968 0.950 . S
H1945 C1969 0.951 . S
H1946 C1971 0.951 . S
H1947 C1973 0.950 . S
H1948 C1974 0.950 . S
H1949 C1976 0.950 . S
H1950 C1979 0.950 . S
H1951 C1980 0.950 . S
H1952 C1982 0.950 . S
H1953 C1983 0.950 . S
C1954 H1936 0.951 . S
C1954 C1955 1.366 . S
C1954 C1956 1.388 . S
C1955 C1954 1.366 . S
C1955 C1959 1.385 . S
C1956 H1937 0.951 . S
C1956 C1954 1.388 . S
C1956 C1957 1.366 . S
C1957 C1956 1.366 . S
C1957 C1958 1.414 . S
C1957 C1960 1.499 . S
C1958 H1938 0.950 . S
C1958 C1957 1.414 . S
C1958 C1959 1.374 . S
C1959 H1939 0.950 . S
C1959 C1955 1.385 . S
C1959 C1958 1.374 . S
C1960 C1957 1.499 . S
C1960 C1961 1.373 . S
C1960 C1962 1.389 . S
C1961 H1940 0.950 . S
C1961 C1960 1.373 . S
C1961 C1977 1.377 . S
C1962 C1960 1.389 . S
C1962 C1963 1.524 . S
C1962 C1976 1.377 . S
C1963 C1962 1.524 . S
C1963 C1964 1.397 . S
C1963 C1968 1.363 . S
C1964 H1941 0.950 . S
C1964 C1963 1.397 . S
C1964 C1965 1.334 . S
C1965 H1942 0.950 . S
C1965 C1964 1.334 . S
C1965 C1966 1.287 . S
C1966 C1965 1.287 . S
C1966 C1967 1.524 . S
C1966 H1985 0.913 . S
C1967 H1943 0.950 . S
C1967 C1966 1.524 . S
C1967 C1968 1.415 . S
C1968 H1944 0.950 . S
C1968 C1963 1.363 . S
C1968 C1967 1.415 . S
C1969 H1945 0.951 . S
C1969 C1970 1.366 . S
C1969 C1971 1.388 . S
C1970 C1969 1.366 . S
C1970 C1974 1.385 . S
C1971 H1946 0.951 . S
C1971 C1969 1.388 . S
C1971 C1972 1.366 . S
C1972 C1971 1.366 . S
C1972 C1973 1.414 . S
C1972 C1975 1.499 . S
C1973 H1947 0.950 . S
C1973 C1972 1.414 . S
C1973 C1974 1.374 . S
C1974 H1948 0.950 . S
C1974 C1970 1.385 . S
C1974 C1973 1.374 . S
C1975 C1972 1.499 . S
C1975 C1976 1.373 . S
C1975 C1977 1.389 . S
C1976 H1949 0.950 . S
C1976 C1962 1.377 . S
C1976 C1975 1.373 . S
C1977 C1961 1.377 . S
C1977 C1975 1.389 . S
C1977 C1978 1.524 . S
C1978 C1977 1.524 . S
C1978 C1979 1.397 . S
C1978 C1983 1.363 . S
C1979 H1950 0.950 . S
C1979 C1978 1.397 . S
C1979 C1980 1.334 . S
C1980 H1951 0.950 . S
C1980 C1979 1.334 . S
C1980 C1981 1.287 . S
C1981 C1980 1.287 . S
C1981 C1982 1.524 . S
C1981 H1984 0.999 . S
C1982 H1952 0.950 . S
C1982 C1981 1.524 . S
C1982 C1983 1.415 . S
C1983 H1953 0.950 . S
C1983 C1978 1.363 . S
C1983 C1982 1.415 . S
H1984 C1981 0.999 . S
H1985 C1966 0.913 . S
H1986 C2004 0.951 . S
H1987 C2006 0.951 . S
H1988 C2008 0.950 . S
H1989 C2009 0.950 . S
H1990 C2011 0.950 . S
H1991 C2014 0.950 . S
H1992 C2015 0.950 . S
H1993 C2017 0.950 . S
H1994 C2018 0.950 1_556 S
H1995 C2019 0.951 . S
H1996 C2021 0.951 . S
H1997 C2023 0.950 . S
H1998 C2024 0.950 . S
H1999 C2026 0.950 . S
H2000 C2029 0.950 . S
H2001 C2030 0.950 . S
H2002 C2032 0.950 . S
H2003 C2033 0.950 1_554 S
C2004 H1986 0.951 . S
C2004 C2005 1.366 . S
C2004 C2006 1.388 . S
C2005 C2004 1.366 . S
C2005 C2009 1.385 . S
C2006 H1987 0.951 . S
C2006 C2004 1.388 . S
C2006 C2007 1.366 . S
C2007 C2006 1.366 . S
C2007 C2008 1.414 . S
C2007 C2010 1.499 . S
C2008 H1988 0.950 . S
C2008 C2007 1.414 . S
C2008 C2009 1.374 . S
C2009 H1989 0.950 . S
C2009 C2005 1.385 . S
C2009 C2008 1.374 . S
C2010 C2007 1.499 . S
C2010 C2011 1.373 . S
C2010 C2012 1.389 . S
C2011 H1990 0.950 . S
C2011 C2010 1.373 . S
C2011 C2027 1.377 1_554 S
C2012 C2010 1.389 . S
C2012 C2013 1.524 . S
C2012 C2026 1.377 1_554 S
C2013 C2012 1.524 . S
C2013 C2014 1.397 . S
C2013 C2018 1.363 . S
C2014 H1991 0.950 . S
C2014 C2013 1.397 . S
C2014 C2015 1.334 . S
C2015 H1992 0.950 . S
C2015 C2014 1.334 . S
C2015 C2016 1.287 . S
C2016 C2015 1.287 . S
C2016 C2017 1.524 . S
C2016 H2035 0.913 . S
C2017 H1993 0.950 . S
C2017 C2016 1.524 . S
C2017 C2018 1.415 . S
C2018 H1994 0.950 1_554 S
C2018 C2013 1.363 . S
C2018 C2017 1.415 . S
C2019 H1995 0.951 . S
C2019 C2020 1.366 . S
C2019 C2021 1.388 . S
C2020 C2019 1.366 . S
C2020 C2024 1.385 . S
C2021 H1996 0.951 . S
C2021 C2019 1.388 . S
C2021 C2022 1.366 . S
C2022 C2021 1.366 . S
C2022 C2023 1.414 . S
C2022 C2025 1.499 . S
C2023 H1997 0.950 . S
C2023 C2022 1.414 . S
C2023 C2024 1.374 . S
C2024 H1998 0.950 . S
C2024 C2020 1.385 . S
C2024 C2023 1.374 . S
C2025 C2022 1.499 . S
C2025 C2026 1.373 . S
C2025 C2027 1.389 . S
C2026 H1999 0.950 . S
C2026 C2012 1.377 1_556 S
C2026 C2025 1.373 . S
C2027 C2011 1.377 1_556 S
C2027 C2025 1.389 . S
C2027 C2028 1.524 . S
C2028 C2027 1.524 . S
C2028 C2029 1.397 . S
C2028 C2033 1.363 . S
C2029 H2000 0.950 . S
C2029 C2028 1.397 . S
C2029 C2030 1.334 . S
C2030 H2001 0.950 . S
C2030 C2029 1.334 . S
C2030 C2031 1.287 . S
C2031 C2030 1.287 . S
C2031 C2032 1.524 . S
C2031 H2034 0.999 . S
C2032 H2002 0.950 . S
C2032 C2031 1.524 . S
C2032 C2033 1.415 . S
C2033 H2003 0.950 1_556 S
C2033 C2028 1.363 . S
C2033 C2032 1.415 . S
H2034 C2031 0.999 . S
H2035 C2016 0.913 . S
H2036 C2054 0.951 . S
H2037 C2056 0.951 . S
H2038 C2058 0.950 . S
H2039 C2059 0.950 . S
H2040 C2061 0.950 . S
H2041 C2064 0.950 . S
H2042 C2065 0.950 . S
H2043 C2067 0.950 . S
H2044 C2068 0.950 . S
H2045 C2069 0.951 . S
H2046 C2071 0.951 . S
H2047 C2073 0.950 . S
H2048 C2074 0.950 . S
H2049 C2076 0.950 . S
H2050 C2079 0.950 . S
H2051 C2080 0.950 . S
H2052 C2082 0.950 . S
H2053 C2083 0.950 . S
C2054 H2036 0.951 . S
C2054 C2055 1.366 . S
C2054 C2056 1.388 . S
C2055 C2054 1.366 . S
C2055 C2059 1.385 . S
C2056 H2037 0.951 . S
C2056 C2054 1.388 . S
C2056 C2057 1.366 . S
C2057 C2056 1.366 . S
C2057 C2058 1.414 . S
C2057 C2060 1.499 . S
C2058 H2038 0.950 . S
C2058 C2057 1.414 . S
C2058 C2059 1.374 . S
C2059 H2039 0.950 . S
C2059 C2055 1.385 . S
C2059 C2058 1.374 . S
C2060 C2057 1.499 . S
C2060 C2061 1.373 . S
C2060 C2062 1.389 . S
C2061 H2040 0.950 . S
C2061 C2060 1.373 . S
C2061 C2077 1.377 . S
C2062 C2060 1.389 . S
C2062 C2063 1.524 . S
C2062 C2076 1.377 . S
C2063 C2062 1.524 . S
C2063 C2064 1.397 . S
C2063 C2068 1.363 . S
C2064 H2041 0.950 . S
C2064 C2063 1.397 . S
C2064 C2065 1.334 . S
C2065 H2042 0.950 . S
C2065 C2064 1.334 . S
C2065 C2066 1.287 . S
C2066 C2065 1.287 . S
C2066 C2067 1.524 . S
C2066 H2085 0.913 . S
C2067 H2043 0.950 . S
C2067 C2066 1.524 . S
C2067 C2068 1.415 . S
C2068 H2044 0.950 . S
C2068 C2063 1.363 . S
C2068 C2067 1.415 . S
C2069 H2045 0.951 . S
C2069 C2070 1.366 . S
C2069 C2071 1.388 . S
C2070 C2069 1.366 . S
C2070 C2074 1.385 . S
C2071 H2046 0.951 . S
C2071 C2069 1.388 . S
C2071 C2072 1.366 . S
C2072 C2071 1.366 . S
C2072 C2073 1.414 . S
C2072 C2075 1.499 . S
C2073 H2047 0.950 . S
C2073 C2072 1.414 . S
C2073 C2074 1.374 . S
C2074 H2048 0.950 . S
C2074 C2070 1.385 . S
C2074 C2073 1.374 . S
C2075 C2072 1.499 . S
C2075 C2076 1.373 . S
C2075 C2077 1.389 . S
C2076 H2049 0.950 . S
C2076 C2062 1.377 . S
C2076 C2075 1.373 . S
C2077 C2061 1.377 . S
C2077 C2075 1.389 . S
C2077 C2078 1.524 . S
C2078 C2077 1.524 . S
C2078 C2079 1.397 . S
C2078 C2083 1.363 . S
C2079 H2050 0.950 . S
C2079 C2078 1.397 . S
C2079 C2080 1.334 . S
C2080 H2051 0.950 . S
C2080 C2079 1.334 . S
C2080 C2081 1.287 . S
C2081 C2080 1.287 . S
C2081 C2082 1.524 . S
C2081 H2084 0.999 . S
C2082 H2052 0.950 . S
C2082 C2081 1.524 . S
C2082 C2083 1.415 . S
C2083 H2053 0.950 . S
C2083 C2078 1.363 . S
C2083 C2082 1.415 . S
H2084 C2081 0.999 . S
H2085 C2066 0.913 . S
H2086 C2104 0.951 . S
H2087 C2106 0.951 . S
H2088 C2108 0.950 . S
H2089 C2109 0.950 . S
H2090 C2111 0.950 . S
H2091 C2114 0.950 . S
H2092 C2115 0.950 . S
H2093 C2117 0.950 . S
H2094 C2118 0.950 . S
H2095 C2119 0.951 . S
H2096 C2121 0.951 . S
H2097 C2123 0.950 . S
H2098 C2124 0.950 . S
H2099 C2126 0.950 . S
H2100 C2129 0.950 . S
H2101 C2130 0.950 . S
H2102 C2132 0.950 . S
H2103 C2133 0.950 . S
C2104 H2086 0.951 . S
C2104 C2105 1.366 . S
C2104 C2106 1.388 . S
C2105 C2104 1.366 . S
C2105 C2109 1.385 . S
C2106 H2087 0.951 . S
C2106 C2104 1.388 . S
C2106 C2107 1.366 . S
C2107 C2106 1.366 . S
C2107 C2108 1.414 . S
C2107 C2110 1.499 . S
C2108 H2088 0.950 . S
C2108 C2107 1.414 . S
C2108 C2109 1.374 . S
C2109 H2089 0.950 . S
C2109 C2105 1.385 . S
C2109 C2108 1.374 . S
C2110 C2107 1.499 . S
C2110 C2111 1.373 . S
C2110 C2112 1.389 . S
C2111 H2090 0.950 . S
C2111 C2110 1.373 . S
C2111 C2127 1.377 1_556 S
C2112 C2110 1.389 . S
C2112 C2113 1.524 . S
C2112 C2126 1.377 1_556 S
C2113 C2112 1.524 . S
C2113 C2114 1.397 . S
C2113 C2118 1.363 . S
C2114 H2091 0.950 . S
C2114 C2113 1.397 . S
C2114 C2115 1.334 . S
C2115 H2092 0.950 . S
C2115 C2114 1.334 . S
C2115 C2116 1.287 . S
C2116 C2115 1.287 . S
C2116 C2117 1.524 . S
C2116 H2135 0.913 . S
C2117 H2093 0.950 . S
C2117 C2116 1.524 . S
C2117 C2118 1.415 . S
C2118 H2094 0.950 . S
C2118 C2113 1.363 . S
C2118 C2117 1.415 . S
C2119 H2095 0.951 . S
C2119 C2120 1.366 . S
C2119 C2121 1.388 . S
C2120 C2119 1.366 . S
C2120 C2124 1.385 . S
C2121 H2096 0.951 . S
C2121 C2119 1.388 . S
C2121 C2122 1.366 . S
C2122 C2121 1.366 . S
C2122 C2123 1.414 . S
C2122 C2125 1.499 . S
C2123 H2097 0.950 . S
C2123 C2122 1.414 . S
C2123 C2124 1.374 . S
C2124 H2098 0.950 . S
C2124 C2120 1.385 . S
C2124 C2123 1.374 . S
C2125 C2122 1.499 . S
C2125 C2126 1.373 . S
C2125 C2127 1.389 . S
C2126 H2099 0.950 . S
C2126 C2112 1.377 1_554 S
C2126 C2125 1.373 . S
C2127 C2111 1.377 1_554 S
C2127 C2125 1.389 . S
C2127 C2128 1.524 . S
C2128 C2127 1.524 . S
C2128 C2129 1.397 . S
C2128 C2133 1.363 . S
C2129 H2100 0.950 . S
C2129 C2128 1.397 . S
C2129 C2130 1.334 . S
C2130 H2101 0.950 . S
C2130 C2129 1.334 . S
C2130 C2131 1.287 . S
C2131 C2130 1.287 . S
C2131 C2132 1.524 . S
C2131 H2134 0.999 . S
C2132 H2102 0.950 . S
C2132 C2131 1.524 . S
C2132 C2133 1.415 . S
C2133 H2103 0.950 . S
C2133 C2128 1.363 . S
C2133 C2132 1.415 . S
H2134 C2131 0.999 . S
H2135 C2116 0.913 . S
H2136 C2154 0.951 . S
H2137 C2156 0.951 . S
H2138 C2158 0.950 . S
H2139 C2159 0.950 . S
H2140 C2161 0.950 . S
H2141 C2164 0.950 . S
H2142 C2165 0.950 . S
H2143 C2167 0.950 . S
H2144 C2168 0.950 . S
H2145 C2169 0.951 . S
H2146 C2171 0.951 . S
H2147 C2173 0.950 . S
H2148 C2174 0.950 . S
H2149 C2176 0.950 . S
H2150 C2179 0.950 . S
H2151 C2180 0.950 . S
H2152 C2182 0.950 . S
H2153 C2183 0.950 . S
C2154 H2136 0.951 . S
C2154 C2155 1.366 . S
C2154 C2156 1.388 . S
C2155 C2154 1.366 . S
C2155 C2159 1.385 . S
C2156 H2137 0.951 . S
C2156 C2154 1.388 . S
C2156 C2157 1.366 . S
C2157 C2156 1.366 . S
C2157 C2158 1.414 . S
C2157 C2160 1.499 . S
C2158 H2138 0.950 . S
C2158 C2157 1.414 . S
C2158 C2159 1.374 . S
C2159 H2139 0.950 . S
C2159 C2155 1.385 . S
C2159 C2158 1.374 . S
C2160 C2157 1.499 . S
C2160 C2161 1.373 . S
C2160 C2162 1.389 . S
C2161 H2140 0.950 . S
C2161 C2160 1.373 . S
C2161 C2177 1.377 . S
C2162 C2160 1.389 . S
C2162 C2163 1.524 . S
C2162 C2176 1.377 . S
C2163 C2162 1.524 . S
C2163 C2164 1.397 . S
C2163 C2168 1.363 . S
C2164 H2141 0.950 . S
C2164 C2163 1.397 . S
C2164 C2165 1.334 . S
C2165 H2142 0.950 . S
C2165 C2164 1.334 . S
C2165 C2166 1.287 . S
C2166 C2165 1.287 . S
C2166 C2167 1.524 . S
C2166 H2185 0.913 . S
C2167 H2143 0.950 . S
C2167 C2166 1.524 . S
C2167 C2168 1.415 . S
C2168 H2144 0.950 . S
C2168 C2163 1.363 . S
C2168 C2167 1.415 . S
C2169 H2145 0.951 . S
C2169 C2170 1.366 . S
C2169 C2171 1.388 . S
C2170 C2169 1.366 . S
C2170 C2174 1.385 . S
C2171 H2146 0.951 . S
C2171 C2169 1.388 . S
C2171 C2172 1.366 . S
C2172 C2171 1.366 . S
C2172 C2173 1.414 . S
C2172 C2175 1.499 . S
C2173 H2147 0.950 . S
C2173 C2172 1.414 . S
C2173 C2174 1.374 . S
C2174 H2148 0.950 . S
C2174 C2170 1.385 . S
C2174 C2173 1.374 . S
C2175 C2172 1.499 . S
C2175 C2176 1.373 . S
C2175 C2177 1.389 . S
C2176 H2149 0.950 . S
C2176 C2162 1.377 . S
C2176 C2175 1.373 . S
C2177 C2161 1.377 . S
C2177 C2175 1.389 . S
C2177 C2178 1.524 . S
C2178 C2177 1.524 . S
C2178 C2179 1.397 . S
C2178 C2183 1.363 . S
C2179 H2150 0.950 . S
C2179 C2178 1.397 . S
C2179 C2180 1.334 . S
C2180 H2151 0.950 . S
C2180 C2179 1.334 . S
C2180 C2181 1.287 . S
C2181 C2180 1.287 . S
C2181 C2182 1.524 . S
C2181 H2184 0.999 . S
C2182 H2152 0.950 . S
C2182 C2181 1.524 . S
C2182 C2183 1.415 . S
C2183 H2153 0.950 . S
C2183 C2178 1.363 . S
C2183 C2182 1.415 . S
H2184 C2181 0.999 . S
H2185 C2166 0.913 . S
H2186 C2204 0.951 . S
H2187 C2206 0.951 . S
H2188 C2208 0.950 . S
H2189 C2209 0.950 . S
H2190 C2211 0.950 . S
H2191 C2214 0.950 . S
H2192 C2215 0.950 . S
H2193 C2217 0.950 . S
H2194 C2218 0.950 . S
H2195 C2219 0.951 . S
H2196 C2221 0.951 . S
H2197 C2223 0.950 . S
H2198 C2224 0.950 . S
H2199 C2226 0.950 . S
H2200 C2229 0.950 . S
H2201 C2230 0.950 . S
H2202 C2232 0.950 . S
H2203 C2233 0.950 . S
C2204 H2186 0.951 . S
C2204 C2205 1.366 . S
C2204 C2206 1.388 . S
C2205 C2204 1.366 . S
C2205 C2209 1.385 . S
C2206 H2187 0.951 . S
C2206 C2204 1.388 . S
C2206 C2207 1.366 . S
C2207 C2206 1.366 . S
C2207 C2208 1.414 . S
C2207 C2210 1.499 . S
C2208 H2188 0.950 . S
C2208 C2207 1.414 . S
C2208 C2209 1.374 . S
C2209 H2189 0.950 . S
C2209 C2205 1.385 . S
C2209 C2208 1.374 . S
C2210 C2207 1.499 . S
C2210 C2211 1.373 . S
C2210 C2212 1.389 . S
C2211 H2190 0.950 . S
C2211 C2210 1.373 . S
C2211 C2227 1.377 . S
C2212 C2210 1.389 . S
C2212 C2213 1.524 . S
C2212 C2226 1.377 . S
C2213 C2212 1.524 . S
C2213 C2214 1.397 . S
C2213 C2218 1.363 . S
C2214 H2191 0.950 . S
C2214 C2213 1.397 . S
C2214 C2215 1.334 . S
C2215 H2192 0.950 . S
C2215 C2214 1.334 . S
C2215 C2216 1.287 . S
C2216 C2215 1.287 . S
C2216 C2217 1.524 . S
C2216 H2235 0.913 . S
C2217 H2193 0.950 . S
C2217 C2216 1.524 . S
C2217 C2218 1.415 . S
C2218 H2194 0.950 . S
C2218 C2213 1.363 . S
C2218 C2217 1.415 . S
C2219 H2195 0.951 . S
C2219 C2220 1.366 . S
C2219 C2221 1.388 . S
C2220 C2219 1.366 . S
C2220 C2224 1.385 . S
C2221 H2196 0.951 . S
C2221 C2219 1.388 . S
C2221 C2222 1.366 . S
C2222 C2221 1.366 . S
C2222 C2223 1.414 . S
C2222 C2225 1.499 . S
C2223 H2197 0.950 . S
C2223 C2222 1.414 . S
C2223 C2224 1.374 . S
C2224 H2198 0.950 . S
C2224 C2220 1.385 . S
C2224 C2223 1.374 . S
C2225 C2222 1.499 . S
C2225 C2226 1.373 . S
C2225 C2227 1.389 . S
C2226 H2199 0.950 . S
C2226 C2212 1.377 . S
C2226 C2225 1.373 . S
C2227 C2211 1.377 . S
C2227 C2225 1.389 . S
C2227 C2228 1.524 . S
C2228 C2227 1.524 . S
C2228 C2229 1.397 . S
C2228 C2233 1.363 . S
C2229 H2200 0.950 . S
C2229 C2228 1.397 . S
C2229 C2230 1.334 . S
C2230 H2201 0.950 . S
C2230 C2229 1.334 . S
C2230 C2231 1.287 . S
C2231 C2230 1.287 . S
C2231 C2232 1.524 . S
C2231 H2234 0.999 . S
C2232 H2202 0.950 . S
C2232 C2231 1.524 . S
C2232 C2233 1.415 . S
C2233 H2203 0.950 . S
C2233 C2228 1.363 . S
C2233 C2232 1.415 . S
H2234 C2231 0.999 . S
H2235 C2216 0.913 . S
H2236 C2254 0.951 . S
H2237 C2256 0.951 . S
H2238 C2258 0.950 . S
H2239 C2259 0.950 . S
H2240 C2261 0.950 . S
H2241 C2264 0.950 . S
H2242 C2265 0.950 . S
H2243 C2267 0.950 . S
H2244 C2268 0.950 . S
H2245 C2269 0.951 . S
H2246 C2271 0.951 . S
H2247 C2273 0.950 . S
H2248 C2274 0.950 . S
H2249 C2276 0.950 . S
H2250 C2279 0.950 . S
H2251 C2280 0.950 . S
H2252 C2282 0.950 . S
H2253 C2283 0.950 . S
C2254 H2236 0.951 . S
C2254 C2255 1.366 . S
C2254 C2256 1.388 . S
C2255 C2254 1.366 . S
C2255 C2259 1.385 . S
C2256 H2237 0.951 . S
C2256 C2254 1.388 . S
C2256 C2257 1.366 . S
C2257 C2256 1.366 . S
C2257 C2258 1.414 . S
C2257 C2260 1.499 . S
C2258 H2238 0.950 . S
C2258 C2257 1.414 . S
C2258 C2259 1.374 . S
C2259 H2239 0.950 . S
C2259 C2255 1.385 . S
C2259 C2258 1.374 . S
C2260 C2257 1.499 . S
C2260 C2261 1.373 . S
C2260 C2262 1.389 . S
C2261 H2240 0.950 . S
C2261 C2260 1.373 . S
C2261 C2277 1.377 1_545 S
C2262 C2260 1.389 . S
C2262 C2263 1.524 . S
C2262 C2276 1.377 1_545 S
C2263 C2262 1.524 . S
C2263 C2264 1.397 . S
C2263 C2268 1.363 . S
C2264 H2241 0.950 . S
C2264 C2263 1.397 . S
C2264 C2265 1.334 . S
C2265 H2242 0.950 . S
C2265 C2264 1.334 . S
C2265 C2266 1.287 . S
C2266 C2265 1.287 . S
C2266 C2267 1.524 . S
C2266 H2285 0.913 . S
C2267 H2243 0.950 . S
C2267 C2266 1.524 . S
C2267 C2268 1.415 . S
C2268 H2244 0.950 . S
C2268 C2263 1.363 . S
C2268 C2267 1.415 . S
C2269 H2245 0.951 . S
C2269 C2270 1.366 . S
C2269 C2271 1.388 . S
C2270 C2269 1.366 . S
C2270 C2274 1.385 . S
C2271 H2246 0.951 . S
C2271 C2269 1.388 . S
C2271 C2272 1.366 . S
C2272 C2271 1.366 . S
C2272 C2273 1.414 . S
C2272 C2275 1.499 . S
C2273 H2247 0.950 . S
C2273 C2272 1.414 . S
C2273 C2274 1.374 . S
C2274 H2248 0.950 . S
C2274 C2270 1.385 . S
C2274 C2273 1.374 . S
C2275 C2272 1.499 . S
C2275 C2276 1.373 . S
C2275 C2277 1.389 . S
C2276 H2249 0.950 . S
C2276 C2262 1.377 1_565 S
C2276 C2275 1.373 . S
C2277 C2261 1.377 1_565 S
C2277 C2275 1.389 . S
C2277 C2278 1.524 . S
C2278 C2277 1.524 . S
C2278 C2279 1.397 . S
C2278 C2283 1.363 . S
C2279 H2250 0.950 . S
C2279 C2278 1.397 . S
C2279 C2280 1.334 . S
C2280 H2251 0.950 . S
C2280 C2279 1.334 . S
C2280 C2281 1.287 . S
C2281 C2280 1.287 . S
C2281 C2282 1.524 . S
C2281 H2284 0.999 . S
C2282 H2252 0.950 . S
C2282 C2281 1.524 . S
C2282 C2283 1.415 . S
C2283 H2253 0.950 . S
C2283 C2278 1.363 . S
C2283 C2282 1.415 . S
H2284 C2281 0.999 . S
H2285 C2266 0.913 . S
H2286 C2304 0.951 . S
H2287 C2306 0.951 . S
H2288 C2308 0.950 . S
H2289 C2309 0.950 . S
H2290 C2311 0.950 . S
H2291 C2314 0.950 . S
H2292 C2315 0.950 . S
H2293 C2317 0.950 . S
H2294 C2318 0.950 . S
H2295 C2319 0.951 . S
H2296 C2321 0.951 . S
H2297 C2323 0.950 . S
H2298 C2324 0.950 . S
H2299 C2326 0.950 . S
H2300 C2329 0.950 . S
H2301 C2330 0.950 . S
H2302 C2332 0.950 . S
H2303 C2333 0.950 . S
C2304 H2286 0.951 . S
C2304 C2305 1.366 . S
C2304 C2306 1.388 . S
C2305 C2304 1.366 . S
C2305 C2309 1.385 . S
C2306 H2287 0.951 . S
C2306 C2304 1.388 . S
C2306 C2307 1.366 . S
C2307 C2306 1.366 . S
C2307 C2308 1.414 . S
C2307 C2310 1.499 . S
C2308 H2288 0.950 . S
C2308 C2307 1.414 . S
C2308 C2309 1.374 . S
C2309 H2289 0.950 . S
C2309 C2305 1.385 . S
C2309 C2308 1.374 . S
C2310 C2307 1.499 . S
C2310 C2311 1.373 . S
C2310 C2312 1.389 . S
C2311 H2290 0.950 . S
C2311 C2310 1.373 . S
C2311 C2327 1.377 1_455 S
C2312 C2310 1.389 . S
C2312 C2313 1.524 . S
C2312 C2326 1.377 1_455 S
C2313 C2312 1.524 . S
C2313 C2314 1.397 . S
C2313 C2318 1.363 . S
C2314 H2291 0.950 . S
C2314 C2313 1.397 . S
C2314 C2315 1.334 . S
C2315 H2292 0.950 . S
C2315 C2314 1.334 . S
C2315 C2316 1.287 . S
C2316 C2315 1.287 . S
C2316 C2317 1.524 . S
C2316 H2335 0.913 . S
C2317 H2293 0.950 . S
C2317 C2316 1.524 . S
C2317 C2318 1.415 . S
C2318 H2294 0.950 . S
C2318 C2313 1.363 . S
C2318 C2317 1.415 . S
C2319 H2295 0.951 . S
C2319 C2320 1.366 . S
C2319 C2321 1.388 . S
C2320 C2319 1.366 . S
C2320 C2324 1.385 . S
C2321 H2296 0.951 . S
C2321 C2319 1.388 . S
C2321 C2322 1.366 . S
C2322 C2321 1.366 . S
C2322 C2323 1.414 . S
C2322 C2325 1.499 . S
C2323 H2297 0.950 . S
C2323 C2322 1.414 . S
C2323 C2324 1.374 . S
C2324 H2298 0.950 . S
C2324 C2320 1.385 . S
C2324 C2323 1.374 . S
C2325 C2322 1.499 . S
C2325 C2326 1.373 . S
C2325 C2327 1.389 . S
C2326 H2299 0.950 . S
C2326 C2312 1.377 1_655 S
C2326 C2325 1.373 . S
C2327 C2311 1.377 1_655 S
C2327 C2325 1.389 . S
C2327 C2328 1.524 . S
C2328 C2327 1.524 . S
C2328 C2329 1.397 . S
C2328 C2333 1.363 . S
C2329 H2300 0.950 . S
C2329 C2328 1.397 . S
C2329 C2330 1.334 . S
C2330 H2301 0.950 . S
C2330 C2329 1.334 . S
C2330 C2331 1.287 . S
C2331 C2330 1.287 . S
C2331 C2332 1.524 . S
C2331 H2334 0.999 . S
C2332 H2302 0.950 . S
C2332 C2331 1.524 . S
C2332 C2333 1.415 . S
C2333 H2303 0.950 . S
C2333 C2328 1.363 . S
C2333 C2332 1.415 . S
H2334 C2331 0.999 . S
H2335 C2316 0.913 . S
H2336 C2354 0.951 . S
H2337 C2356 0.951 . S
H2338 C2358 0.950 . S
H2339 C2359 0.950 . S
H2340 C2361 0.950 . S
H2341 C2364 0.950 . S
H2342 C2365 0.950 . S
H2343 C2367 0.950 . S
H2344 C2368 0.950 . S
H2345 C2369 0.951 . S
H2346 C2371 0.951 . S
H2347 C2373 0.950 . S
H2348 C2374 0.950 . S
H2349 C2376 0.950 . S
H2350 C2379 0.950 . S
H2351 C2380 0.950 . S
H2352 C2382 0.950 . S
H2353 C2383 0.950 . S
C2354 H2336 0.951 . S
C2354 C2355 1.366 . S
C2354 C2356 1.388 . S
C2355 C2354 1.366 . S
C2355 C2359 1.385 . S
C2356 H2337 0.951 . S
C2356 C2354 1.388 . S
C2356 C2357 1.366 . S
C2357 C2356 1.366 . S
C2357 C2358 1.414 . S
C2357 C2360 1.499 . S
C2358 H2338 0.950 . S
C2358 C2357 1.414 . S
C2358 C2359 1.374 . S
C2359 H2339 0.950 . S
C2359 C2355 1.385 . S
C2359 C2358 1.374 . S
C2360 C2357 1.499 . S
C2360 C2361 1.373 . S
C2360 C2362 1.389 . S
C2361 H2340 0.950 . S
C2361 C2360 1.373 . S
C2361 C2377 1.377 1_545 S
C2362 C2360 1.389 . S
C2362 C2363 1.524 . S
C2362 C2376 1.377 1_545 S
C2363 C2362 1.524 . S
C2363 C2364 1.397 . S
C2363 C2368 1.363 . S
C2364 H2341 0.950 . S
C2364 C2363 1.397 . S
C2364 C2365 1.334 . S
C2365 H2342 0.950 . S
C2365 C2364 1.334 . S
C2365 C2366 1.287 . S
C2366 C2365 1.287 . S
C2366 C2367 1.524 . S
C2366 H2385 0.913 . S
C2367 H2343 0.950 . S
C2367 C2366 1.524 . S
C2367 C2368 1.415 . S
C2368 H2344 0.950 . S
C2368 C2363 1.363 . S
C2368 C2367 1.415 . S
C2369 H2345 0.951 . S
C2369 C2370 1.366 . S
C2369 C2371 1.388 . S
C2370 C2369 1.366 . S
C2370 C2374 1.385 . S
C2371 H2346 0.951 . S
C2371 C2369 1.388 . S
C2371 C2372 1.366 . S
C2372 C2371 1.366 . S
C2372 C2373 1.414 . S
C2372 C2375 1.499 . S
C2373 H2347 0.950 . S
C2373 C2372 1.414 . S
C2373 C2374 1.374 . S
C2374 H2348 0.950 . S
C2374 C2370 1.385 . S
C2374 C2373 1.374 . S
C2375 C2372 1.499 . S
C2375 C2376 1.373 . S
C2375 C2377 1.389 . S
C2376 H2349 0.950 . S
C2376 C2362 1.377 1_565 S
C2376 C2375 1.373 . S
C2377 C2361 1.377 1_565 S
C2377 C2375 1.389 . S
C2377 C2378 1.524 . S
C2378 C2377 1.524 . S
C2378 C2379 1.397 . S
C2378 C2383 1.363 . S
C2379 H2350 0.950 . S
C2379 C2378 1.397 . S
C2379 C2380 1.334 . S
C2380 H2351 0.950 . S
C2380 C2379 1.334 . S
C2380 C2381 1.287 . S
C2381 C2380 1.287 . S
C2381 C2382 1.524 . S
C2381 H2384 0.999 . S
C2382 H2352 0.950 . S
C2382 C2381 1.524 . S
C2382 C2383 1.415 . S
C2383 H2353 0.950 . S
C2383 C2378 1.363 . S
C2383 C2382 1.415 . S
H2384 C2381 0.999 . S
H2385 C2366 0.913 . S
H2386 C2404 0.951 . S
H2387 C2406 0.951 . S
H2388 C2408 0.950 . S
H2389 C2409 0.950 . S
H2390 C2411 0.950 . S
H2391 C2414 0.950 . S
H2392 C2415 0.950 . S
H2393 C2417 0.950 . S
H2394 C2418 0.950 . S
H2395 C2419 0.951 . S
H2396 C2421 0.951 . S
H2397 C2423 0.950 . S
H2398 C2424 0.950 . S
H2399 C2426 0.950 . S
H2400 C2429 0.950 . S
H2401 C2430 0.950 . S
H2402 C2432 0.950 . S
H2403 C2433 0.950 . S
C2404 H2386 0.951 . S
C2404 C2405 1.366 . S
C2404 C2406 1.388 . S
C2405 C2404 1.366 . S
C2405 C2409 1.385 . S
C2406 H2387 0.951 . S
C2406 C2404 1.388 . S
C2406 C2407 1.366 . S
C2407 C2406 1.366 . S
C2407 C2408 1.414 . S
C2407 C2410 1.499 . S
C2408 H2388 0.950 . S
C2408 C2407 1.414 . S
C2408 C2409 1.374 . S
C2409 H2389 0.950 . S
C2409 C2405 1.385 . S
C2409 C2408 1.374 . S
C2410 C2407 1.499 . S
C2410 C2411 1.373 . S
C2410 C2412 1.389 . S
C2411 H2390 0.950 . S
C2411 C2410 1.373 . S
C2411 C2427 1.377 1_455 S
C2412 C2410 1.389 . S
C2412 C2413 1.524 . S
C2412 C2426 1.377 1_455 S
C2413 C2412 1.524 . S
C2413 C2414 1.397 . S
C2413 C2418 1.363 . S
C2414 H2391 0.950 . S
C2414 C2413 1.397 . S
C2414 C2415 1.334 . S
C2415 H2392 0.950 . S
C2415 C2414 1.334 . S
C2415 C2416 1.287 . S
C2416 C2415 1.287 . S
C2416 C2417 1.524 . S
C2416 H2435 0.913 . S
C2417 H2393 0.950 . S
C2417 C2416 1.524 . S
C2417 C2418 1.415 . S
C2418 H2394 0.950 . S
C2418 C2413 1.363 . S
C2418 C2417 1.415 . S
C2419 H2395 0.951 . S
C2419 C2420 1.366 . S
C2419 C2421 1.388 . S
C2420 C2419 1.366 . S
C2420 C2424 1.385 . S
C2421 H2396 0.951 . S
C2421 C2419 1.388 . S
C2421 C2422 1.366 . S
C2422 C2421 1.366 . S
C2422 C2423 1.414 . S
C2422 C2425 1.499 . S
C2423 H2397 0.950 . S
C2423 C2422 1.414 . S
C2423 C2424 1.374 . S
C2424 H2398 0.950 . S
C2424 C2420 1.385 . S
C2424 C2423 1.374 . S
C2425 C2422 1.499 . S
C2425 C2426 1.373 . S
C2425 C2427 1.389 . S
C2426 H2399 0.950 . S
C2426 C2412 1.377 1_655 S
C2426 C2425 1.373 . S
C2427 C2411 1.377 1_655 S
C2427 C2425 1.389 . S
C2427 C2428 1.524 . S
C2428 C2427 1.524 . S
C2428 C2429 1.397 . S
C2428 C2433 1.363 . S
C2429 H2400 0.950 . S
C2429 C2428 1.397 . S
C2429 C2430 1.334 . S
C2430 H2401 0.950 . S
C2430 C2429 1.334 . S
C2430 C2431 1.287 . S
C2431 C2430 1.287 . S
C2431 C2432 1.524 . S
C2431 H2434 0.999 . S
C2432 H2402 0.950 . S
C2432 C2431 1.524 . S
C2432 C2433 1.415 . S
C2433 H2403 0.950 . S
C2433 C2428 1.363 . S
C2433 C2432 1.415 . S
H2434 C2431 0.999 . S
H2435 C2416 0.913 . S
H2436 C2454 0.951 . S
H2437 C2456 0.951 . S
H2438 C2458 0.950 . S
H2439 C2459 0.950 . S
H2440 C2461 0.950 . S
H2441 C2464 0.950 . S
H2442 C2465 0.950 . S
H2443 C2467 0.950 . S
H2444 C2468 0.950 . S
H2445 C2469 0.951 . S
H2446 C2471 0.951 . S
H2447 C2473 0.950 . S
H2448 C2474 0.950 . S
H2449 C2476 0.950 . S
H2450 C2479 0.950 . S
H2451 C2480 0.950 . S
H2452 C2482 0.950 . S
H2453 C2483 0.950 . S
C2454 H2436 0.951 . S
C2454 C2455 1.366 . S
C2454 C2456 1.388 . S
C2455 C2454 1.366 . S
C2455 C2459 1.385 . S
C2456 H2437 0.951 . S
C2456 C2454 1.388 . S
C2456 C2457 1.366 . S
C2457 C2456 1.366 . S
C2457 C2458 1.414 . S
C2457 C2460 1.499 . S
C2458 H2438 0.950 . S
C2458 C2457 1.414 . S
C2458 C2459 1.374 . S
C2459 H2439 0.950 . S
C2459 C2455 1.385 . S
C2459 C2458 1.374 . S
C2460 C2457 1.499 . S
C2460 C2461 1.373 . S
C2460 C2462 1.389 . S
C2461 H2440 0.950 . S
C2461 C2460 1.373 . S
C2461 C2477 1.377 . S
C2462 C2460 1.389 . S
C2462 C2463 1.524 . S
C2462 C2476 1.377 . S
C2463 C2462 1.524 . S
C2463 C2464 1.397 . S
C2463 C2468 1.363 . S
C2464 H2441 0.950 . S
C2464 C2463 1.397 . S
C2464 C2465 1.334 . S
C2465 H2442 0.950 . S
C2465 C2464 1.334 . S
C2465 C2466 1.287 . S
C2466 C2465 1.287 . S
C2466 C2467 1.524 . S
C2466 H2485 0.913 . S
C2467 H2443 0.950 . S
C2467 C2466 1.524 . S
C2467 C2468 1.415 . S
C2468 H2444 0.950 . S
C2468 C2463 1.363 . S
C2468 C2467 1.415 . S
C2469 H2445 0.951 . S
C2469 C2470 1.366 . S
C2469 C2471 1.388 . S
C2470 C2469 1.366 . S
C2470 C2474 1.385 . S
C2471 H2446 0.951 . S
C2471 C2469 1.388 . S
C2471 C2472 1.366 . S
C2472 C2471 1.366 . S
C2472 C2473 1.414 . S
C2472 C2475 1.499 . S
C2473 H2447 0.950 . S
C2473 C2472 1.414 . S
C2473 C2474 1.374 . S
C2474 H2448 0.950 . S
C2474 C2470 1.385 . S
C2474 C2473 1.374 . S
C2475 C2472 1.499 . S
C2475 C2476 1.373 . S
C2475 C2477 1.389 . S
C2476 H2449 0.950 . S
C2476 C2462 1.377 . S
C2476 C2475 1.373 . S
C2477 C2461 1.377 . S
C2477 C2475 1.389 . S
C2477 C2478 1.524 . S
C2478 C2477 1.524 . S
C2478 C2479 1.397 . S
C2478 C2483 1.363 . S
C2479 H2450 0.950 . S
C2479 C2478 1.397 . S
C2479 C2480 1.334 . S
C2480 H2451 0.950 . S
C2480 C2479 1.334 . S
C2480 C2481 1.287 . S
C2481 C2480 1.287 . S
C2481 C2482 1.524 . S
C2481 H2484 0.999 . S
C2482 H2452 0.950 . S
C2482 C2481 1.524 . S
C2482 C2483 1.415 . S
C2483 H2453 0.950 . S
C2483 C2478 1.363 . S
C2483 C2482 1.415 . S
H2484 C2481 0.999 . S
H2485 C2466 0.913 . S
H2486 C2504 0.951 . S
H2487 C2506 0.951 . S
H2488 C2508 0.950 . S
H2489 C2509 0.950 . S
H2490 C2511 0.950 . S
H2491 C2514 0.950 . S
H2492 C2515 0.950 . S
H2493 C2517 0.950 . S
H2494 C2518 0.950 . S
H2495 C2519 0.951 . S
H2496 C2521 0.951 . S
H2497 C2523 0.950 . S
H2498 C2524 0.950 . S
H2499 C2526 0.950 . S
H2500 C2529 0.950 . S
H2501 C2530 0.950 . S
H2502 C2532 0.950 . S
H2503 C2533 0.950 . S
C2504 H2486 0.951 . S
C2504 C2505 1.366 . S
C2504 C2506 1.388 . S
C2505 C2504 1.366 . S
C2505 C2509 1.385 . S
C2506 H2487 0.951 . S
C2506 C2504 1.388 . S
C2506 C2507 1.366 . S
C2507 C2506 1.366 . S
C2507 C2508 1.414 . S
C2507 C2510 1.499 . S
C2508 H2488 0.950 . S
C2508 C2507 1.414 . S
C2508 C2509 1.374 . S
C2509 H2489 0.950 . S
C2509 C2505 1.385 . S
C2509 C2508 1.374 . S
C2510 C2507 1.499 . S
C2510 C2511 1.373 . S
C2510 C2512 1.389 . S
C2511 H2490 0.950 . S
C2511 C2510 1.373 . S
C2511 C2527 1.377 . S
C2512 C2510 1.389 . S
C2512 C2513 1.524 . S
C2512 C2526 1.377 . S
C2513 C2512 1.524 . S
C2513 C2514 1.397 . S
C2513 C2518 1.363 . S
C2514 H2491 0.950 . S
C2514 C2513 1.397 . S
C2514 C2515 1.334 . S
C2515 H2492 0.950 . S
C2515 C2514 1.334 . S
C2515 C2516 1.287 . S
C2516 C2515 1.287 . S
C2516 C2517 1.524 . S
C2516 H2535 0.913 . S
C2517 H2493 0.950 . S
C2517 C2516 1.524 . S
C2517 C2518 1.415 . S
C2518 H2494 0.950 . S
C2518 C2513 1.363 . S
C2518 C2517 1.415 . S
C2519 H2495 0.951 . S
C2519 C2520 1.366 . S
C2519 C2521 1.388 . S
C2520 C2519 1.366 . S
C2520 C2524 1.385 . S
C2521 H2496 0.951 . S
C2521 C2519 1.388 . S
C2521 C2522 1.366 . S
C2522 C2521 1.366 . S
C2522 C2523 1.414 . S
C2522 C2525 1.499 . S
C2523 H2497 0.950 . S
C2523 C2522 1.414 . S
C2523 C2524 1.374 . S
C2524 H2498 0.950 . S
C2524 C2520 1.385 . S
C2524 C2523 1.374 . S
C2525 C2522 1.499 . S
C2525 C2526 1.373 . S
C2525 C2527 1.389 . S
C2526 H2499 0.950 . S
C2526 C2512 1.377 . S
C2526 C2525 1.373 . S
C2527 C2511 1.377 . S
C2527 C2525 1.389 . S
C2527 C2528 1.524 . S
C2528 C2527 1.524 . S
C2528 C2529 1.397 . S
C2528 C2533 1.363 . S
C2529 H2500 0.950 . S
C2529 C2528 1.397 . S
C2529 C2530 1.334 . S
C2530 H2501 0.950 . S
C2530 C2529 1.334 . S
C2530 C2531 1.287 . S
C2531 C2530 1.287 . S
C2531 C2532 1.524 . S
C2531 H2534 0.999 . S
C2532 H2502 0.950 . S
C2532 C2531 1.524 . S
C2532 C2533 1.415 . S
C2533 H2503 0.950 . S
C2533 C2528 1.363 . S
C2533 C2532 1.415 . S
H2534 C2531 0.999 . S
H2535 C2516 0.913 . S
H2536 C2554 0.951 . S
H2537 C2556 0.951 . S
H2538 C2558 0.950 . S
H2539 C2559 0.950 . S
H2540 C2561 0.950 . S
H2541 C2564 0.950 . S
H2542 C2565 0.950 . S
H2543 C2567 0.950 . S
H2544 C2568 0.950 . S
H2545 C2569 0.951 . S
H2546 C2571 0.951 . S
H2547 C2573 0.950 . S
H2548 C2574 0.950 . S
H2549 C2576 0.950 . S
H2550 C2579 0.950 . S
H2551 C2580 0.950 . S
H2552 C2582 0.950 . S
H2553 C2583 0.950 . S
C2554 H2536 0.951 . S
C2554 C2555 1.366 . S
C2554 C2556 1.388 . S
C2555 C2554 1.366 . S
C2555 C2559 1.385 . S
C2556 H2537 0.951 . S
C2556 C2554 1.388 . S
C2556 C2557 1.366 . S
C2557 C2556 1.366 . S
C2557 C2558 1.414 . S
C2557 C2560 1.499 . S
C2558 H2538 0.950 . S
C2558 C2557 1.414 . S
C2558 C2559 1.374 . S
C2559 H2539 0.950 . S
C2559 C2555 1.385 . S
C2559 C2558 1.374 . S
C2560 C2557 1.499 . S
C2560 C2561 1.373 . S
C2560 C2562 1.389 . S
C2561 H2540 0.950 . S
C2561 C2560 1.373 . S
C2561 C2577 1.377 . S
C2562 C2560 1.389 . S
C2562 C2563 1.524 . S
C2562 C2576 1.377 . S
C2563 C2562 1.524 . S
C2563 C2564 1.397 . S
C2563 C2568 1.363 . S
C2564 H2541 0.950 . S
C2564 C2563 1.397 . S
C2564 C2565 1.334 . S
C2565 H2542 0.950 . S
C2565 C2564 1.334 . S
C2565 C2566 1.287 . S
C2566 C2565 1.287 . S
C2566 C2567 1.524 . S
C2566 H2585 0.913 . S
C2567 H2543 0.950 . S
C2567 C2566 1.524 . S
C2567 C2568 1.415 . S
C2568 H2544 0.950 . S
C2568 C2563 1.363 . S
C2568 C2567 1.415 . S
C2569 H2545 0.951 . S
C2569 C2570 1.366 . S
C2569 C2571 1.388 . S
C2570 C2569 1.366 . S
C2570 C2574 1.385 . S
C2571 H2546 0.951 . S
C2571 C2569 1.388 . S
C2571 C2572 1.366 . S
C2572 C2571 1.366 . S
C2572 C2573 1.414 . S
C2572 C2575 1.499 . S
C2573 H2547 0.950 . S
C2573 C2572 1.414 . S
C2573 C2574 1.374 . S
C2574 H2548 0.950 . S
C2574 C2570 1.385 . S
C2574 C2573 1.374 . S
C2575 C2572 1.499 . S
C2575 C2576 1.373 . S
C2575 C2577 1.389 . S
C2576 H2549 0.950 . S
C2576 C2562 1.377 . S
C2576 C2575 1.373 . S
C2577 C2561 1.377 . S
C2577 C2575 1.389 . S
C2577 C2578 1.524 . S
C2578 C2577 1.524 . S
C2578 C2579 1.397 . S
C2578 C2583 1.363 . S
C2579 H2550 0.950 . S
C2579 C2578 1.397 . S
C2579 C2580 1.334 . S
C2580 H2551 0.950 . S
C2580 C2579 1.334 . S
C2580 C2581 1.287 . S
C2581 C2580 1.287 . S
C2581 C2582 1.524 . S
C2581 H2584 0.999 . S
C2582 H2552 0.950 . S
C2582 C2581 1.524 . S
C2582 C2583 1.415 . S
C2583 H2553 0.950 . S
C2583 C2578 1.363 . S
C2583 C2582 1.415 . S
H2584 C2581 0.999 . S
H2585 C2566 0.913 . S
H2586 C2604 0.951 . S
H2587 C2606 0.951 . S
H2588 C2608 0.950 . S
H2589 C2609 0.950 . S
H2590 C2611 0.950 . S
H2591 C2614 0.950 . S
H2592 C2615 0.950 . S
H2593 C2617 0.950 . S
H2594 C2618 0.950 . S
H2595 C2619 0.951 . S
H2596 C2621 0.951 . S
H2597 C2623 0.950 . S
H2598 C2624 0.950 . S
H2599 C2626 0.950 . S
H2600 C2629 0.950 . S
H2601 C2630 0.950 . S
H2602 C2632 0.950 . S
H2603 C2633 0.950 . S
C2604 H2586 0.951 . S
C2604 C2605 1.366 . S
C2604 C2606 1.388 . S
C2605 C2604 1.366 . S
C2605 C2609 1.385 . S
C2606 H2587 0.951 . S
C2606 C2604 1.388 . S
C2606 C2607 1.366 . S
C2607 C2606 1.366 . S
C2607 C2608 1.414 . S
C2607 C2610 1.499 . S
C2608 H2588 0.950 . S
C2608 C2607 1.414 . S
C2608 C2609 1.374 . S
C2609 H2589 0.950 . S
C2609 C2605 1.385 . S
C2609 C2608 1.374 . S
C2610 C2607 1.499 . S
C2610 C2611 1.373 . S
C2610 C2612 1.389 . S
C2611 H2590 0.950 . S
C2611 C2610 1.373 . S
C2611 C2627 1.377 1_554 S
C2612 C2610 1.389 . S
C2612 C2613 1.524 . S
C2612 C2626 1.377 1_554 S
C2613 C2612 1.524 . S
C2613 C2614 1.397 . S
C2613 C2618 1.363 . S
C2614 H2591 0.950 . S
C2614 C2613 1.397 . S
C2614 C2615 1.334 . S
C2615 H2592 0.950 . S
C2615 C2614 1.334 . S
C2615 C2616 1.287 . S
C2616 C2615 1.287 . S
C2616 C2617 1.524 . S
C2616 H2635 0.913 . S
C2617 H2593 0.950 . S
C2617 C2616 1.524 . S
C2617 C2618 1.415 . S
C2618 H2594 0.950 . S
C2618 C2613 1.363 . S
C2618 C2617 1.415 . S
C2619 H2595 0.951 . S
C2619 C2620 1.366 . S
C2619 C2621 1.388 . S
C2620 C2619 1.366 . S
C2620 C2624 1.385 . S
C2621 H2596 0.951 . S
C2621 C2619 1.388 . S
C2621 C2622 1.366 . S
C2622 C2621 1.366 . S
C2622 C2623 1.414 . S
C2622 C2625 1.499 . S
C2623 H2597 0.950 . S
C2623 C2622 1.414 . S
C2623 C2624 1.374 . S
C2624 H2598 0.950 . S
C2624 C2620 1.385 . S
C2624 C2623 1.374 . S
C2625 C2622 1.499 . S
C2625 C2626 1.373 . S
C2625 C2627 1.389 . S
C2626 H2599 0.950 . S
C2626 C2612 1.377 1_556 S
C2626 C2625 1.373 . S
C2627 C2611 1.377 1_556 S
C2627 C2625 1.389 . S
C2627 C2628 1.524 . S
C2628 C2627 1.524 . S
C2628 C2629 1.397 . S
C2628 C2633 1.363 . S
C2629 H2600 0.950 . S
C2629 C2628 1.397 . S
C2629 C2630 1.334 . S
C2630 H2601 0.950 . S
C2630 C2629 1.334 . S
C2630 C2631 1.287 . S
C2631 C2630 1.287 . S
C2631 C2632 1.524 . S
C2631 H2634 0.999 . S
C2632 H2602 0.950 . S
C2632 C2631 1.524 . S
C2632 C2633 1.415 . S
C2633 H2603 0.950 . S
C2633 C2628 1.363 . S
C2633 C2632 1.415 . S
H2634 C2631 0.999 . S
H2635 C2616 0.913 . S
H2636 C2654 0.951 . S
H2637 C2656 0.951 . S
H2638 C2658 0.950 . S
H2639 C2659 0.950 . S
H2640 C2661 0.950 . S
H2641 C2664 0.950 . S
H2642 C2665 0.950 . S
H2643 C2667 0.950 . S
H2644 C2668 0.950 . S
H2645 C2669 0.951 . S
H2646 C2671 0.951 . S
H2647 C2673 0.950 . S
H2648 C2674 0.950 . S
H2649 C2676 0.950 . S
H2650 C2679 0.950 . S
H2651 C2680 0.950 . S
H2652 C2682 0.950 . S
H2653 C2683 0.950 . S
C2654 H2636 0.951 . S
C2654 C2655 1.366 . S
C2654 C2656 1.388 . S
C2655 C2654 1.366 . S
C2655 C2659 1.385 . S
C2656 H2637 0.951 . S
C2656 C2654 1.388 . S
C2656 C2657 1.366 . S
C2657 C2656 1.366 . S
C2657 C2658 1.414 . S
C2657 C2660 1.499 . S
C2658 H2638 0.950 . S
C2658 C2657 1.414 . S
C2658 C2659 1.374 . S
C2659 H2639 0.950 . S
C2659 C2655 1.385 . S
C2659 C2658 1.374 . S
C2660 C2657 1.499 . S
C2660 C2661 1.373 . S
C2660 C2662 1.389 . S
C2661 H2640 0.950 . S
C2661 C2660 1.373 . S
C2661 C2677 1.377 . S
C2662 C2660 1.389 . S
C2662 C2663 1.524 . S
C2662 C2676 1.377 . S
C2663 C2662 1.524 . S
C2663 C2664 1.397 . S
C2663 C2668 1.363 . S
C2664 H2641 0.950 . S
C2664 C2663 1.397 . S
C2664 C2665 1.334 . S
C2665 H2642 0.950 . S
C2665 C2664 1.334 . S
C2665 C2666 1.287 . S
C2666 C2665 1.287 . S
C2666 C2667 1.524 . S
C2666 H2685 0.913 . S
C2667 H2643 0.950 . S
C2667 C2666 1.524 . S
C2667 C2668 1.415 . S
C2668 H2644 0.950 . S
C2668 C2663 1.363 . S
C2668 C2667 1.415 . S
C2669 H2645 0.951 . S
C2669 C2670 1.366 . S
C2669 C2671 1.388 . S
C2670 C2669 1.366 . S
C2670 C2674 1.385 . S
C2671 H2646 0.951 . S
C2671 C2669 1.388 . S
C2671 C2672 1.366 . S
C2672 C2671 1.366 . S
C2672 C2673 1.414 . S
C2672 C2675 1.499 . S
C2673 H2647 0.950 . S
C2673 C2672 1.414 . S
C2673 C2674 1.374 . S
C2674 H2648 0.950 . S
C2674 C2670 1.385 . S
C2674 C2673 1.374 . S
C2675 C2672 1.499 . S
C2675 C2676 1.373 . S
C2675 C2677 1.389 . S
C2676 H2649 0.950 . S
C2676 C2662 1.377 . S
C2676 C2675 1.373 . S
C2677 C2661 1.377 . S
C2677 C2675 1.389 . S
C2677 C2678 1.524 . S
C2678 C2677 1.524 . S
C2678 C2679 1.397 . S
C2678 C2683 1.363 . S
C2679 H2650 0.950 . S
C2679 C2678 1.397 . S
C2679 C2680 1.334 . S
C2680 H2651 0.950 . S
C2680 C2679 1.334 . S
C2680 C2681 1.287 . S
C2681 C2680 1.287 . S
C2681 C2682 1.524 . S
C2681 H2684 0.999 . S
C2682 H2652 0.950 . S
C2682 C2681 1.524 . S
C2682 C2683 1.415 . S
C2683 H2653 0.950 . S
C2683 C2678 1.363 . S
C2683 C2682 1.415 . S
H2684 C2681 0.999 . S
H2685 C2666 0.913 . S
H2686 C2704 0.951 . S
H2687 C2706 0.951 . S
H2688 C2708 0.950 . S
H2689 C2709 0.950 . S
H2690 C2711 0.950 . S
H2691 C2714 0.950 . S
H2692 C2715 0.950 . S
H2693 C2717 0.950 . S
H2694 C2718 0.950 . S
H2695 C2719 0.951 . S
H2696 C2721 0.951 . S
H2697 C2723 0.950 . S
H2698 C2724 0.950 . S
H2699 C2726 0.950 . S
H2700 C2729 0.950 . S
H2701 C2730 0.950 . S
H2702 C2732 0.950 . S
H2703 C2733 0.950 . S
C2704 H2686 0.951 . S
C2704 C2705 1.366 . S
C2704 C2706 1.388 . S
C2705 C2704 1.366 . S
C2705 C2709 1.385 . S
C2706 H2687 0.951 . S
C2706 C2704 1.388 . S
C2706 C2707 1.366 . S
C2707 C2706 1.366 . S
C2707 C2708 1.414 . S
C2707 C2710 1.499 . S
C2708 H2688 0.950 . S
C2708 C2707 1.414 . S
C2708 C2709 1.374 . S
C2709 H2689 0.950 . S
C2709 C2705 1.385 . S
C2709 C2708 1.374 . S
C2710 C2707 1.499 . S
C2710 C2711 1.373 . S
C2710 C2712 1.389 . S
C2711 H2690 0.950 . S
C2711 C2710 1.373 . S
C2711 C2727 1.377 1_554 S
C2712 C2710 1.389 . S
C2712 C2713 1.524 . S
C2712 C2726 1.377 1_554 S
C2713 C2712 1.524 . S
C2713 C2714 1.397 . S
C2713 C2718 1.363 . S
C2714 H2691 0.950 . S
C2714 C2713 1.397 . S
C2714 C2715 1.334 . S
C2715 H2692 0.950 . S
C2715 C2714 1.334 . S
C2715 C2716 1.287 . S
C2716 C2715 1.287 . S
C2716 C2717 1.524 . S
C2716 H2735 0.913 . S
C2717 H2693 0.950 . S
C2717 C2716 1.524 . S
C2717 C2718 1.415 . S
C2718 H2694 0.950 . S
C2718 C2713 1.363 . S
C2718 C2717 1.415 . S
C2719 H2695 0.951 . S
C2719 C2720 1.366 . S
C2719 C2721 1.388 . S
C2720 C2719 1.366 . S
C2720 C2724 1.385 . S
C2721 H2696 0.951 . S
C2721 C2719 1.388 . S
C2721 C2722 1.366 . S
C2722 C2721 1.366 . S
C2722 C2723 1.414 . S
C2722 C2725 1.499 . S
C2723 H2697 0.950 . S
C2723 C2722 1.414 . S
C2723 C2724 1.374 . S
C2724 H2698 0.950 . S
C2724 C2720 1.385 . S
C2724 C2723 1.374 . S
C2725 C2722 1.499 . S
C2725 C2726 1.373 . S
C2725 C2727 1.389 . S
C2726 H2699 0.950 . S
C2726 C2712 1.377 1_556 S
C2726 C2725 1.373 . S
C2727 C2711 1.377 1_556 S
C2727 C2725 1.389 . S
C2727 C2728 1.524 . S
C2728 C2727 1.524 . S
C2728 C2729 1.397 . S
C2728 C2733 1.363 . S
C2729 H2700 0.950 . S
C2729 C2728 1.397 . S
C2729 C2730 1.334 . S
C2730 H2701 0.950 . S
C2730 C2729 1.334 . S
C2730 C2731 1.287 . S
C2731 C2730 1.287 . S
C2731 C2732 1.524 . S
C2731 H2734 0.999 . S
C2732 H2702 0.950 . S
C2732 C2731 1.524 . S
C2732 C2733 1.415 . S
C2733 H2703 0.950 . S
C2733 C2728 1.363 . S
C2733 C2732 1.415 . S
H2734 C2731 0.999 . S
H2735 C2716 0.913 . S
C355 C57 1.449 . S
C370 C13 1.450 . S
C405 C15 1.450 . S
C420 C71 1.450 . S
C455 C97 1.449 . S
C470 C40 1.450 . S
C505 C99 1.450 . S
C520 C43 1.449 . S
C555 C208 1.450 . S
C570 C112 1.449 . S
C605 C210 1.450 . S
C620 C127 1.449 . S
C655 C141 1.450 . S
C670 C168 1.449 . S
C705 C182 1.449 . S
C720 C154 1.449 . S
C755 C224 1.450 . S
C770 C295 1.450 . S
C805 C251 1.450 . S
C820 C266 1.449 . S
C855 C252 1.450 . S
C870 C293 1.450 . S
C905 C320 1.450 . S
C920 C322 1.449 . S
C955 C55 1.450 . S
C970 C83 1.449 . S
C1005 C1 1.449 . S
C1020 C85 1.449 . S
C1055 C111 1.450 . S
C1070 C27 1.449 . S
C1105 C28 1.450 . S
C1120 C69 1.449 . S
C1155 C334 1.449 . S
C1170 C264 1.450 . S
C1205 C278 1.449 . S
C1220 C307 1.450 . S
C1255 C281 1.449 . S
C1270 C308 1.450 . S
C1305 C239 1.449 . S
C1320 C236 1.450 . S
C1355 C166 1.449 . S
C1370 C139 1.450 . S
C1405 C222 1.450 . S
C1420 C194 1.450 . S
C1455 C180 1.450 . S
C1470 C196 1.449 . S
C1505 C153 1.450 . S
C1520 C124 1.450 . S
C1555 C321 1.475 . S
C1570 C12 1.475 . S
C1605 C225 1.475 . S
C1620 C14 1.475 . S
C1655 C323 1.475 . S
C1670 C41 1.475 . S
C1705 C294 1.475 . S
C1720 C42 1.475 . S
C1755 C253 1.475 . S
C1770 C56 1.475 . S
C1805 C70 1.475 . S
C1820 C267 1.475 . S
C1855 C292 1.475 . S
C1870 C96 1.475 . S
C1905 C250 1.475 . S
C1920 C98 1.475 . S
C1955 C183 1.475 . S
C1970 C113 1.475 . S
C2005 C209 1.475 . S
C2020 C126 1.475 . S
C2055 C211 1.475 . S
C2070 C140 1.475 . S
C2105 C155 1.475 . S
C2120 C169 1.475 . S
C2155 C82 1.475 . S
C2170 C152 1.475 . S
C2205 C84 1.475 . S
C2220 C167 1.475 . S
C2255 C125 1.475 . S
C2270 C110 1.475 . S
C2305 C68 1.475 . S
C2320 C138 1.475 . S
C2355 C197 1.475 . S
C2370 C54 1.475 . S
C2405 C0 1.475 . S
C2420 C223 1.475 . S
C2455 C181 1.475 . S
C2470 C26 1.475 . S
C2505 C29 1.475 . S
C2520 C195 1.475 . S
C2555 C238 1.475 . S
C2570 C335 1.475 . S
C2605 C306 1.475 . S
C2620 C265 1.475 . S
C2655 C309 1.475 . S
C2670 C279 1.475 . S
C2705 C237 1.475 . S
C2720 C280 1.475 . S
