# Generated by pormake.
# Topology dei, (4)-cn, num edge types: 1
# Building blocks:
#     Node 0, Type 0, BuildingBlock: QUQFOY_clean_sbu_1, # of connection points: 4
#     Node 1, Type 0, BuildingBlock: QUQFOY_clean_sbu_1, # of connection points: 4
#     Node 2, Type 0, BuildingBlock: QUQFOY_clean_sbu_1, # of connection points: 4
#     Node 3, Type 0, BuildingBlock: QUQFOY_clean_sbu_1, # of connection points: 4
#     Node 4, Type 0, BuildingBlock: QUQFOY_clean_sbu_1, # of connection points: 4
#     Node 5, Type 0, BuildingBlock: QUQFOY_clean_sbu_1, # of connection points: 4
#     Node 6, Type 0, BuildingBlock: QUQFOY_clean_sbu_1, # of connection points: 4
#     Node 7, Type 0, BuildingBlock: QUQFOY_clean_sbu_1, # of connection points: 4
#     Node 8, Type 0, BuildingBlock: QUQFOY_clean_sbu_1, # of connection points: 4
#     Node 9, Type 0, BuildingBlock: QUQFOY_clean_sbu_1, # of connection points: 4
#     Node 10, Type 0, BuildingBlock: QUQFOY_clean_sbu_1, # of connection points: 4
#     Node 11, Type 0, BuildingBlock: QUQFOY_clean_sbu_1, # of connection points: 4
#     Node 12, Type 0, BuildingBlock: QUQFOY_clean_sbu_1, # of connection points: 4
#     Node 13, Type 0, BuildingBlock: QUQFOY_clean_sbu_1, # of connection points: 4
#     Node 14, Type 0, BuildingBlock: QUQFOY_clean_sbu_1, # of connection points: 4
#     Node 15, Type 0, BuildingBlock: QUQFOY_clean_sbu_1, # of connection points: 4
#     Node 16, Type 0, BuildingBlock: QUQFOY_clean_sbu_1, # of connection points: 4
#     Node 17, Type 0, BuildingBlock: QUQFOY_clean_sbu_1, # of connection points: 4
#     Node 18, Type 0, BuildingBlock: QUQFOY_clean_sbu_1, # of connection points: 4
#     Node 19, Type 0, BuildingBlock: QUQFOY_clean_sbu_1, # of connection points: 4
#     Node 20, Type 0, BuildingBlock: QUQFOY_clean_sbu_1, # of connection points: 4
#     Node 21, Type 0, BuildingBlock: QUQFOY_clean_sbu_1, # of connection points: 4
#     Node 22, Type 0, BuildingBlock: QUQFOY_clean_sbu_1, # of connection points: 4
#     Node 23, Type 0, BuildingBlock: QUQFOY_clean_sbu_1, # of connection points: 4
#     Node 24, Type 0, BuildingBlock: QUQFOY_clean_sbu_1, # of connection points: 4
#     Node 25, Type 0, BuildingBlock: QUQFOY_clean_sbu_1, # of connection points: 4
#     Node 26, Type 0, BuildingBlock: QUQFOY_clean_sbu_1, # of connection points: 4
#     Node 27, Type 0, BuildingBlock: QUQFOY_clean_sbu_1, # of connection points: 4
#     Node 28, Type 0, BuildingBlock: QUQFOY_clean_sbu_1, # of connection points: 4
#     Node 29, Type 0, BuildingBlock: QUQFOY_clean_sbu_1, # of connection points: 4
#     Node 30, Type 0, BuildingBlock: QUQFOY_clean_sbu_1, # of connection points: 4
#     Node 31, Type 0, BuildingBlock: QUQFOY_clean_sbu_1, # of connection points: 4
#     Edge 32, Type (0, 0), BuildingBlock: KIFKEQ_clean_linker_1, # of connection points: 2
#     Edge 33, Type (0, 0), BuildingBlock: KIFKEQ_clean_linker_1, # of connection points: 2
#     Edge 34, Type (0, 0), BuildingBlock: KIFKEQ_clean_linker_1, # of connection points: 2
#     Edge 35, Type (0, 0), BuildingBlock: KIFKEQ_clean_linker_1, # of connection points: 2
#     Edge 36, Type (0, 0), BuildingBlock: KIFKEQ_clean_linker_1, # of connection points: 2
#     Edge 37, Type (0, 0), BuildingBlock: KIFKEQ_clean_linker_1, # of connection points: 2
#     Edge 38, Type (0, 0), BuildingBlock: KIFKEQ_clean_linker_1, # of connection points: 2
#     Edge 39, Type (0, 0), BuildingBlock: KIFKEQ_clean_linker_1, # of connection points: 2
#     Edge 40, Type (0, 0), BuildingBlock: KIFKEQ_clean_linker_1, # of connection points: 2
#     Edge 41, Type (0, 0), BuildingBlock: KIFKEQ_clean_linker_1, # of connection points: 2
#     Edge 42, Type (0, 0), BuildingBlock: KIFKEQ_clean_linker_1, # of connection points: 2
#     Edge 43, Type (0, 0), BuildingBlock: KIFKEQ_clean_linker_1, # of connection points: 2
#     Edge 44, Type (0, 0), BuildingBlock: KIFKEQ_clean_linker_1, # of connection points: 2
#     Edge 45, Type (0, 0), BuildingBlock: KIFKEQ_clean_linker_1, # of connection points: 2
#     Edge 46, Type (0, 0), BuildingBlock: KIFKEQ_clean_linker_1, # of connection points: 2
#     Edge 47, Type (0, 0), BuildingBlock: KIFKEQ_clean_linker_1, # of connection points: 2
#     Edge 48, Type (0, 0), BuildingBlock: KIFKEQ_clean_linker_1, # of connection points: 2
#     Edge 49, Type (0, 0), BuildingBlock: KIFKEQ_clean_linker_1, # of connection points: 2
#     Edge 50, Type (0, 0), BuildingBlock: KIFKEQ_clean_linker_1, # of connection points: 2
#     Edge 51, Type (0, 0), BuildingBlock: KIFKEQ_clean_linker_1, # of connection points: 2
#     Edge 52, Type (0, 0), BuildingBlock: KIFKEQ_clean_linker_1, # of connection points: 2
#     Edge 53, Type (0, 0), BuildingBlock: KIFKEQ_clean_linker_1, # of connection points: 2
#     Edge 54, Type (0, 0), BuildingBlock: KIFKEQ_clean_linker_1, # of connection points: 2
#     Edge 55, Type (0, 0), BuildingBlock: KIFKEQ_clean_linker_1, # of connection points: 2
#     Edge 56, Type (0, 0), BuildingBlock: KIFKEQ_clean_linker_1, # of connection points: 2
#     Edge 57, Type (0, 0), BuildingBlock: KIFKEQ_clean_linker_1, # of connection points: 2
#     Edge 58, Type (0, 0), BuildingBlock: KIFKEQ_clean_linker_1, # of connection points: 2
#     Edge 59, Type (0, 0), BuildingBlock: KIFKEQ_clean_linker_1, # of connection points: 2
#     Edge 60, Type (0, 0), BuildingBlock: KIFKEQ_clean_linker_1, # of connection points: 2
#     Edge 61, Type (0, 0), BuildingBlock: KIFKEQ_clean_linker_1, # of connection points: 2
#     Edge 62, Type (0, 0), BuildingBlock: KIFKEQ_clean_linker_1, # of connection points: 2
#     Edge 63, Type (0, 0), BuildingBlock: KIFKEQ_clean_linker_1, # of connection points: 2
#     Edge 64, Type (0, 0), BuildingBlock: KIFKEQ_clean_linker_1, # of connection points: 2
#     Edge 65, Type (0, 0), BuildingBlock: KIFKEQ_clean_linker_1, # of connection points: 2
#     Edge 66, Type (0, 0), BuildingBlock: KIFKEQ_clean_linker_1, # of connection points: 2
#     Edge 67, Type (0, 0), BuildingBlock: KIFKEQ_clean_linker_1, # of connection points: 2
#     Edge 68, Type (0, 0), BuildingBlock: KIFKEQ_clean_linker_1, # of connection points: 2
#     Edge 69, Type (0, 0), BuildingBlock: KIFKEQ_clean_linker_1, # of connection points: 2
#     Edge 70, Type (0, 0), BuildingBlock: KIFKEQ_clean_linker_1, # of connection points: 2
#     Edge 71, Type (0, 0), BuildingBlock: KIFKEQ_clean_linker_1, # of connection points: 2
#     Edge 72, Type (0, 0), BuildingBlock: KIFKEQ_clean_linker_1, # of connection points: 2
#     Edge 73, Type (0, 0), BuildingBlock: KIFKEQ_clean_linker_1, # of connection points: 2
#     Edge 74, Type (0, 0), BuildingBlock: KIFKEQ_clean_linker_1, # of connection points: 2
#     Edge 75, Type (0, 0), BuildingBlock: KIFKEQ_clean_linker_1, # of connection points: 2
#     Edge 76, Type (0, 0), BuildingBlock: KIFKEQ_clean_linker_1, # of connection points: 2
#     Edge 77, Type (0, 0), BuildingBlock: KIFKEQ_clean_linker_1, # of connection points: 2
#     Edge 78, Type (0, 0), BuildingBlock: KIFKEQ_clean_linker_1, # of connection points: 2
#     Edge 79, Type (0, 0), BuildingBlock: KIFKEQ_clean_linker_1, # of connection points: 2
#     Edge 80, Type (0, 0), BuildingBlock: KIFKEQ_clean_linker_1, # of connection points: 2
#     Edge 81, Type (0, 0), BuildingBlock: KIFKEQ_clean_linker_1, # of connection points: 2
#     Edge 82, Type (0, 0), BuildingBlock: KIFKEQ_clean_linker_1, # of connection points: 2
#     Edge 83, Type (0, 0), BuildingBlock: KIFKEQ_clean_linker_1, # of connection points: 2
#     Edge 84, Type (0, 0), BuildingBlock: KIFKEQ_clean_linker_1, # of connection points: 2
#     Edge 85, Type (0, 0), BuildingBlock: KIFKEQ_clean_linker_1, # of connection points: 2
#     Edge 86, Type (0, 0), BuildingBlock: KIFKEQ_clean_linker_1, # of connection points: 2
#     Edge 87, Type (0, 0), BuildingBlock: KIFKEQ_clean_linker_1, # of connection points: 2
#     Edge 88, Type (0, 0), BuildingBlock: KIFKEQ_clean_linker_1, # of connection points: 2
#     Edge 89, Type (0, 0), BuildingBlock: KIFKEQ_clean_linker_1, # of connection points: 2
#     Edge 90, Type (0, 0), BuildingBlock: KIFKEQ_clean_linker_1, # of connection points: 2
#     Edge 91, Type (0, 0), BuildingBlock: KIFKEQ_clean_linker_1, # of connection points: 2
#     Edge 92, Type (0, 0), BuildingBlock: KIFKEQ_clean_linker_1, # of connection points: 2
#     Edge 93, Type (0, 0), BuildingBlock: KIFKEQ_clean_linker_1, # of connection points: 2
#     Edge 94, Type (0, 0), BuildingBlock: KIFKEQ_clean_linker_1, # of connection points: 2
#     Edge 95, Type (0, 0), BuildingBlock: KIFKEQ_clean_linker_1, # of connection points: 2
# Relax obj value: 0.262
# Max RMSD: 0.145
# Mean RMSD: 0.145
data_MOF--net-dei--node1-QUQFOY_clean_sbu_1--edge1-KIFKEQ_clean_linker_1
_symmetry_space_group_name_H-M    P1
_symmetry_Int_Tables_number       1
_symmetry_cell_setting            triclinic
loop_
_symmetry_equiv_pos_as_xyz
'x, y, z'
_cell_length_a     58.348511
_cell_length_b     58.347899
_cell_length_c     94.149288
_cell_angle_alpha  90.074013
_cell_angle_beta   89.992629
_cell_angle_gamma 90.191769
loop_
_atom_site_label
_atom_site_type_symbol
_atom_site_fract_x
_atom_site_fract_y
_atom_site_fract_z
_atom_type_partial_charge
O0 O 0.11545 0.63493 0.02696 0.0
Cd1 Cd 0.15064 0.63506 0.02555 0.0
Cd2 Cd 0.14796 0.64848 0.05501 0.0
O3 O 0.11379 0.64413 0.04968 0.0
O4 O 0.15849 0.61349 0.00975 0.0
O5 O 0.16681 0.60657 0.03227 0.0
C6 C 0.16639 0.5996 0.01921 0.0
C7 C 0.15411 0.6439 0.07963 0.0
C8 C 0.10385 0.639 0.03808 0.0
C9 C 0.17069 0.68084 0.03332 0.0
O10 O 0.16566 0.67564 0.04606 0.0
O11 O 0.1662 0.66709 0.02316 0.0
O12 O 0.14383 0.66139 0.07443 0.0
O13 O 0.1615 0.62869 0.07081 0.0
O14 O 0.60669 0.91145 0.29727 0.0
Cd15 Cd 0.6357 0.89553 0.30486 0.0
Cd16 Cd 0.64533 0.90016 0.27522 0.0
O17 O 0.61357 0.9167 0.27446 0.0
O18 O 0.62403 0.88914 0.32433 0.0
O19 O 0.65513 0.90966 0.32074 0.0
C20 C 0.64079 0.90066 0.32956 0.0
C21 C 0.68136 0.91594 0.27028 0.0
C22 C 0.60028 0.91851 0.28514 0.0
C23 C 0.64381 0.85271 0.28652 0.0
O24 O 0.64471 0.86478 0.2753 0.0
O25 O 0.64147 0.86214 0.29861 0.0
O26 O 0.66728 0.91067 0.26018 0.0
O27 O 0.67426 0.91379 0.28324 0.0
O28 O 0.41609 0.39911 0.52114 0.0
Cd29 Cd 0.38096 0.39976 0.52205 0.0
Cd30 Cd 0.38704 0.39158 0.55184 0.0
O31 O 0.41931 0.4009 0.54448 0.0
O32 O 0.36926 0.42182 0.50751 0.0
O33 O 0.36813 0.42845 0.5307 0.0
C34 C 0.36494 0.43573 0.51787 0.0
C35 C 0.38422 0.39641 0.57671 0.0
C36 C 0.42833 0.40153 0.53219 0.0
C37 C 0.36387 0.35489 0.53273 0.0
O38 O 0.37164 0.36149 0.54469 0.0
O39 O 0.36482 0.36799 0.52194 0.0
O40 O 0.39702 0.38111 0.57101 0.0
O41 O 0.37238 0.40919 0.56831 0.0
O42 O 0.9247 0.12023 0.79681 0.0
Cd43 Cd 0.89651 0.1375 0.80471 0.0
Cd44 Cd 0.88497 0.13219 0.77514 0.0
O45 O 0.91691 0.11635 0.77394 0.0
O46 O 0.90857 0.14417 0.82409 0.0
O47 O 0.87701 0.12421 0.82079 0.0
C48 C 0.89158 0.13318 0.82948 0.0
C49 C 0.84923 0.11586 0.77017 0.0
C50 C 0.93042 0.11364 0.78443 0.0
C51 C 0.88724 0.17986 0.78598 0.0
O52 O 0.88513 0.16743 0.77497 0.0
O53 O 0.89088 0.17085 0.79806 0.0
O54 O 0.86323 0.12137 0.76009 0.0
O55 O 0.85626 0.1181 0.78314 0.0
O56 O 0.11602 0.39671 0.98856 0.0
Cd57 Cd 0.15123 0.39633 0.98927 0.0
Cd58 Cd 0.14688 0.38404 0.9597 0.0
O59 O 0.11317 0.38964 0.9656 0.0
O60 O 0.16007 0.41767 1.00501 0.0
O61 O 0.16715 0.42492 0.98236 0.0
C62 C 0.1674 0.43175 0.99544 0.0
C63 C 0.15247 0.38886 0.93503 0.0
C64 C 0.10386 0.39401 0.9775 0.0
C65 C 0.16965 0.35047 0.98068 0.0
O66 O 0.16376 0.35604 0.96814 0.0
O67 O 0.16649 0.36417 0.99105 0.0
O68 O 0.14145 0.37175 0.94023 0.0
O69 O 0.16086 0.40356 0.94387 0.0
O70 O 0.92517 0.91452 0.21852 0.0
Cd71 Cd 0.89788 0.89632 0.21012 0.0
Cd72 Cd 0.88473 0.89989 0.2394 0.0
O73 O 0.91652 0.91619 0.24137 0.0
O74 O 0.91014 0.89141 0.19061 0.0
O75 O 0.87757 0.90923 0.19437 0.0
C76 C 0.89248 0.9015 0.18547 0.0
C77 C 0.84876 0.91547 0.2446 0.0
C78 C 0.9303 0.92023 0.23117 0.0
C79 C 0.88939 0.85273 0.22782 0.0
O80 O 0.88534 0.86462 0.23884 0.0
O81 O 0.89406 0.86237 0.21606 0.0
O82 O 0.86266 0.90945 0.2546 0.0
O83 O 0.85595 0.91408 0.23163 0.0
O84 O 0.4183 0.63994 0.4899 0.0
Cd85 Cd 0.3829 0.63953 0.48959 0.0
Cd86 Cd 0.38829 0.64959 0.46029 0.0
O87 O 0.42165 0.64425 0.4667 0.0
O88 O 0.37185 0.61749 0.5044 0.0
O89 O 0.36919 0.61085 0.48128 0.0
C90 C 0.36664 0.60361 0.49418 0.0
C91 C 0.38331 0.64326 0.4357 0.0
C92 C 0.43072 0.64144 0.47885 0.0
C93 C 0.36486 0.68483 0.47982 0.0
O94 O 0.37214 0.67863 0.46768 0.0
O95 O 0.36649 0.67134 0.49041 0.0
O96 O 0.39469 0.66036 0.44063 0.0
O97 O 0.37426 0.62938 0.44476 0.0
O98 O 0.60628 0.12122 0.71784 0.0
Cd99 Cd 0.63506 0.1373 0.70978 0.0
Cd100 Cd 0.64649 0.13204 0.73917 0.0
O101 O 0.61464 0.11569 0.74045 0.0
O102 O 0.62343 0.14336 0.69024 0.0
O103 O 0.65449 0.12305 0.694 0.0
C104 C 0.64025 0.1319 0.6851 0.0
C105 C 0.68224 0.11598 0.74421 0.0
C106 C 0.60065 0.11401 0.7301 0.0
C107 C 0.64465 0.17976 0.72817 0.0
O108 O 0.64632 0.1674 0.73922 0.0
O109 O 0.64128 0.17066 0.71607 0.0
O110 O 0.66824 0.12158 0.75427 0.0
O111 O 0.67522 0.11803 0.73124 0.0
O112 O 0.91927 0.39686 0.99009 0.0
Cd113 Cd 0.88396 0.39731 0.99003 0.0
Cd114 Cd 0.88946 0.3894 0.96029 0.0
O115 O 0.92186 0.39924 0.96678 0.0
O116 O 0.87425 0.41835 1.00568 0.0
O117 O 0.86933 0.42627 0.98288 0.0
C118 C 0.86804 0.43276 0.99601 0.0
C119 C 0.88538 0.39437 0.93552 0.0
C120 C 0.93123 0.39957 0.97895 0.0
C121 C 0.86785 0.35203 0.97964 0.0
O122 O 0.87584 0.35875 0.96776 0.0
O123 O 0.86777 0.36549 0.9903 0.0
O124 O 0.89864 0.37922 0.94092 0.0
O125 O 0.87359 0.40678 0.94418 0.0
O126 O 0.38555 0.16627 0.74139 0.0
Cd127 Cd 0.38566 0.13108 0.74245 0.0
Cd128 Cd 0.39847 0.13438 0.71284 0.0
O129 O 0.39329 0.1683 0.71848 0.0
O130 O 0.36399 0.12279 0.75809 0.0
O131 O 0.35717 0.11506 0.73546 0.0
C132 C 0.3501 0.11517 0.74849 0.0
C133 C 0.39424 0.12869 0.68813 0.0
C134 C 0.38869 0.17804 0.73023 0.0
C135 C 0.43119 0.11149 0.7343 0.0
O136 O 0.42583 0.1169 0.72165 0.0
O137 O 0.4176 0.11555 0.74458 0.0
O138 O 0.41148 0.13931 0.69351 0.0
O139 O 0.37908 0.12074 0.69681 0.0
O140 O 0.61544 0.63559 0.49148 0.0
Cd141 Cd 0.65062 0.63442 0.49172 0.0
Cd142 Cd 0.6468 0.64545 0.46196 0.0
O143 O 0.61325 0.63896 0.46815 0.0
O144 O 0.66051 0.61231 0.50675 0.0
O145 O 0.66429 0.60561 0.48369 0.0
C146 C 0.6661 0.5984 0.49664 0.0
C147 C 0.65169 0.64114 0.43716 0.0
C148 C 0.60361 0.63643 0.48017 0.0
C149 C 0.67027 0.67941 0.48273 0.0
O150 O 0.66388 0.67376 0.47028 0.0
O151 O 0.66718 0.66591 0.49317 0.0
O152 O 0.64061 0.65794 0.44263 0.0
O153 O 0.66049 0.62643 0.44578 0.0
O154 O 0.14434 0.86626 0.24154 0.0
Cd155 Cd 0.14532 0.90157 0.2411 0.0
Cd156 Cd 0.13727 0.89572 0.21147 0.0
O157 O 0.14627 0.86323 0.21819 0.0
O158 O 0.16735 0.91263 0.25593 0.0
O159 O 0.17433 0.9145 0.23282 0.0
C160 C 0.18147 0.91722 0.24573 0.0
C161 C 0.14206 0.90031 0.1867 0.0
C162 C 0.14673 0.85409 0.23044 0.0
C163 C 0.10039 0.91823 0.23069 0.0
O164 O 0.10706 0.91007 0.21885 0.0
O165 O 0.11377 0.91816 0.24138 0.0
O166 O 0.12626 0.88764 0.19206 0.0
O167 O 0.15557 0.91077 0.19541 0.0
O168 O 0.91892 0.63704 0.02717 0.0
Cd169 Cd 0.88361 0.6362 0.02651 0.0
Cd170 Cd 0.88786 0.64589 0.05626 0.0
O171 O 0.9212 0.63836 0.05055 0.0
O172 O 0.87505 0.61489 0.0107 0.0
O173 O 0.86853 0.60714 0.03336 0.0
C174 C 0.86813 0.60054 0.02023 0.0
C175 C 0.88192 0.64099 0.0809 0.0
C176 C 0.93078 0.63664 0.03847 0.0
C177 C 0.86581 0.68142 0.03591 0.0
O178 O 0.87292 0.67527 0.0481 0.0
O179 O 0.86722 0.66778 0.02537 0.0
O180 O 0.89398 0.65747 0.07581 0.0
O181 O 0.87263 0.627 0.07197 0.0
O182 O 0.14601 0.16753 0.7748 0.0
Cd183 Cd 0.14621 0.13224 0.77553 0.0
Cd184 Cd 0.13883 0.13904 0.80497 0.0
O185 O 0.14915 0.17106 0.79803 0.0
O186 O 0.16758 0.12146 0.76034 0.0
O187 O 0.17486 0.11793 0.78333 0.0
C188 C 0.18169 0.1158 0.77032 0.0
C189 C 0.14427 0.1352 0.8297 0.0
C190 C 0.14924 0.17993 0.78571 0.0
C191 C 0.1009 0.11714 0.78618 0.0
O192 O 0.10781 0.12573 0.79787 0.0
O193 O 0.11431 0.11625 0.77551 0.0
O194 O 0.12934 0.14879 0.82436 0.0
O195 O 0.15624 0.12305 0.821 0.0
O196 O 0.61349 0.39516 0.52388 0.0
Cd197 Cd 0.64878 0.39513 0.52526 0.0
Cd198 Cd 0.64154 0.38659 0.55449 0.0
O199 O 0.60917 0.39429 0.54714 0.0
O200 O 0.66128 0.41688 0.51074 0.0
O201 O 0.66188 0.42379 0.5339 0.0
C202 C 0.66554 0.43088 0.52107 0.0
C203 C 0.64496 0.39357 0.57909 0.0
C204 C 0.60065 0.3959 0.53477 0.0
C205 C 0.66469 0.34969 0.53605 0.0
O206 O 0.65624 0.35623 0.54783 0.0
O207 O 0.66484 0.36317 0.5254 0.0
O208 O 0.6321 0.37765 0.57404 0.0
O209 O 0.65662 0.40567 0.57019 0.0
O210 O 0.38602 0.86493 0.27711 0.0
Cd211 Cd 0.38492 0.90012 0.27639 0.0
Cd212 Cd 0.39703 0.89714 0.30602 0.0
O213 O 0.39103 0.86327 0.30034 0.0
O214 O 0.36285 0.90937 0.26115 0.0
O215 O 0.35608 0.91425 0.28411 0.0
C216 C 0.34893 0.9155 0.27112 0.0
C217 C 0.39247 0.903 0.33071 0.0
C218 C 0.38781 0.85335 0.28847 0.0
C219 C 0.43029 0.92006 0.28472 0.0
O220 O 0.42504 0.91415 0.29732 0.0
O221 O 0.41647 0.91653 0.27448 0.0
O222 O 0.4095 0.89199 0.32547 0.0
O223 O 0.37772 0.91125 0.3219 0.0
O224 O 0.61604 0.13526 0.52398 0.0
Cd225 Cd 0.65123 0.13435 0.52381 0.0
Cd226 Cd 0.64727 0.14414 0.55367 0.0
O227 O 0.61394 0.13686 0.54739 0.0
O228 O 0.66151 0.11221 0.50886 0.0
O229 O 0.66478 0.10562 0.53196 0.0
C230 C 0.66684 0.09833 0.51903 0.0
C231 C 0.65197 0.13989 0.57848 0.0
C232 C 0.60428 0.13501 0.53533 0.0
C233 C 0.67006 0.17931 0.53342 0.0
O234 O 0.66352 0.17313 0.54572 0.0
O235 O 0.66755 0.16603 0.52279 0.0
O236 O 0.6404 0.15631 0.573 0.0
O237 O 0.66134 0.12549 0.56987 0.0
O238 O 0.10781 0.41256 0.79591 0.0
Cd239 Cd 0.13603 0.39547 0.80387 0.0
Cd240 Cd 0.14743 0.39988 0.77425 0.0
O241 O 0.11544 0.41563 0.77298 0.0
O242 O 0.12409 0.38934 0.82333 0.0
O243 O 0.15575 0.40901 0.81979 0.0
C244 C 0.14122 0.40029 0.82859 0.0
C245 C 0.18313 0.41607 0.76892 0.0
C246 C 0.10199 0.4187 0.78347 0.0
C247 C 0.14511 0.35253 0.78556 0.0
O248 O 0.14731 0.36463 0.77444 0.0
O249 O 0.14144 0.36192 0.79754 0.0
O250 O 0.16902 0.4102 0.75898 0.0
O251 O 0.17624 0.41428 0.78195 0.0
O252 O 0.91778 0.8969 0.02619 0.0
Cd253 Cd 0.88256 0.89684 0.02514 0.0
Cd254 Cd 0.88578 0.88386 0.05455 0.0
O255 O 0.91984 0.88825 0.04896 0.0
O256 O 0.8743 0.91845 0.00949 0.0
O257 O 0.86664 0.92531 0.03212 0.0
C258 C 0.8667 0.93233 0.01908 0.0
C259 C 0.87998 0.8889 0.07919 0.0
C260 C 0.92958 0.8931 0.03726 0.0
C261 C 0.8627 0.85116 0.03316 0.0
O262 O 0.86801 0.85649 0.04585 0.0
O263 O 0.86691 0.86482 0.02293 0.0
O264 O 0.89033 0.87139 0.07403 0.0
O265 O 0.87231 0.90385 0.07031 0.0
O266 O 0.42513 0.6179 0.29601 0.0
Cd267 Cd 0.39825 0.6358 0.30497 0.0
Cd268 Cd 0.38487 0.63343 0.2756 0.0
O269 O 0.4167 0.61768 0.2731 0.0
O270 O 0.41116 0.63946 0.32442 0.0
O271 O 0.37812 0.62228 0.32066 0.0
C272 C 0.39346 0.62929 0.32954 0.0
C273 C 0.34921 0.61794 0.26923 0.0
C274 C 0.43033 0.61296 0.28325 0.0
C275 C 0.38956 0.68013 0.2883 0.0
O276 O 0.38516 0.66862 0.27717 0.0
O277 O 0.39466 0.6701 0.29984 0.0
O278 O 0.3632 0.62587 0.25979 0.0
O279 O 0.35619 0.61734 0.28227 0.0
O280 O 0.61449 0.89401 0.49014 0.0
Cd281 Cd 0.64989 0.89454 0.48993 0.0
Cd282 Cd 0.6446 0.88423 0.46059 0.0
O283 O 0.6112 0.88971 0.46692 0.0
O284 O 0.66073 0.91669 0.50477 0.0
O285 O 0.66351 0.92326 0.48165 0.0
C286 C 0.66593 0.93055 0.49456 0.0
C287 C 0.6499 0.88981 0.43597 0.0
C288 C 0.60211 0.89252 0.47907 0.0
C289 C 0.66806 0.84926 0.48029 0.0
O290 O 0.66075 0.85534 0.46815 0.0
O291 O 0.66642 0.86281 0.49086 0.0
O292 O 0.63843 0.87288 0.44102 0.0
O293 O 0.65872 0.90405 0.44493 0.0
O294 O 0.42404 0.40363 0.71516 0.0
Cd295 Cd 0.39263 0.39074 0.7085 0.0
Cd296 Cd 0.3856 0.39856 0.73774 0.0
O297 O 0.41749 0.41467 0.73722 0.0
O298 O 0.4012 0.38056 0.689 0.0
O299 O 0.37505 0.40697 0.69264 0.0
C300 C 0.38647 0.39452 0.68382 0.0
C301 C 0.34994 0.415 0.74245 0.0
C302 C 0.43098 0.41289 0.72664 0.0
C303 C 0.38252 0.35056 0.72836 0.0
O304 O 0.38607 0.3633 0.73909 0.0
O305 O 0.38221 0.35905 0.71593 0.0
O306 O 0.36429 0.41083 0.75258 0.0
O307 O 0.35659 0.41137 0.72952 0.0
O308 O 0.91727 0.13564 0.99006 0.0
Cd309 Cd 0.88205 0.13591 0.99045 0.0
Cd310 Cd 0.88705 0.14807 0.96088 0.0
O311 O 0.9206 0.14225 0.96707 0.0
O312 O 0.87287 0.11447 1.00602 0.0
O313 O 0.86638 0.10734 0.98327 0.0
C314 C 0.86581 0.10043 0.99632 0.0
C315 C 0.88185 0.14345 0.93615 0.0
C316 C 0.92966 0.13808 0.97908 0.0
C317 C 0.86378 0.18167 0.98173 0.0
O318 O 0.87003 0.17608 0.96926 0.0
O319 O 0.86668 0.16802 0.99213 0.0
O320 O 0.89295 0.16043 0.94149 0.0
O321 O 0.87324 0.12873 0.94488 0.0
O322 O 0.10621 0.62286 0.21843 0.0
Cd323 Cd 0.13518 0.63887 0.21057 0.0
Cd324 Cd 0.14566 0.63369 0.24009 0.0
O325 O 0.11372 0.61747 0.24117 0.0
O326 O 0.12388 0.64502 0.19099 0.0
O327 O 0.15483 0.62463 0.19489 0.0
C328 C 0.14078 0.63361 0.18593 0.0
C329 C 0.1812 0.61774 0.24588 0.0
C330 C 0.10011 0.61575 0.23063 0.0
C331 C 0.14423 0.68141 0.22888 0.0
O332 O 0.14557 0.66905 0.23995 0.0
O333 O 0.14122 0.67229 0.21676 0.0
O334 O 0.16705 0.62432 0.25562 0.0
O335 O 0.1744 0.61868 0.23281 0.0
O336 O 0.41739 0.89851 0.49178 0.0
Cd337 Cd 0.38221 0.89976 0.492 0.0
Cd338 Cd 0.3861 0.88901 0.46216 0.0
O339 O 0.4196 0.89555 0.46842 0.0
O340 O 0.37232 0.92174 0.50715 0.0
O341 O 0.36869 0.92874 0.48413 0.0
C342 C 0.36685 0.9358 0.49712 0.0
C343 C 0.38141 0.89354 0.43736 0.0
C344 C 0.42923 0.89788 0.48047 0.0
C345 C 0.36263 0.85481 0.4827 0.0
O346 O 0.36911 0.86056 0.4703 0.0
O347 O 0.36559 0.86825 0.49321 0.0
O348 O 0.39256 0.87676 0.44278 0.0
O349 O 0.37239 0.90806 0.44603 0.0
O350 O 0.88606 0.66819 0.24039 0.0
Cd351 Cd 0.88519 0.63305 0.24165 0.0
Cd352 Cd 0.89663 0.63539 0.2119 0.0
O353 O 0.89085 0.66941 0.21715 0.0
O354 O 0.86342 0.62516 0.25732 0.0
O355 O 0.85646 0.61745 0.23469 0.0
C356 C 0.84944 0.61764 0.24774 0.0
C357 C 0.89208 0.62908 0.18727 0.0
C358 C 0.88773 0.67956 0.22895 0.0
C359 C 0.93026 0.61318 0.23328 0.0
O360 O 0.92463 0.61863 0.22067 0.0
O361 O 0.91679 0.61705 0.24365 0.0
O362 O 0.90922 0.64011 0.19245 0.0
O363 O 0.87723 0.62101 0.19611 0.0
O364 O 0.11435 0.13562 0.99191 0.0
Cd365 Cd 0.14963 0.13493 0.99094 0.0
Cd366 Cd 0.14302 0.14185 0.96148 0.0
O367 O 0.11113 0.13165 0.9687 0.0
O368 O 0.16144 0.11325 1.00567 0.0
O369 O 0.16236 0.106 0.98255 0.0
C370 C 0.16569 0.09907 0.99544 0.0
C371 C 0.14633 0.13608 0.93673 0.0
C372 C 0.1021 0.13201 0.98098 0.0
C373 C 0.16517 0.17996 0.9799 0.0
O374 O 0.15644 0.17299 0.96827 0.0
O375 O 0.16605 0.16664 0.9906 0.0
O376 O 0.1328 0.15102 0.94213 0.0
O377 O 0.15873 0.12428 0.94536 0.0
O378 O 0.64684 0.36438 0.74091 0.0
Cd379 Cd 0.64698 0.39958 0.74087 0.0
Cd380 Cd 0.63923 0.39446 0.71087 0.0
O381 O 0.64823 0.36186 0.71756 0.0
O382 O 0.66813 0.40969 0.75638 0.0
O383 O 0.67569 0.41461 0.73352 0.0
C384 C 0.68236 0.41603 0.74661 0.0
C385 C 0.64415 0.39795 0.68607 0.0
C386 C 0.649 0.35246 0.72972 0.0
C387 C 0.6021 0.41633 0.73023 0.0
O388 O 0.60908 0.40926 0.71819 0.0
O389 O 0.61496 0.41505 0.74114 0.0
O390 O 0.62869 0.38509 0.69161 0.0
O391 O 0.65696 0.40963 0.6946 0.0
O392 O 0.41893 0.13927 0.52724 0.0
Cd393 Cd 0.38356 0.13894 0.52781 0.0
Cd394 Cd 0.38975 0.14904 0.55715 0.0
O395 O 0.42285 0.14304 0.55045 0.0
O396 O 0.37236 0.11717 0.51284 0.0
O397 O 0.36999 0.11006 0.53592 0.0
C398 C 0.36734 0.10307 0.52296 0.0
C399 C 0.38502 0.1429 0.58178 0.0
C400 C 0.4316 0.14037 0.5382 0.0
C401 C 0.36631 0.18447 0.53776 0.0
O402 O 0.37399 0.17832 0.5498 0.0
O403 O 0.36726 0.17081 0.52719 0.0
O404 O 0.39663 0.15978 0.57679 0.0
O405 O 0.37562 0.12913 0.57276 0.0
O406 O 0.64491 0.66761 0.276 0.0
Cd407 Cd 0.6455 0.63232 0.27605 0.0
Cd408 Cd 0.63602 0.63807 0.30569 0.0
O409 O 0.64474 0.67092 0.29936 0.0
O410 O 0.66702 0.62284 0.26061 0.0
O411 O 0.67433 0.61776 0.28348 0.0
C412 C 0.68118 0.6166 0.27042 0.0
C413 C 0.64066 0.63286 0.33043 0.0
C414 C 0.64616 0.67993 0.2871 0.0
C415 C 0.60006 0.61547 0.28565 0.0
O416 O 0.60626 0.62331 0.29768 0.0
O417 O 0.61381 0.61597 0.27514 0.0
O418 O 0.62465 0.64525 0.32516 0.0
O419 O 0.65437 0.62293 0.32163 0.0
O420 O 0.11458 0.89462 0.0258 0.0
Cd421 Cd 0.14991 0.89569 0.02569 0.0
Cd422 Cd 0.14513 0.88637 0.05532 0.0
O423 O 0.11203 0.89417 0.0492 0.0
O424 O 0.16018 0.91761 0.0106 0.0
O425 O 0.16349 0.9247 0.03365 0.0
C426 C 0.16556 0.93172 0.02067 0.0
C427 C 0.15069 0.89106 0.08002 0.0
C428 C 0.10259 0.89551 0.03705 0.0
C429 C 0.1676 0.8506 0.03534 0.0
O430 O 0.16007 0.85681 0.04742 0.0
O431 O 0.16658 0.86421 0.02479 0.0
O432 O 0.13846 0.87479 0.0748 0.0
O433 O 0.16017 0.90509 0.07121 0.0
O434 O 0.88632 0.36456 0.77358 0.0
Cd435 Cd 0.88611 0.39986 0.77421 0.0
Cd436 Cd 0.89323 0.39343 0.80375 0.0
O437 O 0.88276 0.36145 0.7968 0.0
O438 O 0.8649 0.41043 0.75891 0.0
O439 O 0.85736 0.41425 0.78185 0.0
C440 C 0.85066 0.41619 0.7688 0.0
C441 C 0.88761 0.39704 0.82848 0.0
C442 C 0.88284 0.35237 0.78453 0.0
C443 C 0.93137 0.41505 0.785 0.0
O444 O 0.92435 0.40662 0.7967 0.0
O445 O 0.91804 0.41582 0.7743 0.0
O446 O 0.90256 0.38348 0.82311 0.0
O447 O 0.87581 0.4094 0.81983 0.0
H448 H 0.17722 0.61552 0.17091 0.0
H449 H 0.11133 0.64803 0.1656 0.0
H450 H 0.18296 0.61662 0.14502 0.0
H451 H 0.11698 0.64893 0.14012 0.0
H452 H 0.14513 0.67618 0.09955 0.0
H453 H 0.14381 0.67173 0.12513 0.0
H454 H 0.16596 0.60151 0.12105 0.0
H455 H 0.16751 0.60602 0.09508 0.0
C456 C 0.16391 0.62265 0.16425 0.0
C457 C 0.14396 0.63195 0.17033 0.0
C458 C 0.16717 0.62323 0.14946 0.0
C459 C 0.15059 0.63323 0.14058 0.0
C460 C 0.13031 0.64158 0.14669 0.0
C461 C 0.12704 0.64097 0.16133 0.0
C462 C 0.14992 0.65979 0.10403 0.0
C463 C 0.15612 0.64135 0.09524 0.0
C464 C 0.14909 0.65724 0.11872 0.0
C465 C 0.15436 0.63615 0.12508 0.0
C466 C 0.16177 0.61795 0.11642 0.0
C467 C 0.16261 0.62052 0.10158 0.0
H468 H 0.63824 0.85878 0.41582 0.0
H469 H 0.66626 0.92697 0.42082 0.0
H470 H 0.63789 0.86358 0.39027 0.0
H471 H 0.66563 0.93188 0.39485 0.0
H472 H 0.60935 0.88887 0.34939 0.0
H473 H 0.61367 0.88813 0.37496 0.0
H474 H 0.68211 0.91577 0.37109 0.0
H475 H 0.67768 0.9168 0.34509 0.0
C476 C 0.64441 0.87483 0.41146 0.0
C477 C 0.65198 0.89263 0.42038 0.0
C478 C 0.64414 0.8776 0.39678 0.0
C479 C 0.65131 0.89827 0.39057 0.0
C480 C 0.65995 0.91578 0.39938 0.0
C481 C 0.66025 0.91299 0.41421 0.0
C482 C 0.62533 0.89494 0.35391 0.0
C483 C 0.6433 0.90259 0.34517 0.0
C484 C 0.62782 0.89444 0.3686 0.0
C485 C 0.64839 0.90147 0.37502 0.0
C486 C 0.66608 0.91021 0.3664 0.0
C487 C 0.66356 0.91074 0.35156 0.0
H488 H 0.39711 0.3618 0.66463 0.0
H489 H 0.36831 0.42967 0.66781 0.0
H490 H 0.39477 0.36361 0.639 0.0
H491 H 0.36679 0.43197 0.64176 0.0
H492 H 0.35128 0.41685 0.59352 0.0
H493 H 0.34984 0.41732 0.61961 0.0
H494 H 0.41523 0.38281 0.62097 0.0
H495 H 0.41614 0.38157 0.59529 0.0
C496 C 0.39035 0.37722 0.65982 0.0
C497 C 0.38318 0.39572 0.66824 0.0
C498 C 0.38914 0.37833 0.64507 0.0
C499 C 0.38112 0.39817 0.63824 0.0
C500 C 0.37307 0.41643 0.64666 0.0
C501 C 0.374 0.41517 0.66156 0.0
C502 C 0.36532 0.40947 0.59947 0.0
C503 C 0.38364 0.39884 0.59237 0.0
C504 C 0.36455 0.4098 0.6144 0.0
C505 C 0.38219 0.39967 0.62243 0.0
C506 C 0.40095 0.39009 0.6152 0.0
C507 C 0.40156 0.38951 0.60042 0.0
H508 H 0.89368 0.17501 0.91635 0.0
H509 H 0.86592 0.1066 0.92052 0.0
H510 H 0.89428 0.17082 0.89074 0.0
H511 H 0.86685 0.10227 0.89454 0.0
H512 H 0.85509 0.11657 0.84514 0.0
H513 H 0.85063 0.11783 0.87111 0.0
H514 H 0.91819 0.14766 0.87486 0.0
H515 H 0.92251 0.14671 0.84928 0.0
C516 C 0.88762 0.15904 0.9118 0.0
C517 C 0.88002 0.14102 0.92051 0.0
C518 C 0.88806 0.15661 0.89708 0.0
C519 C 0.88102 0.13606 0.89062 0.0
C520 C 0.87241 0.11831 0.89923 0.0
C521 C 0.87194 0.12076 0.91408 0.0
C522 C 0.869 0.12322 0.85157 0.0
C523 C 0.88903 0.13181 0.84513 0.0
C524 C 0.86648 0.12388 0.86641 0.0
C525 C 0.88391 0.13321 0.87501 0.0
C526 C 0.90422 0.14087 0.86854 0.0
C527 C 0.90672 0.14023 0.85383 0.0
H528 H 0.14096 0.35748 0.91501 0.0
H529 H 0.16815 0.42606 0.91967 0.0
H530 H 0.14004 0.36216 0.88944 0.0
H531 H 0.16695 0.43084 0.89372 0.0
H532 H 0.11048 0.38722 0.8486 0.0
H533 H 0.11536 0.38605 0.87413 0.0
H534 H 0.1831 0.41525 0.86994 0.0
H535 H 0.17812 0.41668 0.844 0.0
C536 C 0.14685 0.37358 0.91057 0.0
C537 C 0.15435 0.39151 0.91941 0.0
C538 C 0.14623 0.37628 0.89589 0.0
C539 C 0.15301 0.39702 0.88958 0.0
C540 C 0.16159 0.41467 0.8983 0.0
C541 C 0.16222 0.41195 0.91313 0.0
C542 C 0.12642 0.39354 0.85304 0.0
C543 C 0.14403 0.40178 0.84422 0.0
C544 C 0.12924 0.39277 0.86771 0.0
C545 C 0.14977 0.40016 0.87404 0.0
C546 C 0.1671 0.4094 0.86534 0.0
C547 C 0.16427 0.41016 0.85052 0.0
H548 H 0.89135 0.8578 0.09932 0.0
H549 H 0.86466 0.92634 0.09444 0.0
H550 H 0.89258 0.86291 0.12486 0.0
H551 H 0.86607 0.9315 0.12037 0.0
H552 H 0.92322 0.88933 0.16527 0.0
H553 H 0.91792 0.8879 0.13975 0.0
H554 H 0.84973 0.91536 0.14438 0.0
H555 H 0.85507 0.91696 0.1703 0.0
C556 C 0.8856 0.87396 0.10369 0.0
C557 C 0.87818 0.89177 0.0948 0.0
C558 C 0.88639 0.8769 0.11836 0.0
C559 C 0.87981 0.89774 0.12459 0.0
C560 C 0.87128 0.91526 0.11583 0.0
C561 C 0.87052 0.91232 0.10101 0.0
C562 C 0.90709 0.89523 0.16093 0.0
C563 C 0.88945 0.903 0.16986 0.0
C564 C 0.90405 0.89432 0.14627 0.0
C565 C 0.88327 0.90114 0.14009 0.0
C566 C 0.86591 0.90996 0.14889 0.0
C567 C 0.86895 0.91082 0.16369 0.0
H568 H 0.3984 0.67211 0.4152 0.0
H569 H 0.36467 0.6067 0.42091 0.0
H570 H 0.39924 0.66601 0.38976 0.0
H571 H 0.36567 0.60053 0.39504 0.0
H572 H 0.4261 0.63686 0.34945 0.0
H573 H 0.42167 0.63808 0.37504 0.0
H574 H 0.35069 0.61811 0.37092 0.0
H575 H 0.35515 0.61668 0.34493 0.0
C576 C 0.39106 0.65641 0.41103 0.0
C577 C 0.38172 0.63976 0.42013 0.0
C578 C 0.39163 0.65289 0.39641 0.0
C579 C 0.38289 0.63262 0.39043 0.0
C580 C 0.37258 0.6163 0.3994 0.0
C581 C 0.37206 0.61981 0.41417 0.0
C582 C 0.40955 0.6325 0.35392 0.0
C583 C 0.39088 0.62701 0.34513 0.0
C584 C 0.40702 0.63326 0.36862 0.0
C585 C 0.38573 0.62861 0.37496 0.0
C586 C 0.36728 0.62181 0.36629 0.0
C587 C 0.36983 0.62105 0.35145 0.0
H588 H 0.60935 0.14384 0.66498 0.0
H589 H 0.6772 0.11546 0.66986 0.0
H590 H 0.6141 0.14411 0.63942 0.0
H591 H 0.68211 0.11608 0.64392 0.0
H592 H 0.66832 0.10371 0.59441 0.0
H593 H 0.66682 0.09975 0.62041 0.0
H594 H 0.63788 0.16757 0.62363 0.0
H595 H 0.63902 0.17138 0.59803 0.0
C596 C 0.62532 0.13759 0.66059 0.0
C597 C 0.64301 0.1299 0.66949 0.0
C598 C 0.62808 0.13784 0.6459 0.0
C599 C 0.64865 0.13053 0.63964 0.0
C600 C 0.66607 0.12185 0.64845 0.0
C601 C 0.66328 0.12155 0.66328 0.0
C602 C 0.66184 0.11779 0.60073 0.0
C603 C 0.65349 0.13772 0.59414 0.0
C604 C 0.66104 0.11555 0.61559 0.0
C605 C 0.65184 0.13318 0.62405 0.0
C606 C 0.64454 0.15343 0.61742 0.0
C607 C 0.64529 0.15565 0.6027 0.0
H608 H 0.8692 0.43146 0.84507 0.0
H609 H 0.8983 0.36361 0.84707 0.0
H610 H 0.86743 0.43256 0.87117 0.0
H611 H 0.8957 0.36424 0.87271 0.0
H612 H 0.91723 0.38055 0.91661 0.0
H613 H 0.91619 0.38294 0.89098 0.0
H614 H 0.85041 0.41662 0.89308 0.0
H615 H 0.85196 0.41498 0.91917 0.0
C616 C 0.87492 0.41672 0.85107 0.0
C617 C 0.88428 0.39763 0.84406 0.0
C618 C 0.87384 0.4173 0.86599 0.0
C619 C 0.8819 0.39868 0.87408 0.0
C620 C 0.89006 0.3792 0.8669 0.0
C621 C 0.89144 0.37878 0.85215 0.0
C622 C 0.90251 0.38852 0.91166 0.0
C623 C 0.88451 0.39728 0.91991 0.0
C624 C 0.90184 0.38978 0.89691 0.0
C625 C 0.88295 0.39947 0.8899 0.0
C626 C 0.86521 0.40902 0.89813 0.0
C627 C 0.86603 0.40801 0.91305 0.0
H628 H 0.42681 0.13828 0.66849 0.0
H629 H 0.35668 0.11509 0.67234 0.0
H630 H 0.42282 0.13973 0.64289 0.0
H631 H 0.3526 0.11685 0.64636 0.0
H632 H 0.39999 0.172 0.60224 0.0
H633 H 0.40072 0.16619 0.6277 0.0
H634 H 0.36759 0.10044 0.6225 0.0
H635 H 0.36661 0.10638 0.59664 0.0
C636 C 0.41052 0.13335 0.66387 0.0
C637 C 0.39196 0.12686 0.67249 0.0
C638 C 0.40822 0.13428 0.64916 0.0
C639 C 0.38726 0.12884 0.64262 0.0
C640 C 0.36895 0.12117 0.65112 0.0
C641 C 0.37127 0.12021 0.66597 0.0
C642 C 0.39274 0.15629 0.60644 0.0
C643 C 0.38348 0.13952 0.59736 0.0
C644 C 0.39325 0.15293 0.62107 0.0
C645 C 0.3846 0.13267 0.6271 0.0
C646 C 0.37443 0.11621 0.61814 0.0
C647 C 0.37392 0.11958 0.60336 0.0
H648 H 0.66646 0.60421 0.42124 0.0
H649 H 0.64053 0.67321 0.41759 0.0
H650 H 0.66502 0.60024 0.39525 0.0
H651 H 0.63949 0.66942 0.39197 0.0
H652 H 0.61045 0.64714 0.35039 0.0
H653 H 0.61495 0.64752 0.37596 0.0
H654 H 0.6811 0.61521 0.37185 0.0
H655 H 0.67639 0.61446 0.34589 0.0
C656 C 0.66075 0.61858 0.41491 0.0
C657 C 0.65331 0.6389 0.42149 0.0
C658 C 0.65998 0.61633 0.40005 0.0
C659 C 0.65173 0.63437 0.39157 0.0
C660 C 0.64537 0.65498 0.39819 0.0
C661 C 0.64607 0.65718 0.41292 0.0
C662 C 0.62595 0.63999 0.35486 0.0
C663 C 0.64319 0.63102 0.34606 0.0
C664 C 0.62858 0.64031 0.36957 0.0
C665 C 0.64858 0.63181 0.37595 0.0
C666 C 0.6655 0.62192 0.36724 0.0
C667 C 0.66283 0.62154 0.3524 0.0
H668 H 0.17781 0.9184 0.171 0.0
H669 H 0.11142 0.88602 0.16698 0.0
H670 H 0.18214 0.9174 0.14501 0.0
H671 H 0.11553 0.88543 0.14139 0.0
H672 H 0.13978 0.8592 0.09978 0.0
H673 H 0.13954 0.8632 0.12539 0.0
H674 H 0.1659 0.93218 0.12162 0.0
H675 H 0.16659 0.92797 0.09562 0.0
C676 C 0.16408 0.91133 0.16459 0.0
C677 C 0.14443 0.90199 0.17106 0.0
C678 C 0.16653 0.91081 0.14973 0.0
C679 C 0.14937 0.90093 0.14116 0.0
C680 C 0.12935 0.8926 0.14768 0.0
C681 C 0.12696 0.89304 0.16239 0.0
C682 C 0.14568 0.87523 0.10435 0.0
C683 C 0.15291 0.89339 0.09564 0.0
C684 C 0.14544 0.87755 0.11906 0.0
C685 C 0.15223 0.89818 0.12554 0.0
C686 C 0.16052 0.91608 0.11692 0.0
C687 C 0.16086 0.9137 0.10206 0.0
H688 H 0.86398 0.60457 0.09606 0.0
H689 H 0.89547 0.67122 0.1011 0.0
H690 H 0.86499 0.59928 0.12198 0.0
H691 H 0.89624 0.66604 0.12662 0.0
H692 H 0.924 0.63912 0.16732 0.0
H693 H 0.91942 0.64022 0.14175 0.0
H694 H 0.84982 0.61581 0.14588 0.0
H695 H 0.85448 0.61444 0.17185 0.0
C696 C 0.87082 0.61816 0.10267 0.0
C697 C 0.87993 0.63817 0.0965 0.0
C698 C 0.87136 0.61515 0.11748 0.0
C699 C 0.88109 0.63207 0.1263 0.0
C700 C 0.88914 0.65245 0.1201 0.0
C701 C 0.8886 0.65544 0.10544 0.0
C702 C 0.90772 0.63379 0.16285 0.0
C703 C 0.8895 0.62699 0.17166 0.0
C704 C 0.90508 0.63452 0.14816 0.0
C705 C 0.88412 0.62854 0.14182 0.0
C706 C 0.86616 0.62056 0.1505 0.0
C707 C 0.86882 0.61982 0.16533 0.0
H708 H 0.16424 0.10126 0.84592 0.0
H709 H 0.13129 0.16727 0.84874 0.0
H710 H 0.16576 0.09938 0.87201 0.0
H711 H 0.13354 0.16586 0.87437 0.0
H712 H 0.1132 0.14746 0.91806 0.0
H713 H 0.1141 0.14529 0.8924 0.0
H714 H 0.18195 0.11595 0.89408 0.0
H715 H 0.1806 0.11734 0.92018 0.0
C716 C 0.15758 0.11543 0.85209 0.0
C717 C 0.14729 0.13422 0.8453 0.0
C718 C 0.15852 0.11441 0.86701 0.0
C719 C 0.14932 0.13225 0.87531 0.0
C720 C 0.1401 0.15145 0.86838 0.0
C721 C 0.13893 0.15233 0.85363 0.0
C722 C 0.12832 0.14044 0.91301 0.0
C723 C 0.14698 0.13289 0.92114 0.0
C724 C 0.1289 0.13931 0.89825 0.0
C725 C 0.14834 0.13098 0.89112 0.0
C726 C 0.16673 0.1225 0.89924 0.0
C727 C 0.16601 0.12336 0.91416 0.0
H728 H 0.67934 0.41317 0.59524 0.0
H729 H 0.61183 0.38301 0.59797 0.0
H730 H 0.68091 0.4155 0.62131 0.0
H731 H 0.61287 0.3862 0.62359 0.0
H732 H 0.63016 0.36564 0.66746 0.0
H733 H 0.632 0.36633 0.64181 0.0
H734 H 0.66551 0.43247 0.64328 0.0
H735 H 0.66446 0.43125 0.66939 0.0
C736 C 0.66476 0.40738 0.60139 0.0
C737 C 0.64565 0.39752 0.59461 0.0
C738 C 0.6656 0.40877 0.61629 0.0
C739 C 0.64723 0.40055 0.62459 0.0
C740 C 0.62768 0.39196 0.61763 0.0
C741 C 0.62701 0.39025 0.60289 0.0
C742 C 0.63799 0.38035 0.66236 0.0
C743 C 0.64688 0.39855 0.67044 0.0
C744 C 0.63893 0.38083 0.6476 0.0
C745 C 0.64838 0.39973 0.64041 0.0
C746 C 0.65807 0.41766 0.64847 0.0
C747 C 0.65741 0.41702 0.6634 0.0
H748 H 0.35541 0.91861 0.34617 0.0
H749 H 0.42396 0.89182 0.35067 0.0
H750 H 0.35082 0.91772 0.37213 0.0
H751 H 0.4195 0.89123 0.37626 0.0
H752 H 0.39512 0.86268 0.41759 0.0
H753 H 0.39627 0.86698 0.39201 0.0
H754 H 0.36605 0.93417 0.39567 0.0
H755 H 0.3646 0.92974 0.42163 0.0
C756 C 0.36955 0.91283 0.35268 0.0
C757 C 0.38993 0.905 0.34634 0.0
C758 C 0.36695 0.91237 0.36752 0.0
C759 C 0.38465 0.90401 0.37622 0.0
C760 C 0.40533 0.89724 0.36985 0.0
C761 C 0.40791 0.89768 0.35514 0.0
C762 C 0.38858 0.87838 0.41302 0.0
C763 C 0.38001 0.89598 0.4217 0.0
C764 C 0.38934 0.88087 0.39832 0.0
C765 C 0.38165 0.90109 0.39182 0.0
C766 C 0.37213 0.91841 0.40038 0.0
C767 C 0.37136 0.91589 0.41523 0.0
H768 H 0.07636 0.62248 0.0167 0.0
H769 H 0.07388 0.65308 0.0585 0.0
H770 H 0.03456 0.6202 0.0164 0.0
H771 H 0.03234 0.65154 0.058 0.0
H772 H 0.96005 0.62594 0.05998 0.0
H773 H 1.00164 0.62504 0.0594 0.0
H774 H 1.00057 0.64318 0.01491 0.0
H775 H 0.95872 0.64325 0.01538 0.0
C776 C 0.06691 0.62884 0.02578 0.0
C777 C 0.07848 0.63787 0.03765 0.0
C778 C 0.04294 0.62764 0.02558 0.0
C779 C 0.03003 0.63555 0.03721 0.0
C780 C 0.04168 0.6448 0.04898 0.0
C781 C 0.06556 0.64584 0.04923 0.0
C782 C 0.96865 0.62963 0.05004 0.0
C783 C 0.95606 0.63484 0.03775 0.0
C784 C 0.99255 0.62925 0.04973 0.0
C785 C 1.00453 0.63436 0.03716 0.0
C786 C 0.99192 0.63899 0.02475 0.0
C787 C 0.96793 0.63913 0.02503 0.0
H788 H 0.66148 0.70945 0.30737 0.0
H789 H 0.63638 0.70729 0.26423 0.0
H790 H 0.66293 0.75101 0.30638 0.0
H791 H 0.63688 0.74916 0.26341 0.0
H792 H 0.65651 0.82573 0.26385 0.0
H793 H 0.65934 0.78389 0.26325 0.0
H794 H 0.63597 0.78095 0.30678 0.0
H795 H 0.63398 0.82234 0.30753 0.0
C796 C 0.65621 0.71789 0.29767 0.0
C797 C 0.64858 0.7051 0.28594 0.0
C798 C 0.65691 0.74176 0.29712 0.0
C799 C 0.64961 0.75352 0.2849 0.0
C800 C 0.64275 0.7407 0.27296 0.0
C801 C 0.64235 0.7167 0.27345 0.0
C802 C 0.65205 0.81608 0.27328 0.0
C803 C 0.64518 0.82739 0.28576 0.0
C804 C 0.65357 0.7921 0.27292 0.0
C805 C 0.64812 0.779 0.28502 0.0
C806 C 0.64091 0.79042 0.29738 0.0
C807 C 0.63959 0.81425 0.29777 0.0
H808 H 0.45712 0.42046 0.55161 0.0
H809 H 0.45633 0.38858 0.51019 0.0
H810 H 0.49871 0.42155 0.5511 0.0
H811 H 0.49826 0.38875 0.50991 0.0
H812 H 0.57545 0.40633 0.51087 0.0
H813 H 0.53376 0.41041 0.50916 0.0
H814 H 0.5276 0.39367 0.55372 0.0
H815 H 0.56876 0.3904 0.5555 0.0
C816 C 0.46588 0.41368 0.54238 0.0
C817 C 0.45347 0.40417 0.53102 0.0
C818 C 0.48975 0.41418 0.54211 0.0
C819 C 0.5019 0.40478 0.5306 0.0
C820 C 0.48948 0.39621 0.51892 0.0
C821 C 0.46546 0.39602 0.5191 0.0
C822 C 0.56512 0.40363 0.52028 0.0
C823 C 0.57547 0.39821 0.53334 0.0
C824 C 0.54124 0.40588 0.5193 0.0
C825 C 0.5273 0.40265 0.53134 0.0
C826 C 0.53776 0.39692 0.5443 0.0
C827 C 0.56146 0.39486 0.5453 0.0
H828 H 0.89455 0.32445 0.76219 0.0
H829 H 0.86501 0.32341 0.80427 0.0
H830 H 0.89438 0.28253 0.76181 0.0
H831 H 0.86414 0.28181 0.80372 0.0
H832 H 0.87514 0.20572 0.76277 0.0
H833 H 0.87162 0.24744 0.76149 0.0
H834 H 0.89253 0.25264 0.80541 0.0
H835 H 0.89541 0.21129 0.8068 0.0
C836 C 0.88763 0.31529 0.77124 0.0
C837 C 0.8801 0.32722 0.78334 0.0
C838 C 0.88747 0.29128 0.77101 0.0
C839 C 0.87961 0.27879 0.78284 0.0
C840 C 0.87091 0.29085 0.79459 0.0
C841 C 0.87128 0.31473 0.79487 0.0
C842 C 0.87893 0.21581 0.77214 0.0
C843 C 0.88544 0.20514 0.78491 0.0
C844 C 0.87701 0.23971 0.77139 0.0
C845 C 0.88157 0.25339 0.78339 0.0
C846 C 0.88834 0.24265 0.79606 0.0
C847 C 0.89016 0.21887 0.79683 0.0
H848 H 0.96022 0.41498 0.95841 0.0
H849 H 0.95931 0.38933 1.00144 0.0
H850 H 1.00183 0.41544 0.95875 0.0
H851 H 1.0012 0.38907 1.00163 0.0
H852 H 0.07777 0.408 1.00018 0.0
H853 H 0.0361 0.41164 1.00123 0.0
H854 H 0.03126 0.38731 0.95795 0.0
H855 H 0.07267 0.38433 0.95677 0.0
C856 C 0.96893 0.40946 0.96797 0.0
C857 C 0.95646 0.4019 0.97985 0.0
C858 C 0.99282 0.40959 0.96814 0.0
C859 C 1.0049 0.40191 0.98013 0.0
C860 C 0.99245 0.3952 0.99224 0.0
C861 C 0.96844 0.39528 0.99212 0.0
C862 C 0.06778 0.40348 0.99089 0.0
C863 C 0.07858 0.39597 0.97837 0.0
C864 C 0.04389 0.40547 0.99151 0.0
C865 C 0.03031 0.39994 0.97964 0.0
C866 C 0.04117 0.39222 0.9672 0.0
C867 C 0.06497 0.39035 0.96655 0.0
H868 H 0.90591 0.82258 0.20827 0.0
H869 H 0.8716 0.8255 0.2489 0.0
H870 H 0.90499 0.78104 0.20905 0.0
H871 H 0.86983 0.78369 0.24945 0.0
H872 H 0.88036 0.70832 0.20665 0.0
H873 H 0.87953 0.74993 0.20681 0.0
H874 H 0.89231 0.74992 0.25204 0.0
H875 H 0.89217 0.7081 0.25194 0.0
C876 C 0.89797 0.81434 0.21733 0.0
C877 C 0.88878 0.82738 0.22851 0.0
C878 C 0.89729 0.79045 0.21774 0.0
C879 C 0.88712 0.77891 0.22925 0.0
C880 C 0.87801 0.79196 0.24048 0.0
C881 C 0.87892 0.81594 0.24015 0.0
C882 C 0.88291 0.71718 0.21665 0.0
C883 C 0.88647 0.70489 0.22927 0.0
C884 C 0.88259 0.74109 0.21673 0.0
C885 C 0.88614 0.75339 0.22941 0.0
C886 C 0.88929 0.74106 0.2421 0.0
C887 C 0.88933 0.71707 0.24204 0.0
H888 H 0.46172 0.65408 0.45878 0.0
H889 H 0.45698 0.62619 0.50117 0.0
H890 H 0.5031 0.65195 0.45987 0.0
H891 H 0.49878 0.62317 0.50208 0.0
H892 H 0.57564 0.64416 0.5031 0.0
H893 H 0.53376 0.64479 0.50341 0.0
H894 H 0.5328 0.62495 0.45915 0.0
H895 H 0.57439 0.62533 0.45872 0.0
C896 C 0.46952 0.64727 0.46832 0.0
C897 C 0.45601 0.64019 0.47987 0.0
C898 C 0.49334 0.64588 0.46891 0.0
C899 C 0.50437 0.63707 0.48099 0.0
C900 C 0.49089 0.63019 0.49264 0.0
C901 C 0.46693 0.63183 0.49211 0.0
C902 C 0.56642 0.63983 0.49347 0.0
C903 C 0.57831 0.63499 0.48084 0.0
C904 C 0.54241 0.64008 0.49366 0.0
C905 C 0.52983 0.63524 0.48125 0.0
C906 C 0.54185 0.62942 0.46881 0.0
C907 C 0.56575 0.6295 0.46857 0.0
H908 H 0.65813 0.20593 0.75104 0.0
H909 H 0.63505 0.21089 0.70754 0.0
H910 H 0.66156 0.2477 0.75215 0.0
H911 H 0.63773 0.25226 0.70878 0.0
H912 H 0.66442 0.32361 0.70914 0.0
H913 H 0.66539 0.28201 0.70956 0.0
H914 H 0.63914 0.28246 0.7525 0.0
H915 H 0.63902 0.32434 0.75223 0.0
C916 C 0.65369 0.21591 0.74176 0.0
C917 C 0.64645 0.20505 0.72918 0.0
C918 C 0.65556 0.23984 0.74241 0.0
C919 C 0.65014 0.25337 0.73052 0.0
C920 C 0.64262 0.24242 0.71804 0.0
C921 C 0.64091 0.21862 0.71736 0.0
C922 C 0.65903 0.31486 0.71872 0.0
C923 C 0.65141 0.32727 0.7306 0.0
C924 C 0.65945 0.29097 0.71894 0.0
C925 C 0.65194 0.27882 0.73098 0.0
C926 C 0.64516 0.29125 0.74308 0.0
C927 C 0.64499 0.31525 0.74291 0.0
H928 H 0.36577 0.32032 0.70893 0.0
H929 H 0.39395 0.32392 0.75131 0.0
H930 H 0.36558 0.27876 0.71019 0.0
H931 H 0.39438 0.28205 0.75243 0.0
H932 H 0.39773 0.20837 0.70892 0.0
H933 H 0.39451 0.24979 0.70946 0.0
H934 H 0.37172 0.24682 0.75309 0.0
H935 H 0.3755 0.20511 0.75268 0.0
C936 C 0.37187 0.31223 0.71855 0.0
C937 C 0.38011 0.32543 0.72996 0.0
C938 C 0.3719 0.28836 0.71924 0.0
C939 C 0.38038 0.27704 0.7313 0.0
C940 C 0.38766 0.29023 0.743 0.0
C941 C 0.38747 0.31422 0.74235 0.0
C942 C 0.39202 0.21647 0.71865 0.0
C943 C 0.38682 0.20336 0.73075 0.0
C944 C 0.39001 0.24027 0.71893 0.0
C945 C 0.38261 0.25165 0.73127 0.0
C946 C 0.3776 0.2386 0.74344 0.0
C947 C 0.37968 0.2147 0.74318 0.0
H948 H 0.13602 0.71251 0.208 0.0
H949 H 0.15591 0.70763 0.25212 0.0
H950 H 0.13818 0.7539 0.20937 0.0
H951 H 0.1588 0.74944 0.25337 0.0
H952 H 0.16414 0.82537 0.21047 0.0
H953 H 0.16559 0.78381 0.211 0.0
H954 H 0.13591 0.78404 0.25306 0.0
H955 H 0.13528 0.82597 0.25272 0.0
C956 C 0.14108 0.72026 0.21799 0.0
C957 C 0.14586 0.7067 0.22994 0.0
C958 C 0.14248 0.74408 0.21874 0.0
C959 C 0.14894 0.75506 0.23143 0.0
C960 C 0.15363 0.74155 0.24345 0.0
C961 C 0.15207 0.71759 0.24272 0.0
C962 C 0.15808 0.81659 0.21989 0.0
C963 C 0.14934 0.82894 0.23149 0.0
C964 C 0.15878 0.79272 0.22016 0.0
C965 C 0.15045 0.78052 0.23196 0.0
C966 C 0.14256 0.79289 0.24383 0.0
C967 C 0.14211 0.8169 0.24362 0.0
H968 H 0.16625 0.20943 0.80548 0.0
H969 H 0.13817 0.2073 0.76304 0.0
H970 H 0.16715 0.25101 0.80459 0.0
H971 H 0.13835 0.24919 0.76231 0.0
H972 H 0.15772 0.32593 0.76273 0.0
H973 H 0.16111 0.28417 0.76191 0.0
H974 H 0.13896 0.28037 0.80565 0.0
H975 H 0.13622 0.32177 0.8066 0.0
C976 C 0.1603 0.21786 0.79593 0.0
C977 C 0.1519 0.20507 0.78439 0.0
C978 C 0.16069 0.24173 0.79545 0.0
C979 C 0.15241 0.25349 0.78348 0.0
C980 C 0.14493 0.24069 0.77167 0.0
C981 C 0.14476 0.21669 0.7721 0.0
C982 C 0.15362 0.31613 0.77217 0.0
C983 C 0.14681 0.32722 0.78475 0.0
C984 C 0.15548 0.29221 0.77168 0.0
C985 C 0.15052 0.27891 0.78376 0.0
C986 C 0.14345 0.29006 0.79625 0.0
C987 C 0.14171 0.31387 0.79676 0.0
H988 H 0.4062 0.70995 0.30811 0.0
H989 H 0.37141 0.70774 0.26762 0.0
H990 H 0.4053 0.75153 0.30768 0.0
H991 H 0.36966 0.74952 0.26743 0.0
H992 H 0.39201 0.8252 0.26528 0.0
H993 H 0.3922 0.78338 0.26493 0.0
H994 H 0.38 0.78256 0.31023 0.0
H995 H 0.38076 0.82417 0.31063 0.0
C996 C 0.39816 0.71835 0.29916 0.0
C997 C 0.38884 0.7055 0.28792 0.0
C998 C 0.39749 0.74225 0.29895 0.0
C999 C 0.38723 0.75398 0.28757 0.0
C1000 C 0.37794 0.74112 0.27629 0.0
C1001 C 0.37884 0.71714 0.27643 0.0
C1002 C 0.3893 0.81604 0.27514 0.0
C1003 C 0.38657 0.82801 0.28799 0.0
C1004 C 0.38929 0.79205 0.27494 0.0
C1005 C 0.38631 0.7795 0.28757 0.0
C1006 C 0.38291 0.79157 0.30034 0.0
C1007 C 0.3832 0.81549 0.30056 0.0
H1008 H 0.46323 0.15112 0.55834 0.0
H1009 H 0.45715 0.12631 0.51523 0.0
H1010 H 0.50454 0.14861 0.55678 0.0
H1011 H 0.4989 0.12295 0.51382 0.0
H1012 H 0.57591 0.1443 0.51283 0.0
H1013 H 0.53401 0.14475 0.51285 0.0
H1014 H 0.53394 0.12107 0.55634 0.0
H1015 H 0.57553 0.12157 0.55647 0.0
C1016 C 0.47072 0.1449 0.54854 0.0
C1017 C 0.45685 0.1388 0.53693 0.0
C1018 C 0.49449 0.14329 0.54768 0.0
C1019 C 0.50513 0.13526 0.53524 0.0
C1020 C 0.4913 0.12934 0.52353 0.0
C1021 C 0.46738 0.13117 0.52435 0.0
C1022 C 0.56687 0.13905 0.52234 0.0
C1023 C 0.57901 0.13321 0.53471 0.0
C1024 C 0.54286 0.13921 0.52234 0.0
C1025 C 0.53055 0.13329 0.53467 0.0
C1026 C 0.54281 0.12638 0.54678 0.0
C1027 C 0.5667 0.12653 0.54684 0.0
H1028 H 0.95987 0.87999 0.05771 0.0
H1029 H 0.95674 0.90859 0.01543 0.0
H1030 H 1.0014 0.88159 0.05695 0.0
H1031 H 0.99854 0.9109 0.01485 0.0
H1032 H 0.07341 0.90768 0.05828 0.0
H1033 H 0.03183 0.90856 0.05775 0.0
H1034 H 0.03273 0.88782 0.01366 0.0
H1035 H 0.07462 0.88773 0.01408 0.0
C1036 C 0.96804 0.88681 0.04828 0.0
C1037 C 0.95494 0.89422 0.03665 0.0
C1038 C 0.99191 0.88787 0.04788 0.0
C1039 C 1.00338 0.89659 0.03589 0.0
C1040 C 0.9903 0.9039 0.0242 0.0
C1041 C 0.96633 0.90268 0.02456 0.0
C1042 C 0.06478 0.90342 0.04844 0.0
C1043 C 0.07733 0.89744 0.03625 0.0
C1044 C 0.04089 0.90379 0.04815 0.0
C1045 C 0.02886 0.8979 0.03572 0.0
C1046 C 0.04142 0.89258 0.02339 0.0
C1047 C 0.06543 0.89244 0.02364 0.0
H1048 H 0.45845 0.90928 0.4591 0.0
H1049 H 0.4572 0.88977 0.50333 0.0
H1050 H 0.50004 0.90955 0.4595 0.0
H1051 H 0.49907 0.88905 0.50361 0.0
H1052 H 0.57587 0.90756 0.50148 0.0
H1053 H 0.53408 0.91066 0.50242 0.0
H1054 H 0.52969 0.88245 0.46002 0.0
H1055 H 0.57108 0.88023 0.45891 0.0
C1056 C 0.46709 0.90495 0.46891 0.0
C1057 C 0.45453 0.89929 0.48115 0.0
C1058 C 0.49099 0.90495 0.46913 0.0
C1059 C 0.503 0.89893 0.48152 0.0
C1060 C 0.49043 0.89392 0.49391 0.0
C1061 C 0.46642 0.89422 0.49374 0.0
C1062 C 0.56591 0.90206 0.49238 0.0
C1063 C 0.57681 0.89383 0.48008 0.0
C1064 C 0.54196 0.90374 0.49293 0.0
C1065 C 0.52846 0.89704 0.48124 0.0
C1066 C 0.53947 0.88837 0.46909 0.0
C1067 C 0.56329 0.88694 0.46849 0.0
H1068 H 0.07307 0.11409 0.96129 0.0
H1069 H 0.07417 0.14435 1.00319 0.0
H1070 H 0.03147 0.11376 0.96168 0.0
H1071 H 0.03224 0.14466 1.00342 0.0
H1072 H 0.95533 0.12583 1.00231 0.0
H1073 H 0.99698 0.12201 1.00371 0.0
H1074 H 1.00259 0.14258 0.95976 0.0
H1075 H 0.96123 0.14581 0.95826 0.0
C1076 C 0.06441 0.12062 0.97063 0.0
C1077 C 0.07692 0.1295 0.98215 0.0
C1078 C 0.04053 0.12056 0.97081 0.0
C1079 C 0.02849 0.1296 0.98246 0.0
C1080 C 0.04098 0.1375 0.9943 0.0
C1081 C 0.065 0.13738 0.99416 0.0
C1082 C 0.96549 0.12949 0.99295 0.0
C1083 C 0.95491 0.13603 0.98015 0.0
C1084 C 0.98935 0.12739 0.99377 0.0
C1085 C 1.00312 0.13179 0.98182 0.0
C1086 C 0.9925 0.13855 0.9691 0.0
C1087 C 0.96873 0.14057 0.96826 0.0
H1088 H 0.16346 0.45255 0.02134 0.0
H1089 H 0.1845 0.46562 0.97813 0.0
H1090 H 0.16732 0.49303 0.02686 0.0
H1091 H 0.18931 0.5062 0.98378 0.0
H1092 H 0.16141 0.57854 0.99346 0.0
H1093 H 0.16584 0.53815 0.98791 0.0
H1094 H 0.19016 0.52573 0.03057 0.0
H1095 H 0.18479 0.56618 0.03626 0.0
C1096 C 0.16945 0.46399 0.01308 0.0
C1097 C 0.17349 0.45578 0.99925 0.0
C1098 C 0.17181 0.48733 0.01627 0.0
C1099 C 0.17846 0.50316 1.00576 0.0
C1100 C 0.18367 0.4947 0.9921 0.0
C1101 C 0.18112 0.47135 0.98888 0.0
C1102 C 0.16802 0.56729 1.00162 0.0
C1103 C 0.17257 0.57565 0.01535 0.0
C1104 C 0.17071 0.54401 0.9984 0.0
C1105 C 0.17822 0.5284 0.00879 0.0
C1106 C 0.18388 0.53704 0.02234 0.0
C1107 C 0.181 0.56033 0.0256 0.0
H1108 H 0.81161 0.91294 0.22703 0.0
H1109 H 0.83115 0.93082 0.26982 0.0
H1110 H 0.77145 0.91654 0.2334 0.0
H1111 H 0.79099 0.93599 0.27609 0.0
H1112 H 0.71847 0.9122 0.28776 0.0
H1113 H 0.75867 0.91554 0.28144 0.0
H1114 H 0.73949 0.93714 0.23914 0.0
H1115 H 0.69923 0.93223 0.24534 0.0
C1116 C 0.80731 0.9183 0.23772 0.0
C1117 C 0.8246 0.92146 0.24793 0.0
C1118 C 0.78415 0.9205 0.24142 0.0
C1119 C 0.77757 0.92639 0.25537 0.0
C1120 C 0.79508 0.9308 0.26535 0.0
C1121 C 0.81823 0.9281 0.26173 0.0
C1122 C 0.72285 0.91798 0.27718 0.0
C1123 C 0.70562 0.92182 0.26705 0.0
C1124 C 0.74605 0.92003 0.27351 0.0
C1125 C 0.75273 0.92645 0.25967 0.0
C1126 C 0.7353 0.93154 0.24978 0.0
C1127 C 0.7121 0.92899 0.25338 0.0
H1128 H 0.36923 0.47235 0.53577 0.0
H1129 H 0.34798 0.45426 0.49332 0.0
H1130 H 0.36594 0.51273 0.52993 0.0
H1131 H 0.34327 0.49469 0.48761 0.0
H1132 H 0.36891 0.56688 0.47623 0.0
H1133 H 0.36477 0.52658 0.48217 0.0
H1134 H 0.34517 0.54515 0.52497 0.0
H1135 H 0.35074 0.58546 0.51913 0.0
C1136 C 0.3632 0.47701 0.52529 0.0
C1137 C 0.359 0.46005 0.515 0.0
C1138 C 0.36119 0.5003 0.52191 0.0
C1139 C 0.35452 0.50733 0.50819 0.0
C1140 C 0.34906 0.49019 0.49816 0.0
C1141 C 0.3515 0.4669 0.50147 0.0
C1142 C 0.36339 0.56236 0.48685 0.0
C1143 C 0.3603 0.57941 0.49722 0.0
C1144 C 0.36088 0.53912 0.49029 0.0
C1145 C 0.3548 0.53225 0.50415 0.0
C1146 C 0.35047 0.54951 0.51429 0.0
C1147 C 0.35341 0.57273 0.51091 0.0
H1148 H 0.81203 0.11899 0.78764 0.0
H1149 H 0.83168 0.09947 0.74516 0.0
H1150 H 0.77189 0.11533 0.78122 0.0
H1151 H 0.7915 0.09428 0.73885 0.0
H1152 H 0.71948 0.11886 0.72675 0.0
H1153 H 0.75959 0.11511 0.73319 0.0
H1154 H 0.73974 0.09461 0.77561 0.0
H1155 H 0.69962 0.09988 0.76928 0.0
C1156 C 0.80776 0.11324 0.77702 0.0
C1157 C 0.82507 0.10965 0.7669 0.0
C1158 C 0.78461 0.11101 0.7733 0.0
C1159 C 0.77807 0.10469 0.7594 0.0
C1160 C 0.79559 0.09981 0.74953 0.0
C1161 C 0.81874 0.10252 0.75318 0.0
C1162 C 0.72369 0.11322 0.73739 0.0
C1163 C 0.70634 0.1098 0.74752 0.0
C1164 C 0.74683 0.11094 0.74112 0.0
C1165 C 0.75328 0.10473 0.75503 0.0
C1166 C 0.73571 0.10004 0.76491 0.0
C1167 C 0.7126 0.1028 0.76125 0.0
H1168 H 0.85017 0.56668 0.03721 0.0
H1169 H 0.87317 0.5798 0.9944 0.0
H1170 H 0.84506 0.52622 0.03138 0.0
H1171 H 0.86911 0.53941 0.98872 0.0
H1172 H 0.8716 0.45339 0.02198 0.0
H1173 H 0.86763 0.49379 0.02759 0.0
H1174 H 0.84634 0.50714 0.98441 0.0
H1175 H 0.85138 0.46667 0.97867 0.0
C1176 C 0.85396 0.56098 0.02652 0.0
C1177 C 0.86216 0.57653 0.0163 0.0
C1178 C 0.85123 0.53768 0.02318 0.0
C1179 C 0.8569 0.52926 0.00958 0.0
C1180 C 0.86423 0.54508 0.99924 0.0
C1181 C 0.8667 0.56837 1.00253 0.0
C1182 C 0.86574 0.46486 0.01371 0.0
C1183 C 0.86198 0.45675 0.99984 0.0
C1184 C 0.86333 0.48815 0.01696 0.0
C1185 C 0.85683 0.50403 1.00646 0.0
C1186 C 0.85188 0.49564 0.99274 0.0
C1187 C 0.85456 0.47234 0.98945 0.0
H1188 H 0.20316 0.11804 0.74457 0.0
H1189 H 0.21493 0.09979 0.78838 0.0
H1190 H 0.24374 0.11375 0.73959 0.0
H1191 H 0.25556 0.09442 0.78329 0.0
H1192 H 0.32847 0.12105 0.77394 0.0
H1193 H 0.28792 0.11703 0.7791 0.0
H1194 H 0.27635 0.09112 0.73664 0.0
H1195 H 0.31699 0.0962 0.73131 0.0
C1196 C 0.21434 0.11254 0.75309 0.0
C1197 C 0.20575 0.10944 0.76691 0.0
C1198 C 0.23773 0.10994 0.7502 0.0
C1199 C 0.25323 0.10391 0.76103 0.0
C1200 C 0.24436 0.09959 0.77471 0.0
C1201 C 0.22097 0.10246 0.77763 0.0
C1202 C 0.31736 0.11417 0.76575 0.0
C1203 C 0.32603 0.10911 0.75217 0.0
C1204 C 0.29398 0.11172 0.76874 0.0
C1205 C 0.27856 0.1039 0.75828 0.0
C1206 C 0.28749 0.09768 0.74491 0.0
C1207 C 0.31089 0.10038 0.74187 0.0
H1208 H 0.66132 0.46772 0.53878 0.0
H1209 H 0.68331 0.44901 0.49659 0.0
H1210 H 0.66517 0.508 0.53277 0.0
H1211 H 0.68859 0.48935 0.49073 0.0
H1212 H 0.66389 0.56149 0.47882 0.0
H1213 H 0.66755 0.52125 0.48496 0.0
H1214 H 0.68636 0.54026 0.52785 0.0
H1215 H 0.68125 0.5805 0.52179 0.0
C1216 C 0.66764 0.47222 0.52832 0.0
C1217 C 0.67187 0.45512 0.51815 0.0
C1218 C 0.66997 0.49545 0.52485 0.0
C1219 C 0.67702 0.50228 0.51116 0.0
C1220 C 0.68253 0.485 0.50125 0.0
C1221 C 0.67976 0.46177 0.50466 0.0
C1222 C 0.66914 0.55707 0.4895 0.0
C1223 C 0.67213 0.57422 0.49983 0.0
C1224 C 0.67137 0.53387 0.49306 0.0
C1225 C 0.67707 0.52715 0.507 0.0
C1226 C 0.68133 0.54451 0.51711 0.0
C1227 C 0.67865 0.56769 0.51361 0.0
H1228 H 0.21842 0.91243 0.22822 0.0
H1229 H 0.19966 0.93419 0.27043 0.0
H1230 H 0.2587 0.91546 0.23443 0.0
H1231 H 0.24001 0.93873 0.27651 0.0
H1232 H 0.31178 0.91371 0.28874 0.0
H1233 H 0.27164 0.91764 0.28239 0.0
H1234 H 0.29128 0.9358 0.23953 0.0
H1235 H 0.3314 0.93033 0.24579 0.0
C1236 C 0.22293 0.91852 0.23873 0.0
C1237 C 0.2058 0.92295 0.24884 0.0
C1238 C 0.24617 0.92038 0.24233 0.0
C1239 C 0.25299 0.92717 0.25609 0.0
C1240 C 0.23569 0.93284 0.26594 0.0
C1241 C 0.21244 0.9305 0.26241 0.0
C1242 C 0.30752 0.91885 0.27801 0.0
C1243 C 0.32481 0.92157 0.26776 0.0
C1244 C 0.28437 0.92124 0.27433 0.0
C1245 C 0.27784 0.92688 0.26034 0.0
C1246 C 0.29536 0.93082 0.2503 0.0
C1247 C 0.31848 0.92794 0.25392 0.0
H1248 H 0.66366 0.06154 0.53681 0.0
H1249 H 0.68261 0.08014 0.49406 0.0
H1250 H 0.66704 0.02124 0.53073 0.0
H1251 H 0.6875 0.03981 0.48808 0.0
H1252 H 0.66268 0.96734 0.47679 0.0
H1253 H 0.6665 1.00764 0.48284 0.0
H1254 H 0.6877 0.98906 0.52532 0.0
H1255 H 0.68239 0.94874 0.51939 0.0
C1256 C 0.66921 0.05701 0.5262 0.0
C1257 C 0.67274 0.07408 0.51591 0.0
C1258 C 0.67127 0.03377 0.52267 0.0
C1259 C 0.67737 0.02689 0.50881 0.0
C1260 C 0.68216 0.04416 0.49875 0.0
C1261 C 0.67961 0.0674 0.50221 0.0
C1262 C 0.66849 0.97187 0.48736 0.0
C1263 C 0.6721 0.9548 0.49762 0.0
C1264 C 0.6708 0.99512 0.49086 0.0
C1265 C 0.67724 1.00199 0.50467 0.0
C1266 C 0.68211 0.98471 0.51469 0.0
C1267 C 0.67932 0.96148 0.51125 0.0
H1268 H 0.20046 0.43109 0.74355 0.0
H1269 H 0.22048 0.41414 0.78636 0.0
H1270 H 0.24057 0.43604 0.73702 0.0
H1271 H 0.26058 0.41762 0.77975 0.0
H1272 H 0.33271 0.43281 0.76717 0.0
H1273 H 0.29262 0.43828 0.77353 0.0
H1274 H 0.27244 0.41471 0.73176 0.0
H1275 H 0.31248 0.41068 0.72526 0.0
C1276 C 0.21346 0.42856 0.7516 0.0
C1277 C 0.20725 0.42219 0.76547 0.0
C1278 C 0.23657 0.43114 0.74783 0.0
C1279 C 0.25418 0.42691 0.75774 0.0
C1280 C 0.24778 0.42139 0.77178 0.0
C1281 C 0.22465 0.41928 0.77561 0.0
C1282 C 0.31967 0.42925 0.75927 0.0
C1283 C 0.32583 0.42129 0.74571 0.0
C1284 C 0.29657 0.43214 0.76297 0.0
C1285 C 0.27893 0.42667 0.75329 0.0
C1286 C 0.28527 0.4195 0.73952 0.0
C1287 C 0.30837 0.41706 0.73576 0.0
H1288 H 0.87153 0.95364 0.99343 0.0
H1289 H 0.84841 0.96557 0.03636 0.0
H1290 H 0.86712 0.99409 0.98812 0.0
H1291 H 0.84302 1.00608 0.0309 0.0
H1292 H 0.86963 0.07935 0.0221 0.0
H1293 H 0.86573 0.03881 0.02737 0.0
H1294 H 0.84387 0.02614 0.98419 0.0
H1295 H 0.84876 0.06677 0.97879 0.0
C1296 C 0.86497 0.96482 1.00167 0.0
C1297 C 0.86049 0.95632 0.01537 0.0
C1298 C 0.8623 0.98813 0.99859 0.0
C1299 C 0.85486 1.00364 0.00909 0.0
C1300 C 0.84926 0.99486 0.0226 0.0
C1301 C 0.85214 0.97154 0.02572 0.0
C1302 C 0.86365 0.068 0.01377 0.0
C1303 C 0.85968 0.07636 0.99998 0.0
C1304 C 0.86128 0.04463 0.01682 0.0
C1305 C 0.85465 0.02892 1.0062 0.0
C1306 C 0.84949 0.03753 0.99259 0.0
C1307 C 0.85209 0.06092 0.9895 0.0
H1308 H 0.31569 0.59921 0.28617 0.0
H1309 H 0.3281 0.62366 0.24359 0.0
H1310 H 0.27516 0.59409 0.28051 0.0
H1311 H 0.28766 0.61951 0.23809 0.0
H1312 H 0.21494 0.60135 0.22826 0.0
H1313 H 0.25549 0.59636 0.23375 0.0
H1314 H 0.24261 0.61694 0.27714 0.0
H1315 H 0.20213 0.62094 0.27177 0.0
C1316 C 0.30982 0.6033 0.27556 0.0
C1317 C 0.32519 0.61194 0.26537 0.0
C1318 C 0.28649 0.60056 0.27233 0.0
C1319 C 0.27786 0.6066 0.25886 0.0
C1320 C 0.29351 0.61435 0.24852 0.0
C1321 C 0.31682 0.61688 0.25171 0.0
C1322 C 0.22072 0.60438 0.23904 0.0
C1323 C 0.20524 0.61164 0.24955 0.0
C1324 C 0.24407 0.60173 0.24218 0.0
C1325 C 0.2526 0.60649 0.25588 0.0
C1326 C 0.23685 0.6128 0.26651 0.0
C1327 C 0.21351 0.61523 0.26341 0.0
H1328 H 0.37084 0.06591 0.54042 0.0
H1329 H 0.35074 0.08536 0.49803 0.0
H1330 H 0.36716 0.02574 0.53404 0.0
H1331 H 0.34558 0.04514 0.49178 0.0
H1332 H 0.36984 0.97299 0.47962 0.0
H1333 H 0.36635 1.01315 0.48604 0.0
H1334 H 0.34625 0.9936 0.52859 0.0
H1335 H 0.35125 0.95343 0.52227 0.0
C1336 C 0.36497 0.06159 0.52983 0.0
C1337 C 0.36121 0.07887 0.51972 0.0
C1338 C 0.36274 0.03842 0.52614 0.0
C1339 C 0.35624 0.03182 0.51228 0.0
C1340 C 0.35122 0.04928 0.50243 0.0
C1341 C 0.35392 0.07245 0.50605 0.0
C1342 C 0.36436 0.97728 0.49029 0.0
C1343 C 0.36096 0.95998 0.50045 0.0
C1344 C 0.36222 1.00044 0.49401 0.0
C1345 C 0.35619 1.007 0.50795 0.0
C1346 C 0.35155 0.9895 0.51787 0.0
C1347 C 0.35416 0.96635 0.51422 0.0
H1348 H 0.71483 0.60041 0.28814 0.0
H1349 H 0.70234 0.61994 0.24461 0.0
H1350 H 0.75546 0.59564 0.28279 0.0
H1351 H 0.74289 0.61619 0.23939 0.0
H1352 H 0.81614 0.59898 0.23058 0.0
H1353 H 0.77559 0.59365 0.23606 0.0
H1354 H 0.78756 0.61884 0.27864 0.0
H1355 H 0.82804 0.62316 0.27331 0.0
C1356 C 0.7207 0.60348 0.27739 0.0
C1357 C 0.70528 0.61065 0.26683 0.0
C1358 C 0.74409 0.60096 0.27433 0.0
C1359 C 0.75274 0.60578 0.26067 0.0
C1360 C 0.73705 0.612 0.24999 0.0
C1361 C 0.71367 0.61429 0.25301 0.0
C1362 C 0.81015 0.60298 0.24118 0.0
C1363 C 0.82538 0.61159 0.25147 0.0
C1364 C 0.78681 0.60012 0.24431 0.0
C1365 C 0.77802 0.60603 0.25778 0.0
C1366 C 0.79353 0.61377 0.26821 0.0
C1367 C 0.81686 0.6164 0.26512 0.0
H1368 H 0.16317 0.96883 0.03831 0.0
H1369 H 0.18092 0.94945 0.99548 0.0
H1370 H 0.16687 1.00903 0.032 0.0
H1371 H 0.18607 0.98966 0.98926 0.0
H1372 H 0.16139 0.06198 0.97792 0.0
H1373 H 0.165 0.02178 0.98412 0.0
H1374 H 0.18799 0.04099 0.02618 0.0
H1375 H 0.18295 0.08125 0.02011 0.0
C1376 C 0.16851 0.97316 0.02762 0.0
C1377 C 0.17161 0.95591 0.01739 0.0
C1378 C 0.17076 0.99634 0.02397 0.0
C1379 C 0.1766 1.00295 0.01002 0.0
C1380 C 0.18095 0.9855 1.00001 0.0
C1381 C 0.17824 0.96234 1.0036 0.0
C1382 C 0.16755 0.05762 0.98842 0.0
C1383 C 0.17174 0.07485 0.99854 0.0
C1384 C 0.16974 0.03443 0.99201 0.0
C1385 C 0.17662 0.02778 1.00576 0.0
C1386 C 0.18206 0.04519 0.01561 0.0
C1387 C 0.17942 0.06838 0.0121 0.0
H1388 H 0.8293 0.41291 0.74307 0.0
H1389 H 0.81734 0.43294 0.78659 0.0
H1390 H 0.78877 0.417 0.73796 0.0
H1391 H 0.77675 0.43819 0.78134 0.0
H1392 H 0.70371 0.41172 0.77227 0.0
H1393 H 0.74423 0.41588 0.77747 0.0
H1394 H 0.75624 0.43923 0.73453 0.0
H1395 H 0.71566 0.43391 0.72918 0.0
C1396 C 0.81809 0.41877 0.75149 0.0
C1397 C 0.82661 0.42242 0.76528 0.0
C1398 C 0.79472 0.42126 0.74853 0.0
C1399 C 0.77916 0.42776 0.75924 0.0
C1400 C 0.78797 0.43263 0.77287 0.0
C1401 C 0.81135 0.42984 0.77587 0.0
C1402 C 0.71491 0.41807 0.76398 0.0
C1403 C 0.70639 0.42231 0.75027 0.0
C1404 C 0.73828 0.4206 0.76699 0.0
C1405 C 0.75383 0.42773 0.75642 0.0
C1406 C 0.74502 0.43319 0.74289 0.0
C1407 C 0.72165 0.43035 0.73983 0.0
H1408 H 0.17726 0.8269 0.01058 0.0
H1409 H 0.17467 0.81912 0.05617 0.0
H1410 H 0.18429 0.7857 0.0081 0.0
H1411 H 0.18072 0.77844 0.05374 0.0
H1412 H 0.19912 0.70678 0.04967 0.0
H1413 H 0.20481 0.74808 0.04845 0.0
H1414 H 0.16389 0.75042 0.0102 0.0
H1415 H 0.15941 0.7088 0.01107 0.0
C1416 C 0.17852 0.81652 0.02007 0.0
C1417 C 0.17528 0.82641 0.03357 0.0
C1418 C 0.18234 0.79283 0.01865 0.0
C1419 C 0.18305 0.77849 0.0307 0.0
C1420 C 0.18076 0.78872 0.04418 0.0
C1421 C 0.17705 0.81223 0.04558 0.0
C1422 C 0.19196 0.71606 0.04076 0.0
C1423 C 0.17872 0.70456 0.03052 0.0
C1424 C 0.19496 0.73983 0.04013 0.0
C1425 C 0.18425 0.75288 0.02946 0.0
C1426 C 0.17248 0.7411 0.01858 0.0
C1427 C 0.16989 0.71716 0.01905 0.0
H1428 H 0.57574 0.92761 0.26059 0.0
H1429 H 0.56959 0.92644 0.3063 0.0
H1430 H 0.53444 0.9344 0.25866 0.0
H1431 H 0.52886 0.93194 0.30443 0.0
H1432 H 0.45645 0.94779 0.30146 0.0
H1433 H 0.4976 0.95426 0.29983 0.0
H1434 H 0.49952 0.91458 0.26101 0.0
H1435 H 0.45802 0.90962 0.26224 0.0
C1436 C 0.5657 0.92913 0.27022 0.0
C1437 C 0.57609 0.92633 0.28359 0.0
C1438 C 0.54192 0.93278 0.26912 0.0
C1439 C 0.52798 0.93364 0.28137 0.0
C1440 C 0.53874 0.93188 0.29471 0.0
C1441 C 0.56233 0.92845 0.29579 0.0
C1442 C 0.46562 0.94105 0.29236 0.0
C1443 C 0.45404 0.92812 0.28202 0.0
C1444 C 0.48933 0.94448 0.29149 0.0
C1445 C 0.50228 0.93437 0.28051 0.0
C1446 C 0.49035 0.92276 0.26961 0.0
C1447 C 0.46647 0.91986 0.27031 0.0
H1448 H 0.36235 0.21677 0.55846 0.0
H1449 H 0.3539 0.20755 0.51324 0.0
H1450 H 0.35689 0.2574 0.55589 0.0
H1451 H 0.34713 0.24874 0.51066 0.0
H1452 H 0.37143 0.32542 0.51061 0.0
H1453 H 0.36699 0.2838 0.51088 0.0
H1454 H 0.33389 0.28832 0.5519 0.0
H1455 H 0.33992 0.3296 0.55194 0.0
C1456 C 0.35875 0.22333 0.54794 0.0
C1457 C 0.35878 0.20872 0.53605 0.0
C1458 C 0.35535 0.24687 0.54646 0.0
C1459 C 0.35151 0.25673 0.53304 0.0
C1460 C 0.35039 0.24197 0.52116 0.0
C1461 C 0.35403 0.21825 0.52264 0.0
C1462 C 0.36277 0.31748 0.51953 0.0
C1463 C 0.35623 0.33072 0.53132 0.0
C1464 C 0.36016 0.29354 0.5197 0.0
C1465 C 0.35054 0.28235 0.53157 0.0
C1466 C 0.34215 0.29603 0.54278 0.0
C1467 C 0.34532 0.3198 0.54275 0.0
H1468 H 0.95849 0.12128 0.76158 0.0
H1469 H 0.95666 0.08919 0.8028 0.0
H1470 H 1.00017 0.1173 0.76104 0.0
H1471 H 0.99801 0.08403 0.80202 0.0
H1472 H 0.06912 0.11548 0.80733 0.0
H1473 H 0.02831 0.10947 0.8054 0.0
H1474 H 0.03542 0.09657 0.7604 0.0
H1475 H 0.07676 0.10351 0.7623 0.0
C1476 C 0.96691 0.11257 0.77028 0.0
C1477 C 0.95433 0.10576 0.7823 0.0
C1478 C 0.99087 0.11028 0.76999 0.0
C1479 C 1.0027 0.10084 0.78165 0.0
C1480 C 0.98971 0.09209 0.79305 0.0
C1481 C 0.96591 0.09479 0.79344 0.0
C1482 C 0.06216 0.11109 0.79701 0.0
C1483 C 0.07637 0.11012 0.78496 0.0
C1484 C 0.03858 0.1074 0.79591 0.0
C1485 C 0.02831 0.10242 0.78273 0.0
C1486 C 0.04261 0.1006 0.77071 0.0
C1487 C 0.06637 0.10439 0.77181 0.0
H1488 H 0.16758 0.21137 0.95858 0.0
H1489 H 0.17838 0.20441 1.00375 0.0
H1490 H 0.17375 0.2522 0.96035 0.0
H1491 H 0.18543 0.24575 1.0055 0.0
H1492 H 0.16097 0.32281 1.00359 0.0
H1493 H 0.16468 0.28111 1.00441 0.0
H1494 H 0.19943 0.28238 0.96387 0.0
H1495 H 0.19461 0.32375 0.9628 0.0
C1496 C 0.17174 0.21848 0.9689 0.0
C1497 C 0.17234 0.20446 0.98103 0.0
C1498 C 0.17551 0.24206 0.96991 0.0
C1499 C 0.1802 0.25253 0.98308 0.0
C1500 C 0.18164 0.23841 0.99519 0.0
C1501 C 0.17779 0.21465 0.99418 0.0
C1502 C 0.16994 0.31419 0.99505 0.0
C1503 C 0.17728 0.32654 0.98306 0.0
C1504 C 0.17208 0.29022 0.9955 0.0
C1505 C 0.18187 0.27814 0.98404 0.0
C1506 C 0.19111 0.29089 0.97269 0.0
C1507 C 0.1886 0.31469 0.97213 0.0
H1508 H 0.95657 0.94728 0.21414 0.0
H1509 H 0.9579 0.91082 0.25394 0.0
H1510 H 0.99783 0.95313 0.21552 0.0
H1511 H 0.99949 0.91547 0.25501 0.0
H1512 H 0.07597 0.92946 0.25492 0.0
H1513 H 0.03464 0.93622 0.2568 0.0
H1514 H 0.02843 0.92881 0.21128 0.0
H1515 H 0.06923 0.92303 0.20941 0.0
C1516 C 0.96568 0.94087 0.22333 0.0
C1517 C 0.95399 0.92849 0.23388 0.0
C1518 C 0.98944 0.94396 0.22406 0.0
C1519 C 1.0023 0.93421 0.23517 0.0
C1520 C 0.99032 0.92332 0.2463 0.0
C1521 C 0.9664 0.92064 0.24571 0.0
C1522 C 0.06579 0.9298 0.24531 0.0
C1523 C 0.07603 0.9256 0.23202 0.0
C1524 C 0.04202 0.93347 0.24639 0.0
C1525 C 0.02795 0.93305 0.23421 0.0
C1526 C 0.0385 0.92975 0.22092 0.0
C1527 C 0.06208 0.92619 0.21984 0.0
H1528 H 0.35442 0.7085 0.50451 0.0
H1529 H 0.35816 0.71628 0.45895 0.0
H1530 H 0.34741 0.7497 0.5069 0.0
H1531 H 0.35241 0.75693 0.4613 0.0
H1532 H 0.33595 0.82915 0.46505 0.0
H1533 H 0.32965 0.78792 0.46592 0.0
H1534 H 0.36723 0.78474 0.50546 0.0
H1535 H 0.37201 0.8263 0.50496 0.0
C1536 C 0.35343 0.71888 0.495 0.0
C1537 C 0.357 0.70897 0.48155 0.0
C1538 C 0.34965 0.7426 0.49637 0.0
C1539 C 0.34942 0.75697 0.48432 0.0
C1540 C 0.35197 0.7467 0.47087 0.0
C1541 C 0.35553 0.72317 0.46951 0.0
C1542 C 0.34225 0.81968 0.47413 0.0
C1543 C 0.35456 0.83094 0.48489 0.0
C1544 C 0.33892 0.79593 0.47457 0.0
C1545 C 0.34851 0.78263 0.48555 0.0
C1546 C 0.35946 0.7942 0.49684 0.0
C1547 C 0.36226 0.81811 0.49657 0.0
H1548 H 0.46003 0.12318 0.75606 0.0
H1549 H 0.45615 0.08243 0.7179 0.0
H1550 H 0.50159 0.1184 0.75648 0.0
H1551 H 0.49737 0.07634 0.71872 0.0
H1552 H 0.56857 0.10549 0.70979 0.0
H1553 H 0.52797 0.09956 0.71279 0.0
H1554 H 0.53668 0.09826 0.75839 0.0
H1555 H 0.57781 0.10528 0.7553 0.0
C1556 C 0.46798 0.1124 0.74809 0.0
C1557 C 0.45488 0.10336 0.73687 0.0
C1558 C 0.49188 0.10963 0.74831 0.0
C1559 C 0.50314 0.09743 0.73742 0.0
C1560 C 0.48957 0.08653 0.72702 0.0
C1561 C 0.46583 0.08975 0.72663 0.0
C1562 C 0.56202 0.10362 0.72049 0.0
C1563 C 0.57659 0.10608 0.7323 0.0
C1564 C 0.53854 0.09997 0.72224 0.0
C1565 C 0.52873 0.0984 0.73587 0.0
C1566 C 0.54346 0.09968 0.74772 0.0
C1567 C 0.56713 0.10348 0.74596 0.0
H1568 H 0.86445 0.32016 0.95858 0.0
H1569 H 0.85558 0.32814 1.00387 0.0
H1570 H 0.85835 0.2794 0.96073 0.0
H1571 H 0.84853 0.28686 1.00601 0.0
H1572 H 0.87285 0.20982 1.00437 0.0
H1573 H 0.869 0.25152 1.00494 0.0
H1574 H 0.83315 0.24919 0.96478 0.0
H1575 H 0.8382 0.20782 0.96393 0.0
C1576 C 0.86071 0.31329 0.96902 0.0
C1577 C 0.86066 0.32758 0.98106 0.0
C1578 C 0.85697 0.28974 0.97025 0.0
C1579 C 0.85284 0.27957 0.98356 0.0
C1580 C 0.8519 0.29396 0.99559 0.0
C1581 C 0.85575 0.31769 0.99436 0.0
C1582 C 0.86361 0.21822 0.99587 0.0
C1583 C 0.85603 0.20558 0.98404 0.0
C1584 C 0.86139 0.24219 0.99618 0.0
C1585 C 0.85125 0.25397 0.98473 0.0
C1586 C 0.84176 0.24092 0.97357 0.0
C1587 C 0.84439 0.21712 0.97314 0.0
H1588 H 0.67819 0.82559 0.50499 0.0
H1589 H 0.67526 0.81789 0.45939 0.0
H1590 H 0.68527 0.7844 0.50733 0.0
H1591 H 0.68106 0.77726 0.46168 0.0
H1592 H 0.69733 0.70505 0.46532 0.0
H1593 H 0.70373 0.74626 0.46637 0.0
H1594 H 0.66547 0.74937 0.50568 0.0
H1595 H 0.6606 0.70783 0.50502 0.0
C1596 C 0.67938 0.81523 0.49546 0.0
C1597 C 0.67601 0.82515 0.48201 0.0
C1598 C 0.6832 0.79152 0.4968 0.0
C1599 C 0.68365 0.77718 0.48472 0.0
C1600 C 0.68132 0.78746 0.47128 0.0
C1601 C 0.67773 0.81099 0.46996 0.0
C1602 C 0.69091 0.7145 0.47439 0.0
C1603 C 0.67838 0.70324 0.48504 0.0
C1604 C 0.69429 0.73824 0.47493 0.0
C1605 C 0.68453 0.75152 0.48589 0.0
C1606 C 0.67337 0.73993 0.49708 0.0
C1607 C 0.67052 0.71603 0.49671 0.0
H1608 H 0.85865 0.71321 0.05661 0.0
H1609 H 0.85629 0.7048 0.01104 0.0
H1610 H 0.8526 0.75384 0.05402 0.0
H1611 H 0.8492 0.74594 0.0084 0.0
H1612 H 0.87386 0.82288 0.01102 0.0
H1613 H 0.86941 0.78126 0.01033 0.0
H1614 H 0.82865 0.78415 0.04864 0.0
H1615 H 0.83436 0.82547 0.04969 0.0
C1616 C 0.85631 0.71994 0.04599 0.0
C1617 C 0.85816 0.7056 0.03403 0.0
C1618 C 0.85259 0.74343 0.04449 0.0
C1619 C 0.85035 0.75347 0.03098 0.0
C1620 C 0.85113 0.73897 0.01899 0.0
C1621 C 0.85498 0.7153 0.0205 0.0
C1622 C 0.86342 0.81464 0.01905 0.0
C1623 C 0.85464 0.8274 0.03048 0.0
C1624 C 0.86085 0.79069 0.01868 0.0
C1625 C 0.84914 0.77906 0.02964 0.0
C1626 C 0.83847 0.79228 0.04028 0.0
C1627 C 0.84147 0.81605 0.0408 0.0
H1628 H 0.66761 0.31793 0.55711 0.0
H1629 H 0.67831 0.32601 0.51199 0.0
H1630 H 0.67405 0.27728 0.55502 0.0
H1631 H 0.6858 0.28484 0.50993 0.0
H1632 H 0.66216 0.20762 0.51077 0.0
H1633 H 0.66581 0.24933 0.51046 0.0
H1634 H 0.69907 0.24715 0.55147 0.0
H1635 H 0.69411 0.20574 0.55205 0.0
C1636 C 0.67184 0.31111 0.54673 0.0
C1637 C 0.67226 0.32539 0.5347 0.0
C1638 C 0.67579 0.28761 0.54554 0.0
C1639 C 0.68054 0.27748 0.53229 0.0
C1640 C 0.68192 0.29189 0.52029 0.0
C1641 C 0.67783 0.31557 0.52149 0.0
C1642 C 0.67076 0.21606 0.51954 0.0
C1643 C 0.67763 0.20343 0.53151 0.0
C1644 C 0.67289 0.24005 0.51938 0.0
C1645 C 0.68225 0.25189 0.53111 0.0
C1646 C 0.69104 0.23886 0.54246 0.0
C1647 C 0.68846 0.21503 0.54274 0.0
H1648 H 0.96306 0.41683 0.80621 0.0
H1649 H 0.95565 0.42843 0.76114 0.0
H1650 H 1.0039 0.42278 0.80433 0.0
H1651 H 0.997 0.4353 0.7593 0.0
H1652 H 0.07395 0.4107 0.76062 0.0
H1653 H 0.03227 0.41455 0.76004 0.0
H1654 H 0.03422 0.44824 0.80094 0.0
H1655 H 0.07559 0.44324 0.80177 0.0
C1656 C 0.97008 0.42112 0.79589 0.0
C1657 C 0.95592 0.42201 0.78382 0.0
C1658 C 0.99367 0.42477 0.79483 0.0
C1659 C 1.00401 0.42963 0.78166 0.0
C1660 C 0.98977 0.43136 0.76961 0.0
C1661 C 0.966 0.42761 0.77068 0.0
C1662 C 0.06549 0.41947 0.7693 0.0
C1663 C 0.07803 0.42645 0.78131 0.0
C1664 C 0.04152 0.42169 0.76899 0.0
C1665 C 0.02963 0.43122 0.78061 0.0
C1666 C 0.04257 0.44011 0.792 0.0
C1667 C 0.06638 0.4375 0.79242 0.0
H1668 H 0.45582 0.58442 0.29964 0.0
H1669 H 0.45855 0.624 0.26102 0.0
H1670 H 0.49709 0.57869 0.29855 0.0
H1671 H 0.50014 0.61939 0.26026 0.0
H1672 H 0.57651 0.60545 0.26089 0.0
H1673 H 0.53526 0.59857 0.25832 0.0
H1674 H 0.52749 0.60315 0.30389 0.0
H1675 H 0.56823 0.60912 0.30643 0.0
C1676 C 0.46524 0.59153 0.29074 0.0
C1677 C 0.45396 0.60477 0.28047 0.0
C1678 C 0.48899 0.58849 0.29019 0.0
C1679 C 0.50223 0.59913 0.27955 0.0
C1680 C 0.49065 0.61086 0.26861 0.0
C1681 C 0.46674 0.61352 0.26903 0.0
C1682 C 0.56601 0.60445 0.27036 0.0
C1683 C 0.57578 0.60795 0.28386 0.0
C1684 C 0.54229 0.60071 0.26888 0.0
C1685 C 0.52782 0.60031 0.28087 0.0
C1686 C 0.5379 0.60287 0.29437 0.0
C1687 C 0.56143 0.60653 0.29584 0.0
H1688 H 0.45486 0.42871 0.75011 0.0
H1689 H 0.46326 0.41157 0.70577 0.0
H1690 H 0.49626 0.43521 0.75207 0.0
H1691 H 0.50411 0.4171 0.7078 0.0
H1692 H 0.57305 0.41068 0.75288 0.0
H1693 H 0.53133 0.41437 0.7527 0.0
H1694 H 0.53464 0.44237 0.71025 0.0
H1695 H 0.57603 0.43746 0.71024 0.0
C1696 C 0.46544 0.42657 0.74075 0.0
C1697 C 0.45561 0.41957 0.72779 0.0
C1698 C 0.48924 0.4301 0.7419 0.0
C1699 C 0.50376 0.42671 0.73011 0.0
C1700 C 0.49368 0.42039 0.71709 0.0
C1701 C 0.47006 0.417 0.71594 0.0
C1702 C 0.56485 0.4181 0.74365 0.0
C1703 C 0.5778 0.42353 0.73151 0.0
C1704 C 0.54087 0.42025 0.74353 0.0
C1705 C 0.52936 0.42819 0.73133 0.0
C1706 C 0.54268 0.43546 0.71968 0.0
C1707 C 0.5665 0.43288 0.71971 0.0
H1708 H 0.95578 0.58529 0.2164 0.0
H1709 H 0.95872 0.62404 0.25538 0.0
H1710 H 0.99699 0.57919 0.21748 0.0
H1711 H 1.00026 0.61934 0.25607 0.0
H1712 H 0.07646 0.60638 0.25547 0.0
H1713 H 0.03524 0.59937 0.25799 0.0
H1714 H 0.02792 0.60219 0.21233 0.0
H1715 H 0.0686 0.60801 0.20987 0.0
C1716 C 0.96526 0.59221 0.22533 0.0
C1717 C 0.95405 0.60524 0.23576 0.0
C1718 C 0.98899 0.58898 0.22589 0.0
C1719 C 1.00231 0.59933 0.23663 0.0
C1720 C 0.99077 0.61099 0.24764 0.0
C1721 C 0.96688 0.61374 0.24726 0.0
C1722 C 0.06606 0.60491 0.24599 0.0
C1723 C 0.07594 0.6079 0.23248 0.0
C1724 C 0.04234 0.60113 0.24743 0.0
C1725 C 0.02795 0.60028 0.23538 0.0
C1726 C 0.03818 0.60225 0.2219 0.0
C1727 C 0.06172 0.60585 0.22048 0.0
loop_
_geom_bond_atom_site_label_1
_geom_bond_atom_site_label_2
_geom_bond_distance
_geom_bond_site_symmetry_2
_ccdc_geom_bond_type
O0 Cd1 2.223 . S
O0 C8 1.315 . S
Cd1 O0 2.223 . S
Cd1 O4 2.297 . S
Cd1 O5 2.439 . S
Cd1 O11 2.240 . S
Cd2 O3 2.240 . S
Cd2 O10 2.223 . S
Cd2 O12 2.297 . S
Cd2 O13 2.439 . S
O3 Cd2 2.240 . S
O3 C8 1.279 . S
O4 Cd1 2.297 . S
O4 C6 1.247 . S
O5 Cd1 2.439 . S
O5 C6 1.208 . S
C6 O4 1.247 . S
C6 O5 1.208 . S
C7 O12 1.247 . S
C7 O13 1.208 . S
C8 O0 1.315 . S
C8 O3 1.279 . S
C9 O10 1.315 . S
C9 O11 1.279 . S
O10 Cd2 2.223 . S
O10 C9 1.315 . S
O11 Cd1 2.240 . S
O11 C9 1.279 . S
O12 Cd2 2.297 . S
O12 C7 1.247 . S
O13 Cd2 2.439 . S
O13 C7 1.208 . S
O14 Cd15 2.223 . S
O14 C22 1.315 . S
Cd15 O14 2.223 . S
Cd15 O18 2.297 . S
Cd15 O19 2.439 . S
Cd15 O25 2.240 . S
Cd16 O17 2.240 . S
Cd16 O24 2.223 . S
Cd16 O26 2.297 . S
Cd16 O27 2.439 . S
O17 Cd16 2.240 . S
O17 C22 1.279 . S
O18 Cd15 2.297 . S
O18 C20 1.247 . S
O19 Cd15 2.439 . S
O19 C20 1.208 . S
C20 O18 1.247 . S
C20 O19 1.208 . S
C21 O26 1.247 . S
C21 O27 1.208 . S
C22 O14 1.315 . S
C22 O17 1.279 . S
C23 O24 1.315 . S
C23 O25 1.279 . S
O24 Cd16 2.223 . S
O24 C23 1.315 . S
O25 Cd15 2.240 . S
O25 C23 1.279 . S
O26 Cd16 2.297 . S
O26 C21 1.247 . S
O27 Cd16 2.439 . S
O27 C21 1.208 . S
O28 Cd29 2.223 . S
O28 C36 1.315 . S
Cd29 O28 2.223 . S
Cd29 O32 2.297 . S
Cd29 O33 2.439 . S
Cd29 O39 2.240 . S
Cd30 O31 2.240 . S
Cd30 O38 2.223 . S
Cd30 O40 2.297 . S
Cd30 O41 2.439 . S
O31 Cd30 2.240 . S
O31 C36 1.279 . S
O32 Cd29 2.297 . S
O32 C34 1.247 . S
O33 Cd29 2.439 . S
O33 C34 1.208 . S
C34 O32 1.247 . S
C34 O33 1.208 . S
C35 O40 1.247 . S
C35 O41 1.208 . S
C36 O28 1.315 . S
C36 O31 1.279 . S
C37 O38 1.315 . S
C37 O39 1.279 . S
O38 Cd30 2.223 . S
O38 C37 1.315 . S
O39 Cd29 2.240 . S
O39 C37 1.279 . S
O40 Cd30 2.297 . S
O40 C35 1.247 . S
O41 Cd30 2.439 . S
O41 C35 1.208 . S
O42 Cd43 2.223 . S
O42 C50 1.315 . S
Cd43 O42 2.223 . S
Cd43 O46 2.297 . S
Cd43 O47 2.439 . S
Cd43 O53 2.240 . S
Cd44 O45 2.240 . S
Cd44 O52 2.223 . S
Cd44 O54 2.297 . S
Cd44 O55 2.439 . S
O45 Cd44 2.240 . S
O45 C50 1.279 . S
O46 Cd43 2.297 . S
O46 C48 1.247 . S
O47 Cd43 2.439 . S
O47 C48 1.208 . S
C48 O46 1.247 . S
C48 O47 1.208 . S
C49 O54 1.247 . S
C49 O55 1.208 . S
C50 O42 1.315 . S
C50 O45 1.279 . S
C51 O52 1.315 . S
C51 O53 1.279 . S
O52 Cd44 2.223 . S
O52 C51 1.315 . S
O53 Cd43 2.240 . S
O53 C51 1.279 . S
O54 Cd44 2.297 . S
O54 C49 1.247 . S
O55 Cd44 2.439 . S
O55 C49 1.208 . S
O56 Cd57 2.223 . S
O56 C64 1.315 . S
Cd57 O56 2.223 . S
Cd57 O60 2.297 . S
Cd57 O61 2.439 . S
Cd57 O67 2.240 . S
Cd58 O59 2.240 . S
Cd58 O66 2.223 . S
Cd58 O68 2.297 . S
Cd58 O69 2.439 . S
O59 Cd58 2.240 . S
O59 C64 1.279 . S
O60 Cd57 2.297 . S
O60 C62 1.247 . S
O61 Cd57 2.439 . S
O61 C62 1.208 . S
C62 O60 1.247 . S
C62 O61 1.208 . S
C63 O68 1.247 . S
C63 O69 1.208 . S
C64 O56 1.315 . S
C64 O59 1.279 . S
C65 O66 1.315 . S
C65 O67 1.279 . S
O66 Cd58 2.223 . S
O66 C65 1.315 . S
O67 Cd57 2.240 . S
O67 C65 1.279 . S
O68 Cd58 2.297 . S
O68 C63 1.247 . S
O69 Cd58 2.439 . S
O69 C63 1.208 . S
O70 Cd71 2.223 . S
O70 C78 1.315 . S
Cd71 O70 2.223 . S
Cd71 O74 2.297 . S
Cd71 O75 2.439 . S
Cd71 O81 2.240 . S
Cd72 O73 2.240 . S
Cd72 O80 2.223 . S
Cd72 O82 2.297 . S
Cd72 O83 2.439 . S
O73 Cd72 2.240 . S
O73 C78 1.279 . S
O74 Cd71 2.297 . S
O74 C76 1.247 . S
O75 Cd71 2.439 . S
O75 C76 1.208 . S
C76 O74 1.247 . S
C76 O75 1.208 . S
C77 O82 1.247 . S
C77 O83 1.208 . S
C78 O70 1.315 . S
C78 O73 1.279 . S
C79 O80 1.315 . S
C79 O81 1.279 . S
O80 Cd72 2.223 . S
O80 C79 1.315 . S
O81 Cd71 2.240 . S
O81 C79 1.279 . S
O82 Cd72 2.297 . S
O82 C77 1.247 . S
O83 Cd72 2.439 . S
O83 C77 1.208 . S
O84 Cd85 2.223 . S
O84 C92 1.315 . S
Cd85 O84 2.223 . S
Cd85 O88 2.297 . S
Cd85 O89 2.439 . S
Cd85 O95 2.240 . S
Cd86 O87 2.240 . S
Cd86 O94 2.223 . S
Cd86 O96 2.297 . S
Cd86 O97 2.439 . S
O87 Cd86 2.240 . S
O87 C92 1.279 . S
O88 Cd85 2.297 . S
O88 C90 1.247 . S
O89 Cd85 2.439 . S
O89 C90 1.208 . S
C90 O88 1.247 . S
C90 O89 1.208 . S
C91 O96 1.247 . S
C91 O97 1.208 . S
C92 O84 1.315 . S
C92 O87 1.279 . S
C93 O94 1.315 . S
C93 O95 1.279 . S
O94 Cd86 2.223 . S
O94 C93 1.315 . S
O95 Cd85 2.240 . S
O95 C93 1.279 . S
O96 Cd86 2.297 . S
O96 C91 1.247 . S
O97 Cd86 2.439 . S
O97 C91 1.208 . S
O98 Cd99 2.223 . S
O98 C106 1.315 . S
Cd99 O98 2.223 . S
Cd99 O102 2.297 . S
Cd99 O103 2.439 . S
Cd99 O109 2.240 . S
Cd100 O101 2.240 . S
Cd100 O108 2.223 . S
Cd100 O110 2.297 . S
Cd100 O111 2.439 . S
O101 Cd100 2.240 . S
O101 C106 1.279 . S
O102 Cd99 2.297 . S
O102 C104 1.247 . S
O103 Cd99 2.439 . S
O103 C104 1.208 . S
C104 O102 1.247 . S
C104 O103 1.208 . S
C105 O110 1.247 . S
C105 O111 1.208 . S
C106 O98 1.315 . S
C106 O101 1.279 . S
C107 O108 1.315 . S
C107 O109 1.279 . S
O108 Cd100 2.223 . S
O108 C107 1.315 . S
O109 Cd99 2.240 . S
O109 C107 1.279 . S
O110 Cd100 2.297 . S
O110 C105 1.247 . S
O111 Cd100 2.439 . S
O111 C105 1.208 . S
O112 Cd113 2.223 . S
O112 C120 1.315 . S
Cd113 O112 2.223 . S
Cd113 O116 2.297 . S
Cd113 O117 2.439 . S
Cd113 O123 2.240 . S
Cd114 O115 2.240 . S
Cd114 O122 2.223 . S
Cd114 O124 2.297 . S
Cd114 O125 2.439 . S
O115 Cd114 2.240 . S
O115 C120 1.279 . S
O116 Cd113 2.297 . S
O116 C118 1.247 . S
O117 Cd113 2.439 . S
O117 C118 1.208 . S
C118 O116 1.247 . S
C118 O117 1.208 . S
C119 O124 1.247 . S
C119 O125 1.208 . S
C120 O112 1.315 . S
C120 O115 1.279 . S
C121 O122 1.315 . S
C121 O123 1.279 . S
O122 Cd114 2.223 . S
O122 C121 1.315 . S
O123 Cd113 2.240 . S
O123 C121 1.279 . S
O124 Cd114 2.297 . S
O124 C119 1.247 . S
O125 Cd114 2.439 . S
O125 C119 1.208 . S
O126 Cd127 2.223 . S
O126 C134 1.315 . S
Cd127 O126 2.223 . S
Cd127 O130 2.297 . S
Cd127 O131 2.439 . S
Cd127 O137 2.240 . S
Cd128 O129 2.240 . S
Cd128 O136 2.223 . S
Cd128 O138 2.297 . S
Cd128 O139 2.439 . S
O129 Cd128 2.240 . S
O129 C134 1.279 . S
O130 Cd127 2.297 . S
O130 C132 1.247 . S
O131 Cd127 2.439 . S
O131 C132 1.208 . S
C132 O130 1.247 . S
C132 O131 1.208 . S
C133 O138 1.247 . S
C133 O139 1.208 . S
C134 O126 1.315 . S
C134 O129 1.279 . S
C135 O136 1.315 . S
C135 O137 1.279 . S
O136 Cd128 2.223 . S
O136 C135 1.315 . S
O137 Cd127 2.240 . S
O137 C135 1.279 . S
O138 Cd128 2.297 . S
O138 C133 1.247 . S
O139 Cd128 2.439 . S
O139 C133 1.208 . S
O140 Cd141 2.223 . S
O140 C148 1.315 . S
Cd141 O140 2.223 . S
Cd141 O144 2.297 . S
Cd141 O145 2.439 . S
Cd141 O151 2.240 . S
Cd142 O143 2.240 . S
Cd142 O150 2.223 . S
Cd142 O152 2.297 . S
Cd142 O153 2.439 . S
O143 Cd142 2.240 . S
O143 C148 1.279 . S
O144 Cd141 2.297 . S
O144 C146 1.247 . S
O145 Cd141 2.439 . S
O145 C146 1.208 . S
C146 O144 1.247 . S
C146 O145 1.208 . S
C147 O152 1.247 . S
C147 O153 1.208 . S
C148 O140 1.315 . S
C148 O143 1.279 . S
C149 O150 1.315 . S
C149 O151 1.279 . S
O150 Cd142 2.223 . S
O150 C149 1.315 . S
O151 Cd141 2.240 . S
O151 C149 1.279 . S
O152 Cd142 2.297 . S
O152 C147 1.247 . S
O153 Cd142 2.439 . S
O153 C147 1.208 . S
O154 Cd155 2.223 . S
O154 C162 1.315 . S
Cd155 O154 2.223 . S
Cd155 O158 2.297 . S
Cd155 O159 2.439 . S
Cd155 O165 2.240 . S
Cd156 O157 2.240 . S
Cd156 O164 2.223 . S
Cd156 O166 2.297 . S
Cd156 O167 2.439 . S
O157 Cd156 2.240 . S
O157 C162 1.279 . S
O158 Cd155 2.297 . S
O158 C160 1.247 . S
O159 Cd155 2.439 . S
O159 C160 1.208 . S
C160 O158 1.247 . S
C160 O159 1.208 . S
C161 O166 1.247 . S
C161 O167 1.208 . S
C162 O154 1.315 . S
C162 O157 1.279 . S
C163 O164 1.315 . S
C163 O165 1.279 . S
O164 Cd156 2.223 . S
O164 C163 1.315 . S
O165 Cd155 2.240 . S
O165 C163 1.279 . S
O166 Cd156 2.297 . S
O166 C161 1.247 . S
O167 Cd156 2.439 . S
O167 C161 1.208 . S
O168 Cd169 2.223 . S
O168 C176 1.315 . S
Cd169 O168 2.223 . S
Cd169 O172 2.297 . S
Cd169 O173 2.439 . S
Cd169 O179 2.240 . S
Cd170 O171 2.240 . S
Cd170 O178 2.223 . S
Cd170 O180 2.297 . S
Cd170 O181 2.439 . S
O171 Cd170 2.240 . S
O171 C176 1.279 . S
O172 Cd169 2.297 . S
O172 C174 1.247 . S
O173 Cd169 2.439 . S
O173 C174 1.208 . S
C174 O172 1.247 . S
C174 O173 1.208 . S
C175 O180 1.247 . S
C175 O181 1.208 . S
C176 O168 1.315 . S
C176 O171 1.279 . S
C177 O178 1.315 . S
C177 O179 1.279 . S
O178 Cd170 2.223 . S
O178 C177 1.315 . S
O179 Cd169 2.240 . S
O179 C177 1.279 . S
O180 Cd170 2.297 . S
O180 C175 1.247 . S
O181 Cd170 2.439 . S
O181 C175 1.208 . S
O182 Cd183 2.223 . S
O182 C190 1.315 . S
Cd183 O182 2.223 . S
Cd183 O186 2.297 . S
Cd183 O187 2.439 . S
Cd183 O193 2.240 . S
Cd184 O185 2.240 . S
Cd184 O192 2.223 . S
Cd184 O194 2.297 . S
Cd184 O195 2.439 . S
O185 Cd184 2.240 . S
O185 C190 1.279 . S
O186 Cd183 2.297 . S
O186 C188 1.247 . S
O187 Cd183 2.439 . S
O187 C188 1.208 . S
C188 O186 1.247 . S
C188 O187 1.208 . S
C189 O194 1.247 . S
C189 O195 1.208 . S
C190 O182 1.315 . S
C190 O185 1.279 . S
C191 O192 1.315 . S
C191 O193 1.279 . S
O192 Cd184 2.223 . S
O192 C191 1.315 . S
O193 Cd183 2.240 . S
O193 C191 1.279 . S
O194 Cd184 2.297 . S
O194 C189 1.247 . S
O195 Cd184 2.439 . S
O195 C189 1.208 . S
O196 Cd197 2.223 . S
O196 C204 1.315 . S
Cd197 O196 2.223 . S
Cd197 O200 2.297 . S
Cd197 O201 2.439 . S
Cd197 O207 2.240 . S
Cd198 O199 2.240 . S
Cd198 O206 2.223 . S
Cd198 O208 2.297 . S
Cd198 O209 2.439 . S
O199 Cd198 2.240 . S
O199 C204 1.279 . S
O200 Cd197 2.297 . S
O200 C202 1.247 . S
O201 Cd197 2.439 . S
O201 C202 1.208 . S
C202 O200 1.247 . S
C202 O201 1.208 . S
C203 O208 1.247 . S
C203 O209 1.208 . S
C204 O196 1.315 . S
C204 O199 1.279 . S
C205 O206 1.315 . S
C205 O207 1.279 . S
O206 Cd198 2.223 . S
O206 C205 1.315 . S
O207 Cd197 2.240 . S
O207 C205 1.279 . S
O208 Cd198 2.297 . S
O208 C203 1.247 . S
O209 Cd198 2.439 . S
O209 C203 1.208 . S
O210 Cd211 2.223 . S
O210 C218 1.315 . S
Cd211 O210 2.223 . S
Cd211 O214 2.297 . S
Cd211 O215 2.439 . S
Cd211 O221 2.240 . S
Cd212 O213 2.240 . S
Cd212 O220 2.223 . S
Cd212 O222 2.297 . S
Cd212 O223 2.439 . S
O213 Cd212 2.240 . S
O213 C218 1.279 . S
O214 Cd211 2.297 . S
O214 C216 1.247 . S
O215 Cd211 2.439 . S
O215 C216 1.208 . S
C216 O214 1.247 . S
C216 O215 1.208 . S
C217 O222 1.247 . S
C217 O223 1.208 . S
C218 O210 1.315 . S
C218 O213 1.279 . S
C219 O220 1.315 . S
C219 O221 1.279 . S
O220 Cd212 2.223 . S
O220 C219 1.315 . S
O221 Cd211 2.240 . S
O221 C219 1.279 . S
O222 Cd212 2.297 . S
O222 C217 1.247 . S
O223 Cd212 2.439 . S
O223 C217 1.208 . S
O224 Cd225 2.223 . S
O224 C232 1.315 . S
Cd225 O224 2.223 . S
Cd225 O228 2.297 . S
Cd225 O229 2.439 . S
Cd225 O235 2.240 . S
Cd226 O227 2.240 . S
Cd226 O234 2.223 . S
Cd226 O236 2.297 . S
Cd226 O237 2.439 . S
O227 Cd226 2.240 . S
O227 C232 1.279 . S
O228 Cd225 2.297 . S
O228 C230 1.247 . S
O229 Cd225 2.439 . S
O229 C230 1.208 . S
C230 O228 1.247 . S
C230 O229 1.208 . S
C231 O236 1.247 . S
C231 O237 1.208 . S
C232 O224 1.315 . S
C232 O227 1.279 . S
C233 O234 1.315 . S
C233 O235 1.279 . S
O234 Cd226 2.223 . S
O234 C233 1.315 . S
O235 Cd225 2.240 . S
O235 C233 1.279 . S
O236 Cd226 2.297 . S
O236 C231 1.247 . S
O237 Cd226 2.439 . S
O237 C231 1.208 . S
O238 Cd239 2.223 . S
O238 C246 1.315 . S
Cd239 O238 2.223 . S
Cd239 O242 2.297 . S
Cd239 O243 2.439 . S
Cd239 O249 2.240 . S
Cd240 O241 2.240 . S
Cd240 O248 2.223 . S
Cd240 O250 2.297 . S
Cd240 O251 2.439 . S
O241 Cd240 2.240 . S
O241 C246 1.279 . S
O242 Cd239 2.297 . S
O242 C244 1.247 . S
O243 Cd239 2.439 . S
O243 C244 1.208 . S
C244 O242 1.247 . S
C244 O243 1.208 . S
C245 O250 1.247 . S
C245 O251 1.208 . S
C246 O238 1.315 . S
C246 O241 1.279 . S
C247 O248 1.315 . S
C247 O249 1.279 . S
O248 Cd240 2.223 . S
O248 C247 1.315 . S
O249 Cd239 2.240 . S
O249 C247 1.279 . S
O250 Cd240 2.297 . S
O250 C245 1.247 . S
O251 Cd240 2.439 . S
O251 C245 1.208 . S
O252 Cd253 2.223 . S
O252 C260 1.315 . S
Cd253 O252 2.223 . S
Cd253 O256 2.297 . S
Cd253 O257 2.439 . S
Cd253 O263 2.240 . S
Cd254 O255 2.240 . S
Cd254 O262 2.223 . S
Cd254 O264 2.297 . S
Cd254 O265 2.439 . S
O255 Cd254 2.240 . S
O255 C260 1.279 . S
O256 Cd253 2.297 . S
O256 C258 1.247 . S
O257 Cd253 2.439 . S
O257 C258 1.208 . S
C258 O256 1.247 . S
C258 O257 1.208 . S
C259 O264 1.247 . S
C259 O265 1.208 . S
C260 O252 1.315 . S
C260 O255 1.279 . S
C261 O262 1.315 . S
C261 O263 1.279 . S
O262 Cd254 2.223 . S
O262 C261 1.315 . S
O263 Cd253 2.240 . S
O263 C261 1.279 . S
O264 Cd254 2.297 . S
O264 C259 1.247 . S
O265 Cd254 2.439 . S
O265 C259 1.208 . S
O266 Cd267 2.223 . S
O266 C274 1.315 . S
Cd267 O266 2.223 . S
Cd267 O270 2.297 . S
Cd267 O271 2.439 . S
Cd267 O277 2.240 . S
Cd268 O269 2.240 . S
Cd268 O276 2.223 . S
Cd268 O278 2.297 . S
Cd268 O279 2.439 . S
O269 Cd268 2.240 . S
O269 C274 1.279 . S
O270 Cd267 2.297 . S
O270 C272 1.247 . S
O271 Cd267 2.439 . S
O271 C272 1.208 . S
C272 O270 1.247 . S
C272 O271 1.208 . S
C273 O278 1.247 . S
C273 O279 1.208 . S
C274 O266 1.315 . S
C274 O269 1.279 . S
C275 O276 1.315 . S
C275 O277 1.279 . S
O276 Cd268 2.223 . S
O276 C275 1.315 . S
O277 Cd267 2.240 . S
O277 C275 1.279 . S
O278 Cd268 2.297 . S
O278 C273 1.247 . S
O279 Cd268 2.439 . S
O279 C273 1.208 . S
O280 Cd281 2.223 . S
O280 C288 1.315 . S
Cd281 O280 2.223 . S
Cd281 O284 2.297 . S
Cd281 O285 2.439 . S
Cd281 O291 2.240 . S
Cd282 O283 2.240 . S
Cd282 O290 2.223 . S
Cd282 O292 2.297 . S
Cd282 O293 2.439 . S
O283 Cd282 2.240 . S
O283 C288 1.279 . S
O284 Cd281 2.297 . S
O284 C286 1.247 . S
O285 Cd281 2.439 . S
O285 C286 1.208 . S
C286 O284 1.247 . S
C286 O285 1.208 . S
C287 O292 1.247 . S
C287 O293 1.208 . S
C288 O280 1.315 . S
C288 O283 1.279 . S
C289 O290 1.315 . S
C289 O291 1.279 . S
O290 Cd282 2.223 . S
O290 C289 1.315 . S
O291 Cd281 2.240 . S
O291 C289 1.279 . S
O292 Cd282 2.297 . S
O292 C287 1.247 . S
O293 Cd282 2.439 . S
O293 C287 1.208 . S
O294 Cd295 2.223 . S
O294 C302 1.315 . S
Cd295 O294 2.223 . S
Cd295 O298 2.297 . S
Cd295 O299 2.439 . S
Cd295 O305 2.240 . S
Cd296 O297 2.240 . S
Cd296 O304 2.223 . S
Cd296 O306 2.297 . S
Cd296 O307 2.439 . S
O297 Cd296 2.240 . S
O297 C302 1.279 . S
O298 Cd295 2.297 . S
O298 C300 1.247 . S
O299 Cd295 2.439 . S
O299 C300 1.208 . S
C300 O298 1.247 . S
C300 O299 1.208 . S
C301 O306 1.247 . S
C301 O307 1.208 . S
C302 O294 1.315 . S
C302 O297 1.279 . S
C303 O304 1.315 . S
C303 O305 1.279 . S
O304 Cd296 2.223 . S
O304 C303 1.315 . S
O305 Cd295 2.240 . S
O305 C303 1.279 . S
O306 Cd296 2.297 . S
O306 C301 1.247 . S
O307 Cd296 2.439 . S
O307 C301 1.208 . S
O308 Cd309 2.223 . S
O308 C316 1.315 . S
Cd309 O308 2.223 . S
Cd309 O312 2.297 . S
Cd309 O313 2.439 . S
Cd309 O319 2.240 . S
Cd310 O311 2.240 . S
Cd310 O318 2.223 . S
Cd310 O320 2.297 . S
Cd310 O321 2.439 . S
O311 Cd310 2.240 . S
O311 C316 1.279 . S
O312 Cd309 2.297 . S
O312 C314 1.247 . S
O313 Cd309 2.439 . S
O313 C314 1.208 . S
C314 O312 1.247 . S
C314 O313 1.208 . S
C315 O320 1.247 . S
C315 O321 1.208 . S
C316 O308 1.315 . S
C316 O311 1.279 . S
C317 O318 1.315 . S
C317 O319 1.279 . S
O318 Cd310 2.223 . S
O318 C317 1.315 . S
O319 Cd309 2.240 . S
O319 C317 1.279 . S
O320 Cd310 2.297 . S
O320 C315 1.247 . S
O321 Cd310 2.439 . S
O321 C315 1.208 . S
O322 Cd323 2.223 . S
O322 C330 1.315 . S
Cd323 O322 2.223 . S
Cd323 O326 2.297 . S
Cd323 O327 2.439 . S
Cd323 O333 2.240 . S
Cd324 O325 2.240 . S
Cd324 O332 2.223 . S
Cd324 O334 2.297 . S
Cd324 O335 2.439 . S
O325 Cd324 2.240 . S
O325 C330 1.279 . S
O326 Cd323 2.297 . S
O326 C328 1.247 . S
O327 Cd323 2.439 . S
O327 C328 1.208 . S
C328 O326 1.247 . S
C328 O327 1.208 . S
C329 O334 1.247 . S
C329 O335 1.208 . S
C330 O322 1.315 . S
C330 O325 1.279 . S
C331 O332 1.315 . S
C331 O333 1.279 . S
O332 Cd324 2.223 . S
O332 C331 1.315 . S
O333 Cd323 2.240 . S
O333 C331 1.279 . S
O334 Cd324 2.297 . S
O334 C329 1.247 . S
O335 Cd324 2.439 . S
O335 C329 1.208 . S
O336 Cd337 2.223 . S
O336 C344 1.315 . S
Cd337 O336 2.223 . S
Cd337 O340 2.297 . S
Cd337 O341 2.439 . S
Cd337 O347 2.240 . S
Cd338 O339 2.240 . S
Cd338 O346 2.223 . S
Cd338 O348 2.297 . S
Cd338 O349 2.439 . S
O339 Cd338 2.240 . S
O339 C344 1.279 . S
O340 Cd337 2.297 . S
O340 C342 1.247 . S
O341 Cd337 2.439 . S
O341 C342 1.208 . S
C342 O340 1.247 . S
C342 O341 1.208 . S
C343 O348 1.247 . S
C343 O349 1.208 . S
C344 O336 1.315 . S
C344 O339 1.279 . S
C345 O346 1.315 . S
C345 O347 1.279 . S
O346 Cd338 2.223 . S
O346 C345 1.315 . S
O347 Cd337 2.240 . S
O347 C345 1.279 . S
O348 Cd338 2.297 . S
O348 C343 1.247 . S
O349 Cd338 2.439 . S
O349 C343 1.208 . S
O350 Cd351 2.223 . S
O350 C358 1.315 . S
Cd351 O350 2.223 . S
Cd351 O354 2.297 . S
Cd351 O355 2.439 . S
Cd351 O361 2.240 . S
Cd352 O353 2.240 . S
Cd352 O360 2.223 . S
Cd352 O362 2.297 . S
Cd352 O363 2.439 . S
O353 Cd352 2.240 . S
O353 C358 1.279 . S
O354 Cd351 2.297 . S
O354 C356 1.247 . S
O355 Cd351 2.439 . S
O355 C356 1.208 . S
C356 O354 1.247 . S
C356 O355 1.208 . S
C357 O362 1.247 . S
C357 O363 1.208 . S
C358 O350 1.315 . S
C358 O353 1.279 . S
C359 O360 1.315 . S
C359 O361 1.279 . S
O360 Cd352 2.223 . S
O360 C359 1.315 . S
O361 Cd351 2.240 . S
O361 C359 1.279 . S
O362 Cd352 2.297 . S
O362 C357 1.247 . S
O363 Cd352 2.439 . S
O363 C357 1.208 . S
O364 Cd365 2.223 . S
O364 C372 1.315 . S
Cd365 O364 2.223 . S
Cd365 O368 2.297 . S
Cd365 O369 2.439 . S
Cd365 O375 2.240 . S
Cd366 O367 2.240 . S
Cd366 O374 2.223 . S
Cd366 O376 2.297 . S
Cd366 O377 2.439 . S
O367 Cd366 2.240 . S
O367 C372 1.279 . S
O368 Cd365 2.297 . S
O368 C370 1.247 . S
O369 Cd365 2.439 . S
O369 C370 1.208 . S
C370 O368 1.247 . S
C370 O369 1.208 . S
C371 O376 1.247 . S
C371 O377 1.208 . S
C372 O364 1.315 . S
C372 O367 1.279 . S
C373 O374 1.315 . S
C373 O375 1.279 . S
O374 Cd366 2.223 . S
O374 C373 1.315 . S
O375 Cd365 2.240 . S
O375 C373 1.279 . S
O376 Cd366 2.297 . S
O376 C371 1.247 . S
O377 Cd366 2.439 . S
O377 C371 1.208 . S
O378 Cd379 2.223 . S
O378 C386 1.315 . S
Cd379 O378 2.223 . S
Cd379 O382 2.297 . S
Cd379 O383 2.439 . S
Cd379 O389 2.240 . S
Cd380 O381 2.240 . S
Cd380 O388 2.223 . S
Cd380 O390 2.297 . S
Cd380 O391 2.439 . S
O381 Cd380 2.240 . S
O381 C386 1.279 . S
O382 Cd379 2.297 . S
O382 C384 1.247 . S
O383 Cd379 2.439 . S
O383 C384 1.208 . S
C384 O382 1.247 . S
C384 O383 1.208 . S
C385 O390 1.247 . S
C385 O391 1.208 . S
C386 O378 1.315 . S
C386 O381 1.279 . S
C387 O388 1.315 . S
C387 O389 1.279 . S
O388 Cd380 2.223 . S
O388 C387 1.315 . S
O389 Cd379 2.240 . S
O389 C387 1.279 . S
O390 Cd380 2.297 . S
O390 C385 1.247 . S
O391 Cd380 2.439 . S
O391 C385 1.208 . S
O392 Cd393 2.223 . S
O392 C400 1.315 . S
Cd393 O392 2.223 . S
Cd393 O396 2.297 . S
Cd393 O397 2.439 . S
Cd393 O403 2.240 . S
Cd394 O395 2.240 . S
Cd394 O402 2.223 . S
Cd394 O404 2.297 . S
Cd394 O405 2.439 . S
O395 Cd394 2.240 . S
O395 C400 1.279 . S
O396 Cd393 2.297 . S
O396 C398 1.247 . S
O397 Cd393 2.439 . S
O397 C398 1.208 . S
C398 O396 1.247 . S
C398 O397 1.208 . S
C399 O404 1.247 . S
C399 O405 1.208 . S
C400 O392 1.315 . S
C400 O395 1.279 . S
C401 O402 1.315 . S
C401 O403 1.279 . S
O402 Cd394 2.223 . S
O402 C401 1.315 . S
O403 Cd393 2.240 . S
O403 C401 1.279 . S
O404 Cd394 2.297 . S
O404 C399 1.247 . S
O405 Cd394 2.439 . S
O405 C399 1.208 . S
O406 Cd407 2.223 . S
O406 C414 1.315 . S
Cd407 O406 2.223 . S
Cd407 O410 2.297 . S
Cd407 O411 2.439 . S
Cd407 O417 2.240 . S
Cd408 O409 2.240 . S
Cd408 O416 2.223 . S
Cd408 O418 2.297 . S
Cd408 O419 2.439 . S
O409 Cd408 2.240 . S
O409 C414 1.279 . S
O410 Cd407 2.297 . S
O410 C412 1.247 . S
O411 Cd407 2.439 . S
O411 C412 1.208 . S
C412 O410 1.247 . S
C412 O411 1.208 . S
C413 O418 1.247 . S
C413 O419 1.208 . S
C414 O406 1.315 . S
C414 O409 1.279 . S
C415 O416 1.315 . S
C415 O417 1.279 . S
O416 Cd408 2.223 . S
O416 C415 1.315 . S
O417 Cd407 2.240 . S
O417 C415 1.279 . S
O418 Cd408 2.297 . S
O418 C413 1.247 . S
O419 Cd408 2.439 . S
O419 C413 1.208 . S
O420 Cd421 2.223 . S
O420 C428 1.315 . S
Cd421 O420 2.223 . S
Cd421 O424 2.297 . S
Cd421 O425 2.439 . S
Cd421 O431 2.240 . S
Cd422 O423 2.240 . S
Cd422 O430 2.223 . S
Cd422 O432 2.297 . S
Cd422 O433 2.439 . S
O423 Cd422 2.240 . S
O423 C428 1.279 . S
O424 Cd421 2.297 . S
O424 C426 1.247 . S
O425 Cd421 2.439 . S
O425 C426 1.208 . S
C426 O424 1.247 . S
C426 O425 1.208 . S
C427 O432 1.247 . S
C427 O433 1.208 . S
C428 O420 1.315 . S
C428 O423 1.279 . S
C429 O430 1.315 . S
C429 O431 1.279 . S
O430 Cd422 2.223 . S
O430 C429 1.315 . S
O431 Cd421 2.240 . S
O431 C429 1.279 . S
O432 Cd422 2.297 . S
O432 C427 1.247 . S
O433 Cd422 2.439 . S
O433 C427 1.208 . S
O434 Cd435 2.223 . S
O434 C442 1.315 . S
Cd435 O434 2.223 . S
Cd435 O438 2.297 . S
Cd435 O439 2.439 . S
Cd435 O445 2.240 . S
Cd436 O437 2.240 . S
Cd436 O444 2.223 . S
Cd436 O446 2.297 . S
Cd436 O447 2.439 . S
O437 Cd436 2.240 . S
O437 C442 1.279 . S
O438 Cd435 2.297 . S
O438 C440 1.247 . S
O439 Cd435 2.439 . S
O439 C440 1.208 . S
C440 O438 1.247 . S
C440 O439 1.208 . S
C441 O446 1.247 . S
C441 O447 1.208 . S
C442 O434 1.315 . S
C442 O437 1.279 . S
C443 O444 1.315 . S
C443 O445 1.279 . S
O444 Cd436 2.223 . S
O444 C443 1.315 . S
O445 Cd435 2.240 . S
O445 C443 1.279 . S
O446 Cd436 2.297 . S
O446 C441 1.247 . S
O447 Cd436 2.439 . S
O447 C441 1.208 . S
H448 C456 0.950 . S
H449 C461 0.950 . S
H450 C458 0.950 . S
H451 C460 0.950 . S
H452 C462 0.950 . S
H453 C464 0.950 . S
H454 C466 0.950 . S
H455 C467 0.950 . S
C456 H448 0.950 . S
C456 C457 1.386 . S
C456 C458 1.391 . S
C457 C456 1.386 . S
C457 C461 1.393 . S
C458 H450 0.950 . S
C458 C456 1.391 . S
C458 C459 1.400 . S
C459 C458 1.400 . S
C459 C460 1.398 . S
C459 C465 1.491 . S
C460 H451 0.950 . S
C460 C459 1.398 . S
C460 C461 1.391 . S
C461 H449 0.950 . S
C461 C457 1.393 . S
C461 C460 1.391 . S
C462 H452 0.950 . S
C462 C463 1.386 . S
C462 C464 1.391 . S
C463 C462 1.386 . S
C463 C467 1.393 . S
C464 H453 0.950 . S
C464 C462 1.391 . S
C464 C465 1.400 . S
C465 C459 1.491 . S
C465 C464 1.400 . S
C465 C466 1.398 . S
C466 H454 0.950 . S
C466 C465 1.398 . S
C466 C467 1.391 . S
C467 H455 0.950 . S
C467 C463 1.393 . S
C467 C466 1.391 . S
H468 C476 0.950 . S
H469 C481 0.950 . S
H470 C478 0.950 . S
H471 C480 0.950 . S
H472 C482 0.950 . S
H473 C484 0.950 . S
H474 C486 0.950 . S
H475 C487 0.950 . S
C476 H468 0.950 . S
C476 C477 1.386 . S
C476 C478 1.391 . S
C477 C476 1.386 . S
C477 C481 1.393 . S
C478 H470 0.950 . S
C478 C476 1.391 . S
C478 C479 1.400 . S
C479 C478 1.400 . S
C479 C480 1.398 . S
C479 C485 1.491 . S
C480 H471 0.950 . S
C480 C479 1.398 . S
C480 C481 1.391 . S
C481 H469 0.950 . S
C481 C477 1.393 . S
C481 C480 1.391 . S
C482 H472 0.950 . S
C482 C483 1.386 . S
C482 C484 1.391 . S
C483 C482 1.386 . S
C483 C487 1.393 . S
C484 H473 0.950 . S
C484 C482 1.391 . S
C484 C485 1.400 . S
C485 C479 1.491 . S
C485 C484 1.400 . S
C485 C486 1.398 . S
C486 H474 0.950 . S
C486 C485 1.398 . S
C486 C487 1.391 . S
C487 H475 0.950 . S
C487 C483 1.393 . S
C487 C486 1.391 . S
H488 C496 0.950 . S
H489 C501 0.950 . S
H490 C498 0.950 . S
H491 C500 0.950 . S
H492 C502 0.950 . S
H493 C504 0.950 . S
H494 C506 0.950 . S
H495 C507 0.950 . S
C496 H488 0.950 . S
C496 C497 1.386 . S
C496 C498 1.391 . S
C497 C496 1.386 . S
C497 C501 1.393 . S
C498 H490 0.950 . S
C498 C496 1.391 . S
C498 C499 1.400 . S
C499 C498 1.400 . S
C499 C500 1.398 . S
C499 C505 1.491 . S
C500 H491 0.950 . S
C500 C499 1.398 . S
C500 C501 1.391 . S
C501 H489 0.950 . S
C501 C497 1.393 . S
C501 C500 1.391 . S
C502 H492 0.950 . S
C502 C503 1.386 . S
C502 C504 1.391 . S
C503 C502 1.386 . S
C503 C507 1.393 . S
C504 H493 0.950 . S
C504 C502 1.391 . S
C504 C505 1.400 . S
C505 C499 1.491 . S
C505 C504 1.400 . S
C505 C506 1.398 . S
C506 H494 0.950 . S
C506 C505 1.398 . S
C506 C507 1.391 . S
C507 H495 0.950 . S
C507 C503 1.393 . S
C507 C506 1.391 . S
H508 C516 0.950 . S
H509 C521 0.950 . S
H510 C518 0.950 . S
H511 C520 0.950 . S
H512 C522 0.950 . S
H513 C524 0.950 . S
H514 C526 0.950 . S
H515 C527 0.950 . S
C516 H508 0.950 . S
C516 C517 1.386 . S
C516 C518 1.391 . S
C517 C516 1.386 . S
C517 C521 1.393 . S
C518 H510 0.950 . S
C518 C516 1.391 . S
C518 C519 1.400 . S
C519 C518 1.400 . S
C519 C520 1.398 . S
C519 C525 1.491 . S
C520 H511 0.950 . S
C520 C519 1.398 . S
C520 C521 1.391 . S
C521 H509 0.950 . S
C521 C517 1.393 . S
C521 C520 1.391 . S
C522 H512 0.950 . S
C522 C523 1.386 . S
C522 C524 1.391 . S
C523 C522 1.386 . S
C523 C527 1.393 . S
C524 H513 0.950 . S
C524 C522 1.391 . S
C524 C525 1.400 . S
C525 C519 1.491 . S
C525 C524 1.400 . S
C525 C526 1.398 . S
C526 H514 0.950 . S
C526 C525 1.398 . S
C526 C527 1.391 . S
C527 H515 0.950 . S
C527 C523 1.393 . S
C527 C526 1.391 . S
H528 C536 0.950 . S
H529 C541 0.950 . S
H530 C538 0.950 . S
H531 C540 0.950 . S
H532 C542 0.950 . S
H533 C544 0.950 . S
H534 C546 0.950 . S
H535 C547 0.950 . S
C536 H528 0.950 . S
C536 C537 1.386 . S
C536 C538 1.391 . S
C537 C536 1.386 . S
C537 C541 1.393 . S
C538 H530 0.950 . S
C538 C536 1.391 . S
C538 C539 1.400 . S
C539 C538 1.400 . S
C539 C540 1.398 . S
C539 C545 1.491 . S
C540 H531 0.950 . S
C540 C539 1.398 . S
C540 C541 1.391 . S
C541 H529 0.950 . S
C541 C537 1.393 . S
C541 C540 1.391 . S
C542 H532 0.950 . S
C542 C543 1.386 . S
C542 C544 1.391 . S
C543 C542 1.386 . S
C543 C547 1.393 . S
C544 H533 0.950 . S
C544 C542 1.391 . S
C544 C545 1.400 . S
C545 C539 1.491 . S
C545 C544 1.400 . S
C545 C546 1.398 . S
C546 H534 0.950 . S
C546 C545 1.398 . S
C546 C547 1.391 . S
C547 H535 0.950 . S
C547 C543 1.393 . S
C547 C546 1.391 . S
H548 C556 0.950 . S
H549 C561 0.950 . S
H550 C558 0.950 . S
H551 C560 0.950 . S
H552 C562 0.950 . S
H553 C564 0.950 . S
H554 C566 0.950 . S
H555 C567 0.950 . S
C556 H548 0.950 . S
C556 C557 1.386 . S
C556 C558 1.391 . S
C557 C556 1.386 . S
C557 C561 1.393 . S
C558 H550 0.950 . S
C558 C556 1.391 . S
C558 C559 1.400 . S
C559 C558 1.400 . S
C559 C560 1.398 . S
C559 C565 1.491 . S
C560 H551 0.950 . S
C560 C559 1.398 . S
C560 C561 1.391 . S
C561 H549 0.950 . S
C561 C557 1.393 . S
C561 C560 1.391 . S
C562 H552 0.950 . S
C562 C563 1.386 . S
C562 C564 1.391 . S
C563 C562 1.386 . S
C563 C567 1.393 . S
C564 H553 0.950 . S
C564 C562 1.391 . S
C564 C565 1.400 . S
C565 C559 1.491 . S
C565 C564 1.400 . S
C565 C566 1.398 . S
C566 H554 0.950 . S
C566 C565 1.398 . S
C566 C567 1.391 . S
C567 H555 0.950 . S
C567 C563 1.393 . S
C567 C566 1.391 . S
H568 C576 0.950 . S
H569 C581 0.950 . S
H570 C578 0.950 . S
H571 C580 0.950 . S
H572 C582 0.950 . S
H573 C584 0.950 . S
H574 C586 0.950 . S
H575 C587 0.950 . S
C576 H568 0.950 . S
C576 C577 1.386 . S
C576 C578 1.391 . S
C577 C576 1.386 . S
C577 C581 1.393 . S
C578 H570 0.950 . S
C578 C576 1.391 . S
C578 C579 1.400 . S
C579 C578 1.400 . S
C579 C580 1.398 . S
C579 C585 1.491 . S
C580 H571 0.950 . S
C580 C579 1.398 . S
C580 C581 1.391 . S
C581 H569 0.950 . S
C581 C577 1.393 . S
C581 C580 1.391 . S
C582 H572 0.950 . S
C582 C583 1.386 . S
C582 C584 1.391 . S
C583 C582 1.386 . S
C583 C587 1.393 . S
C584 H573 0.950 . S
C584 C582 1.391 . S
C584 C585 1.400 . S
C585 C579 1.491 . S
C585 C584 1.400 . S
C585 C586 1.398 . S
C586 H574 0.950 . S
C586 C585 1.398 . S
C586 C587 1.391 . S
C587 H575 0.950 . S
C587 C583 1.393 . S
C587 C586 1.391 . S
H588 C596 0.950 . S
H589 C601 0.950 . S
H590 C598 0.950 . S
H591 C600 0.950 . S
H592 C602 0.950 . S
H593 C604 0.950 . S
H594 C606 0.950 . S
H595 C607 0.950 . S
C596 H588 0.950 . S
C596 C597 1.386 . S
C596 C598 1.391 . S
C597 C596 1.386 . S
C597 C601 1.393 . S
C598 H590 0.950 . S
C598 C596 1.391 . S
C598 C599 1.400 . S
C599 C598 1.400 . S
C599 C600 1.398 . S
C599 C605 1.491 . S
C600 H591 0.950 . S
C600 C599 1.398 . S
C600 C601 1.391 . S
C601 H589 0.950 . S
C601 C597 1.393 . S
C601 C600 1.391 . S
C602 H592 0.950 . S
C602 C603 1.386 . S
C602 C604 1.391 . S
C603 C602 1.386 . S
C603 C607 1.393 . S
C604 H593 0.950 . S
C604 C602 1.391 . S
C604 C605 1.400 . S
C605 C599 1.491 . S
C605 C604 1.400 . S
C605 C606 1.398 . S
C606 H594 0.950 . S
C606 C605 1.398 . S
C606 C607 1.391 . S
C607 H595 0.950 . S
C607 C603 1.393 . S
C607 C606 1.391 . S
H608 C616 0.950 . S
H609 C621 0.950 . S
H610 C618 0.950 . S
H611 C620 0.950 . S
H612 C622 0.950 . S
H613 C624 0.950 . S
H614 C626 0.950 . S
H615 C627 0.950 . S
C616 H608 0.950 . S
C616 C617 1.386 . S
C616 C618 1.391 . S
C617 C616 1.386 . S
C617 C621 1.393 . S
C618 H610 0.950 . S
C618 C616 1.391 . S
C618 C619 1.400 . S
C619 C618 1.400 . S
C619 C620 1.398 . S
C619 C625 1.491 . S
C620 H611 0.950 . S
C620 C619 1.398 . S
C620 C621 1.391 . S
C621 H609 0.950 . S
C621 C617 1.393 . S
C621 C620 1.391 . S
C622 H612 0.950 . S
C622 C623 1.386 . S
C622 C624 1.391 . S
C623 C622 1.386 . S
C623 C627 1.393 . S
C624 H613 0.950 . S
C624 C622 1.391 . S
C624 C625 1.400 . S
C625 C619 1.491 . S
C625 C624 1.400 . S
C625 C626 1.398 . S
C626 H614 0.950 . S
C626 C625 1.398 . S
C626 C627 1.391 . S
C627 H615 0.950 . S
C627 C623 1.393 . S
C627 C626 1.391 . S
H628 C636 0.950 . S
H629 C641 0.950 . S
H630 C638 0.950 . S
H631 C640 0.950 . S
H632 C642 0.950 . S
H633 C644 0.950 . S
H634 C646 0.950 . S
H635 C647 0.950 . S
C636 H628 0.950 . S
C636 C637 1.386 . S
C636 C638 1.391 . S
C637 C636 1.386 . S
C637 C641 1.393 . S
C638 H630 0.950 . S
C638 C636 1.391 . S
C638 C639 1.400 . S
C639 C638 1.400 . S
C639 C640 1.398 . S
C639 C645 1.491 . S
C640 H631 0.950 . S
C640 C639 1.398 . S
C640 C641 1.391 . S
C641 H629 0.950 . S
C641 C637 1.393 . S
C641 C640 1.391 . S
C642 H632 0.950 . S
C642 C643 1.386 . S
C642 C644 1.391 . S
C643 C642 1.386 . S
C643 C647 1.393 . S
C644 H633 0.950 . S
C644 C642 1.391 . S
C644 C645 1.400 . S
C645 C639 1.491 . S
C645 C644 1.400 . S
C645 C646 1.398 . S
C646 H634 0.950 . S
C646 C645 1.398 . S
C646 C647 1.391 . S
C647 H635 0.950 . S
C647 C643 1.393 . S
C647 C646 1.391 . S
H648 C656 0.950 . S
H649 C661 0.950 . S
H650 C658 0.950 . S
H651 C660 0.950 . S
H652 C662 0.950 . S
H653 C664 0.950 . S
H654 C666 0.950 . S
H655 C667 0.950 . S
C656 H648 0.950 . S
C656 C657 1.386 . S
C656 C658 1.391 . S
C657 C656 1.386 . S
C657 C661 1.393 . S
C658 H650 0.950 . S
C658 C656 1.391 . S
C658 C659 1.400 . S
C659 C658 1.400 . S
C659 C660 1.398 . S
C659 C665 1.491 . S
C660 H651 0.950 . S
C660 C659 1.398 . S
C660 C661 1.391 . S
C661 H649 0.950 . S
C661 C657 1.393 . S
C661 C660 1.391 . S
C662 H652 0.950 . S
C662 C663 1.386 . S
C662 C664 1.391 . S
C663 C662 1.386 . S
C663 C667 1.393 . S
C664 H653 0.950 . S
C664 C662 1.391 . S
C664 C665 1.400 . S
C665 C659 1.491 . S
C665 C664 1.400 . S
C665 C666 1.398 . S
C666 H654 0.950 . S
C666 C665 1.398 . S
C666 C667 1.391 . S
C667 H655 0.950 . S
C667 C663 1.393 . S
C667 C666 1.391 . S
H668 C676 0.950 . S
H669 C681 0.950 . S
H670 C678 0.950 . S
H671 C680 0.950 . S
H672 C682 0.950 . S
H673 C684 0.950 . S
H674 C686 0.950 . S
H675 C687 0.950 . S
C676 H668 0.950 . S
C676 C677 1.386 . S
C676 C678 1.391 . S
C677 C676 1.386 . S
C677 C681 1.393 . S
C678 H670 0.950 . S
C678 C676 1.391 . S
C678 C679 1.400 . S
C679 C678 1.400 . S
C679 C680 1.398 . S
C679 C685 1.491 . S
C680 H671 0.950 . S
C680 C679 1.398 . S
C680 C681 1.391 . S
C681 H669 0.950 . S
C681 C677 1.393 . S
C681 C680 1.391 . S
C682 H672 0.950 . S
C682 C683 1.386 . S
C682 C684 1.391 . S
C683 C682 1.386 . S
C683 C687 1.393 . S
C684 H673 0.950 . S
C684 C682 1.391 . S
C684 C685 1.400 . S
C685 C679 1.491 . S
C685 C684 1.400 . S
C685 C686 1.398 . S
C686 H674 0.950 . S
C686 C685 1.398 . S
C686 C687 1.391 . S
C687 H675 0.950 . S
C687 C683 1.393 . S
C687 C686 1.391 . S
H688 C696 0.950 . S
H689 C701 0.950 . S
H690 C698 0.950 . S
H691 C700 0.950 . S
H692 C702 0.950 . S
H693 C704 0.950 . S
H694 C706 0.950 . S
H695 C707 0.950 . S
C696 H688 0.950 . S
C696 C697 1.386 . S
C696 C698 1.391 . S
C697 C696 1.386 . S
C697 C701 1.393 . S
C698 H690 0.950 . S
C698 C696 1.391 . S
C698 C699 1.400 . S
C699 C698 1.400 . S
C699 C700 1.398 . S
C699 C705 1.491 . S
C700 H691 0.950 . S
C700 C699 1.398 . S
C700 C701 1.391 . S
C701 H689 0.950 . S
C701 C697 1.393 . S
C701 C700 1.391 . S
C702 H692 0.950 . S
C702 C703 1.386 . S
C702 C704 1.391 . S
C703 C702 1.386 . S
C703 C707 1.393 . S
C704 H693 0.950 . S
C704 C702 1.391 . S
C704 C705 1.400 . S
C705 C699 1.491 . S
C705 C704 1.400 . S
C705 C706 1.398 . S
C706 H694 0.950 . S
C706 C705 1.398 . S
C706 C707 1.391 . S
C707 H695 0.950 . S
C707 C703 1.393 . S
C707 C706 1.391 . S
H708 C716 0.950 . S
H709 C721 0.950 . S
H710 C718 0.950 . S
H711 C720 0.950 . S
H712 C722 0.950 . S
H713 C724 0.950 . S
H714 C726 0.950 . S
H715 C727 0.950 . S
C716 H708 0.950 . S
C716 C717 1.386 . S
C716 C718 1.391 . S
C717 C716 1.386 . S
C717 C721 1.393 . S
C718 H710 0.950 . S
C718 C716 1.391 . S
C718 C719 1.400 . S
C719 C718 1.400 . S
C719 C720 1.398 . S
C719 C725 1.491 . S
C720 H711 0.950 . S
C720 C719 1.398 . S
C720 C721 1.391 . S
C721 H709 0.950 . S
C721 C717 1.393 . S
C721 C720 1.391 . S
C722 H712 0.950 . S
C722 C723 1.386 . S
C722 C724 1.391 . S
C723 C722 1.386 . S
C723 C727 1.393 . S
C724 H713 0.950 . S
C724 C722 1.391 . S
C724 C725 1.400 . S
C725 C719 1.491 . S
C725 C724 1.400 . S
C725 C726 1.398 . S
C726 H714 0.950 . S
C726 C725 1.398 . S
C726 C727 1.391 . S
C727 H715 0.950 . S
C727 C723 1.393 . S
C727 C726 1.391 . S
H728 C736 0.950 . S
H729 C741 0.950 . S
H730 C738 0.950 . S
H731 C740 0.950 . S
H732 C742 0.950 . S
H733 C744 0.950 . S
H734 C746 0.950 . S
H735 C747 0.950 . S
C736 H728 0.950 . S
C736 C737 1.386 . S
C736 C738 1.391 . S
C737 C736 1.386 . S
C737 C741 1.393 . S
C738 H730 0.950 . S
C738 C736 1.391 . S
C738 C739 1.400 . S
C739 C738 1.400 . S
C739 C740 1.398 . S
C739 C745 1.491 . S
C740 H731 0.950 . S
C740 C739 1.398 . S
C740 C741 1.391 . S
C741 H729 0.950 . S
C741 C737 1.393 . S
C741 C740 1.391 . S
C742 H732 0.950 . S
C742 C743 1.386 . S
C742 C744 1.391 . S
C743 C742 1.386 . S
C743 C747 1.393 . S
C744 H733 0.950 . S
C744 C742 1.391 . S
C744 C745 1.400 . S
C745 C739 1.491 . S
C745 C744 1.400 . S
C745 C746 1.398 . S
C746 H734 0.950 . S
C746 C745 1.398 . S
C746 C747 1.391 . S
C747 H735 0.950 . S
C747 C743 1.393 . S
C747 C746 1.391 . S
H748 C756 0.950 . S
H749 C761 0.950 . S
H750 C758 0.950 . S
H751 C760 0.950 . S
H752 C762 0.950 . S
H753 C764 0.950 . S
H754 C766 0.950 . S
H755 C767 0.950 . S
C756 H748 0.950 . S
C756 C757 1.386 . S
C756 C758 1.391 . S
C757 C756 1.386 . S
C757 C761 1.393 . S
C758 H750 0.950 . S
C758 C756 1.391 . S
C758 C759 1.400 . S
C759 C758 1.400 . S
C759 C760 1.398 . S
C759 C765 1.491 . S
C760 H751 0.950 . S
C760 C759 1.398 . S
C760 C761 1.391 . S
C761 H749 0.950 . S
C761 C757 1.393 . S
C761 C760 1.391 . S
C762 H752 0.950 . S
C762 C763 1.386 . S
C762 C764 1.391 . S
C763 C762 1.386 . S
C763 C767 1.393 . S
C764 H753 0.950 . S
C764 C762 1.391 . S
C764 C765 1.400 . S
C765 C759 1.491 . S
C765 C764 1.400 . S
C765 C766 1.398 . S
C766 H754 0.950 . S
C766 C765 1.398 . S
C766 C767 1.391 . S
C767 H755 0.950 . S
C767 C763 1.393 . S
C767 C766 1.391 . S
H768 C776 0.950 . S
H769 C781 0.950 . S
H770 C778 0.950 . S
H771 C780 0.950 . S
H772 C782 0.950 . S
H773 C784 0.950 . S
H774 C786 0.950 . S
H775 C787 0.950 . S
C776 H768 0.950 . S
C776 C777 1.386 . S
C776 C778 1.391 . S
C777 C776 1.386 . S
C777 C781 1.393 . S
C778 H770 0.950 . S
C778 C776 1.391 . S
C778 C779 1.400 . S
C779 C778 1.400 . S
C779 C780 1.398 . S
C779 C785 1.491 1_455 S
C780 H771 0.950 . S
C780 C779 1.398 . S
C780 C781 1.391 . S
C781 H769 0.950 . S
C781 C777 1.393 . S
C781 C780 1.391 . S
C782 H772 0.950 . S
C782 C783 1.386 . S
C782 C784 1.391 . S
C783 C782 1.386 . S
C783 C787 1.393 . S
C784 H773 0.950 . S
C784 C782 1.391 . S
C784 C785 1.400 . S
C785 C779 1.491 1_655 S
C785 C784 1.400 . S
C785 C786 1.398 . S
C786 H774 0.950 . S
C786 C785 1.398 . S
C786 C787 1.391 . S
C787 H775 0.950 . S
C787 C783 1.393 . S
C787 C786 1.391 . S
H788 C796 0.950 . S
H789 C801 0.950 . S
H790 C798 0.950 . S
H791 C800 0.950 . S
H792 C802 0.950 . S
H793 C804 0.950 . S
H794 C806 0.950 . S
H795 C807 0.950 . S
C796 H788 0.950 . S
C796 C797 1.386 . S
C796 C798 1.391 . S
C797 C796 1.386 . S
C797 C801 1.393 . S
C798 H790 0.950 . S
C798 C796 1.391 . S
C798 C799 1.400 . S
C799 C798 1.400 . S
C799 C800 1.398 . S
C799 C805 1.491 . S
C800 H791 0.950 . S
C800 C799 1.398 . S
C800 C801 1.391 . S
C801 H789 0.950 . S
C801 C797 1.393 . S
C801 C800 1.391 . S
C802 H792 0.950 . S
C802 C803 1.386 . S
C802 C804 1.391 . S
C803 C802 1.386 . S
C803 C807 1.393 . S
C804 H793 0.950 . S
C804 C802 1.391 . S
C804 C805 1.400 . S
C805 C799 1.491 . S
C805 C804 1.400 . S
C805 C806 1.398 . S
C806 H794 0.950 . S
C806 C805 1.398 . S
C806 C807 1.391 . S
C807 H795 0.950 . S
C807 C803 1.393 . S
C807 C806 1.391 . S
H808 C816 0.950 . S
H809 C821 0.950 . S
H810 C818 0.950 . S
H811 C820 0.950 . S
H812 C822 0.950 . S
H813 C824 0.950 . S
H814 C826 0.950 . S
H815 C827 0.950 . S
C816 H808 0.950 . S
C816 C817 1.386 . S
C816 C818 1.391 . S
C817 C816 1.386 . S
C817 C821 1.393 . S
C818 H810 0.950 . S
C818 C816 1.391 . S
C818 C819 1.400 . S
C819 C818 1.400 . S
C819 C820 1.398 . S
C819 C825 1.491 . S
C820 H811 0.950 . S
C820 C819 1.398 . S
C820 C821 1.391 . S
C821 H809 0.950 . S
C821 C817 1.393 . S
C821 C820 1.391 . S
C822 H812 0.950 . S
C822 C823 1.386 . S
C822 C824 1.391 . S
C823 C822 1.386 . S
C823 C827 1.393 . S
C824 H813 0.950 . S
C824 C822 1.391 . S
C824 C825 1.400 . S
C825 C819 1.491 . S
C825 C824 1.400 . S
C825 C826 1.398 . S
C826 H814 0.950 . S
C826 C825 1.398 . S
C826 C827 1.391 . S
C827 H815 0.950 . S
C827 C823 1.393 . S
C827 C826 1.391 . S
H828 C836 0.950 . S
H829 C841 0.950 . S
H830 C838 0.950 . S
H831 C840 0.950 . S
H832 C842 0.950 . S
H833 C844 0.950 . S
H834 C846 0.950 . S
H835 C847 0.950 . S
C836 H828 0.950 . S
C836 C837 1.386 . S
C836 C838 1.391 . S
C837 C836 1.386 . S
C837 C841 1.393 . S
C838 H830 0.950 . S
C838 C836 1.391 . S
C838 C839 1.400 . S
C839 C838 1.400 . S
C839 C840 1.398 . S
C839 C845 1.491 . S
C840 H831 0.950 . S
C840 C839 1.398 . S
C840 C841 1.391 . S
C841 H829 0.950 . S
C841 C837 1.393 . S
C841 C840 1.391 . S
C842 H832 0.950 . S
C842 C843 1.386 . S
C842 C844 1.391 . S
C843 C842 1.386 . S
C843 C847 1.393 . S
C844 H833 0.950 . S
C844 C842 1.391 . S
C844 C845 1.400 . S
C845 C839 1.491 . S
C845 C844 1.400 . S
C845 C846 1.398 . S
C846 H834 0.950 . S
C846 C845 1.398 . S
C846 C847 1.391 . S
C847 H835 0.950 . S
C847 C843 1.393 . S
C847 C846 1.391 . S
H848 C856 0.950 . S
H849 C861 0.950 . S
H850 C858 0.950 . S
H851 C860 0.950 . S
H852 C862 0.950 . S
H853 C864 0.950 . S
H854 C866 0.950 . S
H855 C867 0.950 . S
C856 H848 0.950 . S
C856 C857 1.386 . S
C856 C858 1.391 . S
C857 C856 1.386 . S
C857 C861 1.393 . S
C858 H850 0.950 . S
C858 C856 1.391 . S
C858 C859 1.400 . S
C859 C858 1.400 . S
C859 C860 1.398 . S
C859 C865 1.491 1_655 S
C860 H851 0.950 . S
C860 C859 1.398 . S
C860 C861 1.391 . S
C861 H849 0.950 . S
C861 C857 1.393 . S
C861 C860 1.391 . S
C862 H852 0.950 . S
C862 C863 1.386 . S
C862 C864 1.391 . S
C863 C862 1.386 . S
C863 C867 1.393 . S
C864 H853 0.950 . S
C864 C862 1.391 . S
C864 C865 1.400 . S
C865 C859 1.491 1_455 S
C865 C864 1.400 . S
C865 C866 1.398 . S
C866 H854 0.950 . S
C866 C865 1.398 . S
C866 C867 1.391 . S
C867 H855 0.950 . S
C867 C863 1.393 . S
C867 C866 1.391 . S
H868 C876 0.950 . S
H869 C881 0.950 . S
H870 C878 0.950 . S
H871 C880 0.950 . S
H872 C882 0.950 . S
H873 C884 0.950 . S
H874 C886 0.950 . S
H875 C887 0.950 . S
C876 H868 0.950 . S
C876 C877 1.386 . S
C876 C878 1.391 . S
C877 C876 1.386 . S
C877 C881 1.393 . S
C878 H870 0.950 . S
C878 C876 1.391 . S
C878 C879 1.400 . S
C879 C878 1.400 . S
C879 C880 1.398 . S
C879 C885 1.491 . S
C880 H871 0.950 . S
C880 C879 1.398 . S
C880 C881 1.391 . S
C881 H869 0.950 . S
C881 C877 1.393 . S
C881 C880 1.391 . S
C882 H872 0.950 . S
C882 C883 1.386 . S
C882 C884 1.391 . S
C883 C882 1.386 . S
C883 C887 1.393 . S
C884 H873 0.950 . S
C884 C882 1.391 . S
C884 C885 1.400 . S
C885 C879 1.491 . S
C885 C884 1.400 . S
C885 C886 1.398 . S
C886 H874 0.950 . S
C886 C885 1.398 . S
C886 C887 1.391 . S
C887 H875 0.950 . S
C887 C883 1.393 . S
C887 C886 1.391 . S
H888 C896 0.950 . S
H889 C901 0.950 . S
H890 C898 0.950 . S
H891 C900 0.950 . S
H892 C902 0.950 . S
H893 C904 0.950 . S
H894 C906 0.950 . S
H895 C907 0.950 . S
C896 H888 0.950 . S
C896 C897 1.386 . S
C896 C898 1.391 . S
C897 C896 1.386 . S
C897 C901 1.393 . S
C898 H890 0.950 . S
C898 C896 1.391 . S
C898 C899 1.400 . S
C899 C898 1.400 . S
C899 C900 1.398 . S
C899 C905 1.491 . S
C900 H891 0.950 . S
C900 C899 1.398 . S
C900 C901 1.391 . S
C901 H889 0.950 . S
C901 C897 1.393 . S
C901 C900 1.391 . S
C902 H892 0.950 . S
C902 C903 1.386 . S
C902 C904 1.391 . S
C903 C902 1.386 . S
C903 C907 1.393 . S
C904 H893 0.950 . S
C904 C902 1.391 . S
C904 C905 1.400 . S
C905 C899 1.491 . S
C905 C904 1.400 . S
C905 C906 1.398 . S
C906 H894 0.950 . S
C906 C905 1.398 . S
C906 C907 1.391 . S
C907 H895 0.950 . S
C907 C903 1.393 . S
C907 C906 1.391 . S
H908 C916 0.950 . S
H909 C921 0.950 . S
H910 C918 0.950 . S
H911 C920 0.950 . S
H912 C922 0.950 . S
H913 C924 0.950 . S
H914 C926 0.950 . S
H915 C927 0.950 . S
C916 H908 0.950 . S
C916 C917 1.386 . S
C916 C918 1.391 . S
C917 C916 1.386 . S
C917 C921 1.393 . S
C918 H910 0.950 . S
C918 C916 1.391 . S
C918 C919 1.400 . S
C919 C918 1.400 . S
C919 C920 1.398 . S
C919 C925 1.491 . S
C920 H911 0.950 . S
C920 C919 1.398 . S
C920 C921 1.391 . S
C921 H909 0.950 . S
C921 C917 1.393 . S
C921 C920 1.391 . S
C922 H912 0.950 . S
C922 C923 1.386 . S
C922 C924 1.391 . S
C923 C922 1.386 . S
C923 C927 1.393 . S
C924 H913 0.950 . S
C924 C922 1.391 . S
C924 C925 1.400 . S
C925 C919 1.491 . S
C925 C924 1.400 . S
C925 C926 1.398 . S
C926 H914 0.950 . S
C926 C925 1.398 . S
C926 C927 1.391 . S
C927 H915 0.950 . S
C927 C923 1.393 . S
C927 C926 1.391 . S
H928 C936 0.950 . S
H929 C941 0.950 . S
H930 C938 0.950 . S
H931 C940 0.950 . S
H932 C942 0.950 . S
H933 C944 0.950 . S
H934 C946 0.950 . S
H935 C947 0.950 . S
C936 H928 0.950 . S
C936 C937 1.386 . S
C936 C938 1.391 . S
C937 C936 1.386 . S
C937 C941 1.393 . S
C938 H930 0.950 . S
C938 C936 1.391 . S
C938 C939 1.400 . S
C939 C938 1.400 . S
C939 C940 1.398 . S
C939 C945 1.491 . S
C940 H931 0.950 . S
C940 C939 1.398 . S
C940 C941 1.391 . S
C941 H929 0.950 . S
C941 C937 1.393 . S
C941 C940 1.391 . S
C942 H932 0.950 . S
C942 C943 1.386 . S
C942 C944 1.391 . S
C943 C942 1.386 . S
C943 C947 1.393 . S
C944 H933 0.950 . S
C944 C942 1.391 . S
C944 C945 1.400 . S
C945 C939 1.491 . S
C945 C944 1.400 . S
C945 C946 1.398 . S
C946 H934 0.950 . S
C946 C945 1.398 . S
C946 C947 1.391 . S
C947 H935 0.950 . S
C947 C943 1.393 . S
C947 C946 1.391 . S
H948 C956 0.950 . S
H949 C961 0.950 . S
H950 C958 0.950 . S
H951 C960 0.950 . S
H952 C962 0.950 . S
H953 C964 0.950 . S
H954 C966 0.950 . S
H955 C967 0.950 . S
C956 H948 0.950 . S
C956 C957 1.386 . S
C956 C958 1.391 . S
C957 C956 1.386 . S
C957 C961 1.393 . S
C958 H950 0.950 . S
C958 C956 1.391 . S
C958 C959 1.400 . S
C959 C958 1.400 . S
C959 C960 1.398 . S
C959 C965 1.491 . S
C960 H951 0.950 . S
C960 C959 1.398 . S
C960 C961 1.391 . S
C961 H949 0.950 . S
C961 C957 1.393 . S
C961 C960 1.391 . S
C962 H952 0.950 . S
C962 C963 1.386 . S
C962 C964 1.391 . S
C963 C962 1.386 . S
C963 C967 1.393 . S
C964 H953 0.950 . S
C964 C962 1.391 . S
C964 C965 1.400 . S
C965 C959 1.491 . S
C965 C964 1.400 . S
C965 C966 1.398 . S
C966 H954 0.950 . S
C966 C965 1.398 . S
C966 C967 1.391 . S
C967 H955 0.950 . S
C967 C963 1.393 . S
C967 C966 1.391 . S
H968 C976 0.950 . S
H969 C981 0.950 . S
H970 C978 0.950 . S
H971 C980 0.950 . S
H972 C982 0.950 . S
H973 C984 0.950 . S
H974 C986 0.950 . S
H975 C987 0.950 . S
C976 H968 0.950 . S
C976 C977 1.386 . S
C976 C978 1.391 . S
C977 C976 1.386 . S
C977 C981 1.393 . S
C978 H970 0.950 . S
C978 C976 1.391 . S
C978 C979 1.400 . S
C979 C978 1.400 . S
C979 C980 1.398 . S
C979 C985 1.491 . S
C980 H971 0.950 . S
C980 C979 1.398 . S
C980 C981 1.391 . S
C981 H969 0.950 . S
C981 C977 1.393 . S
C981 C980 1.391 . S
C982 H972 0.950 . S
C982 C983 1.386 . S
C982 C984 1.391 . S
C983 C982 1.386 . S
C983 C987 1.393 . S
C984 H973 0.950 . S
C984 C982 1.391 . S
C984 C985 1.400 . S
C985 C979 1.491 . S
C985 C984 1.400 . S
C985 C986 1.398 . S
C986 H974 0.950 . S
C986 C985 1.398 . S
C986 C987 1.391 . S
C987 H975 0.950 . S
C987 C983 1.393 . S
C987 C986 1.391 . S
H988 C996 0.950 . S
H989 C1001 0.950 . S
H990 C998 0.950 . S
H991 C1000 0.950 . S
H992 C1002 0.950 . S
H993 C1004 0.950 . S
H994 C1006 0.950 . S
H995 C1007 0.950 . S
C996 H988 0.950 . S
C996 C997 1.386 . S
C996 C998 1.391 . S
C997 C996 1.386 . S
C997 C1001 1.393 . S
C998 H990 0.950 . S
C998 C996 1.391 . S
C998 C999 1.400 . S
C999 C998 1.400 . S
C999 C1000 1.398 . S
C999 C1005 1.491 . S
C1000 H991 0.950 . S
C1000 C999 1.398 . S
C1000 C1001 1.391 . S
C1001 H989 0.950 . S
C1001 C997 1.393 . S
C1001 C1000 1.391 . S
C1002 H992 0.950 . S
C1002 C1003 1.386 . S
C1002 C1004 1.391 . S
C1003 C1002 1.386 . S
C1003 C1007 1.393 . S
C1004 H993 0.950 . S
C1004 C1002 1.391 . S
C1004 C1005 1.400 . S
C1005 C999 1.491 . S
C1005 C1004 1.400 . S
C1005 C1006 1.398 . S
C1006 H994 0.950 . S
C1006 C1005 1.398 . S
C1006 C1007 1.391 . S
C1007 H995 0.950 . S
C1007 C1003 1.393 . S
C1007 C1006 1.391 . S
H1008 C1016 0.950 . S
H1009 C1021 0.950 . S
H1010 C1018 0.950 . S
H1011 C1020 0.950 . S
H1012 C1022 0.950 . S
H1013 C1024 0.950 . S
H1014 C1026 0.950 . S
H1015 C1027 0.950 . S
C1016 H1008 0.950 . S
C1016 C1017 1.386 . S
C1016 C1018 1.391 . S
C1017 C1016 1.386 . S
C1017 C1021 1.393 . S
C1018 H1010 0.950 . S
C1018 C1016 1.391 . S
C1018 C1019 1.400 . S
C1019 C1018 1.400 . S
C1019 C1020 1.398 . S
C1019 C1025 1.491 . S
C1020 H1011 0.950 . S
C1020 C1019 1.398 . S
C1020 C1021 1.391 . S
C1021 H1009 0.950 . S
C1021 C1017 1.393 . S
C1021 C1020 1.391 . S
C1022 H1012 0.950 . S
C1022 C1023 1.386 . S
C1022 C1024 1.391 . S
C1023 C1022 1.386 . S
C1023 C1027 1.393 . S
C1024 H1013 0.950 . S
C1024 C1022 1.391 . S
C1024 C1025 1.400 . S
C1025 C1019 1.491 . S
C1025 C1024 1.400 . S
C1025 C1026 1.398 . S
C1026 H1014 0.950 . S
C1026 C1025 1.398 . S
C1026 C1027 1.391 . S
C1027 H1015 0.950 . S
C1027 C1023 1.393 . S
C1027 C1026 1.391 . S
H1028 C1036 0.950 . S
H1029 C1041 0.950 . S
H1030 C1038 0.950 . S
H1031 C1040 0.950 . S
H1032 C1042 0.950 . S
H1033 C1044 0.950 . S
H1034 C1046 0.950 . S
H1035 C1047 0.950 . S
C1036 H1028 0.950 . S
C1036 C1037 1.386 . S
C1036 C1038 1.391 . S
C1037 C1036 1.386 . S
C1037 C1041 1.393 . S
C1038 H1030 0.950 . S
C1038 C1036 1.391 . S
C1038 C1039 1.400 . S
C1039 C1038 1.400 . S
C1039 C1040 1.398 . S
C1039 C1045 1.491 1_655 S
C1040 H1031 0.950 . S
C1040 C1039 1.398 . S
C1040 C1041 1.391 . S
C1041 H1029 0.950 . S
C1041 C1037 1.393 . S
C1041 C1040 1.391 . S
C1042 H1032 0.950 . S
C1042 C1043 1.386 . S
C1042 C1044 1.391 . S
C1043 C1042 1.386 . S
C1043 C1047 1.393 . S
C1044 H1033 0.950 . S
C1044 C1042 1.391 . S
C1044 C1045 1.400 . S
C1045 C1039 1.491 1_455 S
C1045 C1044 1.400 . S
C1045 C1046 1.398 . S
C1046 H1034 0.950 . S
C1046 C1045 1.398 . S
C1046 C1047 1.391 . S
C1047 H1035 0.950 . S
C1047 C1043 1.393 . S
C1047 C1046 1.391 . S
H1048 C1056 0.950 . S
H1049 C1061 0.950 . S
H1050 C1058 0.950 . S
H1051 C1060 0.950 . S
H1052 C1062 0.950 . S
H1053 C1064 0.950 . S
H1054 C1066 0.950 . S
H1055 C1067 0.950 . S
C1056 H1048 0.950 . S
C1056 C1057 1.386 . S
C1056 C1058 1.391 . S
C1057 C1056 1.386 . S
C1057 C1061 1.393 . S
C1058 H1050 0.950 . S
C1058 C1056 1.391 . S
C1058 C1059 1.400 . S
C1059 C1058 1.400 . S
C1059 C1060 1.398 . S
C1059 C1065 1.491 . S
C1060 H1051 0.950 . S
C1060 C1059 1.398 . S
C1060 C1061 1.391 . S
C1061 H1049 0.950 . S
C1061 C1057 1.393 . S
C1061 C1060 1.391 . S
C1062 H1052 0.950 . S
C1062 C1063 1.386 . S
C1062 C1064 1.391 . S
C1063 C1062 1.386 . S
C1063 C1067 1.393 . S
C1064 H1053 0.950 . S
C1064 C1062 1.391 . S
C1064 C1065 1.400 . S
C1065 C1059 1.491 . S
C1065 C1064 1.400 . S
C1065 C1066 1.398 . S
C1066 H1054 0.950 . S
C1066 C1065 1.398 . S
C1066 C1067 1.391 . S
C1067 H1055 0.950 . S
C1067 C1063 1.393 . S
C1067 C1066 1.391 . S
H1068 C1076 0.950 . S
H1069 C1081 0.950 . S
H1070 C1078 0.950 . S
H1071 C1080 0.950 . S
H1072 C1082 0.950 . S
H1073 C1084 0.950 . S
H1074 C1086 0.950 . S
H1075 C1087 0.950 . S
C1076 H1068 0.950 . S
C1076 C1077 1.386 . S
C1076 C1078 1.391 . S
C1077 C1076 1.386 . S
C1077 C1081 1.393 . S
C1078 H1070 0.950 . S
C1078 C1076 1.391 . S
C1078 C1079 1.400 . S
C1079 C1078 1.400 . S
C1079 C1080 1.398 . S
C1079 C1085 1.491 1_455 S
C1080 H1071 0.950 . S
C1080 C1079 1.398 . S
C1080 C1081 1.391 . S
C1081 H1069 0.950 . S
C1081 C1077 1.393 . S
C1081 C1080 1.391 . S
C1082 H1072 0.950 . S
C1082 C1083 1.386 . S
C1082 C1084 1.391 . S
C1083 C1082 1.386 . S
C1083 C1087 1.393 . S
C1084 H1073 0.950 . S
C1084 C1082 1.391 . S
C1084 C1085 1.400 . S
C1085 C1079 1.491 1_655 S
C1085 C1084 1.400 . S
C1085 C1086 1.398 . S
C1086 H1074 0.950 . S
C1086 C1085 1.398 . S
C1086 C1087 1.391 . S
C1087 H1075 0.950 . S
C1087 C1083 1.393 . S
C1087 C1086 1.391 . S
H1088 C1096 0.950 . S
H1089 C1101 0.950 . S
H1090 C1098 0.950 . S
H1091 C1100 0.950 . S
H1092 C1102 0.950 . S
H1093 C1104 0.950 . S
H1094 C1106 0.950 . S
H1095 C1107 0.950 . S
C1096 H1088 0.950 . S
C1096 C1097 1.386 . S
C1096 C1098 1.391 . S
C1097 C1096 1.386 . S
C1097 C1101 1.393 . S
C1098 H1090 0.950 . S
C1098 C1096 1.391 . S
C1098 C1099 1.400 . S
C1099 C1098 1.400 . S
C1099 C1100 1.398 . S
C1099 C1105 1.491 1_556 S
C1100 H1091 0.950 . S
C1100 C1099 1.398 . S
C1100 C1101 1.391 . S
C1101 H1089 0.950 . S
C1101 C1097 1.393 . S
C1101 C1100 1.391 . S
C1102 H1092 0.950 . S
C1102 C1103 1.386 . S
C1102 C1104 1.391 . S
C1103 C1102 1.386 . S
C1103 C1107 1.393 . S
C1104 H1093 0.950 . S
C1104 C1102 1.391 . S
C1104 C1105 1.400 . S
C1105 C1099 1.491 1_554 S
C1105 C1104 1.400 . S
C1105 C1106 1.398 . S
C1106 H1094 0.950 . S
C1106 C1105 1.398 . S
C1106 C1107 1.391 . S
C1107 H1095 0.950 . S
C1107 C1103 1.393 . S
C1107 C1106 1.391 . S
H1108 C1116 0.950 . S
H1109 C1121 0.950 . S
H1110 C1118 0.950 . S
H1111 C1120 0.950 . S
H1112 C1122 0.950 . S
H1113 C1124 0.950 . S
H1114 C1126 0.950 . S
H1115 C1127 0.950 . S
C1116 H1108 0.950 . S
C1116 C1117 1.386 . S
C1116 C1118 1.391 . S
C1117 C1116 1.386 . S
C1117 C1121 1.393 . S
C1118 H1110 0.950 . S
C1118 C1116 1.391 . S
C1118 C1119 1.400 . S
C1119 C1118 1.400 . S
C1119 C1120 1.398 . S
C1119 C1125 1.491 . S
C1120 H1111 0.950 . S
C1120 C1119 1.398 . S
C1120 C1121 1.391 . S
C1121 H1109 0.950 . S
C1121 C1117 1.393 . S
C1121 C1120 1.391 . S
C1122 H1112 0.950 . S
C1122 C1123 1.386 . S
C1122 C1124 1.391 . S
C1123 C1122 1.386 . S
C1123 C1127 1.393 . S
C1124 H1113 0.950 . S
C1124 C1122 1.391 . S
C1124 C1125 1.400 . S
C1125 C1119 1.491 . S
C1125 C1124 1.400 . S
C1125 C1126 1.398 . S
C1126 H1114 0.950 . S
C1126 C1125 1.398 . S
C1126 C1127 1.391 . S
C1127 H1115 0.950 . S
C1127 C1123 1.393 . S
C1127 C1126 1.391 . S
H1128 C1136 0.950 . S
H1129 C1141 0.950 . S
H1130 C1138 0.950 . S
H1131 C1140 0.950 . S
H1132 C1142 0.950 . S
H1133 C1144 0.950 . S
H1134 C1146 0.950 . S
H1135 C1147 0.950 . S
C1136 H1128 0.950 . S
C1136 C1137 1.386 . S
C1136 C1138 1.391 . S
C1137 C1136 1.386 . S
C1137 C1141 1.393 . S
C1138 H1130 0.950 . S
C1138 C1136 1.391 . S
C1138 C1139 1.400 . S
C1139 C1138 1.400 . S
C1139 C1140 1.398 . S
C1139 C1145 1.491 . S
C1140 H1131 0.950 . S
C1140 C1139 1.398 . S
C1140 C1141 1.391 . S
C1141 H1129 0.950 . S
C1141 C1137 1.393 . S
C1141 C1140 1.391 . S
C1142 H1132 0.950 . S
C1142 C1143 1.386 . S
C1142 C1144 1.391 . S
C1143 C1142 1.386 . S
C1143 C1147 1.393 . S
C1144 H1133 0.950 . S
C1144 C1142 1.391 . S
C1144 C1145 1.400 . S
C1145 C1139 1.491 . S
C1145 C1144 1.400 . S
C1145 C1146 1.398 . S
C1146 H1134 0.950 . S
C1146 C1145 1.398 . S
C1146 C1147 1.391 . S
C1147 H1135 0.950 . S
C1147 C1143 1.393 . S
C1147 C1146 1.391 . S
H1148 C1156 0.950 . S
H1149 C1161 0.950 . S
H1150 C1158 0.950 . S
H1151 C1160 0.950 . S
H1152 C1162 0.950 . S
H1153 C1164 0.950 . S
H1154 C1166 0.950 . S
H1155 C1167 0.950 . S
C1156 H1148 0.950 . S
C1156 C1157 1.386 . S
C1156 C1158 1.391 . S
C1157 C1156 1.386 . S
C1157 C1161 1.393 . S
C1158 H1150 0.950 . S
C1158 C1156 1.391 . S
C1158 C1159 1.400 . S
C1159 C1158 1.400 . S
C1159 C1160 1.398 . S
C1159 C1165 1.491 . S
C1160 H1151 0.950 . S
C1160 C1159 1.398 . S
C1160 C1161 1.391 . S
C1161 H1149 0.950 . S
C1161 C1157 1.393 . S
C1161 C1160 1.391 . S
C1162 H1152 0.950 . S
C1162 C1163 1.386 . S
C1162 C1164 1.391 . S
C1163 C1162 1.386 . S
C1163 C1167 1.393 . S
C1164 H1153 0.950 . S
C1164 C1162 1.391 . S
C1164 C1165 1.400 . S
C1165 C1159 1.491 . S
C1165 C1164 1.400 . S
C1165 C1166 1.398 . S
C1166 H1154 0.950 . S
C1166 C1165 1.398 . S
C1166 C1167 1.391 . S
C1167 H1155 0.950 . S
C1167 C1163 1.393 . S
C1167 C1166 1.391 . S
H1168 C1176 0.950 . S
H1169 C1181 0.950 . S
H1170 C1178 0.950 . S
H1171 C1180 0.950 . S
H1172 C1182 0.950 . S
H1173 C1184 0.950 . S
H1174 C1186 0.950 . S
H1175 C1187 0.950 . S
C1176 H1168 0.950 . S
C1176 C1177 1.386 . S
C1176 C1178 1.391 . S
C1177 C1176 1.386 . S
C1177 C1181 1.393 . S
C1178 H1170 0.950 . S
C1178 C1176 1.391 . S
C1178 C1179 1.400 . S
C1179 C1178 1.400 . S
C1179 C1180 1.398 . S
C1179 C1185 1.491 1_554 S
C1180 H1171 0.950 . S
C1180 C1179 1.398 . S
C1180 C1181 1.391 . S
C1181 H1169 0.950 . S
C1181 C1177 1.393 . S
C1181 C1180 1.391 . S
C1182 H1172 0.950 . S
C1182 C1183 1.386 . S
C1182 C1184 1.391 . S
C1183 C1182 1.386 . S
C1183 C1187 1.393 . S
C1184 H1173 0.950 . S
C1184 C1182 1.391 . S
C1184 C1185 1.400 . S
C1185 C1179 1.491 1_556 S
C1185 C1184 1.400 . S
C1185 C1186 1.398 . S
C1186 H1174 0.950 . S
C1186 C1185 1.398 . S
C1186 C1187 1.391 . S
C1187 H1175 0.950 . S
C1187 C1183 1.393 . S
C1187 C1186 1.391 . S
H1188 C1196 0.950 . S
H1189 C1201 0.950 . S
H1190 C1198 0.950 . S
H1191 C1200 0.950 . S
H1192 C1202 0.950 . S
H1193 C1204 0.950 . S
H1194 C1206 0.950 . S
H1195 C1207 0.950 . S
C1196 H1188 0.950 . S
C1196 C1197 1.386 . S
C1196 C1198 1.391 . S
C1197 C1196 1.386 . S
C1197 C1201 1.393 . S
C1198 H1190 0.950 . S
C1198 C1196 1.391 . S
C1198 C1199 1.400 . S
C1199 C1198 1.400 . S
C1199 C1200 1.398 . S
C1199 C1205 1.491 . S
C1200 H1191 0.950 . S
C1200 C1199 1.398 . S
C1200 C1201 1.391 . S
C1201 H1189 0.950 . S
C1201 C1197 1.393 . S
C1201 C1200 1.391 . S
C1202 H1192 0.950 . S
C1202 C1203 1.386 . S
C1202 C1204 1.391 . S
C1203 C1202 1.386 . S
C1203 C1207 1.393 . S
C1204 H1193 0.950 . S
C1204 C1202 1.391 . S
C1204 C1205 1.400 . S
C1205 C1199 1.491 . S
C1205 C1204 1.400 . S
C1205 C1206 1.398 . S
C1206 H1194 0.950 . S
C1206 C1205 1.398 . S
C1206 C1207 1.391 . S
C1207 H1195 0.950 . S
C1207 C1203 1.393 . S
C1207 C1206 1.391 . S
H1208 C1216 0.950 . S
H1209 C1221 0.950 . S
H1210 C1218 0.950 . S
H1211 C1220 0.950 . S
H1212 C1222 0.950 . S
H1213 C1224 0.950 . S
H1214 C1226 0.950 . S
H1215 C1227 0.950 . S
C1216 H1208 0.950 . S
C1216 C1217 1.386 . S
C1216 C1218 1.391 . S
C1217 C1216 1.386 . S
C1217 C1221 1.393 . S
C1218 H1210 0.950 . S
C1218 C1216 1.391 . S
C1218 C1219 1.400 . S
C1219 C1218 1.400 . S
C1219 C1220 1.398 . S
C1219 C1225 1.491 . S
C1220 H1211 0.950 . S
C1220 C1219 1.398 . S
C1220 C1221 1.391 . S
C1221 H1209 0.950 . S
C1221 C1217 1.393 . S
C1221 C1220 1.391 . S
C1222 H1212 0.950 . S
C1222 C1223 1.386 . S
C1222 C1224 1.391 . S
C1223 C1222 1.386 . S
C1223 C1227 1.393 . S
C1224 H1213 0.950 . S
C1224 C1222 1.391 . S
C1224 C1225 1.400 . S
C1225 C1219 1.491 . S
C1225 C1224 1.400 . S
C1225 C1226 1.398 . S
C1226 H1214 0.950 . S
C1226 C1225 1.398 . S
C1226 C1227 1.391 . S
C1227 H1215 0.950 . S
C1227 C1223 1.393 . S
C1227 C1226 1.391 . S
H1228 C1236 0.950 . S
H1229 C1241 0.950 . S
H1230 C1238 0.950 . S
H1231 C1240 0.950 . S
H1232 C1242 0.950 . S
H1233 C1244 0.950 . S
H1234 C1246 0.950 . S
H1235 C1247 0.950 . S
C1236 H1228 0.950 . S
C1236 C1237 1.386 . S
C1236 C1238 1.391 . S
C1237 C1236 1.386 . S
C1237 C1241 1.393 . S
C1238 H1230 0.950 . S
C1238 C1236 1.391 . S
C1238 C1239 1.400 . S
C1239 C1238 1.400 . S
C1239 C1240 1.398 . S
C1239 C1245 1.491 . S
C1240 H1231 0.950 . S
C1240 C1239 1.398 . S
C1240 C1241 1.391 . S
C1241 H1229 0.950 . S
C1241 C1237 1.393 . S
C1241 C1240 1.391 . S
C1242 H1232 0.950 . S
C1242 C1243 1.386 . S
C1242 C1244 1.391 . S
C1243 C1242 1.386 . S
C1243 C1247 1.393 . S
C1244 H1233 0.950 . S
C1244 C1242 1.391 . S
C1244 C1245 1.400 . S
C1245 C1239 1.491 . S
C1245 C1244 1.400 . S
C1245 C1246 1.398 . S
C1246 H1234 0.950 . S
C1246 C1245 1.398 . S
C1246 C1247 1.391 . S
C1247 H1235 0.950 . S
C1247 C1243 1.393 . S
C1247 C1246 1.391 . S
H1248 C1256 0.950 . S
H1249 C1261 0.950 . S
H1250 C1258 0.950 . S
H1251 C1260 0.950 . S
H1252 C1262 0.950 . S
H1253 C1264 0.950 . S
H1254 C1266 0.950 . S
H1255 C1267 0.950 . S
C1256 H1248 0.950 . S
C1256 C1257 1.386 . S
C1256 C1258 1.391 . S
C1257 C1256 1.386 . S
C1257 C1261 1.393 . S
C1258 H1250 0.950 . S
C1258 C1256 1.391 . S
C1258 C1259 1.400 . S
C1259 C1258 1.400 . S
C1259 C1260 1.398 . S
C1259 C1265 1.491 1_545 S
C1260 H1251 0.950 . S
C1260 C1259 1.398 . S
C1260 C1261 1.391 . S
C1261 H1249 0.950 . S
C1261 C1257 1.393 . S
C1261 C1260 1.391 . S
C1262 H1252 0.950 . S
C1262 C1263 1.386 . S
C1262 C1264 1.391 . S
C1263 C1262 1.386 . S
C1263 C1267 1.393 . S
C1264 H1253 0.950 . S
C1264 C1262 1.391 . S
C1264 C1265 1.400 . S
C1265 C1259 1.491 1_565 S
C1265 C1264 1.400 . S
C1265 C1266 1.398 . S
C1266 H1254 0.950 . S
C1266 C1265 1.398 . S
C1266 C1267 1.391 . S
C1267 H1255 0.950 . S
C1267 C1263 1.393 . S
C1267 C1266 1.391 . S
H1268 C1276 0.950 . S
H1269 C1281 0.950 . S
H1270 C1278 0.950 . S
H1271 C1280 0.950 . S
H1272 C1282 0.950 . S
H1273 C1284 0.950 . S
H1274 C1286 0.950 . S
H1275 C1287 0.950 . S
C1276 H1268 0.950 . S
C1276 C1277 1.386 . S
C1276 C1278 1.391 . S
C1277 C1276 1.386 . S
C1277 C1281 1.393 . S
C1278 H1270 0.950 . S
C1278 C1276 1.391 . S
C1278 C1279 1.400 . S
C1279 C1278 1.400 . S
C1279 C1280 1.398 . S
C1279 C1285 1.491 . S
C1280 H1271 0.950 . S
C1280 C1279 1.398 . S
C1280 C1281 1.391 . S
C1281 H1269 0.950 . S
C1281 C1277 1.393 . S
C1281 C1280 1.391 . S
C1282 H1272 0.950 . S
C1282 C1283 1.386 . S
C1282 C1284 1.391 . S
C1283 C1282 1.386 . S
C1283 C1287 1.393 . S
C1284 H1273 0.950 . S
C1284 C1282 1.391 . S
C1284 C1285 1.400 . S
C1285 C1279 1.491 . S
C1285 C1284 1.400 . S
C1285 C1286 1.398 . S
C1286 H1274 0.950 . S
C1286 C1285 1.398 . S
C1286 C1287 1.391 . S
C1287 H1275 0.950 . S
C1287 C1283 1.393 . S
C1287 C1286 1.391 . S
H1288 C1296 0.950 . S
H1289 C1301 0.950 . S
H1290 C1298 0.950 . S
H1291 C1300 0.950 . S
H1292 C1302 0.950 . S
H1293 C1304 0.950 . S
H1294 C1306 0.950 . S
H1295 C1307 0.950 . S
C1296 H1288 0.950 . S
C1296 C1297 1.386 . S
C1296 C1298 1.391 . S
C1297 C1296 1.386 . S
C1297 C1301 1.393 . S
C1298 H1290 0.950 . S
C1298 C1296 1.391 . S
C1298 C1299 1.400 . S
C1299 C1298 1.400 . S
C1299 C1300 1.398 . S
C1299 C1305 1.491 1_564 S
C1300 H1291 0.950 . S
C1300 C1299 1.398 . S
C1300 C1301 1.391 . S
C1301 H1289 0.950 . S
C1301 C1297 1.393 . S
C1301 C1300 1.391 . S
C1302 H1292 0.950 . S
C1302 C1303 1.386 . S
C1302 C1304 1.391 . S
C1303 C1302 1.386 . S
C1303 C1307 1.393 . S
C1304 H1293 0.950 . S
C1304 C1302 1.391 . S
C1304 C1305 1.400 . S
C1305 C1299 1.491 1_546 S
C1305 C1304 1.400 . S
C1305 C1306 1.398 . S
C1306 H1294 0.950 . S
C1306 C1305 1.398 . S
C1306 C1307 1.391 . S
C1307 H1295 0.950 . S
C1307 C1303 1.393 . S
C1307 C1306 1.391 . S
H1308 C1316 0.950 . S
H1309 C1321 0.950 . S
H1310 C1318 0.950 . S
H1311 C1320 0.950 . S
H1312 C1322 0.950 . S
H1313 C1324 0.950 . S
H1314 C1326 0.950 . S
H1315 C1327 0.950 . S
C1316 H1308 0.950 . S
C1316 C1317 1.386 . S
C1316 C1318 1.391 . S
C1317 C1316 1.386 . S
C1317 C1321 1.393 . S
C1318 H1310 0.950 . S
C1318 C1316 1.391 . S
C1318 C1319 1.400 . S
C1319 C1318 1.400 . S
C1319 C1320 1.398 . S
C1319 C1325 1.491 . S
C1320 H1311 0.950 . S
C1320 C1319 1.398 . S
C1320 C1321 1.391 . S
C1321 H1309 0.950 . S
C1321 C1317 1.393 . S
C1321 C1320 1.391 . S
C1322 H1312 0.950 . S
C1322 C1323 1.386 . S
C1322 C1324 1.391 . S
C1323 C1322 1.386 . S
C1323 C1327 1.393 . S
C1324 H1313 0.950 . S
C1324 C1322 1.391 . S
C1324 C1325 1.400 . S
C1325 C1319 1.491 . S
C1325 C1324 1.400 . S
C1325 C1326 1.398 . S
C1326 H1314 0.950 . S
C1326 C1325 1.398 . S
C1326 C1327 1.391 . S
C1327 H1315 0.950 . S
C1327 C1323 1.393 . S
C1327 C1326 1.391 . S
H1328 C1336 0.950 . S
H1329 C1341 0.950 . S
H1330 C1338 0.950 . S
H1331 C1340 0.950 . S
H1332 C1342 0.950 . S
H1333 C1344 0.950 . S
H1334 C1346 0.950 . S
H1335 C1347 0.950 . S
C1336 H1328 0.950 . S
C1336 C1337 1.386 . S
C1336 C1338 1.391 . S
C1337 C1336 1.386 . S
C1337 C1341 1.393 . S
C1338 H1330 0.950 . S
C1338 C1336 1.391 . S
C1338 C1339 1.400 . S
C1339 C1338 1.400 . S
C1339 C1340 1.398 . S
C1339 C1345 1.491 1_545 S
C1340 H1331 0.950 . S
C1340 C1339 1.398 . S
C1340 C1341 1.391 . S
C1341 H1329 0.950 . S
C1341 C1337 1.393 . S
C1341 C1340 1.391 . S
C1342 H1332 0.950 . S
C1342 C1343 1.386 . S
C1342 C1344 1.391 . S
C1343 C1342 1.386 . S
C1343 C1347 1.393 . S
C1344 H1333 0.950 . S
C1344 C1342 1.391 . S
C1344 C1345 1.400 . S
C1345 C1339 1.491 1_565 S
C1345 C1344 1.400 . S
C1345 C1346 1.398 . S
C1346 H1334 0.950 . S
C1346 C1345 1.398 . S
C1346 C1347 1.391 . S
C1347 H1335 0.950 . S
C1347 C1343 1.393 . S
C1347 C1346 1.391 . S
H1348 C1356 0.950 . S
H1349 C1361 0.950 . S
H1350 C1358 0.950 . S
H1351 C1360 0.950 . S
H1352 C1362 0.950 . S
H1353 C1364 0.950 . S
H1354 C1366 0.950 . S
H1355 C1367 0.950 . S
C1356 H1348 0.950 . S
C1356 C1357 1.386 . S
C1356 C1358 1.391 . S
C1357 C1356 1.386 . S
C1357 C1361 1.393 . S
C1358 H1350 0.950 . S
C1358 C1356 1.391 . S
C1358 C1359 1.400 . S
C1359 C1358 1.400 . S
C1359 C1360 1.398 . S
C1359 C1365 1.491 . S
C1360 H1351 0.950 . S
C1360 C1359 1.398 . S
C1360 C1361 1.391 . S
C1361 H1349 0.950 . S
C1361 C1357 1.393 . S
C1361 C1360 1.391 . S
C1362 H1352 0.950 . S
C1362 C1363 1.386 . S
C1362 C1364 1.391 . S
C1363 C1362 1.386 . S
C1363 C1367 1.393 . S
C1364 H1353 0.950 . S
C1364 C1362 1.391 . S
C1364 C1365 1.400 . S
C1365 C1359 1.491 . S
C1365 C1364 1.400 . S
C1365 C1366 1.398 . S
C1366 H1354 0.950 . S
C1366 C1365 1.398 . S
C1366 C1367 1.391 . S
C1367 H1355 0.950 . S
C1367 C1363 1.393 . S
C1367 C1366 1.391 . S
H1368 C1376 0.950 . S
H1369 C1381 0.995 . S
H1370 C1378 0.950 . S
H1371 C1380 0.950 . S
H1372 C1382 0.950 . S
H1373 C1384 0.950 . S
H1374 C1386 0.950 . S
H1375 C1387 0.995 . S
C1376 H1368 0.950 . S
C1376 C1377 1.386 . S
C1376 C1378 1.391 . S
C1377 C1376 1.386 . S
C1377 C1381 1.325 1_554 S
C1378 H1370 0.950 . S
C1378 C1376 1.391 . S
C1378 C1379 1.400 . S
C1379 C1378 1.400 . S
C1379 C1380 1.398 1_554 S
C1379 C1385 1.491 1_564 S
C1380 H1371 0.950 . S
C1380 C1379 1.398 1_556 S
C1380 C1381 1.417 . S
C1381 H1369 0.995 . S
C1381 C1377 1.325 1_556 S
C1381 C1380 1.417 . S
C1382 H1372 0.950 . S
C1382 C1383 1.386 . S
C1382 C1384 1.391 . S
C1383 C1382 1.386 . S
C1383 C1387 1.325 1_556 S
C1384 H1373 0.950 . S
C1384 C1382 1.391 . S
C1384 C1385 1.400 . S
C1385 C1379 1.491 1_546 S
C1385 C1384 1.400 . S
C1385 C1386 1.398 1_556 S
C1386 H1374 0.950 . S
C1386 C1385 1.398 1_554 S
C1386 C1387 1.417 . S
C1387 H1375 0.995 . S
C1387 C1383 1.325 1_554 S
C1387 C1386 1.417 . S
H1388 C1396 0.950 . S
H1389 C1401 0.950 . S
H1390 C1398 0.950 . S
H1391 C1400 0.950 . S
H1392 C1402 0.950 . S
H1393 C1404 0.950 . S
H1394 C1406 0.950 . S
H1395 C1407 0.950 . S
C1396 H1388 0.950 . S
C1396 C1397 1.386 . S
C1396 C1398 1.391 . S
C1397 C1396 1.386 . S
C1397 C1401 1.393 . S
C1398 H1390 0.950 . S
C1398 C1396 1.391 . S
C1398 C1399 1.400 . S
C1399 C1398 1.400 . S
C1399 C1400 1.398 . S
C1399 C1405 1.491 . S
C1400 H1391 0.950 . S
C1400 C1399 1.398 . S
C1400 C1401 1.391 . S
C1401 H1389 0.950 . S
C1401 C1397 1.393 . S
C1401 C1400 1.391 . S
C1402 H1392 0.950 . S
C1402 C1403 1.386 . S
C1402 C1404 1.391 . S
C1403 C1402 1.386 . S
C1403 C1407 1.393 . S
C1404 H1393 0.950 . S
C1404 C1402 1.391 . S
C1404 C1405 1.400 . S
C1405 C1399 1.491 . S
C1405 C1404 1.400 . S
C1405 C1406 1.398 . S
C1406 H1394 0.950 . S
C1406 C1405 1.398 . S
C1406 C1407 1.391 . S
C1407 H1395 0.950 . S
C1407 C1403 1.393 . S
C1407 C1406 1.391 . S
H1408 C1416 0.950 . S
H1409 C1421 0.950 . S
H1410 C1418 0.950 . S
H1411 C1420 0.950 . S
H1412 C1422 0.950 . S
H1413 C1424 0.950 . S
H1414 C1426 0.950 . S
H1415 C1427 0.950 . S
C1416 H1408 0.950 . S
C1416 C1417 1.386 . S
C1416 C1418 1.391 . S
C1417 C1416 1.386 . S
C1417 C1421 1.393 . S
C1418 H1410 0.950 . S
C1418 C1416 1.391 . S
C1418 C1419 1.400 . S
C1419 C1418 1.400 . S
C1419 C1420 1.398 . S
C1419 C1425 1.491 . S
C1420 H1411 0.950 . S
C1420 C1419 1.398 . S
C1420 C1421 1.391 . S
C1421 H1409 0.950 . S
C1421 C1417 1.393 . S
C1421 C1420 1.391 . S
C1422 H1412 0.950 . S
C1422 C1423 1.386 . S
C1422 C1424 1.391 . S
C1423 C1422 1.386 . S
C1423 C1427 1.393 . S
C1424 H1413 0.950 . S
C1424 C1422 1.391 . S
C1424 C1425 1.400 . S
C1425 C1419 1.491 . S
C1425 C1424 1.400 . S
C1425 C1426 1.398 . S
C1426 H1414 0.950 . S
C1426 C1425 1.398 . S
C1426 C1427 1.391 . S
C1427 H1415 0.950 . S
C1427 C1423 1.393 . S
C1427 C1426 1.391 . S
H1428 C1436 0.950 . S
H1429 C1441 0.950 . S
H1430 C1438 0.950 . S
H1431 C1440 0.950 . S
H1432 C1442 0.950 . S
H1433 C1444 0.950 . S
H1434 C1446 0.950 . S
H1435 C1447 0.950 . S
C1436 H1428 0.950 . S
C1436 C1437 1.386 . S
C1436 C1438 1.391 . S
C1437 C1436 1.386 . S
C1437 C1441 1.393 . S
C1438 H1430 0.950 . S
C1438 C1436 1.391 . S
C1438 C1439 1.400 . S
C1439 C1438 1.400 . S
C1439 C1440 1.398 . S
C1439 C1445 1.491 . S
C1440 H1431 0.950 . S
C1440 C1439 1.398 . S
C1440 C1441 1.391 . S
C1441 H1429 0.950 . S
C1441 C1437 1.393 . S
C1441 C1440 1.391 . S
C1442 H1432 0.950 . S
C1442 C1443 1.386 . S
C1442 C1444 1.391 . S
C1443 C1442 1.386 . S
C1443 C1447 1.393 . S
C1444 H1433 0.950 . S
C1444 C1442 1.391 . S
C1444 C1445 1.400 . S
C1445 C1439 1.491 . S
C1445 C1444 1.400 . S
C1445 C1446 1.398 . S
C1446 H1434 0.950 . S
C1446 C1445 1.398 . S
C1446 C1447 1.391 . S
C1447 H1435 0.950 . S
C1447 C1443 1.393 . S
C1447 C1446 1.391 . S
H1448 C1456 0.950 . S
H1449 C1461 0.950 . S
H1450 C1458 0.950 . S
H1451 C1460 0.950 . S
H1452 C1462 0.950 . S
H1453 C1464 0.950 . S
H1454 C1466 0.950 . S
H1455 C1467 0.950 . S
C1456 H1448 0.950 . S
C1456 C1457 1.386 . S
C1456 C1458 1.391 . S
C1457 C1456 1.386 . S
C1457 C1461 1.393 . S
C1458 H1450 0.950 . S
C1458 C1456 1.391 . S
C1458 C1459 1.400 . S
C1459 C1458 1.400 . S
C1459 C1460 1.398 . S
C1459 C1465 1.491 . S
C1460 H1451 0.950 . S
C1460 C1459 1.398 . S
C1460 C1461 1.391 . S
C1461 H1449 0.950 . S
C1461 C1457 1.393 . S
C1461 C1460 1.391 . S
C1462 H1452 0.950 . S
C1462 C1463 1.386 . S
C1462 C1464 1.391 . S
C1463 C1462 1.386 . S
C1463 C1467 1.393 . S
C1464 H1453 0.950 . S
C1464 C1462 1.391 . S
C1464 C1465 1.400 . S
C1465 C1459 1.491 . S
C1465 C1464 1.400 . S
C1465 C1466 1.398 . S
C1466 H1454 0.950 . S
C1466 C1465 1.398 . S
C1466 C1467 1.391 . S
C1467 H1455 0.950 . S
C1467 C1463 1.393 . S
C1467 C1466 1.391 . S
H1468 C1476 0.950 . S
H1469 C1481 0.950 . S
H1470 C1478 0.950 . S
H1471 C1480 0.950 . S
H1472 C1482 0.950 . S
H1473 C1484 0.950 . S
H1474 C1486 0.950 . S
H1475 C1487 0.950 . S
C1476 H1468 0.950 . S
C1476 C1477 1.386 . S
C1476 C1478 1.391 . S
C1477 C1476 1.386 . S
C1477 C1481 1.393 . S
C1478 H1470 0.950 . S
C1478 C1476 1.391 . S
C1478 C1479 1.400 . S
C1479 C1478 1.400 . S
C1479 C1480 1.398 . S
C1479 C1485 1.491 1_655 S
C1480 H1471 0.950 . S
C1480 C1479 1.398 . S
C1480 C1481 1.391 . S
C1481 H1469 0.950 . S
C1481 C1477 1.393 . S
C1481 C1480 1.391 . S
C1482 H1472 0.950 . S
C1482 C1483 1.386 . S
C1482 C1484 1.391 . S
C1483 C1482 1.386 . S
C1483 C1487 1.393 . S
C1484 H1473 0.950 . S
C1484 C1482 1.391 . S
C1484 C1485 1.400 . S
C1485 C1479 1.491 1_455 S
C1485 C1484 1.400 . S
C1485 C1486 1.398 . S
C1486 H1474 0.950 . S
C1486 C1485 1.398 . S
C1486 C1487 1.391 . S
C1487 H1475 0.950 . S
C1487 C1483 1.393 . S
C1487 C1486 1.391 . S
H1488 C1496 0.950 . S
H1489 C1501 0.950 . S
H1490 C1498 0.950 . S
H1491 C1500 0.950 . S
H1492 C1502 0.950 . S
H1493 C1504 0.950 . S
H1494 C1506 0.950 . S
H1495 C1507 0.950 . S
C1496 H1488 0.950 . S
C1496 C1497 1.386 . S
C1496 C1498 1.391 . S
C1497 C1496 1.386 . S
C1497 C1501 1.393 . S
C1498 H1490 0.950 . S
C1498 C1496 1.391 . S
C1498 C1499 1.400 . S
C1499 C1498 1.400 . S
C1499 C1500 1.398 . S
C1499 C1505 1.491 . S
C1500 H1491 0.950 . S
C1500 C1499 1.398 . S
C1500 C1501 1.391 . S
C1501 H1489 0.950 . S
C1501 C1497 1.393 . S
C1501 C1500 1.391 . S
C1502 H1492 0.950 . S
C1502 C1503 1.386 . S
C1502 C1504 1.391 . S
C1503 C1502 1.386 . S
C1503 C1507 1.393 . S
C1504 H1493 0.950 . S
C1504 C1502 1.391 . S
C1504 C1505 1.400 . S
C1505 C1499 1.491 . S
C1505 C1504 1.400 . S
C1505 C1506 1.398 . S
C1506 H1494 0.950 . S
C1506 C1505 1.398 . S
C1506 C1507 1.391 . S
C1507 H1495 0.950 . S
C1507 C1503 1.393 . S
C1507 C1506 1.391 . S
H1508 C1516 0.950 . S
H1509 C1521 0.950 . S
H1510 C1518 0.950 . S
H1511 C1520 0.950 . S
H1512 C1522 0.950 . S
H1513 C1524 0.950 . S
H1514 C1526 0.950 . S
H1515 C1527 0.950 . S
C1516 H1508 0.950 . S
C1516 C1517 1.386 . S
C1516 C1518 1.391 . S
C1517 C1516 1.386 . S
C1517 C1521 1.393 . S
C1518 H1510 0.950 . S
C1518 C1516 1.391 . S
C1518 C1519 1.400 . S
C1519 C1518 1.400 . S
C1519 C1520 1.398 . S
C1519 C1525 1.491 1_655 S
C1520 H1511 0.950 . S
C1520 C1519 1.398 . S
C1520 C1521 1.391 . S
C1521 H1509 0.950 . S
C1521 C1517 1.393 . S
C1521 C1520 1.391 . S
C1522 H1512 0.950 . S
C1522 C1523 1.386 . S
C1522 C1524 1.391 . S
C1523 C1522 1.386 . S
C1523 C1527 1.393 . S
C1524 H1513 0.950 . S
C1524 C1522 1.391 . S
C1524 C1525 1.400 . S
C1525 C1519 1.491 1_455 S
C1525 C1524 1.400 . S
C1525 C1526 1.398 . S
C1526 H1514 0.950 . S
C1526 C1525 1.398 . S
C1526 C1527 1.391 . S
C1527 H1515 0.950 . S
C1527 C1523 1.393 . S
C1527 C1526 1.391 . S
H1528 C1536 0.950 . S
H1529 C1541 0.950 . S
H1530 C1538 0.950 . S
H1531 C1540 0.950 . S
H1532 C1542 0.950 . S
H1533 C1544 0.950 . S
H1534 C1546 0.950 . S
H1535 C1547 0.950 . S
C1536 H1528 0.950 . S
C1536 C1537 1.386 . S
C1536 C1538 1.391 . S
C1537 C1536 1.386 . S
C1537 C1541 1.393 . S
C1538 H1530 0.950 . S
C1538 C1536 1.391 . S
C1538 C1539 1.400 . S
C1539 C1538 1.400 . S
C1539 C1540 1.398 . S
C1539 C1545 1.491 . S
C1540 H1531 0.950 . S
C1540 C1539 1.398 . S
C1540 C1541 1.391 . S
C1541 H1529 0.950 . S
C1541 C1537 1.393 . S
C1541 C1540 1.391 . S
C1542 H1532 0.950 . S
C1542 C1543 1.386 . S
C1542 C1544 1.391 . S
C1543 C1542 1.386 . S
C1543 C1547 1.393 . S
C1544 H1533 0.950 . S
C1544 C1542 1.391 . S
C1544 C1545 1.400 . S
C1545 C1539 1.491 . S
C1545 C1544 1.400 . S
C1545 C1546 1.398 . S
C1546 H1534 0.950 . S
C1546 C1545 1.398 . S
C1546 C1547 1.391 . S
C1547 H1535 0.950 . S
C1547 C1543 1.393 . S
C1547 C1546 1.391 . S
H1548 C1556 0.950 . S
H1549 C1561 0.950 . S
H1550 C1558 0.950 . S
H1551 C1560 0.950 . S
H1552 C1562 0.950 . S
H1553 C1564 0.950 . S
H1554 C1566 0.950 . S
H1555 C1567 0.950 . S
C1556 H1548 0.950 . S
C1556 C1557 1.386 . S
C1556 C1558 1.391 . S
C1557 C1556 1.386 . S
C1557 C1561 1.393 . S
C1558 H1550 0.950 . S
C1558 C1556 1.391 . S
C1558 C1559 1.400 . S
C1559 C1558 1.400 . S
C1559 C1560 1.398 . S
C1559 C1565 1.491 . S
C1560 H1551 0.950 . S
C1560 C1559 1.398 . S
C1560 C1561 1.391 . S
C1561 H1549 0.950 . S
C1561 C1557 1.393 . S
C1561 C1560 1.391 . S
C1562 H1552 0.950 . S
C1562 C1563 1.386 . S
C1562 C1564 1.391 . S
C1563 C1562 1.386 . S
C1563 C1567 1.393 . S
C1564 H1553 0.950 . S
C1564 C1562 1.391 . S
C1564 C1565 1.400 . S
C1565 C1559 1.491 . S
C1565 C1564 1.400 . S
C1565 C1566 1.398 . S
C1566 H1554 0.950 . S
C1566 C1565 1.398 . S
C1566 C1567 1.391 . S
C1567 H1555 0.950 . S
C1567 C1563 1.393 . S
C1567 C1566 1.391 . S
H1568 C1576 0.950 . S
H1569 C1581 0.950 . S
H1570 C1578 0.950 . S
H1571 C1580 0.950 . S
H1572 C1582 0.950 . S
H1573 C1584 0.950 . S
H1574 C1586 0.950 . S
H1575 C1587 0.950 . S
C1576 H1568 0.950 . S
C1576 C1577 1.386 . S
C1576 C1578 1.391 . S
C1577 C1576 1.386 . S
C1577 C1581 1.393 . S
C1578 H1570 0.950 . S
C1578 C1576 1.391 . S
C1578 C1579 1.400 . S
C1579 C1578 1.400 . S
C1579 C1580 1.398 . S
C1579 C1585 1.491 . S
C1580 H1571 0.950 . S
C1580 C1579 1.398 . S
C1580 C1581 1.391 . S
C1581 H1569 0.950 . S
C1581 C1577 1.393 . S
C1581 C1580 1.391 . S
C1582 H1572 0.950 . S
C1582 C1583 1.386 . S
C1582 C1584 1.391 . S
C1583 C1582 1.386 . S
C1583 C1587 1.393 . S
C1584 H1573 0.950 . S
C1584 C1582 1.391 . S
C1584 C1585 1.400 . S
C1585 C1579 1.491 . S
C1585 C1584 1.400 . S
C1585 C1586 1.398 . S
C1586 H1574 0.950 . S
C1586 C1585 1.398 . S
C1586 C1587 1.391 . S
C1587 H1575 0.950 . S
C1587 C1583 1.393 . S
C1587 C1586 1.391 . S
H1588 C1596 0.950 . S
H1589 C1601 0.950 . S
H1590 C1598 0.950 . S
H1591 C1600 0.950 . S
H1592 C1602 0.950 . S
H1593 C1604 0.950 . S
H1594 C1606 0.950 . S
H1595 C1607 0.950 . S
C1596 H1588 0.950 . S
C1596 C1597 1.386 . S
C1596 C1598 1.391 . S
C1597 C1596 1.386 . S
C1597 C1601 1.393 . S
C1598 H1590 0.950 . S
C1598 C1596 1.391 . S
C1598 C1599 1.400 . S
C1599 C1598 1.400 . S
C1599 C1600 1.398 . S
C1599 C1605 1.491 . S
C1600 H1591 0.950 . S
C1600 C1599 1.398 . S
C1600 C1601 1.391 . S
C1601 H1589 0.950 . S
C1601 C1597 1.393 . S
C1601 C1600 1.391 . S
C1602 H1592 0.950 . S
C1602 C1603 1.386 . S
C1602 C1604 1.391 . S
C1603 C1602 1.386 . S
C1603 C1607 1.393 . S
C1604 H1593 0.950 . S
C1604 C1602 1.391 . S
C1604 C1605 1.400 . S
C1605 C1599 1.491 . S
C1605 C1604 1.400 . S
C1605 C1606 1.398 . S
C1606 H1594 0.950 . S
C1606 C1605 1.398 . S
C1606 C1607 1.391 . S
C1607 H1595 0.950 . S
C1607 C1603 1.393 . S
C1607 C1606 1.391 . S
H1608 C1616 0.950 . S
H1609 C1621 0.950 . S
H1610 C1618 0.950 . S
H1611 C1620 0.950 . S
H1612 C1622 0.950 . S
H1613 C1624 0.950 . S
H1614 C1626 0.950 . S
H1615 C1627 0.950 . S
C1616 H1608 0.950 . S
C1616 C1617 1.386 . S
C1616 C1618 1.391 . S
C1617 C1616 1.386 . S
C1617 C1621 1.393 . S
C1618 H1610 0.950 . S
C1618 C1616 1.391 . S
C1618 C1619 1.400 . S
C1619 C1618 1.400 . S
C1619 C1620 1.398 . S
C1619 C1625 1.491 . S
C1620 H1611 0.950 . S
C1620 C1619 1.398 . S
C1620 C1621 1.391 . S
C1621 H1609 0.950 . S
C1621 C1617 1.393 . S
C1621 C1620 1.391 . S
C1622 H1612 0.950 . S
C1622 C1623 1.386 . S
C1622 C1624 1.391 . S
C1623 C1622 1.386 . S
C1623 C1627 1.393 . S
C1624 H1613 0.950 . S
C1624 C1622 1.391 . S
C1624 C1625 1.400 . S
C1625 C1619 1.491 . S
C1625 C1624 1.400 . S
C1625 C1626 1.398 . S
C1626 H1614 0.950 . S
C1626 C1625 1.398 . S
C1626 C1627 1.391 . S
C1627 H1615 0.950 . S
C1627 C1623 1.393 . S
C1627 C1626 1.391 . S
H1628 C1636 0.950 . S
H1629 C1641 0.950 . S
H1630 C1638 0.950 . S
H1631 C1640 0.950 . S
H1632 C1642 0.950 . S
H1633 C1644 0.950 . S
H1634 C1646 0.950 . S
H1635 C1647 0.950 . S
C1636 H1628 0.950 . S
C1636 C1637 1.386 . S
C1636 C1638 1.391 . S
C1637 C1636 1.386 . S
C1637 C1641 1.393 . S
C1638 H1630 0.950 . S
C1638 C1636 1.391 . S
C1638 C1639 1.400 . S
C1639 C1638 1.400 . S
C1639 C1640 1.398 . S
C1639 C1645 1.491 . S
C1640 H1631 0.950 . S
C1640 C1639 1.398 . S
C1640 C1641 1.391 . S
C1641 H1629 0.950 . S
C1641 C1637 1.393 . S
C1641 C1640 1.391 . S
C1642 H1632 0.950 . S
C1642 C1643 1.386 . S
C1642 C1644 1.391 . S
C1643 C1642 1.386 . S
C1643 C1647 1.393 . S
C1644 H1633 0.950 . S
C1644 C1642 1.391 . S
C1644 C1645 1.400 . S
C1645 C1639 1.491 . S
C1645 C1644 1.400 . S
C1645 C1646 1.398 . S
C1646 H1634 0.950 . S
C1646 C1645 1.398 . S
C1646 C1647 1.391 . S
C1647 H1635 0.950 . S
C1647 C1643 1.393 . S
C1647 C1646 1.391 . S
H1648 C1656 0.950 . S
H1649 C1661 0.950 . S
H1650 C1658 0.950 . S
H1651 C1660 0.950 . S
H1652 C1662 0.950 . S
H1653 C1664 0.950 . S
H1654 C1666 0.950 . S
H1655 C1667 0.950 . S
C1656 H1648 0.950 . S
C1656 C1657 1.386 . S
C1656 C1658 1.391 . S
C1657 C1656 1.386 . S
C1657 C1661 1.393 . S
C1658 H1650 0.950 . S
C1658 C1656 1.391 . S
C1658 C1659 1.400 . S
C1659 C1658 1.400 . S
C1659 C1660 1.398 . S
C1659 C1665 1.491 1_655 S
C1660 H1651 0.950 . S
C1660 C1659 1.398 . S
C1660 C1661 1.391 . S
C1661 H1649 0.950 . S
C1661 C1657 1.393 . S
C1661 C1660 1.391 . S
C1662 H1652 0.950 . S
C1662 C1663 1.386 . S
C1662 C1664 1.391 . S
C1663 C1662 1.386 . S
C1663 C1667 1.393 . S
C1664 H1653 0.950 . S
C1664 C1662 1.391 . S
C1664 C1665 1.400 . S
C1665 C1659 1.491 1_455 S
C1665 C1664 1.400 . S
C1665 C1666 1.398 . S
C1666 H1654 0.950 . S
C1666 C1665 1.398 . S
C1666 C1667 1.391 . S
C1667 H1655 0.950 . S
C1667 C1663 1.393 . S
C1667 C1666 1.391 . S
H1668 C1676 0.950 . S
H1669 C1681 0.950 . S
H1670 C1678 0.950 . S
H1671 C1680 0.950 . S
H1672 C1682 0.950 . S
H1673 C1684 0.950 . S
H1674 C1686 0.950 . S
H1675 C1687 0.950 . S
C1676 H1668 0.950 . S
C1676 C1677 1.386 . S
C1676 C1678 1.391 . S
C1677 C1676 1.386 . S
C1677 C1681 1.393 . S
C1678 H1670 0.950 . S
C1678 C1676 1.391 . S
C1678 C1679 1.400 . S
C1679 C1678 1.400 . S
C1679 C1680 1.398 . S
C1679 C1685 1.491 . S
C1680 H1671 0.950 . S
C1680 C1679 1.398 . S
C1680 C1681 1.391 . S
C1681 H1669 0.950 . S
C1681 C1677 1.393 . S
C1681 C1680 1.391 . S
C1682 H1672 0.950 . S
C1682 C1683 1.386 . S
C1682 C1684 1.391 . S
C1683 C1682 1.386 . S
C1683 C1687 1.393 . S
C1684 H1673 0.950 . S
C1684 C1682 1.391 . S
C1684 C1685 1.400 . S
C1685 C1679 1.491 . S
C1685 C1684 1.400 . S
C1685 C1686 1.398 . S
C1686 H1674 0.950 . S
C1686 C1685 1.398 . S
C1686 C1687 1.391 . S
C1687 H1675 0.950 . S
C1687 C1683 1.393 . S
C1687 C1686 1.391 . S
H1688 C1696 0.950 . S
H1689 C1701 0.950 . S
H1690 C1698 0.950 . S
H1691 C1700 0.950 . S
H1692 C1702 0.950 . S
H1693 C1704 0.950 . S
H1694 C1706 0.950 . S
H1695 C1707 0.950 . S
C1696 H1688 0.950 . S
C1696 C1697 1.386 . S
C1696 C1698 1.391 . S
C1697 C1696 1.386 . S
C1697 C1701 1.393 . S
C1698 H1690 0.950 . S
C1698 C1696 1.391 . S
C1698 C1699 1.400 . S
C1699 C1698 1.400 . S
C1699 C1700 1.398 . S
C1699 C1705 1.491 . S
C1700 H1691 0.950 . S
C1700 C1699 1.398 . S
C1700 C1701 1.391 . S
C1701 H1689 0.950 . S
C1701 C1697 1.393 . S
C1701 C1700 1.391 . S
C1702 H1692 0.950 . S
C1702 C1703 1.386 . S
C1702 C1704 1.391 . S
C1703 C1702 1.386 . S
C1703 C1707 1.393 . S
C1704 H1693 0.950 . S
C1704 C1702 1.391 . S
C1704 C1705 1.400 . S
C1705 C1699 1.491 . S
C1705 C1704 1.400 . S
C1705 C1706 1.398 . S
C1706 H1694 0.950 . S
C1706 C1705 1.398 . S
C1706 C1707 1.391 . S
C1707 H1695 0.950 . S
C1707 C1703 1.393 . S
C1707 C1706 1.391 . S
H1708 C1716 0.950 . S
H1709 C1721 0.950 . S
H1710 C1718 0.950 . S
H1711 C1720 0.950 . S
H1712 C1722 0.950 . S
H1713 C1724 0.950 . S
H1714 C1726 0.950 . S
H1715 C1727 0.950 . S
C1716 H1708 0.950 . S
C1716 C1717 1.386 . S
C1716 C1718 1.391 . S
C1717 C1716 1.386 . S
C1717 C1721 1.393 . S
C1718 H1710 0.950 . S
C1718 C1716 1.391 . S
C1718 C1719 1.400 . S
C1719 C1718 1.400 . S
C1719 C1720 1.398 . S
C1719 C1725 1.491 1_655 S
C1720 H1711 0.950 . S
C1720 C1719 1.398 . S
C1720 C1721 1.391 . S
C1721 H1709 0.950 . S
C1721 C1717 1.393 . S
C1721 C1720 1.391 . S
C1722 H1712 0.950 . S
C1722 C1723 1.386 . S
C1722 C1724 1.391 . S
C1723 C1722 1.386 . S
C1723 C1727 1.393 . S
C1724 H1713 0.950 . S
C1724 C1722 1.391 . S
C1724 C1725 1.400 . S
C1725 C1719 1.491 1_455 S
C1725 C1724 1.400 . S
C1725 C1726 1.398 . S
C1726 H1714 0.950 . S
C1726 C1725 1.398 . S
C1726 C1727 1.391 . S
C1727 H1715 0.950 . S
C1727 C1723 1.393 . S
C1727 C1726 1.391 . S
C457 C328 1.721 . S
C463 C7 1.740 . S
C477 C287 1.710 . S
C483 C20 1.735 . S
C497 C300 1.726 . S
C503 C35 1.707 . S
C517 C315 1.711 . S
C523 C48 1.715 . S
C537 C63 1.709 . S
C543 C244 1.734 . S
C557 C259 1.708 . S
C563 C76 1.732 . S
C577 C91 1.713 . S
C583 C272 1.738 . S
C597 C104 1.717 . S
C603 C231 1.709 . S
C617 C441 1.733 . S
C623 C119 1.708 . S
C637 C133 1.736 . S
C643 C399 1.710 . S
C657 C147 1.711 . S
C663 C413 1.715 . S
C677 C161 1.709 . S
C683 C427 1.718 . S
C697 C175 1.717 . S
C703 C357 1.709 . S
C717 C189 1.711 . S
C723 C371 1.736 . S
C737 C203 1.723 . S
C743 C385 1.707 . S
C757 C217 1.718 . S
C763 C343 1.709 . S
C777 C8 1.272 . S
C783 C176 1.278 . S
C797 C414 1.271 . S
C803 C23 1.280 . S
C817 C36 1.278 . S
C823 C204 1.273 . S
C837 C442 1.274 . S
C843 C51 1.277 . S
C857 C120 1.276 . S
C863 C64 1.275 . S
C877 C79 1.277 . S
C883 C358 1.274 . S
C897 C92 1.278 . S
C903 C148 1.272 . S
C917 C107 1.273 . S
C923 C386 1.278 . S
C937 C303 1.275 . S
C943 C134 1.275 . S
C957 C331 1.276 . S
C963 C162 1.275 . S
C977 C190 1.275 . S
C983 C247 1.276 . S
C997 C275 1.279 . S
C1003 C218 1.271 . S
C1017 C400 1.272 . S
C1023 C232 1.279 . S
C1037 C260 1.276 . S
C1043 C428 1.274 . S
C1057 C344 1.270 . S
C1063 C288 1.280 . S
C1077 C372 1.276 . S
C1083 C316 1.275 . S
C1097 C62 1.292 . S
C1103 C6 1.293 . S
C1117 C77 1.280 . S
C1123 C21 1.288 . S
C1137 C34 1.283 . S
C1143 C90 1.292 . S
C1157 C49 1.282 . S
C1163 C105 1.291 . S
C1177 C174 1.280 . S
C1183 C118 1.281 . S
C1197 C188 1.280 . S
C1203 C132 1.284 . S
C1217 C202 1.292 . S
C1223 C146 1.283 . S
C1237 C160 1.290 . S
C1243 C216 1.281 . S
C1257 C230 1.281 . S
C1263 C286 1.291 . S
C1277 C245 1.286 . S
C1283 C301 1.279 . S
C1297 C258 1.293 . S
C1303 C314 1.293 . S
C1317 C273 1.290 . S
C1323 C329 1.295 . S
C1337 C398 1.288 . S
C1343 C342 1.280 . S
C1357 C412 1.285 . S
C1363 C356 1.279 . S
C1377 C426 1.292 . S
C1383 C370 1.283 . S
C1397 C440 1.280 . S
C1403 C384 1.283 . S
C1417 C429 1.636 . S
C1423 C9 1.657 . S
C1437 C22 1.650 . S
C1443 C219 1.644 . S
C1457 C401 1.652 . S
C1463 C37 1.641 . S
C1477 C50 1.653 . S
C1483 C191 1.640 . S
C1497 C373 1.644 . S
C1503 C65 1.649 . S
C1517 C78 1.647 . S
C1523 C163 1.647 . S
C1537 C93 1.635 . S
C1543 C345 1.658 . S
C1557 C135 1.659 . S
C1563 C106 1.635 . S
C1577 C121 1.638 . S
C1583 C317 1.655 . S
C1597 C289 1.645 . S
C1603 C149 1.648 . S
C1617 C177 1.641 . S
C1623 C261 1.653 . S
C1637 C205 1.635 . S
C1643 C233 1.658 . S
C1657 C443 1.654 . S
C1663 C246 1.640 . S
C1677 C274 1.654 . S
C1683 C415 1.640 . S
C1697 C302 1.657 . S
C1703 C387 1.637 . S
C1717 C359 1.656 . S
C1723 C330 1.637 . S
