# Generated by pormake.
# Topology npo, (4)-cn, num edge types: 1
# Building blocks:
#     Node 0, Type 0, BuildingBlock: AZAVOO_clean_sbu_0, # of connection points: 4
#     Node 1, Type 0, BuildingBlock: AZAVOO_clean_sbu_0, # of connection points: 4
#     Node 2, Type 0, BuildingBlock: AZAVOO_clean_sbu_0, # of connection points: 4
#     Node 3, Type 0, BuildingBlock: AZAVOO_clean_sbu_0, # of connection points: 4
#     Node 4, Type 0, BuildingBlock: AZAVOO_clean_sbu_0, # of connection points: 4
#     Node 5, Type 0, BuildingBlock: AZAVOO_clean_sbu_0, # of connection points: 4
#     Edge 6, Type (0, 0), BuildingBlock: TEMPAE_clean_linker_10, # of connection points: 2
#     Edge 7, Type (0, 0), BuildingBlock: TEMPAE_clean_linker_10, # of connection points: 2
#     Edge 8, Type (0, 0), BuildingBlock: TEMPAE_clean_linker_10, # of connection points: 2
#     Edge 9, Type (0, 0), BuildingBlock: TEMPAE_clean_linker_10, # of connection points: 2
#     Edge 10, Type (0, 0), BuildingBlock: TEMPAE_clean_linker_10, # of connection points: 2
#     Edge 11, Type (0, 0), BuildingBlock: TEMPAE_clean_linker_10, # of connection points: 2
#     Edge 12, Type (0, 0), BuildingBlock: TEMPAE_clean_linker_10, # of connection points: 2
#     Edge 13, Type (0, 0), BuildingBlock: TEMPAE_clean_linker_10, # of connection points: 2
#     Edge 14, Type (0, 0), BuildingBlock: TEMPAE_clean_linker_10, # of connection points: 2
#     Edge 15, Type (0, 0), BuildingBlock: TEMPAE_clean_linker_10, # of connection points: 2
#     Edge 16, Type (0, 0), BuildingBlock: TEMPAE_clean_linker_10, # of connection points: 2
#     Edge 17, Type (0, 0), BuildingBlock: TEMPAE_clean_linker_10, # of connection points: 2
# Relax obj value: 0.262
# Max RMSD: 0.248
# Mean RMSD: 0.231
data_MOF--net-npo--node1-AZAVOO_clean_sbu_0--edge1-TEMPAE_clean_linker_10
_symmetry_space_group_name_H-M    P1
_symmetry_Int_Tables_number       1
_symmetry_cell_setting            triclinic
loop_
_symmetry_equiv_pos_as_xyz
'x, y, z'
_cell_length_a     45.667735
_cell_length_b     41.427799
_cell_length_c     26.714381
_cell_angle_alpha  89.728702
_cell_angle_beta   90.253068
_cell_angle_gamma 131.25663
loop_
_atom_site_label
_atom_site_type_symbol
_atom_site_fract_x
_atom_site_fract_y
_atom_site_fract_z
_atom_type_partial_charge
Mg0 Mg 0.48621 0.08969 0.23907 0.0
O1 O 0.55263 0.13713 0.24703 0.0
O2 O 0.57387 0.10204 0.25832 0.0
Mg3 Mg 0.5208 0.0308 0.2491 0.0
C4 C 0.58006 0.13681 0.25444 0.0
C5 C 0.48677 0.16313 0.25946 0.0
O6 O 0.47994 0.14558 0.30375 0.0
O7 O 0.49363 0.08062 0.15739 0.0
O8 O 0.51571 0.04618 0.16888 0.0
O9 O 0.47889 0.08143 0.32214 0.0
O10 O 0.48174 0.04096 0.27305 0.0
C11 C 0.50641 0.06312 0.1405 0.0
C12 C 0.47942 0.0508 0.31741 0.0
O13 O 0.49007 0.14676 0.22212 0.0
Mg14 Mg 0.39519 0.45328 0.70622 0.0
O15 O 0.40574 0.51561 0.7132 0.0
O16 O 0.46631 0.56533 0.74286 0.0
Mg17 Mg 0.49472 0.53671 0.75412 0.0
C18 C 0.4341 0.5539 0.7276 0.0
C19 C 0.31319 0.41736 0.64144 0.0
O20 O 0.29239 0.39149 0.60366 0.0
O21 O 0.43392 0.48033 0.63744 0.0
O22 O 0.49402 0.52964 0.66912 0.0
O23 O 0.37689 0.43567 0.78796 0.0
O24 O 0.4366 0.47363 0.75932 0.0
C25 C 0.47083 0.50894 0.63218 0.0
C26 C 0.41343 0.45667 0.79665 0.0
O27 O 0.3422 0.42158 0.65546 0.0
Mg28 Mg 0.93069 0.51065 0.23033 0.0
O29 O 0.87403 0.44061 0.22694 0.0
O30 O 0.88631 0.39696 0.21767 0.0
Mg31 Mg 0.95246 0.43958 0.22163 0.0
C32 C 0.86257 0.40321 0.22186 0.0
C33 C 0.89587 0.55275 0.21386 0.0
O34 O 0.92125 0.56849 0.17738 0.0
O35 O 0.93743 0.50055 0.31265 0.0
O36 O 0.95049 0.4575 0.30153 0.0
O37 O 0.93581 0.51459 0.1467 0.0
O38 O 0.96133 0.49564 0.19546 0.0
C39 C 0.94518 0.478 0.32987 0.0
C40 C 0.95516 0.502 0.15109 0.0
O41 O 0.89387 0.5288 0.2464 0.0
Mg42 Mg 0.47464 0.89197 0.74297 0.0
O43 O 0.41095 0.85875 0.75446 0.0
O44 O 0.4023 0.90594 0.756 0.0
Mg45 Mg 0.46309 0.97186 0.74667 0.0
C46 C 0.38911 0.86761 0.7582 0.0
C47 C 0.46309 0.81409 0.69227 0.0
O48 O 0.48514 0.84173 0.6563 0.0
O49 O 0.46968 0.90234 0.66058 0.0
O50 O 0.46312 0.95127 0.66756 0.0
O51 O 0.48353 0.90029 0.82508 0.0
O52 O 0.49106 0.94773 0.77445 0.0
C53 C 0.46524 0.92716 0.64142 0.0
C54 C 0.49 0.93559 0.8193 0.0
O55 O 0.45501 0.82587 0.7296 0.0
Mg56 Mg 0.60877 0.54596 0.21171 0.0
O57 O 0.57447 0.47483 0.22712 0.0
O58 O 0.51377 0.4423 0.25076 0.0
Mg59 Mg 0.50873 0.49371 0.24945 0.0
C60 C 0.54049 0.44135 0.24073 0.0
C61 C 0.69075 0.57853 0.20311 0.0
O62 O 0.69424 0.60564 0.23371 0.0
O63 O 0.57652 0.52801 0.13673 0.0
O64 O 0.51672 0.49697 0.16486 0.0
O65 O 0.62367 0.56001 0.29274 0.0
O66 O 0.57194 0.54525 0.25814 0.0
C67 C 0.54065 0.50903 0.12934 0.0
C68 C 0.59174 0.55303 0.29771 0.0
O69 O 0.65802 0.55008 0.18187 0.0
Mg70 Mg 0.08895 0.4831 0.72991 0.0
O71 O 0.12687 0.55572 0.72776 0.0
O72 O 0.08971 0.5731 0.72844 0.0
Mg73 Mg 0.02633 0.50981 0.72725 0.0
C74 C 0.12295 0.58348 0.72793 0.0
C75 C 0.14004 0.4608 0.76201 0.0
O76 O 0.10506 0.42385 0.77095 0.0
O77 O 0.07599 0.48277 0.81264 0.0
O78 O 0.03584 0.49617 0.8056 0.0
O79 O 0.08575 0.48157 0.64639 0.0
O80 O 0.04392 0.47607 0.69559 0.0
C81 C 0.05357 0.48775 0.83165 0.0
C82 C 0.05615 0.47918 0.6511 0.0
O83 O 0.14325 0.49216 0.747 0.0
C84 C 0.49732 0.22077 0.20752 0.0
C85 C 0.49252 0.20262 0.25453 0.0
C86 C 0.50395 0.25899 0.20336 0.0
C87 C 0.50622 0.27963 0.24725 0.0
C88 C 0.50109 0.26124 0.29468 0.0
C89 C 0.49412 0.22291 0.29771 0.0
C90 C 0.50888 0.27751 0.15211 0.0
C91 C 0.50364 0.28244 0.34239 0.0
C92 C 0.56188 0.39922 0.24412 0.0
C93 C 0.53157 0.39991 0.24292 0.0
C94 C 0.55402 0.36028 0.24502 0.0
C95 C 0.51491 0.32106 0.24401 0.0
C96 C 0.48418 0.32148 0.24223 0.0
C97 C 0.49287 0.36091 0.2421 0.0
C98 C 0.58758 0.36115 0.24774 0.0
C99 C 0.44213 0.28027 0.24058 0.0
H100 H 0.49601 0.20522 0.17401 0.0
H101 H 0.49053 0.20922 0.33424 0.0
H102 H 0.48766 0.28203 0.14684 0.0
H103 H 0.53844 0.30959 0.14868 0.0
H104 H 0.50475 0.25668 0.12163 0.0
H105 H 0.49856 0.26371 0.3763 0.0
H106 H 0.53284 0.31498 0.34545 0.0
H107 H 0.48189 0.28643 0.34173 0.0
H108 H 0.59187 0.4292 0.24486 0.0
H109 H 0.4693 0.36116 0.24063 0.0
H110 H 0.58628 0.34326 0.21575 0.0
H111 H 0.58541 0.34492 0.28251 0.0
H112 H 0.61633 0.39436 0.24733 0.0
H113 H 0.43739 0.26037 0.20849 0.0
H114 H 0.42172 0.28614 0.23709 0.0
H115 H 0.43487 0.26131 0.27512 0.0
C116 C 0.3087 0.45076 0.71638 0.0
C117 C 0.30147 0.43942 0.66562 0.0
C118 C 0.29025 0.46334 0.7407 0.0
C119 C 0.26379 0.46391 0.71361 0.0
C120 C 0.25947 0.45633 0.66141 0.0
C121 C 0.2784 0.44433 0.63818 0.0
C122 C 0.29716 0.47331 0.79586 0.0
C123 C 0.23235 0.4575 0.63055 0.0
C124 C 0.16874 0.42622 0.76461 0.0
C125 C 0.17425 0.46368 0.76093 0.0
C126 C 0.19905 0.42668 0.7538 0.0
C127 C 0.23605 0.46571 0.73962 0.0
C128 C 0.24293 0.5044 0.74113 0.0
C129 C 0.21182 0.50289 0.75121 0.0
C130 C 0.1903 0.38459 0.75292 0.0
C131 C 0.28216 0.54701 0.72817 0.0
H132 H 0.32678 0.44736 0.7377 0.0
H133 H 0.27347 0.43661 0.59862 0.0
H134 H 0.29871 0.50053 0.80484 0.0
H135 H 0.27255 0.44493 0.81732 0.0
H136 H 0.32448 0.48126 0.80855 0.0
H137 H 0.23419 0.45348 0.58992 0.0
H138 H 0.20185 0.4314 0.64288 0.0
H139 H 0.23925 0.4884 0.63611 0.0
H140 H 0.14001 0.39584 0.77277 0.0
H141 H 0.21663 0.53222 0.74923 0.0
H142 H 0.21332 0.38761 0.77293 0.0
H143 H 0.18983 0.37577 0.71357 0.0
H144 H 0.16173 0.35807 0.77027 0.0
H145 H 0.30627 0.54784 0.73813 0.0
H146 H 0.28686 0.57379 0.74753 0.0
H147 H 0.28337 0.55258 0.68729 0.0
C148 C 0.64956 0.18345 0.28166 0.0
C149 C 0.62068 0.17793 0.2533 0.0
C150 C 0.68874 0.22131 0.27781 0.0
C151 C 0.69932 0.25362 0.24344 0.0
C152 C 0.67017 0.24825 0.21492 0.0
C153 C 0.63109 0.21072 0.22081 0.0
C154 C 0.71886 0.22653 0.31006 0.0
C155 C 0.68038 0.28139 0.17689 0.0
C156 C 0.79694 0.36668 0.25731 0.0
C157 C 0.82049 0.36572 0.22503 0.0
C158 C 0.7575 0.33031 0.26399 0.0
C159 C 0.74098 0.29259 0.23646 0.0
C160 C 0.76439 0.29191 0.20263 0.0
C161 C 0.80409 0.3283 0.19799 0.0
C162 C 0.73381 0.33189 0.30146 0.0
C163 C 0.74751 0.25273 0.17144 0.0
H164 H 0.64147 0.15813 0.3069 0.0
H165 H 0.60882 0.20623 0.19833 0.0
H166 H 0.73927 0.2276 0.28614 0.0
H167 H 0.73629 0.25734 0.33076 0.0
H168 H 0.7055 0.1999 0.33748 0.0
H169 H 0.6542 0.27245 0.15797 0.0
H170 H 0.69637 0.31303 0.19513 0.0
H171 H 0.69995 0.28533 0.14804 0.0
H172 H 0.80974 0.39547 0.27874 0.0
H173 H 0.82229 0.32765 0.17288 0.0
H174 H 0.72225 0.30686 0.33056 0.0
H175 H 0.70841 0.32484 0.28276 0.0
H176 H 0.75114 0.36364 0.32012 0.0
H177 H 0.73716 0.22542 0.19615 0.0
H178 H 0.76906 0.25833 0.14475 0.0
H179 H 0.72195 0.24308 0.14998 0.0
C180 C 0.4243 0.7403 0.72853 0.0
C181 C 0.45027 0.7706 0.69194 0.0
C182 C 0.41533 0.70082 0.73248 0.0
C183 C 0.43299 0.69155 0.69932 0.0
C184 C 0.45725 0.72079 0.66035 0.0
C185 C 0.46555 0.75996 0.65705 0.0
C186 C 0.38877 0.67018 0.77399 0.0
C187 C 0.47634 0.71185 0.62395 0.0
C188 C 0.45887 0.62699 0.74739 0.0
C189 C 0.43085 0.58715 0.72405 0.0
C190 C 0.45904 0.66063 0.74064 0.0
C191 C 0.43057 0.65452 0.70954 0.0
C192 C 0.40122 0.61391 0.68733 0.0
C193 C 0.4016 0.58057 0.69502 0.0
C194 C 0.49049 0.7032 0.76573 0.0
C195 C 0.37046 0.60615 0.65376 0.0
H196 H 0.41182 0.74793 0.75519 0.0
H197 H 0.48533 0.78296 0.62837 0.0
H198 H 0.36715 0.63688 0.75959 0.0
H199 H 0.40626 0.67038 0.80317 0.0
H200 H 0.37297 0.67903 0.79177 0.0
H201 H 0.49074 0.73531 0.59257 0.0
H202 H 0.49862 0.7134 0.64387 0.0
H203 H 0.45453 0.67904 0.60829 0.0
H204 H 0.48129 0.63224 0.7704 0.0
H205 H 0.37979 0.54988 0.67685 0.0
H206 H 0.47721 0.71295 0.78855 0.0
H207 H 0.50896 0.72842 0.73691 0.0
H208 H 0.50949 0.70212 0.79036 0.0
H209 H 0.35846 0.6198 0.67033 0.0
H210 H 0.34617 0.57139 0.64654 0.0
H211 H 0.38378 0.62249 0.61734 0.0
C212 C 0.7577 0.60826 0.2256 0.0
C213 C 0.72254 0.57745 0.19995 0.0
C214 C 0.78665 0.60544 0.22789 0.0
C215 C 0.78047 0.57103 0.20381 0.0
C216 C 0.74552 0.54042 0.17672 0.0
C217 C 0.71696 0.54398 0.17511 0.0
C218 C 0.82353 0.6388 0.25704 0.0
C219 C 0.73797 0.50341 0.15029 0.0
C220 C 0.86878 0.58328 0.17484 0.0
C221 C 0.86752 0.55921 0.21338 0.0
C222 C 0.84067 0.58736 0.1713 0.0
C223 C 0.81056 0.56704 0.20728 0.0
C224 C 0.80941 0.54325 0.24677 0.0
C225 C 0.83788 0.53958 0.24933 0.0
C226 C 0.84295 0.61301 0.12866 0.0
C227 C 0.77788 0.52136 0.28606 0.0
H228 H 0.76236 0.63427 0.24493 0.0
H229 H 0.68986 0.51993 0.15538 0.0
H230 H 0.82625 0.6232 0.28832 0.0
H231 H 0.84933 0.65434 0.23262 0.0
H232 H 0.82423 0.66409 0.27273 0.0
H233 H 0.70987 0.48307 0.12961 0.0
H234 H 0.76182 0.51566 0.12349 0.0
H235 H 0.73753 0.48302 0.17794 0.0
H236 H 0.8915 0.59855 0.1468 0.0
H237 H 0.83659 0.52084 0.27914 0.0
H238 H 0.84511 0.63946 0.14356 0.0
H239 H 0.81597 0.59221 0.10581 0.0
H240 H 0.86833 0.62701 0.10387 0.0
H241 H 0.77824 0.54532 0.30523 0.0
H242 H 0.7813 0.50446 0.31463 0.0
H243 H 0.7489 0.49769 0.2681 0.0
C244 C 0.33241 0.79578 0.79061 0.0
C245 C 0.34688 0.83153 0.76105 0.0
C246 C 0.29322 0.75815 0.7876 0.0
C247 C 0.2684 0.75587 0.75286 0.0
C248 C 0.28247 0.79266 0.72465 0.0
C249 C 0.32161 0.83043 0.72963 0.0
C250 C 0.27905 0.72 0.81941 0.0
C251 C 0.25718 0.79119 0.68642 0.0
C252 C 0.19138 0.64339 0.7028 0.0
C253 C 0.15848 0.62911 0.7297 0.0
C254 C 0.22679 0.68555 0.70785 0.0
C255 C 0.22958 0.71358 0.7419 0.0
C256 C 0.19609 0.69969 0.7681 0.0
C257 C 0.16064 0.6576 0.76112 0.0
C258 C 0.26159 0.6995 0.6782 0.0
C259 C 0.1982 0.72831 0.80558 0.0
H260 H 0.35208 0.79689 0.81507 0.0
H261 H 0.33306 0.85806 0.70639 0.0
H262 H 0.25069 0.70535 0.83695 0.0
H263 H 0.27451 0.69519 0.79551 0.0
H264 H 0.30018 0.72891 0.84937 0.0
H265 H 0.27071 0.8237 0.67249 0.0
H266 H 0.25239 0.77144 0.65409 0.0
H267 H 0.2282 0.77584 0.70234 0.0
H268 H 0.18951 0.62133 0.67821 0.0
H269 H 0.13517 0.64629 0.78225 0.0
H270 H 0.28327 0.70411 0.70383 0.0
H271 H 0.27596 0.73069 0.65939 0.0
H272 H 0.25348 0.67553 0.6494 0.0
H273 H 0.21575 0.73316 0.83834 0.0
H274 H 0.1689 0.71438 0.81894 0.0
H275 H 0.21297 0.7604 0.78913 0.0
C276 C 0.50716 0.00131 0.85653 0.0
C277 C 0.49259 0.95929 0.86255 0.0
C278 C 0.51026 0.02448 0.89745 0.0
C279 C 0.4982 0.00492 0.94524 0.0
C280 C 0.48262 0.96214 0.95126 0.0
C281 C 0.48026 0.93994 0.90984 0.0
C282 C 0.52745 0.07018 0.88985 0.0
C283 C 0.46912 0.94007 0.00168 0.0
C284 C 0.53973 0.06404 0.06733 0.0
C285 C 0.50845 0.05905 0.08639 0.0
C286 C 0.53821 0.04998 0.01915 0.0
C287 C 0.50419 0.02967 -0.01001 0.0
C288 C 0.47388 0.02786 0.00747 0.0
C289 C 0.47653 0.043 0.05566 0.0
C290 C 0.57155 0.05343 0.00141 0.0
C291 C 0.43716 0.00637 0.97736 0.0
H292 H 0.51689 0.01645 0.81998 0.0
H293 H 0.46865 0.90734 0.91452 0.0
H294 H 0.50795 0.07466 0.90576 0.0
H295 H 0.55566 0.09236 0.90999 0.0
H296 H 0.53248 0.07946 0.84968 0.0
H297 H 0.45548 0.90588 -0.00066 0.0
H298 H 0.49425 0.95688 0.02777 0.0
H299 H 0.44773 0.94152 0.01806 0.0
H300 H 0.56454 0.07683 0.09123 0.0
H301 H 0.45228 0.03897 0.07071 0.0
H302 H 0.57906 0.06471 0.96202 0.0
H303 H 0.56275 0.02128 0.00286 0.0
H304 H 0.59799 0.07571 0.02495 0.0
H305 H 0.44408 0.01627 0.9375 0.0
H306 H 0.41953 0.01388 -0.00789 0.0
H307 H 0.41919 0.97106 -0.02122 0.0
C308 C 0.5858 0.53827 0.38937 0.0
C309 C 0.57606 0.5497 0.34724 0.0
C310 C 0.56873 0.53224 0.43593 0.0
C311 C 0.54214 0.53888 0.44033 0.0
C312 C 0.53315 0.55169 0.39813 0.0
C313 C 0.5499 0.55645 0.35188 0.0
C314 C 0.57838 0.51778 0.48007 0.0
C315 C 0.50563 0.56004 0.40174 0.0
C316 C 0.46908 0.48445 0.54637 0.0
C317 C 0.4878 0.5173 0.58203 0.0
C318 C 0.48658 0.49099 0.50005 0.0
C319 C 0.52313 0.53166 0.48891 0.0
C320 C 0.54156 0.56535 0.52419 0.0
C321 C 0.52386 0.55759 0.57066 0.0
C322 C 0.46642 0.45415 0.46354 0.0
C323 C 0.58006 0.60944 0.51297 0.0
H324 H 0.60583 0.53275 0.38562 0.0
H325 H 0.54261 0.56563 0.31926 0.0
H326 H 0.59061 0.54126 0.51104 0.0
H327 H 0.55142 0.48657 0.49429 0.0
H328 H 0.59964 0.51406 0.47034 0.0
H329 H 0.50329 0.57191 0.36589 0.0
H330 H 0.47617 0.53009 0.41248 0.0
H331 H 0.51563 0.58409 0.43135 0.0
H332 H 0.44135 0.45317 0.55534 0.0
H333 H 0.53821 0.58312 0.59814 0.0
H334 H 0.48551 0.44712 0.45514 0.0
H335 H 0.46093 0.463 0.4277 0.0
H336 H 0.43823 0.42446 0.47815 0.0
H337 H 0.60286 0.60746 0.50705 0.0
H338 H 0.58965 0.63261 0.54364 0.0
H339 H 0.5778 0.62215 0.4779 0.0
C340 C 0.01387 0.44609 0.90578 0.0
C341 C 0.04743 0.48453 0.88565 0.0
C342 C 2e-05 0.44545 0.95284 0.0
C343 C 0.02012 0.48435 -0.0204 0.0
C344 C 0.05574 0.5226 0.9609 0.0
C345 C 0.06891 0.52224 0.91381 0.0
C346 C 0.96216 0.40398 0.97175 0.0
C347 C 0.07812 0.56467 -0.01156 0.0
C348 C 0.96122 0.49952 0.05854 0.0
C349 C 0.96961 0.49473 0.10706 0.0
C350 C 0.97697 0.49542 0.01669 0.0
C351 C 0.00164 0.48625 0.02364 0.0
C352 C 0.00954 0.48045 0.07244 0.0
C353 C 0.99355 0.48493 0.1136 0.0
C354 C 0.96788 0.50181 0.96505 0.0
C355 C 0.03559 0.47052 0.08122 0.0
H356 H -0.00303 0.41721 0.88317 0.0
H357 H 0.09442 0.55205 0.89738 0.0
H358 H 0.96444 0.39929 0.01203 0.0
H359 H 0.93876 0.4053 0.96786 0.0
H360 H 0.95339 0.37576 0.95057 0.0
H361 H 0.10753 0.59 0.97222 0.0
H362 H 0.06177 0.57587 -0.01353 0.0
H363 H 0.08136 0.56056 0.02857 0.0
H364 H 0.94281 0.50714 0.05325 0.0
H365 H 0.0006 0.48166 0.15099 0.0
H366 H 0.95495 0.47314 0.94161 0.0
H367 H 0.99516 0.5296 0.94651 0.0
H368 H 0.94737 0.50763 0.96604 0.0
H369 H 0.02522 0.44212 0.05899 0.0
H370 H 0.03677 0.46418 0.1213 0.0
H371 H 0.06558 0.49795 0.06848 0.0
C372 C 0.46942 0.98919 0.35558 0.0
C373 C 0.47923 0.02898 0.36124 0.0
C374 C 0.46703 0.96681 0.39719 0.0
C375 C 0.47519 0.98506 0.44531 0.0
C376 C 0.4864 0.02592 0.451 0.0
C377 C 0.48793 0.04723 0.40886 0.0
C378 C 0.45443 0.92307 0.38988 0.0
C379 C 0.49591 0.04671 0.50177 0.0
C380 C 0.43195 0.9223 0.56541 0.0
C381 C 0.46419 0.93054 0.58712 0.0
C382 C 0.43404 0.93654 0.5169 0.0
C383 C 0.46967 0.96066 0.49046 0.0
C384 C 0.5014 0.9662 0.51091 0.0
C385 C 0.49814 0.95067 0.55921 0.0
C386 C 0.39924 0.92903 0.49585 0.0
C387 C 0.53992 0.99204 0.484 0.0
H388 H 0.46249 0.9749 0.31873 0.0
H389 H 0.49583 0.07814 0.41324 0.0
H390 H 0.4752 0.92144 0.40844 0.0
H391 H 0.42557 0.89828 0.40759 0.0
H392 H 0.45222 0.91497 0.34967 0.0
H393 H 0.50683 0.07985 0.49925 0.0
H394 H 0.46948 0.02728 0.52561 0.0
H395 H 0.51828 0.04795 0.52081 0.0
H396 H 0.40584 0.9069 0.58753 0.0
H397 H 0.52319 0.95748 0.57669 0.0
H398 H 0.39428 0.91879 0.45617 0.0
H399 H 0.40479 0.95944 0.49702 0.0
H400 H 0.37229 0.9043 0.51744 0.0
H401 H 0.53556 0.98318 0.44386 0.0
H402 H 0.55928 0.98753 0.50092 0.0
H403 H 0.5549 0.02663 0.48597 0.0
C404 C 0.46224 0.465 0.84998 0.0
C405 C 0.42946 0.4613 0.84669 0.0
C406 C 0.48028 0.47175 0.89586 0.0
C407 C 0.46572 0.47585 0.93959 0.0
C408 C 0.43234 0.47176 0.93676 0.0
C409 C 0.41419 0.46394 0.89015 0.0
C410 C 0.51509 0.47471 0.89741 0.0
C411 C 0.41647 0.47664 -0.01729 0.0
C412 C 0.4933 0.45854 0.06445 0.0
C413 C 0.5252 0.5007 0.0784 0.0
C414 C 0.4738 0.44992 0.01913 0.0
C415 C 0.48579 0.48453 -0.01197 0.0
C416 C 0.51817 0.52727 0.00204 0.0
C417 C 0.53787 0.53484 0.04698 0.0
C418 C 0.44029 0.40388 0.00469 0.0
C419 C 0.53136 0.56498 0.97015 0.0
H420 H 0.47383 0.46246 0.81637 0.0
H421 H 0.38898 0.4613 0.88746 0.0
H422 H 0.54117 0.50699 0.91055 0.0
H423 H 0.50983 0.45091 0.92436 0.0
H424 H 0.52167 0.46895 0.86021 0.0
H425 H 0.39038 0.47261 0.97422 0.0
H426 H 0.40856 0.45263 0.01143 0.0
H427 H 0.43923 0.50889 -0.0007 0.0
H428 H 0.48337 0.43232 0.08944 0.0
H429 H 0.56199 0.56747 0.05872 0.0
H430 H 0.44604 0.39691 0.96775 0.0
H431 H 0.41318 0.39856 0.00096 0.0
H432 H 0.43528 0.38071 0.03258 0.0
H433 H 0.54036 0.56288 0.93268 0.0
H434 H 0.55615 0.59624 -0.01276 0.0
H435 H 0.50684 0.56425 0.96443 0.0
C436 C 0.05588 0.49389 0.56032 0.0
C437 C 0.03823 0.48248 0.60746 0.0
C438 C 0.03833 0.49563 0.51842 0.0
C439 C 0.00217 0.48544 0.52385 0.0
C440 C 0.98473 0.47502 0.57159 0.0
C441 C 0.00295 0.47359 0.61284 0.0
C442 C 0.0579 0.50704 0.46804 0.0
C443 C 0.94613 0.46378 0.57878 0.0
C444 C 0.97279 0.51552 0.41199 0.0
C445 C 0.95188 0.47776 0.38379 0.0
C446 C 0.98773 0.51801 0.45935 0.0
C447 C 0.98111 0.48175 0.47864 0.0
C448 C 0.95716 0.44256 0.45199 0.0
C449 C 0.94301 0.44114 0.40477 0.0
C450 C 0.01295 0.56025 0.4869 0.0
C451 C 0.94879 0.40293 0.4716 0.0
H452 H 0.08325 0.50106 0.556 0.0
H453 H 0.98896 0.46443 0.64911 0.0
H454 H 0.03965 0.47887 0.44277 0.0
H455 H 0.06088 0.53339 0.45046 0.0
H456 H 0.08722 0.51714 0.47078 0.0
H457 H 0.93854 0.46088 0.61897 0.0
H458 H 0.94665 0.48844 0.56115 0.0
H459 H 0.92275 0.43277 0.56014 0.0
H460 H 0.97986 0.54393 0.39562 0.0
H461 H 0.92652 0.4118 0.38306 0.0
H462 H 0.04382 0.57487 0.48483 0.0
H463 H 0.00491 0.55531 0.52707 0.0
H464 H 0.01064 0.58324 0.47071 0.0
H465 H 0.97591 0.40808 0.47092 0.0
H466 H 0.92633 0.37399 0.44897 0.0
H467 H 0.93876 0.39662 0.511 0.0
loop_
_geom_bond_atom_site_label_1
_geom_bond_atom_site_label_2
_geom_bond_distance
_geom_bond_site_symmetry_2
_ccdc_geom_bond_type
Mg0 O1 2.028 . S
Mg0 O7 1.986 . S
Mg0 O9 2.114 . S
Mg0 O10 2.251 . S
Mg0 O13 2.010 . S
O1 Mg0 2.028 . S
O1 C4 1.250 . S
O2 Mg3 2.028 . S
O2 C4 1.248 . S
Mg3 O2 2.028 . S
Mg3 O8 2.032 . S
Mg3 O10 2.079 . S
C4 O1 1.250 . S
C4 O2 1.248 . S
C5 O6 1.264 . S
C5 O13 1.249 . S
O6 C5 1.264 . S
O7 Mg0 1.986 . S
O7 C11 1.246 . S
O8 Mg3 2.032 . S
O8 C11 1.259 . S
O9 Mg0 2.114 . S
O9 C12 1.252 . S
O10 Mg0 2.251 . S
O10 Mg3 2.079 . S
O10 C12 1.273 . S
C11 O7 1.246 . S
C11 O8 1.259 . S
C12 O9 1.252 . S
C12 O10 1.273 . S
O13 Mg0 2.010 . S
O13 C5 1.249 . S
Mg14 O15 2.028 . S
Mg14 O21 1.986 . S
Mg14 O23 2.114 . S
Mg14 O24 2.251 . S
Mg14 O27 2.010 . S
O15 Mg14 2.028 . S
O15 C18 1.250 . S
O16 Mg17 2.028 . S
O16 C18 1.248 . S
Mg17 O16 2.028 . S
Mg17 O22 2.032 . S
Mg17 O24 2.079 . S
C18 O15 1.250 . S
C18 O16 1.248 . S
C19 O20 1.264 . S
C19 O27 1.249 . S
O20 C19 1.264 . S
O21 Mg14 1.986 . S
O21 C25 1.246 . S
O22 Mg17 2.032 . S
O22 C25 1.259 . S
O23 Mg14 2.114 . S
O23 C26 1.252 . S
O24 Mg14 2.251 . S
O24 Mg17 2.079 . S
O24 C26 1.273 . S
C25 O21 1.246 . S
C25 O22 1.259 . S
C26 O23 1.252 . S
C26 O24 1.273 . S
O27 Mg14 2.010 . S
O27 C19 1.249 . S
Mg28 O29 2.028 . S
Mg28 O35 1.986 . S
Mg28 O37 2.114 . S
Mg28 O38 2.251 . S
Mg28 O41 2.010 . S
O29 Mg28 2.028 . S
O29 C32 1.250 . S
O30 Mg31 2.028 . S
O30 C32 1.248 . S
Mg31 O30 2.028 . S
Mg31 O36 2.032 . S
Mg31 O38 2.079 . S
C32 O29 1.250 . S
C32 O30 1.248 . S
C33 O34 1.264 . S
C33 O41 1.249 . S
O34 C33 1.264 . S
O35 Mg28 1.986 . S
O35 C39 1.246 . S
O36 Mg31 2.032 . S
O36 C39 1.259 . S
O37 Mg28 2.114 . S
O37 C40 1.252 . S
O38 Mg28 2.251 . S
O38 Mg31 2.079 . S
O38 C40 1.273 . S
C39 O35 1.246 . S
C39 O36 1.259 . S
C40 O37 1.252 . S
C40 O38 1.273 . S
O41 Mg28 2.010 . S
O41 C33 1.249 . S
Mg42 O43 2.028 . S
Mg42 O49 1.986 . S
Mg42 O51 2.114 . S
Mg42 O52 2.251 . S
Mg42 O55 2.010 . S
O43 Mg42 2.028 . S
O43 C46 1.250 . S
O44 Mg45 2.028 . S
O44 C46 1.248 . S
Mg45 O44 2.028 . S
Mg45 O50 2.032 . S
Mg45 O52 2.079 . S
C46 O43 1.250 . S
C46 O44 1.248 . S
C47 O48 1.264 . S
C47 O55 1.249 . S
O48 C47 1.264 . S
O49 Mg42 1.986 . S
O49 C53 1.246 . S
O50 Mg45 2.032 . S
O50 C53 1.259 . S
O51 Mg42 2.114 . S
O51 C54 1.252 . S
O52 Mg42 2.251 . S
O52 Mg45 2.079 . S
O52 C54 1.273 . S
C53 O49 1.246 . S
C53 O50 1.259 . S
C54 O51 1.252 . S
C54 O52 1.273 . S
O55 Mg42 2.010 . S
O55 C47 1.249 . S
Mg56 O57 2.028 . S
Mg56 O63 1.986 . S
Mg56 O65 2.114 . S
Mg56 O66 2.251 . S
Mg56 O69 2.010 . S
O57 Mg56 2.028 . S
O57 C60 1.250 . S
O58 Mg59 2.028 . S
O58 C60 1.248 . S
Mg59 O58 2.028 . S
Mg59 O64 2.032 . S
Mg59 O66 2.079 . S
C60 O57 1.250 . S
C60 O58 1.248 . S
C61 O62 1.264 . S
C61 O69 1.249 . S
O62 C61 1.264 . S
O63 Mg56 1.986 . S
O63 C67 1.246 . S
O64 Mg59 2.032 . S
O64 C67 1.259 . S
O65 Mg56 2.114 . S
O65 C68 1.252 . S
O66 Mg56 2.251 . S
O66 Mg59 2.079 . S
O66 C68 1.273 . S
C67 O63 1.246 . S
C67 O64 1.259 . S
C68 O65 1.252 . S
C68 O66 1.273 . S
O69 Mg56 2.010 . S
O69 C61 1.249 . S
Mg70 O71 2.028 . S
Mg70 O77 1.986 . S
Mg70 O79 2.114 . S
Mg70 O80 2.251 . S
Mg70 O83 2.010 . S
O71 Mg70 2.028 . S
O71 C74 1.250 . S
O72 Mg73 2.028 . S
O72 C74 1.248 . S
Mg73 O72 2.028 . S
Mg73 O78 2.032 . S
Mg73 O80 2.079 . S
C74 O71 1.250 . S
C74 O72 1.248 . S
C75 O76 1.264 . S
C75 O83 1.249 . S
O76 C75 1.264 . S
O77 Mg70 1.986 . S
O77 C81 1.246 . S
O78 Mg73 2.032 . S
O78 C81 1.259 . S
O79 Mg70 2.114 . S
O79 C82 1.252 . S
O80 Mg70 2.251 . S
O80 Mg73 2.079 . S
O80 C82 1.273 . S
C81 O77 1.246 . S
C81 O78 1.259 . S
C82 O79 1.252 . S
C82 O80 1.273 . S
O83 Mg70 2.010 . S
O83 C75 1.249 . S
C84 C85 1.391 . S
C84 C86 1.394 . S
C84 H100 0.931 . S
C85 C84 1.391 . S
C85 C89 1.376 . S
C86 C84 1.394 . S
C86 C87 1.369 . S
C86 C90 1.531 . S
C87 C86 1.369 . S
C87 C88 1.410 . S
C87 C95 1.503 . S
C88 C87 1.410 . S
C88 C89 1.392 . S
C88 C91 1.511 . S
C89 C85 1.376 . S
C89 C88 1.392 . S
C89 H101 0.929 . S
C90 C86 1.531 . S
C90 H102 0.960 . S
C90 H103 0.962 . S
C90 H104 0.960 . S
C91 C88 1.511 . S
C91 H105 0.961 . S
C91 H106 0.961 . S
C91 H107 0.961 . S
C92 C93 1.370 . S
C92 C94 1.363 . S
C92 H108 0.931 . S
C93 C92 1.370 . S
C93 C97 1.408 . S
C94 C92 1.363 . S
C94 C95 1.370 . S
C94 C98 1.524 . S
C95 C87 1.503 . S
C95 C94 1.370 . S
C95 C96 1.403 . S
C96 C95 1.403 . S
C96 C97 1.404 . S
C96 C99 1.539 . S
C97 C93 1.408 . S
C97 C96 1.404 . S
C97 H109 0.930 . S
C98 C94 1.524 . S
C98 H110 0.956 . S
C98 H111 0.961 . S
C98 H112 0.961 . S
C99 C96 1.539 . S
C99 H113 0.958 . S
C99 H114 0.961 . S
C99 H115 0.960 . S
H100 C84 0.931 . S
H101 C89 0.929 . S
H102 C90 0.960 . S
H103 C90 0.962 . S
H104 C90 0.960 . S
H105 C91 0.961 . S
H106 C91 0.961 . S
H107 C91 0.961 . S
H108 C92 0.931 . S
H109 C97 0.930 . S
H110 C98 0.956 . S
H111 C98 0.961 . S
H112 C98 0.961 . S
H113 C99 0.958 . S
H114 C99 0.961 . S
H115 C99 0.960 . S
C116 C117 1.391 . S
C116 C118 1.394 . S
C116 H132 0.931 . S
C117 C116 1.391 . S
C117 C121 1.376 . S
C118 C116 1.394 . S
C118 C119 1.369 . S
C118 C122 1.531 . S
C119 C118 1.369 . S
C119 C120 1.410 . S
C119 C127 1.503 . S
C120 C119 1.410 . S
C120 C121 1.392 . S
C120 C123 1.511 . S
C121 C117 1.376 . S
C121 C120 1.392 . S
C121 H133 0.929 . S
C122 C118 1.531 . S
C122 H134 0.960 . S
C122 H135 0.962 . S
C122 H136 0.960 . S
C123 C120 1.511 . S
C123 H137 0.961 . S
C123 H138 0.961 . S
C123 H139 0.961 . S
C124 C125 1.370 . S
C124 C126 1.363 . S
C124 H140 0.931 . S
C125 C124 1.370 . S
C125 C129 1.408 . S
C126 C124 1.363 . S
C126 C127 1.370 . S
C126 C130 1.524 . S
C127 C119 1.503 . S
C127 C126 1.370 . S
C127 C128 1.403 . S
C128 C127 1.403 . S
C128 C129 1.404 . S
C128 C131 1.539 . S
C129 C125 1.408 . S
C129 C128 1.404 . S
C129 H141 0.930 . S
C130 C126 1.524 . S
C130 H142 0.956 . S
C130 H143 0.961 . S
C130 H144 0.961 . S
C131 C128 1.539 . S
C131 H145 0.958 . S
C131 H146 0.961 . S
C131 H147 0.960 . S
H132 C116 0.931 . S
H133 C121 0.929 . S
H134 C122 0.960 . S
H135 C122 0.962 . S
H136 C122 0.960 . S
H137 C123 0.961 . S
H138 C123 0.961 . S
H139 C123 0.961 . S
H140 C124 0.931 . S
H141 C129 0.930 . S
H142 C130 0.956 . S
H143 C130 0.961 . S
H144 C130 0.961 . S
H145 C131 0.958 . S
H146 C131 0.961 . S
H147 C131 0.960 . S
C148 C149 1.391 . S
C148 C150 1.394 . S
C148 H164 0.931 . S
C149 C148 1.391 . S
C149 C153 1.376 . S
C150 C148 1.394 . S
C150 C151 1.369 . S
C150 C154 1.531 . S
C151 C150 1.369 . S
C151 C152 1.410 . S
C151 C159 1.503 . S
C152 C151 1.410 . S
C152 C153 1.392 . S
C152 C155 1.511 . S
C153 C149 1.376 . S
C153 C152 1.392 . S
C153 H165 0.929 . S
C154 C150 1.531 . S
C154 H166 0.960 . S
C154 H167 0.962 . S
C154 H168 0.960 . S
C155 C152 1.511 . S
C155 H169 0.961 . S
C155 H170 0.961 . S
C155 H171 0.961 . S
C156 C157 1.370 . S
C156 C158 1.363 . S
C156 H172 0.931 . S
C157 C156 1.370 . S
C157 C161 1.408 . S
C158 C156 1.363 . S
C158 C159 1.370 . S
C158 C162 1.524 . S
C159 C151 1.503 . S
C159 C158 1.370 . S
C159 C160 1.403 . S
C160 C159 1.403 . S
C160 C161 1.404 . S
C160 C163 1.539 . S
C161 C157 1.408 . S
C161 C160 1.404 . S
C161 H173 0.930 . S
C162 C158 1.524 . S
C162 H174 0.956 . S
C162 H175 0.961 . S
C162 H176 0.961 . S
C163 C160 1.539 . S
C163 H177 0.958 . S
C163 H178 0.961 . S
C163 H179 0.960 . S
H164 C148 0.931 . S
H165 C153 0.929 . S
H166 C154 0.960 . S
H167 C154 0.962 . S
H168 C154 0.960 . S
H169 C155 0.961 . S
H170 C155 0.961 . S
H171 C155 0.961 . S
H172 C156 0.931 . S
H173 C161 0.930 . S
H174 C162 0.956 . S
H175 C162 0.961 . S
H176 C162 0.961 . S
H177 C163 0.958 . S
H178 C163 0.961 . S
H179 C163 0.960 . S
C180 C181 1.391 . S
C180 C182 1.394 . S
C180 H196 0.931 . S
C181 C180 1.391 . S
C181 C185 1.376 . S
C182 C180 1.394 . S
C182 C183 1.369 . S
C182 C186 1.531 . S
C183 C182 1.369 . S
C183 C184 1.410 . S
C183 C191 1.503 . S
C184 C183 1.410 . S
C184 C185 1.392 . S
C184 C187 1.511 . S
C185 C181 1.376 . S
C185 C184 1.392 . S
C185 H197 0.929 . S
C186 C182 1.531 . S
C186 H198 0.960 . S
C186 H199 0.962 . S
C186 H200 0.960 . S
C187 C184 1.511 . S
C187 H201 0.961 . S
C187 H202 0.961 . S
C187 H203 0.961 . S
C188 C189 1.370 . S
C188 C190 1.363 . S
C188 H204 0.931 . S
C189 C188 1.370 . S
C189 C193 1.408 . S
C190 C188 1.363 . S
C190 C191 1.370 . S
C190 C194 1.524 . S
C191 C183 1.503 . S
C191 C190 1.370 . S
C191 C192 1.403 . S
C192 C191 1.403 . S
C192 C193 1.404 . S
C192 C195 1.539 . S
C193 C189 1.408 . S
C193 C192 1.404 . S
C193 H205 0.930 . S
C194 C190 1.524 . S
C194 H206 0.956 . S
C194 H207 0.961 . S
C194 H208 0.961 . S
C195 C192 1.539 . S
C195 H209 0.958 . S
C195 H210 0.961 . S
C195 H211 0.960 . S
H196 C180 0.931 . S
H197 C185 0.929 . S
H198 C186 0.960 . S
H199 C186 0.962 . S
H200 C186 0.960 . S
H201 C187 0.961 . S
H202 C187 0.961 . S
H203 C187 0.961 . S
H204 C188 0.931 . S
H205 C193 0.930 . S
H206 C194 0.956 . S
H207 C194 0.961 . S
H208 C194 0.961 . S
H209 C195 0.958 . S
H210 C195 0.961 . S
H211 C195 0.960 . S
C212 C213 1.391 . S
C212 C214 1.394 . S
C212 H228 0.931 . S
C213 C212 1.391 . S
C213 C217 1.376 . S
C214 C212 1.394 . S
C214 C215 1.369 . S
C214 C218 1.531 . S
C215 C214 1.369 . S
C215 C216 1.410 . S
C215 C223 1.503 . S
C216 C215 1.410 . S
C216 C217 1.392 . S
C216 C219 1.511 . S
C217 C213 1.376 . S
C217 C216 1.392 . S
C217 H229 0.929 . S
C218 C214 1.531 . S
C218 H230 0.960 . S
C218 H231 0.962 . S
C218 H232 0.960 . S
C219 C216 1.511 . S
C219 H233 0.961 . S
C219 H234 0.961 . S
C219 H235 0.961 . S
C220 C221 1.370 . S
C220 C222 1.363 . S
C220 H236 0.931 . S
C221 C220 1.370 . S
C221 C225 1.408 . S
C222 C220 1.363 . S
C222 C223 1.370 . S
C222 C226 1.524 . S
C223 C215 1.503 . S
C223 C222 1.370 . S
C223 C224 1.403 . S
C224 C223 1.403 . S
C224 C225 1.404 . S
C224 C227 1.539 . S
C225 C221 1.408 . S
C225 C224 1.404 . S
C225 H237 0.930 . S
C226 C222 1.524 . S
C226 H238 0.956 . S
C226 H239 0.961 . S
C226 H240 0.961 . S
C227 C224 1.539 . S
C227 H241 0.958 . S
C227 H242 0.961 . S
C227 H243 0.960 . S
H228 C212 0.931 . S
H229 C217 0.929 . S
H230 C218 0.960 . S
H231 C218 0.962 . S
H232 C218 0.960 . S
H233 C219 0.961 . S
H234 C219 0.961 . S
H235 C219 0.961 . S
H236 C220 0.931 . S
H237 C225 0.930 . S
H238 C226 0.956 . S
H239 C226 0.961 . S
H240 C226 0.961 . S
H241 C227 0.958 . S
H242 C227 0.961 . S
H243 C227 0.960 . S
C244 C245 1.391 . S
C244 C246 1.394 . S
C244 H260 0.931 . S
C245 C244 1.391 . S
C245 C249 1.376 . S
C246 C244 1.394 . S
C246 C247 1.369 . S
C246 C250 1.531 . S
C247 C246 1.369 . S
C247 C248 1.410 . S
C247 C255 1.503 . S
C248 C247 1.410 . S
C248 C249 1.392 . S
C248 C251 1.511 . S
C249 C245 1.376 . S
C249 C248 1.392 . S
C249 H261 0.929 . S
C250 C246 1.531 . S
C250 H262 0.960 . S
C250 H263 0.962 . S
C250 H264 0.960 . S
C251 C248 1.511 . S
C251 H265 0.961 . S
C251 H266 0.961 . S
C251 H267 0.961 . S
C252 C253 1.370 . S
C252 C254 1.363 . S
C252 H268 0.931 . S
C253 C252 1.370 . S
C253 C257 1.408 . S
C254 C252 1.363 . S
C254 C255 1.370 . S
C254 C258 1.524 . S
C255 C247 1.503 . S
C255 C254 1.370 . S
C255 C256 1.403 . S
C256 C255 1.403 . S
C256 C257 1.404 . S
C256 C259 1.539 . S
C257 C253 1.408 . S
C257 C256 1.404 . S
C257 H269 0.930 . S
C258 C254 1.524 . S
C258 H270 0.956 . S
C258 H271 0.961 . S
C258 H272 0.961 . S
C259 C256 1.539 . S
C259 H273 0.958 . S
C259 H274 0.961 . S
C259 H275 0.960 . S
H260 C244 0.931 . S
H261 C249 0.929 . S
H262 C250 0.960 . S
H263 C250 0.962 . S
H264 C250 0.960 . S
H265 C251 0.961 . S
H266 C251 0.961 . S
H267 C251 0.961 . S
H268 C252 0.931 . S
H269 C257 0.930 . S
H270 C258 0.956 . S
H271 C258 0.961 . S
H272 C258 0.961 . S
H273 C259 0.958 . S
H274 C259 0.961 . S
H275 C259 0.960 . S
C276 C277 1.391 . S
C276 C278 1.394 1_565 S
C276 H292 0.931 . S
C277 C276 1.391 . S
C277 C281 1.376 . S
C278 C276 1.394 1_545 S
C278 C279 1.369 1_545 S
C278 C282 1.531 . S
C279 C278 1.369 1_565 S
C279 C280 1.410 . S
C279 C287 1.503 1_566 S
C280 C279 1.410 . S
C280 C281 1.392 . S
C280 C283 1.511 1_556 S
C281 C277 1.376 . S
C281 C280 1.392 . S
C281 H293 0.929 . S
C282 C278 1.531 . S
C282 H294 0.960 . S
C282 H295 0.962 . S
C282 H296 0.960 . S
C283 C280 1.511 1_554 S
C283 H297 0.961 . S
C283 H298 0.961 . S
C283 H299 0.961 . S
C284 C285 1.370 . S
C284 C286 1.363 . S
C284 H300 0.931 . S
C285 C284 1.370 . S
C285 C289 1.408 . S
C286 C284 1.363 . S
C286 C287 1.370 . S
C286 C290 1.524 . S
C287 C279 1.503 1_544 S
C287 C286 1.370 . S
C287 C288 1.399 . S
C288 C287 1.399 . S
C288 C289 1.407 . S
C288 C291 1.539 1_545 S
C289 C285 1.408 . S
C289 C288 1.407 . S
C289 H301 0.930 . S
C290 C286 1.524 . S
C290 H302 0.956 1_554 S
C290 H303 0.961 . S
C290 H304 0.961 . S
C291 C288 1.539 1_565 S
C291 H305 0.958 1_554 S
C291 H306 0.961 . S
C291 H307 0.960 1_554 S
H292 C276 0.931 . S
H293 C281 0.929 . S
H294 C282 0.960 . S
H295 C282 0.962 . S
H296 C282 0.960 . S
H297 C283 0.961 . S
H298 C283 0.961 . S
H299 C283 0.961 . S
H300 C284 0.931 . S
H301 C289 0.930 . S
H302 C290 0.956 1_556 S
H303 C290 0.961 . S
H304 C290 0.961 . S
H305 C291 0.958 1_556 S
H306 C291 0.961 . S
H307 C291 0.960 1_556 S
C308 C309 1.391 . S
C308 C310 1.394 . S
C308 H324 0.931 . S
C309 C308 1.391 . S
C309 C313 1.376 . S
C310 C308 1.394 . S
C310 C311 1.369 . S
C310 C314 1.531 . S
C311 C310 1.369 . S
C311 C312 1.410 . S
C311 C319 1.503 . S
C312 C311 1.410 . S
C312 C313 1.392 . S
C312 C315 1.511 . S
C313 C309 1.376 . S
C313 C312 1.392 . S
C313 H325 0.929 . S
C314 C310 1.531 . S
C314 H326 0.960 . S
C314 H327 0.962 . S
C314 H328 0.960 . S
C315 C312 1.511 . S
C315 H329 0.961 . S
C315 H330 0.961 . S
C315 H331 0.961 . S
C316 C317 1.370 . S
C316 C318 1.363 . S
C316 H332 0.931 . S
C317 C316 1.370 . S
C317 C321 1.408 . S
C318 C316 1.363 . S
C318 C319 1.370 . S
C318 C322 1.524 . S
C319 C311 1.503 . S
C319 C318 1.370 . S
C319 C320 1.403 . S
C320 C319 1.403 . S
C320 C321 1.404 . S
C320 C323 1.539 . S
C321 C317 1.408 . S
C321 C320 1.404 . S
C321 H333 0.930 . S
C322 C318 1.524 . S
C322 H334 0.956 . S
C322 H335 0.961 . S
C322 H336 0.961 . S
C323 C320 1.539 . S
C323 H337 0.958 . S
C323 H338 0.961 . S
C323 H339 0.960 . S
H324 C308 0.931 . S
H325 C313 0.929 . S
H326 C314 0.960 . S
H327 C314 0.962 . S
H328 C314 0.960 . S
H329 C315 0.961 . S
H330 C315 0.961 . S
H331 C315 0.961 . S
H332 C316 0.931 . S
H333 C321 0.930 . S
H334 C322 0.956 . S
H335 C322 0.961 . S
H336 C322 0.961 . S
H337 C323 0.958 . S
H338 C323 0.961 . S
H339 C323 0.960 . S
C340 C341 1.391 1_655 S
C340 C342 1.394 . S
C340 H356 0.931 . S
C341 C340 1.391 1_455 S
C341 C345 1.376 . S
C342 C340 1.394 . S
C342 C343 1.369 1_655 S
C342 C346 1.531 . S
C343 C342 1.369 1_455 S
C343 C344 1.410 . S
C343 C351 1.503 1_456 S
C344 C343 1.410 . S
C344 C345 1.392 . S
C344 C347 1.511 1_556 S
C345 C341 1.376 . S
C345 C344 1.392 . S
C345 H357 0.929 . S
C346 C342 1.531 . S
C346 H358 0.960 . S
C346 H359 0.962 . S
C346 H360 0.960 . S
C347 C344 1.511 1_554 S
C347 H361 0.961 . S
C347 H362 0.961 . S
C347 H363 0.961 . S
C348 C349 1.370 . S
C348 C350 1.363 . S
C348 H364 0.931 . S
C349 C348 1.370 . S
C349 C353 1.408 . S
C350 C348 1.363 . S
C350 C351 1.370 . S
C350 C354 1.524 1_655 S
C351 C343 1.503 1_654 S
C351 C350 1.370 . S
C351 C352 1.403 . S
C352 C351 1.403 . S
C352 C353 1.404 . S
C352 C355 1.539 . S
C353 C349 1.408 . S
C353 C352 1.404 . S
C353 H365 0.930 . S
C354 C350 1.524 1_455 S
C354 H366 0.956 1_554 S
C354 H367 0.961 . S
C354 H368 0.961 . S
C355 C352 1.539 . S
C355 H369 0.958 . S
C355 H370 0.961 . S
C355 H371 0.960 . S
H356 C340 0.931 . S
H357 C345 0.929 . S
H358 C346 0.960 . S
H359 C346 0.962 . S
H360 C346 0.960 . S
H361 C347 0.961 . S
H362 C347 0.961 . S
H363 C347 0.961 . S
H364 C348 0.931 . S
H365 C353 0.930 . S
H366 C354 0.956 1_556 S
H367 C354 0.961 . S
H368 C354 0.961 . S
H369 C355 0.958 . S
H370 C355 0.961 . S
H371 C355 0.960 . S
C372 C373 1.391 . S
C372 C374 1.394 1_545 S
C372 H388 0.931 1_545 S
C373 C372 1.391 . S
C373 C377 1.376 . S
C374 C372 1.394 1_565 S
C374 C375 1.369 1_565 S
C374 C378 1.531 . S
C375 C374 1.369 1_545 S
C375 C376 1.410 . S
C375 C383 1.503 1_545 S
C376 C375 1.410 . S
C376 C377 1.392 . S
C376 C379 1.511 . S
C377 C373 1.376 . S
C377 C376 1.392 . S
C377 H389 0.929 . S
C378 C374 1.531 . S
C378 H390 0.960 . S
C378 H391 0.962 . S
C378 H392 0.960 . S
C379 C376 1.511 . S
C379 H393 0.961 . S
C379 H394 0.961 . S
C379 H395 0.961 . S
C380 C381 1.370 . S
C380 C382 1.363 . S
C380 H396 0.931 . S
C381 C380 1.370 . S
C381 C385 1.408 . S
C382 C380 1.363 . S
C382 C383 1.370 . S
C382 C386 1.524 1_565 S
C383 C375 1.503 1_565 S
C383 C382 1.370 . S
C383 C384 1.403 . S
C384 C383 1.403 . S
C384 C385 1.404 . S
C384 C387 1.539 . S
C385 C381 1.408 . S
C385 C384 1.404 . S
C385 H397 0.930 . S
C386 C382 1.524 1_545 S
C386 H398 0.956 1_545 S
C386 H399 0.961 . S
C386 H400 0.961 . S
C387 C384 1.539 . S
C387 H401 0.958 . S
C387 H402 0.961 . S
C387 H403 0.934 1_565 S
H388 C372 0.931 1_565 S
H389 C377 0.929 . S
H390 C378 0.960 . S
H391 C378 0.962 . S
H392 C378 0.960 . S
H393 C379 0.961 . S
H394 C379 0.961 . S
H395 C379 0.961 . S
H396 C380 0.931 . S
H397 C385 0.930 . S
H398 C386 0.956 1_565 S
H399 C386 0.961 . S
H400 C386 0.961 . S
H401 C387 0.958 . S
H402 C387 0.961 . S
H403 C387 0.934 1_545 S
C404 C405 1.391 . S
C404 C406 1.394 . S
C404 H420 0.931 . S
C405 C404 1.391 . S
C405 C409 1.376 . S
C406 C404 1.394 . S
C406 C407 1.369 . S
C406 C410 1.531 . S
C407 C406 1.369 . S
C407 C408 1.410 . S
C407 C415 1.503 1_556 S
C408 C407 1.410 . S
C408 C409 1.392 . S
C408 C411 1.511 1_556 S
C409 C405 1.376 . S
C409 C408 1.392 . S
C409 H421 0.929 . S
C410 C406 1.531 . S
C410 H422 0.960 . S
C410 H423 0.962 . S
C410 H424 0.960 . S
C411 C408 1.511 1_554 S
C411 H425 0.961 . S
C411 H426 0.961 . S
C411 H427 0.961 . S
C412 C413 1.370 . S
C412 C414 1.363 . S
C412 H428 0.931 . S
C413 C412 1.370 . S
C413 C417 1.408 . S
C414 C412 1.363 . S
C414 C415 1.370 . S
C414 C418 1.524 1_554 S
C415 C407 1.503 1_554 S
C415 C414 1.370 . S
C415 C416 1.403 . S
C416 C415 1.403 . S
C416 C417 1.404 . S
C416 C419 1.539 . S
C417 C413 1.408 . S
C417 C416 1.404 . S
C417 H429 0.930 . S
C418 C414 1.524 1_556 S
C418 H430 0.956 . S
C418 H431 0.961 . S
C418 H432 0.961 1_556 S
C419 C416 1.539 . S
C419 H433 0.958 . S
C419 H434 0.961 . S
C419 H435 0.960 . S
H420 C404 0.931 . S
H421 C409 0.929 . S
H422 C410 0.960 . S
H423 C410 0.962 . S
H424 C410 0.960 . S
H425 C411 0.961 . S
H426 C411 0.961 . S
H427 C411 0.961 . S
H428 C412 0.931 . S
H429 C417 0.930 . S
H430 C418 0.956 . S
H431 C418 0.961 . S
H432 C418 0.961 1_554 S
H433 C419 0.958 . S
H434 C419 0.961 . S
H435 C419 0.960 . S
C436 C437 1.391 . S
C436 C438 1.394 . S
C436 H452 0.931 . S
C437 C436 1.391 . S
C437 C441 1.376 . S
C438 C436 1.394 . S
C438 C439 1.369 . S
C438 C442 1.531 . S
C439 C438 1.369 . S
C439 C440 1.410 1_455 S
C439 C447 1.503 1_455 S
C440 C439 1.410 1_655 S
C440 C441 1.392 1_655 S
C440 C443 1.511 . S
C441 C437 1.376 . S
C441 C440 1.392 1_455 S
C441 H453 0.929 1_455 S
C442 C438 1.531 . S
C442 H454 0.960 . S
C442 H455 0.962 . S
C442 H456 0.960 . S
C443 C440 1.511 . S
C443 H457 0.961 . S
C443 H458 0.961 . S
C443 H459 0.961 . S
C444 C445 1.370 . S
C444 C446 1.363 1_655 S
C444 H460 0.931 1_655 S
C445 C444 1.370 . S
C445 C449 1.408 . S
C446 C444 1.363 1_455 S
C446 C447 1.370 1_455 S
C446 C450 1.524 . S
C447 C439 1.503 1_655 S
C447 C446 1.370 1_655 S
C447 C448 1.403 . S
C448 C447 1.403 . S
C448 C449 1.404 . S
C448 C451 1.539 . S
C449 C445 1.408 . S
C449 C448 1.404 . S
C449 H461 0.930 . S
C450 C446 1.524 . S
C450 H462 0.956 . S
C450 H463 0.961 . S
C450 H464 0.961 . S
C451 C448 1.539 . S
C451 H465 0.958 . S
C451 H466 0.961 . S
C451 H467 0.960 . S
H452 C436 0.931 . S
H453 C441 0.929 1_655 S
H454 C442 0.960 . S
H455 C442 0.962 . S
H456 C442 0.960 . S
H457 C443 0.961 . S
H458 C443 0.961 . S
H459 C443 0.961 . S
H460 C444 0.931 1_455 S
H461 C449 0.930 . S
H462 C450 0.956 . S
H463 C450 0.961 . S
H464 C450 0.961 . S
H465 C451 0.958 . S
H466 C451 0.961 . S
H467 C451 0.960 . S
C85 C5 0.956 . S
C93 C60 1.010 . S
C117 C19 1.067 . S
C125 C75 1.038 . S
C149 C4 1.041 . S
C157 C32 1.042 . S
C181 C47 0.985 . S
C189 C18 1.014 . S
C213 C61 1.036 . S
C221 C33 1.029 . S
C245 C46 1.023 . S
C253 C74 1.035 . S
C277 C54 1.403 . S
C285 C11 1.390 . S
C309 C68 1.443 . S
C317 C25 1.379 . S
C341 C81 1.417 . S
C349 C40 1.427 . S
C373 C12 1.408 . S
C381 C53 1.393 . S
C405 C26 1.423 . S
C413 C67 1.399 . S
C437 C82 1.438 . S
C445 C39 1.378 . S
