# Generated by pormake.
# Topology mok, (4)-cn, num edge types: 1
# Building blocks:
#     Node 0, Type 0, BuildingBlock: UXUYUI_clean_sbu_0, # of connection points: 4
#     Node 1, Type 0, BuildingBlock: UXUYUI_clean_sbu_0, # of connection points: 4
#     Node 2, Type 0, BuildingBlock: UXUYUI_clean_sbu_0, # of connection points: 4
#     Node 3, Type 0, BuildingBlock: UXUYUI_clean_sbu_0, # of connection points: 4
#     Node 4, Type 0, BuildingBlock: UXUYUI_clean_sbu_0, # of connection points: 4
#     Node 5, Type 0, BuildingBlock: UXUYUI_clean_sbu_0, # of connection points: 4
#     Node 6, Type 0, BuildingBlock: UXUYUI_clean_sbu_0, # of connection points: 4
#     Node 7, Type 0, BuildingBlock: UXUYUI_clean_sbu_0, # of connection points: 4
#     Edge 8, Type (0, 0), BuildingBlock: OJICUG_clean_linker_0, # of connection points: 2
#     Edge 9, Type (0, 0), BuildingBlock: OJICUG_clean_linker_0, # of connection points: 2
#     Edge 10, Type (0, 0), BuildingBlock: OJICUG_clean_linker_0, # of connection points: 2
#     Edge 11, Type (0, 0), BuildingBlock: OJICUG_clean_linker_0, # of connection points: 2
#     Edge 12, Type (0, 0), BuildingBlock: OJICUG_clean_linker_0, # of connection points: 2
#     Edge 13, Type (0, 0), BuildingBlock: OJICUG_clean_linker_0, # of connection points: 2
#     Edge 14, Type (0, 0), BuildingBlock: OJICUG_clean_linker_0, # of connection points: 2
#     Edge 15, Type (0, 0), BuildingBlock: OJICUG_clean_linker_0, # of connection points: 2
#     Edge 16, Type (0, 0), BuildingBlock: OJICUG_clean_linker_0, # of connection points: 2
#     Edge 17, Type (0, 0), BuildingBlock: OJICUG_clean_linker_0, # of connection points: 2
#     Edge 18, Type (0, 0), BuildingBlock: OJICUG_clean_linker_0, # of connection points: 2
#     Edge 19, Type (0, 0), BuildingBlock: OJICUG_clean_linker_0, # of connection points: 2
#     Edge 20, Type (0, 0), BuildingBlock: OJICUG_clean_linker_0, # of connection points: 2
#     Edge 21, Type (0, 0), BuildingBlock: OJICUG_clean_linker_0, # of connection points: 2
#     Edge 22, Type (0, 0), BuildingBlock: OJICUG_clean_linker_0, # of connection points: 2
#     Edge 23, Type (0, 0), BuildingBlock: OJICUG_clean_linker_0, # of connection points: 2
# Relax obj value: 0.076
# Max RMSD: 0.067
# Mean RMSD: 0.067
data_MOF--net-mok--node1-UXUYUI_clean_sbu_0--edge1-OJICUG_clean_linker_0
_symmetry_space_group_name_H-M    P1
_symmetry_Int_Tables_number       1
_symmetry_cell_setting            triclinic
loop_
_symmetry_equiv_pos_as_xyz
'x, y, z'
_cell_length_a     54.96494
_cell_length_b     25.047997
_cell_length_c     30.965937
_cell_angle_alpha  90.000621
_cell_angle_beta   90.000432
_cell_angle_gamma 90.002134
loop_
_atom_site_label
_atom_site_type_symbol
_atom_site_fract_x
_atom_site_fract_y
_atom_site_fract_z
_atom_type_partial_charge
Li0 Li 0.58628 0.35444 0.04258 0.0
Li1 Li 0.61807 0.3079 0.00531 0.0
Li2 Li 0.58691 0.34976 0.96284 0.0
Li3 Li 0.57798 0.26709 0.00628 0.0
C4 C 0.60788 0.43912 0.99982 0.0
N5 N 0.60215 0.54857 0.99497 0.0
C6 C 0.62826 0.4725 0.99909 0.0
C7 C 0.58458 0.46145 0.99805 0.0
C8 C 0.62498 0.52772 0.99664 0.0
C9 C 0.58207 0.51686 0.99562 0.0
C10 C 0.61162 0.2844 0.09468 0.0
C11 C 0.6178 0.2526 0.16735 0.0
N12 N 0.63529 0.29033 0.17323 0.0
C13 C 0.62964 0.3229 0.10145 0.0
C14 C 0.60561 0.249 0.12786 0.0
C15 C 0.6414 0.32524 0.14138 0.0
C16 C 0.56013 0.38742 0.11904 0.0
N17 N 0.57963 0.39686 0.09307 0.0
C18 C 0.59399 0.46459 0.14101 0.0
C19 C 0.59643 0.43447 0.1036 0.0
C20 C 0.5747 0.45453 0.16965 0.0
C21 C 0.55733 0.4158 0.15785 0.0
H22 H 0.54719 0.35668 0.11037 0.0
H23 H 0.61231 0.44019 0.08377 0.0
C24 C 0.66673 0.32436 0.97997 0.0
N25 N 0.65238 0.29332 0.00544 0.0
C26 C 0.69185 0.31591 0.97852 0.0
C27 C 0.68703 0.24429 0.03012 0.0
C28 C 0.66195 0.25349 0.03001 0.0
C29 C 0.7023 0.27573 0.00412 0.0
H30 H 0.6586 0.35564 0.96068 0.0
H31 H 0.65011 0.22886 0.04952 0.0
C32 C 0.53628 0.33766 0.98573 0.0
N33 N 0.49019 0.34091 0.95026 0.0
C34 C 0.52892 0.29834 0.95649 0.0
C35 C 0.52015 0.37841 0.99718 0.0
C36 C 0.50555 0.30072 0.93887 0.0
C37 C 0.49695 0.37946 0.97878 0.0
C38 C 0.61839 0.25266 0.93433 0.0
C39 C 0.62908 0.27744 0.89864 0.0
C40 C 0.6276 0.20398 0.94918 0.0
C41 C 0.649 0.25326 0.87854 0.0
C42 C 0.64756 0.18111 0.92823 0.0
N43 N 0.65776 0.20604 0.89366 0.0
C44 C 0.60108 0.4198 0.89799 0.0
C45 C 0.56198 0.3847 0.88389 0.0
C46 C 0.60007 0.45109 0.86095 0.0
N47 N 0.58202 0.38837 0.90953 0.0
C48 C 0.5606 0.41383 0.84528 0.0
C49 C 0.57983 0.44799 0.83321 0.0
H50 H 0.61736 0.4204 0.91744 0.0
H51 H 0.54724 0.35855 0.8927 0.0
C52 C 0.54278 0.19473 0.04021 0.0
N53 N 0.55965 0.20213 0.00867 0.0
C54 C 0.52903 0.14768 0.04159 0.0
C55 C 0.55049 0.11664 0.97832 0.0
C56 C 0.56362 0.16437 0.97795 0.0
C57 C 0.53276 0.10769 0.01031 0.0
H58 H 0.53984 0.22565 0.06405 0.0
H59 H 0.57691 0.17143 0.95289 0.0
O60 O 0.61096 0.3849 1.00206 0.0
O61 O 0.59955 0.2818 0.05611 0.0
O62 O 0.55888 0.33562 0.00412 0.0
O63 O 0.59931 0.27645 0.95516 0.0
H64 H 0.64642 0.45581 1.00039 0.0
H65 H 0.56861 0.43642 0.99849 0.0
H66 H 0.64059 0.55402 0.99606 0.0
H67 H 0.56415 0.53464 0.99422 0.0
H68 H 0.61334 0.22545 0.19333 0.0
H69 H 0.63447 0.35078 0.07619 0.0
H70 H 0.59161 0.21913 0.12314 0.0
H71 H 0.65536 0.35486 0.14707 0.0
H72 H 0.60757 0.49476 0.14771 0.0
H73 H 0.54227 0.40609 0.17895 0.0
H74 H 0.70303 0.34117 0.95822 0.0
H75 H 0.6944 0.21254 0.04995 0.0
H76 H 0.54124 0.26684 0.94693 0.0
H77 H 0.5255 0.40884 0.02013 0.0
H78 H 0.49965 0.27073 0.91602 0.0
H79 H 0.48429 0.41084 0.98725 0.0
H80 H 0.62219 0.3151 0.88673 0.0
H81 H 0.61972 0.1846 0.97712 0.0
H82 H 0.65753 0.27211 0.851 0.0
H83 H 0.65501 0.1437 0.93959 0.0
H84 H 0.61524 0.47736 0.85451 0.0
H85 H 0.54478 0.4086 0.82493 0.0
H86 H 0.51535 0.14318 0.06648 0.0
H87 H 0.55436 0.08694 0.95388 0.0
Li88 Li 0.39082 0.7106 0.00543 0.0
Li89 Li 0.42258 0.66409 0.04283 0.0
Li90 Li 0.43094 0.7513 0.00636 0.0
Li91 Li 0.42197 0.66851 0.96309 0.0
C92 C 0.39727 0.7344 0.09477 0.0
N93 N 0.37359 0.72889 0.17333 0.0
C94 C 0.3792 0.69604 0.10162 0.0
C95 C 0.40332 0.76989 0.12786 0.0
C96 C 0.36744 0.69391 0.14156 0.0
C97 C 0.39112 0.7665 0.16736 0.0
C98 C 0.40092 0.57933 1.0003 0.0
C99 C 0.42666 0.50146 0.99629 0.0
N100 N 0.40655 0.46982 0.99581 0.0
C101 C 0.38051 0.54602 0.99974 0.0
C102 C 0.4242 0.55689 0.99855 0.0
C103 C 0.38374 0.49077 0.99748 0.0
C104 C 0.34216 0.69415 0.98011 0.0
N105 N 0.35653 0.72527 0.00549 0.0
C106 C 0.32189 0.77446 0.03004 0.0
C107 C 0.34697 0.76522 0.02995 0.0
C108 C 0.30661 0.74293 0.00413 0.0
C109 C 0.31705 0.70263 0.97863 0.0
H110 H 0.35028 0.66277 0.9609 0.0
H111 H 0.35881 0.78991 0.0494 0.0
C112 C 0.44877 0.63106 0.11926 0.0
N113 N 0.4292 0.62179 0.09339 0.0
C114 C 0.45157 0.60271 0.15808 0.0
C115 C 0.41477 0.55431 0.14149 0.0
C116 C 0.41234 0.58439 0.10406 0.0
C117 C 0.43413 0.56419 0.17001 0.0
H118 H 0.46177 0.66163 0.11047 0.0
H119 H 0.39641 0.57879 0.08431 0.0
C120 C 0.39056 0.76556 0.9343 0.0
N121 N 0.35122 0.81205 0.89343 0.0
C122 C 0.37986 0.74059 0.8987 0.0
C123 C 0.38137 0.81434 0.94897 0.0
C124 C 0.35996 0.76472 0.8785 0.0
C125 C 0.36143 0.83714 0.92791 0.0
C126 C 0.4726 0.6804 0.98602 0.0
C127 C 0.48007 0.71962 0.95678 0.0
C128 C 0.48863 0.63949 0.99754 0.0
C129 C 0.50345 0.71696 0.93921 0.0
C130 C 0.51185 0.63817 0.97919 0.0
N131 N 0.51871 0.67661 0.95066 0.0
C132 C 0.46613 0.82367 0.04026 0.0
C133 C 0.44538 0.8539 0.97787 0.0
C134 C 0.47989 0.87072 0.04164 0.0
N135 N 0.4493 0.81622 0.00867 0.0
C136 C 0.45852 0.90163 0.97823 0.0
C137 C 0.4762 0.91064 0.01029 0.0
H138 H 0.46902 0.79281 0.06417 0.0
H139 H 0.43212 0.84681 0.95277 0.0
C140 C 0.40786 0.59809 0.8984 0.0
N141 N 0.42686 0.62976 0.90983 0.0
C142 C 0.4089 0.56677 0.86137 0.0
C143 C 0.44825 0.60451 0.84549 0.0
C144 C 0.44685 0.63365 0.88409 0.0
C145 C 0.42908 0.5701 0.83354 0.0
H146 H 0.3916 0.59734 0.91789 0.0
H147 H 0.46153 0.66003 0.89279 0.0
O148 O 0.40934 0.73681 0.05619 0.0
O149 O 0.39789 0.63357 1.00239 0.0
O150 O 0.40962 0.74183 0.95524 0.0
O151 O 0.44999 0.68271 0.00436 0.0
H152 H 0.37435 0.6681 0.07642 0.0
H153 H 0.41735 0.79966 0.12308 0.0
H154 H 0.35344 0.66439 0.14731 0.0
H155 H 0.39562 0.79372 0.19328 0.0
H156 H 0.44456 0.4836 0.99491 0.0
H157 H 0.36237 0.56279 1.00104 0.0
H158 H 0.44019 0.58186 0.99885 0.0
H159 H 0.36811 0.46454 0.99703 0.0
H160 H 0.31453 0.8063 0.04979 0.0
H161 H 0.30585 0.6773 0.95841 0.0
H162 H 0.46669 0.61228 0.17908 0.0
H163 H 0.40113 0.5243 0.1483 0.0
H164 H 0.38673 0.70285 0.88695 0.0
H165 H 0.38925 0.83386 0.97684 0.0
H166 H 0.35143 0.74573 0.85102 0.0
H167 H 0.354 0.87465 0.93913 0.0
H168 H 0.46783 0.75125 0.94718 0.0
H169 H 0.4832 0.60915 0.02051 0.0
H170 H 0.50943 0.74686 0.91635 0.0
H171 H 0.52442 0.60666 0.98772 0.0
H172 H 0.49353 0.87526 0.06659 0.0
H173 H 0.45468 0.93128 0.95373 0.0
H174 H 0.39378 0.54032 0.85502 0.0
H175 H 0.46402 0.60992 0.82506 0.0
Li176 Li 0.57796 0.75129 0.49914 0.0
Li177 Li 0.58688 0.66866 0.54264 0.0
Li178 Li 0.61806 0.71048 0.50017 0.0
Li179 Li 0.58627 0.66391 0.46291 0.0
C180 C 0.61836 0.76582 0.5711 0.0
N181 N 0.65771 0.81254 0.61174 0.0
C182 C 0.62905 0.7411 0.60682 0.0
C183 C 0.62756 0.81449 0.55621 0.0
C184 C 0.64896 0.76533 0.6269 0.0
C185 C 0.64751 0.8374 0.57715 0.0
C186 C 0.53627 0.68078 0.51975 0.0
C187 C 0.49692 0.63906 0.52677 0.0
N188 N 0.49018 0.67765 0.55528 0.0
C189 C 0.52894 0.72014 0.54898 0.0
C190 C 0.52012 0.64005 0.50834 0.0
C191 C 0.50557 0.71781 0.56663 0.0
C192 C 0.5428 0.82366 0.46512 0.0
N193 N 0.55965 0.81625 0.4967 0.0
C194 C 0.55046 0.90173 0.52704 0.0
C195 C 0.56359 0.854 0.52744 0.0
C196 C 0.53276 0.91069 0.49501 0.0
C197 C 0.52906 0.87071 0.4637 0.0
H198 H 0.53989 0.79275 0.44126 0.0
H199 H 0.57685 0.84693 0.55254 0.0
C200 C 0.60107 0.59875 0.60754 0.0
N201 N 0.58199 0.63008 0.59597 0.0
C202 C 0.60008 0.56746 0.6446 0.0
C203 C 0.56056 0.60453 0.66018 0.0
C204 C 0.56193 0.63365 0.62157 0.0
C205 C 0.57982 0.57047 0.67229 0.0
H206 H 0.61736 0.59821 0.58812 0.0
H207 H 0.54716 0.65971 0.61272 0.0
C208 C 0.61164 0.73388 0.41079 0.0
N209 N 0.63536 0.72786 0.33229 0.0
C210 C 0.62965 0.69534 0.40408 0.0
C211 C 0.60567 0.76928 0.37759 0.0
C212 C 0.64143 0.69296 0.36417 0.0
C213 C 0.61789 0.76563 0.33813 0.0
C214 C 0.60786 0.57927 0.50575 0.0
C215 C 0.62823 0.54589 0.50653 0.0
C216 C 0.58455 0.55694 0.5075 0.0
C217 C 0.62495 0.49066 0.50902 0.0
C218 C 0.58204 0.50154 0.50998 0.0
N219 N 0.60212 0.46982 0.51068 0.0
C220 C 0.6667 0.69404 0.52556 0.0
C221 C 0.66194 0.76486 0.47548 0.0
C222 C 0.69182 0.70248 0.52704 0.0
N223 N 0.65236 0.72505 0.50006 0.0
C224 C 0.68703 0.77407 0.47538 0.0
C225 C 0.70228 0.74264 0.50142 0.0
H226 H 0.65857 0.66277 0.54486 0.0
H227 H 0.65011 0.78948 0.45594 0.0
C228 C 0.56014 0.63092 0.38643 0.0
N229 N 0.57963 0.62145 0.41244 0.0
C230 C 0.55734 0.60253 0.34763 0.0
C231 C 0.59396 0.55365 0.36455 0.0
C232 C 0.5964 0.58378 0.40195 0.0
C233 C 0.57469 0.56374 0.33587 0.0
H234 H 0.54722 0.6617 0.39507 0.0
H235 H 0.61227 0.57803 0.4218 0.0
O236 O 0.59929 0.74198 0.55028 0.0
O237 O 0.55886 0.68276 0.50134 0.0
O238 O 0.59954 0.73653 0.44934 0.0
O239 O 0.61094 0.63348 0.50346 0.0
H240 H 0.62217 0.70345 0.61876 0.0
H241 H 0.61968 0.83382 0.52825 0.0
H242 H 0.65749 0.74653 0.65446 0.0
H243 H 0.65496 0.87481 0.56575 0.0
H244 H 0.48424 0.6077 0.51832 0.0
H245 H 0.54128 0.75162 0.55852 0.0
H246 H 0.52544 0.60959 0.4854 0.0
H247 H 0.49969 0.74784 0.58947 0.0
H248 H 0.55432 0.93142 0.5515 0.0
H249 H 0.5154 0.87522 0.43878 0.0
H250 H 0.61527 0.54127 0.65107 0.0
H251 H 0.54472 0.60969 0.6805 0.0
H252 H 0.63444 0.66746 0.42936 0.0
H253 H 0.59169 0.79918 0.38227 0.0
H254 H 0.65538 0.6633 0.35852 0.0
H255 H 0.61345 0.79278 0.31213 0.0
H256 H 0.64639 0.56257 0.50523 0.0
H257 H 0.56858 0.58197 0.50703 0.0
H258 H 0.64056 0.46437 0.50964 0.0
H259 H 0.56412 0.48375 0.51138 0.0
H260 H 0.703 0.67725 0.54736 0.0
H261 H 0.6944 0.8058 0.45555 0.0
H262 H 0.5423 0.61226 0.32651 0.0
H263 H 0.60753 0.52343 0.35788 0.0
Li264 Li 0.42208 0.34961 0.54288 0.0
Li265 Li 0.43097 0.26709 0.49925 0.0
Li266 Li 0.42268 0.35456 0.46316 0.0
Li267 Li 0.39089 0.30793 0.50034 0.0
C268 C 0.47269 0.33739 0.51997 0.0
N269 N 0.51877 0.34017 0.55551 0.0
C270 C 0.47995 0.29797 0.54919 0.0
C271 C 0.4889 0.37801 0.50858 0.0
C272 C 0.50333 0.30011 0.56685 0.0
C273 C 0.5121 0.37882 0.52701 0.0
C274 C 0.39058 0.25237 0.57115 0.0
C275 C 0.36142 0.18078 0.577 0.0
N276 N 0.35121 0.2055 0.61166 0.0
C277 C 0.37988 0.27695 0.60694 0.0
C278 C 0.38137 0.20377 0.55613 0.0
C279 C 0.35997 0.25265 0.62694 0.0
C280 C 0.40784 0.41921 0.60793 0.0
N281 N 0.42698 0.38809 0.59625 0.0
C282 C 0.44845 0.41381 0.66038 0.0
C283 C 0.44708 0.38472 0.62175 0.0
C284 C 0.42913 0.44764 0.6726 0.0
C285 C 0.40882 0.45046 0.645 0.0
H286 H 0.39153 0.41961 0.58855 0.0
H287 H 0.4619 0.35886 0.61281 0.0
C288 C 0.46613 0.19473 0.46517 0.0
N289 N 0.44928 0.20211 0.49674 0.0
C290 C 0.47988 0.14767 0.46374 0.0
C291 C 0.45845 0.1166 0.52703 0.0
C292 C 0.44532 0.16433 0.52745 0.0
C293 C 0.47616 0.10767 0.49502 0.0
H294 H 0.46906 0.22566 0.44134 0.0
H295 H 0.43205 0.17137 0.55254 0.0
C296 C 0.40113 0.43911 0.5062 0.0
N297 N 0.40691 0.54852 0.51141 0.0
C298 C 0.38077 0.47252 0.50713 0.0
C299 C 0.42444 0.46139 0.50794 0.0
C300 C 0.38407 0.52773 0.50976 0.0
C301 C 0.42698 0.51678 0.51057 0.0
C302 C 0.39726 0.28477 0.41095 0.0
C303 C 0.3793 0.32343 0.40433 0.0
C304 C 0.40316 0.24938 0.37769 0.0
C305 C 0.36748 0.32595 0.36446 0.0
C306 C 0.39091 0.25317 0.33828 0.0
N307 N 0.37348 0.29106 0.33253 0.0
C308 C 0.44875 0.38752 0.38661 0.0
C309 C 0.41261 0.43496 0.40238 0.0
C310 C 0.45153 0.41596 0.34783 0.0
N311 N 0.42932 0.39713 0.41274 0.0
C312 C 0.41504 0.46515 0.365 0.0
C313 C 0.43424 0.45492 0.33621 0.0
H314 H 0.46163 0.3566 0.39515 0.0
H315 H 0.39677 0.44081 0.4223 0.0
C316 C 0.34224 0.32435 0.52575 0.0
N317 N 0.35659 0.29339 0.5002 0.0
C318 C 0.31713 0.31592 0.52721 0.0
C319 C 0.32191 0.24447 0.47544 0.0
C320 C 0.347 0.25365 0.47555 0.0
C321 C 0.30666 0.27584 0.50153 0.0
H322 H 0.35038 0.35556 0.54511 0.0
H323 H 0.35882 0.22907 0.45597 0.0
O324 O 0.45009 0.33559 0.50155 0.0
O325 O 0.40965 0.27629 0.55041 0.0
O326 O 0.39803 0.3849 0.50379 0.0
O327 O 0.4094 0.28198 0.44946 0.0
H328 H 0.46756 0.26659 0.55873 0.0
H329 H 0.48362 0.40852 0.48565 0.0
H330 H 0.50915 0.27004 0.58968 0.0
H331 H 0.52482 0.41009 0.51858 0.0
H332 H 0.35397 0.14342 0.5655 0.0
H333 H 0.38677 0.31454 0.61898 0.0
H334 H 0.38925 0.18455 0.52812 0.0
H335 H 0.35144 0.27134 0.65455 0.0
H336 H 0.46432 0.40883 0.68061 0.0
H337 H 0.39357 0.47648 0.65156 0.0
H338 H 0.49354 0.14318 0.43882 0.0
H339 H 0.45459 0.08689 0.55147 0.0
H340 H 0.3626 0.45588 0.50585 0.0
H341 H 0.44041 0.43634 0.50735 0.0
H342 H 0.36847 0.55404 0.5105 0.0
H343 H 0.44491 0.53452 0.51195 0.0
H344 H 0.37457 0.35129 0.42965 0.0
H345 H 0.41711 0.21939 0.3823 0.0
H346 H 0.35357 0.3557 0.35888 0.0
H347 H 0.39529 0.22604 0.31223 0.0
H348 H 0.46652 0.40611 0.32661 0.0
H349 H 0.40152 0.49549 0.35844 0.0
H350 H 0.30595 0.34111 0.54757 0.0
H351 H 0.31454 0.21279 0.45555 0.0
Li352 Li 0.08622 0.85455 0.04266 0.0
Li353 Li 0.11802 0.808 0.00543 0.0
Li354 Li 0.08684 0.84976 0.96294 0.0
Li355 Li 0.07793 0.76715 0.00645 0.0
C356 C 0.10779 0.93919 0.9998 0.0
N357 N 0.10203 0.04863 0.99482 0.0
C358 C 0.12816 0.9726 0.99899 0.0
C359 C 0.08448 0.96149 0.99805 0.0
C360 C 0.12487 0.02782 0.99648 0.0
C361 C 0.08196 0.01689 0.99554 0.0
C362 C 0.11158 0.78462 0.09482 0.0
C363 C 0.11779 0.75292 0.16751 0.0
N364 N 0.13526 0.7907 0.17336 0.0
C365 C 0.12959 0.82316 0.10154 0.0
C366 C 0.10559 0.74924 0.12803 0.0
C367 C 0.14135 0.82558 0.14148 0.0
C368 C 0.06009 0.88751 0.11916 0.0
N369 N 0.07957 0.89701 0.09313 0.0
C370 C 0.0939 0.96484 0.14101 0.0
C371 C 0.09634 0.9347 0.1036 0.0
C372 C 0.07464 0.95471 0.1697 0.0
C373 C 0.0573 0.9159 0.15796 0.0
H374 H 0.04718 0.85671 0.11053 0.0
H375 H 0.1122 0.94048 0.08374 0.0
C376 C 0.16666 0.82446 0.98 0.0
N377 N 0.15232 0.79347 0.00555 0.0
C378 C 0.19178 0.81605 0.97853 0.0
C379 C 0.18701 0.74455 0.03027 0.0
C380 C 0.16192 0.75372 0.03017 0.0
C381 C 0.20225 0.77595 0.00419 0.0
H382 H 0.15851 0.85569 0.96067 0.0
H383 H 0.1501 0.72912 0.04974 0.0
C384 C 0.03622 0.83758 0.98581 0.0
N385 N 0.99015 0.84061 0.95026 0.0
C386 C 0.02892 0.79821 0.95658 0.0
C387 C 0.02005 0.87828 0.99721 0.0
C388 C 0.00555 0.80048 0.93892 0.0
C389 C 0.99686 0.87921 0.97877 0.0
C390 C 0.11833 0.75261 0.93452 0.0
C391 C 0.12902 0.7773 0.89877 0.0
C392 C 0.12755 0.70398 0.94945 0.0
C393 C 0.14893 0.75306 0.87871 0.0
C394 C 0.1475 0.68106 0.92853 0.0
N395 N 0.1577 0.70589 0.89391 0.0
C396 C 0.10104 0.91962 0.89802 0.0
C397 C 0.06188 0.88478 0.88401 0.0
C398 C 0.10005 0.9509 0.86096 0.0
N399 N 0.08194 0.88832 0.9096 0.0
C400 C 0.06051 0.9139 0.8454 0.0
C401 C 0.07978 0.94792 0.83328 0.0
H402 H 0.11733 0.92014 0.91744 0.0
H403 H 0.0471 0.85875 0.89287 0.0
C404 C 0.04276 0.69476 0.04045 0.0
N405 N 0.05962 0.70216 0.0089 0.0
C406 C 0.02902 0.6477 0.04186 0.0
C407 C 0.05046 0.61666 0.97857 0.0
C408 C 0.06359 0.6644 0.97818 0.0
C409 C 0.03275 0.60771 0.01057 0.0
H410 H 0.03983 0.72568 0.06429 0.0
H411 H 0.07686 0.67146 0.9531 0.0
O412 O 0.11088 0.88498 1.00211 0.0
O413 O 0.09951 0.78194 0.05626 0.0
O414 O 0.05882 0.83566 0.00423 0.0
O415 O 0.09926 0.77646 0.95532 0.0
H416 H 0.14632 0.95594 1.00029 0.0
H417 H 0.06851 0.93645 0.99854 0.0
H418 H 0.14047 0.05413 0.99584 0.0
H419 H 0.06403 0.03465 0.99415 0.0
H420 H 0.11334 0.72579 0.19352 0.0
H421 H 0.1344 0.85102 0.07626 0.0
H422 H 0.09161 0.71934 0.12334 0.0
H423 H 0.1553 0.85523 0.14714 0.0
H424 H 0.10746 0.99507 0.14766 0.0
H425 H 0.04227 0.90614 0.1791 0.0
H426 H 0.20294 0.84126 0.95817 0.0
H427 H 0.19439 0.71286 0.05013 0.0
H428 H 0.04127 0.76675 0.94705 0.0
H429 H 0.02536 0.90875 0.02015 0.0
H430 H 0.99969 0.77044 0.91607 0.0
H431 H 0.98417 0.91055 0.9872 0.0
H432 H 0.12212 0.81492 0.8868 0.0
H433 H 0.11968 0.68468 0.97743 0.0
H434 H 0.15745 0.77184 0.85112 0.0
H435 H 0.15496 0.64368 0.93996 0.0
H436 H 0.11525 0.97707 0.85448 0.0
H437 H 0.04467 0.90877 0.82509 0.0
H438 H 0.01535 0.64319 0.06676 0.0
H439 H 0.05434 0.58696 0.95413 0.0
Li440 Li 0.89088 0.21047 0.00542 0.0
Li441 Li 0.92267 0.16391 0.04268 0.0
Li442 Li 0.93097 0.25127 0.00643 0.0
Li443 Li 0.92205 0.16863 0.96296 0.0
C444 C 0.8973 0.23391 0.09479 0.0
N445 N 0.87359 0.22794 0.1733 0.0
C446 C 0.87929 0.19539 0.10152 0.0
C447 C 0.90328 0.26932 0.12798 0.0
C448 C 0.86751 0.19303 0.14143 0.0
C449 C 0.89107 0.2657 0.16745 0.0
C450 C 0.90107 0.07925 0.99988 0.0
C451 C 0.92688 1.00152 0.99566 0.0
N452 N 0.9068 0.9698 0.99499 0.0
C453 C 0.88069 0.04587 0.99912 0.0
C454 C 0.92437 0.05692 0.99812 0.0
C455 C 0.88397 0.99065 0.99665 0.0
C456 C 0.84223 0.19403 0.98003 0.0
N457 N 0.85658 0.22505 0.00553 0.0
C458 C 0.82191 0.27408 0.03019 0.0
C459 C 0.847 0.26487 0.03009 0.0
C460 C 0.80665 0.24265 0.00416 0.0
C461 C 0.81711 0.20248 0.97856 0.0
H462 H 0.85036 0.16275 0.96074 0.0
H463 H 0.85883 0.2895 0.04962 0.0
C464 C 0.9488 0.13093 0.11916 0.0
N465 N 0.92931 0.12147 0.09316 0.0
C466 C 0.9516 0.10254 0.15796 0.0
C467 C 0.91496 0.0537 0.14108 0.0
C468 C 0.91252 0.08383 0.10367 0.0
C469 C 0.93424 0.06378 0.16974 0.0
H470 H 0.96173 0.16169 0.1105 0.0
H471 H 0.89665 0.07809 0.08383 0.0
C472 C 0.89058 0.26577 0.93447 0.0
N473 N 0.85123 0.31247 0.89381 0.0
C474 C 0.87988 0.24103 0.89876 0.0
C475 C 0.88138 0.31445 0.94934 0.0
C476 C 0.85998 0.26525 0.87867 0.0
C477 C 0.86143 0.33736 0.92839 0.0
C478 C 0.97267 0.18074 0.98585 0.0
C479 C 0.98001 0.22008 0.95662 0.0
C480 C 0.98881 0.14001 0.99728 0.0
C481 C 1.00338 0.21774 0.93898 0.0
C482 C 0.01201 0.13899 0.97886 0.0
N483 N 0.01876 0.17756 0.95035 0.0
C484 C 0.96614 0.32365 0.04045 0.0
C485 C 0.94536 0.35397 0.97811 0.0
C486 C 0.97988 0.37071 0.04186 0.0
N487 N 0.94929 0.31624 0.00886 0.0
C488 C 0.95849 0.40171 0.97851 0.0
C489 C 0.97618 0.41068 0.01055 0.0
H490 H 0.96905 0.29275 0.06431 0.0
H491 H 0.93209 0.3469 0.95301 0.0
C492 C 0.90787 0.09867 0.89807 0.0
N493 N 0.92694 0.13003 0.90964 0.0
C494 C 0.90887 0.06738 0.86102 0.0
C495 C 0.94837 0.10452 0.84541 0.0
C496 C 0.94699 0.13364 0.88402 0.0
C497 C 0.92912 0.07042 0.83332 0.0
H498 H 0.89158 0.0981 0.91751 0.0
H499 H 0.96175 0.15973 0.89285 0.0
O500 O 0.90939 0.23654 0.05624 0.0
O501 O 0.89799 0.13347 1.00215 0.0
O502 O 0.90965 0.24195 0.95529 0.0
O503 O 0.95007 0.18274 0.00425 0.0
H504 H 0.87449 0.1675 0.07625 0.0
H505 H 0.91727 0.29921 0.12329 0.0
H506 H 0.85355 0.16339 0.1471 0.0
H507 H 0.89551 0.29285 0.19344 0.0
H508 H 0.9448 0.98373 0.99427 0.0
H509 H 0.86254 0.06256 1.00041 0.0
H510 H 0.94035 0.08195 0.99858 0.0
H511 H 0.86836 0.96436 0.99604 0.0
H512 H 0.81455 0.30583 0.05001 0.0
H513 H 0.80593 0.17723 0.95824 0.0
H514 H 0.96665 0.11226 0.17908 0.0
H515 H 0.90139 0.0235 0.14776 0.0
H516 H 0.88676 0.20337 0.88684 0.0
H517 H 0.88926 0.3338 0.97729 0.0
H518 H 0.85144 0.24643 0.85112 0.0
H519 H 0.85399 0.37478 0.93977 0.0
H520 H 0.96768 0.25157 0.94707 0.0
H521 H 0.98348 0.10956 0.02022 0.0
H522 H 0.00927 0.24775 0.91613 0.0
H523 H 0.02468 0.10763 0.98732 0.0
H524 H 0.99353 0.37523 0.06679 0.0
H525 H 0.95463 0.43139 0.95404 0.0
H526 H 0.89368 0.04116 0.85456 0.0
H527 H 0.9642 0.1097 0.82508 0.0
Li528 Li 0.07798 0.25132 0.4993 0.0
Li529 Li 0.08691 0.16865 0.54273 0.0
Li530 Li 0.11808 0.21053 0.50028 0.0
Li531 Li 0.08629 0.16398 0.463 0.0
C532 C 0.11838 0.26576 0.57127 0.0
N533 N 0.15774 0.3124 0.61196 0.0
C534 C 0.12908 0.24096 0.60695 0.0
C535 C 0.12758 0.31446 0.55645 0.0
C536 C 0.14899 0.26515 0.62705 0.0
C537 C 0.14753 0.33734 0.57741 0.0
C538 C 0.03629 0.18072 0.51984 0.0
C539 C 0.99696 0.13888 0.52679 0.0
N540 N 0.99019 0.17742 0.5553 0.0
C541 C 0.02892 0.22004 0.54907 0.0
C542 C 0.02017 0.13995 0.50839 0.0
C543 C 0.00554 0.21763 0.56669 0.0
C544 C 0.0428 0.32368 0.46532 0.0
N545 N 0.05965 0.31627 0.4969 0.0
C546 C 0.05046 0.40174 0.52726 0.0
C547 C 0.06359 0.35401 0.52765 0.0
C548 C 0.03276 0.4107 0.49523 0.0
C549 C 0.02905 0.37073 0.46392 0.0
H550 H 0.03989 0.29278 0.44146 0.0
H551 H 0.07686 0.34694 0.55273 0.0
C552 C 0.10107 0.09857 0.60757 0.0
N553 N 0.08202 0.13003 0.59604 0.0
C554 C 0.10005 0.06728 0.64462 0.0
C555 C 0.06059 0.10459 0.6603 0.0
C556 C 0.06198 0.13372 0.62169 0.0
C557 C 0.07982 0.07041 0.67236 0.0
H558 H 0.11735 0.09795 0.58812 0.0
H559 H 0.04725 0.1599 0.61289 0.0
C560 C 0.11164 0.23403 0.41092 0.0
N561 N 0.13534 0.22812 0.33239 0.0
C562 C 0.12966 0.19554 0.40417 0.0
C563 C 0.10564 0.26945 0.37774 0.0
C564 C 0.14144 0.19321 0.36424 0.0
C565 C 0.11785 0.26585 0.33827 0.0
C566 C 0.10789 0.0793 0.50575 0.0
C567 C 0.12827 0.04593 0.50646 0.0
C568 C 0.08459 0.05696 0.50751 0.0
C569 C 0.125 0.9907 0.50889 0.0
C570 C 0.08209 1.00155 0.50993 0.0
N571 N 0.10217 0.96984 0.51056 0.0
C572 C 0.16673 0.19408 0.52563 0.0
C573 C 0.16195 0.26499 0.47564 0.0
C574 C 0.19185 0.20254 0.52709 0.0
N575 N 0.15238 0.22513 0.50017 0.0
C576 C 0.18703 0.27421 0.47553 0.0
C577 C 0.2023 0.24275 0.50152 0.0
H578 H 0.15861 0.16276 0.5449 0.0
H579 H 0.15011 0.28963 0.45613 0.0
C580 C 0.06013 0.13099 0.38655 0.0
N581 N 0.07964 0.12157 0.41251 0.0
C582 C 0.05732 0.10261 0.34775 0.0
C583 C 0.09399 0.05385 0.36455 0.0
C584 C 0.09643 0.08397 0.40196 0.0
C585 C 0.07469 0.0639 0.33593 0.0
H586 H 0.04719 0.16172 0.39524 0.0
H587 H 0.11232 0.07826 0.42178 0.0
O588 O 0.09931 0.24196 0.55042 0.0
O589 O 0.05889 0.18278 0.50145 0.0
O590 O 0.09956 0.23663 0.44948 0.0
O591 O 0.11096 0.13352 0.50351 0.0
H592 H 0.1222 0.20328 0.61883 0.0
H593 H 0.1197 0.33386 0.52852 0.0
H594 H 0.15752 0.24628 0.65459 0.0
H595 H 0.15497 0.37477 0.56607 0.0
H596 H 0.98431 0.10748 0.51831 0.0
H597 H 0.04123 0.25156 0.55863 0.0
H598 H 0.02552 0.10952 0.48544 0.0
H599 H 0.99964 0.24762 0.58954 0.0
H600 H 0.05432 0.43142 0.55172 0.0
H601 H 0.0154 0.37524 0.439 0.0
H602 H 0.11522 0.04099 0.65105 0.0
H603 H 0.04478 0.10984 0.68065 0.0
H604 H 0.13448 0.16765 0.42943 0.0
H605 H 0.09165 0.29931 0.38245 0.0
H606 H 0.1554 0.16359 0.35857 0.0
H607 H 0.11339 0.29301 0.31228 0.0
H608 H 0.14643 0.06263 0.50515 0.0
H609 H 0.06862 0.08198 0.50709 0.0
H610 H 0.14061 0.96442 0.50945 0.0
H611 H 0.06417 0.98375 0.51133 0.0
H612 H 0.20303 0.17727 0.54738 0.0
H613 H 0.19439 0.30599 0.45573 0.0
H614 H 0.04225 0.11231 0.32666 0.0
H615 H 0.10757 0.02369 0.35784 0.0
Li616 Li 0.92203 0.84974 0.54275 0.0
Li617 Li 0.93096 0.76709 0.49928 0.0
Li618 Li 0.92266 0.85445 0.46301 0.0
Li619 Li 0.89087 0.80789 0.50027 0.0
C620 C 0.97266 0.83764 0.51985 0.0
N621 N 0.01875 0.84086 0.55533 0.0
C622 C 0.98001 0.79831 0.54908 0.0
C623 C 0.98879 0.87839 0.50841 0.0
C624 C 1.00338 0.80068 0.56671 0.0
C625 C 0.012 0.87942 0.52682 0.0
C626 C 0.89056 0.75261 0.57123 0.0
C627 C 0.8614 0.68103 0.57731 0.0
N628 N 0.85119 0.70594 0.61188 0.0
C629 C 0.87986 0.77737 0.60693 0.0
C630 C 0.88135 0.70393 0.55637 0.0
C631 C 0.85995 0.75316 0.62702 0.0
C632 C 0.90786 0.91973 0.60762 0.0
N633 N 0.92693 0.88833 0.59607 0.0
C634 C 0.94835 0.91382 0.6603 0.0
C635 C 0.94697 0.8847 0.62169 0.0
C636 C 0.92911 0.94794 0.67239 0.0
C637 C 0.90886 0.95101 0.64467 0.0
H638 H 0.89157 0.92031 0.58818 0.0
H639 H 0.96172 0.85858 0.61287 0.0
C640 C 0.96614 0.69473 0.46531 0.0
N641 N 0.94928 0.70213 0.49687 0.0
C642 C 0.97989 0.64768 0.46391 0.0
C643 C 0.95847 0.61666 0.52722 0.0
C644 C 0.94533 0.66439 0.52761 0.0
C645 C 0.97617 0.6077 0.49521 0.0
H646 H 0.96906 0.72564 0.44145 0.0
H647 H 0.93206 0.67145 0.55269 0.0
C648 C 0.90106 0.93911 0.50581 0.0
N649 N 0.90679 0.04856 0.51069 0.0
C650 C 0.88068 0.97249 0.50656 0.0
C651 C 0.92436 0.96144 0.50757 0.0
C652 C 0.88396 0.02771 0.50902 0.0
C653 C 0.92687 0.01685 0.51002 0.0
C654 C 0.8973 0.78444 0.4109 0.0
C655 C 0.87929 0.82295 0.40416 0.0
C656 C 0.9033 0.74903 0.37772 0.0
C657 C 0.86752 0.82531 0.36424 0.0
C658 C 0.89109 0.75265 0.33824 0.0
N659 N 0.87361 0.7904 0.33237 0.0
C660 C 0.9488 0.88743 0.38654 0.0
C661 C 0.91252 0.93452 0.40202 0.0
C662 C 0.9516 0.91582 0.34774 0.0
N663 N 0.9293 0.89689 0.41253 0.0
C664 C 0.91496 0.96464 0.36461 0.0
C665 C 0.93424 0.95457 0.33596 0.0
H666 H 0.96173 0.85668 0.39521 0.0
H667 H 0.89664 0.94025 0.42185 0.0
C668 C 0.84221 0.82434 0.52563 0.0
N669 N 0.85656 0.79331 0.50015 0.0
C670 C 0.81709 0.81589 0.52708 0.0
C671 C 0.82191 0.74427 0.47546 0.0
C672 C 0.84699 0.75348 0.47558 0.0
C673 C 0.80664 0.77571 0.50147 0.0
H674 H 0.85034 0.85562 0.54492 0.0
H675 H 0.85882 0.72885 0.45606 0.0
O676 O 0.95006 0.83562 0.50146 0.0
O677 O 0.90963 0.77642 0.55041 0.0
O678 O 0.89798 0.88489 0.50354 0.0
O679 O 0.90939 0.78181 0.44946 0.0
H680 H 0.96768 0.76681 0.55864 0.0
H681 H 0.98345 0.90883 0.48547 0.0
H682 H 0.00927 0.77067 0.58956 0.0
H683 H 0.02466 0.91079 0.51835 0.0
H684 H 0.85395 0.64362 0.56594 0.0
H685 H 0.88674 0.81503 0.61884 0.0
H686 H 0.88923 0.68456 0.52843 0.0
H687 H 0.85141 0.77199 0.65456 0.0
H688 H 0.96417 0.90861 0.68064 0.0
H689 H 0.89368 0.97725 0.65112 0.0
H690 H 0.99355 0.64317 0.439 0.0
H691 H 0.9546 0.58697 0.55168 0.0
H692 H 0.86253 0.9558 0.50525 0.0
H693 H 0.94033 0.93642 0.50712 0.0
H694 H 0.86835 0.054 0.50962 0.0
H695 H 0.94479 0.03464 0.51142 0.0
H696 H 0.87448 0.85083 0.42943 0.0
H697 H 0.91729 0.71915 0.38241 0.0
H698 H 0.85356 0.85494 0.35856 0.0
H699 H 0.89554 0.72549 0.31225 0.0
H700 H 0.96665 0.9061 0.32663 0.0
H701 H 0.90138 0.99483 0.35792 0.0
H702 H 0.80591 0.84114 0.54738 0.0
H703 H 0.81454 0.71252 0.45564 0.0
C704 C 0.76707 0.25507 0.96494 0.0
C705 C 0.77994 0.25132 0.00406 0.0
H706 H 0.73242 0.26617 0.93433 0.0
C707 C 0.76709 0.25551 0.04314 0.0
H708 H 0.77655 0.25224 0.93435 0.0
C709 C 0.74186 0.26286 0.04313 0.0
C710 C 0.72902 0.26707 0.00403 0.0
H711 H 0.77653 0.2524 0.07375 0.0
H712 H 0.73241 0.26597 0.07373 0.0
C713 C 0.74189 0.26333 0.96493 0.0
C714 C 0.24183 0.76326 0.04316 0.0
C715 C 0.22897 0.76731 0.00408 0.0
H716 H 0.27652 0.75293 0.07375 0.0
C717 C 0.24182 0.76345 0.96496 0.0
H718 H 0.2324 0.76647 0.07377 0.0
C719 C 0.26701 0.7552 0.96495 0.0
C720 C 0.27989 0.75161 0.00405 0.0
H721 H 0.23233 0.76617 0.93437 0.0
H722 H 0.27647 0.75226 0.93435 0.0
C723 C 0.26706 0.75594 0.04315 0.0
C724 C 0.76705 0.76332 0.54066 0.0
C725 C 0.77992 0.76705 0.50156 0.0
H726 H 0.73238 0.75224 0.57123 0.0
C727 C 0.76708 0.76284 0.46246 0.0
H728 H 0.77652 0.76616 0.57126 0.0
C729 C 0.74185 0.75549 0.46244 0.0
C730 C 0.729 0.75131 0.50153 0.0
H731 H 0.77653 0.76594 0.43186 0.0
H732 H 0.73241 0.75237 0.43184 0.0
C733 C 0.74186 0.75506 0.54065 0.0
C734 C 0.24186 0.25572 0.46253 0.0
C735 C 0.22902 0.25143 0.50162 0.0
H736 H 0.27653 0.26625 0.43192 0.0
C737 C 0.24189 0.25509 0.54073 0.0
H738 H 0.23241 0.25267 0.43192 0.0
C739 C 0.26708 0.26335 0.54073 0.0
C740 C 0.27994 0.26718 0.50162 0.0
H741 H 0.23242 0.25219 0.57132 0.0
H742 H 0.27655 0.26611 0.57132 0.0
C743 C 0.26709 0.26307 0.46253 0.0
C744 C 0.59588 0.49548 0.23323 0.0
C745 C 0.57396 0.48224 0.21238 0.0
H746 H 0.61331 0.53355 0.28603 0.0
C747 C 0.5519 0.49594 0.23273 0.0
H748 H 0.61331 0.48458 0.21957 0.0
C749 C 0.55189 0.52238 0.27277 0.0
C750 C 0.57396 0.53601 0.29315 0.0
H751 H 0.53463 0.48677 0.21763 0.0
H752 H 0.53463 0.53161 0.28783 0.0
C753 C 0.59588 0.5227 0.27235 0.0
C754 C 0.413 0.52349 0.23373 0.0
C755 C 0.43489 0.5365 0.21274 0.0
H756 H 0.39559 0.48558 0.28663 0.0
C757 C 0.45697 0.52256 0.23295 0.0
H758 H 0.39556 0.53458 0.22019 0.0
C759 C 0.457 0.49611 0.27298 0.0
C760 C 0.43494 0.4827 0.29351 0.0
H761 H 0.47423 0.53156 0.21774 0.0
H762 H 0.47428 0.4867 0.28794 0.0
C763 C 0.41302 0.49625 0.27284 0.0
C764 C 0.45157 0.52366 0.77233 0.0
C765 C 0.42955 0.53898 0.79213 0.0
H766 H 0.46893 0.48526 0.71894 0.0
C767 C 0.40765 0.52385 0.77197 0.0
H768 H 0.46892 0.53357 0.78672 0.0
C769 C 0.40767 0.49323 0.73445 0.0
C770 C 0.42957 0.47874 0.71402 0.0
H771 H 0.39017 0.53573 0.78474 0.0
H772 H 0.3902 0.48086 0.7219 0.0
C773 C 0.45158 0.49467 0.73355 0.0
C774 C 0.55736 0.49468 0.77212 0.0
C775 C 0.57937 0.47911 0.79181 0.0
H776 H 0.54 0.53329 0.71883 0.0
C777 C 0.60127 0.49397 0.77153 0.0
H778 H 0.54001 0.48497 0.7866 0.0
C779 C 0.60127 0.5246 0.73402 0.0
C780 C 0.57937 0.53936 0.7137 0.0
H781 H 0.61875 0.48189 0.78421 0.0
H782 H 0.61874 0.53678 0.72138 0.0
C783 C 0.55736 0.52368 0.73335 0.0
C784 C 0.09584 0.99575 0.23321 0.0
C785 C 0.07392 0.98243 0.21242 0.0
H786 H 0.11329 0.03388 0.28597 0.0
C787 C 0.05186 0.99604 0.23283 0.0
H788 H 0.11327 0.98492 0.21951 0.0
C789 C 0.05187 0.02247 0.27288 0.0
C790 C 0.07395 0.03619 0.2932 0.0
H791 H 0.03459 0.9868 0.21778 0.0
H792 H 0.03461 0.03163 0.28799 0.0
C793 C 0.09585 0.02297 0.27233 0.0
C794 C 0.91306 0.99555 0.2724 0.0
C795 C 0.93497 0.98229 0.29323 0.0
H796 H 0.89563 0.03365 0.21961 0.0
C797 C 0.95704 0.99596 0.27287 0.0
H798 H 0.89563 0.98467 0.28607 0.0
C799 C 0.95704 0.0224 0.23283 0.0
C800 C 0.93497 0.03606 0.21246 0.0
H801 H 0.97431 0.98676 0.28796 0.0
H802 H 0.97431 0.0316 0.21775 0.0
C803 C 0.91306 0.02277 0.23328 0.0
C804 C 0.90767 0.99388 0.73409 0.0
C805 C 0.92957 0.97906 0.7138 0.0
H806 H 0.8902 0.03665 0.78426 0.0
C807 C 0.95158 0.99466 0.73347 0.0
H808 H 0.89019 0.98177 0.72143 0.0
C809 C 0.95158 0.02367 0.77224 0.0
C810 C 0.92957 0.03931 0.79191 0.0
H811 H 0.96893 0.98499 0.71897 0.0
H812 H 0.96894 0.03331 0.78675 0.0
C813 C 0.90767 0.02451 0.77161 0.0
C814 C 0.10124 0.99375 0.77154 0.0
C815 C 0.07934 0.97903 0.79187 0.0
H816 H 0.11873 0.03644 0.72135 0.0
C817 C 0.05733 0.99475 0.77223 0.0
H818 H 0.11871 0.98155 0.78417 0.0
C819 C 0.05734 0.02375 0.73346 0.0
C820 C 0.07936 0.03929 0.71376 0.0
H821 H 0.03997 0.98516 0.78675 0.0
H822 H 0.03999 0.03348 0.71898 0.0
C823 C 0.10125 0.02438 0.73402 0.0
C824 C 0.49767 0.98552 0.04963 0.0
C825 C 0.49077 0.96105 0.01056 0.0
H826 H 0.51649 0.05001 0.08035 0.0
C827 C 0.49783 0.98538 0.97156 0.0
H828 H 0.49237 0.96845 0.08034 0.0
C829 C 0.51119 0.03288 0.97157 0.0
C830 C 0.51819 0.05728 0.01057 0.0
H831 H 0.49324 0.96753 0.94078 0.0
H832 H 0.51583 0.05067 0.94079 0.0
C833 C 0.51124 0.03288 0.04963 0.0
C834 C 0.51114 0.98543 0.53374 0.0
C835 C 0.51818 0.96109 0.49473 0.0
H836 H 0.49315 0.05072 0.56452 0.0
C837 C 0.51126 0.98552 0.45567 0.0
H838 H 0.51575 0.9676 0.56452 0.0
C839 C 0.49768 0.03287 0.45567 0.0
C840 C 0.49074 0.05728 0.49473 0.0
H841 H 0.51654 0.96843 0.42496 0.0
H842 H 0.49241 0.04997 0.42496 0.0
C843 C 0.49777 0.03291 0.53374 0.0
C844 C 0.01116 0.53292 0.97183 0.0
C845 C 0.01818 0.5573 0.01084 0.0
H846 H 0.99319 0.4676 0.94105 0.0
C847 C 0.01124 0.53289 0.0499 0.0
H848 H 0.01578 0.55074 0.94106 0.0
C849 C 0.99766 0.48552 0.04989 0.0
C850 C 0.99075 0.46109 0.01083 0.0
H851 H 0.0165 0.55 0.08062 0.0
H852 H 0.99237 0.46844 0.08061 0.0
C853 C 0.99779 0.48544 0.97183 0.0
C854 C 0.01115 0.48546 0.53395 0.0
C855 C 0.01818 0.4611 0.49495 0.0
H856 H 0.99316 0.55076 0.56473 0.0
C857 C 0.01126 0.48553 0.45589 0.0
H858 H 0.01576 0.46764 0.56473 0.0
C859 C 0.99769 0.53288 0.45588 0.0
C860 C 0.99075 0.5573 0.49494 0.0
H861 H 0.01654 0.46843 0.42517 0.0
H862 H 0.99241 0.54998 0.42517 0.0
C863 C 0.99778 0.53294 0.53395 0.0
loop_
_geom_bond_atom_site_label_1
_geom_bond_atom_site_label_2
_geom_bond_distance
_geom_bond_site_symmetry_2
_ccdc_geom_bond_type
Li0 N17 1.990 . S
Li0 O60 1.956 1_554 S
Li0 O61 1.970 . S
Li0 O62 1.961 . S
Li1 N25 1.990 . S
Li1 O60 1.970 1_554 S
Li1 O61 1.956 . S
Li1 O63 1.961 1_554 S
Li2 N47 1.990 . S
Li2 O60 1.961 . S
Li2 O62 1.956 1_556 S
Li2 O63 1.970 . S
Li3 N53 1.990 . S
Li3 O61 1.961 1_556 S
Li3 O62 1.970 1_556 S
Li3 O63 1.956 . S
C4 C6 1.348 1_556 S
C4 C7 1.356 . S
C4 O60 1.325 . S
N5 C8 1.314 . S
N5 C9 1.279 1_554 S
C6 C4 1.348 1_554 S
C6 C8 1.353 . S
C6 H64 0.929 . S
C7 C4 1.356 . S
C7 C9 1.358 . S
C7 H65 0.930 . S
C8 N5 1.314 . S
C8 C6 1.353 . S
C8 H66 0.930 . S
C9 N5 1.279 1_556 S
C9 C7 1.358 . S
C9 H67 0.930 . S
C10 C13 1.348 . S
C10 C14 1.356 . S
C10 O61 1.325 . S
C11 N12 1.279 . S
C11 C14 1.358 . S
C11 H68 0.930 . S
N12 C11 1.279 . S
N12 C15 1.314 . S
C13 C10 1.348 . S
C13 C15 1.353 . S
C13 H69 0.929 . S
C14 C10 1.356 . S
C14 C11 1.358 . S
C14 H70 0.930 . S
C15 N12 1.314 . S
C15 C13 1.353 . S
C15 H71 0.930 . S
C16 N17 1.314 . S
C16 C21 1.353 . S
C16 H22 0.930 . S
N17 Li0 1.990 . S
N17 C16 1.314 . S
N17 C19 1.279 . S
C18 C19 1.358 . S
C18 C20 1.356 . S
C18 H72 0.930 . S
C19 N17 1.279 . S
C19 C18 1.358 . S
C19 H23 0.930 . S
C20 C18 1.356 . S
C20 C21 1.348 . S
C21 C16 1.353 . S
C21 C20 1.348 . S
C21 H73 0.929 . S
H22 C16 0.930 . S
H23 C19 0.930 . S
C24 N25 1.314 1_556 S
C24 C26 1.353 . S
C24 H30 0.930 . S
N25 Li1 1.990 . S
N25 C24 1.314 1_554 S
N25 C28 1.279 . S
C26 C24 1.353 . S
C26 C29 1.345 1_556 S
C26 H74 0.929 . S
C27 C28 1.358 . S
C27 C29 1.359 . S
C27 H75 0.930 . S
C28 N25 1.279 . S
C28 C27 1.358 . S
C28 H31 0.930 . S
C29 C26 1.345 1_554 S
C29 C27 1.359 . S
H30 C24 0.930 . S
H31 C28 0.930 . S
C32 C34 1.346 1_554 S
C32 C35 1.357 . S
C32 O62 1.325 . S
N33 C36 1.314 . S
N33 C37 1.279 1_556 S
C34 C32 1.346 1_556 S
C34 C36 1.353 . S
C34 H76 0.929 . S
C35 C32 1.357 . S
C35 C37 1.358 . S
C35 H77 0.930 . S
C36 N33 1.314 . S
C36 C34 1.353 . S
C36 H78 0.930 . S
C37 N33 1.279 1_554 S
C37 C35 1.358 . S
C37 H79 0.930 . S
C38 C39 1.348 . S
C38 C40 1.356 . S
C38 O63 1.325 . S
C39 C38 1.348 . S
C39 C41 1.353 . S
C39 H80 0.929 . S
C40 C38 1.356 . S
C40 C42 1.358 . S
C40 H81 0.930 . S
C41 C39 1.353 . S
C41 N43 1.314 . S
C41 H82 0.930 . S
C42 C40 1.358 . S
C42 N43 1.279 . S
C42 H83 0.930 . S
N43 C41 1.314 . S
N43 C42 1.279 . S
C44 C46 1.353 . S
C44 N47 1.314 . S
C44 H50 0.930 . S
C45 N47 1.279 . S
C45 C48 1.358 . S
C45 H51 0.930 . S
C46 C44 1.353 . S
C46 C49 1.348 . S
C46 H84 0.929 . S
N47 Li2 1.990 . S
N47 C44 1.314 . S
N47 C45 1.279 . S
C48 C45 1.358 . S
C48 C49 1.356 . S
C48 H85 0.930 . S
C49 C46 1.348 . S
C49 C48 1.356 . S
H50 C44 0.930 . S
H51 C45 0.930 . S
C52 N53 1.314 1_554 S
C52 C54 1.353 . S
C52 H58 0.930 . S
N53 Li3 1.990 . S
N53 C52 1.314 1_556 S
N53 C56 1.279 . S
C54 C52 1.353 . S
C54 C57 1.350 1_554 S
C54 H86 0.929 . S
C55 C56 1.358 . S
C55 C57 1.354 . S
C55 H87 0.930 . S
C56 N53 1.279 . S
C56 C55 1.358 . S
C56 H59 0.930 . S
C57 C54 1.350 1_556 S
C57 C55 1.354 . S
H58 C52 0.930 . S
H59 C56 0.930 . S
O60 Li0 1.956 1_556 S
O60 Li1 1.970 1_556 S
O60 Li2 1.961 . S
O60 C4 1.325 . S
O61 Li0 1.970 . S
O61 Li1 1.956 . S
O61 Li3 1.961 1_554 S
O61 C10 1.325 . S
O62 Li0 1.961 . S
O62 Li2 1.956 1_554 S
O62 Li3 1.970 1_554 S
O62 C32 1.325 . S
O63 Li1 1.961 1_556 S
O63 Li2 1.970 . S
O63 Li3 1.956 . S
O63 C38 1.325 . S
H64 C6 0.929 . S
H65 C7 0.930 . S
H66 C8 0.930 . S
H67 C9 0.930 . S
H68 C11 0.930 . S
H69 C13 0.929 . S
H70 C14 0.930 . S
H71 C15 0.930 . S
H72 C18 0.930 . S
H73 C21 0.929 . S
H74 C26 0.929 . S
H75 C27 0.930 . S
H76 C34 0.929 . S
H77 C35 0.930 . S
H78 C36 0.930 . S
H79 C37 0.930 . S
H80 C39 0.929 . S
H81 C40 0.930 . S
H82 C41 0.930 . S
H83 C42 0.930 . S
H84 C46 0.929 . S
H85 C48 0.930 . S
H86 C54 0.929 . S
H87 C55 0.930 . S
Li88 N105 1.990 . S
Li88 O148 1.956 . S
Li88 O149 1.970 1_554 S
Li88 O150 1.961 1_554 S
Li89 N113 1.990 . S
Li89 O148 1.970 . S
Li89 O149 1.956 1_554 S
Li89 O151 1.961 . S
Li90 N135 1.990 . S
Li90 O148 1.961 1_556 S
Li90 O150 1.956 . S
Li90 O151 1.970 1_556 S
Li91 N141 1.990 . S
Li91 O149 1.961 . S
Li91 O150 1.970 . S
Li91 O151 1.956 1_556 S
C92 C94 1.348 . S
C92 C95 1.356 . S
C92 O148 1.325 . S
N93 C96 1.314 . S
N93 C97 1.279 . S
C94 C92 1.348 . S
C94 C96 1.353 . S
C94 H152 0.929 . S
C95 C92 1.356 . S
C95 C97 1.358 . S
C95 H153 0.930 . S
C96 N93 1.314 . S
C96 C94 1.353 . S
C96 H154 0.930 . S
C97 N93 1.279 . S
C97 C95 1.358 . S
C97 H155 0.930 . S
C98 C101 1.348 1_556 S
C98 C102 1.356 . S
C98 O149 1.325 . S
C99 N100 1.279 1_556 S
C99 C102 1.358 . S
C99 H156 0.930 . S
N100 C99 1.279 1_554 S
N100 C103 1.314 . S
C101 C98 1.348 1_554 S
C101 C103 1.353 . S
C101 H157 0.929 . S
C102 C98 1.356 . S
C102 C99 1.358 . S
C102 H158 0.930 . S
C103 N100 1.314 . S
C103 C101 1.353 . S
C103 H159 0.930 . S
C104 N105 1.314 1_556 S
C104 C109 1.353 . S
C104 H110 0.930 . S
N105 Li88 1.990 . S
N105 C104 1.314 1_554 S
N105 C107 1.279 . S
C106 C107 1.358 . S
C106 C108 1.359 . S
C106 H160 0.930 . S
C107 N105 1.279 . S
C107 C106 1.358 . S
C107 H111 0.930 . S
C108 C106 1.359 . S
C108 C109 1.345 1_554 S
C109 C104 1.353 . S
C109 C108 1.345 1_556 S
C109 H161 0.929 . S
H110 C104 0.930 . S
H111 C107 0.930 . S
C112 N113 1.314 . S
C112 C114 1.353 . S
C112 H118 0.930 . S
N113 Li89 1.990 . S
N113 C112 1.314 . S
N113 C116 1.279 . S
C114 C112 1.353 . S
C114 C117 1.348 . S
C114 H162 0.929 . S
C115 C116 1.358 . S
C115 C117 1.356 . S
C115 H163 0.930 . S
C116 N113 1.279 . S
C116 C115 1.358 . S
C116 H119 0.930 . S
C117 C114 1.348 . S
C117 C115 1.356 . S
H118 C112 0.930 . S
H119 C116 0.930 . S
C120 C122 1.348 . S
C120 C123 1.356 . S
C120 O150 1.325 . S
N121 C124 1.314 . S
N121 C125 1.279 . S
C122 C120 1.348 . S
C122 C124 1.353 . S
C122 H164 0.929 . S
C123 C120 1.356 . S
C123 C125 1.358 . S
C123 H165 0.930 . S
C124 N121 1.314 . S
C124 C122 1.353 . S
C124 H166 0.930 . S
C125 N121 1.279 . S
C125 C123 1.358 . S
C125 H167 0.930 . S
C126 C127 1.346 1_554 S
C126 C128 1.357 . S
C126 O151 1.325 . S
C127 C126 1.346 1_556 S
C127 C129 1.353 . S
C127 H168 0.929 . S
C128 C126 1.357 . S
C128 C130 1.358 . S
C128 H169 0.930 . S
C129 C127 1.353 . S
C129 N131 1.314 . S
C129 H170 0.930 . S
C130 C128 1.358 . S
C130 N131 1.279 1_554 S
C130 H171 0.930 . S
N131 C129 1.314 . S
N131 C130 1.279 1_556 S
C132 C134 1.353 . S
C132 N135 1.314 1_554 S
C132 H138 0.930 . S
C133 N135 1.279 . S
C133 C136 1.358 . S
C133 H139 0.930 . S
C134 C132 1.353 . S
C134 C137 1.350 1_554 S
C134 H172 0.929 . S
N135 Li90 1.990 . S
N135 C132 1.314 1_556 S
N135 C133 1.279 . S
C136 C133 1.358 . S
C136 C137 1.354 . S
C136 H173 0.930 . S
C137 C134 1.350 1_556 S
C137 C136 1.354 . S
H138 C132 0.930 . S
H139 C133 0.930 . S
C140 N141 1.314 . S
C140 C142 1.353 . S
C140 H146 0.930 . S
N141 Li91 1.990 . S
N141 C140 1.314 . S
N141 C144 1.279 . S
C142 C140 1.353 . S
C142 C145 1.348 . S
C142 H174 0.929 . S
C143 C144 1.358 . S
C143 C145 1.356 . S
C143 H175 0.930 . S
C144 N141 1.279 . S
C144 C143 1.358 . S
C144 H147 0.930 . S
C145 C142 1.348 . S
C145 C143 1.356 . S
H146 C140 0.930 . S
H147 C144 0.930 . S
O148 Li88 1.956 . S
O148 Li89 1.970 . S
O148 Li90 1.961 1_554 S
O148 C92 1.325 . S
O149 Li88 1.970 1_556 S
O149 Li89 1.956 1_556 S
O149 Li91 1.961 . S
O149 C98 1.325 . S
O150 Li88 1.961 1_556 S
O150 Li90 1.956 . S
O150 Li91 1.970 . S
O150 C120 1.325 . S
O151 Li89 1.961 . S
O151 Li90 1.970 1_554 S
O151 Li91 1.956 1_554 S
O151 C126 1.325 . S
H152 C94 0.929 . S
H153 C95 0.930 . S
H154 C96 0.930 . S
H155 C97 0.930 . S
H156 C99 0.930 . S
H157 C101 0.929 . S
H158 C102 0.930 . S
H159 C103 0.930 . S
H160 C106 0.930 . S
H161 C109 0.929 . S
H162 C114 0.929 . S
H163 C115 0.930 . S
H164 C122 0.929 . S
H165 C123 0.930 . S
H166 C124 0.930 . S
H167 C125 0.930 . S
H168 C127 0.929 . S
H169 C128 0.930 . S
H170 C129 0.930 . S
H171 C130 0.930 . S
H172 C134 0.929 . S
H173 C136 0.930 . S
H174 C142 0.929 . S
H175 C143 0.930 . S
Li176 N193 1.990 . S
Li176 O236 1.956 . S
Li176 O237 1.970 . S
Li176 O238 1.961 . S
Li177 N201 1.990 . S
Li177 O236 1.970 . S
Li177 O237 1.956 . S
Li177 O239 1.961 . S
Li178 N223 1.990 . S
Li178 O236 1.961 . S
Li178 O238 1.956 . S
Li178 O239 1.970 . S
Li179 N229 1.990 . S
Li179 O237 1.961 . S
Li179 O238 1.970 . S
Li179 O239 1.956 . S
C180 C182 1.348 . S
C180 C183 1.356 . S
C180 O236 1.325 . S
N181 C184 1.314 . S
N181 C185 1.279 . S
C182 C180 1.348 . S
C182 C184 1.353 . S
C182 H240 0.929 . S
C183 C180 1.356 . S
C183 C185 1.358 . S
C183 H241 0.930 . S
C184 N181 1.314 . S
C184 C182 1.353 . S
C184 H242 0.930 . S
C185 N181 1.279 . S
C185 C183 1.358 . S
C185 H243 0.930 . S
C186 C189 1.348 . S
C186 C190 1.356 . S
C186 O237 1.325 . S
C187 N188 1.279 . S
C187 C190 1.358 . S
C187 H244 0.930 . S
N188 C187 1.279 . S
N188 C191 1.314 . S
C189 C186 1.348 . S
C189 C191 1.353 . S
C189 H245 0.929 . S
C190 C186 1.356 . S
C190 C187 1.358 . S
C190 H246 0.930 . S
C191 N188 1.314 . S
C191 C189 1.353 . S
C191 H247 0.930 . S
C192 N193 1.314 . S
C192 C197 1.353 . S
C192 H198 0.930 . S
N193 Li176 1.990 . S
N193 C192 1.314 . S
N193 C195 1.279 . S
C194 C195 1.358 . S
C194 C196 1.356 . S
C194 H248 0.930 . S
C195 N193 1.279 . S
C195 C194 1.358 . S
C195 H199 0.930 . S
C196 C194 1.356 . S
C196 C197 1.348 . S
C197 C192 1.353 . S
C197 C196 1.348 . S
C197 H249 0.929 . S
H198 C192 0.930 . S
H199 C195 0.930 . S
C200 N201 1.314 . S
C200 C202 1.353 . S
C200 H206 0.930 . S
N201 Li177 1.990 . S
N201 C200 1.314 . S
N201 C204 1.279 . S
C202 C200 1.353 . S
C202 C205 1.348 . S
C202 H250 0.929 . S
C203 C204 1.358 . S
C203 C205 1.356 . S
C203 H251 0.930 . S
C204 N201 1.279 . S
C204 C203 1.358 . S
C204 H207 0.930 . S
C205 C202 1.348 . S
C205 C203 1.356 . S
H206 C200 0.930 . S
H207 C204 0.930 . S
C208 C210 1.348 . S
C208 C211 1.356 . S
C208 O238 1.325 . S
N209 C212 1.314 . S
N209 C213 1.279 . S
C210 C208 1.348 . S
C210 C212 1.353 . S
C210 H252 0.929 . S
C211 C208 1.356 . S
C211 C213 1.358 . S
C211 H253 0.930 . S
C212 N209 1.314 . S
C212 C210 1.353 . S
C212 H254 0.930 . S
C213 N209 1.279 . S
C213 C211 1.358 . S
C213 H255 0.930 . S
C214 C215 1.348 . S
C214 C216 1.356 . S
C214 O239 1.325 . S
C215 C214 1.348 . S
C215 C217 1.353 . S
C215 H256 0.929 . S
C216 C214 1.356 . S
C216 C218 1.358 . S
C216 H257 0.930 . S
C217 C215 1.353 . S
C217 N219 1.314 . S
C217 H258 0.930 . S
C218 C216 1.358 . S
C218 N219 1.279 . S
C218 H259 0.930 . S
N219 C217 1.314 . S
N219 C218 1.279 . S
C220 C222 1.353 . S
C220 N223 1.314 . S
C220 H226 0.930 . S
C221 N223 1.279 . S
C221 C224 1.358 . S
C221 H227 0.930 . S
C222 C220 1.353 . S
C222 C225 1.348 . S
C222 H260 0.929 . S
N223 Li178 1.990 . S
N223 C220 1.314 . S
N223 C221 1.279 . S
C224 C221 1.358 . S
C224 C225 1.356 . S
C224 H261 0.930 . S
C225 C222 1.348 . S
C225 C224 1.356 . S
H226 C220 0.930 . S
H227 C221 0.930 . S
C228 N229 1.314 . S
C228 C230 1.353 . S
C228 H234 0.930 . S
N229 Li179 1.990 . S
N229 C228 1.314 . S
N229 C232 1.279 . S
C230 C228 1.353 . S
C230 C233 1.348 . S
C230 H262 0.929 . S
C231 C232 1.358 . S
C231 C233 1.356 . S
C231 H263 0.930 . S
C232 N229 1.279 . S
C232 C231 1.358 . S
C232 H235 0.930 . S
C233 C230 1.348 . S
C233 C231 1.356 . S
H234 C228 0.930 . S
H235 C232 0.930 . S
O236 Li176 1.956 . S
O236 Li177 1.970 . S
O236 Li178 1.961 . S
O236 C180 1.325 . S
O237 Li176 1.970 . S
O237 Li177 1.956 . S
O237 Li179 1.961 . S
O237 C186 1.325 . S
O238 Li176 1.961 . S
O238 Li178 1.956 . S
O238 Li179 1.970 . S
O238 C208 1.325 . S
O239 Li177 1.961 . S
O239 Li178 1.970 . S
O239 Li179 1.956 . S
O239 C214 1.325 . S
H240 C182 0.929 . S
H241 C183 0.930 . S
H242 C184 0.930 . S
H243 C185 0.930 . S
H244 C187 0.930 . S
H245 C189 0.929 . S
H246 C190 0.930 . S
H247 C191 0.930 . S
H248 C194 0.930 . S
H249 C197 0.929 . S
H250 C202 0.929 . S
H251 C203 0.930 . S
H252 C210 0.929 . S
H253 C211 0.930 . S
H254 C212 0.930 . S
H255 C213 0.930 . S
H256 C215 0.929 . S
H257 C216 0.930 . S
H258 C217 0.930 . S
H259 C218 0.930 . S
H260 C222 0.929 . S
H261 C224 0.930 . S
H262 C230 0.929 . S
H263 C231 0.930 . S
Li264 N281 1.990 . S
Li264 O324 1.956 . S
Li264 O325 1.970 . S
Li264 O326 1.961 . S
Li265 N289 1.990 . S
Li265 O324 1.970 . S
Li265 O325 1.956 . S
Li265 O327 1.961 . S
Li266 N311 1.990 . S
Li266 O324 1.961 . S
Li266 O326 1.956 . S
Li266 O327 1.970 . S
Li267 N317 1.990 . S
Li267 O325 1.961 . S
Li267 O326 1.970 . S
Li267 O327 1.956 . S
C268 C270 1.348 . S
C268 C271 1.356 . S
C268 O324 1.325 . S
N269 C272 1.314 . S
N269 C273 1.279 . S
C270 C268 1.348 . S
C270 C272 1.353 . S
C270 H328 0.929 . S
C271 C268 1.356 . S
C271 C273 1.358 . S
C271 H329 0.930 . S
C272 N269 1.314 . S
C272 C270 1.353 . S
C272 H330 0.930 . S
C273 N269 1.279 . S
C273 C271 1.358 . S
C273 H331 0.930 . S
C274 C277 1.348 . S
C274 C278 1.356 . S
C274 O325 1.325 . S
C275 N276 1.279 . S
C275 C278 1.358 . S
C275 H332 0.930 . S
N276 C275 1.279 . S
N276 C279 1.314 . S
C277 C274 1.348 . S
C277 C279 1.353 . S
C277 H333 0.929 . S
C278 C274 1.356 . S
C278 C275 1.358 . S
C278 H334 0.930 . S
C279 N276 1.314 . S
C279 C277 1.353 . S
C279 H335 0.930 . S
C280 N281 1.314 . S
C280 C285 1.353 . S
C280 H286 0.930 . S
N281 Li264 1.990 . S
N281 C280 1.314 . S
N281 C283 1.279 . S
C282 C283 1.358 . S
C282 C284 1.356 . S
C282 H336 0.930 . S
C283 N281 1.279 . S
C283 C282 1.358 . S
C283 H287 0.930 . S
C284 C282 1.356 . S
C284 C285 1.348 . S
C285 C280 1.353 . S
C285 C284 1.348 . S
C285 H337 0.929 . S
H286 C280 0.930 . S
H287 C283 0.930 . S
C288 N289 1.314 . S
C288 C290 1.353 . S
C288 H294 0.930 . S
N289 Li265 1.990 . S
N289 C288 1.314 . S
N289 C292 1.279 . S
C290 C288 1.353 . S
C290 C293 1.348 . S
C290 H338 0.929 . S
C291 C292 1.358 . S
C291 C293 1.356 . S
C291 H339 0.930 . S
C292 N289 1.279 . S
C292 C291 1.358 . S
C292 H295 0.930 . S
C293 C290 1.348 . S
C293 C291 1.356 . S
H294 C288 0.930 . S
H295 C292 0.930 . S
C296 C298 1.348 . S
C296 C299 1.356 . S
C296 O326 1.325 . S
N297 C300 1.314 . S
N297 C301 1.279 . S
C298 C296 1.348 . S
C298 C300 1.353 . S
C298 H340 0.929 . S
C299 C296 1.356 . S
C299 C301 1.358 . S
C299 H341 0.930 . S
C300 N297 1.314 . S
C300 C298 1.353 . S
C300 H342 0.930 . S
C301 N297 1.279 . S
C301 C299 1.358 . S
C301 H343 0.930 . S
C302 C303 1.348 . S
C302 C304 1.356 . S
C302 O327 1.325 . S
C303 C302 1.348 . S
C303 C305 1.353 . S
C303 H344 0.929 . S
C304 C302 1.356 . S
C304 C306 1.358 . S
C304 H345 0.930 . S
C305 C303 1.353 . S
C305 N307 1.314 . S
C305 H346 0.930 . S
C306 C304 1.358 . S
C306 N307 1.279 . S
C306 H347 0.930 . S
N307 C305 1.314 . S
N307 C306 1.279 . S
C308 C310 1.353 . S
C308 N311 1.314 . S
C308 H314 0.930 . S
C309 N311 1.279 . S
C309 C312 1.358 . S
C309 H315 0.930 . S
C310 C308 1.353 . S
C310 C313 1.348 . S
C310 H348 0.929 . S
N311 Li266 1.990 . S
N311 C308 1.314 . S
N311 C309 1.279 . S
C312 C309 1.358 . S
C312 C313 1.356 . S
C312 H349 0.930 . S
C313 C310 1.348 . S
C313 C312 1.356 . S
H314 C308 0.930 . S
H315 C309 0.930 . S
C316 N317 1.314 . S
C316 C318 1.353 . S
C316 H322 0.930 . S
N317 Li267 1.990 . S
N317 C316 1.314 . S
N317 C320 1.279 . S
C318 C316 1.353 . S
C318 C321 1.348 . S
C318 H350 0.929 . S
C319 C320 1.358 . S
C319 C321 1.356 . S
C319 H351 0.930 . S
C320 N317 1.279 . S
C320 C319 1.358 . S
C320 H323 0.930 . S
C321 C318 1.348 . S
C321 C319 1.356 . S
H322 C316 0.930 . S
H323 C320 0.930 . S
O324 Li264 1.956 . S
O324 Li265 1.970 . S
O324 Li266 1.961 . S
O324 C268 1.325 . S
O325 Li264 1.970 . S
O325 Li265 1.956 . S
O325 Li267 1.961 . S
O325 C274 1.325 . S
O326 Li264 1.961 . S
O326 Li266 1.956 . S
O326 Li267 1.970 . S
O326 C296 1.325 . S
O327 Li265 1.961 . S
O327 Li266 1.970 . S
O327 Li267 1.956 . S
O327 C302 1.325 . S
H328 C270 0.929 . S
H329 C271 0.930 . S
H330 C272 0.930 . S
H331 C273 0.930 . S
H332 C275 0.930 . S
H333 C277 0.929 . S
H334 C278 0.930 . S
H335 C279 0.930 . S
H336 C282 0.930 . S
H337 C285 0.929 . S
H338 C290 0.929 . S
H339 C291 0.930 . S
H340 C298 0.929 . S
H341 C299 0.930 . S
H342 C300 0.930 . S
H343 C301 0.930 . S
H344 C303 0.929 . S
H345 C304 0.930 . S
H346 C305 0.930 . S
H347 C306 0.930 . S
H348 C310 0.929 . S
H349 C312 0.930 . S
H350 C318 0.929 . S
H351 C319 0.930 . S
Li352 N369 1.990 . S
Li352 O412 1.956 1_554 S
Li352 O413 1.970 . S
Li352 O414 1.961 . S
Li353 N377 1.990 . S
Li353 O412 1.970 1_554 S
Li353 O413 1.956 . S
Li353 O415 1.961 1_554 S
Li354 N399 1.990 . S
Li354 O412 1.961 . S
Li354 O414 1.956 1_556 S
Li354 O415 1.970 . S
Li355 N405 1.990 . S
Li355 O413 1.961 1_556 S
Li355 O414 1.970 1_556 S
Li355 O415 1.956 . S
C356 C358 1.348 1_556 S
C356 C359 1.356 . S
C356 O412 1.325 . S
N357 C360 1.314 1_545 S
N357 C361 1.279 1_554 S
C358 C356 1.348 1_554 S
C358 C360 1.353 . S
C358 H416 0.929 . S
C359 C356 1.356 . S
C359 C361 1.358 1_565 S
C359 H417 0.930 . S
C360 N357 1.314 1_565 S
C360 C358 1.353 . S
C360 H418 0.930 . S
C361 N357 1.279 1_556 S
C361 C359 1.358 1_545 S
C361 H419 0.930 . S
C362 C365 1.348 . S
C362 C366 1.356 . S
C362 O413 1.325 . S
C363 N364 1.279 . S
C363 C366 1.358 . S
C363 H420 0.930 . S
N364 C363 1.279 . S
N364 C367 1.314 . S
C365 C362 1.348 . S
C365 C367 1.353 . S
C365 H421 0.929 . S
C366 C362 1.356 . S
C366 C363 1.358 . S
C366 H422 0.930 . S
C367 N364 1.314 . S
C367 C365 1.353 . S
C367 H423 0.930 . S
C368 N369 1.314 . S
C368 C373 1.353 . S
C368 H374 0.930 . S
N369 Li352 1.990 . S
N369 C368 1.314 . S
N369 C371 1.279 . S
C370 C371 1.358 . S
C370 C372 1.356 . S
C370 H424 0.930 . S
C371 N369 1.279 . S
C371 C370 1.358 . S
C371 H375 0.930 . S
C372 C370 1.356 . S
C372 C373 1.348 . S
C373 C368 1.353 . S
C373 C372 1.348 . S
C373 H425 0.929 . S
H374 C368 0.930 . S
H375 C371 0.930 . S
C376 N377 1.314 1_556 S
C376 C378 1.353 . S
C376 H382 0.930 . S
N377 Li353 1.990 . S
N377 C376 1.314 1_554 S
N377 C380 1.279 . S
C378 C376 1.353 . S
C378 C381 1.345 1_556 S
C378 H426 0.929 . S
C379 C380 1.358 . S
C379 C381 1.359 . S
C379 H427 0.930 . S
C380 N377 1.279 . S
C380 C379 1.358 . S
C380 H383 0.930 . S
C381 C378 1.345 1_554 S
C381 C379 1.359 . S
H382 C376 0.930 . S
H383 C380 0.930 . S
C384 C386 1.346 1_554 S
C384 C387 1.357 . S
C384 O414 1.325 . S
N385 C388 1.314 . S
N385 C389 1.254 1_656 S
C386 C384 1.346 1_556 S
C386 C388 1.353 1_455 S
C386 H428 0.929 . S
C387 C384 1.357 . S
C387 C389 1.390 . S
C387 H429 0.930 . S
C388 N385 1.314 . S
C388 C386 1.353 1_655 S
C388 H430 0.930 . S
C389 N385 1.254 1_454 S
C389 C387 1.390 . S
C389 H431 0.924 1_455 S
C390 C391 1.348 . S
C390 C392 1.356 . S
C390 O415 1.325 . S
C391 C390 1.348 . S
C391 C393 1.353 . S
C391 H432 0.929 . S
C392 C390 1.356 . S
C392 C394 1.358 . S
C392 H433 0.930 . S
C393 C391 1.353 . S
C393 N395 1.314 . S
C393 H434 0.930 . S
C394 C392 1.358 . S
C394 N395 1.279 . S
C394 H435 0.930 . S
N395 C393 1.314 . S
N395 C394 1.279 . S
C396 C398 1.353 . S
C396 N399 1.314 . S
C396 H402 0.930 . S
C397 N399 1.279 . S
C397 C400 1.358 . S
C397 H403 0.930 . S
C398 C396 1.353 . S
C398 C401 1.348 . S
C398 H436 0.929 . S
N399 Li354 1.990 . S
N399 C396 1.314 . S
N399 C397 1.279 . S
C400 C397 1.358 . S
C400 C401 1.356 . S
C400 H437 0.930 . S
C401 C398 1.348 . S
C401 C400 1.356 . S
H402 C396 0.930 . S
H403 C397 0.930 . S
C404 N405 1.314 1_554 S
C404 C406 1.353 . S
C404 H410 0.930 . S
N405 Li355 1.990 . S
N405 C404 1.314 1_556 S
N405 C408 1.279 . S
C406 C404 1.353 . S
C406 C409 1.350 1_554 S
C406 H438 0.929 . S
C407 C408 1.358 . S
C407 C409 1.354 . S
C407 H439 0.930 . S
C408 N405 1.279 . S
C408 C407 1.358 . S
C408 H411 0.930 . S
C409 C406 1.350 1_556 S
C409 C407 1.354 . S
H410 C404 0.930 . S
H411 C408 0.930 . S
O412 Li352 1.956 1_556 S
O412 Li353 1.970 1_556 S
O412 Li354 1.961 . S
O412 C356 1.325 . S
O413 Li352 1.970 . S
O413 Li353 1.956 . S
O413 Li355 1.961 1_554 S
O413 C362 1.325 . S
O414 Li352 1.961 . S
O414 Li354 1.956 1_554 S
O414 Li355 1.970 1_554 S
O414 C384 1.325 . S
O415 Li353 1.961 1_556 S
O415 Li354 1.970 . S
O415 Li355 1.956 . S
O415 C390 1.325 . S
H416 C358 0.929 . S
H417 C359 0.930 . S
H418 C360 0.930 . S
H419 C361 0.930 . S
H420 C363 0.930 . S
H421 C365 0.929 . S
H422 C366 0.930 . S
H423 C367 0.930 . S
H424 C370 0.930 . S
H425 C373 0.929 . S
H426 C378 0.929 . S
H427 C379 0.930 . S
H428 C386 0.929 . S
H429 C387 0.930 . S
H430 C388 0.930 . S
H431 C389 0.924 1_655 S
H432 C391 0.929 . S
H433 C392 0.930 . S
H434 C393 0.930 . S
H435 C394 0.930 . S
H436 C398 0.929 . S
H437 C400 0.930 . S
H438 C406 0.929 . S
H439 C407 0.930 . S
Li440 N457 1.990 . S
Li440 O500 1.956 . S
Li440 O501 1.970 1_554 S
Li440 O502 1.961 1_554 S
Li441 N465 1.990 . S
Li441 O500 1.970 . S
Li441 O501 1.956 1_554 S
Li441 O503 1.961 . S
Li442 N487 1.990 . S
Li442 O500 1.961 1_556 S
Li442 O502 1.956 . S
Li442 O503 1.970 1_556 S
Li443 N493 1.990 . S
Li443 O501 1.961 . S
Li443 O502 1.970 . S
Li443 O503 1.956 1_556 S
C444 C446 1.348 . S
C444 C447 1.356 . S
C444 O500 1.325 . S
N445 C448 1.314 . S
N445 C449 1.279 . S
C446 C444 1.348 . S
C446 C448 1.353 . S
C446 H504 0.929 . S
C447 C444 1.356 . S
C447 C449 1.358 . S
C447 H505 0.930 . S
C448 N445 1.314 . S
C448 C446 1.353 . S
C448 H506 0.930 . S
C449 N445 1.279 . S
C449 C447 1.358 . S
C449 H507 0.930 . S
C450 C453 1.348 1_556 S
C450 C454 1.356 . S
C450 O501 1.325 . S
C451 N452 1.279 1_556 S
C451 C454 1.358 1_565 S
C451 H508 0.930 . S
N452 C451 1.279 1_554 S
N452 C455 1.314 1_565 S
C453 C450 1.348 1_554 S
C453 C455 1.353 . S
C453 H509 0.929 . S
C454 C450 1.356 . S
C454 C451 1.358 1_545 S
C454 H510 0.930 . S
C455 N452 1.314 1_545 S
C455 C453 1.353 . S
C455 H511 0.930 . S
C456 N457 1.314 1_556 S
C456 C461 1.353 . S
C456 H462 0.930 . S
N457 Li440 1.990 . S
N457 C456 1.314 1_554 S
N457 C459 1.279 . S
C458 C459 1.358 . S
C458 C460 1.359 . S
C458 H512 0.930 . S
C459 N457 1.279 . S
C459 C458 1.358 . S
C459 H463 0.930 . S
C460 C458 1.359 . S
C460 C461 1.345 1_554 S
C461 C456 1.353 . S
C461 C460 1.345 1_556 S
C461 H513 0.929 . S
H462 C456 0.930 . S
H463 C459 0.930 . S
C464 N465 1.314 . S
C464 C466 1.353 . S
C464 H470 0.930 . S
N465 Li441 1.990 . S
N465 C464 1.314 . S
N465 C468 1.279 . S
C466 C464 1.353 . S
C466 C469 1.348 . S
C466 H514 0.929 . S
C467 C468 1.358 . S
C467 C469 1.356 . S
C467 H515 0.930 . S
C468 N465 1.279 . S
C468 C467 1.358 . S
C468 H471 0.930 . S
C469 C466 1.348 . S
C469 C467 1.356 . S
H470 C464 0.930 . S
H471 C468 0.930 . S
C472 C474 1.348 . S
C472 C475 1.356 . S
C472 O502 1.325 . S
N473 C476 1.314 . S
N473 C477 1.279 . S
C474 C472 1.348 . S
C474 C476 1.353 . S
C474 H516 0.929 . S
C475 C472 1.356 . S
C475 C477 1.358 . S
C475 H517 0.930 . S
C476 N473 1.314 . S
C476 C474 1.353 . S
C476 H518 0.930 . S
C477 N473 1.279 . S
C477 C475 1.358 . S
C477 H519 0.930 . S
C478 C479 1.346 1_554 S
C478 C480 1.357 . S
C478 O503 1.325 . S
C479 C478 1.346 1_556 S
C479 C481 1.353 1_655 S
C479 H520 0.929 . S
C480 C478 1.357 . S
C480 C482 1.390 . S
C480 H521 0.930 . S
C481 C479 1.353 1_455 S
C481 N483 1.314 . S
C481 H522 0.930 . S
C482 C480 1.390 . S
C482 N483 1.254 1_654 S
C482 H523 0.924 1_655 S
N483 C481 1.314 . S
N483 C482 1.254 1_456 S
C484 C486 1.353 . S
C484 N487 1.314 1_554 S
C484 H490 0.930 . S
C485 N487 1.279 . S
C485 C488 1.358 . S
C485 H491 0.930 . S
C486 C484 1.353 . S
C486 C489 1.350 1_554 S
C486 H524 0.929 . S
N487 Li442 1.990 . S
N487 C484 1.314 1_556 S
N487 C485 1.279 . S
C488 C485 1.358 . S
C488 C489 1.354 . S
C488 H525 0.930 . S
C489 C486 1.350 1_556 S
C489 C488 1.354 . S
H490 C484 0.930 . S
H491 C485 0.930 . S
C492 N493 1.314 . S
C492 C494 1.353 . S
C492 H498 0.930 . S
N493 Li443 1.990 . S
N493 C492 1.314 . S
N493 C496 1.279 . S
C494 C492 1.353 . S
C494 C497 1.348 . S
C494 H526 0.929 . S
C495 C496 1.358 . S
C495 C497 1.356 . S
C495 H527 0.930 . S
C496 N493 1.279 . S
C496 C495 1.358 . S
C496 H499 0.930 . S
C497 C494 1.348 . S
C497 C495 1.356 . S
H498 C492 0.930 . S
H499 C496 0.930 . S
O500 Li440 1.956 . S
O500 Li441 1.970 . S
O500 Li442 1.961 1_554 S
O500 C444 1.325 . S
O501 Li440 1.970 1_556 S
O501 Li441 1.956 1_556 S
O501 Li443 1.961 . S
O501 C450 1.325 . S
O502 Li440 1.961 1_556 S
O502 Li442 1.956 . S
O502 Li443 1.970 . S
O502 C472 1.325 . S
O503 Li441 1.961 . S
O503 Li442 1.970 1_554 S
O503 Li443 1.956 1_554 S
O503 C478 1.325 . S
H504 C446 0.929 . S
H505 C447 0.930 . S
H506 C448 0.930 . S
H507 C449 0.930 . S
H508 C451 0.930 . S
H509 C453 0.929 . S
H510 C454 0.930 . S
H511 C455 0.930 . S
H512 C458 0.930 . S
H513 C461 0.929 . S
H514 C466 0.929 . S
H515 C467 0.930 . S
H516 C474 0.929 . S
H517 C475 0.930 . S
H518 C476 0.930 . S
H519 C477 0.930 . S
H520 C479 0.929 . S
H521 C480 0.930 . S
H522 C481 0.930 . S
H523 C482 0.924 1_455 S
H524 C486 0.929 . S
H525 C488 0.930 . S
H526 C494 0.929 . S
H527 C495 0.930 . S
Li528 N545 1.990 . S
Li528 O588 1.956 . S
Li528 O589 1.970 . S
Li528 O590 1.961 . S
Li529 N553 1.990 . S
Li529 O588 1.970 . S
Li529 O589 1.956 . S
Li529 O591 1.961 . S
Li530 N575 1.990 . S
Li530 O588 1.961 . S
Li530 O590 1.956 . S
Li530 O591 1.970 . S
Li531 N581 1.990 . S
Li531 O589 1.961 . S
Li531 O590 1.970 . S
Li531 O591 1.956 . S
C532 C534 1.348 . S
C532 C535 1.356 . S
C532 O588 1.325 . S
N533 C536 1.314 . S
N533 C537 1.279 . S
C534 C532 1.348 . S
C534 C536 1.353 . S
C534 H592 0.929 . S
C535 C532 1.356 . S
C535 C537 1.358 . S
C535 H593 0.930 . S
C536 N533 1.314 . S
C536 C534 1.353 . S
C536 H594 0.930 . S
C537 N533 1.279 . S
C537 C535 1.358 . S
C537 H595 0.930 . S
C538 C541 1.348 . S
C538 C542 1.356 . S
C538 O589 1.325 . S
C539 N540 1.254 1_455 S
C539 C542 1.390 . S
C539 H596 0.924 1_455 S
N540 C539 1.254 1_655 S
N540 C543 1.314 . S
C541 C538 1.348 . S
C541 C543 1.353 1_455 S
C541 H597 0.929 . S
C542 C538 1.356 . S
C542 C539 1.390 . S
C542 H598 0.930 . S
C543 N540 1.314 . S
C543 C541 1.353 1_655 S
C543 H599 0.930 . S
C544 N545 1.314 . S
C544 C549 1.353 . S
C544 H550 0.930 . S
N545 Li528 1.990 . S
N545 C544 1.314 . S
N545 C547 1.279 . S
C546 C547 1.358 . S
C546 C548 1.356 . S
C546 H600 0.930 . S
C547 N545 1.279 . S
C547 C546 1.358 . S
C547 H551 0.930 . S
C548 C546 1.356 . S
C548 C549 1.348 . S
C549 C544 1.353 . S
C549 C548 1.348 . S
C549 H601 0.929 . S
H550 C544 0.930 . S
H551 C547 0.930 . S
C552 N553 1.314 . S
C552 C554 1.353 . S
C552 H558 0.930 . S
N553 Li529 1.990 . S
N553 C552 1.314 . S
N553 C556 1.279 . S
C554 C552 1.353 . S
C554 C557 1.348 . S
C554 H602 0.929 . S
C555 C556 1.358 . S
C555 C557 1.356 . S
C555 H603 0.930 . S
C556 N553 1.279 . S
C556 C555 1.358 . S
C556 H559 0.930 . S
C557 C554 1.348 . S
C557 C555 1.356 . S
H558 C552 0.930 . S
H559 C556 0.930 . S
C560 C562 1.348 . S
C560 C563 1.356 . S
C560 O590 1.325 . S
N561 C564 1.314 . S
N561 C565 1.279 . S
C562 C560 1.348 . S
C562 C564 1.353 . S
C562 H604 0.929 . S
C563 C560 1.356 . S
C563 C565 1.358 . S
C563 H605 0.930 . S
C564 N561 1.314 . S
C564 C562 1.353 . S
C564 H606 0.930 . S
C565 N561 1.279 . S
C565 C563 1.358 . S
C565 H607 0.930 . S
C566 C567 1.348 . S
C566 C568 1.356 . S
C566 O591 1.325 . S
C567 C566 1.348 . S
C567 C569 1.353 . S
C567 H608 0.929 . S
C568 C566 1.356 . S
C568 C570 1.358 1_545 S
C568 H609 0.930 . S
C569 C567 1.353 . S
C569 N571 1.314 1_545 S
C569 H610 0.930 . S
C570 C568 1.358 1_565 S
C570 N571 1.279 . S
C570 H611 0.930 . S
N571 C569 1.314 1_565 S
N571 C570 1.279 . S
C572 C574 1.353 . S
C572 N575 1.314 . S
C572 H578 0.930 . S
C573 N575 1.279 . S
C573 C576 1.358 . S
C573 H579 0.930 . S
C574 C572 1.353 . S
C574 C577 1.348 . S
C574 H612 0.929 . S
N575 Li530 1.990 . S
N575 C572 1.314 . S
N575 C573 1.279 . S
C576 C573 1.358 . S
C576 C577 1.356 . S
C576 H613 0.930 . S
C577 C574 1.348 . S
C577 C576 1.356 . S
H578 C572 0.930 . S
H579 C573 0.930 . S
C580 N581 1.314 . S
C580 C582 1.353 . S
C580 H586 0.930 . S
N581 Li531 1.990 . S
N581 C580 1.314 . S
N581 C584 1.279 . S
C582 C580 1.353 . S
C582 C585 1.348 . S
C582 H614 0.929 . S
C583 C584 1.358 . S
C583 C585 1.356 . S
C583 H615 0.930 . S
C584 N581 1.279 . S
C584 C583 1.358 . S
C584 H587 0.930 . S
C585 C582 1.348 . S
C585 C583 1.356 . S
H586 C580 0.930 . S
H587 C584 0.930 . S
O588 Li528 1.956 . S
O588 Li529 1.970 . S
O588 Li530 1.961 . S
O588 C532 1.325 . S
O589 Li528 1.970 . S
O589 Li529 1.956 . S
O589 Li531 1.961 . S
O589 C538 1.325 . S
O590 Li528 1.961 . S
O590 Li530 1.956 . S
O590 Li531 1.970 . S
O590 C560 1.325 . S
O591 Li529 1.961 . S
O591 Li530 1.970 . S
O591 Li531 1.956 . S
O591 C566 1.325 . S
H592 C534 0.929 . S
H593 C535 0.930 . S
H594 C536 0.930 . S
H595 C537 0.930 . S
H596 C539 0.924 1_655 S
H597 C541 0.929 . S
H598 C542 0.930 . S
H599 C543 0.930 . S
H600 C546 0.930 . S
H601 C549 0.929 . S
H602 C554 0.929 . S
H603 C555 0.930 . S
H604 C562 0.929 . S
H605 C563 0.930 . S
H606 C564 0.930 . S
H607 C565 0.930 . S
H608 C567 0.929 . S
H609 C568 0.930 . S
H610 C569 0.930 . S
H611 C570 0.930 . S
H612 C574 0.929 . S
H613 C576 0.930 . S
H614 C582 0.929 . S
H615 C583 0.930 . S
Li616 N633 1.990 . S
Li616 O676 1.956 . S
Li616 O677 1.970 . S
Li616 O678 1.961 . S
Li617 N641 1.990 . S
Li617 O676 1.970 . S
Li617 O677 1.956 . S
Li617 O679 1.961 . S
Li618 N663 1.990 . S
Li618 O676 1.961 . S
Li618 O678 1.956 . S
Li618 O679 1.970 . S
Li619 N669 1.990 . S
Li619 O677 1.961 . S
Li619 O678 1.970 . S
Li619 O679 1.956 . S
C620 C622 1.348 . S
C620 C623 1.356 . S
C620 O676 1.325 . S
N621 C624 1.314 . S
N621 C625 1.254 1_455 S
C622 C620 1.348 . S
C622 C624 1.353 1_655 S
C622 H680 0.929 . S
C623 C620 1.356 . S
C623 C625 1.390 . S
C623 H681 0.930 . S
C624 N621 1.314 . S
C624 C622 1.353 1_455 S
C624 H682 0.930 . S
C625 N621 1.254 1_655 S
C625 C623 1.390 . S
C625 H683 0.924 1_655 S
C626 C629 1.348 . S
C626 C630 1.356 . S
C626 O677 1.325 . S
C627 N628 1.279 . S
C627 C630 1.358 . S
C627 H684 0.930 . S
N628 C627 1.279 . S
N628 C631 1.314 . S
C629 C626 1.348 . S
C629 C631 1.353 . S
C629 H685 0.929 . S
C630 C626 1.356 . S
C630 C627 1.358 . S
C630 H686 0.930 . S
C631 N628 1.314 . S
C631 C629 1.353 . S
C631 H687 0.930 . S
C632 N633 1.314 . S
C632 C637 1.353 . S
C632 H638 0.930 . S
N633 Li616 1.990 . S
N633 C632 1.314 . S
N633 C635 1.279 . S
C634 C635 1.358 . S
C634 C636 1.356 . S
C634 H688 0.930 . S
C635 N633 1.279 . S
C635 C634 1.358 . S
C635 H639 0.930 . S
C636 C634 1.356 . S
C636 C637 1.348 . S
C637 C632 1.353 . S
C637 C636 1.348 . S
C637 H689 0.929 . S
H638 C632 0.930 . S
H639 C635 0.930 . S
C640 N641 1.314 . S
C640 C642 1.353 . S
C640 H646 0.930 . S
N641 Li617 1.990 . S
N641 C640 1.314 . S
N641 C644 1.279 . S
C642 C640 1.353 . S
C642 C645 1.348 . S
C642 H690 0.929 . S
C643 C644 1.358 . S
C643 C645 1.356 . S
C643 H691 0.930 . S
C644 N641 1.279 . S
C644 C643 1.358 . S
C644 H647 0.930 . S
C645 C642 1.348 . S
C645 C643 1.356 . S
H646 C640 0.930 . S
H647 C644 0.930 . S
C648 C650 1.348 . S
C648 C651 1.356 . S
C648 O678 1.325 . S
N649 C652 1.314 1_545 S
N649 C653 1.279 . S
C650 C648 1.348 . S
C650 C652 1.353 . S
C650 H692 0.929 . S
C651 C648 1.356 . S
C651 C653 1.358 1_565 S
C651 H693 0.930 . S
C652 N649 1.314 1_565 S
C652 C650 1.353 . S
C652 H694 0.930 . S
C653 N649 1.279 . S
C653 C651 1.358 1_545 S
C653 H695 0.930 . S
C654 C655 1.348 . S
C654 C656 1.356 . S
C654 O679 1.325 . S
C655 C654 1.348 . S
C655 C657 1.353 . S
C655 H696 0.929 . S
C656 C654 1.356 . S
C656 C658 1.358 . S
C656 H697 0.930 . S
C657 C655 1.353 . S
C657 N659 1.314 . S
C657 H698 0.930 . S
C658 C656 1.358 . S
C658 N659 1.279 . S
C658 H699 0.930 . S
N659 C657 1.314 . S
N659 C658 1.279 . S
C660 C662 1.353 . S
C660 N663 1.314 . S
C660 H666 0.930 . S
C661 N663 1.279 . S
C661 C664 1.358 . S
C661 H667 0.930 . S
C662 C660 1.353 . S
C662 C665 1.348 . S
C662 H700 0.929 . S
N663 Li618 1.990 . S
N663 C660 1.314 . S
N663 C661 1.279 . S
C664 C661 1.358 . S
C664 C665 1.356 . S
C664 H701 0.930 . S
C665 C662 1.348 . S
C665 C664 1.356 . S
H666 C660 0.930 . S
H667 C661 0.930 . S
C668 N669 1.314 . S
C668 C670 1.353 . S
C668 H674 0.930 . S
N669 Li619 1.990 . S
N669 C668 1.314 . S
N669 C672 1.279 . S
C670 C668 1.353 . S
C670 C673 1.348 . S
C670 H702 0.929 . S
C671 C672 1.358 . S
C671 C673 1.356 . S
C671 H703 0.930 . S
C672 N669 1.279 . S
C672 C671 1.358 . S
C672 H675 0.930 . S
C673 C670 1.348 . S
C673 C671 1.356 . S
H674 C668 0.930 . S
H675 C672 0.930 . S
O676 Li616 1.956 . S
O676 Li617 1.970 . S
O676 Li618 1.961 . S
O676 C620 1.325 . S
O677 Li616 1.970 . S
O677 Li617 1.956 . S
O677 Li619 1.961 . S
O677 C626 1.325 . S
O678 Li616 1.961 . S
O678 Li618 1.956 . S
O678 Li619 1.970 . S
O678 C648 1.325 . S
O679 Li617 1.961 . S
O679 Li618 1.970 . S
O679 Li619 1.956 . S
O679 C654 1.325 . S
H680 C622 0.929 . S
H681 C623 0.930 . S
H682 C624 0.930 . S
H683 C625 0.924 1_455 S
H684 C627 0.930 . S
H685 C629 0.929 . S
H686 C630 0.930 . S
H687 C631 0.930 . S
H688 C634 0.930 . S
H689 C637 0.929 . S
H690 C642 0.929 . S
H691 C643 0.930 . S
H692 C650 0.929 . S
H693 C651 0.930 . S
H694 C652 0.930 . S
H695 C653 0.930 . S
H696 C655 0.929 . S
H697 C656 0.930 . S
H698 C657 0.930 . S
H699 C658 0.930 . S
H700 C662 0.929 . S
H701 C664 0.930 . S
H702 C670 0.929 . S
H703 C671 0.930 . S
C704 C705 1.389 . S
C704 H708 0.950 . S
C704 C713 1.390 . S
C705 C704 1.389 . S
C705 C707 1.386 1_556 S
H706 C713 0.950 . S
C707 C705 1.386 1_554 S
C707 C709 1.390 . S
C707 H711 0.950 . S
H708 C704 0.950 . S
C709 C707 1.390 . S
C709 C710 1.386 1_554 S
C709 H712 0.950 . S
C710 C709 1.386 1_556 S
C710 C713 1.389 . S
H711 C707 0.950 . S
H712 C709 0.950 . S
C713 C704 1.390 . S
C713 H706 0.950 . S
C713 C710 1.389 . S
C714 C715 1.386 1_554 S
C714 H718 0.950 . S
C714 C723 1.390 . S
C715 C714 1.386 1_556 S
C715 C717 1.389 . S
H716 C723 0.950 . S
C717 C715 1.389 . S
C717 C719 1.390 . S
C717 H721 0.950 . S
H718 C714 0.950 . S
C719 C717 1.390 . S
C719 C720 1.389 . S
C719 H722 0.950 . S
C720 C719 1.389 . S
C720 C723 1.386 1_556 S
H721 C717 0.950 . S
H722 C719 0.950 . S
C723 C714 1.390 . S
C723 H716 0.950 . S
C723 C720 1.386 1_554 S
C724 C725 1.387 . S
C724 H728 0.950 . S
C724 C733 1.390 . S
C725 C724 1.387 . S
C725 C727 1.387 . S
H726 C733 0.950 . S
C727 C725 1.387 . S
C727 C729 1.390 . S
C727 H731 0.950 . S
H728 C724 0.950 . S
C729 C727 1.390 . S
C729 C730 1.387 . S
C729 H732 0.950 . S
C730 C729 1.387 . S
C730 C733 1.387 . S
H731 C727 0.950 . S
H732 C729 0.950 . S
C733 C724 1.390 . S
C733 H726 0.950 . S
C733 C730 1.387 . S
C734 C735 1.387 . S
C734 H738 0.950 . S
C734 C743 1.390 . S
C735 C734 1.387 . S
C735 C737 1.387 . S
H736 C743 0.950 . S
C737 C735 1.387 . S
C737 C739 1.390 . S
C737 H741 0.950 . S
H738 C734 0.950 . S
C739 C737 1.390 . S
C739 C740 1.387 . S
C739 H742 0.950 . S
C740 C739 1.387 . S
C740 C743 1.387 . S
H741 C737 0.950 . S
H742 C739 0.950 . S
C743 C734 1.390 . S
C743 H736 0.950 . S
C743 C740 1.387 . S
C744 C745 1.387 . S
C744 H748 0.950 . S
C744 C753 1.390 . S
C745 C744 1.387 . S
C745 C747 1.387 . S
H746 C753 0.950 . S
C747 C745 1.387 . S
C747 C749 1.390 . S
C747 H751 0.950 . S
H748 C744 0.950 . S
C749 C747 1.390 . S
C749 C750 1.387 . S
C749 H752 0.950 . S
C750 C749 1.387 . S
C750 C753 1.387 . S
H751 C747 0.950 . S
H752 C749 0.950 . S
C753 C744 1.390 . S
C753 H746 0.950 . S
C753 C750 1.387 . S
C754 C755 1.387 . S
C754 H758 0.950 . S
C754 C763 1.390 . S
C755 C754 1.387 . S
C755 C757 1.387 . S
H756 C763 0.950 . S
C757 C755 1.387 . S
C757 C759 1.390 . S
C757 H761 0.950 . S
H758 C754 0.950 . S
C759 C757 1.390 . S
C759 C760 1.387 . S
C759 H762 0.950 . S
C760 C759 1.387 . S
C760 C763 1.387 . S
H761 C757 0.950 . S
H762 C759 0.950 . S
C763 C754 1.390 . S
C763 H756 0.950 . S
C763 C760 1.387 . S
C764 C765 1.387 . S
C764 H768 0.950 . S
C764 C773 1.390 . S
C765 C764 1.387 . S
C765 C767 1.387 . S
H766 C773 0.950 . S
C767 C765 1.387 . S
C767 C769 1.390 . S
C767 H771 0.950 . S
H768 C764 0.950 . S
C769 C767 1.390 . S
C769 C770 1.387 . S
C769 H772 0.950 . S
C770 C769 1.387 . S
C770 C773 1.387 . S
H771 C767 0.950 . S
H772 C769 0.950 . S
C773 C764 1.390 . S
C773 H766 0.950 . S
C773 C770 1.387 . S
C774 C775 1.387 . S
C774 H778 0.950 . S
C774 C783 1.390 . S
C775 C774 1.387 . S
C775 C777 1.387 . S
H776 C783 0.950 . S
C777 C775 1.387 . S
C777 C779 1.390 . S
C777 H781 0.950 . S
H778 C774 0.950 . S
C779 C777 1.390 . S
C779 C780 1.387 . S
C779 H782 0.950 . S
C780 C779 1.387 . S
C780 C783 1.387 . S
H781 C777 0.950 . S
H782 C779 0.950 . S
C783 C774 1.390 . S
C783 H776 0.950 . S
C783 C780 1.387 . S
C784 C785 1.387 . S
C784 H788 0.950 . S
C784 C793 1.390 1_565 S
C785 C784 1.387 . S
C785 C787 1.387 . S
H786 C793 0.950 . S
C787 C785 1.387 . S
C787 C789 1.390 1_565 S
C787 H791 0.950 . S
H788 C784 0.950 . S
C789 C787 1.390 1_545 S
C789 C790 1.387 . S
C789 H792 0.950 . S
C790 C789 1.387 . S
C790 C793 1.387 . S
H791 C787 0.950 . S
H792 C789 0.950 . S
C793 C784 1.390 1_545 S
C793 H786 0.950 . S
C793 C790 1.387 . S
C794 C795 1.387 . S
C794 H798 0.950 . S
C794 C803 1.390 1_565 S
C795 C794 1.387 . S
C795 C797 1.387 . S
H796 C803 0.950 . S
C797 C795 1.387 . S
C797 C799 1.390 1_565 S
C797 H801 0.950 . S
H798 C794 0.950 . S
C799 C797 1.390 1_545 S
C799 C800 1.387 . S
C799 H802 0.950 . S
C800 C799 1.387 . S
C800 C803 1.387 . S
H801 C797 0.950 . S
H802 C799 0.950 . S
C803 C794 1.390 1_545 S
C803 H796 0.950 . S
C803 C800 1.387 . S
C804 C805 1.387 . S
C804 H808 0.950 . S
C804 C813 1.390 1_565 S
C805 C804 1.387 . S
C805 C807 1.387 . S
H806 C813 0.950 . S
C807 C805 1.387 . S
C807 C809 1.390 1_565 S
C807 H811 0.950 . S
H808 C804 0.950 . S
C809 C807 1.390 1_545 S
C809 C810 1.387 . S
C809 H812 0.950 . S
C810 C809 1.387 . S
C810 C813 1.387 . S
H811 C807 0.950 . S
H812 C809 0.950 . S
C813 C804 1.390 1_545 S
C813 H806 0.950 . S
C813 C810 1.387 . S
C814 C815 1.387 . S
C814 H818 0.950 . S
C814 C823 1.390 1_565 S
C815 C814 1.387 . S
C815 C817 1.387 . S
H816 C823 0.950 . S
C817 C815 1.387 . S
C817 C819 1.390 1_565 S
C817 H821 0.950 . S
H818 C814 0.950 . S
C819 C817 1.390 1_545 S
C819 C820 1.387 . S
C819 H822 0.950 . S
C820 C819 1.387 . S
C820 C823 1.387 . S
H821 C817 0.950 . S
H822 C819 0.950 . S
C823 C814 1.390 1_545 S
C823 H816 0.950 . S
C823 C820 1.387 . S
C824 C825 1.394 . S
C824 H828 0.950 . S
C824 C833 1.390 1_565 S
C825 C824 1.394 . S
C825 C827 1.381 1_554 S
H826 C833 0.950 . S
C827 C825 1.381 1_556 S
C827 C829 1.390 1_565 S
C827 H831 0.950 . S
H828 C824 0.950 . S
C829 C827 1.390 1_545 S
C829 C830 1.381 1_556 S
C829 H832 0.950 . S
C830 C829 1.381 1_554 S
C830 C833 1.394 . S
H831 C827 0.950 . S
H832 C829 0.950 . S
C833 C824 1.390 1_545 S
C833 H826 0.950 . S
C833 C830 1.394 . S
C834 C835 1.387 . S
C834 H838 0.950 . S
C834 C843 1.390 1_565 S
C835 C834 1.387 . S
C835 C837 1.387 . S
H836 C843 0.950 . S
C837 C835 1.387 . S
C837 C839 1.390 1_565 S
C837 H841 0.950 . S
H838 C834 0.950 . S
C839 C837 1.390 1_545 S
C839 C840 1.387 . S
C839 H842 0.950 . S
C840 C839 1.387 . S
C840 C843 1.387 . S
H841 C837 0.950 . S
H842 C839 0.950 . S
C843 C834 1.390 1_545 S
C843 H836 0.950 . S
C843 C840 1.387 . S
C844 C845 1.381 1_556 S
C844 H848 0.950 . S
C844 C853 1.390 1_455 S
C845 C844 1.381 1_554 S
C845 C847 1.394 . S
H846 C853 0.950 . S
C847 C845 1.394 . S
C847 C849 1.390 1_455 S
C847 H851 0.950 . S
H848 C844 0.950 . S
C849 C847 1.390 1_655 S
C849 C850 1.394 . S
C849 H852 0.950 . S
C850 C849 1.394 . S
C850 C853 1.381 1_554 S
H851 C847 0.950 . S
H852 C849 0.950 . S
C853 C844 1.390 1_655 S
C853 H846 0.950 . S
C853 C850 1.381 1_556 S
C854 C855 1.387 . S
C854 H858 0.950 . S
C854 C863 1.390 1_455 S
C855 C854 1.387 . S
C855 C857 1.387 . S
H856 C863 0.950 . S
C857 C855 1.387 . S
C857 C859 1.390 1_455 S
C857 H861 0.950 . S
H858 C854 0.950 . S
C859 C857 1.390 1_655 S
C859 C860 1.387 . S
C859 H862 0.950 . S
C860 C859 1.387 . S
C860 C863 1.387 . S
H861 C857 0.950 . S
H862 C859 0.950 . S
C863 C854 1.390 1_655 S
C863 H856 0.950 . S
C863 C860 1.387 . S
C705 C460 1.601 1_556 S
C710 C29 1.601 1_556 S
C715 C381 1.599 1_556 S
C720 C108 1.599 1_556 S
C725 C673 1.601 . S
C730 C225 1.601 . S
C735 C577 1.599 . S
C740 C321 1.599 . S
C745 C20 1.403 . S
C750 C233 1.401 . S
C755 C117 1.403 . S
C760 C313 1.401 . S
C765 C145 1.403 . S
C770 C284 1.405 . S
C775 C49 1.403 . S
C780 C205 1.405 . S
C785 C372 1.403 . S
C790 C585 1.401 . S
C795 C665 1.403 . S
C800 C469 1.401 . S
C805 C636 1.404 . S
C810 C497 1.406 . S
C815 C401 1.404 . S
C820 C557 1.406 . S
C825 C137 1.623 1_554 S
C830 C57 1.623 1_554 S
C835 C196 1.625 . S
C840 C293 1.625 . S
C845 C409 1.625 1_554 S
C850 C489 1.625 1_554 S
C855 C548 1.626 . S
C860 C645 1.626 . S
