# Generated by pormake.
# Topology ukm, (4)-cn, num edge types: 1
# Building blocks:
#     Node 0, Type 0, BuildingBlock: TATPOV_clean_sbu_0, # of connection points: 4
#     Node 1, Type 0, BuildingBlock: TATPOV_clean_sbu_0, # of connection points: 4
#     Node 2, Type 0, BuildingBlock: TATPOV_clean_sbu_0, # of connection points: 4
#     Node 3, Type 0, BuildingBlock: TATPOV_clean_sbu_0, # of connection points: 4
#     Node 4, Type 0, BuildingBlock: TATPOV_clean_sbu_0, # of connection points: 4
#     Node 5, Type 0, BuildingBlock: TATPOV_clean_sbu_0, # of connection points: 4
#     Node 6, Type 0, BuildingBlock: TATPOV_clean_sbu_0, # of connection points: 4
#     Node 7, Type 0, BuildingBlock: TATPOV_clean_sbu_0, # of connection points: 4
#     Node 8, Type 0, BuildingBlock: TATPOV_clean_sbu_0, # of connection points: 4
#     Node 9, Type 0, BuildingBlock: TATPOV_clean_sbu_0, # of connection points: 4
#     Node 10, Type 0, BuildingBlock: TATPOV_clean_sbu_0, # of connection points: 4
#     Node 11, Type 0, BuildingBlock: TATPOV_clean_sbu_0, # of connection points: 4
#     Node 12, Type 0, BuildingBlock: TATPOV_clean_sbu_0, # of connection points: 4
#     Node 13, Type 0, BuildingBlock: TATPOV_clean_sbu_0, # of connection points: 4
#     Node 14, Type 0, BuildingBlock: TATPOV_clean_sbu_0, # of connection points: 4
#     Node 15, Type 0, BuildingBlock: TATPOV_clean_sbu_0, # of connection points: 4
#     Node 16, Type 0, BuildingBlock: TATPOV_clean_sbu_0, # of connection points: 4
#     Node 17, Type 0, BuildingBlock: TATPOV_clean_sbu_0, # of connection points: 4
#     Node 18, Type 0, BuildingBlock: TATPOV_clean_sbu_0, # of connection points: 4
#     Node 19, Type 0, BuildingBlock: TATPOV_clean_sbu_0, # of connection points: 4
#     Node 20, Type 0, BuildingBlock: TATPOV_clean_sbu_0, # of connection points: 4
#     Node 21, Type 0, BuildingBlock: TATPOV_clean_sbu_0, # of connection points: 4
#     Node 22, Type 0, BuildingBlock: TATPOV_clean_sbu_0, # of connection points: 4
#     Node 23, Type 0, BuildingBlock: TATPOV_clean_sbu_0, # of connection points: 4
#     Node 24, Type 0, BuildingBlock: TATPOV_clean_sbu_0, # of connection points: 4
#     Node 25, Type 0, BuildingBlock: TATPOV_clean_sbu_0, # of connection points: 4
#     Node 26, Type 0, BuildingBlock: TATPOV_clean_sbu_0, # of connection points: 4
#     Node 27, Type 0, BuildingBlock: TATPOV_clean_sbu_0, # of connection points: 4
#     Node 28, Type 0, BuildingBlock: TATPOV_clean_sbu_0, # of connection points: 4
#     Node 29, Type 0, BuildingBlock: TATPOV_clean_sbu_0, # of connection points: 4
#     Node 30, Type 0, BuildingBlock: TATPOV_clean_sbu_0, # of connection points: 4
#     Node 31, Type 0, BuildingBlock: TATPOV_clean_sbu_0, # of connection points: 4
#     Edge 32, Type (0, 0), BuildingBlock: XIVTED_clean_linker_0, # of connection points: 2
#     Edge 33, Type (0, 0), BuildingBlock: XIVTED_clean_linker_0, # of connection points: 2
#     Edge 34, Type (0, 0), BuildingBlock: XIVTED_clean_linker_0, # of connection points: 2
#     Edge 35, Type (0, 0), BuildingBlock: XIVTED_clean_linker_0, # of connection points: 2
#     Edge 36, Type (0, 0), BuildingBlock: XIVTED_clean_linker_0, # of connection points: 2
#     Edge 37, Type (0, 0), BuildingBlock: XIVTED_clean_linker_0, # of connection points: 2
#     Edge 38, Type (0, 0), BuildingBlock: XIVTED_clean_linker_0, # of connection points: 2
#     Edge 39, Type (0, 0), BuildingBlock: XIVTED_clean_linker_0, # of connection points: 2
#     Edge 40, Type (0, 0), BuildingBlock: XIVTED_clean_linker_0, # of connection points: 2
#     Edge 41, Type (0, 0), BuildingBlock: XIVTED_clean_linker_0, # of connection points: 2
#     Edge 42, Type (0, 0), BuildingBlock: XIVTED_clean_linker_0, # of connection points: 2
#     Edge 43, Type (0, 0), BuildingBlock: XIVTED_clean_linker_0, # of connection points: 2
#     Edge 44, Type (0, 0), BuildingBlock: XIVTED_clean_linker_0, # of connection points: 2
#     Edge 45, Type (0, 0), BuildingBlock: XIVTED_clean_linker_0, # of connection points: 2
#     Edge 46, Type (0, 0), BuildingBlock: XIVTED_clean_linker_0, # of connection points: 2
#     Edge 47, Type (0, 0), BuildingBlock: XIVTED_clean_linker_0, # of connection points: 2
#     Edge 48, Type (0, 0), BuildingBlock: XIVTED_clean_linker_0, # of connection points: 2
#     Edge 49, Type (0, 0), BuildingBlock: XIVTED_clean_linker_0, # of connection points: 2
#     Edge 50, Type (0, 0), BuildingBlock: XIVTED_clean_linker_0, # of connection points: 2
#     Edge 51, Type (0, 0), BuildingBlock: XIVTED_clean_linker_0, # of connection points: 2
#     Edge 52, Type (0, 0), BuildingBlock: XIVTED_clean_linker_0, # of connection points: 2
#     Edge 53, Type (0, 0), BuildingBlock: XIVTED_clean_linker_0, # of connection points: 2
#     Edge 54, Type (0, 0), BuildingBlock: XIVTED_clean_linker_0, # of connection points: 2
#     Edge 55, Type (0, 0), BuildingBlock: XIVTED_clean_linker_0, # of connection points: 2
#     Edge 56, Type (0, 0), BuildingBlock: XIVTED_clean_linker_0, # of connection points: 2
#     Edge 57, Type (0, 0), BuildingBlock: XIVTED_clean_linker_0, # of connection points: 2
#     Edge 58, Type (0, 0), BuildingBlock: XIVTED_clean_linker_0, # of connection points: 2
#     Edge 59, Type (0, 0), BuildingBlock: XIVTED_clean_linker_0, # of connection points: 2
#     Edge 60, Type (0, 0), BuildingBlock: XIVTED_clean_linker_0, # of connection points: 2
#     Edge 61, Type (0, 0), BuildingBlock: XIVTED_clean_linker_0, # of connection points: 2
#     Edge 62, Type (0, 0), BuildingBlock: XIVTED_clean_linker_0, # of connection points: 2
#     Edge 63, Type (0, 0), BuildingBlock: XIVTED_clean_linker_0, # of connection points: 2
#     Edge 64, Type (0, 0), BuildingBlock: XIVTED_clean_linker_0, # of connection points: 2
#     Edge 65, Type (0, 0), BuildingBlock: XIVTED_clean_linker_0, # of connection points: 2
#     Edge 66, Type (0, 0), BuildingBlock: XIVTED_clean_linker_0, # of connection points: 2
#     Edge 67, Type (0, 0), BuildingBlock: XIVTED_clean_linker_0, # of connection points: 2
#     Edge 68, Type (0, 0), BuildingBlock: XIVTED_clean_linker_0, # of connection points: 2
#     Edge 69, Type (0, 0), BuildingBlock: XIVTED_clean_linker_0, # of connection points: 2
#     Edge 70, Type (0, 0), BuildingBlock: XIVTED_clean_linker_0, # of connection points: 2
#     Edge 71, Type (0, 0), BuildingBlock: XIVTED_clean_linker_0, # of connection points: 2
#     Edge 72, Type (0, 0), BuildingBlock: XIVTED_clean_linker_0, # of connection points: 2
#     Edge 73, Type (0, 0), BuildingBlock: XIVTED_clean_linker_0, # of connection points: 2
#     Edge 74, Type (0, 0), BuildingBlock: XIVTED_clean_linker_0, # of connection points: 2
#     Edge 75, Type (0, 0), BuildingBlock: XIVTED_clean_linker_0, # of connection points: 2
#     Edge 76, Type (0, 0), BuildingBlock: XIVTED_clean_linker_0, # of connection points: 2
#     Edge 77, Type (0, 0), BuildingBlock: XIVTED_clean_linker_0, # of connection points: 2
#     Edge 78, Type (0, 0), BuildingBlock: XIVTED_clean_linker_0, # of connection points: 2
#     Edge 79, Type (0, 0), BuildingBlock: XIVTED_clean_linker_0, # of connection points: 2
#     Edge 80, Type (0, 0), BuildingBlock: XIVTED_clean_linker_0, # of connection points: 2
#     Edge 81, Type (0, 0), BuildingBlock: XIVTED_clean_linker_0, # of connection points: 2
#     Edge 82, Type (0, 0), BuildingBlock: XIVTED_clean_linker_0, # of connection points: 2
#     Edge 83, Type (0, 0), BuildingBlock: XIVTED_clean_linker_0, # of connection points: 2
#     Edge 84, Type (0, 0), BuildingBlock: XIVTED_clean_linker_0, # of connection points: 2
#     Edge 85, Type (0, 0), BuildingBlock: XIVTED_clean_linker_0, # of connection points: 2
#     Edge 86, Type (0, 0), BuildingBlock: XIVTED_clean_linker_0, # of connection points: 2
#     Edge 87, Type (0, 0), BuildingBlock: XIVTED_clean_linker_0, # of connection points: 2
#     Edge 88, Type (0, 0), BuildingBlock: XIVTED_clean_linker_0, # of connection points: 2
#     Edge 89, Type (0, 0), BuildingBlock: XIVTED_clean_linker_0, # of connection points: 2
#     Edge 90, Type (0, 0), BuildingBlock: XIVTED_clean_linker_0, # of connection points: 2
#     Edge 91, Type (0, 0), BuildingBlock: XIVTED_clean_linker_0, # of connection points: 2
#     Edge 92, Type (0, 0), BuildingBlock: XIVTED_clean_linker_0, # of connection points: 2
#     Edge 93, Type (0, 0), BuildingBlock: XIVTED_clean_linker_0, # of connection points: 2
#     Edge 94, Type (0, 0), BuildingBlock: XIVTED_clean_linker_0, # of connection points: 2
#     Edge 95, Type (0, 0), BuildingBlock: XIVTED_clean_linker_0, # of connection points: 2
# Relax obj value: 0.261
# Max RMSD: 0.206
# Mean RMSD: 0.206
data_MOF--net-ukm--node1-TATPOV_clean_sbu_0--edge1-XIVTED_clean_linker_0
_symmetry_space_group_name_H-M    P1
_symmetry_Int_Tables_number       1
_symmetry_cell_setting            triclinic
loop_
_symmetry_equiv_pos_as_xyz
'x, y, z'
_cell_length_a     29.05686
_cell_length_b     99.270261
_cell_length_c     36.979803
_cell_angle_alpha  89.992021
_cell_angle_beta   90.061122
_cell_angle_gamma 90.063914
loop_
_atom_site_label
_atom_site_type_symbol
_atom_site_fract_x
_atom_site_fract_y
_atom_site_fract_z
_atom_type_partial_charge
Zn0 Zn 0.08007 0.27763 0.32576 0.0
Zn1 Zn 0.16773 0.27851 0.33986 0.0
O2 O 0.15256 0.25781 0.33559 0.0
O3 O 0.07747 0.2578 0.32766 0.0
O4 O 0.23451 0.28041 0.35614 0.0
O5 O 0.05948 0.28899 0.36675 0.0
O6 O 0.13383 0.292 0.37348 0.0
C7 C 0.11488 0.2514 0.33033 0.0
C8 C 0.1342 0.28956 0.26884 0.0
O9 O 0.16762 0.28682 0.28986 0.0
O10 O 0.09331 0.28664 0.27778 0.0
C11 C 0.24554 0.28045 0.38947 0.0
O12 O 0.21352 0.27809 0.41373 0.0
C13 C 0.09254 0.2952 0.38142 0.0
Zn14 Zn 0.07594 0.95649 0.24732 0.0
Zn15 Zn 1.00316 0.96075 0.27086 0.0
O16 O 0.04837 0.977 0.28214 0.0
O17 O 0.11253 0.96566 0.28547 0.0
O18 O 0.94038 0.96435 0.29339 0.0
O19 O 0.07306 0.93669 0.24728 0.0
O20 O 0.01927 0.94101 0.28708 0.0
C21 C 0.0916 0.9767 0.28885 0.0
C22 C 0.0181 0.96475 0.19267 0.0
O23 O 0.98949 0.9608 0.21647 0.0
O24 O 0.05986 0.96629 0.20143 0.0
C25 C 0.9288 0.95925 0.32364 0.0
O26 O 0.95971 0.95259 0.34242 0.0
C27 C 0.04571 0.93257 0.27132 0.0
Zn28 Zn 0.02222 0.90597 0.89484 0.0
Zn29 Zn 0.11979 0.91651 0.89838 0.0
O30 O 0.08058 0.91899 0.85381 0.0
O31 O 0.00861 0.91611 0.84654 0.0
O32 O 0.18383 0.92458 0.89055 0.0
O33 O 0.0586 0.8884 0.89908 0.0
O34 O 0.12913 0.89646 0.90752 0.0
C35 C 0.04096 0.92439 0.85192 0.0
C36 C 0.05078 0.9238 0.95692 0.0
O37 O 0.09078 0.92461 0.9429 0.0
O38 O 0.01908 0.91686 0.94215 0.0
C39 C 0.19538 0.93099 0.86214 0.0
O40 O 0.16465 0.9329 0.83658 0.0
C41 C 0.10099 0.88659 0.90626 0.0
Zn42 Zn 0.3046 0.31529 0.9735 0.0
Zn43 Zn 0.22985 0.30524 0.94416 0.0
O44 O 0.27649 0.28907 0.94412 0.0
O45 O 0.33892 0.29809 0.96778 0.0
O46 O 0.17243 0.2995 0.91625 0.0
O47 O 0.31198 0.3307 0.93967 0.0
O48 O 0.24454 0.32373 0.92021 0.0
C49 C 0.31803 0.28792 0.95533 0.0
C50 C 0.22677 0.31381 0.02209 0.0
O51 O 0.20677 0.30821 -0.00461 0.0
O52 O 0.26777 0.31802 0.01909 0.0
C53 C 0.14403 0.2904 0.92585 0.0
O54 O 0.15281 0.28322 0.95489 0.0
C55 C 0.27674 0.3325 0.92025 0.0
Zn56 Zn 0.96306 0.67633 0.61387 0.0
Zn57 Zn 0.87986 0.68647 0.60947 0.0
O58 O 0.92686 0.70155 0.59646 0.0
O59 O 0.99483 0.69204 0.59153 0.0
O60 O 0.81546 0.69388 0.59911 0.0
O61 O 0.94798 0.65951 0.58726 0.0
O62 O 0.87747 0.66748 0.58656 0.0
C63 C 0.97018 0.70252 0.59083 0.0
C64 C 0.91729 0.68013 0.68302 0.0
O65 O 0.8838 0.6842 0.66371 0.0
O66 O 0.9546 0.67643 0.66836 0.0
C67 C 0.78213 0.69057 0.61966 0.0
O68 O 0.79041 0.68283 0.64774 0.0
C69 C 0.90574 0.65795 0.58022 0.0
Zn70 Zn 0.81653 0.09043 0.78595 0.0
Zn71 Zn 0.89438 0.08226 0.75561 0.0
O72 O 0.8481 0.06642 0.74975 0.0
O73 O 0.78236 0.07362 0.77201 0.0
O74 O 0.95056 0.07689 0.72615 0.0
O75 O 0.81355 0.10765 0.75827 0.0
O76 O 0.88125 0.10159 0.73738 0.0
C77 C 0.80597 0.0643 0.75789 0.0
C78 C 0.89322 0.0865 0.8359 0.0
O79 O 0.9156 0.08285 0.80797 0.0
O80 O 0.85171 0.09028 0.8331 0.0
C81 C 0.97607 0.06689 0.73401 0.0
O82 O 0.96571 0.05947 0.76228 0.0
C83 C 0.84937 0.11034 0.74029 0.0
Zn84 Zn 0.00684 0.01357 0.08903 0.0
Zn85 Zn 0.91839 0.01181 0.08976 0.0
O86 O 0.94034 -0.00499 0.05942 0.0
O87 O 0.01583 -0.00337 0.06209 0.0
O88 O 0.85017 0.00986 0.10241 0.0
O89 O 0.01962 0.01543 0.14177 0.0
O90 O 0.94496 0.0181 0.13888 0.0
C91 C 0.98027 0.99079 0.05014 0.0
C92 C 0.95927 0.0346 0.0486 0.0
O93 O 0.92297 0.02816 0.05727 0.0
O94 O 0.99842 0.03058 0.05924 0.0
C95 C 0.81662 0.01325 0.08217 0.0
O96 O 0.82503 0.01716 0.04888 0.0
C97 C 0.98258 0.01921 0.15643 0.0
Zn98 Zn 0.81471 0.67253 0.01534 0.0
Zn99 Zn 0.89908 0.67428 0.02643 0.0
O100 O 0.86715 0.69282 0.03663 0.0
O101 O 0.79266 0.68935 0.03859 0.0
O102 O 0.96209 0.67534 0.04995 0.0
O103 O 0.80153 0.65432 0.03456 0.0
O104 O 0.87667 0.65493 0.04009 0.0
C105 C 0.82634 0.69738 0.04056 0.0
C106 C 0.87401 0.67427 0.95052 0.0
O107 O 0.90791 0.67412 0.97235 0.0
O108 O 0.83311 0.67387 0.96246 0.0
C109 C 0.99689 0.68114 0.03606 0.0
O110 O 0.9925 0.68722 0.00468 0.0
C111 C 0.83889 0.64837 0.04155 0.0
Zn112 Zn 0.10047 0.79471 0.78731 0.0
Zn113 Zn 0.18561 0.79046 0.77331 0.0
O114 O 0.15176 0.77424 0.74853 0.0
O115 O 0.07931 0.77832 0.76171 0.0
O116 O 0.25372 0.78596 0.77539 0.0
O117 O 0.10383 0.79568 0.84115 0.0
O118 O 0.1766 0.79655 0.8263 0.0
C119 C 0.10907 0.77129 0.74549 0.0
C120 C 0.14192 0.81446 0.73882 0.0
O121 O 0.17716 0.80686 0.74094 0.0
O122 O 0.10622 0.81178 0.7572 0.0
C123 C 0.28542 0.79282 0.7604 0.0
O124 O 0.2742 0.80263 0.73824 0.0
C125 C 0.14511 0.79797 0.84994 0.0
Zn126 Zn 0.2217 0.44536 0.78509 0.0
Zn127 Zn 0.13673 0.44555 0.80943 0.0
O128 O 0.15566 0.46578 0.8048 0.0
O129 O 0.22924 0.46521 0.79086 0.0
O130 O 0.07426 0.44473 0.83418 0.0
O131 O 0.24584 0.43197 0.82053 0.0
O132 O 0.17355 0.43112 0.83769 0.0
C133 C 0.19301 0.47192 0.79677 0.0
C134 C 0.15245 0.4367 0.73302 0.0
O135 O 0.12434 0.43877 0.7588 0.0
O136 O 0.19519 0.43868 0.73754 0.0
C137 C 0.06571 0.45037 0.86432 0.0
O138 O 0.09757 0.45789 0.87946 0.0
C139 C 0.21466 0.42667 0.83961 0.0
Zn140 Zn 0.95639 0.41199 0.43323 0.0
Zn141 Zn 0.03429 0.42051 0.40515 0.0
O142 O 0.98372 0.43461 0.39161 0.0
O143 O 0.91788 0.42616 0.41035 0.0
O144 O 0.09298 0.42598 0.37844 0.0
O145 O 0.96112 0.39338 0.41387 0.0
O146 O 0.02892 0.40003 0.39442 0.0
C147 C 0.94009 0.4356 0.39546 0.0
C148 C 0.02553 0.4202 0.48587 0.0
O149 O 0.05025 0.42266 0.45824 0.0
O150 O 0.98485 0.41578 0.48215 0.0
C151 C 0.1086 0.43795 0.37651 0.0
O152 O 0.08522 0.44779 0.39154 0.0
C153 C 0.99945 0.39067 0.39949 0.0
Zn154 Zn 0.15678 0.83116 0.42624 0.0
Zn155 Zn 0.07079 0.82212 0.43493 0.0
O156 O 0.11286 0.8053 0.43521 0.0
O157 O 0.18335 0.81249 0.42506 0.0
O158 O 1.00557 0.81481 0.43163 0.0
O159 O 0.14153 0.84168 0.38146 0.0
O160 O 0.07021 0.83589 0.39357 0.0
C161 C 0.15584 0.80292 0.4318 0.0
C162 C 0.11219 0.83832 0.49513 0.0
O163 O 0.07779 0.83164 0.4833 0.0
O164 O 0.14797 0.83969 0.47582 0.0
C165 C 0.9959 0.8083 0.40294 0.0
O166 O 0.02884 0.80609 0.37936 0.0
C167 C 0.09893 0.84262 0.37493 0.0
Zn168 Zn 0.05743 0.13394 0.27458 0.0
Zn169 Zn 0.98028 0.14027 0.24188 0.0
O170 O 0.02726 0.15582 0.23463 0.0
O171 O 0.09452 0.14943 0.25567 0.0
O172 O 0.92628 0.14501 0.20879 0.0
O173 O 0.06133 0.1153 0.25518 0.0
O174 O 0.99386 0.12002 0.23131 0.0
C175 C 0.06954 0.15838 0.24132 0.0
C176 C 0.97991 0.14091 0.32208 0.0
O177 O 0.95679 0.14236 0.29308 0.0
O178 O 0.02172 0.13728 0.32076 0.0
C179 C 0.90073 0.15528 0.21374 0.0
O180 O 0.90912 0.16323 0.24138 0.0
C181 C 0.02589 0.11156 0.23806 0.0
Zn182 Zn 0.75931 0.53684 0.09966 0.0
Zn183 Zn 0.83667 0.53135 0.12276 0.0
O184 O 0.78822 0.51637 0.13603 0.0
O185 O 0.7256 0.51944 0.10399 0.0
O186 O 0.90128 0.52319 0.12352 0.0
O187 O 0.77195 0.54595 0.05262 0.0
O188 O 0.83868 0.54477 0.07984 0.0
C189 C 0.74715 0.51282 0.12778 0.0
C190 C 0.79105 0.55039 0.16809 0.0
O191 O 0.82887 0.54406 0.16438 0.0
O192 O 0.75875 0.54883 0.14524 0.0
C193 C 0.93586 0.53066 0.13054 0.0
O194 O 0.92869 0.54328 0.13962 0.0
C195 C 0.81337 0.54974 0.05503 0.0
Zn196 Zn 0.82817 0.55339 0.47051 0.0
Zn197 Zn 0.74839 0.54713 0.48102 0.0
O198 O 0.78136 0.52843 0.47126 0.0
O199 O 0.84956 0.53568 0.45461 0.0
O200 O 0.68371 0.54304 0.49923 0.0
O201 O 0.84622 0.56009 0.51871 0.0
O202 O 0.77105 0.56124 0.51932 0.0
C203 C 0.82158 0.52608 0.45857 0.0
C204 C 0.76874 0.56494 0.41804 0.0
O205 O 0.74023 0.55679 0.43251 0.0
O206 O 0.80824 0.56647 0.43195 0.0
C207 C 0.65674 0.55309 0.50213 0.0
O208 O 0.67146 0.56497 0.49154 0.0
C209 C 0.8099 0.56482 0.53231 0.0
Zn210 Zn 0.85512 0.2127 0.5852 0.0
Zn211 Zn 0.94227 0.21824 0.58803 0.0
O212 O 0.91055 0.23679 0.57422 0.0
O213 O 0.83718 0.23122 0.57423 0.0
O214 O 0.01147 0.22165 0.59583 0.0
O215 O 0.84838 0.20544 0.63465 0.0
O216 O 0.92374 0.2069 0.63326 0.0
C217 C 0.8682 0.23996 0.56956 0.0
C218 C 0.90754 0.19862 0.53164 0.0
O219 O 0.94079 0.20535 0.54511 0.0
O220 O 0.86722 0.1999 0.54409 0.0
C221 C 0.02896 0.22177 0.62748 0.0
O222 O 1.00141 0.22095 0.65553 0.0
C223 C 0.88699 0.20275 0.64855 0.0
Zn224 Zn 0.6395 0.28652 0.84637 0.0
Zn225 Zn 0.72667 0.28392 0.82891 0.0
O226 O 0.69315 0.26734 0.80577 0.0
O227 O 0.62191 0.26864 0.82561 0.0
O228 O 0.79601 0.28059 0.82716 0.0
O229 O 0.64851 0.29 0.89937 0.0
O230 O 0.7205 0.29018 0.88176 0.0
C231 C 0.65184 0.26285 0.80624 0.0
C232 C 0.67421 0.30595 0.79291 0.0
O233 O 0.7125 0.29984 0.79643 0.0
O234 O 0.63941 0.30232 0.81121 0.0
C235 C 0.82263 0.2908 0.82751 0.0
O236 O 0.80442 0.30288 0.82514 0.0
C237 C 0.69048 0.29219 0.90622 0.0
Zn238 Zn 0.68825 0.94563 0.74062 0.0
Zn239 Zn 0.61267 0.94845 0.78048 0.0
O240 O 0.64956 0.9662 0.79075 0.0
O241 O 0.71493 0.96219 0.7625 0.0
O242 O 0.55307 0.94894 0.8096 0.0
O243 O 0.70263 0.92747 0.76047 0.0
O244 O 0.64087 0.92983 0.79434 0.0
C245 C 0.6901 0.96989 0.7815 0.0
C246 C 0.60681 0.94912 0.69824 0.0
O247 O 0.58761 0.94901 0.72909 0.0
O248 O 0.65003 0.94785 0.69559 0.0
C249 C 0.51995 0.9564 0.79925 0.0
O250 O 0.52691 0.96483 0.7724 0.0
C251 C 0.67544 0.92286 0.78409 0.0
Zn252 Zn 0.39784 0.93939 0.40452 0.0
Zn253 Zn 0.49869 0.94531 0.3865 0.0
O254 O 0.45764 0.95621 0.35305 0.0
O255 O 0.38621 0.95219 0.36187 0.0
O256 O 0.565 0.94977 0.37314 0.0
O257 O 0.41908 0.92024 0.39472 0.0
O258 O 0.49226 0.92471 0.38274 0.0
C259 C 0.41872 0.96065 0.3632 0.0
C260 C 0.45838 0.95118 0.46152 0.0
O261 O 0.49059 0.95094 0.43821 0.0
O262 O 0.41813 0.94699 0.45396 0.0
C263 C 0.59751 0.94687 0.39489 0.0
O264 O 0.58736 0.941 0.42573 0.0
C265 C 0.45947 0.91628 0.38706 0.0
Zn266 Zn 0.70776 0.34748 0.48477 0.0
Zn267 Zn 0.62916 0.33504 0.4758 0.0
O268 O 0.68228 0.32148 0.46573 0.0
O269 O 0.74797 0.33245 0.46783 0.0
O270 O 0.57078 0.32526 0.45949 0.0
O271 O 0.69139 0.36331 0.4546 0.0
O272 O 0.62319 0.3538 0.45148 0.0
C273 C 0.72623 0.32152 0.46386 0.0
C274 C 0.65469 0.34301 0.55106 0.0
O275 O 0.6251 0.33743 0.53042 0.0
O276 O 0.69133 0.34794 0.53793 0.0
C277 C 0.54774 0.31723 0.47933 0.0
O278 O 0.56192 0.31484 0.51246 0.0
C279 C 0.64954 0.36382 0.44533 0.0
Zn280 Zn 0.4629 0.6525 0.21813 0.0
Zn281 Zn 0.37562 0.65909 0.20127 0.0
O282 O 0.41161 0.67707 0.20199 0.0
O283 O 0.48385 0.67184 0.21306 0.0
O284 O 0.31191 0.66403 0.1833 0.0
O285 O 0.46599 0.63868 0.17817 0.0
O286 O 0.393 0.64321 0.1683 0.0
C287 C 0.45317 0.68068 0.20775 0.0
C288 C 0.39551 0.64839 0.27587 0.0
O289 O 0.36659 0.6529 0.25299 0.0
O290 O 0.43752 0.64705 0.26727 0.0
C291 C 0.30713 0.66969 0.15266 0.0
O292 O 0.34407 0.67263 0.13375 0.0
C293 C 0.42868 0.63617 0.16179 0.0
Zn294 Zn 0.34733 0.06719 0.17442 0.0
Zn295 Zn 0.41855 0.05099 0.1778 0.0
O296 O 0.36062 0.03858 0.18543 0.0
O297 O 0.30188 0.05237 0.17858 0.0
O298 O 0.47442 0.03884 0.16879 0.0
O299 O 0.36215 0.07554 0.12702 0.0
O300 O 0.42579 0.06392 0.13421 0.0
C301 C 0.31715 0.04073 0.18545 0.0
C302 C 0.40564 0.07092 0.23794 0.0
O303 O 0.42906 0.06122 0.22486 0.0
O304 O 0.37087 0.0754 0.22106 0.0
C305 C 0.51112 0.03881 0.1877 0.0
O306 O 0.51254 0.0459 0.21766 0.0
C307 C 0.40234 0.0726 0.11679 0.0
Zn308 Zn 0.44235 0.05596 0.56647 0.0
Zn309 Zn 0.35448 0.05738 0.5634 0.0
O310 O 0.37369 0.03733 0.55604 0.0
O311 O 0.44814 0.03585 0.56546 0.0
O312 O 0.28652 0.0572 0.57647 0.0
O313 O 0.45377 0.06764 0.60981 0.0
O314 O 0.38026 0.07102 0.60042 0.0
C315 C 0.41051 0.0303 0.55678 0.0
C316 C 0.40223 0.06848 0.50048 0.0
O317 O 0.36289 0.06617 0.51442 0.0
O318 O 0.43868 0.06525 0.51733 0.0
C319 C 0.27548 0.05083 0.60507 0.0
O320 O 0.30756 0.04409 0.6224 0.0
C321 C 0.41758 0.07427 0.6163 0.0
Zn322 Zn 0.26379 0.69281 0.56981 0.0
Zn323 Zn 0.3515 0.69933 0.57293 0.0
O324 O 0.31846 0.71745 0.55918 0.0
O325 O 0.2454 0.71148 0.5584 0.0
O326 O 0.41939 0.70352 0.58115 0.0
O327 O 0.26064 0.68596 0.6202 0.0
O328 O 0.33561 0.68877 0.61974 0.0
C329 C 0.27604 0.72039 0.55425 0.0
C330 C 0.31935 0.6791 0.51686 0.0
O331 O 0.35143 0.68623 0.53052 0.0
O332 O 0.27871 0.67994 0.52902 0.0
C333 C 0.44959 0.70426 0.55628 0.0
O334 O 0.43652 0.70334 0.52235 0.0
C335 C 0.29937 0.68432 0.63512 0.0
Zn336 Zn 0.48806 0.80156 0.29443 0.0
Zn337 Zn 0.57426 0.79851 0.31406 0.0
O338 O 0.54844 0.77886 0.30914 0.0
O339 O 0.47533 0.78184 0.29579 0.0
O340 O 0.63857 0.79684 0.33527 0.0
O341 O 0.47134 0.81397 0.33479 0.0
O342 O 0.54546 0.81337 0.34635 0.0
C343 C 0.50891 0.774 0.30123 0.0
C344 C 0.55475 0.81051 0.24104 0.0
O345 O 0.58417 0.80639 0.26405 0.0
O346 O 0.51206 0.80964 0.24771 0.0
C347 C 0.67245 0.7921 0.31764 0.0
O348 O 0.66545 0.78743 0.28485 0.0
C349 C 0.50576 0.81843 0.35197 0.0
Zn350 Zn 0.58776 0.47951 0.37316 0.0
Zn351 Zn 0.51593 0.47057 0.32256 0.0
O352 O 0.51843 0.489 0.34418 0.0
O353 O 0.57169 0.50004 0.37028 0.0
O354 O 0.45101 0.46773 0.30294 0.0
O355 O 0.55984 0.46544 0.40719 0.0
O356 O 0.52137 0.4564 0.36167 0.0
C357 C 0.55052 0.49762 0.34111 0.0
C358 C 0.61206 0.46684 0.29928 0.0
O359 O 0.56987 0.46678 0.28932 0.0
O360 O 0.62395 0.47092 0.33062 0.0
C361 C 0.43416 0.45587 0.30224 0.0
O362 O 0.46188 0.44559 0.30716 0.0
C363 C 0.53733 0.45566 0.39367 0.0
Zn364 Zn 0.6738 0.39395 0.09806 0.0
Zn365 Zn 0.72742 0.40475 0.04708 0.0
O366 O 0.66608 0.41463 0.03833 0.0
O367 O 0.62168 0.40588 0.08061 0.0
O368 O 0.77261 0.41186 0.00938 0.0
O369 O 0.68186 0.37524 0.07984 0.0
O370 O 0.72794 0.38395 0.03882 0.0
C371 C 0.62761 0.4142 0.05503 0.0
C372 C 0.74497 0.41005 0.12794 0.0
O373 O 0.75312 0.4122 0.09462 0.0
O374 O 0.71498 0.40143 0.13704 0.0
C375 C 0.78995 0.42361 0.01203 0.0
O376 O 0.77651 0.43146 0.03858 0.0
C377 C 0.70857 0.3737 0.05321 0.0
Zn378 Zn 0.74891 0.81579 0.943 0.0
Zn379 Zn 0.66608 0.80675 0.9213 0.0
O380 O 0.70603 0.78975 0.9293 0.0
O381 O 0.77536 0.79702 0.94345 0.0
O382 O 0.60648 0.80013 0.89846 0.0
O383 O 0.75521 0.82882 0.9015 0.0
O384 O 0.68462 0.82255 0.88835 0.0
C385 C 0.74759 0.78735 0.93854 0.0
C386 C 0.67281 0.8199 0.99405 0.0
O387 O 0.6481 0.81403 0.97034 0.0
O388 O 0.71536 0.82189 0.98845 0.0
C389 C 0.60247 0.79986 0.86418 0.0
O390 O 0.63798 0.80327 0.84419 0.0
C391 C 0.719 0.83025 0.88287 0.0
Zn392 Zn 0.54941 0.19194 0.60638 0.0
Zn393 Zn 0.46158 0.20119 0.64035 0.0
O394 O 0.48877 0.20807 0.59431 0.0
O395 O 0.55478 0.20805 0.56965 0.0
O396 O 0.39773 0.20967 0.64484 0.0
O397 O 0.51019 0.17476 0.60097 0.0
O398 O 0.45177 0.18095 0.63581 0.0
C399 C 0.52662 0.21425 0.58964 0.0
C400 C 0.54704 0.20067 0.68585 0.0
O401 O 0.50451 0.20385 0.68327 0.0
O402 O 0.56887 0.19572 0.65912 0.0
C403 C 0.36689 0.20522 0.66618 0.0
O404 O 0.37766 0.19562 0.68912 0.0
C405 C 0.47351 0.17191 0.61823 0.0
Zn406 Zn 0.1767 0.57024 0.69731 0.0
Zn407 Zn 0.26965 0.56392 0.66359 0.0
O408 O 0.21834 0.55792 0.62953 0.0
O409 O 0.15135 0.56275 0.64947 0.0
O410 O 0.32975 0.56119 0.63633 0.0
O411 O 0.20219 0.58926 0.69935 0.0
O412 O 0.26981 0.58408 0.67564 0.0
C413 C 0.17971 0.55365 0.64088 0.0
C414 C 0.24208 0.55121 0.73518 0.0
O415 O 0.27096 0.55294 0.70965 0.0
O416 O 0.20326 0.55713 0.73502 0.0
C417 C 0.35498 0.55072 0.63566 0.0
O418 O 0.34256 0.54004 0.65424 0.0
C419 C 0.2424 0.59267 0.68954 0.0
Zn420 Zn 0.4321 0.52178 0.01195 0.0
Zn421 Zn 0.35568 0.5166 0.04631 0.0
O422 O 0.39735 0.49985 0.05924 0.0
O423 O 0.46307 0.50638 0.03517 0.0
O424 O 0.2944 0.5148 0.0731 0.0
O425 O 0.43983 0.54017 0.03202 0.0
O426 O 0.37722 0.53574 0.06325 0.0
C427 C 0.44012 0.49782 0.05293 0.0
C428 C 0.35819 0.51704 0.96355 0.0
O429 O 0.33555 0.51634 0.99297 0.0
O430 O 0.40121 0.51899 0.96423 0.0
C431 C 0.26037 0.50797 0.06134 0.0
O432 O 0.26576 0.50052 0.03228 0.0
C433 C 0.40999 0.54376 0.05488 0.0
Zn434 Zn 0.5055 0.17652 0.95128 0.0
Zn435 Zn 0.56238 0.18199 0.00305 0.0
O436 O 0.51425 0.19751 0.01003 0.0
O437 O 0.466 0.19195 0.96639 0.0
O438 O 0.61113 0.18247 0.04306 0.0
O439 O 0.48912 0.15806 0.96487 0.0
O440 O 0.53798 0.16214 0.00894 0.0
C441 C 0.47749 0.19978 0.99185 0.0
C442 C 0.59235 0.18435 0.92424 0.0
O443 O 0.60074 0.18643 0.95754 0.0
O444 O 0.55419 0.17945 0.91443 0.0
C445 C 0.6417 0.17342 0.03846 0.0
O446 O 0.63853 0.16566 0.00976 0.0
C447 C 0.51033 0.15413 0.9927 0.0
H448 H 0.94426 0.36848 0.40505 0.0
H449 H 0.15231 0.31616 0.39273 0.0
H450 H 0.08544 0.38028 0.38678 0.0
H451 H 0.01001 0.30465 0.40611 0.0
H452 H 0.13011 0.33976 0.39898 0.0
H453 H 0.96874 0.34509 0.40962 0.0
C454 C 0.98037 0.36614 0.40146 0.0
C455 C 0.01281 0.37639 0.39541 0.0
C456 C 0.10387 0.33205 0.40116 0.0
C457 C 0.04128 0.34957 0.40146 0.0
C458 C 0.11661 0.31854 0.39817 0.0
C459 C 0.08282 0.30841 0.3982 0.0
C460 C 0.0571 0.33541 0.40432 0.0
C461 C 0.03713 0.31213 0.40535 0.0
C462 C 0.9944 0.35277 0.40446 0.0
C463 C 0.05916 0.37271 0.39119 0.0
N464 N 0.0255 0.32534 0.40748 0.0
N465 N 0.07205 0.3596 0.39445 0.0
H466 H 0.0987 0.91295 0.24152 0.0
H467 H 0.01452 0.85476 0.37458 0.0
H468 H 0.99396 0.91917 0.32265 0.0
H469 H 0.14642 0.85525 0.32097 0.0
H470 H 0.99455 0.87586 0.34405 0.0
H471 H 0.10413 0.88949 0.25951 0.0
C472 C 0.07659 0.90938 0.26307 0.0
C473 C 0.04629 0.91813 0.28104 0.0
C474 C 0.0275 0.8712 0.33857 0.0
C475 C 0.05239 0.89112 0.30157 0.0
C476 C 0.0388 0.85911 0.35566 0.0
C477 C 0.08246 0.85334 0.35056 0.0
C478 C 0.05984 0.87741 0.31591 0.0
C479 C 0.11261 0.85943 0.32593 0.0
C480 C 0.07975 0.89595 0.27324 0.0
C481 C 0.01816 0.91282 0.30838 0.0
N482 N 0.10087 0.8712 0.30973 0.0
N483 N 0.02213 0.89963 0.31805 0.0
H484 H 0.18901 0.87644 0.90263 0.0
H485 H 0.08795 0.80294 0.90733 0.0
H486 H 0.0493 0.86537 0.92882 0.0
H487 H 0.22186 0.81307 0.86489 0.0
H488 H 0.08646 0.82442 0.93913 0.0
H489 H 0.21166 0.85275 0.90921 0.0
C490 C 0.16329 0.86907 0.91025 0.0
C491 C 0.11696 0.87278 0.91404 0.0
C492 C 0.11681 0.82179 0.92369 0.0
C493 C 0.14262 0.84582 0.92221 0.0
C494 C 0.11788 0.80944 0.9058 0.0
C495 C 0.15399 0.80653 0.88191 0.0
C496 C 0.1518 0.83127 0.91715 0.0
C497 C 0.19243 0.81514 0.88193 0.0
C498 C 0.17624 0.85558 0.9142 0.0
C499 C 0.08515 0.86288 0.92452 0.0
N500 N 0.1896 0.8274 0.89808 0.0
N501 N 0.09846 0.84986 0.92779 0.0
H502 H 0.15245 0.40858 0.86688 0.0
H503 H 0.34107 0.35201 0.90719 0.0
H504 H 0.29834 0.41497 0.85257 0.0
H505 H 0.19584 0.34362 0.89677 0.0
H506 H 0.3264 0.37544 0.89074 0.0
H507 H 0.16806 0.38533 0.88471 0.0
C508 C 0.18784 0.4052 0.8682 0.0
C509 C 0.22414 0.41373 0.858 0.0
C510 C 0.2978 0.36845 0.89171 0.0
C511 C 0.24209 0.38705 0.8777 0.0
C512 C 0.30618 0.35504 0.90085 0.0
C513 C 0.26962 0.34583 0.90338 0.0
C514 C 0.25246 0.37273 0.88545 0.0
C515 C 0.22511 0.35035 0.89497 0.0
C516 C 0.19666 0.39186 0.87793 0.0
C517 C 0.26927 0.40873 0.86004 0.0
N518 N 0.21771 0.36352 0.88675 0.0
N519 N 0.27694 0.3957 0.86945 0.0
H520 H 0.74786 0.58546 0.53864 0.0
H521 H 0.9564 0.63513 0.57112 0.0
H522 H 0.88298 0.57279 0.57311 0.0
H523 H 0.81605 0.64945 0.57213 0.0
H524 H 0.92813 0.61213 0.56908 0.0
H525 H 0.7686 0.60877 0.55299 0.0
C526 C 0.78123 0.58749 0.55056 0.0
C527 C 0.81417 0.57722 0.55399 0.0
C528 C 0.90341 0.62028 0.56975 0.0
C529 C 0.83842 0.6038 0.56918 0.0
C530 C 0.91956 0.63346 0.57039 0.0
C531 C 0.88858 0.64428 0.57185 0.0
C532 C 0.85586 0.6178 0.57019 0.0
C533 C 0.84118 0.64142 0.57091 0.0
C534 C 0.79324 0.60083 0.55824 0.0
C535 C 0.85686 0.58044 0.56944 0.0
N536 N 0.8262 0.62843 0.57013 0.0
N537 N 0.86813 0.59349 0.57569 0.0
H538 H 0.92724 0.12115 0.7098 0.0
H539 H 0.81929 0.19478 0.69492 0.0
H540 H 0.78953 0.13152 0.74361 0.0
H541 H 0.95772 0.18525 0.66151 0.0
H542 H 0.81241 0.17239 0.7214 0.0
H543 H 0.94183 0.14491 0.69654 0.0
C544 C 0.8999 0.12838 0.71405 0.0
C545 C 0.85698 0.1243 0.72764 0.0
C546 C 0.84464 0.17526 0.70888 0.0
C547 C 0.87383 0.15154 0.7133 0.0
C548 C 0.84877 0.18811 0.69415 0.0
C549 C 0.88885 0.1918 0.67547 0.0
C550 C 0.88068 0.16598 0.70456 0.0
C551 C 0.92607 0.18279 0.67547 0.0
C552 C 0.90845 0.14197 0.70688 0.0
C553 C 0.82306 0.13416 0.73301 0.0
N554 N 0.92073 0.17016 0.68904 0.0
N555 N 0.83223 0.1473 0.72584 0.0
H556 H 0.08956 0.0914 0.24395 0.0
H557 H 0.91224 0.03401 0.18564 0.0
H558 H 0.94728 0.09855 0.21616 0.0
H559 H 0.05897 0.02782 0.19369 0.0
H560 H 0.92185 0.05629 0.21221 0.0
H561 H 0.07671 0.06724 0.23685 0.0
C562 C 0.05565 0.08791 0.23611 0.0
C563 C 0.01954 0.09706 0.23026 0.0
C564 C 0.95183 0.04995 0.20884 0.0
C565 C 1.00442 0.06934 0.22289 0.0
C566 C 0.94634 0.03711 0.19413 0.0
C567 C 0.98509 0.02919 0.18615 0.0
C568 C 0.9963 0.05483 0.21587 0.0
C569 C 0.02821 0.0337 0.19846 0.0
C570 C 0.04829 0.07409 0.23237 0.0
C571 C 0.97628 0.0919 0.22049 0.0
N572 N 0.03283 0.04637 0.21187 0.0
N573 N 0.96995 0.07839 0.21709 0.0
H574 H 0.76261 0.56587 0.01007 0.0
H575 H 0.91248 0.63147 0.05385 0.0
H576 H 0.89421 0.56369 0.06414 0.0
H577 H 0.76619 0.63127 0.03293 0.0
H578 H 0.91293 0.60683 0.0479 0.0
H579 H 0.77267 0.59013 0.00377 0.0
C580 C 0.7943 0.5704 0.01963 0.0
C581 C 0.827 0.56275 0.03857 0.0
C582 C 0.88082 0.61224 0.04473 0.0
C583 C 0.83816 0.59059 0.03218 0.0
C584 C 0.88041 0.62627 0.04849 0.0
C585 C 0.83919 0.63348 0.04409 0.0
C586 C 0.83988 0.60544 0.03598 0.0
C587 C 0.79878 0.62619 0.03678 0.0
C588 C 0.79971 0.5843 0.01649 0.0
C589 C 0.86765 0.56922 0.04994 0.0
N590 N 0.80024 0.61262 0.03274 0.0
N591 N 0.87168 0.58283 0.04726 0.0
H592 H 0.76847 0.36556 -4e-05 0.0
H593 H 0.63818 0.29729 0.96638 0.0
H594 H 0.66335 0.35063 0.0721 0.0
H595 H 0.77054 0.30593 0.9187 0.0
H596 H 0.65039 0.31567 0.0092 0.0
H597 H 0.77297 0.34319 0.97225 0.0
C598 C 0.74665 0.35757 0.01018 0.0
C599 C 0.71507 0.36003 0.03806 0.0
C600 C 0.67723 0.31336 0.98989 0.0
C601 C 0.71991 0.33447 0.00646 0.0
C602 C 0.67034 0.30281 0.96553 0.0
C603 C 0.70299 0.30021 0.9385 0.0
C604 C 0.71661 0.32151 0.98671 0.0
C605 C 0.74417 0.30766 0.93884 0.0
C606 C 0.74941 0.34478 -0.00549 0.0
C607 C 0.68793 0.34925 0.05045 0.0
N608 N 0.74932 0.31819 0.96196 0.0
N609 N 0.69051 0.33701 0.03423 0.0
H610 H 0.63922 0.84058 0.85504 0.0
H611 H 0.75486 0.90827 0.78225 0.0
H612 H 0.78558 0.84796 0.86028 0.0
H613 H 0.61303 0.9059 0.8163 0.0
H614 H 0.7659 0.8849 0.80111 0.0
H615 H 0.62848 0.86301 0.82912 0.0
C616 C 0.66924 0.84679 0.85005 0.0
C617 C 0.7134 0.84241 0.86016 0.0
C618 C 0.73241 0.88951 0.80451 0.0
C619 C 0.70111 0.86812 0.83083 0.0
C620 C 0.72605 0.90284 0.79383 0.0
C621 C 0.68297 0.90906 0.79788 0.0
C622 C 0.69527 0.88224 0.81885 0.0
C623 C 0.64689 0.90154 0.813 0.0
C624 C 0.66295 0.85964 0.83562 0.0
C625 C 0.75092 0.85094 0.85312 0.0
N626 N 0.65378 0.88848 0.82276 0.0
N627 N 0.74389 0.86342 0.83905 0.0
H628 H 0.4273 0.83022 0.37744 0.0
H629 H 0.54248 0.90325 0.37853 0.0
H630 H 0.57367 0.83668 0.36778 0.0
H631 H 0.39735 0.89575 0.39382 0.0
H632 H 0.55606 0.8789 0.37946 0.0
H633 H 0.41747 0.85404 0.3914 0.0
C634 C 0.45754 0.83659 0.37916 0.0
C635 C 0.50129 0.83147 0.37097 0.0
C636 C 0.5213 0.88261 0.38275 0.0
C637 C 0.49016 0.85889 0.38586 0.0
C638 C 0.51346 0.89651 0.38193 0.0
C639 C 0.46864 0.90159 0.38578 0.0
C640 C 0.48404 0.87373 0.38739 0.0
C641 C 0.43247 0.89235 0.39051 0.0
C642 C 0.45188 0.85023 0.38683 0.0
C643 C 0.53926 0.84019 0.37378 0.0
N644 N 0.44096 0.87892 0.39105 0.0
N645 N 0.53273 0.85354 0.38029 0.0
H646 H 0.69396 0.38795 0.44152 0.0
H647 H 0.48792 0.43291 0.37708 0.0
H648 H 0.56023 0.36979 0.42567 0.0
H649 H 0.59609 0.44752 0.44704 0.0
H650 H 0.51189 0.40976 0.39033 0.0
H651 H 0.65932 0.41009 0.43515 0.0
C652 C 0.65737 0.38858 0.43614 0.0
C653 C 0.62994 0.37695 0.43433 0.0
C654 C 0.52959 0.41806 0.40334 0.0
C655 C 0.59 0.4024 0.42745 0.0
C656 C 0.51582 0.43126 0.39603 0.0
C657 C 0.54055 0.44219 0.41051 0.0
C658 C 0.56874 0.41586 0.42469 0.0
C659 C 0.57622 0.43945 0.43501 0.0
C660 C 0.63754 0.40126 0.43302 0.0
C661 C 0.58266 0.37848 0.4273 0.0
N662 N 0.58995 0.42656 0.44064 0.0
N663 N 0.56408 0.39102 0.42405 0.0
H664 H 0.48405 0.5606 0.05464 0.0
H665 H 0.35017 0.6233 0.13942 0.0
H666 H 0.34247 0.55832 0.08943 0.0
H667 H 0.49834 0.62052 0.13502 0.0
H668 H 0.34474 0.60089 0.11221 0.0
H669 H 0.48787 0.58372 0.07655 0.0
C670 C 0.45373 0.56495 0.06701 0.0
C671 C 0.41286 0.55749 0.07031 0.0
C672 C 0.37839 0.60525 0.11695 0.0
C673 C 0.41696 0.58409 0.09508 0.0
C674 C 0.38157 0.6181 0.13214 0.0
C675 C 0.42483 0.62379 0.13967 0.0
C676 C 0.41873 0.5981 0.10889 0.0
C677 C 0.46429 0.61652 0.12986 0.0
C678 C 0.45598 0.57817 0.07949 0.0
C679 C 0.37475 0.56368 0.08659 0.0
N680 N 0.46028 0.60404 0.11509 0.0
N681 N 0.37764 0.57667 0.09824 0.0
H682 H 0.55298 0.14077 0.04882 0.0
H683 H 0.36149 0.08501 0.05955 0.0
H684 H 0.44776 0.13606 0.96715 0.0
H685 H 0.49258 0.08003 0.11274 0.0
H686 H 0.39411 0.10331 0.02367 0.0
H687 H 0.53313 0.11838 0.07238 0.0
C688 C 0.526 0.13502 0.03573 0.0
C689 C 0.50158 0.14037 0.00632 0.0
C690 C 0.41609 0.09805 0.04264 0.0
C691 C 0.47885 0.11489 0.03296 0.0
C692 C 0.39748 0.08758 0.06301 0.0
C693 C 0.42435 0.08109 0.08917 0.0
C694 C 0.4615 0.10227 0.04923 0.0
C695 C 0.47079 0.08479 0.09271 0.0
C696 C 0.51492 0.12222 0.049 0.0
C697 C 0.46724 0.13243 0.99013 0.0
N698 N 0.48771 0.09537 0.07351 0.0
N699 N 0.45655 0.12018 0.00393 0.0
H700 H 0.34807 0.0921 0.63147 0.0
H701 H 0.3945 0.16144 0.64842 0.0
H702 H 0.49578 0.08776 0.63635 0.0
H703 H 0.52212 0.14968 0.59772 0.0
H704 H 0.37701 0.1376 0.65918 0.0
H705 H 0.35708 0.11644 0.63737 0.0
C706 C 0.38234 0.0962 0.63511 0.0
C707 C 0.42128 0.08785 0.63277 0.0
C708 C 0.40851 0.14026 0.64531 0.0
C709 C 0.43184 0.11575 0.63915 0.0
C710 C 0.41852 0.15386 0.63911 0.0
C711 C 0.4596 0.1576 0.62171 0.0
C712 C 0.44007 0.13036 0.63431 0.0
C713 C 0.48977 0.14734 0.61079 0.0
C714 C 0.38745 0.11015 0.6384 0.0
C715 C 0.46475 0.09376 0.63763 0.0
N716 N 0.47951 0.13424 0.61747 0.0
N717 N 0.46889 0.10737 0.63963 0.0
H718 H 0.37249 0.66802 0.65085 0.0
H719 H 0.19431 0.6134 0.72033 0.0
H720 H 0.23295 0.67664 0.68307 0.0
H721 H 0.32501 0.60418 0.67069 0.0
H722 H 0.21699 0.637 0.72396 0.0
H723 H 0.36537 0.64562 0.67755 0.0
C724 C 0.341 0.66543 0.6649 0.0
C725 C 0.30272 0.67404 0.66381 0.0
C726 C 0.24095 0.62979 0.71267 0.0
C727 C 0.29406 0.64837 0.69355 0.0
C728 C 0.22792 0.6163 0.71037 0.0
C729 C 0.25736 0.60682 0.69436 0.0
C730 C 0.28363 0.63388 0.6987 0.0
C731 C 0.30084 0.61117 0.68261 0.0
C732 C 0.33676 0.65255 0.67973 0.0
C733 C 0.26292 0.67017 0.68258 0.0
N734 N 0.31241 0.62442 0.68457 0.0
N735 N 0.25919 0.65748 0.69591 0.0
H736 H 0.48634 0.30148 0.51652 0.0
H737 H 0.31626 0.29047 0.34794 0.0
H738 H 0.51096 0.31841 0.41078 0.0
H739 H 0.28204 0.27978 0.45781 0.0
H740 H 0.39119 0.29869 0.36896 0.0
H741 H 0.41487 0.29155 0.49401 0.0
C742 C 0.47685 0.30309 0.48852 0.0
C743 C 0.50477 0.31086 0.46558 0.0
C744 C 0.36735 0.29449 0.38843 0.0
C745 C 0.42268 0.29943 0.43953 0.0
C746 C 0.3246 0.28973 0.37643 0.0
C747 C 0.29261 0.28445 0.40114 0.0
C748 C 0.37843 0.2939 0.42541 0.0
C749 C 0.30543 0.28381 0.43775 0.0
C750 C 0.43591 0.29741 0.47569 0.0
C751 C 0.49052 0.31255 0.42952 0.0
N752 N 0.3472 0.28849 0.44874 0.0
N753 N 0.45052 0.3069 0.41764 0.0
H754 H 0.85304 0.96901 0.28737 0.0
H755 H 0.67429 0.94164 0.4354 0.0
H756 H 0.89286 0.94947 0.38685 0.0
H757 H 0.63221 0.95877 0.33332 0.0
H758 H 0.75442 0.94593 0.41954 0.0
H759 H 0.7722 0.96701 0.30539 0.0
C760 C 0.84489 0.96442 0.31316 0.0
C761 C 0.87995 0.95935 0.33555 0.0
C762 C 0.72773 0.94879 0.40059 0.0
C763 C 0.78731 0.95695 0.35624 0.0
C764 C 0.68183 0.94634 0.40964 0.0
C765 C 0.64629 0.94979 0.38561 0.0
C766 C 0.73851 0.95476 0.3672 0.0
C767 C 0.6584 0.95589 0.35266 0.0
C768 C 0.79866 0.96324 0.32336 0.0
C769 C 0.86715 0.95349 0.36861 0.0
N770 N 0.70345 0.95815 0.34439 0.0
N771 N 0.822 0.9524 0.37784 0.0
H772 H 0.44085 0.96899 0.77778 0.0
H773 H 0.2726 0.92473 0.902 0.0
H774 H 0.4906 0.9389 0.85245 0.0
H775 H 0.22775 0.94819 0.81029 0.0
H776 H 0.35202 0.93196 0.89036 0.0
H777 H 0.3622 0.9638 0.79604 0.0
C778 C 0.43536 0.96138 0.79832 0.0
C779 C 0.47259 0.95432 0.81341 0.0
C780 C 0.32472 0.93556 0.87292 0.0
C781 C 0.38205 0.94826 0.83438 0.0
C782 C 0.27935 0.93147 0.87959 0.0
C783 C 0.24338 0.9358 0.85697 0.0
C784 C 0.33416 0.94416 0.84363 0.0
C785 C 0.25428 0.94452 0.82832 0.0
C786 C 0.39029 0.95838 0.80863 0.0
C787 C 0.46304 0.94458 0.83997 0.0
N788 N 0.29856 0.94839 0.8225 0.0
N789 N 0.41872 0.94179 0.8495 0.0
H790 H 0.89019 0.30951 0.81683 0.0
H791 H 0.07752 0.27101 0.93561 0.0
H792 H 0.86875 0.26919 0.857 0.0
H793 H 0.10803 0.30647 0.87247 0.0
H794 H 1.0014 0.26993 0.90717 0.0
H795 H 0.97028 0.30838 0.83662 0.0
C796 C 0.90246 0.30034 0.82948 0.0
C797 C 0.87258 0.28944 0.83532 0.0
C798 C 0.02493 0.27787 0.8993 0.0
C799 C 0.96446 0.28816 0.85868 0.0
C800 C 0.06842 0.27851 0.91557 0.0
C801 C 0.0993 0.28889 0.9066 0.0
C802 C 0.01187 0.28777 0.87414 0.0
C803 C 0.08549 0.2983 0.88035 0.0
C804 C 0.94829 0.29971 0.8408 0.0
C805 C 0.89056 0.27782 0.85182 0.0
N806 N 0.04275 0.29758 0.86536 0.0
N807 N 0.93515 0.27755 0.86333 0.0
H808 H 0.70735 0.68905 0.66406 0.0
H809 H 0.52366 0.70661 0.5105 0.0
H810 H 0.747 0.70114 0.55642 0.0
H811 H 0.48926 0.70239 0.62346 0.0
H812 H 0.60536 0.70494 0.52624 0.0
H813 H 0.6274 0.69408 0.64932 0.0
C814 C 0.6993 0.69284 0.63732 0.0
C815 C 0.73404 0.69461 0.61139 0.0
C816 C 0.57994 0.70451 0.5476 0.0
C817 C 0.642 0.70032 0.59416 0.0
C818 C 0.53322 0.70546 0.53865 0.0
C819 C 0.49936 0.70458 0.56566 0.0
C820 C 0.59299 0.70253 0.58381 0.0
C821 C 0.51399 0.7031 0.60167 0.0
C822 C 0.65353 0.69574 0.62894 0.0
C823 C 0.72139 0.69962 0.57726 0.0
N824 N 0.55955 0.702 0.6096 0.0
N825 N 0.67635 0.70218 0.56952 0.0
H826 H 0.00737 0.07987 0.67306 0.0
H827 H 0.24004 0.03687 0.66232 0.0
H828 H 0.04031 0.04713 0.74537 0.0
H829 H 0.2043 0.06748 0.58436 0.0
H830 H 0.16573 0.04008 0.69162 0.0
H831 H 0.07789 0.0752 0.63913 0.0
C832 C 0.0293 0.07167 0.68177 0.0
C833 C 0.01786 0.06392 0.71228 0.0
C834 C 0.17391 0.04605 0.66798 0.0
C835 C 0.09884 0.05853 0.67349 0.0
C836 C 0.21644 0.04422 0.65117 0.0
C837 C 0.22864 0.05195 0.62086 0.0
C838 C 0.14317 0.05578 0.65465 0.0
C839 C 0.19642 0.06129 0.60764 0.0
C840 C 0.06958 0.069 0.66233 0.0
C841 C 0.04765 0.0534 0.72214 0.0
N842 N 0.15533 0.063 0.62476 0.0
N843 N 0.08675 0.05107 0.70294 0.0
H844 H 0.59178 0.03396 0.22399 0.0
H845 H 0.73555 0.01763 0.04579 0.0
H846 H 0.52852 0.02941 0.11908 0.0
H847 H 0.78988 0.01195 0.15336 0.0
H848 H 0.65953 0.02188 0.07186 0.0
H849 H 0.66444 0.02583 0.19876 0.0
C850 C 0.59299 0.03113 0.19572 0.0
C851 C 0.55387 0.03243 0.17365 0.0
C852 C 0.68797 0.01957 0.08975 0.0
C853 C 0.63743 0.02327 0.14437 0.0
C854 C 0.73147 0.01715 0.07487 0.0
C855 C 0.76936 0.01446 0.09737 0.0
C856 C 0.68226 0.01951 0.1275 0.0
C857 C 0.76178 0.01396 0.1349 0.0
C858 C 0.63456 0.02648 0.18132 0.0
C859 C 0.55767 0.02857 0.13718 0.0
N860 N 0.71932 0.0166 0.14875 0.0
N861 N 0.59876 0.02432 0.12363 0.0
H862 H 0.07947 0.69127 0.01249 0.0
H863 H 0.22306 0.66315 0.18179 0.0
H864 H 0.01808 0.66955 0.10139 0.0
H865 H 0.28518 0.68218 0.08888 0.0
H866 H 0.14716 0.66671 0.15475 0.0
H867 H 0.15447 0.68933 0.04201 0.0
C868 C 0.08167 0.68613 0.03828 0.0
C869 C 0.04233 0.68052 0.05437 0.0
C870 C 0.17739 0.67014 0.14033 0.0
C871 C 0.12832 0.67825 0.08838 0.0
C872 C 0.22078 0.66814 0.1558 0.0
C873 C 0.26067 0.67233 0.13755 0.0
C874 C 0.17374 0.67642 0.10636 0.0
C875 C 0.25547 0.67873 0.10392 0.0
C876 C 0.12458 0.68501 0.05512 0.0
C877 C 0.04742 0.674 0.08788 0.0
N878 N 0.2129 0.68055 0.08941 0.0
N879 N 0.08958 0.67302 0.1037 0.0
H880 H 0.57864 0.80308 0.79313 0.0
H881 H 0.31797 0.77882 0.81904 0.0
H882 H 0.52375 0.78984 0.89558 0.0
H883 H 0.36318 0.80359 0.72994 0.0
H884 H 0.39654 0.77891 0.84294 0.0
H885 H 0.50313 0.79955 0.76556 0.0
C886 C 0.55084 0.79932 0.80981 0.0
C887 C 0.55755 0.79684 0.84684 0.0
C888 C 0.3893 0.78423 0.818 0.0
C889 C 0.47091 0.79272 0.81526 0.0
C890 C 0.34451 0.78411 0.80418 0.0
C891 C 0.33384 0.79128 0.77249 0.0
C892 C 0.42386 0.79144 0.79985 0.0
C893 C 0.36972 0.798 0.75454 0.0
C894 C 0.50768 0.79735 0.79403 0.0
C895 C 0.52012 0.79197 0.86701 0.0
N896 N 0.41305 0.79794 0.76851 0.0
N897 N 0.4784 0.79009 0.85098 0.0
H898 H 0.82382 0.41078 0.95166 0.0
H899 H 0.03246 0.46253 0.92548 0.0
H900 H 0.84163 0.44664 0.01619 0.0
H901 H 0.99945 0.43156 0.84773 0.0
H902 H 0.96314 0.45664 0.95939 0.0
H903 H 0.88838 0.41793 0.9136 0.0
C904 C 0.8411 0.42018 0.95774 0.0
C905 C 0.82725 0.42809 0.98729 0.0
C906 C 0.97086 0.45118 0.93479 0.0
C907 C 0.90149 0.4363 0.94394 0.0
C908 C 0.01052 0.45454 0.91539 0.0
C909 C 0.02197 0.44752 0.8837 0.0
C910 C 0.9425 0.44061 0.92271 0.0
C911 C 0.99204 0.43727 0.87198 0.0
C912 C 0.87795 0.42427 0.93596 0.0
C913 C 0.851 0.44019 0.99377 0.0
N914 N 0.95394 0.43406 0.89161 0.0
N915 N 0.88704 0.44386 0.97248 0.0
H916 H 0.36569 0.47487 0.30906 0.0
H917 H 0.16938 0.41977 0.34732 0.0
H918 H 0.387 0.43197 0.30082 0.0
H919 H 0.15195 0.46231 0.36695 0.0
H920 H 0.24606 0.42432 0.323 0.0
H921 H 0.28431 0.47074 0.32227 0.0
C922 C 0.35318 0.46459 0.30939 0.0
C923 C 0.38349 0.45375 0.30404 0.0
C924 C 0.22538 0.43268 0.33243 0.0
C925 C 0.29023 0.44893 0.31959 0.0
C926 C 0.18149 0.43008 0.34632 0.0
C927 C 0.15411 0.44066 0.35949 0.0
C928 C 0.24225 0.44595 0.33156 0.0
C929 C 0.17181 0.45382 0.35733 0.0
C930 C 0.3067 0.46223 0.31718 0.0
C931 C 0.36512 0.44065 0.30496 0.0
N932 N 0.21473 0.45608 0.34384 0.0
N933 N 0.31991 0.43861 0.31286 0.0
H934 H 0.75237 0.78289 0.28723 0.0
H935 H 0.91646 0.81383 0.44083 0.0
H936 H 0.70079 0.80306 0.38229 0.0
H937 H 0.96563 0.79383 0.34474 0.0
H938 H 0.83726 0.80866 0.42245 0.0
H939 H 0.83056 0.7855 0.31034 0.0
C940 C 0.7574 0.7878 0.31308 0.0
C941 C 0.71982 0.79282 0.33271 0.0
C942 C 0.86543 0.80533 0.40553 0.0
C943 C 0.8097 0.79591 0.35939 0.0
C944 C 0.91068 0.80825 0.41606 0.0
C945 C 0.94785 0.80433 0.39422 0.0
C946 C 0.85725 0.79844 0.37292 0.0
C947 C 0.93817 0.79713 0.36239 0.0
C948 C 0.80217 0.7893 0.32629 0.0
C949 C 0.72866 0.79906 0.36615 0.0
N950 N 0.89396 0.79449 0.35266 0.0
N951 N 0.77265 0.8005 0.37832 0.0
H952 H 0.83765 0.17587 0.21766 0.0
H953 H 0.70873 0.15432 0.03488 0.0
H954 H 0.87545 0.14161 0.1523 0.0
H955 H 0.66205 0.1872 0.10176 0.0
H956 H 0.77089 0.15012 0.07735 0.0
H957 H 0.77446 0.18066 0.17565 0.0
C958 C 0.83273 0.16934 0.1945 0.0
C959 C 0.86207 0.1583 0.18858 0.0
C960 C 0.74717 0.15826 0.08289 0.0
C961 C 0.78965 0.16378 0.14028 0.0
C962 C 0.7115 0.16071 0.05853 0.0
C963 C 0.67987 0.17116 0.06464 0.0
C964 C 0.75174 0.16632 0.11387 0.0
C965 C 0.68556 0.17904 0.0959 0.0
C966 C 0.79656 0.17209 0.17054 0.0
C967 C 0.85384 0.15022 0.15808 0.0
N968 N 0.7208 0.17646 0.11936 0.0
N969 N 0.81856 0.15313 0.13516 0.0
H970 H 0.23313 0.52585 0.11388 0.0
H971 H 0.96489 0.50707 0.09868 0.0
H972 H 0.18079 0.49437 0.0446 0.0
H973 H 0.01625 0.54308 0.15019 0.0
H974 H 0.04437 0.50031 0.0858 0.0
H975 H 0.15468 0.53024 0.13469 0.0
C976 C 0.20527 0.51974 0.10332 0.0
C977 C 0.21371 0.50976 0.07723 0.0
C978 C 0.03821 0.50965 0.10014 0.0
C979 C 0.12347 0.51481 0.10093 0.0
C980 C 0.99282 0.51349 0.10763 0.0
C981 C 0.98373 0.52571 0.12538 0.0
C982 C 0.0749 0.51803 0.11068 0.0
C983 C 0.02146 0.53362 0.13624 0.0
C984 C 0.16038 0.52231 0.11512 0.0
C985 C 0.17602 0.50221 0.06457 0.0
N986 N 0.06523 0.52967 0.12865 0.0
N987 N 0.13263 0.50492 0.07641 0.0
H988 H 0.61766 0.53088 0.53497 0.0
H989 H 0.39107 0.57125 0.59511 0.0
H990 H 0.59088 0.57252 0.50881 0.0
H991 H 0.41791 0.53021 0.62738 0.0
H992 H 0.46274 0.57132 0.56095 0.0
H993 H 0.54322 0.52982 0.56623 0.0
C994 C 0.59607 0.53976 0.53557 0.0
C995 C 0.61072 0.55182 0.5193 0.0
C996 C 0.45303 0.56227 0.57543 0.0
C997 C 0.52559 0.55069 0.55512 0.0
C998 C 0.41198 0.56223 0.59501 0.0
C999 C 0.39833 0.55072 0.61432 0.0
C1000 C 0.48098 0.55073 0.57499 0.0
C1001 C 0.42702 0.53933 0.613 0.0
C1002 C 0.55363 0.53916 0.55351 0.0
C1003 C 0.58126 0.56301 0.52103 0.0
N1004 N 0.46699 0.53963 0.59374 0.0
N1005 N 0.54034 0.56218 0.53863 0.0
H1006 H 0.0983 0.22433 0.57682 0.0
H1007 H 0.29594 0.20134 0.71371 0.0
H1008 H 0.07569 0.218 0.69089 0.0
H1009 H 0.32635 0.21882 0.60962 0.0
H1010 H 0.21467 0.20676 0.70482 0.0
H1011 H 0.18142 0.2218 0.58697 0.0
C1012 C 0.11074 0.22252 0.604 0.0
C1013 C 0.07975 0.22135 0.633 0.0
C1014 C 0.23912 0.20952 0.68401 0.0
C1015 C 0.17484 0.21828 0.64472 0.0
C1016 C 0.28561 0.20642 0.68908 0.0
C1017 C 0.31816 0.20962 0.6624 0.0
C1018 C 0.22466 0.2157 0.65174 0.0
C1019 C 0.30256 0.21621 0.63101 0.0
C1020 C 0.15821 0.22108 0.60978 0.0
C1021 C 0.09804 0.21898 0.66764 0.0
N1022 N 0.25692 0.2189 0.62638 0.0
N1023 N 0.14414 0.21741 0.67244 0.0
H1024 H 0.15513 0.16827 0.25968 0.0
H1025 H 0.04007 0.23507 0.3281 0.0
H1026 H 0.01875 0.18104 0.22838 0.0
H1027 H 0.18683 0.23474 0.30982 0.0
H1028 H 0.03422 0.2131 0.2997 0.0
H1029 H 0.17101 0.19116 0.28151 0.0
C1030 C 0.12898 0.17594 0.25637 0.0
C1031 C 0.08514 0.17262 0.24272 0.0
C1032 C 0.06778 0.21779 0.30196 0.0
C1033 C 0.10281 0.19859 0.26867 0.0
C1034 C 0.07131 0.23029 0.3186 0.0
C1035 C 0.114 0.23687 0.32107 0.0
C1036 C 0.10723 0.21161 0.28795 0.0
C1037 C 0.15325 0.23003 0.30853 0.0
C1038 C 0.13806 0.18896 0.26912 0.0
C1039 C 0.05281 0.18302 0.23905 0.0
N1040 N 0.14894 0.21773 0.29233 0.0
N1041 N 0.06193 0.19543 0.25272 0.0
H1042 H 0.06913 0.00101 0.25821 0.0
H1043 H 0.33529 0.01802 0.22568 0.0
H1044 H 0.18041 0.98001 0.31105 0.0
H1045 H 0.22355 0.04085 0.17923 0.0
H1046 H 0.27895 0.0042 0.25816 0.0
H1047 H 0.12474 0.01708 0.23373 0.0
C1048 C 0.105 6e-05 0.26583 0.0
C1049 C 0.12016 0.98904 0.28642 0.0
C1050 C 0.26678 0.01221 0.24072 0.0
C1051 C 0.18425 0.00708 0.25722 0.0
C1052 C 0.29896 0.01996 0.22174 0.0
C1053 C 0.28421 0.03059 0.19957 0.0
C1054 C 0.21952 0.01507 0.23745 0.0
C1055 C 0.23659 0.03277 0.19601 0.0
C1056 C 0.13692 0.00911 0.25125 0.0
C1057 C 0.16724 0.98828 0.295 0.0
N1058 N 0.20605 0.02512 0.21478 0.0
N1059 N 0.19769 -0.003 0.27982 0.0
H1060 H 0.91495 0.97473 0.01635 0.0
H1061 H 0.09958 0.94386 0.87793 0.0
H1062 H 0.05986 0.98445 0.01555 0.0
H1063 H 0.95684 0.9318 0.87977 0.0
H1064 H 0.08276 0.96088 0.92373 0.0
H1065 H 0.92733 0.96011 0.96351 0.0
C1066 C 0.94927 0.97374 0.0053 0.0
C1067 C 0.98638 0.98076 0.02074 0.0
C1068 C 0.05501 0.95456 0.91394 0.0
C1069 C 1.00055 0.96445 0.95977 0.0
C1070 C 0.06469 0.94484 0.88771 0.0
C1071 C 0.03015 0.93599 0.87594 0.0
C1072 C 0.01034 0.95552 0.92841 0.0
C1073 C 0.98505 0.93808 0.88882 0.0
C1074 C 0.95627 0.96551 0.97496 0.0
C1075 C 0.0301 0.9792 0.00495 0.0
N1076 N 0.97665 0.94745 0.91481 0.0
N1077 N 0.03584 0.9713 0.97542 0.0
H1078 H 0.5068 0.22444 0.01689 0.0
H1079 H 0.28079 0.26262 0.94471 0.0
H1080 H 0.38778 0.20391 0.97396 0.0
H1081 H 0.40664 0.28276 0.97558 0.0
H1082 H 0.31702 0.24096 0.95911 0.0
H1083 H 0.46673 0.24598 0.0088 0.0
C1084 C 0.47185 0.22444 0.00668 0.0
C1085 C 0.45074 0.21238 -0.0041 0.0
C1086 C 0.3367 0.25014 0.96258 0.0
C1087 C 0.40509 0.23695 0.98569 0.0
C1088 C 0.31615 0.2625 0.954 0.0
C1089 C 0.34064 0.27456 0.95879 0.0
C1090 C 0.38197 0.24984 0.97617 0.0
C1091 C 0.38628 0.27375 0.9714 0.0
C1092 C 0.44918 0.23674 0.00157 0.0
C1093 C 0.40552 0.21299 0.98236 0.0
N1094 N 0.40531 0.26165 0.97975 0.0
N1095 N 0.38441 0.22505 0.97735 0.0
H1096 H 0.93054 0.72699 0.60528 0.0
H1097 H 0.15964 0.75552 0.69816 0.0
H1098 H 0.06295 0.70803 0.59084 0.0
H1099 H 0.02033 0.76446 0.73096 0.0
H1100 H 0.12867 0.74112 0.64961 0.0
H1101 H 0.96803 0.74517 0.63831 0.0
C1102 C 0.96767 0.72683 0.60796 0.0
C1103 C 0.99333 0.7157 0.59625 0.0
C1104 C 0.10513 0.74629 0.66754 0.0
C1105 C 0.03633 0.73634 0.63502 0.0
C1106 C 0.12273 0.75437 0.69546 0.0
C1107 C 0.09264 0.76116 0.71893 0.0
C1108 C 0.05722 0.74519 0.66288 0.0
C1109 C 0.04505 0.75942 0.71378 0.0
C1110 C 0.98902 0.73715 0.62734 0.0
C1111 C 0.04155 0.71624 0.60016 0.0
N1112 N 0.02897 0.75169 0.68636 0.0
N1113 N 0.06142 0.72621 0.62004 0.0
H1114 H 0.639 0.99278 0.79423 0.0
H1115 H 0.85106 0.04074 0.74256 0.0
H1116 H 0.77832 0.97898 0.77836 0.0
H1117 H 0.71786 0.05616 0.77339 0.0
H1118 H 0.82277 0.01789 0.75251 0.0
H1119 H 0.66599 0.01609 0.78729 0.0
C1120 C 0.67537 -0.00535 0.79024 0.0
C1121 C 0.70638 0.9839 0.78669 0.0
C1122 C 0.7996 0.02627 0.75693 0.0
C1123 C 0.73721 0.01045 0.77763 0.0
C1124 C 0.81563 0.03933 0.75082 0.0
C1125 C 0.7869 0.05043 0.7572 0.0
C1126 C 0.75443 0.02422 0.76944 0.0
C1127 C 0.74132 0.04792 0.76817 0.0
C1128 C 0.69067 0.00795 0.78579 0.0
C1129 C 0.75307 0.98694 0.78102 0.0
N1130 N 0.72657 0.0351 0.7741 0.0
N1131 N 0.76691 -0.00013 0.77629 0.0
H1132 H 0.69197 0.76535 0.94828 0.0
H1133 H 0.8886 0.71773 0.02775 0.0
H1134 H 0.83337 0.77828 0.95805 0.0
H1135 H 0.74317 0.71029 0.04119 0.0
H1136 H 0.87055 0.73989 0.00247 0.0
H1137 H 0.71191 0.74436 0.97884 0.0
C1138 C 0.7274 0.7637 0.95625 0.0
C1139 C 0.76101 0.77364 0.95053 0.0
C1140 C 0.84266 0.73348 0.01149 0.0
C1141 C 0.78391 0.74967 0.98632 0.0
C1142 C 0.85295 0.72087 0.02635 0.0
C1143 C 0.81735 0.71201 0.03627 0.0
C1144 C 0.7965 0.7372 0.00623 0.0
C1145 C 0.77181 0.71668 0.03363 0.0
C1146 C 0.73864 0.75177 0.97418 0.0
C1147 C 0.8063 0.77092 0.96185 0.0
N1148 N 0.7627 0.72883 0.01833 0.0
N1149 N 0.8164 0.75921 0.97925 0.0
H1150 H 0.1118 0.54517 0.68722 0.0
H1151 H 0.26592 0.48766 0.77653 0.0
H1152 H 0.24666 0.53416 0.64821 0.0
H1153 H 0.11799 0.48851 0.78745 0.0
H1154 H 0.26201 0.50782 0.73902 0.0
H1155 H 0.11543 0.52671 0.73072 0.0
C1156 C 0.14223 0.53888 0.6877 0.0
C1157 C 0.17974 0.54156 0.6647 0.0
C1158 C 0.23048 0.5037 0.75006 0.0
C1159 C 0.18379 0.52034 0.71461 0.0
C1160 C 0.23264 0.49226 0.77187 0.0
C1161 C 0.19208 0.48618 0.78471 0.0
C1162 C 0.18756 0.50927 0.74139 0.0
C1163 C 0.15012 0.49275 0.77797 0.0
C1164 C 0.1442 0.52835 0.71265 0.0
C1165 C 0.21748 0.53274 0.66597 0.0
N1166 N 0.14889 0.50386 0.75641 0.0
N1167 N 0.21881 0.52264 0.69085 0.0
H1168 H 0.84846 0.44145 0.40393 0.0
H1169 H 0.90499 0.5192 0.43132 0.0
H1170 H 0.97909 0.46001 0.37897 0.0
H1171 H 0.77154 0.50222 0.45544 0.0
H1172 H 0.92917 0.4978 0.40684 0.0
H1173 H 0.81587 0.46374 0.41501 0.0
C1174 C 0.87006 0.45022 0.39985 0.0
C1175 C 0.91696 0.44881 0.39113 0.0
C1176 C 0.89454 0.49867 0.41737 0.0
C1177 C 0.87985 0.47433 0.40444 0.0
C1178 C 0.88061 0.51093 0.43167 0.0
C1179 C 0.83606 0.51256 0.44583 0.0
C1180 C 0.86404 0.48774 0.41727 0.0
C1181 C 0.80629 0.50141 0.44515 0.0
C1182 C 0.85141 0.46294 0.4065 0.0
C1183 C 0.94297 0.46055 0.38597 0.0
N1184 N 0.82091 0.48942 0.43124 0.0
N1185 N 0.92425 0.47279 0.39328 0.0
H1186 H 0.19053 0.73128 0.55722 0.0
H1187 H 0.24607 0.79465 0.43168 0.0
H1188 H 0.3272 0.7393 0.51693 0.0
H1189 H 0.10904 0.78123 0.45908 0.0
H1190 H 0.27762 0.77489 0.46252 0.0
H1191 H 0.16197 0.75066 0.52411 0.0
C1192 C 0.21474 0.73723 0.54169 0.0
C1193 C 0.26136 0.7336 0.5397 0.0
C1194 C 0.24066 0.77621 0.4614 0.0
C1195 C 0.22847 0.75583 0.501 0.0
C1196 C 0.22252 0.78743 0.44355 0.0
C1197 C 0.17472 0.78969 0.44296 0.0
C1198 C 0.21083 0.76723 0.47899 0.0
C1199 C 0.14604 0.77998 0.45887 0.0
C1200 C 0.19826 0.74827 0.52251 0.0
C1201 C 0.29107 0.74178 0.51934 0.0
N1202 N 0.16456 0.76928 0.47653 0.0
N1203 N 0.27404 0.75249 0.50052 0.0
H1204 H 0.52127 0.49409 0.27092 0.0
H1205 H 0.7765 0.50128 0.1912 0.0
H1206 H 0.64319 0.50231 0.33404 0.0
H1207 H 0.65534 0.50604 0.12474 0.0
H1208 H 0.72725 0.49536 0.2422 0.0
H1209 H 0.56913 0.49391 0.21595 0.0
C1210 C 0.55795 0.49584 0.27324 0.0
C1211 C 0.57818 0.49803 0.30726 0.0
C1212 C 0.71148 0.4975 0.21628 0.0
C1213 C 0.63303 0.49764 0.24479 0.0
C1214 C 0.73967 0.5007 0.18692 0.0
C1215 C 0.72014 0.50451 0.1537 0.0
C1216 C 0.6634 0.49809 0.21248 0.0
C1217 C 0.67202 0.50342 0.14996 0.0
C1218 C 0.58522 0.49568 0.24194 0.0
C1219 C 0.62589 0.50045 0.30859 0.0
N1220 N 0.64522 0.50058 0.17918 0.0
N1221 N 0.65157 0.50005 0.27797 0.0
H1222 H 0.92009 0.25956 0.53453 0.0
H1223 H 0.69091 0.29598 0.46607 0.0
H1224 H 0.78187 0.25011 0.56921 0.0
H1225 H 0.81976 0.31768 0.46991 0.0
H1226 H 0.73003 0.2761 0.48939 0.0
H1227 H 0.88911 0.27905 0.50076 0.0
C1228 C 0.88356 0.26168 0.53555 0.0
C1229 C 0.85356 0.25313 0.55457 0.0
C1230 C 0.74989 0.28517 0.48465 0.0
C1231 C 0.81809 0.27487 0.51516 0.0
C1232 C 0.72765 0.2965 0.47091 0.0
C1233 C 0.75178 0.30863 0.46672 0.0
C1234 C 0.79664 0.28593 0.4942 0.0
C1235 C 0.79959 0.30858 0.47322 0.0
C1236 C 0.86591 0.27267 0.51598 0.0
C1237 C 0.80641 0.25628 0.55467 0.0
N1238 N 0.82042 0.29746 0.48723 0.0
N1239 N 0.79024 0.26675 0.53502 0.0
H1240 H 0.56471 0.25297 0.79653 0.0
H1241 H 0.61785 0.21862 0.60586 0.0
H1242 H 0.7012 0.25124 0.75071 0.0
H1243 H 0.48088 0.22881 0.64164 0.0
H1244 H 0.6494 0.2294 0.65966 0.0
H1245 H 0.53445 0.24199 0.74262 0.0
C1246 C 0.5886 0.25004 0.7755 0.0
C1247 C 0.63571 0.25318 0.77822 0.0
C1248 C 0.61247 0.22935 0.6557 0.0
C1249 C 0.6008 0.24065 0.71591 0.0
C1250 C 0.59429 0.22323 0.62484 0.0
C1251 C 0.54634 0.22241 0.6197 0.0
C1252 C 0.58269 0.23485 0.6816 0.0
C1253 C 0.51791 0.2289 0.64492 0.0
C1254 C 0.57108 0.2439 0.74445 0.0
C1255 C 0.66471 0.24906 0.74992 0.0
N1256 N 0.53646 0.23467 0.67504 0.0
N1257 N 0.64675 0.24308 0.71989 0.0
H1258 H 0.48587 0.01491 0.53959 0.0
H1259 H 0.3445 0.96731 0.40505 0.0
H1260 H 0.33776 0.01564 0.53012 0.0
H1261 H 0.48936 0.97589 0.39243 0.0
H1262 H 0.34269 0.98195 0.45787 0.0
H1263 H 0.48847 -0.00317 0.49478 0.0
C1264 C 0.45375 0.01107 0.52884 0.0
C1265 C 0.41149 0.01699 0.53839 0.0
C1266 C 0.37492 0.98059 0.44366 0.0
C1267 C 0.41453 -0.00358 0.4865 0.0
C1268 C 0.37606 0.97223 0.41339 0.0
C1269 C 0.41743 0.97009 0.39449 0.0
C1270 C 0.4153 0.98701 0.45526 0.0
C1271 C 0.45684 0.97705 0.40633 0.0
C1272 C 0.45541 0.00084 0.50289 0.0
C1273 C 0.37115 0.0115 0.52345 0.0
N1274 N 0.45487 0.98512 0.4361 0.0
N1275 N 0.37371 0.00164 0.49798 0.0
H1276 H 0.57542 0.75448 0.29164 0.0
H1277 H 0.39384 0.70212 0.20812 0.0
H1278 H 0.42839 0.76064 0.2889 0.0
H1279 H 0.53638 0.69192 0.22654 0.0
H1280 H 0.40852 0.72452 0.23259 0.0
H1281 H 0.5638 0.73191 0.26588 0.0
C1282 C 0.54071 0.75102 0.28629 0.0
C1283 C 0.50287 0.75952 0.29238 0.0
C1284 C 0.43672 0.71742 0.23107 0.0
C1285 C 0.48947 0.7339 0.26206 0.0
C1286 C 0.42845 0.70465 0.21669 0.0
C1287 C 0.46382 0.69504 0.21539 0.0
C1288 C 0.48073 0.7207 0.24425 0.0
C1289 C 0.50797 0.69896 0.22707 0.0
C1290 C 0.53413 0.7382 0.27124 0.0
C1291 C 0.45869 0.75452 0.28454 0.0
N1292 N 0.51511 0.71145 0.24124 0.0
N1293 N 0.45331 0.74213 0.26957 0.0
H1294 H 0.53757 0.41491 0.07793 0.0
H1295 H 0.53129 0.49421 0.06339 0.0
H1296 H 0.64008 0.43851 0.02198 0.0
H1297 H 0.4031 0.47223 0.06069 0.0
H1298 H 0.57311 0.47304 0.06174 0.0
H1299 H 0.48789 0.43492 0.08082 0.0
C1300 C 0.54927 0.4242 0.06561 0.0
C1301 C 0.59322 0.42504 0.04978 0.0
C1302 C 0.53583 0.47281 0.06178 0.0
C1303 C 0.53731 0.44792 0.05416 0.0
C1304 C 0.51185 0.48489 0.06313 0.0
C1305 C 0.46357 0.485 0.06172 0.0
C1306 C 0.51159 0.46065 0.05934 0.0
C1307 C 0.44031 0.47258 0.06185 0.0
C1308 C 0.52097 0.43559 0.06747 0.0
C1309 C 0.60657 0.43734 0.03437 0.0
N1310 N 0.46463 0.46083 0.06034 0.0
N1311 N 0.5791 0.44833 0.03751 0.0
H1312 H 0.21198 0.3027 0.24749 0.0
H1313 H 0.14269 0.30349 0.04149 0.0
H1314 H 0.0764 0.29125 0.21062 0.0
H1315 H 0.2604 0.32483 0.08429 0.0
H1316 H 0.11411 0.30049 0.10311 0.0
H1317 H 0.22796 0.31212 0.18797 0.0
C1318 C 0.18552 0.30222 0.22686 0.0
C1319 C 0.14309 0.29602 0.23375 0.0
C1320 C 0.14578 0.30603 0.0989 0.0
C1321 C 0.1611 0.30674 0.1656 0.0
C1322 C 0.1621 0.30774 0.06375 0.0
C1323 C 0.20451 0.31414 0.05784 0.0
C1324 C 0.17237 0.31063 0.12815 0.0
C1325 C 0.22799 0.31959 0.08762 0.0
C1326 C 0.1945 0.30768 0.19297 0.0
C1327 C 0.10974 0.29586 0.20628 0.0
N1328 N 0.21198 0.31751 0.12155 0.0
N1329 N 0.1197 0.30097 0.17315 0.0
H1330 H 0.10785 0.94108 0.99268 0.0
H1331 H 0.94691 0.95135 0.15988 0.0
H1332 H 0.96931 0.92523 -0.00574 0.0
H1333 H 0.06462 0.97651 0.13723 0.0
H1334 H 0.948 0.94352 0.0972 0.0
H1335 H 0.08977 0.95478 0.04516 0.0
C1336 C 0.07362 0.94044 0.00414 0.0
C1337 C 0.04022 0.93187 0.98931 0.0
C1338 C 0.97281 0.95102 0.10573 0.0
C1339 C 0.01901 0.94773 0.04921 0.0
C1340 C 0.97192 0.9556 0.14141 0.0
C1341 C 0.00674 0.96422 0.15394 0.0
C1342 C 0.00899 0.95505 0.083 0.0
C1343 C 0.03802 0.96952 0.12884 0.0
C1344 C 0.06315 0.94838 0.03393 0.0
C1345 C 0.99625 0.9316 0.00507 0.0
N1346 N 0.03922 0.96456 0.09476 0.0
N1347 N 0.98698 0.93936 0.03444 0.0
H1348 H 0.98364 0.67403 0.73303 0.0
H1349 H 0.80868 0.67745 0.89856 0.0
H1350 H 0.84034 0.68502 0.72319 0.0
H1351 H 0.95559 0.67331 0.91295 0.0
H1352 H 0.82004 0.67918 0.83377 0.0
H1353 H 0.97439 0.6728 0.79862 0.0
C1354 C 0.95025 0.67619 0.74464 0.0
C1355 C 0.91262 0.67959 0.72262 0.0
C1356 C 0.84987 0.67792 0.85102 0.0
C1357 C 0.90193 0.67817 0.79742 0.0
C1358 C 0.84343 0.67688 0.88809 0.0
C1359 C 0.8813 0.6752 0.91121 0.0
C1360 C 0.89449 0.67721 0.83679 0.0
C1361 C 0.92547 0.67459 0.89605 0.0
C1362 C 0.94508 0.67552 0.78206 0.0
C1363 C 0.87026 0.68235 0.7391 0.0
N1364 N 0.93088 0.67556 0.85964 0.0
N1365 N 0.86605 0.68153 0.77552 0.0
H1366 H 0.85353 0.09252 0.90079 0.0
H1367 H 0.02842 0.04598 0.009 0.0
H1368 H 0.97711 0.07576 0.85413 0.0
H1369 H 0.88357 0.0498 0.03288 0.0
H1370 H 0.02051 0.0634 0.96259 0.0
H1371 H 0.87679 0.08384 0.95966 0.0
C1372 C 0.88608 0.08728 0.90301 0.0
C1373 C 0.91277 0.08448 0.87229 0.0
C1374 C 0.99074 0.06057 0.9785 0.0
C1375 C 0.93931 0.07457 0.9395 0.0
C1376 C 0.99513 0.05065 0.00493 0.0
C1377 C 0.95631 0.04628 0.02424 0.0
C1378 C 0.94741 0.06622 0.97177 0.0
C1379 C 0.91414 0.05271 0.01808 0.0
C1380 C 0.89922 0.08232 0.93663 0.0
C1381 C 0.95503 0.07789 0.87698 0.0
N1382 N 0.91071 0.0623 0.9921 0.0
N1383 N 0.96665 0.07291 0.90995 0.0
H1384 H 0.06686 0.82927 0.71858 0.0
H1385 H 0.18612 0.84812 0.53273 0.0
H1386 H 0.21109 0.82369 0.6948 0.0
H1387 H 0.04253 0.83784 0.54519 0.0
H1388 H 0.19404 0.84877 0.59839 0.0
H1389 H 0.05839 0.8419 0.66235 0.0
C1390 C 0.09708 0.831 0.70208 0.0
C1391 C 0.13951 0.82504 0.71081 0.0
C1392 C 0.16056 0.84673 0.58668 0.0
C1393 C 0.12983 0.83951 0.64667 0.0
C1394 C 0.15588 0.84637 0.54919 0.0
C1395 C 0.11386 0.84249 0.53346 0.0
C1396 C 0.12292 0.84328 0.60846 0.0
C1397 C 0.07582 0.84055 0.55619 0.0
C1398 C 0.09209 0.8382 0.66997 0.0
C1399 C 0.17751 0.82782 0.68866 0.0
N1400 N 0.08146 0.84071 0.59264 0.0
N1401 N 0.17158 0.83465 0.65719 0.0
H1402 H 0.20159 0.4339 0.67045 0.0
H1403 H 0.98004 0.41774 0.55008 0.0
H1404 H 0.0638 0.43083 0.7135 0.0
H1405 H 0.11357 0.42705 0.50522 0.0
H1406 H 0.01154 0.42066 0.61061 0.0
H1407 H 0.1713 0.42926 0.6102 0.0
C1408 C 0.165 0.43215 0.6673 0.0
C1409 C 0.1351 0.43282 0.69704 0.0
C1410 C 0.03396 0.42207 0.58754 0.0
C1411 C 0.10031 0.42758 0.62815 0.0
C1412 C 0.01601 0.42041 0.55294 0.0
C1413 C 0.04423 0.42218 0.52253 0.0
C1414 C 0.08049 0.42548 0.59181 0.0
C1415 C 0.09056 0.42563 0.5279 0.0
C1416 C 0.14774 0.42956 0.63286 0.0
C1417 C 0.08806 0.43046 0.69133 0.0
N1418 N 0.10729 0.42716 0.56195 0.0
N1419 N 0.07208 0.42799 0.65749 0.0
H1420 H 0.89582 0.15252 0.33531 0.0
H1421 H 0.98951 0.18751 0.51168 0.0
H1422 H 0.0221 0.1405 0.38796 0.0
H1423 H 0.84452 0.18732 0.48589 0.0
H1424 H 1.0023 0.17078 0.46438 0.0
H1425 H 0.87465 0.16515 0.38961 0.0
C1426 C 0.91859 0.15227 0.35851 0.0
C1427 C 0.9612 0.14566 0.35685 0.0
C1428 C 0.96763 0.17434 0.46926 0.0
C1429 C 0.93769 0.16027 0.4184 0.0
C1430 C 0.96042 0.18398 0.49596 0.0
C1431 C 0.91597 0.18885 0.5025 0.0
C1432 C 0.93025 0.1697 0.4486 0.0
C1433 C 0.87938 0.18383 0.48162 0.0
C1434 C 0.90657 0.15953 0.38941 0.0
C1435 C 0.98925 0.14563 0.38778 0.0
N1436 N 0.88739 0.1746 0.45529 0.0
N1437 N 0.9774 0.15306 0.41705 0.0
H1438 H 0.82424 0.58179 0.37919 0.0
H1439 H 0.70815 0.55809 0.19574 0.0
H1440 H 0.69494 0.56039 0.37317 0.0
H1441 H 0.85446 0.56125 0.2145 0.0
H1442 H 0.69421 0.56816 0.25508 0.0
H1443 H 0.82382 0.58405 0.31355 0.0
C1444 C 0.79501 0.57792 0.36423 0.0
C1445 C 0.76041 0.57041 0.38152 0.0
C1446 C 0.72928 0.56694 0.24573 0.0
C1447 C 0.75993 0.57303 0.30666 0.0
C1448 C 0.73736 0.56119 0.21196 0.0
C1449 C 0.7826 0.55857 0.20063 0.0
C1450 C 0.7667 0.57023 0.26795 0.0
C1451 C 0.81908 0.56285 0.22259 0.0
C1452 C 0.79494 0.5792 0.32677 0.0
C1453 C 0.72291 0.56594 0.36083 0.0
N1454 N 0.81032 0.56836 0.25546 0.0
N1455 N 0.72417 0.56704 0.32423 0.0
H1456 H 0.583 0.33253 0.59052 0.0
H1457 H 0.74143 0.31976 0.75669 0.0
H1458 H 0.71537 0.35193 0.6021 0.0
H1459 H 0.59393 0.31508 0.76343 0.0
H1460 H 0.73138 0.33319 0.70192 0.0
H1461 H 0.5835 0.32766 0.65534 0.0
C1462 C 0.61172 0.33599 0.60676 0.0
C1463 C 0.64965 0.34237 0.59073 0.0
C1464 C 0.70114 0.32946 0.71581 0.0
C1465 C 0.65071 0.3367 0.66457 0.0
C1466 C 0.70691 0.32176 0.74699 0.0
C1467 C 0.66854 0.31613 0.76424 0.0
C1468 C 0.65679 0.33125 0.70141 0.0
C1469 C 0.62452 0.31914 0.75076 0.0
C1470 C 0.61196 0.33324 0.64376 0.0
C1471 C 0.68574 0.34676 0.61316 0.0
N1472 N 0.61987 0.32626 0.71964 0.0
N1473 N 0.68583 0.34359 0.64881 0.0
H1474 H 0.52766 0.96785 0.48202 0.0
H1475 H 0.5133 0.94668 0.68971 0.0
H1476 H 0.41559 0.94418 0.52485 0.0
H1477 H 0.63751 0.95767 0.6328 0.0
H1478 H 0.46901 0.95095 0.63424 0.0
H1479 H 0.55819 0.97044 0.54299 0.0
C1480 C 0.50909 0.96338 0.50441 0.0
C1481 C 0.46988 0.95546 0.49845 0.0
C1482 C 0.50591 0.9525 0.63417 0.0
C1483 C 0.50493 0.9582 0.56798 0.0
C1484 C 0.53117 0.95002 0.66562 0.0
C1485 C 0.5792 0.95161 0.66556 0.0
C1486 C 0.52892 0.95681 0.60289 0.0
C1487 C 0.60067 0.95608 0.63386 0.0
C1488 C 0.52657 0.96483 0.53914 0.0
C1489 C 0.44638 0.95019 0.52839 0.0
N1490 N 0.57537 0.95851 0.60381 0.0
N1491 N 0.46487 0.95141 0.56201 0.0
H1492 H 0.2573 0.66618 0.47327 0.0
H1493 H 0.45105 0.64338 0.33412 0.0
H1494 H 0.40326 0.67179 0.48974 0.0
H1495 H 0.30894 0.65008 0.30486 0.0
H1496 H 0.43087 0.64662 0.39752 0.0
H1497 H 0.27384 0.65364 0.41793 0.0
C1498 C 0.29284 0.66463 0.46552 0.0
C1499 C 0.32898 0.67027 0.48574 0.0
C1500 C 0.404 0.64712 0.37724 0.0
C1501 C 0.34794 0.65585 0.42278 0.0
C1502 C 0.41539 0.64521 0.34103 0.0
C1503 C 0.3818 0.64682 0.31405 0.0
C1504 C 0.35875 0.6506 0.38645 0.0
C1505 C 0.3361 0.64903 0.32472 0.0
C1506 C 0.30219 0.65746 0.43398 0.0
C1507 C 0.37434 0.66783 0.47461 0.0
N1508 N 0.32601 0.65108 0.36012 0.0
N1509 N 0.38253 0.6609 0.44366 0.0
H1510 H 0.33354 0.07773 0.45581 0.0
H1511 H 0.4789 0.06503 0.28202 0.0
H1512 H 0.4803 0.071 0.46011 0.0
H1513 H 0.35117 0.08722 0.27914 0.0
H1514 H 0.48286 0.06873 0.34726 0.0
H1515 H 0.34044 0.08281 0.39132 0.0
C1516 C 0.36726 0.07752 0.44336 0.0
C1517 C 0.40622 0.07369 0.46322 0.0
C1518 C 0.45446 0.07303 0.3322 0.0
C1519 C 0.4143 0.07934 0.38959 0.0
C1520 C 0.4522 0.07091 0.29496 0.0
C1521 C 0.41421 0.07558 0.27524 0.0
C1522 C 0.41805 0.07963 0.34978 0.0
C1523 C 0.3808 0.08326 0.29335 0.0
C1524 C 0.37123 0.08047 0.40659 0.0
C1525 C 0.44918 0.07372 0.44577 0.0
N1526 N 0.38295 0.08479 0.32976 0.0
N1527 N 0.45194 0.07623 0.4098 0.0
H1528 H 0.71829 0.82879 0.0543 0.0
H1529 H 0.50157 0.81688 0.18245 0.0
H1530 H 0.58276 0.81817 0.0154 0.0
H1531 H 0.64276 0.816 0.21912 0.0
H1532 H 0.52823 0.82318 0.12221 0.0
H1533 H 0.68765 0.83017 0.11558 0.0
C1534 C 0.68192 0.82697 0.05851 0.0
C1535 C 0.65318 0.82309 0.02979 0.0
C1536 C 0.55328 0.82174 0.14357 0.0
C1537 C 0.61813 0.82463 0.09979 0.0
C1538 C 0.53815 0.81815 0.17797 0.0
C1539 C 0.57009 0.81569 0.20569 0.0
C1540 C 0.60061 0.82293 0.13693 0.0
C1541 C 0.617 0.81761 0.19839 0.0
C1542 C 0.66455 0.82772 0.09353 0.0
C1543 C 0.6063 0.82098 0.03684 0.0
N1544 N 0.6309 0.82101 0.16458 0.0
N1545 N 0.59031 0.82162 0.07126 0.0
H1546 H 0.75796 0.43678 0.11599 0.0
H1547 H 0.69248 0.4548 0.31858 0.0
H1548 H 0.75652 0.40701 0.20099 0.0
H1549 H 0.61335 0.46682 0.22518 0.0
H1550 H 0.74749 0.44351 0.27849 0.0
H1551 H 0.74022 0.45417 0.16059 0.0
C1552 C 0.75646 0.43398 0.14428 0.0
C1553 C 0.75753 0.42038 0.15479 0.0
C1554 C 0.71869 0.44894 0.26692 0.0
C1555 C 0.73754 0.44019 0.2055 0.0
C1556 C 0.68725 0.45533 0.2896 0.0
C1557 C 0.64796 0.46154 0.27507 0.0
C1558 C 0.71136 0.44913 0.22952 0.0
C1559 C 0.64282 0.46195 0.23743 0.0
C1560 C 0.7458 0.4439 0.16957 0.0
C1561 C 0.75516 0.41736 0.19179 0.0
N1562 N 0.67414 0.45575 0.21587 0.0
N1563 N 0.74425 0.42717 0.21587 0.0
H1564 H 0.51997 0.21522 0.74505 0.0
H1565 H 0.64247 0.17093 0.87412 0.0
H1566 H 0.63069 0.19036 0.70519 0.0
H1567 H 0.60182 0.21063 0.90814 0.0
H1568 H 0.65157 0.17928 0.81246 0.0
H1569 H 0.55698 0.2156 0.80437 0.0
C1570 C 0.5523 0.20997 0.74868 0.0
C1571 C 0.57163 0.20247 0.72045 0.0
C1572 C 0.64275 0.18635 0.83364 0.0
C1573 C 0.61388 0.20273 0.78819 0.0
C1574 C 0.63809 0.1816 0.8689 0.0
C1575 C 0.62116 0.19012 0.89588 0.0
C1576 C 0.62836 0.19951 0.82545 0.0
C1577 C 0.61498 0.20379 0.88782 0.0
C1578 C 0.57374 0.21032 0.7824 0.0
C1579 C 0.6141 0.19607 0.72642 0.0
N1580 N 0.61672 0.20799 0.8529 0.0
N1581 N 0.63319 0.19604 0.75993 0.0
H1582 H 0.26616 0.52052 0.94961 0.0
H1583 H 0.3193 0.53578 0.74314 0.0
H1584 H 0.39644 0.5131 0.89727 0.0
H1585 H 0.19069 0.54553 0.79537 0.0
H1586 H 0.34132 0.5226 0.7959 0.0
H1587 H 0.23145 0.52464 0.89027 0.0
C1588 C 0.28721 0.51949 0.92561 0.0
C1589 C 0.33448 0.51683 0.92834 0.0
C1590 C 0.3081 0.52753 0.79574 0.0
C1591 C 0.29528 0.5216 0.86073 0.0
C1592 C 0.2956 0.53512 0.76566 0.0
C1593 C 0.25372 0.54212 0.76534 0.0
C1594 C 0.27875 0.52705 0.82587 0.0
C1595 C 0.22384 0.54057 0.79486 0.0
C1596 C 0.26744 0.52188 0.89178 0.0
C1597 C 0.36009 0.51547 0.89643 0.0
N1598 N 0.23726 0.53337 0.82423 0.0
N1599 N 0.34032 0.51807 0.86399 0.0
loop_
_geom_bond_atom_site_label_1
_geom_bond_atom_site_label_2
_geom_bond_distance
_geom_bond_site_symmetry_2
_ccdc_geom_bond_type
Zn0 O3 2.031 . S
Zn0 O5 2.049 . S
Zn0 O10 2.067 . S
Zn1 O2 1.962 . S
Zn1 O4 1.986 . S
Zn1 O6 1.996 . S
Zn1 O9 1.943 . S
O2 Zn1 1.962 . S
O2 C7 1.254 . S
O3 Zn0 2.031 . S
O3 C7 1.269 . S
O4 Zn1 1.986 . S
O4 C11 1.262 . S
O5 Zn0 2.049 . S
O5 C13 1.260 . S
O6 Zn1 1.996 . S
O6 C13 1.257 . S
C7 O2 1.254 . S
C7 O3 1.269 . S
C8 O9 1.249 . S
C8 O10 1.270 . S
O9 Zn1 1.943 . S
O9 C8 1.249 . S
O10 Zn0 2.067 . S
O10 C8 1.270 . S
C11 O4 1.262 . S
C11 O12 1.232 . S
O12 C11 1.232 . S
C13 O5 1.260 . S
C13 O6 1.257 . S
Zn14 O17 2.031 . S
Zn14 O19 2.049 . S
Zn14 O24 2.067 . S
Zn15 O16 1.962 . S
Zn15 O18 1.986 . S
Zn15 O20 1.996 . S
Zn15 O23 1.943 . S
O16 Zn15 1.962 . S
O16 C21 1.254 . S
O17 Zn14 2.031 . S
O17 C21 1.269 . S
O18 Zn15 1.986 . S
O18 C25 1.262 . S
O19 Zn14 2.049 . S
O19 C27 1.260 . S
O20 Zn15 1.996 . S
O20 C27 1.257 . S
C21 O16 1.254 . S
C21 O17 1.269 . S
C22 O23 1.249 . S
C22 O24 1.270 . S
O23 Zn15 1.943 . S
O23 C22 1.249 . S
O24 Zn14 2.067 . S
O24 C22 1.270 . S
C25 O18 1.262 . S
C25 O26 1.232 . S
O26 C25 1.232 . S
C27 O19 1.260 . S
C27 O20 1.257 . S
Zn28 O31 2.031 . S
Zn28 O33 2.049 . S
Zn28 O38 2.067 1_556 S
Zn29 O30 1.962 . S
Zn29 O32 1.986 . S
Zn29 O34 1.996 . S
Zn29 O37 1.943 . S
O30 Zn29 1.962 . S
O30 C35 1.254 . S
O31 Zn28 2.031 . S
O31 C35 1.269 . S
O32 Zn29 1.986 . S
O32 C39 1.262 . S
O33 Zn28 2.049 . S
O33 C41 1.260 . S
O34 Zn29 1.996 . S
O34 C41 1.257 . S
C35 O30 1.254 . S
C35 O31 1.269 . S
C36 O37 1.249 1_554 S
C36 O38 1.270 . S
O37 Zn29 1.943 . S
O37 C36 1.249 1_556 S
O38 Zn28 2.067 1_554 S
O38 C36 1.270 . S
C39 O32 1.262 . S
C39 O40 1.232 . S
O40 C39 1.232 . S
C41 O33 1.260 . S
C41 O34 1.257 . S
Zn42 O45 2.031 . S
Zn42 O47 2.049 . S
Zn42 O52 2.067 1_556 S
Zn43 O44 1.962 . S
Zn43 O46 1.986 . S
Zn43 O48 1.996 . S
Zn43 O51 1.943 . S
O44 Zn43 1.962 . S
O44 C49 1.254 . S
O45 Zn42 2.031 . S
O45 C49 1.269 . S
O46 Zn43 1.986 . S
O46 C53 1.262 . S
O47 Zn42 2.049 . S
O47 C55 1.260 . S
O48 Zn43 1.996 . S
O48 C55 1.257 . S
C49 O44 1.254 . S
C49 O45 1.269 . S
C50 O51 1.249 1_554 S
C50 O52 1.270 . S
O51 Zn43 1.943 . S
O51 C50 1.249 1_556 S
O52 Zn42 2.067 1_554 S
O52 C50 1.270 . S
C53 O46 1.262 . S
C53 O54 1.232 . S
O54 C53 1.232 . S
C55 O47 1.260 . S
C55 O48 1.257 . S
Zn56 O59 2.031 . S
Zn56 O61 2.049 . S
Zn56 O66 2.067 . S
Zn57 O58 1.962 . S
Zn57 O60 1.986 . S
Zn57 O62 1.996 . S
Zn57 O65 1.943 . S
O58 Zn57 1.962 . S
O58 C63 1.254 . S
O59 Zn56 2.031 . S
O59 C63 1.269 . S
O60 Zn57 1.986 . S
O60 C67 1.262 . S
O61 Zn56 2.049 . S
O61 C69 1.260 . S
O62 Zn57 1.996 . S
O62 C69 1.257 . S
C63 O58 1.254 . S
C63 O59 1.269 . S
C64 O65 1.249 . S
C64 O66 1.270 . S
O65 Zn57 1.943 . S
O65 C64 1.249 . S
O66 Zn56 2.067 . S
O66 C64 1.270 . S
C67 O60 1.262 . S
C67 O68 1.232 . S
O68 C67 1.232 . S
C69 O61 1.260 . S
C69 O62 1.257 . S
Zn70 O73 2.031 . S
Zn70 O75 2.049 . S
Zn70 O80 2.067 . S
Zn71 O72 1.962 . S
Zn71 O74 1.986 . S
Zn71 O76 1.996 . S
Zn71 O79 1.943 . S
O72 Zn71 1.962 . S
O72 C77 1.254 . S
O73 Zn70 2.031 . S
O73 C77 1.269 . S
O74 Zn71 1.986 . S
O74 C81 1.262 . S
O75 Zn70 2.049 . S
O75 C83 1.260 . S
O76 Zn71 1.996 . S
O76 C83 1.257 . S
C77 O72 1.254 . S
C77 O73 1.269 . S
C78 O79 1.249 . S
C78 O80 1.270 . S
O79 Zn71 1.943 . S
O79 C78 1.249 . S
O80 Zn70 2.067 . S
O80 C78 1.270 . S
C81 O74 1.262 . S
C81 O82 1.232 . S
O82 C81 1.232 . S
C83 O75 1.260 . S
C83 O76 1.257 . S
Zn84 O87 2.031 . S
Zn84 O89 2.049 . S
Zn84 O94 2.067 1_554 S
Zn85 O86 1.962 . S
Zn85 O88 1.986 . S
Zn85 O90 1.996 . S
Zn85 O93 1.943 . S
O86 Zn85 1.962 . S
O86 C91 1.254 . S
O87 Zn84 2.031 . S
O87 C91 1.269 . S
O88 Zn85 1.986 . S
O88 C95 1.262 . S
O89 Zn84 2.049 . S
O89 C97 1.260 . S
O90 Zn85 1.996 . S
O90 C97 1.257 . S
C91 O86 1.254 . S
C91 O87 1.269 . S
C92 O93 1.249 1_556 S
C92 O94 1.270 . S
O93 Zn85 1.943 . S
O93 C92 1.249 1_554 S
O94 Zn84 2.067 1_556 S
O94 C92 1.270 . S
C95 O88 1.262 . S
C95 O96 1.232 . S
O96 C95 1.232 . S
C97 O89 1.260 . S
C97 O90 1.257 . S
Zn98 O101 2.031 . S
Zn98 O103 2.049 . S
Zn98 O108 2.067 1_554 S
Zn99 O100 1.962 . S
Zn99 O102 1.986 . S
Zn99 O104 1.996 . S
Zn99 O107 1.943 . S
O100 Zn99 1.962 . S
O100 C105 1.254 . S
O101 Zn98 2.031 . S
O101 C105 1.269 . S
O102 Zn99 1.986 . S
O102 C109 1.262 . S
O103 Zn98 2.049 . S
O103 C111 1.260 . S
O104 Zn99 1.996 . S
O104 C111 1.257 . S
C105 O100 1.254 . S
C105 O101 1.269 . S
C106 O107 1.249 1_556 S
C106 O108 1.270 . S
O107 Zn99 1.943 . S
O107 C106 1.249 1_554 S
O108 Zn98 2.067 1_556 S
O108 C106 1.270 . S
C109 O102 1.262 . S
C109 O110 1.232 . S
O110 C109 1.232 . S
C111 O103 1.260 . S
C111 O104 1.257 . S
Zn112 O115 2.031 . S
Zn112 O117 2.049 . S
Zn112 O122 2.067 . S
Zn113 O114 1.962 . S
Zn113 O116 1.986 . S
Zn113 O118 1.996 . S
Zn113 O121 1.943 . S
O114 Zn113 1.962 . S
O114 C119 1.254 . S
O115 Zn112 2.031 . S
O115 C119 1.269 . S
O116 Zn113 1.986 . S
O116 C123 1.262 . S
O117 Zn112 2.049 . S
O117 C125 1.260 . S
O118 Zn113 1.996 . S
O118 C125 1.257 . S
C119 O114 1.254 . S
C119 O115 1.269 . S
C120 O121 1.249 . S
C120 O122 1.270 . S
O121 Zn113 1.943 . S
O121 C120 1.249 . S
O122 Zn112 2.067 . S
O122 C120 1.270 . S
C123 O116 1.262 . S
C123 O124 1.232 . S
O124 C123 1.232 . S
C125 O117 1.260 . S
C125 O118 1.257 . S
Zn126 O129 2.031 . S
Zn126 O131 2.049 . S
Zn126 O136 2.067 . S
Zn127 O128 1.962 . S
Zn127 O130 1.986 . S
Zn127 O132 1.996 . S
Zn127 O135 1.943 . S
O128 Zn127 1.962 . S
O128 C133 1.254 . S
O129 Zn126 2.031 . S
O129 C133 1.269 . S
O130 Zn127 1.986 . S
O130 C137 1.262 . S
O131 Zn126 2.049 . S
O131 C139 1.260 . S
O132 Zn127 1.996 . S
O132 C139 1.257 . S
C133 O128 1.254 . S
C133 O129 1.269 . S
C134 O135 1.249 . S
C134 O136 1.270 . S
O135 Zn127 1.943 . S
O135 C134 1.249 . S
O136 Zn126 2.067 . S
O136 C134 1.270 . S
C137 O130 1.262 . S
C137 O138 1.232 . S
O138 C137 1.232 . S
C139 O131 1.260 . S
C139 O132 1.257 . S
Zn140 O143 2.031 . S
Zn140 O145 2.049 . S
Zn140 O150 2.067 . S
Zn141 O142 1.962 . S
Zn141 O144 1.986 . S
Zn141 O146 1.996 . S
Zn141 O149 1.943 . S
O142 Zn141 1.962 . S
O142 C147 1.254 . S
O143 Zn140 2.031 . S
O143 C147 1.269 . S
O144 Zn141 1.986 . S
O144 C151 1.262 . S
O145 Zn140 2.049 . S
O145 C153 1.260 . S
O146 Zn141 1.996 . S
O146 C153 1.257 . S
C147 O142 1.254 . S
C147 O143 1.269 . S
C148 O149 1.249 . S
C148 O150 1.270 . S
O149 Zn141 1.943 . S
O149 C148 1.249 . S
O150 Zn140 2.067 . S
O150 C148 1.270 . S
C151 O144 1.262 . S
C151 O152 1.232 . S
O152 C151 1.232 . S
C153 O145 1.260 . S
C153 O146 1.257 . S
Zn154 O157 2.031 . S
Zn154 O159 2.049 . S
Zn154 O164 2.067 . S
Zn155 O156 1.962 . S
Zn155 O158 1.986 . S
Zn155 O160 1.996 . S
Zn155 O163 1.943 . S
O156 Zn155 1.962 . S
O156 C161 1.254 . S
O157 Zn154 2.031 . S
O157 C161 1.269 . S
O158 Zn155 1.986 . S
O158 C165 1.262 . S
O159 Zn154 2.049 . S
O159 C167 1.260 . S
O160 Zn155 1.996 . S
O160 C167 1.257 . S
C161 O156 1.254 . S
C161 O157 1.269 . S
C162 O163 1.249 . S
C162 O164 1.270 . S
O163 Zn155 1.943 . S
O163 C162 1.249 . S
O164 Zn154 2.067 . S
O164 C162 1.270 . S
C165 O158 1.262 . S
C165 O166 1.232 . S
O166 C165 1.232 . S
C167 O159 1.260 . S
C167 O160 1.257 . S
Zn168 O171 2.031 . S
Zn168 O173 2.049 . S
Zn168 O178 2.067 . S
Zn169 O170 1.962 . S
Zn169 O172 1.986 . S
Zn169 O174 1.996 . S
Zn169 O177 1.943 . S
O170 Zn169 1.962 . S
O170 C175 1.254 . S
O171 Zn168 2.031 . S
O171 C175 1.269 . S
O172 Zn169 1.986 . S
O172 C179 1.262 . S
O173 Zn168 2.049 . S
O173 C181 1.260 . S
O174 Zn169 1.996 . S
O174 C181 1.257 . S
C175 O170 1.254 . S
C175 O171 1.269 . S
C176 O177 1.249 . S
C176 O178 1.270 . S
O177 Zn169 1.943 . S
O177 C176 1.249 . S
O178 Zn168 2.067 . S
O178 C176 1.270 . S
C179 O172 1.262 . S
C179 O180 1.232 . S
O180 C179 1.232 . S
C181 O173 1.260 . S
C181 O174 1.257 . S
Zn182 O185 2.031 . S
Zn182 O187 2.049 . S
Zn182 O192 2.067 . S
Zn183 O184 1.962 . S
Zn183 O186 1.986 . S
Zn183 O188 1.996 . S
Zn183 O191 1.943 . S
O184 Zn183 1.962 . S
O184 C189 1.254 . S
O185 Zn182 2.031 . S
O185 C189 1.269 . S
O186 Zn183 1.986 . S
O186 C193 1.262 . S
O187 Zn182 2.049 . S
O187 C195 1.260 . S
O188 Zn183 1.996 . S
O188 C195 1.257 . S
C189 O184 1.254 . S
C189 O185 1.269 . S
C190 O191 1.249 . S
C190 O192 1.270 . S
O191 Zn183 1.943 . S
O191 C190 1.249 . S
O192 Zn182 2.067 . S
O192 C190 1.270 . S
C193 O186 1.262 . S
C193 O194 1.232 . S
O194 C193 1.232 . S
C195 O187 1.260 . S
C195 O188 1.257 . S
Zn196 O199 2.031 . S
Zn196 O201 2.049 . S
Zn196 O206 2.067 . S
Zn197 O198 1.962 . S
Zn197 O200 1.986 . S
Zn197 O202 1.996 . S
Zn197 O205 1.943 . S
O198 Zn197 1.962 . S
O198 C203 1.254 . S
O199 Zn196 2.031 . S
O199 C203 1.269 . S
O200 Zn197 1.986 . S
O200 C207 1.262 . S
O201 Zn196 2.049 . S
O201 C209 1.260 . S
O202 Zn197 1.996 . S
O202 C209 1.257 . S
C203 O198 1.254 . S
C203 O199 1.269 . S
C204 O205 1.249 . S
C204 O206 1.270 . S
O205 Zn197 1.943 . S
O205 C204 1.249 . S
O206 Zn196 2.067 . S
O206 C204 1.270 . S
C207 O200 1.262 . S
C207 O208 1.232 . S
O208 C207 1.232 . S
C209 O201 1.260 . S
C209 O202 1.257 . S
Zn210 O213 2.031 . S
Zn210 O215 2.049 . S
Zn210 O220 2.067 . S
Zn211 O212 1.962 . S
Zn211 O214 1.986 . S
Zn211 O216 1.996 . S
Zn211 O219 1.943 . S
O212 Zn211 1.962 . S
O212 C217 1.254 . S
O213 Zn210 2.031 . S
O213 C217 1.269 . S
O214 Zn211 1.986 . S
O214 C221 1.262 . S
O215 Zn210 2.049 . S
O215 C223 1.260 . S
O216 Zn211 1.996 . S
O216 C223 1.257 . S
C217 O212 1.254 . S
C217 O213 1.269 . S
C218 O219 1.249 . S
C218 O220 1.270 . S
O219 Zn211 1.943 . S
O219 C218 1.249 . S
O220 Zn210 2.067 . S
O220 C218 1.270 . S
C221 O214 1.262 . S
C221 O222 1.232 . S
O222 C221 1.232 . S
C223 O215 1.260 . S
C223 O216 1.257 . S
Zn224 O227 2.031 . S
Zn224 O229 2.049 . S
Zn224 O234 2.067 . S
Zn225 O226 1.962 . S
Zn225 O228 1.986 . S
Zn225 O230 1.996 . S
Zn225 O233 1.943 . S
O226 Zn225 1.962 . S
O226 C231 1.254 . S
O227 Zn224 2.031 . S
O227 C231 1.269 . S
O228 Zn225 1.986 . S
O228 C235 1.262 . S
O229 Zn224 2.049 . S
O229 C237 1.260 . S
O230 Zn225 1.996 . S
O230 C237 1.257 . S
C231 O226 1.254 . S
C231 O227 1.269 . S
C232 O233 1.249 . S
C232 O234 1.270 . S
O233 Zn225 1.943 . S
O233 C232 1.249 . S
O234 Zn224 2.067 . S
O234 C232 1.270 . S
C235 O228 1.262 . S
C235 O236 1.232 . S
O236 C235 1.232 . S
C237 O229 1.260 . S
C237 O230 1.257 . S
Zn238 O241 2.031 . S
Zn238 O243 2.049 . S
Zn238 O248 2.067 . S
Zn239 O240 1.962 . S
Zn239 O242 1.986 . S
Zn239 O244 1.996 . S
Zn239 O247 1.943 . S
O240 Zn239 1.962 . S
O240 C245 1.254 . S
O241 Zn238 2.031 . S
O241 C245 1.269 . S
O242 Zn239 1.986 . S
O242 C249 1.262 . S
O243 Zn238 2.049 . S
O243 C251 1.260 . S
O244 Zn239 1.996 . S
O244 C251 1.257 . S
C245 O240 1.254 . S
C245 O241 1.269 . S
C246 O247 1.249 . S
C246 O248 1.270 . S
O247 Zn239 1.943 . S
O247 C246 1.249 . S
O248 Zn238 2.067 . S
O248 C246 1.270 . S
C249 O242 1.262 . S
C249 O250 1.232 . S
O250 C249 1.232 . S
C251 O243 1.260 . S
C251 O244 1.257 . S
Zn252 O255 2.031 . S
Zn252 O257 2.049 . S
Zn252 O262 2.067 . S
Zn253 O254 1.962 . S
Zn253 O256 1.986 . S
Zn253 O258 1.996 . S
Zn253 O261 1.943 . S
O254 Zn253 1.962 . S
O254 C259 1.254 . S
O255 Zn252 2.031 . S
O255 C259 1.269 . S
O256 Zn253 1.986 . S
O256 C263 1.262 . S
O257 Zn252 2.049 . S
O257 C265 1.260 . S
O258 Zn253 1.996 . S
O258 C265 1.257 . S
C259 O254 1.254 . S
C259 O255 1.269 . S
C260 O261 1.249 . S
C260 O262 1.270 . S
O261 Zn253 1.943 . S
O261 C260 1.249 . S
O262 Zn252 2.067 . S
O262 C260 1.270 . S
C263 O256 1.262 . S
C263 O264 1.232 . S
O264 C263 1.232 . S
C265 O257 1.260 . S
C265 O258 1.257 . S
Zn266 O269 2.031 . S
Zn266 O271 2.049 . S
Zn266 O276 2.067 . S
Zn267 O268 1.962 . S
Zn267 O270 1.986 . S
Zn267 O272 1.996 . S
Zn267 O275 1.943 . S
O268 Zn267 1.962 . S
O268 C273 1.254 . S
O269 Zn266 2.031 . S
O269 C273 1.269 . S
O270 Zn267 1.986 . S
O270 C277 1.262 . S
O271 Zn266 2.049 . S
O271 C279 1.260 . S
O272 Zn267 1.996 . S
O272 C279 1.257 . S
C273 O268 1.254 . S
C273 O269 1.269 . S
C274 O275 1.249 . S
C274 O276 1.270 . S
O275 Zn267 1.943 . S
O275 C274 1.249 . S
O276 Zn266 2.067 . S
O276 C274 1.270 . S
C277 O270 1.262 . S
C277 O278 1.232 . S
O278 C277 1.232 . S
C279 O271 1.260 . S
C279 O272 1.257 . S
Zn280 O283 2.031 . S
Zn280 O285 2.049 . S
Zn280 O290 2.067 . S
Zn281 O282 1.962 . S
Zn281 O284 1.986 . S
Zn281 O286 1.996 . S
Zn281 O289 1.943 . S
O282 Zn281 1.962 . S
O282 C287 1.254 . S
O283 Zn280 2.031 . S
O283 C287 1.269 . S
O284 Zn281 1.986 . S
O284 C291 1.262 . S
O285 Zn280 2.049 . S
O285 C293 1.260 . S
O286 Zn281 1.996 . S
O286 C293 1.257 . S
C287 O282 1.254 . S
C287 O283 1.269 . S
C288 O289 1.249 . S
C288 O290 1.270 . S
O289 Zn281 1.943 . S
O289 C288 1.249 . S
O290 Zn280 2.067 . S
O290 C288 1.270 . S
C291 O284 1.262 . S
C291 O292 1.232 . S
O292 C291 1.232 . S
C293 O285 1.260 . S
C293 O286 1.257 . S
Zn294 O297 2.031 . S
Zn294 O299 2.049 . S
Zn294 O304 2.067 . S
Zn295 O296 1.962 . S
Zn295 O298 1.986 . S
Zn295 O300 1.996 . S
Zn295 O303 1.943 . S
O296 Zn295 1.962 . S
O296 C301 1.254 . S
O297 Zn294 2.031 . S
O297 C301 1.269 . S
O298 Zn295 1.986 . S
O298 C305 1.262 . S
O299 Zn294 2.049 . S
O299 C307 1.260 . S
O300 Zn295 1.996 . S
O300 C307 1.257 . S
C301 O296 1.254 . S
C301 O297 1.269 . S
C302 O303 1.249 . S
C302 O304 1.270 . S
O303 Zn295 1.943 . S
O303 C302 1.249 . S
O304 Zn294 2.067 . S
O304 C302 1.270 . S
C305 O298 1.262 . S
C305 O306 1.232 . S
O306 C305 1.232 . S
C307 O299 1.260 . S
C307 O300 1.257 . S
Zn308 O311 2.031 . S
Zn308 O313 2.049 . S
Zn308 O318 2.067 . S
Zn309 O310 1.962 . S
Zn309 O312 1.986 . S
Zn309 O314 1.996 . S
Zn309 O317 1.943 . S
O310 Zn309 1.962 . S
O310 C315 1.254 . S
O311 Zn308 2.031 . S
O311 C315 1.269 . S
O312 Zn309 1.986 . S
O312 C319 1.262 . S
O313 Zn308 2.049 . S
O313 C321 1.260 . S
O314 Zn309 1.996 . S
O314 C321 1.257 . S
C315 O310 1.254 . S
C315 O311 1.269 . S
C316 O317 1.249 . S
C316 O318 1.270 . S
O317 Zn309 1.943 . S
O317 C316 1.249 . S
O318 Zn308 2.067 . S
O318 C316 1.270 . S
C319 O312 1.262 . S
C319 O320 1.232 . S
O320 C319 1.232 . S
C321 O313 1.260 . S
C321 O314 1.257 . S
Zn322 O325 2.031 . S
Zn322 O327 2.049 . S
Zn322 O332 2.067 . S
Zn323 O324 1.962 . S
Zn323 O326 1.986 . S
Zn323 O328 1.996 . S
Zn323 O331 1.943 . S
O324 Zn323 1.962 . S
O324 C329 1.254 . S
O325 Zn322 2.031 . S
O325 C329 1.269 . S
O326 Zn323 1.986 . S
O326 C333 1.262 . S
O327 Zn322 2.049 . S
O327 C335 1.260 . S
O328 Zn323 1.996 . S
O328 C335 1.257 . S
C329 O324 1.254 . S
C329 O325 1.269 . S
C330 O331 1.249 . S
C330 O332 1.270 . S
O331 Zn323 1.943 . S
O331 C330 1.249 . S
O332 Zn322 2.067 . S
O332 C330 1.270 . S
C333 O326 1.262 . S
C333 O334 1.232 . S
O334 C333 1.232 . S
C335 O327 1.260 . S
C335 O328 1.257 . S
Zn336 O339 2.031 . S
Zn336 O341 2.049 . S
Zn336 O346 2.067 . S
Zn337 O338 1.962 . S
Zn337 O340 1.986 . S
Zn337 O342 1.996 . S
Zn337 O345 1.943 . S
O338 Zn337 1.962 . S
O338 C343 1.254 . S
O339 Zn336 2.031 . S
O339 C343 1.269 . S
O340 Zn337 1.986 . S
O340 C347 1.262 . S
O341 Zn336 2.049 . S
O341 C349 1.260 . S
O342 Zn337 1.996 . S
O342 C349 1.257 . S
C343 O338 1.254 . S
C343 O339 1.269 . S
C344 O345 1.249 . S
C344 O346 1.270 . S
O345 Zn337 1.943 . S
O345 C344 1.249 . S
O346 Zn336 2.067 . S
O346 C344 1.270 . S
C347 O340 1.262 . S
C347 O348 1.232 . S
O348 C347 1.232 . S
C349 O341 1.260 . S
C349 O342 1.257 . S
Zn350 O353 2.031 . S
Zn350 O355 2.049 . S
Zn350 O360 2.067 . S
Zn351 O352 1.962 . S
Zn351 O354 1.986 . S
Zn351 O356 1.996 . S
Zn351 O359 1.943 . S
O352 Zn351 1.962 . S
O352 C357 1.254 . S
O353 Zn350 2.031 . S
O353 C357 1.269 . S
O354 Zn351 1.986 . S
O354 C361 1.262 . S
O355 Zn350 2.049 . S
O355 C363 1.260 . S
O356 Zn351 1.996 . S
O356 C363 1.257 . S
C357 O352 1.254 . S
C357 O353 1.269 . S
C358 O359 1.249 . S
C358 O360 1.270 . S
O359 Zn351 1.943 . S
O359 C358 1.249 . S
O360 Zn350 2.067 . S
O360 C358 1.270 . S
C361 O354 1.262 . S
C361 O362 1.232 . S
O362 C361 1.232 . S
C363 O355 1.260 . S
C363 O356 1.257 . S
Zn364 O367 2.031 . S
Zn364 O369 2.049 . S
Zn364 O374 2.067 1_556 S
Zn365 O366 1.962 . S
Zn365 O368 1.986 . S
Zn365 O370 1.996 . S
Zn365 O373 1.943 . S
O366 Zn365 1.962 . S
O366 C371 1.254 . S
O367 Zn364 2.031 . S
O367 C371 1.269 . S
O368 Zn365 1.986 . S
O368 C375 1.262 . S
O369 Zn364 2.049 . S
O369 C377 1.260 . S
O370 Zn365 1.996 . S
O370 C377 1.257 . S
C371 O366 1.254 . S
C371 O367 1.269 . S
C372 O373 1.249 1_554 S
C372 O374 1.270 . S
O373 Zn365 1.943 . S
O373 C372 1.249 1_556 S
O374 Zn364 2.067 1_554 S
O374 C372 1.270 . S
C375 O368 1.262 . S
C375 O376 1.232 . S
O376 C375 1.232 . S
C377 O369 1.260 . S
C377 O370 1.257 . S
Zn378 O381 2.031 . S
Zn378 O383 2.049 . S
Zn378 O388 2.067 1_556 S
Zn379 O380 1.962 . S
Zn379 O382 1.986 . S
Zn379 O384 1.996 . S
Zn379 O387 1.943 . S
O380 Zn379 1.962 . S
O380 C385 1.254 . S
O381 Zn378 2.031 . S
O381 C385 1.269 . S
O382 Zn379 1.986 . S
O382 C389 1.262 . S
O383 Zn378 2.049 . S
O383 C391 1.260 . S
O384 Zn379 1.996 . S
O384 C391 1.257 . S
C385 O380 1.254 . S
C385 O381 1.269 . S
C386 O387 1.249 1_554 S
C386 O388 1.270 . S
O387 Zn379 1.943 . S
O387 C386 1.249 1_556 S
O388 Zn378 2.067 1_554 S
O388 C386 1.270 . S
C389 O382 1.262 . S
C389 O390 1.232 . S
O390 C389 1.232 . S
C391 O383 1.260 . S
C391 O384 1.257 . S
Zn392 O395 2.031 . S
Zn392 O397 2.049 . S
Zn392 O402 2.067 . S
Zn393 O394 1.962 . S
Zn393 O396 1.986 . S
Zn393 O398 1.996 . S
Zn393 O401 1.943 . S
O394 Zn393 1.962 . S
O394 C399 1.254 . S
O395 Zn392 2.031 . S
O395 C399 1.269 . S
O396 Zn393 1.986 . S
O396 C403 1.262 . S
O397 Zn392 2.049 . S
O397 C405 1.260 . S
O398 Zn393 1.996 . S
O398 C405 1.257 . S
C399 O394 1.254 . S
C399 O395 1.269 . S
C400 O401 1.249 . S
C400 O402 1.270 . S
O401 Zn393 1.943 . S
O401 C400 1.249 . S
O402 Zn392 2.067 . S
O402 C400 1.270 . S
C403 O396 1.262 . S
C403 O404 1.232 . S
O404 C403 1.232 . S
C405 O397 1.260 . S
C405 O398 1.257 . S
Zn406 O409 2.031 . S
Zn406 O411 2.049 . S
Zn406 O416 2.067 . S
Zn407 O408 1.962 . S
Zn407 O410 1.986 . S
Zn407 O412 1.996 . S
Zn407 O415 1.943 . S
O408 Zn407 1.962 . S
O408 C413 1.254 . S
O409 Zn406 2.031 . S
O409 C413 1.269 . S
O410 Zn407 1.986 . S
O410 C417 1.262 . S
O411 Zn406 2.049 . S
O411 C419 1.260 . S
O412 Zn407 1.996 . S
O412 C419 1.257 . S
C413 O408 1.254 . S
C413 O409 1.269 . S
C414 O415 1.249 . S
C414 O416 1.270 . S
O415 Zn407 1.943 . S
O415 C414 1.249 . S
O416 Zn406 2.067 . S
O416 C414 1.270 . S
C417 O410 1.262 . S
C417 O418 1.232 . S
O418 C417 1.232 . S
C419 O411 1.260 . S
C419 O412 1.257 . S
Zn420 O423 2.031 . S
Zn420 O425 2.049 . S
Zn420 O430 2.067 1_554 S
Zn421 O422 1.962 . S
Zn421 O424 1.986 . S
Zn421 O426 1.996 . S
Zn421 O429 1.943 . S
O422 Zn421 1.962 . S
O422 C427 1.254 . S
O423 Zn420 2.031 . S
O423 C427 1.269 . S
O424 Zn421 1.986 . S
O424 C431 1.262 . S
O425 Zn420 2.049 . S
O425 C433 1.260 . S
O426 Zn421 1.996 . S
O426 C433 1.257 . S
C427 O422 1.254 . S
C427 O423 1.269 . S
C428 O429 1.249 1_556 S
C428 O430 1.270 . S
O429 Zn421 1.943 . S
O429 C428 1.249 1_554 S
O430 Zn420 2.067 1_556 S
O430 C428 1.270 . S
C431 O424 1.262 . S
C431 O432 1.232 . S
O432 C431 1.232 . S
C433 O425 1.260 . S
C433 O426 1.257 . S
Zn434 O437 2.031 . S
Zn434 O439 2.049 . S
Zn434 O444 2.067 1_554 S
Zn435 O436 1.962 . S
Zn435 O438 1.986 . S
Zn435 O440 1.996 . S
Zn435 O443 1.943 . S
O436 Zn435 1.962 . S
O436 C441 1.254 . S
O437 Zn434 2.031 . S
O437 C441 1.269 . S
O438 Zn435 1.986 . S
O438 C445 1.262 . S
O439 Zn434 2.049 . S
O439 C447 1.260 . S
O440 Zn435 1.996 . S
O440 C447 1.257 . S
C441 O436 1.254 . S
C441 O437 1.269 . S
C442 O443 1.249 1_556 S
C442 O444 1.270 . S
O443 Zn435 1.943 . S
O443 C442 1.249 1_554 S
O444 Zn434 2.067 1_556 S
O444 C442 1.270 . S
C445 O438 1.262 . S
C445 O446 1.232 . S
O446 C445 1.232 . S
C447 O439 1.260 . S
C447 O440 1.257 . S
H448 C454 0.930 . S
H449 C458 0.930 . S
H450 C463 0.929 . S
H451 C461 0.929 . S
H452 C456 0.929 . S
H453 C462 0.929 . S
C454 H448 0.930 . S
C454 C455 1.367 . S
C454 C462 1.378 . S
C455 C454 1.367 . S
C455 C463 1.433 . S
C456 H452 0.929 . S
C456 C458 1.378 . S
C456 C460 1.350 . S
C457 C460 1.463 . S
C457 C462 1.350 . S
C457 N465 1.427 . S
C458 H449 0.930 . S
C458 C456 1.378 . S
C458 C459 1.367 . S
C459 C458 1.367 . S
C459 C461 1.433 . S
C460 C456 1.350 . S
C460 C457 1.463 . S
C460 N464 1.427 . S
C461 H451 0.929 . S
C461 C459 1.433 . S
C461 N464 1.384 . S
C462 H453 0.929 . S
C462 C454 1.378 . S
C462 C457 1.350 . S
C463 H450 0.929 . S
C463 C455 1.433 . S
C463 N465 1.384 . S
N464 C460 1.427 . S
N464 C461 1.384 . S
N465 C457 1.427 . S
N465 C463 1.384 . S
H466 C472 0.930 . S
H467 C476 0.930 . S
H468 C481 0.929 . S
H469 C479 0.929 . S
H470 C474 0.929 . S
H471 C480 0.929 . S
C472 H466 0.930 . S
C472 C473 1.367 . S
C472 C480 1.378 . S
C473 C472 1.367 . S
C473 C481 1.433 . S
C474 H470 0.929 . S
C474 C476 1.378 . S
C474 C478 1.350 . S
C475 C478 1.463 . S
C475 C480 1.350 . S
C475 N483 1.427 . S
C476 H467 0.930 . S
C476 C474 1.378 . S
C476 C477 1.367 . S
C477 C476 1.367 . S
C477 C479 1.433 . S
C478 C474 1.350 . S
C478 C475 1.463 . S
C478 N482 1.427 . S
C479 H469 0.929 . S
C479 C477 1.433 . S
C479 N482 1.384 . S
C480 H471 0.929 . S
C480 C472 1.378 . S
C480 C475 1.350 . S
C481 H468 0.929 . S
C481 C473 1.433 . S
C481 N483 1.384 . S
N482 C478 1.427 . S
N482 C479 1.384 . S
N483 C475 1.427 . S
N483 C481 1.384 . S
H484 C490 0.930 . S
H485 C494 0.930 . S
H486 C499 0.929 . S
H487 C497 0.929 . S
H488 C492 0.929 . S
H489 C498 0.929 . S
C490 H484 0.930 . S
C490 C491 1.367 . S
C490 C498 1.378 . S
C491 C490 1.367 . S
C491 C499 1.433 . S
C492 H488 0.929 . S
C492 C494 1.378 . S
C492 C496 1.350 . S
C493 C496 1.463 . S
C493 C498 1.350 . S
C493 N501 1.427 . S
C494 H485 0.930 . S
C494 C492 1.378 . S
C494 C495 1.367 . S
C495 C494 1.367 . S
C495 C497 1.433 . S
C496 C492 1.350 . S
C496 C493 1.463 . S
C496 N500 1.427 . S
C497 H487 0.929 . S
C497 C495 1.433 . S
C497 N500 1.384 . S
C498 H489 0.929 . S
C498 C490 1.378 . S
C498 C493 1.350 . S
C499 H486 0.929 . S
C499 C491 1.433 . S
C499 N501 1.384 . S
N500 C496 1.427 . S
N500 C497 1.384 . S
N501 C493 1.427 . S
N501 C499 1.384 . S
H502 C508 0.930 . S
H503 C512 0.930 . S
H504 C517 0.929 . S
H505 C515 0.929 . S
H506 C510 0.929 . S
H507 C516 0.929 . S
C508 H502 0.930 . S
C508 C509 1.367 . S
C508 C516 1.378 . S
C509 C508 1.367 . S
C509 C517 1.433 . S
C510 H506 0.929 . S
C510 C512 1.378 . S
C510 C514 1.350 . S
C511 C514 1.463 . S
C511 C516 1.350 . S
C511 N519 1.427 . S
C512 H503 0.930 . S
C512 C510 1.378 . S
C512 C513 1.367 . S
C513 C512 1.367 . S
C513 C515 1.433 . S
C514 C510 1.350 . S
C514 C511 1.463 . S
C514 N518 1.427 . S
C515 H505 0.929 . S
C515 C513 1.433 . S
C515 N518 1.384 . S
C516 H507 0.929 . S
C516 C508 1.378 . S
C516 C511 1.350 . S
C517 H504 0.929 . S
C517 C509 1.433 . S
C517 N519 1.384 . S
N518 C514 1.427 . S
N518 C515 1.384 . S
N519 C511 1.427 . S
N519 C517 1.384 . S
H520 C526 0.930 . S
H521 C530 0.930 . S
H522 C535 0.929 . S
H523 C533 0.929 . S
H524 C528 0.929 . S
H525 C534 0.929 . S
C526 H520 0.930 . S
C526 C527 1.367 . S
C526 C534 1.378 . S
C527 C526 1.367 . S
C527 C535 1.433 . S
C528 H524 0.929 . S
C528 C530 1.378 . S
C528 C532 1.350 . S
C529 C532 1.463 . S
C529 C534 1.350 . S
C529 N537 1.427 . S
C530 H521 0.930 . S
C530 C528 1.378 . S
C530 C531 1.367 . S
C531 C530 1.367 . S
C531 C533 1.433 . S
C532 C528 1.350 . S
C532 C529 1.463 . S
C532 N536 1.427 . S
C533 H523 0.929 . S
C533 C531 1.433 . S
C533 N536 1.384 . S
C534 H525 0.929 . S
C534 C526 1.378 . S
C534 C529 1.350 . S
C535 H522 0.929 . S
C535 C527 1.433 . S
C535 N537 1.384 . S
N536 C532 1.427 . S
N536 C533 1.384 . S
N537 C529 1.427 . S
N537 C535 1.384 . S
H538 C544 0.930 . S
H539 C548 0.930 . S
H540 C553 0.929 . S
H541 C551 0.929 . S
H542 C546 0.929 . S
H543 C552 0.929 . S
C544 H538 0.930 . S
C544 C545 1.367 . S
C544 C552 1.378 . S
C545 C544 1.367 . S
C545 C553 1.433 . S
C546 H542 0.929 . S
C546 C548 1.378 . S
C546 C550 1.350 . S
C547 C550 1.463 . S
C547 C552 1.350 . S
C547 N555 1.427 . S
C548 H539 0.930 . S
C548 C546 1.378 . S
C548 C549 1.367 . S
C549 C548 1.367 . S
C549 C551 1.433 . S
C550 C546 1.350 . S
C550 C547 1.463 . S
C550 N554 1.427 . S
C551 H541 0.929 . S
C551 C549 1.433 . S
C551 N554 1.384 . S
C552 H543 0.929 . S
C552 C544 1.378 . S
C552 C547 1.350 . S
C553 H540 0.929 . S
C553 C545 1.433 . S
C553 N555 1.384 . S
N554 C550 1.427 . S
N554 C551 1.384 . S
N555 C547 1.427 . S
N555 C553 1.384 . S
H556 C562 0.930 . S
H557 C566 0.930 . S
H558 C571 0.929 . S
H559 C569 0.929 . S
H560 C564 0.929 . S
H561 C570 0.929 . S
C562 H556 0.930 . S
C562 C563 1.367 . S
C562 C570 1.378 . S
C563 C562 1.367 . S
C563 C571 1.433 . S
C564 H560 0.929 . S
C564 C566 1.378 . S
C564 C568 1.350 . S
C565 C568 1.463 . S
C565 C570 1.350 . S
C565 N573 1.427 . S
C566 H557 0.930 . S
C566 C564 1.378 . S
C566 C567 1.367 . S
C567 C566 1.367 . S
C567 C569 1.433 . S
C568 C564 1.350 . S
C568 C565 1.463 . S
C568 N572 1.427 . S
C569 H559 0.929 . S
C569 C567 1.433 . S
C569 N572 1.384 . S
C570 H561 0.929 . S
C570 C562 1.378 . S
C570 C565 1.350 . S
C571 H558 0.929 . S
C571 C563 1.433 . S
C571 N573 1.384 . S
N572 C568 1.427 . S
N572 C569 1.384 . S
N573 C565 1.427 . S
N573 C571 1.384 . S
H574 C580 0.930 . S
H575 C584 0.930 . S
H576 C589 0.929 . S
H577 C587 0.929 . S
H578 C582 0.929 . S
H579 C588 0.929 . S
C580 H574 0.930 . S
C580 C581 1.367 . S
C580 C588 1.378 . S
C581 C580 1.367 . S
C581 C589 1.433 . S
C582 H578 0.929 . S
C582 C584 1.378 . S
C582 C586 1.350 . S
C583 C586 1.463 . S
C583 C588 1.350 . S
C583 N591 1.427 . S
C584 H575 0.930 . S
C584 C582 1.378 . S
C584 C585 1.367 . S
C585 C584 1.367 . S
C585 C587 1.433 . S
C586 C582 1.350 . S
C586 C583 1.463 . S
C586 N590 1.427 . S
C587 H577 0.929 . S
C587 C585 1.433 . S
C587 N590 1.384 . S
C588 H579 0.929 . S
C588 C580 1.378 . S
C588 C583 1.350 . S
C589 H576 0.929 . S
C589 C581 1.433 . S
C589 N591 1.384 . S
N590 C586 1.427 . S
N590 C587 1.384 . S
N591 C583 1.427 . S
N591 C589 1.384 . S
H592 C598 0.930 . S
H593 C602 0.930 . S
H594 C607 0.929 . S
H595 C605 0.929 . S
H596 C600 0.929 . S
H597 C606 0.929 . S
C598 H592 0.930 . S
C598 C599 1.367 . S
C598 C606 1.378 . S
C599 C598 1.367 . S
C599 C607 1.433 . S
C600 H596 0.929 . S
C600 C602 1.378 . S
C600 C604 1.350 . S
C601 C604 1.463 . S
C601 C606 1.350 . S
C601 N609 1.427 . S
C602 H593 0.930 . S
C602 C600 1.378 . S
C602 C603 1.367 . S
C603 C602 1.367 . S
C603 C605 1.433 . S
C604 C600 1.350 . S
C604 C601 1.463 . S
C604 N608 1.427 . S
C605 H595 0.929 . S
C605 C603 1.433 . S
C605 N608 1.384 . S
C606 H597 0.929 . S
C606 C598 1.378 . S
C606 C601 1.350 . S
C607 H594 0.929 . S
C607 C599 1.433 . S
C607 N609 1.384 . S
N608 C604 1.427 . S
N608 C605 1.384 . S
N609 C601 1.427 . S
N609 C607 1.384 . S
H610 C616 0.930 . S
H611 C620 0.930 . S
H612 C625 0.929 . S
H613 C623 0.929 . S
H614 C618 0.929 . S
H615 C624 0.929 . S
C616 H610 0.930 . S
C616 C617 1.367 . S
C616 C624 1.378 . S
C617 C616 1.367 . S
C617 C625 1.433 . S
C618 H614 0.929 . S
C618 C620 1.378 . S
C618 C622 1.350 . S
C619 C622 1.463 . S
C619 C624 1.350 . S
C619 N627 1.427 . S
C620 H611 0.930 . S
C620 C618 1.378 . S
C620 C621 1.367 . S
C621 C620 1.367 . S
C621 C623 1.433 . S
C622 C618 1.350 . S
C622 C619 1.463 . S
C622 N626 1.427 . S
C623 H613 0.929 . S
C623 C621 1.433 . S
C623 N626 1.384 . S
C624 H615 0.929 . S
C624 C616 1.378 . S
C624 C619 1.350 . S
C625 H612 0.929 . S
C625 C617 1.433 . S
C625 N627 1.384 . S
N626 C622 1.427 . S
N626 C623 1.384 . S
N627 C619 1.427 . S
N627 C625 1.384 . S
H628 C634 0.930 . S
H629 C638 0.930 . S
H630 C643 0.929 . S
H631 C641 0.929 . S
H632 C636 0.929 . S
H633 C642 0.929 . S
C634 H628 0.930 . S
C634 C635 1.367 . S
C634 C642 1.378 . S
C635 C634 1.367 . S
C635 C643 1.433 . S
C636 H632 0.929 . S
C636 C638 1.378 . S
C636 C640 1.350 . S
C637 C640 1.463 . S
C637 C642 1.350 . S
C637 N645 1.427 . S
C638 H629 0.930 . S
C638 C636 1.378 . S
C638 C639 1.367 . S
C639 C638 1.367 . S
C639 C641 1.433 . S
C640 C636 1.350 . S
C640 C637 1.463 . S
C640 N644 1.427 . S
C641 H631 0.929 . S
C641 C639 1.433 . S
C641 N644 1.384 . S
C642 H633 0.929 . S
C642 C634 1.378 . S
C642 C637 1.350 . S
C643 H630 0.929 . S
C643 C635 1.433 . S
C643 N645 1.384 . S
N644 C640 1.427 . S
N644 C641 1.384 . S
N645 C637 1.427 . S
N645 C643 1.384 . S
H646 C652 0.930 . S
H647 C656 0.930 . S
H648 C661 0.929 . S
H649 C659 0.929 . S
H650 C654 0.929 . S
H651 C660 0.929 . S
C652 H646 0.930 . S
C652 C653 1.367 . S
C652 C660 1.378 . S
C653 C652 1.367 . S
C653 C661 1.433 . S
C654 H650 0.929 . S
C654 C656 1.378 . S
C654 C658 1.350 . S
C655 C658 1.463 . S
C655 C660 1.350 . S
C655 N663 1.427 . S
C656 H647 0.930 . S
C656 C654 1.378 . S
C656 C657 1.367 . S
C657 C656 1.367 . S
C657 C659 1.433 . S
C658 C654 1.350 . S
C658 C655 1.463 . S
C658 N662 1.427 . S
C659 H649 0.929 . S
C659 C657 1.433 . S
C659 N662 1.384 . S
C660 H651 0.929 . S
C660 C652 1.378 . S
C660 C655 1.350 . S
C661 H648 0.929 . S
C661 C653 1.433 . S
C661 N663 1.384 . S
N662 C658 1.427 . S
N662 C659 1.384 . S
N663 C655 1.427 . S
N663 C661 1.384 . S
H664 C670 0.930 . S
H665 C674 0.930 . S
H666 C679 0.929 . S
H667 C677 0.929 . S
H668 C672 0.929 . S
H669 C678 0.929 . S
C670 H664 0.930 . S
C670 C671 1.367 . S
C670 C678 1.378 . S
C671 C670 1.367 . S
C671 C679 1.433 . S
C672 H668 0.929 . S
C672 C674 1.378 . S
C672 C676 1.350 . S
C673 C676 1.463 . S
C673 C678 1.350 . S
C673 N681 1.427 . S
C674 H665 0.930 . S
C674 C672 1.378 . S
C674 C675 1.367 . S
C675 C674 1.367 . S
C675 C677 1.433 . S
C676 C672 1.350 . S
C676 C673 1.463 . S
C676 N680 1.427 . S
C677 H667 0.929 . S
C677 C675 1.433 . S
C677 N680 1.384 . S
C678 H669 0.929 . S
C678 C670 1.378 . S
C678 C673 1.350 . S
C679 H666 0.929 . S
C679 C671 1.433 . S
C679 N681 1.384 . S
N680 C676 1.427 . S
N680 C677 1.384 . S
N681 C673 1.427 . S
N681 C679 1.384 . S
H682 C688 0.930 . S
H683 C692 0.930 . S
H684 C697 0.929 . S
H685 C695 0.929 . S
H686 C690 0.929 . S
H687 C696 0.929 . S
C688 H682 0.930 . S
C688 C689 1.367 . S
C688 C696 1.378 . S
C689 C688 1.367 . S
C689 C697 1.433 . S
C690 H686 0.929 . S
C690 C692 1.378 . S
C690 C694 1.350 . S
C691 C694 1.463 . S
C691 C696 1.350 . S
C691 N699 1.427 . S
C692 H683 0.930 . S
C692 C690 1.378 . S
C692 C693 1.367 . S
C693 C692 1.367 . S
C693 C695 1.433 . S
C694 C690 1.350 . S
C694 C691 1.463 . S
C694 N698 1.427 . S
C695 H685 0.929 . S
C695 C693 1.433 . S
C695 N698 1.384 . S
C696 H687 0.929 . S
C696 C688 1.378 . S
C696 C691 1.350 . S
C697 H684 0.929 . S
C697 C689 1.433 . S
C697 N699 1.384 . S
N698 C694 1.427 . S
N698 C695 1.384 . S
N699 C691 1.427 . S
N699 C697 1.384 . S
H700 C706 0.930 . S
H701 C710 0.930 . S
H702 C715 0.929 . S
H703 C713 0.929 . S
H704 C708 0.929 . S
H705 C714 0.929 . S
C706 H700 0.930 . S
C706 C707 1.367 . S
C706 C714 1.378 . S
C707 C706 1.367 . S
C707 C715 1.433 . S
C708 H704 0.929 . S
C708 C710 1.378 . S
C708 C712 1.350 . S
C709 C712 1.463 . S
C709 C714 1.350 . S
C709 N717 1.427 . S
C710 H701 0.930 . S
C710 C708 1.378 . S
C710 C711 1.367 . S
C711 C710 1.367 . S
C711 C713 1.433 . S
C712 C708 1.350 . S
C712 C709 1.463 . S
C712 N716 1.427 . S
C713 H703 0.929 . S
C713 C711 1.433 . S
C713 N716 1.384 . S
C714 H705 0.929 . S
C714 C706 1.378 . S
C714 C709 1.350 . S
C715 H702 0.929 . S
C715 C707 1.433 . S
C715 N717 1.384 . S
N716 C712 1.427 . S
N716 C713 1.384 . S
N717 C709 1.427 . S
N717 C715 1.384 . S
H718 C724 0.930 . S
H719 C728 0.930 . S
H720 C733 0.929 . S
H721 C731 0.929 . S
H722 C726 0.929 . S
H723 C732 0.929 . S
C724 H718 0.930 . S
C724 C725 1.367 . S
C724 C732 1.378 . S
C725 C724 1.367 . S
C725 C733 1.433 . S
C726 H722 0.929 . S
C726 C728 1.378 . S
C726 C730 1.350 . S
C727 C730 1.463 . S
C727 C732 1.350 . S
C727 N735 1.427 . S
C728 H719 0.930 . S
C728 C726 1.378 . S
C728 C729 1.367 . S
C729 C728 1.367 . S
C729 C731 1.433 . S
C730 C726 1.350 . S
C730 C727 1.463 . S
C730 N734 1.427 . S
C731 H721 0.929 . S
C731 C729 1.433 . S
C731 N734 1.384 . S
C732 H723 0.929 . S
C732 C724 1.378 . S
C732 C727 1.350 . S
C733 H720 0.929 . S
C733 C725 1.433 . S
C733 N735 1.384 . S
N734 C730 1.427 . S
N734 C731 1.384 . S
N735 C727 1.427 . S
N735 C733 1.384 . S
H736 C742 0.930 . S
H737 C746 0.930 . S
H738 C751 0.929 . S
H739 C749 0.929 . S
H740 C744 0.929 . S
H741 C750 0.929 . S
C742 H736 0.930 . S
C742 C743 1.367 . S
C742 C750 1.378 . S
C743 C742 1.367 . S
C743 C751 1.433 . S
C744 H740 0.929 . S
C744 C746 1.378 . S
C744 C748 1.350 . S
C745 C748 1.463 . S
C745 C750 1.350 . S
C745 N753 1.427 . S
C746 H737 0.930 . S
C746 C744 1.378 . S
C746 C747 1.367 . S
C747 C746 1.367 . S
C747 C749 1.433 . S
C748 C744 1.350 . S
C748 C745 1.463 . S
C748 N752 1.427 . S
C749 H739 0.929 . S
C749 C747 1.433 . S
C749 N752 1.384 . S
C750 H741 0.929 . S
C750 C742 1.378 . S
C750 C745 1.350 . S
C751 H738 0.929 . S
C751 C743 1.433 . S
C751 N753 1.384 . S
N752 C748 1.427 . S
N752 C749 1.384 . S
N753 C745 1.427 . S
N753 C751 1.384 . S
H754 C760 0.930 . S
H755 C764 0.930 . S
H756 C769 0.929 . S
H757 C767 0.929 . S
H758 C762 0.929 . S
H759 C768 0.929 . S
C760 H754 0.930 . S
C760 C761 1.367 . S
C760 C768 1.378 . S
C761 C760 1.367 . S
C761 C769 1.433 . S
C762 H758 0.929 . S
C762 C764 1.378 . S
C762 C766 1.350 . S
C763 C766 1.463 . S
C763 C768 1.350 . S
C763 N771 1.427 . S
C764 H755 0.930 . S
C764 C762 1.378 . S
C764 C765 1.367 . S
C765 C764 1.367 . S
C765 C767 1.433 . S
C766 C762 1.350 . S
C766 C763 1.463 . S
C766 N770 1.427 . S
C767 H757 0.929 . S
C767 C765 1.433 . S
C767 N770 1.384 . S
C768 H759 0.929 . S
C768 C760 1.378 . S
C768 C763 1.350 . S
C769 H756 0.929 . S
C769 C761 1.433 . S
C769 N771 1.384 . S
N770 C766 1.427 . S
N770 C767 1.384 . S
N771 C763 1.427 . S
N771 C769 1.384 . S
H772 C778 0.930 . S
H773 C782 0.930 . S
H774 C787 0.929 . S
H775 C785 0.929 . S
H776 C780 0.929 . S
H777 C786 0.929 . S
C778 H772 0.930 . S
C778 C779 1.367 . S
C778 C786 1.378 . S
C779 C778 1.367 . S
C779 C787 1.433 . S
C780 H776 0.929 . S
C780 C782 1.378 . S
C780 C784 1.350 . S
C781 C784 1.463 . S
C781 C786 1.350 . S
C781 N789 1.427 . S
C782 H773 0.930 . S
C782 C780 1.378 . S
C782 C783 1.367 . S
C783 C782 1.367 . S
C783 C785 1.433 . S
C784 C780 1.350 . S
C784 C781 1.463 . S
C784 N788 1.427 . S
C785 H775 0.929 . S
C785 C783 1.433 . S
C785 N788 1.384 . S
C786 H777 0.929 . S
C786 C778 1.378 . S
C786 C781 1.350 . S
C787 H774 0.929 . S
C787 C779 1.433 . S
C787 N789 1.384 . S
N788 C784 1.427 . S
N788 C785 1.384 . S
N789 C781 1.427 . S
N789 C787 1.384 . S
H790 C796 0.930 . S
H791 C800 0.930 . S
H792 C805 0.929 . S
H793 C803 0.929 . S
H794 C798 0.929 . S
H795 C804 0.929 . S
C796 H790 0.930 . S
C796 C797 1.367 . S
C796 C804 1.378 . S
C797 C796 1.367 . S
C797 C805 1.433 . S
C798 H794 0.929 . S
C798 C800 1.378 . S
C798 C802 1.350 . S
C799 C802 1.463 . S
C799 C804 1.350 . S
C799 N807 1.427 . S
C800 H791 0.930 . S
C800 C798 1.378 . S
C800 C801 1.367 . S
C801 C800 1.367 . S
C801 C803 1.433 . S
C802 C798 1.350 . S
C802 C799 1.463 . S
C802 N806 1.427 . S
C803 H793 0.929 . S
C803 C801 1.433 . S
C803 N806 1.384 . S
C804 H795 0.929 . S
C804 C796 1.378 . S
C804 C799 1.350 . S
C805 H792 0.929 . S
C805 C797 1.433 . S
C805 N807 1.384 . S
N806 C802 1.427 . S
N806 C803 1.384 . S
N807 C799 1.427 . S
N807 C805 1.384 . S
H808 C814 0.930 . S
H809 C818 0.930 . S
H810 C823 0.929 . S
H811 C821 0.929 . S
H812 C816 0.929 . S
H813 C822 0.929 . S
C814 H808 0.930 . S
C814 C815 1.367 . S
C814 C822 1.378 . S
C815 C814 1.367 . S
C815 C823 1.433 . S
C816 H812 0.929 . S
C816 C818 1.378 . S
C816 C820 1.350 . S
C817 C820 1.463 . S
C817 C822 1.350 . S
C817 N825 1.427 . S
C818 H809 0.930 . S
C818 C816 1.378 . S
C818 C819 1.367 . S
C819 C818 1.367 . S
C819 C821 1.433 . S
C820 C816 1.350 . S
C820 C817 1.463 . S
C820 N824 1.427 . S
C821 H811 0.929 . S
C821 C819 1.433 . S
C821 N824 1.384 . S
C822 H813 0.929 . S
C822 C814 1.378 . S
C822 C817 1.350 . S
C823 H810 0.929 . S
C823 C815 1.433 . S
C823 N825 1.384 . S
N824 C820 1.427 . S
N824 C821 1.384 . S
N825 C817 1.427 . S
N825 C823 1.384 . S
H826 C832 0.930 . S
H827 C836 0.930 . S
H828 C841 0.929 . S
H829 C839 0.929 . S
H830 C834 0.929 . S
H831 C840 0.929 . S
C832 H826 0.930 . S
C832 C833 1.367 . S
C832 C840 1.378 . S
C833 C832 1.367 . S
C833 C841 1.433 . S
C834 H830 0.929 . S
C834 C836 1.378 . S
C834 C838 1.350 . S
C835 C838 1.463 . S
C835 C840 1.350 . S
C835 N843 1.427 . S
C836 H827 0.930 . S
C836 C834 1.378 . S
C836 C837 1.367 . S
C837 C836 1.367 . S
C837 C839 1.433 . S
C838 C834 1.350 . S
C838 C835 1.463 . S
C838 N842 1.427 . S
C839 H829 0.929 . S
C839 C837 1.433 . S
C839 N842 1.384 . S
C840 H831 0.929 . S
C840 C832 1.378 . S
C840 C835 1.350 . S
C841 H828 0.929 . S
C841 C833 1.433 . S
C841 N843 1.384 . S
N842 C838 1.427 . S
N842 C839 1.384 . S
N843 C835 1.427 . S
N843 C841 1.384 . S
H844 C850 0.930 . S
H845 C854 0.930 . S
H846 C859 0.929 . S
H847 C857 0.929 . S
H848 C852 0.929 . S
H849 C858 0.929 . S
C850 H844 0.930 . S
C850 C851 1.367 . S
C850 C858 1.378 . S
C851 C850 1.367 . S
C851 C859 1.433 . S
C852 H848 0.929 . S
C852 C854 1.378 . S
C852 C856 1.350 . S
C853 C856 1.463 . S
C853 C858 1.350 . S
C853 N861 1.427 . S
C854 H845 0.930 . S
C854 C852 1.378 . S
C854 C855 1.367 . S
C855 C854 1.367 . S
C855 C857 1.433 . S
C856 C852 1.350 . S
C856 C853 1.463 . S
C856 N860 1.427 . S
C857 H847 0.929 . S
C857 C855 1.433 . S
C857 N860 1.384 . S
C858 H849 0.929 . S
C858 C850 1.378 . S
C858 C853 1.350 . S
C859 H846 0.929 . S
C859 C851 1.433 . S
C859 N861 1.384 . S
N860 C856 1.427 . S
N860 C857 1.384 . S
N861 C853 1.427 . S
N861 C859 1.384 . S
H862 C868 0.930 . S
H863 C872 0.930 . S
H864 C877 0.929 . S
H865 C875 0.929 . S
H866 C870 0.929 . S
H867 C876 0.929 . S
C868 H862 0.930 . S
C868 C869 1.367 . S
C868 C876 1.378 . S
C869 C868 1.367 . S
C869 C877 1.433 . S
C870 H866 0.929 . S
C870 C872 1.378 . S
C870 C874 1.350 . S
C871 C874 1.463 . S
C871 C876 1.350 . S
C871 N879 1.427 . S
C872 H863 0.930 . S
C872 C870 1.378 . S
C872 C873 1.367 . S
C873 C872 1.367 . S
C873 C875 1.433 . S
C874 C870 1.350 . S
C874 C871 1.463 . S
C874 N878 1.427 . S
C875 H865 0.929 . S
C875 C873 1.433 . S
C875 N878 1.384 . S
C876 H867 0.929 . S
C876 C868 1.378 . S
C876 C871 1.350 . S
C877 H864 0.929 . S
C877 C869 1.433 . S
C877 N879 1.384 . S
N878 C874 1.427 . S
N878 C875 1.384 . S
N879 C871 1.427 . S
N879 C877 1.384 . S
H880 C886 0.930 . S
H881 C890 0.930 . S
H882 C895 0.929 . S
H883 C893 0.929 . S
H884 C888 0.929 . S
H885 C894 0.929 . S
C886 H880 0.930 . S
C886 C887 1.367 . S
C886 C894 1.378 . S
C887 C886 1.367 . S
C887 C895 1.433 . S
C888 H884 0.929 . S
C888 C890 1.378 . S
C888 C892 1.350 . S
C889 C892 1.463 . S
C889 C894 1.350 . S
C889 N897 1.427 . S
C890 H881 0.930 . S
C890 C888 1.378 . S
C890 C891 1.367 . S
C891 C890 1.367 . S
C891 C893 1.433 . S
C892 C888 1.350 . S
C892 C889 1.463 . S
C892 N896 1.427 . S
C893 H883 0.929 . S
C893 C891 1.433 . S
C893 N896 1.384 . S
C894 H885 0.929 . S
C894 C886 1.378 . S
C894 C889 1.350 . S
C895 H882 0.929 . S
C895 C887 1.433 . S
C895 N897 1.384 . S
N896 C892 1.427 . S
N896 C893 1.384 . S
N897 C889 1.427 . S
N897 C895 1.384 . S
H898 C904 0.930 . S
H899 C908 0.930 . S
H900 C913 0.929 . S
H901 C911 0.929 . S
H902 C906 0.929 . S
H903 C912 0.929 . S
C904 H898 0.930 . S
C904 C905 1.367 . S
C904 C912 1.378 . S
C905 C904 1.367 . S
C905 C913 1.433 . S
C906 H902 0.929 . S
C906 C908 1.378 . S
C906 C910 1.350 . S
C907 C910 1.463 . S
C907 C912 1.350 . S
C907 N915 1.427 . S
C908 H899 0.930 . S
C908 C906 1.378 . S
C908 C909 1.367 . S
C909 C908 1.367 . S
C909 C911 1.433 . S
C910 C906 1.350 . S
C910 C907 1.463 . S
C910 N914 1.427 . S
C911 H901 0.929 . S
C911 C909 1.433 . S
C911 N914 1.384 . S
C912 H903 0.929 . S
C912 C904 1.378 . S
C912 C907 1.350 . S
C913 H900 0.929 . S
C913 C905 1.433 . S
C913 N915 1.384 . S
N914 C910 1.427 . S
N914 C911 1.384 . S
N915 C907 1.427 . S
N915 C913 1.384 . S
H916 C922 0.930 . S
H917 C926 0.930 . S
H918 C931 0.929 . S
H919 C929 0.929 . S
H920 C924 0.929 . S
H921 C930 0.929 . S
C922 H916 0.930 . S
C922 C923 1.367 . S
C922 C930 1.378 . S
C923 C922 1.367 . S
C923 C931 1.433 . S
C924 H920 0.929 . S
C924 C926 1.378 . S
C924 C928 1.350 . S
C925 C928 1.463 . S
C925 C930 1.350 . S
C925 N933 1.427 . S
C926 H917 0.930 . S
C926 C924 1.378 . S
C926 C927 1.367 . S
C927 C926 1.367 . S
C927 C929 1.433 . S
C928 C924 1.350 . S
C928 C925 1.463 . S
C928 N932 1.427 . S
C929 H919 0.929 . S
C929 C927 1.433 . S
C929 N932 1.384 . S
C930 H921 0.929 . S
C930 C922 1.378 . S
C930 C925 1.350 . S
C931 H918 0.929 . S
C931 C923 1.433 . S
C931 N933 1.384 . S
N932 C928 1.427 . S
N932 C929 1.384 . S
N933 C925 1.427 . S
N933 C931 1.384 . S
H934 C940 0.930 . S
H935 C944 0.930 . S
H936 C949 0.929 . S
H937 C947 0.929 . S
H938 C942 0.929 . S
H939 C948 0.929 . S
C940 H934 0.930 . S
C940 C941 1.367 . S
C940 C948 1.378 . S
C941 C940 1.367 . S
C941 C949 1.433 . S
C942 H938 0.929 . S
C942 C944 1.378 . S
C942 C946 1.350 . S
C943 C946 1.463 . S
C943 C948 1.350 . S
C943 N951 1.427 . S
C944 H935 0.930 . S
C944 C942 1.378 . S
C944 C945 1.367 . S
C945 C944 1.367 . S
C945 C947 1.433 . S
C946 C942 1.350 . S
C946 C943 1.463 . S
C946 N950 1.427 . S
C947 H937 0.929 . S
C947 C945 1.433 . S
C947 N950 1.384 . S
C948 H939 0.929 . S
C948 C940 1.378 . S
C948 C943 1.350 . S
C949 H936 0.929 . S
C949 C941 1.433 . S
C949 N951 1.384 . S
N950 C946 1.427 . S
N950 C947 1.384 . S
N951 C943 1.427 . S
N951 C949 1.384 . S
H952 C958 0.930 . S
H953 C962 0.930 . S
H954 C967 0.929 . S
H955 C965 0.929 . S
H956 C960 0.929 . S
H957 C966 0.929 . S
C958 H952 0.930 . S
C958 C959 1.367 . S
C958 C966 1.378 . S
C959 C958 1.367 . S
C959 C967 1.433 . S
C960 H956 0.929 . S
C960 C962 1.378 . S
C960 C964 1.350 . S
C961 C964 1.463 . S
C961 C966 1.350 . S
C961 N969 1.427 . S
C962 H953 0.930 . S
C962 C960 1.378 . S
C962 C963 1.367 . S
C963 C962 1.367 . S
C963 C965 1.433 . S
C964 C960 1.350 . S
C964 C961 1.463 . S
C964 N968 1.427 . S
C965 H955 0.929 . S
C965 C963 1.433 . S
C965 N968 1.384 . S
C966 H957 0.929 . S
C966 C958 1.378 . S
C966 C961 1.350 . S
C967 H954 0.929 . S
C967 C959 1.433 . S
C967 N969 1.384 . S
N968 C964 1.427 . S
N968 C965 1.384 . S
N969 C961 1.427 . S
N969 C967 1.384 . S
H970 C976 0.930 . S
H971 C980 0.930 . S
H972 C985 0.929 . S
H973 C983 0.929 . S
H974 C978 0.929 . S
H975 C984 0.929 . S
C976 H970 0.930 . S
C976 C977 1.367 . S
C976 C984 1.378 . S
C977 C976 1.367 . S
C977 C985 1.433 . S
C978 H974 0.929 . S
C978 C980 1.378 . S
C978 C982 1.350 . S
C979 C982 1.463 . S
C979 C984 1.350 . S
C979 N987 1.427 . S
C980 H971 0.930 . S
C980 C978 1.378 . S
C980 C981 1.367 . S
C981 C980 1.367 . S
C981 C983 1.433 . S
C982 C978 1.350 . S
C982 C979 1.463 . S
C982 N986 1.427 . S
C983 H973 0.929 . S
C983 C981 1.433 . S
C983 N986 1.384 . S
C984 H975 0.929 . S
C984 C976 1.378 . S
C984 C979 1.350 . S
C985 H972 0.929 . S
C985 C977 1.433 . S
C985 N987 1.384 . S
N986 C982 1.427 . S
N986 C983 1.384 . S
N987 C979 1.427 . S
N987 C985 1.384 . S
H988 C994 0.930 . S
H989 C998 0.930 . S
H990 C1003 0.929 . S
H991 C1001 0.929 . S
H992 C996 0.929 . S
H993 C1002 0.929 . S
C994 H988 0.930 . S
C994 C995 1.367 . S
C994 C1002 1.378 . S
C995 C994 1.367 . S
C995 C1003 1.433 . S
C996 H992 0.929 . S
C996 C998 1.378 . S
C996 C1000 1.350 . S
C997 C1000 1.463 . S
C997 C1002 1.350 . S
C997 N1005 1.427 . S
C998 H989 0.930 . S
C998 C996 1.378 . S
C998 C999 1.367 . S
C999 C998 1.367 . S
C999 C1001 1.433 . S
C1000 C996 1.350 . S
C1000 C997 1.463 . S
C1000 N1004 1.427 . S
C1001 H991 0.929 . S
C1001 C999 1.433 . S
C1001 N1004 1.384 . S
C1002 H993 0.929 . S
C1002 C994 1.378 . S
C1002 C997 1.350 . S
C1003 H990 0.929 . S
C1003 C995 1.433 . S
C1003 N1005 1.384 . S
N1004 C1000 1.427 . S
N1004 C1001 1.384 . S
N1005 C997 1.427 . S
N1005 C1003 1.384 . S
H1006 C1012 0.930 . S
H1007 C1016 0.930 . S
H1008 C1021 0.929 . S
H1009 C1019 0.929 . S
H1010 C1014 0.929 . S
H1011 C1020 0.929 . S
C1012 H1006 0.930 . S
C1012 C1013 1.367 . S
C1012 C1020 1.378 . S
C1013 C1012 1.367 . S
C1013 C1021 1.433 . S
C1014 H1010 0.929 . S
C1014 C1016 1.378 . S
C1014 C1018 1.350 . S
C1015 C1018 1.463 . S
C1015 C1020 1.350 . S
C1015 N1023 1.427 . S
C1016 H1007 0.930 . S
C1016 C1014 1.378 . S
C1016 C1017 1.367 . S
C1017 C1016 1.367 . S
C1017 C1019 1.433 . S
C1018 C1014 1.350 . S
C1018 C1015 1.463 . S
C1018 N1022 1.427 . S
C1019 H1009 0.929 . S
C1019 C1017 1.433 . S
C1019 N1022 1.384 . S
C1020 H1011 0.929 . S
C1020 C1012 1.378 . S
C1020 C1015 1.350 . S
C1021 H1008 0.929 . S
C1021 C1013 1.433 . S
C1021 N1023 1.384 . S
N1022 C1018 1.427 . S
N1022 C1019 1.384 . S
N1023 C1015 1.427 . S
N1023 C1021 1.384 . S
H1024 C1030 0.926 1_455 S
H1025 C1034 0.926 1_655 S
H1026 C1039 0.929 . S
H1027 C1037 0.929 . S
H1028 C1032 0.929 . S
H1029 C1038 0.929 . S
C1030 H1024 0.926 1_655 S
C1030 C1031 1.375 . S
C1030 C1038 1.375 1_655 S
C1031 C1030 1.375 . S
C1031 C1039 1.433 . S
C1032 H1028 0.929 . S
C1032 C1034 1.375 1_655 S
C1032 C1036 1.350 1_655 S
C1033 C1036 1.463 1_655 S
C1033 C1038 1.350 1_655 S
C1033 N1041 1.427 . S
C1034 H1025 0.926 1_455 S
C1034 C1032 1.375 1_455 S
C1034 C1035 1.375 . S
C1035 C1034 1.375 . S
C1035 C1037 1.433 . S
C1036 C1032 1.350 1_455 S
C1036 C1033 1.463 1_455 S
C1036 N1040 1.427 . S
C1037 H1027 0.929 . S
C1037 C1035 1.433 . S
C1037 N1040 1.384 . S
C1038 H1029 0.929 . S
C1038 C1030 1.375 1_455 S
C1038 C1033 1.350 1_455 S
C1039 H1026 0.929 . S
C1039 C1031 1.433 . S
C1039 N1041 1.384 . S
N1040 C1036 1.427 . S
N1040 C1037 1.384 . S
N1041 C1033 1.427 . S
N1041 C1039 1.384 . S
H1042 C1048 0.930 . S
H1043 C1052 0.930 . S
H1044 C1057 0.929 . S
H1045 C1055 0.929 . S
H1046 C1050 0.929 1_565 S
H1047 C1056 0.929 1_545 S
C1048 H1042 0.930 . S
C1048 C1049 1.367 . S
C1048 C1056 1.378 . S
C1049 C1048 1.367 . S
C1049 C1057 1.433 . S
C1050 H1046 0.929 1_545 S
C1050 C1052 1.378 . S
C1050 C1054 1.350 . S
C1051 C1054 1.463 1_565 S
C1051 C1056 1.350 . S
C1051 N1059 1.427 . S
C1052 H1043 0.930 . S
C1052 C1050 1.378 . S
C1052 C1053 1.367 . S
C1053 C1052 1.367 . S
C1053 C1055 1.433 . S
C1054 C1050 1.350 . S
C1054 C1051 1.463 1_545 S
C1054 N1058 1.427 . S
C1055 H1045 0.929 . S
C1055 C1053 1.433 . S
C1055 N1058 1.384 . S
C1056 H1047 0.929 1_565 S
C1056 C1048 1.378 . S
C1056 C1051 1.350 . S
C1057 H1044 0.929 . S
C1057 C1049 1.433 . S
C1057 N1059 1.384 . S
N1058 C1054 1.427 . S
N1058 C1055 1.384 . S
N1059 C1051 1.427 . S
N1059 C1057 1.384 . S
H1060 C1066 0.930 . S
H1061 C1070 0.930 . S
H1062 C1075 0.929 . S
H1063 C1073 0.929 . S
H1064 C1068 0.929 1_545 S
H1065 C1074 0.929 1_565 S
C1066 H1060 0.930 . S
C1066 C1067 1.367 . S
C1066 C1074 1.378 . S
C1067 C1066 1.367 . S
C1067 C1075 1.433 . S
C1068 H1064 0.929 1_565 S
C1068 C1070 1.378 . S
C1068 C1072 1.350 . S
C1069 C1072 1.463 1_644 S
C1069 C1074 1.350 . S
C1069 N1077 1.427 1_655 S
C1070 H1061 0.930 . S
C1070 C1068 1.378 . S
C1070 C1071 1.367 . S
C1071 C1070 1.367 . S
C1071 C1073 1.433 . S
C1072 C1068 1.350 . S
C1072 C1069 1.463 1_466 S
C1072 N1076 1.427 1_455 S
C1073 H1063 0.929 . S
C1073 C1071 1.433 . S
C1073 N1076 1.384 1_455 S
C1074 H1065 0.929 1_545 S
C1074 C1066 1.378 . S
C1074 C1069 1.350 . S
C1075 H1062 0.929 . S
C1075 C1067 1.433 . S
C1075 N1077 1.384 1_655 S
N1076 C1072 1.427 1_655 S
N1076 C1073 1.384 1_655 S
N1077 C1069 1.427 1_455 S
N1077 C1075 1.384 1_455 S
H1078 C1084 0.930 . S
H1079 C1088 0.930 . S
H1080 C1093 0.929 . S
H1081 C1091 0.929 . S
H1082 C1086 0.929 . S
H1083 C1092 0.929 . S
C1084 H1078 0.930 . S
C1084 C1085 1.367 . S
C1084 C1092 1.378 . S
C1085 C1084 1.367 . S
C1085 C1093 1.433 . S
C1086 H1082 0.929 . S
C1086 C1088 1.378 . S
C1086 C1090 1.350 . S
C1087 C1090 1.463 1_554 S
C1087 C1092 1.350 . S
C1087 N1095 1.427 1_554 S
C1088 H1079 0.930 . S
C1088 C1086 1.378 . S
C1088 C1089 1.367 . S
C1089 C1088 1.367 . S
C1089 C1091 1.433 . S
C1090 C1086 1.350 . S
C1090 C1087 1.463 1_556 S
C1090 N1094 1.427 1_556 S
C1091 H1081 0.929 . S
C1091 C1089 1.433 . S
C1091 N1094 1.384 1_556 S
C1092 H1083 0.929 . S
C1092 C1084 1.378 . S
C1092 C1087 1.350 . S
C1093 H1080 0.929 . S
C1093 C1085 1.433 . S
C1093 N1095 1.384 1_554 S
N1094 C1090 1.427 1_554 S
N1094 C1091 1.384 1_554 S
N1095 C1087 1.427 1_556 S
N1095 C1093 1.384 1_556 S
H1096 C1102 0.930 . S
H1097 C1106 0.930 . S
H1098 C1111 0.929 . S
H1099 C1109 0.929 . S
H1100 C1104 0.929 . S
H1101 C1110 0.929 . S
C1102 H1096 0.930 . S
C1102 C1103 1.367 . S
C1102 C1110 1.378 . S
C1103 C1102 1.367 . S
C1103 C1111 1.433 . S
C1104 H1100 0.929 . S
C1104 C1106 1.378 . S
C1104 C1108 1.350 . S
C1105 C1108 1.463 1_655 S
C1105 C1110 1.350 . S
C1105 N1113 1.427 . S
C1106 H1097 0.930 . S
C1106 C1104 1.378 . S
C1106 C1107 1.367 . S
C1107 C1106 1.367 . S
C1107 C1109 1.433 . S
C1108 C1104 1.350 . S
C1108 C1105 1.463 1_455 S
C1108 N1112 1.427 . S
C1109 H1099 0.929 . S
C1109 C1107 1.433 . S
C1109 N1112 1.384 . S
C1110 H1101 0.929 . S
C1110 C1102 1.378 . S
C1110 C1105 1.350 . S
C1111 H1098 0.929 . S
C1111 C1103 1.433 . S
C1111 N1113 1.384 . S
N1112 C1108 1.427 . S
N1112 C1109 1.384 . S
N1113 C1105 1.427 . S
N1113 C1111 1.384 . S
H1114 C1120 0.930 . S
H1115 C1124 0.930 . S
H1116 C1129 0.929 . S
H1117 C1127 0.929 . S
H1118 C1122 0.929 . S
H1119 C1128 0.929 . S
C1120 H1114 0.930 . S
C1120 C1121 1.367 . S
C1120 C1128 1.378 . S
C1121 C1120 1.367 . S
C1121 C1129 1.433 . S
C1122 H1118 0.929 . S
C1122 C1124 1.378 . S
C1122 C1126 1.350 . S
C1123 C1126 1.463 1_565 S
C1123 C1128 1.350 . S
C1123 N1131 1.427 . S
C1124 H1115 0.930 . S
C1124 C1122 1.378 . S
C1124 C1125 1.367 . S
C1125 C1124 1.367 . S
C1125 C1127 1.433 . S
C1126 C1122 1.350 . S
C1126 C1123 1.463 1_545 S
C1126 N1130 1.427 . S
C1127 H1117 0.929 . S
C1127 C1125 1.433 . S
C1127 N1130 1.384 . S
C1128 H1119 0.929 . S
C1128 C1120 1.378 . S
C1128 C1123 1.350 . S
C1129 H1116 0.929 . S
C1129 C1121 1.433 . S
C1129 N1131 1.384 . S
N1130 C1126 1.427 . S
N1130 C1127 1.384 . S
N1131 C1123 1.427 . S
N1131 C1129 1.384 . S
H1132 C1138 0.930 . S
H1133 C1142 0.930 . S
H1134 C1147 0.929 . S
H1135 C1145 0.929 . S
H1136 C1140 0.929 . S
H1137 C1146 0.929 . S
C1138 H1132 0.930 . S
C1138 C1139 1.367 . S
C1138 C1146 1.378 1_556 S
C1139 C1138 1.367 . S
C1139 C1147 1.433 . S
C1140 H1136 0.929 . S
C1140 C1142 1.378 1_556 S
C1140 C1144 1.350 1_556 S
C1141 C1144 1.463 1_556 S
C1141 C1146 1.350 1_556 S
C1141 N1149 1.427 . S
C1142 H1133 0.930 . S
C1142 C1140 1.378 1_554 S
C1142 C1143 1.367 . S
C1143 C1142 1.367 . S
C1143 C1145 1.433 . S
C1144 C1140 1.350 1_554 S
C1144 C1141 1.463 1_554 S
C1144 N1148 1.427 . S
C1145 H1135 0.929 . S
C1145 C1143 1.433 . S
C1145 N1148 1.384 . S
C1146 H1137 0.929 . S
C1146 C1138 1.378 1_554 S
C1146 C1141 1.350 1_554 S
C1147 H1134 0.929 . S
C1147 C1139 1.433 . S
C1147 N1149 1.384 . S
N1148 C1144 1.427 . S
N1148 C1145 1.384 . S
N1149 C1141 1.427 . S
N1149 C1147 1.384 . S
H1150 C1156 0.930 . S
H1151 C1160 0.930 . S
H1152 C1165 0.929 . S
H1153 C1163 0.929 . S
H1154 C1158 0.929 . S
H1155 C1164 0.929 . S
C1156 H1150 0.930 . S
C1156 C1157 1.367 . S
C1156 C1164 1.378 . S
C1157 C1156 1.367 . S
C1157 C1165 1.433 . S
C1158 H1154 0.929 . S
C1158 C1160 1.378 . S
C1158 C1162 1.350 . S
C1159 C1162 1.463 . S
C1159 C1164 1.350 . S
C1159 N1167 1.427 . S
C1160 H1151 0.930 . S
C1160 C1158 1.378 . S
C1160 C1161 1.367 . S
C1161 C1160 1.367 . S
C1161 C1163 1.433 . S
C1162 C1158 1.350 . S
C1162 C1159 1.463 . S
C1162 N1166 1.427 . S
C1163 H1153 0.929 . S
C1163 C1161 1.433 . S
C1163 N1166 1.384 . S
C1164 H1155 0.929 . S
C1164 C1156 1.378 . S
C1164 C1159 1.350 . S
C1165 H1152 0.929 . S
C1165 C1157 1.433 . S
C1165 N1167 1.384 . S
N1166 C1162 1.427 . S
N1166 C1163 1.384 . S
N1167 C1159 1.427 . S
N1167 C1165 1.384 . S
H1168 C1174 0.930 . S
H1169 C1178 0.930 . S
H1170 C1183 0.929 . S
H1171 C1181 0.929 . S
H1172 C1176 0.929 . S
H1173 C1182 0.929 . S
C1174 H1168 0.930 . S
C1174 C1175 1.367 . S
C1174 C1182 1.378 1_455 S
C1175 C1174 1.367 . S
C1175 C1183 1.433 . S
C1176 H1172 0.929 . S
C1176 C1178 1.378 1_455 S
C1176 C1180 1.350 1_455 S
C1177 C1180 1.463 1_455 S
C1177 C1182 1.350 1_455 S
C1177 N1185 1.427 . S
C1178 H1169 0.930 . S
C1178 C1176 1.378 1_655 S
C1178 C1179 1.367 . S
C1179 C1178 1.367 . S
C1179 C1181 1.433 . S
C1180 C1176 1.350 1_655 S
C1180 C1177 1.463 1_655 S
C1180 N1184 1.427 . S
C1181 H1171 0.929 . S
C1181 C1179 1.433 . S
C1181 N1184 1.384 . S
C1182 H1173 0.929 . S
C1182 C1174 1.378 1_655 S
C1182 C1177 1.350 1_655 S
C1183 H1170 0.929 . S
C1183 C1175 1.433 . S
C1183 N1185 1.384 . S
N1184 C1180 1.427 . S
N1184 C1181 1.384 . S
N1185 C1177 1.427 . S
N1185 C1183 1.384 . S
H1186 C1192 0.930 . S
H1187 C1196 0.930 . S
H1188 C1201 0.929 . S
H1189 C1199 0.929 . S
H1190 C1194 0.929 . S
H1191 C1200 0.929 . S
C1192 H1186 0.930 . S
C1192 C1193 1.367 . S
C1192 C1200 1.378 . S
C1193 C1192 1.367 . S
C1193 C1201 1.433 . S
C1194 H1190 0.929 . S
C1194 C1196 1.378 . S
C1194 C1198 1.350 . S
C1195 C1198 1.463 . S
C1195 C1200 1.350 . S
C1195 N1203 1.427 . S
C1196 H1187 0.930 . S
C1196 C1194 1.378 . S
C1196 C1197 1.367 . S
C1197 C1196 1.367 . S
C1197 C1199 1.433 . S
C1198 C1194 1.350 . S
C1198 C1195 1.463 . S
C1198 N1202 1.427 . S
C1199 H1189 0.929 . S
C1199 C1197 1.433 . S
C1199 N1202 1.384 . S
C1200 H1191 0.929 . S
C1200 C1192 1.378 . S
C1200 C1195 1.350 . S
C1201 H1188 0.929 . S
C1201 C1193 1.433 . S
C1201 N1203 1.384 . S
N1202 C1198 1.427 . S
N1202 C1199 1.384 . S
N1203 C1195 1.427 . S
N1203 C1201 1.384 . S
H1204 C1210 0.930 . S
H1205 C1214 0.930 . S
H1206 C1219 0.929 . S
H1207 C1217 0.929 . S
H1208 C1212 0.929 . S
H1209 C1218 0.929 . S
C1210 H1204 0.930 . S
C1210 C1211 1.367 . S
C1210 C1218 1.378 . S
C1211 C1210 1.367 . S
C1211 C1219 1.433 . S
C1212 H1208 0.929 . S
C1212 C1214 1.378 . S
C1212 C1216 1.350 . S
C1213 C1216 1.463 . S
C1213 C1218 1.350 . S
C1213 N1221 1.427 . S
C1214 H1205 0.930 . S
C1214 C1212 1.378 . S
C1214 C1215 1.367 . S
C1215 C1214 1.367 . S
C1215 C1217 1.433 . S
C1216 C1212 1.350 . S
C1216 C1213 1.463 . S
C1216 N1220 1.427 . S
C1217 H1207 0.929 . S
C1217 C1215 1.433 . S
C1217 N1220 1.384 . S
C1218 H1209 0.929 . S
C1218 C1210 1.378 . S
C1218 C1213 1.350 . S
C1219 H1206 0.929 . S
C1219 C1211 1.433 . S
C1219 N1221 1.384 . S
N1220 C1216 1.427 . S
N1220 C1217 1.384 . S
N1221 C1213 1.427 . S
N1221 C1219 1.384 . S
H1222 C1228 0.930 . S
H1223 C1232 0.930 . S
H1224 C1237 0.929 . S
H1225 C1235 0.929 . S
H1226 C1230 0.929 . S
H1227 C1236 0.929 . S
C1228 H1222 0.930 . S
C1228 C1229 1.367 . S
C1228 C1236 1.378 . S
C1229 C1228 1.367 . S
C1229 C1237 1.433 . S
C1230 H1226 0.929 . S
C1230 C1232 1.378 . S
C1230 C1234 1.350 . S
C1231 C1234 1.463 . S
C1231 C1236 1.350 . S
C1231 N1239 1.427 . S
C1232 H1223 0.930 . S
C1232 C1230 1.378 . S
C1232 C1233 1.367 . S
C1233 C1232 1.367 . S
C1233 C1235 1.433 . S
C1234 C1230 1.350 . S
C1234 C1231 1.463 . S
C1234 N1238 1.427 . S
C1235 H1225 0.929 . S
C1235 C1233 1.433 . S
C1235 N1238 1.384 . S
C1236 H1227 0.929 . S
C1236 C1228 1.378 . S
C1236 C1231 1.350 . S
C1237 H1224 0.929 . S
C1237 C1229 1.433 . S
C1237 N1239 1.384 . S
N1238 C1234 1.427 . S
N1238 C1235 1.384 . S
N1239 C1231 1.427 . S
N1239 C1237 1.384 . S
H1240 C1246 0.930 . S
H1241 C1250 0.930 . S
H1242 C1255 0.929 . S
H1243 C1253 0.929 . S
H1244 C1248 0.929 . S
H1245 C1254 0.929 . S
C1246 H1240 0.930 . S
C1246 C1247 1.367 . S
C1246 C1254 1.378 . S
C1247 C1246 1.367 . S
C1247 C1255 1.433 . S
C1248 H1244 0.929 . S
C1248 C1250 1.378 . S
C1248 C1252 1.350 . S
C1249 C1252 1.463 . S
C1249 C1254 1.350 . S
C1249 N1257 1.427 . S
C1250 H1241 0.930 . S
C1250 C1248 1.378 . S
C1250 C1251 1.367 . S
C1251 C1250 1.367 . S
C1251 C1253 1.433 . S
C1252 C1248 1.350 . S
C1252 C1249 1.463 . S
C1252 N1256 1.427 . S
C1253 H1243 0.929 . S
C1253 C1251 1.433 . S
C1253 N1256 1.384 . S
C1254 H1245 0.929 . S
C1254 C1246 1.378 . S
C1254 C1249 1.350 . S
C1255 H1242 0.929 . S
C1255 C1247 1.433 . S
C1255 N1257 1.384 . S
N1256 C1252 1.427 . S
N1256 C1253 1.384 . S
N1257 C1249 1.427 . S
N1257 C1255 1.384 . S
H1258 C1264 0.930 . S
H1259 C1268 0.930 . S
H1260 C1273 0.929 . S
H1261 C1271 0.929 . S
H1262 C1266 0.929 1_545 S
H1263 C1272 0.929 1_565 S
C1264 H1258 0.930 . S
C1264 C1265 1.367 . S
C1264 C1272 1.378 . S
C1265 C1264 1.367 . S
C1265 C1273 1.433 . S
C1266 H1262 0.929 1_565 S
C1266 C1268 1.378 . S
C1266 C1270 1.350 . S
C1267 C1270 1.463 1_545 S
C1267 C1272 1.350 . S
C1267 N1275 1.427 . S
C1268 H1259 0.930 . S
C1268 C1266 1.378 . S
C1268 C1269 1.367 . S
C1269 C1268 1.367 . S
C1269 C1271 1.433 . S
C1270 C1266 1.350 . S
C1270 C1267 1.463 1_565 S
C1270 N1274 1.427 . S
C1271 H1261 0.929 . S
C1271 C1269 1.433 . S
C1271 N1274 1.384 . S
C1272 H1263 0.929 1_545 S
C1272 C1264 1.378 . S
C1272 C1267 1.350 . S
C1273 H1260 0.929 . S
C1273 C1265 1.433 . S
C1273 N1275 1.384 . S
N1274 C1270 1.427 . S
N1274 C1271 1.384 . S
N1275 C1267 1.427 . S
N1275 C1273 1.384 . S
H1276 C1282 0.930 . S
H1277 C1286 0.930 . S
H1278 C1291 0.929 . S
H1279 C1289 0.929 . S
H1280 C1284 0.929 . S
H1281 C1290 0.929 . S
C1282 H1276 0.930 . S
C1282 C1283 1.367 . S
C1282 C1290 1.378 . S
C1283 C1282 1.367 . S
C1283 C1291 1.433 . S
C1284 H1280 0.929 . S
C1284 C1286 1.378 . S
C1284 C1288 1.350 . S
C1285 C1288 1.463 . S
C1285 C1290 1.350 . S
C1285 N1293 1.427 . S
C1286 H1277 0.930 . S
C1286 C1284 1.378 . S
C1286 C1287 1.367 . S
C1287 C1286 1.367 . S
C1287 C1289 1.433 . S
C1288 C1284 1.350 . S
C1288 C1285 1.463 . S
C1288 N1292 1.427 . S
C1289 H1279 0.929 . S
C1289 C1287 1.433 . S
C1289 N1292 1.384 . S
C1290 H1281 0.929 . S
C1290 C1282 1.378 . S
C1290 C1285 1.350 . S
C1291 H1278 0.929 . S
C1291 C1283 1.433 . S
C1291 N1293 1.384 . S
N1292 C1288 1.427 . S
N1292 C1289 1.384 . S
N1293 C1285 1.427 . S
N1293 C1291 1.384 . S
H1294 C1300 0.930 . S
H1295 C1304 0.930 . S
H1296 C1309 0.929 . S
H1297 C1307 0.929 . S
H1298 C1302 0.929 . S
H1299 C1308 0.929 . S
C1300 H1294 0.930 . S
C1300 C1301 1.367 . S
C1300 C1308 1.378 . S
C1301 C1300 1.367 . S
C1301 C1309 1.433 . S
C1302 H1298 0.929 . S
C1302 C1304 1.378 . S
C1302 C1306 1.350 . S
C1303 C1306 1.463 1_556 S
C1303 C1308 1.350 . S
C1303 N1311 1.427 . S
C1304 H1295 0.930 . S
C1304 C1302 1.378 . S
C1304 C1305 1.367 . S
C1305 C1304 1.367 . S
C1305 C1307 1.433 . S
C1306 C1302 1.350 . S
C1306 C1303 1.463 1_554 S
C1306 N1310 1.427 . S
C1307 H1297 0.929 . S
C1307 C1305 1.433 . S
C1307 N1310 1.384 . S
C1308 H1299 0.929 . S
C1308 C1300 1.378 . S
C1308 C1303 1.350 . S
C1309 H1296 0.929 . S
C1309 C1301 1.433 . S
C1309 N1311 1.384 . S
N1310 C1306 1.427 . S
N1310 C1307 1.384 . S
N1311 C1303 1.427 . S
N1311 C1309 1.384 . S
H1312 C1318 0.930 . S
H1313 C1322 0.930 . S
H1314 C1327 0.929 . S
H1315 C1325 0.929 . S
H1316 C1320 0.929 . S
H1317 C1326 0.929 . S
C1318 H1312 0.930 . S
C1318 C1319 1.367 . S
C1318 C1326 1.378 . S
C1319 C1318 1.367 . S
C1319 C1327 1.433 . S
C1320 H1316 0.929 . S
C1320 C1322 1.378 . S
C1320 C1324 1.350 . S
C1321 C1324 1.463 . S
C1321 C1326 1.350 . S
C1321 N1329 1.427 . S
C1322 H1313 0.930 . S
C1322 C1320 1.378 . S
C1322 C1323 1.367 . S
C1323 C1322 1.367 . S
C1323 C1325 1.433 . S
C1324 C1320 1.350 . S
C1324 C1321 1.463 . S
C1324 N1328 1.427 . S
C1325 H1315 0.929 . S
C1325 C1323 1.433 . S
C1325 N1328 1.384 . S
C1326 H1317 0.929 . S
C1326 C1318 1.378 . S
C1326 C1321 1.350 . S
C1327 H1314 0.929 . S
C1327 C1319 1.433 . S
C1327 N1329 1.384 . S
N1328 C1324 1.427 . S
N1328 C1325 1.384 . S
N1329 C1321 1.427 . S
N1329 C1327 1.384 . S
H1330 C1336 0.930 . S
H1331 C1340 0.930 . S
H1332 C1345 0.929 . S
H1333 C1343 0.929 . S
H1334 C1338 0.929 . S
H1335 C1344 0.929 . S
C1336 H1330 0.930 . S
C1336 C1337 1.367 . S
C1336 C1344 1.378 . S
C1337 C1336 1.367 . S
C1337 C1345 1.433 . S
C1338 H1334 0.929 . S
C1338 C1340 1.378 . S
C1338 C1342 1.350 . S
C1339 C1342 1.463 . S
C1339 C1344 1.350 . S
C1339 N1347 1.427 . S
C1340 H1331 0.930 . S
C1340 C1338 1.378 . S
C1340 C1341 1.367 . S
C1341 C1340 1.367 . S
C1341 C1343 1.433 . S
C1342 C1338 1.350 . S
C1342 C1339 1.463 . S
C1342 N1346 1.427 . S
C1343 H1333 0.929 . S
C1343 C1341 1.433 . S
C1343 N1346 1.384 . S
C1344 H1335 0.929 . S
C1344 C1336 1.378 . S
C1344 C1339 1.350 . S
C1345 H1332 0.929 . S
C1345 C1337 1.433 . S
C1345 N1347 1.384 . S
N1346 C1342 1.427 . S
N1346 C1343 1.384 . S
N1347 C1339 1.427 . S
N1347 C1345 1.384 . S
H1348 C1354 0.930 . S
H1349 C1358 0.930 . S
H1350 C1363 0.929 . S
H1351 C1361 0.929 . S
H1352 C1356 0.929 . S
H1353 C1362 0.929 . S
C1354 H1348 0.930 . S
C1354 C1355 1.367 . S
C1354 C1362 1.378 . S
C1355 C1354 1.367 . S
C1355 C1363 1.433 . S
C1356 H1352 0.929 . S
C1356 C1358 1.378 . S
C1356 C1360 1.350 . S
C1357 C1360 1.463 . S
C1357 C1362 1.350 . S
C1357 N1365 1.427 . S
C1358 H1349 0.930 . S
C1358 C1356 1.378 . S
C1358 C1359 1.367 . S
C1359 C1358 1.367 . S
C1359 C1361 1.433 . S
C1360 C1356 1.350 . S
C1360 C1357 1.463 . S
C1360 N1364 1.427 . S
C1361 H1351 0.929 . S
C1361 C1359 1.433 . S
C1361 N1364 1.384 . S
C1362 H1353 0.929 . S
C1362 C1354 1.378 . S
C1362 C1357 1.350 . S
C1363 H1350 0.929 . S
C1363 C1355 1.433 . S
C1363 N1365 1.384 . S
N1364 C1360 1.427 . S
N1364 C1361 1.384 . S
N1365 C1357 1.427 . S
N1365 C1363 1.384 . S
H1366 C1372 0.930 . S
H1367 C1376 0.930 . S
H1368 C1381 0.929 . S
H1369 C1379 0.929 . S
H1370 C1374 0.929 . S
H1371 C1380 0.929 . S
C1372 H1366 0.930 . S
C1372 C1373 1.367 . S
C1372 C1380 1.378 . S
C1373 C1372 1.367 . S
C1373 C1381 1.433 . S
C1374 H1370 0.929 . S
C1374 C1376 1.378 . S
C1374 C1378 1.350 . S
C1375 C1378 1.463 . S
C1375 C1380 1.350 . S
C1375 N1383 1.427 . S
C1376 H1367 0.930 . S
C1376 C1374 1.378 . S
C1376 C1377 1.367 . S
C1377 C1376 1.367 . S
C1377 C1379 1.433 . S
C1378 C1374 1.350 . S
C1378 C1375 1.463 . S
C1378 N1382 1.427 . S
C1379 H1369 0.929 . S
C1379 C1377 1.433 . S
C1379 N1382 1.384 . S
C1380 H1371 0.929 . S
C1380 C1372 1.378 . S
C1380 C1375 1.350 . S
C1381 H1368 0.929 . S
C1381 C1373 1.433 . S
C1381 N1383 1.384 . S
N1382 C1378 1.427 . S
N1382 C1379 1.384 . S
N1383 C1375 1.427 . S
N1383 C1381 1.384 . S
H1384 C1390 0.930 . S
H1385 C1394 0.930 . S
H1386 C1399 0.929 . S
H1387 C1397 0.929 . S
H1388 C1392 0.929 . S
H1389 C1398 0.929 . S
C1390 H1384 0.930 . S
C1390 C1391 1.367 . S
C1390 C1398 1.378 . S
C1391 C1390 1.367 . S
C1391 C1399 1.433 . S
C1392 H1388 0.929 . S
C1392 C1394 1.378 . S
C1392 C1396 1.350 . S
C1393 C1396 1.463 . S
C1393 C1398 1.350 . S
C1393 N1401 1.427 . S
C1394 H1385 0.930 . S
C1394 C1392 1.378 . S
C1394 C1395 1.367 . S
C1395 C1394 1.367 . S
C1395 C1397 1.433 . S
C1396 C1392 1.350 . S
C1396 C1393 1.463 . S
C1396 N1400 1.427 . S
C1397 H1387 0.929 . S
C1397 C1395 1.433 . S
C1397 N1400 1.384 . S
C1398 H1389 0.929 . S
C1398 C1390 1.378 . S
C1398 C1393 1.350 . S
C1399 H1386 0.929 . S
C1399 C1391 1.433 . S
C1399 N1401 1.384 . S
N1400 C1396 1.427 . S
N1400 C1397 1.384 . S
N1401 C1393 1.427 . S
N1401 C1399 1.384 . S
H1402 C1408 0.930 . S
H1403 C1412 0.930 . S
H1404 C1417 0.929 . S
H1405 C1415 0.929 . S
H1406 C1410 0.929 . S
H1407 C1416 0.929 . S
C1408 H1402 0.930 . S
C1408 C1409 1.367 . S
C1408 C1416 1.378 . S
C1409 C1408 1.367 . S
C1409 C1417 1.433 . S
C1410 H1406 0.929 . S
C1410 C1412 1.378 . S
C1410 C1414 1.350 . S
C1411 C1414 1.463 . S
C1411 C1416 1.350 . S
C1411 N1419 1.427 . S
C1412 H1403 0.930 . S
C1412 C1410 1.378 . S
C1412 C1413 1.367 . S
C1413 C1412 1.367 . S
C1413 C1415 1.433 . S
C1414 C1410 1.350 . S
C1414 C1411 1.463 . S
C1414 N1418 1.427 . S
C1415 H1405 0.929 . S
C1415 C1413 1.433 . S
C1415 N1418 1.384 . S
C1416 H1407 0.929 . S
C1416 C1408 1.378 . S
C1416 C1411 1.350 . S
C1417 H1404 0.929 . S
C1417 C1409 1.433 . S
C1417 N1419 1.384 . S
N1418 C1414 1.427 . S
N1418 C1415 1.384 . S
N1419 C1411 1.427 . S
N1419 C1417 1.384 . S
H1420 C1426 0.930 . S
H1421 C1430 0.930 . S
H1422 C1435 0.929 . S
H1423 C1433 0.929 . S
H1424 C1428 0.929 . S
H1425 C1434 0.929 . S
C1426 H1420 0.930 . S
C1426 C1427 1.367 . S
C1426 C1434 1.378 . S
C1427 C1426 1.367 . S
C1427 C1435 1.433 . S
C1428 H1424 0.929 . S
C1428 C1430 1.378 . S
C1428 C1432 1.350 . S
C1429 C1432 1.463 . S
C1429 C1434 1.350 . S
C1429 N1437 1.427 . S
C1430 H1421 0.930 . S
C1430 C1428 1.378 . S
C1430 C1431 1.367 . S
C1431 C1430 1.367 . S
C1431 C1433 1.433 . S
C1432 C1428 1.350 . S
C1432 C1429 1.463 . S
C1432 N1436 1.427 . S
C1433 H1423 0.929 . S
C1433 C1431 1.433 . S
C1433 N1436 1.384 . S
C1434 H1425 0.929 . S
C1434 C1426 1.378 . S
C1434 C1429 1.350 . S
C1435 H1422 0.929 . S
C1435 C1427 1.433 . S
C1435 N1437 1.384 . S
N1436 C1432 1.427 . S
N1436 C1433 1.384 . S
N1437 C1429 1.427 . S
N1437 C1435 1.384 . S
H1438 C1444 0.930 . S
H1439 C1448 0.930 . S
H1440 C1453 0.929 . S
H1441 C1451 0.929 . S
H1442 C1446 0.929 . S
H1443 C1452 0.929 . S
C1444 H1438 0.930 . S
C1444 C1445 1.367 . S
C1444 C1452 1.378 . S
C1445 C1444 1.367 . S
C1445 C1453 1.433 . S
C1446 H1442 0.929 . S
C1446 C1448 1.378 . S
C1446 C1450 1.350 . S
C1447 C1450 1.463 . S
C1447 C1452 1.350 . S
C1447 N1455 1.427 . S
C1448 H1439 0.930 . S
C1448 C1446 1.378 . S
C1448 C1449 1.367 . S
C1449 C1448 1.367 . S
C1449 C1451 1.433 . S
C1450 C1446 1.350 . S
C1450 C1447 1.463 . S
C1450 N1454 1.427 . S
C1451 H1441 0.929 . S
C1451 C1449 1.433 . S
C1451 N1454 1.384 . S
C1452 H1443 0.929 . S
C1452 C1444 1.378 . S
C1452 C1447 1.350 . S
C1453 H1440 0.929 . S
C1453 C1445 1.433 . S
C1453 N1455 1.384 . S
N1454 C1450 1.427 . S
N1454 C1451 1.384 . S
N1455 C1447 1.427 . S
N1455 C1453 1.384 . S
H1456 C1462 0.930 . S
H1457 C1466 0.930 . S
H1458 C1471 0.929 . S
H1459 C1469 0.929 . S
H1460 C1464 0.929 . S
H1461 C1470 0.929 . S
C1462 H1456 0.930 . S
C1462 C1463 1.367 . S
C1462 C1470 1.378 . S
C1463 C1462 1.367 . S
C1463 C1471 1.433 . S
C1464 H1460 0.929 . S
C1464 C1466 1.378 . S
C1464 C1468 1.350 . S
C1465 C1468 1.463 . S
C1465 C1470 1.350 . S
C1465 N1473 1.427 . S
C1466 H1457 0.930 . S
C1466 C1464 1.378 . S
C1466 C1467 1.367 . S
C1467 C1466 1.367 . S
C1467 C1469 1.433 . S
C1468 C1464 1.350 . S
C1468 C1465 1.463 . S
C1468 N1472 1.427 . S
C1469 H1459 0.929 . S
C1469 C1467 1.433 . S
C1469 N1472 1.384 . S
C1470 H1461 0.929 . S
C1470 C1462 1.378 . S
C1470 C1465 1.350 . S
C1471 H1458 0.929 . S
C1471 C1463 1.433 . S
C1471 N1473 1.384 . S
N1472 C1468 1.427 . S
N1472 C1469 1.384 . S
N1473 C1465 1.427 . S
N1473 C1471 1.384 . S
H1474 C1480 0.930 . S
H1475 C1484 0.930 . S
H1476 C1489 0.929 . S
H1477 C1487 0.929 . S
H1478 C1482 0.929 . S
H1479 C1488 0.929 . S
C1480 H1474 0.930 . S
C1480 C1481 1.367 . S
C1480 C1488 1.378 . S
C1481 C1480 1.367 . S
C1481 C1489 1.433 . S
C1482 H1478 0.929 . S
C1482 C1484 1.378 . S
C1482 C1486 1.350 . S
C1483 C1486 1.463 . S
C1483 C1488 1.350 . S
C1483 N1491 1.427 . S
C1484 H1475 0.930 . S
C1484 C1482 1.378 . S
C1484 C1485 1.367 . S
C1485 C1484 1.367 . S
C1485 C1487 1.433 . S
C1486 C1482 1.350 . S
C1486 C1483 1.463 . S
C1486 N1490 1.427 . S
C1487 H1477 0.929 . S
C1487 C1485 1.433 . S
C1487 N1490 1.384 . S
C1488 H1479 0.929 . S
C1488 C1480 1.378 . S
C1488 C1483 1.350 . S
C1489 H1476 0.929 . S
C1489 C1481 1.433 . S
C1489 N1491 1.384 . S
N1490 C1486 1.427 . S
N1490 C1487 1.384 . S
N1491 C1483 1.427 . S
N1491 C1489 1.384 . S
H1492 C1498 0.930 . S
H1493 C1502 0.930 . S
H1494 C1507 0.929 . S
H1495 C1505 0.929 . S
H1496 C1500 0.929 . S
H1497 C1506 0.929 . S
C1498 H1492 0.930 . S
C1498 C1499 1.367 . S
C1498 C1506 1.378 . S
C1499 C1498 1.367 . S
C1499 C1507 1.433 . S
C1500 H1496 0.929 . S
C1500 C1502 1.378 . S
C1500 C1504 1.350 . S
C1501 C1504 1.463 . S
C1501 C1506 1.350 . S
C1501 N1509 1.427 . S
C1502 H1493 0.930 . S
C1502 C1500 1.378 . S
C1502 C1503 1.367 . S
C1503 C1502 1.367 . S
C1503 C1505 1.433 . S
C1504 C1500 1.350 . S
C1504 C1501 1.463 . S
C1504 N1508 1.427 . S
C1505 H1495 0.929 . S
C1505 C1503 1.433 . S
C1505 N1508 1.384 . S
C1506 H1497 0.929 . S
C1506 C1498 1.378 . S
C1506 C1501 1.350 . S
C1507 H1494 0.929 . S
C1507 C1499 1.433 . S
C1507 N1509 1.384 . S
N1508 C1504 1.427 . S
N1508 C1505 1.384 . S
N1509 C1501 1.427 . S
N1509 C1507 1.384 . S
H1510 C1516 0.930 . S
H1511 C1520 0.930 . S
H1512 C1525 0.929 . S
H1513 C1523 0.929 . S
H1514 C1518 0.929 . S
H1515 C1524 0.929 . S
C1516 H1510 0.930 . S
C1516 C1517 1.367 . S
C1516 C1524 1.378 . S
C1517 C1516 1.367 . S
C1517 C1525 1.433 . S
C1518 H1514 0.929 . S
C1518 C1520 1.378 . S
C1518 C1522 1.350 . S
C1519 C1522 1.463 . S
C1519 C1524 1.350 . S
C1519 N1527 1.427 . S
C1520 H1511 0.930 . S
C1520 C1518 1.378 . S
C1520 C1521 1.367 . S
C1521 C1520 1.367 . S
C1521 C1523 1.433 . S
C1522 C1518 1.350 . S
C1522 C1519 1.463 . S
C1522 N1526 1.427 . S
C1523 H1513 0.929 . S
C1523 C1521 1.433 . S
C1523 N1526 1.384 . S
C1524 H1515 0.929 . S
C1524 C1516 1.378 . S
C1524 C1519 1.350 . S
C1525 H1512 0.929 . S
C1525 C1517 1.433 . S
C1525 N1527 1.384 . S
N1526 C1522 1.427 . S
N1526 C1523 1.384 . S
N1527 C1519 1.427 . S
N1527 C1525 1.384 . S
H1528 C1534 0.930 . S
H1529 C1538 0.930 . S
H1530 C1543 0.929 . S
H1531 C1541 0.929 . S
H1532 C1536 0.929 . S
H1533 C1542 0.929 . S
C1534 H1528 0.930 . S
C1534 C1535 1.367 . S
C1534 C1542 1.378 . S
C1535 C1534 1.367 . S
C1535 C1543 1.433 . S
C1536 H1532 0.929 . S
C1536 C1538 1.378 . S
C1536 C1540 1.350 . S
C1537 C1540 1.463 . S
C1537 C1542 1.350 . S
C1537 N1545 1.427 . S
C1538 H1529 0.930 . S
C1538 C1536 1.378 . S
C1538 C1539 1.367 . S
C1539 C1538 1.367 . S
C1539 C1541 1.433 . S
C1540 C1536 1.350 . S
C1540 C1537 1.463 . S
C1540 N1544 1.427 . S
C1541 H1531 0.929 . S
C1541 C1539 1.433 . S
C1541 N1544 1.384 . S
C1542 H1533 0.929 . S
C1542 C1534 1.378 . S
C1542 C1537 1.350 . S
C1543 H1530 0.929 . S
C1543 C1535 1.433 . S
C1543 N1545 1.384 . S
N1544 C1540 1.427 . S
N1544 C1541 1.384 . S
N1545 C1537 1.427 . S
N1545 C1543 1.384 . S
H1546 C1552 0.930 . S
H1547 C1556 0.930 . S
H1548 C1561 0.929 . S
H1549 C1559 0.929 . S
H1550 C1554 0.929 . S
H1551 C1560 0.929 . S
C1552 H1546 0.930 . S
C1552 C1553 1.367 . S
C1552 C1560 1.378 . S
C1553 C1552 1.367 . S
C1553 C1561 1.433 . S
C1554 H1550 0.929 . S
C1554 C1556 1.378 . S
C1554 C1558 1.350 . S
C1555 C1558 1.463 . S
C1555 C1560 1.350 . S
C1555 N1563 1.427 . S
C1556 H1547 0.930 . S
C1556 C1554 1.378 . S
C1556 C1557 1.367 . S
C1557 C1556 1.367 . S
C1557 C1559 1.433 . S
C1558 C1554 1.350 . S
C1558 C1555 1.463 . S
C1558 N1562 1.427 . S
C1559 H1549 0.929 . S
C1559 C1557 1.433 . S
C1559 N1562 1.384 . S
C1560 H1551 0.929 . S
C1560 C1552 1.378 . S
C1560 C1555 1.350 . S
C1561 H1548 0.929 . S
C1561 C1553 1.433 . S
C1561 N1563 1.384 . S
N1562 C1558 1.427 . S
N1562 C1559 1.384 . S
N1563 C1555 1.427 . S
N1563 C1561 1.384 . S
H1564 C1570 0.930 . S
H1565 C1574 0.930 . S
H1566 C1579 0.929 . S
H1567 C1577 0.929 . S
H1568 C1572 0.929 . S
H1569 C1578 0.929 . S
C1570 H1564 0.930 . S
C1570 C1571 1.367 . S
C1570 C1578 1.378 . S
C1571 C1570 1.367 . S
C1571 C1579 1.433 . S
C1572 H1568 0.929 . S
C1572 C1574 1.378 . S
C1572 C1576 1.350 . S
C1573 C1576 1.463 . S
C1573 C1578 1.350 . S
C1573 N1581 1.427 . S
C1574 H1565 0.930 . S
C1574 C1572 1.378 . S
C1574 C1575 1.367 . S
C1575 C1574 1.367 . S
C1575 C1577 1.433 . S
C1576 C1572 1.350 . S
C1576 C1573 1.463 . S
C1576 N1580 1.427 . S
C1577 H1567 0.929 . S
C1577 C1575 1.433 . S
C1577 N1580 1.384 . S
C1578 H1569 0.929 . S
C1578 C1570 1.378 . S
C1578 C1573 1.350 . S
C1579 H1566 0.929 . S
C1579 C1571 1.433 . S
C1579 N1581 1.384 . S
N1580 C1576 1.427 . S
N1580 C1577 1.384 . S
N1581 C1573 1.427 . S
N1581 C1579 1.384 . S
H1582 C1588 0.930 . S
H1583 C1592 0.930 . S
H1584 C1597 0.929 . S
H1585 C1595 0.929 . S
H1586 C1590 0.929 . S
H1587 C1596 0.929 . S
C1588 H1582 0.930 . S
C1588 C1589 1.367 . S
C1588 C1596 1.378 . S
C1589 C1588 1.367 . S
C1589 C1597 1.433 . S
C1590 H1586 0.929 . S
C1590 C1592 1.378 . S
C1590 C1594 1.350 . S
C1591 C1594 1.463 . S
C1591 C1596 1.350 . S
C1591 N1599 1.427 . S
C1592 H1583 0.930 . S
C1592 C1590 1.378 . S
C1592 C1593 1.367 . S
C1593 C1592 1.367 . S
C1593 C1595 1.433 . S
C1594 C1590 1.350 . S
C1594 C1591 1.463 . S
C1594 N1598 1.427 . S
C1595 H1585 0.929 . S
C1595 C1593 1.433 . S
C1595 N1598 1.384 . S
C1596 H1587 0.929 . S
C1596 C1588 1.378 . S
C1596 C1591 1.350 . S
C1597 H1584 0.929 . S
C1597 C1589 1.433 . S
C1597 N1599 1.384 . S
N1598 C1594 1.427 . S
N1598 C1595 1.384 . S
N1599 C1591 1.427 . S
N1599 C1597 1.384 . S
C455 C153 1.224 . S
C459 C13 1.226 . S
C473 C27 1.218 . S
C477 C167 1.227 . S
C491 C41 1.227 . S
C495 C125 1.221 . S
C509 C139 1.227 . S
C513 C55 1.219 . S
C527 C209 1.215 . S
C531 C69 1.214 . S
C545 C83 1.219 . S
C549 C223 1.211 . S
C563 C181 1.223 . S
C567 C97 1.226 . S
C581 C195 1.220 . S
C585 C111 1.227 . S
C599 C377 1.228 . S
C603 C237 1.219 . S
C617 C391 1.222 . S
C621 C251 1.211 . S
C635 C349 1.212 . S
C639 C265 1.217 . S
C653 C279 1.222 . S
C657 C363 1.226 . S
C671 C433 1.211 . S
C675 C293 1.222 . S
C689 C447 1.227 . S
C693 C307 1.219 . S
C707 C321 1.224 . S
C711 C405 1.225 . S
C725 C335 1.217 . S
C729 C419 1.212 . S
C743 C277 1.474 . S
C747 C11 1.473 . S
C761 C25 1.474 1_655 S
C765 C263 1.475 . S
C779 C249 1.475 . S
C783 C39 1.474 . S
C797 C235 1.472 . S
C801 C53 1.473 1_655 S
C815 C67 1.472 . S
C819 C333 1.472 . S
C833 C81 1.473 1_455 S
C837 C319 1.474 . S
C851 C305 1.472 . S
C855 C95 1.473 . S
C869 C109 1.475 1_455 S
C873 C291 1.474 . S
C887 C389 1.475 . S
C891 C123 1.474 . S
C905 C375 1.473 . S
C909 C137 1.473 1_655 S
C923 C361 1.475 . S
C927 C151 1.476 . S
C941 C347 1.474 . S
C945 C165 1.473 1_655 S
C959 C179 1.473 . S
C963 C445 1.472 . S
C977 C431 1.475 . S
C981 C193 1.475 1_455 S
C995 C207 1.475 . S
C999 C417 1.475 . S
C1013 C221 1.473 1_455 S
C1017 C403 1.474 . S
C1031 C175 1.199 . S
C1035 C7 1.199 . S
C1049 C21 1.200 . S
C1053 C301 1.200 . S
C1067 C91 1.199 . S
C1071 C35 1.199 . S
C1085 C441 1.202 . S
C1089 C49 1.202 . S
C1103 C63 1.179 . S
C1107 C119 1.179 . S
C1121 C245 1.179 . S
C1125 C77 1.179 . S
C1139 C385 1.180 . S
C1143 C105 1.180 . S
C1157 C413 1.182 . S
C1161 C133 1.182 . S
C1175 C147 1.202 . S
C1179 C203 1.202 . S
C1193 C329 1.202 . S
C1197 C161 1.202 . S
C1211 C357 1.190 . S
C1215 C189 1.190 . S
C1229 C217 1.179 . S
C1233 C273 1.179 . S
C1247 C231 1.181 . S
C1251 C399 1.181 . S
C1265 C315 1.203 . S
C1269 C259 1.203 . S
C1283 C343 1.181 . S
C1287 C287 1.181 . S
C1301 C371 1.200 . S
C1305 C427 1.200 . S
C1319 C8 0.934 . S
C1323 C50 0.941 . S
C1337 C36 0.941 . S
C1341 C22 0.936 . S
C1355 C64 0.937 . S
C1359 C106 0.928 . S
C1373 C78 0.928 . S
C1377 C92 0.933 . S
C1391 C120 0.937 . S
C1395 C162 0.928 . S
C1409 C134 0.936 . S
C1413 C148 0.928 . S
C1427 C176 0.941 . S
C1431 C218 0.933 . S
C1445 C204 0.928 . S
C1449 C190 0.936 . S
C1463 C274 0.932 . S
C1467 C232 0.941 . S
C1481 C260 0.933 . S
C1485 C246 0.941 . S
C1499 C330 0.928 . S
C1503 C288 0.937 . S
C1517 C316 0.940 . S
C1521 C302 0.938 . S
C1535 C386 0.937 . S
C1539 C344 0.928 . S
C1553 C372 0.934 . S
C1557 C358 0.928 . S
C1571 C400 0.941 . S
C1575 C442 0.931 . S
C1589 C428 0.942 . S
C1593 C414 0.934 . S
