# Generated by pormake.
# Topology wkr, (6)-cn, num edge types: 1
# Building blocks:
#     Node 0, Type 0, BuildingBlock: VOLQOD_clean_sbu_1, # of connection points: 6
#     Node 1, Type 0, BuildingBlock: VOLQOD_clean_sbu_1, # of connection points: 6
#     Node 2, Type 0, BuildingBlock: VOLQOD_clean_sbu_1, # of connection points: 6
#     Node 3, Type 0, BuildingBlock: VOLQOD_clean_sbu_1, # of connection points: 6
#     Node 4, Type 0, BuildingBlock: VOLQOD_clean_sbu_1, # of connection points: 6
#     Node 5, Type 0, BuildingBlock: VOLQOD_clean_sbu_1, # of connection points: 6
#     Node 6, Type 0, BuildingBlock: VOLQOD_clean_sbu_1, # of connection points: 6
#     Node 7, Type 0, BuildingBlock: VOLQOD_clean_sbu_1, # of connection points: 6
#     Node 8, Type 0, BuildingBlock: VOLQOD_clean_sbu_1, # of connection points: 6
#     Node 9, Type 0, BuildingBlock: VOLQOD_clean_sbu_1, # of connection points: 6
#     Node 10, Type 0, BuildingBlock: VOLQOD_clean_sbu_1, # of connection points: 6
#     Node 11, Type 0, BuildingBlock: VOLQOD_clean_sbu_1, # of connection points: 6
#     Node 12, Type 0, BuildingBlock: VOLQOD_clean_sbu_1, # of connection points: 6
#     Node 13, Type 0, BuildingBlock: VOLQOD_clean_sbu_1, # of connection points: 6
#     Node 14, Type 0, BuildingBlock: VOLQOD_clean_sbu_1, # of connection points: 6
#     Node 15, Type 0, BuildingBlock: VOLQOD_clean_sbu_1, # of connection points: 6
#     Node 16, Type 0, BuildingBlock: VOLQOD_clean_sbu_1, # of connection points: 6
#     Node 17, Type 0, BuildingBlock: VOLQOD_clean_sbu_1, # of connection points: 6
#     Node 18, Type 0, BuildingBlock: VOLQOD_clean_sbu_1, # of connection points: 6
#     Node 19, Type 0, BuildingBlock: VOLQOD_clean_sbu_1, # of connection points: 6
#     Node 20, Type 0, BuildingBlock: VOLQOD_clean_sbu_1, # of connection points: 6
#     Node 21, Type 0, BuildingBlock: VOLQOD_clean_sbu_1, # of connection points: 6
#     Node 22, Type 0, BuildingBlock: VOLQOD_clean_sbu_1, # of connection points: 6
#     Node 23, Type 0, BuildingBlock: VOLQOD_clean_sbu_1, # of connection points: 6
#     Edge 24, Type (0, 0), BuildingBlock: XIVTED_clean_linker_0, # of connection points: 2
#     Edge 25, Type (0, 0), BuildingBlock: XIVTED_clean_linker_0, # of connection points: 2
#     Edge 26, Type (0, 0), BuildingBlock: XIVTED_clean_linker_0, # of connection points: 2
#     Edge 27, Type (0, 0), BuildingBlock: XIVTED_clean_linker_0, # of connection points: 2
#     Edge 28, Type (0, 0), BuildingBlock: XIVTED_clean_linker_0, # of connection points: 2
#     Edge 29, Type (0, 0), BuildingBlock: XIVTED_clean_linker_0, # of connection points: 2
#     Edge 30, Type (0, 0), BuildingBlock: XIVTED_clean_linker_0, # of connection points: 2
#     Edge 31, Type (0, 0), BuildingBlock: XIVTED_clean_linker_0, # of connection points: 2
#     Edge 32, Type (0, 0), BuildingBlock: XIVTED_clean_linker_0, # of connection points: 2
#     Edge 33, Type (0, 0), BuildingBlock: XIVTED_clean_linker_0, # of connection points: 2
#     Edge 34, Type (0, 0), BuildingBlock: XIVTED_clean_linker_0, # of connection points: 2
#     Edge 35, Type (0, 0), BuildingBlock: XIVTED_clean_linker_0, # of connection points: 2
#     Edge 36, Type (0, 0), BuildingBlock: XIVTED_clean_linker_0, # of connection points: 2
#     Edge 37, Type (0, 0), BuildingBlock: XIVTED_clean_linker_0, # of connection points: 2
#     Edge 38, Type (0, 0), BuildingBlock: XIVTED_clean_linker_0, # of connection points: 2
#     Edge 39, Type (0, 0), BuildingBlock: XIVTED_clean_linker_0, # of connection points: 2
#     Edge 40, Type (0, 0), BuildingBlock: XIVTED_clean_linker_0, # of connection points: 2
#     Edge 41, Type (0, 0), BuildingBlock: XIVTED_clean_linker_0, # of connection points: 2
#     Edge 42, Type (0, 0), BuildingBlock: XIVTED_clean_linker_0, # of connection points: 2
#     Edge 43, Type (0, 0), BuildingBlock: XIVTED_clean_linker_0, # of connection points: 2
#     Edge 44, Type (0, 0), BuildingBlock: XIVTED_clean_linker_0, # of connection points: 2
#     Edge 45, Type (0, 0), BuildingBlock: XIVTED_clean_linker_0, # of connection points: 2
#     Edge 46, Type (0, 0), BuildingBlock: XIVTED_clean_linker_0, # of connection points: 2
#     Edge 47, Type (0, 0), BuildingBlock: XIVTED_clean_linker_0, # of connection points: 2
#     Edge 48, Type (0, 0), BuildingBlock: XIVTED_clean_linker_0, # of connection points: 2
#     Edge 49, Type (0, 0), BuildingBlock: XIVTED_clean_linker_0, # of connection points: 2
#     Edge 50, Type (0, 0), BuildingBlock: XIVTED_clean_linker_0, # of connection points: 2
#     Edge 51, Type (0, 0), BuildingBlock: XIVTED_clean_linker_0, # of connection points: 2
#     Edge 52, Type (0, 0), BuildingBlock: XIVTED_clean_linker_0, # of connection points: 2
#     Edge 53, Type (0, 0), BuildingBlock: XIVTED_clean_linker_0, # of connection points: 2
#     Edge 54, Type (0, 0), BuildingBlock: XIVTED_clean_linker_0, # of connection points: 2
#     Edge 55, Type (0, 0), BuildingBlock: XIVTED_clean_linker_0, # of connection points: 2
#     Edge 56, Type (0, 0), BuildingBlock: XIVTED_clean_linker_0, # of connection points: 2
#     Edge 57, Type (0, 0), BuildingBlock: XIVTED_clean_linker_0, # of connection points: 2
#     Edge 58, Type (0, 0), BuildingBlock: XIVTED_clean_linker_0, # of connection points: 2
#     Edge 59, Type (0, 0), BuildingBlock: XIVTED_clean_linker_0, # of connection points: 2
#     Edge 60, Type (0, 0), BuildingBlock: XIVTED_clean_linker_0, # of connection points: 2
#     Edge 61, Type (0, 0), BuildingBlock: XIVTED_clean_linker_0, # of connection points: 2
#     Edge 62, Type (0, 0), BuildingBlock: XIVTED_clean_linker_0, # of connection points: 2
#     Edge 63, Type (0, 0), BuildingBlock: XIVTED_clean_linker_0, # of connection points: 2
#     Edge 64, Type (0, 0), BuildingBlock: XIVTED_clean_linker_0, # of connection points: 2
#     Edge 65, Type (0, 0), BuildingBlock: XIVTED_clean_linker_0, # of connection points: 2
#     Edge 66, Type (0, 0), BuildingBlock: XIVTED_clean_linker_0, # of connection points: 2
#     Edge 67, Type (0, 0), BuildingBlock: XIVTED_clean_linker_0, # of connection points: 2
#     Edge 68, Type (0, 0), BuildingBlock: XIVTED_clean_linker_0, # of connection points: 2
#     Edge 69, Type (0, 0), BuildingBlock: XIVTED_clean_linker_0, # of connection points: 2
#     Edge 70, Type (0, 0), BuildingBlock: XIVTED_clean_linker_0, # of connection points: 2
#     Edge 71, Type (0, 0), BuildingBlock: XIVTED_clean_linker_0, # of connection points: 2
#     Edge 72, Type (0, 0), BuildingBlock: XIVTED_clean_linker_0, # of connection points: 2
#     Edge 73, Type (0, 0), BuildingBlock: XIVTED_clean_linker_0, # of connection points: 2
#     Edge 74, Type (0, 0), BuildingBlock: XIVTED_clean_linker_0, # of connection points: 2
#     Edge 75, Type (0, 0), BuildingBlock: XIVTED_clean_linker_0, # of connection points: 2
#     Edge 76, Type (0, 0), BuildingBlock: XIVTED_clean_linker_0, # of connection points: 2
#     Edge 77, Type (0, 0), BuildingBlock: XIVTED_clean_linker_0, # of connection points: 2
#     Edge 78, Type (0, 0), BuildingBlock: XIVTED_clean_linker_0, # of connection points: 2
#     Edge 79, Type (0, 0), BuildingBlock: XIVTED_clean_linker_0, # of connection points: 2
#     Edge 80, Type (0, 0), BuildingBlock: XIVTED_clean_linker_0, # of connection points: 2
#     Edge 81, Type (0, 0), BuildingBlock: XIVTED_clean_linker_0, # of connection points: 2
#     Edge 82, Type (0, 0), BuildingBlock: XIVTED_clean_linker_0, # of connection points: 2
#     Edge 83, Type (0, 0), BuildingBlock: XIVTED_clean_linker_0, # of connection points: 2
#     Edge 84, Type (0, 0), BuildingBlock: XIVTED_clean_linker_0, # of connection points: 2
#     Edge 85, Type (0, 0), BuildingBlock: XIVTED_clean_linker_0, # of connection points: 2
#     Edge 86, Type (0, 0), BuildingBlock: XIVTED_clean_linker_0, # of connection points: 2
#     Edge 87, Type (0, 0), BuildingBlock: XIVTED_clean_linker_0, # of connection points: 2
#     Edge 88, Type (0, 0), BuildingBlock: XIVTED_clean_linker_0, # of connection points: 2
#     Edge 89, Type (0, 0), BuildingBlock: XIVTED_clean_linker_0, # of connection points: 2
#     Edge 90, Type (0, 0), BuildingBlock: XIVTED_clean_linker_0, # of connection points: 2
#     Edge 91, Type (0, 0), BuildingBlock: XIVTED_clean_linker_0, # of connection points: 2
#     Edge 92, Type (0, 0), BuildingBlock: XIVTED_clean_linker_0, # of connection points: 2
#     Edge 93, Type (0, 0), BuildingBlock: XIVTED_clean_linker_0, # of connection points: 2
#     Edge 94, Type (0, 0), BuildingBlock: XIVTED_clean_linker_0, # of connection points: 2
#     Edge 95, Type (0, 0), BuildingBlock: XIVTED_clean_linker_0, # of connection points: 2
# Relax obj value: 0.731
# Max RMSD: 0.278
# Mean RMSD: 0.278
data_MOF--net-wkr--node1-VOLQOD_clean_sbu_1--edge1-XIVTED_clean_linker_0
_symmetry_space_group_name_H-M    P1
_symmetry_Int_Tables_number       1
_symmetry_cell_setting            triclinic
loop_
_symmetry_equiv_pos_as_xyz
'x, y, z'
_cell_length_a     52.157031
_cell_length_b     52.110772
_cell_length_c     53.304659
_cell_angle_alpha  89.978576
_cell_angle_beta   90.035255
_cell_angle_gamma 120.08066
loop_
_atom_site_label
_atom_site_type_symbol
_atom_site_fract_x
_atom_site_fract_y
_atom_site_fract_z
_atom_type_partial_charge
O0 O 0.48206 0.10213 0.16589 0.0
Zn1 Zn 0.47514 0.13696 0.15432 0.0
O2 O 0.51382 0.17165 0.14415 0.0
Zn3 Zn 0.51843 0.20809 0.15843 0.0
Zn4 Zn 0.54571 0.16613 0.15633 0.0
Zn5 Zn 0.51901 0.17777 0.10767 0.0
O6 O 0.52073 0.23672 0.13237 0.0
O7 O 0.52305 0.21664 0.09641 0.0
O8 O 0.45576 0.15076 0.18302 0.0
O9 O 0.48466 0.19974 0.18025 0.0
O10 O 0.55394 0.22833 0.18115 0.0
O11 O 0.56967 0.19585 0.18264 0.0
O12 O 0.57398 0.17154 0.12925 0.0
O13 O 0.44932 0.12172 0.12177 0.0
O14 O 0.55561 0.17828 0.09403 0.0
O15 O 0.48263 0.14611 0.09152 0.0
C16 C 0.50597 0.10154 0.17036 0.0
C17 C 0.5227 0.2374 0.1086 0.0
C18 C 0.57145 0.22005 0.1896 0.0
C19 C 0.46239 0.1772 0.18958 0.0
C20 C 0.57546 0.17568 0.10571 0.0
C21 C 0.4567 0.12674 0.09853 0.0
O22 O 0.5311 0.12496 0.16835 0.0
O23 O 0.38304 0.47598 0.16441 0.0
Zn24 Zn 0.34105 0.46911 0.15358 0.0
O25 O 0.34497 0.50774 0.14325 0.0
Zn26 Zn 0.31442 0.5133 0.15895 0.0
Zn27 Zn 0.38341 0.53976 0.15371 0.0
Zn28 Zn 0.34162 0.51194 0.10687 0.0
O29 O 0.28688 0.51549 0.13425 0.0
O30 O 0.30632 0.51598 0.0972 0.0
O31 O 0.30866 0.45029 0.18298 0.0
O32 O 0.2898 0.4803 0.18182 0.0
O33 O 0.33156 0.54961 0.18067 0.0
O34 O 0.37975 0.56522 0.17985 0.0
O35 O 0.40496 0.5668 0.1255 0.0
O36 O 0.32949 0.44276 0.12125 0.0
O37 O 0.37697 0.54809 0.0917 0.0
O38 O 0.33602 0.47521 0.09085 0.0
C39 C 0.40798 0.49985 0.16786 0.0
C40 C 0.28639 0.51659 0.11046 0.0
C41 C 0.35793 0.56745 0.18774 0.0
C42 C 0.28982 0.45771 0.19062 0.0
C43 C 0.40056 0.56783 0.1022 0.0
C44 C 0.33036 0.44958 0.09798 0.0
O45 O 0.4101 0.52509 0.1652 0.0
O46 O 0.91677 0.384 0.16865 0.0
Zn47 Zn 0.88224 0.34183 0.15744 0.0
O48 O 0.84722 0.34505 0.147 0.0
Zn49 Zn 0.81118 0.31355 0.16216 0.0
Zn50 Zn 0.85276 0.38301 0.15785 0.0
Zn51 Zn 0.84012 0.34227 0.11061 0.0
O52 O 0.78232 0.28565 0.13706 0.0
O53 O 0.8012 0.30661 0.10038 0.0
O54 O 0.86902 0.30956 0.18687 0.0
O55 O 0.82001 0.28949 0.18524 0.0
O56 O 0.79078 0.32952 0.18363 0.0
O57 O 0.82266 0.378 0.18348 0.0
O58 O 0.84763 0.405 0.12979 0.0
O59 O 0.89749 0.33077 0.12513 0.0
O60 O 0.83904 0.37755 0.09574 0.0
O61 O 0.87181 0.33763 0.09474 0.0
C62 C 0.9172 0.40853 0.17266 0.0
C63 C 0.78095 0.28582 0.11328 0.0
C64 C 0.79864 0.35567 0.1909 0.0
C65 C 0.84281 0.29021 0.19432 0.0
C66 C 0.84256 0.40091 0.10642 0.0
C67 C 0.89182 0.33208 0.10185 0.0
O68 O 0.89377 0.41008 0.17015 0.0
O69 O 0.535 0.90951 0.16504 0.0
Zn70 Zn 0.54194 0.87455 0.15363 0.0
O71 O 0.50347 0.84005 0.14245 0.0
Zn72 Zn 0.49731 0.80351 0.15781 0.0
Zn73 Zn 0.47127 0.8463 0.15236 0.0
Zn74 Zn 0.50016 0.83331 0.10597 0.0
O75 O 0.49493 0.7739 0.13282 0.0
O76 O 0.49624 0.79411 0.09591 0.0
O77 O 0.56018 0.8602 0.18293 0.0
O78 O 0.53025 0.81135 0.18049 0.0
O79 O 0.46117 0.78459 0.1798 0.0
O80 O 0.44544 0.81704 0.17828 0.0
O81 O 0.44499 0.84169 0.12373 0.0
O82 O 0.56899 0.89007 0.12175 0.0
O83 O 0.46452 0.83286 0.09026 0.0
O84 O 0.53722 0.86488 0.09072 0.0
C85 C 0.511 0.91036 0.1681 0.0
C86 C 0.49474 0.77303 0.10901 0.0
C87 C 0.44329 0.79315 0.1866 0.0
C88 C 0.55272 0.83364 0.18986 0.0
C89 C 0.44469 0.83676 0.1004 0.0
C90 C 0.56268 0.88469 0.09835 0.0
O91 O 0.48592 0.88733 0.16452 0.0
O92 O 0.63049 0.53113 0.16328 0.0
Zn93 Zn 0.67249 0.53813 0.15215 0.0
O94 O 0.66858 0.49961 0.14116 0.0
Zn95 Zn 0.6983 0.4931 0.15725 0.0
Zn96 Zn 0.62969 0.46743 0.15044 0.0
Zn97 Zn 0.67316 0.49642 0.10481 0.0
O98 O 0.72641 0.49121 0.13305 0.0
O99 O 0.70874 0.49267 0.09563 0.0
O100 O 0.70512 0.55673 0.1815 0.0
O101 O 0.72278 0.52575 0.18039 0.0
O102 O 0.68027 0.45631 0.17842 0.0
O103 O 0.63219 0.44084 0.17617 0.0
O104 O 0.60883 0.44149 0.12145 0.0
O105 O 0.68406 0.565 0.12013 0.0
O106 O 0.63831 0.46075 0.08857 0.0
O107 O 0.67931 0.5336 0.08937 0.0
C108 C 0.6054 0.5072 0.1659 0.0
C109 C 0.72793 0.49119 0.10928 0.0
C110 C 0.65361 0.43827 0.18462 0.0
C111 C 0.72353 0.54873 0.18916 0.0
C112 C 0.61416 0.44098 0.09829 0.0
C113 C 0.68427 0.55888 0.09681 0.0
O114 O 0.60311 0.48205 0.16218 0.0
O115 O 0.1063 0.63228 0.16988 0.0
Zn116 Zn 0.14097 0.6743 0.15854 0.0
O117 O 0.17562 0.67057 0.14783 0.0
Zn118 Zn 0.21199 0.70204 0.1625 0.0
Zn119 Zn 0.17 0.63269 0.15899 0.0
Zn120 Zn 0.18211 0.67283 0.11136 0.0
O121 O 0.2407 0.72924 0.137 0.0
O122 O 0.22108 0.70799 0.1006 0.0
O123 O 0.15484 0.70699 0.18774 0.0
O124 O 0.20374 0.72683 0.18515 0.0
O125 O 0.23234 0.68617 0.1842 0.0
O126 O 0.20031 0.63774 0.1845 0.0
O127 O 0.17436 0.61016 0.13097 0.0
O128 O 0.12553 0.68538 0.12635 0.0
O129 O 0.18211 0.63694 0.09659 0.0
O130 O 0.15073 0.67817 0.09579 0.0
C131 C 0.10572 0.6077 0.17399 0.0
C132 C 0.2417 0.72878 0.11321 0.0
C133 C 0.22444 0.6601 0.19173 0.0
C134 C 0.18127 0.72651 0.19458 0.0
C135 C 0.17867 0.61371 0.10749 0.0
C136 C 0.13102 0.68408 0.10304 0.0
O137 O 0.12906 0.60598 0.17155 0.0
O138 O 0.91397 0.53715 0.36212 0.0
Zn139 Zn 0.87914 0.54441 0.37302 0.0
O140 O 0.84416 0.50601 0.38371 0.0
Zn141 Zn 0.80811 0.49997 0.36743 0.0
Zn142 Zn 0.85065 0.4737 0.37448 0.0
Zn143 Zn 0.83602 0.50266 0.41997 0.0
O144 O 0.77829 0.49893 0.39145 0.0
O145 O 0.79652 0.49856 0.42888 0.0
O146 O 0.86563 0.56296 0.34336 0.0
O147 O 0.81681 0.53224 0.34366 0.0
O148 O 0.78876 0.46279 0.34681 0.0
O149 O 0.82093 0.4468 0.34927 0.0
O150 O 0.84618 0.44819 0.40365 0.0
O151 O 0.89431 0.57127 0.40509 0.0
O152 O 0.83568 0.46737 0.4364 0.0
O153 O 0.86661 0.53992 0.4355 0.0
C154 C 0.91481 0.51313 0.359 0.0
C155 C 0.77635 0.49811 0.41521 0.0
C156 C 0.79696 0.44437 0.3409 0.0
C157 C 0.83944 0.55501 0.33511 0.0
C158 C 0.84044 0.44781 0.42681 0.0
C159 C 0.88729 0.56516 0.42831 0.0
O160 O 0.8917 0.48802 0.3623 0.0
O161 O 0.38765 0.91325 0.36591 0.0
Zn162 Zn 0.34569 0.87821 0.37711 0.0
O163 O 0.34949 0.8434 0.38736 0.0
Zn164 Zn 0.31852 0.80724 0.37199 0.0
Zn165 Zn 0.38754 0.84944 0.37638 0.0
Zn166 Zn 0.34679 0.83615 0.42377 0.0
O167 O 0.29151 0.77753 0.39698 0.0
O168 O 0.31133 0.79695 0.43386 0.0
O169 O 0.31289 0.86465 0.34804 0.0
O170 O 0.29338 0.8157 0.34998 0.0
O171 O 0.33487 0.78813 0.34933 0.0
O172 O 0.38316 0.82049 0.34978 0.0
O173 O 0.4094 0.8437 0.40419 0.0
O174 O 0.33461 0.89315 0.40957 0.0
O175 O 0.38219 0.83508 0.43839 0.0
O176 O 0.34194 0.86771 0.43991 0.0
C177 C 0.41238 0.91404 0.36224 0.0
C178 C 0.29126 0.77622 0.42078 0.0
C179 C 0.36105 0.79663 0.3418 0.0
C180 C 0.29346 0.83826 0.34099 0.0
C181 C 0.40542 0.83853 0.42755 0.0
C182 C 0.33609 0.88755 0.43283 0.0
O183 O 0.41423 0.89079 0.36489 0.0
O184 O 0.47774 0.38086 0.36061 0.0
Zn185 Zn 0.47085 0.33901 0.37203 0.0
O186 O 0.50948 0.34318 0.38238 0.0
Zn187 Zn 0.51408 0.31127 0.3683 0.0
Zn188 Zn 0.54132 0.38062 0.37012 0.0
Zn189 Zn 0.51469 0.34238 0.41884 0.0
O190 O 0.51684 0.28529 0.3944 0.0
O191 O 0.51954 0.30806 0.43022 0.0
O192 O 0.45206 0.30614 0.34296 0.0
O193 O 0.48043 0.28561 0.34641 0.0
O194 O 0.54948 0.32652 0.34559 0.0
O195 O 0.56549 0.37484 0.34415 0.0
O196 O 0.56931 0.40387 0.39726 0.0
O197 O 0.44475 0.32786 0.40449 0.0
O198 O 0.55079 0.37901 0.43257 0.0
O199 O 0.47802 0.33684 0.4348 0.0
C200 C 0.50165 0.40533 0.35588 0.0
C201 C 0.51924 0.28689 0.41814 0.0
C202 C 0.56715 0.35235 0.33724 0.0
C203 C 0.45855 0.28618 0.33664 0.0
C204 C 0.57059 0.4015 0.42085 0.0
C205 C 0.45206 0.33005 0.42775 0.0
O206 O 0.52675 0.40702 0.35772 0.0
O207 O 0.10462 0.48022 0.3622 0.0
Zn208 Zn 0.13914 0.47275 0.37357 0.0
O209 O 0.17376 0.5111 0.38465 0.0
Zn210 Zn 0.21019 0.51622 0.37007 0.0
Zn211 Zn 0.16825 0.54353 0.37379 0.0
Zn212 Zn 0.18009 0.51497 0.42114 0.0
O213 O 0.23848 0.51685 0.39559 0.0
O214 O 0.2187 0.51812 0.432 0.0
O215 O 0.15313 0.45416 0.34423 0.0
O216 O 0.20197 0.48365 0.34683 0.0
O217 O 0.23093 0.55302 0.34903 0.0
O218 O 0.1986 0.56894 0.34836 0.0
O219 O 0.17316 0.57051 0.40194 0.0
O220 O 0.12333 0.44596 0.40563 0.0
O221 O 0.181 0.55121 0.43608 0.0
O222 O 0.14814 0.47827 0.43646 0.0
C223 C 0.10399 0.50427 0.35849 0.0
C224 C 0.23924 0.51789 0.41939 0.0
C225 C 0.22295 0.57109 0.34143 0.0
C226 C 0.1796 0.46143 0.33727 0.0
C227 C 0.17782 0.57124 0.42536 0.0
C228 C 0.12844 0.45268 0.429 0.0
O229 O 0.12726 0.52938 0.36133 0.0
O230 O 0.6335 0.10642 0.36559 0.0
Zn231 Zn 0.67544 0.14147 0.37683 0.0
O232 O 0.67158 0.17619 0.38736 0.0
Zn233 Zn 0.70235 0.21256 0.37203 0.0
Zn234 Zn 0.63336 0.17001 0.37672 0.0
Zn235 Zn 0.67453 0.18328 0.42379 0.0
O236 O 0.72929 0.24246 0.39707 0.0
O237 O 0.70908 0.22295 0.4338 0.0
O238 O 0.70828 0.15539 0.34777 0.0
O239 O 0.72755 0.2043 0.34989 0.0
O240 O 0.68559 0.23153 0.34954 0.0
O241 O 0.6373 0.19928 0.35058 0.0
O242 O 0.6114 0.17485 0.40491 0.0
O243 O 0.68686 0.1264 0.40904 0.0
O244 O 0.63861 0.18277 0.43904 0.0
O245 O 0.68143 0.15287 0.43953 0.0
C246 C 0.60874 0.10562 0.36199 0.0
C247 C 0.72916 0.2438 0.42086 0.0
C248 C 0.65927 0.22312 0.34242 0.0
C249 C 0.72763 0.18185 0.34079 0.0
C250 C 0.61526 0.17928 0.42836 0.0
C251 C 0.68687 0.13281 0.43231 0.0
O252 O 0.60684 0.12882 0.36482 0.0
O253 O 0.53319 0.62731 0.36139 0.0
Zn254 Zn 0.54093 0.6695 0.37285 0.0
O255 O 0.50281 0.66604 0.38411 0.0
Zn256 Zn 0.49762 0.69728 0.36933 0.0
Zn257 Zn 0.4702 0.62805 0.3736 0.0
Zn258 Zn 0.49935 0.66871 0.42064 0.0
O259 O 0.49607 0.72449 0.39479 0.0
O260 O 0.4961 0.7042 0.43132 0.0
O261 O 0.55939 0.70206 0.34352 0.0
O262 O 0.53059 0.72212 0.34655 0.0
O263 O 0.46133 0.68109 0.34758 0.0
O264 O 0.44488 0.63268 0.34799 0.0
O265 O 0.44346 0.60622 0.40189 0.0
O266 O 0.56802 0.68073 0.40472 0.0
O267 O 0.46333 0.63336 0.43593 0.0
O268 O 0.53614 0.67353 0.43578 0.0
C269 C 0.50895 0.6027 0.35796 0.0
C270 C 0.49547 0.72452 0.41862 0.0
C271 C 0.44311 0.65487 0.34036 0.0
C272 C 0.55255 0.72167 0.33685 0.0
C273 C 0.44308 0.61016 0.42534 0.0
C274 C 0.56159 0.6793 0.42814 0.0
O275 O 0.48406 0.60112 0.36118 0.0
O276 O 0.53851 0.90972 0.86264 0.0
Zn277 Zn 0.54573 0.87491 0.87397 0.0
O278 O 0.50735 0.84016 0.88501 0.0
Zn279 Zn 0.50125 0.8038 0.86935 0.0
Zn280 Zn 0.47507 0.84647 0.87537 0.0
Zn281 Zn 0.50401 0.83278 0.92141 0.0
O282 O 0.49963 0.77418 0.89394 0.0
O283 O 0.50024 0.79353 0.93106 0.0
O284 O 0.56425 0.86086 0.84462 0.0
O285 O 0.53381 0.81202 0.84615 0.0
O286 O 0.46446 0.7844 0.84823 0.0
O287 O 0.4486 0.81673 0.85001 0.0
O288 O 0.44916 0.84184 0.90421 0.0
O289 O 0.5726 0.89054 0.90601 0.0
O290 O 0.46846 0.83226 0.93743 0.0
O291 O 0.54109 0.864 0.93675 0.0
C292 C 0.51451 0.91059 0.85959 0.0
C293 C 0.49923 0.77284 0.91774 0.0
C294 C 0.44623 0.79269 0.84188 0.0
C295 C 0.55648 0.83441 0.83714 0.0
C296 C 0.4487 0.83646 0.92747 0.0
C297 C 0.56638 0.88434 0.92935 0.0
O298 O 0.48943 0.88752 0.8631 0.0
O299 O 0.63211 0.5328 0.86069 0.0
Zn300 Zn 0.67405 0.54011 0.87205 0.0
O301 O 0.67029 0.50166 0.88268 0.0
Zn302 Zn 0.70183 0.49693 0.86807 0.0
Zn303 Zn 0.63253 0.46939 0.8713 0.0
Zn304 Zn 0.6722 0.49726 0.91917 0.0
O305 O 0.72848 0.49466 0.89372 0.0
O306 O 0.70728 0.49341 0.93005 0.0
O307 O 0.70674 0.55909 0.84296 0.0
O308 O 0.72703 0.53047 0.84588 0.0
O309 O 0.68608 0.46119 0.8457 0.0
O310 O 0.63772 0.44484 0.84522 0.0
O311 O 0.61023 0.4418 0.89901 0.0
O312 O 0.68511 0.56656 0.90426 0.0
O313 O 0.63641 0.46098 0.93364 0.0
O314 O 0.67704 0.53384 0.93486 0.0
C315 C 0.60748 0.50875 0.85675 0.0
C316 C 0.7279 0.49321 0.91752 0.0
C317 C 0.66008 0.44324 0.83786 0.0
C318 C 0.72653 0.55251 0.83635 0.0
C319 C 0.61356 0.4409 0.92252 0.0
C320 C 0.6832 0.55957 0.92758 0.0
O321 O 0.60572 0.48366 0.85926 0.0
O322 O 0.10786 0.63155 0.86657 0.0
Zn323 Zn 0.14298 0.67337 0.87793 0.0
O324 O 0.17745 0.6692 0.88848 0.0
Zn325 Zn 0.21387 0.70007 0.87333 0.0
Zn326 Zn 0.17111 0.63099 0.87757 0.0
Zn327 Zn 0.18422 0.67161 0.92494 0.0
O328 O 0.24331 0.72698 0.89862 0.0
O329 O 0.22336 0.70684 0.93531 0.0
O330 O 0.15699 0.70626 0.8489 0.0
O331 O 0.20584 0.72541 0.85107 0.0
O332 O 0.233 0.6834 0.85095 0.0
O333 O 0.20017 0.63519 0.85127 0.0
O334 O 0.17648 0.60895 0.90541 0.0
O335 O 0.12792 0.68457 0.91022 0.0
O336 O 0.18495 0.63604 0.93967 0.0
O337 O 0.15268 0.67668 0.9408 0.0
C338 C 0.10679 0.60664 0.86302 0.0
C339 C 0.24427 0.72699 0.92244 0.0
C340 C 0.22426 0.65711 0.84347 0.0
C341 C 0.18345 0.72554 0.84193 0.0
C342 C 0.18149 0.6128 0.92879 0.0
C343 C 0.13314 0.68284 0.93353 0.0
O344 O 0.12983 0.60449 0.86586 0.0
O345 O 0.4813 0.10039 0.86179 0.0
Zn346 Zn 0.4739 0.13508 0.87286 0.0
O347 O 0.5123 0.17002 0.88325 0.0
Zn348 Zn 0.51715 0.20618 0.8681 0.0
Zn349 Zn 0.54458 0.16434 0.87238 0.0
Zn350 Zn 0.51666 0.17703 0.91966 0.0
O351 O 0.51795 0.23487 0.89328 0.0
O352 O 0.51981 0.21583 0.92995 0.0
O353 O 0.45481 0.14846 0.84355 0.0
O354 O 0.48435 0.19748 0.8449 0.0
O355 O 0.55384 0.22672 0.84692 0.0
O356 O 0.56985 0.19444 0.84675 0.0
O357 O 0.57179 0.16964 0.90041 0.0
O358 O 0.44762 0.11984 0.90521 0.0
O359 O 0.55311 0.17832 0.93449 0.0
O360 O 0.48036 0.14523 0.93558 0.0
C361 C 0.5053 0.09978 0.85789 0.0
C362 C 0.51932 0.2361 0.91707 0.0
C363 C 0.57194 0.21871 0.83955 0.0
C364 C 0.46198 0.17473 0.83597 0.0
C365 C 0.57292 0.17483 0.92376 0.0
C366 C 0.4547 0.12534 0.92848 0.0
O367 O 0.5304 0.12318 0.8603 0.0
O368 O 0.38474 0.47594 0.86131 0.0
Zn369 Zn 0.34305 0.46931 0.87273 0.0
O370 O 0.34752 0.50802 0.88346 0.0
Zn371 Zn 0.31628 0.51342 0.86899 0.0
Zn372 Zn 0.38547 0.53988 0.87206 0.0
Zn373 Zn 0.34587 0.51254 0.91994 0.0
O374 O 0.28972 0.51566 0.89473 0.0
O375 O 0.31139 0.51727 0.93093 0.0
O376 O 0.31036 0.451 0.8435 0.0
O377 O 0.29088 0.48033 0.84651 0.0
O378 O 0.3325 0.54948 0.84692 0.0
O379 O 0.38069 0.56502 0.84636 0.0
O380 O 0.40842 0.56707 0.89979 0.0
O381 O 0.33151 0.44273 0.90494 0.0
O382 O 0.38219 0.5483 0.93444 0.0
O383 O 0.33994 0.47552 0.93556 0.0
C384 C 0.40946 0.49978 0.8571 0.0
C385 C 0.29064 0.51738 0.91852 0.0
C386 C 0.35859 0.56718 0.83915 0.0
C387 C 0.29097 0.45813 0.83687 0.0
C388 C 0.40526 0.56801 0.92331 0.0
C389 C 0.33329 0.44966 0.92827 0.0
O390 O 0.41157 0.52503 0.85954 0.0
O391 O 0.91546 0.38402 0.86516 0.0
Zn392 Zn 0.88032 0.34206 0.87615 0.0
O393 O 0.84559 0.34597 0.88633 0.0
Zn394 Zn 0.80947 0.31526 0.87071 0.0
Zn395 Zn 0.85195 0.38427 0.87557 0.0
Zn396 Zn 0.83803 0.34287 0.92269 0.0
O397 O 0.77974 0.28773 0.89545 0.0
O398 O 0.79877 0.30742 0.93246 0.0
O399 O 0.86678 0.30936 0.84696 0.0
O400 O 0.81792 0.29044 0.84834 0.0
O401 O 0.79045 0.33206 0.84843 0.0
O402 O 0.82316 0.38029 0.84894 0.0
O403 O 0.84613 0.40592 0.90352 0.0
O404 O 0.89514 0.33086 0.90864 0.0
O405 O 0.83703 0.37825 0.93752 0.0
O406 O 0.86919 0.33747 0.9389 0.0
C407 C 0.91652 0.40894 0.8617 0.0
C408 C 0.77827 0.28733 0.91924 0.0
C409 C 0.79916 0.35835 0.84099 0.0
C410 C 0.84042 0.2903 0.83955 0.0
C411 C 0.8407 0.40167 0.92682 0.0
C412 C 0.88916 0.33181 0.93188 0.0
O413 O 0.89341 0.41101 0.86434 0.0
O414 O 0.1053 0.48015 0.66558 0.0
Zn415 Zn 0.14038 0.47355 0.65431 0.0
O416 O 0.17499 0.51237 0.64409 0.0
Zn417 Zn 0.21135 0.51777 0.65921 0.0
Zn418 Zn 0.16873 0.5442 0.65524 0.0
Zn419 Zn 0.18199 0.51712 0.60768 0.0
O420 O 0.24082 0.52035 0.63395 0.0
O421 O 0.22138 0.5219 0.59741 0.0
O422 O 0.15421 0.45448 0.68331 0.0
O423 O 0.20309 0.48425 0.68138 0.0
O424 O 0.23064 0.55359 0.68163 0.0
O425 O 0.19804 0.56916 0.68146 0.0
O426 O 0.17376 0.57162 0.62747 0.0
O427 O 0.12551 0.44743 0.62187 0.0
O428 O 0.1819 0.55305 0.59303 0.0
O429 O 0.15138 0.48012 0.59162 0.0
C430 C 0.10434 0.50398 0.66952 0.0
C431 C 0.24204 0.52209 0.61017 0.0
C432 C 0.2221 0.57124 0.68918 0.0
C433 C 0.18062 0.46163 0.69038 0.0
C434 C 0.17842 0.57274 0.60403 0.0
C435 C 0.13159 0.45435 0.59863 0.0
O436 O 0.12749 0.52925 0.66707 0.0
O437 O 0.63419 0.10391 0.66866 0.0
Zn438 Zn 0.67605 0.13855 0.65695 0.0
O439 O 0.67217 0.17307 0.64585 0.0
Zn440 Zn 0.70333 0.20968 0.66056 0.0
Zn441 Zn 0.63406 0.16721 0.65649 0.0
Zn442 Zn 0.67466 0.17939 0.60935 0.0
O443 O 0.73065 0.23839 0.63504 0.0
O444 O 0.70981 0.21834 0.5986 0.0
O445 O 0.709 0.15285 0.68597 0.0
O446 O 0.72816 0.20172 0.68348 0.0
O447 O 0.68699 0.22991 0.6819 0.0
O448 O 0.63866 0.19762 0.68165 0.0
O449 O 0.61166 0.17128 0.62819 0.0
O450 O 0.68689 0.12266 0.62493 0.0
O451 O 0.63903 0.17947 0.59418 0.0
O452 O 0.6799 0.14778 0.5941 0.0
C453 C 0.6095 0.10318 0.6724 0.0
C454 C 0.73037 0.23915 0.61123 0.0
C455 C 0.66076 0.22186 0.68902 0.0
C456 C 0.72821 0.17939 0.69287 0.0
C457 C 0.61559 0.17581 0.60476 0.0
C458 C 0.68561 0.12798 0.60156 0.0
O459 O 0.60756 0.12634 0.66935 0.0
O460 O 0.53717 0.6296 0.664 0.0
Zn461 Zn 0.54435 0.67175 0.653 0.0
O462 O 0.50587 0.66817 0.64249 0.0
Zn463 Zn 0.50003 0.69835 0.6586 0.0
Zn464 Zn 0.47369 0.62949 0.65223 0.0
Zn465 Zn 0.50209 0.67247 0.60618 0.0
O466 O 0.4983 0.72661 0.63439 0.0
O467 O 0.4985 0.70817 0.59701 0.0
O468 O 0.56343 0.70435 0.68235 0.0
O469 O 0.53294 0.72262 0.68154 0.0
O470 O 0.46358 0.68079 0.68012 0.0
O471 O 0.44782 0.63257 0.67828 0.0
O472 O 0.44715 0.60854 0.62359 0.0
O473 O 0.57068 0.683 0.62067 0.0
O474 O 0.46606 0.63758 0.59039 0.0
O475 O 0.53885 0.67821 0.5903 0.0
C476 C 0.51318 0.60461 0.66694 0.0
C477 C 0.49773 0.72778 0.61062 0.0
C478 C 0.44557 0.65422 0.68664 0.0
C479 C 0.55577 0.72298 0.69015 0.0
C480 C 0.44631 0.61361 0.60042 0.0
C481 C 0.56418 0.68307 0.59742 0.0
O482 O 0.48809 0.60258 0.66368 0.0
O483 O 0.91368 0.53547 0.66477 0.0
Zn484 Zn 0.8787 0.54225 0.65342 0.0
O485 O 0.84413 0.50362 0.64279 0.0
Zn486 Zn 0.80775 0.4981 0.65788 0.0
Zn487 Zn 0.85024 0.47163 0.65371 0.0
Zn488 Zn 0.83736 0.4994 0.60632 0.0
O489 O 0.77809 0.49503 0.63265 0.0
O490 O 0.79794 0.49473 0.596 0.0
O491 O 0.86471 0.56091 0.68257 0.0
O492 O 0.81581 0.53159 0.67995 0.0
O493 O 0.78872 0.46251 0.68053 0.0
O494 O 0.82114 0.44672 0.68007 0.0
O495 O 0.84496 0.44437 0.62577 0.0
O496 O 0.89386 0.56878 0.62123 0.0
O497 O 0.83735 0.46353 0.59142 0.0
O498 O 0.86839 0.53648 0.5906 0.0
C499 C 0.91458 0.51156 0.66833 0.0
C500 C 0.77698 0.4938 0.60884 0.0
C501 C 0.79725 0.44483 0.68802 0.0
C502 C 0.83825 0.55392 0.68932 0.0
C503 C 0.84051 0.44357 0.60231 0.0
C504 C 0.88815 0.56213 0.59791 0.0
O505 O 0.89146 0.48636 0.66548 0.0
O506 O 0.38652 0.91319 0.66933 0.0
Zn507 Zn 0.34451 0.87843 0.6581 0.0
O508 O 0.34814 0.84372 0.64735 0.0
Zn509 Zn 0.31677 0.80732 0.66212 0.0
Zn510 Zn 0.38607 0.84947 0.65838 0.0
Zn511 Zn 0.34571 0.83709 0.6109 0.0
O512 O 0.28947 0.7784 0.63674 0.0
O513 O 0.31054 0.79802 0.60029 0.0
O514 O 0.31215 0.86458 0.68754 0.0
O515 O 0.29218 0.81561 0.68497 0.0
O516 O 0.33285 0.78709 0.68375 0.0
O517 O 0.38118 0.81939 0.68401 0.0
O518 O 0.40819 0.84449 0.63041 0.0
O519 O 0.33332 0.89382 0.62591 0.0
O520 O 0.38137 0.83671 0.59608 0.0
O521 O 0.34041 0.86853 0.59531 0.0
C522 C 0.41116 0.91386 0.67324 0.0
C523 C 0.28987 0.77735 0.61294 0.0
C524 C 0.35895 0.79518 0.69125 0.0
C525 C 0.29269 0.83815 0.69449 0.0
C526 C 0.4045 0.83993 0.60697 0.0
C527 C 0.33456 0.88829 0.60259 0.0
O528 O 0.41293 0.89055 0.67066 0.0
O529 O 0.481 0.38158 0.66411 0.0
Zn530 Zn 0.47411 0.33959 0.65304 0.0
O531 O 0.51267 0.34379 0.64218 0.0
Zn532 Zn 0.51843 0.31308 0.65725 0.0
Zn533 Zn 0.54473 0.38211 0.65283 0.0
Zn534 Zn 0.51658 0.34091 0.60571 0.0
O535 O 0.52031 0.28577 0.63214 0.0
O536 O 0.52043 0.30564 0.59537 0.0
O537 O 0.45577 0.307 0.68248 0.0
O538 O 0.4857 0.28819 0.68013 0.0
O539 O 0.55481 0.32992 0.67885 0.0
O540 O 0.57023 0.37812 0.67876 0.0
O541 O 0.57159 0.40406 0.62462 0.0
O542 O 0.4474 0.32801 0.62089 0.0
O543 O 0.55259 0.37647 0.59063 0.0
O544 O 0.47973 0.33551 0.59014 0.0
C545 C 0.50489 0.40652 0.66758 0.0
C546 C 0.52112 0.28552 0.60834 0.0
C547 C 0.57255 0.35618 0.68626 0.0
C548 C 0.46328 0.28799 0.68953 0.0
C549 C 0.57239 0.39994 0.60124 0.0
C550 C 0.4541 0.32943 0.59754 0.0
O551 O 0.53009 0.40866 0.66474 0.0
H552 H 0.44036 0.22746 0.33751 0.0
H553 H 0.44532 0.21849 0.18812 0.0
H554 H 0.44562 0.29533 0.28814 0.0
H555 H 0.44653 0.15376 0.23757 0.0
H556 H 0.43483 0.24114 0.22387 0.0
H557 H 0.4319 0.19533 0.30133 0.0
C558 C 0.43865 0.23523 0.31907 0.0
C559 C 0.4434 0.26416 0.31603 0.0
C560 C 0.43666 0.22159 0.22696 0.0
C561 C 0.43473 0.22751 0.27399 0.0
C562 C 0.44236 0.20837 0.20645 0.0
C563 C 0.44655 0.18388 0.20967 0.0
C564 C 0.43544 0.21064 0.25126 0.0
C565 C 0.44297 0.17219 0.23401 0.0
C566 C 0.43416 0.21692 0.29832 0.0
C567 C 0.44154 0.27311 0.29155 0.0
N568 N 0.43808 0.18591 0.25385 0.0
N569 N 0.43781 0.25508 0.27151 0.0
H570 H 0.22999 0.43202 0.18814 0.0
H571 H 0.15233 0.44162 0.29086 0.0
H572 H 0.30042 0.45207 0.24041 0.0
H573 H 0.22462 0.44955 0.33573 0.0
H574 H 0.17384 0.43118 0.2542 0.0
H575 H 0.19642 0.42329 0.223 0.0
C576 C 0.23812 0.43355 0.20711 0.0
C577 C 0.26803 0.44221 0.21122 0.0
C578 C 0.18483 0.4344 0.27205 0.0
C579 C 0.22984 0.43418 0.25199 0.0
C580 C 0.17213 0.44007 0.2932 0.0
C581 C 0.18648 0.44636 0.31655 0.0
C582 C 0.21226 0.43509 0.27419 0.0
C583 C 0.21267 0.44482 0.31815 0.0
C584 C 0.21897 0.42917 0.22722 0.0
C585 C 0.27744 0.44471 0.23625 0.0
N586 N 0.22476 0.43977 0.2974 0.0
N587 N 0.25861 0.44113 0.25554 0.0
H588 H 0.80965 0.23019 0.19245 0.0
H589 H 0.72115 0.15375 0.29498 0.0
H590 H 0.85862 0.3019 0.24409 0.0
H591 H 0.78447 0.22728 0.33952 0.0
H592 H 0.75372 0.17482 0.25858 0.0
H593 H 0.78471 0.19705 0.22759 0.0
C594 C 0.81595 0.2387 0.21136 0.0
C595 C 0.83679 0.26884 0.21521 0.0
C596 C 0.76113 0.18618 0.27633 0.0
C597 C 0.80647 0.23113 0.25622 0.0
C598 C 0.74241 0.17375 0.29733 0.0
C599 C 0.74998 0.18859 0.32048 0.0
C600 C 0.78772 0.21382 0.27841 0.0
C601 C 0.77761 0.21497 0.32209 0.0
C602 C 0.8011 0.21979 0.23161 0.0
C603 C 0.84332 0.27874 0.24015 0.0
N604 N 0.79509 0.2268 0.30147 0.0
N605 N 0.82798 0.26012 0.25956 0.0
H606 H 0.56934 0.85835 0.23734 0.0
H607 H 0.56802 0.71279 0.28919 0.0
H608 H 0.5674 0.79053 0.18992 0.0
H609 H 0.56846 0.77987 0.33664 0.0
H610 H 0.57752 0.74544 0.25274 0.0
H611 H 0.57875 0.83502 0.2737 0.0
C612 C 0.57205 0.83929 0.23439 0.0
C613 C 0.56779 0.8266 0.21042 0.0
C614 C 0.57626 0.75335 0.27122 0.0
C615 C 0.57758 0.79899 0.25217 0.0
C616 C 0.57127 0.73479 0.29212 0.0
C617 C 0.56764 0.74358 0.31613 0.0
C618 C 0.57755 0.78091 0.27428 0.0
C619 C 0.57122 0.77215 0.31853 0.0
C620 C 0.577 0.82563 0.25524 0.0
C621 C 0.57068 0.80122 0.20799 0.0
N622 N 0.57557 0.7895 0.298 0.0
N623 N 0.575 0.78815 0.22848 0.0
H624 H 0.71733 0.57015 0.23519 0.0
H625 H 0.80647 0.58194 0.3373 0.0
H626 H 0.78017 0.5599 0.19024 0.0
H627 H 0.85462 0.55888 0.28523 0.0
H628 H 0.78126 0.59011 0.30237 0.0
H629 H 0.75001 0.58135 0.27152 0.0
C630 C 0.73852 0.57136 0.23274 0.0
C631 C 0.74595 0.56421 0.20949 0.0
C632 C 0.79754 0.58371 0.29821 0.0
C633 C 0.7838 0.57636 0.25146 0.0
C634 C 0.81255 0.57967 0.31834 0.0
C635 C 0.83328 0.57034 0.3143 0.0
C636 C 0.80263 0.57768 0.27354 0.0
C637 C 0.83946 0.56682 0.28931 0.0
C638 C 0.7573 0.57747 0.25369 0.0
C639 C 0.77346 0.56532 0.20775 0.0
N640 N 0.82399 0.5701 0.27002 0.0
N641 N 0.791 0.57082 0.22832 0.0
H642 H 0.30183 0.86297 0.29353 0.0
H643 H 0.15684 0.71786 0.24219 0.0
H644 H 0.23525 0.79611 0.34123 0.0
H645 H 0.22348 0.78474 0.19453 0.0
H646 H 0.18006 0.7507 0.27853 0.0
H647 H 0.26888 0.8398 0.25725 0.0
C648 C 0.27985 0.84419 0.29656 0.0
C649 C 0.27129 0.8317 0.32058 0.0
C650 C 0.1892 0.75853 0.26002 0.0
C651 C 0.23366 0.80422 0.27893 0.0
C652 C 0.17559 0.73986 0.23919 0.0
C653 C 0.18801 0.74854 0.21515 0.0
C654 C 0.21551 0.78607 0.25687 0.0
C655 C 0.21301 0.77712 0.21266 0.0
C656 C 0.26113 0.83061 0.27576 0.0
C657 C 0.24276 0.80665 0.32311 0.0
N658 N 0.22605 0.79456 0.23313 0.0
N659 N 0.22527 0.79361 0.30266 0.0
H660 H 0.57395 0.7816 0.68885 0.0
H661 H 0.5739 0.79342 0.83835 0.0
H662 H 0.5699 0.71447 0.73846 0.0
H663 H 0.57065 0.85697 0.78878 0.0
H664 H 0.58316 0.77006 0.8024 0.0
H665 H 0.58348 0.81435 0.7248 0.0
C666 C 0.57618 0.77413 0.70727 0.0
C667 C 0.57151 0.74526 0.71046 0.0
C668 C 0.58116 0.78952 0.79932 0.0
C669 C 0.58139 0.7826 0.75225 0.0
C670 C 0.57622 0.80317 0.81993 0.0
C671 C 0.57186 0.82756 0.81676 0.0
C672 C 0.58145 0.79993 0.77496 0.0
C673 C 0.57445 0.83868 0.7923 0.0
C674 C 0.58127 0.79279 0.72789 0.0
C675 C 0.57395 0.73666 0.73493 0.0
N676 N 0.57864 0.82456 0.77238 0.0
N677 N 0.57829 0.75504 0.75485 0.0
H678 H 0.86302 0.57009 0.73677 0.0
H679 H 0.71788 0.56882 0.78895 0.0
H680 H 0.79568 0.56933 0.68948 0.0
H681 H 0.78467 0.56839 0.83619 0.0
H682 H 0.75063 0.57885 0.75252 0.0
H683 H 0.83984 0.57937 0.77326 0.0
C684 C 0.84411 0.57306 0.73388 0.0
C685 C 0.8315 0.56913 0.70991 0.0
C686 C 0.75845 0.5773 0.77096 0.0
C687 C 0.80403 0.57874 0.7518 0.0
C688 C 0.73984 0.57199 0.79185 0.0
C689 C 0.74852 0.56794 0.81578 0.0
C690 C 0.78595 0.57847 0.77396 0.0
C691 C 0.77704 0.57145 0.81814 0.0
C692 C 0.83053 0.57791 0.7548 0.0
C693 C 0.80631 0.57233 0.70756 0.0
N694 N 0.79444 0.57611 0.79762 0.0
N695 N 0.79329 0.57654 0.72811 0.0
H696 H 0.30254 0.86244 0.74219 0.0
H697 H 0.1578 0.71788 0.79487 0.0
H698 H 0.23438 0.79622 0.69512 0.0
H699 H 0.22683 0.78336 0.84181 0.0
H700 H 0.18042 0.75096 0.75855 0.0
H701 H 0.27058 0.83912 0.77896 0.0
C702 C 0.28043 0.84377 0.73944 0.0
C703 C 0.27112 0.83151 0.71542 0.0
C704 C 0.19024 0.75843 0.77692 0.0
C705 C 0.23461 0.80386 0.75762 0.0
C706 C 0.177 0.73963 0.79775 0.0
C707 C 0.19024 0.74783 0.82155 0.0
C708 C 0.21699 0.78563 0.77983 0.0
C709 C 0.21574 0.77609 0.82387 0.0
C710 C 0.26227 0.8301 0.76051 0.0
C711 C 0.24246 0.80659 0.71323 0.0
N712 N 0.22838 0.79367 0.8034 0.0
N713 N 0.22551 0.79347 0.73392 0.0
H714 H 0.43578 0.20836 0.83862 0.0
H715 H 0.44403 0.29546 0.73612 0.0
H716 H 0.45637 0.15864 0.78611 0.0
H717 H 0.4513 0.23099 0.69087 0.0
H718 H 0.4343 0.26361 0.77279 0.0
H719 H 0.42637 0.23287 0.80386 0.0
C720 C 0.43731 0.20184 0.81962 0.0
C721 C 0.44632 0.18087 0.81541 0.0
C722 C 0.43718 0.25576 0.75486 0.0
C723 C 0.43749 0.21069 0.77476 0.0
C724 C 0.44243 0.27407 0.7337 0.0
C725 C 0.44833 0.26595 0.71023 0.0
C726 C 0.43791 0.22904 0.75261 0.0
C727 C 0.44681 0.23822 0.70854 0.0
C728 C 0.43254 0.21643 0.79957 0.0
C729 C 0.44877 0.17405 0.79035 0.0
N730 N 0.44219 0.22114 0.7293 0.0
N731 N 0.44479 0.18913 0.77111 0.0
H732 H 0.15549 0.44421 0.73763 0.0
H733 H 0.29974 0.44291 0.78911 0.0
H734 H 0.22327 0.44635 0.6901 0.0
H735 H 0.2329 0.44256 0.83673 0.0
H736 H 0.26735 0.43423 0.75264 0.0
H737 H 0.17826 0.43371 0.77379 0.0
C738 C 0.17442 0.44132 0.73459 0.0
C739 C 0.18727 0.44596 0.71067 0.0
C740 C 0.25942 0.43531 0.77116 0.0
C741 C 0.21423 0.43491 0.7522 0.0
C742 C 0.27782 0.43982 0.79206 0.0
C743 C 0.26903 0.44325 0.81614 0.0
C744 C 0.23203 0.43432 0.77427 0.0
C745 C 0.2406 0.43992 0.81857 0.0
C746 C 0.18776 0.43575 0.75533 0.0
C747 C 0.21246 0.44281 0.70815 0.0
N748 N 0.22341 0.43605 0.79804 0.0
N749 N 0.22523 0.43788 0.72853 0.0
H750 H 0.78655 0.22082 0.69146 0.0
H751 H 0.80015 0.23157 0.84087 0.0
H752 H 0.72047 0.15656 0.74112 0.0
H753 H 0.86271 0.29903 0.79118 0.0
H754 H 0.77659 0.19897 0.80488 0.0
H755 H 0.8196 0.24398 0.72723 0.0
C756 C 0.77935 0.21091 0.70985 0.0
C757 C 0.75067 0.18639 0.71312 0.0
C758 C 0.79591 0.22057 0.80177 0.0
C759 C 0.78841 0.21374 0.75472 0.0
C760 C 0.80968 0.23914 0.82241 0.0
C761 C 0.83382 0.26807 0.81921 0.0
C762 C 0.80595 0.23091 0.77739 0.0
C763 C 0.84464 0.27679 0.79471 0.0
C764 C 0.7982 0.22442 0.73037 0.0
C765 C 0.74248 0.175 0.73754 0.0
N766 N 0.8304 0.25852 0.77478 0.0
N767 N 0.76104 0.18899 0.75738 0.0
H768 H 0.55351 0.09456 0.18107 0.0
H769 H 0.46315 0.91711 0.17754 0.0
H770 H 0.45886 0.04331 0.17001 0.0
H771 H 0.55832 0.96854 0.17037 0.0
H772 H 0.4614 0.96275 0.18102 0.0
H773 H 0.55529 0.04881 0.18341 0.0
C774 C 0.53291 0.0737 0.1794 0.0
C775 C 0.5059 0.07311 0.1752 0.0
C776 C 0.48271 0.96415 0.17885 0.0
C777 C 0.50806 0.02004 0.17788 0.0
C778 C 0.48386 0.93799 0.17693 0.0
C779 C 0.51102 0.93867 0.17348 0.0
C780 C 0.5089 0.99166 0.17752 0.0
C781 C 0.53689 0.96669 0.17301 0.0
C782 C 0.53409 0.04749 0.18065 0.0
C783 C 0.48017 0.0451 0.1733 0.0
N784 N 0.53517 0.99198 0.1749 0.0
N785 N 0.48192 0.01979 0.17456 0.0
H786 H 0.59562 0.55503 0.16878 0.0
H787 H 0.41788 0.45207 0.16864 0.0
H788 H 0.55005 0.45954 0.17398 0.0
H789 H 0.4633 0.54726 0.17681 0.0
H790 H 0.46602 0.45421 0.17121 0.0
H791 H 0.54751 0.55285 0.17234 0.0
C792 C 0.57569 0.53368 0.17097 0.0
C793 C 0.57721 0.5075 0.17098 0.0
C794 C 0.46537 0.4746 0.17265 0.0
C795 C 0.52174 0.50473 0.17469 0.0
C796 C 0.43779 0.47333 0.17129 0.0
C797 C 0.43621 0.49945 0.17243 0.0
C798 C 0.49174 0.5022 0.17499 0.0
C799 C 0.4631 0.52642 0.17571 0.0
C800 C 0.54813 0.5324 0.1729 0.0
C801 C 0.5503 0.48044 0.17373 0.0
N802 N 0.48953 0.52708 0.17665 0.0
N803 N 0.52391 0.47978 0.17525 0.0
H804 H 0.9752 0.41945 0.17474 0.0
H805 H 0.04772 0.59685 0.17475 0.0
H806 H 0.92405 0.46343 0.18148 0.0
H807 H 0.09863 0.55285 0.18365 0.0
H808 H 1.00209 0.54829 0.17756 0.0
H809 H 0.02074 0.468 0.1783 0.0
C810 C 0.97343 0.43912 0.17726 0.0
C811 C 0.9455 0.43702 0.17773 0.0
C812 C 0.0233 0.54935 0.17912 0.0
C813 C 0.99775 0.49301 0.18141 0.0
C814 C 0.04941 0.57717 0.17762 0.0
C815 C 0.07731 0.57926 0.17888 0.0
C816 C 0.02496 0.52327 0.18168 0.0
C817 C 0.07782 0.55266 0.18245 0.0
C818 C 0.99949 0.46693 0.17921 0.0
C819 C 0.94488 0.46362 0.1809 0.0
N820 N 0.05224 0.52598 0.18348 0.0
N821 N 0.97042 0.49029 0.18238 0.0
H822 H 0.97266 0.56072 0.3568 0.0
H823 H 0.04611 0.45679 0.35692 0.0
H824 H 0.9221 0.46535 0.35041 0.0
H825 H 0.09674 0.55205 0.34948 0.0
H826 H 1.00038 0.45934 0.35387 0.0
H827 H 0.01843 0.55822 0.35347 0.0
C828 C 0.97107 0.53933 0.35439 0.0
C829 C 0.94324 0.51327 0.35399 0.0
C830 C 0.02155 0.47966 0.35269 0.0
C831 C 0.99574 0.51014 0.35054 0.0
C832 C 0.04772 0.47816 0.35433 0.0
C833 C 0.07557 0.50418 0.35354 0.0
C834 C 0.02308 0.50738 0.35045 0.0
C835 C 0.07597 0.53128 0.35031 0.0
C836 C 0.99726 0.53787 0.35258 0.0
C837 C 0.94285 0.48615 0.35097 0.0
N838 N 0.05033 0.53217 0.34912 0.0
N839 N 0.9685 0.48531 0.34959 0.0
H840 H 0.46708 0.92107 0.35253 0.0
H841 H 0.55404 0.09858 0.35219 0.0
H842 H 0.42333 0.97223 0.3613 0.0
H843 H 0.59781 0.04744 0.36112 0.0
H844 H 0.50656 0.0528 0.34948 0.0
H845 H 0.51455 0.96684 0.34965 0.0
C846 C 0.46726 0.94191 0.35361 0.0
C847 C 0.44075 0.94248 0.35731 0.0
C848 C 0.52649 0.05149 0.35187 0.0
C849 C 0.49594 0.99561 0.35398 0.0
C850 C 0.55386 0.07774 0.35333 0.0
C851 C 0.58038 0.07718 0.35703 0.0
C852 C 0.52517 0.02405 0.35391 0.0
C853 C 0.5782 0.0492 0.35824 0.0
C854 C 0.49462 0.96815 0.35204 0.0
C855 C 0.44293 0.97047 0.35843 0.0
N856 N 0.55115 0.02384 0.35678 0.0
N857 N 0.46998 0.99582 0.35687 0.0
H858 H 0.54916 0.45963 0.34424 0.0
H859 H 0.4605 0.54809 0.34913 0.0
H860 H 0.45486 0.41682 0.35698 0.0
H861 H 0.55572 0.59121 0.35528 0.0
H862 H 0.45808 0.50036 0.34569 0.0
H863 H 0.55138 0.50736 0.3419 0.0
C864 C 0.52873 0.46006 0.34628 0.0
C865 C 0.5017 0.43375 0.35096 0.0
C866 C 0.47954 0.52021 0.34763 0.0
C867 C 0.50436 0.48922 0.34827 0.0
C868 C 0.48107 0.54772 0.34951 0.0
C869 C 0.50846 0.57413 0.35265 0.0
C870 C 0.50555 0.51863 0.34867 0.0
C871 C 0.53412 0.57169 0.35288 0.0
C872 C 0.53015 0.48757 0.34503 0.0
C873 C 0.47618 0.43625 0.35331 0.0
N874 N 0.53202 0.5445 0.35101 0.0
N875 N 0.47817 0.46342 0.35203 0.0
H876 H 0.45795 0.04177 0.8569 0.0
H877 H 0.56202 0.96852 0.85711 0.0
H878 H 0.55304 0.09255 0.84885 0.0
H879 H 0.46673 0.91777 0.85087 0.0
H880 H 0.55944 0.01427 0.85353 0.0
H881 H 0.4606 0.99604 0.85415 0.0
C882 C 0.4793 0.04341 0.85424 0.0
C883 C 0.50524 0.07131 0.85318 0.0
C884 C 0.53912 0.99306 0.85274 0.0
C885 C 0.50856 0.01881 0.85044 0.0
C886 C 0.54063 0.96688 0.85468 0.0
C887 C 0.51462 0.939 0.85439 0.0
C888 C 0.51139 0.99149 0.85068 0.0
C889 C 0.4875 0.93856 0.85134 0.0
C890 C 0.48085 0.01724 0.85277 0.0
C891 C 0.53233 0.07174 0.84988 0.0
N892 N 0.48661 0.9642 0.84984 0.0
N893 N 0.53327 0.0461 0.84886 0.0
H894 H 0.59704 0.55616 0.85475 0.0
H895 H 0.4197 0.45219 0.85655 0.0
H896 H 0.55237 0.4608 0.84831 0.0
H897 H 0.46429 0.54715 0.84672 0.0
H898 H 0.46794 0.45465 0.85331 0.0
H899 H 0.54869 0.55346 0.85161 0.0
C900 C 0.57726 0.53473 0.85237 0.0
C901 C 0.5791 0.50874 0.85187 0.0
C902 C 0.46707 0.4749 0.85164 0.0
C903 C 0.52335 0.50538 0.84869 0.0
C904 C 0.43943 0.47346 0.85338 0.0
C905 C 0.43761 0.49943 0.852 0.0
C906 C 0.49324 0.50255 0.84871 0.0
C907 C 0.46428 0.52642 0.84804 0.0
C908 C 0.54956 0.53316 0.85067 0.0
C909 C 0.55236 0.48156 0.8489 0.0
N910 N 0.49077 0.52727 0.84679 0.0
N911 N 0.52581 0.4806 0.84767 0.0
H912 H 0.97423 0.41895 0.86052 0.0
H913 H 0.0491 0.59668 0.86135 0.0
H914 H 0.92442 0.46426 0.85303 0.0
H915 H 0.09899 0.55144 0.85395 0.0
H916 H 1.0031 0.54849 0.85798 0.0
H917 H 0.02026 0.46718 0.8578 0.0
C918 C 0.97286 0.43885 0.858 0.0
C919 C 0.94515 0.43722 0.85708 0.0
C920 C 0.02417 0.54921 0.85689 0.0
C921 C 0.99796 0.49283 0.85436 0.0
C922 C 0.05049 0.57681 0.85871 0.0
C923 C 0.07821 0.57844 0.85802 0.0
C924 C 0.02544 0.52288 0.85455 0.0
C925 C 0.07833 0.5516 0.85472 0.0
C926 C 0.9992 0.46648 0.85654 0.0
C927 C 0.94506 0.4641 0.85395 0.0
N928 N 0.05256 0.52515 0.85334 0.0
N929 N 0.97085 0.49057 0.85293 0.0
H930 H 0.04658 0.45622 0.67017 0.0
H931 H 0.97233 0.55931 0.67039 0.0
H932 H 0.09663 0.55132 0.67913 0.0
H933 H 0.9221 0.46395 0.67711 0.0
H934 H 0.0182 0.55704 0.67385 0.0
H935 H 1.00064 0.45842 0.673 0.0
C936 C 0.04801 0.47747 0.67305 0.0
C937 C 0.07576 0.50356 0.67433 0.0
C938 C 0.99708 0.53665 0.67478 0.0
C939 C 0.02308 0.50637 0.67715 0.0
C940 C 0.97084 0.53798 0.67289 0.0
C941 C 0.94307 0.51185 0.67337 0.0
C942 C 0.99568 0.50898 0.67694 0.0
C943 C 0.9428 0.4848 0.67651 0.0
C944 C 0.02173 0.47876 0.67456 0.0
C945 C 0.07595 0.53051 0.67791 0.0
N946 N 0.9685 0.48408 0.67793 0.0
N947 N 0.05022 0.53121 0.67895 0.0
H948 H 0.59905 0.04529 0.67429 0.0
H949 H 0.4217 0.97179 0.6747 0.0
H950 H 0.55462 0.09594 0.68184 0.0
H951 H 0.46615 0.92116 0.68233 0.0
H952 H 0.47008 0.01759 0.6778 0.0
H953 H 0.55071 0.9995 0.67775 0.0
C954 C 0.57932 0.04689 0.677 0.0
C955 C 0.58122 0.07476 0.67768 0.0
C956 C 0.46916 0.9964 0.67901 0.0
C957 C 0.52548 0.02223 0.68122 0.0
C958 C 0.44144 0.9702 0.67734 0.0
C959 C 0.43953 0.94233 0.67817 0.0
C960 C 0.49532 0.99488 0.68131 0.0
C961 C 0.46621 0.94194 0.68147 0.0
C962 C 0.55163 0.02069 0.67887 0.0
C963 C 0.55457 0.07516 0.68107 0.0
N964 N 0.49278 0.96761 0.68268 0.0
N965 N 0.52801 0.04949 0.68247 0.0
H966 H 0.45726 0.41664 0.66852 0.0
H967 H 0.56076 0.59445 0.66936 0.0
H968 H 0.55234 0.46172 0.67687 0.0
H969 H 0.4654 0.54926 0.67489 0.0
H970 H 0.55831 0.54616 0.67259 0.0
H971 H 0.45961 0.46491 0.67137 0.0
C972 C 0.47854 0.43649 0.67127 0.0
C973 C 0.50457 0.43479 0.67237 0.0
C974 C 0.53795 0.5469 0.6733 0.0
C975 C 0.50755 0.49046 0.67523 0.0
C976 C 0.53938 0.57457 0.67155 0.0
C977 C 0.51332 0.57626 0.67177 0.0
C978 C 0.51024 0.52056 0.6751 0.0
C979 C 0.48621 0.54939 0.6745 0.0
C980 C 0.47992 0.46415 0.67279 0.0
C981 C 0.53157 0.46161 0.67578 0.0
N982 N 0.4854 0.52289 0.67584 0.0
N983 N 0.53234 0.48811 0.67687 0.0
H984 H 0.56372 0.25057 0.22764 0.0
H985 H 0.69655 0.25456 0.30406 0.0
H986 H 0.6263 0.22757 0.19749 0.0
H987 H 0.61023 0.22797 0.33475 0.0
H988 H 0.68236 0.26969 0.26533 0.0
H989 H 0.59302 0.26722 0.26642 0.0
C990 C 0.58415 0.24998 0.22887 0.0
C991 C 0.59236 0.23706 0.20975 0.0
C992 C 0.66696 0.26143 0.2809 0.0
C993 C 0.62582 0.25625 0.25351 0.0
C994 C 0.67499 0.25284 0.30296 0.0
C995 C 0.65416 0.23929 0.32224 0.0
C996 C 0.63814 0.25677 0.27844 0.0
C997 C 0.62661 0.23767 0.31998 0.0
C998 C 0.60076 0.25942 0.25094 0.0
C999 C 0.61898 0.23681 0.21214 0.0
N1000 N 0.6192 0.24588 0.29826 0.0
N1001 N 0.63462 0.24588 0.23383 0.0
H1002 H 0.38808 0.60702 0.33392 0.0
H1003 H 0.40721 0.62146 0.19455 0.0
H1004 H 0.44984 0.6917 0.30143 0.0
H1005 H 0.32083 0.56283 0.22578 0.0
H1006 H 0.42021 0.65169 0.23246 0.0
H1007 H 0.35892 0.59377 0.29537 0.0
C1008 C 0.39503 0.6231 0.31885 0.0
C1009 C 0.42166 0.65015 0.32049 0.0
C1010 C 0.39808 0.63273 0.23076 0.0
C1011 C 0.38902 0.63494 0.27627 0.0
C1012 C 0.39077 0.61538 0.20921 0.0
C1013 C 0.36323 0.58931 0.20742 0.0
C1014 C 0.37807 0.62329 0.25091 0.0
C1015 C 0.34249 0.58259 0.22667 0.0
C1016 C 0.37833 0.61563 0.29691 0.0
C1017 C 0.42958 0.67044 0.30068 0.0
N1018 N 0.35066 0.59899 0.24803 0.0
N1019 N 0.41381 0.66204 0.27898 0.0
H1020 H 0.79036 0.40287 0.19635 0.0
H1021 H 0.79261 0.39033 0.33576 0.0
H1022 H 0.76839 0.31895 0.22985 0.0
H1023 H 0.7639 0.44717 0.30243 0.0
H1024 H 0.77604 0.3592 0.29833 0.0
H1025 H 0.7729 0.41577 0.23413 0.0
C1026 C 0.78114 0.38688 0.21149 0.0
C1027 C 0.78141 0.36018 0.21038 0.0
C1028 C 0.77249 0.37794 0.29948 0.0
C1029 C 0.76217 0.37498 0.25373 0.0
C1030 C 0.78214 0.3958 0.32076 0.0
C1031 C 0.78033 0.42171 0.32178 0.0
C1032 C 0.76196 0.38672 0.27885 0.0
C1033 C 0.76612 0.4276 0.30213 0.0
C1034 C 0.771 0.39413 0.23297 0.0
C1035 C 0.76887 0.33997 0.23022 0.0
N1036 N 0.75831 0.41073 0.28104 0.0
N1037 N 0.7606 0.34818 0.25152 0.0
H1038 H 0.38955 0.7887 0.19404 0.0
H1039 H 0.40955 0.79102 0.33386 0.0
H1040 H 0.44917 0.76247 0.22551 0.0
H1041 H 0.32353 0.76604 0.30333 0.0
H1042 H 0.42174 0.77441 0.29517 0.0
H1043 H 0.36115 0.77404 0.23302 0.0
C1044 C 0.39618 0.77913 0.20897 0.0
C1045 C 0.42203 0.77737 0.20688 0.0
C1046 C 0.39986 0.77173 0.29718 0.0
C1047 C 0.39023 0.76129 0.25156 0.0
C1048 C 0.393 0.78139 0.31918 0.0
C1049 C 0.36579 0.78043 0.32145 0.0
C1050 C 0.37973 0.76207 0.27709 0.0
C1051 C 0.34491 0.76742 0.30211 0.0
C1052 C 0.37991 0.77062 0.23116 0.0
C1053 C 0.42953 0.76449 0.22656 0.0
N1054 N 0.35266 0.75954 0.28034 0.0
N1055 N 0.41421 0.75777 0.24847 0.0
H1056 H 0.62279 0.39881 0.33044 0.0
H1057 H 0.60303 0.38512 0.19114 0.0
H1058 H 0.55841 0.31502 0.29821 0.0
H1059 H 0.6901 0.4408 0.22246 0.0
H1060 H 0.58896 0.3546 0.22894 0.0
H1061 H 0.6516 0.41095 0.29178 0.0
C1062 C 0.61518 0.38267 0.31538 0.0
C1063 C 0.58801 0.35622 0.31715 0.0
C1064 C 0.61144 0.37294 0.22726 0.0
C1065 C 0.62022 0.37019 0.27278 0.0
C1066 C 0.61938 0.39048 0.20577 0.0
C1067 C 0.64747 0.4159 0.20407 0.0
C1068 C 0.63141 0.38156 0.24741 0.0
C1069 C 0.66804 0.42162 0.22328 0.0
C1070 C 0.63166 0.38949 0.29338 0.0
C1071 C 0.57916 0.33582 0.29735 0.0
N1072 N 0.65931 0.4051 0.24457 0.0
N1073 N 0.59478 0.34365 0.27557 0.0
H1074 H 0.25578 0.56591 0.30405 0.0
H1075 H 0.25595 0.6979 0.22975 0.0
H1076 H 0.22959 0.62589 0.33481 0.0
H1077 H 0.23171 0.61235 0.19842 0.0
H1078 H 0.2726 0.68443 0.26802 0.0
H1079 H 0.27324 0.59667 0.26614 0.0
C1080 C 0.25466 0.5861 0.30318 0.0
C1081 C 0.24051 0.59306 0.32213 0.0
C1082 C 0.26459 0.6691 0.25237 0.0
C1083 C 0.26065 0.62818 0.27935 0.0
C1084 C 0.25511 0.67672 0.23059 0.0
C1085 C 0.24172 0.65579 0.21134 0.0
C1086 C 0.26094 0.64062 0.25455 0.0
C1087 C 0.24125 0.62875 0.21321 0.0
C1088 C 0.2646 0.60356 0.28161 0.0
C1089 C 0.23971 0.61946 0.32024 0.0
N1090 N 0.25028 0.62171 0.23468 0.0
N1091 N 0.24921 0.63589 0.29897 0.0
H1092 H 0.39207 0.78781 0.83636 0.0
H1093 H 0.40647 0.78752 0.69704 0.0
H1094 H 0.44989 0.76025 0.80332 0.0
H1095 H 0.32196 0.76422 0.72983 0.0
H1096 H 0.41917 0.76984 0.73483 0.0
H1097 H 0.36147 0.77146 0.79862 0.0
C1098 C 0.39787 0.77762 0.82135 0.0
C1099 C 0.42388 0.77606 0.82255 0.0
C1100 C 0.39746 0.7677 0.73351 0.0
C1101 C 0.38951 0.75798 0.77927 0.0
C1102 C 0.39032 0.77797 0.71202 0.0
C1103 C 0.36348 0.77792 0.71072 0.0
C1104 C 0.37805 0.75841 0.75408 0.0
C1105 C 0.34308 0.76496 0.73036 0.0
C1106 C 0.38031 0.7681 0.79989 0.0
C1107 C 0.43021 0.76224 0.80289 0.0
N1108 N 0.35116 0.75656 0.75167 0.0
N1109 N 0.41364 0.75457 0.78163 0.0
H1110 H 0.69792 0.45077 0.79956 0.0
H1111 H 0.56758 0.31841 0.72387 0.0
H1112 H 0.61253 0.38823 0.83039 0.0
H1113 H 0.62654 0.40535 0.69363 0.0
H1114 H 0.59778 0.33214 0.76211 0.0
H1115 H 0.68468 0.42141 0.76083 0.0
C1116 C 0.67682 0.43032 0.79849 0.0
C1117 C 0.65589 0.42218 0.81779 0.0
C1118 C 0.60456 0.34777 0.74671 0.0
C1119 C 0.64098 0.38866 0.77406 0.0
C1120 C 0.58743 0.34001 0.72494 0.0
C1121 C 0.59426 0.36115 0.70599 0.0
C1122 C 0.62876 0.37662 0.74917 0.0
C1123 C 0.62021 0.38874 0.70817 0.0
C1124 C 0.66933 0.41367 0.77645 0.0
C1125 C 0.62894 0.39552 0.8156 0.0
N1126 N 0.63635 0.39589 0.72962 0.0
N1127 N 0.62204 0.37987 0.79391 0.0
H1128 H 0.22978 0.60843 0.83627 0.0
H1129 H 0.22773 0.6255 0.69649 0.0
H1130 H 0.25461 0.69395 0.80457 0.0
H1131 H 0.25317 0.5651 0.72763 0.0
H1132 H 0.2443 0.65479 0.73496 0.0
H1133 H 0.24519 0.5951 0.79752 0.0
C1134 C 0.23919 0.62465 0.82132 0.0
C1135 C 0.24036 0.65202 0.82327 0.0
C1136 C 0.24711 0.63564 0.73313 0.0
C1137 C 0.25728 0.63675 0.77883 0.0
C1138 C 0.23748 0.61885 0.71126 0.0
C1139 C 0.23852 0.59259 0.70924 0.0
C1140 C 0.25683 0.62544 0.75336 0.0
C1141 C 0.2517 0.58507 0.72866 0.0
C1142 C 0.24814 0.61713 0.79927 0.0
C1143 C 0.25306 0.67246 0.8036 0.0
N1144 N 0.25953 0.60095 0.75032 0.0
N1145 N 0.2602 0.66406 0.7818 0.0
H1146 H 0.62678 0.22548 0.83365 0.0
H1147 H 0.61273 0.22874 0.69468 0.0
H1148 H 0.56705 0.25125 0.80167 0.0
H1149 H 0.69755 0.25332 0.7276 0.0
H1150 H 0.59928 0.24532 0.73267 0.0
H1151 H 0.65757 0.24379 0.79615 0.0
C1152 C 0.62058 0.23566 0.81892 0.0
C1153 C 0.59405 0.2362 0.82033 0.0
C1154 C 0.62122 0.24801 0.73134 0.0
C1155 C 0.62863 0.2565 0.77728 0.0
C1156 C 0.62879 0.23837 0.70972 0.0
C1157 C 0.65592 0.239 0.70841 0.0
C1158 C 0.64049 0.25722 0.75202 0.0
C1159 C 0.6762 0.25209 0.72813 0.0
C1160 C 0.63824 0.24632 0.7976 0.0
C1161 C 0.58717 0.25006 0.80104 0.0
N1162 N 0.66769 0.25982 0.74956 0.0
N1163 N 0.60388 0.25884 0.77986 0.0
H1164 H 0.39186 0.60441 0.69314 0.0
H1165 H 0.40625 0.62227 0.8327 0.0
H1166 H 0.44961 0.69074 0.725 0.0
H1167 H 0.32174 0.56019 0.80019 0.0
H1168 H 0.41926 0.6516 0.79426 0.0
H1169 H 0.36167 0.59062 0.73109 0.0
C1170 C 0.39775 0.62068 0.70794 0.0
C1171 C 0.42359 0.64844 0.70631 0.0
C1172 C 0.39749 0.63208 0.79577 0.0
C1173 C 0.38966 0.63269 0.74983 0.0
C1174 C 0.39016 0.61528 0.81764 0.0
C1175 C 0.36321 0.58856 0.81926 0.0
C1176 C 0.37815 0.62139 0.77515 0.0
C1177 C 0.34291 0.58056 0.79946 0.0
C1178 C 0.38042 0.6129 0.72952 0.0
C1179 C 0.43004 0.66893 0.72575 0.0
N1180 N 0.35117 0.59644 0.77781 0.0
N1181 N 0.41368 0.66032 0.74712 0.0
H1182 H 0.76722 0.45189 0.7268 0.0
H1183 H 0.76762 0.32081 0.80281 0.0
H1184 H 0.79136 0.39049 0.69571 0.0
H1185 H 0.79435 0.40741 0.83314 0.0
H1186 H 0.75164 0.3345 0.76426 0.0
H1187 H 0.75234 0.42289 0.76576 0.0
C1188 C 0.76843 0.43176 0.72788 0.0
C1189 C 0.78117 0.42384 0.70839 0.0
C1190 C 0.76014 0.35007 0.77973 0.0
C1191 C 0.764 0.39074 0.7524 0.0
C1192 C 0.76922 0.34233 0.80167 0.0
C1193 C 0.78296 0.36336 0.8208 0.0
C1194 C 0.76446 0.37878 0.77726 0.0
C1195 C 0.78447 0.39087 0.8185 0.0
C1196 C 0.76 0.41533 0.75005 0.0
C1197 C 0.78223 0.3976 0.71061 0.0
N1198 N 0.7757 0.39798 0.7969 0.0
N1199 N 0.77415 0.38214 0.73243 0.0
H1200 H 0.49549 0.26891 0.11879 0.0
H1201 H 0.62796 0.41106 0.06362 0.0
H1202 H 0.55916 0.26632 0.06892 0.0
H1203 H 0.55429 0.40884 0.10223 0.0
H1204 H 0.59711 0.35802 0.05474 0.0
H1205 H 0.50966 0.31824 0.10335 0.0
C1206 C 0.51213 0.27865 0.1042 0.0
C1207 C 0.52663 0.26395 0.09543 0.0
C1208 C 0.58734 0.36932 0.06439 0.0
C1209 C 0.54379 0.32085 0.07818 0.0
C1210 C 0.6049 0.39969 0.06926 0.0
C1211 C 0.59379 0.414 0.08427 0.0
C1212 C 0.55876 0.35348 0.07482 0.0
C1213 C 0.56384 0.39833 0.09111 0.0
C1214 C 0.52022 0.30681 0.0953 0.0
C1215 C 0.54771 0.2772 0.07629 0.0
N1216 N 0.54756 0.36875 0.08687 0.0
N1217 N 0.55631 0.30534 0.06877 0.0
H1218 H 0.14932 0.55411 0.11388 0.0
H1219 H 0.29164 0.55007 0.06904 0.0
H1220 H 0.22033 0.62421 0.07162 0.0
H1221 H 0.2294 0.49405 0.12541 0.0
H1222 H 0.25693 0.56671 0.05661 0.0
H1223 H 0.16856 0.52138 0.10343 0.0
C1224 C 0.16846 0.56228 0.10169 0.0
C1225 C 0.1837 0.59199 0.09403 0.0
C1226 C 0.25058 0.55016 0.07121 0.0
C1227 C 0.20649 0.55513 0.08283 0.0
C1228 C 0.27029 0.5406 0.07825 0.0
C1229 C 0.26351 0.52119 0.09862 0.0
C1230 C 0.22396 0.53991 0.08454 0.0
C1231 C 0.23566 0.50954 0.10995 0.0
C1232 C 0.17955 0.54366 0.09584 0.0
C1233 C 0.20817 0.60146 0.07808 0.0
N1234 N 0.21707 0.51936 0.10297 0.0
N1235 N 0.2194 0.5833 0.07358 0.0
H1236 H 0.74918 0.22767 0.12591 0.0
H1237 H 0.6061 0.21629 0.06882 0.0
H1238 H 0.75114 0.29149 0.07334 0.0
H1239 H 0.60797 0.14932 0.115 0.0
H1240 H 0.65901 0.23708 0.0601 0.0
H1241 H 0.69897 0.19231 0.11247 0.0
C1242 C 0.73913 0.23396 0.11114 0.0
C1243 C 0.75394 0.26261 0.10104 0.0
C1244 C 0.64765 0.21726 0.07148 0.0
C1245 C 0.69607 0.2227 0.0861 0.0
C1246 C 0.61739 0.20526 0.07629 0.0
C1247 C 0.60299 0.18155 0.09313 0.0
C1248 C 0.66331 0.20542 0.08376 0.0
C1249 C 0.61853 0.16807 0.10235 0.0
C1250 C 0.71044 0.21379 0.10341 0.0
C1251 C 0.74022 0.26961 0.08172 0.0
N1252 N 0.64798 0.18055 0.09797 0.0
N1253 N 0.71165 0.25005 0.07533 0.0
H1254 H 0.38833 0.59805 0.06654 0.0
H1255 H 0.52053 0.74094 0.12188 0.0
H1256 H 0.46012 0.60016 0.10835 0.0
H1257 H 0.45928 0.74342 0.06899 0.0
H1258 H 0.5057 0.69084 0.10817 0.0
H1259 H 0.41987 0.65098 0.0574 0.0
C1260 C 0.41113 0.60938 0.07289 0.0
C1261 C 0.4215 0.59507 0.08875 0.0
C1262 C 0.49583 0.70239 0.09908 0.0
C1263 C 0.45732 0.65543 0.07895 0.0
C1264 C 0.50432 0.73101 0.10698 0.0
C1265 C 0.4907 0.74594 0.09682 0.0
C1266 C 0.47272 0.68818 0.08156 0.0
C1267 C 0.47009 0.73238 0.07738 0.0
C1268 C 0.42909 0.63966 0.06785 0.0
C1269 C 0.45114 0.61067 0.09653 0.0
N1270 N 0.46106 0.70385 0.07083 0.0
N1271 N 0.4678 0.64016 0.09203 0.0
H1272 H 0.86993 0.46049 0.11274 0.0
H1273 H 0.72452 0.45882 0.0676 0.0
H1274 H 0.80025 0.38877 0.07069 0.0
H1275 H 0.78456 0.51449 0.12536 0.0
H1276 H 0.76071 0.44398 0.05536 0.0
H1277 H 0.8486 0.4915 0.10255 0.0
C1278 C 0.85064 0.45162 0.10065 0.0
C1279 C 0.83638 0.4219 0.093 0.0
C1280 C 0.76623 0.46006 0.07024 0.0
C1281 C 0.81126 0.4568 0.08205 0.0
C1282 C 0.74568 0.46857 0.07717 0.0
C1283 C 0.75147 0.48739 0.09782 0.0
C1284 C 0.7927 0.47082 0.08393 0.0
C1285 C 0.77909 0.49946 0.10965 0.0
C1286 C 0.83837 0.46925 0.09494 0.0
C1287 C 0.81168 0.41153 0.07715 0.0
N1288 N 0.79853 0.49071 0.10272 0.0
N1289 N 0.79931 0.42872 0.07277 0.0
H1290 H 0.41845 0.87043 0.09931 0.0
H1291 H 0.27622 0.78597 0.12764 0.0
H1292 H 0.40965 0.7889 0.07124 0.0
H1293 H 0.26832 0.7238 0.07058 0.0
H1294 H 0.32555 0.82065 0.11277 0.0
H1295 H 0.366 0.85151 0.09073 0.0
C1296 C 0.40553 0.84882 0.09066 0.0
C1297 C 0.41801 0.83086 0.08646 0.0
C1298 C 0.31291 0.80003 0.10268 0.0
C1299 C 0.35769 0.80807 0.07867 0.0
C1300 C 0.28471 0.78001 0.11146 0.0
C1301 C 0.26846 0.75189 0.10056 0.0
C1302 C 0.32529 0.79166 0.08308 0.0
C1303 C 0.28032 0.74528 0.07957 0.0
C1304 C 0.37547 0.83776 0.08621 0.0
C1305 C 0.40061 0.80323 0.07497 0.0
N1306 N 0.30843 0.76473 0.07193 0.0
N1307 N 0.37099 0.79223 0.07219 0.0
H1308 H 0.74394 0.52282 0.40005 0.0
H1309 H 0.60111 0.39248 0.4584 0.0
H1310 H 0.74633 0.46413 0.45582 0.0
H1311 H 0.60274 0.46038 0.41109 0.0
H1312 H 0.65393 0.42514 0.46723 0.0
H1313 H 0.69355 0.50796 0.41271 0.0
C1314 C 0.73393 0.50716 0.41533 0.0
C1315 C 0.74894 0.49421 0.4266 0.0
C1316 C 0.64253 0.43329 0.45558 0.0
C1317 C 0.69088 0.47625 0.44073 0.0
C1318 C 0.61232 0.41471 0.45071 0.0
C1319 C 0.59791 0.42358 0.43351 0.0
C1320 C 0.65813 0.46064 0.44299 0.0
C1321 C 0.61334 0.45253 0.42401 0.0
C1322 C 0.70514 0.49866 0.42263 0.0
C1323 C 0.73526 0.47438 0.44653 0.0
N1324 N 0.64276 0.46978 0.42844 0.0
N1325 N 0.70661 0.46533 0.45254 0.0
H1326 H 0.15002 0.60302 0.41953 0.0
H1327 H 0.29638 0.74761 0.46201 0.0
H1328 H 0.22054 0.60176 0.46069 0.0
H1329 H 0.23388 0.74277 0.40657 0.0
H1330 H 0.26068 0.6966 0.47497 0.0
H1331 H 0.17127 0.65544 0.42962 0.0
C1332 C 0.16948 0.61363 0.43143 0.0
C1333 C 0.18397 0.59837 0.43885 0.0
C1334 C 0.25453 0.70705 0.46045 0.0
C1335 C 0.20905 0.65851 0.44961 0.0
C1336 C 0.27481 0.73612 0.45312 0.0
C1337 C 0.26816 0.74899 0.43286 0.0
C1338 C 0.22748 0.69117 0.44754 0.0
C1339 C 0.24001 0.73331 0.42193 0.0
C1340 C 0.18172 0.64359 0.43706 0.0
C1341 C 0.20891 0.61294 0.45442 0.0
N1342 N 0.22086 0.70511 0.4292 0.0
N1343 N 0.22126 0.64256 0.45869 0.0
H1344 H 0.55356 0.29503 0.45966 0.0
H1345 H 0.5555 0.149 0.42376 0.0
H1346 H 0.49635 0.22883 0.40623 0.0
H1347 H 0.62682 0.22297 0.46243 0.0
H1348 H 0.52317 0.16909 0.43288 0.0
H1349 H 0.57 0.26099 0.47463 0.0
C1350 C 0.54384 0.27302 0.45161 0.0
C1351 C 0.52412 0.26485 0.43132 0.0
C1352 C 0.54563 0.18055 0.44004 0.0
C1353 C 0.54256 0.22604 0.44833 0.0
C1354 C 0.564 0.16897 0.43498 0.0
C1355 C 0.59393 0.18474 0.44192 0.0
C1356 C 0.55756 0.2085 0.45148 0.0
C1357 C 0.60388 0.21034 0.45658 0.0
C1358 C 0.55325 0.25368 0.46011 0.0
C1359 C 0.51209 0.23616 0.42155 0.0
N1360 N 0.58595 0.222 0.46024 0.0
N1361 N 0.52178 0.21794 0.42993 0.0
H1362 H 0.26973 0.48995 0.40802 0.0
H1363 H 0.41392 0.62224 0.46203 0.0
H1364 H 0.26932 0.55394 0.45897 0.0
H1365 H 0.41035 0.55066 0.41877 0.0
H1366 H 0.36122 0.59082 0.4719 0.0
H1367 H 0.31955 0.50403 0.42193 0.0
C1368 C 0.28003 0.5066 0.42256 0.0
C1369 C 0.26581 0.52125 0.43205 0.0
C1370 C 0.37217 0.58162 0.46095 0.0
C1371 C 0.32327 0.53838 0.44747 0.0
C1372 C 0.40233 0.5995 0.4555 0.0
C1373 C 0.41613 0.58917 0.43904 0.0
C1374 C 0.35601 0.55349 0.44968 0.0
C1375 C 0.40022 0.55961 0.43106 0.0
C1376 C 0.30849 0.51467 0.43056 0.0
C1377 C 0.27981 0.54236 0.45107 0.0
N1378 N 0.37085 0.54302 0.43599 0.0
N1379 N 0.3082 0.55095 0.45768 0.0
H1380 H 0.86995 0.41742 0.42365 0.0
H1381 H 0.723 0.27125 0.46238 0.0
H1382 H 0.7966 0.41707 0.46119 0.0
H1383 H 0.78656 0.27852 0.40703 0.0
H1384 H 0.75804 0.32202 0.47635 0.0
H1385 H 0.84893 0.36502 0.43377 0.0
C1386 C 0.84993 0.4065 0.43483 0.0
C1387 C 0.83455 0.42124 0.44108 0.0
C1388 C 0.76456 0.31214 0.46163 0.0
C1389 C 0.80984 0.36119 0.45187 0.0
C1390 C 0.74465 0.28323 0.45369 0.0
C1391 C 0.75179 0.27111 0.43319 0.0
C1392 C 0.79176 0.3286 0.44912 0.0
C1393 C 0.78004 0.28739 0.42256 0.0
C1394 C 0.83783 0.37655 0.44047 0.0
C1395 C 0.80891 0.40628 0.45579 0.0
N1396 N 0.79886 0.31542 0.43046 0.0
N1397 N 0.79678 0.37669 0.46005 0.0
H1398 H 0.46289 0.71909 0.46067 0.0
H1399 H 0.46504 0.86662 0.42181 0.0
H1400 H 0.51918 0.78208 0.40484 0.0
H1401 H 0.39313 0.79494 0.46203 0.0
H1402 H 0.49608 0.84502 0.43083 0.0
H1403 H 0.44817 0.75476 0.47485 0.0
C1404 C 0.47281 0.74076 0.45193 0.0
C1405 C 0.49175 0.74756 0.43124 0.0
C1406 C 0.47379 0.83439 0.43832 0.0
C1407 C 0.4753 0.78821 0.44735 0.0
C1408 C 0.45614 0.84683 0.4333 0.0
C1409 C 0.42637 0.83212 0.44073 0.0
C1410 C 0.46128 0.80668 0.45026 0.0
C1411 C 0.41594 0.80674 0.45577 0.0
C1412 C 0.46436 0.76102 0.45997 0.0
C1413 C 0.50403 0.77583 0.42054 0.0
N1414 N 0.43314 0.79424 0.45943 0.0
N1415 N 0.49532 0.79497 0.42852 0.0
H1416 H 0.46752 0.74508 0.96003 0.0
H1417 H 0.46468 0.5988 0.9161 0.0
H1418 H 0.52148 0.73844 0.90201 0.0
H1419 H 0.3951 0.59927 0.95932 0.0
H1420 H 0.49699 0.65121 0.92566 0.0
H1421 H 0.45213 0.6941 0.97305 0.0
C1422 C 0.47679 0.73319 0.95055 0.0
C1423 C 0.49525 0.74556 0.92959 0.0
C1424 C 0.47494 0.63972 0.93367 0.0
C1425 C 0.47802 0.68778 0.94437 0.0
C1426 C 0.45657 0.60978 0.92834 0.0
C1427 C 0.42707 0.59502 0.93649 0.0
C1428 C 0.46342 0.65513 0.94669 0.0
C1429 C 0.41768 0.61005 0.95248 0.0
C1430 C 0.46796 0.70415 0.95793 0.0
C1431 C 0.50671 0.72939 0.91794 0.0
N1432 N 0.43556 0.63965 0.95648 0.0
N1433 N 0.49763 0.70122 0.92529 0.0
H1434 H 0.8691 0.46144 0.92165 0.0
H1435 H 0.72149 0.45958 0.95915 0.0
H1436 H 0.79666 0.38908 0.96082 0.0
H1437 H 0.78562 0.51683 0.90445 0.0
H1438 H 0.75662 0.44423 0.97347 0.0
H1439 H 0.84758 0.49257 0.9306 0.0
C1440 C 0.84915 0.45245 0.93291 0.0
C1441 C 0.83423 0.42255 0.94005 0.0
C1442 C 0.76324 0.46075 0.95881 0.0
C1443 C 0.80889 0.45757 0.9495 0.0
C1444 C 0.74328 0.46956 0.95069 0.0
C1445 C 0.75057 0.48898 0.93026 0.0
C1446 C 0.79062 0.47181 0.94653 0.0
C1447 C 0.77899 0.50132 0.91992 0.0
C1448 C 0.83675 0.47014 0.93788 0.0
C1449 C 0.80864 0.412 0.95479 0.0
N1450 N 0.79783 0.49226 0.92797 0.0
N1451 N 0.79621 0.42927 0.95841 0.0
H1452 H 0.41903 0.79409 0.96334 0.0
H1453 H 0.27615 0.78534 0.91069 0.0
H1454 H 0.41697 0.86444 0.92249 0.0
H1455 H 0.27407 0.72023 0.9618 0.0
H1456 H 0.32635 0.82034 0.92439 0.0
H1457 H 0.36643 0.77315 0.97335 0.0
C1458 C 0.40781 0.80581 0.95739 0.0
C1459 C 0.42199 0.83053 0.94152 0.0
C1460 C 0.31486 0.79866 0.9331 0.0
C1461 C 0.36198 0.80648 0.95231 0.0
C1462 C 0.28619 0.77869 0.92521 0.0
C1463 C 0.27134 0.74983 0.93484 0.0
C1464 C 0.32922 0.7893 0.95004 0.0
C1465 C 0.28503 0.74231 0.95382 0.0
C1466 C 0.37771 0.79373 0.96292 0.0
C1467 C 0.40654 0.8449 0.93429 0.0
N1468 N 0.31361 0.76168 0.96033 0.0
N1469 N 0.3772 0.83229 0.93925 0.0
H1470 H 0.4921 0.26709 0.90485 0.0
H1471 H 0.62441 0.41123 0.95967 0.0
H1472 H 0.55513 0.26633 0.95673 0.0
H1473 H 0.55437 0.40819 0.91449 0.0
H1474 H 0.59247 0.35848 0.96936 0.0
H1475 H 0.50663 0.31724 0.91823 0.0
C1476 C 0.50863 0.27739 0.91947 0.0
C1477 C 0.5229 0.26296 0.92937 0.0
C1478 C 0.58371 0.36957 0.958 0.0
C1479 C 0.54052 0.32077 0.9442 0.0
C1480 C 0.60189 0.39974 0.95263 0.0
C1481 C 0.59216 0.41371 0.93574 0.0
C1482 C 0.5559 0.35357 0.94622 0.0
C1483 C 0.56287 0.39793 0.92713 0.0
C1484 C 0.51696 0.30604 0.92716 0.0
C1485 C 0.54385 0.27697 0.9485 0.0
N1486 N 0.54599 0.36855 0.93202 0.0
N1487 N 0.55269 0.30552 0.95482 0.0
H1488 H 0.22425 0.62461 0.96402 0.0
H1489 H 0.23212 0.49117 0.90758 0.0
H1490 H 0.15377 0.55325 0.92232 0.0
H1491 H 0.29834 0.55388 0.95822 0.0
H1492 H 0.19755 0.50632 0.92235 0.0
H1493 H 0.24543 0.5928 0.97245 0.0
C1494 C 0.21256 0.60183 0.95756 0.0
C1495 C 0.18769 0.59166 0.94194 0.0
C1496 C 0.2194 0.51647 0.9307 0.0
C1497 C 0.212 0.55555 0.95092 0.0
C1498 C 0.23913 0.50779 0.9222 0.0
C1499 C 0.26817 0.52173 0.93138 0.0
C1500 C 0.22913 0.54004 0.94785 0.0
C1501 C 0.27613 0.54283 0.95054 0.0
C1502 C 0.22478 0.58373 0.96218 0.0
C1503 C 0.17339 0.56207 0.93399 0.0
N1504 N 0.25694 0.55199 0.95768 0.0
N1505 N 0.1861 0.54526 0.93809 0.0
H1506 H 0.74714 0.22927 0.90645 0.0
H1507 H 0.60244 0.21631 0.96034 0.0
H1508 H 0.74754 0.29269 0.95855 0.0
H1509 H 0.60607 0.14871 0.91649 0.0
H1510 H 0.65521 0.23788 0.97001 0.0
H1511 H 0.69689 0.19348 0.91942 0.0
C1512 C 0.73672 0.23538 0.92103 0.0
C1513 C 0.75111 0.26401 0.93115 0.0
C1514 C 0.64426 0.21777 0.95895 0.0
C1515 C 0.69319 0.22362 0.94553 0.0
C1516 C 0.61407 0.20532 0.95359 0.0
C1517 C 0.60023 0.18121 0.93707 0.0
C1518 C 0.66043 0.20596 0.94753 0.0
C1519 C 0.61621 0.16778 0.92884 0.0
C1520 C 0.70802 0.21496 0.92849 0.0
C1521 C 0.73693 0.27082 0.95018 0.0
N1522 N 0.6456 0.18071 0.9337 0.0
N1523 N 0.70835 0.25101 0.9563 0.0
H1524 H 0.27407 0.49589 0.62205 0.0
H1525 H 0.41621 0.62718 0.56572 0.0
H1526 H 0.27121 0.55786 0.57016 0.0
H1527 H 0.41392 0.5538 0.60509 0.0
H1528 H 0.36312 0.59637 0.55715 0.0
H1529 H 0.32354 0.51004 0.60719 0.0
C1530 C 0.28379 0.51217 0.60718 0.0
C1531 C 0.26895 0.52619 0.59763 0.0
C1532 C 0.37441 0.58665 0.5669 0.0
C1533 C 0.32598 0.54329 0.58098 0.0
C1534 C 0.40479 0.60418 0.5716 0.0
C1535 C 0.41912 0.59316 0.58671 0.0
C1536 C 0.35856 0.55818 0.57761 0.0
C1537 C 0.4034 0.56328 0.59388 0.0
C1538 C 0.31203 0.52023 0.59859 0.0
C1539 C 0.2822 0.5468 0.57813 0.0
N1540 N 0.37381 0.54704 0.58979 0.0
N1541 N 0.31039 0.55538 0.57089 0.0
H1542 H 0.79866 0.41308 0.56628 0.0
H1543 H 0.78866 0.27115 0.62314 0.0
H1544 H 0.86808 0.41173 0.60912 0.0
H1545 H 0.72401 0.26814 0.571 0.0
H1546 H 0.8239 0.32095 0.60867 0.0
H1547 H 0.7776 0.36013 0.55744 0.0
C1548 C 0.81016 0.40191 0.57291 0.0
C1549 C 0.83464 0.41643 0.58897 0.0
C1550 C 0.80226 0.30932 0.59992 0.0
C1551 C 0.81046 0.35605 0.57954 0.0
C1552 C 0.78215 0.28088 0.60825 0.0
C1553 C 0.75334 0.26592 0.59856 0.0
C1554 C 0.79312 0.32334 0.58243 0.0
C1555 C 0.74603 0.27921 0.57907 0.0
C1556 C 0.79801 0.37162 0.56806 0.0
C1557 C 0.84873 0.40105 0.59712 0.0
N1558 N 0.76555 0.30759 0.5721 0.0
N1559 N 0.83607 0.37154 0.5928 0.0
H1560 H 0.39311 0.79912 0.56993 0.0
H1561 H 0.52384 0.78531 0.62492 0.0
H1562 H 0.46373 0.86622 0.61473 0.0
H1563 H 0.46269 0.72354 0.57076 0.0
H1564 H 0.50945 0.82127 0.61242 0.0
H1565 H 0.42457 0.77787 0.56031 0.0
C1566 C 0.41567 0.81009 0.57689 0.0
C1567 C 0.42568 0.83394 0.59365 0.0
C1568 C 0.4995 0.80013 0.6028 0.0
C1569 C 0.46139 0.80954 0.58328 0.0
C1570 C 0.50774 0.77961 0.61 0.0
C1571 C 0.494 0.75137 0.59914 0.0
C1572 C 0.47655 0.79195 0.58525 0.0
C1573 C 0.47357 0.7451 0.57969 0.0
C1574 C 0.43356 0.79782 0.57157 0.0
C1575 C 0.455 0.84734 0.60218 0.0
N1576 N 0.4648 0.76496 0.57381 0.0
N1577 N 0.4716 0.83458 0.59736 0.0
H1578 H 0.74962 0.46017 0.56725 0.0
H1579 H 0.60314 0.45972 0.60631 0.0
H1580 H 0.74232 0.51648 0.62261 0.0
H1581 H 0.60378 0.38792 0.56677 0.0
H1582 H 0.65566 0.49143 0.59693 0.0
H1583 H 0.69884 0.44423 0.55333 0.0
C1584 C 0.73763 0.46981 0.57594 0.0
C1585 C 0.74976 0.48915 0.59643 0.0
C1586 C 0.64419 0.469 0.58966 0.0
C1587 C 0.69222 0.47134 0.5806 0.0
C1588 C 0.61419 0.45098 0.59488 0.0
C1589 C 0.59944 0.42108 0.58775 0.0
C1590 C 0.65965 0.45675 0.57783 0.0
C1591 C 0.61456 0.41084 0.57279 0.0
C1592 C 0.70871 0.46068 0.56805 0.0
C1593 C 0.73346 0.50106 0.60708 0.0
N1594 N 0.6442 0.42843 0.56893 0.0
N1595 N 0.70542 0.4917 0.59923 0.0
H1596 H 0.14966 0.60351 0.61024 0.0
H1597 H 0.29561 0.75029 0.57095 0.0
H1598 H 0.22135 0.60453 0.56923 0.0
H1599 H 0.23238 0.74285 0.62671 0.0
H1600 H 0.26042 0.69966 0.55683 0.0
H1601 H 0.17046 0.65616 0.6013 0.0
C1602 C 0.16927 0.61467 0.59859 0.0
C1603 C 0.18422 0.59997 0.5909 0.0
C1604 C 0.254 0.70947 0.57169 0.0
C1605 C 0.20877 0.66033 0.58146 0.0
C1606 C 0.27399 0.73832 0.5797 0.0
C1607 C 0.26701 0.75035 0.60036 0.0
C1608 C 0.22689 0.69293 0.58433 0.0
C1609 C 0.23879 0.73406 0.61105 0.0
C1610 C 0.18126 0.64476 0.59362 0.0
C1611 C 0.20936 0.61525 0.57568 0.0
N1612 N 0.21992 0.70607 0.60312 0.0
N1613 N 0.22143 0.64496 0.57206 0.0
H1614 H 0.55472 0.29105 0.56697 0.0
H1615 H 0.55592 0.14673 0.61042 0.0
H1616 H 0.4975 0.22808 0.6224 0.0
H1617 H 0.62694 0.21792 0.56904 0.0
H1618 H 0.52379 0.16664 0.59982 0.0
H1619 H 0.57067 0.25591 0.55408 0.0
C1620 C 0.54485 0.26946 0.57586 0.0
C1621 C 0.5253 0.26256 0.59611 0.0
C1622 C 0.54615 0.17752 0.59244 0.0
C1623 C 0.54321 0.22254 0.58153 0.0
C1624 C 0.56442 0.16605 0.59838 0.0
C1625 C 0.59422 0.18115 0.59104 0.0
C1626 C 0.55805 0.2047 0.57969 0.0
C1627 C 0.60411 0.20586 0.57526 0.0
C1628 C 0.554 0.24951 0.56856 0.0
C1629 C 0.5131 0.23441 0.60703 0.0
N1630 N 0.58629 0.21747 0.5707 0.0
N1631 N 0.52254 0.21559 0.59982 0.0
H1632 H 0.41794 0.14055 0.95163 0.0
H1633 H 0.44655 0.0761 0.07545 0.0
H1634 H 0.44741 0.07684 0.95352 0.0
H1635 H 0.42265 0.14399 0.07343 0.0
H1636 H 0.43052 0.06369 0.03175 0.0
H1637 H 0.40296 0.12953 0.99564 0.0
C1638 C 0.41974 0.12304 0.96095 0.0
C1639 C 0.43356 0.1093 0.94886 0.0
C1640 C 0.4277 0.08058 0.04107 0.0
C1641 C 0.41802 0.09766 0.99966 0.0
C1642 C 0.43644 0.08733 0.06617 0.0
C1643 C 0.43552 0.11081 0.07813 0.0
C1644 C 0.41857 0.0979 0.02768 0.0
C1645 C 0.42325 0.12541 0.06498 0.0
C1646 C 0.41165 0.11707 0.98624 0.0
C1647 C 0.43639 0.08757 0.96208 0.0
N1648 N 0.41582 0.11915 0.04034 0.0
N1649 N 0.42932 0.08287 0.98689 0.0
H1650 H 0.37281 0.43868 0.95201 0.0
H1651 H 0.27848 0.41395 0.0741 0.0
H1652 H 0.28123 0.41563 0.95237 0.0
H1653 H 0.37105 0.44072 0.07387 0.0
H1654 H 0.27474 0.39805 0.03038 0.0
H1655 H 0.36822 0.42308 0.9959 0.0
C1656 C 0.35128 0.42879 0.96096 0.0
C1657 C 0.32726 0.42807 0.94849 0.0
C1658 C 0.29567 0.40636 0.04009 0.0
C1659 C 0.32215 0.41168 0.99915 0.0
C1660 C 0.29767 0.415 0.06521 0.0
C1661 C 0.32502 0.42828 0.07768 0.0
C1662 C 0.32142 0.4117 0.02718 0.0
C1663 C 0.34945 0.43014 0.06502 0.0
C1664 C 0.34875 0.42032 0.98619 0.0
C1665 C 0.30015 0.41609 0.96123 0.0
N1666 N 0.34725 0.42257 0.04033 0.0
N1667 N 0.29848 0.40897 0.98599 0.0
H1668 H 0.87671 0.27989 0.07905 0.0
H1669 H 0.94044 0.37201 0.95445 0.0
H1670 H 0.94 0.37331 0.07648 0.0
H1671 H 0.87121 0.28061 0.95743 0.0
H1672 H 0.95316 0.36859 0.99811 0.0
H1673 H 0.88734 0.2756 0.035 0.0
C1674 C 0.89406 0.2992 0.06956 0.0
C1675 C 0.90778 0.32692 0.08148 0.0
C1676 C 0.9359 0.34891 0.989 0.0
C1677 C 0.91895 0.32261 0.03065 0.0
C1678 C 0.92896 0.35077 0.96391 0.0
C1679 C 0.90502 0.32644 0.95226 0.0
C1680 C 0.91837 0.32266 1.00262 0.0
C1681 C 0.89013 0.29973 0.96565 0.0
C1682 C 0.89979 0.29688 0.04426 0.0
C1683 C 0.92929 0.35146 0.06806 0.0
N1684 N 0.89665 0.29869 0.99024 0.0
N1685 N 0.93376 0.34888 0.04324 0.0
H1686 H 0.57776 0.93603 0.95121 0.0
H1687 H 0.60054 0.86991 0.07667 0.0
H1688 H 0.59972 0.86681 0.95513 0.0
H1689 H 0.57062 0.93318 0.07287 0.0
H1690 H 0.61766 0.8816 0.03319 0.0
H1691 H 0.59249 0.94827 0.9952 0.0
C1692 C 0.58728 0.92452 0.96095 0.0
C1693 C 0.58785 0.9006 0.94947 0.0
C1694 C 0.60838 0.89381 0.04209 0.0
C1695 C 0.6033 0.91337 1.0002 0.0
C1696 C 0.59905 0.88745 0.06708 0.0
C1697 C 0.58451 0.90089 0.07845 0.0
C1698 C 0.60256 0.91331 0.02822 0.0
C1699 C 0.58214 0.92268 0.06488 0.0
C1700 C 0.59522 0.93115 0.98623 0.0
C1701 C 0.59935 0.88569 0.96322 0.0
N1702 N 0.59046 0.92777 0.04034 0.0
N1703 N 0.60602 0.89187 0.98798 0.0
H1704 H 0.73554 0.59719 0.94998 0.0
H1705 H 0.64446 0.57079 0.07473 0.0
H1706 H 0.64218 0.5667 0.95295 0.0
H1707 H 0.73551 0.59227 0.07147 0.0
H1708 H 0.64778 0.58674 0.03101 0.0
H1709 H 0.74024 0.61306 0.9938 0.0
C1710 C 0.71632 0.59533 0.95949 0.0
C1711 C 0.68851 0.58096 0.94778 0.0
C1712 C 0.66742 0.58908 0.04009 0.0
C1713 C 0.69329 0.59757 0.99835 0.0
C1714 C 0.66564 0.58042 0.06521 0.0
C1715 C 0.68985 0.58056 0.07677 0.0
C1716 C 0.6935 0.59745 0.02636 0.0
C1717 C 0.71647 0.59223 0.06331 0.0
C1718 C 0.71888 0.60394 0.98467 0.0
C1719 C 0.6641 0.5781 0.96122 0.0
N1720 N 0.71743 0.59963 0.03869 0.0
N1721 N 0.66691 0.58572 0.98592 0.0
H1722 H 0.08008 0.64379 0.0802 0.0
H1723 H 0.14829 0.73517 0.9562 0.0
H1724 H 0.14865 0.73548 0.07796 0.0
H1725 H 0.08446 0.64188 0.95854 0.0
H1726 H 0.13608 0.73983 0.9997 0.0
H1727 H 0.0687 0.64703 0.03613 0.0
C1728 C 0.09163 0.66507 0.07079 0.0
C1729 C 0.11509 0.6895 0.08278 0.0
C1730 C 0.12388 0.7185 0.99049 0.0
C1731 C 0.10338 0.69306 0.03195 0.0
C1732 C 0.13056 0.71597 0.96549 0.0
C1733 C 0.11706 0.68818 0.9537 0.0
C1734 C 0.10401 0.69292 1.00393 0.0
C1735 C 0.09501 0.66378 0.96687 0.0
C1736 C 0.08549 0.66682 0.04546 0.0
C1737 C 0.13009 0.71627 0.06947 0.0
N1738 N 0.08959 0.66657 0.99141 0.0
N1739 N 0.12444 0.71718 0.04464 0.0
H1740 H 0.94014 0.57502 0.57571 0.0
H1741 H 0.94147 0.58143 0.44825 0.0
H1742 H 0.86937 0.59467 0.57254 0.0
H1743 H 0.86649 0.5941 0.45616 0.0
H1744 H 0.95488 0.59641 0.49181 0.0
H1745 H 0.95285 0.59139 0.53245 0.0
C1746 C 0.92825 0.58428 0.5662 0.0
C1747 C 0.90389 0.5838 0.57777 0.0
C1748 C 0.93586 0.59671 0.48416 0.0
C1749 C 0.91707 0.60121 0.52738 0.0
C1750 C 0.92864 0.58878 0.45891 0.0
C1751 C 0.90294 0.58667 0.44858 0.0
C1752 C 0.91673 0.60191 0.4993 0.0
C1753 C 0.88665 0.59567 0.46338 0.0
C1754 C 0.93516 0.59325 0.54113 0.0
C1755 C 0.88858 0.59508 0.56438 0.0
N1756 N 0.89343 0.60227 0.48804 0.0
N1757 N 0.89502 0.60272 0.53982 0.0
H1758 H 0.3749 0.9394 0.57997 0.0
H1759 H 0.28384 0.8724 0.45552 0.0
H1760 H 0.28332 0.87073 0.57731 0.0
H1761 H 0.37713 0.93592 0.45819 0.0
H1762 H 0.27917 0.8842 0.49915 0.0
H1763 H 0.37183 0.95112 0.53596 0.0
C1764 C 0.35368 0.9279 0.57048 0.0
C1765 C 0.32923 0.90432 0.58235 0.0
C1766 C 0.3005 0.89643 0.48999 0.0
C1767 C 0.32586 0.91643 0.53157 0.0
C1768 C 0.30305 0.88999 0.46492 0.0
C1769 C 0.33083 0.90351 0.45317 0.0
C1770 C 0.32608 0.91608 0.50355 0.0
C1771 C 0.35524 0.92536 0.46648 0.0
C1772 C 0.35203 0.93423 0.54519 0.0
C1773 C 0.30255 0.88938 0.56893 0.0
N1774 N 0.35243 0.93054 0.49109 0.0
N1775 N 0.30173 0.89524 0.54414 0.0
H1776 H 0.44141 0.36995 0.45122 0.0
H1777 H 0.41768 0.27719 0.57439 0.0
H1778 H 0.4185 0.27833 0.45256 0.0
H1779 H 0.44543 0.37008 0.57305 0.0
H1780 H 0.40136 0.27291 0.53075 0.0
H1781 H 0.42641 0.36603 0.49522 0.0
C1782 C 0.43168 0.34855 0.46042 0.0
C1783 C 0.43081 0.32432 0.44817 0.0
C1784 C 0.40998 0.29404 0.5402 0.0
C1785 C 0.41511 0.31999 0.49896 0.0
C1786 C 0.41885 0.29635 0.56529 0.0
C1787 C 0.43254 0.32394 0.57742 0.0
C1788 C 0.41544 0.31969 0.52699 0.0
C1789 C 0.43454 0.34831 0.56447 0.0
C1790 C 0.42355 0.34641 0.4857 0.0
C1791 C 0.41905 0.29739 0.46124 0.0
N1792 N 0.42671 0.34578 0.53983 0.0
N1793 N 0.41226 0.2961 0.48604 0.0
H1794 H 0.0766 0.43582 0.57921 0.0
H1795 H 0.07783 0.44266 0.45186 0.0
H1796 H 0.15404 0.42745 0.57014 0.0
H1797 H 0.14504 0.41794 0.45374 0.0
H1798 H 0.06622 0.42798 0.49554 0.0
H1799 H 0.0623 0.41921 0.53597 0.0
C1800 C 0.08991 0.42922 0.56836 0.0
C1801 C 0.11643 0.43283 0.57825 0.0
C1802 C 0.08266 0.42441 0.48645 0.0
C1803 C 0.1016 0.41592 0.52795 0.0
C1804 C 0.08898 0.43248 0.46117 0.0
C1805 C 0.11216 0.43117 0.4491 0.0
C1806 C 0.10015 0.41546 0.49991 0.0
C1807 C 0.12668 0.41887 0.46227 0.0
C1808 C 0.08217 0.4204 0.54333 0.0
C1809 C 0.13327 0.4247 0.56325 0.0
N1810 N 0.12092 0.41214 0.48706 0.0
N1811 N 0.1259 0.4172 0.53879 0.0
H1812 H 0.65071 0.07736 0.4512 0.0
H1813 H 0.64496 0.07744 0.5785 0.0
H1814 H 0.73621 0.15537 0.46088 0.0
H1815 H 0.73706 0.14465 0.57702 0.0
H1816 H 0.64806 0.06625 0.53472 0.0
H1817 H 0.65317 0.06253 0.49424 0.0
C1818 C 0.67058 0.0907 0.46212 0.0
C1819 C 0.69334 0.11754 0.45249 0.0
C1820 C 0.66811 0.08258 0.54393 0.0
C1821 C 0.69559 0.10206 0.50254 0.0
C1822 C 0.66633 0.08866 0.56926 0.0
C1823 C 0.69086 0.11176 0.58147 0.0
C1824 C 0.6946 0.10022 0.53057 0.0
C1825 C 0.71774 0.12637 0.56838 0.0
C1826 C 0.67175 0.08264 0.48704 0.0
C1827 C 0.71828 0.13438 0.46758 0.0
N1828 N 0.71872 0.12084 0.54355 0.0
N1829 N 0.71849 0.12668 0.49192 0.0
H1830 H 0.57545 0.64272 0.57551 0.0
H1831 H 0.59994 0.73195 0.44976 0.0
H1832 H 0.5971 0.73387 0.5713 0.0
H1833 H 0.56885 0.63842 0.45373 0.0
H1834 H 0.61652 0.73723 0.49341 0.0
H1835 H 0.59043 0.64521 0.5316 0.0
C1836 C 0.58492 0.66375 0.56572 0.0
C1837 C 0.58539 0.68823 0.5771 0.0
C1838 C 0.60711 0.7157 0.48452 0.0
C1839 C 0.60118 0.69093 0.52648 0.0
C1840 C 0.5981 0.7128 0.45942 0.0
C1841 C 0.58335 0.68478 0.44806 0.0
C1842 C 0.60079 0.69025 0.49846 0.0
C1843 C 0.58054 0.66048 0.46173 0.0
C1844 C 0.59303 0.66506 0.54049 0.0
C1845 C 0.59682 0.71463 0.56329 0.0
N1846 N 0.58856 0.66364 0.48634 0.0
N1847 N 0.6037 0.71513 0.5386 0.0
loop_
_geom_bond_atom_site_label_1
_geom_bond_atom_site_label_2
_geom_bond_distance
_geom_bond_site_symmetry_2
_ccdc_geom_bond_type
O0 Zn1 1.953 . S
O0 C16 1.225 . S
Zn1 O0 1.953 . S
Zn1 O2 1.949 . S
Zn1 O8 1.919 . S
Zn1 O13 1.924 . S
O2 Zn1 1.949 . S
O2 Zn3 1.923 . S
O2 Zn4 1.950 . S
O2 Zn5 1.945 . S
Zn3 O2 1.923 . S
Zn3 O6 1.933 . S
Zn3 O9 1.941 . S
Zn3 O10 1.965 . S
Zn4 O2 1.950 . S
Zn4 O11 1.938 . S
Zn4 O12 1.906 . S
Zn4 O22 1.953 . S
Zn5 O2 1.945 . S
Zn5 O7 1.932 . S
Zn5 O14 1.977 . S
Zn5 O15 1.910 . S
O6 Zn3 1.933 . S
O6 C17 1.226 . S
O7 Zn5 1.932 . S
O7 C17 1.307 . S
O8 Zn1 1.919 . S
O8 C19 1.253 . S
O9 Zn3 1.941 . S
O9 C19 1.283 . S
O10 Zn3 1.965 . S
O10 C18 1.303 . S
O11 Zn4 1.938 . S
O11 C18 1.247 . S
O12 Zn4 1.906 . S
O12 C20 1.304 . S
O13 Zn1 1.924 . S
O13 C21 1.311 . S
O14 Zn5 1.977 . S
O14 C20 1.272 . S
O15 Zn5 1.910 . S
O15 C21 1.231 . S
C16 O0 1.225 . S
C16 O22 1.298 . S
C17 O6 1.226 . S
C17 O7 1.307 . S
C18 O10 1.303 . S
C18 O11 1.247 . S
C19 O8 1.253 . S
C19 O9 1.283 . S
C20 O12 1.304 . S
C20 O14 1.272 . S
C21 O13 1.311 . S
C21 O15 1.231 . S
O22 Zn4 1.953 . S
O22 C16 1.298 . S
O23 Zn24 1.953 . S
O23 C39 1.225 . S
Zn24 O23 1.953 . S
Zn24 O25 1.949 . S
Zn24 O31 1.919 . S
Zn24 O36 1.924 . S
O25 Zn24 1.949 . S
O25 Zn26 1.923 . S
O25 Zn27 1.950 . S
O25 Zn28 1.945 . S
Zn26 O25 1.923 . S
Zn26 O29 1.933 . S
Zn26 O32 1.941 . S
Zn26 O33 1.965 . S
Zn27 O25 1.950 . S
Zn27 O34 1.938 . S
Zn27 O35 1.906 . S
Zn27 O45 1.953 . S
Zn28 O25 1.945 . S
Zn28 O30 1.932 . S
Zn28 O37 1.977 . S
Zn28 O38 1.910 . S
O29 Zn26 1.933 . S
O29 C40 1.226 . S
O30 Zn28 1.932 . S
O30 C40 1.307 . S
O31 Zn24 1.919 . S
O31 C42 1.253 . S
O32 Zn26 1.941 . S
O32 C42 1.283 . S
O33 Zn26 1.965 . S
O33 C41 1.303 . S
O34 Zn27 1.938 . S
O34 C41 1.247 . S
O35 Zn27 1.906 . S
O35 C43 1.304 . S
O36 Zn24 1.924 . S
O36 C44 1.311 . S
O37 Zn28 1.977 . S
O37 C43 1.272 . S
O38 Zn28 1.910 . S
O38 C44 1.231 . S
C39 O23 1.225 . S
C39 O45 1.298 . S
C40 O29 1.226 . S
C40 O30 1.307 . S
C41 O33 1.303 . S
C41 O34 1.247 . S
C42 O31 1.253 . S
C42 O32 1.283 . S
C43 O35 1.304 . S
C43 O37 1.272 . S
C44 O36 1.311 . S
C44 O38 1.231 . S
O45 Zn27 1.953 . S
O45 C39 1.298 . S
O46 Zn47 1.953 . S
O46 C62 1.225 . S
Zn47 O46 1.953 . S
Zn47 O48 1.949 . S
Zn47 O54 1.919 . S
Zn47 O59 1.924 . S
O48 Zn47 1.949 . S
O48 Zn49 1.923 . S
O48 Zn50 1.950 . S
O48 Zn51 1.945 . S
Zn49 O48 1.923 . S
Zn49 O52 1.933 . S
Zn49 O55 1.941 . S
Zn49 O56 1.965 . S
Zn50 O48 1.950 . S
Zn50 O57 1.938 . S
Zn50 O58 1.906 . S
Zn50 O68 1.953 . S
Zn51 O48 1.945 . S
Zn51 O53 1.932 . S
Zn51 O60 1.977 . S
Zn51 O61 1.910 . S
O52 Zn49 1.933 . S
O52 C63 1.226 . S
O53 Zn51 1.932 . S
O53 C63 1.307 . S
O54 Zn47 1.919 . S
O54 C65 1.253 . S
O55 Zn49 1.941 . S
O55 C65 1.283 . S
O56 Zn49 1.965 . S
O56 C64 1.303 . S
O57 Zn50 1.938 . S
O57 C64 1.247 . S
O58 Zn50 1.906 . S
O58 C66 1.304 . S
O59 Zn47 1.924 . S
O59 C67 1.311 . S
O60 Zn51 1.977 . S
O60 C66 1.272 . S
O61 Zn51 1.910 . S
O61 C67 1.231 . S
C62 O46 1.225 . S
C62 O68 1.298 . S
C63 O52 1.226 . S
C63 O53 1.307 . S
C64 O56 1.303 . S
C64 O57 1.247 . S
C65 O54 1.253 . S
C65 O55 1.283 . S
C66 O58 1.304 . S
C66 O60 1.272 . S
C67 O59 1.311 . S
C67 O61 1.231 . S
O68 Zn50 1.953 . S
O68 C62 1.298 . S
O69 Zn70 1.953 . S
O69 C85 1.225 . S
Zn70 O69 1.953 . S
Zn70 O71 1.949 . S
Zn70 O77 1.919 . S
Zn70 O82 1.924 . S
O71 Zn70 1.949 . S
O71 Zn72 1.923 . S
O71 Zn73 1.950 . S
O71 Zn74 1.945 . S
Zn72 O71 1.923 . S
Zn72 O75 1.933 . S
Zn72 O78 1.941 . S
Zn72 O79 1.965 . S
Zn73 O71 1.950 . S
Zn73 O80 1.938 . S
Zn73 O81 1.906 . S
Zn73 O91 1.953 . S
Zn74 O71 1.945 . S
Zn74 O76 1.932 . S
Zn74 O83 1.977 . S
Zn74 O84 1.910 . S
O75 Zn72 1.933 . S
O75 C86 1.226 . S
O76 Zn74 1.932 . S
O76 C86 1.307 . S
O77 Zn70 1.919 . S
O77 C88 1.253 . S
O78 Zn72 1.941 . S
O78 C88 1.283 . S
O79 Zn72 1.965 . S
O79 C87 1.303 . S
O80 Zn73 1.938 . S
O80 C87 1.247 . S
O81 Zn73 1.906 . S
O81 C89 1.304 . S
O82 Zn70 1.924 . S
O82 C90 1.311 . S
O83 Zn74 1.977 . S
O83 C89 1.272 . S
O84 Zn74 1.910 . S
O84 C90 1.231 . S
C85 O69 1.225 . S
C85 O91 1.298 . S
C86 O75 1.226 . S
C86 O76 1.307 . S
C87 O79 1.303 . S
C87 O80 1.247 . S
C88 O77 1.253 . S
C88 O78 1.283 . S
C89 O81 1.304 . S
C89 O83 1.272 . S
C90 O82 1.311 . S
C90 O84 1.231 . S
O91 Zn73 1.953 . S
O91 C85 1.298 . S
O92 Zn93 1.953 . S
O92 C108 1.225 . S
Zn93 O92 1.953 . S
Zn93 O94 1.949 . S
Zn93 O100 1.919 . S
Zn93 O105 1.924 . S
O94 Zn93 1.949 . S
O94 Zn95 1.923 . S
O94 Zn96 1.950 . S
O94 Zn97 1.945 . S
Zn95 O94 1.923 . S
Zn95 O98 1.933 . S
Zn95 O101 1.941 . S
Zn95 O102 1.965 . S
Zn96 O94 1.950 . S
Zn96 O103 1.938 . S
Zn96 O104 1.906 . S
Zn96 O114 1.953 . S
Zn97 O94 1.945 . S
Zn97 O99 1.932 . S
Zn97 O106 1.977 . S
Zn97 O107 1.910 . S
O98 Zn95 1.933 . S
O98 C109 1.226 . S
O99 Zn97 1.932 . S
O99 C109 1.307 . S
O100 Zn93 1.919 . S
O100 C111 1.253 . S
O101 Zn95 1.941 . S
O101 C111 1.283 . S
O102 Zn95 1.965 . S
O102 C110 1.303 . S
O103 Zn96 1.938 . S
O103 C110 1.247 . S
O104 Zn96 1.906 . S
O104 C112 1.304 . S
O105 Zn93 1.924 . S
O105 C113 1.311 . S
O106 Zn97 1.977 . S
O106 C112 1.272 . S
O107 Zn97 1.910 . S
O107 C113 1.231 . S
C108 O92 1.225 . S
C108 O114 1.298 . S
C109 O98 1.226 . S
C109 O99 1.307 . S
C110 O102 1.303 . S
C110 O103 1.247 . S
C111 O100 1.253 . S
C111 O101 1.283 . S
C112 O104 1.304 . S
C112 O106 1.272 . S
C113 O105 1.311 . S
C113 O107 1.231 . S
O114 Zn96 1.953 . S
O114 C108 1.298 . S
O115 Zn116 1.953 . S
O115 C131 1.225 . S
Zn116 O115 1.953 . S
Zn116 O117 1.949 . S
Zn116 O123 1.919 . S
Zn116 O128 1.924 . S
O117 Zn116 1.949 . S
O117 Zn118 1.923 . S
O117 Zn119 1.950 . S
O117 Zn120 1.945 . S
Zn118 O117 1.923 . S
Zn118 O121 1.933 . S
Zn118 O124 1.941 . S
Zn118 O125 1.965 . S
Zn119 O117 1.950 . S
Zn119 O126 1.938 . S
Zn119 O127 1.906 . S
Zn119 O137 1.953 . S
Zn120 O117 1.945 . S
Zn120 O122 1.932 . S
Zn120 O129 1.977 . S
Zn120 O130 1.910 . S
O121 Zn118 1.933 . S
O121 C132 1.226 . S
O122 Zn120 1.932 . S
O122 C132 1.307 . S
O123 Zn116 1.919 . S
O123 C134 1.253 . S
O124 Zn118 1.941 . S
O124 C134 1.283 . S
O125 Zn118 1.965 . S
O125 C133 1.303 . S
O126 Zn119 1.938 . S
O126 C133 1.247 . S
O127 Zn119 1.906 . S
O127 C135 1.304 . S
O128 Zn116 1.924 . S
O128 C136 1.311 . S
O129 Zn120 1.977 . S
O129 C135 1.272 . S
O130 Zn120 1.910 . S
O130 C136 1.231 . S
C131 O115 1.225 . S
C131 O137 1.298 . S
C132 O121 1.226 . S
C132 O122 1.307 . S
C133 O125 1.303 . S
C133 O126 1.247 . S
C134 O123 1.253 . S
C134 O124 1.283 . S
C135 O127 1.304 . S
C135 O129 1.272 . S
C136 O128 1.311 . S
C136 O130 1.231 . S
O137 Zn119 1.953 . S
O137 C131 1.298 . S
O138 Zn139 1.953 . S
O138 C154 1.225 . S
Zn139 O138 1.953 . S
Zn139 O140 1.949 . S
Zn139 O146 1.919 . S
Zn139 O151 1.924 . S
O140 Zn139 1.949 . S
O140 Zn141 1.923 . S
O140 Zn142 1.950 . S
O140 Zn143 1.945 . S
Zn141 O140 1.923 . S
Zn141 O144 1.933 . S
Zn141 O147 1.941 . S
Zn141 O148 1.965 . S
Zn142 O140 1.950 . S
Zn142 O149 1.938 . S
Zn142 O150 1.906 . S
Zn142 O160 1.953 . S
Zn143 O140 1.945 . S
Zn143 O145 1.932 . S
Zn143 O152 1.977 . S
Zn143 O153 1.910 . S
O144 Zn141 1.933 . S
O144 C155 1.226 . S
O145 Zn143 1.932 . S
O145 C155 1.307 . S
O146 Zn139 1.919 . S
O146 C157 1.253 . S
O147 Zn141 1.941 . S
O147 C157 1.283 . S
O148 Zn141 1.965 . S
O148 C156 1.303 . S
O149 Zn142 1.938 . S
O149 C156 1.247 . S
O150 Zn142 1.906 . S
O150 C158 1.304 . S
O151 Zn139 1.924 . S
O151 C159 1.311 . S
O152 Zn143 1.977 . S
O152 C158 1.272 . S
O153 Zn143 1.910 . S
O153 C159 1.231 . S
C154 O138 1.225 . S
C154 O160 1.298 . S
C155 O144 1.226 . S
C155 O145 1.307 . S
C156 O148 1.303 . S
C156 O149 1.247 . S
C157 O146 1.253 . S
C157 O147 1.283 . S
C158 O150 1.304 . S
C158 O152 1.272 . S
C159 O151 1.311 . S
C159 O153 1.231 . S
O160 Zn142 1.953 . S
O160 C154 1.298 . S
O161 Zn162 1.953 . S
O161 C177 1.225 . S
Zn162 O161 1.953 . S
Zn162 O163 1.949 . S
Zn162 O169 1.919 . S
Zn162 O174 1.924 . S
O163 Zn162 1.949 . S
O163 Zn164 1.923 . S
O163 Zn165 1.950 . S
O163 Zn166 1.945 . S
Zn164 O163 1.923 . S
Zn164 O167 1.933 . S
Zn164 O170 1.941 . S
Zn164 O171 1.965 . S
Zn165 O163 1.950 . S
Zn165 O172 1.938 . S
Zn165 O173 1.906 . S
Zn165 O183 1.953 . S
Zn166 O163 1.945 . S
Zn166 O168 1.932 . S
Zn166 O175 1.977 . S
Zn166 O176 1.910 . S
O167 Zn164 1.933 . S
O167 C178 1.226 . S
O168 Zn166 1.932 . S
O168 C178 1.307 . S
O169 Zn162 1.919 . S
O169 C180 1.253 . S
O170 Zn164 1.941 . S
O170 C180 1.283 . S
O171 Zn164 1.965 . S
O171 C179 1.303 . S
O172 Zn165 1.938 . S
O172 C179 1.247 . S
O173 Zn165 1.906 . S
O173 C181 1.304 . S
O174 Zn162 1.924 . S
O174 C182 1.311 . S
O175 Zn166 1.977 . S
O175 C181 1.272 . S
O176 Zn166 1.910 . S
O176 C182 1.231 . S
C177 O161 1.225 . S
C177 O183 1.298 . S
C178 O167 1.226 . S
C178 O168 1.307 . S
C179 O171 1.303 . S
C179 O172 1.247 . S
C180 O169 1.253 . S
C180 O170 1.283 . S
C181 O173 1.304 . S
C181 O175 1.272 . S
C182 O174 1.311 . S
C182 O176 1.231 . S
O183 Zn165 1.953 . S
O183 C177 1.298 . S
O184 Zn185 1.953 . S
O184 C200 1.225 . S
Zn185 O184 1.953 . S
Zn185 O186 1.949 . S
Zn185 O192 1.919 . S
Zn185 O197 1.924 . S
O186 Zn185 1.949 . S
O186 Zn187 1.923 . S
O186 Zn188 1.950 . S
O186 Zn189 1.945 . S
Zn187 O186 1.923 . S
Zn187 O190 1.933 . S
Zn187 O193 1.941 . S
Zn187 O194 1.965 . S
Zn188 O186 1.950 . S
Zn188 O195 1.938 . S
Zn188 O196 1.906 . S
Zn188 O206 1.953 . S
Zn189 O186 1.945 . S
Zn189 O191 1.932 . S
Zn189 O198 1.977 . S
Zn189 O199 1.910 . S
O190 Zn187 1.933 . S
O190 C201 1.226 . S
O191 Zn189 1.932 . S
O191 C201 1.307 . S
O192 Zn185 1.919 . S
O192 C203 1.253 . S
O193 Zn187 1.941 . S
O193 C203 1.283 . S
O194 Zn187 1.965 . S
O194 C202 1.303 . S
O195 Zn188 1.938 . S
O195 C202 1.247 . S
O196 Zn188 1.906 . S
O196 C204 1.304 . S
O197 Zn185 1.924 . S
O197 C205 1.311 . S
O198 Zn189 1.977 . S
O198 C204 1.272 . S
O199 Zn189 1.910 . S
O199 C205 1.231 . S
C200 O184 1.225 . S
C200 O206 1.298 . S
C201 O190 1.226 . S
C201 O191 1.307 . S
C202 O194 1.303 . S
C202 O195 1.247 . S
C203 O192 1.253 . S
C203 O193 1.283 . S
C204 O196 1.304 . S
C204 O198 1.272 . S
C205 O197 1.311 . S
C205 O199 1.231 . S
O206 Zn188 1.953 . S
O206 C200 1.298 . S
O207 Zn208 1.953 . S
O207 C223 1.225 . S
Zn208 O207 1.953 . S
Zn208 O209 1.949 . S
Zn208 O215 1.919 . S
Zn208 O220 1.924 . S
O209 Zn208 1.949 . S
O209 Zn210 1.923 . S
O209 Zn211 1.950 . S
O209 Zn212 1.945 . S
Zn210 O209 1.923 . S
Zn210 O213 1.933 . S
Zn210 O216 1.941 . S
Zn210 O217 1.965 . S
Zn211 O209 1.950 . S
Zn211 O218 1.938 . S
Zn211 O219 1.906 . S
Zn211 O229 1.953 . S
Zn212 O209 1.945 . S
Zn212 O214 1.932 . S
Zn212 O221 1.977 . S
Zn212 O222 1.910 . S
O213 Zn210 1.933 . S
O213 C224 1.226 . S
O214 Zn212 1.932 . S
O214 C224 1.307 . S
O215 Zn208 1.919 . S
O215 C226 1.253 . S
O216 Zn210 1.941 . S
O216 C226 1.283 . S
O217 Zn210 1.965 . S
O217 C225 1.303 . S
O218 Zn211 1.938 . S
O218 C225 1.247 . S
O219 Zn211 1.906 . S
O219 C227 1.304 . S
O220 Zn208 1.924 . S
O220 C228 1.311 . S
O221 Zn212 1.977 . S
O221 C227 1.272 . S
O222 Zn212 1.910 . S
O222 C228 1.231 . S
C223 O207 1.225 . S
C223 O229 1.298 . S
C224 O213 1.226 . S
C224 O214 1.307 . S
C225 O217 1.303 . S
C225 O218 1.247 . S
C226 O215 1.253 . S
C226 O216 1.283 . S
C227 O219 1.304 . S
C227 O221 1.272 . S
C228 O220 1.311 . S
C228 O222 1.231 . S
O229 Zn211 1.953 . S
O229 C223 1.298 . S
O230 Zn231 1.953 . S
O230 C246 1.225 . S
Zn231 O230 1.953 . S
Zn231 O232 1.949 . S
Zn231 O238 1.919 . S
Zn231 O243 1.924 . S
O232 Zn231 1.949 . S
O232 Zn233 1.923 . S
O232 Zn234 1.950 . S
O232 Zn235 1.945 . S
Zn233 O232 1.923 . S
Zn233 O236 1.933 . S
Zn233 O239 1.941 . S
Zn233 O240 1.965 . S
Zn234 O232 1.950 . S
Zn234 O241 1.938 . S
Zn234 O242 1.906 . S
Zn234 O252 1.953 . S
Zn235 O232 1.945 . S
Zn235 O237 1.932 . S
Zn235 O244 1.977 . S
Zn235 O245 1.910 . S
O236 Zn233 1.933 . S
O236 C247 1.226 . S
O237 Zn235 1.932 . S
O237 C247 1.307 . S
O238 Zn231 1.919 . S
O238 C249 1.253 . S
O239 Zn233 1.941 . S
O239 C249 1.283 . S
O240 Zn233 1.965 . S
O240 C248 1.303 . S
O241 Zn234 1.938 . S
O241 C248 1.247 . S
O242 Zn234 1.906 . S
O242 C250 1.304 . S
O243 Zn231 1.924 . S
O243 C251 1.311 . S
O244 Zn235 1.977 . S
O244 C250 1.272 . S
O245 Zn235 1.910 . S
O245 C251 1.231 . S
C246 O230 1.225 . S
C246 O252 1.298 . S
C247 O236 1.226 . S
C247 O237 1.307 . S
C248 O240 1.303 . S
C248 O241 1.247 . S
C249 O238 1.253 . S
C249 O239 1.283 . S
C250 O242 1.304 . S
C250 O244 1.272 . S
C251 O243 1.311 . S
C251 O245 1.231 . S
O252 Zn234 1.953 . S
O252 C246 1.298 . S
O253 Zn254 1.953 . S
O253 C269 1.225 . S
Zn254 O253 1.953 . S
Zn254 O255 1.949 . S
Zn254 O261 1.919 . S
Zn254 O266 1.924 . S
O255 Zn254 1.949 . S
O255 Zn256 1.923 . S
O255 Zn257 1.950 . S
O255 Zn258 1.945 . S
Zn256 O255 1.923 . S
Zn256 O259 1.933 . S
Zn256 O262 1.941 . S
Zn256 O263 1.965 . S
Zn257 O255 1.950 . S
Zn257 O264 1.938 . S
Zn257 O265 1.906 . S
Zn257 O275 1.953 . S
Zn258 O255 1.945 . S
Zn258 O260 1.932 . S
Zn258 O267 1.977 . S
Zn258 O268 1.910 . S
O259 Zn256 1.933 . S
O259 C270 1.226 . S
O260 Zn258 1.932 . S
O260 C270 1.307 . S
O261 Zn254 1.919 . S
O261 C272 1.253 . S
O262 Zn256 1.941 . S
O262 C272 1.283 . S
O263 Zn256 1.965 . S
O263 C271 1.303 . S
O264 Zn257 1.938 . S
O264 C271 1.247 . S
O265 Zn257 1.906 . S
O265 C273 1.304 . S
O266 Zn254 1.924 . S
O266 C274 1.311 . S
O267 Zn258 1.977 . S
O267 C273 1.272 . S
O268 Zn258 1.910 . S
O268 C274 1.231 . S
C269 O253 1.225 . S
C269 O275 1.298 . S
C270 O259 1.226 . S
C270 O260 1.307 . S
C271 O263 1.303 . S
C271 O264 1.247 . S
C272 O261 1.253 . S
C272 O262 1.283 . S
C273 O265 1.304 . S
C273 O267 1.272 . S
C274 O266 1.311 . S
C274 O268 1.231 . S
O275 Zn257 1.953 . S
O275 C269 1.298 . S
O276 Zn277 1.953 . S
O276 C292 1.225 . S
Zn277 O276 1.953 . S
Zn277 O278 1.949 . S
Zn277 O284 1.919 . S
Zn277 O289 1.924 . S
O278 Zn277 1.949 . S
O278 Zn279 1.923 . S
O278 Zn280 1.950 . S
O278 Zn281 1.945 . S
Zn279 O278 1.923 . S
Zn279 O282 1.933 . S
Zn279 O285 1.941 . S
Zn279 O286 1.965 . S
Zn280 O278 1.950 . S
Zn280 O287 1.938 . S
Zn280 O288 1.906 . S
Zn280 O298 1.953 . S
Zn281 O278 1.945 . S
Zn281 O283 1.932 . S
Zn281 O290 1.977 . S
Zn281 O291 1.910 . S
O282 Zn279 1.933 . S
O282 C293 1.226 . S
O283 Zn281 1.932 . S
O283 C293 1.307 . S
O284 Zn277 1.919 . S
O284 C295 1.253 . S
O285 Zn279 1.941 . S
O285 C295 1.283 . S
O286 Zn279 1.965 . S
O286 C294 1.303 . S
O287 Zn280 1.938 . S
O287 C294 1.247 . S
O288 Zn280 1.906 . S
O288 C296 1.304 . S
O289 Zn277 1.924 . S
O289 C297 1.311 . S
O290 Zn281 1.977 . S
O290 C296 1.272 . S
O291 Zn281 1.910 . S
O291 C297 1.231 . S
C292 O276 1.225 . S
C292 O298 1.298 . S
C293 O282 1.226 . S
C293 O283 1.307 . S
C294 O286 1.303 . S
C294 O287 1.247 . S
C295 O284 1.253 . S
C295 O285 1.283 . S
C296 O288 1.304 . S
C296 O290 1.272 . S
C297 O289 1.311 . S
C297 O291 1.231 . S
O298 Zn280 1.953 . S
O298 C292 1.298 . S
O299 Zn300 1.953 . S
O299 C315 1.225 . S
Zn300 O299 1.953 . S
Zn300 O301 1.949 . S
Zn300 O307 1.919 . S
Zn300 O312 1.924 . S
O301 Zn300 1.949 . S
O301 Zn302 1.923 . S
O301 Zn303 1.950 . S
O301 Zn304 1.945 . S
Zn302 O301 1.923 . S
Zn302 O305 1.933 . S
Zn302 O308 1.941 . S
Zn302 O309 1.965 . S
Zn303 O301 1.950 . S
Zn303 O310 1.938 . S
Zn303 O311 1.906 . S
Zn303 O321 1.953 . S
Zn304 O301 1.945 . S
Zn304 O306 1.932 . S
Zn304 O313 1.977 . S
Zn304 O314 1.910 . S
O305 Zn302 1.933 . S
O305 C316 1.226 . S
O306 Zn304 1.932 . S
O306 C316 1.307 . S
O307 Zn300 1.919 . S
O307 C318 1.253 . S
O308 Zn302 1.941 . S
O308 C318 1.283 . S
O309 Zn302 1.965 . S
O309 C317 1.303 . S
O310 Zn303 1.938 . S
O310 C317 1.247 . S
O311 Zn303 1.906 . S
O311 C319 1.304 . S
O312 Zn300 1.924 . S
O312 C320 1.311 . S
O313 Zn304 1.977 . S
O313 C319 1.272 . S
O314 Zn304 1.910 . S
O314 C320 1.231 . S
C315 O299 1.225 . S
C315 O321 1.298 . S
C316 O305 1.226 . S
C316 O306 1.307 . S
C317 O309 1.303 . S
C317 O310 1.247 . S
C318 O307 1.253 . S
C318 O308 1.283 . S
C319 O311 1.304 . S
C319 O313 1.272 . S
C320 O312 1.311 . S
C320 O314 1.231 . S
O321 Zn303 1.953 . S
O321 C315 1.298 . S
O322 Zn323 1.953 . S
O322 C338 1.225 . S
Zn323 O322 1.953 . S
Zn323 O324 1.949 . S
Zn323 O330 1.919 . S
Zn323 O335 1.924 . S
O324 Zn323 1.949 . S
O324 Zn325 1.923 . S
O324 Zn326 1.950 . S
O324 Zn327 1.945 . S
Zn325 O324 1.923 . S
Zn325 O328 1.933 . S
Zn325 O331 1.941 . S
Zn325 O332 1.965 . S
Zn326 O324 1.950 . S
Zn326 O333 1.938 . S
Zn326 O334 1.906 . S
Zn326 O344 1.953 . S
Zn327 O324 1.945 . S
Zn327 O329 1.932 . S
Zn327 O336 1.977 . S
Zn327 O337 1.910 . S
O328 Zn325 1.933 . S
O328 C339 1.226 . S
O329 Zn327 1.932 . S
O329 C339 1.307 . S
O330 Zn323 1.919 . S
O330 C341 1.253 . S
O331 Zn325 1.941 . S
O331 C341 1.283 . S
O332 Zn325 1.965 . S
O332 C340 1.303 . S
O333 Zn326 1.938 . S
O333 C340 1.247 . S
O334 Zn326 1.906 . S
O334 C342 1.304 . S
O335 Zn323 1.924 . S
O335 C343 1.311 . S
O336 Zn327 1.977 . S
O336 C342 1.272 . S
O337 Zn327 1.910 . S
O337 C343 1.231 . S
C338 O322 1.225 . S
C338 O344 1.298 . S
C339 O328 1.226 . S
C339 O329 1.307 . S
C340 O332 1.303 . S
C340 O333 1.247 . S
C341 O330 1.253 . S
C341 O331 1.283 . S
C342 O334 1.304 . S
C342 O336 1.272 . S
C343 O335 1.311 . S
C343 O337 1.231 . S
O344 Zn326 1.953 . S
O344 C338 1.298 . S
O345 Zn346 1.953 . S
O345 C361 1.225 . S
Zn346 O345 1.953 . S
Zn346 O347 1.949 . S
Zn346 O353 1.919 . S
Zn346 O358 1.924 . S
O347 Zn346 1.949 . S
O347 Zn348 1.923 . S
O347 Zn349 1.950 . S
O347 Zn350 1.945 . S
Zn348 O347 1.923 . S
Zn348 O351 1.933 . S
Zn348 O354 1.941 . S
Zn348 O355 1.965 . S
Zn349 O347 1.950 . S
Zn349 O356 1.938 . S
Zn349 O357 1.906 . S
Zn349 O367 1.953 . S
Zn350 O347 1.945 . S
Zn350 O352 1.932 . S
Zn350 O359 1.977 . S
Zn350 O360 1.910 . S
O351 Zn348 1.933 . S
O351 C362 1.226 . S
O352 Zn350 1.932 . S
O352 C362 1.307 . S
O353 Zn346 1.919 . S
O353 C364 1.253 . S
O354 Zn348 1.941 . S
O354 C364 1.283 . S
O355 Zn348 1.965 . S
O355 C363 1.303 . S
O356 Zn349 1.938 . S
O356 C363 1.247 . S
O357 Zn349 1.906 . S
O357 C365 1.304 . S
O358 Zn346 1.924 . S
O358 C366 1.311 . S
O359 Zn350 1.977 . S
O359 C365 1.272 . S
O360 Zn350 1.910 . S
O360 C366 1.231 . S
C361 O345 1.225 . S
C361 O367 1.298 . S
C362 O351 1.226 . S
C362 O352 1.307 . S
C363 O355 1.303 . S
C363 O356 1.247 . S
C364 O353 1.253 . S
C364 O354 1.283 . S
C365 O357 1.304 . S
C365 O359 1.272 . S
C366 O358 1.311 . S
C366 O360 1.231 . S
O367 Zn349 1.953 . S
O367 C361 1.298 . S
O368 Zn369 1.953 . S
O368 C384 1.225 . S
Zn369 O368 1.953 . S
Zn369 O370 1.949 . S
Zn369 O376 1.919 . S
Zn369 O381 1.924 . S
O370 Zn369 1.949 . S
O370 Zn371 1.923 . S
O370 Zn372 1.950 . S
O370 Zn373 1.945 . S
Zn371 O370 1.923 . S
Zn371 O374 1.933 . S
Zn371 O377 1.941 . S
Zn371 O378 1.965 . S
Zn372 O370 1.950 . S
Zn372 O379 1.938 . S
Zn372 O380 1.906 . S
Zn372 O390 1.953 . S
Zn373 O370 1.945 . S
Zn373 O375 1.932 . S
Zn373 O382 1.977 . S
Zn373 O383 1.910 . S
O374 Zn371 1.933 . S
O374 C385 1.226 . S
O375 Zn373 1.932 . S
O375 C385 1.307 . S
O376 Zn369 1.919 . S
O376 C387 1.253 . S
O377 Zn371 1.941 . S
O377 C387 1.283 . S
O378 Zn371 1.965 . S
O378 C386 1.303 . S
O379 Zn372 1.938 . S
O379 C386 1.247 . S
O380 Zn372 1.906 . S
O380 C388 1.304 . S
O381 Zn369 1.924 . S
O381 C389 1.311 . S
O382 Zn373 1.977 . S
O382 C388 1.272 . S
O383 Zn373 1.910 . S
O383 C389 1.231 . S
C384 O368 1.225 . S
C384 O390 1.298 . S
C385 O374 1.226 . S
C385 O375 1.307 . S
C386 O378 1.303 . S
C386 O379 1.247 . S
C387 O376 1.253 . S
C387 O377 1.283 . S
C388 O380 1.304 . S
C388 O382 1.272 . S
C389 O381 1.311 . S
C389 O383 1.231 . S
O390 Zn372 1.953 . S
O390 C384 1.298 . S
O391 Zn392 1.953 . S
O391 C407 1.225 . S
Zn392 O391 1.953 . S
Zn392 O393 1.949 . S
Zn392 O399 1.919 . S
Zn392 O404 1.924 . S
O393 Zn392 1.949 . S
O393 Zn394 1.923 . S
O393 Zn395 1.950 . S
O393 Zn396 1.945 . S
Zn394 O393 1.923 . S
Zn394 O397 1.933 . S
Zn394 O400 1.941 . S
Zn394 O401 1.965 . S
Zn395 O393 1.950 . S
Zn395 O402 1.938 . S
Zn395 O403 1.906 . S
Zn395 O413 1.953 . S
Zn396 O393 1.945 . S
Zn396 O398 1.932 . S
Zn396 O405 1.977 . S
Zn396 O406 1.910 . S
O397 Zn394 1.933 . S
O397 C408 1.226 . S
O398 Zn396 1.932 . S
O398 C408 1.307 . S
O399 Zn392 1.919 . S
O399 C410 1.253 . S
O400 Zn394 1.941 . S
O400 C410 1.283 . S
O401 Zn394 1.965 . S
O401 C409 1.303 . S
O402 Zn395 1.938 . S
O402 C409 1.247 . S
O403 Zn395 1.906 . S
O403 C411 1.304 . S
O404 Zn392 1.924 . S
O404 C412 1.311 . S
O405 Zn396 1.977 . S
O405 C411 1.272 . S
O406 Zn396 1.910 . S
O406 C412 1.231 . S
C407 O391 1.225 . S
C407 O413 1.298 . S
C408 O397 1.226 . S
C408 O398 1.307 . S
C409 O401 1.303 . S
C409 O402 1.247 . S
C410 O399 1.253 . S
C410 O400 1.283 . S
C411 O403 1.304 . S
C411 O405 1.272 . S
C412 O404 1.311 . S
C412 O406 1.231 . S
O413 Zn395 1.953 . S
O413 C407 1.298 . S
O414 Zn415 1.953 . S
O414 C430 1.225 . S
Zn415 O414 1.953 . S
Zn415 O416 1.949 . S
Zn415 O422 1.919 . S
Zn415 O427 1.924 . S
O416 Zn415 1.949 . S
O416 Zn417 1.923 . S
O416 Zn418 1.950 . S
O416 Zn419 1.945 . S
Zn417 O416 1.923 . S
Zn417 O420 1.933 . S
Zn417 O423 1.941 . S
Zn417 O424 1.965 . S
Zn418 O416 1.950 . S
Zn418 O425 1.938 . S
Zn418 O426 1.906 . S
Zn418 O436 1.953 . S
Zn419 O416 1.945 . S
Zn419 O421 1.932 . S
Zn419 O428 1.977 . S
Zn419 O429 1.910 . S
O420 Zn417 1.933 . S
O420 C431 1.226 . S
O421 Zn419 1.932 . S
O421 C431 1.307 . S
O422 Zn415 1.919 . S
O422 C433 1.253 . S
O423 Zn417 1.941 . S
O423 C433 1.283 . S
O424 Zn417 1.965 . S
O424 C432 1.303 . S
O425 Zn418 1.938 . S
O425 C432 1.247 . S
O426 Zn418 1.906 . S
O426 C434 1.304 . S
O427 Zn415 1.924 . S
O427 C435 1.311 . S
O428 Zn419 1.977 . S
O428 C434 1.272 . S
O429 Zn419 1.910 . S
O429 C435 1.231 . S
C430 O414 1.225 . S
C430 O436 1.298 . S
C431 O420 1.226 . S
C431 O421 1.307 . S
C432 O424 1.303 . S
C432 O425 1.247 . S
C433 O422 1.253 . S
C433 O423 1.283 . S
C434 O426 1.304 . S
C434 O428 1.272 . S
C435 O427 1.311 . S
C435 O429 1.231 . S
O436 Zn418 1.953 . S
O436 C430 1.298 . S
O437 Zn438 1.953 . S
O437 C453 1.225 . S
Zn438 O437 1.953 . S
Zn438 O439 1.949 . S
Zn438 O445 1.919 . S
Zn438 O450 1.924 . S
O439 Zn438 1.949 . S
O439 Zn440 1.923 . S
O439 Zn441 1.950 . S
O439 Zn442 1.945 . S
Zn440 O439 1.923 . S
Zn440 O443 1.933 . S
Zn440 O446 1.941 . S
Zn440 O447 1.965 . S
Zn441 O439 1.950 . S
Zn441 O448 1.938 . S
Zn441 O449 1.906 . S
Zn441 O459 1.953 . S
Zn442 O439 1.945 . S
Zn442 O444 1.932 . S
Zn442 O451 1.977 . S
Zn442 O452 1.910 . S
O443 Zn440 1.933 . S
O443 C454 1.226 . S
O444 Zn442 1.932 . S
O444 C454 1.307 . S
O445 Zn438 1.919 . S
O445 C456 1.253 . S
O446 Zn440 1.941 . S
O446 C456 1.283 . S
O447 Zn440 1.965 . S
O447 C455 1.303 . S
O448 Zn441 1.938 . S
O448 C455 1.247 . S
O449 Zn441 1.906 . S
O449 C457 1.304 . S
O450 Zn438 1.924 . S
O450 C458 1.311 . S
O451 Zn442 1.977 . S
O451 C457 1.272 . S
O452 Zn442 1.910 . S
O452 C458 1.231 . S
C453 O437 1.225 . S
C453 O459 1.298 . S
C454 O443 1.226 . S
C454 O444 1.307 . S
C455 O447 1.303 . S
C455 O448 1.247 . S
C456 O445 1.253 . S
C456 O446 1.283 . S
C457 O449 1.304 . S
C457 O451 1.272 . S
C458 O450 1.311 . S
C458 O452 1.231 . S
O459 Zn441 1.953 . S
O459 C453 1.298 . S
O460 Zn461 1.953 . S
O460 C476 1.225 . S
Zn461 O460 1.953 . S
Zn461 O462 1.949 . S
Zn461 O468 1.919 . S
Zn461 O473 1.924 . S
O462 Zn461 1.949 . S
O462 Zn463 1.923 . S
O462 Zn464 1.950 . S
O462 Zn465 1.945 . S
Zn463 O462 1.923 . S
Zn463 O466 1.933 . S
Zn463 O469 1.941 . S
Zn463 O470 1.965 . S
Zn464 O462 1.950 . S
Zn464 O471 1.938 . S
Zn464 O472 1.906 . S
Zn464 O482 1.953 . S
Zn465 O462 1.945 . S
Zn465 O467 1.932 . S
Zn465 O474 1.977 . S
Zn465 O475 1.910 . S
O466 Zn463 1.933 . S
O466 C477 1.226 . S
O467 Zn465 1.932 . S
O467 C477 1.307 . S
O468 Zn461 1.919 . S
O468 C479 1.253 . S
O469 Zn463 1.941 . S
O469 C479 1.283 . S
O470 Zn463 1.965 . S
O470 C478 1.303 . S
O471 Zn464 1.938 . S
O471 C478 1.247 . S
O472 Zn464 1.906 . S
O472 C480 1.304 . S
O473 Zn461 1.924 . S
O473 C481 1.311 . S
O474 Zn465 1.977 . S
O474 C480 1.272 . S
O475 Zn465 1.910 . S
O475 C481 1.231 . S
C476 O460 1.225 . S
C476 O482 1.298 . S
C477 O466 1.226 . S
C477 O467 1.307 . S
C478 O470 1.303 . S
C478 O471 1.247 . S
C479 O468 1.253 . S
C479 O469 1.283 . S
C480 O472 1.304 . S
C480 O474 1.272 . S
C481 O473 1.311 . S
C481 O475 1.231 . S
O482 Zn464 1.953 . S
O482 C476 1.298 . S
O483 Zn484 1.953 . S
O483 C499 1.225 . S
Zn484 O483 1.953 . S
Zn484 O485 1.949 . S
Zn484 O491 1.919 . S
Zn484 O496 1.924 . S
O485 Zn484 1.949 . S
O485 Zn486 1.923 . S
O485 Zn487 1.950 . S
O485 Zn488 1.945 . S
Zn486 O485 1.923 . S
Zn486 O489 1.933 . S
Zn486 O492 1.941 . S
Zn486 O493 1.965 . S
Zn487 O485 1.950 . S
Zn487 O494 1.938 . S
Zn487 O495 1.906 . S
Zn487 O505 1.953 . S
Zn488 O485 1.945 . S
Zn488 O490 1.932 . S
Zn488 O497 1.977 . S
Zn488 O498 1.910 . S
O489 Zn486 1.933 . S
O489 C500 1.226 . S
O490 Zn488 1.932 . S
O490 C500 1.307 . S
O491 Zn484 1.919 . S
O491 C502 1.253 . S
O492 Zn486 1.941 . S
O492 C502 1.283 . S
O493 Zn486 1.965 . S
O493 C501 1.303 . S
O494 Zn487 1.938 . S
O494 C501 1.247 . S
O495 Zn487 1.906 . S
O495 C503 1.304 . S
O496 Zn484 1.924 . S
O496 C504 1.311 . S
O497 Zn488 1.977 . S
O497 C503 1.272 . S
O498 Zn488 1.910 . S
O498 C504 1.231 . S
C499 O483 1.225 . S
C499 O505 1.298 . S
C500 O489 1.226 . S
C500 O490 1.307 . S
C501 O493 1.303 . S
C501 O494 1.247 . S
C502 O491 1.253 . S
C502 O492 1.283 . S
C503 O495 1.304 . S
C503 O497 1.272 . S
C504 O496 1.311 . S
C504 O498 1.231 . S
O505 Zn487 1.953 . S
O505 C499 1.298 . S
O506 Zn507 1.953 . S
O506 C522 1.225 . S
Zn507 O506 1.953 . S
Zn507 O508 1.949 . S
Zn507 O514 1.919 . S
Zn507 O519 1.924 . S
O508 Zn507 1.949 . S
O508 Zn509 1.923 . S
O508 Zn510 1.950 . S
O508 Zn511 1.945 . S
Zn509 O508 1.923 . S
Zn509 O512 1.933 . S
Zn509 O515 1.941 . S
Zn509 O516 1.965 . S
Zn510 O508 1.950 . S
Zn510 O517 1.938 . S
Zn510 O518 1.906 . S
Zn510 O528 1.953 . S
Zn511 O508 1.945 . S
Zn511 O513 1.932 . S
Zn511 O520 1.977 . S
Zn511 O521 1.910 . S
O512 Zn509 1.933 . S
O512 C523 1.226 . S
O513 Zn511 1.932 . S
O513 C523 1.307 . S
O514 Zn507 1.919 . S
O514 C525 1.253 . S
O515 Zn509 1.941 . S
O515 C525 1.283 . S
O516 Zn509 1.965 . S
O516 C524 1.303 . S
O517 Zn510 1.938 . S
O517 C524 1.247 . S
O518 Zn510 1.906 . S
O518 C526 1.304 . S
O519 Zn507 1.924 . S
O519 C527 1.311 . S
O520 Zn511 1.977 . S
O520 C526 1.272 . S
O521 Zn511 1.910 . S
O521 C527 1.231 . S
C522 O506 1.225 . S
C522 O528 1.298 . S
C523 O512 1.226 . S
C523 O513 1.307 . S
C524 O516 1.303 . S
C524 O517 1.247 . S
C525 O514 1.253 . S
C525 O515 1.283 . S
C526 O518 1.304 . S
C526 O520 1.272 . S
C527 O519 1.311 . S
C527 O521 1.231 . S
O528 Zn510 1.953 . S
O528 C522 1.298 . S
O529 Zn530 1.953 . S
O529 C545 1.225 . S
Zn530 O529 1.953 . S
Zn530 O531 1.949 . S
Zn530 O537 1.919 . S
Zn530 O542 1.924 . S
O531 Zn530 1.949 . S
O531 Zn532 1.923 . S
O531 Zn533 1.950 . S
O531 Zn534 1.945 . S
Zn532 O531 1.923 . S
Zn532 O535 1.933 . S
Zn532 O538 1.941 . S
Zn532 O539 1.965 . S
Zn533 O531 1.950 . S
Zn533 O540 1.938 . S
Zn533 O541 1.906 . S
Zn533 O551 1.953 . S
Zn534 O531 1.945 . S
Zn534 O536 1.932 . S
Zn534 O543 1.977 . S
Zn534 O544 1.910 . S
O535 Zn532 1.933 . S
O535 C546 1.226 . S
O536 Zn534 1.932 . S
O536 C546 1.307 . S
O537 Zn530 1.919 . S
O537 C548 1.253 . S
O538 Zn532 1.941 . S
O538 C548 1.283 . S
O539 Zn532 1.965 . S
O539 C547 1.303 . S
O540 Zn533 1.938 . S
O540 C547 1.247 . S
O541 Zn533 1.906 . S
O541 C549 1.304 . S
O542 Zn530 1.924 . S
O542 C550 1.311 . S
O543 Zn534 1.977 . S
O543 C549 1.272 . S
O544 Zn534 1.910 . S
O544 C550 1.231 . S
C545 O529 1.225 . S
C545 O551 1.298 . S
C546 O535 1.226 . S
C546 O536 1.307 . S
C547 O539 1.303 . S
C547 O540 1.247 . S
C548 O537 1.253 . S
C548 O538 1.283 . S
C549 O541 1.304 . S
C549 O543 1.272 . S
C550 O542 1.311 . S
C550 O544 1.231 . S
O551 Zn533 1.953 . S
O551 C545 1.298 . S
H552 C558 0.930 . S
H553 C562 0.930 . S
H554 C567 0.929 . S
H555 C565 0.929 . S
H556 C560 0.929 . S
H557 C566 0.929 . S
C558 H552 0.930 . S
C558 C559 1.367 . S
C558 C566 1.378 . S
C559 C558 1.367 . S
C559 C567 1.433 . S
C560 H556 0.929 . S
C560 C562 1.378 . S
C560 C564 1.350 . S
C561 C564 1.463 . S
C561 C566 1.350 . S
C561 N569 1.427 . S
C562 H553 0.930 . S
C562 C560 1.378 . S
C562 C563 1.367 . S
C563 C562 1.367 . S
C563 C565 1.433 . S
C564 C560 1.350 . S
C564 C561 1.463 . S
C564 N568 1.427 . S
C565 H555 0.929 . S
C565 C563 1.433 . S
C565 N568 1.384 . S
C566 H557 0.929 . S
C566 C558 1.378 . S
C566 C561 1.350 . S
C567 H554 0.929 . S
C567 C559 1.433 . S
C567 N569 1.384 . S
N568 C564 1.427 . S
N568 C565 1.384 . S
N569 C561 1.427 . S
N569 C567 1.384 . S
H570 C576 0.930 . S
H571 C580 0.930 . S
H572 C585 0.929 . S
H573 C583 0.929 . S
H574 C578 0.929 . S
H575 C584 0.929 . S
C576 H570 0.930 . S
C576 C577 1.367 . S
C576 C584 1.378 . S
C577 C576 1.367 . S
C577 C585 1.433 . S
C578 H574 0.929 . S
C578 C580 1.378 . S
C578 C582 1.350 . S
C579 C582 1.463 . S
C579 C584 1.350 . S
C579 N587 1.427 . S
C580 H571 0.930 . S
C580 C578 1.378 . S
C580 C581 1.367 . S
C581 C580 1.367 . S
C581 C583 1.433 . S
C582 C578 1.350 . S
C582 C579 1.463 . S
C582 N586 1.427 . S
C583 H573 0.929 . S
C583 C581 1.433 . S
C583 N586 1.384 . S
C584 H575 0.929 . S
C584 C576 1.378 . S
C584 C579 1.350 . S
C585 H572 0.929 . S
C585 C577 1.433 . S
C585 N587 1.384 . S
N586 C582 1.427 . S
N586 C583 1.384 . S
N587 C579 1.427 . S
N587 C585 1.384 . S
H588 C594 0.930 . S
H589 C598 0.930 . S
H590 C603 0.929 . S
H591 C601 0.929 . S
H592 C596 0.929 . S
H593 C602 0.929 . S
C594 H588 0.930 . S
C594 C595 1.367 . S
C594 C602 1.378 . S
C595 C594 1.367 . S
C595 C603 1.433 . S
C596 H592 0.929 . S
C596 C598 1.378 . S
C596 C600 1.350 . S
C597 C600 1.463 . S
C597 C602 1.350 . S
C597 N605 1.427 . S
C598 H589 0.930 . S
C598 C596 1.378 . S
C598 C599 1.367 . S
C599 C598 1.367 . S
C599 C601 1.433 . S
C600 C596 1.350 . S
C600 C597 1.463 . S
C600 N604 1.427 . S
C601 H591 0.929 . S
C601 C599 1.433 . S
C601 N604 1.384 . S
C602 H593 0.929 . S
C602 C594 1.378 . S
C602 C597 1.350 . S
C603 H590 0.929 . S
C603 C595 1.433 . S
C603 N605 1.384 . S
N604 C600 1.427 . S
N604 C601 1.384 . S
N605 C597 1.427 . S
N605 C603 1.384 . S
H606 C612 0.930 . S
H607 C616 0.930 . S
H608 C621 0.929 . S
H609 C619 0.929 . S
H610 C614 0.929 . S
H611 C620 0.929 . S
C612 H606 0.930 . S
C612 C613 1.367 . S
C612 C620 1.378 . S
C613 C612 1.367 . S
C613 C621 1.433 . S
C614 H610 0.929 . S
C614 C616 1.378 . S
C614 C618 1.350 . S
C615 C618 1.463 . S
C615 C620 1.350 . S
C615 N623 1.427 . S
C616 H607 0.930 . S
C616 C614 1.378 . S
C616 C617 1.367 . S
C617 C616 1.367 . S
C617 C619 1.433 . S
C618 C614 1.350 . S
C618 C615 1.463 . S
C618 N622 1.427 . S
C619 H609 0.929 . S
C619 C617 1.433 . S
C619 N622 1.384 . S
C620 H611 0.929 . S
C620 C612 1.378 . S
C620 C615 1.350 . S
C621 H608 0.929 . S
C621 C613 1.433 . S
C621 N623 1.384 . S
N622 C618 1.427 . S
N622 C619 1.384 . S
N623 C615 1.427 . S
N623 C621 1.384 . S
H624 C630 0.930 . S
H625 C634 0.930 . S
H626 C639 0.929 . S
H627 C637 0.929 . S
H628 C632 0.929 . S
H629 C638 0.929 . S
C630 H624 0.930 . S
C630 C631 1.367 . S
C630 C638 1.378 . S
C631 C630 1.367 . S
C631 C639 1.433 . S
C632 H628 0.929 . S
C632 C634 1.378 . S
C632 C636 1.350 . S
C633 C636 1.463 . S
C633 C638 1.350 . S
C633 N641 1.427 . S
C634 H625 0.930 . S
C634 C632 1.378 . S
C634 C635 1.367 . S
C635 C634 1.367 . S
C635 C637 1.433 . S
C636 C632 1.350 . S
C636 C633 1.463 . S
C636 N640 1.427 . S
C637 H627 0.929 . S
C637 C635 1.433 . S
C637 N640 1.384 . S
C638 H629 0.929 . S
C638 C630 1.378 . S
C638 C633 1.350 . S
C639 H626 0.929 . S
C639 C631 1.433 . S
C639 N641 1.384 . S
N640 C636 1.427 . S
N640 C637 1.384 . S
N641 C633 1.427 . S
N641 C639 1.384 . S
H642 C648 0.930 . S
H643 C652 0.930 . S
H644 C657 0.929 . S
H645 C655 0.929 . S
H646 C650 0.929 . S
H647 C656 0.929 . S
C648 H642 0.930 . S
C648 C649 1.367 . S
C648 C656 1.378 . S
C649 C648 1.367 . S
C649 C657 1.433 . S
C650 H646 0.929 . S
C650 C652 1.378 . S
C650 C654 1.350 . S
C651 C654 1.463 . S
C651 C656 1.350 . S
C651 N659 1.427 . S
C652 H643 0.930 . S
C652 C650 1.378 . S
C652 C653 1.367 . S
C653 C652 1.367 . S
C653 C655 1.433 . S
C654 C650 1.350 . S
C654 C651 1.463 . S
C654 N658 1.427 . S
C655 H645 0.929 . S
C655 C653 1.433 . S
C655 N658 1.384 . S
C656 H647 0.929 . S
C656 C648 1.378 . S
C656 C651 1.350 . S
C657 H644 0.929 . S
C657 C649 1.433 . S
C657 N659 1.384 . S
N658 C654 1.427 . S
N658 C655 1.384 . S
N659 C651 1.427 . S
N659 C657 1.384 . S
H660 C666 0.930 . S
H661 C670 0.930 . S
H662 C675 0.929 . S
H663 C673 0.929 . S
H664 C668 0.929 . S
H665 C674 0.929 . S
C666 H660 0.930 . S
C666 C667 1.367 . S
C666 C674 1.378 . S
C667 C666 1.367 . S
C667 C675 1.433 . S
C668 H664 0.929 . S
C668 C670 1.378 . S
C668 C672 1.350 . S
C669 C672 1.463 . S
C669 C674 1.350 . S
C669 N677 1.427 . S
C670 H661 0.930 . S
C670 C668 1.378 . S
C670 C671 1.367 . S
C671 C670 1.367 . S
C671 C673 1.433 . S
C672 C668 1.350 . S
C672 C669 1.463 . S
C672 N676 1.427 . S
C673 H663 0.929 . S
C673 C671 1.433 . S
C673 N676 1.384 . S
C674 H665 0.929 . S
C674 C666 1.378 . S
C674 C669 1.350 . S
C675 H662 0.929 . S
C675 C667 1.433 . S
C675 N677 1.384 . S
N676 C672 1.427 . S
N676 C673 1.384 . S
N677 C669 1.427 . S
N677 C675 1.384 . S
H678 C684 0.930 . S
H679 C688 0.930 . S
H680 C693 0.929 . S
H681 C691 0.929 . S
H682 C686 0.929 . S
H683 C692 0.929 . S
C684 H678 0.930 . S
C684 C685 1.367 . S
C684 C692 1.378 . S
C685 C684 1.367 . S
C685 C693 1.433 . S
C686 H682 0.929 . S
C686 C688 1.378 . S
C686 C690 1.350 . S
C687 C690 1.463 . S
C687 C692 1.350 . S
C687 N695 1.427 . S
C688 H679 0.930 . S
C688 C686 1.378 . S
C688 C689 1.367 . S
C689 C688 1.367 . S
C689 C691 1.433 . S
C690 C686 1.350 . S
C690 C687 1.463 . S
C690 N694 1.427 . S
C691 H681 0.929 . S
C691 C689 1.433 . S
C691 N694 1.384 . S
C692 H683 0.929 . S
C692 C684 1.378 . S
C692 C687 1.350 . S
C693 H680 0.929 . S
C693 C685 1.433 . S
C693 N695 1.384 . S
N694 C690 1.427 . S
N694 C691 1.384 . S
N695 C687 1.427 . S
N695 C693 1.384 . S
H696 C702 0.930 . S
H697 C706 0.930 . S
H698 C711 0.929 . S
H699 C709 0.929 . S
H700 C704 0.929 . S
H701 C710 0.929 . S
C702 H696 0.930 . S
C702 C703 1.367 . S
C702 C710 1.378 . S
C703 C702 1.367 . S
C703 C711 1.433 . S
C704 H700 0.929 . S
C704 C706 1.378 . S
C704 C708 1.350 . S
C705 C708 1.463 . S
C705 C710 1.350 . S
C705 N713 1.427 . S
C706 H697 0.930 . S
C706 C704 1.378 . S
C706 C707 1.367 . S
C707 C706 1.367 . S
C707 C709 1.433 . S
C708 C704 1.350 . S
C708 C705 1.463 . S
C708 N712 1.427 . S
C709 H699 0.929 . S
C709 C707 1.433 . S
C709 N712 1.384 . S
C710 H701 0.929 . S
C710 C702 1.378 . S
C710 C705 1.350 . S
C711 H698 0.929 . S
C711 C703 1.433 . S
C711 N713 1.384 . S
N712 C708 1.427 . S
N712 C709 1.384 . S
N713 C705 1.427 . S
N713 C711 1.384 . S
H714 C720 0.930 . S
H715 C724 0.930 . S
H716 C729 0.929 . S
H717 C727 0.929 . S
H718 C722 0.929 . S
H719 C728 0.929 . S
C720 H714 0.930 . S
C720 C721 1.367 . S
C720 C728 1.378 . S
C721 C720 1.367 . S
C721 C729 1.433 . S
C722 H718 0.929 . S
C722 C724 1.378 . S
C722 C726 1.350 . S
C723 C726 1.463 . S
C723 C728 1.350 . S
C723 N731 1.427 . S
C724 H715 0.930 . S
C724 C722 1.378 . S
C724 C725 1.367 . S
C725 C724 1.367 . S
C725 C727 1.433 . S
C726 C722 1.350 . S
C726 C723 1.463 . S
C726 N730 1.427 . S
C727 H717 0.929 . S
C727 C725 1.433 . S
C727 N730 1.384 . S
C728 H719 0.929 . S
C728 C720 1.378 . S
C728 C723 1.350 . S
C729 H716 0.929 . S
C729 C721 1.433 . S
C729 N731 1.384 . S
N730 C726 1.427 . S
N730 C727 1.384 . S
N731 C723 1.427 . S
N731 C729 1.384 . S
H732 C738 0.930 . S
H733 C742 0.930 . S
H734 C747 0.929 . S
H735 C745 0.929 . S
H736 C740 0.929 . S
H737 C746 0.929 . S
C738 H732 0.930 . S
C738 C739 1.367 . S
C738 C746 1.378 . S
C739 C738 1.367 . S
C739 C747 1.433 . S
C740 H736 0.929 . S
C740 C742 1.378 . S
C740 C744 1.350 . S
C741 C744 1.463 . S
C741 C746 1.350 . S
C741 N749 1.427 . S
C742 H733 0.930 . S
C742 C740 1.378 . S
C742 C743 1.367 . S
C743 C742 1.367 . S
C743 C745 1.433 . S
C744 C740 1.350 . S
C744 C741 1.463 . S
C744 N748 1.427 . S
C745 H735 0.929 . S
C745 C743 1.433 . S
C745 N748 1.384 . S
C746 H737 0.929 . S
C746 C738 1.378 . S
C746 C741 1.350 . S
C747 H734 0.929 . S
C747 C739 1.433 . S
C747 N749 1.384 . S
N748 C744 1.427 . S
N748 C745 1.384 . S
N749 C741 1.427 . S
N749 C747 1.384 . S
H750 C756 0.930 . S
H751 C760 0.930 . S
H752 C765 0.929 . S
H753 C763 0.929 . S
H754 C758 0.929 . S
H755 C764 0.929 . S
C756 H750 0.930 . S
C756 C757 1.367 . S
C756 C764 1.378 . S
C757 C756 1.367 . S
C757 C765 1.433 . S
C758 H754 0.929 . S
C758 C760 1.378 . S
C758 C762 1.350 . S
C759 C762 1.463 . S
C759 C764 1.350 . S
C759 N767 1.427 . S
C760 H751 0.930 . S
C760 C758 1.378 . S
C760 C761 1.367 . S
C761 C760 1.367 . S
C761 C763 1.433 . S
C762 C758 1.350 . S
C762 C759 1.463 . S
C762 N766 1.427 . S
C763 H753 0.929 . S
C763 C761 1.433 . S
C763 N766 1.384 . S
C764 H755 0.929 . S
C764 C756 1.378 . S
C764 C759 1.350 . S
C765 H752 0.929 . S
C765 C757 1.433 . S
C765 N767 1.384 . S
N766 C762 1.427 . S
N766 C763 1.384 . S
N767 C759 1.427 . S
N767 C765 1.384 . S
H768 C774 0.930 . S
H769 C778 0.930 . S
H770 C783 0.929 . S
H771 C781 0.929 . S
H772 C776 0.929 . S
H773 C782 0.929 . S
C774 H768 0.930 . S
C774 C775 1.367 . S
C774 C782 1.378 . S
C775 C774 1.367 . S
C775 C783 1.433 . S
C776 H772 0.929 . S
C776 C778 1.378 . S
C776 C780 1.350 . S
C777 C780 1.463 1_545 S
C777 C782 1.350 . S
C777 N785 1.427 . S
C778 H769 0.930 . S
C778 C776 1.378 . S
C778 C779 1.367 . S
C779 C778 1.367 . S
C779 C781 1.433 . S
C780 C776 1.350 . S
C780 C777 1.463 1_565 S
C780 N784 1.427 . S
C781 H771 0.929 . S
C781 C779 1.433 . S
C781 N784 1.384 . S
C782 H773 0.929 . S
C782 C774 1.378 . S
C782 C777 1.350 . S
C783 H770 0.929 . S
C783 C775 1.433 . S
C783 N785 1.384 . S
N784 C780 1.427 . S
N784 C781 1.384 . S
N785 C777 1.427 . S
N785 C783 1.384 . S
H786 C792 0.930 . S
H787 C796 0.930 . S
H788 C801 0.929 . S
H789 C799 0.929 . S
H790 C794 0.929 . S
H791 C800 0.929 . S
C792 H786 0.930 . S
C792 C793 1.367 . S
C792 C800 1.378 . S
C793 C792 1.367 . S
C793 C801 1.433 . S
C794 H790 0.929 . S
C794 C796 1.378 . S
C794 C798 1.350 . S
C795 C798 1.463 . S
C795 C800 1.350 . S
C795 N803 1.427 . S
C796 H787 0.930 . S
C796 C794 1.378 . S
C796 C797 1.367 . S
C797 C796 1.367 . S
C797 C799 1.433 . S
C798 C794 1.350 . S
C798 C795 1.463 . S
C798 N802 1.427 . S
C799 H789 0.929 . S
C799 C797 1.433 . S
C799 N802 1.384 . S
C800 H791 0.929 . S
C800 C792 1.378 . S
C800 C795 1.350 . S
C801 H788 0.929 . S
C801 C793 1.433 . S
C801 N803 1.384 . S
N802 C798 1.427 . S
N802 C799 1.384 . S
N803 C795 1.427 . S
N803 C801 1.384 . S
H804 C810 0.930 . S
H805 C814 0.930 . S
H806 C819 0.929 . S
H807 C817 0.929 . S
H808 C812 0.929 . S
H809 C818 0.929 . S
C810 H804 0.930 . S
C810 C811 1.367 . S
C810 C818 1.378 . S
C811 C810 1.367 . S
C811 C819 1.433 . S
C812 H808 0.929 . S
C812 C814 1.378 . S
C812 C816 1.350 . S
C813 C816 1.463 1_655 S
C813 C818 1.350 . S
C813 N821 1.427 . S
C814 H805 0.930 . S
C814 C812 1.378 . S
C814 C815 1.367 . S
C815 C814 1.367 . S
C815 C817 1.433 . S
C816 C812 1.350 . S
C816 C813 1.463 1_455 S
C816 N820 1.427 . S
C817 H807 0.929 . S
C817 C815 1.433 . S
C817 N820 1.384 . S
C818 H809 0.929 . S
C818 C810 1.378 . S
C818 C813 1.350 . S
C819 H806 0.929 . S
C819 C811 1.433 . S
C819 N821 1.384 . S
N820 C816 1.427 . S
N820 C817 1.384 . S
N821 C813 1.427 . S
N821 C819 1.384 . S
H822 C828 0.930 . S
H823 C832 0.930 . S
H824 C837 0.929 . S
H825 C835 0.929 . S
H826 C830 0.929 . S
H827 C836 0.929 . S
C828 H822 0.930 . S
C828 C829 1.367 . S
C828 C836 1.378 . S
C829 C828 1.367 . S
C829 C837 1.433 . S
C830 H826 0.929 . S
C830 C832 1.378 . S
C830 C834 1.350 . S
C831 C834 1.463 1_655 S
C831 C836 1.350 . S
C831 N839 1.427 . S
C832 H823 0.930 . S
C832 C830 1.378 . S
C832 C833 1.367 . S
C833 C832 1.367 . S
C833 C835 1.433 . S
C834 C830 1.350 . S
C834 C831 1.463 1_455 S
C834 N838 1.427 . S
C835 H825 0.929 . S
C835 C833 1.433 . S
C835 N838 1.384 . S
C836 H827 0.929 . S
C836 C828 1.378 . S
C836 C831 1.350 . S
C837 H824 0.929 . S
C837 C829 1.433 . S
C837 N839 1.384 . S
N838 C834 1.427 . S
N838 C835 1.384 . S
N839 C831 1.427 . S
N839 C837 1.384 . S
H840 C846 0.930 . S
H841 C850 0.930 . S
H842 C855 0.929 . S
H843 C853 0.929 . S
H844 C848 0.929 . S
H845 C854 0.929 . S
C846 H840 0.930 . S
C846 C847 1.367 . S
C846 C854 1.378 . S
C847 C846 1.367 . S
C847 C855 1.433 . S
C848 H844 0.929 . S
C848 C850 1.378 . S
C848 C852 1.350 . S
C849 C852 1.463 1_565 S
C849 C854 1.350 . S
C849 N857 1.427 . S
C850 H841 0.930 . S
C850 C848 1.378 . S
C850 C851 1.367 . S
C851 C850 1.367 . S
C851 C853 1.433 . S
C852 C848 1.350 . S
C852 C849 1.463 1_545 S
C852 N856 1.427 . S
C853 H843 0.929 . S
C853 C851 1.433 . S
C853 N856 1.384 . S
C854 H845 0.929 . S
C854 C846 1.378 . S
C854 C849 1.350 . S
C855 H842 0.929 . S
C855 C847 1.433 . S
C855 N857 1.384 . S
N856 C852 1.427 . S
N856 C853 1.384 . S
N857 C849 1.427 . S
N857 C855 1.384 . S
H858 C864 0.930 . S
H859 C868 0.930 . S
H860 C873 0.929 . S
H861 C871 0.929 . S
H862 C866 0.929 . S
H863 C872 0.929 . S
C864 H858 0.930 . S
C864 C865 1.367 . S
C864 C872 1.378 . S
C865 C864 1.367 . S
C865 C873 1.433 . S
C866 H862 0.929 . S
C866 C868 1.378 . S
C866 C870 1.350 . S
C867 C870 1.463 . S
C867 C872 1.350 . S
C867 N875 1.427 . S
C868 H859 0.930 . S
C868 C866 1.378 . S
C868 C869 1.367 . S
C869 C868 1.367 . S
C869 C871 1.433 . S
C870 C866 1.350 . S
C870 C867 1.463 . S
C870 N874 1.427 . S
C871 H861 0.929 . S
C871 C869 1.433 . S
C871 N874 1.384 . S
C872 H863 0.929 . S
C872 C864 1.378 . S
C872 C867 1.350 . S
C873 H860 0.929 . S
C873 C865 1.433 . S
C873 N875 1.384 . S
N874 C870 1.427 . S
N874 C871 1.384 . S
N875 C867 1.427 . S
N875 C873 1.384 . S
H876 C882 0.930 . S
H877 C886 0.930 . S
H878 C891 0.929 . S
H879 C889 0.929 . S
H880 C884 0.929 1_545 S
H881 C890 0.929 1_565 S
C882 H876 0.930 . S
C882 C883 1.367 . S
C882 C890 1.378 . S
C883 C882 1.367 . S
C883 C891 1.433 . S
C884 H880 0.929 1_565 S
C884 C886 1.378 . S
C884 C888 1.350 . S
C885 C888 1.463 1_545 S
C885 C890 1.350 . S
C885 N893 1.427 . S
C886 H877 0.930 . S
C886 C884 1.378 . S
C886 C887 1.367 . S
C887 C886 1.367 . S
C887 C889 1.433 . S
C888 C884 1.350 . S
C888 C885 1.463 1_565 S
C888 N892 1.427 . S
C889 H879 0.929 . S
C889 C887 1.433 . S
C889 N892 1.384 . S
C890 H881 0.929 1_545 S
C890 C882 1.378 . S
C890 C885 1.350 . S
C891 H878 0.929 . S
C891 C883 1.433 . S
C891 N893 1.384 . S
N892 C888 1.427 . S
N892 C889 1.384 . S
N893 C885 1.427 . S
N893 C891 1.384 . S
H894 C900 0.930 . S
H895 C904 0.930 . S
H896 C909 0.929 . S
H897 C907 0.929 . S
H898 C902 0.929 . S
H899 C908 0.929 . S
C900 H894 0.930 . S
C900 C901 1.367 . S
C900 C908 1.378 . S
C901 C900 1.367 . S
C901 C909 1.433 . S
C902 H898 0.929 . S
C902 C904 1.378 . S
C902 C906 1.350 . S
C903 C906 1.463 . S
C903 C908 1.350 . S
C903 N911 1.427 . S
C904 H895 0.930 . S
C904 C902 1.378 . S
C904 C905 1.367 . S
C905 C904 1.367 . S
C905 C907 1.433 . S
C906 C902 1.350 . S
C906 C903 1.463 . S
C906 N910 1.427 . S
C907 H897 0.929 . S
C907 C905 1.433 . S
C907 N910 1.384 . S
C908 H899 0.929 . S
C908 C900 1.378 . S
C908 C903 1.350 . S
C909 H896 0.929 . S
C909 C901 1.433 . S
C909 N911 1.384 . S
N910 C906 1.427 . S
N910 C907 1.384 . S
N911 C903 1.427 . S
N911 C909 1.384 . S
H912 C918 0.930 . S
H913 C922 0.930 . S
H914 C927 0.929 . S
H915 C925 0.929 . S
H916 C920 0.929 1_655 S
H917 C926 0.929 1_455 S
C918 H912 0.930 . S
C918 C919 1.367 . S
C918 C926 1.378 . S
C919 C918 1.367 . S
C919 C927 1.433 . S
C920 H916 0.929 1_455 S
C920 C922 1.378 . S
C920 C924 1.350 . S
C921 C924 1.463 1_655 S
C921 C926 1.350 . S
C921 N929 1.427 . S
C922 H913 0.930 . S
C922 C920 1.378 . S
C922 C923 1.367 . S
C923 C922 1.367 . S
C923 C925 1.433 . S
C924 C920 1.350 . S
C924 C921 1.463 1_455 S
C924 N928 1.427 . S
C925 H915 0.929 . S
C925 C923 1.433 . S
C925 N928 1.384 . S
C926 H917 0.929 1_655 S
C926 C918 1.378 . S
C926 C921 1.350 . S
C927 H914 0.929 . S
C927 C919 1.433 . S
C927 N929 1.384 . S
N928 C924 1.427 . S
N928 C925 1.384 . S
N929 C921 1.427 . S
N929 C927 1.384 . S
H930 C936 0.930 . S
H931 C940 0.930 . S
H932 C945 0.929 . S
H933 C943 0.929 . S
H934 C938 0.929 . S
H935 C944 0.929 . S
C936 H930 0.930 . S
C936 C937 1.367 . S
C936 C944 1.378 . S
C937 C936 1.367 . S
C937 C945 1.433 . S
C938 H934 0.929 . S
C938 C940 1.378 . S
C938 C942 1.350 . S
C939 C942 1.463 1_455 S
C939 C944 1.350 . S
C939 N947 1.427 . S
C940 H931 0.930 . S
C940 C938 1.378 . S
C940 C941 1.367 . S
C941 C940 1.367 . S
C941 C943 1.433 . S
C942 C938 1.350 . S
C942 C939 1.463 1_655 S
C942 N946 1.427 . S
C943 H933 0.929 . S
C943 C941 1.433 . S
C943 N946 1.384 . S
C944 H935 0.929 . S
C944 C936 1.378 . S
C944 C939 1.350 . S
C945 H932 0.929 . S
C945 C937 1.433 . S
C945 N947 1.384 . S
N946 C942 1.427 . S
N946 C943 1.384 . S
N947 C939 1.427 . S
N947 C945 1.384 . S
H948 C954 0.930 . S
H949 C958 0.930 . S
H950 C963 0.929 . S
H951 C961 0.929 . S
H952 C956 0.929 . S
H953 C962 0.929 . S
C954 H948 0.930 . S
C954 C955 1.367 . S
C954 C962 1.378 . S
C955 C954 1.367 . S
C955 C963 1.433 . S
C956 H952 0.929 . S
C956 C958 1.378 . S
C956 C960 1.350 . S
C957 C960 1.463 1_545 S
C957 C962 1.350 . S
C957 N965 1.427 . S
C958 H949 0.930 . S
C958 C956 1.378 . S
C958 C959 1.367 . S
C959 C958 1.367 . S
C959 C961 1.433 . S
C960 C956 1.350 . S
C960 C957 1.463 1_565 S
C960 N964 1.427 . S
C961 H951 0.929 . S
C961 C959 1.433 . S
C961 N964 1.384 . S
C962 H953 0.929 . S
C962 C954 1.378 . S
C962 C957 1.350 . S
C963 H950 0.929 . S
C963 C955 1.433 . S
C963 N965 1.384 . S
N964 C960 1.427 . S
N964 C961 1.384 . S
N965 C957 1.427 . S
N965 C963 1.384 . S
H966 C972 0.930 . S
H967 C976 0.930 . S
H968 C981 0.929 . S
H969 C979 0.929 . S
H970 C974 0.929 . S
H971 C980 0.929 . S
C972 H966 0.930 . S
C972 C973 1.367 . S
C972 C980 1.378 . S
C973 C972 1.367 . S
C973 C981 1.433 . S
C974 H970 0.929 . S
C974 C976 1.378 . S
C974 C978 1.350 . S
C975 C978 1.463 . S
C975 C980 1.350 . S
C975 N983 1.427 . S
C976 H967 0.930 . S
C976 C974 1.378 . S
C976 C977 1.367 . S
C977 C976 1.367 . S
C977 C979 1.433 . S
C978 C974 1.350 . S
C978 C975 1.463 . S
C978 N982 1.427 . S
C979 H969 0.929 . S
C979 C977 1.433 . S
C979 N982 1.384 . S
C980 H971 0.929 . S
C980 C972 1.378 . S
C980 C975 1.350 . S
C981 H968 0.929 . S
C981 C973 1.433 . S
C981 N983 1.384 . S
N982 C978 1.427 . S
N982 C979 1.384 . S
N983 C975 1.427 . S
N983 C981 1.384 . S
H984 C990 0.930 . S
H985 C994 0.930 . S
H986 C999 0.929 . S
H987 C997 0.929 . S
H988 C992 0.929 . S
H989 C998 0.929 . S
C990 H984 0.930 . S
C990 C991 1.367 . S
C990 C998 1.378 . S
C991 C990 1.367 . S
C991 C999 1.433 . S
C992 H988 0.929 . S
C992 C994 1.378 . S
C992 C996 1.350 . S
C993 C996 1.463 . S
C993 C998 1.350 . S
C993 N1001 1.427 . S
C994 H985 0.930 . S
C994 C992 1.378 . S
C994 C995 1.367 . S
C995 C994 1.367 . S
C995 C997 1.433 . S
C996 C992 1.350 . S
C996 C993 1.463 . S
C996 N1000 1.427 . S
C997 H987 0.929 . S
C997 C995 1.433 . S
C997 N1000 1.384 . S
C998 H989 0.929 . S
C998 C990 1.378 . S
C998 C993 1.350 . S
C999 H986 0.929 . S
C999 C991 1.433 . S
C999 N1001 1.384 . S
N1000 C996 1.427 . S
N1000 C997 1.384 . S
N1001 C993 1.427 . S
N1001 C999 1.384 . S
H1002 C1008 0.930 . S
H1003 C1012 0.930 . S
H1004 C1017 0.929 . S
H1005 C1015 0.929 . S
H1006 C1010 0.929 . S
H1007 C1016 0.929 . S
C1008 H1002 0.930 . S
C1008 C1009 1.367 . S
C1008 C1016 1.378 . S
C1009 C1008 1.367 . S
C1009 C1017 1.433 . S
C1010 H1006 0.929 . S
C1010 C1012 1.378 . S
C1010 C1014 1.350 . S
C1011 C1014 1.463 . S
C1011 C1016 1.350 . S
C1011 N1019 1.427 . S
C1012 H1003 0.930 . S
C1012 C1010 1.378 . S
C1012 C1013 1.367 . S
C1013 C1012 1.367 . S
C1013 C1015 1.433 . S
C1014 C1010 1.350 . S
C1014 C1011 1.463 . S
C1014 N1018 1.427 . S
C1015 H1005 0.929 . S
C1015 C1013 1.433 . S
C1015 N1018 1.384 . S
C1016 H1007 0.929 . S
C1016 C1008 1.378 . S
C1016 C1011 1.350 . S
C1017 H1004 0.929 . S
C1017 C1009 1.433 . S
C1017 N1019 1.384 . S
N1018 C1014 1.427 . S
N1018 C1015 1.384 . S
N1019 C1011 1.427 . S
N1019 C1017 1.384 . S
H1020 C1026 0.930 . S
H1021 C1030 0.930 . S
H1022 C1035 0.929 . S
H1023 C1033 0.929 . S
H1024 C1028 0.929 . S
H1025 C1034 0.929 . S
C1026 H1020 0.930 . S
C1026 C1027 1.367 . S
C1026 C1034 1.378 . S
C1027 C1026 1.367 . S
C1027 C1035 1.433 . S
C1028 H1024 0.929 . S
C1028 C1030 1.378 . S
C1028 C1032 1.350 . S
C1029 C1032 1.463 . S
C1029 C1034 1.350 . S
C1029 N1037 1.427 . S
C1030 H1021 0.930 . S
C1030 C1028 1.378 . S
C1030 C1031 1.367 . S
C1031 C1030 1.367 . S
C1031 C1033 1.433 . S
C1032 C1028 1.350 . S
C1032 C1029 1.463 . S
C1032 N1036 1.427 . S
C1033 H1023 0.929 . S
C1033 C1031 1.433 . S
C1033 N1036 1.384 . S
C1034 H1025 0.929 . S
C1034 C1026 1.378 . S
C1034 C1029 1.350 . S
C1035 H1022 0.929 . S
C1035 C1027 1.433 . S
C1035 N1037 1.384 . S
N1036 C1032 1.427 . S
N1036 C1033 1.384 . S
N1037 C1029 1.427 . S
N1037 C1035 1.384 . S
H1038 C1044 0.930 . S
H1039 C1048 0.930 . S
H1040 C1053 0.929 . S
H1041 C1051 0.929 . S
H1042 C1046 0.929 . S
H1043 C1052 0.929 . S
C1044 H1038 0.930 . S
C1044 C1045 1.367 . S
C1044 C1052 1.378 . S
C1045 C1044 1.367 . S
C1045 C1053 1.433 . S
C1046 H1042 0.929 . S
C1046 C1048 1.378 . S
C1046 C1050 1.350 . S
C1047 C1050 1.463 . S
C1047 C1052 1.350 . S
C1047 N1055 1.427 . S
C1048 H1039 0.930 . S
C1048 C1046 1.378 . S
C1048 C1049 1.367 . S
C1049 C1048 1.367 . S
C1049 C1051 1.433 . S
C1050 C1046 1.350 . S
C1050 C1047 1.463 . S
C1050 N1054 1.427 . S
C1051 H1041 0.929 . S
C1051 C1049 1.433 . S
C1051 N1054 1.384 . S
C1052 H1043 0.929 . S
C1052 C1044 1.378 . S
C1052 C1047 1.350 . S
C1053 H1040 0.929 . S
C1053 C1045 1.433 . S
C1053 N1055 1.384 . S
N1054 C1050 1.427 . S
N1054 C1051 1.384 . S
N1055 C1047 1.427 . S
N1055 C1053 1.384 . S
H1056 C1062 0.930 . S
H1057 C1066 0.930 . S
H1058 C1071 0.929 . S
H1059 C1069 0.929 . S
H1060 C1064 0.929 . S
H1061 C1070 0.929 . S
C1062 H1056 0.930 . S
C1062 C1063 1.367 . S
C1062 C1070 1.378 . S
C1063 C1062 1.367 . S
C1063 C1071 1.433 . S
C1064 H1060 0.929 . S
C1064 C1066 1.378 . S
C1064 C1068 1.350 . S
C1065 C1068 1.463 . S
C1065 C1070 1.350 . S
C1065 N1073 1.427 . S
C1066 H1057 0.930 . S
C1066 C1064 1.378 . S
C1066 C1067 1.367 . S
C1067 C1066 1.367 . S
C1067 C1069 1.433 . S
C1068 C1064 1.350 . S
C1068 C1065 1.463 . S
C1068 N1072 1.427 . S
C1069 H1059 0.929 . S
C1069 C1067 1.433 . S
C1069 N1072 1.384 . S
C1070 H1061 0.929 . S
C1070 C1062 1.378 . S
C1070 C1065 1.350 . S
C1071 H1058 0.929 . S
C1071 C1063 1.433 . S
C1071 N1073 1.384 . S
N1072 C1068 1.427 . S
N1072 C1069 1.384 . S
N1073 C1065 1.427 . S
N1073 C1071 1.384 . S
H1074 C1080 0.930 . S
H1075 C1084 0.930 . S
H1076 C1089 0.929 . S
H1077 C1087 0.929 . S
H1078 C1082 0.929 . S
H1079 C1088 0.929 . S
C1080 H1074 0.930 . S
C1080 C1081 1.367 . S
C1080 C1088 1.378 . S
C1081 C1080 1.367 . S
C1081 C1089 1.433 . S
C1082 H1078 0.929 . S
C1082 C1084 1.378 . S
C1082 C1086 1.350 . S
C1083 C1086 1.463 . S
C1083 C1088 1.350 . S
C1083 N1091 1.427 . S
C1084 H1075 0.930 . S
C1084 C1082 1.378 . S
C1084 C1085 1.367 . S
C1085 C1084 1.367 . S
C1085 C1087 1.433 . S
C1086 C1082 1.350 . S
C1086 C1083 1.463 . S
C1086 N1090 1.427 . S
C1087 H1077 0.929 . S
C1087 C1085 1.433 . S
C1087 N1090 1.384 . S
C1088 H1079 0.929 . S
C1088 C1080 1.378 . S
C1088 C1083 1.350 . S
C1089 H1076 0.929 . S
C1089 C1081 1.433 . S
C1089 N1091 1.384 . S
N1090 C1086 1.427 . S
N1090 C1087 1.384 . S
N1091 C1083 1.427 . S
N1091 C1089 1.384 . S
H1092 C1098 0.930 . S
H1093 C1102 0.930 . S
H1094 C1107 0.929 . S
H1095 C1105 0.929 . S
H1096 C1100 0.929 . S
H1097 C1106 0.929 . S
C1098 H1092 0.930 . S
C1098 C1099 1.367 . S
C1098 C1106 1.378 . S
C1099 C1098 1.367 . S
C1099 C1107 1.433 . S
C1100 H1096 0.929 . S
C1100 C1102 1.378 . S
C1100 C1104 1.350 . S
C1101 C1104 1.463 . S
C1101 C1106 1.350 . S
C1101 N1109 1.427 . S
C1102 H1093 0.930 . S
C1102 C1100 1.378 . S
C1102 C1103 1.367 . S
C1103 C1102 1.367 . S
C1103 C1105 1.433 . S
C1104 C1100 1.350 . S
C1104 C1101 1.463 . S
C1104 N1108 1.427 . S
C1105 H1095 0.929 . S
C1105 C1103 1.433 . S
C1105 N1108 1.384 . S
C1106 H1097 0.929 . S
C1106 C1098 1.378 . S
C1106 C1101 1.350 . S
C1107 H1094 0.929 . S
C1107 C1099 1.433 . S
C1107 N1109 1.384 . S
N1108 C1104 1.427 . S
N1108 C1105 1.384 . S
N1109 C1101 1.427 . S
N1109 C1107 1.384 . S
H1110 C1116 0.930 . S
H1111 C1120 0.930 . S
H1112 C1125 0.929 . S
H1113 C1123 0.929 . S
H1114 C1118 0.929 . S
H1115 C1124 0.929 . S
C1116 H1110 0.930 . S
C1116 C1117 1.367 . S
C1116 C1124 1.378 . S
C1117 C1116 1.367 . S
C1117 C1125 1.433 . S
C1118 H1114 0.929 . S
C1118 C1120 1.378 . S
C1118 C1122 1.350 . S
C1119 C1122 1.463 . S
C1119 C1124 1.350 . S
C1119 N1127 1.427 . S
C1120 H1111 0.930 . S
C1120 C1118 1.378 . S
C1120 C1121 1.367 . S
C1121 C1120 1.367 . S
C1121 C1123 1.433 . S
C1122 C1118 1.350 . S
C1122 C1119 1.463 . S
C1122 N1126 1.427 . S
C1123 H1113 0.929 . S
C1123 C1121 1.433 . S
C1123 N1126 1.384 . S
C1124 H1115 0.929 . S
C1124 C1116 1.378 . S
C1124 C1119 1.350 . S
C1125 H1112 0.929 . S
C1125 C1117 1.433 . S
C1125 N1127 1.384 . S
N1126 C1122 1.427 . S
N1126 C1123 1.384 . S
N1127 C1119 1.427 . S
N1127 C1125 1.384 . S
H1128 C1134 0.930 . S
H1129 C1138 0.930 . S
H1130 C1143 0.929 . S
H1131 C1141 0.929 . S
H1132 C1136 0.929 . S
H1133 C1142 0.929 . S
C1134 H1128 0.930 . S
C1134 C1135 1.367 . S
C1134 C1142 1.378 . S
C1135 C1134 1.367 . S
C1135 C1143 1.433 . S
C1136 H1132 0.929 . S
C1136 C1138 1.378 . S
C1136 C1140 1.350 . S
C1137 C1140 1.463 . S
C1137 C1142 1.350 . S
C1137 N1145 1.427 . S
C1138 H1129 0.930 . S
C1138 C1136 1.378 . S
C1138 C1139 1.367 . S
C1139 C1138 1.367 . S
C1139 C1141 1.433 . S
C1140 C1136 1.350 . S
C1140 C1137 1.463 . S
C1140 N1144 1.427 . S
C1141 H1131 0.929 . S
C1141 C1139 1.433 . S
C1141 N1144 1.384 . S
C1142 H1133 0.929 . S
C1142 C1134 1.378 . S
C1142 C1137 1.350 . S
C1143 H1130 0.929 . S
C1143 C1135 1.433 . S
C1143 N1145 1.384 . S
N1144 C1140 1.427 . S
N1144 C1141 1.384 . S
N1145 C1137 1.427 . S
N1145 C1143 1.384 . S
H1146 C1152 0.930 . S
H1147 C1156 0.930 . S
H1148 C1161 0.929 . S
H1149 C1159 0.929 . S
H1150 C1154 0.929 . S
H1151 C1160 0.929 . S
C1152 H1146 0.930 . S
C1152 C1153 1.367 . S
C1152 C1160 1.378 . S
C1153 C1152 1.367 . S
C1153 C1161 1.433 . S
C1154 H1150 0.929 . S
C1154 C1156 1.378 . S
C1154 C1158 1.350 . S
C1155 C1158 1.463 . S
C1155 C1160 1.350 . S
C1155 N1163 1.427 . S
C1156 H1147 0.930 . S
C1156 C1154 1.378 . S
C1156 C1157 1.367 . S
C1157 C1156 1.367 . S
C1157 C1159 1.433 . S
C1158 C1154 1.350 . S
C1158 C1155 1.463 . S
C1158 N1162 1.427 . S
C1159 H1149 0.929 . S
C1159 C1157 1.433 . S
C1159 N1162 1.384 . S
C1160 H1151 0.929 . S
C1160 C1152 1.378 . S
C1160 C1155 1.350 . S
C1161 H1148 0.929 . S
C1161 C1153 1.433 . S
C1161 N1163 1.384 . S
N1162 C1158 1.427 . S
N1162 C1159 1.384 . S
N1163 C1155 1.427 . S
N1163 C1161 1.384 . S
H1164 C1170 0.930 . S
H1165 C1174 0.930 . S
H1166 C1179 0.929 . S
H1167 C1177 0.929 . S
H1168 C1172 0.929 . S
H1169 C1178 0.929 . S
C1170 H1164 0.930 . S
C1170 C1171 1.367 . S
C1170 C1178 1.378 . S
C1171 C1170 1.367 . S
C1171 C1179 1.433 . S
C1172 H1168 0.929 . S
C1172 C1174 1.378 . S
C1172 C1176 1.350 . S
C1173 C1176 1.463 . S
C1173 C1178 1.350 . S
C1173 N1181 1.427 . S
C1174 H1165 0.930 . S
C1174 C1172 1.378 . S
C1174 C1175 1.367 . S
C1175 C1174 1.367 . S
C1175 C1177 1.433 . S
C1176 C1172 1.350 . S
C1176 C1173 1.463 . S
C1176 N1180 1.427 . S
C1177 H1167 0.929 . S
C1177 C1175 1.433 . S
C1177 N1180 1.384 . S
C1178 H1169 0.929 . S
C1178 C1170 1.378 . S
C1178 C1173 1.350 . S
C1179 H1166 0.929 . S
C1179 C1171 1.433 . S
C1179 N1181 1.384 . S
N1180 C1176 1.427 . S
N1180 C1177 1.384 . S
N1181 C1173 1.427 . S
N1181 C1179 1.384 . S
H1182 C1188 0.930 . S
H1183 C1192 0.930 . S
H1184 C1197 0.929 . S
H1185 C1195 0.929 . S
H1186 C1190 0.929 . S
H1187 C1196 0.929 . S
C1188 H1182 0.930 . S
C1188 C1189 1.367 . S
C1188 C1196 1.378 . S
C1189 C1188 1.367 . S
C1189 C1197 1.433 . S
C1190 H1186 0.929 . S
C1190 C1192 1.378 . S
C1190 C1194 1.350 . S
C1191 C1194 1.463 . S
C1191 C1196 1.350 . S
C1191 N1199 1.427 . S
C1192 H1183 0.930 . S
C1192 C1190 1.378 . S
C1192 C1193 1.367 . S
C1193 C1192 1.367 . S
C1193 C1195 1.433 . S
C1194 C1190 1.350 . S
C1194 C1191 1.463 . S
C1194 N1198 1.427 . S
C1195 H1185 0.929 . S
C1195 C1193 1.433 . S
C1195 N1198 1.384 . S
C1196 H1187 0.929 . S
C1196 C1188 1.378 . S
C1196 C1191 1.350 . S
C1197 H1184 0.929 . S
C1197 C1189 1.433 . S
C1197 N1199 1.384 . S
N1198 C1194 1.427 . S
N1198 C1195 1.384 . S
N1199 C1191 1.427 . S
N1199 C1197 1.384 . S
H1200 C1206 0.930 . S
H1201 C1210 0.930 . S
H1202 C1215 0.929 . S
H1203 C1213 0.929 . S
H1204 C1208 0.929 . S
H1205 C1214 0.929 . S
C1206 H1200 0.930 . S
C1206 C1207 1.367 . S
C1206 C1214 1.378 . S
C1207 C1206 1.367 . S
C1207 C1215 1.433 . S
C1208 H1204 0.929 . S
C1208 C1210 1.378 . S
C1208 C1212 1.350 . S
C1209 C1212 1.463 . S
C1209 C1214 1.350 . S
C1209 N1217 1.427 . S
C1210 H1201 0.930 . S
C1210 C1208 1.378 . S
C1210 C1211 1.367 . S
C1211 C1210 1.367 . S
C1211 C1213 1.433 . S
C1212 C1208 1.350 . S
C1212 C1209 1.463 . S
C1212 N1216 1.427 . S
C1213 H1203 0.929 . S
C1213 C1211 1.433 . S
C1213 N1216 1.384 . S
C1214 H1205 0.929 . S
C1214 C1206 1.378 . S
C1214 C1209 1.350 . S
C1215 H1202 0.929 . S
C1215 C1207 1.433 . S
C1215 N1217 1.384 . S
N1216 C1212 1.427 . S
N1216 C1213 1.384 . S
N1217 C1209 1.427 . S
N1217 C1215 1.384 . S
H1218 C1224 0.930 . S
H1219 C1228 0.930 . S
H1220 C1233 0.929 . S
H1221 C1231 0.929 . S
H1222 C1226 0.929 . S
H1223 C1232 0.929 . S
C1224 H1218 0.930 . S
C1224 C1225 1.367 . S
C1224 C1232 1.378 . S
C1225 C1224 1.367 . S
C1225 C1233 1.433 . S
C1226 H1222 0.929 . S
C1226 C1228 1.378 . S
C1226 C1230 1.350 . S
C1227 C1230 1.463 . S
C1227 C1232 1.350 . S
C1227 N1235 1.427 . S
C1228 H1219 0.930 . S
C1228 C1226 1.378 . S
C1228 C1229 1.367 . S
C1229 C1228 1.367 . S
C1229 C1231 1.433 . S
C1230 C1226 1.350 . S
C1230 C1227 1.463 . S
C1230 N1234 1.427 . S
C1231 H1221 0.929 . S
C1231 C1229 1.433 . S
C1231 N1234 1.384 . S
C1232 H1223 0.929 . S
C1232 C1224 1.378 . S
C1232 C1227 1.350 . S
C1233 H1220 0.929 . S
C1233 C1225 1.433 . S
C1233 N1235 1.384 . S
N1234 C1230 1.427 . S
N1234 C1231 1.384 . S
N1235 C1227 1.427 . S
N1235 C1233 1.384 . S
H1236 C1242 0.930 . S
H1237 C1246 0.930 . S
H1238 C1251 0.929 . S
H1239 C1249 0.929 . S
H1240 C1244 0.929 . S
H1241 C1250 0.929 . S
C1242 H1236 0.930 . S
C1242 C1243 1.367 . S
C1242 C1250 1.378 . S
C1243 C1242 1.367 . S
C1243 C1251 1.433 . S
C1244 H1240 0.929 . S
C1244 C1246 1.378 . S
C1244 C1248 1.350 . S
C1245 C1248 1.463 . S
C1245 C1250 1.350 . S
C1245 N1253 1.427 . S
C1246 H1237 0.930 . S
C1246 C1244 1.378 . S
C1246 C1247 1.367 . S
C1247 C1246 1.367 . S
C1247 C1249 1.433 . S
C1248 C1244 1.350 . S
C1248 C1245 1.463 . S
C1248 N1252 1.427 . S
C1249 H1239 0.929 . S
C1249 C1247 1.433 . S
C1249 N1252 1.384 . S
C1250 H1241 0.929 . S
C1250 C1242 1.378 . S
C1250 C1245 1.350 . S
C1251 H1238 0.929 . S
C1251 C1243 1.433 . S
C1251 N1253 1.384 . S
N1252 C1248 1.427 . S
N1252 C1249 1.384 . S
N1253 C1245 1.427 . S
N1253 C1251 1.384 . S
H1254 C1260 0.930 . S
H1255 C1264 0.930 . S
H1256 C1269 0.929 . S
H1257 C1267 0.929 . S
H1258 C1262 0.929 . S
H1259 C1268 0.929 . S
C1260 H1254 0.930 . S
C1260 C1261 1.367 . S
C1260 C1268 1.378 . S
C1261 C1260 1.367 . S
C1261 C1269 1.433 . S
C1262 H1258 0.929 . S
C1262 C1264 1.378 . S
C1262 C1266 1.350 . S
C1263 C1266 1.463 . S
C1263 C1268 1.350 . S
C1263 N1271 1.427 . S
C1264 H1255 0.930 . S
C1264 C1262 1.378 . S
C1264 C1265 1.367 . S
C1265 C1264 1.367 . S
C1265 C1267 1.433 . S
C1266 C1262 1.350 . S
C1266 C1263 1.463 . S
C1266 N1270 1.427 . S
C1267 H1257 0.929 . S
C1267 C1265 1.433 . S
C1267 N1270 1.384 . S
C1268 H1259 0.929 . S
C1268 C1260 1.378 . S
C1268 C1263 1.350 . S
C1269 H1256 0.929 . S
C1269 C1261 1.433 . S
C1269 N1271 1.384 . S
N1270 C1266 1.427 . S
N1270 C1267 1.384 . S
N1271 C1263 1.427 . S
N1271 C1269 1.384 . S
H1272 C1278 0.930 . S
H1273 C1282 0.930 . S
H1274 C1287 0.929 . S
H1275 C1285 0.929 . S
H1276 C1280 0.929 . S
H1277 C1286 0.929 . S
C1278 H1272 0.930 . S
C1278 C1279 1.367 . S
C1278 C1286 1.378 . S
C1279 C1278 1.367 . S
C1279 C1287 1.433 . S
C1280 H1276 0.929 . S
C1280 C1282 1.378 . S
C1280 C1284 1.350 . S
C1281 C1284 1.463 . S
C1281 C1286 1.350 . S
C1281 N1289 1.427 . S
C1282 H1273 0.930 . S
C1282 C1280 1.378 . S
C1282 C1283 1.367 . S
C1283 C1282 1.367 . S
C1283 C1285 1.433 . S
C1284 C1280 1.350 . S
C1284 C1281 1.463 . S
C1284 N1288 1.427 . S
C1285 H1275 0.929 . S
C1285 C1283 1.433 . S
C1285 N1288 1.384 . S
C1286 H1277 0.929 . S
C1286 C1278 1.378 . S
C1286 C1281 1.350 . S
C1287 H1274 0.929 . S
C1287 C1279 1.433 . S
C1287 N1289 1.384 . S
N1288 C1284 1.427 . S
N1288 C1285 1.384 . S
N1289 C1281 1.427 . S
N1289 C1287 1.384 . S
H1290 C1296 0.930 . S
H1291 C1300 0.930 . S
H1292 C1305 0.929 . S
H1293 C1303 0.929 . S
H1294 C1298 0.929 . S
H1295 C1304 0.929 . S
C1296 H1290 0.930 . S
C1296 C1297 1.367 . S
C1296 C1304 1.378 . S
C1297 C1296 1.367 . S
C1297 C1305 1.433 . S
C1298 H1294 0.929 . S
C1298 C1300 1.378 . S
C1298 C1302 1.350 . S
C1299 C1302 1.463 . S
C1299 C1304 1.350 . S
C1299 N1307 1.427 . S
C1300 H1291 0.930 . S
C1300 C1298 1.378 . S
C1300 C1301 1.367 . S
C1301 C1300 1.367 . S
C1301 C1303 1.433 . S
C1302 C1298 1.350 . S
C1302 C1299 1.463 . S
C1302 N1306 1.427 . S
C1303 H1293 0.929 . S
C1303 C1301 1.433 . S
C1303 N1306 1.384 . S
C1304 H1295 0.929 . S
C1304 C1296 1.378 . S
C1304 C1299 1.350 . S
C1305 H1292 0.929 . S
C1305 C1297 1.433 . S
C1305 N1307 1.384 . S
N1306 C1302 1.427 . S
N1306 C1303 1.384 . S
N1307 C1299 1.427 . S
N1307 C1305 1.384 . S
H1308 C1314 0.930 . S
H1309 C1318 0.930 . S
H1310 C1323 0.929 . S
H1311 C1321 0.929 . S
H1312 C1316 0.929 . S
H1313 C1322 0.929 . S
C1314 H1308 0.930 . S
C1314 C1315 1.367 . S
C1314 C1322 1.378 . S
C1315 C1314 1.367 . S
C1315 C1323 1.433 . S
C1316 H1312 0.929 . S
C1316 C1318 1.378 . S
C1316 C1320 1.350 . S
C1317 C1320 1.463 . S
C1317 C1322 1.350 . S
C1317 N1325 1.427 . S
C1318 H1309 0.930 . S
C1318 C1316 1.378 . S
C1318 C1319 1.367 . S
C1319 C1318 1.367 . S
C1319 C1321 1.433 . S
C1320 C1316 1.350 . S
C1320 C1317 1.463 . S
C1320 N1324 1.427 . S
C1321 H1311 0.929 . S
C1321 C1319 1.433 . S
C1321 N1324 1.384 . S
C1322 H1313 0.929 . S
C1322 C1314 1.378 . S
C1322 C1317 1.350 . S
C1323 H1310 0.929 . S
C1323 C1315 1.433 . S
C1323 N1325 1.384 . S
N1324 C1320 1.427 . S
N1324 C1321 1.384 . S
N1325 C1317 1.427 . S
N1325 C1323 1.384 . S
H1326 C1332 0.930 . S
H1327 C1336 0.930 . S
H1328 C1341 0.929 . S
H1329 C1339 0.929 . S
H1330 C1334 0.929 . S
H1331 C1340 0.929 . S
C1332 H1326 0.930 . S
C1332 C1333 1.367 . S
C1332 C1340 1.378 . S
C1333 C1332 1.367 . S
C1333 C1341 1.433 . S
C1334 H1330 0.929 . S
C1334 C1336 1.378 . S
C1334 C1338 1.350 . S
C1335 C1338 1.463 . S
C1335 C1340 1.350 . S
C1335 N1343 1.427 . S
C1336 H1327 0.930 . S
C1336 C1334 1.378 . S
C1336 C1337 1.367 . S
C1337 C1336 1.367 . S
C1337 C1339 1.433 . S
C1338 C1334 1.350 . S
C1338 C1335 1.463 . S
C1338 N1342 1.427 . S
C1339 H1329 0.929 . S
C1339 C1337 1.433 . S
C1339 N1342 1.384 . S
C1340 H1331 0.929 . S
C1340 C1332 1.378 . S
C1340 C1335 1.350 . S
C1341 H1328 0.929 . S
C1341 C1333 1.433 . S
C1341 N1343 1.384 . S
N1342 C1338 1.427 . S
N1342 C1339 1.384 . S
N1343 C1335 1.427 . S
N1343 C1341 1.384 . S
H1344 C1350 0.930 . S
H1345 C1354 0.930 . S
H1346 C1359 0.929 . S
H1347 C1357 0.929 . S
H1348 C1352 0.929 . S
H1349 C1358 0.929 . S
C1350 H1344 0.930 . S
C1350 C1351 1.367 . S
C1350 C1358 1.378 . S
C1351 C1350 1.367 . S
C1351 C1359 1.433 . S
C1352 H1348 0.929 . S
C1352 C1354 1.378 . S
C1352 C1356 1.350 . S
C1353 C1356 1.463 . S
C1353 C1358 1.350 . S
C1353 N1361 1.427 . S
C1354 H1345 0.930 . S
C1354 C1352 1.378 . S
C1354 C1355 1.367 . S
C1355 C1354 1.367 . S
C1355 C1357 1.433 . S
C1356 C1352 1.350 . S
C1356 C1353 1.463 . S
C1356 N1360 1.427 . S
C1357 H1347 0.929 . S
C1357 C1355 1.433 . S
C1357 N1360 1.384 . S
C1358 H1349 0.929 . S
C1358 C1350 1.378 . S
C1358 C1353 1.350 . S
C1359 H1346 0.929 . S
C1359 C1351 1.433 . S
C1359 N1361 1.384 . S
N1360 C1356 1.427 . S
N1360 C1357 1.384 . S
N1361 C1353 1.427 . S
N1361 C1359 1.384 . S
H1362 C1368 0.930 . S
H1363 C1372 0.930 . S
H1364 C1377 0.929 . S
H1365 C1375 0.929 . S
H1366 C1370 0.929 . S
H1367 C1376 0.929 . S
C1368 H1362 0.930 . S
C1368 C1369 1.367 . S
C1368 C1376 1.378 . S
C1369 C1368 1.367 . S
C1369 C1377 1.433 . S
C1370 H1366 0.929 . S
C1370 C1372 1.378 . S
C1370 C1374 1.350 . S
C1371 C1374 1.463 . S
C1371 C1376 1.350 . S
C1371 N1379 1.427 . S
C1372 H1363 0.930 . S
C1372 C1370 1.378 . S
C1372 C1373 1.367 . S
C1373 C1372 1.367 . S
C1373 C1375 1.433 . S
C1374 C1370 1.350 . S
C1374 C1371 1.463 . S
C1374 N1378 1.427 . S
C1375 H1365 0.929 . S
C1375 C1373 1.433 . S
C1375 N1378 1.384 . S
C1376 H1367 0.929 . S
C1376 C1368 1.378 . S
C1376 C1371 1.350 . S
C1377 H1364 0.929 . S
C1377 C1369 1.433 . S
C1377 N1379 1.384 . S
N1378 C1374 1.427 . S
N1378 C1375 1.384 . S
N1379 C1371 1.427 . S
N1379 C1377 1.384 . S
H1380 C1386 0.930 . S
H1381 C1390 0.930 . S
H1382 C1395 0.929 . S
H1383 C1393 0.929 . S
H1384 C1388 0.929 . S
H1385 C1394 0.929 . S
C1386 H1380 0.930 . S
C1386 C1387 1.367 . S
C1386 C1394 1.378 . S
C1387 C1386 1.367 . S
C1387 C1395 1.433 . S
C1388 H1384 0.929 . S
C1388 C1390 1.378 . S
C1388 C1392 1.350 . S
C1389 C1392 1.463 . S
C1389 C1394 1.350 . S
C1389 N1397 1.427 . S
C1390 H1381 0.930 . S
C1390 C1388 1.378 . S
C1390 C1391 1.367 . S
C1391 C1390 1.367 . S
C1391 C1393 1.433 . S
C1392 C1388 1.350 . S
C1392 C1389 1.463 . S
C1392 N1396 1.427 . S
C1393 H1383 0.929 . S
C1393 C1391 1.433 . S
C1393 N1396 1.384 . S
C1394 H1385 0.929 . S
C1394 C1386 1.378 . S
C1394 C1389 1.350 . S
C1395 H1382 0.929 . S
C1395 C1387 1.433 . S
C1395 N1397 1.384 . S
N1396 C1392 1.427 . S
N1396 C1393 1.384 . S
N1397 C1389 1.427 . S
N1397 C1395 1.384 . S
H1398 C1404 0.930 . S
H1399 C1408 0.930 . S
H1400 C1413 0.929 . S
H1401 C1411 0.929 . S
H1402 C1406 0.929 . S
H1403 C1412 0.929 . S
C1404 H1398 0.930 . S
C1404 C1405 1.367 . S
C1404 C1412 1.378 . S
C1405 C1404 1.367 . S
C1405 C1413 1.433 . S
C1406 H1402 0.929 . S
C1406 C1408 1.378 . S
C1406 C1410 1.350 . S
C1407 C1410 1.463 . S
C1407 C1412 1.350 . S
C1407 N1415 1.427 . S
C1408 H1399 0.930 . S
C1408 C1406 1.378 . S
C1408 C1409 1.367 . S
C1409 C1408 1.367 . S
C1409 C1411 1.433 . S
C1410 C1406 1.350 . S
C1410 C1407 1.463 . S
C1410 N1414 1.427 . S
C1411 H1401 0.929 . S
C1411 C1409 1.433 . S
C1411 N1414 1.384 . S
C1412 H1403 0.929 . S
C1412 C1404 1.378 . S
C1412 C1407 1.350 . S
C1413 H1400 0.929 . S
C1413 C1405 1.433 . S
C1413 N1415 1.384 . S
N1414 C1410 1.427 . S
N1414 C1411 1.384 . S
N1415 C1407 1.427 . S
N1415 C1413 1.384 . S
H1416 C1422 0.930 . S
H1417 C1426 0.930 . S
H1418 C1431 0.929 . S
H1419 C1429 0.929 . S
H1420 C1424 0.929 . S
H1421 C1430 0.929 . S
C1422 H1416 0.930 . S
C1422 C1423 1.367 . S
C1422 C1430 1.378 . S
C1423 C1422 1.367 . S
C1423 C1431 1.433 . S
C1424 H1420 0.929 . S
C1424 C1426 1.378 . S
C1424 C1428 1.350 . S
C1425 C1428 1.463 . S
C1425 C1430 1.350 . S
C1425 N1433 1.427 . S
C1426 H1417 0.930 . S
C1426 C1424 1.378 . S
C1426 C1427 1.367 . S
C1427 C1426 1.367 . S
C1427 C1429 1.433 . S
C1428 C1424 1.350 . S
C1428 C1425 1.463 . S
C1428 N1432 1.427 . S
C1429 H1419 0.929 . S
C1429 C1427 1.433 . S
C1429 N1432 1.384 . S
C1430 H1421 0.929 . S
C1430 C1422 1.378 . S
C1430 C1425 1.350 . S
C1431 H1418 0.929 . S
C1431 C1423 1.433 . S
C1431 N1433 1.384 . S
N1432 C1428 1.427 . S
N1432 C1429 1.384 . S
N1433 C1425 1.427 . S
N1433 C1431 1.384 . S
H1434 C1440 0.930 . S
H1435 C1444 0.930 . S
H1436 C1449 0.929 . S
H1437 C1447 0.929 . S
H1438 C1442 0.929 . S
H1439 C1448 0.929 . S
C1440 H1434 0.930 . S
C1440 C1441 1.367 . S
C1440 C1448 1.378 . S
C1441 C1440 1.367 . S
C1441 C1449 1.433 . S
C1442 H1438 0.929 . S
C1442 C1444 1.378 . S
C1442 C1446 1.350 . S
C1443 C1446 1.463 . S
C1443 C1448 1.350 . S
C1443 N1451 1.427 . S
C1444 H1435 0.930 . S
C1444 C1442 1.378 . S
C1444 C1445 1.367 . S
C1445 C1444 1.367 . S
C1445 C1447 1.433 . S
C1446 C1442 1.350 . S
C1446 C1443 1.463 . S
C1446 N1450 1.427 . S
C1447 H1437 0.929 . S
C1447 C1445 1.433 . S
C1447 N1450 1.384 . S
C1448 H1439 0.929 . S
C1448 C1440 1.378 . S
C1448 C1443 1.350 . S
C1449 H1436 0.929 . S
C1449 C1441 1.433 . S
C1449 N1451 1.384 . S
N1450 C1446 1.427 . S
N1450 C1447 1.384 . S
N1451 C1443 1.427 . S
N1451 C1449 1.384 . S
H1452 C1458 0.930 . S
H1453 C1462 0.930 . S
H1454 C1467 0.929 . S
H1455 C1465 0.929 . S
H1456 C1460 0.929 . S
H1457 C1466 0.929 . S
C1458 H1452 0.930 . S
C1458 C1459 1.367 . S
C1458 C1466 1.378 . S
C1459 C1458 1.367 . S
C1459 C1467 1.433 . S
C1460 H1456 0.929 . S
C1460 C1462 1.378 . S
C1460 C1464 1.350 . S
C1461 C1464 1.463 . S
C1461 C1466 1.350 . S
C1461 N1469 1.427 . S
C1462 H1453 0.930 . S
C1462 C1460 1.378 . S
C1462 C1463 1.367 . S
C1463 C1462 1.367 . S
C1463 C1465 1.433 . S
C1464 C1460 1.350 . S
C1464 C1461 1.463 . S
C1464 N1468 1.427 . S
C1465 H1455 0.929 . S
C1465 C1463 1.433 . S
C1465 N1468 1.384 . S
C1466 H1457 0.929 . S
C1466 C1458 1.378 . S
C1466 C1461 1.350 . S
C1467 H1454 0.929 . S
C1467 C1459 1.433 . S
C1467 N1469 1.384 . S
N1468 C1464 1.427 . S
N1468 C1465 1.384 . S
N1469 C1461 1.427 . S
N1469 C1467 1.384 . S
H1470 C1476 0.930 . S
H1471 C1480 0.930 . S
H1472 C1485 0.929 . S
H1473 C1483 0.929 . S
H1474 C1478 0.929 . S
H1475 C1484 0.929 . S
C1476 H1470 0.930 . S
C1476 C1477 1.367 . S
C1476 C1484 1.378 . S
C1477 C1476 1.367 . S
C1477 C1485 1.433 . S
C1478 H1474 0.929 . S
C1478 C1480 1.378 . S
C1478 C1482 1.350 . S
C1479 C1482 1.463 . S
C1479 C1484 1.350 . S
C1479 N1487 1.427 . S
C1480 H1471 0.930 . S
C1480 C1478 1.378 . S
C1480 C1481 1.367 . S
C1481 C1480 1.367 . S
C1481 C1483 1.433 . S
C1482 C1478 1.350 . S
C1482 C1479 1.463 . S
C1482 N1486 1.427 . S
C1483 H1473 0.929 . S
C1483 C1481 1.433 . S
C1483 N1486 1.384 . S
C1484 H1475 0.929 . S
C1484 C1476 1.378 . S
C1484 C1479 1.350 . S
C1485 H1472 0.929 . S
C1485 C1477 1.433 . S
C1485 N1487 1.384 . S
N1486 C1482 1.427 . S
N1486 C1483 1.384 . S
N1487 C1479 1.427 . S
N1487 C1485 1.384 . S
H1488 C1494 0.930 . S
H1489 C1498 0.930 . S
H1490 C1503 0.929 . S
H1491 C1501 0.929 . S
H1492 C1496 0.929 . S
H1493 C1502 0.929 . S
C1494 H1488 0.930 . S
C1494 C1495 1.367 . S
C1494 C1502 1.378 . S
C1495 C1494 1.367 . S
C1495 C1503 1.433 . S
C1496 H1492 0.929 . S
C1496 C1498 1.378 . S
C1496 C1500 1.350 . S
C1497 C1500 1.463 . S
C1497 C1502 1.350 . S
C1497 N1505 1.427 . S
C1498 H1489 0.930 . S
C1498 C1496 1.378 . S
C1498 C1499 1.367 . S
C1499 C1498 1.367 . S
C1499 C1501 1.433 . S
C1500 C1496 1.350 . S
C1500 C1497 1.463 . S
C1500 N1504 1.427 . S
C1501 H1491 0.929 . S
C1501 C1499 1.433 . S
C1501 N1504 1.384 . S
C1502 H1493 0.929 . S
C1502 C1494 1.378 . S
C1502 C1497 1.350 . S
C1503 H1490 0.929 . S
C1503 C1495 1.433 . S
C1503 N1505 1.384 . S
N1504 C1500 1.427 . S
N1504 C1501 1.384 . S
N1505 C1497 1.427 . S
N1505 C1503 1.384 . S
H1506 C1512 0.930 . S
H1507 C1516 0.930 . S
H1508 C1521 0.929 . S
H1509 C1519 0.929 . S
H1510 C1514 0.929 . S
H1511 C1520 0.929 . S
C1512 H1506 0.930 . S
C1512 C1513 1.367 . S
C1512 C1520 1.378 . S
C1513 C1512 1.367 . S
C1513 C1521 1.433 . S
C1514 H1510 0.929 . S
C1514 C1516 1.378 . S
C1514 C1518 1.350 . S
C1515 C1518 1.463 . S
C1515 C1520 1.350 . S
C1515 N1523 1.427 . S
C1516 H1507 0.930 . S
C1516 C1514 1.378 . S
C1516 C1517 1.367 . S
C1517 C1516 1.367 . S
C1517 C1519 1.433 . S
C1518 C1514 1.350 . S
C1518 C1515 1.463 . S
C1518 N1522 1.427 . S
C1519 H1509 0.929 . S
C1519 C1517 1.433 . S
C1519 N1522 1.384 . S
C1520 H1511 0.929 . S
C1520 C1512 1.378 . S
C1520 C1515 1.350 . S
C1521 H1508 0.929 . S
C1521 C1513 1.433 . S
C1521 N1523 1.384 . S
N1522 C1518 1.427 . S
N1522 C1519 1.384 . S
N1523 C1515 1.427 . S
N1523 C1521 1.384 . S
H1524 C1530 0.930 . S
H1525 C1534 0.930 . S
H1526 C1539 0.929 . S
H1527 C1537 0.929 . S
H1528 C1532 0.929 . S
H1529 C1538 0.929 . S
C1530 H1524 0.930 . S
C1530 C1531 1.367 . S
C1530 C1538 1.378 . S
C1531 C1530 1.367 . S
C1531 C1539 1.433 . S
C1532 H1528 0.929 . S
C1532 C1534 1.378 . S
C1532 C1536 1.350 . S
C1533 C1536 1.463 . S
C1533 C1538 1.350 . S
C1533 N1541 1.427 . S
C1534 H1525 0.930 . S
C1534 C1532 1.378 . S
C1534 C1535 1.367 . S
C1535 C1534 1.367 . S
C1535 C1537 1.433 . S
C1536 C1532 1.350 . S
C1536 C1533 1.463 . S
C1536 N1540 1.427 . S
C1537 H1527 0.929 . S
C1537 C1535 1.433 . S
C1537 N1540 1.384 . S
C1538 H1529 0.929 . S
C1538 C1530 1.378 . S
C1538 C1533 1.350 . S
C1539 H1526 0.929 . S
C1539 C1531 1.433 . S
C1539 N1541 1.384 . S
N1540 C1536 1.427 . S
N1540 C1537 1.384 . S
N1541 C1533 1.427 . S
N1541 C1539 1.384 . S
H1542 C1548 0.930 . S
H1543 C1552 0.930 . S
H1544 C1557 0.929 . S
H1545 C1555 0.929 . S
H1546 C1550 0.929 . S
H1547 C1556 0.929 . S
C1548 H1542 0.930 . S
C1548 C1549 1.367 . S
C1548 C1556 1.378 . S
C1549 C1548 1.367 . S
C1549 C1557 1.433 . S
C1550 H1546 0.929 . S
C1550 C1552 1.378 . S
C1550 C1554 1.350 . S
C1551 C1554 1.463 . S
C1551 C1556 1.350 . S
C1551 N1559 1.427 . S
C1552 H1543 0.930 . S
C1552 C1550 1.378 . S
C1552 C1553 1.367 . S
C1553 C1552 1.367 . S
C1553 C1555 1.433 . S
C1554 C1550 1.350 . S
C1554 C1551 1.463 . S
C1554 N1558 1.427 . S
C1555 H1545 0.929 . S
C1555 C1553 1.433 . S
C1555 N1558 1.384 . S
C1556 H1547 0.929 . S
C1556 C1548 1.378 . S
C1556 C1551 1.350 . S
C1557 H1544 0.929 . S
C1557 C1549 1.433 . S
C1557 N1559 1.384 . S
N1558 C1554 1.427 . S
N1558 C1555 1.384 . S
N1559 C1551 1.427 . S
N1559 C1557 1.384 . S
H1560 C1566 0.930 . S
H1561 C1570 0.930 . S
H1562 C1575 0.929 . S
H1563 C1573 0.929 . S
H1564 C1568 0.929 . S
H1565 C1574 0.929 . S
C1566 H1560 0.930 . S
C1566 C1567 1.367 . S
C1566 C1574 1.378 . S
C1567 C1566 1.367 . S
C1567 C1575 1.433 . S
C1568 H1564 0.929 . S
C1568 C1570 1.378 . S
C1568 C1572 1.350 . S
C1569 C1572 1.463 . S
C1569 C1574 1.350 . S
C1569 N1577 1.427 . S
C1570 H1561 0.930 . S
C1570 C1568 1.378 . S
C1570 C1571 1.367 . S
C1571 C1570 1.367 . S
C1571 C1573 1.433 . S
C1572 C1568 1.350 . S
C1572 C1569 1.463 . S
C1572 N1576 1.427 . S
C1573 H1563 0.929 . S
C1573 C1571 1.433 . S
C1573 N1576 1.384 . S
C1574 H1565 0.929 . S
C1574 C1566 1.378 . S
C1574 C1569 1.350 . S
C1575 H1562 0.929 . S
C1575 C1567 1.433 . S
C1575 N1577 1.384 . S
N1576 C1572 1.427 . S
N1576 C1573 1.384 . S
N1577 C1569 1.427 . S
N1577 C1575 1.384 . S
H1578 C1584 0.930 . S
H1579 C1588 0.930 . S
H1580 C1593 0.929 . S
H1581 C1591 0.929 . S
H1582 C1586 0.929 . S
H1583 C1592 0.929 . S
C1584 H1578 0.930 . S
C1584 C1585 1.367 . S
C1584 C1592 1.378 . S
C1585 C1584 1.367 . S
C1585 C1593 1.433 . S
C1586 H1582 0.929 . S
C1586 C1588 1.378 . S
C1586 C1590 1.350 . S
C1587 C1590 1.463 . S
C1587 C1592 1.350 . S
C1587 N1595 1.427 . S
C1588 H1579 0.930 . S
C1588 C1586 1.378 . S
C1588 C1589 1.367 . S
C1589 C1588 1.367 . S
C1589 C1591 1.433 . S
C1590 C1586 1.350 . S
C1590 C1587 1.463 . S
C1590 N1594 1.427 . S
C1591 H1581 0.929 . S
C1591 C1589 1.433 . S
C1591 N1594 1.384 . S
C1592 H1583 0.929 . S
C1592 C1584 1.378 . S
C1592 C1587 1.350 . S
C1593 H1580 0.929 . S
C1593 C1585 1.433 . S
C1593 N1595 1.384 . S
N1594 C1590 1.427 . S
N1594 C1591 1.384 . S
N1595 C1587 1.427 . S
N1595 C1593 1.384 . S
H1596 C1602 0.930 . S
H1597 C1606 0.930 . S
H1598 C1611 0.929 . S
H1599 C1609 0.929 . S
H1600 C1604 0.929 . S
H1601 C1610 0.929 . S
C1602 H1596 0.930 . S
C1602 C1603 1.367 . S
C1602 C1610 1.378 . S
C1603 C1602 1.367 . S
C1603 C1611 1.433 . S
C1604 H1600 0.929 . S
C1604 C1606 1.378 . S
C1604 C1608 1.350 . S
C1605 C1608 1.463 . S
C1605 C1610 1.350 . S
C1605 N1613 1.427 . S
C1606 H1597 0.930 . S
C1606 C1604 1.378 . S
C1606 C1607 1.367 . S
C1607 C1606 1.367 . S
C1607 C1609 1.433 . S
C1608 C1604 1.350 . S
C1608 C1605 1.463 . S
C1608 N1612 1.427 . S
C1609 H1599 0.929 . S
C1609 C1607 1.433 . S
C1609 N1612 1.384 . S
C1610 H1601 0.929 . S
C1610 C1602 1.378 . S
C1610 C1605 1.350 . S
C1611 H1598 0.929 . S
C1611 C1603 1.433 . S
C1611 N1613 1.384 . S
N1612 C1608 1.427 . S
N1612 C1609 1.384 . S
N1613 C1605 1.427 . S
N1613 C1611 1.384 . S
H1614 C1620 0.930 . S
H1615 C1624 0.930 . S
H1616 C1629 0.929 . S
H1617 C1627 0.929 . S
H1618 C1622 0.929 . S
H1619 C1628 0.929 . S
C1620 H1614 0.930 . S
C1620 C1621 1.367 . S
C1620 C1628 1.378 . S
C1621 C1620 1.367 . S
C1621 C1629 1.433 . S
C1622 H1618 0.929 . S
C1622 C1624 1.378 . S
C1622 C1626 1.350 . S
C1623 C1626 1.463 . S
C1623 C1628 1.350 . S
C1623 N1631 1.427 . S
C1624 H1615 0.930 . S
C1624 C1622 1.378 . S
C1624 C1625 1.367 . S
C1625 C1624 1.367 . S
C1625 C1627 1.433 . S
C1626 C1622 1.350 . S
C1626 C1623 1.463 . S
C1626 N1630 1.427 . S
C1627 H1617 0.929 . S
C1627 C1625 1.433 . S
C1627 N1630 1.384 . S
C1628 H1619 0.929 . S
C1628 C1620 1.378 . S
C1628 C1623 1.350 . S
C1629 H1616 0.929 . S
C1629 C1621 1.433 . S
C1629 N1631 1.384 . S
N1630 C1626 1.427 . S
N1630 C1627 1.384 . S
N1631 C1623 1.427 . S
N1631 C1629 1.384 . S
H1632 C1638 0.930 . S
H1633 C1642 0.930 . S
H1634 C1647 0.929 . S
H1635 C1645 0.929 . S
H1636 C1640 0.929 . S
H1637 C1646 0.929 . S
C1638 H1632 0.930 . S
C1638 C1639 1.367 . S
C1638 C1646 1.378 . S
C1639 C1638 1.367 . S
C1639 C1647 1.433 . S
C1640 H1636 0.929 . S
C1640 C1642 1.378 . S
C1640 C1644 1.350 . S
C1641 C1644 1.463 1_556 S
C1641 C1646 1.350 . S
C1641 N1649 1.427 . S
C1642 H1633 0.930 . S
C1642 C1640 1.378 . S
C1642 C1643 1.367 . S
C1643 C1642 1.367 . S
C1643 C1645 1.433 . S
C1644 C1640 1.350 . S
C1644 C1641 1.463 1_554 S
C1644 N1648 1.427 . S
C1645 H1635 0.929 . S
C1645 C1643 1.433 . S
C1645 N1648 1.384 . S
C1646 H1637 0.929 . S
C1646 C1638 1.378 . S
C1646 C1641 1.350 . S
C1647 H1634 0.929 . S
C1647 C1639 1.433 . S
C1647 N1649 1.384 . S
N1648 C1644 1.427 . S
N1648 C1645 1.384 . S
N1649 C1641 1.427 . S
N1649 C1647 1.384 . S
H1650 C1656 0.930 . S
H1651 C1660 0.930 . S
H1652 C1665 0.929 . S
H1653 C1663 0.929 . S
H1654 C1658 0.929 . S
H1655 C1664 0.929 . S
C1656 H1650 0.930 . S
C1656 C1657 1.367 . S
C1656 C1664 1.378 . S
C1657 C1656 1.367 . S
C1657 C1665 1.433 . S
C1658 H1654 0.929 . S
C1658 C1660 1.378 . S
C1658 C1662 1.350 . S
C1659 C1662 1.463 1_556 S
C1659 C1664 1.350 . S
C1659 N1667 1.427 . S
C1660 H1651 0.930 . S
C1660 C1658 1.378 . S
C1660 C1661 1.367 . S
C1661 C1660 1.367 . S
C1661 C1663 1.433 . S
C1662 C1658 1.350 . S
C1662 C1659 1.463 1_554 S
C1662 N1666 1.427 . S
C1663 H1653 0.929 . S
C1663 C1661 1.433 . S
C1663 N1666 1.384 . S
C1664 H1655 0.929 . S
C1664 C1656 1.378 . S
C1664 C1659 1.350 . S
C1665 H1652 0.929 . S
C1665 C1657 1.433 . S
C1665 N1667 1.384 . S
N1666 C1662 1.427 . S
N1666 C1663 1.384 . S
N1667 C1659 1.427 . S
N1667 C1665 1.384 . S
H1668 C1674 0.930 . S
H1669 C1678 0.930 . S
H1670 C1683 0.929 . S
H1671 C1681 0.929 . S
H1672 C1676 0.929 . S
H1673 C1682 0.929 . S
C1674 H1668 0.930 . S
C1674 C1675 1.367 . S
C1674 C1682 1.378 . S
C1675 C1674 1.367 . S
C1675 C1683 1.433 . S
C1676 H1672 0.929 . S
C1676 C1678 1.378 . S
C1676 C1680 1.350 . S
C1677 C1680 1.463 1_554 S
C1677 C1682 1.350 . S
C1677 N1685 1.427 . S
C1678 H1669 0.930 . S
C1678 C1676 1.378 . S
C1678 C1679 1.367 . S
C1679 C1678 1.367 . S
C1679 C1681 1.433 . S
C1680 C1676 1.350 . S
C1680 C1677 1.463 1_556 S
C1680 N1684 1.427 . S
C1681 H1671 0.929 . S
C1681 C1679 1.433 . S
C1681 N1684 1.384 . S
C1682 H1673 0.929 . S
C1682 C1674 1.378 . S
C1682 C1677 1.350 . S
C1683 H1670 0.929 . S
C1683 C1675 1.433 . S
C1683 N1685 1.384 . S
N1684 C1680 1.427 . S
N1684 C1681 1.384 . S
N1685 C1677 1.427 . S
N1685 C1683 1.384 . S
H1686 C1692 0.930 . S
H1687 C1696 0.930 . S
H1688 C1701 0.929 . S
H1689 C1699 0.929 . S
H1690 C1694 0.929 . S
H1691 C1700 0.929 . S
C1692 H1686 0.930 . S
C1692 C1693 1.367 . S
C1692 C1700 1.378 . S
C1693 C1692 1.367 . S
C1693 C1701 1.433 . S
C1694 H1690 0.929 . S
C1694 C1696 1.378 . S
C1694 C1698 1.350 . S
C1695 C1698 1.463 1_556 S
C1695 C1700 1.350 . S
C1695 N1703 1.427 . S
C1696 H1687 0.930 . S
C1696 C1694 1.378 . S
C1696 C1697 1.367 . S
C1697 C1696 1.367 . S
C1697 C1699 1.433 . S
C1698 C1694 1.350 . S
C1698 C1695 1.463 1_554 S
C1698 N1702 1.427 . S
C1699 H1689 0.929 . S
C1699 C1697 1.433 . S
C1699 N1702 1.384 . S
C1700 H1691 0.929 . S
C1700 C1692 1.378 . S
C1700 C1695 1.350 . S
C1701 H1688 0.929 . S
C1701 C1693 1.433 . S
C1701 N1703 1.384 . S
N1702 C1698 1.427 . S
N1702 C1699 1.384 . S
N1703 C1695 1.427 . S
N1703 C1701 1.384 . S
H1704 C1710 0.930 . S
H1705 C1714 0.930 . S
H1706 C1719 0.929 . S
H1707 C1717 0.929 . S
H1708 C1712 0.929 . S
H1709 C1718 0.929 . S
C1710 H1704 0.930 . S
C1710 C1711 1.367 . S
C1710 C1718 1.378 . S
C1711 C1710 1.367 . S
C1711 C1719 1.433 . S
C1712 H1708 0.929 . S
C1712 C1714 1.378 . S
C1712 C1716 1.350 . S
C1713 C1716 1.463 1_556 S
C1713 C1718 1.350 . S
C1713 N1721 1.427 . S
C1714 H1705 0.930 . S
C1714 C1712 1.378 . S
C1714 C1715 1.367 . S
C1715 C1714 1.367 . S
C1715 C1717 1.433 . S
C1716 C1712 1.350 . S
C1716 C1713 1.463 1_554 S
C1716 N1720 1.427 . S
C1717 H1707 0.929 . S
C1717 C1715 1.433 . S
C1717 N1720 1.384 . S
C1718 H1709 0.929 . S
C1718 C1710 1.378 . S
C1718 C1713 1.350 . S
C1719 H1706 0.929 . S
C1719 C1711 1.433 . S
C1719 N1721 1.384 . S
N1720 C1716 1.427 . S
N1720 C1717 1.384 . S
N1721 C1713 1.427 . S
N1721 C1719 1.384 . S
H1722 C1728 0.930 . S
H1723 C1732 0.930 . S
H1724 C1737 0.929 . S
H1725 C1735 0.929 . S
H1726 C1730 0.929 . S
H1727 C1736 0.929 . S
C1728 H1722 0.930 . S
C1728 C1729 1.367 . S
C1728 C1736 1.378 . S
C1729 C1728 1.367 . S
C1729 C1737 1.433 . S
C1730 H1726 0.929 . S
C1730 C1732 1.378 . S
C1730 C1734 1.350 . S
C1731 C1734 1.463 1_554 S
C1731 C1736 1.350 . S
C1731 N1739 1.427 . S
C1732 H1723 0.930 . S
C1732 C1730 1.378 . S
C1732 C1733 1.367 . S
C1733 C1732 1.367 . S
C1733 C1735 1.433 . S
C1734 C1730 1.350 . S
C1734 C1731 1.463 1_556 S
C1734 N1738 1.427 . S
C1735 H1725 0.929 . S
C1735 C1733 1.433 . S
C1735 N1738 1.384 . S
C1736 H1727 0.929 . S
C1736 C1728 1.378 . S
C1736 C1731 1.350 . S
C1737 H1724 0.929 . S
C1737 C1729 1.433 . S
C1737 N1739 1.384 . S
N1738 C1734 1.427 . S
N1738 C1735 1.384 . S
N1739 C1731 1.427 . S
N1739 C1737 1.384 . S
H1740 C1746 0.930 . S
H1741 C1750 0.930 . S
H1742 C1755 0.929 . S
H1743 C1753 0.929 . S
H1744 C1748 0.929 . S
H1745 C1754 0.929 . S
C1746 H1740 0.930 . S
C1746 C1747 1.367 . S
C1746 C1754 1.378 . S
C1747 C1746 1.367 . S
C1747 C1755 1.433 . S
C1748 H1744 0.929 . S
C1748 C1750 1.378 . S
C1748 C1752 1.350 . S
C1749 C1752 1.463 . S
C1749 C1754 1.350 . S
C1749 N1757 1.427 . S
C1750 H1741 0.930 . S
C1750 C1748 1.378 . S
C1750 C1751 1.367 . S
C1751 C1750 1.367 . S
C1751 C1753 1.433 . S
C1752 C1748 1.350 . S
C1752 C1749 1.463 . S
C1752 N1756 1.427 . S
C1753 H1743 0.929 . S
C1753 C1751 1.433 . S
C1753 N1756 1.384 . S
C1754 H1745 0.929 . S
C1754 C1746 1.378 . S
C1754 C1749 1.350 . S
C1755 H1742 0.929 . S
C1755 C1747 1.433 . S
C1755 N1757 1.384 . S
N1756 C1752 1.427 . S
N1756 C1753 1.384 . S
N1757 C1749 1.427 . S
N1757 C1755 1.384 . S
H1758 C1764 0.930 . S
H1759 C1768 0.930 . S
H1760 C1773 0.929 . S
H1761 C1771 0.929 . S
H1762 C1766 0.929 . S
H1763 C1772 0.929 . S
C1764 H1758 0.930 . S
C1764 C1765 1.367 . S
C1764 C1772 1.378 . S
C1765 C1764 1.367 . S
C1765 C1773 1.433 . S
C1766 H1762 0.929 . S
C1766 C1768 1.378 . S
C1766 C1770 1.350 . S
C1767 C1770 1.463 . S
C1767 C1772 1.350 . S
C1767 N1775 1.427 . S
C1768 H1759 0.930 . S
C1768 C1766 1.378 . S
C1768 C1769 1.367 . S
C1769 C1768 1.367 . S
C1769 C1771 1.433 . S
C1770 C1766 1.350 . S
C1770 C1767 1.463 . S
C1770 N1774 1.427 . S
C1771 H1761 0.929 . S
C1771 C1769 1.433 . S
C1771 N1774 1.384 . S
C1772 H1763 0.929 . S
C1772 C1764 1.378 . S
C1772 C1767 1.350 . S
C1773 H1760 0.929 . S
C1773 C1765 1.433 . S
C1773 N1775 1.384 . S
N1774 C1770 1.427 . S
N1774 C1771 1.384 . S
N1775 C1767 1.427 . S
N1775 C1773 1.384 . S
H1776 C1782 0.930 . S
H1777 C1786 0.930 . S
H1778 C1791 0.929 . S
H1779 C1789 0.929 . S
H1780 C1784 0.929 . S
H1781 C1790 0.929 . S
C1782 H1776 0.930 . S
C1782 C1783 1.367 . S
C1782 C1790 1.378 . S
C1783 C1782 1.367 . S
C1783 C1791 1.433 . S
C1784 H1780 0.929 . S
C1784 C1786 1.378 . S
C1784 C1788 1.350 . S
C1785 C1788 1.463 . S
C1785 C1790 1.350 . S
C1785 N1793 1.427 . S
C1786 H1777 0.930 . S
C1786 C1784 1.378 . S
C1786 C1787 1.367 . S
C1787 C1786 1.367 . S
C1787 C1789 1.433 . S
C1788 C1784 1.350 . S
C1788 C1785 1.463 . S
C1788 N1792 1.427 . S
C1789 H1779 0.929 . S
C1789 C1787 1.433 . S
C1789 N1792 1.384 . S
C1790 H1781 0.929 . S
C1790 C1782 1.378 . S
C1790 C1785 1.350 . S
C1791 H1778 0.929 . S
C1791 C1783 1.433 . S
C1791 N1793 1.384 . S
N1792 C1788 1.427 . S
N1792 C1789 1.384 . S
N1793 C1785 1.427 . S
N1793 C1791 1.384 . S
H1794 C1800 0.930 . S
H1795 C1804 0.930 . S
H1796 C1809 0.929 . S
H1797 C1807 0.929 . S
H1798 C1802 0.929 . S
H1799 C1808 0.929 . S
C1800 H1794 0.930 . S
C1800 C1801 1.367 . S
C1800 C1808 1.378 . S
C1801 C1800 1.367 . S
C1801 C1809 1.433 . S
C1802 H1798 0.929 . S
C1802 C1804 1.378 . S
C1802 C1806 1.350 . S
C1803 C1806 1.463 . S
C1803 C1808 1.350 . S
C1803 N1811 1.427 . S
C1804 H1795 0.930 . S
C1804 C1802 1.378 . S
C1804 C1805 1.367 . S
C1805 C1804 1.367 . S
C1805 C1807 1.433 . S
C1806 C1802 1.350 . S
C1806 C1803 1.463 . S
C1806 N1810 1.427 . S
C1807 H1797 0.929 . S
C1807 C1805 1.433 . S
C1807 N1810 1.384 . S
C1808 H1799 0.929 . S
C1808 C1800 1.378 . S
C1808 C1803 1.350 . S
C1809 H1796 0.929 . S
C1809 C1801 1.433 . S
C1809 N1811 1.384 . S
N1810 C1806 1.427 . S
N1810 C1807 1.384 . S
N1811 C1803 1.427 . S
N1811 C1809 1.384 . S
H1812 C1818 0.930 . S
H1813 C1822 0.930 . S
H1814 C1827 0.929 . S
H1815 C1825 0.929 . S
H1816 C1820 0.929 . S
H1817 C1826 0.929 . S
C1818 H1812 0.930 . S
C1818 C1819 1.367 . S
C1818 C1826 1.378 . S
C1819 C1818 1.367 . S
C1819 C1827 1.433 . S
C1820 H1816 0.929 . S
C1820 C1822 1.378 . S
C1820 C1824 1.350 . S
C1821 C1824 1.463 . S
C1821 C1826 1.350 . S
C1821 N1829 1.427 . S
C1822 H1813 0.930 . S
C1822 C1820 1.378 . S
C1822 C1823 1.367 . S
C1823 C1822 1.367 . S
C1823 C1825 1.433 . S
C1824 C1820 1.350 . S
C1824 C1821 1.463 . S
C1824 N1828 1.427 . S
C1825 H1815 0.929 . S
C1825 C1823 1.433 . S
C1825 N1828 1.384 . S
C1826 H1817 0.929 . S
C1826 C1818 1.378 . S
C1826 C1821 1.350 . S
C1827 H1814 0.929 . S
C1827 C1819 1.433 . S
C1827 N1829 1.384 . S
N1828 C1824 1.427 . S
N1828 C1825 1.384 . S
N1829 C1821 1.427 . S
N1829 C1827 1.384 . S
H1830 C1836 0.930 . S
H1831 C1840 0.930 . S
H1832 C1845 0.929 . S
H1833 C1843 0.929 . S
H1834 C1838 0.929 . S
H1835 C1844 0.929 . S
C1836 H1830 0.930 . S
C1836 C1837 1.367 . S
C1836 C1844 1.378 . S
C1837 C1836 1.367 . S
C1837 C1845 1.433 . S
C1838 H1834 0.929 . S
C1838 C1840 1.378 . S
C1838 C1842 1.350 . S
C1839 C1842 1.463 . S
C1839 C1844 1.350 . S
C1839 N1847 1.427 . S
C1840 H1831 0.930 . S
C1840 C1838 1.378 . S
C1840 C1841 1.367 . S
C1841 C1840 1.367 . S
C1841 C1843 1.433 . S
C1842 C1838 1.350 . S
C1842 C1839 1.463 . S
C1842 N1846 1.427 . S
C1843 H1833 0.929 . S
C1843 C1841 1.433 . S
C1843 N1846 1.384 . S
C1844 H1835 0.929 . S
C1844 C1836 1.378 . S
C1844 C1839 1.350 . S
C1845 H1832 0.929 . S
C1845 C1837 1.433 . S
C1845 N1847 1.384 . S
N1846 C1842 1.427 . S
N1846 C1843 1.384 . S
N1847 C1839 1.427 . S
N1847 C1845 1.384 . S
C559 C203 1.873 . S
C563 C19 1.876 . S
C577 C42 1.863 . S
C581 C226 1.878 . S
C595 C65 1.862 . S
C599 C249 1.877 . S
C613 C88 1.869 . S
C617 C272 1.862 . S
C631 C111 1.878 . S
C635 C157 1.862 . S
C649 C180 1.864 . S
C653 C134 1.866 . S
C667 C479 1.878 . S
C671 C295 1.864 . S
C685 C502 1.861 . S
C689 C318 1.875 . S
C703 C525 1.865 . S
C707 C341 1.865 . S
C721 C364 1.863 . S
C725 C548 1.878 . S
C739 C433 1.869 . S
C743 C387 1.862 . S
C757 C456 1.878 . S
C761 C410 1.870 . S
C775 C16 2.090 . S
C779 C85 2.091 . S
C793 C108 2.090 . S
C797 C39 2.091 . S
C811 C62 2.090 . S
C815 C131 2.091 . S
C829 C154 2.091 . S
C833 C223 2.092 . S
C847 C177 2.092 . S
C851 C246 2.091 . S
C865 C200 2.086 . S
C869 C269 2.085 . S
C883 C361 2.095 . S
C887 C292 2.094 . S
C901 C315 2.086 . S
C905 C384 2.087 . S
C919 C407 2.096 . S
C923 C338 2.096 . S
C937 C430 2.090 . S
C941 C499 2.089 . S
C955 C453 2.090 . S
C959 C522 2.091 . S
C973 C545 2.089 . S
C977 C476 2.089 . S
C991 C18 0.655 . S
C995 C248 0.636 . S
C1009 C271 0.635 . S
C1013 C41 0.644 . S
C1027 C64 0.673 . S
C1031 C156 0.684 . S
C1045 C87 0.683 . S
C1049 C179 0.677 . S
C1063 C202 0.635 . S
C1067 C110 0.651 . S
C1081 C225 0.635 . S
C1085 C133 0.653 . S
C1099 C294 0.671 . S
C1103 C524 0.646 . S
C1117 C317 0.646 . S
C1121 C547 0.635 . S
C1135 C340 0.665 . S
C1139 C432 0.683 . S
C1153 C363 0.671 . S
C1157 C455 0.646 . S
C1171 C478 0.684 . S
C1175 C386 0.668 . S
C1189 C501 0.639 . S
C1193 C409 0.638 . S
C1207 C17 0.947 . S
C1211 C112 0.937 . S
C1225 C135 0.933 . S
C1229 C40 0.941 . S
C1243 C63 0.952 . S
C1247 C20 0.943 . S
C1261 C43 0.938 . S
C1265 C86 0.949 . S
C1279 C66 0.949 . S
C1283 C109 0.947 . S
C1297 C89 0.950 . S
C1301 C132 0.949 . S
C1315 C155 0.952 . S
C1319 C204 0.951 . S
C1333 C227 0.937 . S
C1337 C178 0.939 . S
C1351 C201 0.940 . S
C1355 C250 0.933 . S
C1369 C224 0.945 . S
C1373 C273 0.947 . S
C1387 C158 0.940 . S
C1391 C247 0.940 . S
C1405 C270 0.943 . S
C1409 C181 0.944 . S
C1423 C293 0.940 . S
C1427 C388 0.933 . S
C1441 C411 0.935 . S
C1445 C316 0.939 . S
C1459 C296 0.951 . S
C1463 C339 0.951 . S
C1477 C362 0.954 . S
C1481 C319 0.950 . S
C1495 C342 0.948 . S
C1499 C385 0.954 . S
C1513 C408 0.953 . S
C1517 C365 0.951 . S
C1531 C431 0.953 . S
C1535 C480 0.951 . S
C1549 C503 0.934 . S
C1553 C454 0.944 . S
C1567 C526 0.951 . S
C1571 C477 0.952 . S
C1585 C500 0.948 . S
C1589 C549 0.949 . S
C1603 C434 0.935 . S
C1607 C523 0.945 . S
C1621 C546 0.944 . S
C1625 C457 0.945 . S
C1639 C366 1.376 . S
C1643 C21 1.368 . S
C1657 C389 1.370 . S
C1661 C44 1.374 . S
C1675 C67 1.367 . S
C1679 C412 1.376 . S
C1693 C297 1.375 . S
C1697 C90 1.368 . S
C1711 C320 1.376 . S
C1715 C113 1.367 . S
C1729 C136 1.373 . S
C1733 C343 1.371 . S
C1747 C504 1.366 . S
C1751 C159 1.378 . S
C1765 C527 1.376 . S
C1769 C182 1.368 . S
C1783 C205 1.376 . S
C1787 C550 1.368 . S
C1801 C435 1.365 . S
C1805 C228 1.378 . S
C1819 C251 1.378 . S
C1823 C458 1.366 . S
C1837 C481 1.370 . S
C1841 C274 1.374 . S
