# Generated by pormake.
# Topology uog, (4)-cn, num edge types: 1
# Building blocks:
#     Node 0, Type 0, BuildingBlock: ESEHIV_clean_sbu_0, # of connection points: 4
#     Node 1, Type 0, BuildingBlock: ESEHIV_clean_sbu_0, # of connection points: 4
#     Node 2, Type 0, BuildingBlock: ESEHIV_clean_sbu_0, # of connection points: 4
#     Node 3, Type 0, BuildingBlock: ESEHIV_clean_sbu_0, # of connection points: 4
#     Node 4, Type 0, BuildingBlock: ESEHIV_clean_sbu_0, # of connection points: 4
#     Node 5, Type 0, BuildingBlock: ESEHIV_clean_sbu_0, # of connection points: 4
#     Edge 6, Type (0, 0), BuildingBlock: ZUJKAS_clean_linker_0, # of connection points: 2
#     Edge 7, Type (0, 0), BuildingBlock: ZUJKAS_clean_linker_0, # of connection points: 2
#     Edge 8, Type (0, 0), BuildingBlock: ZUJKAS_clean_linker_0, # of connection points: 2
#     Edge 9, Type (0, 0), BuildingBlock: ZUJKAS_clean_linker_0, # of connection points: 2
#     Edge 10, Type (0, 0), BuildingBlock: ZUJKAS_clean_linker_0, # of connection points: 2
#     Edge 11, Type (0, 0), BuildingBlock: ZUJKAS_clean_linker_0, # of connection points: 2
#     Edge 12, Type (0, 0), BuildingBlock: ZUJKAS_clean_linker_0, # of connection points: 2
#     Edge 13, Type (0, 0), BuildingBlock: ZUJKAS_clean_linker_0, # of connection points: 2
#     Edge 14, Type (0, 0), BuildingBlock: ZUJKAS_clean_linker_0, # of connection points: 2
#     Edge 15, Type (0, 0), BuildingBlock: ZUJKAS_clean_linker_0, # of connection points: 2
#     Edge 16, Type (0, 0), BuildingBlock: ZUJKAS_clean_linker_0, # of connection points: 2
#     Edge 17, Type (0, 0), BuildingBlock: ZUJKAS_clean_linker_0, # of connection points: 2
# Relax obj value: 0.017
# Max RMSD: 0.192
# Mean RMSD: 0.147
data_MOF--net-uog--node1-ESEHIV_clean_sbu_0--edge1-ZUJKAS_clean_linker_0
_symmetry_space_group_name_H-M    P1
_symmetry_Int_Tables_number       1
_symmetry_cell_setting            triclinic
loop_
_symmetry_equiv_pos_as_xyz
'x, y, z'
_cell_length_a     37.073166
_cell_length_b     43.189658
_cell_length_c     57.058819
_cell_angle_alpha  90.47151
_cell_angle_beta   89.723107
_cell_angle_gamma 115.5131
loop_
_atom_site_label
_atom_site_type_symbol
_atom_site_fract_x
_atom_site_fract_y
_atom_site_fract_z
_atom_type_partial_charge
Cu0 Cu 0.56659 0.27805 0.17802 0.0
N1 N 0.53234 0.29938 0.17633 0.0
N2 N 0.51138 0.34075 0.17719 0.0
C3 C 0.53818 0.33006 0.18542 0.0
C4 C 0.48758 0.31567 0.16253 0.0
C5 C 0.50068 0.2903 0.16197 0.0
O6 O 0.59777 0.29212 0.20666 0.0
C7 C 0.62604 0.28278 0.14339 0.0
O8 O 0.63928 0.26718 0.15838 0.0
H9 H 0.56317 0.34534 0.19653 0.0
H10 H 0.48934 0.26772 0.15085 0.0
N11 N 0.53644 0.2305 0.17885 0.0
N12 N 0.52031 0.17422 0.17861 0.0
C13 C 0.55012 0.2063 0.17709 0.0
C14 C 0.4967 0.21325 0.18178 0.0
C15 C 0.48664 0.17862 0.18155 0.0
C16 C 0.62411 0.32229 0.21117 0.0
O17 O 0.63413 0.34597 0.19495 0.0
H18 H 0.58142 0.2122 0.17526 0.0
H19 H 0.47638 0.22498 0.1841 0.0
O20 O 0.59763 0.29028 0.1493 0.0
H21 H 0.46343 0.31621 0.15222 0.0
H22 H 0.45671 0.15836 0.18324 0.0
Cu23 Cu 0.32598 0.59622 0.51748 0.0
N24 N 0.33275 0.62519 0.49205 0.0
N25 N 0.34255 0.64648 0.45576 0.0
C26 C 0.34045 0.62042 0.46953 0.0
C27 C 0.33599 0.66841 0.47025 0.0
C28 C 0.32985 0.65517 0.49256 0.0
O29 O 0.35646 0.56975 0.51118 0.0
C30 C 0.24498 0.55714 0.50502 0.0
O31 O 0.26018 0.55943 0.48391 0.0
H32 H 0.34445 0.59831 0.46343 0.0
H33 H 0.32336 0.66641 0.50809 0.0
N34 N 0.34786 0.62373 0.54388 0.0
N35 N 0.35879 0.64421 0.58058 0.0
C36 C 0.33454 0.61876 0.5662 0.0
C37 C 0.3816 0.65309 0.54416 0.0
C38 C 0.38838 0.66583 0.56671 0.0
C39 C 0.36865 0.55673 0.52754 0.0
O40 O 0.35645 0.5576 0.54908 0.0
H41 H 0.30758 0.59705 0.5717 0.0
H42 H 0.4001 0.66431 0.52898 0.0
O43 O 0.26862 0.56925 0.52234 0.0
H44 H 0.33479 0.69199 0.46503 0.0
H45 H 0.41363 0.68888 0.5725 0.0
Cu46 Cu 0.77035 0.28253 0.86234 0.0
N47 N 0.75238 0.23494 0.85985 0.0
N48 N 0.71149 0.17888 0.85753 0.0
C49 C 0.71419 0.21095 0.86023 0.0
C50 C 0.74959 0.18304 0.85526 0.0
C51 C 0.77462 0.21753 0.8566 0.0
O52 O 0.75221 0.29348 0.89187 0.0
C53 C 0.76212 0.28965 0.81505 0.0
O54 O 0.77974 0.26898 0.81493 0.0
H55 H 0.68891 0.21703 0.86188 0.0
H56 H 0.80679 0.22905 0.85496 0.0
N57 N 0.82593 0.30413 0.8637 0.0
N58 N 0.88787 0.34626 0.86234 0.0
C59 C 0.84945 0.33565 0.85561 0.0
C60 C 0.85012 0.29443 0.87603 0.0
C61 C 0.88838 0.32025 0.87509 0.0
C62 C 0.71631 0.28553 0.89802 0.0
O63 O 0.68726 0.27034 0.88291 0.0
H64 H 0.83807 0.35128 0.84628 0.0
H65 H 0.8403 0.27099 0.88596 0.0
O66 O 0.75393 0.29932 0.83471 0.0
H67 H 0.75893 0.16268 0.85294 0.0
H68 H 0.91426 0.32023 0.88377 0.0
Cu69 Cu 0.49695 0.74948 0.18013 0.0
N70 N 0.52973 0.72646 0.18081 0.0
N71 N 0.54826 0.68371 0.18313 0.0
C72 C 0.51842 0.69332 0.18634 0.0
C73 C 0.57966 0.71195 0.17536 0.0
C74 C 0.56817 0.73828 0.17399 0.0
O75 O 0.46364 0.73689 0.20801 0.0
C76 C 0.47895 0.73014 0.13258 0.0
O77 O 0.51198 0.72606 0.13373 0.0
H78 H 0.48839 0.67613 0.19155 0.0
H79 H 0.58612 0.76383 0.16752 0.0
N80 N 0.52813 0.79673 0.18195 0.0
N81 N 0.54548 0.85305 0.18065 0.0
C82 C 0.51707 0.82132 0.17554 0.0
C83 C 0.56455 0.81339 0.19165 0.0
C84 C 0.57547 0.84815 0.1907 0.0
C85 C 0.43479 0.70773 0.21176 0.0
O86 O 0.42349 0.68429 0.19511 0.0
H87 H 0.48851 0.81596 0.1676 0.0
H88 H 0.58143 0.80114 0.19957 0.0
O89 O 0.46626 0.73935 0.15094 0.0
H90 H 0.60861 0.71334 0.1706 0.0
H91 H 0.60263 0.86817 0.19777 0.0
Cu92 Cu 0.74493 0.43268 0.51893 0.0
N93 N 0.7385 0.40703 0.4913 0.0
N94 N 0.72603 0.3871 0.45447 0.0
C95 C 0.72349 0.40961 0.47028 0.0
C96 C 0.74321 0.3698 0.46601 0.0
C97 C 0.75098 0.38223 0.4886 0.0
O98 O 0.70969 0.45568 0.51967 0.0
C99 C 0.82538 0.47368 0.50558 0.0
O100 O 0.81003 0.4696 0.48445 0.0
H101 H 0.71103 0.42753 0.46659 0.0
H102 H 0.76539 0.37415 0.50211 0.0
N103 N 0.72873 0.40189 0.54386 0.0
N104 N 0.71996 0.37994 0.58 0.0
C105 C 0.73797 0.40844 0.56675 0.0
C106 C 0.70403 0.36828 0.54253 0.0
C107 C 0.69871 0.35466 0.56467 0.0
C108 C 0.7072 0.4766 0.50489 0.0
O109 O 0.73243 0.48691 0.48726 0.0
H110 H 0.75705 0.43372 0.57347 0.0
H111 H 0.69073 0.35461 0.52653 0.0
O112 O 0.80192 0.46223 0.52306 0.0
H113 H 0.75072 0.35024 0.45848 0.0
H114 H 0.6809 0.328 0.56897 0.0
Cu115 Cu 0.31556 0.7524 0.85852 0.0
N116 N 0.32904 0.79898 0.85541 0.0
N117 N 0.36588 0.85565 0.85373 0.0
C118 C 0.36605 0.82472 0.85676 0.0
C119 C 0.32722 0.849 0.85032 0.0
C120 C 0.30458 0.81399 0.85128 0.0
O121 O 0.34323 0.74737 0.88608 0.0
C122 C 0.32777 0.7073 0.82511 0.0
O123 O 0.31644 0.68426 0.84179 0.0
H124 H 0.39247 0.82079 0.86016 0.0
H125 H 0.27258 0.80043 0.84898 0.0
N126 N 0.26061 0.72886 0.86348 0.0
N127 N 0.1985 0.68691 0.86412 0.0
C128 C 0.23551 0.69799 0.85482 0.0
C129 C 0.23875 0.73777 0.87863 0.0
C130 C 0.20042 0.712 0.87905 0.0
C131 C 0.32996 0.72042 0.89856 0.0
O132 O 0.29837 0.69323 0.8915 0.0
H133 H 0.24469 0.68321 0.84286 0.0
H134 H 0.25029 0.76093 0.88918 0.0
O135 O 0.33035 0.73715 0.82938 0.0
H136 H 0.31615 0.86799 0.84696 0.0
H137 H 0.17613 0.71153 0.88986 0.0
H138 H 0.46663 0.11195 0.19439 0.0
H139 H 0.47241 0.05781 0.19239 0.0
H140 H 0.58757 0.10873 0.1592 0.0
H141 H 0.58175 0.16296 0.16038 0.0
H142 H 0.49225 0.02695 0.14658 0.0
H143 H 0.59824 0.05567 0.22137 0.0
H144 H 0.56445 0.07561 0.21876 0.0
H145 H 0.60713 0.08852 0.19986 0.0
C146 C 0.49304 0.11178 0.1864 0.0
C147 C 0.52373 0.14211 0.17757 0.0
C148 C 0.49633 0.08075 0.18539 0.0
C149 C 0.53046 0.07944 0.17576 0.0
C150 C 0.56112 0.10941 0.16687 0.0
H151 H 0.60692 0.91512 0.17292 0.0
H152 H 0.60345 0.97028 0.16987 0.0
C153 C 0.55779 0.14045 0.1677 0.0
C154 C 0.53395 0.04662 0.17508 0.0
H155 H 0.57926 1.00263 0.2021 0.0
C156 C 0.51128 0.02153 0.15865 0.0
C157 C 0.55904 0.03995 0.19076 0.0
C158 C 0.5836 0.06617 0.20882 0.0
C159 C 0.51318 0.98976 0.15743 0.0
C160 C 0.53756 0.98266 0.17353 0.0
C161 C 0.56055 1.00804 0.18979 0.0
C162 C 0.53923 0.94893 0.17416 0.0
C163 C 0.48964 0.96446 0.13861 0.0
C164 C 0.50434 0.91858 0.17766 0.0
C165 C 0.50625 0.88703 0.17924 0.0
C166 C 0.5432 0.88528 0.17777 0.0
C167 C 0.57809 0.9157 0.1743 0.0
C168 C 0.57612 0.94719 0.17248 0.0
H169 H 0.48315 0.9775 0.12361 0.0
H170 H 0.5059 0.94977 0.13196 0.0
H171 H 0.46062 0.94606 0.146 0.0
H172 H 0.47568 0.91934 0.17969 0.0
H173 H 0.47896 0.86417 0.18237 0.0
H174 H 0.39909 0.52561 0.55812 0.0
H175 H 0.45573 0.51159 0.55201 0.0
H176 H 0.46713 0.54727 0.48082 0.0
H177 H 0.41048 0.56152 0.48677 0.0
H178 H 0.46791 0.46773 0.5176 0.0
H179 H 0.5794 0.60384 0.50986 0.0
H180 H 0.53007 0.59177 0.5219 0.0
H181 H 0.53679 0.59041 0.49079 0.0
C182 C 0.41337 0.53025 0.54108 0.0
C183 C 0.40027 0.54488 0.52298 0.0
C184 C 0.44581 0.52222 0.53763 0.0
C185 C 0.46612 0.52891 0.51609 0.0
C186 C 0.45235 0.54244 0.49772 0.0
H187 H 0.68378 0.51133 0.47271 0.0
H188 H 0.62513 0.5236 0.4746 0.0
C189 C 0.41974 0.55033 0.50111 0.0
C190 C 0.50197 0.5221 0.5131 0.0
H191 H 0.60323 0.56161 0.50495 0.0
C192 C 0.4975 0.48823 0.5148 0.0
C193 C 0.54055 0.54886 0.50935 0.0
C194 C 0.5473 0.58584 0.50802 0.0
C195 C 0.53046 0.48036 0.51275 0.0
C196 C 0.56924 0.50721 0.50953 0.0
C197 C 0.57361 0.54104 0.50748 0.0
C198 C 0.60565 0.50074 0.50869 0.0
C199 C 0.52324 0.44323 0.51364 0.0
C200 C 0.61498 0.48467 0.52748 0.0
C201 C 0.64834 0.4775 0.52641 0.0
C202 C 0.67357 0.48664 0.50664 0.0
C203 C 0.66503 0.50389 0.48819 0.0
C204 C 0.63144 0.51088 0.48923 0.0
H205 H 0.49193 0.42575 0.50893 0.0
H206 H 0.54369 0.43809 0.5016 0.0
H207 H 0.5286 0.43698 0.53174 0.0
H208 H 0.5963 0.47749 0.54299 0.0
H209 H 0.65415 0.46449 0.54105 0.0
H210 H 0.95213 0.37854 0.89063 0.0
H211 H 1.00446 0.43677 0.88659 0.0
H212 H 0.94948 0.44924 0.82317 0.0
H213 H 0.89687 0.39072 0.82702 0.0
H214 H 0.059 0.46764 0.85042 0.0
H215 H 0.95732 0.53042 0.86433 0.0
H216 H 0.94262 0.48573 0.87069 0.0
H217 H 0.94352 0.49934 0.84094 0.0
C218 C 0.95134 0.39338 0.87563 0.0
C219 C 0.9201 0.37994 0.8592 0.0
C220 C 0.98122 0.42677 0.87342 0.0
C221 C 0.9805 0.44747 0.85479 0.0
C222 C 0.9501 0.43391 0.83796 0.0
H223 H 0.18302 0.64554 0.8258 0.0
H224 H 0.12941 0.58755 0.82136 0.0
C225 C 0.92009 0.40048 0.84018 0.0
C226 C 1.0114 0.48337 0.85337 0.0
H227 H 1.0251 0.5667 0.85676 0.0
C228 C 0.05164 0.48934 0.85164 0.0
C229 C 1.00162 0.51155 0.85523 0.0
C230 C 0.95899 0.50662 0.8581 0.0
C231 C 0.08247 0.52278 0.852 0.0
C232 C 0.07268 0.55096 0.85376 0.0
C233 C 1.03242 0.54501 0.85522 0.0
C234 C 0.1039 0.58671 0.85566 0.0
C235 C 0.12528 0.52759 0.85137 0.0
C236 C 0.10652 0.60583 0.8761 0.0
C237 C 0.13701 0.63894 0.87867 0.0
C238 C 0.16548 0.65365 0.8608 0.0
C239 C 0.16204 0.63475 0.84005 0.0
C240 C 0.13144 0.60162 0.83748 0.0
H241 H 0.12774 0.50339 0.85517 0.0
H242 H 0.13788 0.53625 0.83365 0.0
H243 H 0.14376 0.54745 0.86424 0.0
H244 H 0.08552 0.59478 0.89033 0.0
H245 H 0.13893 0.65252 0.89497 0.0
H246 H 0.20248 0.55216 0.54567 0.0
H247 H 0.13067 0.53611 0.54948 0.0
H248 H 0.11681 0.51974 0.47477 0.0
H249 H 0.18787 0.53484 0.47089 0.0
H250 H 0.08725 0.56693 0.53088 0.0
H251 H 1.02695 0.4333 0.49811 0.0
H252 H 0.07879 0.45726 0.50602 0.0
H253 H 0.06127 0.46271 0.47765 0.0
C254 C 0.184 0.54457 0.53011 0.0
C255 C 0.20102 0.54459 0.50799 0.0
C256 C 0.14295 0.53554 0.5323 0.0
C257 C 0.11806 0.52618 0.51247 0.0
C258 C 0.13502 0.52597 0.49044 0.0
H259 H 0.88222 0.49285 0.47118 0.0
H260 H 0.9531 0.50667 0.47511 0.0
C261 C 0.17587 0.53482 0.48824 0.0
C262 C 0.07483 0.51831 0.51442 0.0
H263 H 0.98143 0.4595 0.49839 0.0
C264 C 0.06406 0.54321 0.5241 0.0
C265 C 0.04441 0.48731 0.50567 0.0
C266 C 0.05339 0.45849 0.49651 0.0
C267 C 1.02404 0.53855 0.52429 0.0
C268 C 0.99402 0.50821 0.51464 0.0
C269 C 1.00457 0.48291 0.50559 0.0
C270 C 0.95164 0.5026 0.51287 0.0
C271 C 1.01419 0.56657 0.53403 0.0
C272 C 0.92729 0.49614 0.53287 0.0
C273 C 0.8865 0.48806 0.53069 0.0
C274 C 0.86935 0.48635 0.50846 0.0
C275 C 0.89427 0.49397 0.48858 0.0
C276 C 0.93486 0.50179 0.49077 0.0
H277 H 0.04145 0.59036 0.53806 0.0
H278 H 0.99558 0.57272 0.52138 0.0
H279 H 0.99658 0.55754 0.5504 0.0
H280 H 0.93957 0.49633 0.55008 0.0
H281 H 0.86821 0.4822 0.54636 0.0
H282 H 0.36698 0.91662 0.86653 0.0
H283 H 0.42482 0.97281 0.86663 0.0
H284 H 0.49973 0.92592 0.84179 0.0
H285 H 0.44202 0.86978 0.84134 0.0
H286 H 0.50039 0.99105 0.89188 0.0
H287 H 0.51925 1.0063 0.79532 0.0
H288 H 0.47308 0.97687 0.80877 0.0
H289 H 0.51466 0.96607 0.80674 0.0
C290 C 0.39567 0.91832 0.86087 0.0
C291 C 0.39988 0.88874 0.85387 0.0
C292 C 0.42869 0.95038 0.86107 0.0
C293 C 0.46637 0.95348 0.85399 0.0
C294 C 0.47076 0.92406 0.84706 0.0
H295 H 0.70268 0.11799 0.83866 0.0
H296 H 0.64266 0.06385 0.83874 0.0
C297 C 0.43784 0.89198 0.84702 0.0
C298 C 0.50135 0.98739 0.85428 0.0
H299 H 0.57016 0.0473 0.81883 0.0
C300 C 0.51558 1.00353 0.87594 0.0
C301 C 0.52103 1.00339 0.83343 0.0
C302 C 0.50617 0.9875 0.80969 0.0
C303 C 0.54975 0.03498 0.87736 0.0
C304 C 0.56954 0.05104 0.85648 0.0
C305 C 0.55498 0.03497 0.8348 0.0
C306 C 0.60592 0.08416 0.85672 0.0
C307 C 0.56504 0.05009 0.90124 0.0
C308 C 0.60516 0.11376 0.86657 0.0
C309 C 0.63969 0.14478 0.86686 0.0
C310 C 0.67563 0.14696 0.85704 0.0
C311 C 0.67594 0.11731 0.84678 0.0
C312 C 0.64148 0.0863 0.84663 0.0
H313 H 0.55333 0.03045 0.91522 0.0
H314 H 0.5982 0.06186 0.90179 0.0
H315 H 0.55505 0.07036 0.90524 0.0
H316 H 0.57782 0.11291 0.874 0.0
H317 H 0.6382 0.16688 0.87504 0.0
H318 H 0.58828 0.6553 0.15768 0.0
H319 H 0.58078 0.59634 0.15989 0.0
H320 H 0.49522 0.57584 0.21595 0.0
H321 H 0.50222 0.63475 0.21358 0.0
H322 H 0.59375 0.56032 0.19489 0.0
H323 H 0.43357 0.5001 0.16971 0.0
H324 H 0.46442 0.54556 0.16719 0.0
H325 H 0.44417 0.52724 0.19517 0.0
C326 C 0.56815 0.63835 0.17062 0.0
C327 C 0.54562 0.6496 0.18535 0.0
C328 C 0.56378 0.60462 0.17182 0.0
C329 C 0.53689 0.58149 0.18779 0.0
C330 C 0.51535 0.59296 0.20307 0.0
H331 H 0.53603 0.38151 0.21572 0.0
H332 H 0.5413 0.43981 0.2202 0.0
C333 C 0.51944 0.62663 0.20174 0.0
C334 C 0.53134 0.54537 0.1882 0.0
H335 H 0.46179 0.46258 0.18067 0.0
C336 C 0.56489 0.53892 0.19184 0.0
C337 C 0.49373 0.51753 0.18391 0.0
C338 C 0.45697 0.52285 0.17855 0.0
C339 C 0.56197 0.50541 0.19116 0.0
C340 C 0.52421 0.47752 0.18733 0.0
C341 C 0.49061 0.48397 0.18385 0.0
C342 C 0.51929 0.44163 0.1854 0.0
C343 C 0.5996 0.50036 0.19371 0.0
C344 C 0.50372 0.42283 0.16474 0.0
C345 C 0.50022 0.38946 0.16228 0.0
C346 C 0.51231 0.37421 0.18043 0.0
C347 C 0.52702 0.39279 0.20133 0.0
C348 C 0.53018 0.42611 0.20387 0.0
H349 H 0.62686 0.52448 0.1905 0.0
H350 H 0.60131 0.49196 0.21183 0.0
H351 H 0.59964 0.48036 0.18137 0.0
H352 H 0.49508 0.43427 0.15027 0.0
H353 H 0.48925 0.37607 0.14586 0.0
H354 H 0.64301 0.26459 0.91922 0.0
H355 H 0.62932 0.2685 0.96093 0.0
H356 H 0.75583 0.32022 0.97471 0.0
H357 H 0.76982 0.31684 0.93318 0.0
H358 H 0.65381 0.23994 0.99764 0.0
H359 H 0.713 0.38096 1.00905 0.0
H360 H 0.70235 0.36038 0.98061 0.0
H361 H 0.74773 0.36734 0.99565 0.0
C362 C 0.66792 0.27726 0.93106 0.0
C363 C 0.70751 0.29044 0.92281 0.0
C364 C 0.66003 0.27938 0.95491 0.0
C365 C 0.69154 0.29496 0.9709 0.0
C366 C 0.73103 0.30866 0.96265 0.0
H367 H 0.67814 0.26149 0.12207 0.0
H368 H 0.69606 0.26561 0.08043 0.0
C369 C 0.73895 0.30653 0.93887 0.0
C370 C 0.68328 0.2951 0.99639 0.0
H371 H 0.69775 0.34776 0.04392 0.0
C372 C 0.66328 0.26351 1.00775 0.0
C373 C 0.69545 0.32589 1.00952 0.0
C374 C 0.7155 0.36059 0.99809 0.0
C375 C 0.65553 0.26184 0.03194 0.0
C376 C 0.6687 0.29259 0.0452 0.0
C377 C 0.68819 0.32421 0.03378 0.0
C378 C 0.66073 0.29241 0.07073 0.0
C379 C 0.63264 0.22717 0.04303 0.0
C380 C 0.63626 0.3073 0.07924 0.0
C381 C 0.62616 0.30517 0.10299 0.0
C382 C 0.64051 0.28822 0.11879 0.0
C383 C 0.66644 0.27459 0.11039 0.0
C384 C 0.67649 0.27671 0.08657 0.0
H385 H 0.61683 0.20694 0.02973 0.0
H386 H 0.65378 0.21982 0.05254 0.0
H387 H 0.61037 0.22792 0.05584 0.0
H388 H 0.62397 0.31972 0.06736 0.0
H389 H 0.60629 0.31613 0.10884 0.0
H390 H 0.38576 0.64446 0.22934 0.0
H391 H 0.36339 0.63028 0.27001 0.0
H392 H 0.42341 0.73734 0.289 0.0
H393 H 0.44583 0.75176 0.24855 0.0
H394 H 0.41613 0.64581 0.30967 0.0
H395 H 0.31061 0.70535 0.31808 0.0
H396 H 0.32587 0.69519 0.29005 0.0
H397 H 0.35839 0.73303 0.30589 0.0
C398 C 0.39364 0.66505 0.24209 0.0
C399 C 0.41756 0.69926 0.23567 0.0
C400 C 0.38095 0.65688 0.26533 0.0
C401 C 0.39143 0.68279 0.28246 0.0
C402 C 0.41445 0.717 0.27599 0.0
H403 H 0.37665 0.70565 0.43131 0.0
H404 H 0.38683 0.71182 0.38896 0.0
C405 C 0.42739 0.72517 0.25285 0.0
C406 C 0.38065 0.67411 0.30742 0.0
H407 H 0.3317 0.68961 0.3536 0.0
C408 C 0.39727 0.65499 0.31926 0.0
C409 C 0.35619 0.68626 0.31985 0.0
C410 C 0.3364 0.70585 0.30781 0.0
C411 C 0.39141 0.64885 0.34346 0.0
C412 C 0.36752 0.66156 0.35602 0.0
C413 C 0.35011 0.67997 0.344 0.0
C414 C 0.36143 0.65728 0.38177 0.0
C415 C 0.41221 0.63007 0.35549 0.0
C416 C 0.34355 0.62454 0.39187 0.0
C417 C 0.33781 0.62094 0.41616 0.0
C418 C 0.34938 0.65002 0.43079 0.0
C419 C 0.36703 0.68273 0.42056 0.0
C420 C 0.37297 0.6863 0.39634 0.0
H421 H 0.43711 0.62977 0.34472 0.0
H422 H 0.42432 0.64197 0.37276 0.0
H423 H 0.39044 0.60308 0.35848 0.0
H424 H 0.33354 0.60174 0.38096 0.0
H425 H 0.32352 0.59539 0.42341 0.0
H426 H 0.74516 0.34487 0.80717 0.0
H427 H 0.73759 0.3674 0.76901 0.0
H428 H 0.75289 0.28488 0.73408 0.0
H429 H 0.76144 0.26295 0.77178 0.0
H430 H 0.79993 0.3461 0.71527 0.0
H431 H 0.64439 0.33264 0.72351 0.0
H432 H 0.67808 0.35748 0.74621 0.0
H433 H 0.66507 0.31243 0.74353 0.0
C434 C 0.74644 0.33138 0.79133 0.0
C435 C 0.75398 0.30217 0.79249 0.0
C436 C 0.74198 0.3442 0.76954 0.0
C437 C 0.74439 0.32769 0.74864 0.0
C438 C 0.75104 0.29814 0.74992 0.0
H439 H 0.66941 0.32864 0.60794 0.0
H440 H 0.67722 0.32069 0.64941 0.0
C441 C 0.75587 0.28559 0.77154 0.0
C442 C 0.74176 0.34147 0.72523 0.0
H443 H 0.67886 0.35696 0.68856 0.0
C444 C 0.77356 0.34871 0.70947 0.0
C445 C 0.70726 0.34472 0.71766 0.0
C446 C 0.67157 0.33617 0.73349 0.0
C447 C 0.77136 0.35793 0.68617 0.0
C448 C 0.73679 0.36103 0.67852 0.0
C449 C 0.70544 0.3548 0.69448 0.0
C450 C 0.7312 0.36769 0.65357 0.0
C451 C 0.8053 0.36256 0.66971 0.0
C452 C 0.75849 0.39717 0.64207 0.0
C453 C 0.75459 0.40151 0.61806 0.0
C454 C 0.72298 0.37666 0.60508 0.0
C455 C 0.69473 0.34796 0.61701 0.0
C456 C 0.69887 0.34352 0.64091 0.0
H457 H 0.82481 0.3513 0.67684 0.0
H458 H 0.79383 0.35053 0.65239 0.0
H459 H 0.82401 0.39036 0.66701 0.0
H460 H 0.78319 0.41659 0.65158 0.0
H461 H 0.77695 0.42397 0.60965 0.0
H462 H 0.31592 0.66605 0.92736 0.0
H463 H 0.33973 0.66767 0.96745 0.0
H464 H 0.40436 0.77781 0.96372 0.0
H465 H 0.38181 0.77627 0.92336 0.0
H466 H 0.44833 0.75157 0.98422 0.0
H467 H 0.29821 0.69518 0.02512 0.0
H468 H 0.30362 0.66767 1.00306 0.0
H469 H 0.30605 0.70874 0.99497 0.0
C470 C 0.33538 0.69061 0.93503 0.0
C471 C 0.34682 0.72104 0.92218 0.0
C472 C 0.34863 0.69153 0.95806 0.0
C473 C 0.37296 0.72295 0.96889 0.0
C474 C 0.38533 0.75327 0.95585 0.0
H475 H 0.42263 0.75243 0.11973 0.0
H476 H 0.39603 0.75132 0.08022 0.0
C477 C 0.37249 0.75234 0.93273 0.0
C478 C 0.38623 0.72425 0.99361 0.0
H479 H 0.3526 0.69967 0.04942 0.0
C480 C 0.42733 0.74038 0.99847 0.0
C481 C 0.35886 0.71027 1.01235 0.0
C482 C 0.31423 0.69483 1.00869 0.0
C483 C 0.44187 0.74217 0.02136 0.0
C484 C 0.41464 0.72652 0.03988 0.0
C485 C 0.37348 0.71122 0.03518 0.0
C486 C 0.42854 0.72538 0.06412 0.0
C487 C 0.4863 0.76128 0.02548 0.0
C488 C 0.45449 0.71015 0.06834 0.0
C489 C 0.46984 0.71094 0.09074 0.0
C490 C 0.45911 0.72652 0.10956 0.0
C491 C 0.43151 0.74027 0.1056 0.0
C492 C 0.41636 0.73972 0.08304 0.0
H493 H 0.50112 0.78031 1.01146 0.0
H494 H 0.49277 0.77489 0.04264 0.0
H495 H 0.49972 0.74275 0.02541 0.0
H496 H 0.46337 0.69802 0.0542 0.0
H497 H 0.49061 0.69969 0.09322 0.0
H498 H 0.69984 0.32871 0.42873 0.0
H499 H 0.68415 0.32213 0.38687 0.0
H500 H 0.71066 0.4294 0.38282 0.0
H501 H 0.72672 0.43626 0.42483 0.0
H502 H 0.62475 0.34139 0.36252 0.0
H503 H 0.78173 0.40991 0.33081 0.0
H504 H 0.76988 0.39149 0.35975 0.0
H505 H 0.76489 0.43003 0.35339 0.0
C506 C 0.70248 0.35094 0.41894 0.0
C507 C 0.71472 0.38304 0.43008 0.0
C508 C 0.69335 0.34711 0.39506 0.0
C509 C 0.69667 0.37535 0.38175 0.0
C510 C 0.70829 0.40737 0.39279 0.0
H511 H 0.66584 0.38643 0.23029 0.0
H512 H 0.68381 0.40093 0.27154 0.0
C513 C 0.7171 0.41118 0.4168 0.0
C514 C 0.68764 0.37089 0.35633 0.0
H515 H 0.73141 0.3867 0.30219 0.0
C516 C 0.64799 0.35141 0.3493 0.0
C517 C 0.71803 0.38423 0.33918 0.0
C518 C 0.76114 0.40499 0.34599 0.0
C519 C 0.63788 0.34467 0.32551 0.0
C520 C 0.66846 0.35689 0.30832 0.0
C521 C 0.70805 0.37713 0.31536 0.0
C522 C 0.65991 0.34821 0.28306 0.0
C523 C 0.59441 0.32483 0.31904 0.0
C524 C 0.64178 0.3138 0.27568 0.0
C525 C 0.6313 0.30543 0.25219 0.0
C526 C 0.63926 0.33134 0.23548 0.0
C527 C 0.65925 0.36584 0.2427 0.0
C528 C 0.66947 0.37419 0.26628 0.0
H529 H 0.57442 0.32669 0.333 0.0
H530 H 0.58744 0.33422 0.30239 0.0
H531 H 0.58762 0.29733 0.31677 0.0
H532 H 0.63519 0.29331 0.28817 0.0
H533 H 0.61636 0.27861 0.24721 0.0
H534 H 0.35786 0.75006 0.78773 0.0
H535 H 0.36349 0.73434 0.74708 0.0
H536 H 0.3171 0.62789 0.76654 0.0
H537 H 0.31129 0.64334 0.80738 0.0
H538 H 0.4065 0.69624 0.7284 0.0
H539 H 0.24236 0.63134 0.71262 0.0
H540 H 0.26391 0.66079 0.73677 0.0
H541 H 0.26095 0.61827 0.73794 0.0
C542 C 0.34903 0.72329 0.78345 0.0
C543 C 0.33396 0.69794 0.80083 0.0
C544 C 0.3523 0.71438 0.76019 0.0
C545 C 0.34024 0.67994 0.75377 0.0
C546 C 0.32607 0.65459 0.7711 0.0
H547 H 0.32289 0.59316 0.61218 0.0
H548 H 0.31879 0.59953 0.65474 0.0
C549 C 0.32301 0.6635 0.79445 0.0
C550 C 0.34224 0.67082 0.72883 0.0
H551 H 0.28428 0.63332 0.68099 0.0
C552 C 0.37982 0.68232 0.71804 0.0
C553 C 0.30737 0.65246 0.71543 0.0
C554 C 0.26625 0.6401 0.72612 0.0
C555 C 0.3835 0.67625 0.69413 0.0
C556 C 0.34858 0.659 0.68048 0.0
C557 C 0.311 0.64665 0.69143 0.0
C558 C 0.35044 0.65493 0.65466 0.0
C559 C 0.42481 0.6882 0.68376 0.0
C560 C 0.36868 0.68394 0.64041 0.0
C561 C 0.37105 0.68037 0.61618 0.0
C562 C 0.35483 0.6477 0.60555 0.0
C563 C 0.33551 0.61867 0.61977 0.0
C564 C 0.33331 0.62227 0.64411 0.0
H565 H 0.44724 0.69078 0.6974 0.0
H566 H 0.42559 0.67021 0.66997 0.0
H567 H 0.43378 0.71379 0.67574 0.0
H568 H 0.38101 0.70945 0.64805 0.0
H569 H 0.38532 0.70329 0.60573 0.0
loop_
_geom_bond_atom_site_label_1
_geom_bond_atom_site_label_2
_geom_bond_distance
_geom_bond_site_symmetry_2
_ccdc_geom_bond_type
Cu0 N1 1.999 . S
Cu0 O6 1.974 . S
Cu0 N11 1.985 . S
Cu0 O20 1.959 . S
N1 Cu0 1.999 . S
N1 C3 1.263 . S
N1 C5 1.389 . S
N2 C3 1.358 . S
N2 C4 1.400 . S
C3 N1 1.263 . S
C3 N2 1.358 . S
C3 H9 0.930 . S
C4 N2 1.400 . S
C4 C5 1.351 . S
C4 H21 0.930 . S
C5 N1 1.389 . S
C5 C4 1.351 . S
C5 H10 0.930 . S
O6 Cu0 1.974 . S
O6 C16 1.282 . S
C7 O8 1.261 . S
C7 O20 1.251 . S
O8 C7 1.261 . S
H9 C3 0.930 . S
H10 C5 0.930 . S
N11 Cu0 1.985 . S
N11 C13 1.335 . S
N11 C14 1.390 . S
N12 C13 1.345 . S
N12 C15 1.336 . S
C13 N11 1.335 . S
C13 N12 1.345 . S
C13 H18 0.930 . S
C14 N11 1.390 . S
C14 C15 1.346 . S
C14 H19 0.930 . S
C15 N12 1.336 . S
C15 C14 1.346 . S
C15 H22 0.929 . S
C16 O6 1.282 . S
C16 O17 1.216 . S
O17 C16 1.216 . S
H18 C13 0.930 . S
H19 C14 0.930 . S
O20 Cu0 1.959 . S
O20 C7 1.251 . S
H21 C4 0.930 . S
H22 C15 0.929 . S
Cu23 N24 1.999 . S
Cu23 O29 1.974 . S
Cu23 N34 1.985 . S
Cu23 O43 1.959 . S
N24 Cu23 1.999 . S
N24 C26 1.263 . S
N24 C28 1.389 . S
N25 C26 1.358 . S
N25 C27 1.400 . S
C26 N24 1.263 . S
C26 N25 1.358 . S
C26 H32 0.930 . S
C27 N25 1.400 . S
C27 C28 1.351 . S
C27 H44 0.930 . S
C28 N24 1.389 . S
C28 C27 1.351 . S
C28 H33 0.930 . S
O29 Cu23 1.974 . S
O29 C39 1.282 . S
C30 O31 1.261 . S
C30 O43 1.251 . S
O31 C30 1.261 . S
H32 C26 0.930 . S
H33 C28 0.930 . S
N34 Cu23 1.985 . S
N34 C36 1.335 . S
N34 C37 1.390 . S
N35 C36 1.345 . S
N35 C38 1.336 . S
C36 N34 1.335 . S
C36 N35 1.345 . S
C36 H41 0.930 . S
C37 N34 1.390 . S
C37 C38 1.346 . S
C37 H42 0.930 . S
C38 N35 1.336 . S
C38 C37 1.346 . S
C38 H45 0.929 . S
C39 O29 1.282 . S
C39 O40 1.216 . S
O40 C39 1.216 . S
H41 C36 0.930 . S
H42 C37 0.930 . S
O43 Cu23 1.959 . S
O43 C30 1.251 . S
H44 C27 0.930 . S
H45 C38 0.929 . S
Cu46 N47 1.999 . S
Cu46 O52 1.974 . S
Cu46 N57 1.985 . S
Cu46 O66 1.959 . S
N47 Cu46 1.999 . S
N47 C49 1.263 . S
N47 C51 1.389 . S
N48 C49 1.358 . S
N48 C50 1.400 . S
C49 N47 1.263 . S
C49 N48 1.358 . S
C49 H55 0.930 . S
C50 N48 1.400 . S
C50 C51 1.351 . S
C50 H67 0.930 . S
C51 N47 1.389 . S
C51 C50 1.351 . S
C51 H56 0.930 . S
O52 Cu46 1.974 . S
O52 C62 1.282 . S
C53 O54 1.261 . S
C53 O66 1.251 . S
O54 C53 1.261 . S
H55 C49 0.930 . S
H56 C51 0.930 . S
N57 Cu46 1.985 . S
N57 C59 1.335 . S
N57 C60 1.390 . S
N58 C59 1.345 . S
N58 C61 1.336 . S
C59 N57 1.335 . S
C59 N58 1.345 . S
C59 H64 0.930 . S
C60 N57 1.390 . S
C60 C61 1.346 . S
C60 H65 0.930 . S
C61 N58 1.336 . S
C61 C60 1.346 . S
C61 H68 0.929 . S
C62 O52 1.282 . S
C62 O63 1.216 . S
O63 C62 1.216 . S
H64 C59 0.930 . S
H65 C60 0.930 . S
O66 Cu46 1.959 . S
O66 C53 1.251 . S
H67 C50 0.930 . S
H68 C61 0.929 . S
Cu69 N70 1.999 . S
Cu69 O75 1.974 . S
Cu69 N80 1.985 . S
Cu69 O89 1.959 . S
N70 Cu69 1.999 . S
N70 C72 1.263 . S
N70 C74 1.389 . S
N71 C72 1.358 . S
N71 C73 1.400 . S
C72 N70 1.263 . S
C72 N71 1.358 . S
C72 H78 0.930 . S
C73 N71 1.400 . S
C73 C74 1.351 . S
C73 H90 0.930 . S
C74 N70 1.389 . S
C74 C73 1.351 . S
C74 H79 0.930 . S
O75 Cu69 1.974 . S
O75 C85 1.282 . S
C76 O77 1.261 . S
C76 O89 1.251 . S
O77 C76 1.261 . S
H78 C72 0.930 . S
H79 C74 0.930 . S
N80 Cu69 1.985 . S
N80 C82 1.335 . S
N80 C83 1.390 . S
N81 C82 1.345 . S
N81 C84 1.336 . S
C82 N80 1.335 . S
C82 N81 1.345 . S
C82 H87 0.930 . S
C83 N80 1.390 . S
C83 C84 1.346 . S
C83 H88 0.930 . S
C84 N81 1.336 . S
C84 C83 1.346 . S
C84 H91 0.929 . S
C85 O75 1.282 . S
C85 O86 1.216 . S
O86 C85 1.216 . S
H87 C82 0.930 . S
H88 C83 0.930 . S
O89 Cu69 1.959 . S
O89 C76 1.251 . S
H90 C73 0.930 . S
H91 C84 0.929 . S
Cu92 N93 1.999 . S
Cu92 O98 1.974 . S
Cu92 N103 1.985 . S
Cu92 O112 1.959 . S
N93 Cu92 1.999 . S
N93 C95 1.263 . S
N93 C97 1.389 . S
N94 C95 1.358 . S
N94 C96 1.400 . S
C95 N93 1.263 . S
C95 N94 1.358 . S
C95 H101 0.930 . S
C96 N94 1.400 . S
C96 C97 1.351 . S
C96 H113 0.930 . S
C97 N93 1.389 . S
C97 C96 1.351 . S
C97 H102 0.930 . S
O98 Cu92 1.974 . S
O98 C108 1.282 . S
C99 O100 1.261 . S
C99 O112 1.251 . S
O100 C99 1.261 . S
H101 C95 0.930 . S
H102 C97 0.930 . S
N103 Cu92 1.985 . S
N103 C105 1.335 . S
N103 C106 1.390 . S
N104 C105 1.345 . S
N104 C107 1.336 . S
C105 N103 1.335 . S
C105 N104 1.345 . S
C105 H110 0.930 . S
C106 N103 1.390 . S
C106 C107 1.346 . S
C106 H111 0.930 . S
C107 N104 1.336 . S
C107 C106 1.346 . S
C107 H114 0.929 . S
C108 O98 1.282 . S
C108 O109 1.216 . S
O109 C108 1.216 . S
H110 C105 0.930 . S
H111 C106 0.930 . S
O112 Cu92 1.959 . S
O112 C99 1.251 . S
H113 C96 0.930 . S
H114 C107 0.929 . S
Cu115 N116 1.999 . S
Cu115 O121 1.974 . S
Cu115 N126 1.985 . S
Cu115 O135 1.959 . S
N116 Cu115 1.999 . S
N116 C118 1.263 . S
N116 C120 1.389 . S
N117 C118 1.358 . S
N117 C119 1.400 . S
C118 N116 1.263 . S
C118 N117 1.358 . S
C118 H124 0.930 . S
C119 N117 1.400 . S
C119 C120 1.351 . S
C119 H136 0.930 . S
C120 N116 1.389 . S
C120 C119 1.351 . S
C120 H125 0.930 . S
O121 Cu115 1.974 . S
O121 C131 1.282 . S
C122 O123 1.261 . S
C122 O135 1.251 . S
O123 C122 1.261 . S
H124 C118 0.930 . S
H125 C120 0.930 . S
N126 Cu115 1.985 . S
N126 C128 1.335 . S
N126 C129 1.390 . S
N127 C128 1.345 . S
N127 C130 1.336 . S
C128 N126 1.335 . S
C128 N127 1.345 . S
C128 H133 0.930 . S
C129 N126 1.390 . S
C129 C130 1.346 . S
C129 H134 0.930 . S
C130 N127 1.336 . S
C130 C129 1.346 . S
C130 H137 0.929 . S
C131 O121 1.282 . S
C131 O132 1.216 . S
O132 C131 1.216 . S
H133 C128 0.930 . S
H134 C129 0.930 . S
O135 Cu115 1.959 . S
O135 C122 1.251 . S
H136 C119 0.930 . S
H137 C130 0.929 . S
H138 C146 0.929 . S
H139 C148 0.930 . S
H140 C150 0.930 . S
H141 C153 0.929 . S
H142 C156 0.930 . S
H143 C158 0.960 . S
H144 C158 0.960 . S
H145 C158 0.960 . S
C146 H138 0.929 . S
C146 C147 1.377 . S
C146 C148 1.384 . S
C147 C146 1.377 . S
C147 C153 1.390 . S
C148 H139 0.930 . S
C148 C146 1.384 . S
C148 C149 1.372 . S
C149 C148 1.372 . S
C149 C150 1.400 . S
C149 C154 1.490 . S
C150 H140 0.930 . S
C150 C149 1.400 . S
C150 C153 1.386 . S
H151 C167 0.930 . S
H152 C168 0.931 . S
C153 H141 0.929 . S
C153 C147 1.390 . S
C153 C150 1.386 . S
C154 C149 1.490 . S
C154 C156 1.395 . S
C154 C157 1.403 . S
H155 C161 0.930 . S
C156 H142 0.930 . S
C156 C154 1.395 . S
C156 C159 1.403 1_545 S
C157 C154 1.403 . S
C157 C158 1.524 . S
C157 C161 1.400 1_545 S
C158 H143 0.960 . S
C158 H144 0.960 . S
C158 H145 0.960 . S
C158 C157 1.524 . S
C159 C156 1.403 1_565 S
C159 C160 1.392 . S
C159 C163 1.495 . S
C160 C159 1.392 . S
C160 C161 1.385 . S
C160 C162 1.478 . S
C161 H155 0.930 . S
C161 C157 1.400 1_565 S
C161 C160 1.385 . S
C162 C160 1.478 . S
C162 C164 1.381 . S
C162 C168 1.383 . S
C163 C159 1.495 . S
C163 H169 0.959 . S
C163 H170 0.961 . S
C163 H171 0.960 . S
C164 C162 1.381 . S
C164 C165 1.394 . S
C164 H172 0.930 . S
C165 C164 1.394 . S
C165 C166 1.383 . S
C165 H173 0.929 . S
C166 C165 1.383 . S
C166 C167 1.377 . S
C167 H151 0.930 . S
C167 C166 1.377 . S
C167 C168 1.379 . S
C168 H152 0.931 . S
C168 C162 1.383 . S
C168 C167 1.379 . S
H169 C163 0.959 . S
H170 C163 0.961 . S
H171 C163 0.960 . S
H172 C164 0.930 . S
H173 C165 0.929 . S
H174 C182 0.929 . S
H175 C184 0.930 . S
H176 C186 0.930 . S
H177 C189 0.929 . S
H178 C192 0.930 . S
H179 C194 0.960 . S
H180 C194 0.960 . S
H181 C194 0.960 . S
C182 H174 0.929 . S
C182 C183 1.377 . S
C182 C184 1.384 . S
C183 C182 1.377 . S
C183 C189 1.390 . S
C184 H175 0.930 . S
C184 C182 1.384 . S
C184 C185 1.372 . S
C185 C184 1.372 . S
C185 C186 1.400 . S
C185 C190 1.490 . S
C186 H176 0.930 . S
C186 C185 1.400 . S
C186 C189 1.386 . S
H187 C203 0.930 . S
H188 C204 0.931 . S
C189 H177 0.929 . S
C189 C183 1.390 . S
C189 C186 1.386 . S
C190 C185 1.490 . S
C190 C192 1.395 . S
C190 C193 1.403 . S
H191 C197 0.930 . S
C192 H178 0.930 . S
C192 C190 1.395 . S
C192 C195 1.403 . S
C193 C190 1.403 . S
C193 C194 1.524 . S
C193 C197 1.400 . S
C194 H179 0.960 . S
C194 H180 0.960 . S
C194 H181 0.960 . S
C194 C193 1.524 . S
C195 C192 1.403 . S
C195 C196 1.392 . S
C195 C199 1.495 . S
C196 C195 1.392 . S
C196 C197 1.385 . S
C196 C198 1.478 . S
C197 H191 0.930 . S
C197 C193 1.400 . S
C197 C196 1.385 . S
C198 C196 1.478 . S
C198 C200 1.381 . S
C198 C204 1.383 . S
C199 C195 1.495 . S
C199 H205 0.959 . S
C199 H206 0.961 . S
C199 H207 0.960 . S
C200 C198 1.381 . S
C200 C201 1.394 . S
C200 H208 0.930 . S
C201 C200 1.394 . S
C201 C202 1.383 . S
C201 H209 0.929 . S
C202 C201 1.383 . S
C202 C203 1.377 . S
C203 H187 0.930 . S
C203 C202 1.377 . S
C203 C204 1.379 . S
C204 H188 0.931 . S
C204 C198 1.383 . S
C204 C203 1.379 . S
H205 C199 0.959 . S
H206 C199 0.961 . S
H207 C199 0.960 . S
H208 C200 0.930 . S
H209 C201 0.929 . S
H210 C218 0.929 . S
H211 C220 0.930 . S
H212 C222 0.930 . S
H213 C225 0.929 . S
H214 C228 0.929 . S
H215 C230 0.960 . S
H216 C230 0.960 . S
H217 C230 0.960 . S
C218 H210 0.929 . S
C218 C219 1.377 . S
C218 C220 1.384 . S
C219 C218 1.377 . S
C219 C225 1.390 . S
C220 H211 0.930 . S
C220 C218 1.384 . S
C220 C221 1.372 . S
C221 C220 1.372 . S
C221 C222 1.400 . S
C221 C226 1.490 . S
C222 H212 0.930 . S
C222 C221 1.400 . S
C222 C225 1.386 . S
H223 C239 0.930 . S
H224 C240 0.931 . S
C225 H213 0.929 . S
C225 C219 1.390 . S
C225 C222 1.386 . S
C226 C221 1.490 . S
C226 C228 1.395 1_655 S
C226 C229 1.403 . S
H227 C233 0.930 . S
C228 H214 0.929 . S
C228 C226 1.395 1_455 S
C228 C231 1.403 . S
C229 C226 1.403 . S
C229 C230 1.524 . S
C229 C233 1.400 1_655 S
C230 H215 0.960 . S
C230 H216 0.960 . S
C230 H217 0.960 . S
C230 C229 1.524 . S
C231 C228 1.403 . S
C231 C232 1.392 . S
C231 C235 1.495 . S
C232 C231 1.392 . S
C232 C233 1.385 . S
C232 C234 1.478 . S
C233 H227 0.930 . S
C233 C229 1.400 1_455 S
C233 C232 1.385 . S
C234 C232 1.478 . S
C234 C236 1.381 . S
C234 C240 1.383 . S
C235 C231 1.495 . S
C235 H241 0.959 . S
C235 H242 0.961 . S
C235 H243 0.960 . S
C236 C234 1.381 . S
C236 C237 1.394 . S
C236 H244 0.930 . S
C237 C236 1.394 . S
C237 C238 1.383 . S
C237 H245 0.929 . S
C238 C237 1.383 . S
C238 C239 1.377 . S
C239 H223 0.930 . S
C239 C238 1.377 . S
C239 C240 1.379 . S
C240 H224 0.931 . S
C240 C234 1.383 . S
C240 C239 1.379 . S
H241 C235 0.959 . S
H242 C235 0.961 . S
H243 C235 0.960 . S
H244 C236 0.930 . S
H245 C237 0.929 . S
H246 C254 0.929 . S
H247 C256 0.930 . S
H248 C258 0.930 . S
H249 C261 0.929 . S
H250 C264 0.930 . S
H251 C266 0.953 1_655 S
H252 C266 0.960 . S
H253 C266 0.960 . S
C254 H246 0.929 . S
C254 C255 1.377 . S
C254 C256 1.384 . S
C255 C254 1.377 . S
C255 C261 1.390 . S
C256 H247 0.930 . S
C256 C254 1.384 . S
C256 C257 1.372 . S
C257 C256 1.372 . S
C257 C258 1.400 . S
C257 C262 1.490 . S
C258 H248 0.930 . S
C258 C257 1.400 . S
C258 C261 1.386 . S
H259 C275 0.930 . S
H260 C276 0.931 . S
C261 H249 0.929 . S
C261 C255 1.390 . S
C261 C258 1.386 . S
C262 C257 1.490 . S
C262 C264 1.395 . S
C262 C265 1.403 . S
H263 C269 0.930 . S
C264 H250 0.930 . S
C264 C262 1.395 . S
C264 C267 1.403 1_455 S
C265 C262 1.403 . S
C265 C266 1.524 . S
C265 C269 1.400 1_455 S
C266 H251 0.953 1_455 S
C266 H252 0.960 . S
C266 H253 0.960 . S
C266 C265 1.524 . S
C267 C264 1.403 1_655 S
C267 C268 1.392 . S
C267 C271 1.495 . S
C268 C267 1.392 . S
C268 C269 1.385 . S
C268 C270 1.478 . S
C269 H263 0.930 . S
C269 C265 1.400 1_655 S
C269 C268 1.385 . S
C270 C268 1.478 . S
C270 C272 1.381 . S
C270 C276 1.383 . S
C271 C267 1.495 . S
C271 H277 0.961 . S
C271 H278 0.961 . S
C271 H279 0.960 . S
C272 C270 1.381 . S
C272 C273 1.394 . S
C272 H280 0.930 . S
C273 C272 1.394 . S
C273 C274 1.383 . S
C273 H281 0.929 . S
C274 C273 1.383 . S
C274 C275 1.377 . S
C275 H259 0.930 . S
C275 C274 1.377 . S
C275 C276 1.379 . S
C276 H260 0.931 . S
C276 C270 1.383 . S
C276 C275 1.379 . S
H277 C271 0.961 . S
H278 C271 0.961 . S
H279 C271 0.960 . S
H280 C272 0.930 . S
H281 C273 0.929 . S
H282 C290 0.929 . S
H283 C292 0.930 . S
H284 C294 0.930 . S
H285 C297 0.929 . S
H286 C300 0.930 . S
H287 C302 0.960 . S
H288 C302 0.960 . S
H289 C302 0.960 . S
C290 H282 0.929 . S
C290 C291 1.377 . S
C290 C292 1.384 . S
C291 C290 1.377 . S
C291 C297 1.390 . S
C292 H283 0.930 . S
C292 C290 1.384 . S
C292 C293 1.372 . S
C293 C292 1.372 . S
C293 C294 1.400 . S
C293 C298 1.490 . S
C294 H284 0.930 . S
C294 C293 1.400 . S
C294 C297 1.386 . S
H295 C311 0.930 . S
H296 C312 0.931 . S
C297 H285 0.929 . S
C297 C291 1.390 . S
C297 C294 1.386 . S
C298 C293 1.490 . S
C298 C300 1.395 . S
C298 C301 1.403 . S
H299 C305 0.930 . S
C300 H286 0.930 . S
C300 C298 1.395 . S
C300 C303 1.403 1_565 S
C301 C298 1.403 . S
C301 C302 1.524 . S
C301 C305 1.400 1_565 S
C302 H287 0.960 . S
C302 H288 0.960 . S
C302 H289 0.960 . S
C302 C301 1.524 . S
C303 C300 1.403 1_545 S
C303 C304 1.392 . S
C303 C307 1.495 . S
C304 C303 1.392 . S
C304 C305 1.385 . S
C304 C306 1.478 . S
C305 H299 0.930 . S
C305 C301 1.400 1_545 S
C305 C304 1.385 . S
C306 C304 1.478 . S
C306 C308 1.381 . S
C306 C312 1.383 . S
C307 C303 1.495 . S
C307 H313 0.959 . S
C307 H314 0.961 . S
C307 H315 0.960 . S
C308 C306 1.381 . S
C308 C309 1.394 . S
C308 H316 0.930 . S
C309 C308 1.394 . S
C309 C310 1.383 . S
C309 H317 0.929 . S
C310 C309 1.383 . S
C310 C311 1.377 . S
C311 H295 0.930 . S
C311 C310 1.377 . S
C311 C312 1.379 . S
C312 H296 0.931 . S
C312 C306 1.383 . S
C312 C311 1.379 . S
H313 C307 0.959 . S
H314 C307 0.961 . S
H315 C307 0.960 . S
H316 C308 0.930 . S
H317 C309 0.929 . S
H318 C326 0.929 . S
H319 C328 0.930 . S
H320 C330 0.930 . S
H321 C333 0.929 . S
H322 C336 0.930 . S
H323 C338 0.960 . S
H324 C338 0.960 . S
H325 C338 0.960 . S
C326 H318 0.929 . S
C326 C327 1.377 . S
C326 C328 1.384 . S
C327 C326 1.377 . S
C327 C333 1.390 . S
C328 H319 0.930 . S
C328 C326 1.384 . S
C328 C329 1.372 . S
C329 C328 1.372 . S
C329 C330 1.400 . S
C329 C334 1.490 . S
C330 H320 0.930 . S
C330 C329 1.400 . S
C330 C333 1.386 . S
H331 C347 0.930 . S
H332 C348 0.931 . S
C333 H321 0.929 . S
C333 C327 1.390 . S
C333 C330 1.386 . S
C334 C329 1.490 . S
C334 C336 1.395 . S
C334 C337 1.403 . S
H335 C341 0.930 . S
C336 H322 0.930 . S
C336 C334 1.395 . S
C336 C339 1.403 . S
C337 C334 1.403 . S
C337 C338 1.524 . S
C337 C341 1.400 . S
C338 H323 0.960 . S
C338 H324 0.960 . S
C338 H325 0.960 . S
C338 C337 1.524 . S
C339 C336 1.403 . S
C339 C340 1.392 . S
C339 C343 1.495 . S
C340 C339 1.392 . S
C340 C341 1.385 . S
C340 C342 1.478 . S
C341 H335 0.930 . S
C341 C337 1.400 . S
C341 C340 1.385 . S
C342 C340 1.478 . S
C342 C344 1.381 . S
C342 C348 1.383 . S
C343 C339 1.495 . S
C343 H349 0.959 . S
C343 H350 0.961 . S
C343 H351 0.960 . S
C344 C342 1.381 . S
C344 C345 1.394 . S
C344 H352 0.930 . S
C345 C344 1.394 . S
C345 C346 1.383 . S
C345 H353 0.929 . S
C346 C345 1.383 . S
C346 C347 1.377 . S
C347 H331 0.930 . S
C347 C346 1.377 . S
C347 C348 1.379 . S
C348 H332 0.931 . S
C348 C342 1.383 . S
C348 C347 1.379 . S
H349 C343 0.959 . S
H350 C343 0.961 . S
H351 C343 0.960 . S
H352 C344 0.930 . S
H353 C345 0.929 . S
H354 C362 0.929 . S
H355 C364 0.930 . S
H356 C366 0.930 . S
H357 C369 0.929 . S
H358 C372 0.930 . S
H359 C374 0.960 . S
H360 C374 0.960 . S
H361 C374 0.960 . S
C362 H354 0.929 . S
C362 C363 1.377 . S
C362 C364 1.384 . S
C363 C362 1.377 . S
C363 C369 1.390 . S
C364 H355 0.930 . S
C364 C362 1.384 . S
C364 C365 1.372 . S
C365 C364 1.372 . S
C365 C366 1.400 . S
C365 C370 1.490 . S
C366 H356 0.930 . S
C366 C365 1.400 . S
C366 C369 1.386 . S
H367 C383 0.930 . S
H368 C384 0.931 . S
C369 H357 0.929 . S
C369 C363 1.390 . S
C369 C366 1.386 . S
C370 C365 1.490 . S
C370 C372 1.395 . S
C370 C373 1.403 . S
H371 C377 0.930 . S
C372 H358 0.930 . S
C372 C370 1.395 . S
C372 C375 1.403 1_556 S
C373 C370 1.403 . S
C373 C374 1.524 . S
C373 C377 1.400 1_556 S
C374 H359 0.960 . S
C374 H360 0.960 . S
C374 H361 0.960 . S
C374 C373 1.524 . S
C375 C372 1.403 1_554 S
C375 C376 1.392 . S
C375 C379 1.495 . S
C376 C375 1.392 . S
C376 C377 1.385 . S
C376 C378 1.478 . S
C377 H371 0.930 . S
C377 C373 1.400 1_554 S
C377 C376 1.385 . S
C378 C376 1.478 . S
C378 C380 1.381 . S
C378 C384 1.383 . S
C379 C375 1.495 . S
C379 H385 0.959 . S
C379 H386 0.961 . S
C379 H387 0.960 . S
C380 C378 1.381 . S
C380 C381 1.394 . S
C380 H388 0.930 . S
C381 C380 1.394 . S
C381 C382 1.383 . S
C381 H389 0.929 . S
C382 C381 1.383 . S
C382 C383 1.377 . S
C383 H367 0.930 . S
C383 C382 1.377 . S
C383 C384 1.379 . S
C384 H368 0.931 . S
C384 C378 1.383 . S
C384 C383 1.379 . S
H385 C379 0.959 . S
H386 C379 0.961 . S
H387 C379 0.960 . S
H388 C380 0.930 . S
H389 C381 0.929 . S
H390 C398 0.929 . S
H391 C400 0.930 . S
H392 C402 0.930 . S
H393 C405 0.929 . S
H394 C408 0.930 . S
H395 C410 0.960 . S
H396 C410 0.960 . S
H397 C410 0.960 . S
C398 H390 0.929 . S
C398 C399 1.377 . S
C398 C400 1.384 . S
C399 C398 1.377 . S
C399 C405 1.390 . S
C400 H391 0.930 . S
C400 C398 1.384 . S
C400 C401 1.372 . S
C401 C400 1.372 . S
C401 C402 1.400 . S
C401 C406 1.490 . S
C402 H392 0.930 . S
C402 C401 1.400 . S
C402 C405 1.386 . S
H403 C419 0.930 . S
H404 C420 0.931 . S
C405 H393 0.929 . S
C405 C399 1.390 . S
C405 C402 1.386 . S
C406 C401 1.490 . S
C406 C408 1.395 . S
C406 C409 1.403 . S
H407 C413 0.930 . S
C408 H394 0.930 . S
C408 C406 1.395 . S
C408 C411 1.403 . S
C409 C406 1.403 . S
C409 C410 1.524 . S
C409 C413 1.400 . S
C410 H395 0.960 . S
C410 H396 0.960 . S
C410 H397 0.960 . S
C410 C409 1.524 . S
C411 C408 1.403 . S
C411 C412 1.392 . S
C411 C415 1.495 . S
C412 C411 1.392 . S
C412 C413 1.385 . S
C412 C414 1.478 . S
C413 H407 0.930 . S
C413 C409 1.400 . S
C413 C412 1.385 . S
C414 C412 1.478 . S
C414 C416 1.381 . S
C414 C420 1.383 . S
C415 C411 1.495 . S
C415 H421 0.959 . S
C415 H422 0.961 . S
C415 H423 0.960 . S
C416 C414 1.381 . S
C416 C417 1.394 . S
C416 H424 0.930 . S
C417 C416 1.394 . S
C417 C418 1.383 . S
C417 H425 0.929 . S
C418 C417 1.383 . S
C418 C419 1.377 . S
C419 H403 0.930 . S
C419 C418 1.377 . S
C419 C420 1.379 . S
C420 H404 0.931 . S
C420 C414 1.383 . S
C420 C419 1.379 . S
H421 C415 0.959 . S
H422 C415 0.961 . S
H423 C415 0.960 . S
H424 C416 0.930 . S
H425 C417 0.929 . S
H426 C434 0.929 . S
H427 C436 0.930 . S
H428 C438 0.930 . S
H429 C441 0.929 . S
H430 C444 0.930 . S
H431 C446 0.960 . S
H432 C446 0.960 . S
H433 C446 0.960 . S
C434 H426 0.929 . S
C434 C435 1.377 . S
C434 C436 1.384 . S
C435 C434 1.377 . S
C435 C441 1.390 . S
C436 H427 0.930 . S
C436 C434 1.384 . S
C436 C437 1.372 . S
C437 C436 1.372 . S
C437 C438 1.400 . S
C437 C442 1.490 . S
C438 H428 0.930 . S
C438 C437 1.400 . S
C438 C441 1.386 . S
H439 C455 0.930 . S
H440 C456 0.931 . S
C441 H429 0.929 . S
C441 C435 1.390 . S
C441 C438 1.386 . S
C442 C437 1.490 . S
C442 C444 1.395 . S
C442 C445 1.403 . S
H443 C449 0.930 . S
C444 H430 0.930 . S
C444 C442 1.395 . S
C444 C447 1.403 . S
C445 C442 1.403 . S
C445 C446 1.524 . S
C445 C449 1.400 . S
C446 H431 0.960 . S
C446 H432 0.960 . S
C446 H433 0.960 . S
C446 C445 1.524 . S
C447 C444 1.403 . S
C447 C448 1.392 . S
C447 C451 1.495 . S
C448 C447 1.392 . S
C448 C449 1.385 . S
C448 C450 1.478 . S
C449 H443 0.930 . S
C449 C445 1.400 . S
C449 C448 1.385 . S
C450 C448 1.478 . S
C450 C452 1.381 . S
C450 C456 1.383 . S
C451 C447 1.495 . S
C451 H457 0.959 . S
C451 H458 0.961 . S
C451 H459 0.960 . S
C452 C450 1.381 . S
C452 C453 1.394 . S
C452 H460 0.930 . S
C453 C452 1.394 . S
C453 C454 1.383 . S
C453 H461 0.929 . S
C454 C453 1.383 . S
C454 C455 1.377 . S
C455 H439 0.930 . S
C455 C454 1.377 . S
C455 C456 1.379 . S
C456 H440 0.931 . S
C456 C450 1.383 . S
C456 C455 1.379 . S
H457 C451 0.959 . S
H458 C451 0.961 . S
H459 C451 0.960 . S
H460 C452 0.930 . S
H461 C453 0.929 . S
H462 C470 0.929 . S
H463 C472 0.930 . S
H464 C474 0.930 . S
H465 C477 0.929 . S
H466 C480 0.930 . S
H467 C482 0.976 . S
H468 C482 0.950 1_556 S
H469 C482 0.955 1_556 S
C470 H462 0.929 . S
C470 C471 1.377 . S
C470 C472 1.384 . S
C471 C470 1.377 . S
C471 C477 1.390 . S
C472 H463 0.930 . S
C472 C470 1.384 . S
C472 C473 1.372 . S
C473 C472 1.372 . S
C473 C474 1.400 . S
C473 C478 1.490 . S
C474 H464 0.930 . S
C474 C473 1.400 . S
C474 C477 1.386 . S
H475 C491 0.930 . S
H476 C492 0.931 . S
C477 H465 0.929 . S
C477 C471 1.390 . S
C477 C474 1.386 . S
C478 C473 1.490 . S
C478 C480 1.395 . S
C478 C481 1.427 . S
H479 C485 0.930 . S
C480 H466 0.930 . S
C480 C478 1.395 . S
C480 C483 1.415 . S
C481 C478 1.427 . S
C481 C482 1.523 1_556 S
C481 C485 1.376 1_556 S
C482 H467 0.976 . S
C482 H468 0.950 1_554 S
C482 H469 0.955 1_554 S
C482 C481 1.523 1_554 S
C483 C480 1.415 . S
C483 C484 1.380 1_556 S
C483 C487 1.496 . S
C484 C483 1.380 1_554 S
C484 C485 1.385 . S
C484 C486 1.478 . S
C485 H479 0.930 . S
C485 C481 1.376 1_554 S
C485 C484 1.385 . S
C486 C484 1.478 . S
C486 C488 1.381 . S
C486 C492 1.383 . S
C487 C483 1.496 . S
C487 H493 0.959 . S
C487 H494 0.961 1_556 S
C487 H495 0.960 1_556 S
C488 C486 1.381 . S
C488 C489 1.394 . S
C488 H496 0.930 . S
C489 C488 1.394 . S
C489 C490 1.383 . S
C489 H497 0.929 . S
C490 C489 1.383 . S
C490 C491 1.377 . S
C491 H475 0.930 . S
C491 C490 1.377 . S
C491 C492 1.379 . S
C492 H476 0.931 . S
C492 C486 1.383 . S
C492 C491 1.379 . S
H493 C487 0.959 . S
H494 C487 0.961 1_554 S
H495 C487 0.960 1_554 S
H496 C488 0.930 . S
H497 C489 0.929 . S
H498 C506 0.929 . S
H499 C508 0.930 . S
H500 C510 0.930 . S
H501 C513 0.929 . S
H502 C516 0.930 . S
H503 C518 0.960 . S
H504 C518 0.960 . S
H505 C518 0.960 . S
C506 H498 0.929 . S
C506 C507 1.377 . S
C506 C508 1.384 . S
C507 C506 1.377 . S
C507 C513 1.390 . S
C508 H499 0.930 . S
C508 C506 1.384 . S
C508 C509 1.372 . S
C509 C508 1.372 . S
C509 C510 1.400 . S
C509 C514 1.490 . S
C510 H500 0.930 . S
C510 C509 1.400 . S
C510 C513 1.386 . S
H511 C527 0.930 . S
H512 C528 0.931 . S
C513 H501 0.929 . S
C513 C507 1.390 . S
C513 C510 1.386 . S
C514 C509 1.490 . S
C514 C516 1.395 . S
C514 C517 1.403 . S
H515 C521 0.930 . S
C516 H502 0.930 . S
C516 C514 1.395 . S
C516 C519 1.403 . S
C517 C514 1.403 . S
C517 C518 1.524 . S
C517 C521 1.400 . S
C518 H503 0.960 . S
C518 H504 0.960 . S
C518 H505 0.960 . S
C518 C517 1.524 . S
C519 C516 1.403 . S
C519 C520 1.392 . S
C519 C523 1.495 . S
C520 C519 1.392 . S
C520 C521 1.385 . S
C520 C522 1.478 . S
C521 H515 0.930 . S
C521 C517 1.400 . S
C521 C520 1.385 . S
C522 C520 1.478 . S
C522 C524 1.381 . S
C522 C528 1.383 . S
C523 C519 1.495 . S
C523 H529 0.959 . S
C523 H530 0.961 . S
C523 H531 0.960 . S
C524 C522 1.381 . S
C524 C525 1.394 . S
C524 H532 0.930 . S
C525 C524 1.394 . S
C525 C526 1.383 . S
C525 H533 0.929 . S
C526 C525 1.383 . S
C526 C527 1.377 . S
C527 H511 0.930 . S
C527 C526 1.377 . S
C527 C528 1.379 . S
C528 H512 0.931 . S
C528 C522 1.383 . S
C528 C527 1.379 . S
H529 C523 0.959 . S
H530 C523 0.961 . S
H531 C523 0.960 . S
H532 C524 0.930 . S
H533 C525 0.929 . S
H534 C542 0.929 . S
H535 C544 0.930 . S
H536 C546 0.930 . S
H537 C549 0.929 . S
H538 C552 0.930 . S
H539 C554 0.960 . S
H540 C554 0.960 . S
H541 C554 0.960 . S
C542 H534 0.929 . S
C542 C543 1.377 . S
C542 C544 1.384 . S
C543 C542 1.377 . S
C543 C549 1.390 . S
C544 H535 0.930 . S
C544 C542 1.384 . S
C544 C545 1.372 . S
C545 C544 1.372 . S
C545 C546 1.400 . S
C545 C550 1.490 . S
C546 H536 0.930 . S
C546 C545 1.400 . S
C546 C549 1.386 . S
H547 C563 0.930 . S
H548 C564 0.931 . S
C549 H537 0.929 . S
C549 C543 1.390 . S
C549 C546 1.386 . S
C550 C545 1.490 . S
C550 C552 1.395 . S
C550 C553 1.403 . S
H551 C557 0.930 . S
C552 H538 0.930 . S
C552 C550 1.395 . S
C552 C555 1.403 . S
C553 C550 1.403 . S
C553 C554 1.524 . S
C553 C557 1.400 . S
C554 H539 0.960 . S
C554 H540 0.960 . S
C554 H541 0.960 . S
C554 C553 1.524 . S
C555 C552 1.403 . S
C555 C556 1.392 . S
C555 C559 1.495 . S
C556 C555 1.392 . S
C556 C557 1.385 . S
C556 C558 1.478 . S
C557 H551 0.930 . S
C557 C553 1.400 . S
C557 C556 1.385 . S
C558 C556 1.478 . S
C558 C560 1.381 . S
C558 C564 1.383 . S
C559 C555 1.495 . S
C559 H565 0.959 . S
C559 H566 0.961 . S
C559 H567 0.960 . S
C560 C558 1.381 . S
C560 C561 1.394 . S
C560 H568 0.930 . S
C561 C560 1.394 . S
C561 C562 1.383 . S
C561 H569 0.929 . S
C562 C561 1.383 . S
C562 C563 1.377 . S
C563 H547 0.930 . S
C563 C562 1.377 . S
C563 C564 1.379 . S
C564 H548 0.931 . S
C564 C558 1.383 . S
C564 C563 1.379 . S
H565 C559 0.959 . S
H566 C559 0.961 . S
H567 C559 0.960 . S
H568 C560 0.930 . S
H569 C561 0.929 . S
C147 N12 1.472 . S
C166 N81 1.478 . S
C183 C39 1.689 . S
C202 C108 1.705 . S
C219 N58 1.348 . S
C238 N127 1.353 . S
C255 C30 1.775 . S
C274 C99 1.764 . S
C291 N117 1.493 . S
C310 N48 1.510 . S
C327 N71 1.377 . S
C346 N2 1.404 . S
C363 C62 1.912 . S
C382 C7 1.970 . S
C399 C85 1.949 . S
C418 N25 1.896 . S
C435 C53 1.998 . S
C454 N104 1.986 . S
C471 C131 1.914 . S
C490 C76 1.975 . S
C507 N94 1.871 . S
C526 C16 1.971 . S
C543 C122 2.003 . S
C562 N35 1.956 . S
